0:0
     RDKit          3D

 63 66  0  0  0  0  0  0  0  0999 V2000
   -6.4820   25.6990  -29.3520 C   0  0  0  0  0  0  0  0  0  0  0  0
   -6.3410   25.2950  -30.7100 O   0  0  0  0  0  0  0  0  0  0  0  0
   -6.4060   23.9720  -31.1680 C   0  0  0  0  0  0  0  0  0  0  0  0
   -7.6470   23.3550  -31.4230 C   0  0  0  0  0  0  0  0  0  0  0  0
   -7.7100   22.0510  -31.9110 C   0  0  0  0  0  0  0  0  0  0  0  0
   -6.5360   21.3250  -32.1590 C   0  0  0  0  0  0  0  0  0  0  0  0
   -6.6020   19.9380  -32.6870 C   0  0  0  0  0  0  0  0  0  0  0  0
   -6.0620   19.6270  -33.9470 C   0  0  0  0  0  0  0  0  0  0  0  0
   -6.1190   18.3210  -34.4420 C   0  0  0  0  0  0  0  0  0  0  0  0
   -6.7180   17.2960  -33.6840 C   0  0  0  0  0  0  0  0  0  0  0  0
   -6.7890   15.9390  -34.1640 N   0  0  0  0  0  0  0  0  0  0  0  0
   -5.6760   14.9940  -34.0670 C   0  0  0  0  0  0  0  0  0  0  0  0
   -4.3580   15.7200  -34.0960 C   0  0  0  0  0  0  0  0  0  0  0  0
   -3.7210   15.9860  -35.3150 C   0  0  0  0  0  0  0  0  0  0  0  0
   -2.5180   16.6950  -35.3450 C   0  0  0  0  0  0  0  0  0  0  0  0
   -1.9270   17.1700  -34.1540 C   0  0  0  0  0  0  0  0  0  0  0  0
   -0.6770   17.9110  -34.1830 N   0  0  0  0  0  0  0  0  0  0  0  0
    0.6080   17.2040  -34.2520 C   0  0  0  0  0  0  0  0  0  0  0  0
   -0.6780   19.3790  -34.1470 C   0  0  0  0  0  0  0  0  0  0  0  0
   -2.5870   16.9100  -32.9340 C   0  0  0  0  0  0  0  0  0  0  0  0
   -3.7900   16.1980  -32.9080 C   0  0  0  0  0  0  0  0  0  0  0  0
   -7.2580   17.6090  -32.4280 C   0  0  0  0  0  0  0  0  0  0  0  0
   -7.2020   18.9140  -31.9330 C   0  0  0  0  0  0  0  0  0  0  0  0
   -5.2980   21.9330  -31.9000 C   0  0  0  0  0  0  0  0  0  0  0  0
   -5.2140   23.2380  -31.3970 C   0  0  0  0  0  0  0  0  0  0  0  0
   -3.9180   23.7340  -31.1590 O   0  0  0  0  0  0  0  0  0  0  0  0
   -3.0940   23.5070  -30.0120 C   0  0  0  0  0  0  0  0  0  0  0  0
   -2.7700   22.0210  -29.9050 C   0  0  0  0  0  0  0  0  0  0  0  0
   -2.7260   21.7210  -28.4200 C   0  0  0  0  0  0  0  0  0  0  0  0
   -3.7510   22.6520  -27.7990 C   0  0  0  0  0  0  0  0  0  0  0  0
   -3.8180   23.8750  -28.7080 C   0  0  0  0  0  0  0  0  0  0  0  0
   -6.1924   24.8691  -28.6906 H   0  0  0  0  0  0  0  0  0  0  0  0
   -5.8333   26.5659  -29.1581 H   0  0  0  0  0  0  0  0  0  0  0  0
   -7.5293   25.9740  -29.1581 H   0  0  0  0  0  0  0  0  0  0  0  0
   -8.5780   23.9097  -31.2345 H   0  0  0  0  0  0  0  0  0  0  0  0
   -8.6888   21.5873  -32.1033 H   0  0  0  0  0  0  0  0  0  0  0  0
   -5.5906   20.4181  -34.5486 H   0  0  0  0  0  0  0  0  0  0  0  0
   -5.6932   18.0922  -35.4301 H   0  0  0  0  0  0  0  0  0  0  0  0
   -7.6810   15.6220  -34.6090 H   0  0  0  0  0  0  0  0  0  0  0  0
   -5.7590   14.4338  -33.1240 H   0  0  0  0  0  0  0  0  0  0  0  0
   -5.7200   14.3063  -34.9244 H   0  0  0  0  0  0  0  0  0  0  0  0
   -4.1713   15.6341  -36.2549 H   0  0  0  0  0  0  0  0  0  0  0  0
   -2.0245   16.8858  -36.3094 H   0  0  0  0  0  0  0  0  0  0  0  0
    0.9716   17.0040  -33.2333 H   0  0  0  0  0  0  0  0  0  0  0  0
    0.4746   16.2523  -34.7872 H   0  0  0  0  0  0  0  0  0  0  0  0
    1.3405   17.8261  -34.7872 H   0  0  0  0  0  0  0  0  0  0  0  0
   -0.6782   19.7201  -33.1012 H   0  0  0  0  0  0  0  0  0  0  0  0
    0.2199   19.7589  -34.6564 H   0  0  0  0  0  0  0  0  0  0  0  0
   -1.5764   19.7577  -34.6564 H   0  0  0  0  0  0  0  0  0  0  0  0
   -2.1496   17.2720  -31.9919 H   0  0  0  0  0  0  0  0  0  0  0  0
   -4.2939   16.0119  -31.9481 H   0  0  0  0  0  0  0  0  0  0  0  0
   -7.7306   16.8185  -31.8264 H   0  0  0  0  0  0  0  0  0  0  0  0
   -7.6305   19.1423  -30.9459 H   0  0  0  0  0  0  0  0  0  0  0  0
   -4.3723   21.3722  -32.0964 H   0  0  0  0  0  0  0  0  0  0  0  0
   -2.1948   24.1279  -30.1382 H   0  0  0  0  0  0  0  0  0  0  0  0
   -3.5510   21.4212  -30.3952 H   0  0  0  0  0  0  0  0  0  0  0  0
   -1.8186   21.7746  -30.3991 H   0  0  0  0  0  0  0  0  0  0  0  0
   -2.9927   20.6709  -28.2299 H   0  0  0  0  0  0  0  0  0  0  0  0
   -1.7216   21.8729  -27.9980 H   0  0  0  0  0  0  0  0  0  0  0  0
   -4.7332   22.1594  -27.7490 H   0  0  0  0  0  0  0  0  0  0  0  0
   -3.4712   22.9297  -26.7721 H   0  0  0  0  0  0  0  0  0  0  0  0
   -4.8666   24.1323  -28.9180 H   0  0  0  0  0  0  0  0  0  0  0  0
   -3.3456   24.7456  -28.2295 H   0  0  0  0  0  0  0  0  0  0  0  0
  1  2  1  0
  2  3  1  0
  3  4  2  0
  4  5  1  0
  5  6  2  0
  6  7  1  0
  7  8  2  0
  8  9  1  0
  9 10  2  0
 10 11  1  0
 11 12  1  0
 12 13  1  0
 13 14  2  0
 14 15  1  0
 15 16  2  0
 16 17  1  0
 17 18  1  0
 17 19  1  0
 16 20  1  0
 20 21  2  0
 10 22  1  0
 22 23  2  0
  6 24  1  0
 24 25  2  0
 25 26  1  0
 26 27  1  0
 27 28  1  0
 28 29  1  0
 29 30  1  0
 30 31  1  0
 25  3  1  0
 31 27  1  0
 23  7  1  0
 21 13  1  0
  1 32  1  0
  1 33  1  0
  1 34  1  0
  4 35  1  0
  5 36  1  0
  8 37  1  0
  9 38  1  0
 11 39  1  0
 12 40  1  0
 12 41  1  0
 14 42  1  0
 15 43  1  0
 18 44  1  0
 18 45  1  0
 18 46  1  0
 19 47  1  0
 19 48  1  0
 19 49  1  0
 20 50  1  0
 21 51  1  0
 22 52  1  0
 23 53  1  0
 24 54  1  0
 27 55  1  0
 28 56  1  0
 28 57  1  0
 29 58  1  0
 29 59  1  0
 30 60  1  0
 30 61  1  0
 31 62  1  0
 31 63  1  0
M  END
>  <UniqueID>  (1) 
1

>  <SMILES>  (1) 
COc1ccc(-c2ccc(NCc3ccc(N(C)C)cc3)cc2)cc1OC1CCCC1

>  <Energy>  (1) 
74.71123726631608

>  <Genealogy>  (1) 
COc1ccc(-c2ccc(NCc3ccc(N(C)C)cc3)cc2)cc1OC1CCCC1 (3D coordinates assigned)
COc1ccc(-c2ccc(NCc3ccc(N(C)C)cc3)cc2)cc1OC1CCCC1 (nonaromatic ring conformer: 74.71123726631608 kcal/mol)

>  <smiles>  (1) 
COc1ccc(-c2ccc(NCc3ccc(N(C)C)cc3)cc2)cc1OC1CCCC1

>  <score_type>  (1) 
oracle

>  <origin>  (1) 
adg

>  <m_score__min__energy>  (1) 
-9.9700000000000006

>  <m_primary>  (1) 
energy

$$$$
1:0
     RDKit          3D

 55 57  0  0  0  0  0  0  0  0999 V2000
   -5.8570   20.6520  -31.1000 F   0  0  0  0  0  0  0  0  0  0  0  0
   -7.1330   21.0100  -31.3940 C   0  0  0  0  0  0  0  0  0  0  0  0
   -7.4880   22.3620  -31.3530 C   0  0  0  0  0  0  0  0  0  0  0  0
   -8.7990   22.7520  -31.6400 C   0  0  0  0  0  0  0  0  0  0  0  0
   -9.7590   21.7910  -31.9650 C   0  0  0  0  0  0  0  0  0  0  0  0
   -9.4110   20.4380  -32.0060 C   0  0  0  0  0  0  0  0  0  0  0  0
   -8.0920   20.0350  -31.7280 C   0  0  0  0  0  0  0  0  0  0  0  0
   -7.7170   18.5690  -31.7800 C   0  0  0  0  0  0  0  0  0  0  0  0
   -7.3870   18.1160  -33.1560 N   0  0  2  0  0  0  0  0  0  0  0  0
   -6.8980   16.7050  -33.1720 C   0  0  0  0  0  0  0  0  0  0  0  0
   -5.3690   16.6130  -33.1560 C   0  0  0  0  0  0  0  0  0  0  0  0
   -4.7790   17.2570  -34.4300 C   0  0  2  0  0  0  0  0  0  0  0  0
   -3.2710   17.5680  -34.2770 C   0  0  0  0  0  0  0  0  0  0  0  0
   -2.8930   18.3930  -33.0340 C   0  0  0  0  0  0  0  0  0  0  0  0
   -2.3440   19.6930  -33.4600 N   0  0  0  0  0  0  0  0  0  0  0  0
   -3.3560   20.7610  -33.4610 C   0  0  0  0  0  0  0  0  0  0  0  0
   -3.3850   21.4840  -32.1380 C   0  0  0  0  0  0  0  0  0  0  0  0
   -2.7400   20.9310  -31.0220 C   0  0  0  0  0  0  0  0  0  0  0  0
   -2.8220   21.5610  -29.7790 C   0  0  0  0  0  0  0  0  0  0  0  0
   -3.5450   22.7490  -29.6400 C   0  0  0  0  0  0  0  0  0  0  0  0
   -4.1810   23.3310  -30.7500 C   0  0  0  0  0  0  0  0  0  0  0  0
   -5.0060   24.5800  -30.5730 C   0  0  0  0  0  0  0  0  0  0  0  0
   -5.8000   24.7650  -31.6890 F   0  0  0  0  0  0  0  0  0  0  0  0
   -5.8170   24.4600  -29.4580 F   0  0  0  0  0  0  0  0  0  0  0  0
   -4.2010   25.6940  -30.4060 F   0  0  0  0  0  0  0  0  0  0  0  0
   -4.1060   22.6820  -31.9960 C   0  0  0  0  0  0  0  0  0  0  0  0
   -5.6250   18.4590  -34.9240 C   0  0  0  0  0  0  0  0  0  0  0  0
   -6.4430   19.0830  -33.7820 C   0  0  0  0  0  0  0  0  0  0  0  0
   -6.7339   23.1200  -31.0944 H   0  0  0  0  0  0  0  0  0  0  0  0
   -9.0749   23.8164  -31.6099 H   0  0  0  0  0  0  0  0  0  0  0  0
  -10.7908   22.0996  -32.1891 H   0  0  0  0  0  0  0  0  0  0  0  0
  -10.1721   19.6845  -32.2569 H   0  0  0  0  0  0  0  0  0  0  0  0
   -6.8411   18.4056  -31.1349 H   0  0  0  0  0  0  0  0  0  0  0  0
   -8.5858   17.9887  -31.4358 H   0  0  0  0  0  0  0  0  0  0  0  0
   -8.2660   18.1420  -33.7260 H   0  0  0  0  0  0  0  0  0  0  0  0
   -7.2918   16.1853  -32.2861 H   0  0  0  0  0  0  0  0  0  0  0  0
   -7.2507   16.2399  -34.1044 H   0  0  0  0  0  0  0  0  0  0  0  0
   -4.9831   17.1402  -32.2710 H   0  0  0  0  0  0  0  0  0  0  0  0
   -5.0750   15.5536  -33.1220 H   0  0  0  0  0  0  0  0  0  0  0  0
   -4.8417   16.5116  -35.2365 H   0  0  0  0  0  0  0  0  0  0  0  0
   -2.7300   16.6115  -34.2276 H   0  0  0  0  0  0  0  0  0  0  0  0
   -2.9976   18.1843  -35.1461 H   0  0  0  0  0  0  0  0  0  0  0  0
   -3.7880   18.5570  -32.4158 H   0  0  0  0  0  0  0  0  0  0  0  0
   -2.1385   17.8493  -32.4466 H   0  0  0  0  0  0  0  0  0  0  0  0
   -1.9900   19.5990  -34.4420 H   0  0  0  0  0  0  0  0  0  0  0  0
   -3.1179   21.4805  -34.2583 H   0  0  0  0  0  0  0  0  0  0  0  0
   -4.3430   20.3064  -33.6319 H   0  0  0  0  0  0  0  0  0  0  0  0
   -2.1675   19.9976  -31.1266 H   0  0  0  0  0  0  0  0  0  0  0  0
   -2.3163   21.1213  -28.9067 H   0  0  0  0  0  0  0  0  0  0  0  0
   -3.6168   23.2321  -28.6544 H   0  0  0  0  0  0  0  0  0  0  0  0
   -4.6168   23.1166  -32.8679 H   0  0  0  0  0  0  0  0  0  0  0  0
   -4.9513   19.2230  -35.3393 H   0  0  0  0  0  0  0  0  0  0  0  0
   -6.3257   18.0948  -35.6898 H   0  0  0  0  0  0  0  0  0  0  0  0
   -5.7489   19.4471  -33.0102 H   0  0  0  0  0  0  0  0  0  0  0  0
   -7.0409   19.9011  -34.2101 H   0  0  0  0  0  0  0  0  0  0  0  0
  1  2  1  0
  2  3  2  0
  3  4  1  0
  4  5  2  0
  5  6  1  0
  6  7  2  0
  7  8  1  0
  8  9  1  0
  9 10  1  0
 10 11  1  0
 11 12  1  0
 12 13  1  0
 13 14  1  0
 14 15  1  0
 15 16  1  0
 16 17  1  0
 17 18  2  0
 18 19  1  0
 19 20  2  0
 20 21  1  0
 21 22  1  0
 22 23  1  0
 22 24  1  0
 22 25  1  0
 21 26  2  0
 12 27  1  0
 27 28  1  0
  7  2  1  0
 28  9  1  0
 26 17  1  0
  3 29  1  0
  4 30  1  0
  5 31  1  0
  6 32  1  0
  8 33  1  0
  8 34  1  0
  9 35  1  6
 10 36  1  0
 10 37  1  0
 11 38  1  0
 11 39  1  0
 12 40  1  6
 13 41  1  0
 13 42  1  0
 14 43  1  0
 14 44  1  0
 15 45  1  0
 16 46  1  0
 16 47  1  0
 18 48  1  0
 19 49  1  0
 20 50  1  0
 26 51  1  0
 27 52  1  0
 27 53  1  0
 28 54  1  0
 28 55  1  0
M  CHG  1   9   1
M  END
>  <UniqueID>  (2) 
2

>  <SMILES>  (2) 
Fc1ccccc1C[NH+]1CCC(CCNCc2cccc(C(F)(F)F)c2)CC1

>  <Energy>  (2) 
62.992144218672635

>  <Genealogy>  (2) 
Fc1ccccc1C[NH+]1CCC(CCNCc2cccc(C(F)(F)F)c2)CC1 (protonated)
Fc1ccccc1C[NH+]1CCC(CCNCc2cccc(C(F)(F)F)c2)CC1 (3D coordinates assigned)
Fc1ccccc1C[NH+]1CCC(CCNCc2cccc(C(F)(F)F)c2)CC1 (nonaromatic ring conformer: 62.992144218672635 kcal/mol)

>  <smiles>  (2) 
Fc1ccccc1CN1CCC(CCNCc2cccc(C(F)(F)F)c2)CC1

>  <score_type>  (2) 
oracle

>  <origin>  (2) 
adg

>  <m_score__min__energy>  (2) 
-8.2899999999999991

>  <m_primary>  (2) 
energy

$$$$
2:0
     RDKit          3D

 42 44  0  0  0  0  0  0  0  0999 V2000
   -2.4920   20.4130  -33.9500 C   0  0  0  0  0  0  0  0  0  0  0  0
   -2.9260   20.1750  -32.5020 C   0  0  0  0  0  0  0  0  0  0  0  0
   -4.3360   20.5760  -32.2800 N   0  0  0  0  0  0  0  0  0  0  0  0
   -4.6360   21.8950  -31.9950 C   0  0  0  0  0  0  0  0  0  0  0  0
   -3.5970   22.9220  -31.5630 C   0  0  0  0  0  0  0  0  0  0  0  0
   -4.2410   24.1980  -31.1960 N   0  0  0  0  0  0  0  0  0  0  0  0
   -4.7810   24.1890  -29.8260 C   0  0  0  0  0  0  0  0  0  0  0  0
   -3.7140   24.5080  -28.8240 C   0  0  0  0  0  0  0  0  0  0  0  0
   -3.7290   24.1630  -27.4850 C   0  0  0  0  0  0  0  0  0  0  0  0
   -2.5700   24.6810  -26.9500 C   0  0  0  0  0  0  0  0  0  0  0  0
   -1.9190   25.2990  -27.9990 C   0  0  0  0  0  0  0  0  0  0  0  0
   -0.6080   26.0050  -27.9140 C   0  0  0  0  0  0  0  0  0  0  0  0
   -2.6160   25.1710  -29.1050 O   0  0  0  0  0  0  0  0  0  0  0  0
   -5.9550   22.3460  -32.0940 C   0  0  0  0  0  0  0  0  0  0  0  0
   -6.9930   21.4610  -32.3240 C   0  0  0  0  0  0  0  0  0  0  0  0
   -8.1610   21.9250  -32.3980 O   0  0  0  0  0  0  0  0  0  0  0  0
   -6.7290   20.0820  -32.4460 C   0  0  0  0  0  0  0  0  0  0  0  0
   -7.7680   19.1160  -32.5920 C   0  0  0  0  0  0  0  0  0  0  0  0
   -9.4890   19.5080  -32.6170 Cl  0  0  0  0  0  0  0  0  0  0  0  0
   -7.4530   17.7630  -32.7040 C   0  0  0  0  0  0  0  0  0  0  0  0
   -6.1330   17.3400  -32.6700 C   0  0  0  0  0  0  0  0  0  0  0  0
   -5.1020   18.2610  -32.5300 C   0  0  0  0  0  0  0  0  0  0  0  0
   -5.3650   19.6510  -32.4200 C   0  0  0  0  0  0  0  0  0  0  0  0
   -1.5276   20.9419  -33.9615 H   0  0  0  0  0  0  0  0  0  0  0  0
   -2.3864   19.4466  -34.4647 H   0  0  0  0  0  0  0  0  0  0  0  0
   -3.2501   21.0216  -34.4647 H   0  0  0  0  0  0  0  0  0  0  0  0
   -2.8185   19.1054  -32.2687 H   0  0  0  0  0  0  0  0  0  0  0  0
   -2.2880   20.7869  -31.8474 H   0  0  0  0  0  0  0  0  0  0  0  0
   -3.0458   22.5334  -30.6940 H   0  0  0  0  0  0  0  0  0  0  0  0
   -2.9103   23.1030  -32.4030 H   0  0  0  0  0  0  0  0  0  0  0  0
   -3.5030   24.9400  -31.2310 H   0  0  0  0  0  0  0  0  0  0  0  0
   -5.5812   24.9400  -29.7502 H   0  0  0  0  0  0  0  0  0  0  0  0
   -5.1728   23.1838  -29.6113 H   0  0  0  0  0  0  0  0  0  0  0  0
   -4.5064   23.5923  -26.9559 H   0  0  0  0  0  0  0  0  0  0  0  0
   -2.2334   24.6158  -25.9048 H   0  0  0  0  0  0  0  0  0  0  0  0
   -0.3377   26.1505  -26.8577 H   0  0  0  0  0  0  0  0  0  0  0  0
    0.1662   25.4018  -28.4108 H   0  0  0  0  0  0  0  0  0  0  0  0
   -0.6855   26.9834  -28.4108 H   0  0  0  0  0  0  0  0  0  0  0  0
   -6.1708   23.4194  -31.9876 H   0  0  0  0  0  0  0  0  0  0  0  0
   -8.2592   17.0237  -32.8205 H   0  0  0  0  0  0  0  0  0  0  0  0
   -5.9004   16.2682  -32.7544 H   0  0  0  0  0  0  0  0  0  0  0  0
   -4.0614   17.9055  -32.5039 H   0  0  0  0  0  0  0  0  0  0  0  0
  1  2  1  0
  2  3  1  0
  3  4  1  0
  4  5  1  0
  5  6  1  0
  6  7  1  0
  7  8  1  0
  8  9  2  0
  9 10  1  0
 10 11  2  0
 11 12  1  0
 11 13  1  0
  4 14  2  0
 14 15  1  0
 15 16  2  0
 15 17  1  0
 17 18  2  0
 18 19  1  0
 18 20  1  0
 20 21  2  0
 21 22  1  0
 22 23  2  0
 23  3  1  0
 13  8  1  0
 23 17  1  0
  1 24  1  0
  1 25  1  0
  1 26  1  0
  2 27  1  0
  2 28  1  0
  5 29  1  0
  5 30  1  0
  6 31  1  0
  7 32  1  0
  7 33  1  0
  9 34  1  0
 10 35  1  0
 12 36  1  0
 12 37  1  0
 12 38  1  0
 14 39  1  0
 20 40  1  0
 21 41  1  0
 22 42  1  0
M  END
>  <UniqueID>  (3) 
3

>  <SMILES>  (3) 
CCn1c(CNCc2ccc(C)o2)cc(=O)c2c(Cl)cccc21

>  <Energy>  (3) 
81.79074094958537

>  <Genealogy>  (3) 
CCn1c(CNCc2ccc(C)o2)cc(=O)c2c(Cl)cccc21 (3D coordinates assigned)
CCn1c(CNCc2ccc(C)o2)cc(=O)c2c(Cl)cccc21 (optimized conformer: 81.79074094958537 kcal/mol)

>  <smiles>  (3) 
CCn1c(CNCc2ccc(C)o2)cc(=O)c2c(Cl)cccc21

>  <score_type>  (3) 
oracle

>  <origin>  (3) 
adg

>  <m_score__min__energy>  (3) 
-8.9199999999999999

>  <m_primary>  (3) 
energy

$$$$
3:0
     RDKit          3D

 36 38  0  0  0  0  0  0  0  0999 V2000
   -0.4520   24.6880  -24.3950 C   0  0  0  0  0  0  0  0  0  0  0  0
   -0.5960   25.3650  -25.6400 O   0  0  0  0  0  0  0  0  0  0  0  0
   -1.5290   25.0200  -26.6300 C   0  0  0  0  0  0  0  0  0  0  0  0
   -2.9020   24.8940  -26.3510 C   0  0  0  0  0  0  0  0  0  0  0  0
   -3.8020   24.5490  -27.3600 C   0  0  0  0  0  0  0  0  0  0  0  0
   -3.3530   24.3240  -28.6730 C   0  0  0  0  0  0  0  0  0  0  0  0
   -4.2700   23.9650  -29.7280 N   0  0  0  0  0  0  0  0  0  0  0  0
   -5.0930   22.8990  -29.7850 C   0  0  0  0  0  0  0  0  0  0  0  0
   -5.7750   22.9930  -30.9840 C   0  0  0  0  0  0  0  0  0  0  0  0
   -6.8020   22.0690  -31.5210 C   0  0  0  0  0  0  0  0  0  0  0  0
   -6.4100   20.9460  -32.2740 C   0  0  0  0  0  0  0  0  0  0  0  0
   -7.3670   20.0660  -32.7860 C   0  0  0  0  0  0  0  0  0  0  0  0
   -8.7260   20.2940  -32.5530 C   0  0  0  0  0  0  0  0  0  0  0  0
   -9.6520   19.4380  -33.0510 F   0  0  0  0  0  0  0  0  0  0  0  0
   -9.1280   21.4040  -31.8080 C   0  0  0  0  0  0  0  0  0  0  0  0
   -8.1740   22.2880  -31.2930 C   0  0  0  0  0  0  0  0  0  0  0  0
   -5.3520   24.1070  -31.6140 N   0  0  0  0  0  0  0  0  0  0  0  0
   -4.4440   24.6730  -30.8340 N   0  0  0  0  0  0  0  0  0  0  0  0
   -1.9790   24.4470  -28.9480 C   0  0  0  0  0  0  0  0  0  0  0  0
   -1.0660   24.7940  -27.9340 C   0  0  0  0  0  0  0  0  0  0  0  0
    0.3100   24.9270  -28.1830 O   0  0  0  0  0  0  0  0  0  0  0  0
    1.3230   24.1520  -27.5520 C   0  0  0  0  0  0  0  0  0  0  0  0
   -0.6035   25.4003  -23.5706 H   0  0  0  0  0  0  0  0  0  0  0  0
   -1.1991   23.8836  -24.3265 H   0  0  0  0  0  0  0  0  0  0  0  0
    0.5579   24.2573  -24.3265 H   0  0  0  0  0  0  0  0  0  0  0  0
   -3.2692   25.0689  -25.3290 H   0  0  0  0  0  0  0  0  0  0  0  0
   -4.8724   24.4522  -27.1259 H   0  0  0  0  0  0  0  0  0  0  0  0
   -5.2008   22.1095  -29.0267 H   0  0  0  0  0  0  0  0  0  0  0  0
   -5.3421   20.7598  -32.4607 H   0  0  0  0  0  0  0  0  0  0  0  0
   -7.0500   19.1919  -33.3737 H   0  0  0  0  0  0  0  0  0  0  0  0
  -10.1977   21.5840  -31.6255 H   0  0  0  0  0  0  0  0  0  0  0  0
   -8.4979   23.1601  -30.7060 H   0  0  0  0  0  0  0  0  0  0  0  0
   -1.6126   24.2695  -29.9699 H   0  0  0  0  0  0  0  0  0  0  0  0
    1.2188   24.2317  -26.4599 H   0  0  0  0  0  0  0  0  0  0  0  0
    1.2209   23.0993  -27.8542 H   0  0  0  0  0  0  0  0  0  0  0  0
    2.3124   24.5259  -27.8542 H   0  0  0  0  0  0  0  0  0  0  0  0
  1  2  1  0
  2  3  1  0
  3  4  2  0
  4  5  1  0
  5  6  2  0
  6  7  1  0
  7  8  1  0
  8  9  2  0
  9 10  1  0
 10 11  2  0
 11 12  1  0
 12 13  2  0
 13 14  1  0
 13 15  1  0
 15 16  2  0
  9 17  1  0
 17 18  2  0
  6 19  1  0
 19 20  2  0
 20 21  1  0
 21 22  1  0
 20  3  1  0
 18  7  1  0
 16 10  1  0
  1 23  1  0
  1 24  1  0
  1 25  1  0
  4 26  1  0
  5 27  1  0
  8 28  1  0
 11 29  1  0
 12 30  1  0
 15 31  1  0
 16 32  1  0
 19 33  1  0
 22 34  1  0
 22 35  1  0
 22 36  1  0
M  END
>  <UniqueID>  (4) 
4

>  <SMILES>  (4) 
COc1ccc(-n2cc(-c3ccc(F)cc3)nn2)cc1OC

>  <Energy>  (4) 
76.33666722121184

>  <Genealogy>  (4) 
COc1ccc(-n2cc(-c3ccc(F)cc3)nn2)cc1OC (3D coordinates assigned)
COc1ccc(-n2cc(-c3ccc(F)cc3)nn2)cc1OC (optimized conformer: 76.33666722121184 kcal/mol)

>  <smiles>  (4) 
COc1ccc(-n2cc(-c3ccc(F)cc3)nn2)cc1OC

>  <score_type>  (4) 
oracle

>  <origin>  (4) 
adg

>  <m_score__min__energy>  (4) 
-8.1099999999999994

>  <m_primary>  (4) 
energy

$$$$
4:0
     RDKit          3D

 38 41  0  0  0  0  0  0  0  0999 V2000
   -6.4440   18.8710  -33.4780 C   0  0  0  0  0  0  0  0  0  0  0  0
   -6.6250   20.1620  -32.7420 C   0  0  0  0  0  0  0  0  0  0  0  0
   -5.5330   20.9170  -32.4380 N   0  0  0  0  0  0  0  0  0  0  0  0
   -5.6480   22.0960  -31.7730 C   0  0  0  0  0  0  0  0  0  0  0  0
   -4.5140   22.8570  -31.4720 C   0  0  0  0  0  0  0  0  0  0  0  0
   -4.6490   24.0850  -30.7970 C   0  0  0  0  0  0  0  0  0  0  0  0
   -3.5080   24.8900  -30.4650 N   0  0  0  0  0  0  0  0  0  0  0  0
   -2.4790   24.5520  -29.5250 C   0  0  0  0  0  0  0  0  0  0  0  0
   -1.8630   25.4850  -28.9450 O   0  0  0  0  0  0  0  0  0  0  0  0
   -2.0880   23.1480  -29.2580 C   0  0  0  0  0  0  0  0  0  0  0  0
   -1.1990   22.4710  -30.1160 C   0  0  0  0  0  0  0  0  0  0  0  0
   -0.8320   21.1470  -29.8550 C   0  0  0  0  0  0  0  0  0  0  0  0
   -1.3380   20.4930  -28.7300 C   0  0  0  0  0  0  0  0  0  0  0  0
   -2.2320   21.1520  -27.8780 C   0  0  0  0  0  0  0  0  0  0  0  0
   -2.5910   22.4800  -28.1270 C   0  0  0  0  0  0  0  0  0  0  0  0
   -2.7590   20.4620  -26.7810 O   0  0  0  0  0  0  0  0  0  0  0  0
   -2.6270   19.0430  -26.6700 C   0  0  0  0  0  0  0  0  0  0  0  0
   -1.2440   18.5980  -27.1610 C   0  0  0  0  0  0  0  0  0  0  0  0
   -0.9600   19.1790  -28.4360 O   0  0  0  0  0  0  0  0  0  0  0  0
   -5.9210   24.5150  -30.3950 C   0  0  0  0  0  0  0  0  0  0  0  0
   -7.0570   23.7550  -30.6940 C   0  0  0  0  0  0  0  0  0  0  0  0
   -6.9240   22.5470  -31.3860 C   0  0  0  0  0  0  0  0  0  0  0  0
   -8.0150   21.7970  -31.6870 N   0  0  0  0  0  0  0  0  0  0  0  0
   -7.9010   20.6180  -32.3550 C   0  0  0  0  0  0  0  0  0  0  0  0
   -9.3580   19.7010  -32.7110 Cl  0  0  0  0  0  0  0  0  0  0  0  0
   -6.3289   18.0499  -32.7552 H   0  0  0  0  0  0  0  0  0  0  0  0
   -7.3245   18.6826  -34.1098 H   0  0  0  0  0  0  0  0  0  0  0  0
   -5.5456   18.9320  -34.1098 H   0  0  0  0  0  0  0  0  0  0  0  0
   -3.5164   22.4960  -31.7627 H   0  0  0  0  0  0  0  0  0  0  0  0
   -0.7907   22.9874  -30.9973 H   0  0  0  0  0  0  0  0  0  0  0  0
   -0.1455   20.6215  -30.5352 H   0  0  0  0  0  0  0  0  0  0  0  0
   -3.2686   23.0038  -27.4367 H   0  0  0  0  0  0  0  0  0  0  0  0
   -2.7508   18.7481  -25.6175 H   0  0  0  0  0  0  0  0  0  0  0  0
   -3.3987   18.5620  -27.2889 H   0  0  0  0  0  0  0  0  0  0  0  0
   -0.4809   18.9202  -26.4372 H   0  0  0  0  0  0  0  0  0  0  0  0
   -1.2335   17.5022  -27.2566 H   0  0  0  0  0  0  0  0  0  0  0  0
   -6.0271   25.4585  -29.8394 H   0  0  0  0  0  0  0  0  0  0  0  0
   -8.0525   24.1068  -30.3855 H   0  0  0  0  0  0  0  0  0  0  0  0
  1  2  1  0
  2  3  2  0
  3  4  1  0
  4  5  2  0
  5  6  1  0
  6  7  1  0
  7  8  1  0
  8  9  2  0
  8 10  1  0
 10 11  2  0
 11 12  1  0
 12 13  2  0
 13 14  1  0
 14 15  2  0
 14 16  1  0
 16 17  1  0
 17 18  1  0
 18 19  1  0
  6 20  2  0
 20 21  1  0
 21 22  2  0
 22 23  1  0
 23 24  2  0
 24 25  1  0
 24  2  1  0
 22  4  1  0
 15 10  1  0
 19 13  1  0
  1 26  1  0
  1 27  1  0
  1 28  1  0
  5 29  1  0
 11 30  1  0
 12 31  1  0
 15 32  1  0
 17 33  1  0
 17 34  1  0
 18 35  1  0
 18 36  1  0
 20 37  1  0
 21 38  1  0
M  CHG  1   7  -1
M  END
>  <UniqueID>  (5) 
5

>  <SMILES>  (5) 
Cc1nc2cc([N-]C(=O)c3ccc4c(c3)OCCO4)ccc2nc1Cl

>  <Energy>  (5) 
53.08120367682347

>  <Genealogy>  (5) 
Cc1nc2cc([N-]C(=O)c3ccc4c(c3)OCCO4)ccc2nc1Cl (protonated)
Cc1nc2cc([N-]C(=O)c3ccc4c(c3)OCCO4)ccc2nc1Cl (3D coordinates assigned)
Cc1nc2cc([N-]C(=O)c3ccc4c(c3)OCCO4)ccc2nc1Cl (nonaromatic ring conformer: 53.08120367682347 kcal/mol)

>  <smiles>  (5) 
Cc1nc2cc(NC(=O)c3ccc4c(c3)OCCO4)ccc2nc1Cl

>  <score_type>  (5) 
oracle

>  <origin>  (5) 
adg

>  <m_score__min__energy>  (5) 
-10.550000000000001

>  <m_primary>  (5) 
energy

$$$$
5:0
     RDKit          3D

 49 52  0  0  0  0  0  0  0  0999 V2000
    0.7950   27.0070  -27.0930 C   0  0  0  0  0  0  0  0  0  0  0  0
   -0.2190   25.9550  -27.3940 C   0  0  0  0  0  0  0  0  0  0  0  0
   -1.5780   26.0550  -27.1680 C   0  0  0  0  0  0  0  0  0  0  0  0
   -2.0920   24.8760  -27.6710 C   0  0  0  0  0  0  0  0  0  0  0  0
   -3.5460   24.4960  -27.6820 C   0  0  0  0  0  0  0  0  0  0  0  0
   -3.7900   23.4610  -28.6830 N   0  0  0  0  0  0  0  0  0  0  0  0
   -3.8110   23.7480  -30.0900 C   0  0  0  0  0  0  0  0  0  0  0  0
   -3.6830   24.9370  -30.4910 O   0  0  0  0  0  0  0  0  0  0  0  0
   -3.9780   22.6680  -31.0790 C   0  0  0  0  0  0  0  0  0  0  0  0
   -2.9190   22.0350  -31.7580 C   0  0  0  0  0  0  0  0  0  0  0  0
   -3.4200   21.0610  -32.6090 C   0  0  0  0  0  0  0  0  0  0  0  0
   -2.9550   20.1450  -33.5250 C   0  0  0  0  0  0  0  0  0  0  0  0
   -1.5410   19.9390  -33.9500 C   0  0  0  0  0  0  0  0  0  0  0  0
   -4.0280   19.5030  -34.0610 N   0  0  0  0  0  0  0  0  0  0  0  0
   -5.1380   19.9880  -33.5020 N   0  0  0  0  0  0  0  0  0  0  0  0
   -6.4800   19.4680  -33.8030 C   0  0  0  0  0  0  0  0  0  0  0  0
   -7.5880   20.1330  -32.9510 C   0  0  0  0  0  0  0  0  0  0  0  0
   -8.2850   19.1220  -32.0330 C   0  0  0  0  0  0  0  0  0  0  0  0
   -7.3260   18.3230  -31.3780 O   0  0  0  0  0  0  0  0  0  0  0  0
   -6.7110   17.4080  -32.2740 C   0  0  0  0  0  0  0  0  0  0  0  0
   -6.5050   17.9310  -33.7150 C   0  0  0  0  0  0  0  0  0  0  0  0
   -4.7480   20.9240  -32.6150 C   0  0  0  0  0  0  0  0  0  0  0  0
   -5.4850   22.0020  -31.5670 S   0  0  0  0  0  0  0  0  0  0  0  0
   -1.0770   24.1430  -28.1790 N   0  0  0  0  0  0  0  0  0  0  0  0
   -1.1730   22.8420  -28.8300 C   0  0  0  0  0  0  0  0  0  0  0  0
    0.0640   24.7960  -28.0210 N   0  0  0  0  0  0  0  0  0  0  0  0
    0.8990   27.1149  -26.0033 H   0  0  0  0  0  0  0  0  0  0  0  0
    1.7635   26.7176  -27.5269 H   0  0  0  0  0  0  0  0  0  0  0  0
    0.4702   27.9642  -27.5269 H   0  0  0  0  0  0  0  0  0  0  0  0
   -2.1255   26.8839  -26.6956 H   0  0  0  0  0  0  0  0  0  0  0  0
   -3.8295   24.1155  -26.6896 H   0  0  0  0  0  0  0  0  0  0  0  0
   -4.1467   25.3835  -27.9300 H   0  0  0  0  0  0  0  0  0  0  0  0
   -3.9520   22.4850  -28.3490 H   0  0  0  0  0  0  0  0  0  0  0  0
   -1.8533   22.2769  -31.6322 H   0  0  0  0  0  0  0  0  0  0  0  0
   -0.9007   19.8457  -33.0605 H   0  0  0  0  0  0  0  0  0  0  0  0
   -1.4690   19.0209  -34.5516 H   0  0  0  0  0  0  0  0  0  0  0  0
   -1.2100   20.7984  -34.5516 H   0  0  0  0  0  0  0  0  0  0  0  0
   -6.7112   19.7431  -34.8427 H   0  0  0  0  0  0  0  0  0  0  0  0
   -7.1360   20.9226  -32.3327 H   0  0  0  0  0  0  0  0  0  0  0  0
   -8.3418   20.5493  -33.6355 H   0  0  0  0  0  0  0  0  0  0  0  0
   -8.8821   19.6621  -31.2835 H   0  0  0  0  0  0  0  0  0  0  0  0
   -8.9394   18.4770  -32.6378 H   0  0  0  0  0  0  0  0  0  0  0  0
   -5.7251   17.1423  -31.8648 H   0  0  0  0  0  0  0  0  0  0  0  0
   -7.3991   16.5537  -32.3560 H   0  0  0  0  0  0  0  0  0  0  0  0
   -5.5482   17.5432  -34.0945 H   0  0  0  0  0  0  0  0  0  0  0  0
   -7.3584   17.5824  -34.3151 H   0  0  0  0  0  0  0  0  0  0  0  0
   -1.2312   22.0530  -28.0658 H   0  0  0  0  0  0  0  0  0  0  0  0
   -2.0758   22.8118  -29.4577 H   0  0  0  0  0  0  0  0  0  0  0  0
   -0.2844   22.6796  -29.4577 H   0  0  0  0  0  0  0  0  0  0  0  0
  1  2  1  0
  2  3  1  0
  3  4  2  0
  4  5  1  0
  5  6  1  0
  6  7  1  0
  7  8  2  0
  7  9  1  0
  9 10  2  0
 10 11  1  0
 11 12  1  0
 12 13  1  0
 12 14  2  0
 14 15  1  0
 15 16  1  0
 16 17  1  0
 17 18  1  0
 18 19  1  0
 19 20  1  0
 20 21  1  0
 15 22  1  0
 22 23  1  0
  4 24  1  0
 24 25  1  0
 24 26  1  0
 26  2  2  0
 23  9  1  0
 22 11  2  0
 21 16  1  0
  1 27  1  0
  1 28  1  0
  1 29  1  0
  3 30  1  0
  5 31  1  0
  5 32  1  0
  6 33  1  0
 10 34  1  0
 13 35  1  0
 13 36  1  0
 13 37  1  0
 16 38  1  0
 17 39  1  0
 17 40  1  0
 18 41  1  0
 18 42  1  0
 20 43  1  0
 20 44  1  0
 21 45  1  0
 21 46  1  0
 25 47  1  0
 25 48  1  0
 25 49  1  0
M  END
>  <UniqueID>  (6) 
6

>  <SMILES>  (6) 
Cc1cc(CNC(=O)c2cc3c(C)nn(C4CCOCC4)c3s2)n(C)n1

>  <Energy>  (6) 
166.06570767710213

>  <Genealogy>  (6) 
Cc1cc(CNC(=O)c2cc3c(C)nn(C4CCOCC4)c3s2)n(C)n1 (3D coordinates assigned)
Cc1cc(CNC(=O)c2cc3c(C)nn(C4CCOCC4)c3s2)n(C)n1 (nonaromatic ring conformer: 166.06570767710213 kcal/mol)

>  <smiles>  (6) 
Cc1cc(CNC(=O)c2cc3c(C)nn(C4CCOCC4)c3s2)n(C)n1

>  <score_type>  (6) 
oracle

>  <origin>  (6) 
adg

>  <m_score__min__energy>  (6) 
-9.4900000000000002

>  <m_primary>  (6) 
energy

$$$$
6:0
     RDKit          3D

 54 58  0  0  0  0  0  0  0  0999 V2000
   -6.5570   25.6890  -29.3550 C   0  0  0  0  0  0  0  0  0  0  0  0
   -5.5450   24.6770  -29.7870 C   0  0  0  0  0  0  0  0  0  0  0  0
   -5.8060   23.8360  -30.8910 C   0  0  0  0  0  0  0  0  0  0  0  0
   -4.8490   22.8740  -31.2500 C   0  0  0  0  0  0  0  0  0  0  0  0
   -5.0740   21.9810  -32.3440 N   0  0  0  0  0  0  0  0  0  0  0  0
   -4.0210   21.7650  -33.3400 C   0  0  0  0  0  0  0  0  0  0  0  0
   -3.7440   20.2620  -33.4900 C   0  0  0  0  0  0  0  0  0  0  0  0
   -4.9880   19.4750  -33.4660 N   0  0  0  0  0  0  0  0  0  0  0  0
   -4.9190   18.0460  -33.2840 C   0  0  0  0  0  0  0  0  0  0  0  0
   -4.3870   17.2240  -34.2920 C   0  0  0  0  0  0  0  0  0  0  0  0
   -4.3410   15.8360  -34.1230 C   0  0  0  0  0  0  0  0  0  0  0  0
   -4.8320   15.2570  -32.9490 C   0  0  0  0  0  0  0  0  0  0  0  0
   -5.3720   16.0650  -31.9440 C   0  0  0  0  0  0  0  0  0  0  0  0
   -5.4180   17.4530  -32.1100 C   0  0  0  0  0  0  0  0  0  0  0  0
   -6.2850   20.1660  -33.5010 C   0  0  0  0  0  0  0  0  0  0  0  0
   -6.3290   21.2220  -32.3940 C   0  0  0  0  0  0  0  0  0  0  0  0
   -3.7160   22.7970  -30.5100 N   0  0  0  0  0  0  0  0  0  0  0  0
   -2.7130   21.9520  -30.6710 N   0  0  0  0  0  0  0  0  0  0  0  0
   -1.8120   22.2270  -29.6960 C   0  0  0  0  0  0  0  0  0  0  0  0
   -0.5270   21.4810  -29.5460 C   0  0  0  0  0  0  0  0  0  0  0  0
   -2.2760   23.2760  -28.8880 C   0  0  0  0  0  0  0  0  0  0  0  0
   -1.6410   23.9020  -27.7080 C   0  0  0  0  0  0  0  0  0  0  0  0
   -1.5640   25.3020  -27.6080 C   0  0  0  0  0  0  0  0  0  0  0  0
   -0.9730   25.9000  -26.4910 C   0  0  0  0  0  0  0  0  0  0  0  0
   -0.4580   25.1080  -25.4630 C   0  0  0  0  0  0  0  0  0  0  0  0
    0.1130   25.6890  -24.3790 F   0  0  0  0  0  0  0  0  0  0  0  0
   -0.5350   23.7150  -25.5500 C   0  0  0  0  0  0  0  0  0  0  0  0
   -1.1250   23.1130  -26.6650 C   0  0  0  0  0  0  0  0  0  0  0  0
   -3.4850   23.6000  -29.4650 C   0  0  0  0  0  0  0  0  0  0  0  0
   -4.3860   24.5370  -29.0770 N   0  0  0  0  0  0  0  0  0  0  0  0
   -6.5933   25.7253  -28.2562 H   0  0  0  0  0  0  0  0  0  0  0  0
   -6.2761   26.6783  -29.7455 H   0  0  0  0  0  0  0  0  0  0  0  0
   -7.5463   25.4081  -29.7455 H   0  0  0  0  0  0  0  0  0  0  0  0
   -6.7427   23.9331  -31.4595 H   0  0  0  0  0  0  0  0  0  0  0  0
   -4.3451   22.1746  -34.3081 H   0  0  0  0  0  0  0  0  0  0  0  0
   -3.1017   22.2717  -33.0109 H   0  0  0  0  0  0  0  0  0  0  0  0
   -3.2301   20.0878  -34.4469 H   0  0  0  0  0  0  0  0  0  0  0  0
   -3.1188   19.9419  -32.6434 H   0  0  0  0  0  0  0  0  0  0  0  0
   -4.0044   17.6747  -35.2196 H   0  0  0  0  0  0  0  0  0  0  0  0
   -3.9182   15.1997  -34.9144 H   0  0  0  0  0  0  0  0  0  0  0  0
   -4.7934   14.1657  -32.8161 H   0  0  0  0  0  0  0  0  0  0  0  0
   -5.7611   15.6087  -31.0218 H   0  0  0  0  0  0  0  0  0  0  0  0
   -5.8468   18.0845  -31.3180 H   0  0  0  0  0  0  0  0  0  0  0  0
   -6.4147   20.6535  -34.4785 H   0  0  0  0  0  0  0  0  0  0  0  0
   -7.0938   19.4369  -33.3454 H   0  0  0  0  0  0  0  0  0  0  0  0
   -7.1611   21.9144  -32.5897 H   0  0  0  0  0  0  0  0  0  0  0  0
   -6.4709   20.7137  -31.4289 H   0  0  0  0  0  0  0  0  0  0  0  0
   -0.3016   21.3501  -28.4773 H   0  0  0  0  0  0  0  0  0  0  0  0
   -0.6174   20.4949  -30.0251 H   0  0  0  0  0  0  0  0  0  0  0  0
    0.2845   22.0484  -30.0251 H   0  0  0  0  0  0  0  0  0  0  0  0
   -1.9712   25.9308  -28.4135 H   0  0  0  0  0  0  0  0  0  0  0  0
   -0.9137   26.9962  -26.4220 H   0  0  0  0  0  0  0  0  0  0  0  0
   -0.1304   23.0913  -24.7393 H   0  0  0  0  0  0  0  0  0  0  0  0
   -1.1859   22.0164  -26.7267 H   0  0  0  0  0  0  0  0  0  0  0  0
  1  2  1  0
  2  3  1  0
  3  4  2  0
  4  5  1  0
  5  6  1  0
  6  7  1  0
  7  8  1  0
  8  9  1  0
  9 10  2  0
 10 11  1  0
 11 12  2  0
 12 13  1  0
 13 14  2  0
  8 15  1  0
 15 16  1  0
  4 17  1  0
 17 18  1  0
 18 19  2  0
 19 20  1  0
 19 21  1  0
 21 22  1  0
 22 23  2  0
 23 24  1  0
 24 25  2  0
 25 26  1  0
 25 27  1  0
 27 28  2  0
 21 29  2  0
 29 30  1  0
 30  2  2  0
 16  5  1  0
 29 17  1  0
 14  9  1  0
 28 22  1  0
  1 31  1  0
  1 32  1  0
  1 33  1  0
  3 34  1  0
  6 35  1  0
  6 36  1  0
  7 37  1  0
  7 38  1  0
 10 39  1  0
 11 40  1  0
 12 41  1  0
 13 42  1  0
 14 43  1  0
 15 44  1  0
 15 45  1  0
 16 46  1  0
 16 47  1  0
 20 48  1  0
 20 49  1  0
 20 50  1  0
 23 51  1  0
 24 52  1  0
 27 53  1  0
 28 54  1  0
M  END
>  <UniqueID>  (7) 
7

>  <SMILES>  (7) 
Cc1cc(N2CCN(c3ccccc3)CC2)n2nc(C)c(-c3ccc(F)cc3)c2n1

>  <Energy>  (7) 
108.76998179688078

>  <Genealogy>  (7) 
Cc1cc(N2CCN(c3ccccc3)CC2)n2nc(C)c(-c3ccc(F)cc3)c2n1 (3D coordinates assigned)
Cc1cc(N2CCN(c3ccccc3)CC2)n2nc(C)c(-c3ccc(F)cc3)c2n1 (nonaromatic ring conformer: 108.76998179688078 kcal/mol)

>  <smiles>  (7) 
Cc1cc(N2CCN(c3ccccc3)CC2)n2nc(C)c(-c3ccc(F)cc3)c2n1

>  <score_type>  (7) 
oracle

>  <origin>  (7) 
adg

>  <m_score__min__energy>  (7) 
-8.5899999999999999

>  <m_primary>  (7) 
energy

$$$$
7:0
     RDKit          3D

 37 38  0  0  0  0  0  0  0  0999 V2000
   -4.9340   17.1320  -34.5790 C   0  0  0  0  0  0  0  0  0  0  0  0
   -3.8430   17.7220  -33.6910 C   0  0  0  0  0  0  0  0  0  0  0  0
   -3.4810   19.1420  -34.1290 C   0  0  0  0  0  0  0  0  0  0  0  0
   -4.3560   20.1070  -33.4680 N   0  0  0  0  0  0  0  0  0  0  0  0
   -3.9550   21.2270  -32.8190 C   0  0  0  0  0  0  0  0  0  0  0  0
   -5.0860   21.8160  -32.2940 C   0  0  0  0  0  0  0  0  0  0  0  0
   -5.3020   22.9710  -31.5690 C   0  0  0  0  0  0  0  0  0  0  0  0
   -4.3320   23.7200  -31.2660 O   0  0  0  0  0  0  0  0  0  0  0  0
   -6.5920   23.2810  -31.2010 N   0  0  0  0  0  0  0  0  0  0  0  0
   -6.8650   24.5250  -30.4630 C   0  0  0  0  0  0  0  0  0  0  0  0
   -7.6430   22.4650  -31.5910 C   0  0  0  0  0  0  0  0  0  0  0  0
   -8.8290   22.7950  -31.3040 O   0  0  0  0  0  0  0  0  0  0  0  0
   -7.4130   21.2990  -32.2950 N   0  0  0  0  0  0  0  0  0  0  0  0
   -8.5230   20.4240  -32.7130 C   0  0  0  0  0  0  0  0  0  0  0  0
   -8.7400   19.3110  -31.6830 C   0  0  0  0  0  0  0  0  0  0  0  0
   -7.8410   18.1110  -31.9680 C   0  0  0  0  0  0  0  0  0  0  0  0
   -6.1250   21.0130  -32.6390 C   0  0  0  0  0  0  0  0  0  0  0  0
   -5.6730   19.9670  -33.3570 N   0  0  0  0  0  0  0  0  0  0  0  0
   -5.7273   16.7030  -33.9492 H   0  0  0  0  0  0  0  0  0  0  0  0
   -5.3580   17.9238  -35.2141 H   0  0  0  0  0  0  0  0  0  0  0  0
   -4.5035   16.3437  -35.2141 H   0  0  0  0  0  0  0  0  0  0  0  0
   -4.2014   17.7476  -32.6513 H   0  0  0  0  0  0  0  0  0  0  0  0
   -2.9456   17.0917  -33.7765 H   0  0  0  0  0  0  0  0  0  0  0  0
   -2.4360   19.3518  -33.8571 H   0  0  0  0  0  0  0  0  0  0  0  0
   -3.6073   19.2271  -35.2184 H   0  0  0  0  0  0  0  0  0  0  0  0
   -2.9228   21.5963  -32.7282 H   0  0  0  0  0  0  0  0  0  0  0  0
   -6.8215   24.3270  -29.3818 H   0  0  0  0  0  0  0  0  0  0  0  0
   -6.1115   25.2813  -30.7278 H   0  0  0  0  0  0  0  0  0  0  0  0
   -7.8660   24.8963  -30.7278 H   0  0  0  0  0  0  0  0  0  0  0  0
   -9.4425   21.0213  -32.8009 H   0  0  0  0  0  0  0  0  0  0  0  0
   -8.2743   19.9697  -33.6835 H   0  0  0  0  0  0  0  0  0  0  0  0
   -8.5108   19.7007  -30.6802 H   0  0  0  0  0  0  0  0  0  0  0  0
   -9.7881   18.9822  -31.7416 H   0  0  0  0  0  0  0  0  0  0  0  0
   -7.5089   17.6677  -31.0176 H   0  0  0  0  0  0  0  0  0  0  0  0
   -8.4019   17.3617  -32.5459 H   0  0  0  0  0  0  0  0  0  0  0  0
   -6.9643   18.4387  -32.5459 H   0  0  0  0  0  0  0  0  0  0  0  0
   -6.2240   19.1800  -33.7670 H   0  0  0  0  0  0  0  0  0  0  0  0
  1  2  1  0
  2  3  1  0
  3  4  1  0
  4  5  1  0
  5  6  2  0
  6  7  1  0
  7  8  2  0
  7  9  1  0
  9 10  1  0
  9 11  1  0
 11 12  2  0
 11 13  1  0
 13 14  1  0
 14 15  1  0
 15 16  1  0
 13 17  1  0
 17 18  2  0
 18  4  1  0
 17  6  1  0
  1 19  1  0
  1 20  1  0
  1 21  1  0
  2 22  1  0
  2 23  1  0
  3 24  1  0
  3 25  1  0
  5 26  1  0
 10 27  1  0
 10 28  1  0
 10 29  1  0
 14 30  1  0
 14 31  1  0
 15 32  1  0
 15 33  1  0
 16 34  1  0
 16 35  1  0
 16 36  1  0
 18 37  1  0
M  CHG  1  18   1
M  END
>  <UniqueID>  (8) 
8

>  <SMILES>  (8) 
CCCn1cc2c(=O)n(C)c(=O)n(CCC)c2[nH+]1

>  <Energy>  (8) 
72.40560857131209

>  <Genealogy>  (8) 
CCCn1cc2c(=O)n(C)c(=O)n(CCC)c2[nH+]1 (protonated)
CCCn1cc2c(=O)n(C)c(=O)n(CCC)c2[nH+]1 (3D coordinates assigned)
CCCn1cc2c(=O)n(C)c(=O)n(CCC)c2[nH+]1 (optimized conformer: 72.40560857131209 kcal/mol)

>  <smiles>  (8) 
CCCn1cc2c(=O)n(C)c(=O)n(CCC)c2n1

>  <score_type>  (8) 
oracle

>  <origin>  (8) 
adg

>  <m_score__min__energy>  (8) 
-5.71

>  <m_primary>  (8) 
energy

$$$$
8:0
     RDKit          3D

 56 59  0  0  0  0  0  0  0  0999 V2000
   -5.4485   23.9130  -27.7468 H   0  0  0  0  0  0  0  0  0  0  0  0
   -4.3810   24.1200  -27.9130 C   0  0  0  0  0  0  0  0  0  0  0  0
   -3.8310   24.0070  -29.1970 C   0  0  0  0  0  0  0  0  0  0  0  0
   -4.6670   23.6380  -30.3590 C   0  0  0  0  0  0  0  0  0  0  0  0
   -5.8330   24.3500  -30.7020 C   0  0  0  0  0  0  0  0  0  0  0  0
   -6.4470   25.6820  -29.7270 Cl  0  0  0  0  0  0  0  0  0  0  0  0
   -6.5690   23.9520  -31.8200 C   0  0  0  0  0  0  0  0  0  0  0  0
   -7.4752   24.5085  -32.1013 H   0  0  0  0  0  0  0  0  0  0  0  0
   -6.1770   22.8830  -32.5650 N   0  0  0  0  0  0  0  0  0  0  0  0
   -6.7650   22.6540  -33.3930 H   0  0  0  0  0  0  0  0  0  0  0  0
   -5.0640   22.1550  -32.2440 C   0  0  0  0  0  0  0  0  0  0  0  0
   -4.6760   21.1170  -32.9360 N   0  0  0  0  0  0  0  0  0  0  0  0
   -5.2000   19.7440  -32.9650 C   0  0  0  0  0  0  0  0  0  0  0  0
   -4.8022   19.2186  -32.0842 H   0  0  0  0  0  0  0  0  0  0  0  0
   -4.6720   18.9330  -34.1790 C   0  0  0  0  0  0  0  0  0  0  0  0
   -4.3482   19.6380  -34.9588 H   0  0  0  0  0  0  0  0  0  0  0  0
   -3.8396   18.3080  -33.8234 H   0  0  0  0  0  0  0  0  0  0  0  0
   -5.7340   17.9950  -34.7750 C   0  0  0  0  0  0  0  0  0  0  0  0
   -6.4293   18.5839  -35.3912 H   0  0  0  0  0  0  0  0  0  0  0  0
   -5.2270   17.2346  -35.3871 H   0  0  0  0  0  0  0  0  0  0  0  0
   -6.5220   17.2860  -33.6680 C   0  0  0  0  0  0  0  0  0  0  0  0
   -7.2566   16.6130  -34.1343 H   0  0  0  0  0  0  0  0  0  0  0  0
   -5.8010   16.7330  -33.0480 H   0  0  0  0  0  0  0  0  0  0  0  0
   -7.2710   18.2730  -32.7460 C   0  0  0  0  0  0  0  0  0  0  0  0
   -8.3308   18.2853  -33.0403 H   0  0  0  0  0  0  0  0  0  0  0  0
   -7.1227   17.9209  -31.7145 H   0  0  0  0  0  0  0  0  0  0  0  0
   -6.7340   19.7160  -32.8070 C   0  0  0  0  0  0  0  0  0  0  0  0
   -7.1908   20.2311  -33.6649 H   0  0  0  0  0  0  0  0  0  0  0  0
   -6.9923   20.2197  -31.8638 H   0  0  0  0  0  0  0  0  0  0  0  0
   -4.2980   22.5290  -31.1330 C   0  0  0  0  0  0  0  0  0  0  0  0
   -3.4019   21.9495  -30.8662 H   0  0  0  0  0  0  0  0  0  0  0  0
   -2.5130   24.2980  -29.3880 N   0  0  0  0  0  0  0  0  0  0  0  0
   -1.6900   24.6710  -28.3710 C   0  0  0  0  0  0  0  0  0  0  0  0
   -0.4410   24.9230  -28.6440 N   0  0  0  0  0  0  0  0  0  0  0  0
    0.7140   24.1470  -28.1990 C   0  0  0  0  0  0  0  0  0  0  0  0
    1.4540   24.0905  -29.0110 H   0  0  0  0  0  0  0  0  0  0  0  0
    0.3932   23.1304  -27.9276 H   0  0  0  0  0  0  0  0  0  0  0  0
    1.3300   24.8170  -27.0040 C   0  0  0  0  0  0  0  0  0  0  0  0
    2.6900   24.6320  -26.7140 C   0  0  0  0  0  0  0  0  0  0  0  0
    3.3010   23.9721  -27.3474 H   0  0  0  0  0  0  0  0  0  0  0  0
    3.2700   25.2830  -25.6240 C   0  0  0  0  0  0  0  0  0  0  0  0
    4.3347   25.1268  -25.3957 H   0  0  0  0  0  0  0  0  0  0  0  0
    2.5030   26.1330  -24.8210 C   0  0  0  0  0  0  0  0  0  0  0  0
    2.9647   26.6402  -23.9610 H   0  0  0  0  0  0  0  0  0  0  0  0
    1.1410   26.3410  -25.1110 C   0  0  0  0  0  0  0  0  0  0  0  0
    0.3300   27.1890  -24.3440 O   0  0  0  0  0  0  0  0  0  0  0  0
   -0.4190   26.7730  -23.2060 C   0  0  0  0  0  0  0  0  0  0  0  0
    0.1125   27.0682  -22.2893 H   0  0  0  0  0  0  0  0  0  0  0  0
   -1.4100   27.2499  -23.2250 H   0  0  0  0  0  0  0  0  0  0  0  0
   -0.5379   25.6796  -23.2250 H   0  0  0  0  0  0  0  0  0  0  0  0
    0.5650   25.6840  -26.2070 C   0  0  0  0  0  0  0  0  0  0  0  0
   -0.4962   25.8491  -26.4451 H   0  0  0  0  0  0  0  0  0  0  0  0
   -2.2130   24.7720  -27.0670 C   0  0  0  0  0  0  0  0  0  0  0  0
   -1.5631   25.0648  -26.2292 H   0  0  0  0  0  0  0  0  0  0  0  0
   -3.5640   24.4970  -26.8480 C   0  0  0  0  0  0  0  0  0  0  0  0
   -3.9842   24.5778  -25.8346 H   0  0  0  0  0  0  0  0  0  0  0  0
  1  2  1  0
  2  3  2  0
  3  4  1  0
  4  5  1  0
  5  6  1  0
  5  7  2  0
  7  8  1  0
  7  9  1  0
  9 10  1  0
  9 11  1  0
 11 12  2  0
 12 13  1  0
 13 14  1  0
 13 15  1  0
 15 16  1  0
 15 17  1  0
 15 18  1  0
 18 19  1  0
 18 20  1  0
 18 21  1  0
 21 22  1  0
 21 23  1  0
 21 24  1  0
 24 25  1  0
 24 26  1  0
 24 27  1  0
 27 28  1  0
 27 29  1  0
 11 30  1  0
 30 31  1  0
  3 32  1  0
 32 33  1  0
 33 34  2  0
 34 35  1  0
 35 36  1  0
 35 37  1  0
 35 38  1  0
 38 39  2  0
 39 40  1  0
 39 41  1  0
 41 42  1  0
 41 43  2  0
 43 44  1  0
 43 45  1  0
 45 46  1  0
 46 47  1  0
 47 48  1  0
 47 49  1  0
 47 50  1  0
 45 51  2  0
 51 52  1  0
 33 53  1  0
 53 54  1  0
 53 55  2  0
 55 56  1  0
 55  2  1  0
 30  4  2  0
 51 38  1  0
 27 13  1  0
M  CHG  1  32  -1
M  END
>  <UniqueID>  (9) 
9

>  <SMILES>  (9) 
COc1cccc(C/N=c2\cccc(-c3c/c(=N/C4CCCCC4)[nH]cc3Cl)[n-]2)c1

>  <Energy>  (9) 
74.47696533462694

>  <Genealogy>  (9) 
COc1cccc(CN=c2cccc(-c3cc(=NC4CCCCC4)[nH]cc3Cl)[n-]2)c1 (protonated)
COc1cccc(C/N=c2\cccc(-c3c/c(=N/C4CCCCC4)[nH]cc3Cl)[n-]2)c1 (cis-trans isomerization)
COc1cccc(C/N=c2\cccc(-c3c/c(=N/C4CCCCC4)[nH]cc3Cl)[n-]2)c1 (3D coordinates assigned)
COc1cccc(C/N=c2\cccc(-c3c/c(=N/C4CCCCC4)[nH]cc3Cl)[n-]2)c1 (nonaromatic ring conformer: 74.47696533462694 kcal/mol)

>  <smiles>  (9) 
COc1cccc(CN=c2cccc(-c3cc(=NC4CCCCC4)[nH]cc3Cl)[nH]2)c1

>  <score_type>  (9) 
oracle

>  <origin>  (9) 
adg

>  <m_score__min__energy>  (9) 
-11.029999999999999

>  <m_primary>  (9) 
energy

$$$$
9:0
     RDKit          3D

 61 64  0  0  0  0  0  0  0  0999 V2000
   -4.5220   13.3080  -31.2040 C   0  0  0  0  0  0  0  0  0  0  0  0
   -4.9910   13.7690  -32.4680 O   0  0  0  0  0  0  0  0  0  0  0  0
   -4.2230   13.8000  -33.6450 C   0  0  0  0  0  0  0  0  0  0  0  0
   -3.4100   12.7110  -34.0190 C   0  0  0  0  0  0  0  0  0  0  0  0
   -2.6410   12.7640  -35.1830 C   0  0  0  0  0  0  0  0  0  0  0  0
   -1.8670   11.7050  -35.5340 F   0  0  0  0  0  0  0  0  0  0  0  0
   -2.6670   13.9020  -35.9850 C   0  0  0  0  0  0  0  0  0  0  0  0
   -3.4680   14.9880  -35.6310 C   0  0  0  0  0  0  0  0  0  0  0  0
   -4.2600   14.9510  -34.4680 C   0  0  0  0  0  0  0  0  0  0  0  0
   -5.1240   16.1130  -34.1410 C   0  0  0  0  0  0  0  0  0  0  0  0
   -6.4700   16.0570  -34.1050 N   0  0  0  0  0  0  0  0  0  0  0  0
   -6.8500   17.2470  -33.7540 O   0  0  0  0  0  0  0  0  0  0  0  0
   -5.8010   18.0110  -33.5780 C   0  0  0  0  0  0  0  0  0  0  0  0
   -5.8600   19.4240  -33.1560 C   0  0  0  0  0  0  0  0  0  0  0  0
   -7.0840   19.9960  -32.7880 C   0  0  0  0  0  0  0  0  0  0  0  0
   -7.1390   21.3170  -32.3410 C   0  0  0  0  0  0  0  0  0  0  0  0
   -8.8280   22.0420  -31.8040 Br  0  0  0  0  0  0  0  0  0  0  0  0
   -5.9720   22.0910  -32.2480 C   0  0  0  0  0  0  0  0  0  0  0  0
   -6.0970   23.3930  -31.7270 O   0  0  0  0  0  0  0  0  0  0  0  0
   -5.7020   23.8120  -30.4260 C   0  0  0  0  0  0  0  0  0  0  0  0
   -4.8800   25.0600  -30.5400 C   0  0  0  0  0  0  0  0  0  0  0  0
   -5.4310   26.1250  -30.9250 O   0  0  0  0  0  0  0  0  0  0  0  0
   -3.4900   25.0890  -30.1850 N   0  0  0  0  0  0  0  0  0  0  0  0
   -2.8880   24.3960  -29.0490 C   0  0  0  0  0  0  0  0  0  0  0  0
   -1.4260   24.0310  -29.3430 C   0  0  0  0  0  0  0  0  0  0  0  0
   -0.4890   24.9350  -28.6390 N   0  0  0  0  0  0  0  0  0  0  0  0
   -1.2060   26.0170  -27.9180 C   0  0  0  0  0  0  0  0  0  0  0  0
   -0.4900   26.4130  -26.6180 C   0  0  0  0  0  0  0  0  0  0  0  0
   -0.4130   25.3350  -25.7020 O   0  0  0  0  0  0  0  0  0  0  0  0
   -0.1050   24.0870  -26.3160 C   0  0  0  0  0  0  0  0  0  0  0  0
    0.4350   24.1840  -27.7580 C   0  0  0  0  0  0  0  0  0  0  0  0
   -4.7330   21.5380  -32.6610 C   0  0  0  0  0  0  0  0  0  0  0  0
   -3.5730   22.3300  -32.6390 O   0  0  0  0  0  0  0  0  0  0  0  0
   -2.3350   21.9410  -32.0570 C   0  0  0  0  0  0  0  0  0  0  0  0
   -4.6930   20.2010  -33.1010 C   0  0  0  0  0  0  0  0  0  0  0  0
   -4.6610   17.3360  -33.8120 N   0  0  0  0  0  0  0  0  0  0  0  0
   -5.0574   13.8343  -30.4001 H   0  0  0  0  0  0  0  0  0  0  0  0
   -4.7028   12.2264  -31.1181 H   0  0  0  0  0  0  0  0  0  0  0  0
   -3.4436   13.5074  -31.1181 H   0  0  0  0  0  0  0  0  0  0  0  0
   -3.3812   11.8107  -33.3876 H   0  0  0  0  0  0  0  0  0  0  0  0
   -2.0555   13.9447  -36.8984 H   0  0  0  0  0  0  0  0  0  0  0  0
   -3.4808   15.8843  -36.2686 H   0  0  0  0  0  0  0  0  0  0  0  0
   -8.0070   19.4011  -32.8516 H   0  0  0  0  0  0  0  0  0  0  0  0
   -6.5956   24.0141  -29.8172 H   0  0  0  0  0  0  0  0  0  0  0  0
   -5.1079   23.0200  -29.9466 H   0  0  0  0  0  0  0  0  0  0  0  0
   -2.9252   25.0513  -28.1663 H   0  0  0  0  0  0  0  0  0  0  0  0
   -3.4513   23.4696  -28.8633 H   0  0  0  0  0  0  0  0  0  0  0  0
   -1.2421   22.9980  -29.0127 H   0  0  0  0  0  0  0  0  0  0  0  0
   -1.2559   24.1323  -30.4250 H   0  0  0  0  0  0  0  0  0  0  0  0
   -1.2686   26.8991  -28.5722 H   0  0  0  0  0  0  0  0  0  0  0  0
   -2.2075   25.6454  -27.6554 H   0  0  0  0  0  0  0  0  0  0  0  0
    0.5300   26.7447  -26.8618 H   0  0  0  0  0  0  0  0  0  0  0  0
   -1.0695   27.2191  -26.1443 H   0  0  0  0  0  0  0  0  0  0  0  0
    0.6545   23.5825  -25.7007 H   0  0  0  0  0  0  0  0  0  0  0  0
   -1.0538   23.5341  -26.3802 H   0  0  0  0  0  0  0  0  0  0  0  0
    1.4076   24.6976  -27.7408 H   0  0  0  0  0  0  0  0  0  0  0  0
    0.5354   23.1635  -28.1562 H   0  0  0  0  0  0  0  0  0  0  0  0
   -2.4207   21.9679  -30.9607 H   0  0  0  0  0  0  0  0  0  0  0  0
   -2.0826   20.9203  -32.3801 H   0  0  0  0  0  0  0  0  0  0  0  0
   -1.5441   22.6339  -32.3801 H   0  0  0  0  0  0  0  0  0  0  0  0
   -3.7329   19.7593  -33.4060 H   0  0  0  0  0  0  0  0  0  0  0  0
  1  2  1  0
  2  3  1  0
  3  4  2  0
  4  5  1  0
  5  6  1  0
  5  7  2  0
  7  8  1  0
  8  9  2  0
  9 10  1  0
 10 11  2  0
 11 12  1  0
 12 13  1  0
 13 14  1  0
 14 15  2  0
 15 16  1  0
 16 17  1  0
 16 18  2  0
 18 19  1  0
 19 20  1  0
 20 21  1  0
 21 22  2  0
 21 23  1  0
 23 24  1  0
 24 25  1  0
 25 26  1  0
 26 27  1  0
 27 28  1  0
 28 29  1  0
 29 30  1  0
 30 31  1  0
 18 32  1  0
 32 33  1  0
 33 34  1  0
 32 35  2  0
 13 36  2  0
  9  3  1  0
 36 10  1  0
 35 14  1  0
 31 26  1  0
  1 37  1  0
  1 38  1  0
  1 39  1  0
  4 40  1  0
  7 41  1  0
  8 42  1  0
 15 43  1  0
 20 44  1  0
 20 45  1  0
 24 46  1  0
 24 47  1  0
 25 48  1  0
 25 49  1  0
 27 50  1  0
 27 51  1  0
 28 52  1  0
 28 53  1  0
 30 54  1  0
 30 55  1  0
 31 56  1  0
 31 57  1  0
 34 58  1  0
 34 59  1  0
 34 60  1  0
 35 61  1  0
M  CHG  1  23  -1
M  END
>  <UniqueID>  (10) 
10

>  <SMILES>  (10) 
COc1cc(F)ccc1-c1noc(-c2cc(Br)c(OCC(=O)[N-]CCN3CCOCC3)c(OC)c2)n1

>  <Energy>  (10) 
112.90000853328397

>  <Genealogy>  (10) 
COc1cc(F)ccc1-c1noc(-c2cc(Br)c(OCC(=O)[N-]CCN3CCOCC3)c(OC)c2)n1 (protonated)
COc1cc(F)ccc1-c1noc(-c2cc(Br)c(OCC(=O)[N-]CCN3CCOCC3)c(OC)c2)n1 (3D coordinates assigned)
COc1cc(F)ccc1-c1noc(-c2cc(Br)c(OCC(=O)[N-]CCN3CCOCC3)c(OC)c2)n1 (nonaromatic ring conformer: 112.90000853328397 kcal/mol)

>  <smiles>  (10) 
COc1cc(F)ccc1-c1noc(-c2cc(Br)c(OCC(=O)NCCN3CCOCC3)c(OC)c2)n1

>  <score_type>  (10) 
oracle

>  <origin>  (10) 
adg

>  <m_score__min__energy>  (10) 
-10.26

>  <m_primary>  (10) 
energy

$$$$
10:0
     RDKit          3D

 34 35  0  0  0  0  0  0  0  0999 V2000
   -7.2380   14.2670  -34.5880 C   0  0  0  0  0  0  0  0  0  0  0  0
   -6.0000   14.9570  -34.0230 C   0  0  0  0  0  0  0  0  0  0  0  0
   -6.3240   16.3390  -33.6040 N   0  0  0  0  0  0  0  0  0  0  0  0
   -5.8680   17.3120  -34.6230 C   0  0  0  0  0  0  0  0  0  0  0  0
   -5.8600   18.7710  -34.1110 C   0  0  0  0  0  0  0  0  0  0  0  0
   -6.5740   18.9100  -32.8360 N   0  0  0  0  0  0  0  0  0  0  0  0
   -7.2520   20.1420  -32.5380 C   0  0  0  0  0  0  0  0  0  0  0  0
   -6.4520   21.2900  -32.5310 C   0  0  0  0  0  0  0  0  0  0  0  0
   -6.7960   22.6130  -32.2810 C   0  0  0  0  0  0  0  0  0  0  0  0
   -8.0370   23.1400  -31.9690 C   0  0  0  0  0  0  0  0  0  0  0  0
   -9.2420   22.4700  -31.8320 C   0  0  0  0  0  0  0  0  0  0  0  0
   -9.5010   21.1140  -31.9780 C   0  0  0  0  0  0  0  0  0  0  0  0
   -8.6350   20.0660  -32.2930 C   0  0  0  0  0  0  0  0  0  0  0  0
   -9.1630   18.9220  -32.3650 O   0  0  0  0  0  0  0  0  0  0  0  0
   -6.3860   17.9320  -31.7590 C   0  0  0  0  0  0  0  0  0  0  0  0
   -5.7350   16.6560  -32.2910 C   0  0  0  0  0  0  0  0  0  0  0  0
   -7.8710   13.9142  -33.7604 H   0  0  0  0  0  0  0  0  0  0  0  0
   -7.8050   14.9792  -35.2055 H   0  0  0  0  0  0  0  0  0  0  0  0
   -6.9305   13.4101  -35.2055 H   0  0  0  0  0  0  0  0  0  0  0  0
   -5.6351   14.3910  -33.1533 H   0  0  0  0  0  0  0  0  0  0  0  0
   -5.2253   14.9936  -34.8031 H   0  0  0  0  0  0  0  0  0  0  0  0
   -4.8464   17.0436  -34.9303 H   0  0  0  0  0  0  0  0  0  0  0  0
   -6.5778   17.2637  -35.4620 H   0  0  0  0  0  0  0  0  0  0  0  0
   -4.8174   19.0926  -33.9711 H   0  0  0  0  0  0  0  0  0  0  0  0
   -6.3723   19.3959  -34.8573 H   0  0  0  0  0  0  0  0  0  0  0  0
   -5.3893   21.1193  -32.7579 H   0  0  0  0  0  0  0  0  0  0  0  0
   -5.9713   23.3386  -32.3389 H   0  0  0  0  0  0  0  0  0  0  0  0
   -8.0710   24.2279  -31.8097 H   0  0  0  0  0  0  0  0  0  0  0  0
  -10.1088   23.0958  -31.5731 H   0  0  0  0  0  0  0  0  0  0  0  0
  -10.5495   20.8206  -31.8214 H   0  0  0  0  0  0  0  0  0  0  0  0
   -5.7404   18.3696  -30.9833 H   0  0  0  0  0  0  0  0  0  0  0  0
   -7.3702   17.6767  -31.3394 H   0  0  0  0  0  0  0  0  0  0  0  0
   -4.6512   16.8102  -32.3987 H   0  0  0  0  0  0  0  0  0  0  0  0
   -5.9093   15.8256  -31.5910 H   0  0  0  0  0  0  0  0  0  0  0  0
  1  2  1  0
  2  3  1  0
  3  4  1  0
  4  5  1  0
  5  6  1  0
  6  7  1  0
  7  8  2  0
  8  9  1  0
  9 10  2  0
 10 11  1  0
 11 12  2  0
 12 13  1  0
 13 14  2  0
  6 15  1  0
 15 16  1  0
 16  3  1  0
 13  7  1  0
  1 17  1  0
  1 18  1  0
  1 19  1  0
  2 20  1  0
  2 21  1  0
  4 22  1  0
  4 23  1  0
  5 24  1  0
  5 25  1  0
  8 26  1  0
  9 27  1  0
 10 28  1  0
 11 29  1  0
 12 30  1  0
 15 31  1  0
 15 32  1  0
 16 33  1  0
 16 34  1  0
M  END
>  <UniqueID>  (11) 
11

>  <SMILES>  (11) 
CCN1CCN(c2cccccc2=O)CC1

>  <Energy>  (11) 
60.74620018666266

>  <Genealogy>  (11) 
CCN1CCN(c2cccccc2=O)CC1 (3D coordinates assigned)
CCN1CCN(c2cccccc2=O)CC1 (nonaromatic ring conformer: 60.74620018666266 kcal/mol)

>  <smiles>  (11) 
CCN1CCN(c2cccccc2=O)CC1

>  <score_type>  (11) 
oracle

>  <origin>  (11) 
adg

>  <m_score__min__energy>  (11) 
-6.2699999999999996

>  <m_primary>  (11) 
energy

$$$$
11:0
     RDKit          3D

 29 30  0  0  0  0  0  0  0  0999 V2000
   -5.7420   26.2710  -30.0840 O   0  0  0  0  0  0  0  0  0  0  0  0
   -5.3160   25.0950  -30.2380 C   0  0  0  0  0  0  0  0  0  0  0  0
   -4.0200   24.8190  -30.6030 O   0  0  0  0  0  0  0  0  0  0  0  0
   -3.8390   23.4200  -30.6560 C   0  0  0  0  0  0  0  0  0  0  0  0
   -5.1350   22.8400  -30.0610 C   0  0  0  0  0  0  0  0  0  0  0  0
   -6.1250   23.9410  -30.0140 N   0  0  2  0  0  0  0  0  0  0  0  0
   -7.2110   23.8140  -31.0170 C   0  0  0  0  0  0  0  0  0  0  0  0
   -7.5010   22.3860  -31.4480 C   0  0  0  0  0  0  0  0  0  0  0  0
   -8.5140   21.6430  -30.8210 C   0  0  0  0  0  0  0  0  0  0  0  0
   -8.7670   20.3260  -31.2100 C   0  0  0  0  0  0  0  0  0  0  0  0
   -8.0200   19.7390  -32.2340 C   0  0  0  0  0  0  0  0  0  0  0  0
   -7.0120   20.4740  -32.8860 C   0  0  0  0  0  0  0  0  0  0  0  0
   -6.2360   19.9400  -33.9270 O   0  0  0  0  0  0  0  0  0  0  0  0
   -5.8210   18.5790  -34.0310 C   0  0  0  0  0  0  0  0  0  0  0  0
   -4.7970   18.3230  -33.1380 F   0  0  0  0  0  0  0  0  0  0  0  0
   -6.8890   17.7360  -33.7790 F   0  0  0  0  0  0  0  0  0  0  0  0
   -5.3630   18.3470  -35.3130 F   0  0  0  0  0  0  0  0  0  0  0  0
   -6.7650   21.7940  -32.4910 C   0  0  0  0  0  0  0  0  0  0  0  0
   -3.7042   23.0846  -31.6949 H   0  0  0  0  0  0  0  0  0  0  0  0
   -2.9439   23.0932  -30.1064 H   0  0  0  0  0  0  0  0  0  0  0  0
   -5.5090   22.0234  -30.6960 H   0  0  0  0  0  0  0  0  0  0  0  0
   -4.9553   22.4325  -29.0552 H   0  0  0  0  0  0  0  0  0  0  0  0
   -6.5440   24.0010  -29.0560 H   0  0  0  0  0  0  0  0  0  0  0  0
   -8.1300   24.2367  -30.5849 H   0  0  0  0  0  0  0  0  0  0  0  0
   -6.8741   24.3517  -31.9155 H   0  0  0  0  0  0  0  0  0  0  0  0
   -9.1116   22.1009  -30.0190 H   0  0  0  0  0  0  0  0  0  0  0  0
   -9.5575   19.7486  -30.7082 H   0  0  0  0  0  0  0  0  0  0  0  0
   -8.2201   18.6992  -32.5318 H   0  0  0  0  0  0  0  0  0  0  0  0
   -5.9849   22.3765  -33.0030 H   0  0  0  0  0  0  0  0  0  0  0  0
  1  2  2  0
  2  3  1  0
  3  4  1  0
  4  5  1  0
  5  6  1  0
  6  7  1  0
  7  8  1  0
  8  9  2  0
  9 10  1  0
 10 11  2  0
 11 12  1  0
 12 13  1  0
 13 14  1  0
 14 15  1  0
 14 16  1  0
 14 17  1  0
 12 18  2  0
  6  2  1  0
 18  8  1  0
  4 19  1  0
  4 20  1  0
  5 21  1  0
  5 22  1  0
  6 23  1  1
  7 24  1  0
  7 25  1  0
  9 26  1  0
 10 27  1  0
 11 28  1  0
 18 29  1  0
M  CHG  1   6   1
M  END
>  <UniqueID>  (12) 
12

>  <SMILES>  (12) 
O=C1OCC[N@@H+]1Cc1cccc(OC(F)(F)F)c1

>  <Energy>  (12) 
41.791705594123634

>  <Genealogy>  (12) 
O=C1OCC[NH+]1Cc1cccc(OC(F)(F)F)c1 (protonated)
O=C1OCC[N@@H+]1Cc1cccc(OC(F)(F)F)c1 (chirality)
O=C1OCC[N@@H+]1Cc1cccc(OC(F)(F)F)c1 (3D coordinates assigned)
O=C1OCC[N@@H+]1Cc1cccc(OC(F)(F)F)c1 (nonaromatic ring conformer: 41.791705594123634 kcal/mol)

>  <smiles>  (12) 
O=C1OCCN1Cc1cccc(OC(F)(F)F)c1

>  <score_type>  (12) 
oracle

>  <origin>  (12) 
adg

>  <m_score__min__energy>  (12) 
-5.8799999999999999

>  <m_primary>  (12) 
energy

$$$$
12:0
     RDKit          3D

 55 57  0  0  0  0  0  0  0  0999 V2000
   -6.0640   24.8850  -30.7890 C   0  0  0  0  0  0  0  0  0  0  0  0
   -6.4110   23.5330  -31.3390 C   0  0  0  0  0  0  0  0  0  0  0  0
   -7.7080   23.0270  -31.1930 C   0  0  0  0  0  0  0  0  0  0  0  0
   -8.0620   21.7880  -31.7490 C   0  0  0  0  0  0  0  0  0  0  0  0
   -9.4870   21.3200  -31.6130 C   0  0  0  0  0  0  0  0  0  0  0  0
   -7.0820   21.0190  -32.4240 C   0  0  0  0  0  0  0  0  0  0  0  0
   -7.4010   19.7210  -32.9560 N   0  0  0  0  0  0  0  0  0  0  0  0
   -6.8490   18.5110  -32.4160 C   0  0  0  0  0  0  0  0  0  0  0  0
   -6.0400   18.5580  -31.4500 O   0  0  0  0  0  0  0  0  0  0  0  0
   -7.2410   17.1760  -32.9870 C   0  0  0  0  0  0  0  0  0  0  0  0
   -6.4790   16.8040  -34.2000 N   0  0  0  0  0  0  0  0  0  0  0  0
   -5.7270   17.9090  -34.8420 C   0  0  0  0  0  0  0  0  0  0  0  0
   -4.2040   17.7400  -34.7460 C   0  0  0  0  0  0  0  0  0  0  0  0
   -3.8760   17.0090  -33.5170 N   0  0  0  0  0  0  0  0  0  0  0  0
   -2.4630   17.1470  -33.0960 C   0  0  0  0  0  0  0  0  0  0  0  0
   -1.9260   18.5640  -33.1790 C   0  0  0  0  0  0  0  0  0  0  0  0
   -2.1980   19.4790  -32.1450 C   0  0  0  0  0  0  0  0  0  0  0  0
   -1.7060   20.7850  -32.2070 C   0  0  0  0  0  0  0  0  0  0  0  0
   -0.9520   21.1970  -33.3070 C   0  0  0  0  0  0  0  0  0  0  0  0
   -0.6930   20.3050  -34.3510 C   0  0  0  0  0  0  0  0  0  0  0  0
   -1.1810   18.9950  -34.2950 C   0  0  0  0  0  0  0  0  0  0  0  0
   -0.9440   18.1600  -35.3380 F   0  0  0  0  0  0  0  0  0  0  0  0
   -4.3240   15.6080  -33.6130 C   0  0  0  0  0  0  0  0  0  0  0  0
   -5.7770   15.5030  -34.1310 C   0  0  0  0  0  0  0  0  0  0  0  0
   -5.7860   21.5520  -32.6110 C   0  0  0  0  0  0  0  0  0  0  0  0
   -4.7550   20.8200  -33.4250 C   0  0  0  0  0  0  0  0  0  0  0  0
   -5.4690   22.8110  -32.0800 C   0  0  0  0  0  0  0  0  0  0  0  0
   -6.0737   24.8472  -29.6897 H   0  0  0  0  0  0  0  0  0  0  0  0
   -5.0620   25.1763  -31.1370 H   0  0  0  0  0  0  0  0  0  0  0  0
   -6.8019   25.6228  -31.1370 H   0  0  0  0  0  0  0  0  0  0  0  0
   -8.4584   23.6072  -30.6360 H   0  0  0  0  0  0  0  0  0  0  0  0
   -9.7450   21.2353  -30.5470 H   0  0  0  0  0  0  0  0  0  0  0  0
  -10.1587   22.0448  -32.0963 H   0  0  0  0  0  0  0  0  0  0  0  0
   -9.5982   20.3381  -32.0963 H   0  0  0  0  0  0  0  0  0  0  0  0
   -7.9450   19.6720  -33.8460 H   0  0  0  0  0  0  0  0  0  0  0  0
   -7.0712   16.4062  -32.2198 H   0  0  0  0  0  0  0  0  0  0  0  0
   -8.2988   17.2483  -33.2799 H   0  0  0  0  0  0  0  0  0  0  0  0
   -6.0077   17.9517  -35.9047 H   0  0  0  0  0  0  0  0  0  0  0  0
   -5.9874   18.8349  -34.3083 H   0  0  0  0  0  0  0  0  0  0  0  0
   -3.8408   17.1758  -35.6176 H   0  0  0  0  0  0  0  0  0  0  0  0
   -3.7230   18.7291  -34.7271 H   0  0  0  0  0  0  0  0  0  0  0  0
   -2.3786   16.8064  -32.0535 H   0  0  0  0  0  0  0  0  0  0  0  0
   -1.8646   16.5404  -33.7917 H   0  0  0  0  0  0  0  0  0  0  0  0
   -2.8024   19.1636  -31.2817 H   0  0  0  0  0  0  0  0  0  0  0  0
   -1.9130   21.4895  -31.3880 H   0  0  0  0  0  0  0  0  0  0  0  0
   -0.5615   22.2244  -33.3521 H   0  0  0  0  0  0  0  0  0  0  0  0
   -0.1036   20.6338  -35.2196 H   0  0  0  0  0  0  0  0  0  0  0  0
   -3.6599   15.0686  -34.3043 H   0  0  0  0  0  0  0  0  0  0  0  0
   -4.2880   15.1682  -32.6054 H   0  0  0  0  0  0  0  0  0  0  0  0
   -5.7552   15.0661  -35.1403 H   0  0  0  0  0  0  0  0  0  0  0  0
   -6.3294   14.8770  -33.4147 H   0  0  0  0  0  0  0  0  0  0  0  0
   -4.0459   20.3165  -32.7515 H   0  0  0  0  0  0  0  0  0  0  0  0
   -5.2524   20.0717  -34.0595 H   0  0  0  0  0  0  0  0  0  0  0  0
   -4.2125   21.5363  -34.0595 H   0  0  0  0  0  0  0  0  0  0  0  0
   -4.4683   23.2356  -32.2481 H   0  0  0  0  0  0  0  0  0  0  0  0
  1  2  1  0
  2  3  2  0
  3  4  1  0
  4  5  1  0
  4  6  2  0
  6  7  1  0
  7  8  1  0
  8  9  2  0
  8 10  1  0
 10 11  1  0
 11 12  1  0
 12 13  1  0
 13 14  1  0
 14 15  1  0
 15 16  1  0
 16 17  2  0
 17 18  1  0
 18 19  2  0
 19 20  1  0
 20 21  2  0
 21 22  1  0
 14 23  1  0
 23 24  1  0
  6 25  1  0
 25 26  1  0
 25 27  2  0
 27  2  1  0
 24 11  1  0
 21 16  1  0
  1 28  1  0
  1 29  1  0
  1 30  1  0
  3 31  1  0
  5 32  1  0
  5 33  1  0
  5 34  1  0
  7 35  1  0
 10 36  1  0
 10 37  1  0
 12 38  1  0
 12 39  1  0
 13 40  1  0
 13 41  1  0
 15 42  1  0
 15 43  1  0
 17 44  1  0
 18 45  1  0
 19 46  1  0
 20 47  1  0
 23 48  1  0
 23 49  1  0
 24 50  1  0
 24 51  1  0
 26 52  1  0
 26 53  1  0
 26 54  1  0
 27 55  1  0
M  END
>  <UniqueID>  (13) 
13

>  <SMILES>  (13) 
Cc1cc(C)c(NC(=O)CN2CCN(Cc3ccccc3F)CC2)c(C)c1

>  <Energy>  (13) 
76.91019396655015

>  <Genealogy>  (13) 
Cc1cc(C)c(NC(=O)CN2CCN(Cc3ccccc3F)CC2)c(C)c1 (3D coordinates assigned)
Cc1cc(C)c(NC(=O)CN2CCN(Cc3ccccc3F)CC2)c(C)c1 (nonaromatic ring conformer: 76.91019396655015 kcal/mol)

>  <smiles>  (13) 
Cc1cc(C)c(NC(=O)CN2CCN(Cc3ccccc3F)CC2)c(C)c1

>  <score_type>  (13) 
oracle

>  <origin>  (13) 
adg

>  <m_score__min__energy>  (13) 
-9.1799999999999997

>  <m_primary>  (13) 
energy

$$$$
13:0
     RDKit          3D

 60 62  0  0  0  0  0  0  0  0999 V2000
   -1.5780   21.4520  -31.7140 C   0  0  0  0  0  0  0  0  0  0  0  0
   -1.3670   20.3200  -32.7230 C   0  0  0  0  0  0  0  0  0  0  0  0
   -0.9780   20.8880  -34.0900 C   0  0  0  0  0  0  0  0  0  0  0  0
   -2.5840   19.5110  -32.8440 N   0  0  0  0  0  0  0  0  0  0  0  0
   -3.8620   20.0930  -33.1610 C   0  0  0  0  0  0  0  0  0  0  0  0
   -3.9290   21.3190  -33.4520 O   0  0  0  0  0  0  0  0  0  0  0  0
   -5.1240   19.2420  -33.1660 C   0  0  2  0  0  0  0  0  0  0  0  0
   -5.5160   18.7960  -34.5910 C   0  0  0  0  0  0  0  0  0  0  0  0
   -6.1300   17.4030  -34.4240 C   0  0  0  0  0  0  0  0  0  0  0  0
   -6.1120   17.1240  -32.9160 C   0  0  2  0  0  0  0  0  0  0  0  0
   -7.3950   17.6560  -32.2470 C   0  0  0  0  0  0  0  0  0  0  0  0
   -7.5230   19.1230  -32.3790 N   0  0  0  0  0  0  0  0  0  0  0  0
   -8.8040   19.7620  -32.1780 C   0  0  0  0  0  0  0  0  0  0  0  0
   -9.8120   19.3490  -32.8130 O   0  0  0  0  0  0  0  0  0  0  0  0
   -8.9840   20.9440  -31.2580 C   0  0  0  0  0  0  0  0  0  0  0  0
   -9.0400   22.1950  -32.0250 N   0  0  0  0  0  0  0  0  0  0  0  0
   -8.0360   23.1790  -31.5800 C   0  0  0  0  0  0  0  0  0  0  0  0
   -6.7260   23.0100  -32.3550 C   0  0  0  0  0  0  0  0  0  0  0  0
   -5.6550   23.8300  -31.7420 N   0  0  0  0  0  0  0  0  0  0  0  0
   -4.7320   23.0080  -30.9360 C   0  0  0  0  0  0  0  0  0  0  0  0
   -3.5930   23.8870  -30.3750 C   0  0  0  0  0  0  0  0  0  0  0  0
   -3.8290   25.2690  -30.5760 O   0  0  0  0  0  0  0  0  0  0  0  0
   -5.1120   25.6110  -30.0890 C   0  0  0  0  0  0  0  0  0  0  0  0
   -6.2160   24.9110  -30.9080 C   0  0  0  0  0  0  0  0  0  0  0  0
   -6.3240   19.9840  -32.5060 C   0  0  0  0  0  0  0  0  0  0  0  0
   -4.9300   17.9290  -32.4130 C   0  0  0  0  0  0  0  0  0  0  0  0
   -1.5033   21.0512  -30.6923 H   0  0  0  0  0  0  0  0  0  0  0  0
   -0.8082   22.2236  -31.8624 H   0  0  0  0  0  0  0  0  0  0  0  0
   -2.5741   21.8945  -31.8624 H   0  0  0  0  0  0  0  0  0  0  0  0
   -0.5494   19.6798  -32.3602 H   0  0  0  0  0  0  0  0  0  0  0  0
   -0.3614   21.7883  -33.9510 H   0  0  0  0  0  0  0  0  0  0  0  0
   -0.4055   20.1345  -34.6507 H   0  0  0  0  0  0  0  0  0  0  0  0
   -1.8875   21.1495  -34.6507 H   0  0  0  0  0  0  0  0  0  0  0  0
   -2.5180   18.4760  -32.7130 H   0  0  0  0  0  0  0  0  0  0  0  0
   -6.2502   19.4913  -35.0240 H   0  0  0  0  0  0  0  0  0  0  0  0
   -4.6503   18.7839  -35.2696 H   0  0  0  0  0  0  0  0  0  0  0  0
   -7.1619   17.3897  -34.8049 H   0  0  0  0  0  0  0  0  0  0  0  0
   -5.5705   16.6409  -34.9862 H   0  0  0  0  0  0  0  0  0  0  0  0
   -6.0467   16.0484  -32.6949 H   0  0  0  0  0  0  0  0  0  0  0  0
   -8.2660   17.1798  -32.7210 H   0  0  0  0  0  0  0  0  0  0  0  0
   -7.3432   17.4153  -31.1749 H   0  0  0  0  0  0  0  0  0  0  0  0
   -9.9211   20.8236  -30.6946 H   0  0  0  0  0  0  0  0  0  0  0  0
   -8.1276   20.9896  -30.5691 H   0  0  0  0  0  0  0  0  0  0  0  0
   -9.9900   22.6100  -31.8750 H   0  0  0  0  0  0  0  0  0  0  0  0
   -8.4262   24.1935  -31.7488 H   0  0  0  0  0  0  0  0  0  0  0  0
   -7.8355   23.0181  -30.5105 H   0  0  0  0  0  0  0  0  0  0  0  0
   -6.4277   21.9514  -32.3366 H   0  0  0  0  0  0  0  0  0  0  0  0
   -6.8796   23.3408  -33.3928 H   0  0  0  0  0  0  0  0  0  0  0  0
   -5.2848   22.5521  -30.1014 H   0  0  0  0  0  0  0  0  0  0  0  0
   -4.3004   22.2213  -31.5723 H   0  0  0  0  0  0  0  0  0  0  0  0
   -3.4997   23.6978  -29.2954 H   0  0  0  0  0  0  0  0  0  0  0  0
   -2.6698   23.6227  -30.9116 H   0  0  0  0  0  0  0  0  0  0  0  0
   -5.1924   25.3005  -29.0368 H   0  0  0  0  0  0  0  0  0  0  0  0
   -5.2437   26.6993  -30.1795 H   0  0  0  0  0  0  0  0  0  0  0  0
   -6.9587   24.4838  -30.2182 H   0  0  0  0  0  0  0  0  0  0  0  0
   -6.6849   25.6546  -31.5692 H   0  0  0  0  0  0  0  0  0  0  0  0
   -6.5809   20.8578  -33.1229 H   0  0  0  0  0  0  0  0  0  0  0  0
   -6.0168   20.2808  -31.4923 H   0  0  0  0  0  0  0  0  0  0  0  0
   -4.9777   18.0779  -31.3242 H   0  0  0  0  0  0  0  0  0  0  0  0
   -3.9536   17.4514  -32.5821 H   0  0  0  0  0  0  0  0  0  0  0  0
  1  2  1  0
  2  3  1  0
  2  4  1  0
  4  5  1  0
  5  6  2  0
  7  5  1  6
  7  8  1  0
  8  9  1  0
  9 10  1  0
 10 11  1  0
 11 12  1  0
 12 13  1  0
 13 14  2  0
 13 15  1  0
 15 16  1  0
 16 17  1  0
 17 18  1  0
 18 19  1  0
 19 20  1  0
 20 21  1  0
 21 22  1  0
 22 23  1  0
 23 24  1  0
 12 25  1  0
 10 26  1  0
 25  7  1  0
 26  7  1  0
 24 19  1  0
  1 27  1  0
  1 28  1  0
  1 29  1  0
  2 30  1  0
  3 31  1  0
  3 32  1  0
  3 33  1  0
  4 34  1  0
  8 35  1  0
  8 36  1  0
  9 37  1  0
  9 38  1  0
 10 39  1  6
 11 40  1  0
 11 41  1  0
 15 42  1  0
 15 43  1  0
 16 44  1  0
 17 45  1  0
 17 46  1  0
 18 47  1  0
 18 48  1  0
 20 49  1  0
 20 50  1  0
 21 51  1  0
 21 52  1  0
 23 53  1  0
 23 54  1  0
 24 55  1  0
 24 56  1  0
 25 57  1  0
 25 58  1  0
 26 59  1  0
 26 60  1  0
M  END
>  <UniqueID>  (14) 
14

>  <SMILES>  (14) 
CC(C)NC(=O)[C@]12CC[C@H](CN(C(=O)CNCCN3CCOCC3)C1)C2

>  <Energy>  (14) 
72.10010808856516

>  <Genealogy>  (14) 
CC(C)NC(=O)[C@]12CC[C@H](CN(C(=O)CNCCN3CCOCC3)C1)C2 (chirality)
CC(C)NC(=O)[C@]12CC[C@H](CN(C(=O)CNCCN3CCOCC3)C1)C2 (3D coordinates assigned)
CC(C)NC(=O)[C@]12CC[C@H](CN(C(=O)CNCCN3CCOCC3)C1)C2 (nonaromatic ring conformer: 72.10010808856516 kcal/mol)

>  <smiles>  (14) 
CC(C)NC(=O)C12CCC(CN(C(=O)CNCCN3CCOCC3)C1)C2

>  <score_type>  (14) 
oracle

>  <origin>  (14) 
adg

>  <m_score__min__energy>  (14) 
-9.0500000000000007

>  <m_primary>  (14) 
energy

$$$$
14:0
     RDKit          3D

 38 39  0  0  0  0  0  0  0  0999 V2000
  -10.1313   19.2661  -31.6476 H   0  0  0  0  0  0  0  0  0  0  0  0
   -9.1100   19.5220  -31.9660 C   0  0  0  0  0  0  0  0  0  0  0  0
   -8.6290   20.8210  -31.7880 C   0  0  0  0  0  0  0  0  0  0  0  0
   -9.5280   21.8820  -31.2230 C   0  0  0  0  0  0  0  0  0  0  0  0
   -9.4952   21.8433  -30.1242 H   0  0  0  0  0  0  0  0  0  0  0  0
   -9.1885   22.8707  -31.5654 H   0  0  0  0  0  0  0  0  0  0  0  0
  -10.5590   21.7095  -31.5654 H   0  0  0  0  0  0  0  0  0  0  0  0
   -7.3300   21.1490  -32.2090 C   0  0  0  0  0  0  0  0  0  0  0  0
   -6.9742   22.1844  -32.1020 H   0  0  0  0  0  0  0  0  0  0  0  0
   -6.4680   20.1730  -32.7690 C   0  0  0  0  0  0  0  0  0  0  0  0
   -5.1130   20.3930  -33.1950 C   0  0  0  0  0  0  0  0  0  0  0  0
   -4.4110   21.4880  -33.0400 N   0  0  0  0  0  0  0  0  0  0  0  0
   -4.0270   22.2650  -31.8680 C   0  0  0  0  0  0  0  0  0  0  0  0
   -3.9789   21.6070  -30.9878 H   0  0  0  0  0  0  0  0  0  0  0  0
   -3.0391   22.7211  -32.0295 H   0  0  0  0  0  0  0  0  0  0  0  0
   -5.0780   23.3640  -31.6350 C   0  0  0  0  0  0  0  0  0  0  0  0
   -5.4154   23.7309  -32.6156 H   0  0  0  0  0  0  0  0  0  0  0  0
   -5.8869   22.9054  -31.0473 H   0  0  0  0  0  0  0  0  0  0  0  0
   -4.5890   24.5220  -30.8500 N   0  0  0  0  0  0  0  0  0  0  0  0
   -5.6730   25.4070  -30.3960 C   0  0  0  0  0  0  0  0  0  0  0  0
   -5.6953   25.4252  -29.2964 H   0  0  0  0  0  0  0  0  0  0  0  0
   -5.4991   26.4245  -30.7761 H   0  0  0  0  0  0  0  0  0  0  0  0
   -6.6351   25.0330  -30.7761 H   0  0  0  0  0  0  0  0  0  0  0  0
   -3.7180   24.1310  -29.7320 C   0  0  0  0  0  0  0  0  0  0  0  0
   -4.2203   24.3565  -28.7797 H   0  0  0  0  0  0  0  0  0  0  0  0
   -3.5089   23.0526  -29.7899 H   0  0  0  0  0  0  0  0  0  0  0  0
   -2.7732   24.6914  -29.7899 H   0  0  0  0  0  0  0  0  0  0  0  0
   -4.4320   19.3330  -33.8050 C   0  0  0  0  0  0  0  0  0  0  0  0
   -3.4056   19.4826  -34.1712 H   0  0  0  0  0  0  0  0  0  0  0  0
   -5.0440   18.0900  -33.9520 C   0  0  0  0  0  0  0  0  0  0  0  0
   -4.3050   16.9570  -34.5890 C   0  0  0  0  0  0  0  0  0  0  0  0
   -3.8824   16.3091  -33.8069 H   0  0  0  0  0  0  0  0  0  0  0  0
   -4.9967   16.3735  -35.2143 H   0  0  0  0  0  0  0  0  0  0  0  0
   -3.4922   17.3549  -35.2143 H   0  0  0  0  0  0  0  0  0  0  0  0
   -6.2800   17.9030  -33.5200 O   0  0  0  0  0  0  0  0  0  0  0  0
   -7.0000   18.8610  -32.9520 C   0  0  0  0  0  0  0  0  0  0  0  0
   -8.3000   18.5520  -32.5450 C   0  0  0  0  0  0  0  0  0  0  0  0
   -8.6864   17.5315  -32.6840 H   0  0  0  0  0  0  0  0  0  0  0  0
  1  2  1  0
  2  3  2  0
  3  4  1  0
  4  5  1  0
  4  6  1  0
  4  7  1  0
  3  8  1  0
  8  9  1  0
  8 10  2  0
 10 11  1  0
 11 12  2  0
 12 13  1  0
 13 14  1  0
 13 15  1  0
 13 16  1  0
 16 17  1  0
 16 18  1  0
 16 19  1  0
 19 20  1  0
 20 21  1  0
 20 22  1  0
 20 23  1  0
 19 24  1  0
 24 25  1  0
 24 26  1  0
 24 27  1  0
 11 28  1  0
 28 29  1  0
 28 30  2  0
 30 31  1  0
 31 32  1  0
 31 33  1  0
 31 34  1  0
 30 35  1  0
 35 36  1  0
 36 37  2  0
 37 38  1  0
 37  2  1  0
 36 10  1  0
M  END
>  <UniqueID>  (15) 
15

>  <SMILES>  (15) 
Cc1ccc2oc(C)c/c(=N/CCN(C)C)c2c1

>  <Energy>  (15) 
54.714520804382616

>  <Genealogy>  (15) 
Cc1ccc2oc(C)c/c(=N/CCN(C)C)c2c1 (cis-trans isomerization)
Cc1ccc2oc(C)c/c(=N/CCN(C)C)c2c1 (3D coordinates assigned)
Cc1ccc2oc(C)c/c(=N/CCN(C)C)c2c1 (optimized conformer: 54.714520804382616 kcal/mol)

>  <smiles>  (15) 
Cc1ccc2oc(C)cc(=NCCN(C)C)c2c1

>  <score_type>  (15) 
oracle

>  <origin>  (15) 
adg

>  <m_score__min__energy>  (15) 
-7.0999999999999996

>  <m_primary>  (15) 
energy

$$$$
15:0
     RDKit          3D

 46 48  0  0  0  0  0  0  0  0999 V2000
   -2.1930   19.3590  -27.0920 C   0  0  0  0  0  0  0  0  0  0  0  0
   -2.2780   20.7230  -27.7270 C   0  0  0  0  0  0  0  0  0  0  0  0
   -3.4230   21.5010  -27.4900 C   0  0  0  0  0  0  0  0  0  0  0  0
   -3.5380   22.7860  -28.0210 C   0  0  0  0  0  0  0  0  0  0  0  0
   -2.5110   23.3250  -28.8080 C   0  0  0  0  0  0  0  0  0  0  0  0
   -2.6310   24.6910  -29.3710 C   0  0  0  0  0  0  0  0  0  0  0  0
   -1.9830   25.6460  -28.8610 O   0  0  0  0  0  0  0  0  0  0  0  0
   -3.4870   24.9360  -30.4950 N   0  0  0  0  0  0  0  0  0  0  0  0
   -4.7780   25.6080  -30.3970 C   0  0  0  0  0  0  0  0  0  0  0  0
   -5.7380   24.7960  -29.5260 C   0  0  0  0  0  0  0  0  0  0  0  0
   -6.5060   23.8120  -30.3610 C   0  0  0  0  0  0  0  0  0  0  0  0
   -6.3990   23.8230  -31.7600 C   0  0  0  0  0  0  0  0  0  0  0  0
   -7.1000   22.8750  -32.5080 C   0  0  0  0  0  0  0  0  0  0  0  0
   -7.8910   21.9250  -31.8590 C   0  0  0  0  0  0  0  0  0  0  0  0
   -7.9650   21.9360  -30.4640 C   0  0  0  0  0  0  0  0  0  0  0  0
   -7.2750   22.8670  -29.7520 N   0  0  0  0  0  0  0  0  0  0  0  0
   -1.3690   22.5470  -29.0640 C   0  0  0  0  0  0  0  0  0  0  0  0
   -1.2450   21.2420  -28.5490 C   0  0  0  0  0  0  0  0  0  0  0  0
   -0.0260   20.4650  -28.8850 C   0  0  0  0  0  0  0  0  0  0  0  0
    0.9040   20.3730  -28.0390 O   0  0  0  0  0  0  0  0  0  0  0  0
    0.1370   19.9070  -30.1960 N   0  0  0  0  0  0  0  0  0  0  0  0
   -0.5070   20.3570  -31.3960 C   0  0  0  0  0  0  0  0  0  0  0  0
    0.2240   20.7090  -32.5460 C   0  0  0  0  0  0  0  0  0  0  0  0
   -0.4430   21.1210  -33.7060 C   0  0  0  0  0  0  0  0  0  0  0  0
    0.4720   21.5620  -35.1360 Cl  0  0  0  0  0  0  0  0  0  0  0  0
   -1.8400   21.1710  -33.7290 C   0  0  0  0  0  0  0  0  0  0  0  0
   -2.5730   20.7990  -32.5960 C   0  0  0  0  0  0  0  0  0  0  0  0
   -4.3260   20.8480  -32.6310 Cl  0  0  0  0  0  0  0  0  0  0  0  0
   -1.9060   20.3860  -31.4380 C   0  0  0  0  0  0  0  0  0  0  0  0
   -2.1995   19.4633  -25.9970 H   0  0  0  0  0  0  0  0  0  0  0  0
   -3.0551   18.7532  -27.4078 H   0  0  0  0  0  0  0  0  0  0  0  0
   -1.2623   18.8649  -27.4078 H   0  0  0  0  0  0  0  0  0  0  0  0
   -4.2400   21.0918  -26.8776 H   0  0  0  0  0  0  0  0  0  0  0  0
   -4.4415   23.3806  -27.8205 H   0  0  0  0  0  0  0  0  0  0  0  0
   -4.6357   26.6026  -29.9491 H   0  0  0  0  0  0  0  0  0  0  0  0
   -5.2069   25.7049  -31.4053 H   0  0  0  0  0  0  0  0  0  0  0  0
   -5.1615   24.2511  -28.7639 H   0  0  0  0  0  0  0  0  0  0  0  0
   -6.4490   25.4842  -29.0455 H   0  0  0  0  0  0  0  0  0  0  0  0
   -5.7688   24.5714  -32.2627 H   0  0  0  0  0  0  0  0  0  0  0  0
   -7.0292   22.8766  -33.6057 H   0  0  0  0  0  0  0  0  0  0  0  0
   -8.4497   21.1762  -32.4396 H   0  0  0  0  0  0  0  0  0  0  0  0
   -8.5821   21.1907  -29.9408 H   0  0  0  0  0  0  0  0  0  0  0  0
   -0.5573   22.9648  -29.6777 H   0  0  0  0  0  0  0  0  0  0  0  0
    1.3228   20.6603  -32.5334 H   0  0  0  0  0  0  0  0  0  0  0  0
   -2.3634   21.5028  -34.6378 H   0  0  0  0  0  0  0  0  0  0  0  0
   -2.4851   20.0817  -30.5537 H   0  0  0  0  0  0  0  0  0  0  0  0
  1  2  1  0
  2  3  2  0
  3  4  1  0
  4  5  2  0
  5  6  1  0
  6  7  2  0
  6  8  1  0
  8  9  1  0
  9 10  1  0
 10 11  1  0
 11 12  2  0
 12 13  1  0
 13 14  2  0
 14 15  1  0
 15 16  2  0
  5 17  1  0
 17 18  2  0
 18 19  1  0
 19 20  2  0
 19 21  1  0
 21 22  1  0
 22 23  2  0
 23 24  1  0
 24 25  1  0
 24 26  2  0
 26 27  1  0
 27 28  1  0
 27 29  2  0
 18  2  1  0
 29 22  1  0
 16 11  1  0
  1 30  1  0
  1 31  1  0
  1 32  1  0
  3 33  1  0
  4 34  1  0
  9 35  1  0
  9 36  1  0
 10 37  1  0
 10 38  1  0
 12 39  1  0
 13 40  1  0
 14 41  1  0
 15 42  1  0
 17 43  1  0
 23 44  1  0
 26 45  1  0
 29 46  1  0
M  CHG  2   8  -1  21  -1
M  END
>  <UniqueID>  (16) 
16

>  <SMILES>  (16) 
Cc1ccc(C(=O)[N-]CCc2ccccn2)cc1C(=O)[N-]c1cc(Cl)cc(Cl)c1

>  <Energy>  (16) 
53.530208859769765

>  <Genealogy>  (16) 
Cc1ccc(C(=O)[N-]CCc2ccccn2)cc1C(=O)[N-]c1cc(Cl)cc(Cl)c1 (protonated)
Cc1ccc(C(=O)[N-]CCc2ccccn2)cc1C(=O)[N-]c1cc(Cl)cc(Cl)c1 (3D coordinates assigned)
Cc1ccc(C(=O)[N-]CCc2ccccn2)cc1C(=O)[N-]c1cc(Cl)cc(Cl)c1 (optimized conformer: 53.530208859769765 kcal/mol)

>  <smiles>  (16) 
Cc1ccc(C(=O)NCCc2ccccn2)cc1C(=O)Nc1cc(Cl)cc(Cl)c1

>  <score_type>  (16) 
oracle

>  <origin>  (16) 
adg

>  <m_score__min__energy>  (16) 
-11.17

>  <m_primary>  (16) 
energy

$$$$
16:0
     RDKit          3D

 70 73  0  0  0  0  0  0  0  0999 V2000
   -6.5690   16.5590  -33.8770 C   0  0  0  0  0  0  0  0  0  0  0  0
   -6.1690   17.7980  -33.3010 O   0  0  0  0  0  0  0  0  0  0  0  0
   -7.0570   18.7910  -32.8560 C   0  0  0  0  0  0  0  0  0  0  0  0
   -8.4350   18.5350  -32.6950 C   0  0  0  0  0  0  0  0  0  0  0  0
   -9.2890   19.5310  -32.2210 C   0  0  0  0  0  0  0  0  0  0  0  0
   -8.7860   20.7910  -31.8990 C   0  0  0  0  0  0  0  0  0  0  0  0
   -7.4260   21.0600  -32.0570 C   0  0  0  0  0  0  0  0  0  0  0  0
   -6.5520   20.0720  -32.5420 C   0  0  0  0  0  0  0  0  0  0  0  0
   -5.1550   20.3750  -32.7070 N   0  0  0  0  0  0  0  0  0  0  0  0
   -4.1380   19.3340  -32.5390 C   0  0  0  0  0  0  0  0  0  0  0  0
   -3.0270   19.5270  -33.5770 C   0  0  0  0  0  0  0  0  0  0  0  0
   -2.4230   20.8970  -33.5690 N   0  0  0  0  0  0  0  0  0  0  0  0
   -1.0330   20.8560  -33.0400 C   0  0  0  0  0  0  0  0  0  0  0  0
   -0.9630   20.9690  -31.4940 C   0  0  2  0  0  0  0  0  0  0  0  0
   -0.9720   22.3160  -31.0880 O   0  0  0  0  0  0  0  0  0  0  0  0
    0.2830   20.2660  -30.9360 C   0  0  0  0  0  0  0  0  0  0  0  0
    0.4860   20.6310  -29.5720 O   0  0  0  0  0  0  0  0  0  0  0  0
   -0.3510   20.2420  -28.5120 C   0  0  0  0  0  0  0  0  0  0  0  0
   -0.4590   18.8900  -28.1230 C   0  0  0  0  0  0  0  0  0  0  0  0
   -1.3180   18.5140  -27.0910 C   0  0  0  0  0  0  0  0  0  0  0  0
   -2.0760   19.4760  -26.4280 C   0  0  0  0  0  0  0  0  0  0  0  0
   -1.9740   20.8190  -26.7900 C   0  0  0  0  0  0  0  0  0  0  0  0
   -1.1140   21.2220  -27.8310 C   0  0  0  0  0  0  0  0  0  0  0  0
   -0.9880   22.6650  -28.1700 C   0  0  0  0  0  0  0  0  0  0  0  0
    0.1360   23.1330  -28.5000 O   0  0  0  0  0  0  0  0  0  0  0  0
   -2.1690   23.5990  -28.0420 C   0  0  0  0  0  0  0  0  0  0  0  0
   -2.5110   24.3480  -29.3400 C   0  0  0  0  0  0  0  0  0  0  0  0
   -3.9580   24.1830  -29.7390 C   0  0  0  0  0  0  0  0  0  0  0  0
   -4.6150   25.1960  -30.4580 C   0  0  0  0  0  0  0  0  0  0  0  0
   -5.9560   25.0470  -30.8160 C   0  0  0  0  0  0  0  0  0  0  0  0
   -6.6480   23.8810  -30.4760 C   0  0  0  0  0  0  0  0  0  0  0  0
   -6.0040   22.8710  -29.7590 C   0  0  0  0  0  0  0  0  0  0  0  0
   -4.6670   23.0220  -29.3820 C   0  0  0  0  0  0  0  0  0  0  0  0
   -3.2350   21.9130  -32.8480 C   0  0  0  0  0  0  0  0  0  0  0  0
   -4.7380   21.7280  -33.0850 C   0  0  0  0  0  0  0  0  0  0  0  0
   -6.8009   15.8406  -33.0769 H   0  0  0  0  0  0  0  0  0  0  0  0
   -7.4623   16.7155  -34.4996 H   0  0  0  0  0  0  0  0  0  0  0  0
   -5.7529   16.1636  -34.4996 H   0  0  0  0  0  0  0  0  0  0  0  0
   -8.8389   17.5429  -32.9450 H   0  0  0  0  0  0  0  0  0  0  0  0
  -10.3622   19.3218  -32.1009 H   0  0  0  0  0  0  0  0  0  0  0  0
   -9.4611   21.5727  -31.5206 H   0  0  0  0  0  0  0  0  0  0  0  0
   -7.0341   22.0550  -31.7995 H   0  0  0  0  0  0  0  0  0  0  0  0
   -3.7098   19.4006  -31.5280 H   0  0  0  0  0  0  0  0  0  0  0  0
   -4.6006   18.3459  -32.6791 H   0  0  0  0  0  0  0  0  0  0  0  0
   -2.2309   18.7959  -33.3727 H   0  0  0  0  0  0  0  0  0  0  0  0
   -3.4855   19.3851  -34.5668 H   0  0  0  0  0  0  0  0  0  0  0  0
   -2.3710   21.2010  -34.5710 H   0  0  0  0  0  0  0  0  0  0  0  0
   -0.5721   19.9040  -33.3421 H   0  0  0  0  0  0  0  0  0  0  0  0
   -0.4998   21.7238  -33.4554 H   0  0  0  0  0  0  0  0  0  0  0  0
   -1.8550   20.4680  -31.0898 H   0  0  0  0  0  0  0  0  0  0  0  0
   -0.2160   22.4420  -30.4560 H   0  0  0  0  0  0  0  0  0  0  0  0
    0.1465   19.1766  -31.0040 H   0  0  0  0  0  0  0  0  0  0  0  0
    1.1610   20.5722  -31.5237 H   0  0  0  0  0  0  0  0  0  0  0  0
    0.1402   18.1252  -28.6388 H   0  0  0  0  0  0  0  0  0  0  0  0
   -1.3971   17.4561  -26.8001 H   0  0  0  0  0  0  0  0  0  0  0  0
   -2.7564   19.1760  -25.6174 H   0  0  0  0  0  0  0  0  0  0  0  0
   -2.5720   21.5726  -26.2566 H   0  0  0  0  0  0  0  0  0  0  0  0
   -3.0469   23.0087  -27.7406 H   0  0  0  0  0  0  0  0  0  0  0  0
   -1.8966   24.3596  -27.2955 H   0  0  0  0  0  0  0  0  0  0  0  0
   -2.3052   25.4187  -29.1941 H   0  0  0  0  0  0  0  0  0  0  0  0
   -1.8921   23.9230  -30.1440 H   0  0  0  0  0  0  0  0  0  0  0  0
   -4.0707   26.1095  -30.7397 H   0  0  0  0  0  0  0  0  0  0  0  0
   -6.4693   25.8489  -31.3669 H   0  0  0  0  0  0  0  0  0  0  0  0
   -7.7000   23.7593  -30.7734 H   0  0  0  0  0  0  0  0  0  0  0  0
   -6.5501   21.9547  -29.4904 H   0  0  0  0  0  0  0  0  0  0  0  0
   -4.1675   22.2304  -28.8042 H   0  0  0  0  0  0  0  0  0  0  0  0
   -3.0333   21.8276  -31.7700 H   0  0  0  0  0  0  0  0  0  0  0  0
   -2.9525   22.9047  -33.2311 H   0  0  0  0  0  0  0  0  0  0  0  0
   -5.2926   22.4600  -32.4796 H   0  0  0  0  0  0  0  0  0  0  0  0
   -4.9508   21.8801  -34.1534 H   0  0  0  0  0  0  0  0  0  0  0  0
  1  2  1  0
  2  3  1  0
  3  4  2  0
  4  5  1  0
  5  6  2  0
  6  7  1  0
  7  8  2  0
  8  9  1  0
  9 10  1  0
 10 11  1  0
 11 12  1  0
 12 13  1  0
 13 14  1  0
 14 15  1  0
 14 16  1  0
 16 17  1  0
 17 18  1  0
 18 19  2  0
 19 20  1  0
 20 21  2  0
 21 22  1  0
 22 23  2  0
 23 24  1  0
 24 25  2  0
 24 26  1  0
 26 27  1  0
 27 28  1  0
 28 29  2  0
 29 30  1  0
 30 31  2  0
 31 32  1  0
 32 33  2  0
 12 34  1  0
 34 35  1  0
  8  3  1  0
 35  9  1  0
 23 18  1  0
 33 28  1  0
  1 36  1  0
  1 37  1  0
  1 38  1  0
  4 39  1  0
  5 40  1  0
  6 41  1  0
  7 42  1  0
 10 43  1  0
 10 44  1  0
 11 45  1  0
 11 46  1  0
 12 47  1  0
 13 48  1  0
 13 49  1  0
 14 50  1  1
 15 51  1  0
 16 52  1  0
 16 53  1  0
 19 54  1  0
 20 55  1  0
 21 56  1  0
 22 57  1  0
 26 58  1  0
 26 59  1  0
 27 60  1  0
 27 61  1  0
 29 62  1  0
 30 63  1  0
 31 64  1  0
 32 65  1  0
 33 66  1  0
 34 67  1  0
 34 68  1  0
 35 69  1  0
 35 70  1  0
M  CHG  1  12   1
M  END
>  <UniqueID>  (17) 
17

>  <SMILES>  (17) 
COc1ccccc1N1CC[NH+](C[C@H](O)COc2ccccc2C(=O)CCc2ccccc2)CC1

>  <Energy>  (17) 
82.16782150244212

>  <Genealogy>  (17) 
COc1ccccc1N1CC[NH+](CC(O)COc2ccccc2C(=O)CCc2ccccc2)CC1 (protonated)
COc1ccccc1N1CC[NH+](C[C@H](O)COc2ccccc2C(=O)CCc2ccccc2)CC1 (chirality)
COc1ccccc1N1CC[NH+](C[C@H](O)COc2ccccc2C(=O)CCc2ccccc2)CC1 (3D coordinates assigned)
COc1ccccc1N1CC[NH+](C[C@H](O)COc2ccccc2C(=O)CCc2ccccc2)CC1 (nonaromatic ring conformer: 82.16782150244212 kcal/mol)

>  <smiles>  (17) 
COc1ccccc1N1CCN(CC(O)COc2ccccc2C(=O)CCc2ccccc2)CC1

>  <score_type>  (17) 
oracle

>  <origin>  (17) 
adg

>  <m_score__min__energy>  (17) 
-9.6199999999999992

>  <m_primary>  (17) 
energy

$$$$
17:0
     RDKit          3D

 40 42  0  0  0  0  0  0  0  0999 V2000
   -9.2780   21.8950  -31.2610 C   0  0  0  0  0  0  0  0  0  0  0  0
   -7.8120   22.1390  -31.4610 C   0  0  0  0  0  0  0  0  0  0  0  0
   -7.0670   21.3270  -32.3300 C   0  0  0  0  0  0  0  0  0  0  0  0
   -5.6990   21.5480  -32.4960 C   0  0  0  0  0  0  0  0  0  0  0  0
   -5.0590   22.5610  -31.7790 C   0  0  0  0  0  0  0  0  0  0  0  0
   -5.7820   23.3520  -30.8720 C   0  0  0  0  0  0  0  0  0  0  0  0
   -4.9710   24.6300  -29.9560 S   0  0  0  0  0  0  0  0  0  0  0  0
   -6.0000   25.6620  -29.5800 O   0  0  0  0  0  0  0  0  0  0  0  0
   -3.9540   25.2990  -30.8380 O   0  0  0  0  0  0  0  0  0  0  0  0
   -4.1830   24.0640  -28.4940 N   0  0  0  0  0  0  0  0  0  0  0  0
   -4.3320   22.6110  -28.2760 C   0  0  0  0  0  0  0  0  0  0  0  0
   -3.0830   21.7830  -28.6450 C   0  0  0  0  0  0  0  0  0  0  0  0
   -2.2300   22.4870  -29.6110 N   0  0  0  0  0  0  0  0  0  0  0  0
   -1.6130   21.7850  -30.7110 C   0  0  0  0  0  0  0  0  0  0  0  0
   -2.1490   21.8470  -31.9620 N   0  0  0  0  0  0  0  0  0  0  0  0
   -1.5610   21.2180  -33.0130 C   0  0  0  0  0  0  0  0  0  0  0  0
   -0.3870   20.4950  -32.8220 C   0  0  0  0  0  0  0  0  0  0  0  0
    0.1520   20.4330  -31.5390 C   0  0  0  0  0  0  0  0  0  0  0  0
   -0.4650   21.0760  -30.5130 N   0  0  0  0  0  0  0  0  0  0  0  0
   -1.8390   23.8750  -29.3320 C   0  0  0  0  0  0  0  0  0  0  0  0
   -2.7990   24.5460  -28.3440 C   0  0  0  0  0  0  0  0  0  0  0  0
   -7.1640   23.1470  -30.7340 C   0  0  0  0  0  0  0  0  0  0  0  0
   -9.5000   21.8580  -30.1843 H   0  0  0  0  0  0  0  0  0  0  0  0
   -9.8521   22.7099  -31.7260 H   0  0  0  0  0  0  0  0  0  0  0  0
   -9.5572   20.9380  -31.7260 H   0  0  0  0  0  0  0  0  0  0  0  0
   -7.5624   20.5144  -32.8816 H   0  0  0  0  0  0  0  0  0  0  0  0
   -5.1232   20.9223  -33.1938 H   0  0  0  0  0  0  0  0  0  0  0  0
   -3.9836   22.7400  -31.9255 H   0  0  0  0  0  0  0  0  0  0  0  0
   -4.5548   22.4432  -27.2119 H   0  0  0  0  0  0  0  0  0  0  0  0
   -5.1415   22.2738  -28.9401 H   0  0  0  0  0  0  0  0  0  0  0  0
   -2.5017   21.5886  -27.7316 H   0  0  0  0  0  0  0  0  0  0  0  0
   -3.4192   20.8427  -29.1062 H   0  0  0  0  0  0  0  0  0  0  0  0
   -2.0124   21.2801  -34.0142 H   0  0  0  0  0  0  0  0  0  0  0  0
    0.1034   19.9848  -33.6641 H   0  0  0  0  0  0  0  0  0  0  0  0
    1.0758   19.8644  -31.3566 H   0  0  0  0  0  0  0  0  0  0  0  0
   -0.8256   23.8809  -28.9043 H   0  0  0  0  0  0  0  0  0  0  0  0
   -1.8710   24.4371  -30.2770 H   0  0  0  0  0  0  0  0  0  0  0  0
   -2.4590   24.3322  -27.3199 H   0  0  0  0  0  0  0  0  0  0  0  0
   -2.7946   25.6262  -28.5516 H   0  0  0  0  0  0  0  0  0  0  0  0
   -7.7436   23.7833  -30.0490 H   0  0  0  0  0  0  0  0  0  0  0  0
  1  2  1  0
  2  3  2  0
  3  4  1  0
  4  5  2  0
  5  6  1  0
  6  7  1  0
  7  8  2  0
  7  9  2  0
  7 10  1  0
 10 11  1  0
 11 12  1  0
 12 13  1  0
 13 14  1  0
 14 15  2  0
 15 16  1  0
 16 17  2  0
 17 18  1  0
 18 19  2  0
 13 20  1  0
 20 21  1  0
  6 22  2  0
 22  2  1  0
 21 10  1  0
 19 14  1  0
  1 23  1  0
  1 24  1  0
  1 25  1  0
  3 26  1  0
  4 27  1  0
  5 28  1  0
 11 29  1  0
 11 30  1  0
 12 31  1  0
 12 32  1  0
 16 33  1  0
 17 34  1  0
 18 35  1  0
 20 36  1  0
 20 37  1  0
 21 38  1  0
 21 39  1  0
 22 40  1  0
M  END
>  <UniqueID>  (18) 
18

>  <SMILES>  (18) 
Cc1cccc(S(=O)(=O)N2CCN(c3ncccn3)CC2)c1

>  <Energy>  (18) 
46.22825374112844

>  <Genealogy>  (18) 
Cc1cccc(S(=O)(=O)N2CCN(c3ncccn3)CC2)c1 (3D coordinates assigned)
Cc1cccc(S(=O)(=O)N2CCN(c3ncccn3)CC2)c1 (nonaromatic ring conformer: 46.22825374112844 kcal/mol)

>  <smiles>  (18) 
Cc1cccc(S(=O)(=O)N2CCN(c3ncccn3)CC2)c1

>  <score_type>  (18) 
oracle

>  <origin>  (18) 
adg

>  <m_score__min__energy>  (18) 
-7.79

>  <m_primary>  (18) 
energy

$$$$
18:0
     RDKit          3D

 34 34  0  0  0  0  0  0  0  0999 V2000
   -2.5610   24.9430  -26.9530 C   0  0  0  0  0  0  0  0  0  0  0  0
   -1.5900   25.4010  -28.0310 C   0  0  0  0  0  0  0  0  0  0  0  0
   -2.2120   25.2860  -29.2920 O   0  0  0  0  0  0  0  0  0  0  0  0
   -2.6380   23.9530  -29.4870 C   0  0  0  0  0  0  0  0  0  0  0  0
   -3.8080   23.9290  -30.4680 C   0  0  0  0  0  0  0  0  0  0  0  0
   -4.3680   25.2780  -30.6270 N   0  0  0  0  0  0  0  0  0  0  0  0
   -5.8010   25.2410  -30.9550 C   0  0  0  0  0  0  0  0  0  0  0  0
   -6.3350   23.8340  -30.9830 C   0  0  0  0  0  0  0  0  0  0  0  0
   -6.5690   23.2390  -29.8960 O   0  0  0  0  0  0  0  0  0  0  0  0
   -6.5150   23.1570  -32.2350 N   0  0  0  0  0  0  0  0  0  0  0  0
   -6.9660   21.7980  -32.3130 C   0  0  0  0  0  0  0  0  0  0  0  0
   -8.2950   21.5030  -31.9800 C   0  0  0  0  0  0  0  0  0  0  0  0
   -8.7650   20.1880  -32.0490 C   0  0  0  0  0  0  0  0  0  0  0  0
   -7.9050   19.1580  -32.4380 C   0  0  0  0  0  0  0  0  0  0  0  0
   -6.5720   19.4390  -32.7470 C   0  0  0  0  0  0  0  0  0  0  0  0
   -6.0930   20.7530  -32.6810 C   0  0  0  0  0  0  0  0  0  0  0  0
   -4.2310   21.0620  -33.0130 Br  0  0  0  0  0  0  0  0  0  0  0  0
   -2.1304   25.1461  -25.9614 H   0  0  0  0  0  0  0  0  0  0  0  0
   -3.5105   25.4882  -27.0591 H   0  0  0  0  0  0  0  0  0  0  0  0
   -2.7442   23.8636  -27.0591 H   0  0  0  0  0  0  0  0  0  0  0  0
   -1.3098   26.4497  -27.8528 H   0  0  0  0  0  0  0  0  0  0  0  0
   -0.6859   24.7750  -28.0054 H   0  0  0  0  0  0  0  0  0  0  0  0
   -1.8066   23.3585  -29.8937 H   0  0  0  0  0  0  0  0  0  0  0  0
   -2.9584   23.5268  -28.5249 H   0  0  0  0  0  0  0  0  0  0  0  0
   -3.4555   23.5651  -31.4444 H   0  0  0  0  0  0  0  0  0  0  0  0
   -4.5894   23.2611  -30.0766 H   0  0  0  0  0  0  0  0  0  0  0  0
   -4.2380   25.8110  -29.7340 H   0  0  0  0  0  0  0  0  0  0  0  0
   -6.3540   25.8161  -30.1977 H   0  0  0  0  0  0  0  0  0  0  0  0
   -5.9323   25.6751  -31.9571 H   0  0  0  0  0  0  0  0  0  0  0  0
   -6.1070   23.5870  -33.0950 H   0  0  0  0  0  0  0  0  0  0  0  0
   -8.9717   22.3101  -31.6628 H   0  0  0  0  0  0  0  0  0  0  0  0
   -9.8121   19.9644  -31.7969 H   0  0  0  0  0  0  0  0  0  0  0  0
   -8.2778   18.1250  -32.5010 H   0  0  0  0  0  0  0  0  0  0  0  0
   -5.8954   18.6240  -33.0436 H   0  0  0  0  0  0  0  0  0  0  0  0
  1  2  1  0
  2  3  1  0
  3  4  1  0
  4  5  1  0
  5  6  1  0
  6  7  1  0
  7  8  1  0
  8  9  2  0
  8 10  1  0
 10 11  1  0
 11 12  2  0
 12 13  1  0
 13 14  2  0
 14 15  1  0
 15 16  2  0
 16 17  1  0
 16 11  1  0
  1 18  1  0
  1 19  1  0
  1 20  1  0
  2 21  1  0
  2 22  1  0
  4 23  1  0
  4 24  1  0
  5 25  1  0
  5 26  1  0
  6 27  1  0
  7 28  1  0
  7 29  1  0
 10 30  1  0
 12 31  1  0
 13 32  1  0
 14 33  1  0
 15 34  1  0
M  END
>  <UniqueID>  (19) 
19

>  <SMILES>  (19) 
CCOCCNCC(=O)Nc1ccccc1Br

>  <Energy>  (19) 
32.09997533714122

>  <Genealogy>  (19) 
CCOCCNCC(=O)Nc1ccccc1Br (3D coordinates assigned)
CCOCCNCC(=O)Nc1ccccc1Br (optimized conformer: 32.09997533714122 kcal/mol)

>  <smiles>  (19) 
CCOCCNCC(=O)Nc1ccccc1Br

>  <score_type>  (19) 
oracle

>  <origin>  (19) 
adg

>  <m_score__min__energy>  (19) 
-7.6200000000000001

>  <m_primary>  (19) 
energy

$$$$
19:0
     RDKit          3D

 51 52  0  0  0  0  0  0  0  0999 V2000
  -10.2234   20.7293  -32.1228 H   0  0  0  0  0  0  0  0  0  0  0  0
   -9.1480   20.9160  -31.9860 C   0  0  0  0  0  0  0  0  0  0  0  0
   -8.7810   22.0950  -31.4630 C   0  0  0  0  0  0  0  0  0  0  0  0
   -8.9417   22.9990  -32.0688 H   0  0  0  0  0  0  0  0  0  0  0  0
   -8.1600   22.2620  -30.0930 C   0  0  0  0  0  0  0  0  0  0  0  0
   -8.1143   21.2799  -29.5996 H   0  0  0  0  0  0  0  0  0  0  0  0
   -8.7817   22.9626  -29.5162 H   0  0  0  0  0  0  0  0  0  0  0  0
   -6.7900   22.8210  -30.1800 N   0  0  0  0  0  0  0  0  0  0  0  0
   -6.2880   22.5810  -29.2900 H   0  0  0  0  0  0  0  0  0  0  0  0
   -6.0470   22.2380  -31.3330 C   0  0  0  0  0  0  0  0  0  0  0  0
   -6.7687   21.9947  -32.1267 H   0  0  0  0  0  0  0  0  0  0  0  0
   -5.5207   21.3452  -30.9643 H   0  0  0  0  0  0  0  0  0  0  0  0
   -4.9790   23.1920  -31.9160 C   0  0  0  0  0  0  0  0  0  0  0  0
   -5.4470   23.8116  -32.6952 H   0  0  0  0  0  0  0  0  0  0  0  0
   -4.1661   22.5739  -32.3249 H   0  0  0  0  0  0  0  0  0  0  0  0
   -4.3950   24.0810  -30.8910 N   0  0  0  0  0  0  0  0  0  0  0  0
   -3.4980   23.3790  -29.9380 C   0  0  0  0  0  0  0  0  0  0  0  0
   -2.6051   23.0318  -30.4786 H   0  0  0  0  0  0  0  0  0  0  0  0
   -4.0516   22.5321  -29.5064 H   0  0  0  0  0  0  0  0  0  0  0  0
   -3.0580   24.2990  -28.7890 C   0  0  0  0  0  0  0  0  0  0  0  0
   -2.5410   23.7026  -28.0228 H   0  0  0  0  0  0  0  0  0  0  0  0
   -3.9456   24.7801  -28.3524 H   0  0  0  0  0  0  0  0  0  0  0  0
   -2.1820   25.2970  -29.2750 O   0  0  0  0  0  0  0  0  0  0  0  0
   -1.2290   25.6430  -28.2880 C   0  0  0  0  0  0  0  0  0  0  0  0
   -0.9890   26.7130  -28.3747 H   0  0  0  0  0  0  0  0  0  0  0  0
   -0.3217   25.0398  -28.4396 H   0  0  0  0  0  0  0  0  0  0  0  0
   -1.7840   25.3630  -26.8950 C   0  0  0  0  0  0  0  0  0  0  0  0
   -1.0718   25.7223  -26.1375 H   0  0  0  0  0  0  0  0  0  0  0  0
   -2.7447   25.8843  -26.7715 H   0  0  0  0  0  0  0  0  0  0  0  0
   -1.9356   24.2805  -26.7715 H   0  0  0  0  0  0  0  0  0  0  0  0
   -5.4310   24.9050  -30.2140 C   0  0  0  0  0  0  0  0  0  0  0  0
   -5.4590   25.8931  -30.6966 H   0  0  0  0  0  0  0  0  0  0  0  0
   -5.1511   24.9647  -29.1519 H   0  0  0  0  0  0  0  0  0  0  0  0
   -6.8490   24.2920  -30.2740 C   0  0  0  0  0  0  0  0  0  0  0  0
   -7.3233   24.5735  -31.2258 H   0  0  0  0  0  0  0  0  0  0  0  0
   -7.4343   24.6756  -29.4253 H   0  0  0  0  0  0  0  0  0  0  0  0
   -8.2090   19.8510  -32.3910 C   0  0  0  0  0  0  0  0  0  0  0  0
   -7.2380   20.1160  -33.3670 C   0  0  0  0  0  0  0  0  0  0  0  0
   -7.1470   21.1286  -33.7870 H   0  0  0  0  0  0  0  0  0  0  0  0
   -6.3840   19.1000  -33.8100 C   0  0  0  0  0  0  0  0  0  0  0  0
   -5.6200   19.3186  -34.5706 H   0  0  0  0  0  0  0  0  0  0  0  0
   -6.5000   17.7960  -33.2840 C   0  0  0  0  0  0  0  0  0  0  0  0
   -5.6750   16.7400  -33.7020 O   0  0  0  0  0  0  0  0  0  0  0  0
   -4.5360   16.8920  -34.5460 C   0  0  0  0  0  0  0  0  0  0  0  0
   -3.6345   17.0123  -33.9272 H   0  0  0  0  0  0  0  0  0  0  0  0
   -4.4285   16.0002  -35.1810 H   0  0  0  0  0  0  0  0  0  0  0  0
   -4.6661   17.7807  -35.1810 H   0  0  0  0  0  0  0  0  0  0  0  0
   -7.4830   17.5330  -32.3220 C   0  0  0  0  0  0  0  0  0  0  0  0
   -7.5826   16.5190  -31.9073 H   0  0  0  0  0  0  0  0  0  0  0  0
   -8.3390   18.5480  -31.8840 C   0  0  0  0  0  0  0  0  0  0  0  0
   -9.1173   18.3250  -31.1394 H   0  0  0  0  0  0  0  0  0  0  0  0
  1  2  1  0
  2  3  2  0
  3  4  1  0
  3  5  1  0
  5  6  1  0
  5  7  1  0
  5  8  1  0
  8  9  1  0
  8 10  1  0
 10 11  1  0
 10 12  1  0
 10 13  1  0
 13 14  1  0
 13 15  1  0
 13 16  1  0
 16 17  1  0
 17 18  1  0
 17 19  1  0
 17 20  1  0
 20 21  1  0
 20 22  1  0
 20 23  1  0
 23 24  1  0
 24 25  1  0
 24 26  1  0
 24 27  1  0
 27 28  1  0
 27 29  1  0
 27 30  1  0
 16 31  1  0
 31 32  1  0
 31 33  1  0
 31 34  1  0
 34 35  1  0
 34 36  1  0
  2 37  1  0
 37 38  2  0
 38 39  1  0
 38 40  1  0
 40 41  1  0
 40 42  2  0
 42 43  1  0
 43 44  1  0
 44 45  1  0
 44 46  1  0
 44 47  1  0
 42 48  1  0
 48 49  1  0
 48 50  2  0
 50 51  1  0
 34  8  1  0
 50 37  1  0
M  CHG  1   8   1
M  END
>  <UniqueID>  (20) 
20

>  <SMILES>  (20) 
CCOCCN1CC[NH+](C/C=C\c2ccc(OC)cc2)CC1

>  <Energy>  (20) 
68.82965892806298

>  <Genealogy>  (20) 
CCOCCN1CC[NH+](CC=Cc2ccc(OC)cc2)CC1 (protonated)
CCOCCN1CC[NH+](C/C=C\c2ccc(OC)cc2)CC1 (cis-trans isomerization)
CCOCCN1CC[NH+](C/C=C\c2ccc(OC)cc2)CC1 (3D coordinates assigned)
CCOCCN1CC[NH+](C/C=C\c2ccc(OC)cc2)CC1 (nonaromatic ring conformer: 68.82965892806298 kcal/mol)

>  <smiles>  (20) 
CCOCCN1CCN(CC=Cc2ccc(OC)cc2)CC1

>  <score_type>  (20) 
oracle

>  <origin>  (20) 
adg

>  <m_score__min__energy>  (20) 
-7.4199999999999999

>  <m_primary>  (20) 
energy

$$$$
20:0
     RDKit          3D

 39 41  0  0  1  0  0  0  0  0999 V2000
   -9.0670   19.0720  -31.6010 C   0  0  0  0  0  0  0  0  0  0  0  0
   -8.0710   18.7200  -32.6200 N   0  0  0  0  0  0  0  0  0  0  0  0
   -7.0640   17.9370  -31.9040 C   0  0  0  0  0  0  0  0  0  0  0  0
   -7.4880   19.9470  -33.1400 C   0  0  0  0  0  0  0  0  0  0  0  0
   -7.8460   21.1710  -32.3290 C   0  0  0  0  0  0  0  0  0  0  0  0
   -6.6380   21.9330  -31.9960 N   0  0  0  0  0  0  0  0  0  0  0  0
   -5.4250   21.5570  -32.4310 C   0  0  0  0  0  0  0  0  0  0  0  0
   -4.5720   22.4700  -31.9320 N   0  0  0  0  0  0  0  0  0  0  0  0
   -5.2090   23.3880  -31.2130 C   0  0  0  0  0  0  0  0  0  0  0  0
   -4.7580   24.5110  -30.5130 C   0  0  0  0  0  0  0  0  0  0  0  0
   -3.5130   24.8190  -30.4740 N   0  0  0  0  0  0  0  0  0  0  0  0
   -2.6260   23.9900  -29.6820 C   0  0  0  0  0  0  0  0  0  0  0  0
   -1.9110   24.9120  -28.7370 C   0  0  0  0  0  0  0  0  0  0  0  0
   -1.7300   24.6060  -27.4190 C   0  0  0  0  0  0  0  0  0  0  0  0
   -1.0470   25.6550  -26.8460 C   0  0  0  0  0  0  0  0  0  0  0  0
   -0.8440   26.5590  -27.8580 C   0  0  0  0  0  0  0  0  0  0  0  0
   -1.3740   26.0750  -28.9600 O   0  0  0  0  0  0  0  0  0  0  0  0
   -5.7060   25.2500  -29.8710 N   0  0  0  0  0  0  0  0  0  0  0  0
   -7.0230   24.8910  -29.9230 C   0  0  0  0  0  0  0  0  0  0  0  0
   -7.4400   23.8060  -30.6010 N   0  0  0  0  0  0  0  0  0  0  0  0
   -6.5440   23.0460  -31.2500 C   0  0  0  0  0  0  0  0  0  0  0  0
   -8.6370   18.9200  -30.6000 H   0  0  0  0  0  0  0  0  0  0  0  0
   -9.3560   20.1267  -31.7196 H   0  0  0  0  0  0  0  0  0  0  0  0
   -9.9545   18.4331  -31.7196 H   0  0  0  0  0  0  0  0  0  0  0  0
   -7.2123   18.0523  -30.8202 H   0  0  0  0  0  0  0  0  0  0  0  0
   -7.1625   16.8759  -32.1767 H   0  0  0  0  0  0  0  0  0  0  0  0
   -6.0599   18.2940  -32.1767 H   0  0  0  0  0  0  0  0  0  0  0  0
   -6.3933   19.8389  -33.1438 H   0  0  0  0  0  0  0  0  0  0  0  0
   -7.8939   20.0968  -34.1513 H   0  0  0  0  0  0  0  0  0  0  0  0
   -8.5266   21.8073  -32.9138 H   0  0  0  0  0  0  0  0  0  0  0  0
   -8.3355   20.8518  -31.3971 H   0  0  0  0  0  0  0  0  0  0  0  0
   -5.1808   20.6886  -33.0605 H   0  0  0  0  0  0  0  0  0  0  0  0
   -3.2054   23.2435  -29.1190 H   0  0  0  0  0  0  0  0  0  0  0  0
   -1.9149   23.4454  -30.3206 H   0  0  0  0  0  0  0  0  0  0  0  0
   -2.0672   23.6913  -26.9095 H   0  0  0  0  0  0  0  0  0  0  0  0
   -0.7304   25.7488  -25.7967 H   0  0  0  0  0  0  0  0  0  0  0  0
   -0.3259   27.5247  -27.7636 H   0  0  0  0  0  0  0  0  0  0  0  0
   -5.4180   26.0940  -29.3390 H   0  0  0  0  0  0  0  0  0  0  0  0
   -7.7651   25.5075  -29.3946 H   0  0  0  0  0  0  0  0  0  0  0  0
  1  2  1  0
  2  3  1  0
  2  4  1  0
  4  5  1  0
  5  6  1  0
  6  7  1  0
  7  8  2  0
  8  9  1  0
  9 10  1  0
 10 11  2  0
 11 12  1  0
 12 13  1  0
 13 14  2  0
 14 15  1  0
 15 16  2  0
 16 17  1  0
 10 18  1  0
 18 19  1  0
 19 20  2  0
 20 21  1  0
 21  6  1  0
 21  9  2  0
 17 13  1  0
  1 22  1  0
  1 23  1  0
  1 24  1  0
  3 25  1  0
  3 26  1  0
  3 27  1  0
  4 28  1  0
  4 29  1  0
  5 30  1  0
  5 31  1  0
  7 32  1  0
 12 33  1  0
 12 34  1  0
 14 35  1  0
 15 36  1  0
 16 37  1  0
 18 38  1  0
 19 39  1  0
M  END
>  <smiles>  (21) 
CN(C)CCn1cnc2c(=NCc3ccco3)[nH]cnc21

>  <score_type>  (21) 
oracle

>  <origin>  (21) 
adg

>  <m_score__min__energy>  (21) 
-7.5099999999999998

>  <m_primary>  (21) 
energy

$$$$
21:0
     RDKit          3D

 60 63  0  0  0  0  0  0  0  0999 V2000
   -4.4700   20.7760  -32.2660 C   0  0  0  0  0  0  0  0  0  0  0  0
   -5.1070   19.8300  -32.6570 C   0  0  0  0  0  0  0  0  0  0  0  0
   -5.8950   18.6710  -33.1400 C   0  0  1  0  0  0  0  0  0  0  0  0
   -7.2410   18.8500  -32.7480 O   0  0  0  0  0  0  0  0  0  0  0  0
   -5.8410   18.5510  -34.6650 C   0  0  0  0  0  0  0  0  0  0  0  0
   -6.1690   17.0910  -34.9750 C   0  0  0  0  0  0  0  0  0  0  0  0
   -6.0010   16.3070  -33.6610 C   0  0  1  0  0  0  0  0  0  0  0  0
   -5.2430   15.0020  -33.8610 C   0  0  0  0  0  0  0  0  0  0  0  0
   -3.8920   14.9550  -33.7590 C   0  0  0  0  0  0  0  0  0  0  0  0
   -3.1480   16.2780  -33.6520 C   0  0  1  0  0  0  0  0  0  0  0  0
   -3.1730   16.9180  -34.9180 O   0  0  0  0  0  0  0  0  0  0  0  0
   -1.8870   17.3520  -35.3210 C   0  0  0  0  0  0  0  0  0  0  0  0
   -1.2200   17.9360  -34.2210 O   0  0  0  0  0  0  0  0  0  0  0  0
   -1.4720   19.3230  -34.2010 C   0  0  0  0  0  0  0  0  0  0  0  0
   -3.7960   17.1660  -32.5710 C   0  0  0  0  0  0  0  0  0  0  0  0
   -5.3740   17.2850  -32.6270 C   0  0  1  0  0  0  0  0  0  0  0  0
   -5.9230   16.9900  -31.2040 C   0  0  0  0  0  0  0  0  0  0  0  0
   -3.1010   13.6220  -33.8650 C   0  0  1  0  0  0  0  0  0  0  0  0
   -2.2190   13.6910  -35.1340 C   0  0  0  0  0  0  0  0  0  0  0  0
   -2.1680   13.4270  -32.6370 C   0  0  0  0  0  0  0  0  0  0  0  0
   -2.9410   13.3880  -31.3080 C   0  0  0  0  0  0  0  0  0  0  0  0
   -4.2590   12.5820  -31.3710 C   0  0  1  0  0  0  0  0  0  0  0  0
   -5.3560   13.4560  -31.3540 O   0  0  0  0  0  0  0  0  0  0  0  0
   -4.3290   11.6530  -32.5970 C   0  0  0  0  0  0  0  0  0  0  0  0
   -4.0220   12.3430  -33.9640 C   0  0  1  0  0  0  0  0  0  0  0  0
   -5.2910   12.6080  -34.7810 C   0  0  0  0  0  0  0  0  0  0  0  0
   -6.0080   13.7990  -34.2550 C   0  0  0  0  0  0  0  0  0  0  0  0
   -7.2680   13.7950  -34.2190 O   0  0  0  0  0  0  0  0  0  0  0  0
   -3.8888   21.6391  -31.9093 H   0  0  0  0  0  0  0  0  0  0  0  0
   -7.7900   18.9990  -33.5640 H   0  0  0  0  0  0  0  0  0  0  0  0
   -6.5826   19.2179  -35.1290 H   0  0  0  0  0  0  0  0  0  0  0  0
   -4.8562   18.8395  -35.0610 H   0  0  0  0  0  0  0  0  0  0  0  0
   -7.2039   17.0044  -35.3376 H   0  0  0  0  0  0  0  0  0  0  0  0
   -5.5047   16.6955  -35.7575 H   0  0  0  0  0  0  0  0  0  0  0  0
   -6.9698   15.9633  -33.2694 H   0  0  0  0  0  0  0  0  0  0  0  0
   -2.1032   16.1004  -33.3573 H   0  0  0  0  0  0  0  0  0  0  0  0
   -1.3075   16.4913  -35.6862 H   0  0  0  0  0  0  0  0  0  0  0  0
   -1.9868   18.0954  -36.1256 H   0  0  0  0  0  0  0  0  0  0  0  0
   -1.5349   19.6692  -33.1588 H   0  0  0  0  0  0  0  0  0  0  0  0
   -0.6552   19.8515  -34.7143 H   0  0  0  0  0  0  0  0  0  0  0  0
   -2.4225   19.5304  -34.7143 H   0  0  0  0  0  0  0  0  0  0  0  0
   -3.5240   16.7532  -31.5884 H   0  0  0  0  0  0  0  0  0  0  0  0
   -3.4147   18.1817  -32.7528 H   0  0  0  0  0  0  0  0  0  0  0  0
   -5.2158   17.3700  -30.4521 H   0  0  0  0  0  0  0  0  0  0  0  0
   -6.8961   17.4867  -31.0762 H   0  0  0  0  0  0  0  0  0  0  0  0
   -6.0459   15.9044  -31.0762 H   0  0  0  0  0  0  0  0  0  0  0  0
   -1.1618   13.7737  -34.8417 H   0  0  0  0  0  0  0  0  0  0  0  0
   -2.3640   12.7788  -35.7313 H   0  0  0  0  0  0  0  0  0  0  0  0
   -2.5041   14.5696  -35.7313 H   0  0  0  0  0  0  0  0  0  0  0  0
   -1.6229   12.4790  -32.7556 H   0  0  0  0  0  0  0  0  0  0  0  0
   -1.4827   14.2866  -32.5991 H   0  0  0  0  0  0  0  0  0  0  0  0
   -2.2933   12.9329  -30.5442 H   0  0  0  0  0  0  0  0  0  0  0  0
   -3.2138   14.4262  -31.0677 H   0  0  0  0  0  0  0  0  0  0  0  0
   -4.2888   11.9349  -30.4820 H   0  0  0  0  0  0  0  0  0  0  0  0
   -5.5180   13.7020  -30.4050 H   0  0  0  0  0  0  0  0  0  0  0  0
   -3.6005   10.8415  -32.4527 H   0  0  0  0  0  0  0  0  0  0  0  0
   -5.3689   11.2995  -32.6569 H   0  0  0  0  0  0  0  0  0  0  0  0
   -3.4203   11.6057  -34.5157 H   0  0  0  0  0  0  0  0  0  0  0  0
   -5.0153   12.7856  -35.8310 H   0  0  0  0  0  0  0  0  0  0  0  0
   -5.9523   11.7322  -34.7062 H   0  0  0  0  0  0  0  0  0  0  0  0
  1  2  3  0
  3  2  1  1
  3  4  1  0
  3  5  1  0
  5  6  1  0
  6  7  1  0
  7  8  1  0
  8  9  2  0
  9 10  1  0
 10 11  1  0
 11 12  1  0
 12 13  1  0
 13 14  1  0
 10 15  1  0
 15 16  1  0
 16 17  1  1
  9 18  1  0
 18 19  1  6
 18 20  1  0
 20 21  1  0
 21 22  1  0
 22 23  1  0
 22 24  1  0
 24 25  1  0
 25 26  1  0
 26 27  1  0
 27 28  2  0
 16  3  1  0
 25 18  1  0
 16  7  1  0
 27  8  1  0
  1 29  1  0
  4 30  1  0
  5 31  1  0
  5 32  1  0
  6 33  1  0
  6 34  1  0
  7 35  1  1
 10 36  1  1
 12 37  1  0
 12 38  1  0
 14 39  1  0
 14 40  1  0
 14 41  1  0
 15 42  1  0
 15 43  1  0
 17 44  1  0
 17 45  1  0
 17 46  1  0
 19 47  1  0
 19 48  1  0
 19 49  1  0
 20 50  1  0
 20 51  1  0
 21 52  1  0
 21 53  1  0
 22 54  1  1
 23 55  1  0
 24 56  1  0
 24 57  1  0
 25 58  1  6
 26 59  1  0
 26 60  1  0
M  END
>  <UniqueID>  (22) 
21

>  <SMILES>  (22) 
C#C[C@@]1(O)CC[C@H]2C3=C(C(OCOC)CC21C)C1(C)CCC(O)CC1CC3=O

>  <Energy>  (22) 
92.26462481025153

>  <Genealogy>  (22) 
C#C[C@@]1(O)CC[C@H]2C3=C(C(OCOC)CC21C)C1(C)CCC(O)CC1CC3=O (chirality)
C#C[C@@]1(O)CC[C@H]2C3=C(C(OCOC)CC21C)C1(C)CCC(O)CC1CC3=O (3D coordinates assigned)
C#C[C@@]1(O)CC[C@H]2C3=C(C(OCOC)CC21C)C1(C)CCC(O)CC1CC3=O (nonaromatic ring conformer: 92.26462481025153 kcal/mol)

>  <smiles>  (22) 
C#CC1(O)CCC2C3=C(C(OCOC)CC21C)C1(C)CCC(O)CC1CC3=O

>  <score_type>  (22) 
oracle

>  <origin>  (22) 
adg

>  <m_score__min__energy>  (22) 
-7.0099999999999998

>  <m_primary>  (22) 
energy

$$$$
22:0
     RDKit          3D

 37 37  0  0  0  0  0  0  0  0999 V2000
   -7.1540   15.9180  -34.3100 N   0  0  0  0  0  0  0  0  0  0  0  0
   -6.8570   16.8380  -33.6740 C   0  0  0  0  0  0  0  0  0  0  0  0
   -6.4750   18.0140  -32.8630 C   0  0  2  0  0  0  0  0  0  0  0  0
   -7.0170   17.8710  -31.4420 C   0  0  0  0  0  0  0  0  0  0  0  0
   -8.2950   18.6960  -31.4090 C   0  0  0  0  0  0  0  0  0  0  0  0
   -8.3510   19.4390  -32.7420 C   0  0  0  0  0  0  0  0  0  0  0  0
   -7.0580   19.2490  -33.4250 N   0  0  1  0  0  0  0  0  0  0  0  0
   -6.1780   20.3860  -33.1960 C   0  0  0  0  0  0  0  0  0  0  0  0
   -6.6350   21.4540  -32.8100 O   0  0  0  0  0  0  0  0  0  0  0  0
   -4.6910   20.2730  -33.4170 C   0  0  0  0  0  0  0  0  0  0  0  0
   -4.0820   21.6080  -33.4540 N   0  0  0  0  0  0  0  0  0  0  0  0
   -3.3250   21.8820  -32.2220 C   0  0  0  0  0  0  0  0  0  0  0  0
   -4.1230   22.8010  -31.2790 C   0  0  0  0  0  0  0  0  0  0  0  0
   -5.0390   23.7210  -31.9740 N   0  0  0  0  0  0  0  0  0  0  0  0
   -6.1120   24.2180  -31.1010 C   0  0  0  0  0  0  0  0  0  0  0  0
   -5.5240   25.0920  -29.9950 C   0  0  0  0  0  0  0  0  0  0  0  0
   -6.4470   26.0530  -29.6270 F   0  0  0  0  0  0  0  0  0  0  0  0
   -5.2170   24.3160  -28.8930 F   0  0  0  0  0  0  0  0  0  0  0  0
   -4.3760   25.7200  -30.4450 F   0  0  0  0  0  0  0  0  0  0  0  0
   -5.3765   18.0714  -32.8644 H   0  0  0  0  0  0  0  0  0  0  0  0
   -7.2345   16.8163  -31.2179 H   0  0  0  0  0  0  0  0  0  0  0  0
   -6.2900   18.2149  -30.6916 H   0  0  0  0  0  0  0  0  0  0  0  0
   -9.1709   18.0396  -31.3002 H   0  0  0  0  0  0  0  0  0  0  0  0
   -8.3024   19.3934  -30.5584 H   0  0  0  0  0  0  0  0  0  0  0  0
   -9.1638   19.0326  -33.3619 H   0  0  0  0  0  0  0  0  0  0  0  0
   -8.5408   20.5095  -32.5748 H   0  0  0  0  0  0  0  0  0  0  0  0
   -7.2290   19.1520  -34.4540 H   0  0  0  0  0  0  0  0  0  0  0  0
   -4.2446   19.6924  -32.5962 H   0  0  0  0  0  0  0  0  0  0  0  0
   -4.5078   19.7678  -34.3768 H   0  0  0  0  0  0  0  0  0  0  0  0
   -4.8650   22.3010  -33.5050 H   0  0  0  0  0  0  0  0  0  0  0  0
   -3.1174   20.9318  -31.7082 H   0  0  0  0  0  0  0  0  0  0  0  0
   -2.3855   22.3864  -32.4919 H   0  0  0  0  0  0  0  0  0  0  0  0
   -4.7155   22.1699  -30.6003 H   0  0  0  0  0  0  0  0  0  0  0  0
   -3.3899   23.4239  -30.7456 H   0  0  0  0  0  0  0  0  0  0  0  0
   -5.4560   23.2470  -32.8080 H   0  0  0  0  0  0  0  0  0  0  0  0
   -6.8204   24.8123  -31.6969 H   0  0  0  0  0  0  0  0  0  0  0  0
   -6.6325   23.3623  -30.6462 H   0  0  0  0  0  0  0  0  0  0  0  0
  1  2  3  0
  2  3  1  0
  3  4  1  0
  4  5  1  0
  5  6  1  0
  6  7  1  0
  7  8  1  0
  8  9  2  0
  8 10  1  0
 10 11  1  0
 11 12  1  0
 12 13  1  0
 13 14  1  0
 14 15  1  0
 15 16  1  0
 16 17  1  0
 16 18  1  0
 16 19  1  0
  7  3  1  0
  3 20  1  1
  4 21  1  0
  4 22  1  0
  5 23  1  0
  5 24  1  0
  6 25  1  0
  6 26  1  0
  7 27  1  6
 10 28  1  0
 10 29  1  0
 11 30  1  0
 12 31  1  0
 12 32  1  0
 13 33  1  0
 13 34  1  0
 14 35  1  0
 15 36  1  0
 15 37  1  0
M  CHG  1   7   1
M  END
>  <UniqueID>  (23) 
22

>  <SMILES>  (23) 
N#C[C@@H]1CCC[N@H+]1C(=O)CNCCNCC(F)(F)F

>  <Energy>  (23) 
33.05143421188168

>  <Genealogy>  (23) 
N#CC1CCC[NH+]1C(=O)CNCCNCC(F)(F)F (protonated)
N#C[C@@H]1CCC[N@H+]1C(=O)CNCCNCC(F)(F)F (chirality)
N#C[C@@H]1CCC[N@H+]1C(=O)CNCCNCC(F)(F)F (3D coordinates assigned)
N#C[C@@H]1CCC[N@H+]1C(=O)CNCCNCC(F)(F)F (nonaromatic ring conformer: 33.05143421188168 kcal/mol)

>  <smiles>  (23) 
N#CC1CCCN1C(=O)CNCCNCC(F)(F)F

>  <score_type>  (23) 
oracle

>  <origin>  (23) 
adg

>  <m_score__min__energy>  (23) 
-5.0099999999999998

>  <m_primary>  (23) 
energy

$$$$
23:0
     RDKit          3D

 54 58  0  0  0  0  0  0  0  0999 V2000
   -5.2990   15.5940  -33.4870 C   0  0  0  0  0  0  0  0  0  0  0  0
   -4.6310   16.8760  -33.9770 C   0  0  0  0  0  0  0  0  0  0  0  0
   -5.4360   18.1040  -33.6360 C   0  0  0  0  0  0  0  0  0  0  0  0
   -6.7600   18.0470  -33.3210 N   0  0  0  0  0  0  0  0  0  0  0  0
   -7.0510   19.3160  -32.9820 C   0  0  0  0  0  0  0  0  0  0  0  0
   -8.2670   19.8340  -32.5360 C   0  0  0  0  0  0  0  0  0  0  0  0
   -9.4780   18.9650  -32.3760 C   0  0  0  0  0  0  0  0  0  0  0  0
   -8.2840   21.1950  -32.1650 C   0  0  0  0  0  0  0  0  0  0  0  0
   -7.1090   21.9790  -32.2820 C   0  0  0  0  0  0  0  0  0  0  0  0
   -7.1240   23.4130  -31.8470 C   0  0  0  0  0  0  0  0  0  0  0  0
   -5.9410   21.4080  -32.7210 N   0  0  0  0  0  0  0  0  0  0  0  0
   -5.9410   20.0950  -33.0710 C   0  0  0  0  0  0  0  0  0  0  0  0
   -4.9000   19.3500  -33.4870 N   0  0  0  0  0  0  0  0  0  0  0  0
   -3.4930   19.7460  -33.6040 C   0  0  0  0  0  0  0  0  0  0  0  0
   -3.0450   20.4500  -32.3510 C   0  0  0  0  0  0  0  0  0  0  0  0
   -2.0960   21.4810  -32.4240 C   0  0  0  0  0  0  0  0  0  0  0  0
   -1.7210   22.1790  -31.2730 C   0  0  0  0  0  0  0  0  0  0  0  0
   -2.2990   21.8610  -30.0340 C   0  0  0  0  0  0  0  0  0  0  0  0
   -1.9200   22.6130  -28.8200 C   0  0  0  0  0  0  0  0  0  0  0  0
   -0.8670   22.1140  -28.0330 C   0  0  0  0  0  0  0  0  0  0  0  0
   -0.5190   22.7370  -26.8340 C   0  0  0  0  0  0  0  0  0  0  0  0
   -1.2180   23.8630  -26.4040 C   0  0  0  0  0  0  0  0  0  0  0  0
   -2.2570   24.3820  -27.1780 C   0  0  0  0  0  0  0  0  0  0  0  0
   -2.6140   23.7810  -28.4000 C   0  0  0  0  0  0  0  0  0  0  0  0
   -3.6740   24.4210  -29.2190 C   0  0  0  0  0  0  0  0  0  0  0  0
   -3.4900   24.8760  -30.4740 N   0  0  0  0  0  0  0  0  0  0  0  0
   -4.6760   25.3250  -30.8500 N   0  0  0  0  0  0  0  0  0  0  0  0
   -5.5520   25.1450  -29.8740 N   0  0  0  0  0  0  0  0  0  0  0  0
   -4.9570   24.5750  -28.8400 N   0  0  0  0  0  0  0  0  0  0  0  0
   -3.2280   20.8110  -29.9560 C   0  0  0  0  0  0  0  0  0  0  0  0
   -3.6020   20.1140  -31.1070 C   0  0  0  0  0  0  0  0  0  0  0  0
   -5.3056   15.5813  -32.3871 H   0  0  0  0  0  0  0  0  0  0  0  0
   -6.3329   15.5534  -33.8604 H   0  0  0  0  0  0  0  0  0  0  0  0
   -4.7399   14.7234  -33.8604 H   0  0  0  0  0  0  0  0  0  0  0  0
   -3.6398   16.9606  -33.5076 H   0  0  0  0  0  0  0  0  0  0  0  0
   -4.5516   16.8178  -35.0726 H   0  0  0  0  0  0  0  0  0  0  0  0
   -9.6843   18.8170  -31.3057 H   0  0  0  0  0  0  0  0  0  0  0  0
  -10.3428   19.4499  -32.8524 H   0  0  0  0  0  0  0  0  0  0  0  0
   -9.2955   17.9905  -32.8524 H   0  0  0  0  0  0  0  0  0  0  0  0
   -9.2109   21.6486  -31.7842 H   0  0  0  0  0  0  0  0  0  0  0  0
   -7.1245   23.4628  -30.7481 H   0  0  0  0  0  0  0  0  0  0  0  0
   -6.2311   23.9238  -32.2368 H   0  0  0  0  0  0  0  0  0  0  0  0
   -8.0273   23.9050  -32.2368 H   0  0  0  0  0  0  0  0  0  0  0  0
   -5.0700   21.9800  -32.7750 H   0  0  0  0  0  0  0  0  0  0  0  0
   -2.8747   18.8493  -33.7577 H   0  0  0  0  0  0  0  0  0  0  0  0
   -3.3824   20.4295  -34.4587 H   0  0  0  0  0  0  0  0  0  0  0  0
   -1.6447   21.7413  -33.3928 H   0  0  0  0  0  0  0  0  0  0  0  0
   -0.9703   22.9804  -31.3381 H   0  0  0  0  0  0  0  0  0  0  0  0
   -0.3124   21.2242  -28.3657 H   0  0  0  0  0  0  0  0  0  0  0  0
    0.3079   22.3388  -26.2277 H   0  0  0  0  0  0  0  0  0  0  0  0
   -0.9502   24.3443  -25.4518 H   0  0  0  0  0  0  0  0  0  0  0  0
   -2.8032   25.2708  -26.8292 H   0  0  0  0  0  0  0  0  0  0  0  0
   -3.6632   20.5361  -28.9839 H   0  0  0  0  0  0  0  0  0  0  0  0
   -4.3364   19.2980  -31.0385 H   0  0  0  0  0  0  0  0  0  0  0  0
  1  2  1  0
  2  3  1  0
  3  4  2  0
  4  5  1  0
  5  6  2  0
  6  7  1  0
  6  8  1  0
  8  9  2  0
  9 10  1  0
  9 11  1  0
 11 12  2  0
 12 13  1  0
 13 14  1  0
 14 15  1  0
 15 16  2  0
 16 17  1  0
 17 18  2  0
 18 19  1  0
 19 20  2  0
 20 21  1  0
 21 22  2  0
 22 23  1  0
 23 24  2  0
 24 25  1  0
 25 26  1  0
 26 27  2  0
 27 28  1  0
 28 29  1  0
 18 30  1  0
 30 31  2  0
 13  3  1  0
 31 15  1  0
 12  5  1  0
 24 19  1  0
 29 25  2  0
  1 32  1  0
  1 33  1  0
  1 34  1  0
  2 35  1  0
  2 36  1  0
  7 37  1  0
  7 38  1  0
  7 39  1  0
  8 40  1  0
 10 41  1  0
 10 42  1  0
 10 43  1  0
 11 44  1  0
 14 45  1  0
 14 46  1  0
 16 47  1  0
 17 48  1  0
 20 49  1  0
 21 50  1  0
 22 51  1  0
 23 52  1  0
 30 53  1  0
 31 54  1  0
M  CHG  2  11   1  28  -1
M  END
>  <UniqueID>  (24) 
23

>  <SMILES>  (24) 
CCc1nc2c(C)cc(C)[nH+]c2n1Cc1ccc(-c2ccccc2-c2nn[n-]n2)cc1

>  <Energy>  (24) 
141.0979571659425

>  <Genealogy>  (24) 
CCc1nc2c(C)cc(C)[nH+]c2n1Cc1ccc(-c2ccccc2-c2nn[n-]n2)cc1 (protonated)
CCc1nc2c(C)cc(C)[nH+]c2n1Cc1ccc(-c2ccccc2-c2nn[n-]n2)cc1 (3D coordinates assigned)
CCc1nc2c(C)cc(C)[nH+]c2n1Cc1ccc(-c2ccccc2-c2nn[n-]n2)cc1 (optimized conformer: 141.0979571659425 kcal/mol)

>  <smiles>  (24) 
CCc1nc2c(C)cc(C)nc2n1Cc1ccc(-c2ccccc2-c2nn[nH]n2)cc1

>  <score_type>  (24) 
oracle

>  <origin>  (24) 
adg

>  <m_score__min__energy>  (24) 
-11.02

>  <m_primary>  (24) 
energy

$$$$
24:0
     RDKit          3D

 51 55  0  0  0  0  0  0  0  0999 V2000
   -4.2600   24.4920  -30.8400 O   0  0  0  0  0  0  0  0  0  0  0  0
   -4.0440   23.5100  -30.0790 C   0  0  0  0  0  0  0  0  0  0  0  0
   -4.9900   22.4310  -29.9870 N   0  0  0  0  0  0  0  0  0  0  0  0
   -6.2480   22.4020  -30.6800 C   0  0  0  0  0  0  0  0  0  0  0  0
   -6.9410   23.6030  -30.8940 C   0  0  0  0  0  0  0  0  0  0  0  0
   -8.1510   23.6060  -31.5920 C   0  0  0  0  0  0  0  0  0  0  0  0
   -8.6740   22.4140  -32.0960 C   0  0  0  0  0  0  0  0  0  0  0  0
   -7.9890   21.2040  -31.9030 C   0  0  0  0  0  0  0  0  0  0  0  0
   -8.5190   19.9280  -32.4980 C   0  0  0  0  0  0  0  0  0  0  0  0
   -7.3820   19.0150  -32.8670 C   0  0  0  0  0  0  0  0  0  0  0  0
   -7.2420   17.7670  -32.2360 C   0  0  0  0  0  0  0  0  0  0  0  0
   -6.2060   16.9030  -32.6060 C   0  0  0  0  0  0  0  0  0  0  0  0
   -5.3100   17.2740  -33.6110 C   0  0  0  0  0  0  0  0  0  0  0  0
   -5.4490   18.5090  -34.2520 C   0  0  0  0  0  0  0  0  0  0  0  0
   -6.4830   19.3760  -33.8850 C   0  0  0  0  0  0  0  0  0  0  0  0
   -6.7660   21.2070  -31.2100 C   0  0  0  0  0  0  0  0  0  0  0  0
   -2.8100   23.4900  -29.2680 C   0  0  0  0  0  0  0  0  0  0  0  0
   -2.5880   24.5500  -28.3770 C   0  0  0  0  0  0  0  0  0  0  0  0
   -1.4580   24.5490  -27.5470 C   0  0  0  0  0  0  0  0  0  0  0  0
   -1.2090   25.6450  -26.5870 C   0  0  0  0  0  0  0  0  0  0  0  0
   -1.5450   25.6290  -25.2360 C   0  0  0  0  0  0  0  0  0  0  0  0
   -1.1920   26.8030  -24.5600 C   0  0  0  0  0  0  0  0  0  0  0  0
   -0.5760   27.7490  -25.3670 C   0  0  0  0  0  0  0  0  0  0  0  0
   -0.4730   27.1230  -26.9230 S   0  0  0  0  0  0  0  0  0  0  0  0
   -0.5760   23.5170  -27.6190 N   0  0  0  0  0  0  0  0  0  0  0  0
   -0.7400   22.4810  -28.4820 C   0  0  0  0  0  0  0  0  0  0  0  0
    0.2150   21.4580  -28.5210 C   0  0  0  0  0  0  0  0  0  0  0  0
    0.0780   20.4030  -29.4250 C   0  0  0  0  0  0  0  0  0  0  0  0
   -1.0090   20.3690  -30.3020 C   0  0  0  0  0  0  0  0  0  0  0  0
   -1.9720   21.3820  -30.2710 C   0  0  0  0  0  0  0  0  0  0  0  0
   -1.8630   22.4420  -29.3460 C   0  0  0  0  0  0  0  0  0  0  0  0
   -4.7170   21.5820  -29.4400 H   0  0  0  0  0  0  0  0  0  0  0  0
   -6.5291   24.5479  -30.5099 H   0  0  0  0  0  0  0  0  0  0  0  0
   -8.6934   24.5507  -31.7450 H   0  0  0  0  0  0  0  0  0  0  0  0
   -9.6264   22.4228  -32.6464 H   0  0  0  0  0  0  0  0  0  0  0  0
   -9.1648   19.4252  -31.7630 H   0  0  0  0  0  0  0  0  0  0  0  0
   -9.0957   20.1669  -33.4037 H   0  0  0  0  0  0  0  0  0  0  0  0
   -7.9496   17.4686  -31.4484 H   0  0  0  0  0  0  0  0  0  0  0  0
   -6.0969   15.9300  -32.1047 H   0  0  0  0  0  0  0  0  0  0  0  0
   -4.4944   16.5942  -33.8985 H   0  0  0  0  0  0  0  0  0  0  0  0
   -4.7445   18.7987  -35.0455 H   0  0  0  0  0  0  0  0  0  0  0  0
   -6.5931   20.3443  -34.3951 H   0  0  0  0  0  0  0  0  0  0  0  0
   -6.2096   20.2668  -31.0813 H   0  0  0  0  0  0  0  0  0  0  0  0
   -3.3027   25.3848  -28.3292 H   0  0  0  0  0  0  0  0  0  0  0  0
   -2.0397   24.7767  -24.7473 H   0  0  0  0  0  0  0  0  0  0  0  0
   -1.3850   26.9609  -23.4886 H   0  0  0  0  0  0  0  0  0  0  0  0
   -0.2173   28.7374  -25.0441 H   0  0  0  0  0  0  0  0  0  0  0  0
    1.0761   21.4856  -27.8371 H   0  0  0  0  0  0  0  0  0  0  0  0
    0.8268   19.5975  -29.4468 H   0  0  0  0  0  0  0  0  0  0  0  0
   -1.1076   19.5415  -31.0201 H   0  0  0  0  0  0  0  0  0  0  0  0
   -2.8195   21.3526  -30.9717 H   0  0  0  0  0  0  0  0  0  0  0  0
  1  2  2  0
  2  3  1  0
  3  4  1  0
  4  5  2  0
  5  6  1  0
  6  7  2  0
  7  8  1  0
  8  9  1  0
  9 10  1  0
 10 11  2  0
 11 12  1  0
 12 13  2  0
 13 14  1  0
 14 15  2  0
  8 16  2  0
  2 17  1  0
 17 18  2  0
 18 19  1  0
 19 20  1  0
 20 21  2  0
 21 22  1  0
 22 23  2  0
 23 24  1  0
 19 25  2  0
 25 26  1  0
 26 27  2  0
 27 28  1  0
 28 29  2  0
 29 30  1  0
 30 31  2  0
 16  4  1  0
 31 17  1  0
 15 10  1  0
 24 20  1  0
 31 26  1  0
  3 32  1  0
  5 33  1  0
  6 34  1  0
  7 35  1  0
  9 36  1  0
  9 37  1  0
 11 38  1  0
 12 39  1  0
 13 40  1  0
 14 41  1  0
 15 42  1  0
 16 43  1  0
 18 44  1  0
 21 45  1  0
 22 46  1  0
 23 47  1  0
 27 48  1  0
 28 49  1  0
 29 50  1  0
 30 51  1  0
M  END
>  <UniqueID>  (25) 
24

>  <SMILES>  (25) 
O=C(Nc1cccc(Cc2ccccc2)c1)c1cc(-c2cccs2)nc2ccccc12

>  <Energy>  (25) 
96.79133655981173

>  <Genealogy>  (25) 
O=C(Nc1cccc(Cc2ccccc2)c1)c1cc(-c2cccs2)nc2ccccc12 (3D coordinates assigned)
O=C(Nc1cccc(Cc2ccccc2)c1)c1cc(-c2cccs2)nc2ccccc12 (optimized conformer: 96.79133655981173 kcal/mol)

>  <smiles>  (25) 
O=C(Nc1cccc(Cc2ccccc2)c1)c1cc(-c2cccs2)nc2ccccc12

>  <score_type>  (25) 
oracle

>  <origin>  (25) 
adg

>  <m_score__min__energy>  (25) 
-10.34

>  <m_primary>  (25) 
energy

$$$$
25:0
     RDKit          3D

 51 52  0  0  1  0  0  0  0  0999 V2000
   -6.0960   18.2110  -31.6140 C   0  0  0  0  0  0  0  0  0  0  0  0
   -7.3220   18.9940  -31.9000 C   0  0  0  0  0  0  0  0  0  0  0  0
   -8.3230   19.6360  -32.1200 C   0  0  0  0  0  0  0  0  0  0  0  0
   -9.5320   20.4320  -32.3700 C   0  0  0  0  0  0  0  0  0  0  0  0
   -9.4960   21.6400  -31.6500 O   0  0  0  0  0  0  0  0  0  0  0  0
   -8.3150   22.3150  -31.3870 C   0  0  0  0  0  0  0  0  0  0  0  0
   -7.6290   23.0660  -32.2990 C   0  0  0  0  0  0  0  0  0  0  0  0
   -6.4590   23.6960  -31.9210 C   0  0  0  0  0  0  0  0  0  0  0  0
   -5.9370   23.6030  -30.6470 C   0  0  0  0  0  0  0  0  0  0  0  0
   -4.4310   24.4280  -30.2090 S   0  0  0  0  0  0  0  0  0  0  0  0
   -4.3500   24.4590  -28.7310 O   0  0  0  0  0  0  0  0  0  0  0  0
   -4.5520   25.7930  -30.8420 O   0  0  0  0  0  0  0  0  0  0  0  0
   -3.1220   23.4630  -30.9260 C   0  0  0  0  0  0  0  0  0  0  0  0
   -2.1090   22.9840  -29.9000 C   0  0  2  0  0  0  0  0  0  0  0  0
   -1.3080   24.1110  -29.3310 C   0  0  0  0  0  0  0  0  0  0  0  0
   -1.9900   25.3400  -29.2430 O   0  0  0  0  0  0  0  0  0  0  0  0
   -0.1220   24.0720  -28.9350 N   0  0  0  0  0  0  0  0  0  0  0  0
    0.4430   25.0360  -28.1660 O   0  0  0  0  0  0  0  0  0  0  0  0
   -1.1260   22.1150  -30.5820 C   0  0  0  0  0  0  0  0  0  0  0  0
   -0.6640   20.9720  -30.1340 C   0  0  0  0  0  0  0  0  0  0  0  0
   -1.1340   20.4970  -28.8790 N   0  0  0  0  0  0  0  0  0  0  0  0
   -0.1400   19.5200  -27.8730 S   0  0  0  0  0  0  0  0  0  0  0  0
    0.3300   18.0830  -28.8060 C   0  0  0  0  0  0  0  0  0  0  0  0
   -0.9250   19.0560  -26.6710 O   0  0  0  0  0  0  0  0  0  0  0  0
    1.1140   20.2240  -27.4680 O   0  0  0  0  0  0  0  0  0  0  0  0
   -2.4890   20.8890  -28.5170 C   0  0  0  0  0  0  0  0  0  0  0  0
   -2.7810   22.3330  -28.7250 C   0  0  0  0  0  0  0  0  0  0  0  0
   -6.6280   22.8470  -29.7330 C   0  0  0  0  0  0  0  0  0  0  0  0
   -7.8080   22.2090  -30.1060 C   0  0  0  0  0  0  0  0  0  0  0  0
   -5.9614   18.1250  -30.5257 H   0  0  0  0  0  0  0  0  0  0  0  0
   -6.1919   17.2066  -32.0521 H   0  0  0  0  0  0  0  0  0  0  0  0
   -5.2250   18.7204  -32.0521 H   0  0  0  0  0  0  0  0  0  0  0  0
   -9.6001   20.6554  -33.4449 H   0  0  0  0  0  0  0  0  0  0  0  0
  -10.4078   19.8532  -32.0414 H   0  0  0  0  0  0  0  0  0  0  0  0
   -8.0057   23.1684  -33.3274 H   0  0  0  0  0  0  0  0  0  0  0  0
   -5.9203   24.2977  -32.6678 H   0  0  0  0  0  0  0  0  0  0  0  0
   -3.5636   22.5847  -31.4195 H   0  0  0  0  0  0  0  0  0  0  0  0
   -2.5888   24.1090  -31.6390 H   0  0  0  0  0  0  0  0  0  0  0  0
   -2.6090   25.6670  -29.9810 H   0  0  0  0  0  0  0  0  0  0  0  0
   -0.1060   25.8380  -27.8990 H   0  0  0  0  0  0  0  0  0  0  0  0
   -0.7469   22.4591  -31.5556 H   0  0  0  0  0  0  0  0  0  0  0  0
    0.0698   20.3946  -30.7155 H   0  0  0  0  0  0  0  0  0  0  0  0
    0.5963   17.2688  -28.1160 H   0  0  0  0  0  0  0  0  0  0  0  0
   -0.5113   17.7660  -29.4398 H   0  0  0  0  0  0  0  0  0  0  0  0
    1.1960   18.3245  -29.4398 H   0  0  0  0  0  0  0  0  0  0  0  0
   -3.1924   20.3032  -29.1270 H   0  0  0  0  0  0  0  0  0  0  0  0
   -2.5972   20.6961  -27.4395 H   0  0  0  0  0  0  0  0  0  0  0  0
   -3.8676   22.4396  -28.8587 H   0  0  0  0  0  0  0  0  0  0  0  0
   -2.3810   22.8446  -27.8371 H   0  0  0  0  0  0  0  0  0  0  0  0
   -6.2492   22.7452  -28.7053 H   0  0  0  0  0  0  0  0  0  0  0  0
   -8.3499   21.6058  -29.3627 H   0  0  0  0  0  0  0  0  0  0  0  0
  1  2  1  0
  2  3  3  0
  3  4  1  0
  4  5  1  0
  5  6  1  0
  6  7  2  0
  7  8  1  0
  8  9  2  0
  9 10  1  0
 10 11  2  0
 10 12  2  0
 10 13  1  0
 14 13  1  6
 14 15  1  0
 15 16  1  0
 15 17  2  0
 17 18  1  0
 14 19  1  0
 19 20  2  0
 20 21  1  0
 21 22  1  0
 22 23  1  0
 22 24  2  0
 22 25  2  0
 21 26  1  0
 26 27  1  0
  9 28  1  0
 28 29  2  0
 29  6  1  0
 27 14  1  0
  1 30  1  0
  1 31  1  0
  1 32  1  0
  4 33  1  0
  4 34  1  0
  7 35  1  0
  8 36  1  0
 13 37  1  0
 13 38  1  0
 16 39  1  0
 18 40  1  0
 19 41  1  0
 20 42  1  0
 23 43  1  0
 23 44  1  0
 23 45  1  0
 26 46  1  0
 26 47  1  0
 27 48  1  0
 27 49  1  0
 28 50  1  0
 29 51  1  0
M  END
>  <smiles>  (26) 
CC#CCOc1ccc(S(=O)(=O)CC2(C(O)=NO)C=CN(S(C)(=O)=O)CC2)cc1

>  <score_type>  (26) 
oracle

>  <origin>  (26) 
adg

>  <m_score__min__energy>  (26) 
-10.300000000000001

>  <m_primary>  (26) 
energy

$$$$
26:0
     RDKit          3D

 62 65  0  0  0  0  0  0  0  0999 V2000
   -5.8180   25.6800  -30.0900 C   0  0  0  0  0  0  0  0  0  0  0  0
   -4.4510   25.4890  -30.4340 O   0  0  0  0  0  0  0  0  0  0  0  0
   -3.8060   24.2420  -30.4650 C   0  0  0  0  0  0  0  0  0  0  0  0
   -4.3870   23.1160  -31.0750 C   0  0  0  0  0  0  0  0  0  0  0  0
   -3.7260   21.8860  -31.0710 C   0  0  0  0  0  0  0  0  0  0  0  0
   -2.4710   21.7570  -30.4610 C   0  0  0  0  0  0  0  0  0  0  0  0
   -1.7390   20.4300  -30.4490 C   0  0  0  0  0  0  0  0  0  0  0  0
   -1.1010   20.0570  -31.7430 N   0  0  0  0  0  0  0  0  0  0  0  0
   -0.6200   18.6510  -31.7990 C   0  0  0  0  0  0  0  0  0  0  0  0
   -1.6640   17.6410  -32.3450 C   0  0  0  0  0  0  0  0  0  0  0  0
   -2.5780   18.1980  -33.3760 N   0  0  0  0  0  0  0  0  0  0  0  0
   -2.9190   17.1660  -34.3810 C   0  0  0  0  0  0  0  0  0  0  0  0
   -4.2300   17.4710  -35.1330 C   0  0  0  0  0  0  0  0  0  0  0  0
   -5.3480   17.7770  -34.2100 N   0  0  0  0  0  0  0  0  0  0  0  0
   -6.1970   16.7850  -33.7620 C   0  0  0  0  0  0  0  0  0  0  0  0
   -6.0880   15.3540  -34.2140 C   0  0  0  0  0  0  0  0  0  0  0  0
   -7.2280   17.0940  -32.9310 N   0  0  0  0  0  0  0  0  0  0  0  0
   -7.4580   18.3580  -32.5130 C   0  0  0  0  0  0  0  0  0  0  0  0
   -8.5280   18.6290  -31.6530 C   0  0  0  0  0  0  0  0  0  0  0  0
   -8.7620   19.9350  -31.2150 C   0  0  0  0  0  0  0  0  0  0  0  0
   -7.9310   20.9750  -31.6430 C   0  0  0  0  0  0  0  0  0  0  0  0
   -6.8650   20.7130  -32.5080 C   0  0  0  0  0  0  0  0  0  0  0  0
   -6.6200   19.3970  -32.9480 C   0  0  0  0  0  0  0  0  0  0  0  0
   -5.5570   19.0780  -33.8090 C   0  0  0  0  0  0  0  0  0  0  0  0
   -4.8020   20.0010  -34.2220 O   0  0  0  0  0  0  0  0  0  0  0  0
   -2.0010   19.3990  -34.0010 C   0  0  0  0  0  0  0  0  0  0  0  0
   -1.8890   20.4880  -32.9320 C   0  0  0  0  0  0  0  0  0  0  0  0
   -1.8750   22.8910  -29.8810 C   0  0  0  0  0  0  0  0  0  0  0  0
   -2.5420   24.1310  -29.8700 C   0  0  0  0  0  0  0  0  0  0  0  0
   -1.9830   25.2730  -29.2750 O   0  0  0  0  0  0  0  0  0  0  0  0
   -1.5170   25.3370  -27.9300 C   0  0  0  0  0  0  0  0  0  0  0  0
   -5.9220   25.6945  -28.9950 H   0  0  0  0  0  0  0  0  0  0  0  0
   -6.1703   26.6361  -30.5045 H   0  0  0  0  0  0  0  0  0  0  0  0
   -6.4188   24.8571  -30.5045 H   0  0  0  0  0  0  0  0  0  0  0  0
   -5.3706   23.2049  -31.5594 H   0  0  0  0  0  0  0  0  0  0  0  0
   -4.1934   21.0128  -31.5497 H   0  0  0  0  0  0  0  0  0  0  0  0
   -0.9526   20.4798  -29.6815 H   0  0  0  0  0  0  0  0  0  0  0  0
   -2.4971   19.6598  -30.2440 H   0  0  0  0  0  0  0  0  0  0  0  0
   -0.2260   20.6350  -31.7720 H   0  0  0  0  0  0  0  0  0  0  0  0
    0.2665   18.6157  -32.4492 H   0  0  0  0  0  0  0  0  0  0  0  0
   -0.4023   18.3507  -30.7634 H   0  0  0  0  0  0  0  0  0  0  0  0
   -1.1223   16.7924  -32.7882 H   0  0  0  0  0  0  0  0  0  0  0  0
   -2.2943   17.3498  -31.4918 H   0  0  0  0  0  0  0  0  0  0  0  0
   -2.1004   17.1051  -35.1132 H   0  0  0  0  0  0  0  0  0  0  0  0
   -3.0596   16.2162  -33.8442 H   0  0  0  0  0  0  0  0  0  0  0  0
   -4.0672   18.3371  -35.7913 H   0  0  0  0  0  0  0  0  0  0  0  0
   -4.5043   16.5752  -35.7094 H   0  0  0  0  0  0  0  0  0  0  0  0
   -6.0378   14.6946  -33.3350 H   0  0  0  0  0  0  0  0  0  0  0  0
   -6.9688   15.0924  -34.8187 H   0  0  0  0  0  0  0  0  0  0  0  0
   -5.1777   15.2288  -34.8187 H   0  0  0  0  0  0  0  0  0  0  0  0
   -9.1861   17.8124  -31.3212 H   0  0  0  0  0  0  0  0  0  0  0  0
   -9.5997   20.1450  -30.5337 H   0  0  0  0  0  0  0  0  0  0  0  0
   -8.1169   22.0027  -31.2977 H   0  0  0  0  0  0  0  0  0  0  0  0
   -6.2166   21.5349  -32.8457 H   0  0  0  0  0  0  0  0  0  0  0  0
   -1.0033   19.1671  -34.4022 H   0  0  0  0  0  0  0  0  0  0  0  0
   -2.6413   19.7421  -34.8270 H   0  0  0  0  0  0  0  0  0  0  0  0
   -1.3999   21.3671  -33.3769 H   0  0  0  0  0  0  0  0  0  0  0  0
   -2.9081   20.7164  -32.5865 H   0  0  0  0  0  0  0  0  0  0  0  0
   -0.8750   22.8083  -29.4302 H   0  0  0  0  0  0  0  0  0  0  0  0
   -2.3669   25.2203  -27.2415 H   0  0  0  0  0  0  0  0  0  0  0  0
   -0.7900   24.5303  -27.7551 H   0  0  0  0  0  0  0  0  0  0  0  0
   -1.0344   26.3099  -27.7551 H   0  0  0  0  0  0  0  0  0  0  0  0
  1  2  1  0
  2  3  1  0
  3  4  2  0
  4  5  1  0
  5  6  2  0
  6  7  1  0
  7  8  1  0
  8  9  1  0
  9 10  1  0
 10 11  1  0
 11 12  1  0
 12 13  1  0
 13 14  1  0
 14 15  1  0
 15 16  1  0
 15 17  2  0
 17 18  1  0
 18 19  2  0
 19 20  1  0
 20 21  2  0
 21 22  1  0
 22 23  2  0
 23 24  1  0
 24 25  2  0
 11 26  1  0
 26 27  1  0
  6 28  1  0
 28 29  2  0
 29 30  1  0
 30 31  1  0
 29  3  1  0
 27  8  1  0
 24 14  1  0
 23 18  1  0
  1 32  1  0
  1 33  1  0
  1 34  1  0
  4 35  1  0
  5 36  1  0
  7 37  1  0
  7 38  1  0
  8 39  1  0
  9 40  1  0
  9 41  1  0
 10 42  1  0
 10 43  1  0
 12 44  1  0
 12 45  1  0
 13 46  1  0
 13 47  1  0
 16 48  1  0
 16 49  1  0
 16 50  1  0
 19 51  1  0
 20 52  1  0
 21 53  1  0
 22 54  1  0
 26 55  1  0
 26 56  1  0
 27 57  1  0
 27 58  1  0
 28 59  1  0
 31 60  1  0
 31 61  1  0
 31 62  1  0
M  CHG  1   8   1
M  END
>  <UniqueID>  (27) 
25

>  <SMILES>  (27) 
COc1ccc(C[NH+]2CCN(CCn3c(C)nc4ccccc4c3=O)CC2)cc1OC

>  <Energy>  (27) 
84.94576164250958

>  <Genealogy>  (27) 
COc1ccc(C[NH+]2CCN(CCn3c(C)nc4ccccc4c3=O)CC2)cc1OC (protonated)
COc1ccc(C[NH+]2CCN(CCn3c(C)nc4ccccc4c3=O)CC2)cc1OC (3D coordinates assigned)
COc1ccc(C[NH+]2CCN(CCn3c(C)nc4ccccc4c3=O)CC2)cc1OC (nonaromatic ring conformer: 84.94576164250958 kcal/mol)

>  <smiles>  (27) 
COc1ccc(CN2CCN(CCn3c(C)nc4ccccc4c3=O)CC2)cc1OC

>  <score_type>  (27) 
oracle

>  <origin>  (27) 
adg

>  <m_score__min__energy>  (27) 
-8.9600000000000009

>  <m_primary>  (27) 
energy

$$$$
27:0
     RDKit          3D

 61 64  0  0  0  0  0  0  0  0999 V2000
   -3.1890   18.7750  -26.0320 C   0  0  0  0  0  0  0  0  0  0  0  0
   -2.1520   19.5370  -26.7400 N   0  0  0  0  0  0  0  0  0  0  0  0
   -1.2030   18.6490  -27.4310 C   0  0  0  0  0  0  0  0  0  0  0  0
   -1.4900   20.5540  -25.8900 C   0  0  0  0  0  0  0  0  0  0  0  0
   -1.5080   22.0000  -26.4600 C   0  0  0  0  0  0  0  0  0  0  0  0
   -2.3280   22.1130  -27.6890 N   0  0  2  0  0  0  0  0  0  0  0  0
   -1.5120   22.3280  -28.9040 C   0  0  0  0  0  0  0  0  0  0  0  0
   -2.1990   23.4070  -29.7590 C   0  0  1  0  0  0  0  0  0  0  0  0
   -2.9990   22.8260  -30.8540 N   0  0  0  0  0  0  0  0  0  0  0  0
   -4.2330   23.3880  -31.2670 C   0  0  0  0  0  0  0  0  0  0  0  0
   -4.5450   24.5940  -31.0760 O   0  0  0  0  0  0  0  0  0  0  0  0
   -5.0870   22.4530  -31.8870 N   0  0  0  0  0  0  0  0  0  0  0  0
   -6.4610   22.6980  -32.3220 C   0  0  0  0  0  0  0  0  0  0  0  0
   -7.2710   21.4340  -32.2220 C   0  0  0  0  0  0  0  0  0  0  0  0
   -8.3180   21.3400  -31.2900 C   0  0  0  0  0  0  0  0  0  0  0  0
   -9.1010   20.1830  -31.2240 C   0  0  0  0  0  0  0  0  0  0  0  0
   -8.8480   19.1150  -32.0900 C   0  0  0  0  0  0  0  0  0  0  0  0
   -7.8110   19.2030  -33.0220 C   0  0  0  0  0  0  0  0  0  0  0  0
   -7.0260   20.3580  -33.0920 C   0  0  0  0  0  0  0  0  0  0  0  0
   -4.4310   21.1540  -31.8700 C   0  0  0  0  0  0  0  0  0  0  0  0
   -3.0310   21.4020  -31.2370 C   0  0  1  0  0  0  0  0  0  0  0  0
   -1.9280   21.0710  -32.2190 C   0  0  0  0  0  0  0  0  0  0  0  0
   -2.2400   20.7970  -33.5610 C   0  0  0  0  0  0  0  0  0  0  0  0
   -1.2260   20.5090  -34.4790 C   0  0  0  0  0  0  0  0  0  0  0  0
    0.1090   20.5000  -34.0670 C   0  0  0  0  0  0  0  0  0  0  0  0
    0.4330   20.7910  -32.7400 C   0  0  0  0  0  0  0  0  0  0  0  0
   -0.5780   21.0850  -31.8200 C   0  0  0  0  0  0  0  0  0  0  0  0
   -3.0800   24.1900  -28.7900 C   0  0  0  0  0  0  0  0  0  0  0  0
   -3.1750   23.2710  -27.6340 C   0  0  0  0  0  0  0  0  0  0  0  0
   -3.9650   23.4580  -26.7190 O   0  0  0  0  0  0  0  0  0  0  0  0
   -3.0450   18.8808  -24.9466 H   0  0  0  0  0  0  0  0  0  0  0  0
   -4.1811   19.1605  -26.3096 H   0  0  0  0  0  0  0  0  0  0  0  0
   -3.1175   17.7130  -26.3096 H   0  0  0  0  0  0  0  0  0  0  0  0
   -0.6111   18.0952  -26.6874 H   0  0  0  0  0  0  0  0  0  0  0  0
   -1.7580   17.9383  -28.0610 H   0  0  0  0  0  0  0  0  0  0  0  0
   -0.5307   19.2499  -28.0610 H   0  0  0  0  0  0  0  0  0  0  0  0
   -1.9975   20.5657  -24.9141 H   0  0  0  0  0  0  0  0  0  0  0  0
   -0.4315   20.2612  -25.8287 H   0  0  0  0  0  0  0  0  0  0  0  0
   -1.9211   22.6755  -25.6964 H   0  0  0  0  0  0  0  0  0  0  0  0
   -0.4741   22.2704  -26.7208 H   0  0  0  0  0  0  0  0  0  0  0  0
   -2.9360   21.2730  -27.8080 H   0  0  0  0  0  0  0  0  0  0  0  0
   -0.5034   22.6635  -28.6208 H   0  0  0  0  0  0  0  0  0  0  0  0
   -1.4236   21.3910  -29.4734 H   0  0  0  0  0  0  0  0  0  0  0  0
   -1.4559   24.0494  -30.2542 H   0  0  0  0  0  0  0  0  0  0  0  0
   -6.9125   23.4704  -31.6820 H   0  0  0  0  0  0  0  0  0  0  0  0
   -6.4512   23.0361  -33.3687 H   0  0  0  0  0  0  0  0  0  0  0  0
   -8.5228   22.1796  -30.6095 H   0  0  0  0  0  0  0  0  0  0  0  0
   -9.9170   20.1132  -30.4897 H   0  0  0  0  0  0  0  0  0  0  0  0
   -9.4651   18.2059  -32.0376 H   0  0  0  0  0  0  0  0  0  0  0  0
   -7.6116   18.3619  -33.7022 H   0  0  0  0  0  0  0  0  0  0  0  0
   -6.2137   20.4246  -33.8308 H   0  0  0  0  0  0  0  0  0  0  0  0
   -5.0067   20.4408  -31.2619 H   0  0  0  0  0  0  0  0  0  0  0  0
   -4.3516   20.7243  -32.8795 H   0  0  0  0  0  0  0  0  0  0  0  0
   -2.8671   20.7561  -30.3618 H   0  0  0  0  0  0  0  0  0  0  0  0
   -3.2891   20.8092  -33.8916 H   0  0  0  0  0  0  0  0  0  0  0  0
   -1.4793   20.2893  -35.5266 H   0  0  0  0  0  0  0  0  0  0  0  0
    0.9053   20.2636  -34.7881 H   0  0  0  0  0  0  0  0  0  0  0  0
    1.4849   20.7889  -32.4182 H   0  0  0  0  0  0  0  0  0  0  0  0
   -0.3173   21.3284  -30.7794 H   0  0  0  0  0  0  0  0  0  0  0  0
   -2.6088   25.1419  -28.5040 H   0  0  0  0  0  0  0  0  0  0  0  0
   -4.0571   24.4689  -29.2114 H   0  0  0  0  0  0  0  0  0  0  0  0
  1  2  1  0
  2  3  1  0
  2  4  1  0
  4  5  1  0
  5  6  1  0
  6  7  1  0
  7  8  1  0
  8  9  1  0
  9 10  1  0
 10 11  2  0
 10 12  1  0
 12 13  1  0
 13 14  1  0
 14 15  2  0
 15 16  1  0
 16 17  2  0
 17 18  1  0
 18 19  2  0
 12 20  1  0
 20 21  1  0
 21 22  1  0
 22 23  2  0
 23 24  1  0
 24 25  2  0
 25 26  1  0
 26 27  2  0
  8 28  1  0
 28 29  1  0
 29 30  2  0
 29  6  1  0
 21  9  1  0
 27 22  1  0
 19 14  1  0
  1 31  1  0
  1 32  1  0
  1 33  1  0
  3 34  1  0
  3 35  1  0
  3 36  1  0
  4 37  1  0
  4 38  1  0
  5 39  1  0
  5 40  1  0
  6 41  1  6
  7 42  1  0
  7 43  1  0
  8 44  1  6
 13 45  1  0
 13 46  1  0
 15 47  1  0
 16 48  1  0
 17 49  1  0
 18 50  1  0
 19 51  1  0
 20 52  1  0
 20 53  1  0
 21 54  1  1
 23 55  1  0
 24 56  1  0
 25 57  1  0
 26 58  1  0
 27 59  1  0
 28 60  1  0
 28 61  1  0
M  CHG  1   6   1
M  END
>  <UniqueID>  (28) 
26

>  <SMILES>  (28) 
CN(C)CC[N@@H+]1C[C@@H](N2C(=O)N(Cc3ccccc3)CC2c2ccccc2)CC1=O

>  <Energy>  (28) 
81.37267481514621

>  <Genealogy>  (28) 
CN(C)CC[NH+]1CC(N2C(=O)N(Cc3ccccc3)CC2c2ccccc2)CC1=O (protonated)
CN(C)CC[N@@H+]1C[C@@H](N2C(=O)N(Cc3ccccc3)CC2c2ccccc2)CC1=O (chirality)
CN(C)CC[N@@H+]1C[C@@H](N2C(=O)N(Cc3ccccc3)CC2c2ccccc2)CC1=O (3D coordinates assigned)
CN(C)CC[N@@H+]1C[C@@H](N2C(=O)N(Cc3ccccc3)CC2c2ccccc2)CC1=O (nonaromatic ring conformer: 81.37267481514621 kcal/mol)

>  <smiles>  (28) 
CN(C)CCN1CC(N2C(=O)N(Cc3ccccc3)CC2c2ccccc2)CC1=O

>  <score_type>  (28) 
oracle

>  <origin>  (28) 
adg

>  <m_score__min__energy>  (28) 
-8.6300000000000008

>  <m_primary>  (28) 
energy

$$$$
28:0
     RDKit          3D

 61 63  0  0  0  0  0  0  0  0999 V2000
   -1.6117   25.7939  -28.4283 H   0  0  0  0  0  0  0  0  0  0  0  0
   -1.9720   24.9150  -28.9830 C   0  0  0  0  0  0  0  0  0  0  0  0
   -3.1370   24.9840  -29.6750 N   0  0  0  0  0  0  0  0  0  0  0  0
   -3.6230   23.9220  -30.3690 C   0  0  0  0  0  0  0  0  0  0  0  0
   -4.8330   24.0460  -31.0630 C   0  0  0  0  0  0  0  0  0  0  0  0
   -5.3680   25.0071  -31.0594 H   0  0  0  0  0  0  0  0  0  0  0  0
   -5.3700   22.9510  -31.7650 C   0  0  0  0  0  0  0  0  0  0  0  0
   -6.6310   23.0350  -32.4610 N   0  0  0  0  0  0  0  0  0  0  0  0
   -6.6810   23.6110  -33.3310 H   0  0  0  0  0  0  0  0  0  0  0  0
   -7.8460   22.3160  -32.0680 C   0  0  0  0  0  0  0  0  0  0  0  0
   -8.0421   22.4982  -31.0011 H   0  0  0  0  0  0  0  0  0  0  0  0
   -8.6823   22.6809  -32.6824 H   0  0  0  0  0  0  0  0  0  0  0  0
   -7.6960   20.8330  -32.2950 C   0  0  0  0  0  0  0  0  0  0  0  0
   -6.8990   20.3450  -33.3430 C   0  0  0  0  0  0  0  0  0  0  0  0
   -6.4373   21.0472  -34.0527 H   0  0  0  0  0  0  0  0  0  0  0  0
   -6.6900   18.9710  -33.4880 C   0  0  0  0  0  0  0  0  0  0  0  0
   -6.0620   18.5982  -34.3106 H   0  0  0  0  0  0  0  0  0  0  0  0
   -7.2740   18.0650  -32.5940 C   0  0  0  0  0  0  0  0  0  0  0  0
   -6.9510   16.7060  -32.7200 O   0  0  0  0  0  0  0  0  0  0  0  0
   -6.8300   15.9880  -33.9520 C   0  0  0  0  0  0  0  0  0  0  0  0
   -7.1849   14.9577  -33.8016 H   0  0  0  0  0  0  0  0  0  0  0  0
   -7.4348   16.5034  -34.7127 H   0  0  0  0  0  0  0  0  0  0  0  0
   -5.3670   15.9480  -34.4420 C   0  0  0  0  0  0  0  0  0  0  0  0
   -5.0818   14.8971  -34.5974 H   0  0  0  0  0  0  0  0  0  0  0  0
   -5.3233   16.5373  -35.3698 H   0  0  0  0  0  0  0  0  0  0  0  0
   -4.3970   16.5630  -33.4900 N   0  0  0  0  0  0  0  0  0  0  0  0
   -4.9110   16.9060  -32.6510 H   0  0  0  0  0  0  0  0  0  0  0  0
   -3.3870   15.5570  -33.0560 C   0  0  0  0  0  0  0  0  0  0  0  0
   -2.5014   15.6424  -33.7028 H   0  0  0  0  0  0  0  0  0  0  0  0
   -3.1365   15.7621  -32.0047 H   0  0  0  0  0  0  0  0  0  0  0  0
   -3.9260   14.1170  -33.1410 C   0  0  0  0  0  0  0  0  0  0  0  0
   -4.7204   14.0703  -33.9004 H   0  0  0  0  0  0  0  0  0  0  0  0
   -3.1035   13.4408  -33.4171 H   0  0  0  0  0  0  0  0  0  0  0  0
   -4.5890   13.6150  -31.5620 Cl  0  0  0  0  0  0  0  0  0  0  0  0
   -3.7240   17.7350  -34.1220 C   0  0  0  0  0  0  0  0  0  0  0  0
   -2.8225   17.3857  -34.6467 H   0  0  0  0  0  0  0  0  0  0  0  0
   -4.4373   18.1995  -34.8188 H   0  0  0  0  0  0  0  0  0  0  0  0
   -3.3150   18.7960  -33.0870 C   0  0  0  0  0  0  0  0  0  0  0  0
   -4.2160   19.3033  -32.7118 H   0  0  0  0  0  0  0  0  0  0  0  0
   -2.7878   18.3024  -32.2573 H   0  0  0  0  0  0  0  0  0  0  0  0
   -2.2290   19.9990  -33.8310 Cl  0  0  0  0  0  0  0  0  0  0  0  0
   -8.1520   18.5490  -31.6050 C   0  0  0  0  0  0  0  0  0  0  0  0
   -8.6809   17.8422  -30.9487 H   0  0  0  0  0  0  0  0  0  0  0  0
   -8.3540   19.9220  -31.4540 C   0  0  0  0  0  0  0  0  0  0  0  0
   -9.0327   20.2921  -30.6715 H   0  0  0  0  0  0  0  0  0  0  0  0
   -4.6630   21.7400  -31.7800 C   0  0  0  0  0  0  0  0  0  0  0  0
   -5.0691   20.8815  -32.3351 H   0  0  0  0  0  0  0  0  0  0  0  0
   -3.4490   21.6090  -31.0990 C   0  0  0  0  0  0  0  0  0  0  0  0
   -2.9090   20.6510  -31.1227 H   0  0  0  0  0  0  0  0  0  0  0  0
   -2.9140   22.6970  -30.3830 C   0  0  0  0  0  0  0  0  0  0  0  0
   -1.6890   22.6040  -29.6810 C   0  0  0  0  0  0  0  0  0  0  0  0
   -1.0100   21.4860  -29.7090 N   0  0  0  0  0  0  0  0  0  0  0  0
   -1.2180   20.3170  -28.8570 C   0  0  0  0  0  0  0  0  0  0  0  0
   -0.2580   20.0089  -28.4172 H   0  0  0  0  0  0  0  0  0  0  0  0
   -1.6276   19.4933  -29.4601 H   0  0  0  0  0  0  0  0  0  0  0  0
   -2.1980   20.6650  -27.7430 C   0  0  0  0  0  0  0  0  0  0  0  0
   -1.7194   20.4950  -26.7673 H   0  0  0  0  0  0  0  0  0  0  0  0
   -2.4904   21.7219  -27.8288 H   0  0  0  0  0  0  0  0  0  0  0  0
   -3.0915   20.0292  -27.8288 H   0  0  0  0  0  0  0  0  0  0  0  0
   -1.2290   23.7340  -28.9720 C   0  0  0  0  0  0  0  0  0  0  0  0
   -0.2844   23.6838  -28.4105 H   0  0  0  0  0  0  0  0  0  0  0  0
  1  2  1  0
  2  3  1  0
  3  4  1  0
  4  5  2  0
  5  6  1  0
  5  7  1  0
  7  8  1  0
  8  9  1  0
  8 10  1  0
 10 11  1  0
 10 12  1  0
 10 13  1  0
 13 14  2  0
 14 15  1  0
 14 16  1  0
 16 17  1  0
 16 18  2  0
 18 19  1  0
 19 20  1  0
 20 21  1  0
 20 22  1  0
 20 23  1  0
 23 24  1  0
 23 25  1  0
 23 26  1  0
 26 27  1  0
 26 28  1  0
 28 29  1  0
 28 30  1  0
 28 31  1  0
 31 32  1  0
 31 33  1  0
 31 34  1  0
 26 35  1  0
 35 36  1  0
 35 37  1  0
 35 38  1  0
 38 39  1  0
 38 40  1  0
 38 41  1  0
 18 42  1  0
 42 43  1  0
 42 44  2  0
 44 45  1  0
  7 46  2  0
 46 47  1  0
 46 48  1  0
 48 49  1  0
 48 50  2  0
 50 51  1  0
 51 52  2  0
 52 53  1  0
 53 54  1  0
 53 55  1  0
 53 56  1  0
 56 57  1  0
 56 58  1  0
 56 59  1  0
 51 60  1  0
 60 61  1  0
 60  2  2  0
 50  4  1  0
 44 13  1  0
M  CHG  2   3  -1  26   1
M  END
>  <UniqueID>  (29) 
27

>  <SMILES>  (29) 
CC/N=c1\cc[n-]c2cc(NCc3ccc(OCC[NH+](CCCl)CCCl)cc3)ccc12

>  <Energy>  (29) 
62.86197620025414

>  <Genealogy>  (29) 
CCN=c1cc[n-]c2cc(NCc3ccc(OCC[NH+](CCCl)CCCl)cc3)ccc12 (protonated)
CC/N=c1\cc[n-]c2cc(NCc3ccc(OCC[NH+](CCCl)CCCl)cc3)ccc12 (cis-trans isomerization)
CC/N=c1\cc[n-]c2cc(NCc3ccc(OCC[NH+](CCCl)CCCl)cc3)ccc12 (3D coordinates assigned)
CC/N=c1\cc[n-]c2cc(NCc3ccc(OCC[NH+](CCCl)CCCl)cc3)ccc12 (optimized conformer: 62.86197620025414 kcal/mol)

>  <smiles>  (29) 
CCN=c1cc[nH]c2cc(NCc3ccc(OCCN(CCCl)CCCl)cc3)ccc12

>  <score_type>  (29) 
oracle

>  <origin>  (29) 
adg

>  <m_score__min__energy>  (29) 
-8.8399999999999999

>  <m_primary>  (29) 
energy

$$$$
29:0
     RDKit          3D

 31 32  0  0  0  0  0  0  0  0999 V2000
   -5.5484   17.2054  -36.0291 H   0  0  0  0  0  0  0  0  0  0  0  0
   -5.3660   17.8240  -35.1380 C   0  0  0  0  0  0  0  0  0  0  0  0
   -4.7202   18.7118  -35.2075 H   0  0  0  0  0  0  0  0  0  0  0  0
   -5.9290   17.4970  -33.9710 C   0  0  0  0  0  0  0  0  0  0  0  0
   -6.5726   16.6066  -33.9157 H   0  0  0  0  0  0  0  0  0  0  0  0
   -5.7030   18.3180  -32.7320 C   0  0  0  0  0  0  0  0  0  0  0  0
   -5.2792   17.6767  -31.9451 H   0  0  0  0  0  0  0  0  0  0  0  0
   -5.0076   19.1365  -32.9696 H   0  0  0  0  0  0  0  0  0  0  0  0
   -6.9650   18.8910  -32.2590 N   0  0  0  0  0  0  0  0  0  0  0  0
   -8.0600   18.1880  -31.9000 C   0  0  0  0  0  0  0  0  0  0  0  0
   -8.1137   17.0947  -31.7914 H   0  0  0  0  0  0  0  0  0  0  0  0
   -9.1010   19.0700  -31.6920 C   0  0  0  0  0  0  0  0  0  0  0  0
  -10.1235   18.7994  -31.3900 H   0  0  0  0  0  0  0  0  0  0  0  0
   -8.6510   20.3190  -31.9220 N   0  0  0  0  0  0  0  0  0  0  0  0
   -9.4450   21.5430  -31.9010 C   0  0  0  0  0  0  0  0  0  0  0  0
   -9.6364   21.8381  -30.8587 H   0  0  0  0  0  0  0  0  0  0  0  0
   -8.8951   22.3456  -32.4142 H   0  0  0  0  0  0  0  0  0  0  0  0
  -10.4021   21.3681  -32.4142 H   0  0  0  0  0  0  0  0  0  0  0  0
   -7.3530   20.1890  -32.2680 C   0  0  0  0  0  0  0  0  0  0  0  0
   -6.5090   21.3170  -32.7040 C   0  0  0  0  0  0  0  0  0  0  0  0
   -6.6432   21.6889  -33.7305 H   0  0  0  0  0  0  0  0  0  0  0  0
   -5.5900   21.9210  -31.9380 C   0  0  0  0  0  0  0  0  0  0  0  0
   -4.5872   21.4701  -31.9045 H   0  0  0  0  0  0  0  0  0  0  0  0
   -5.8100   23.1410  -31.1350 C   0  0  0  0  0  0  0  0  0  0  0  0
   -4.5670   24.1180  -30.5670 S   0  0  0  0  0  0  0  0  0  0  0  0
   -5.5450   25.2790  -29.8460 C   0  0  0  0  0  0  0  0  0  0  0  0
   -5.1967   26.1671  -29.2983 H   0  0  0  0  0  0  0  0  0  0  0  0
   -6.8690   24.9220  -30.0620 C   0  0  0  0  0  0  0  0  0  0  0  0
   -7.7191   25.5168  -29.6965 H   0  0  0  0  0  0  0  0  0  0  0  0
   -7.0220   23.7350  -30.7880 C   0  0  0  0  0  0  0  0  0  0  0  0
   -8.0014   23.3131  -31.0578 H   0  0  0  0  0  0  0  0  0  0  0  0
  1  2  1  0
  2  3  1  0
  2  4  2  0
  4  5  1  0
  4  6  1  0
  6  7  1  0
  6  8  1  0
  6  9  1  0
  9 10  1  0
 10 11  1  0
 10 12  2  0
 12 13  1  0
 12 14  1  0
 14 15  1  0
 15 16  1  0
 15 17  1  0
 15 18  1  0
 14 19  1  0
 19 20  1  0
 20 21  1  0
 20 22  2  0
 22 23  1  0
 22 24  1  0
 24 25  1  0
 25 26  1  0
 26 27  1  0
 26 28  2  0
 28 29  1  0
 28 30  1  0
 30 31  1  0
 19  9  2  0
 30 24  2  0
M  CHG  1   9   1
M  END
>  <UniqueID>  (30) 
28

>  <SMILES>  (30) 
C=CC[n+]1ccn(C)c1/C=C\c1cccs1

>  <Energy>  (30) 
91.80777897405864

>  <Genealogy>  (30) 
C=CC[n+]1ccn(C)c1/C=C\c1cccs1 (cis-trans isomerization)
C=CC[n+]1ccn(C)c1/C=C\c1cccs1 (3D coordinates assigned)
C=CC[n+]1ccn(C)c1/C=C\c1cccs1 (optimized conformer: 91.80777897405864 kcal/mol)

>  <smiles>  (30) 
C=CC[n+]1ccn(C)c1C=Cc1cccs1

>  <score_type>  (30) 
oracle

>  <origin>  (30) 
adg

>  <m_score__min__energy>  (30) 
-5.6399999999999997

>  <m_primary>  (30) 
energy

$$$$
30:0
     RDKit          3D

 35 36  0  0  0  0  0  0  0  0999 V2000
   -4.1780   22.2830  -32.6680 C   0  0  0  0  0  0  0  0  0  0  0  0
   -4.8520   22.6750  -31.7480 C   0  0  0  0  0  0  0  0  0  0  0  0
   -5.6770   23.1560  -30.6190 C   0  0  0  0  0  0  0  0  0  0  0  0
   -6.7500   22.2240  -30.5070 O   0  0  0  0  0  0  0  0  0  0  0  0
   -7.6250   22.1980  -31.6210 C   0  0  0  0  0  0  0  0  0  0  0  0
   -8.9580   21.5960  -31.1880 C   0  0  0  0  0  0  0  0  0  0  0  0
   -9.4940   20.2800  -32.3370 S   0  0  0  0  0  0  0  0  0  0  0  0
   -7.8620   19.5600  -32.5250 C   0  0  0  0  0  0  0  0  0  0  0  0
   -7.2980   18.8920  -31.4830 N   0  0  0  0  0  0  0  0  0  0  0  0
   -6.0630   18.3400  -31.5950 C   0  0  0  0  0  0  0  0  0  0  0  0
   -5.3560   18.4540  -32.7910 C   0  0  0  0  0  0  0  0  0  0  0  0
   -5.9520   19.1350  -33.8530 C   0  0  0  0  0  0  0  0  0  0  0  0
   -7.1930   19.6710  -33.7050 N   0  0  0  0  0  0  0  0  0  0  0  0
   -6.2040   24.5780  -30.9740 C   0  0  0  0  0  0  0  0  0  0  0  0
   -5.2520   25.6800  -30.4750 C   0  0  0  0  0  0  0  0  0  0  0  0
   -3.9100   25.2420  -30.5420 O   0  0  0  0  0  0  0  0  0  0  0  0
   -3.6450   24.2890  -29.5220 C   0  0  0  0  0  0  0  0  0  0  0  0
   -4.7520   23.2150  -29.3660 C   0  0  0  0  0  0  0  0  0  0  0  0
   -3.5632   21.9254  -33.5072 H   0  0  0  0  0  0  0  0  0  0  0  0
   -7.7846   23.2222  -31.9892 H   0  0  0  0  0  0  0  0  0  0  0  0
   -7.1856   21.5907  -32.4261 H   0  0  0  0  0  0  0  0  0  0  0  0
   -8.8484   21.1694  -30.1800 H   0  0  0  0  0  0  0  0  0  0  0  0
   -9.7171   22.3921  -31.1921 H   0  0  0  0  0  0  0  0  0  0  0  0
   -5.6205   17.8033  -30.7429 H   0  0  0  0  0  0  0  0  0  0  0  0
   -4.3518   18.0173  -32.8951 H   0  0  0  0  0  0  0  0  0  0  0  0
   -5.4184   19.2382  -34.8093 H   0  0  0  0  0  0  0  0  0  0  0  0
   -7.6310   20.1730  -34.5090 H   0  0  0  0  0  0  0  0  0  0  0  0
   -6.3016   24.6593  -32.0666 H   0  0  0  0  0  0  0  0  0  0  0  0
   -7.1768   24.7161  -30.4795 H   0  0  0  0  0  0  0  0  0  0  0  0
   -5.3727   26.5746  -31.1036 H   0  0  0  0  0  0  0  0  0  0  0  0
   -5.4976   25.9157  -29.4290 H   0  0  0  0  0  0  0  0  0  0  0  0
   -2.6993   23.7802  -29.7601 H   0  0  0  0  0  0  0  0  0  0  0  0
   -3.5985   24.8413  -28.5719 H   0  0  0  0  0  0  0  0  0  0  0  0
   -4.2782   22.2322  -29.2258 H   0  0  0  0  0  0  0  0  0  0  0  0
   -5.3694   23.4821  -28.4957 H   0  0  0  0  0  0  0  0  0  0  0  0
  1  2  3  0
  2  3  1  0
  3  4  1  0
  4  5  1  0
  5  6  1  0
  6  7  1  0
  7  8  1  0
  8  9  2  0
  9 10  1  0
 10 11  2  0
 11 12  1  0
 12 13  2  0
  3 14  1  0
 14 15  1  0
 15 16  1  0
 16 17  1  0
 17 18  1  0
 18  3  1  0
 13  8  1  0
  1 19  1  0
  5 20  1  0
  5 21  1  0
  6 22  1  0
  6 23  1  0
 10 24  1  0
 11 25  1  0
 12 26  1  0
 13 27  1  0
 14 28  1  0
 14 29  1  0
 15 30  1  0
 15 31  1  0
 17 32  1  0
 17 33  1  0
 18 34  1  0
 18 35  1  0
M  CHG  1  13   1
M  END
>  <UniqueID>  (31) 
29

>  <SMILES>  (31) 
C#CC1(OCCSc2nccc[nH+]2)CCOCC1

>  <Energy>  (31) 
43.93947399775259

>  <Genealogy>  (31) 
C#CC1(OCCSc2nccc[nH+]2)CCOCC1 (protonated)
C#CC1(OCCSc2nccc[nH+]2)CCOCC1 (3D coordinates assigned)
C#CC1(OCCSc2nccc[nH+]2)CCOCC1 (nonaromatic ring conformer: 43.93947399775259 kcal/mol)

>  <smiles>  (31) 
C#CC1(OCCSc2ncccn2)CCOCC1

>  <score_type>  (31) 
oracle

>  <origin>  (31) 
adg

>  <m_score__min__energy>  (31) 
-7.2300000000000004

>  <m_primary>  (31) 
energy

$$$$
31:0
     RDKit          3D

 54 57  0  0  0  0  0  0  0  0999 V2000
   -8.5340   21.5230  -31.8790 C   0  0  0  0  0  0  0  0  0  0  0  0
   -7.5170   20.8380  -31.9340 C   0  0  0  0  0  0  0  0  0  0  0  0
   -6.3150   20.0550  -32.0120 C   0  0  0  0  0  0  0  0  0  0  0  0
   -5.0670   20.7590  -32.1390 N   0  0  0  0  0  0  0  0  0  0  0  0
   -4.4440   20.6610  -33.4830 C   0  0  0  0  0  0  0  0  0  0  0  0
   -3.0080   20.2230  -33.3300 C   0  0  0  0  0  0  0  0  0  0  0  0
   -2.7030   19.0620  -32.5980 C   0  0  0  0  0  0  0  0  0  0  0  0
   -1.4100   18.6540  -32.3850 C   0  0  0  0  0  0  0  0  0  0  0  0
   -0.3790   19.4010  -32.9030 C   0  0  0  0  0  0  0  0  0  0  0  0
    0.8690   18.9760  -32.6610 N   0  0  0  0  0  0  0  0  0  0  0  0
    1.9320   19.6700  -33.1300 C   0  0  0  0  0  0  0  0  0  0  0  0
    3.3130   19.1980  -32.8470 C   0  0  0  0  0  0  0  0  0  0  0  0
    1.7070   20.8030  -33.8510 N   0  0  0  0  0  0  0  0  0  0  0  0
    0.4390   21.2400  -34.1000 C   0  0  0  0  0  0  0  0  0  0  0  0
    0.2360   22.2940  -34.7710 O   0  0  0  0  0  0  0  0  0  0  0  0
   -0.6520   20.5460  -33.6290 C   0  0  0  0  0  0  0  0  0  0  0  0
   -1.9630   20.9600  -33.8450 C   0  0  0  0  0  0  0  0  0  0  0  0
   -4.4900   21.6120  -31.1570 C   0  0  0  0  0  0  0  0  0  0  0  0
   -3.7170   21.1140  -30.1070 C   0  0  0  0  0  0  0  0  0  0  0  0
   -3.1020   21.9680  -29.1870 C   0  0  0  0  0  0  0  0  0  0  0  0
   -2.3490   21.4810  -28.1600 F   0  0  0  0  0  0  0  0  0  0  0  0
   -3.2250   23.3400  -29.2710 C   0  0  0  0  0  0  0  0  0  0  0  0
   -2.5940   24.2750  -28.3570 C   0  0  0  0  0  0  0  0  0  0  0  0
   -1.4670   24.9520  -28.7610 C   0  0  0  0  0  0  0  0  0  0  0  0
   -0.7970   25.8550  -27.9840 C   0  0  0  0  0  0  0  0  0  0  0  0
   -1.3000   26.0920  -26.7050 C   0  0  0  0  0  0  0  0  0  0  0  0
   -2.4260   25.4100  -26.3130 C   0  0  0  0  0  0  0  0  0  0  0  0
   -3.0990   24.5030  -27.0920 C   0  0  0  0  0  0  0  0  0  0  0  0
   -3.9740   23.8330  -30.2920 C   0  0  0  0  0  0  0  0  0  0  0  0
   -4.1180   25.2120  -30.4010 O   0  0  0  0  0  0  0  0  0  0  0  0
   -5.3720   25.8700  -30.4270 C   0  0  0  0  0  0  0  0  0  0  0  0
   -4.5880   22.9870  -31.2100 C   0  0  0  0  0  0  0  0  0  0  0  0
   -9.4454   22.1369  -31.8297 H   0  0  0  0  0  0  0  0  0  0  0  0
   -6.2582   19.4477  -31.0966 H   0  0  0  0  0  0  0  0  0  0  0  0
   -6.4120   19.4883  -32.9498 H   0  0  0  0  0  0  0  0  0  0  0  0
   -4.9912   19.9247  -34.0900 H   0  0  0  0  0  0  0  0  0  0  0  0
   -4.4818   21.6407  -33.9817 H   0  0  0  0  0  0  0  0  0  0  0  0
   -3.5263   18.4620  -32.1831 H   0  0  0  0  0  0  0  0  0  0  0  0
   -1.2016   17.7413  -31.8074 H   0  0  0  0  0  0  0  0  0  0  0  0
    1.0530   18.1270  -32.1220 H   0  0  0  0  0  0  0  0  0  0  0  0
    3.4668   19.1454  -31.7591 H   0  0  0  0  0  0  0  0  0  0  0  0
    3.4566   18.1998  -33.2863 H   0  0  0  0  0  0  0  0  0  0  0  0
    4.0375   19.8995  -33.2863 H   0  0  0  0  0  0  0  0  0  0  0  0
   -2.1648   21.8726  -34.4250 H   0  0  0  0  0  0  0  0  0  0  0  0
   -3.5891   20.0266  -30.0012 H   0  0  0  0  0  0  0  0  0  0  0  0
   -1.0810   24.7545  -29.7719 H   0  0  0  0  0  0  0  0  0  0  0  0
    0.1010   26.3729  -28.3519 H   0  0  0  0  0  0  0  0  0  0  0  0
   -0.8081   26.8061  -26.0282 H   0  0  0  0  0  0  0  0  0  0  0  0
   -2.8158   25.6048  -25.3030 H   0  0  0  0  0  0  0  0  0  0  0  0
   -3.9969   23.9829  -26.7268 H   0  0  0  0  0  0  0  0  0  0  0  0
   -5.7135   26.0492  -29.3968 H   0  0  0  0  0  0  0  0  0  0  0  0
   -5.2709   26.8312  -30.9522 H   0  0  0  0  0  0  0  0  0  0  0  0
   -6.1055   25.2406  -30.9522 H   0  0  0  0  0  0  0  0  0  0  0  0
   -5.1817   23.4373  -32.0191 H   0  0  0  0  0  0  0  0  0  0  0  0
  1  2  3  0
  2  3  1  0
  3  4  1  0
  4  5  1  0
  5  6  1  0
  6  7  2  0
  7  8  1  0
  8  9  2  0
  9 10  1  0
 10 11  1  0
 11 12  1  0
 11 13  2  0
 13 14  1  0
 14 15  2  0
 14 16  1  0
 16 17  2  0
  4 18  1  0
 18 19  2  0
 19 20  1  0
 20 21  1  0
 20 22  2  0
 22 23  1  0
 23 24  2  0
 24 25  1  0
 25 26  2  0
 26 27  1  0
 27 28  2  0
 22 29  1  0
 29 30  1  0
 30 31  1  0
 29 32  2  0
 17  6  1  0
 32 18  1  0
 16  9  1  0
 28 23  1  0
  1 33  1  0
  3 34  1  0
  3 35  1  0
  5 36  1  0
  5 37  1  0
  7 38  1  0
  8 39  1  0
 10 40  1  0
 12 41  1  0
 12 42  1  0
 12 43  1  0
 17 44  1  0
 19 45  1  0
 24 46  1  0
 25 47  1  0
 26 48  1  0
 27 49  1  0
 28 50  1  0
 31 51  1  0
 31 52  1  0
 31 53  1  0
 32 54  1  0
M  END
>  <smiles>  (32) 
C#CCN(Cc1ccc2[nH]c(C)nc(=O)c2c1)c1cc(F)c(-c2ccccc2)c(OC)c1

>  <score_type>  (32) 
oracle

>  <origin>  (32) 
adg

>  <m_score__min__energy>  (32) 
-8.75

>  <m_primary>  (32) 
energy

$$$$
32:0
     RDKit          3D

 69 71  0  0  0  0  0  0  0  0999 V2000
   -1.9240   19.7600  -33.0740 C   0  0  0  0  0  0  0  0  0  0  0  0
   -1.2490   19.0380  -34.2460 C   0  0  0  0  0  0  0  0  0  0  0  0
   -1.4390   17.5640  -34.2140 N   0  0  1  0  0  0  0  0  0  0  0  0
   -1.7140   17.1470  -32.8250 C   0  0  0  0  0  0  0  0  0  0  0  0
   -2.5500   17.1130  -35.0940 C   0  0  0  0  0  0  0  0  0  0  0  0
   -3.8480   17.6390  -34.6430 C   0  0  0  0  0  0  0  0  0  0  0  0
   -4.9080   18.0610  -34.2570 C   0  0  0  0  0  0  0  0  0  0  0  0
   -6.2050   18.5490  -33.7700 C   0  0  0  0  0  0  0  0  0  0  0  0
   -6.4050   18.2030  -32.2890 C   0  0  0  0  0  0  0  0  0  0  0  0
   -7.8720   17.8810  -31.9630 C   0  0  0  0  0  0  0  0  0  0  0  0
   -8.7840   19.0730  -32.2750 C   0  0  0  0  0  0  0  0  0  0  0  0
   -8.7110   20.1230  -31.1590 C   0  0  0  0  0  0  0  0  0  0  0  0
   -9.1470   21.5110  -31.6730 C   0  0  0  0  0  0  0  0  0  0  0  0
   -8.0230   22.3540  -32.1370 N   0  0  0  0  0  0  0  0  0  0  0  0
   -7.7550   23.5190  -31.2590 C   0  0  0  0  0  0  0  0  0  0  0  0
   -6.3210   24.0350  -31.3950 C   0  0  0  0  0  0  0  0  0  0  0  0
   -5.3840   22.9440  -31.1150 N   0  0  0  0  0  0  0  0  0  0  0  0
   -4.0910   23.2390  -30.5540 C   0  0  0  0  0  0  0  0  0  0  0  0
   -3.5270   24.3320  -30.8330 O   0  0  0  0  0  0  0  0  0  0  0  0
   -3.4030   22.2820  -29.6590 C   0  0  0  0  0  0  0  0  0  0  0  0
   -3.7860   22.1780  -28.3120 C   0  0  0  0  0  0  0  0  0  0  0  0
   -3.1400   21.2790  -27.4580 C   0  0  0  0  0  0  0  0  0  0  0  0
   -2.1060   20.4630  -27.9410 C   0  0  0  0  0  0  0  0  0  0  0  0
   -1.4470   19.5620  -27.0910 C   0  0  0  0  0  0  0  0  0  0  0  0
   -0.4240   18.7500  -27.5890 C   0  0  0  0  0  0  0  0  0  0  0  0
   -0.0510   18.8310  -28.9330 C   0  0  0  0  0  0  0  0  0  0  0  0
   -0.6990   19.7250  -29.7900 C   0  0  0  0  0  0  0  0  0  0  0  0
   -1.7280   20.5480  -29.3030 C   0  0  0  0  0  0  0  0  0  0  0  0
   -2.3860   21.4490  -30.1540 C   0  0  0  0  0  0  0  0  0  0  0  0
   -5.6890   21.5870  -31.5920 C   0  0  0  0  0  0  0  0  0  0  0  0
   -6.8380   21.6020  -32.6120 C   0  0  0  0  0  0  0  0  0  0  0  0
   -1.5440   19.3535  -32.1251 H   0  0  0  0  0  0  0  0  0  0  0  0
   -1.7001   20.8356  -33.1280 H   0  0  0  0  0  0  0  0  0  0  0  0
   -3.0122   19.6089  -33.1280 H   0  0  0  0  0  0  0  0  0  0  0  0
   -1.6719   19.4246  -35.1850 H   0  0  0  0  0  0  0  0  0  0  0  0
   -0.1686   19.2299  -34.1693 H   0  0  0  0  0  0  0  0  0  0  0  0
   -0.5430   17.0970  -34.4970 H   0  0  0  0  0  0  0  0  0  0  0  0
   -1.2450   17.8581  -32.1290 H   0  0  0  0  0  0  0  0  0  0  0  0
   -2.8007   17.1305  -32.6554 H   0  0  0  0  0  0  0  0  0  0  0  0
   -1.3012   16.1416  -32.6554 H   0  0  0  0  0  0  0  0  0  0  0  0
   -2.3590   17.4651  -36.1185 H   0  0  0  0  0  0  0  0  0  0  0  0
   -2.5931   16.0145  -35.0569 H   0  0  0  0  0  0  0  0  0  0  0  0
   -6.2467   19.6414  -33.8925 H   0  0  0  0  0  0  0  0  0  0  0  0
   -7.0018   18.0637  -34.3527 H   0  0  0  0  0  0  0  0  0  0  0  0
   -5.7866   17.3273  -32.0428 H   0  0  0  0  0  0  0  0  0  0  0  0
   -6.1106   19.0799  -31.6937 H   0  0  0  0  0  0  0  0  0  0  0  0
   -8.1920   17.0174  -32.5645 H   0  0  0  0  0  0  0  0  0  0  0  0
   -7.9487   17.6556  -30.8891 H   0  0  0  0  0  0  0  0  0  0  0  0
   -8.4660   19.5317  -33.2228 H   0  0  0  0  0  0  0  0  0  0  0  0
   -9.8204   18.7126  -32.3521 H   0  0  0  0  0  0  0  0  0  0  0  0
   -9.3752   19.8196  -30.3363 H   0  0  0  0  0  0  0  0  0  0  0  0
   -7.6699   20.1907  -30.8104 H   0  0  0  0  0  0  0  0  0  0  0  0
   -9.8429   21.3674  -32.5127 H   0  0  0  0  0  0  0  0  0  0  0  0
   -9.6134   22.0353  -30.8259 H   0  0  0  0  0  0  0  0  0  0  0  0
   -8.4488   24.3296  -31.5263 H   0  0  0  0  0  0  0  0  0  0  0  0
   -7.8967   23.1936  -30.2178 H   0  0  0  0  0  0  0  0  0  0  0  0
   -6.1592   24.4045  -32.4184 H   0  0  0  0  0  0  0  0  0  0  0  0
   -6.1555   24.8547  -30.6804 H   0  0  0  0  0  0  0  0  0  0  0  0
   -4.6004   22.8086  -27.9258 H   0  0  0  0  0  0  0  0  0  0  0  0
   -3.4438   21.2112  -26.4029 H   0  0  0  0  0  0  0  0  0  0  0  0
   -1.7357   19.4946  -26.0317 H   0  0  0  0  0  0  0  0  0  0  0  0
    0.0897   18.0441  -26.9198 H   0  0  0  0  0  0  0  0  0  0  0  0
    0.7552   18.1892  -29.3179 H   0  0  0  0  0  0  0  0  0  0  0  0
   -0.4027   19.7842  -30.8477 H   0  0  0  0  0  0  0  0  0  0  0  0
   -2.1036   21.5034  -31.2157 H   0  0  0  0  0  0  0  0  0  0  0  0
   -4.7921   21.1639  -32.0680 H   0  0  0  0  0  0  0  0  0  0  0  0
   -5.9958   20.9756  -30.7306 H   0  0  0  0  0  0  0  0  0  0  0  0
   -6.4764   22.0675  -33.5407 H   0  0  0  0  0  0  0  0  0  0  0  0
   -7.1513   20.5595  -32.7706 H   0  0  0  0  0  0  0  0  0  0  0  0
  1  2  1  0
  2  3  1  0
  3  4  1  0
  3  5  1  0
  5  6  1  0
  6  7  3  0
  7  8  1  0
  8  9  1  0
  9 10  1  0
 10 11  1  0
 11 12  1  0
 12 13  1  0
 13 14  1  0
 14 15  1  0
 15 16  1  0
 16 17  1  0
 17 18  1  0
 18 19  2  0
 18 20  1  0
 20 21  2  0
 21 22  1  0
 22 23  2  0
 23 24  1  0
 24 25  2  0
 25 26  1  0
 26 27  2  0
 27 28  1  0
 28 29  2  0
 17 30  1  0
 30 31  1  0
 31 14  1  0
 29 20  1  0
 28 23  1  0
  1 32  1  0
  1 33  1  0
  1 34  1  0
  2 35  1  0
  2 36  1  0
  3 37  1  6
  4 38  1  0
  4 39  1  0
  4 40  1  0
  5 41  1  0
  5 42  1  0
  8 43  1  0
  8 44  1  0
  9 45  1  0
  9 46  1  0
 10 47  1  0
 10 48  1  0
 11 49  1  0
 11 50  1  0
 12 51  1  0
 12 52  1  0
 13 53  1  0
 13 54  1  0
 15 55  1  0
 15 56  1  0
 16 57  1  0
 16 58  1  0
 21 59  1  0
 22 60  1  0
 24 61  1  0
 25 62  1  0
 26 63  1  0
 27 64  1  0
 29 65  1  0
 30 66  1  0
 30 67  1  0
 31 68  1  0
 31 69  1  0
M  CHG  1   3   1
M  END
>  <UniqueID>  (33) 
30

>  <SMILES>  (33) 
CC[N@@H+](C)CC#CCCCCCCN1CCN(C(=O)c2ccc3ccccc3c2)CC1

>  <Energy>  (33) 
72.50281104866221

>  <Genealogy>  (33) 
CC[NH+](C)CC#CCCCCCCN1CCN(C(=O)c2ccc3ccccc3c2)CC1 (protonated)
CC[N@@H+](C)CC#CCCCCCCN1CCN(C(=O)c2ccc3ccccc3c2)CC1 (chirality)
CC[N@@H+](C)CC#CCCCCCCN1CCN(C(=O)c2ccc3ccccc3c2)CC1 (3D coordinates assigned)
CC[N@@H+](C)CC#CCCCCCCN1CCN(C(=O)c2ccc3ccccc3c2)CC1 (nonaromatic ring conformer: 72.50281104866221 kcal/mol)

>  <smiles>  (33) 
CCN(C)CC#CCCCCCCN1CCN(C(=O)c2ccc3ccccc3c2)CC1

>  <score_type>  (33) 
oracle

>  <origin>  (33) 
adg

>  <m_score__min__energy>  (33) 
-8.5199999999999996

>  <m_primary>  (33) 
energy

$$$$
33:0
     RDKit          3D

 49 52  0  0  0  0  0  0  0  0999 V2000
   -1.8432   17.5646  -33.4051 H   0  0  0  0  0  0  0  0  0  0  0  0
   -2.0340   18.6090  -33.6930 C   0  0  0  0  0  0  0  0  0  0  0  0
   -1.3070   19.1590  -34.6080 N   0  0  0  0  0  0  0  0  0  0  0  0
    0.0470   18.9210  -34.6710 O   0  0  0  0  0  0  0  0  0  0  0  0
    0.9610   19.7430  -33.9570 C   0  0  0  0  0  0  0  0  0  0  0  0
    1.9215   19.2167  -33.8544 H   0  0  0  0  0  0  0  0  0  0  0  0
    0.5491   19.9623  -32.9609 H   0  0  0  0  0  0  0  0  0  0  0  0
    1.1760   21.0330  -34.6990 C   0  0  0  0  0  0  0  0  0  0  0  0
    0.0860   21.8400  -35.0630 C   0  0  0  0  0  0  0  0  0  0  0  0
   -0.9387   21.5183  -34.8254 H   0  0  0  0  0  0  0  0  0  0  0  0
    0.2950   23.0190  -35.7090 N   0  0  0  0  0  0  0  0  0  0  0  0
    1.5460   23.4600  -36.0100 C   0  0  0  0  0  0  0  0  0  0  0  0
    1.7530   24.9880  -36.8430 Cl  0  0  0  0  0  0  0  0  0  0  0  0
    2.6610   22.6950  -35.6550 C   0  0  0  0  0  0  0  0  0  0  0  0
    3.6754   23.0490  -35.8908 H   0  0  0  0  0  0  0  0  0  0  0  0
    2.4740   21.4770  -34.9980 C   0  0  0  0  0  0  0  0  0  0  0  0
    3.3434   20.8656  -34.7148 H   0  0  0  0  0  0  0  0  0  0  0  0
   -3.1160   19.3590  -33.0280 C   0  0  0  0  0  0  0  0  0  0  0  0
   -3.0650   20.6390  -32.4840 C   0  0  0  0  0  0  0  0  0  0  0  0
   -1.6200   21.6210  -32.2720 Cl  0  0  0  0  0  0  0  0  0  0  0  0
   -4.3000   20.9700  -32.0430 N   0  0  0  0  0  0  0  0  0  0  0  0
   -4.6940   22.1840  -31.3800 C   0  0  0  0  0  0  0  0  0  0  0  0
   -5.7010   22.9920  -31.9340 C   0  0  0  0  0  0  0  0  0  0  0  0
   -6.1817   22.6959  -32.8781 H   0  0  0  0  0  0  0  0  0  0  0  0
   -6.0960   24.1700  -31.2930 C   0  0  0  0  0  0  0  0  0  0  0  0
   -6.8926   24.7918  -31.7275 H   0  0  0  0  0  0  0  0  0  0  0  0
   -5.4790   24.5580  -30.1000 C   0  0  0  0  0  0  0  0  0  0  0  0
   -5.8024   25.4774  -29.5899 H   0  0  0  0  0  0  0  0  0  0  0  0
   -4.4480   23.7790  -29.5500 C   0  0  0  0  0  0  0  0  0  0  0  0
   -3.8020   24.1790  -28.2540 C   0  0  0  0  0  0  0  0  0  0  0  0
   -4.3925   24.9783  -27.7823 H   0  0  0  0  0  0  0  0  0  0  0  0
   -3.7587   23.3077  -27.5840 H   0  0  0  0  0  0  0  0  0  0  0  0
   -2.0030   24.8200  -28.5920 Br  0  0  0  0  0  0  0  0  0  0  0  0
   -4.0620   22.5910  -30.1910 C   0  0  0  0  0  0  0  0  0  0  0  0
   -3.2596   21.9740  -29.7603 H   0  0  0  0  0  0  0  0  0  0  0  0
   -5.1250   19.9610  -32.2800 N   0  0  0  0  0  0  0  0  0  0  0  0
   -6.1410   19.9510  -32.0360 H   0  0  0  0  0  0  0  0  0  0  0  0
   -4.4410   18.9630  -32.8720 C   0  0  0  0  0  0  0  0  0  0  0  0
   -5.0530   17.6760  -33.2670 C   0  0  0  0  0  0  0  0  0  0  0  0
   -6.2960   17.6410  -33.9210 C   0  0  0  0  0  0  0  0  0  0  0  0
   -6.8310   18.5789  -34.1312 H   0  0  0  0  0  0  0  0  0  0  0  0
   -6.8560   16.4180  -34.3060 C   0  0  0  0  0  0  0  0  0  0  0  0
   -7.8355   16.3960  -34.8061 H   0  0  0  0  0  0  0  0  0  0  0  0
   -6.1720   15.2220  -34.0560 C   0  0  0  0  0  0  0  0  0  0  0  0
   -6.9390   13.5500  -34.5780 Br  0  0  0  0  0  0  0  0  0  0  0  0
   -4.9240   15.2510  -33.4210 C   0  0  0  0  0  0  0  0  0  0  0  0
   -4.3847   14.3124  -33.2257 H   0  0  0  0  0  0  0  0  0  0  0  0
   -4.3630   16.4730  -33.0350 C   0  0  0  0  0  0  0  0  0  0  0  0
   -3.3771   16.4929  -32.5475 H   0  0  0  0  0  0  0  0  0  0  0  0
  1  2  1  0
  2  3  2  0
  3  4  1  0
  4  5  1  0
  5  6  1  0
  5  7  1  0
  5  8  1  0
  8  9  2  0
  9 10  1  0
  9 11  1  0
 11 12  2  0
 12 13  1  0
 12 14  1  0
 14 15  1  0
 14 16  2  0
 16 17  1  0
  2 18  1  0
 18 19  2  0
 19 20  1  0
 19 21  1  0
 21 22  1  0
 22 23  2  0
 23 24  1  0
 23 25  1  0
 25 26  1  0
 25 27  2  0
 27 28  1  0
 27 29  1  0
 29 30  1  0
 30 31  1  0
 30 32  1  0
 30 33  1  0
 29 34  2  0
 34 35  1  0
 21 36  1  0
 36 37  1  0
 36 38  2  0
 38 39  1  0
 39 40  2  0
 40 41  1  0
 40 42  1  0
 42 43  1  0
 42 44  2  0
 44 45  1  0
 44 46  1  0
 46 47  1  0
 46 48  2  0
 48 49  1  0
 16  8  1  0
 38 18  1  0
 48 39  1  0
 34 22  1  0
M  CHG  1  36   1
M  END
>  <UniqueID>  (34) 
31

>  <SMILES>  (34) 
Clc1ccc(CO/N=C/c2c(-c3ccc(Br)cc3)[nH+]n(-c3cccc(CBr)c3)c2Cl)cn1

>  <Energy>  (34) 
90.0980831671414

>  <Genealogy>  (34) 
Clc1ccc(CON=Cc2c(-c3ccc(Br)cc3)[nH+]n(-c3cccc(CBr)c3)c2Cl)cn1 (protonated)
Clc1ccc(CO/N=C/c2c(-c3ccc(Br)cc3)[nH+]n(-c3cccc(CBr)c3)c2Cl)cn1 (cis-trans isomerization)
Clc1ccc(CO/N=C/c2c(-c3ccc(Br)cc3)[nH+]n(-c3cccc(CBr)c3)c2Cl)cn1 (3D coordinates assigned)
Clc1ccc(CO/N=C/c2c(-c3ccc(Br)cc3)[nH+]n(-c3cccc(CBr)c3)c2Cl)cn1 (optimized conformer: 90.0980831671414 kcal/mol)

>  <smiles>  (34) 
Clc1ccc(CON=Cc2c(-c3ccc(Br)cc3)nn(-c3cccc(CBr)c3)c2Cl)cn1

>  <score_type>  (34) 
oracle

>  <origin>  (34) 
adg

>  <m_score__min__energy>  (34) 
-9.5099999999999998

>  <m_primary>  (34) 
energy

$$$$
34:0
     RDKit          3D

 43 44  0  0  0  0  0  0  0  0999 V2000
   -2.5390   23.2660  -30.0710 C   0  0  0  0  0  0  0  0  0  0  0  0
   -3.9250   23.8040  -30.2250 C   0  0  0  0  0  0  0  0  0  0  0  0
   -5.0340   22.9580  -30.0790 C   0  0  0  0  0  0  0  0  0  0  0  0
   -6.3300   23.4850  -30.1920 C   0  0  0  0  0  0  0  0  0  0  0  0
   -7.5410   22.5850  -30.0970 C   0  0  0  0  0  0  0  0  0  0  0  0
   -8.0350   22.1070  -31.4060 N   0  0  0  0  0  0  0  0  0  0  0  0
   -6.9980   21.8430  -32.4290 C   0  0  0  0  0  0  0  0  0  0  0  0
   -7.1290   20.4550  -33.0620 C   0  0  0  0  0  0  0  0  0  0  0  0
   -7.3870   19.4590  -32.0100 N   0  0  0  0  0  0  0  0  0  0  0  0
   -7.2590   18.0930  -32.5690 C   0  0  0  0  0  0  0  0  0  0  0  0
   -5.8210   17.7810  -33.0410 C   0  0  0  0  0  0  0  0  0  0  0  0
   -5.3670   16.4210  -32.4970 C   0  0  0  0  0  0  0  0  0  0  0  0
   -5.7250   17.7960  -34.5720 C   0  0  0  0  0  0  0  0  0  0  0  0
   -8.7200   19.6740  -31.3940 C   0  0  0  0  0  0  0  0  0  0  0  0
   -9.1630   21.1560  -31.3640 C   0  0  0  0  0  0  0  0  0  0  0  0
   -6.4840   24.8530  -30.4620 C   0  0  0  0  0  0  0  0  0  0  0  0
   -5.3570   25.6650  -30.5880 C   0  0  0  0  0  0  0  0  0  0  0  0
   -4.1140   25.1290  -30.4660 N   0  0  0  0  0  0  0  0  0  0  0  0
   -2.2986   23.1727  -29.0016 H   0  0  0  0  0  0  0  0  0  0  0  0
   -2.4742   22.2774  -30.5490 H   0  0  0  0  0  0  0  0  0  0  0  0
   -1.8242   23.9520  -30.5490 H   0  0  0  0  0  0  0  0  0  0  0  0
   -4.8888   21.8865  -29.8769 H   0  0  0  0  0  0  0  0  0  0  0  0
   -7.2751   21.7096  -29.4862 H   0  0  0  0  0  0  0  0  0  0  0  0
   -8.3489   23.1822  -29.6490 H   0  0  0  0  0  0  0  0  0  0  0  0
   -7.0855   22.6005  -33.2218 H   0  0  0  0  0  0  0  0  0  0  0  0
   -6.0197   21.8877  -31.9282 H   0  0  0  0  0  0  0  0  0  0  0  0
   -7.9635   20.4560  -33.7787 H   0  0  0  0  0  0  0  0  0  0  0  0
   -6.1959   20.2014  -33.5864 H   0  0  0  0  0  0  0  0  0  0  0  0
   -7.5415   17.3661  -31.7932 H   0  0  0  0  0  0  0  0  0  0  0  0
   -7.9210   18.0261  -33.4449 H   0  0  0  0  0  0  0  0  0  0  0  0
   -5.1568   18.5651  -32.6487 H   0  0  0  0  0  0  0  0  0  0  0  0
   -5.3749   16.4448  -31.3973 H   0  0  0  0  0  0  0  0  0  0  0  0
   -6.0521   15.6369  -32.8518 H   0  0  0  0  0  0  0  0  0  0  0  0
   -4.3483   16.2057  -32.8518 H   0  0  0  0  0  0  0  0  0  0  0  0
   -4.6795   17.9594  -34.8722 H   0  0  0  0  0  0  0  0  0  0  0  0
   -6.0747   16.8323  -34.9708 H   0  0  0  0  0  0  0  0  0  0  0  0
   -6.3520   18.6071  -34.9708 H   0  0  0  0  0  0  0  0  0  0  0  0
   -9.4635   19.1014  -31.9679 H   0  0  0  0  0  0  0  0  0  0  0  0
   -8.6469   19.3405  -30.3483 H   0  0  0  0  0  0  0  0  0  0  0  0
   -9.8099   21.3440  -32.2336 H   0  0  0  0  0  0  0  0  0  0  0  0
   -9.6885   21.3181  -30.4114 H   0  0  0  0  0  0  0  0  0  0  0  0
   -7.4900   25.2837  -30.5739 H   0  0  0  0  0  0  0  0  0  0  0  0
   -5.4743   26.7406  -30.7864 H   0  0  0  0  0  0  0  0  0  0  0  0
  1  2  1  0
  2  3  2  0
  3  4  1  0
  4  5  1  0
  5  6  1  0
  6  7  1  0
  7  8  1  0
  8  9  1  0
  9 10  1  0
 10 11  1  0
 11 12  1  0
 11 13  1  0
  9 14  1  0
 14 15  1  0
  4 16  2  0
 16 17  1  0
 17 18  2  0
 18  2  1  0
 15  6  1  0
  1 19  1  0
  1 20  1  0
  1 21  1  0
  3 22  1  0
  5 23  1  0
  5 24  1  0
  7 25  1  0
  7 26  1  0
  8 27  1  0
  8 28  1  0
 10 29  1  0
 10 30  1  0
 11 31  1  0
 12 32  1  0
 12 33  1  0
 12 34  1  0
 13 35  1  0
 13 36  1  0
 13 37  1  0
 14 38  1  0
 14 39  1  0
 15 40  1  0
 15 41  1  0
 16 42  1  0
 17 43  1  0
M  END
>  <UniqueID>  (35) 
32

>  <SMILES>  (35) 
Cc1cc(CN2CCN(CC(C)C)CC2)ccn1

>  <Energy>  (35) 
49.90246051756867

>  <Genealogy>  (35) 
Cc1cc(CN2CCN(CC(C)C)CC2)ccn1 (3D coordinates assigned)
Cc1cc(CN2CCN(CC(C)C)CC2)ccn1 (nonaromatic ring conformer: 49.90246051756867 kcal/mol)

>  <smiles>  (35) 
Cc1cc(CN2CCN(CC(C)C)CC2)ccn1

>  <score_type>  (35) 
oracle

>  <origin>  (35) 
adg

>  <m_score__min__energy>  (35) 
-7.6699999999999999

>  <m_primary>  (35) 
energy

$$$$
35:0
     RDKit          3D

 48 50  0  0  0  0  0  0  0  0999 V2000
   -8.6100   21.0910  -32.1270 C   0  0  0  0  0  0  0  0  0  0  0  0
   -7.2030   20.7420  -31.6240 C   0  0  1  0  0  0  0  0  0  0  0  0
   -6.3750   20.0540  -32.6720 C   0  0  0  0  0  0  0  0  0  0  0  0
   -6.7760   19.1430  -33.5770 N   0  0  0  0  0  0  0  0  0  0  0  0
   -5.7000   18.7120  -34.2210 N   0  0  0  0  0  0  0  0  0  0  0  0
   -5.7310   17.7800  -35.3410 C   0  0  0  0  0  0  0  0  0  0  0  0
   -4.6010   19.3340  -33.7400 C   0  0  0  0  0  0  0  0  0  0  0  0
   -5.0070   20.1720  -32.7220 C   0  0  0  0  0  0  0  0  0  0  0  0
   -4.2080   21.1170  -31.8730 C   0  0  0  0  0  0  0  0  0  0  0  0
   -5.0580   21.6030  -30.6780 C   0  0  0  0  0  0  0  0  0  0  0  0
   -6.4340   21.9080  -31.1210 N   0  0  0  0  0  0  0  0  0  0  0  0
   -6.7050   23.2530  -31.5670 C   0  0  0  0  0  0  0  0  0  0  0  0
   -6.7350   23.5070  -32.8000 O   0  0  0  0  0  0  0  0  0  0  0  0
   -6.8630   24.3840  -30.5770 C   0  0  0  0  0  0  0  0  0  0  0  0
   -5.5460   25.1020  -30.1900 C   0  0  2  0  0  0  0  0  0  0  0  0
   -4.4620   24.7980  -31.1280 N   0  0  0  0  0  0  0  0  0  0  0  0
   -5.1140   24.8570  -28.7250 C   0  0  0  0  0  0  0  0  0  0  0  0
   -3.8710   24.0170  -28.5720 C   0  0  0  0  0  0  0  0  0  0  0  0
   -3.9450   22.7350  -28.0030 C   0  0  0  0  0  0  0  0  0  0  0  0
   -2.7890   21.9610  -27.8540 C   0  0  0  0  0  0  0  0  0  0  0  0
   -2.8720   20.7180  -27.3180 F   0  0  0  0  0  0  0  0  0  0  0  0
   -1.5510   22.4680  -28.2560 C   0  0  0  0  0  0  0  0  0  0  0  0
   -1.4650   23.7510  -28.8030 C   0  0  0  0  0  0  0  0  0  0  0  0
   -0.2610   24.2430  -29.1880 F   0  0  0  0  0  0  0  0  0  0  0  0
   -2.6190   24.5250  -28.9580 C   0  0  0  0  0  0  0  0  0  0  0  0
   -9.2762   21.2562  -31.2674 H   0  0  0  0  0  0  0  0  0  0  0  0
   -8.5650   22.0052  -32.7371 H   0  0  0  0  0  0  0  0  0  0  0  0
   -8.9975   20.2617  -32.7371 H   0  0  0  0  0  0  0  0  0  0  0  0
   -7.3898   20.0606  -30.7810 H   0  0  0  0  0  0  0  0  0  0  0  0
   -7.7530   18.8190  -33.7560 H   0  0  0  0  0  0  0  0  0  0  0  0
   -5.7653   16.7490  -34.9592 H   0  0  0  0  0  0  0  0  0  0  0  0
   -6.6232   17.9737  -35.9546 H   0  0  0  0  0  0  0  0  0  0  0  0
   -4.8279   17.9139  -35.9546 H   0  0  0  0  0  0  0  0  0  0  0  0
   -3.5692   19.1969  -34.0958 H   0  0  0  0  0  0  0  0  0  0  0  0
   -3.3128   20.6002  -31.4967 H   0  0  0  0  0  0  0  0  0  0  0  0
   -3.9109   21.9845  -32.4807 H   0  0  0  0  0  0  0  0  0  0  0  0
   -5.0895   20.8156  -29.9105 H   0  0  0  0  0  0  0  0  0  0  0  0
   -4.6044   22.5148  -30.2623 H   0  0  0  0  0  0  0  0  0  0  0  0
   -7.5423   25.1296  -31.0159 H   0  0  0  0  0  0  0  0  0  0  0  0
   -7.2508   23.9320  -29.6522 H   0  0  0  0  0  0  0  0  0  0  0  0
   -5.7650   26.1774  -30.2641 H   0  0  0  0  0  0  0  0  0  0  0  0
   -4.8470   24.1910  -31.8880 H   0  0  0  0  0  0  0  0  0  0  0  0
   -4.1710   25.6880  -31.5960 H   0  0  0  0  0  0  0  0  0  0  0  0
   -4.9291   25.8334  -28.2534 H   0  0  0  0  0  0  0  0  0  0  0  0
   -5.9312   24.2966  -28.2473 H   0  0  0  0  0  0  0  0  0  0  0  0
   -4.9162   22.3377  -27.6730 H   0  0  0  0  0  0  0  0  0  0  0  0
   -0.6434   21.8570  -28.1419 H   0  0  0  0  0  0  0  0  0  0  0  0
   -2.5465   25.5365  -29.3842 H   0  0  0  0  0  0  0  0  0  0  0  0
  1  2  1  0
  2  3  1  0
  3  4  2  0
  4  5  1  0
  5  6  1  0
  5  7  1  0
  7  8  2  0
  8  9  1  0
  9 10  1  0
 10 11  1  0
 11 12  1  0
 12 13  2  0
 12 14  1  0
 14 15  1  0
 15 16  1  0
 15 17  1  0
 17 18  1  0
 18 19  2  0
 19 20  1  0
 20 21  1  0
 20 22  2  0
 22 23  1  0
 23 24  1  0
 23 25  2  0
 11  2  1  0
 25 18  1  0
  8  3  1  0
  1 26  1  0
  1 27  1  0
  1 28  1  0
  2 29  1  1
  4 30  1  0
  6 31  1  0
  6 32  1  0
  6 33  1  0
  7 34  1  0
  9 35  1  0
  9 36  1  0
 10 37  1  0
 10 38  1  0
 14 39  1  0
 14 40  1  0
 15 41  1  1
 16 42  1  0
 16 43  1  0
 17 44  1  0
 17 45  1  0
 19 46  1  0
 22 47  1  0
 25 48  1  0
M  CHG  1   4   1
M  END
>  <UniqueID>  (36) 
33

>  <SMILES>  (36) 
C[C@H]1c2[nH+]n(C)cc2CCN1C(=O)C[C@H](N)Cc1cc(F)cc(F)c1

>  <Energy>  (36) 
86.38240400633667

>  <Genealogy>  (36) 
CC1c2[nH+]n(C)cc2CCN1C(=O)CC(N)Cc1cc(F)cc(F)c1 (protonated)
C[C@H]1c2[nH+]n(C)cc2CCN1C(=O)C[C@H](N)Cc1cc(F)cc(F)c1 (chirality)
C[C@H]1c2[nH+]n(C)cc2CCN1C(=O)C[C@H](N)Cc1cc(F)cc(F)c1 (3D coordinates assigned)
C[C@H]1c2[nH+]n(C)cc2CCN1C(=O)C[C@H](N)Cc1cc(F)cc(F)c1 (nonaromatic ring conformer: 86.38240400633667 kcal/mol)

>  <smiles>  (36) 
CC1c2nn(C)cc2CCN1C(=O)CC(N)Cc1cc(F)cc(F)c1

>  <score_type>  (36) 
oracle

>  <origin>  (36) 
adg

>  <m_score__min__energy>  (36) 
-8.5600000000000005

>  <m_primary>  (36) 
energy

$$$$
36:0
     RDKit          3D

 42 44  0  0  0  0  0  0  0  0999 V2000
   -5.6600   25.6970  -30.1960 C   0  0  0  0  0  0  0  0  0  0  0  0
   -4.6550   24.9580  -30.8580 O   0  0  0  0  0  0  0  0  0  0  0  0
   -5.1460   23.6860  -31.2390 C   0  0  0  0  0  0  0  0  0  0  0  0
   -6.6560   23.7500  -31.5180 C   0  0  0  0  0  0  0  0  0  0  0  0
   -7.2150   22.4030  -31.7710 N   0  0  0  0  0  0  0  0  0  0  0  0
   -8.6110   22.3340  -31.2760 C   0  0  0  0  0  0  0  0  0  0  0  0
   -9.4590   21.2850  -32.0110 C   0  0  0  0  0  0  0  0  0  0  0  0
   -9.0940   19.8420  -31.6170 C   0  0  0  0  0  0  0  0  0  0  0  0
   -7.7760   19.3940  -32.0930 N   0  0  0  0  0  0  0  0  0  0  0  0
   -7.5980   18.3570  -32.9360 C   0  0  0  0  0  0  0  0  0  0  0  0
   -6.3290   18.2720  -33.3750 N   0  0  0  0  0  0  0  0  0  0  0  0
   -5.6690   19.2900  -32.7900 C   0  0  0  0  0  0  0  0  0  0  0  0
   -4.2780   19.6520  -33.1370 C   0  0  0  0  0  0  0  0  0  0  0  0
   -3.8720   20.9960  -33.0740 C   0  0  0  0  0  0  0  0  0  0  0  0
   -2.5630   21.3550  -33.4100 C   0  0  0  0  0  0  0  0  0  0  0  0
   -1.6530   20.3790  -33.8230 C   0  0  0  0  0  0  0  0  0  0  0  0
   -2.0530   19.0430  -33.9070 C   0  0  0  0  0  0  0  0  0  0  0  0
   -3.3620   18.6820  -33.5720 C   0  0  0  0  0  0  0  0  0  0  0  0
   -6.5630   19.9880  -31.9820 C   0  0  0  0  0  0  0  0  0  0  0  0
   -6.3240   21.3100  -31.2950 C   0  0  0  0  0  0  0  0  0  0  0  0
   -5.5293   25.6009  -29.1080 H   0  0  0  0  0  0  0  0  0  0  0  0
   -5.5847   26.7565  -30.4822 H   0  0  0  0  0  0  0  0  0  0  0  0
   -6.6488   25.3093  -30.4822 H   0  0  0  0  0  0  0  0  0  0  0  0
   -4.6240   23.3548  -32.1489 H   0  0  0  0  0  0  0  0  0  0  0  0
   -4.9670   22.9764  -30.4178 H   0  0  0  0  0  0  0  0  0  0  0  0
   -7.1628   24.1901  -30.6466 H   0  0  0  0  0  0  0  0  0  0  0  0
   -6.8170   24.3662  -32.4149 H   0  0  0  0  0  0  0  0  0  0  0  0
   -8.5910   22.0808  -30.2057 H   0  0  0  0  0  0  0  0  0  0  0  0
   -9.0728   23.3156  -31.4580 H   0  0  0  0  0  0  0  0  0  0  0  0
  -10.5184   21.4579  -31.7706 H   0  0  0  0  0  0  0  0  0  0  0  0
   -9.2624   21.3947  -33.0877 H   0  0  0  0  0  0  0  0  0  0  0  0
   -9.1046   19.7726  -30.5192 H   0  0  0  0  0  0  0  0  0  0  0  0
   -9.8381   19.1892  -32.0967 H   0  0  0  0  0  0  0  0  0  0  0  0
   -8.3974   17.6612  -33.2307 H   0  0  0  0  0  0  0  0  0  0  0  0
   -5.9530   17.5850  -34.0660 H   0  0  0  0  0  0  0  0  0  0  0  0
   -4.5877   21.7696  -32.7587 H   0  0  0  0  0  0  0  0  0  0  0  0
   -2.2494   22.4076  -33.3490 H   0  0  0  0  0  0  0  0  0  0  0  0
   -0.6221   20.6621  -34.0819 H   0  0  0  0  0  0  0  0  0  0  0  0
   -1.3381   18.2748  -34.2367 H   0  0  0  0  0  0  0  0  0  0  0  0
   -3.6756   17.6306  -33.6500 H   0  0  0  0  0  0  0  0  0  0  0  0
   -6.4871   21.1746  -30.2156 H   0  0  0  0  0  0  0  0  0  0  0  0
   -5.2926   21.6117  -31.5298 H   0  0  0  0  0  0  0  0  0  0  0  0
  1  2  1  0
  2  3  1  0
  3  4  1  0
  4  5  1  0
  5  6  1  0
  6  7  1  0
  7  8  1  0
  8  9  1  0
  9 10  1  0
 10 11  2  0
 11 12  1  0
 12 13  1  0
 13 14  2  0
 14 15  1  0
 15 16  2  0
 16 17  1  0
 17 18  2  0
 12 19  2  0
 19 20  1  0
 20  5  1  0
 19  9  1  0
 18 13  1  0
  1 21  1  0
  1 22  1  0
  1 23  1  0
  3 24  1  0
  3 25  1  0
  4 26  1  0
  4 27  1  0
  6 28  1  0
  6 29  1  0
  7 30  1  0
  7 31  1  0
  8 32  1  0
  8 33  1  0
 10 34  1  0
 11 35  1  0
 14 36  1  0
 15 37  1  0
 16 38  1  0
 17 39  1  0
 18 40  1  0
 20 41  1  0
 20 42  1  0
M  CHG  1  11   1
M  END
>  <UniqueID>  (37) 
34

>  <SMILES>  (37) 
COCCN1CCCn2c[nH+]c(-c3ccccc3)c2C1

>  <Energy>  (37) 
91.7934842619809

>  <Genealogy>  (37) 
COCCN1CCCn2c[nH+]c(-c3ccccc3)c2C1 (protonated)
COCCN1CCCn2c[nH+]c(-c3ccccc3)c2C1 (3D coordinates assigned)
COCCN1CCCn2c[nH+]c(-c3ccccc3)c2C1 (nonaromatic ring conformer: 91.7934842619809 kcal/mol)

>  <smiles>  (37) 
COCCN1CCCn2cnc(-c3ccccc3)c2C1

>  <score_type>  (37) 
oracle

>  <origin>  (37) 
adg

>  <m_score__min__energy>  (37) 
-5.96

>  <m_primary>  (37) 
energy

$$$$
37:0
     RDKit          3D

 34 36  0  0  1  0  0  0  0  0999 V2000
   -6.1020   19.2700  -33.8390 C   0  0  0  0  0  0  0  0  0  0  0  0
   -7.0250   20.0490  -32.9670 C   0  0  0  0  0  0  0  0  0  0  0  0
   -8.3380   19.6820  -32.7510 C   0  0  0  0  0  0  0  0  0  0  0  0
   -9.1300   20.4490  -31.9340 C   0  0  0  0  0  0  0  0  0  0  0  0
   -8.5760   21.5700  -31.3530 C   0  0  0  0  0  0  0  0  0  0  0  0
   -7.2660   21.9360  -31.5690 C   0  0  0  0  0  0  0  0  0  0  0  0
   -6.6470   23.1120  -30.9740 C   0  0  0  0  0  0  0  0  0  0  0  0
   -5.2940   23.3690  -31.0220 C   0  0  0  0  0  0  0  0  0  0  0  0
   -4.7510   24.4990  -30.4430 C   0  0  0  0  0  0  0  0  0  0  0  0
   -3.4900   24.7720  -30.4680 N   0  0  0  0  0  0  0  0  0  0  0  0
   -2.6740   24.1590  -29.4740 C   0  0  0  0  0  0  0  0  0  0  0  0
   -2.0890   22.9140  -29.6540 C   0  0  0  0  0  0  0  0  0  0  0  0
   -1.2950   22.3510  -28.6530 C   0  0  0  0  0  0  0  0  0  0  0  0
   -1.1230   23.0920  -27.4810 C   0  0  0  0  0  0  0  0  0  0  0  0
   -1.6980   24.3220  -27.2930 C   0  0  0  0  0  0  0  0  0  0  0  0
   -1.4440   25.2170  -25.7860 Cl  0  0  0  0  0  0  0  0  0  0  0  0
   -2.4780   24.8710  -28.2860 C   0  0  0  0  0  0  0  0  0  0  0  0
   -5.5390   25.4060  -29.8020 N   0  0  0  0  0  0  0  0  0  0  0  0
   -6.8580   25.1390  -29.7640 C   0  0  0  0  0  0  0  0  0  0  0  0
   -7.3980   24.0470  -30.3210 N   0  0  0  0  0  0  0  0  0  0  0  0
   -6.5200   21.1610  -32.3750 N   0  0  0  0  0  0  0  0  0  0  0  0
   -5.4109   18.6867  -33.2128 H   0  0  0  0  0  0  0  0  0  0  0  0
   -6.6861   18.5877  -34.4741 H   0  0  0  0  0  0  0  0  0  0  0  0
   -5.5275   19.9604  -34.4741 H   0  0  0  0  0  0  0  0  0  0  0  0
   -8.7468   18.7805  -33.2307 H   0  0  0  0  0  0  0  0  0  0  0  0
  -10.1793   20.1767  -31.7475 H   0  0  0  0  0  0  0  0  0  0  0  0
   -9.2008   22.1923  -30.6955 H   0  0  0  0  0  0  0  0  0  0  0  0
   -4.6303   22.6567  -31.5340 H   0  0  0  0  0  0  0  0  0  0  0  0
   -2.2521   22.3656  -30.5935 H   0  0  0  0  0  0  0  0  0  0  0  0
   -0.8244   21.3651  -28.7817 H   0  0  0  0  0  0  0  0  0  0  0  0
   -0.5012   22.6714  -26.6769 H   0  0  0  0  0  0  0  0  0  0  0  0
   -2.9419   25.8586  -28.1466 H   0  0  0  0  0  0  0  0  0  0  0  0
   -5.1320   26.2690  -29.3580 H   0  0  0  0  0  0  0  0  0  0  0  0
   -7.5228   25.8503  -29.2520 H   0  0  0  0  0  0  0  0  0  0  0  0
  1  2  1  0
  2  3  2  0
  3  4  1  0
  4  5  2  0
  5  6  1  0
  6  7  1  0
  7  8  2  0
  8  9  1  0
  9 10  2  0
 10 11  1  0
 11 12  2  0
 12 13  1  0
 13 14  2  0
 14 15  1  0
 15 16  1  0
 15 17  2  0
  9 18  1  0
 18 19  1  0
 19 20  2  0
  6 21  2  0
 21  2  1  0
 20  7  1  0
 17 11  1  0
  1 22  1  0
  1 23  1  0
  1 24  1  0
  3 25  1  0
  4 26  1  0
  5 27  1  0
  8 28  1  0
 12 29  1  0
 13 30  1  0
 14 31  1  0
 17 32  1  0
 18 33  1  0
 19 34  1  0
M  END
>  <smiles>  (38) 
Cc1cccc(-c2cc(=Nc3cccc(Cl)c3)[nH]cn2)n1

>  <score_type>  (38) 
oracle

>  <origin>  (38) 
adg

>  <m_score__min__energy>  (38) 
-8.3100000000000005

>  <m_primary>  (38) 
energy

$$$$
38:0
     RDKit          3D

 42 43  0  0  0  0  0  0  0  0999 V2000
   -3.9130   24.5070  -27.0980 C   0  0  0  0  0  0  0  0  0  0  0  0
   -3.3810   23.6590  -28.2500 C   0  0  0  0  0  0  0  0  0  0  0  0
   -2.6590   24.4870  -29.3200 C   0  0  0  0  0  0  0  0  0  0  0  0
   -3.5370   24.8340  -30.3920 O   0  0  0  0  0  0  0  0  0  0  0  0
   -4.8040   24.2810  -30.6590 C   0  0  0  0  0  0  0  0  0  0  0  0
   -6.0000   24.8850  -30.2190 C   0  0  0  0  0  0  0  0  0  0  0  0
   -7.2340   24.2970  -30.4960 C   0  0  0  0  0  0  0  0  0  0  0  0
   -7.2980   23.1030  -31.2160 C   0  0  0  0  0  0  0  0  0  0  0  0
   -8.9910   22.3000  -31.5850 Br  0  0  0  0  0  0  0  0  0  0  0  0
   -6.1240   22.4980  -31.6660 C   0  0  0  0  0  0  0  0  0  0  0  0
   -4.8740   23.0810  -31.4020 C   0  0  0  0  0  0  0  0  0  0  0  0
   -3.6200   22.3810  -31.8830 C   0  0  0  0  0  0  0  0  0  0  0  0
   -3.7330   21.9390  -33.2820 N   0  0  0  0  0  0  0  0  0  0  0  0
   -3.1910   20.5870  -33.4770 C   0  0  0  0  0  0  0  0  0  0  0  0
   -3.6760   19.6510  -32.3680 C   0  0  0  0  0  0  0  0  0  0  0  0
   -5.1620   19.4410  -32.4420 C   0  0  0  0  0  0  0  0  0  0  0  0
   -5.7990   18.5300  -31.5880 C   0  0  0  0  0  0  0  0  0  0  0  0
   -7.1760   18.3320  -31.7040 C   0  0  0  0  0  0  0  0  0  0  0  0
   -7.9000   19.0340  -32.6690 C   0  0  0  0  0  0  0  0  0  0  0  0
   -7.2310   19.9250  -33.5100 C   0  0  0  0  0  0  0  0  0  0  0  0
   -5.8890   20.1060  -33.3820 N   0  0  0  0  0  0  0  0  0  0  0  0
   -3.6248   24.0476  -26.1410 H   0  0  0  0  0  0  0  0  0  0  0  0
   -3.4880   25.5196  -27.1614 H   0  0  0  0  0  0  0  0  0  0  0  0
   -5.0096   24.5650  -27.1614 H   0  0  0  0  0  0  0  0  0  0  0  0
   -2.6754   22.9192  -27.8440 H   0  0  0  0  0  0  0  0  0  0  0  0
   -4.2457   23.1800  -28.7326 H   0  0  0  0  0  0  0  0  0  0  0  0
   -2.2745   25.4091  -28.8597 H   0  0  0  0  0  0  0  0  0  0  0  0
   -1.8363   23.8819  -29.7288 H   0  0  0  0  0  0  0  0  0  0  0  0
   -5.9593   25.8273  -29.6529 H   0  0  0  0  0  0  0  0  0  0  0  0
   -8.1602   24.7760  -30.1457 H   0  0  0  0  0  0  0  0  0  0  0  0
   -6.1780   21.5565  -32.2323 H   0  0  0  0  0  0  0  0  0  0  0  0
   -2.7715   23.0760  -31.7983 H   0  0  0  0  0  0  0  0  0  0  0  0
   -3.4699   21.4886  -31.2576 H   0  0  0  0  0  0  0  0  0  0  0  0
   -4.7410   21.9450  -33.5650 H   0  0  0  0  0  0  0  0  0  0  0  0
   -3.5262   20.1994  -34.4504 H   0  0  0  0  0  0  0  0  0  0  0  0
   -2.0925   20.6359  -33.4466 H   0  0  0  0  0  0  0  0  0  0  0  0
   -3.1711   18.6793  -32.4729 H   0  0  0  0  0  0  0  0  0  0  0  0
   -3.4381   20.1103  -31.3972 H   0  0  0  0  0  0  0  0  0  0  0  0
   -5.2197   17.9768  -30.8341 H   0  0  0  0  0  0  0  0  0  0  0  0
   -7.6893   17.6243  -31.0364 H   0  0  0  0  0  0  0  0  0  0  0  0
   -8.9858   18.8868  -32.7657 H   0  0  0  0  0  0  0  0  0  0  0  0
   -7.7897   20.4813  -34.2770 H   0  0  0  0  0  0  0  0  0  0  0  0
  1  2  1  0
  2  3  1  0
  3  4  1  0
  4  5  1  0
  5  6  2  0
  6  7  1  0
  7  8  2  0
  8  9  1  0
  8 10  1  0
 10 11  2  0
 11 12  1  0
 12 13  1  0
 13 14  1  0
 14 15  1  0
 15 16  1  0
 16 17  2  0
 17 18  1  0
 18 19  2  0
 19 20  1  0
 20 21  2  0
 11  5  1  0
 21 16  1  0
  1 22  1  0
  1 23  1  0
  1 24  1  0
  2 25  1  0
  2 26  1  0
  3 27  1  0
  3 28  1  0
  6 29  1  0
  7 30  1  0
 10 31  1  0
 12 32  1  0
 12 33  1  0
 13 34  1  0
 14 35  1  0
 14 36  1  0
 15 37  1  0
 15 38  1  0
 17 39  1  0
 18 40  1  0
 19 41  1  0
 20 42  1  0
M  END
>  <UniqueID>  (39) 
35

>  <SMILES>  (39) 
CCCOc1ccc(Br)cc1CNCCc1ccccn1

>  <Energy>  (39) 
36.09228612865071

>  <Genealogy>  (39) 
CCCOc1ccc(Br)cc1CNCCc1ccccn1 (3D coordinates assigned)
CCCOc1ccc(Br)cc1CNCCc1ccccn1 (optimized conformer: 36.09228612865071 kcal/mol)

>  <smiles>  (39) 
CCCOc1ccc(Br)cc1CNCCc1ccccn1

>  <score_type>  (39) 
oracle

>  <origin>  (39) 
adg

>  <m_score__min__energy>  (39) 
-7.8899999999999997

>  <m_primary>  (39) 
energy

$$$$
39:0
     RDKit          3D

 49 51  0  0  0  0  0  0  0  0999 V2000
   -5.2560   25.6580  -30.4800 C   0  0  0  0  0  0  0  0  0  0  0  0
   -3.8750   25.3160  -30.4420 O   0  0  0  0  0  0  0  0  0  0  0  0
   -3.3240   24.3150  -29.6260 C   0  0  0  0  0  0  0  0  0  0  0  0
   -2.3540   24.5990  -28.6440 C   0  0  0  0  0  0  0  0  0  0  0  0
   -1.8160   23.5710  -27.8660 C   0  0  0  0  0  0  0  0  0  0  0  0
   -2.2340   22.2530  -28.0580 C   0  0  0  0  0  0  0  0  0  0  0  0
   -3.1980   21.9600  -29.0250 C   0  0  0  0  0  0  0  0  0  0  0  0
   -3.7510   22.9850  -29.8060 C   0  0  0  0  0  0  0  0  0  0  0  0
   -4.7410   22.6700  -30.7950 N   0  0  0  0  0  0  0  0  0  0  0  0
   -6.1300   22.4400  -30.3850 C   0  0  0  0  0  0  0  0  0  0  0  0
   -7.0670   22.4510  -31.6040 C   0  0  0  0  0  0  0  0  0  0  0  0
   -6.6240   21.5470  -32.7020 N   0  0  0  0  0  0  0  0  0  0  0  0
   -7.4570   20.0100  -32.6070 S   0  0  0  0  0  0  0  0  0  0  0  0
   -7.8490   19.7500  -31.1780 O   0  0  0  0  0  0  0  0  0  0  0  0
   -8.7130   20.0560  -33.4320 O   0  0  0  0  0  0  0  0  0  0  0  0
   -6.4230   18.6850  -33.1860 C   0  0  0  0  0  0  0  0  0  0  0  0
   -6.0100   18.6910  -34.5280 C   0  0  0  0  0  0  0  0  0  0  0  0
   -5.2380   17.6900  -35.0190 N   0  0  0  0  0  0  0  0  0  0  0  0
   -4.8340   16.6470  -34.2490 C   0  0  0  0  0  0  0  0  0  0  0  0
   -3.9910   15.5550  -34.8420 C   0  0  0  0  0  0  0  0  0  0  0  0
   -3.5060   15.9590  -36.0730 F   0  0  0  0  0  0  0  0  0  0  0  0
   -2.9280   15.2800  -34.0010 F   0  0  0  0  0  0  0  0  0  0  0  0
   -4.7380   14.4020  -35.0120 F   0  0  0  0  0  0  0  0  0  0  0  0
   -5.2220   16.5900  -32.9060 C   0  0  0  0  0  0  0  0  0  0  0  0
   -6.0080   17.6140  -32.3550 C   0  0  0  0  0  0  0  0  0  0  0  0
   -6.4430   17.4850  -30.9190 C   0  0  0  0  0  0  0  0  0  0  0  0
   -5.1570   21.3230  -32.7770 C   0  0  0  0  0  0  0  0  0  0  0  0
   -4.3620   22.4940  -32.1980 C   0  0  0  0  0  0  0  0  0  0  0  0
   -5.6387   25.7528  -29.4531 H   0  0  0  0  0  0  0  0  0  0  0  0
   -5.3824   26.6146  -31.0082 H   0  0  0  0  0  0  0  0  0  0  0  0
   -5.8143   24.8710  -31.0082 H   0  0  0  0  0  0  0  0  0  0  0  0
   -2.0188   25.6352  -28.4893 H   0  0  0  0  0  0  0  0  0  0  0  0
   -1.0608   23.8008  -27.0999 H   0  0  0  0  0  0  0  0  0  0  0  0
   -1.8040   21.4452  -27.4476 H   0  0  0  0  0  0  0  0  0  0  0  0
   -3.5250   20.9205  -29.1747 H   0  0  0  0  0  0  0  0  0  0  0  0
   -6.2013   21.4634  -29.8839 H   0  0  0  0  0  0  0  0  0  0  0  0
   -6.4335   23.2447  -29.6992 H   0  0  0  0  0  0  0  0  0  0  0  0
   -8.0686   22.1358  -31.2762 H   0  0  0  0  0  0  0  0  0  0  0  0
   -7.0628   23.4748  -32.0062 H   0  0  0  0  0  0  0  0  0  0  0  0
   -6.9250   21.9930  -33.5980 H   0  0  0  0  0  0  0  0  0  0  0  0
   -6.3158   19.5162  -35.1879 H   0  0  0  0  0  0  0  0  0  0  0  0
   -4.9103   15.7406  -32.2804 H   0  0  0  0  0  0  0  0  0  0  0  0
   -5.6008   17.7348  -30.2569 H   0  0  0  0  0  0  0  0  0  0  0  0
   -7.2783   18.1741  -30.7256 H   0  0  0  0  0  0  0  0  0  0  0  0
   -6.7676   16.4519  -30.7256 H   0  0  0  0  0  0  0  0  0  0  0  0
   -4.9086   20.4126  -32.2118 H   0  0  0  0  0  0  0  0  0  0  0  0
   -4.8851   21.2230  -33.8382 H   0  0  0  0  0  0  0  0  0  0  0  0
   -3.2851   22.2803  -32.2666 H   0  0  0  0  0  0  0  0  0  0  0  0
   -4.5808   23.4118  -32.7635 H   0  0  0  0  0  0  0  0  0  0  0  0
  1  2  1  0
  2  3  1  0
  3  4  2  0
  4  5  1  0
  5  6  2  0
  6  7  1  0
  7  8  2  0
  8  9  1  0
  9 10  1  0
 10 11  1  0
 11 12  1  0
 12 13  1  0
 13 14  2  0
 13 15  2  0
 13 16  1  0
 16 17  2  0
 17 18  1  0
 18 19  2  0
 19 20  1  0
 20 21  1  0
 20 22  1  0
 20 23  1  0
 19 24  1  0
 24 25  2  0
 25 26  1  0
 12 27  1  0
 27 28  1  0
  8  3  1  0
 28  9  1  0
 25 16  1  0
  1 29  1  0
  1 30  1  0
  1 31  1  0
  4 32  1  0
  5 33  1  0
  6 34  1  0
  7 35  1  0
 10 36  1  0
 10 37  1  0
 11 38  1  0
 11 39  1  0
 12 40  1  0
 17 41  1  0
 24 42  1  0
 26 43  1  0
 26 44  1  0
 26 45  1  0
 27 46  1  0
 27 47  1  0
 28 48  1  0
 28 49  1  0
M  CHG  1  12   1
M  END
>  <UniqueID>  (40) 
36

>  <SMILES>  (40) 
COc1ccccc1N1CC[NH+](S(=O)(=O)c2cnc(C(F)(F)F)cc2C)CC1

>  <Energy>  (40) 
62.36046545040253

>  <Genealogy>  (40) 
COc1ccccc1N1CC[NH+](S(=O)(=O)c2cnc(C(F)(F)F)cc2C)CC1 (protonated)
COc1ccccc1N1CC[NH+](S(=O)(=O)c2cnc(C(F)(F)F)cc2C)CC1 (3D coordinates assigned)
COc1ccccc1N1CC[NH+](S(=O)(=O)c2cnc(C(F)(F)F)cc2C)CC1 (nonaromatic ring conformer: 62.36046545040253 kcal/mol)

>  <smiles>  (40) 
COc1ccccc1N1CCN(S(=O)(=O)c2cnc(C(F)(F)F)cc2C)CC1

>  <score_type>  (40) 
oracle

>  <origin>  (40) 
adg

>  <m_score__min__energy>  (40) 
-8.2899999999999991

>  <m_primary>  (40) 
energy

$$$$
40:0
     RDKit          3D

 33 35  0  0  0  0  0  0  0  0999 V2000
   -6.3858   16.9045  -30.6125 H   0  0  0  0  0  0  0  0  0  0  0  0
   -6.2750   17.7640  -31.2900 C   0  0  0  0  0  0  0  0  0  0  0  0
   -5.9014   18.7240  -30.9041 H   0  0  0  0  0  0  0  0  0  0  0  0
   -6.5940   17.6420  -32.5810 C   0  0  0  0  0  0  0  0  0  0  0  0
   -6.9663   16.6759  -32.9525 H   0  0  0  0  0  0  0  0  0  0  0  0
   -6.4570   18.7920  -33.5390 C   0  0  0  0  0  0  0  0  0  0  0  0
   -5.4002   18.9026  -33.8236 H   0  0  0  0  0  0  0  0  0  0  0  0
   -7.0694   18.5888  -34.4299 H   0  0  0  0  0  0  0  0  0  0  0  0
   -6.9220   20.0350  -32.9160 N   0  0  0  0  0  0  0  0  0  0  0  0
   -6.1080   21.1810  -32.7070 C   0  0  0  0  0  0  0  0  0  0  0  0
   -4.8910   21.2100  -33.0350 O   0  0  0  0  0  0  0  0  0  0  0  0
   -6.8010   22.2710  -32.0140 C   0  0  0  0  0  0  0  0  0  0  0  0
   -6.3400   23.5100  -31.7870 C   0  0  0  0  0  0  0  0  0  0  0  0
   -6.7355   24.3214  -32.4157 H   0  0  0  0  0  0  0  0  0  0  0  0
   -5.3450   23.8690  -30.7610 C   0  0  0  0  0  0  0  0  0  0  0  0
   -4.0920   23.3470  -30.8460 N   0  0  0  0  0  0  0  0  0  0  0  0
   -3.1530   23.6030  -29.8980 C   0  0  0  0  0  0  0  0  0  0  0  0
   -1.8650   23.0710  -30.0140 C   0  0  0  0  0  0  0  0  0  0  0  0
   -1.6053   22.4397  -30.8766 H   0  0  0  0  0  0  0  0  0  0  0  0
   -0.9070   23.3430  -29.0310 C   0  0  0  0  0  0  0  0  0  0  0  0
    0.1065   22.9252  -29.1217 H   0  0  0  0  0  0  0  0  0  0  0  0
   -1.2360   24.1460  -27.9320 C   0  0  0  0  0  0  0  0  0  0  0  0
   -0.4792   24.3586  -27.1626 H   0  0  0  0  0  0  0  0  0  0  0  0
   -2.5240   24.6790  -27.8090 C   0  0  0  0  0  0  0  0  0  0  0  0
   -2.7794   25.3069  -26.9427 H   0  0  0  0  0  0  0  0  0  0  0  0
   -3.4890   24.4120  -28.7910 C   0  0  0  0  0  0  0  0  0  0  0  0
   -4.7540   24.9100  -28.6910 N   0  0  0  0  0  0  0  0  0  0  0  0
   -5.0260   25.4980  -27.8700 H   0  0  0  0  0  0  0  0  0  0  0  0
   -5.6880   24.6470  -29.6440 C   0  0  0  0  0  0  0  0  0  0  0  0
   -6.7091   25.0427  -29.5398 H   0  0  0  0  0  0  0  0  0  0  0  0
   -8.4150   21.7610  -31.4140 S   0  0  0  0  0  0  0  0  0  0  0  0
   -8.2050   20.2190  -32.3110 C   0  0  0  0  0  0  0  0  0  0  0  0
   -9.5020   19.3060  -32.7140 S   0  0  0  0  0  0  0  0  0  0  0  0
  1  2  1  0
  2  3  1  0
  2  4  2  0
  4  5  1  0
  4  6  1  0
  6  7  1  0
  6  8  1  0
  6  9  1  0
  9 10  1  0
 10 11  2  0
 10 12  1  0
 12 13  2  0
 13 14  1  0
 13 15  1  0
 15 16  2  0
 16 17  1  0
 17 18  2  0
 18 19  1  0
 18 20  1  0
 20 21  1  0
 20 22  2  0
 22 23  1  0
 22 24  1  0
 24 25  1  0
 24 26  2  0
 26 27  1  0
 27 28  1  0
 27 29  2  0
 29 30  1  0
 12 31  1  0
 31 32  1  0
 32 33  2  0
 32  9  1  0
 29 15  1  0
 26 17  1  0
M  CHG  1  27   1
M  END
>  <UniqueID>  (41) 
37

>  <SMILES>  (41) 
C=CCN1C(=O)/C(=C\c2c[nH+]c3ccccc3n2)SC1=S

>  <Energy>  (41) 
62.29280424297399

>  <Genealogy>  (41) 
C=CCN1C(=O)C(=Cc2c[nH+]c3ccccc3n2)SC1=S (protonated)
C=CCN1C(=O)/C(=C\c2c[nH+]c3ccccc3n2)SC1=S (cis-trans isomerization)
C=CCN1C(=O)/C(=C\c2c[nH+]c3ccccc3n2)SC1=S (3D coordinates assigned)
C=CCN1C(=O)/C(=C\c2c[nH+]c3ccccc3n2)SC1=S (nonaromatic ring conformer: 62.29280424297399 kcal/mol)

>  <smiles>  (41) 
C=CCN1C(=O)C(=Cc2cnc3ccccc3n2)SC1=S

>  <score_type>  (41) 
oracle

>  <origin>  (41) 
adg

>  <m_score__min__energy>  (41) 
-7.3499999999999996

>  <m_primary>  (41) 
energy

$$$$
41:0
     RDKit          3D

 49 50  0  0  0  0  0  0  0  0999 V2000
   -0.8770   21.9220  -31.1760 C   0  0  0  0  0  0  0  0  0  0  0  0
   -0.8840   21.5780  -29.6890 C   0  0  0  0  0  0  0  0  0  0  0  0
   -1.6560   22.6000  -28.8360 C   0  0  0  0  0  0  0  0  0  0  0  0
   -2.8050   23.1740  -29.5730 N   0  0  0  0  0  0  0  0  0  0  0  0
   -3.8030   22.3830  -30.1130 C   0  0  0  0  0  0  0  0  0  0  0  0
   -3.7640   20.9460  -30.0160 N   0  0  0  0  0  0  0  0  0  0  0  0
   -4.8830   22.9890  -30.7900 C   0  0  0  0  0  0  0  0  0  0  0  0
   -5.9300   22.2010  -31.3860 N   0  0  0  0  0  0  0  0  0  0  0  0
   -7.3130   22.4330  -30.9490 C   0  0  0  0  0  0  0  0  0  0  0  0
   -8.1100   23.1670  -32.0340 C   0  0  0  0  0  0  0  0  0  0  0  0
   -9.3320   22.4990  -32.2780 O   0  0  0  0  0  0  0  0  0  0  0  0
   -9.5820   21.5410  -31.2730 C   0  0  0  0  0  0  0  0  0  0  0  0
   -5.5740   21.1820  -32.3490 C   0  0  0  0  0  0  0  0  0  0  0  0
   -4.4050   21.1670  -32.8230 O   0  0  0  0  0  0  0  0  0  0  0  0
   -6.5530   20.1090  -32.7830 C   0  0  0  0  0  0  0  0  0  0  0  0
   -5.9270   19.0530  -33.6870 C   0  0  0  0  0  0  0  0  0  0  0  0
   -6.8080   17.8240  -33.5210 C   0  0  0  0  0  0  0  0  0  0  0  0
   -7.4750   17.9480  -32.1500 C   0  0  0  0  0  0  0  0  0  0  0  0
   -7.1110   19.3250  -31.6000 C   0  0  0  0  0  0  0  0  0  0  0  0
   -4.9130   24.3800  -30.8960 C   0  0  0  0  0  0  0  0  0  0  0  0
   -5.8670   24.9580  -31.4830 O   0  0  0  0  0  0  0  0  0  0  0  0
   -3.9160   25.1170  -30.3620 N   0  0  0  0  0  0  0  0  0  0  0  0
   -2.8760   24.5410  -29.7120 C   0  0  0  0  0  0  0  0  0  0  0  0
   -1.9780   25.2880  -29.2350 O   0  0  0  0  0  0  0  0  0  0  0  0
   -0.8548   23.0148  -31.2994 H   0  0  0  0  0  0  0  0  0  0  0  0
    0.0124   21.4813  -31.6501 H   0  0  0  0  0  0  0  0  0  0  0  0
   -1.7836   21.5178  -31.6501 H   0  0  0  0  0  0  0  0  0  0  0  0
   -1.3514   20.5906  -29.5604 H   0  0  0  0  0  0  0  0  0  0  0  0
    0.1610   21.5872  -29.3455 H   0  0  0  0  0  0  0  0  0  0  0  0
   -2.0282   22.0991  -27.9301 H   0  0  0  0  0  0  0  0  0  0  0  0
   -0.9693   23.4203  -28.5799 H   0  0  0  0  0  0  0  0  0  0  0  0
   -3.5160   20.4380  -29.1430 H   0  0  0  0  0  0  0  0  0  0  0  0
   -3.9010   20.3430  -30.8550 H   0  0  0  0  0  0  0  0  0  0  0  0
   -7.7929   21.4652  -30.7413 H   0  0  0  0  0  0  0  0  0  0  0  0
   -7.2969   23.0545  -30.0415 H   0  0  0  0  0  0  0  0  0  0  0  0
   -8.3178   24.1943  -31.7000 H   0  0  0  0  0  0  0  0  0  0  0  0
   -7.5197   23.1861  -32.9620 H   0  0  0  0  0  0  0  0  0  0  0  0
   -9.4604   22.0069  -30.2840 H   0  0  0  0  0  0  0  0  0  0  0  0
  -10.6093   21.1614  -31.3757 H   0  0  0  0  0  0  0  0  0  0  0  0
   -8.8712   20.7078  -31.3757 H   0  0  0  0  0  0  0  0  0  0  0  0
   -7.3340   20.6734  -33.3136 H   0  0  0  0  0  0  0  0  0  0  0  0
   -5.9268   19.3905  -34.7339 H   0  0  0  0  0  0  0  0  0  0  0  0
   -4.8787   18.8500  -33.4225 H   0  0  0  0  0  0  0  0  0  0  0  0
   -7.5707   17.7937  -34.3130 H   0  0  0  0  0  0  0  0  0  0  0  0
   -6.2171   16.8990  -33.5931 H   0  0  0  0  0  0  0  0  0  0  0  0
   -8.5666   17.8581  -32.2514 H   0  0  0  0  0  0  0  0  0  0  0  0
   -7.1324   17.1515  -31.4730 H   0  0  0  0  0  0  0  0  0  0  0  0
   -8.0038   19.8246  -31.1959 H   0  0  0  0  0  0  0  0  0  0  0  0
   -6.3812   19.2541  -30.7800 H   0  0  0  0  0  0  0  0  0  0  0  0
  1  2  1  0
  2  3  1  0
  3  4  1  0
  4  5  1  0
  5  6  1  0
  5  7  2  0
  7  8  1  0
  8  9  1  0
  9 10  1  0
 10 11  1  0
 11 12  1  0
  8 13  1  0
 13 14  2  0
 13 15  1  0
 15 16  1  0
 16 17  1  0
 17 18  1  0
 18 19  1  0
  7 20  1  0
 20 21  2  0
 20 22  1  0
 22 23  1  0
 23 24  2  0
 23  4  1  0
 19 15  1  0
  1 25  1  0
  1 26  1  0
  1 27  1  0
  2 28  1  0
  2 29  1  0
  3 30  1  0
  3 31  1  0
  6 32  1  0
  6 33  1  0
  9 34  1  0
  9 35  1  0
 10 36  1  0
 10 37  1  0
 12 38  1  0
 12 39  1  0
 12 40  1  0
 15 41  1  0
 16 42  1  0
 16 43  1  0
 17 44  1  0
 17 45  1  0
 18 46  1  0
 18 47  1  0
 19 48  1  0
 19 49  1  0
M  CHG  1  22  -1
M  END
>  <UniqueID>  (42) 
38

>  <SMILES>  (42) 
CCCn1c(N)c(N(CCOC)C(=O)C2CCCC2)c(=O)[n-]c1=O

>  <Energy>  (42) 
58.663287527889665

>  <Genealogy>  (42) 
CCCn1c(N)c(N(CCOC)C(=O)C2CCCC2)c(=O)[n-]c1=O (protonated)
CCCn1c(N)c(N(CCOC)C(=O)C2CCCC2)c(=O)[n-]c1=O (3D coordinates assigned)
CCCn1c(N)c(N(CCOC)C(=O)C2CCCC2)c(=O)[n-]c1=O (nonaromatic ring conformer: 58.663287527889665 kcal/mol)

>  <smiles>  (42) 
CCCn1c(N)c(N(CCOC)C(=O)C2CCCC2)c(=O)[nH]c1=O

>  <score_type>  (42) 
oracle

>  <origin>  (42) 
adg

>  <m_score__min__energy>  (42) 
-7.9199999999999999

>  <m_primary>  (42) 
energy

$$$$
42:0
     RDKit          3D

 94 98  0  0  0  0  0  0  0  0999 V2000
   -1.5400   28.3320  -34.6020 C   0  0  0  0  0  0  0  0  0  0  0  0
   -1.8380   28.6260  -36.0650 C   0  0  0  0  0  0  0  0  0  0  0  0
   -0.6800   28.2940  -36.9000 N   0  0  0  0  0  0  0  0  0  0  0  0
   -0.0730   29.0930  -37.8190 C   0  0  0  0  0  0  0  0  0  0  0  0
   -0.5330   30.4710  -38.1870 C   0  0  0  0  0  0  0  0  0  0  0  0
    1.0220   28.4500  -38.3900 C   0  0  0  0  0  0  0  0  0  0  0  0
    1.0820   27.2220  -37.7670 C   0  0  0  0  0  0  0  0  0  0  0  0
    1.9890   26.1780  -37.9290 C   0  0  0  0  0  0  0  0  0  0  0  0
    1.8300   25.0260  -37.1200 C   0  0  0  0  0  0  0  0  0  0  0  0
    2.7020   23.9310  -37.1950 O   0  0  0  0  0  0  0  0  0  0  0  0
    3.1930   23.2070  -36.0690 C   0  0  0  0  0  0  0  0  0  0  0  0
    2.4170   21.9030  -35.9280 C   0  0  0  0  0  0  0  0  0  0  0  0
    1.1690   22.0380  -36.5760 O   0  0  0  0  0  0  0  0  0  0  0  0
    0.2800   21.0140  -36.1730 C   0  0  0  0  0  0  0  0  0  0  0  0
    0.5310   20.6330  -34.7130 C   0  0  0  0  0  0  0  0  0  0  0  0
   -0.0930   21.5770  -33.8600 O   0  0  0  0  0  0  0  0  0  0  0  0
   -0.0710   21.1420  -32.5160 C   0  0  0  0  0  0  0  0  0  0  0  0
   -1.4980   21.0570  -31.9790 C   0  0  0  0  0  0  0  0  0  0  0  0
   -1.9150   22.3040  -31.4520 O   0  0  0  0  0  0  0  0  0  0  0  0
   -1.4910   22.4530  -30.1120 C   0  0  0  0  0  0  0  0  0  0  0  0
   -2.6070   23.0980  -29.2940 C   0  0  0  0  0  0  0  0  0  0  0  0
   -3.6900   23.5590  -30.1580 N   0  0  0  0  0  0  0  0  0  0  0  0
   -4.6130   22.7980  -30.7710 C   0  0  0  0  0  0  0  0  0  0  0  0
   -5.4380   23.6730  -31.4420 C   0  0  0  0  0  0  0  0  0  0  0  0
   -6.6530   23.3260  -32.2490 C   0  0  0  0  0  0  0  0  0  0  0  0
   -7.9530   23.4300  -31.4390 C   0  0  0  0  0  0  0  0  0  0  0  0
   -8.2220   22.1680  -30.6030 C   0  0  0  0  0  0  0  0  0  0  0  0
   -8.7630   20.9760  -31.4240 C   0  0  0  0  0  0  0  0  0  0  0  0
   -7.7360   20.0500  -31.9590 N   0  0  0  0  0  0  0  0  0  0  0  0
   -7.2820   20.3330  -33.3300 C   0  0  0  0  0  0  0  0  0  0  0  0
   -6.0220   19.5240  -33.6270 C   0  0  0  0  0  0  0  0  0  0  0  0
   -6.2270   18.0990  -33.3370 N   0  0  0  0  0  0  0  0  0  0  0  0
   -5.2160   17.1600  -33.7610 C   0  0  0  0  0  0  0  0  0  0  0  0
   -5.0500   15.9160  -33.1220 C   0  0  0  0  0  0  0  0  0  0  0  0
   -4.0680   15.0340  -33.5770 C   0  0  0  0  0  0  0  0  0  0  0  0
   -3.2680   15.3850  -34.6650 C   0  0  0  0  0  0  0  0  0  0  0  0
   -3.4650   16.6180  -35.2870 C   0  0  0  0  0  0  0  0  0  0  0  0
   -4.4240   17.4650  -34.8290 N   0  0  0  0  0  0  0  0  0  0  0  0
   -7.4960   17.6510  -32.7370 C   0  0  0  0  0  0  0  0  0  0  0  0
   -7.9650   18.6200  -31.6380 C   0  0  0  0  0  0  0  0  0  0  0  0
   -4.9890   24.9280  -31.2360 N   0  0  0  0  0  0  0  0  0  0  0  0
   -3.9240   24.8280  -30.4550 N   0  0  0  0  0  0  0  0  0  0  0  0
    0.7670   24.9680  -36.1900 C   0  0  0  0  0  0  0  0  0  0  0  0
   -0.1370   26.0360  -36.0580 C   0  0  0  0  0  0  0  0  0  0  0  0
    0.0490   27.1570  -36.8680 C   0  0  0  0  0  0  0  0  0  0  0  0
   -2.1780   28.9614  -33.9642 H   0  0  0  0  0  0  0  0  0  0  0  0
   -1.7441   27.2717  -34.3921 H   0  0  0  0  0  0  0  0  0  0  0  0
   -0.4825   28.5504  -34.3921 H   0  0  0  0  0  0  0  0  0  0  0  0
   -2.7010   28.0247  -36.3869 H   0  0  0  0  0  0  0  0  0  0  0  0
   -2.0612   29.6975  -36.1749 H   0  0  0  0  0  0  0  0  0  0  0  0
   -0.7262   31.0497  -37.2717 H   0  0  0  0  0  0  0  0  0  0  0  0
    0.2467   30.9718  -38.7797 H   0  0  0  0  0  0  0  0  0  0  0  0
   -1.4572   30.4030  -38.7797 H   0  0  0  0  0  0  0  0  0  0  0  0
    1.6939   28.8381  -39.1697 H   0  0  0  0  0  0  0  0  0  0  0  0
    2.8050   26.2458  -38.6636 H   0  0  0  0  0  0  0  0  0  0  0  0
    4.2607   22.9850  -36.2126 H   0  0  0  0  0  0  0  0  0  0  0  0
    3.0642   23.8114  -35.1590 H   0  0  0  0  0  0  0  0  0  0  0  0
    2.9861   21.0833  -36.3909 H   0  0  0  0  0  0  0  0  0  0  0  0
    2.2602   21.6772  -34.8629 H   0  0  0  0  0  0  0  0  0  0  0  0
   -0.7553   21.3694  -36.2819 H   0  0  0  0  0  0  0  0  0  0  0  0
    0.4448   20.1294  -36.8057 H   0  0  0  0  0  0  0  0  0  0  0  0
    0.1148   19.6334  -34.5190 H   0  0  0  0  0  0  0  0  0  0  0  0
    1.6137   20.6258  -34.5189 H   0  0  0  0  0  0  0  0  0  0  0  0
    0.4002   20.1496  -32.4606 H   0  0  0  0  0  0  0  0  0  0  0  0
    0.5039   21.8583  -31.9107 H   0  0  0  0  0  0  0  0  0  0  0  0
   -2.1740   20.7676  -32.7971 H   0  0  0  0  0  0  0  0  0  0  0  0
   -1.5264   20.3080  -31.1739 H   0  0  0  0  0  0  0  0  0  0  0  0
   -1.2517   21.4653  -29.6911 H   0  0  0  0  0  0  0  0  0  0  0  0
   -0.5962   23.0919  -30.0794 H   0  0  0  0  0  0  0  0  0  0  0  0
   -3.0043   22.3593  -28.5823 H   0  0  0  0  0  0  0  0  0  0  0  0
   -2.1927   23.9650  -28.7586 H   0  0  0  0  0  0  0  0  0  0  0  0
   -4.6930   21.7013  -30.7425 H   0  0  0  0  0  0  0  0  0  0  0  0
   -6.7155   24.0147  -33.1044 H   0  0  0  0  0  0  0  0  0  0  0  0
   -6.5476   22.2806  -32.5746 H   0  0  0  0  0  0  0  0  0  0  0  0
   -7.8798   24.2939  -30.7620 H   0  0  0  0  0  0  0  0  0  0  0  0
   -8.7842   23.5462  -32.1500 H   0  0  0  0  0  0  0  0  0  0  0  0
   -7.2793   21.8608  -30.1266 H   0  0  0  0  0  0  0  0  0  0  0  0
   -8.9998   22.4302  -29.8707 H   0  0  0  0  0  0  0  0  0  0  0  0
   -9.4370   20.3965  -30.7760 H   0  0  0  0  0  0  0  0  0  0  0  0
   -9.2599   21.4150  -32.3017 H   0  0  0  0  0  0  0  0  0  0  0  0
   -8.0725   20.0549  -34.0426 H   0  0  0  0  0  0  0  0  0  0  0  0
   -7.0600   21.4059  -33.4282 H   0  0  0  0  0  0  0  0  0  0  0  0
   -5.7626   19.6405  -34.6896 H   0  0  0  0  0  0  0  0  0  0  0  0
   -5.2089   19.8969  -32.9869 H   0  0  0  0  0  0  0  0  0  0  0  0
   -5.6896   15.6412  -32.2703 H   0  0  0  0  0  0  0  0  0  0  0  0
   -3.9252   14.0639  -33.0785 H   0  0  0  0  0  0  0  0  0  0  0  0
   -2.4905   14.6969  -35.0283 H   0  0  0  0  0  0  0  0  0  0  0  0
   -2.8439   16.9048  -36.1484 H   0  0  0  0  0  0  0  0  0  0  0  0
   -8.2652   17.5991  -33.5216 H   0  0  0  0  0  0  0  0  0  0  0  0
   -7.3366   16.6615  -32.2838 H   0  0  0  0  0  0  0  0  0  0  0  0
   -9.0431   18.4689  -31.4802 H   0  0  0  0  0  0  0  0  0  0  0  0
   -7.3709   18.3955  -30.7399 H   0  0  0  0  0  0  0  0  0  0  0  0
    0.6456   24.0741  -35.5606 H   0  0  0  0  0  0  0  0  0  0  0  0
   -0.9668   25.9896  -35.3374 H   0  0  0  0  0  0  0  0  0  0  0  0
  1  2  1  0
  2  3  1  0
  3  4  1  0
  4  5  1  0
  4  6  2  0
  6  7  1  0
  7  8  2  0
  8  9  1  0
  9 10  1  0
 10 11  1  0
 11 12  1  0
 12 13  1  0
 13 14  1  0
 14 15  1  0
 15 16  1  0
 16 17  1  0
 17 18  1  0
 18 19  1  0
 19 20  1  0
 20 21  1  0
 21 22  1  0
 22 23  1  0
 23 24  2  0
 24 25  1  0
 25 26  1  0
 26 27  1  0
 27 28  1  0
 28 29  1  0
 29 30  1  0
 30 31  1  0
 31 32  1  0
 32 33  1  0
 33 34  2  0
 34 35  1  0
 35 36  2  0
 36 37  1  0
 37 38  2  0
 32 39  1  0
 39 40  1  0
 24 41  1  0
 41 42  2  0
  9 43  2  0
 43 44  1  0
 44 45  2  0
 45  3  1  0
 45  7  1  0
 42 22  1  0
 40 29  1  0
 38 33  1  0
  1 46  1  0
  1 47  1  0
  1 48  1  0
  2 49  1  0
  2 50  1  0
  5 51  1  0
  5 52  1  0
  5 53  1  0
  6 54  1  0
  8 55  1  0
 11 56  1  0
 11 57  1  0
 12 58  1  0
 12 59  1  0
 14 60  1  0
 14 61  1  0
 15 62  1  0
 15 63  1  0
 17 64  1  0
 17 65  1  0
 18 66  1  0
 18 67  1  0
 20 68  1  0
 20 69  1  0
 21 70  1  0
 21 71  1  0
 23 72  1  0
 25 73  1  0
 25 74  1  0
 26 75  1  0
 26 76  1  0
 27 77  1  0
 27 78  1  0
 28 79  1  0
 28 80  1  0
 30 81  1  0
 30 82  1  0
 31 83  1  0
 31 84  1  0
 34 85  1  0
 35 86  1  0
 36 87  1  0
 37 88  1  0
 39 89  1  0
 39 90  1  0
 40 91  1  0
 40 92  1  0
 43 93  1  0
 44 94  1  0
M  END
>  <UniqueID>  (43) 
39

>  <SMILES>  (43) 
CCn1c(C)cc2cc(OCCOCCOCCOCCn3cc(CCCCN4CCN(c5ccccn5)CC4)nn3)ccc21

>  <Energy>  (43) 
166.8887753961281

>  <Genealogy>  (43) 
CCn1c(C)cc2cc(OCCOCCOCCOCCn3cc(CCCCN4CCN(c5ccccn5)CC4)nn3)ccc21 (3D coordinates assigned)
CCn1c(C)cc2cc(OCCOCCOCCOCCn3cc(CCCCN4CCN(c5ccccn5)CC4)nn3)ccc21 (nonaromatic ring conformer: 166.8887753961281 kcal/mol)

>  <smiles>  (43) 
CCn1c(C)cc2cc(OCCOCCOCCOCCn3cc(CCCCN4CCN(c5ccccn5)CC4)nn3)ccc21

>  <score_type>  (43) 
oracle

>  <origin>  (43) 
adg

>  <m_score__min__energy>  (43) 
-11.390000000000001

>  <m_primary>  (43) 
energy

$$$$
43:0
     RDKit          3D

 59 63  0  0  0  0  0  0  0  0999 V2000
   -3.1530   22.1870  -32.0610 O   0  0  0  0  0  0  0  0  0  0  0  0
   -3.3880   21.7030  -30.9200 C   0  0  0  0  0  0  0  0  0  0  0  0
   -4.2150   20.4490  -30.8180 C   0  0  0  0  0  0  0  0  0  0  0  0
   -4.0520   19.6190  -32.0150 N   0  0  0  0  0  0  0  0  0  0  0  0
   -4.9950   18.8540  -32.6270 C   0  0  0  0  0  0  0  0  0  0  0  0
   -6.7150   18.7590  -32.1160 S   0  0  0  0  0  0  0  0  0  0  0  0
   -7.2350   20.2450  -33.0450 C   0  0  0  0  0  0  0  0  0  0  0  0
   -6.9910   21.4970  -32.2490 C   0  0  0  0  0  0  0  0  0  0  0  0
   -6.0820   22.4620  -32.7120 C   0  0  0  0  0  0  0  0  0  0  0  0
   -5.8250   23.6080  -31.9540 C   0  0  0  0  0  0  0  0  0  0  0  0
   -6.4690   23.7970  -30.7270 C   0  0  0  0  0  0  0  0  0  0  0  0
   -6.1130   25.3620  -29.6920 Br  0  0  0  0  0  0  0  0  0  0  0  0
   -7.3720   22.8380  -30.2570 C   0  0  0  0  0  0  0  0  0  0  0  0
   -7.6330   21.6920  -31.0140 C   0  0  0  0  0  0  0  0  0  0  0  0
   -4.5020   18.1530  -33.6770 N   0  0  0  0  0  0  0  0  0  0  0  0
   -3.2010   18.4890  -33.7150 C   0  0  0  0  0  0  0  0  0  0  0  0
   -2.2240   18.0400  -34.6000 C   0  0  0  0  0  0  0  0  0  0  0  0
   -0.9140   18.5220  -34.4230 C   0  0  0  0  0  0  0  0  0  0  0  0
   -0.6190   19.4270  -33.3760 C   0  0  0  0  0  0  0  0  0  0  0  0
   -1.6310   19.8610  -32.4990 C   0  0  0  0  0  0  0  0  0  0  0  0
   -2.9220   19.3690  -32.7080 C   0  0  0  0  0  0  0  0  0  0  0  0
   -2.9010   22.3840  -29.7440 N   0  0  0  0  0  0  0  0  0  0  0  0
   -1.6050   23.0760  -29.7990 C   0  0  0  0  0  0  0  0  0  0  0  0
   -1.6440   24.3570  -28.9660 C   0  0  0  0  0  0  0  0  0  0  0  0
   -2.2060   24.0740  -27.6420 N   0  0  0  0  0  0  0  0  0  0  0  0
   -1.6660   24.7060  -26.4660 C   0  0  0  0  0  0  0  0  0  0  0  0
   -0.7840   24.0030  -25.6290 C   0  0  0  0  0  0  0  0  0  0  0  0
   -0.2500   24.6150  -24.4900 C   0  0  0  0  0  0  0  0  0  0  0  0
   -0.5940   25.9340  -24.1780 C   0  0  0  0  0  0  0  0  0  0  0  0
   -1.4720   26.6410  -25.0030 C   0  0  0  0  0  0  0  0  0  0  0  0
   -2.0050   26.0330  -26.1440 C   0  0  0  0  0  0  0  0  0  0  0  0
   -3.5110   23.4070  -27.5850 C   0  0  0  0  0  0  0  0  0  0  0  0
   -3.4850   22.1260  -28.4200 C   0  0  0  0  0  0  0  0  0  0  0  0
   -3.8940   19.8761  -29.9355 H   0  0  0  0  0  0  0  0  0  0  0  0
   -5.2741   20.7317  -30.7266 H   0  0  0  0  0  0  0  0  0  0  0  0
   -6.6638   20.2995  -33.9835 H   0  0  0  0  0  0  0  0  0  0  0  0
   -8.3128   20.1676  -33.2508 H   0  0  0  0  0  0  0  0  0  0  0  0
   -5.5703   22.3156  -33.6747 H   0  0  0  0  0  0  0  0  0  0  0  0
   -5.1149   24.3626  -32.3233 H   0  0  0  0  0  0  0  0  0  0  0  0
   -7.8772   22.9855  -29.2911 H   0  0  0  0  0  0  0  0  0  0  0  0
   -8.3438   20.9397  -30.6415 H   0  0  0  0  0  0  0  0  0  0  0  0
   -5.0160   17.4980  -34.3080 H   0  0  0  0  0  0  0  0  0  0  0  0
   -2.4675   17.3343  -35.4079 H   0  0  0  0  0  0  0  0  0  0  0  0
   -0.1142   18.1932  -35.1028 H   0  0  0  0  0  0  0  0  0  0  0  0
    0.4097   19.7944  -33.2463 H   0  0  0  0  0  0  0  0  0  0  0  0
   -1.4135   20.5616  -31.6794 H   0  0  0  0  0  0  0  0  0  0  0  0
   -0.8230   22.4111  -29.4035 H   0  0  0  0  0  0  0  0  0  0  0  0
   -1.3873   23.3391  -30.8446 H   0  0  0  0  0  0  0  0  0  0  0  0
   -0.6227   24.7495  -28.8525 H   0  0  0  0  0  0  0  0  0  0  0  0
   -2.2738   25.1013  -29.4753 H   0  0  0  0  0  0  0  0  0  0  0  0
   -0.5115   22.9650  -25.8705 H   0  0  0  0  0  0  0  0  0  0  0  0
    0.4408   24.0584  -23.8396 H   0  0  0  0  0  0  0  0  0  0  0  0
   -0.1731   26.4150  -23.2827 H   0  0  0  0  0  0  0  0  0  0  0  0
   -1.7445   27.6774  -24.7548 H   0  0  0  0  0  0  0  0  0  0  0  0
   -2.6927   26.5950  -26.7930 H   0  0  0  0  0  0  0  0  0  0  0  0
   -3.7453   23.1552  -26.5401 H   0  0  0  0  0  0  0  0  0  0  0  0
   -4.2785   24.0837  -27.9888 H   0  0  0  0  0  0  0  0  0  0  0  0
   -2.8813   21.3676  -27.9000 H   0  0  0  0  0  0  0  0  0  0  0  0
   -4.5164   21.7667  -28.5509 H   0  0  0  0  0  0  0  0  0  0  0  0
  1  2  2  0
  2  3  1  0
  3  4  1  0
  4  5  1  0
  5  6  1  0
  6  7  1  0
  7  8  1  0
  8  9  2  0
  9 10  1  0
 10 11  2  0
 11 12  1  0
 11 13  1  0
 13 14  2  0
  5 15  2  0
 15 16  1  0
 16 17  2  0
 17 18  1  0
 18 19  2  0
 19 20  1  0
 20 21  2  0
  2 22  1  0
 22 23  1  0
 23 24  1  0
 24 25  1  0
 25 26  1  0
 26 27  2  0
 27 28  1  0
 28 29  2  0
 29 30  1  0
 30 31  2  0
 25 32  1  0
 32 33  1  0
 21  4  1  0
 33 22  1  0
 14  8  1  0
 21 16  1  0
 31 26  1  0
  3 34  1  0
  3 35  1  0
  7 36  1  0
  7 37  1  0
  9 38  1  0
 10 39  1  0
 13 40  1  0
 14 41  1  0
 15 42  1  0
 17 43  1  0
 18 44  1  0
 19 45  1  0
 20 46  1  0
 23 47  1  0
 23 48  1  0
 24 49  1  0
 24 50  1  0
 27 51  1  0
 28 52  1  0
 29 53  1  0
 30 54  1  0
 31 55  1  0
 32 56  1  0
 32 57  1  0
 33 58  1  0
 33 59  1  0
M  CHG  1  15   1
M  END
>  <UniqueID>  (44) 
40

>  <SMILES>  (44) 
O=C(Cn1c(SCc2ccc(Br)cc2)[nH+]c2ccccc21)N1CCN(c2ccccc2)CC1

>  <Energy>  (44) 
101.31870257729173

>  <Genealogy>  (44) 
O=C(Cn1c(SCc2ccc(Br)cc2)[nH+]c2ccccc21)N1CCN(c2ccccc2)CC1 (protonated)
O=C(Cn1c(SCc2ccc(Br)cc2)[nH+]c2ccccc21)N1CCN(c2ccccc2)CC1 (3D coordinates assigned)
O=C(Cn1c(SCc2ccc(Br)cc2)[nH+]c2ccccc21)N1CCN(c2ccccc2)CC1 (nonaromatic ring conformer: 101.31870257729173 kcal/mol)

>  <smiles>  (44) 
O=C(Cn1c(SCc2ccc(Br)cc2)nc2ccccc21)N1CCN(c2ccccc2)CC1

>  <score_type>  (44) 
oracle

>  <origin>  (44) 
adg

>  <m_score__min__energy>  (44) 
-9.2799999999999994

>  <m_primary>  (44) 
energy

$$$$
44:0
     RDKit          3D

 52 54  0  0  0  0  0  0  0  0999 V2000
   -5.6510   25.6870  -30.3210 C   0  0  0  0  0  0  0  0  0  0  0  0
   -4.2450   25.4870  -30.4190 O   0  0  0  0  0  0  0  0  0  0  0  0
   -3.6160   24.2320  -30.3720 C   0  0  0  0  0  0  0  0  0  0  0  0
   -4.2000   23.0820  -30.9350 C   0  0  0  0  0  0  0  0  0  0  0  0
   -3.5440   21.8520  -30.8700 C   0  0  0  0  0  0  0  0  0  0  0  0
   -2.2890   21.7500  -30.2530 C   0  0  0  0  0  0  0  0  0  0  0  0
   -1.6000   20.4160  -30.1520 C   0  0  0  0  0  0  0  0  0  0  0  0
   -1.6530   19.6840  -31.5090 C   0  0  0  0  0  0  0  0  0  0  0  0
   -0.9670   20.4000  -32.6080 N   0  0  0  0  0  0  0  0  0  0  0  0
    0.2440   19.6980  -33.0710 C   0  0  0  0  0  0  0  0  0  0  0  0
   -1.8730   20.7360  -33.7270 C   0  0  0  0  0  0  0  0  0  0  0  0
   -3.0520   19.8000  -33.7380 C   0  0  0  0  0  0  0  0  0  0  0  0
   -2.9260   18.4900  -34.2180 C   0  0  0  0  0  0  0  0  0  0  0  0
   -4.0050   17.6660  -34.2380 N   0  0  0  0  0  0  0  0  0  0  0  0
   -5.2300   18.0730  -33.8130 C   0  0  0  0  0  0  0  0  0  0  0  0
   -5.4200   19.3840  -33.3390 C   0  0  0  0  0  0  0  0  0  0  0  0
   -6.7450   19.8590  -32.8650 C   0  0  0  0  0  0  0  0  0  0  0  0
   -6.9360   21.1730  -32.3940 C   0  0  0  0  0  0  0  0  0  0  0  0
   -8.2020   21.5690  -31.9560 C   0  0  0  0  0  0  0  0  0  0  0  0
   -9.2630   20.6640  -31.9820 C   0  0  0  0  0  0  0  0  0  0  0  0
   -9.0400   19.3670  -32.4430 C   0  0  0  0  0  0  0  0  0  0  0  0
   -7.8020   18.9980  -32.8670 N   0  0  0  0  0  0  0  0  0  0  0  0
   -4.3080   20.2420  -33.3010 C   0  0  0  0  0  0  0  0  0  0  0  0
   -1.7100   22.8910  -29.6790 C   0  0  0  0  0  0  0  0  0  0  0  0
   -2.3660   24.1360  -29.7390 C   0  0  0  0  0  0  0  0  0  0  0  0
   -1.8110   25.2990  -29.1810 O   0  0  0  0  0  0  0  0  0  0  0  0
   -1.3180   25.3990  -27.8480 C   0  0  0  0  0  0  0  0  0  0  0  0
   -5.9425   25.7285  -29.2611 H   0  0  0  0  0  0  0  0  0  0  0  0
   -5.9220   26.6327  -30.8131 H   0  0  0  0  0  0  0  0  0  0  0  0
   -6.1750   24.8543  -30.8131 H   0  0  0  0  0  0  0  0  0  0  0  0
   -5.1800   23.1531  -31.4295 H   0  0  0  0  0  0  0  0  0  0  0  0
   -4.0140   20.9577  -31.3051 H   0  0  0  0  0  0  0  0  0  0  0  0
   -0.5498   20.5705  -29.8634 H   0  0  0  0  0  0  0  0  0  0  0  0
   -2.1119   19.8044  -29.3944 H   0  0  0  0  0  0  0  0  0  0  0  0
   -1.1785   18.6989  -31.3891 H   0  0  0  0  0  0  0  0  0  0  0  0
   -2.7141   19.6125  -31.7901 H   0  0  0  0  0  0  0  0  0  0  0  0
    0.8269   19.3601  -32.2015 H   0  0  0  0  0  0  0  0  0  0  0  0
   -0.0461   18.8281  -33.6785 H   0  0  0  0  0  0  0  0  0  0  0  0
    0.8547   20.3821  -33.6785 H   0  0  0  0  0  0  0  0  0  0  0  0
   -2.2303   21.7695  -33.6079 H   0  0  0  0  0  0  0  0  0  0  0  0
   -1.3254   20.6358  -34.6757 H   0  0  0  0  0  0  0  0  0  0  0  0
   -1.9519   18.1285  -34.5791 H   0  0  0  0  0  0  0  0  0  0  0  0
   -6.0782   17.3731  -33.8398 H   0  0  0  0  0  0  0  0  0  0  0  0
   -6.0949   21.8815  -32.3713 H   0  0  0  0  0  0  0  0  0  0  0  0
   -8.3621   22.5942  -31.5907 H   0  0  0  0  0  0  0  0  0  0  0  0
  -10.2638   20.9698  -31.6429 H   0  0  0  0  0  0  0  0  0  0  0  0
   -9.8666   18.6416  -32.4636 H   0  0  0  0  0  0  0  0  0  0  0  0
   -4.4243   21.2692  -32.9251 H   0  0  0  0  0  0  0  0  0  0  0  0
   -0.7343   22.8130  -29.1771 H   0  0  0  0  0  0  0  0  0  0  0  0
   -2.1421   25.2318  -27.1388 H   0  0  0  0  0  0  0  0  0  0  0  0
   -0.5371   24.6410  -27.6880 H   0  0  0  0  0  0  0  0  0  0  0  0
   -0.8942   26.4014  -27.6880 H   0  0  0  0  0  0  0  0  0  0  0  0
  1  2  1  0
  2  3  1  0
  3  4  2  0
  4  5  1  0
  5  6  2  0
  6  7  1  0
  7  8  1  0
  8  9  1  0
  9 10  1  0
  9 11  1  0
 11 12  1  0
 12 13  2  0
 13 14  1  0
 14 15  2  0
 15 16  1  0
 16 17  1  0
 17 18  2  0
 18 19  1  0
 19 20  2  0
 20 21  1  0
 21 22  2  0
 16 23  2  0
  6 24  1  0
 24 25  2  0
 25 26  1  0
 26 27  1  0
 25  3  1  0
 23 12  1  0
 22 17  1  0
  1 28  1  0
  1 29  1  0
  1 30  1  0
  4 31  1  0
  5 32  1  0
  7 33  1  0
  7 34  1  0
  8 35  1  0
  8 36  1  0
 10 37  1  0
 10 38  1  0
 10 39  1  0
 11 40  1  0
 11 41  1  0
 13 42  1  0
 15 43  1  0
 18 44  1  0
 19 45  1  0
 20 46  1  0
 21 47  1  0
 23 48  1  0
 24 49  1  0
 27 50  1  0
 27 51  1  0
 27 52  1  0
M  END
>  <UniqueID>  (45) 
41

>  <SMILES>  (45) 
COc1ccc(CCN(C)Cc2cncc(-c3ccccn3)c2)cc1OC

>  <Energy>  (45) 
59.39640468706794

>  <Genealogy>  (45) 
COc1ccc(CCN(C)Cc2cncc(-c3ccccn3)c2)cc1OC (3D coordinates assigned)
COc1ccc(CCN(C)Cc2cncc(-c3ccccn3)c2)cc1OC (optimized conformer: 59.39640468706794 kcal/mol)

>  <smiles>  (45) 
COc1ccc(CCN(C)Cc2cncc(-c3ccccn3)c2)cc1OC

>  <score_type>  (45) 
oracle

>  <origin>  (45) 
adg

>  <m_score__min__energy>  (45) 
-9.1799999999999997

>  <m_primary>  (45) 
energy

$$$$
45:0
     RDKit          3D

 63 66  0  0  0  0  0  0  0  0999 V2000
    0.0500   19.5150  -29.5670 C   0  0  0  0  0  0  0  0  0  0  0  0
   -1.1550   20.3440  -29.2230 C   0  0  0  0  0  0  0  0  0  0  0  0
   -1.8300   20.1000  -28.0200 C   0  0  0  0  0  0  0  0  0  0  0  0
   -2.9370   20.8680  -27.6650 C   0  0  0  0  0  0  0  0  0  0  0  0
   -3.3860   21.8830  -28.5070 C   0  0  0  0  0  0  0  0  0  0  0  0
   -2.7200   22.1610  -29.7170 C   0  0  0  0  0  0  0  0  0  0  0  0
   -3.2180   23.1600  -30.6310 N   0  0  0  0  0  0  0  0  0  0  0  0
   -4.7010   24.0340  -30.4110 S   0  0  0  0  0  0  0  0  0  0  0  0
   -4.6530   25.3020  -31.2150 O   0  0  0  0  0  0  0  0  0  0  0  0
   -4.8580   24.3860  -28.9580 O   0  0  0  0  0  0  0  0  0  0  0  0
   -6.0550   23.0560  -30.9700 C   0  0  0  0  0  0  0  0  0  0  0  0
   -7.2380   23.6840  -31.3820 C   0  0  0  0  0  0  0  0  0  0  0  0
   -8.3190   22.9250  -31.8380 C   0  0  0  0  0  0  0  0  0  0  0  0
   -8.2280   21.5250  -31.8840 C   0  0  0  0  0  0  0  0  0  0  0  0
   -9.3080   20.7520  -32.3390 C   0  0  0  0  0  0  0  0  0  0  0  0
   -9.2050   19.3580  -32.3790 C   0  0  0  0  0  0  0  0  0  0  0  0
   -8.0280   18.7270  -31.9690 C   0  0  0  0  0  0  0  0  0  0  0  0
   -6.9450   19.4850  -31.5120 C   0  0  0  0  0  0  0  0  0  0  0  0
   -7.0350   20.8860  -31.4670 C   0  0  0  0  0  0  0  0  0  0  0  0
   -5.9560   21.6580  -31.0090 C   0  0  0  0  0  0  0  0  0  0  0  0
   -1.5720   21.4070  -30.0520 C   0  0  0  0  0  0  0  0  0  0  0  0
   -0.8480   21.6930  -31.2170 O   0  0  0  0  0  0  0  0  0  0  0  0
   -1.2600   21.2420  -32.5070 C   0  0  0  0  0  0  0  0  0  0  0  0
   -2.2330   20.0680  -32.3740 C   0  0  0  0  0  0  0  0  0  0  0  0
   -3.5540   20.3520  -33.1000 C   0  0  0  0  0  0  0  0  0  0  0  0
   -4.3290   19.1010  -33.2460 N   0  0  0  0  0  0  0  0  0  0  0  0
   -3.4670   17.9770  -33.6620 C   0  0  0  0  0  0  0  0  0  0  0  0
   -4.2620   16.6560  -33.6380 C   0  0  0  0  0  0  0  0  0  0  0  0
   -5.7210   16.8990  -33.5840 N   0  0  0  0  0  0  0  0  0  0  0  0
   -6.4560   15.6500  -33.8370 C   0  0  0  0  0  0  0  0  0  0  0  0
   -6.1070   17.9300  -34.5610 C   0  0  0  0  0  0  0  0  0  0  0  0
   -5.4340   19.2750  -34.2120 C   0  0  0  0  0  0  0  0  0  0  0  0
    0.5397   19.1781  -28.6414 H   0  0  0  0  0  0  0  0  0  0  0  0
   -0.2628   18.6400  -30.1557 H   0  0  0  0  0  0  0  0  0  0  0  0
    0.7553   20.1199  -30.1557 H   0  0  0  0  0  0  0  0  0  0  0  0
   -1.4841   19.2975  -27.3519 H   0  0  0  0  0  0  0  0  0  0  0  0
   -3.4584   20.6722  -26.7164 H   0  0  0  0  0  0  0  0  0  0  0  0
   -4.2698   22.4736  -28.2241 H   0  0  0  0  0  0  0  0  0  0  0  0
   -2.7260   23.3200  -31.5370 H   0  0  0  0  0  0  0  0  0  0  0  0
   -7.3161   24.7806  -31.3462 H   0  0  0  0  0  0  0  0  0  0  0  0
   -9.2434   23.4257  -32.1617 H   0  0  0  0  0  0  0  0  0  0  0  0
  -10.2366   21.2436  -32.6645 H   0  0  0  0  0  0  0  0  0  0  0  0
  -10.0541   18.7559  -32.7347 H   0  0  0  0  0  0  0  0  0  0  0  0
   -7.9527   17.6302  -32.0057 H   0  0  0  0  0  0  0  0  0  0  0  0
   -6.0215   18.9833  -31.1874 H   0  0  0  0  0  0  0  0  0  0  0  0
   -5.0297   21.1646  -30.6796 H   0  0  0  0  0  0  0  0  0  0  0  0
   -1.7573   22.0670  -33.0380 H   0  0  0  0  0  0  0  0  0  0  0  0
   -0.3747   20.9108  -33.0697 H   0  0  0  0  0  0  0  0  0  0  0  0
   -1.7714   19.1693  -32.8091 H   0  0  0  0  0  0  0  0  0  0  0  0
   -2.4499   19.9169  -31.3062 H   0  0  0  0  0  0  0  0  0  0  0  0
   -4.1406   21.0784  -32.5184 H   0  0  0  0  0  0  0  0  0  0  0  0
   -3.3374   20.7615  -34.0977 H   0  0  0  0  0  0  0  0  0  0  0  0
   -3.0986   18.1604  -34.6821 H   0  0  0  0  0  0  0  0  0  0  0  0
   -2.6203   17.8979  -32.9643 H   0  0  0  0  0  0  0  0  0  0  0  0
   -4.0290   16.0826  -34.5474 H   0  0  0  0  0  0  0  0  0  0  0  0
   -3.9728   16.0967  -32.7360 H   0  0  0  0  0  0  0  0  0  0  0  0
   -6.7296   15.1850  -32.8784 H   0  0  0  0  0  0  0  0  0  0  0  0
   -7.3680   15.8711  -34.4109 H   0  0  0  0  0  0  0  0  0  0  0  0
   -5.8199   14.9600  -34.4109 H   0  0  0  0  0  0  0  0  0  0  0  0
   -5.7896   17.6150  -35.5660 H   0  0  0  0  0  0  0  0  0  0  0  0
   -7.1992   18.0580  -34.5346 H   0  0  0  0  0  0  0  0  0  0  0  0
   -5.0341   19.7229  -35.1337 H   0  0  0  0  0  0  0  0  0  0  0  0
   -6.1910   19.9271  -33.7520 H   0  0  0  0  0  0  0  0  0  0  0  0
  1  2  1  0
  2  3  2  0
  3  4  1  0
  4  5  2  0
  5  6  1  0
  6  7  1  0
  7  8  1  0
  8  9  2  0
  8 10  2  0
  8 11  1  0
 11 12  2  0
 12 13  1  0
 13 14  2  0
 14 15  1  0
 15 16  2  0
 16 17  1  0
 17 18  2  0
 18 19  1  0
 19 20  2  0
  6 21  2  0
 21 22  1  0
 22 23  1  0
 23 24  1  0
 24 25  1  0
 25 26  1  0
 26 27  1  0
 27 28  1  0
 28 29  1  0
 29 30  1  0
 29 31  1  0
 31 32  1  0
 21  2  1  0
 32 26  1  0
 20 11  1  0
 19 14  1  0
  1 33  1  0
  1 34  1  0
  1 35  1  0
  3 36  1  0
  4 37  1  0
  5 38  1  0
  7 39  1  0
 12 40  1  0
 13 41  1  0
 15 42  1  0
 16 43  1  0
 17 44  1  0
 18 45  1  0
 20 46  1  0
 23 47  1  0
 23 48  1  0
 24 49  1  0
 24 50  1  0
 25 51  1  0
 25 52  1  0
 27 53  1  0
 27 54  1  0
 28 55  1  0
 28 56  1  0
 30 57  1  0
 30 58  1  0
 30 59  1  0
 31 60  1  0
 31 61  1  0
 32 62  1  0
 32 63  1  0
M  END
>  <UniqueID>  (46) 
42

>  <SMILES>  (46) 
Cc1cccc(NS(=O)(=O)c2ccc3ccccc3c2)c1OCCCN1CCN(C)CC1

>  <Energy>  (46) 
82.234746592143

>  <Genealogy>  (46) 
Cc1cccc(NS(=O)(=O)c2ccc3ccccc3c2)c1OCCCN1CCN(C)CC1 (3D coordinates assigned)
Cc1cccc(NS(=O)(=O)c2ccc3ccccc3c2)c1OCCCN1CCN(C)CC1 (nonaromatic ring conformer: 82.234746592143 kcal/mol)

>  <smiles>  (46) 
Cc1cccc(NS(=O)(=O)c2ccc3ccccc3c2)c1OCCCN1CCN(C)CC1

>  <score_type>  (46) 
oracle

>  <origin>  (46) 
adg

>  <m_score__min__energy>  (46) 
-11.220000000000001

>  <m_primary>  (46) 
energy

$$$$
46:0
     RDKit          3D

 55 59  0  0  0  0  0  0  0  0999 V2000
   -4.2540   25.3930  -30.8390 O   0  0  0  0  0  0  0  0  0  0  0  0
   -4.6500   24.2350  -30.8050 C   0  0  0  0  0  0  0  0  0  0  0  0
   -5.8420   23.8540  -31.6550 C   0  0  0  0  0  0  0  0  0  0  0  0
   -5.8070   22.4240  -32.0420 N   0  0  0  0  0  0  0  0  0  0  0  0
   -4.6190   21.9230  -32.5280 C   0  0  0  0  0  0  0  0  0  0  0  0
   -3.5890   22.6500  -32.6110 O   0  0  0  0  0  0  0  0  0  0  0  0
   -4.5530   20.5940  -32.9330 C   0  0  0  0  0  0  0  0  0  0  0  0
   -3.4690   19.9100  -33.4510 C   0  0  0  0  0  0  0  0  0  0  0  0
   -3.9200   18.6230  -33.6890 C   0  0  0  0  0  0  0  0  0  0  0  0
   -5.2500   18.5800  -33.3060 C   0  0  0  0  0  0  0  0  0  0  0  0
   -5.6230   19.7940  -32.8460 N   0  0  0  0  0  0  0  0  0  0  0  0
   -6.8150   20.2250  -32.3460 C   0  0  0  0  0  0  0  0  0  0  0  0
   -7.9220   19.3630  -32.2290 C   0  0  0  0  0  0  0  0  0  0  0  0
   -9.1160   19.8210  -31.6760 C   0  0  0  0  0  0  0  0  0  0  0  0
   -9.2190   21.1340  -31.2260 C   0  0  0  0  0  0  0  0  0  0  0  0
   -8.1380   22.0090  -31.3410 C   0  0  0  0  0  0  0  0  0  0  0  0
   -6.9130   21.5840  -31.9170 C   0  0  0  0  0  0  0  0  0  0  0  0
   -4.0070   23.2770  -29.9240 N   0  0  0  0  0  0  0  0  0  0  0  0
   -2.7850   23.8490  -29.3350 C   0  0  0  0  0  0  0  0  0  0  0  0
   -2.0070   22.7710  -28.5500 C   0  0  0  0  0  0  0  0  0  0  0  0
   -2.8830   21.7790  -27.8740 N   0  0  0  0  0  0  0  0  0  0  0  0
   -2.8980   20.4600  -28.5490 C   0  0  0  0  0  0  0  0  0  0  0  0
   -1.6990   20.3020  -29.4480 C   0  0  0  0  0  0  0  0  0  0  0  0
   -0.4940   19.7810  -28.9450 C   0  0  0  0  0  0  0  0  0  0  0  0
    0.6210   19.6520  -29.7800 C   0  0  0  0  0  0  0  0  0  0  0  0
    0.5390   20.0390  -31.1220 C   0  0  0  0  0  0  0  0  0  0  0  0
   -0.6560   20.5580  -31.6280 C   0  0  0  0  0  0  0  0  0  0  0  0
   -1.7720   20.6910  -30.7960 C   0  0  0  0  0  0  0  0  0  0  0  0
   -4.2370   22.3100  -27.6040 C   0  0  0  0  0  0  0  0  0  0  0  0
   -4.9520   22.8080  -28.8810 C   0  0  0  0  0  0  0  0  0  0  0  0
   -6.7624   24.0460  -31.0841 H   0  0  0  0  0  0  0  0  0  0  0  0
   -5.8138   24.4578  -32.5740 H   0  0  0  0  0  0  0  0  0  0  0  0
   -2.4593   20.3056  -33.6355 H   0  0  0  0  0  0  0  0  0  0  0  0
   -3.3324   17.7910  -34.1043 H   0  0  0  0  0  0  0  0  0  0  0  0
   -5.9010   17.6954  -33.3668 H   0  0  0  0  0  0  0  0  0  0  0  0
   -7.8438   18.3221  -32.5761 H   0  0  0  0  0  0  0  0  0  0  0  0
   -9.9789   19.1436  -31.5949 H   0  0  0  0  0  0  0  0  0  0  0  0
  -10.1596   21.4847  -30.7763 H   0  0  0  0  0  0  0  0  0  0  0  0
   -8.2371   23.0433  -30.9798 H   0  0  0  0  0  0  0  0  0  0  0  0
   -3.7140   22.4520  -30.4890 H   0  0  0  0  0  0  0  0  0  0  0  0
   -2.1460   24.2432  -30.1389 H   0  0  0  0  0  0  0  0  0  0  0  0
   -3.0677   24.6572  -28.6444 H   0  0  0  0  0  0  0  0  0  0  0  0
   -1.3516   22.2348  -29.2520 H   0  0  0  0  0  0  0  0  0  0  0  0
   -1.4409   23.2907  -27.7629 H   0  0  0  0  0  0  0  0  0  0  0  0
   -2.8846   19.6659  -27.7880 H   0  0  0  0  0  0  0  0  0  0  0  0
   -3.8085   20.3895  -29.1621 H   0  0  0  0  0  0  0  0  0  0  0  0
   -0.4276   19.4736  -27.8909 H   0  0  0  0  0  0  0  0  0  0  0  0
    1.5625   19.2462  -29.3813 H   0  0  0  0  0  0  0  0  0  0  0  0
    1.4151   19.9348  -31.7789 H   0  0  0  0  0  0  0  0  0  0  0  0
   -0.7188   20.8625  -32.6831 H   0  0  0  0  0  0  0  0  0  0  0  0
   -2.7100   21.1015  -31.1982 H   0  0  0  0  0  0  0  0  0  0  0  0
   -4.8433   21.5120  -27.1505 H   0  0  0  0  0  0  0  0  0  0  0  0
   -4.1258   23.1720  -26.9297 H   0  0  0  0  0  0  0  0  0  0  0  0
   -5.5494   21.9818  -29.2940 H   0  0  0  0  0  0  0  0  0  0  0  0
   -5.5811   23.6640  -28.5955 H   0  0  0  0  0  0  0  0  0  0  0  0
  1  2  2  0
  2  3  1  0
  3  4  1  0
  4  5  1  0
  5  6  2  0
  5  7  1  0
  7  8  2  0
  8  9  1  0
  9 10  2  0
 10 11  1  0
 11 12  1  0
 12 13  2  0
 13 14  1  0
 14 15  2  0
 15 16  1  0
 16 17  2  0
  2 18  1  0
 18 19  1  0
 19 20  1  0
 20 21  1  0
 21 22  1  0
 22 23  1  0
 23 24  2  0
 24 25  1  0
 25 26  2  0
 26 27  1  0
 27 28  2  0
 21 29  1  0
 29 30  1  0
 17  4  1  0
 30 18  1  0
 11  7  1  0
 17 12  1  0
 28 23  1  0
  3 31  1  0
  3 32  1  0
  8 33  1  0
  9 34  1  0
 10 35  1  0
 13 36  1  0
 14 37  1  0
 15 38  1  0
 16 39  1  0
 18 40  1  0
 19 41  1  0
 19 42  1  0
 20 43  1  0
 20 44  1  0
 22 45  1  0
 22 46  1  0
 24 47  1  0
 25 48  1  0
 26 49  1  0
 27 50  1  0
 28 51  1  0
 29 52  1  0
 29 53  1  0
 30 54  1  0
 30 55  1  0
M  CHG  1  18   1
M  END
>  <UniqueID>  (47) 
43

>  <SMILES>  (47) 
O=C(Cn1c(=O)c2cccn2c2ccccc21)[NH+]1CCN(Cc2ccccc2)CC1

>  <Energy>  (47) 
116.08873794348987

>  <Genealogy>  (47) 
O=C(Cn1c(=O)c2cccn2c2ccccc21)[NH+]1CCN(Cc2ccccc2)CC1 (protonated)
O=C(Cn1c(=O)c2cccn2c2ccccc21)[NH+]1CCN(Cc2ccccc2)CC1 (3D coordinates assigned)
O=C(Cn1c(=O)c2cccn2c2ccccc21)[NH+]1CCN(Cc2ccccc2)CC1 (nonaromatic ring conformer: 116.08873794348987 kcal/mol)

>  <smiles>  (47) 
O=C(Cn1c(=O)c2cccn2c2ccccc21)N1CCN(Cc2ccccc2)CC1

>  <score_type>  (47) 
oracle

>  <origin>  (47) 
adg

>  <m_score__min__energy>  (47) 
-7.9500000000000002

>  <m_primary>  (47) 
energy

$$$$
47:0
     RDKit          3D

 43 45  0  0  0  0  0  0  0  0999 V2000
   -2.8020   18.9050  -26.3500 C   0  0  0  0  0  0  0  0  0  0  0  0
   -1.9900   19.5710  -27.3110 O   0  0  0  0  0  0  0  0  0  0  0  0
   -2.2070   20.8830  -27.7570 C   0  0  0  0  0  0  0  0  0  0  0  0
   -3.4440   21.5390  -27.6020 C   0  0  0  0  0  0  0  0  0  0  0  0
   -3.6090   22.8490  -28.0650 C   0  0  0  0  0  0  0  0  0  0  0  0
   -2.5440   23.5230  -28.6820 C   0  0  0  0  0  0  0  0  0  0  0  0
   -2.7390   24.9240  -29.1970 C   0  0  0  0  0  0  0  0  0  0  0  0
   -3.4850   24.9030  -30.4490 N   0  0  0  0  0  0  0  0  0  0  0  0
   -4.9100   25.0240  -30.5240 C   0  0  0  0  0  0  0  0  0  0  0  0
   -5.4580   26.1560  -30.4320 O   0  0  0  0  0  0  0  0  0  0  0  0
   -5.7350   23.8220  -30.7040 C   0  0  0  0  0  0  0  0  0  0  0  0
   -5.4280   22.7280  -31.4890 C   0  0  0  0  0  0  0  0  0  0  0  0
   -6.5120   21.8790  -31.3160 C   0  0  0  0  0  0  0  0  0  0  0  0
   -6.7210   20.5460  -31.9250 C   0  0  0  0  0  0  0  0  0  0  0  0
   -5.7430   20.0110  -32.7800 C   0  0  0  0  0  0  0  0  0  0  0  0
   -5.9210   18.7540  -33.3640 C   0  0  0  0  0  0  0  0  0  0  0  0
   -7.0760   18.0080  -33.1090 C   0  0  0  0  0  0  0  0  0  0  0  0
   -7.2070   16.7520  -33.7190 O   0  0  0  0  0  0  0  0  0  0  0  0
   -6.1300   15.8450  -33.9330 C   0  0  0  0  0  0  0  0  0  0  0  0
   -8.0600   18.5380  -32.2530 C   0  0  0  0  0  0  0  0  0  0  0  0
   -7.8820   19.7950  -31.6670 C   0  0  0  0  0  0  0  0  0  0  0  0
   -7.3650   22.4530  -30.4950 O   0  0  0  0  0  0  0  0  0  0  0  0
   -6.9260   23.6150  -30.1150 N   0  0  0  0  0  0  0  0  0  0  0  0
   -1.3140   22.8680  -28.8390 C   0  0  0  0  0  0  0  0  0  0  0  0
   -1.1490   21.5580  -28.3780 C   0  0  0  0  0  0  0  0  0  0  0  0
   -2.4698   19.1775  -25.3374 H   0  0  0  0  0  0  0  0  0  0  0  0
   -3.8514   19.2059  -26.4850 H   0  0  0  0  0  0  0  0  0  0  0  0
   -2.7122   17.8170  -26.4850 H   0  0  0  0  0  0  0  0  0  0  0  0
   -4.2828   21.0197  -27.1154 H   0  0  0  0  0  0  0  0  0  0  0  0
   -4.5791   23.3534  -27.9447 H   0  0  0  0  0  0  0  0  0  0  0  0
   -3.2968   25.5102  -28.4519 H   0  0  0  0  0  0  0  0  0  0  0  0
   -1.7541   25.3804  -29.3747 H   0  0  0  0  0  0  0  0  0  0  0  0
   -4.5326   22.5671  -32.1074 H   0  0  0  0  0  0  0  0  0  0  0  0
   -4.8296   20.5863  -32.9915 H   0  0  0  0  0  0  0  0  0  0  0  0
   -5.1457   18.3477  -34.0302 H   0  0  0  0  0  0  0  0  0  0  0  0
   -5.7335   15.5111  -32.9628 H   0  0  0  0  0  0  0  0  0  0  0  0
   -6.4909   14.9747  -34.5008 H   0  0  0  0  0  0  0  0  0  0  0  0
   -5.3338   16.3487  -34.5008 H   0  0  0  0  0  0  0  0  0  0  0  0
   -8.9728   17.9608  -32.0443 H   0  0  0  0  0  0  0  0  0  0  0  0
   -8.6563   20.1999  -30.9987 H   0  0  0  0  0  0  0  0  0  0  0  0
   -7.4270   24.2580  -29.4620 H   0  0  0  0  0  0  0  0  0  0  0  0
   -0.4755   23.3867  -29.3268 H   0  0  0  0  0  0  0  0  0  0  0  0
   -0.1797   21.0535  -28.5043 H   0  0  0  0  0  0  0  0  0  0  0  0
  1  2  1  0
  2  3  1  0
  3  4  2  0
  4  5  1  0
  5  6  2  0
  6  7  1  0
  7  8  1  0
  8  9  1  0
  9 10  2  0
  9 11  1  0
 11 12  1  0
 12 13  2  0
 13 14  1  0
 14 15  2  0
 15 16  1  0
 16 17  2  0
 17 18  1  0
 18 19  1  0
 17 20  1  0
 20 21  2  0
 13 22  1  0
 22 23  1  0
  6 24  1  0
 24 25  2  0
 25  3  1  0
 23 11  2  0
 21 14  1  0
  1 26  1  0
  1 27  1  0
  1 28  1  0
  4 29  1  0
  5 30  1  0
  7 31  1  0
  7 32  1  0
 12 33  1  0
 15 34  1  0
 16 35  1  0
 19 36  1  0
 19 37  1  0
 19 38  1  0
 20 39  1  0
 21 40  1  0
 23 41  1  0
 24 42  1  0
 25 43  1  0
M  CHG  2   8  -1  23   1
M  END
>  <UniqueID>  (48) 
44

>  <SMILES>  (48) 
COc1ccc(C[N-]C(=O)c2cc(-c3ccc(OC)cc3)o[nH+]2)cc1

>  <Energy>  (48) 
72.61224212562038

>  <Genealogy>  (48) 
COc1ccc(C[N-]C(=O)c2cc(-c3ccc(OC)cc3)o[nH+]2)cc1 (protonated)
COc1ccc(C[N-]C(=O)c2cc(-c3ccc(OC)cc3)o[nH+]2)cc1 (3D coordinates assigned)
COc1ccc(C[N-]C(=O)c2cc(-c3ccc(OC)cc3)o[nH+]2)cc1 (optimized conformer: 72.61224212562038 kcal/mol)

>  <smiles>  (48) 
COc1ccc(CNC(=O)c2cc(-c3ccc(OC)cc3)on2)cc1

>  <score_type>  (48) 
oracle

>  <origin>  (48) 
adg

>  <m_score__min__energy>  (48) 
-9.0299999999999994

>  <m_primary>  (48) 
energy

$$$$
48:0
     RDKit          3D

 45 47  0  0  0  0  0  0  0  0999 V2000
    0.4700   20.3210  -27.8450 C   0  0  0  0  0  0  0  0  0  0  0  0
    0.4770   21.6960  -28.1660 O   0  0  0  0  0  0  0  0  0  0  0  0
   -0.6510   22.2290  -28.7630 C   0  0  0  0  0  0  0  0  0  0  0  0
   -1.6690   21.4440  -29.2950 C   0  0  0  0  0  0  0  0  0  0  0  0
   -2.7910   21.9820  -29.8900 C   0  0  0  0  0  0  0  0  0  0  0  0
   -3.7770   21.1950  -30.4080 N   0  0  0  0  0  0  0  0  0  0  0  0
   -4.8270   21.8200  -30.9700 C   0  0  0  0  0  0  0  0  0  0  0  0
   -5.9420   21.0950  -31.5320 N   0  0  0  0  0  0  0  0  0  0  0  0
   -7.2160   21.7930  -31.4830 C   0  0  0  0  0  0  0  0  0  0  0  0
   -8.2780   20.7470  -31.2310 C   0  0  0  0  0  0  0  0  0  0  0  0
   -8.2330   19.8460  -32.4520 C   0  0  0  0  0  0  0  0  0  0  0  0
   -9.4590   18.9680  -32.4190 C   0  0  0  0  0  0  0  0  0  0  0  0
   -9.2710   17.8190  -31.6620 O   0  0  0  0  0  0  0  0  0  0  0  0
   -6.9640   19.0610  -32.5260 C   0  0  0  0  0  0  0  0  0  0  0  0
   -5.7500   19.7840  -32.0870 C   0  0  0  0  0  0  0  0  0  0  0  0
   -4.9320   23.1610  -31.0360 N   0  0  0  0  0  0  0  0  0  0  0  0
   -3.9870   23.9780  -30.5400 C   0  0  0  0  0  0  0  0  0  0  0  0
   -4.0890   25.2810  -30.6040 N   0  0  0  0  0  0  0  0  0  0  0  0
   -2.8890   23.3710  -29.9530 C   0  0  0  0  0  0  0  0  0  0  0  0
   -1.8990   24.1800  -29.4340 C   0  0  0  0  0  0  0  0  0  0  0  0
   -0.7850   23.6130  -28.8430 C   0  0  0  0  0  0  0  0  0  0  0  0
    0.2210   24.4020  -28.3190 O   0  0  0  0  0  0  0  0  0  0  0  0
    0.4070   24.6110  -26.9480 C   0  0  0  0  0  0  0  0  0  0  0  0
    0.4694   20.1997  -26.7517 H   0  0  0  0  0  0  0  0  0  0  0  0
   -0.4306   19.8506  -28.2666 H   0  0  0  0  0  0  0  0  0  0  0  0
    1.3657   19.8415  -28.2666 H   0  0  0  0  0  0  0  0  0  0  0  0
   -1.5752   20.3494  -29.2388 H   0  0  0  0  0  0  0  0  0  0  0  0
   -3.7140   20.1590  -30.3660 H   0  0  0  0  0  0  0  0  0  0  0  0
   -7.2117   22.5321  -30.6684 H   0  0  0  0  0  0  0  0  0  0  0  0
   -7.4075   22.3312  -32.4230 H   0  0  0  0  0  0  0  0  0  0  0  0
   -8.0502   20.1755  -30.3192 H   0  0  0  0  0  0  0  0  0  0  0  0
   -9.2723   21.1929  -31.0806 H   0  0  0  0  0  0  0  0  0  0  0  0
   -8.2412   20.4531  -33.3693 H   0  0  0  0  0  0  0  0  0  0  0  0
  -10.2923   19.5420  -31.9876 H   0  0  0  0  0  0  0  0  0  0  0  0
   -9.6741   18.6560  -33.4517 H   0  0  0  0  0  0  0  0  0  0  0  0
   -9.8820   17.8030  -30.8670 H   0  0  0  0  0  0  0  0  0  0  0  0
   -7.0776   18.1698  -31.8914 H   0  0  0  0  0  0  0  0  0  0  0  0
   -6.8117   18.8261  -33.5898 H   0  0  0  0  0  0  0  0  0  0  0  0
   -5.2543   19.1682  -31.3221 H   0  0  0  0  0  0  0  0  0  0  0  0
   -5.1623   19.9426  -33.0032 H   0  0  0  0  0  0  0  0  0  0  0  0
   -4.1310   25.6690  -31.5930 H   0  0  0  0  0  0  0  0  0  0  0  0
   -1.9959   25.2743  -29.4903 H   0  0  0  0  0  0  0  0  0  0  0  0
   -0.2198   23.9067  -26.3814 H   0  0  0  0  0  0  0  0  0  0  0  0
    1.4644   24.4482  -26.6924 H   0  0  0  0  0  0  0  0  0  0  0  0
    0.1226   25.6424  -26.6924 H   0  0  0  0  0  0  0  0  0  0  0  0
  1  2  1  0
  2  3  1  0
  3  4  2  0
  4  5  1  0
  5  6  1  0
  6  7  1  0
  7  8  1  0
  8  9  1  0
  9 10  1  0
 10 11  1  0
 11 12  1  0
 12 13  1  0
 11 14  1  0
 14 15  1  0
  7 16  2  0
 16 17  1  0
 17 18  2  3
 17 19  1  0
 19 20  1  0
 20 21  2  0
 21 22  1  0
 22 23  1  0
 21  3  1  0
 19  5  2  0
 15  8  1  0
  1 24  1  0
  1 25  1  0
  1 26  1  0
  4 27  1  0
  6 28  1  0
  9 29  1  0
  9 30  1  0
 10 31  1  0
 10 32  1  0
 11 33  1  0
 12 34  1  0
 12 35  1  0
 13 36  1  0
 14 37  1  0
 14 38  1  0
 15 39  1  0
 15 40  1  0
 18 41  1  0
 20 42  1  0
 23 43  1  0
 23 44  1  0
 23 45  1  0
M  END
>  <smiles>  (49) 
COc1cc2[nH]c(N3CCC(CO)CC3)nc(=N)c2cc1OC

>  <score_type>  (49) 
oracle

>  <origin>  (49) 
adg

>  <m_score__min__energy>  (49) 
-7.4100000000000001

>  <m_primary>  (49) 
energy

$$$$
