0:0
     RDKit          3D

 61 63  0  0  0  0  0  0  0  0999 V2000
   -5.6740   25.6500  -30.5380 C   0  0  0  0  0  0  0  0  0  0  0  0
   -5.6060   24.6350  -29.3990 C   0  0  0  0  0  0  0  0  0  0  0  0
   -4.2050   24.0220  -29.2270 C   0  0  0  0  0  0  0  0  0  0  0  0
   -4.2400   22.6570  -28.5130 C   0  0  0  0  0  0  0  0  0  0  0  0
   -3.0620   21.8250  -28.8510 N   0  0  0  0  0  0  0  0  0  0  0  0
   -3.2320   21.0530  -30.0970 C   0  0  0  0  0  0  0  0  0  0  0  0
   -2.7590   21.8300  -31.3410 C   0  0  0  0  0  0  0  0  0  0  0  0
   -3.2000   21.1640  -32.6580 C   0  0  0  0  0  0  0  0  0  0  0  0
   -4.5440   21.5800  -33.0760 N   0  0  0  0  0  0  0  0  0  0  0  0
   -5.7170   20.7880  -32.8300 C   0  0  0  0  0  0  0  0  0  0  0  0
   -5.7630   19.4370  -33.2190 C   0  0  0  0  0  0  0  0  0  0  0  0
   -6.8790   18.6470  -32.8300 C   0  0  0  0  0  0  0  0  0  0  0  0
   -7.8630   19.1940  -32.0270 N   0  0  0  0  0  0  0  0  0  0  0  0
   -8.8840   18.3280  -31.4030 C   0  0  0  0  0  0  0  0  0  0  0  0
   -7.9210   20.5590  -31.8430 C   0  0  0  0  0  0  0  0  0  0  0  0
   -6.8410   21.3710  -32.2270 C   0  0  0  0  0  0  0  0  0  0  0  0
   -6.9180   22.8520  -31.9260 C   0  0  0  0  0  0  0  0  0  0  0  0
   -8.2800   23.4080  -32.3540 C   0  0  0  0  0  0  0  0  0  0  0  0
   -9.4780   22.5640  -31.8610 C   0  0  0  0  0  0  0  0  0  0  0  0
   -9.0940   21.2480  -31.1590 C   0  0  0  0  0  0  0  0  0  0  0  0
   -6.9400   17.1770  -33.2290 C   0  0  0  0  0  0  0  0  0  0  0  0
   -6.0870   16.8370  -34.4480 C   0  0  0  0  0  0  0  0  0  0  0  0
   -4.6820   17.3870  -34.2630 C   0  0  0  0  0  0  0  0  0  0  0  0
   -4.7280   18.9090  -34.1990 C   0  0  0  0  0  0  0  0  0  0  0  0
   -5.7420   26.6655  -30.1206 H   0  0  0  0  0  0  0  0  0  0  0  0
   -4.7683   25.5679  -31.1569 H   0  0  0  0  0  0  0  0  0  0  0  0
   -6.5606   25.4478  -31.1569 H   0  0  0  0  0  0  0  0  0  0  0  0
   -5.8861   25.1391  -28.4623 H   0  0  0  0  0  0  0  0  0  0  0  0
   -6.2973   23.8155  -29.6450 H   0  0  0  0  0  0  0  0  0  0  0  0
   -3.7543   23.8881  -30.2215 H   0  0  0  0  0  0  0  0  0  0  0  0
   -3.6144   24.7094  -28.6036 H   0  0  0  0  0  0  0  0  0  0  0  0
   -4.2564   22.8248  -27.4260 H   0  0  0  0  0  0  0  0  0  0  0  0
   -5.1415   22.1218  -28.8460 H   0  0  0  0  0  0  0  0  0  0  0  0
   -2.1870   22.3960  -28.9020 H   0  0  0  0  0  0  0  0  0  0  0  0
   -2.9230   21.1350  -28.0780 H   0  0  0  0  0  0  0  0  0  0  0  0
   -2.6489   20.1236  -30.0186 H   0  0  0  0  0  0  0  0  0  0  0  0
   -4.3057   20.8473  -30.2193 H   0  0  0  0  0  0  0  0  0  0  0  0
   -3.1784   22.8462  -31.3023 H   0  0  0  0  0  0  0  0  0  0  0  0
   -1.6592   21.8444  -31.3267 H   0  0  0  0  0  0  0  0  0  0  0  0
   -2.4847   21.4367  -33.4479 H   0  0  0  0  0  0  0  0  0  0  0  0
   -3.2235   20.0770  -32.4912 H   0  0  0  0  0  0  0  0  0  0  0  0
   -4.6650   22.5250  -33.5080 H   0  0  0  0  0  0  0  0  0  0  0  0
   -8.8033   18.3964  -30.3081 H   0  0  0  0  0  0  0  0  0  0  0  0
   -9.8855   18.6563  -31.7181 H   0  0  0  0  0  0  0  0  0  0  0  0
   -8.7236   17.2864  -31.7181 H   0  0  0  0  0  0  0  0  0  0  0  0
   -6.7837   23.0109  -30.8458 H   0  0  0  0  0  0  0  0  0  0  0  0
   -6.1259   23.3735  -32.4833 H   0  0  0  0  0  0  0  0  0  0  0  0
   -8.3823   24.4258  -31.9496 H   0  0  0  0  0  0  0  0  0  0  0  0
   -8.3040   23.3892  -33.4536 H   0  0  0  0  0  0  0  0  0  0  0  0
  -10.0578   23.1736  -31.1523 H   0  0  0  0  0  0  0  0  0  0  0  0
  -10.0488   22.2820  -32.7580 H   0  0  0  0  0  0  0  0  0  0  0  0
   -8.8183   21.4684  -30.1172 H   0  0  0  0  0  0  0  0  0  0  0  0
   -9.9604   20.5718  -31.2063 H   0  0  0  0  0  0  0  0  0  0  0  0
   -6.5895   16.5717  -32.3800 H   0  0  0  0  0  0  0  0  0  0  0  0
   -7.9846   16.9592  -33.4963 H   0  0  0  0  0  0  0  0  0  0  0  0
   -6.0388   15.7445  -34.5667 H   0  0  0  0  0  0  0  0  0  0  0  0
   -6.5383   17.2877  -35.3442 H   0  0  0  0  0  0  0  0  0  0  0  0
   -4.2565   16.9948  -33.3275 H   0  0  0  0  0  0  0  0  0  0  0  0
   -4.0560   17.0779  -35.1130 H   0  0  0  0  0  0  0  0  0  0  0  0
   -3.7374   19.2760  -33.8924 H   0  0  0  0  0  0  0  0  0  0  0  0
   -5.0114   19.2694  -35.1989 H   0  0  0  0  0  0  0  0  0  0  0  0
  1  2  1  0
  2  3  1  0
  3  4  1  0
  4  5  1  0
  5  6  1  0
  6  7  1  0
  7  8  1  0
  8  9  1  0
  9 10  1  0
 10 11  2  0
 11 12  1  0
 12 13  2  0
 13 14  1  0
 13 15  1  0
 15 16  2  0
 16 17  1  0
 17 18  1  0
 18 19  1  0
 19 20  1  0
 12 21  1  0
 21 22  1  0
 22 23  1  0
 23 24  1  0
 16 10  1  0
 24 11  1  0
 20 15  1  0
  1 25  1  0
  1 26  1  0
  1 27  1  0
  2 28  1  0
  2 29  1  0
  3 30  1  0
  3 31  1  0
  4 32  1  0
  4 33  1  0
  5 34  1  0
  5 35  1  0
  6 36  1  0
  6 37  1  0
  7 38  1  0
  7 39  1  0
  8 40  1  0
  8 41  1  0
  9 42  1  0
 14 43  1  0
 14 44  1  0
 14 45  1  0
 17 46  1  0
 17 47  1  0
 18 48  1  0
 18 49  1  0
 19 50  1  0
 19 51  1  0
 20 52  1  0
 20 53  1  0
 21 54  1  0
 21 55  1  0
 22 56  1  0
 22 57  1  0
 23 58  1  0
 23 59  1  0
 24 60  1  0
 24 61  1  0
M  CHG  2   5   1  13   1
M  END
>  <UniqueID>  (1) 
1

>  <SMILES>  (1) 
CCCC[NH2+]CCCNc1c2c([n+](C)c3c1CCCC3)CCCC2

>  <Energy>  (1) 
73.80374858890222

>  <Genealogy>  (1) 
CCCC[NH2+]CCCNc1c2c([n+](C)c3c1CCCC3)CCCC2 (protonated)
CCCC[NH2+]CCCNc1c2c([n+](C)c3c1CCCC3)CCCC2 (3D coordinates assigned)
CCCC[NH2+]CCCNc1c2c([n+](C)c3c1CCCC3)CCCC2 (nonaromatic ring conformer: 73.80374858890222 kcal/mol)

>  <smiles>  (1) 
CCCCNCCCNc1c2c([n+](C)c3c1CCCC3)CCCC2

>  <score_type>  (1) 
oracle

>  <origin>  (1) 
adg

>  <m_score__min__energy>  (1) 
-8.0199999999999996

>  <m_primary>  (1) 
energy

$$$$
1:0
     RDKit          3D

 48 50  0  0  0  0  0  0  0  0999 V2000
   -5.7380   25.5670  -30.4220 C   0  0  0  0  0  0  0  0  0  0  0  0
   -4.2120   24.5750  -30.3280 S   0  0  0  0  0  0  0  0  0  0  0  0
   -4.9220   23.2210  -29.3260 C   0  0  0  0  0  0  0  0  0  0  0  0
   -3.8130   22.2930  -28.8080 C   0  0  0  0  0  0  0  0  0  0  0  0
   -2.9670   21.7680  -29.8950 N   0  0  0  0  0  0  0  0  0  0  0  0
   -3.7600   21.1210  -30.9580 C   0  0  0  0  0  0  0  0  0  0  0  0
   -3.3080   21.5730  -32.3540 C   0  0  0  0  0  0  0  0  0  0  0  0
   -4.4250   21.5580  -33.2970 N   0  0  0  0  0  0  0  0  0  0  0  0
   -5.5870   20.7430  -33.0590 C   0  0  0  0  0  0  0  0  0  0  0  0
   -5.5820   19.3790  -33.4030 C   0  0  0  0  0  0  0  0  0  0  0  0
   -4.4710   18.7970  -34.0520 C   0  0  0  0  0  0  0  0  0  0  0  0
   -4.4840   17.4540  -34.4210 C   0  0  0  0  0  0  0  0  0  0  0  0
   -5.6030   16.6730  -34.1640 C   0  0  0  0  0  0  0  0  0  0  0  0
   -6.7080   17.2200  -33.5120 C   0  0  0  0  0  0  0  0  0  0  0  0
   -6.7090   18.5740  -33.0850 C   0  0  0  0  0  0  0  0  0  0  0  0
   -7.7730   19.1140  -32.3860 N   0  0  0  0  0  0  0  0  0  0  0  0
   -8.8010   18.2270  -31.7990 C   0  0  0  0  0  0  0  0  0  0  0  0
   -7.8660   20.4830  -32.2210 C   0  0  0  0  0  0  0  0  0  0  0  0
   -9.0590   21.1020  -31.7650 C   0  0  0  0  0  0  0  0  0  0  0  0
   -9.1280   22.4810  -31.5750 C   0  0  0  0  0  0  0  0  0  0  0  0
   -8.0270   23.2820  -31.8510 C   0  0  0  0  0  0  0  0  0  0  0  0
   -6.8530   22.7100  -32.3340 C   0  0  0  0  0  0  0  0  0  0  0  0
   -6.7560   21.3160  -32.5290 C   0  0  0  0  0  0  0  0  0  0  0  0
   -6.0899   25.7957  -29.4052 H   0  0  0  0  0  0  0  0  0  0  0  0
   -5.5331   26.5050  -30.9588 H   0  0  0  0  0  0  0  0  0  0  0  0
   -6.5121   24.9990  -30.9588 H   0  0  0  0  0  0  0  0  0  0  0  0
   -5.4633   23.6503  -28.4700 H   0  0  0  0  0  0  0  0  0  0  0  0
   -5.6085   22.6361  -29.9558 H   0  0  0  0  0  0  0  0  0  0  0  0
   -3.1791   22.8566  -28.1077 H   0  0  0  0  0  0  0  0  0  0  0  0
   -4.2954   21.4364  -28.3146 H   0  0  0  0  0  0  0  0  0  0  0  0
   -2.3960   22.5430  -30.3060 H   0  0  0  0  0  0  0  0  0  0  0  0
   -2.3090   21.0740  -29.4730 H   0  0  0  0  0  0  0  0  0  0  0  0
   -3.6399   20.0304  -30.8795 H   0  0  0  0  0  0  0  0  0  0  0  0
   -4.8131   21.4104  -30.8265 H   0  0  0  0  0  0  0  0  0  0  0  0
   -2.9062   22.5949  -32.2886 H   0  0  0  0  0  0  0  0  0  0  0  0
   -2.5358   20.8775  -32.7145 H   0  0  0  0  0  0  0  0  0  0  0  0
   -4.2880   21.9760  -34.2450 H   0  0  0  0  0  0  0  0  0  0  0  0
   -3.5848   19.4116  -34.2687 H   0  0  0  0  0  0  0  0  0  0  0  0
   -3.6071   17.0117  -34.9164 H   0  0  0  0  0  0  0  0  0  0  0  0
   -5.6180   15.6183  -34.4760 H   0  0  0  0  0  0  0  0  0  0  0  0
   -7.5922   16.5927  -33.3258 H   0  0  0  0  0  0  0  0  0  0  0  0
   -8.7442   18.2760  -30.7016 H   0  0  0  0  0  0  0  0  0  0  0  0
   -9.7983   18.5527  -32.1295 H   0  0  0  0  0  0  0  0  0  0  0  0
   -8.6249   17.1927  -32.1295 H   0  0  0  0  0  0  0  0  0  0  0  0
   -9.9443   20.4828  -31.5580 H   0  0  0  0  0  0  0  0  0  0  0  0
  -10.0581   22.9370  -31.2050 H   0  0  0  0  0  0  0  0  0  0  0  0
   -8.0827   24.3684  -31.6879 H   0  0  0  0  0  0  0  0  0  0  0  0
   -5.9909   23.3526  -32.5663 H   0  0  0  0  0  0  0  0  0  0  0  0
  1  2  1  0
  2  3  1  0
  3  4  1  0
  4  5  1  0
  5  6  1  0
  6  7  1  0
  7  8  1  0
  8  9  1  0
  9 10  2  0
 10 11  1  0
 11 12  2  0
 12 13  1  0
 13 14  2  0
 14 15  1  0
 15 16  2  0
 16 17  1  0
 16 18  1  0
 18 19  2  0
 19 20  1  0
 20 21  2  0
 21 22  1  0
 22 23  2  0
 23  9  1  0
 15 10  1  0
 23 18  1  0
  1 24  1  0
  1 25  1  0
  1 26  1  0
  3 27  1  0
  3 28  1  0
  4 29  1  0
  4 30  1  0
  5 31  1  0
  5 32  1  0
  6 33  1  0
  6 34  1  0
  7 35  1  0
  7 36  1  0
  8 37  1  0
 11 38  1  0
 12 39  1  0
 13 40  1  0
 14 41  1  0
 17 42  1  0
 17 43  1  0
 17 44  1  0
 19 45  1  0
 20 46  1  0
 21 47  1  0
 22 48  1  0
M  CHG  2   5   1  16   1
M  END
>  <UniqueID>  (2) 
2

>  <SMILES>  (2) 
CSCC[NH2+]CCNc1c2ccccc2[n+](C)c2ccccc12

>  <Energy>  (2) 
69.01170114768917

>  <Genealogy>  (2) 
CSCC[NH2+]CCNc1c2ccccc2[n+](C)c2ccccc12 (protonated)
CSCC[NH2+]CCNc1c2ccccc2[n+](C)c2ccccc12 (3D coordinates assigned)
CSCC[NH2+]CCNc1c2ccccc2[n+](C)c2ccccc12 (optimized conformer: 69.01170114768917 kcal/mol)

>  <smiles>  (2) 
CSCCNCCNc1c2ccccc2[n+](C)c2ccccc12

>  <score_type>  (2) 
oracle

>  <origin>  (2) 
adg

>  <m_score__min__energy>  (2) 
-7.5199999999999996

>  <m_primary>  (2) 
energy

$$$$
2:0
     RDKit          3D

 83 85  0  0  0  0  0  0  0  0999 V2000
    0.4180   22.1900  -27.5840 C   0  0  0  0  0  0  0  0  0  0  0  0
   -0.1570   23.2370  -28.5360 C   0  0  0  0  0  0  0  0  0  0  0  0
    0.4100   24.5730  -28.2310 N   0  0  0  0  0  0  0  0  0  0  0  0
    1.6480   24.4560  -27.4250 C   0  0  0  0  0  0  0  0  0  0  0  0
    1.4620   25.1220  -26.0640 C   0  0  0  0  0  0  0  0  0  0  0  0
   -0.5850   25.4370  -27.5520 C   0  0  0  0  0  0  0  0  0  0  0  0
   -2.0100   24.9380  -27.8370 C   0  0  0  0  0  0  0  0  0  0  0  0
   -2.4130   25.2980  -29.1440 O   0  0  0  0  0  0  0  0  0  0  0  0
   -3.7260   24.8470  -29.4050 C   0  0  0  0  0  0  0  0  0  0  0  0
   -3.6820   23.8030  -30.5160 C   0  0  0  0  0  0  0  0  0  0  0  0
   -3.0150   22.5880  -30.0310 N   0  0  0  0  0  0  0  0  0  0  0  0
   -3.8250   21.9320  -28.9970 C   0  0  0  0  0  0  0  0  0  0  0  0
   -2.9260   21.3340  -27.9090 C   0  0  0  0  0  0  0  0  0  0  0  0
   -2.0850   20.1610  -28.4360 C   0  0  0  0  0  0  0  0  0  0  0  0
   -1.9070   20.2790  -29.8870 N   0  0  0  0  0  0  0  0  0  0  0  0
   -0.5870   19.7850  -30.3040 C   0  0  0  0  0  0  0  0  0  0  0  0
   -0.1640   20.4490  -31.6190 C   0  0  0  0  0  0  0  0  0  0  0  0
   -1.2190   21.3580  -32.0920 N   0  0  0  0  0  0  0  0  0  0  0  0
   -1.6740   21.0300  -33.4510 C   0  0  0  0  0  0  0  0  0  0  0  0
   -3.1960   21.1450  -33.5310 C   0  0  0  0  0  0  0  0  0  0  0  0
   -3.8230   20.6630  -32.2990 N   0  0  0  0  0  0  0  0  0  0  0  0
   -5.1620   20.1510  -32.3050 C   0  0  0  0  0  0  0  0  0  0  0  0
   -5.3970   18.8090  -32.6450 C   0  0  0  0  0  0  0  0  0  0  0  0
   -4.3280   17.9550  -32.9810 C   0  0  0  0  0  0  0  0  0  0  0  0
   -4.5650   16.6420  -33.3820 C   0  0  0  0  0  0  0  0  0  0  0  0
   -5.8680   16.1610  -33.4520 C   0  0  0  0  0  0  0  0  0  0  0  0
   -6.9400   16.9800  -33.0940 C   0  0  0  0  0  0  0  0  0  0  0  0
   -6.7270   18.3120  -32.6520 C   0  0  0  0  0  0  0  0  0  0  0  0
   -7.7740   19.1250  -32.2530 N   0  0  0  0  0  0  0  0  0  0  0  0
   -9.1050   18.5380  -31.9830 C   0  0  0  0  0  0  0  0  0  0  0  0
   -7.5690   20.4830  -32.0860 C   0  0  0  0  0  0  0  0  0  0  0  0
   -8.6510   21.3900  -31.9410 C   0  0  0  0  0  0  0  0  0  0  0  0
   -8.4280   22.7510  -31.7430 C   0  0  0  0  0  0  0  0  0  0  0  0
   -7.1300   23.2500  -31.7060 C   0  0  0  0  0  0  0  0  0  0  0  0
   -6.0470   22.3920  -31.8830 C   0  0  0  0  0  0  0  0  0  0  0  0
   -6.2490   21.0100  -32.0810 C   0  0  0  0  0  0  0  0  0  0  0  0
    0.2449   22.5052  -26.5445 H   0  0  0  0  0  0  0  0  0  0  0  0
   -0.0756   21.2230  -27.7610 H   0  0  0  0  0  0  0  0  0  0  0  0
    1.4988   22.0877  -27.7610 H   0  0  0  0  0  0  0  0  0  0  0  0
    0.0941   22.9635  -29.5714 H   0  0  0  0  0  0  0  0  0  0  0  0
   -1.2493   23.2738  -28.4116 H   0  0  0  0  0  0  0  0  0  0  0  0
    1.8858   23.3921  -27.2784 H   0  0  0  0  0  0  0  0  0  0  0  0
    2.4695   24.9570  -27.9581 H   0  0  0  0  0  0  0  0  0  0  0  0
    1.6660   24.3914  -25.2673 H   0  0  0  0  0  0  0  0  0  0  0  0
    2.1580   25.9688  -25.9720 H   0  0  0  0  0  0  0  0  0  0  0  0
    0.4279   25.4856  -25.9720 H   0  0  0  0  0  0  0  0  0  0  0  0
   -0.4035   25.4156  -26.4673 H   0  0  0  0  0  0  0  0  0  0  0  0
   -0.4839   26.4644  -27.9317 H   0  0  0  0  0  0  0  0  0  0  0  0
   -2.0353   23.8426  -27.7401 H   0  0  0  0  0  0  0  0  0  0  0  0
   -2.6982   25.4007  -27.1143 H   0  0  0  0  0  0  0  0  0  0  0  0
   -4.1495   24.3985  -28.4943 H   0  0  0  0  0  0  0  0  0  0  0  0
   -4.3544   25.6943  -29.7166 H   0  0  0  0  0  0  0  0  0  0  0  0
   -4.7081   23.5570  -30.8267 H   0  0  0  0  0  0  0  0  0  0  0  0
   -3.1222   24.2073  -31.3723 H   0  0  0  0  0  0  0  0  0  0  0  0
   -2.9210   21.9240  -30.8350 H   0  0  0  0  0  0  0  0  0  0  0  0
   -4.4999   22.6721  -28.5424 H   0  0  0  0  0  0  0  0  0  0  0  0
   -4.4071   21.1226  -29.4617 H   0  0  0  0  0  0  0  0  0  0  0  0
   -2.2490   22.1175  -27.5377 H   0  0  0  0  0  0  0  0  0  0  0  0
   -3.5734   20.9532  -27.1054 H   0  0  0  0  0  0  0  0  0  0  0  0
   -1.0998   20.1712  -27.9468 H   0  0  0  0  0  0  0  0  0  0  0  0
   -2.6045   19.2174  -28.2130 H   0  0  0  0  0  0  0  0  0  0  0  0
   -1.9720   21.2910  -30.1490 H   0  0  0  0  0  0  0  0  0  0  0  0
    0.1520   20.0205  -29.5240 H   0  0  0  0  0  0  0  0  0  0  0  0
   -0.6421   18.6966  -30.4532 H   0  0  0  0  0  0  0  0  0  0  0  0
    0.7617   21.0204  -31.4561 H   0  0  0  0  0  0  0  0  0  0  0  0
    0.0040   19.6694  -32.3766 H   0  0  0  0  0  0  0  0  0  0  0  0
   -2.0430   21.2750  -31.4500 H   0  0  0  0  0  0  0  0  0  0  0  0
   -1.2171   21.7287  -34.1673 H   0  0  0  0  0  0  0  0  0  0  0  0
   -1.3750   19.9999  -33.6947 H   0  0  0  0  0  0  0  0  0  0  0  0
   -3.4697   22.1991  -33.6855 H   0  0  0  0  0  0  0  0  0  0  0  0
   -3.5509   20.5283  -34.3699 H   0  0  0  0  0  0  0  0  0  0  0  0
   -3.3710   20.8350  -31.3740 H   0  0  0  0  0  0  0  0  0  0  0  0
   -3.2950   18.3290  -32.9261 H   0  0  0  0  0  0  0  0  0  0  0  0
   -3.7216   15.9859  -33.6432 H   0  0  0  0  0  0  0  0  0  0  0  0
   -6.0545   15.1312  -33.7908 H   0  0  0  0  0  0  0  0  0  0  0  0
   -7.9657   16.5872  -33.1553 H   0  0  0  0  0  0  0  0  0  0  0  0
   -9.2617   18.4689  -30.8964 H   0  0  0  0  0  0  0  0  0  0  0  0
   -9.8839   19.1761  -32.4259 H   0  0  0  0  0  0  0  0  0  0  0  0
   -9.1590   17.5326  -32.4259 H   0  0  0  0  0  0  0  0  0  0  0  0
   -9.6831   21.0121  -31.9857 H   0  0  0  0  0  0  0  0  0  0  0  0
   -9.2813   23.4333  -31.6155 H   0  0  0  0  0  0  0  0  0  0  0  0
   -6.9587   24.3233  -31.5368 H   0  0  0  0  0  0  0  0  0  0  0  0
   -5.0240   22.7962  -31.8682 H   0  0  0  0  0  0  0  0  0  0  0  0
  1  2  1  0
  2  3  1  0
  3  4  1  0
  4  5  1  0
  3  6  1  0
  6  7  1  0
  7  8  1  0
  8  9  1  0
  9 10  1  0
 10 11  1  0
 11 12  1  0
 12 13  1  0
 13 14  1  0
 14 15  1  0
 15 16  1  0
 16 17  1  0
 17 18  1  0
 18 19  1  0
 19 20  1  0
 20 21  1  0
 21 22  1  0
 22 23  2  0
 23 24  1  0
 24 25  2  0
 25 26  1  0
 26 27  2  0
 27 28  1  0
 28 29  2  0
 29 30  1  0
 29 31  1  0
 31 32  2  0
 32 33  1  0
 33 34  2  0
 34 35  1  0
 35 36  2  0
 36 22  1  0
 28 23  1  0
 36 31  1  0
  1 37  1  0
  1 38  1  0
  1 39  1  0
  2 40  1  0
  2 41  1  0
  4 42  1  0
  4 43  1  0
  5 44  1  0
  5 45  1  0
  5 46  1  0
  6 47  1  0
  6 48  1  0
  7 49  1  0
  7 50  1  0
  9 51  1  0
  9 52  1  0
 10 53  1  0
 10 54  1  0
 11 55  1  0
 12 56  1  0
 12 57  1  0
 13 58  1  0
 13 59  1  0
 14 60  1  0
 14 61  1  0
 15 62  1  0
 16 63  1  0
 16 64  1  0
 17 65  1  0
 17 66  1  0
 18 67  1  0
 19 68  1  0
 19 69  1  0
 20 70  1  0
 20 71  1  0
 21 72  1  0
 24 73  1  0
 25 74  1  0
 26 75  1  0
 27 76  1  0
 30 77  1  0
 30 78  1  0
 30 79  1  0
 32 80  1  0
 33 81  1  0
 34 82  1  0
 35 83  1  0
M  CHG  1  29   1
M  END
>  <UniqueID>  (3) 
3

>  <SMILES>  (3) 
CCN(CC)CCOCCNCCCNCCNCCNc1c2ccccc2[n+](C)c2ccccc12

>  <Energy>  (3) 
94.66529881321641

>  <Genealogy>  (3) 
CCN(CC)CCOCCNCCCNCCNCCNc1c2ccccc2[n+](C)c2ccccc12 (3D coordinates assigned)
CCN(CC)CCOCCNCCCNCCNCCNc1c2ccccc2[n+](C)c2ccccc12 (optimized conformer: 94.66529881321641 kcal/mol)

>  <smiles>  (3) 
CCN(CC)CCOCCNCCCNCCNCCNc1c2ccccc2[n+](C)c2ccccc12

>  <score_type>  (3) 
oracle

>  <origin>  (3) 
adg

>  <m_score__min__energy>  (3) 
-8.9000000000000004

>  <m_primary>  (3) 
energy

$$$$
3:0
     RDKit          3D

 36 38  0  0  0  0  0  0  0  0999 V2000
    0.0140   25.3650  -26.5440 C   0  0  0  0  0  0  0  0  0  0  0  0
    0.2520   24.8340  -27.8430 O   0  0  0  0  0  0  0  0  0  0  0  0
   -0.7430   24.2900  -28.6700 C   0  0  0  0  0  0  0  0  0  0  0  0
   -0.5360   23.1280  -29.4360 C   0  0  0  0  0  0  0  0  0  0  0  0
   -1.5580   22.6270  -30.2480 C   0  0  0  0  0  0  0  0  0  0  0  0
   -2.7950   23.2850  -30.3220 C   0  0  0  0  0  0  0  0  0  0  0  0
   -3.8680   22.7280  -31.1720 C   0  0  0  0  0  0  0  0  0  0  0  0
   -3.6640   22.3650  -32.4570 N   0  0  0  0  0  0  0  0  0  0  0  0
   -4.8230   21.9070  -32.9040 N   0  0  0  0  0  0  0  0  0  0  0  0
   -5.7210   22.0060  -31.9110 C   0  0  0  0  0  0  0  0  0  0  0  0
   -7.1260   21.5840  -32.0360 C   0  0  0  0  0  0  0  0  0  0  0  0
   -8.1440   22.5100  -31.7600 C   0  0  0  0  0  0  0  0  0  0  0  0
   -9.4860   22.1360  -31.8720 C   0  0  0  0  0  0  0  0  0  0  0  0
   -9.8200   20.8330  -32.2510 C   0  0  0  0  0  0  0  0  0  0  0  0
   -8.8120   19.9000  -32.5120 C   0  0  0  0  0  0  0  0  0  0  0  0
   -7.4650   20.2660  -32.4010 C   0  0  0  0  0  0  0  0  0  0  0  0
   -6.1250   18.9290  -32.7130 Br  0  0  0  0  0  0  0  0  0  0  0  0
   -5.1570   22.5300  -30.8020 N   0  0  0  0  0  0  0  0  0  0  0  0
   -5.7840   22.7540  -29.4990 C   0  0  0  0  0  0  0  0  0  0  0  0
   -3.0060   24.4320  -29.5400 C   0  0  0  0  0  0  0  0  0  0  0  0
   -1.9840   24.9320  -28.7280 C   0  0  0  0  0  0  0  0  0  0  0  0
    0.3398   24.6381  -25.7854 H   0  0  0  0  0  0  0  0  0  0  0  0
    0.5787   26.3010  -26.4214 H   0  0  0  0  0  0  0  0  0  0  0  0
   -1.0605   25.5663  -26.4214 H   0  0  0  0  0  0  0  0  0  0  0  0
    0.4343   22.6114  -29.3958 H   0  0  0  0  0  0  0  0  0  0  0  0
   -1.3911   21.7105  -30.8330 H   0  0  0  0  0  0  0  0  0  0  0  0
   -4.9870   21.5430  -33.8690 H   0  0  0  0  0  0  0  0  0  0  0  0
   -7.8845   23.5343  -31.4543 H   0  0  0  0  0  0  0  0  0  0  0  0
  -10.2799   22.8678  -31.6617 H   0  0  0  0  0  0  0  0  0  0  0  0
  -10.8765   20.5413  -32.3440 H   0  0  0  0  0  0  0  0  0  0  0  0
   -9.0783   18.8740  -32.8058 H   0  0  0  0  0  0  0  0  0  0  0  0
   -5.0714   22.4994  -28.7006 H   0  0  0  0  0  0  0  0  0  0  0  0
   -6.0738   23.8113  -29.4084 H   0  0  0  0  0  0  0  0  0  0  0  0
   -6.6781   22.1197  -29.4084 H   0  0  0  0  0  0  0  0  0  0  0  0
   -3.9813   24.9400  -29.5666 H   0  0  0  0  0  0  0  0  0  0  0  0
   -2.1574   25.8384  -28.1294 H   0  0  0  0  0  0  0  0  0  0  0  0
  1  2  1  0
  2  3  1  0
  3  4  2  0
  4  5  1  0
  5  6  2  0
  6  7  1  0
  7  8  2  0
  8  9  1  0
  9 10  2  0
 10 11  1  0
 11 12  2  0
 12 13  1  0
 13 14  2  0
 14 15  1  0
 15 16  2  0
 16 17  1  0
 10 18  1  0
 18 19  1  0
  6 20  1  0
 20 21  2  0
 21  3  1  0
 18  7  1  0
 16 11  1  0
  1 22  1  0
  1 23  1  0
  1 24  1  0
  4 25  1  0
  5 26  1  0
  9 27  1  0
 12 28  1  0
 13 29  1  0
 14 30  1  0
 15 31  1  0
 19 32  1  0
 19 33  1  0
 19 34  1  0
 20 35  1  0
 21 36  1  0
M  CHG  1   9   1
M  END
>  <UniqueID>  (4) 
4

>  <SMILES>  (4) 
COc1ccc(-c2n[nH+]c(-c3ccccc3Br)n2C)cc1

>  <Energy>  (4) 
85.40513025803165

>  <Genealogy>  (4) 
COc1ccc(-c2n[nH+]c(-c3ccccc3Br)n2C)cc1 (protonated)
COc1ccc(-c2n[nH+]c(-c3ccccc3Br)n2C)cc1 (3D coordinates assigned)
COc1ccc(-c2n[nH+]c(-c3ccccc3Br)n2C)cc1 (optimized conformer: 85.40513025803165 kcal/mol)

>  <smiles>  (4) 
COc1ccc(-c2nnc(-c3ccccc3Br)n2C)cc1

>  <score_type>  (4) 
oracle

>  <origin>  (4) 
adg

>  <m_score__min__energy>  (4) 
-7.0700000000000003

>  <m_primary>  (4) 
energy

$$$$
4:0
     RDKit          3D

 47 49  0  0  0  0  0  0  0  0999 V2000
   -6.4860   25.6250  -29.6670 C   0  0  0  0  0  0  0  0  0  0  0  0
   -5.4780   24.9550  -28.8380 N   0  0  0  0  0  0  0  0  0  0  0  0
   -4.4740   24.2350  -29.6430 C   0  0  0  0  0  0  0  0  0  0  0  0
   -5.0040   22.8910  -30.1690 C   0  0  0  0  0  0  0  0  0  0  0  0
   -5.0170   22.8680  -31.6330 N   0  0  0  0  0  0  0  0  0  0  0  0
   -5.2930   21.6610  -32.3580 C   0  0  0  0  0  0  0  0  0  0  0  0
   -6.6090   21.1680  -32.4300 C   0  0  0  0  0  0  0  0  0  0  0  0
   -6.8150   19.8510  -32.8970 C   0  0  0  0  0  0  0  0  0  0  0  0
   -5.7970   19.1610  -33.5240 N   0  0  0  0  0  0  0  0  0  0  0  0
   -6.0970   17.9110  -34.2560 C   0  0  0  0  0  0  0  0  0  0  0  0
   -4.5010   19.6370  -33.4680 C   0  0  0  0  0  0  0  0  0  0  0  0
   -3.4030   18.8740  -33.9460 C   0  0  0  0  0  0  0  0  0  0  0  0
   -2.1020   19.3750  -33.8930 C   0  0  0  0  0  0  0  0  0  0  0  0
   -1.8580   20.6340  -33.3600 C   0  0  0  0  0  0  0  0  0  0  0  0
   -2.9100   21.3960  -32.8570 C   0  0  0  0  0  0  0  0  0  0  0  0
   -4.2340   20.9050  -32.8890 C   0  0  0  0  0  0  0  0  0  0  0  0
   -8.1830   19.2290  -32.6870 C   0  0  0  0  0  0  0  0  0  0  0  0
   -8.8680   19.8180  -31.4560 C   0  0  0  0  0  0  0  0  0  0  0  0
   -9.0170   21.3270  -31.6230 C   0  0  0  0  0  0  0  0  0  0  0  0
   -7.7510   21.9650  -32.0090 N   0  0  0  0  0  0  0  0  0  0  0  0
   -7.7980   23.4070  -32.2840 C   0  0  0  0  0  0  0  0  0  0  0  0
   -7.2260   26.1169  -29.0186 H   0  0  0  0  0  0  0  0  0  0  0  0
   -5.9967   26.3782  -30.3020 H   0  0  0  0  0  0  0  0  0  0  0  0
   -6.9911   24.8823  -30.3020 H   0  0  0  0  0  0  0  0  0  0  0  0
   -5.0120   25.6590  -28.2180 H   0  0  0  0  0  0  0  0  0  0  0  0
   -5.9690   24.2610  -28.2270 H   0  0  0  0  0  0  0  0  0  0  0  0
   -4.1906   24.8636  -30.5001 H   0  0  0  0  0  0  0  0  0  0  0  0
   -3.6097   24.0262  -28.9954 H   0  0  0  0  0  0  0  0  0  0  0  0
   -4.3565   22.0808  -29.8024 H   0  0  0  0  0  0  0  0  0  0  0  0
   -6.0340   22.7552  -29.8075 H   0  0  0  0  0  0  0  0  0  0  0  0
   -4.6110   23.6780  -32.1530 H   0  0  0  0  0  0  0  0  0  0  0  0
   -6.2911   17.1022  -33.5362 H   0  0  0  0  0  0  0  0  0  0  0  0
   -6.9848   18.0603  -34.8881 H   0  0  0  0  0  0  0  0  0  0  0  0
   -5.2381   17.6411  -34.8881 H   0  0  0  0  0  0  0  0  0  0  0  0
   -3.5809   17.8724  -34.3646 H   0  0  0  0  0  0  0  0  0  0  0  0
   -1.2662   18.7704  -34.2749 H   0  0  0  0  0  0  0  0  0  0  0  0
   -0.8321   21.0302  -33.3350 H   0  0  0  0  0  0  0  0  0  0  0  0
   -2.7077   22.3897  -32.4308 H   0  0  0  0  0  0  0  0  0  0  0  0
   -8.8061   19.4225  -33.5726 H   0  0  0  0  0  0  0  0  0  0  0  0
   -8.0566   18.1470  -32.5341 H   0  0  0  0  0  0  0  0  0  0  0  0
   -9.8626   19.3632  -31.3383 H   0  0  0  0  0  0  0  0  0  0  0  0
   -8.2582   19.6086  -30.5647 H   0  0  0  0  0  0  0  0  0  0  0  0
   -9.7672   21.5258  -32.4025 H   0  0  0  0  0  0  0  0  0  0  0  0
   -9.3284   21.7472  -30.6553 H   0  0  0  0  0  0  0  0  0  0  0  0
   -7.8161   23.9611  -31.3339 H   0  0  0  0  0  0  0  0  0  0  0  0
   -6.9089   23.6992  -32.8620 H   0  0  0  0  0  0  0  0  0  0  0  0
   -8.7042   23.6407  -32.8620 H   0  0  0  0  0  0  0  0  0  0  0  0
  1  2  1  0
  2  3  1  0
  3  4  1  0
  4  5  1  0
  5  6  1  0
  6  7  2  0
  7  8  1  0
  8  9  2  0
  9 10  1  0
  9 11  1  0
 11 12  2  0
 12 13  1  0
 13 14  2  0
 14 15  1  0
 15 16  2  0
  8 17  1  0
 17 18  1  0
 18 19  1  0
 19 20  1  0
 20 21  1  0
 16  6  1  0
 20  7  1  0
 16 11  1  0
  1 22  1  0
  1 23  1  0
  1 24  1  0
  2 25  1  0
  2 26  1  0
  3 27  1  0
  3 28  1  0
  4 29  1  0
  4 30  1  0
  5 31  1  0
 10 32  1  0
 10 33  1  0
 10 34  1  0
 12 35  1  0
 13 36  1  0
 14 37  1  0
 15 38  1  0
 17 39  1  0
 17 40  1  0
 18 41  1  0
 18 42  1  0
 19 43  1  0
 19 44  1  0
 21 45  1  0
 21 46  1  0
 21 47  1  0
M  CHG  2   2   1   9   1
M  END
>  <UniqueID>  (5) 
5

>  <SMILES>  (5) 
C[NH2+]CCNc1c2c([n+](C)c3ccccc13)CCCN2C

>  <Energy>  (5) 
69.94678681626617

>  <Genealogy>  (5) 
C[NH2+]CCNc1c2c([n+](C)c3ccccc13)CCCN2C (protonated)
C[NH2+]CCNc1c2c([n+](C)c3ccccc13)CCCN2C (3D coordinates assigned)
C[NH2+]CCNc1c2c([n+](C)c3ccccc13)CCCN2C (nonaromatic ring conformer: 69.94678681626617 kcal/mol)

>  <smiles>  (5) 
CNCCNc1c2c([n+](C)c3ccccc13)CCCN2C

>  <score_type>  (5) 
oracle

>  <origin>  (5) 
adg

>  <m_score__min__energy>  (5) 
-6.7199999999999998

>  <m_primary>  (5) 
energy

$$$$
5:0
     RDKit          3D

 58 60  0  0  0  0  0  0  0  0999 V2000
   -1.4890   24.0950  -29.2820 C   0  0  0  0  0  0  0  0  0  0  0  0
   -2.9100   24.5890  -29.0270 C   0  0  0  0  0  0  0  0  0  0  0  0
   -3.5490   24.9840  -30.2920 N   0  0  0  0  0  0  0  0  0  0  0  0
   -5.0120   24.8140  -30.2680 C   0  0  0  0  0  0  0  0  0  0  0  0
   -5.4480   23.6580  -29.3460 C   0  0  0  0  0  0  0  0  0  0  0  0
   -4.9590   22.2920  -29.8420 C   0  0  0  0  0  0  0  0  0  0  0  0
   -4.0390   22.4520  -30.9750 N   0  0  0  0  0  0  0  0  0  0  0  0
   -3.4100   21.1710  -31.3200 C   0  0  0  0  0  0  0  0  0  0  0  0
   -3.2950   21.0240  -32.8420 C   0  0  0  0  0  0  0  0  0  0  0  0
   -4.5300   21.4570  -33.5180 N   0  0  0  0  0  0  0  0  0  0  0  0
   -5.6510   20.6180  -33.1190 C   0  0  0  0  0  0  0  0  0  0  0  0
   -6.7840   21.1880  -32.4800 C   0  0  0  0  0  0  0  0  0  0  0  0
   -6.9250   22.5910  -32.3300 C   0  0  0  0  0  0  0  0  0  0  0  0
   -7.9880   23.1330  -31.6120 C   0  0  0  0  0  0  0  0  0  0  0  0
   -8.9300   22.3000  -31.0270 C   0  0  0  0  0  0  0  0  0  0  0  0
   -8.8460   20.9220  -31.2020 C   0  0  0  0  0  0  0  0  0  0  0  0
   -7.8090   20.3390  -31.9780 C   0  0  0  0  0  0  0  0  0  0  0  0
   -7.7810   18.9830  -32.2340 N   0  0  0  0  0  0  0  0  0  0  0  0
   -8.9860   18.1600  -31.9790 C   0  0  0  0  0  0  0  0  0  0  0  0
   -6.6550   18.4010  -32.7830 C   0  0  0  0  0  0  0  0  0  0  0  0
   -6.5070   16.9910  -32.8370 C   0  0  0  0  0  0  0  0  0  0  0  0
   -5.4220   16.4010  -33.4770 C   0  0  0  0  0  0  0  0  0  0  0  0
   -4.4420   17.1900  -34.0720 C   0  0  0  0  0  0  0  0  0  0  0  0
   -3.3160   16.5510  -34.8320 C   0  0  0  0  0  0  0  0  0  0  0  0
   -4.5410   18.5820  -33.9970 C   0  0  0  0  0  0  0  0  0  0  0  0
   -5.6060   19.2090  -33.3030 C   0  0  0  0  0  0  0  0  0  0  0  0
   -0.9838   23.9194  -28.3208 H   0  0  0  0  0  0  0  0  0  0  0  0
   -1.5243   23.1564  -29.8545 H   0  0  0  0  0  0  0  0  0  0  0  0
   -0.9345   24.8531  -29.8545 H   0  0  0  0  0  0  0  0  0  0  0  0
   -3.4959   23.7832  -28.5608 H   0  0  0  0  0  0  0  0  0  0  0  0
   -2.8704   25.4619  -28.3588 H   0  0  0  0  0  0  0  0  0  0  0  0
   -3.1400   24.4190  -31.0740 H   0  0  0  0  0  0  0  0  0  0  0  0
   -5.4713   25.7466  -29.9085 H   0  0  0  0  0  0  0  0  0  0  0  0
   -5.3413   24.5741  -31.2898 H   0  0  0  0  0  0  0  0  0  0  0  0
   -5.0380   23.8353  -28.3408 H   0  0  0  0  0  0  0  0  0  0  0  0
   -6.5477   23.6353  -29.3373 H   0  0  0  0  0  0  0  0  0  0  0  0
   -4.4371   21.7757  -29.0228 H   0  0  0  0  0  0  0  0  0  0  0  0
   -5.8276   21.7029  -30.1713 H   0  0  0  0  0  0  0  0  0  0  0  0
   -3.2750   23.1050  -30.6810 H   0  0  0  0  0  0  0  0  0  0  0  0
   -2.4049   21.1294  -30.8750 H   0  0  0  0  0  0  0  0  0  0  0  0
   -4.0312   20.3519  -30.9286 H   0  0  0  0  0  0  0  0  0  0  0  0
   -2.4566   21.6402  -33.1989 H   0  0  0  0  0  0  0  0  0  0  0  0
   -3.1260   19.9625  -33.0758 H   0  0  0  0  0  0  0  0  0  0  0  0
   -4.7170   22.4640  -33.3200 H   0  0  0  0  0  0  0  0  0  0  0  0
   -4.4150   21.4470  -34.5560 H   0  0  0  0  0  0  0  0  0  0  0  0
   -6.1831   23.2617  -32.7880 H   0  0  0  0  0  0  0  0  0  0  0  0
   -8.0807   24.2242  -31.5086 H   0  0  0  0  0  0  0  0  0  0  0  0
   -9.7441   22.7289  -30.4243 H   0  0  0  0  0  0  0  0  0  0  0  0
   -9.5973   20.2716  -30.7302 H   0  0  0  0  0  0  0  0  0  0  0  0
   -9.1368   18.0570  -30.8943 H   0  0  0  0  0  0  0  0  0  0  0  0
   -9.8645   18.6476  -32.4267 H   0  0  0  0  0  0  0  0  0  0  0  0
   -8.8514   17.1643  -32.4267 H   0  0  0  0  0  0  0  0  0  0  0  0
   -7.2659   16.3512  -32.3630 H   0  0  0  0  0  0  0  0  0  0  0  0
   -5.3381   15.3048  -33.5130 H   0  0  0  0  0  0  0  0  0  0  0  0
   -2.5844   16.1358  -34.1232 H   0  0  0  0  0  0  0  0  0  0  0  0
   -3.7126   15.7434  -35.4648 H   0  0  0  0  0  0  0  0  0  0  0  0
   -2.8260   17.3056  -35.4648 H   0  0  0  0  0  0  0  0  0  0  0  0
   -3.7769   19.2037  -34.4865 H   0  0  0  0  0  0  0  0  0  0  0  0
  1  2  1  0
  2  3  1  0
  3  4  1  0
  4  5  1  0
  5  6  1  0
  6  7  1  0
  7  8  1  0
  8  9  1  0
  9 10  1  0
 10 11  1  0
 11 12  2  0
 12 13  1  0
 13 14  2  0
 14 15  1  0
 15 16  2  0
 16 17  1  0
 17 18  2  0
 18 19  1  0
 18 20  1  0
 20 21  2  0
 21 22  1  0
 22 23  2  0
 23 24  1  0
 23 25  1  0
 25 26  2  0
 26 11  1  0
 17 12  1  0
 26 20  1  0
  1 27  1  0
  1 28  1  0
  1 29  1  0
  2 30  1  0
  2 31  1  0
  3 32  1  0
  4 33  1  0
  4 34  1  0
  5 35  1  0
  5 36  1  0
  6 37  1  0
  6 38  1  0
  7 39  1  0
  8 40  1  0
  8 41  1  0
  9 42  1  0
  9 43  1  0
 10 44  1  0
 10 45  1  0
 13 46  1  0
 14 47  1  0
 15 48  1  0
 16 49  1  0
 19 50  1  0
 19 51  1  0
 19 52  1  0
 21 53  1  0
 22 54  1  0
 24 55  1  0
 24 56  1  0
 24 57  1  0
 25 58  1  0
M  CHG  2  10   1  18   1
M  END
>  <UniqueID>  (6) 
6

>  <SMILES>  (6) 
CCNCCCNCC[NH2+]c1c2ccccc2[n+](C)c2ccc(C)cc12

>  <Energy>  (6) 
79.04875764450307

>  <Genealogy>  (6) 
CCNCCCNCC[NH2+]c1c2ccccc2[n+](C)c2ccc(C)cc12 (protonated)
CCNCCCNCC[NH2+]c1c2ccccc2[n+](C)c2ccc(C)cc12 (3D coordinates assigned)
CCNCCCNCC[NH2+]c1c2ccccc2[n+](C)c2ccc(C)cc12 (optimized conformer: 79.04875764450307 kcal/mol)

>  <smiles>  (6) 
CCNCCCNCCNc1c2ccccc2[n+](C)c2ccc(C)cc12

>  <score_type>  (6) 
oracle

>  <origin>  (6) 
adg

>  <m_score__min__energy>  (6) 
-8.2799999999999994

>  <m_primary>  (6) 
energy

$$$$
6:0
     RDKit          3D

 52 54  0  0  0  0  0  0  0  0999 V2000
   -4.6230   23.0850  -28.6350 C   0  0  0  0  0  0  0  0  0  0  0  0
   -5.7050   23.5480  -29.6020 C   0  0  0  0  0  0  0  0  0  0  0  0
   -4.9890   24.1550  -31.1170 S   0  0  0  0  0  0  0  0  0  0  0  0
   -3.5300   23.7950  -31.1750 O   0  0  0  0  0  0  0  0  0  0  0  0
   -5.1240   25.6490  -31.1840 O   0  0  0  0  0  0  0  0  0  0  0  0
   -5.8050   23.4230  -32.4560 N   0  0  0  0  0  0  0  0  0  0  0  0
   -6.8120   22.4270  -32.2430 C   0  0  0  0  0  0  0  0  0  0  0  0
   -8.0460   22.7900  -31.6810 C   0  0  0  0  0  0  0  0  0  0  0  0
   -9.0440   21.8330  -31.4820 C   0  0  0  0  0  0  0  0  0  0  0  0
   -8.8150   20.5000  -31.8280 C   0  0  0  0  0  0  0  0  0  0  0  0
   -7.5880   20.1220  -32.3830 C   0  0  0  0  0  0  0  0  0  0  0  0
   -6.5860   21.0780  -32.6050 C   0  0  0  0  0  0  0  0  0  0  0  0
   -5.3070   20.6460  -33.1960 C   0  0  0  0  0  0  0  0  0  0  0  0
   -4.3840   21.4980  -33.3010 O   0  0  0  0  0  0  0  0  0  0  0  0
   -5.1120   19.2920  -33.6720 N   0  0  0  0  0  0  0  0  0  0  0  0
   -6.0780   18.6710  -34.5840 C   0  0  0  0  0  0  0  0  0  0  0  0
   -6.5040   17.3260  -34.0090 C   0  0  0  0  0  0  0  0  0  0  0  0
   -5.3010   16.4730  -33.7040 C   0  0  0  0  0  0  0  0  0  0  0  0
   -5.4310   15.0760  -33.6830 C   0  0  0  0  0  0  0  0  0  0  0  0
   -4.3390   14.2570  -33.3480 C   0  0  0  0  0  0  0  0  0  0  0  0
   -4.4390   12.8570  -33.3310 O   0  0  0  0  0  0  0  0  0  0  0  0
   -4.5730   12.0740  -32.1520 C   0  0  0  0  0  0  0  0  0  0  0  0
   -3.1070   14.8410  -33.0190 C   0  0  0  0  0  0  0  0  0  0  0  0
   -2.0370   13.9980  -32.6870 O   0  0  0  0  0  0  0  0  0  0  0  0
   -0.8670   14.4130  -31.9890 C   0  0  0  0  0  0  0  0  0  0  0  0
   -2.9770   16.2430  -33.0330 C   0  0  0  0  0  0  0  0  0  0  0  0
   -4.0650   17.0620  -33.3630 C   0  0  0  0  0  0  0  0  0  0  0  0
   -3.8660   18.5620  -33.3890 C   0  0  0  0  0  0  0  0  0  0  0  0
   -4.9678   23.2326  -27.6009 H   0  0  0  0  0  0  0  0  0  0  0  0
   -4.4132   22.0183  -28.8029 H   0  0  0  0  0  0  0  0  0  0  0  0
   -3.7066   23.6698  -28.8029 H   0  0  0  0  0  0  0  0  0  0  0  0
   -6.3688   22.7014  -29.8315 H   0  0  0  0  0  0  0  0  0  0  0  0
   -6.2714   24.3643  -29.1300 H   0  0  0  0  0  0  0  0  0  0  0  0
   -5.3370   23.4860  -33.3870 H   0  0  0  0  0  0  0  0  0  0  0  0
   -8.2286   23.8364  -31.3950 H   0  0  0  0  0  0  0  0  0  0  0  0
  -10.0119   22.1302  -31.0520 H   0  0  0  0  0  0  0  0  0  0  0  0
   -9.5997   19.7468  -31.6641 H   0  0  0  0  0  0  0  0  0  0  0  0
   -7.4079   19.0694  -32.6468 H   0  0  0  0  0  0  0  0  0  0  0  0
   -6.9577   19.3228  -34.6900 H   0  0  0  0  0  0  0  0  0  0  0  0
   -5.6176   18.5252  -35.5723 H   0  0  0  0  0  0  0  0  0  0  0  0
   -7.0726   17.4931  -33.0823 H   0  0  0  0  0  0  0  0  0  0  0  0
   -7.1279   16.8057  -34.7507 H   0  0  0  0  0  0  0  0  0  0  0  0
   -6.3990   14.6164  -33.9317 H   0  0  0  0  0  0  0  0  0  0  0  0
   -4.4625   12.7198  -31.2684 H   0  0  0  0  0  0  0  0  0  0  0  0
   -5.5654   11.5997  -32.1377 H   0  0  0  0  0  0  0  0  0  0  0  0
   -3.7948   11.2967  -32.1377 H   0  0  0  0  0  0  0  0  0  0  0  0
   -1.0448   14.3499  -30.9053 H   0  0  0  0  0  0  0  0  0  0  0  0
   -0.0260   13.7583  -32.2613 H   0  0  0  0  0  0  0  0  0  0  0  0
   -0.6265   15.4513  -32.2613 H   0  0  0  0  0  0  0  0  0  0  0  0
   -2.0090   16.7011  -32.7817 H   0  0  0  0  0  0  0  0  0  0  0  0
   -3.4835   18.8839  -32.4092 H   0  0  0  0  0  0  0  0  0  0  0  0
   -3.1547   18.7904  -34.1964 H   0  0  0  0  0  0  0  0  0  0  0  0
  1  2  1  0
  2  3  1  0
  3  4  2  0
  3  5  2  0
  3  6  1  0
  6  7  1  0
  7  8  2  0
  8  9  1  0
  9 10  2  0
 10 11  1  0
 11 12  2  0
 12 13  1  0
 13 14  2  0
 13 15  1  0
 15 16  1  0
 16 17  1  0
 17 18  1  0
 18 19  2  0
 19 20  1  0
 20 21  1  0
 21 22  1  0
 20 23  2  0
 23 24  1  0
 24 25  1  0
 23 26  1  0
 26 27  2  0
 27 28  1  0
 12  7  1  0
 28 15  1  0
 27 18  1  0
  1 29  1  0
  1 30  1  0
  1 31  1  0
  2 32  1  0
  2 33  1  0
  6 34  1  0
  8 35  1  0
  9 36  1  0
 10 37  1  0
 11 38  1  0
 16 39  1  0
 16 40  1  0
 17 41  1  0
 17 42  1  0
 19 43  1  0
 22 44  1  0
 22 45  1  0
 22 46  1  0
 25 47  1  0
 25 48  1  0
 25 49  1  0
 26 50  1  0
 28 51  1  0
 28 52  1  0
M  END
>  <UniqueID>  (7) 
7

>  <SMILES>  (7) 
CCS(=O)(=O)Nc1ccccc1C(=O)N1CCc2cc(OC)c(OC)cc2C1

>  <Energy>  (7) 
59.898239400489835

>  <Genealogy>  (7) 
CCS(=O)(=O)Nc1ccccc1C(=O)N1CCc2cc(OC)c(OC)cc2C1 (3D coordinates assigned)
CCS(=O)(=O)Nc1ccccc1C(=O)N1CCc2cc(OC)c(OC)cc2C1 (nonaromatic ring conformer: 59.898239400489835 kcal/mol)

>  <smiles>  (7) 
CCS(=O)(=O)Nc1ccccc1C(=O)N1CCc2cc(OC)c(OC)cc2C1

>  <score_type>  (7) 
oracle

>  <origin>  (7) 
adg

>  <m_score__min__energy>  (7) 
-8.6799999999999997

>  <m_primary>  (7) 
energy

$$$$
7:0
     RDKit          3D

 67 69  0  0  0  0  0  0  0  0999 V2000
   -2.8500   20.3930  -27.4710 C   0  0  0  0  0  0  0  0  0  0  0  0
   -3.1300   21.6200  -28.3320 C   0  0  0  0  0  0  0  0  0  0  0  0
   -1.9630   21.8870  -29.2150 N   0  0  0  0  0  0  0  0  0  0  0  0
   -1.6510   23.3330  -29.2910 C   0  0  0  0  0  0  0  0  0  0  0  0
   -2.4010   24.1160  -28.2130 C   0  0  0  0  0  0  0  0  0  0  0  0
   -0.7680   21.1160  -28.7980 C   0  0  0  0  0  0  0  0  0  0  0  0
   -0.4490   20.0090  -29.8150 C   0  0  0  0  0  0  0  0  0  0  0  0
   -1.1290   20.2160  -31.0400 O   0  0  0  0  0  0  0  0  0  0  0  0
   -0.4420   19.6180  -32.1240 C   0  0  0  0  0  0  0  0  0  0  0  0
   -1.3260   18.5210  -32.7240 C   0  0  0  0  0  0  0  0  0  0  0  0
   -2.5310   19.0480  -33.2490 O   0  0  0  0  0  0  0  0  0  0  0  0
   -2.3230   20.2990  -33.8830 C   0  0  0  0  0  0  0  0  0  0  0  0
   -2.9590   21.4060  -33.0380 C   0  0  0  0  0  0  0  0  0  0  0  0
   -3.4730   20.9150  -31.7420 N   0  0  0  0  0  0  0  0  0  0  0  0
   -4.9060   21.1440  -31.5790 C   0  0  0  0  0  0  0  0  0  0  0  0
   -5.3810   22.4010  -31.1100 C   0  0  0  0  0  0  0  0  0  0  0  0
   -4.5010   23.4850  -30.8560 C   0  0  0  0  0  0  0  0  0  0  0  0
   -4.9810   24.7270  -30.4500 C   0  0  0  0  0  0  0  0  0  0  0  0
   -6.3440   24.9280  -30.2960 C   0  0  0  0  0  0  0  0  0  0  0  0
   -7.2330   23.8810  -30.5160 C   0  0  0  0  0  0  0  0  0  0  0  0
   -6.7740   22.5900  -30.8880 C   0  0  0  0  0  0  0  0  0  0  0  0
   -7.6520   21.5390  -31.0470 N   0  0  0  0  0  0  0  0  0  0  0  0
   -9.0260   21.6380  -30.5040 C   0  0  0  0  0  0  0  0  0  0  0  0
   -7.2460   20.3880  -31.6880 C   0  0  0  0  0  0  0  0  0  0  0  0
   -8.1910   19.4310  -32.1380 C   0  0  0  0  0  0  0  0  0  0  0  0
   -7.7920   18.2440  -32.7390 C   0  0  0  0  0  0  0  0  0  0  0  0
   -6.4420   17.9730  -32.9270 C   0  0  0  0  0  0  0  0  0  0  0  0
   -6.0060   16.6790  -33.5530 C   0  0  0  0  0  0  0  0  0  0  0  0
   -5.4870   18.9040  -32.5060 C   0  0  0  0  0  0  0  0  0  0  0  0
   -5.8630   20.1420  -31.9220 C   0  0  0  0  0  0  0  0  0  0  0  0
   -2.9130   20.6689  -26.4080 H   0  0  0  0  0  0  0  0  0  0  0  0
   -3.5932   19.6127  -27.6919 H   0  0  0  0  0  0  0  0  0  0  0  0
   -1.8419   20.0123  -27.6919 H   0  0  0  0  0  0  0  0  0  0  0  0
   -4.0221   21.4382  -28.9493 H   0  0  0  0  0  0  0  0  0  0  0  0
   -3.3030   22.4905  -27.6821 H   0  0  0  0  0  0  0  0  0  0  0  0
   -0.5692   23.4748  -29.1508 H   0  0  0  0  0  0  0  0  0  0  0  0
   -1.9657   23.7067  -30.2765 H   0  0  0  0  0  0  0  0  0  0  0  0
   -2.0751   23.7757  -27.2190 H   0  0  0  0  0  0  0  0  0  0  0  0
   -2.1852   25.1891  -28.3222 H   0  0  0  0  0  0  0  0  0  0  0  0
   -3.4824   23.9465  -28.3222 H   0  0  0  0  0  0  0  0  0  0  0  0
    0.0927   21.7970  -28.7247 H   0  0  0  0  0  0  0  0  0  0  0  0
   -0.9724   20.6499  -27.8228 H   0  0  0  0  0  0  0  0  0  0  0  0
    0.6344   20.0000  -30.0050 H   0  0  0  0  0  0  0  0  0  0  0  0
   -0.7816   19.0485  -29.3944 H   0  0  0  0  0  0  0  0  0  0  0  0
   -0.2257   20.3782  -32.8891 H   0  0  0  0  0  0  0  0  0  0  0  0
    0.5053   19.1836  -31.7720 H   0  0  0  0  0  0  0  0  0  0  0  0
   -0.7735   18.0206  -33.5329 H   0  0  0  0  0  0  0  0  0  0  0  0
   -1.5822   17.8111  -31.9237 H   0  0  0  0  0  0  0  0  0  0  0  0
   -1.2435   20.4861  -33.9815 H   0  0  0  0  0  0  0  0  0  0  0  0
   -2.7834   20.2871  -34.8819 H   0  0  0  0  0  0  0  0  0  0  0  0
   -2.2013   22.1798  -32.8450 H   0  0  0  0  0  0  0  0  0  0  0  0
   -3.8144   21.8038  -33.6037 H   0  0  0  0  0  0  0  0  0  0  0  0
   -3.1980   19.9220  -31.5930 H   0  0  0  0  0  0  0  0  0  0  0  0
   -2.9580   21.3950  -30.9690 H   0  0  0  0  0  0  0  0  0  0  0  0
   -3.4178   23.3409  -30.9825 H   0  0  0  0  0  0  0  0  0  0  0  0
   -4.2783   25.5496  -30.2512 H   0  0  0  0  0  0  0  0  0  0  0  0
   -6.7231   25.9171  -29.9993 H   0  0  0  0  0  0  0  0  0  0  0  0
   -8.3126   24.0567  -30.3995 H   0  0  0  0  0  0  0  0  0  0  0  0
   -8.9869   21.6352  -29.4047 H   0  0  0  0  0  0  0  0  0  0  0  0
   -9.4914   22.5720  -30.8520 H   0  0  0  0  0  0  0  0  0  0  0  0
   -9.6205   20.7804  -30.8520 H   0  0  0  0  0  0  0  0  0  0  0  0
   -9.2644   19.6334  -32.0081 H   0  0  0  0  0  0  0  0  0  0  0  0
   -8.5478   17.5154  -33.0675 H   0  0  0  0  0  0  0  0  0  0  0  0
   -5.7616   15.9536  -32.7631 H   0  0  0  0  0  0  0  0  0  0  0  0
   -6.8197   16.2811  -34.1772 H   0  0  0  0  0  0  0  0  0  0  0  0
   -5.1174   16.8547  -34.1772 H   0  0  0  0  0  0  0  0  0  0  0  0
   -4.4191   18.6714  -32.6304 H   0  0  0  0  0  0  0  0  0  0  0  0
  1  2  1  0
  2  3  1  0
  3  4  1  0
  4  5  1  0
  3  6  1  0
  6  7  1  0
  7  8  1  0
  8  9  1  0
  9 10  1  0
 10 11  1  0
 11 12  1  0
 12 13  1  0
 13 14  1  0
 14 15  1  0
 15 16  2  0
 16 17  1  0
 17 18  2  0
 18 19  1  0
 19 20  2  0
 20 21  1  0
 21 22  2  0
 22 23  1  0
 22 24  1  0
 24 25  2  0
 25 26  1  0
 26 27  2  0
 27 28  1  0
 27 29  1  0
 29 30  2  0
 30 15  1  0
 21 16  1  0
 30 24  1  0
  1 31  1  0
  1 32  1  0
  1 33  1  0
  2 34  1  0
  2 35  1  0
  4 36  1  0
  4 37  1  0
  5 38  1  0
  5 39  1  0
  5 40  1  0
  6 41  1  0
  6 42  1  0
  7 43  1  0
  7 44  1  0
  9 45  1  0
  9 46  1  0
 10 47  1  0
 10 48  1  0
 12 49  1  0
 12 50  1  0
 13 51  1  0
 13 52  1  0
 14 53  1  0
 14 54  1  0
 17 55  1  0
 18 56  1  0
 19 57  1  0
 20 58  1  0
 23 59  1  0
 23 60  1  0
 23 61  1  0
 25 62  1  0
 26 63  1  0
 28 64  1  0
 28 65  1  0
 28 66  1  0
 29 67  1  0
M  CHG  2  14   1  22   1
M  END
>  <UniqueID>  (8) 
8

>  <SMILES>  (8) 
CCN(CC)CCOCCOCC[NH2+]c1c2ccccc2[n+](C)c2ccc(C)cc12

>  <Energy>  (8) 
98.92787589933818

>  <Genealogy>  (8) 
CCN(CC)CCOCCOCC[NH2+]c1c2ccccc2[n+](C)c2ccc(C)cc12 (protonated)
CCN(CC)CCOCCOCC[NH2+]c1c2ccccc2[n+](C)c2ccc(C)cc12 (3D coordinates assigned)
CCN(CC)CCOCCOCC[NH2+]c1c2ccccc2[n+](C)c2ccc(C)cc12 (optimized conformer: 98.92787589933818 kcal/mol)

>  <smiles>  (8) 
CCN(CC)CCOCCOCCNc1c2ccccc2[n+](C)c2ccc(C)cc12

>  <score_type>  (8) 
oracle

>  <origin>  (8) 
adg

>  <m_score__min__energy>  (8) 
-8.1300000000000008

>  <m_primary>  (8) 
energy

$$$$
8:0
     RDKit          3D

 58 60  0  0  0  0  0  0  0  0999 V2000
   -8.9570   21.9120  -31.5860 C   0  0  0  0  0  0  0  0  0  0  0  0
   -7.9180   22.3080  -30.5420 C   0  0  0  0  0  0  0  0  0  0  0  0
   -6.9240   23.2250  -31.1390 N   0  0  0  0  0  0  0  0  0  0  0  0
   -7.1540   23.4310  -32.5780 C   0  0  0  0  0  0  0  0  0  0  0  0
   -6.7710   24.4930  -30.3840 C   0  0  0  0  0  0  0  0  0  0  0  0
   -5.3130   24.9880  -30.2610 C   0  0  0  0  0  0  0  0  0  0  0  0
   -4.4350   24.0940  -30.9210 O   0  0  0  0  0  0  0  0  0  0  0  0
   -3.7180   23.2930  -30.0000 C   0  0  0  0  0  0  0  0  0  0  0  0
   -3.9160   21.7990  -30.2910 C   0  0  0  0  0  0  0  0  0  0  0  0
   -4.9100   21.5830  -31.3560 N   0  0  0  0  0  0  0  0  0  0  0  0
   -4.5250   20.4510  -32.1810 C   0  0  0  0  0  0  0  0  0  0  0  0
   -5.3750   19.3230  -32.2920 C   0  0  0  0  0  0  0  0  0  0  0  0
   -4.9370   18.1850  -32.9940 C   0  0  0  0  0  0  0  0  0  0  0  0
   -3.7910   18.2240  -33.7550 N   0  0  0  0  0  0  0  0  0  0  0  0
   -3.5350   17.1490  -34.7360 C   0  0  0  0  0  0  0  0  0  0  0  0
   -2.9150   19.2840  -33.6290 C   0  0  0  0  0  0  0  0  0  0  0  0
   -1.6240   19.2480  -34.2160 C   0  0  0  0  0  0  0  0  0  0  0  0
   -0.7690   20.3430  -34.1450 C   0  0  0  0  0  0  0  0  0  0  0  0
   -1.1670   21.4960  -33.4830 C   0  0  0  0  0  0  0  0  0  0  0  0
   -2.4050   21.5470  -32.8500 C   0  0  0  0  0  0  0  0  0  0  0  0
   -3.2860   20.4370  -32.8760 C   0  0  0  0  0  0  0  0  0  0  0  0
   -5.7430   16.9130  -32.7800 C   0  0  0  0  0  0  0  0  0  0  0  0
   -7.2340   17.1490  -33.0570 C   0  0  0  0  0  0  0  0  0  0  0  0
   -7.7470   18.5170  -32.5560 C   0  0  0  0  0  0  0  0  0  0  0  0
   -6.7510   19.2550  -31.6420 C   0  0  0  0  0  0  0  0  0  0  0  0
   -9.8701   21.5640  -31.0809 H   0  0  0  0  0  0  0  0  0  0  0  0
   -9.1950   22.7825  -32.2150 H   0  0  0  0  0  0  0  0  0  0  0  0
   -8.5552   21.1040  -32.2150 H   0  0  0  0  0  0  0  0  0  0  0  0
   -8.4193   22.8112  -29.7021 H   0  0  0  0  0  0  0  0  0  0  0  0
   -7.4046   21.4038  -30.1831 H   0  0  0  0  0  0  0  0  0  0  0  0
   -7.9666   24.1588  -32.7189 H   0  0  0  0  0  0  0  0  0  0  0  0
   -6.2344   23.8131  -33.0453 H   0  0  0  0  0  0  0  0  0  0  0  0
   -7.4328   22.4750  -33.0453 H   0  0  0  0  0  0  0  0  0  0  0  0
   -7.3569   25.2711  -30.8952 H   0  0  0  0  0  0  0  0  0  0  0  0
   -7.1236   24.2949  -29.3611 H   0  0  0  0  0  0  0  0  0  0  0  0
   -5.2280   25.9847  -30.7185 H   0  0  0  0  0  0  0  0  0  0  0  0
   -5.0400   25.0385  -29.1966 H   0  0  0  0  0  0  0  0  0  0  0  0
   -2.6472   23.5338  -30.0729 H   0  0  0  0  0  0  0  0  0  0  0  0
   -4.0952   23.5035  -28.9884 H   0  0  0  0  0  0  0  0  0  0  0  0
   -2.9551   21.3659  -30.6059 H   0  0  0  0  0  0  0  0  0  0  0  0
   -4.2825   21.3147  -29.3739 H   0  0  0  0  0  0  0  0  0  0  0  0
   -5.8620   21.4380  -30.9540 H   0  0  0  0  0  0  0  0  0  0  0  0
   -5.0170   22.4480  -31.9310 H   0  0  0  0  0  0  0  0  0  0  0  0
   -3.3120   16.2125  -34.2038 H   0  0  0  0  0  0  0  0  0  0  0  0
   -4.4249   17.0091  -35.3672 H   0  0  0  0  0  0  0  0  0  0  0  0
   -2.6775   17.4252  -35.3672 H   0  0  0  0  0  0  0  0  0  0  0  0
   -1.2930   18.3374  -34.7369 H   0  0  0  0  0  0  0  0  0  0  0  0
    0.2246   20.2949  -34.6145 H   0  0  0  0  0  0  0  0  0  0  0  0
   -0.5020   22.3719  -33.4587 H   0  0  0  0  0  0  0  0  0  0  0  0
   -2.7048   22.4636  -32.3208 H   0  0  0  0  0  0  0  0  0  0  0  0
   -5.3705   16.1331  -33.4605 H   0  0  0  0  0  0  0  0  0  0  0  0
   -5.6283   16.5995  -31.7319 H   0  0  0  0  0  0  0  0  0  0  0  0
   -7.3992   17.0922  -34.1430 H   0  0  0  0  0  0  0  0  0  0  0  0
   -7.7905   16.3751  -32.5081 H   0  0  0  0  0  0  0  0  0  0  0  0
   -7.9523   19.1522  -33.4303 H   0  0  0  0  0  0  0  0  0  0  0  0
   -8.6491   18.3223  -31.9574 H   0  0  0  0  0  0  0  0  0  0  0  0
   -7.1158   20.2767  -31.4604 H   0  0  0  0  0  0  0  0  0  0  0  0
   -6.6676   18.7061  -30.6924 H   0  0  0  0  0  0  0  0  0  0  0  0
  1  2  1  0
  2  3  1  0
  3  4  1  0
  3  5  1  0
  5  6  1  0
  6  7  1  0
  7  8  1  0
  8  9  1  0
  9 10  1  0
 10 11  1  0
 11 12  2  0
 12 13  1  0
 13 14  2  0
 14 15  1  0
 14 16  1  0
 16 17  2  0
 17 18  1  0
 18 19  2  0
 19 20  1  0
 20 21  2  0
 13 22  1  0
 22 23  1  0
 23 24  1  0
 24 25  1  0
 21 11  1  0
 25 12  1  0
 21 16  1  0
  1 26  1  0
  1 27  1  0
  1 28  1  0
  2 29  1  0
  2 30  1  0
  4 31  1  0
  4 32  1  0
  4 33  1  0
  5 34  1  0
  5 35  1  0
  6 36  1  0
  6 37  1  0
  8 38  1  0
  8 39  1  0
  9 40  1  0
  9 41  1  0
 10 42  1  0
 10 43  1  0
 15 44  1  0
 15 45  1  0
 15 46  1  0
 17 47  1  0
 18 48  1  0
 19 49  1  0
 20 50  1  0
 22 51  1  0
 22 52  1  0
 23 53  1  0
 23 54  1  0
 24 55  1  0
 24 56  1  0
 25 57  1  0
 25 58  1  0
M  CHG  2  10   1  14   1
M  END
>  <UniqueID>  (9) 
9

>  <SMILES>  (9) 
CCN(C)CCOCC[NH2+]c1c2c([n+](C)c3ccccc13)CCCC2

>  <Energy>  (9) 
88.96560083126818

>  <Genealogy>  (9) 
CCN(C)CCOCC[NH2+]c1c2c([n+](C)c3ccccc13)CCCC2 (protonated)
CCN(C)CCOCC[NH2+]c1c2c([n+](C)c3ccccc13)CCCC2 (3D coordinates assigned)
CCN(C)CCOCC[NH2+]c1c2c([n+](C)c3ccccc13)CCCC2 (nonaromatic ring conformer: 88.96560083126818 kcal/mol)

>  <smiles>  (9) 
CCN(C)CCOCCNc1c2c([n+](C)c3ccccc13)CCCC2

>  <score_type>  (9) 
oracle

>  <origin>  (9) 
adg

>  <m_score__min__energy>  (9) 
-7.8899999999999997

>  <m_primary>  (9) 
energy

$$$$
9:0
     RDKit          3D

 22 23  0  0  0  0  0  0  0  0999 V2000
   -6.0580   20.2350  -33.4280 C   0  0  0  0  0  0  0  0  0  0  0  0
   -7.1820   20.2970  -32.5040 N   0  0  0  0  0  0  0  0  0  0  0  0
   -7.8060   19.2410  -32.0140 N   0  0  0  0  0  0  0  0  0  0  0  0
   -8.7750   19.6670  -31.2200 N   0  0  0  0  0  0  0  0  0  0  0  0
   -8.8030   20.9910  -31.1720 N   0  0  0  0  0  0  0  0  0  0  0  0
   -7.7880   21.3770  -31.9700 C   0  0  0  0  0  0  0  0  0  0  0  0
   -7.3740   23.0960  -32.3120 S   0  0  0  0  0  0  0  0  0  0  0  0
   -6.3160   23.4060  -30.8380 C   0  0  2  0  0  0  0  0  0  0  0  0
   -6.7700   24.6160  -30.0060 C   0  0  0  0  0  0  0  0  0  0  0  0
   -5.7050   25.7080  -30.2190 C   0  0  0  0  0  0  0  0  0  0  0  0
   -4.6100   25.0620  -30.8450 O   0  0  0  0  0  0  0  0  0  0  0  0
   -4.9350   23.7760  -31.2130 C   0  0  0  0  0  0  0  0  0  0  0  0
   -4.1290   23.0080  -31.8000 O   0  0  0  0  0  0  0  0  0  0  0  0
   -5.1180   20.1832  -32.8590 H   0  0  0  0  0  0  0  0  0  0  0  0
   -6.1530   19.3407  -34.0615 H   0  0  0  0  0  0  0  0  0  0  0  0
   -6.0540   21.1343  -34.0615 H   0  0  0  0  0  0  0  0  0  0  0  0
   -9.4320   19.0430  -30.7030 H   0  0  0  0  0  0  0  0  0  0  0  0
   -6.3858   22.4607  -30.2798 H   0  0  0  0  0  0  0  0  0  0  0  0
   -7.7527   24.9692  -30.3516 H   0  0  0  0  0  0  0  0  0  0  0  0
   -6.8701   24.3559  -28.9419 H   0  0  0  0  0  0  0  0  0  0  0  0
   -6.0989   26.5066  -30.8649 H   0  0  0  0  0  0  0  0  0  0  0  0
   -5.4095   26.1764  -29.2686 H   0  0  0  0  0  0  0  0  0  0  0  0
  1  2  1  0
  2  3  1  0
  3  4  2  0
  4  5  1  0
  5  6  2  0
  6  7  1  0
  7  8  1  0
  8  9  1  0
  9 10  1  0
 10 11  1  0
 11 12  1  0
 12 13  2  0
  6  2  1  0
 12  8  1  0
  1 14  1  0
  1 15  1  0
  1 16  1  0
  4 17  1  0
  8 18  1  1
  9 19  1  0
  9 20  1  0
 10 21  1  0
 10 22  1  0
M  CHG  1   4   1
M  END
>  <UniqueID>  (10) 
10

>  <SMILES>  (10) 
Cn1n[nH+]nc1S[C@@H]1CCOC1=O

>  <Energy>  (10) 
67.01599741297558

>  <Genealogy>  (10) 
Cn1n[nH+]nc1SC1CCOC1=O (protonated)
Cn1n[nH+]nc1S[C@@H]1CCOC1=O (chirality)
Cn1n[nH+]nc1S[C@@H]1CCOC1=O (3D coordinates assigned)
Cn1n[nH+]nc1S[C@@H]1CCOC1=O (nonaromatic ring conformer: 67.01599741297558 kcal/mol)

>  <smiles>  (10) 
Cn1nnnc1SC1CCOC1=O

>  <score_type>  (10) 
oracle

>  <origin>  (10) 
adg

>  <m_score__min__energy>  (10) 
-6.04

>  <m_primary>  (10) 
energy

$$$$
10:0
     RDKit          3D

 33 34  0  0  0  0  0  0  0  0999 V2000
   -9.1280   18.1680  -31.6130 C   0  0  0  0  0  0  0  0  0  0  0  0
   -8.2530   19.3870  -31.9270 C   0  0  0  0  0  0  0  0  0  0  0  0
   -7.2650   19.0730  -33.0590 C   0  0  0  0  0  0  0  0  0  0  0  0
   -9.0750   20.6730  -32.1990 C   0  0  0  0  0  0  0  0  0  0  0  0
   -8.8890   21.8150  -31.1810 C   0  0  0  0  0  0  0  0  0  0  0  0
   -8.3800   23.3960  -31.9560 S   0  0  0  0  0  0  0  0  0  0  0  0
   -6.6070   23.0710  -31.8910 C   0  0  0  0  0  0  0  0  0  0  0  0
   -6.1490   21.9610  -32.5410 N   0  0  0  0  0  0  0  0  0  0  0  0
   -4.8350   21.6430  -32.4970 C   0  0  0  0  0  0  0  0  0  0  0  0
   -4.2530   20.5300  -33.1080 C   0  0  0  0  0  0  0  0  0  0  0  0
   -2.8820   20.4530  -32.8710 C   0  0  0  0  0  0  0  0  0  0  0  0
   -2.4120   21.7660  -31.9070 S   0  0  0  0  0  0  0  0  0  0  0  0
   -3.9530   22.4240  -31.7970 C   0  0  0  0  0  0  0  0  0  0  0  0
   -4.3930   23.5670  -31.1440 C   0  0  0  0  0  0  0  0  0  0  0  0
   -3.5740   24.2760  -30.4970 O   0  0  0  0  0  0  0  0  0  0  0  0
   -5.7260   23.9060  -31.2230 N   0  0  0  0  0  0  0  0  0  0  0  0
   -6.1930   25.1440  -30.5750 C   0  0  0  0  0  0  0  0  0  0  0  0
   -9.2134   18.0490  -30.5228 H   0  0  0  0  0  0  0  0  0  0  0  0
  -10.1289   18.3139  -32.0455 H   0  0  0  0  0  0  0  0  0  0  0  0
   -8.6696   17.2664  -32.0455 H   0  0  0  0  0  0  0  0  0  0  0  0
   -7.6680   19.6047  -31.0212 H   0  0  0  0  0  0  0  0  0  0  0  0
   -6.3001   18.7663  -32.6290 H   0  0  0  0  0  0  0  0  0  0  0  0
   -7.6655   18.2579  -33.6796 H   0  0  0  0  0  0  0  0  0  0  0  0
   -7.1214   19.9698  -33.6796 H   0  0  0  0  0  0  0  0  0  0  0  0
   -8.7877   21.0541  -33.1901 H   0  0  0  0  0  0  0  0  0  0  0  0
  -10.1310   20.3744  -32.1238 H   0  0  0  0  0  0  0  0  0  0  0  0
   -9.8423   21.9740  -30.6557 H   0  0  0  0  0  0  0  0  0  0  0  0
   -8.0845   21.5133  -30.4942 H   0  0  0  0  0  0  0  0  0  0  0  0
   -4.8131   19.7976  -33.7080 H   0  0  0  0  0  0  0  0  0  0  0  0
   -2.2122   19.6665  -33.2488 H   0  0  0  0  0  0  0  0  0  0  0  0
   -6.1482   25.0253  -29.4823 H   0  0  0  0  0  0  0  0  0  0  0  0
   -5.5494   25.9825  -30.8794 H   0  0  0  0  0  0  0  0  0  0  0  0
   -7.2301   25.3485  -30.8794 H   0  0  0  0  0  0  0  0  0  0  0  0
  1  2  1  0
  2  3  1  0
  2  4  1  0
  4  5  1  0
  5  6  1  0
  6  7  1  0
  7  8  2  0
  8  9  1  0
  9 10  1  0
 10 11  2  0
 11 12  1  0
 12 13  1  0
 13 14  1  0
 14 15  2  0
 14 16  1  0
 16 17  1  0
 16  7  1  0
 13  9  2  0
  1 18  1  0
  1 19  1  0
  1 20  1  0
  2 21  1  0
  3 22  1  0
  3 23  1  0
  3 24  1  0
  4 25  1  0
  4 26  1  0
  5 27  1  0
  5 28  1  0
 10 29  1  0
 11 30  1  0
 17 31  1  0
 17 32  1  0
 17 33  1  0
M  END
>  <UniqueID>  (11) 
11

>  <SMILES>  (11) 
CC(C)CCSc1nc2ccsc2c(=O)n1C

>  <Energy>  (11) 
62.97077369736104

>  <Genealogy>  (11) 
CC(C)CCSc1nc2ccsc2c(=O)n1C (3D coordinates assigned)
CC(C)CCSc1nc2ccsc2c(=O)n1C (optimized conformer: 62.97077369736104 kcal/mol)

>  <smiles>  (11) 
CC(C)CCSc1nc2ccsc2c(=O)n1C

>  <score_type>  (11) 
oracle

>  <origin>  (11) 
adg

>  <m_score__min__energy>  (11) 
-6.7999999999999998

>  <m_primary>  (11) 
energy

$$$$
11:0
     RDKit          3D

 49 50  0  0  0  0  0  0  0  0999 V2000
   -3.1390   24.5300  -27.0310 C   0  0  0  0  0  0  0  0  0  0  0  0
   -2.6350   24.3730  -28.4620 C   0  0  0  0  0  0  0  0  0  0  0  0
   -3.7950   24.1550  -29.4380 C   0  0  0  0  0  0  0  0  0  0  0  0
   -3.8790   25.2850  -30.3730 N   0  0  0  0  0  0  0  0  0  0  0  0
   -5.2540   25.7950  -30.4860 C   0  0  0  0  0  0  0  0  0  0  0  0
   -6.2520   24.6740  -30.8080 C   0  0  0  0  0  0  0  0  0  0  0  0
   -5.7190   23.7170  -31.8820 C   0  0  0  0  0  0  0  0  0  0  0  0
   -6.4560   22.3960  -31.8440 C   0  0  0  0  0  0  0  0  0  0  0  0
   -7.8500   22.4080  -31.6620 C   0  0  0  0  0  0  0  0  0  0  0  0
   -8.5760   21.2160  -31.6370 C   0  0  0  0  0  0  0  0  0  0  0  0
   -7.9220   19.9940  -31.7980 C   0  0  0  0  0  0  0  0  0  0  0  0
   -8.8400   18.4990  -31.7830 Cl  0  0  0  0  0  0  0  0  0  0  0  0
   -6.5360   19.9620  -31.9700 C   0  0  0  0  0  0  0  0  0  0  0  0
   -5.7890   21.1500  -31.9630 C   0  0  0  0  0  0  0  0  0  0  0  0
   -4.3280   21.0670  -32.1530 C   0  0  0  0  0  0  0  0  0  0  0  0
   -3.8470   20.9160  -33.4580 C   0  0  0  0  0  0  0  0  0  0  0  0
   -2.5160   20.9270  -33.7050 N   0  0  0  0  0  0  0  0  0  0  0  0
   -1.6180   21.0870  -32.6970 C   0  0  0  0  0  0  0  0  0  0  0  0
   -0.2450   21.1060  -32.9610 O   0  0  0  0  0  0  0  0  0  0  0  0
    0.2850   21.1700  -34.2800 C   0  0  0  0  0  0  0  0  0  0  0  0
   -2.0570   21.2280  -31.4180 N   0  0  0  0  0  0  0  0  0  0  0  0
   -3.3820   21.2030  -31.1050 C   0  0  0  0  0  0  0  0  0  0  0  0
   -3.7190   21.3250  -29.7420 O   0  0  0  0  0  0  0  0  0  0  0  0
   -2.9650   20.8460  -28.6340 C   0  0  0  0  0  0  0  0  0  0  0  0
   -2.3312   24.2784  -26.3281 H   0  0  0  0  0  0  0  0  0  0  0  0
   -3.4575   25.5699  -26.8665 H   0  0  0  0  0  0  0  0  0  0  0  0
   -3.9918   23.8549  -26.8665 H   0  0  0  0  0  0  0  0  0  0  0  0
   -2.0887   25.2828  -28.7517 H   0  0  0  0  0  0  0  0  0  0  0  0
   -1.9751   23.4939  -28.5040 H   0  0  0  0  0  0  0  0  0  0  0  0
   -3.6274   23.2259  -30.0025 H   0  0  0  0  0  0  0  0  0  0  0  0
   -4.7357   24.0812  -28.8727 H   0  0  0  0  0  0  0  0  0  0  0  0
   -3.5960   24.9360  -31.3190 H   0  0  0  0  0  0  0  0  0  0  0  0
   -5.5397   26.2633  -29.5326 H   0  0  0  0  0  0  0  0  0  0  0  0
   -5.2819   26.5249  -31.3085 H   0  0  0  0  0  0  0  0  0  0  0  0
   -6.4506   24.1015  -29.8899 H   0  0  0  0  0  0  0  0  0  0  0  0
   -7.1705   25.1394  -31.1950 H   0  0  0  0  0  0  0  0  0  0  0  0
   -5.8543   24.1762  -32.8724 H   0  0  0  0  0  0  0  0  0  0  0  0
   -4.6528   23.5296  -31.6870 H   0  0  0  0  0  0  0  0  0  0  0  0
   -8.3743   23.3670  -31.5380 H   0  0  0  0  0  0  0  0  0  0  0  0
   -9.6659   21.2401  -31.4901 H   0  0  0  0  0  0  0  0  0  0  0  0
   -6.0260   18.9978  -32.1121 H   0  0  0  0  0  0  0  0  0  0  0  0
   -4.5555   20.7874  -34.2895 H   0  0  0  0  0  0  0  0  0  0  0  0
    1.3760   21.3017  -34.2308 H   0  0  0  0  0  0  0  0  0  0  0  0
    0.0520   20.2372  -34.8144 H   0  0  0  0  0  0  0  0  0  0  0  0
   -0.1633   22.0205  -34.8144 H   0  0  0  0  0  0  0  0  0  0  0  0
   -1.3540   21.3420  -30.6530 H   0  0  0  0  0  0  0  0  0  0  0  0
   -3.4522   21.1555  -27.6976 H   0  0  0  0  0  0  0  0  0  0  0  0
   -2.9116   19.7480  -28.6740 H   0  0  0  0  0  0  0  0  0  0  0  0
   -1.9484   21.2642  -28.6740 H   0  0  0  0  0  0  0  0  0  0  0  0
  1  2  1  0
  2  3  1  0
  3  4  1  0
  4  5  1  0
  5  6  1  0
  6  7  1  0
  7  8  1  0
  8  9  2  0
  9 10  1  0
 10 11  2  0
 11 12  1  0
 11 13  1  0
 13 14  2  0
 14 15  1  0
 15 16  2  0
 16 17  1  0
 17 18  2  0
 18 19  1  0
 19 20  1  0
 18 21  1  0
 21 22  2  0
 22 23  1  0
 23 24  1  0
 14  8  1  0
 22 15  1  0
  1 25  1  0
  1 26  1  0
  1 27  1  0
  2 28  1  0
  2 29  1  0
  3 30  1  0
  3 31  1  0
  4 32  1  0
  5 33  1  0
  5 34  1  0
  6 35  1  0
  6 36  1  0
  7 37  1  0
  7 38  1  0
  9 39  1  0
 10 40  1  0
 13 41  1  0
 16 42  1  0
 20 43  1  0
 20 44  1  0
 20 45  1  0
 21 46  1  0
 24 47  1  0
 24 48  1  0
 24 49  1  0
M  CHG  1  21   1
M  END
>  <UniqueID>  (12) 
12

>  <SMILES>  (12) 
CCCNCCCc1ccc(Cl)cc1-c1cnc(OC)[nH+]c1OC

>  <Energy>  (12) 
49.422397559396906

>  <Genealogy>  (12) 
CCCNCCCc1ccc(Cl)cc1-c1cnc(OC)[nH+]c1OC (protonated)
CCCNCCCc1ccc(Cl)cc1-c1cnc(OC)[nH+]c1OC (3D coordinates assigned)
CCCNCCCc1ccc(Cl)cc1-c1cnc(OC)[nH+]c1OC (optimized conformer: 49.422397559396906 kcal/mol)

>  <smiles>  (12) 
CCCNCCCc1ccc(Cl)cc1-c1cnc(OC)nc1OC

>  <score_type>  (12) 
oracle

>  <origin>  (12) 
adg

>  <m_score__min__energy>  (12) 
-7.7800000000000002

>  <m_primary>  (12) 
energy

$$$$
12:0
     RDKit          3D

 46 48  0  0  0  0  0  0  0  0999 V2000
   -3.8591   18.6932  -26.7388 H   0  0  0  0  0  0  0  0  0  0  0  0
   -3.0230   19.3570  -27.0040 C   0  0  0  0  0  0  0  0  0  0  0  0
   -3.2130   20.6380  -27.4190 N   0  0  0  0  0  0  0  0  0  0  0  0
   -2.0470   21.2690  -27.6920 C   0  0  0  0  0  0  0  0  0  0  0  0
   -1.9660   22.6700  -28.1620 C   0  0  0  0  0  0  0  0  0  0  0  0
   -1.0080   23.5420  -27.6200 C   0  0  0  0  0  0  0  0  0  0  0  0
   -0.3191   23.1871  -26.8393 H   0  0  0  0  0  0  0  0  0  0  0  0
   -0.9310   24.8670  -28.0760 C   0  0  0  0  0  0  0  0  0  0  0  0
    0.0200   25.7860  -27.5090 N   0  0  0  0  0  0  0  0  0  0  0  0
   -0.4850   26.6520  -27.2040 H   0  0  0  0  0  0  0  0  0  0  0  0
    0.7300   26.0530  -28.2300 H   0  0  0  0  0  0  0  0  0  0  0  0
    0.6830   25.1680  -26.3520 C   0  0  0  0  0  0  0  0  0  0  0  0
    0.0586   24.3439  -25.9766 H   0  0  0  0  0  0  0  0  0  0  0  0
    0.8173   25.9331  -25.5731 H   0  0  0  0  0  0  0  0  0  0  0  0
    2.0540   24.6200  -26.7400 C   0  0  0  0  0  0  0  0  0  0  0  0
    2.6281   24.3905  -25.8302 H   0  0  0  0  0  0  0  0  0  0  0  0
    1.9276   23.7033  -27.3347 H   0  0  0  0  0  0  0  0  0  0  0  0
    2.5943   25.3713  -27.3347 H   0  0  0  0  0  0  0  0  0  0  0  0
   -1.8020   25.3000  -29.0280 N   0  0  0  0  0  0  0  0  0  0  0  0
   -2.7460   24.4840  -29.5720 C   0  0  0  0  0  0  0  0  0  0  0  0
   -3.5620   24.9230  -30.4850 N   0  0  0  0  0  0  0  0  0  0  0  0
   -4.9560   25.3140  -30.2540 C   0  0  2  0  0  0  0  0  0  0  0  0
   -5.0139   26.4046  -30.1226 H   0  0  0  0  0  0  0  0  0  0  0  0
   -5.4840   24.6400  -28.9830 C   0  0  0  0  0  0  0  0  0  0  0  0
   -5.0799   25.1558  -28.0995 H   0  0  0  0  0  0  0  0  0  0  0  0
   -6.5826   24.6941  -28.9686 H   0  0  0  0  0  0  0  0  0  0  0  0
   -5.1685   23.5863  -28.9686 H   0  0  0  0  0  0  0  0  0  0  0  0
   -5.8090   24.9070  -31.4670 C   0  0  0  0  0  0  0  0  0  0  0  0
   -6.7730   25.4348  -31.4211 H   0  0  0  0  0  0  0  0  0  0  0  0
   -5.2629   25.1762  -32.3831 H   0  0  0  0  0  0  0  0  0  0  0  0
   -6.0620   23.4210  -31.4810 C   0  0  0  0  0  0  0  0  0  0  0  0
   -5.0410   22.5300  -31.8510 C   0  0  0  0  0  0  0  0  0  0  0  0
   -4.0422   22.9154  -32.1039 H   0  0  0  0  0  0  0  0  0  0  0  0
   -5.2900   21.1540  -31.8990 C   0  0  0  0  0  0  0  0  0  0  0  0
   -4.4857   20.4596  -32.1833 H   0  0  0  0  0  0  0  0  0  0  0  0
   -6.5600   20.6610  -31.5860 C   0  0  0  0  0  0  0  0  0  0  0  0
   -6.7535   19.5787  -31.6215 H   0  0  0  0  0  0  0  0  0  0  0  0
   -7.5840   21.5420  -31.2280 C   0  0  0  0  0  0  0  0  0  0  0  0
   -8.5836   21.1528  -30.9845 H   0  0  0  0  0  0  0  0  0  0  0  0
   -7.3390   22.9180  -31.1790 C   0  0  0  0  0  0  0  0  0  0  0  0
   -8.1490   23.6092  -30.9030 H   0  0  0  0  0  0  0  0  0  0  0  0
   -2.8390   23.1530  -29.1510 C   0  0  0  0  0  0  0  0  0  0  0  0
   -3.5939   22.4863  -29.5933 H   0  0  0  0  0  0  0  0  0  0  0  0
   -0.7390   20.2400  -27.4210 S   0  0  0  0  0  0  0  0  0  0  0  0
   -1.6980   18.9470  -26.9390 C   0  0  0  0  0  0  0  0  0  0  0  0
   -1.3404   17.9543  -26.6279 H   0  0  0  0  0  0  0  0  0  0  0  0
  1  2  1  0
  2  3  1  0
  3  4  2  0
  4  5  1  0
  5  6  1  0
  6  7  1  0
  6  8  2  0
  8  9  1  0
  9 10  1  0
  9 11  1  0
  9 12  1  0
 12 13  1  0
 12 14  1  0
 12 15  1  0
 15 16  1  0
 15 17  1  0
 15 18  1  0
  8 19  1  0
 19 20  1  0
 20 21  2  0
 21 22  1  0
 22 23  1  1
 22 24  1  0
 24 25  1  0
 24 26  1  0
 24 27  1  0
 22 28  1  0
 28 29  1  0
 28 30  1  0
 28 31  1  0
 31 32  2  0
 32 33  1  0
 32 34  1  0
 34 35  1  0
 34 36  2  0
 36 37  1  0
 36 38  1  0
 38 39  1  0
 38 40  2  0
 40 41  1  0
 20 42  1  0
 42 43  1  0
  4 44  1  0
 44 45  1  0
 45 46  1  0
 45  2  2  0
 42  5  2  0
 40 31  1  0
M  CHG  2   9   1  19  -1
M  END
>  <UniqueID>  (13) 
13

>  <SMILES>  (13) 
CC[NH2+]c1cc(-c2nccs2)c/c(=N/[C@H](C)Cc2ccccc2)[n-]1

>  <Energy>  (13) 
71.27664798379513

>  <Genealogy>  (13) 
CC[NH2+]c1cc(-c2nccs2)cc(=NC(C)Cc2ccccc2)[n-]1 (protonated)
CC[NH2+]c1cc(-c2nccs2)cc(=N[C@H](C)Cc2ccccc2)[n-]1 (chirality)
CC[NH2+]c1cc(-c2nccs2)c/c(=N/[C@H](C)Cc2ccccc2)[n-]1 (cis-trans isomerization)
CC[NH2+]c1cc(-c2nccs2)c/c(=N/[C@H](C)Cc2ccccc2)[n-]1 (3D coordinates assigned)
CC[NH2+]c1cc(-c2nccs2)c/c(=N/[C@H](C)Cc2ccccc2)[n-]1 (optimized conformer: 71.27664798379513 kcal/mol)

>  <smiles>  (13) 
CCNc1cc(-c2nccs2)cc(=NC(C)Cc2ccccc2)[nH]1

>  <score_type>  (13) 
oracle

>  <origin>  (13) 
adg

>  <m_score__min__energy>  (13) 
-9.0999999999999996

>  <m_primary>  (13) 
energy

$$$$
13:0
     RDKit          3D

 49 53  0  0  0  0  0  0  0  0999 V2000
   -9.1050   18.4740  -31.5850 C   0  0  0  0  0  0  0  0  0  0  0  0
   -8.0290   19.1650  -32.2930 N   0  0  0  0  0  0  0  0  0  0  0  0
   -7.7850   20.5000  -32.3850 C   0  0  0  0  0  0  0  0  0  0  0  0
   -8.8670   21.7780  -31.7270 S   0  0  0  0  0  0  0  0  0  0  0  0
   -7.6620   22.4270  -30.5040 C   0  0  0  0  0  0  0  0  0  0  0  0
   -7.0790   23.7820  -30.9260 C   0  0  0  0  0  0  0  0  0  0  0  0
   -5.7380   23.6990  -31.6800 C   0  0  0  0  0  0  0  0  0  0  0  0
   -4.6140   24.2000  -30.8610 N   0  0  0  0  0  0  0  0  0  0  0  0
   -5.0380   24.6300  -29.4440 C   0  0  0  0  0  0  0  0  0  0  0  0
   -4.0620   24.1730  -28.2580 C   0  0  1  0  0  0  0  0  0  0  0  0
   -3.6420   22.8550  -28.7070 C   0  0  0  0  0  0  0  0  0  0  0  0
   -2.6040   23.4400  -29.7350 C   0  0  2  0  0  0  0  0  0  0  0  0
   -1.2560   23.0780  -29.1510 C   0  0  0  0  0  0  0  0  0  0  0  0
   -1.3810   24.0360  -27.9020 C   0  0  0  0  0  0  0  0  0  0  0  0
   -2.6600   24.8810  -28.2880 C   0  0  1  0  0  0  0  0  0  0  0  0
   -2.4790   24.8460  -29.6160 O   0  0  0  0  0  0  0  0  0  0  0  0
   -3.3670   23.3430  -31.0320 C   0  0  0  0  0  0  0  0  0  0  0  0
   -6.6430   20.7960  -33.0600 N   0  0  0  0  0  0  0  0  0  0  0  0
   -6.1790   19.5840  -33.4140 C   0  0  0  0  0  0  0  0  0  0  0  0
   -5.0320   19.2950  -34.1480 C   0  0  0  0  0  0  0  0  0  0  0  0
   -4.7470   17.9420  -34.4120 C   0  0  0  0  0  0  0  0  0  0  0  0
   -5.6060   16.9230  -33.9390 C   0  0  0  0  0  0  0  0  0  0  0  0
   -6.7570   17.2490  -33.1970 C   0  0  0  0  0  0  0  0  0  0  0  0
   -7.0090   18.6010  -32.9570 C   0  0  0  0  0  0  0  0  0  0  0  0
   -8.9522   18.5721  -30.5001 H   0  0  0  0  0  0  0  0  0  0  0  0
  -10.0716   18.9207  -31.8611 H   0  0  0  0  0  0  0  0  0  0  0  0
   -9.1009   17.4092  -31.8611 H   0  0  0  0  0  0  0  0  0  0  0  0
   -8.1698   22.5462  -29.5356 H   0  0  0  0  0  0  0  0  0  0  0  0
   -6.8314   21.7091  -30.4354 H   0  0  0  0  0  0  0  0  0  0  0  0
   -7.8095   24.2806  -31.5800 H   0  0  0  0  0  0  0  0  0  0  0  0
   -6.8796   24.3372  -29.9976 H   0  0  0  0  0  0  0  0  0  0  0  0
   -5.5440   22.6495  -31.9464 H   0  0  0  0  0  0  0  0  0  0  0  0
   -5.8124   24.3286  -32.5789 H   0  0  0  0  0  0  0  0  0  0  0  0
   -5.0983   25.7282  -29.4279 H   0  0  0  0  0  0  0  0  0  0  0  0
   -5.9978   24.1278  -29.2528 H   0  0  0  0  0  0  0  0  0  0  0  0
   -4.5765   24.3262  -27.2979 H   0  0  0  0  0  0  0  0  0  0  0  0
   -3.1776   22.2511  -27.9136 H   0  0  0  0  0  0  0  0  0  0  0  0
   -4.4064   22.1523  -29.0702 H   0  0  0  0  0  0  0  0  0  0  0  0
   -1.1812   22.0168  -28.8713 H   0  0  0  0  0  0  0  0  0  0  0  0
   -0.3729   23.1943  -29.7964 H   0  0  0  0  0  0  0  0  0  0  0  0
   -1.5385   23.4683  -26.9730 H   0  0  0  0  0  0  0  0  0  0  0  0
   -0.4833   24.6408  -27.7060 H   0  0  0  0  0  0  0  0  0  0  0  0
   -2.7055   25.7733  -27.6464 H   0  0  0  0  0  0  0  0  0  0  0  0
   -2.7549   23.7232  -31.8631 H   0  0  0  0  0  0  0  0  0  0  0  0
   -3.6281   22.3001  -31.2645 H   0  0  0  0  0  0  0  0  0  0  0  0
   -4.3710   20.0965  -34.5093 H   0  0  0  0  0  0  0  0  0  0  0  0
   -3.8500   17.6755  -34.9902 H   0  0  0  0  0  0  0  0  0  0  0  0
   -5.3733   15.8692  -34.1522 H   0  0  0  0  0  0  0  0  0  0  0  0
   -7.4329   16.4673  -32.8202 H   0  0  0  0  0  0  0  0  0  0  0  0
  1  2  1  0
  2  3  1  0
  3  4  1  0
  4  5  1  0
  5  6  1  0
  6  7  1  0
  7  8  1  0
  8  9  1  0
  9 10  1  0
 10 11  1  0
 11 12  1  0
 12 13  1  6
 13 14  1  0
 14 15  1  0
 15 16  1  0
 12 17  1  0
  3 18  2  0
 18 19  1  0
 19 20  2  0
 20 21  1  0
 21 22  2  0
 22 23  1  0
 23 24  2  0
 24  2  1  0
 17  8  1  0
 24 19  1  0
 15 10  1  0
 16 12  1  0
  1 25  1  0
  1 26  1  0
  1 27  1  0
  5 28  1  0
  5 29  1  0
  6 30  1  0
  6 31  1  0
  7 32  1  0
  7 33  1  0
  9 34  1  0
  9 35  1  0
 10 36  1  1
 11 37  1  0
 11 38  1  0
 13 39  1  0
 13 40  1  0
 14 41  1  0
 14 42  1  0
 15 43  1  1
 17 44  1  0
 17 45  1  0
 20 46  1  0
 21 47  1  0
 22 48  1  0
 23 49  1  0
M  END
>  <UniqueID>  (14) 
14

>  <SMILES>  (14) 
Cn1c(SCCCN2C[C@H]3C[C@@]4(CCC3O4)C2)nc2ccccc21

>  <Energy>  (14) 
218.0019619212663

>  <Genealogy>  (14) 
Cn1c(SCCCN2C[C@H]3C[C@@]4(CCC3O4)C2)nc2ccccc21 (chirality)
Cn1c(SCCCN2C[C@H]3C[C@@]4(CCC3O4)C2)nc2ccccc21 (3D coordinates assigned)
Cn1c(SCCCN2C[C@H]3C[C@@]4(CCC3O4)C2)nc2ccccc21 (nonaromatic ring conformer: 218.0019619212663 kcal/mol)

>  <smiles>  (14) 
Cn1c(SCCCN2CC3CC4(CCC3O4)C2)nc2ccccc21

>  <score_type>  (14) 
oracle

>  <origin>  (14) 
adg

>  <m_score__min__energy>  (14) 
-9.8200000000000003

>  <m_primary>  (14) 
energy

$$$$
14:0
     RDKit          3D

 74 77  0  0  0  0  0  0  0  0999 V2000
   -9.0270   22.7290  -31.9330 C   0  0  0  0  0  0  0  0  0  0  0  0
   -8.8780   21.5630  -30.9570 C   0  0  0  0  0  0  0  0  0  0  0  0
   -8.3190   20.3620  -31.6140 N   0  0  0  0  0  0  0  0  0  0  0  0
   -8.7420   19.0450  -31.0790 C   0  0  0  0  0  0  0  0  0  0  0  0
   -8.4000   17.8500  -31.9740 C   0  0  0  0  0  0  0  0  0  0  0  0
   -8.2110   20.4460  -33.0910 C   0  0  0  0  0  0  0  0  0  0  0  0
   -6.8460   19.9560  -33.6600 C   0  0  0  0  0  0  0  0  0  0  0  0
   -5.8160   19.5760  -32.6520 N   0  0  0  0  0  0  0  0  0  0  0  0
   -4.4310   19.6000  -33.1060 C   0  0  0  0  0  0  0  0  0  0  0  0
   -3.5700   20.6950  -32.7910 C   0  0  0  0  0  0  0  0  0  0  0  0
   -2.1840   20.5640  -33.0510 C   0  0  0  0  0  0  0  0  0  0  0  0
   -1.7130   19.5590  -33.8640 N   0  0  0  0  0  0  0  0  0  0  0  0
   -0.3470   19.6540  -34.4230 C   0  0  0  0  0  0  0  0  0  0  0  0
   -2.5050   18.4660  -34.1380 C   0  0  0  0  0  0  0  0  0  0  0  0
   -1.9690   17.3100  -34.7600 C   0  0  0  0  0  0  0  0  0  0  0  0
   -2.7630   16.1970  -35.0200 C   0  0  0  0  0  0  0  0  0  0  0  0
   -4.1040   16.2000  -34.6640 C   0  0  0  0  0  0  0  0  0  0  0  0
   -4.6550   17.3110  -34.0330 C   0  0  0  0  0  0  0  0  0  0  0  0
   -3.8750   18.4610  -33.7540 C   0  0  0  0  0  0  0  0  0  0  0  0
   -1.2280   21.5490  -32.3920 C   0  0  0  0  0  0  0  0  0  0  0  0
   -1.7520   21.9870  -31.0220 C   0  0  0  0  0  0  0  0  0  0  0  0
   -3.1280   22.5840  -31.1800 C   0  0  0  0  0  0  0  0  0  0  0  0
   -3.5520   23.7180  -30.4410 C   0  0  0  0  0  0  0  0  0  0  0  0
   -2.6950   24.3390  -29.4660 N   0  0  0  0  0  0  0  0  0  0  0  0
   -3.0720   24.4450  -28.0550 C   0  0  0  0  0  0  0  0  0  0  0  0
   -1.9360   25.0450  -27.2090 C   0  0  0  0  0  0  0  0  0  0  0  0
   -0.7560   25.3920  -28.0340 N   0  0  0  0  0  0  0  0  0  0  0  0
    0.1420   24.2290  -28.1330 C   0  0  0  0  0  0  0  0  0  0  0  0
   -0.0180   26.5340  -27.4690 C   0  0  0  0  0  0  0  0  0  0  0  0
   -4.8230   24.2610  -30.6900 C   0  0  0  0  0  0  0  0  0  0  0  0
   -5.6410   23.7190  -31.6760 C   0  0  0  0  0  0  0  0  0  0  0  0
   -5.2330   22.5920  -32.3830 C   0  0  0  0  0  0  0  0  0  0  0  0
   -4.0170   21.9510  -32.0840 C   0  0  0  0  0  0  0  0  0  0  0  0
   -9.1467   23.6660  -31.3693 H   0  0  0  0  0  0  0  0  0  0  0  0
   -8.1299   22.7941  -32.5662 H   0  0  0  0  0  0  0  0  0  0  0  0
   -9.9117   22.5664  -32.5662 H   0  0  0  0  0  0  0  0  0  0  0  0
   -8.2066   21.8665  -30.1402 H   0  0  0  0  0  0  0  0  0  0  0  0
   -9.8776   21.3084  -30.5749 H   0  0  0  0  0  0  0  0  0  0  0  0
   -8.2500   18.8964  -30.1064 H   0  0  0  0  0  0  0  0  0  0  0  0
   -9.8393   19.0764  -31.0091 H   0  0  0  0  0  0  0  0  0  0  0  0
   -8.1514   16.9813  -31.3466 H   0  0  0  0  0  0  0  0  0  0  0  0
   -9.2650   17.6081  -32.6091 H   0  0  0  0  0  0  0  0  0  0  0  0
   -7.5380   18.1024  -32.6091 H   0  0  0  0  0  0  0  0  0  0  0  0
   -9.0093   19.8302  -33.5309 H   0  0  0  0  0  0  0  0  0  0  0  0
   -8.2998   21.5103  -33.3546 H   0  0  0  0  0  0  0  0  0  0  0  0
   -7.0407   19.0758  -34.2903 H   0  0  0  0  0  0  0  0  0  0  0  0
   -6.4259   20.8152  -34.2035 H   0  0  0  0  0  0  0  0  0  0  0  0
   -5.9430   20.1490  -31.7910 H   0  0  0  0  0  0  0  0  0  0  0  0
   -6.0300   18.6170  -32.2910 H   0  0  0  0  0  0  0  0  0  0  0  0
    0.3827   19.7047  -33.6014 H   0  0  0  0  0  0  0  0  0  0  0  0
   -0.1416   18.7680  -35.0417 H   0  0  0  0  0  0  0  0  0  0  0  0
   -0.2662   20.5599  -35.0417 H   0  0  0  0  0  0  0  0  0  0  0  0
   -0.9060   17.2926  -35.0422 H   0  0  0  0  0  0  0  0  0  0  0  0
   -2.3266   15.3133  -35.5086 H   0  0  0  0  0  0  0  0  0  0  0  0
   -4.7321   15.3234  -34.8808 H   0  0  0  0  0  0  0  0  0  0  0  0
   -5.7166   17.2965  -33.7451 H   0  0  0  0  0  0  0  0  0  0  0  0
   -0.2468   21.0683  -32.2652 H   0  0  0  0  0  0  0  0  0  0  0  0
   -1.1410   22.4373  -33.0349 H   0  0  0  0  0  0  0  0  0  0  0  0
   -1.8047   21.1152  -30.3533 H   0  0  0  0  0  0  0  0  0  0  0  0
   -1.0728   22.7375  -30.5914 H   0  0  0  0  0  0  0  0  0  0  0  0
   -1.8800   24.9000  -29.7990 H   0  0  0  0  0  0  0  0  0  0  0  0
   -3.9592   25.0897  -27.9700 H   0  0  0  0  0  0  0  0  0  0  0  0
   -3.2840   23.4334  -27.6785 H   0  0  0  0  0  0  0  0  0  0  0  0
   -2.3042   25.9559  -26.7143 H   0  0  0  0  0  0  0  0  0  0  0  0
   -1.6257   24.2904  -26.4712 H   0  0  0  0  0  0  0  0  0  0  0  0
    0.4082   23.8843  -27.1229 H   0  0  0  0  0  0  0  0  0  0  0  0
   -0.3666   23.4181  -28.6750 H   0  0  0  0  0  0  0  0  0  0  0  0
    1.0552   24.5159  -28.6750 H   0  0  0  0  0  0  0  0  0  0  0  0
   -0.0502   26.4841  -26.3706 H   0  0  0  0  0  0  0  0  0  0  0  0
    1.0281   26.4980  -27.8072 H   0  0  0  0  0  0  0  0  0  0  0  0
   -0.4806   27.4730  -27.8072 H   0  0  0  0  0  0  0  0  0  0  0  0
   -5.1742   25.1211  -30.1011 H   0  0  0  0  0  0  0  0  0  0  0  0
   -6.6135   24.1828  -31.8975 H   0  0  0  0  0  0  0  0  0  0  0  0
   -5.8706   22.1966  -33.1874 H   0  0  0  0  0  0  0  0  0  0  0  0
  1  2  1  0
  2  3  1  0
  3  4  1  0
  4  5  1  0
  3  6  1  0
  6  7  1  0
  7  8  1  0
  8  9  1  0
  9 10  2  0
 10 11  1  0
 11 12  2  0
 12 13  1  0
 12 14  1  0
 14 15  2  0
 15 16  1  0
 16 17  2  0
 17 18  1  0
 18 19  2  0
 11 20  1  0
 20 21  1  0
 21 22  1  0
 22 23  2  0
 23 24  1  0
 24 25  1  0
 25 26  1  0
 26 27  1  0
 27 28  1  0
 27 29  1  0
 23 30  1  0
 30 31  2  0
 31 32  1  0
 32 33  2  0
 19  9  1  0
 33 22  1  0
 33 10  1  0
 19 14  1  0
  1 34  1  0
  1 35  1  0
  1 36  1  0
  2 37  1  0
  2 38  1  0
  4 39  1  0
  4 40  1  0
  5 41  1  0
  5 42  1  0
  5 43  1  0
  6 44  1  0
  6 45  1  0
  7 46  1  0
  7 47  1  0
  8 48  1  0
  8 49  1  0
 13 50  1  0
 13 51  1  0
 13 52  1  0
 15 53  1  0
 16 54  1  0
 17 55  1  0
 18 56  1  0
 20 57  1  0
 20 58  1  0
 21 59  1  0
 21 60  1  0
 24 61  1  0
 25 62  1  0
 25 63  1  0
 26 64  1  0
 26 65  1  0
 28 66  1  0
 28 67  1  0
 28 68  1  0
 29 69  1  0
 29 70  1  0
 29 71  1  0
 30 72  1  0
 31 73  1  0
 32 74  1  0
M  CHG  2   8   1  12   1
M  END
>  <UniqueID>  (15) 
15

>  <SMILES>  (15) 
CCN(CC)CC[NH2+]c1c2c([n+](C)c3ccccc13)CCc1c(NCCN(C)C)cccc1-2

>  <Energy>  (15) 
126.10661957062756

>  <Genealogy>  (15) 
CCN(CC)CC[NH2+]c1c2c([n+](C)c3ccccc13)CCc1c(NCCN(C)C)cccc1-2 (protonated)
CCN(CC)CC[NH2+]c1c2c([n+](C)c3ccccc13)CCc1c(NCCN(C)C)cccc1-2 (3D coordinates assigned)
CCN(CC)CC[NH2+]c1c2c([n+](C)c3ccccc13)CCc1c(NCCN(C)C)cccc1-2 (nonaromatic ring conformer: 126.10661957062756 kcal/mol)

>  <smiles>  (15) 
CCN(CC)CCNc1c2c([n+](C)c3ccccc13)CCc1c(NCCN(C)C)cccc1-2

>  <score_type>  (15) 
oracle

>  <origin>  (15) 
adg

>  <m_score__min__energy>  (15) 
-8.0899999999999999

>  <m_primary>  (15) 
energy

$$$$
15:0
     RDKit          3D

 62 64  0  0  0  0  0  0  0  0999 V2000
   -5.3820   25.3090  -30.8380 C   0  0  0  0  0  0  0  0  0  0  0  0
   -5.7600   25.0940  -29.3690 C   0  0  0  0  0  0  0  0  0  0  0  0
   -5.1190   23.8950  -28.7930 N   0  0  0  0  0  0  0  0  0  0  0  0
   -3.7650   24.1780  -28.2850 C   0  0  0  0  0  0  0  0  0  0  0  0
   -2.7170   23.9700  -29.3920 C   0  0  0  0  0  0  0  0  0  0  0  0
   -2.3530   22.4920  -29.5650 C   0  0  0  0  0  0  0  0  0  0  0  0
   -3.5300   21.6360  -29.3540 N   0  0  0  0  0  0  0  0  0  0  0  0
   -3.9190   20.9520  -30.5960 C   0  0  0  0  0  0  0  0  0  0  0  0
   -3.7520   21.8780  -31.8170 C   0  0  0  0  0  0  0  0  0  0  0  0
   -4.3690   21.3010  -33.0140 N   0  0  0  0  0  0  0  0  0  0  0  0
   -5.5960   20.5560  -32.9400 C   0  0  0  0  0  0  0  0  0  0  0  0
   -6.7620   21.1940  -32.4850 C   0  0  0  0  0  0  0  0  0  0  0  0
   -6.8070   22.5970  -32.3280 C   0  0  0  0  0  0  0  0  0  0  0  0
   -7.9730   23.2280  -31.9020 C   0  0  0  0  0  0  0  0  0  0  0  0
   -9.1130   22.4780  -31.6330 C   0  0  0  0  0  0  0  0  0  0  0  0
   -9.0860   21.0910  -31.7700 C   0  0  0  0  0  0  0  0  0  0  0  0
   -7.9050   20.4160  -32.1710 C   0  0  0  0  0  0  0  0  0  0  0  0
   -7.8460   19.0390  -32.2580 N   0  0  0  0  0  0  0  0  0  0  0  0
   -8.9040   18.2140  -31.6310 C   0  0  0  0  0  0  0  0  0  0  0  0
   -6.7980   18.4330  -32.9280 C   0  0  0  0  0  0  0  0  0  0  0  0
   -6.8530   17.0660  -33.2910 C   0  0  0  0  0  0  0  0  0  0  0  0
   -5.7910   16.4500  -33.9400 C   0  0  0  0  0  0  0  0  0  0  0  0
   -4.6640   17.1790  -34.2860 C   0  0  0  0  0  0  0  0  0  0  0  0
   -4.5790   18.5510  -33.9960 C   0  0  0  0  0  0  0  0  0  0  0  0
   -3.4820   19.3130  -34.4460 O   0  0  0  0  0  0  0  0  0  0  0  0
   -2.1310   19.2000  -33.9950 C   0  0  0  0  0  0  0  0  0  0  0  0
   -1.3950   20.5280  -34.1500 C   0  0  0  0  0  0  0  0  0  0  0  0
   -5.6410   19.1840  -33.2860 C   0  0  0  0  0  0  0  0  0  0  0  0
   -4.4271   25.8521  -30.8952 H   0  0  0  0  0  0  0  0  0  0  0  0
   -5.2797   24.3339  -31.3368 H   0  0  0  0  0  0  0  0  0  0  0  0
   -6.1678   25.8953  -31.3368 H   0  0  0  0  0  0  0  0  0  0  0  0
   -5.4454   25.9752  -28.7906 H   0  0  0  0  0  0  0  0  0  0  0  0
   -6.8492   24.9482  -29.3206 H   0  0  0  0  0  0  0  0  0  0  0  0
   -5.7080   23.5670  -27.9920 H   0  0  0  0  0  0  0  0  0  0  0  0
   -5.0850   23.1290  -29.5070 H   0  0  0  0  0  0  0  0  0  0  0  0
   -3.7203   25.2202  -27.9361 H   0  0  0  0  0  0  0  0  0  0  0  0
   -3.5462   23.4894  -27.4556 H   0  0  0  0  0  0  0  0  0  0  0  0
   -3.1227   24.3496  -30.3414 H   0  0  0  0  0  0  0  0  0  0  0  0
   -1.8052   24.5138  -29.1041 H   0  0  0  0  0  0  0  0  0  0  0  0
   -1.9687   22.3321  -30.5832 H   0  0  0  0  0  0  0  0  0  0  0  0
   -1.5872   22.2281  -28.8207 H   0  0  0  0  0  0  0  0  0  0  0  0
   -3.2630   20.8980  -28.6600 H   0  0  0  0  0  0  0  0  0  0  0  0
   -3.2849   20.0632  -30.7301 H   0  0  0  0  0  0  0  0  0  0  0  0
   -4.9779   20.6643  -30.5187 H   0  0  0  0  0  0  0  0  0  0  0  0
   -4.2280   22.8456  -31.6001 H   0  0  0  0  0  0  0  0  0  0  0  0
   -2.6766   22.0064  -32.0095 H   0  0  0  0  0  0  0  0  0  0  0  0
   -3.9220   21.4580  -33.9460 H   0  0  0  0  0  0  0  0  0  0  0  0
   -5.9113   23.1977  -32.5446 H   0  0  0  0  0  0  0  0  0  0  0  0
   -7.9925   24.3208  -31.7781 H   0  0  0  0  0  0  0  0  0  0  0  0
  -10.0374   22.9801  -31.3116 H   0  0  0  0  0  0  0  0  0  0  0  0
   -9.9968   20.5098  -31.5634 H   0  0  0  0  0  0  0  0  0  0  0  0
   -8.8197   18.2797  -30.5362 H   0  0  0  0  0  0  0  0  0  0  0  0
   -9.8914   18.5830  -31.9455 H   0  0  0  0  0  0  0  0  0  0  0  0
   -8.7868   17.1665  -31.9455 H   0  0  0  0  0  0  0  0  0  0  0  0
   -7.7538   16.4806  -33.0546 H   0  0  0  0  0  0  0  0  0  0  0  0
   -5.8444   15.3780  -34.1807 H   0  0  0  0  0  0  0  0  0  0  0  0
   -3.8267   16.6776  -34.7934 H   0  0  0  0  0  0  0  0  0  0  0  0
   -2.1281   18.9077  -32.9346 H   0  0  0  0  0  0  0  0  0  0  0  0
   -1.6187   18.4399  -34.6031 H   0  0  0  0  0  0  0  0  0  0  0  0
   -1.1671   20.9392  -33.1555 H   0  0  0  0  0  0  0  0  0  0  0  0
   -0.4581   20.3656  -34.7031 H   0  0  0  0  0  0  0  0  0  0  0  0
   -2.0293   21.2364  -34.7031 H   0  0  0  0  0  0  0  0  0  0  0  0
  1  2  1  0
  2  3  1  0
  3  4  1  0
  4  5  1  0
  5  6  1  0
  6  7  1  0
  7  8  1  0
  8  9  1  0
  9 10  1  0
 10 11  1  0
 11 12  2  0
 12 13  1  0
 13 14  2  0
 14 15  1  0
 15 16  2  0
 16 17  1  0
 17 18  2  0
 18 19  1  0
 18 20  1  0
 20 21  2  0
 21 22  1  0
 22 23  2  0
 23 24  1  0
 24 25  1  0
 25 26  1  0
 26 27  1  0
 24 28  2  0
 28 11  1  0
 17 12  1  0
 28 20  1  0
  1 29  1  0
  1 30  1  0
  1 31  1  0
  2 32  1  0
  2 33  1  0
  3 34  1  0
  3 35  1  0
  4 36  1  0
  4 37  1  0
  5 38  1  0
  5 39  1  0
  6 40  1  0
  6 41  1  0
  7 42  1  0
  8 43  1  0
  8 44  1  0
  9 45  1  0
  9 46  1  0
 10 47  1  0
 13 48  1  0
 14 49  1  0
 15 50  1  0
 16 51  1  0
 19 52  1  0
 19 53  1  0
 19 54  1  0
 21 55  1  0
 22 56  1  0
 23 57  1  0
 26 58  1  0
 26 59  1  0
 27 60  1  0
 27 61  1  0
 27 62  1  0
M  CHG  2   3   1  18   1
M  END
>  <UniqueID>  (16) 
16

>  <SMILES>  (16) 
CC[NH2+]CCCNCCNc1c2ccccc2[n+](C)c2cccc(OCC)c12

>  <Energy>  (16) 
82.55928070260191

>  <Genealogy>  (16) 
CC[NH2+]CCCNCCNc1c2ccccc2[n+](C)c2cccc(OCC)c12 (protonated)
CC[NH2+]CCCNCCNc1c2ccccc2[n+](C)c2cccc(OCC)c12 (3D coordinates assigned)
CC[NH2+]CCCNCCNc1c2ccccc2[n+](C)c2cccc(OCC)c12 (optimized conformer: 82.55928070260191 kcal/mol)

>  <smiles>  (16) 
CCNCCCNCCNc1c2ccccc2[n+](C)c2cccc(OCC)c12

>  <score_type>  (16) 
oracle

>  <origin>  (16) 
adg

>  <m_score__min__energy>  (16) 
-7.9500000000000002

>  <m_primary>  (16) 
energy

$$$$
16:0
     RDKit          3D

 64 66  0  0  0  0  0  0  0  0999 V2000
   -6.4060   25.6410  -29.7170 C   0  0  0  0  0  0  0  0  0  0  0  0
   -5.3270   25.6950  -30.8050 C   0  0  0  0  0  0  0  0  0  0  0  0
   -4.0110   25.2330  -30.3260 N   0  0  0  0  0  0  0  0  0  0  0  0
   -4.1210   24.1610  -29.3280 C   0  0  0  0  0  0  0  0  0  0  0  0
   -2.9270   24.2230  -28.3640 C   0  0  0  0  0  0  0  0  0  0  0  0
   -1.9360   25.1320  -28.8100 O   0  0  0  0  0  0  0  0  0  0  0  0
   -0.7400   25.0300  -28.0550 C   0  0  0  0  0  0  0  0  0  0  0  0
    0.2210   23.9770  -28.6270 C   0  0  0  0  0  0  0  0  0  0  0  0
   -0.4400   22.7310  -28.6790 O   0  0  0  0  0  0  0  0  0  0  0  0
   -0.5210   22.2760  -30.0110 C   0  0  0  0  0  0  0  0  0  0  0  0
   -1.5330   21.1390  -30.0650 C   0  0  0  0  0  0  0  0  0  0  0  0
   -2.8290   21.6340  -30.3510 O   0  0  0  0  0  0  0  0  0  0  0  0
   -2.8560   22.2890  -31.6050 C   0  0  0  0  0  0  0  0  0  0  0  0
   -2.9920   21.2500  -32.7160 C   0  0  0  0  0  0  0  0  0  0  0  0
   -4.2640   21.4000  -33.4340 N   0  0  0  0  0  0  0  0  0  0  0  0
   -5.4460   20.6680  -33.0590 C   0  0  0  0  0  0  0  0  0  0  0  0
   -6.5470   21.3490  -32.5120 C   0  0  0  0  0  0  0  0  0  0  0  0
   -6.4710   22.7270  -32.2230 C   0  0  0  0  0  0  0  0  0  0  0  0
   -7.5960   23.4300  -31.7930 C   0  0  0  0  0  0  0  0  0  0  0  0
   -8.8120   22.7740  -31.6440 C   0  0  0  0  0  0  0  0  0  0  0  0
   -8.9010   21.4020  -31.8830 C   0  0  0  0  0  0  0  0  0  0  0  0
   -7.7600   20.6480  -32.2730 C   0  0  0  0  0  0  0  0  0  0  0  0
   -7.8140   19.2770  -32.4420 N   0  0  0  0  0  0  0  0  0  0  0  0
   -8.9730   18.5120  -31.9280 C   0  0  0  0  0  0  0  0  0  0  0  0
   -6.7650   18.6110  -33.0520 C   0  0  0  0  0  0  0  0  0  0  0  0
   -6.8700   17.2490  -33.4380 C   0  0  0  0  0  0  0  0  0  0  0  0
   -5.7830   16.5680  -33.9850 C   0  0  0  0  0  0  0  0  0  0  0  0
   -4.5690   17.2190  -34.1610 C   0  0  0  0  0  0  0  0  0  0  0  0
   -4.4450   18.5670  -33.8330 C   0  0  0  0  0  0  0  0  0  0  0  0
   -5.5450   19.2900  -33.3220 C   0  0  0  0  0  0  0  0  0  0  0  0
   -5.9290   25.6649  -28.7261 H   0  0  0  0  0  0  0  0  0  0  0  0
   -7.0764   26.5067  -29.8222 H   0  0  0  0  0  0  0  0  0  0  0  0
   -6.9866   24.7127  -29.8222 H   0  0  0  0  0  0  0  0  0  0  0  0
   -5.6405   25.0556  -31.6434 H   0  0  0  0  0  0  0  0  0  0  0  0
   -5.2181   26.7455  -31.1126 H   0  0  0  0  0  0  0  0  0  0  0  0
   -3.4880   26.0440  -29.9140 H   0  0  0  0  0  0  0  0  0  0  0  0
   -5.0552   24.2848  -28.7606 H   0  0  0  0  0  0  0  0  0  0  0  0
   -4.1243   23.1873  -29.8398 H   0  0  0  0  0  0  0  0  0  0  0  0
   -3.2848   24.5439  -27.3746 H   0  0  0  0  0  0  0  0  0  0  0  0
   -2.4747   23.2214  -28.3158 H   0  0  0  0  0  0  0  0  0  0  0  0
   -0.2357   26.0076  -28.0569 H   0  0  0  0  0  0  0  0  0  0  0  0
   -1.0108   24.7204  -27.0348 H   0  0  0  0  0  0  0  0  0  0  0  0
    0.5310   24.2725  -29.6402 H   0  0  0  0  0  0  0  0  0  0  0  0
    1.1110   23.8988  -27.9853 H   0  0  0  0  0  0  0  0  0  0  0  0
   -0.8483   23.0971  -30.6657 H   0  0  0  0  0  0  0  0  0  0  0  0
    0.4637   21.9247  -30.3530 H   0  0  0  0  0  0  0  0  0  0  0  0
   -1.2364   20.4289  -30.8509 H   0  0  0  0  0  0  0  0  0  0  0  0
   -1.5543   20.6384  -29.0858 H   0  0  0  0  0  0  0  0  0  0  0  0
   -3.7121   22.9788  -31.6406 H   0  0  0  0  0  0  0  0  0  0  0  0
   -1.9238   22.8562  -31.7439 H   0  0  0  0  0  0  0  0  0  0  0  0
   -2.1622   21.3752  -33.4272 H   0  0  0  0  0  0  0  0  0  0  0  0
   -2.9665   20.2491  -32.2604 H   0  0  0  0  0  0  0  0  0  0  0  0
   -4.3030   22.0060  -34.2840 H   0  0  0  0  0  0  0  0  0  0  0  0
   -5.5124   23.2541  -32.3382 H   0  0  0  0  0  0  0  0  0  0  0  0
   -7.5208   24.5048  -31.5715 H   0  0  0  0  0  0  0  0  0  0  0  0
   -9.7058   23.3371  -31.3372 H   0  0  0  0  0  0  0  0  0  0  0  0
   -9.8704   20.8950  -31.7678 H   0  0  0  0  0  0  0  0  0  0  0  0
   -8.9595   18.5209  -30.8281 H   0  0  0  0  0  0  0  0  0  0  0  0
   -9.9050   18.9730  -32.2870 H   0  0  0  0  0  0  0  0  0  0  0  0
   -8.9154   17.4738  -32.2870 H   0  0  0  0  0  0  0  0  0  0  0  0
   -7.8258   16.7214  -33.3032 H   0  0  0  0  0  0  0  0  0  0  0  0
   -5.8874   15.5128  -34.2777 H   0  0  0  0  0  0  0  0  0  0  0  0
   -3.7039   16.6692  -34.5601 H   0  0  0  0  0  0  0  0  0  0  0  0
   -3.4791   19.0742  -33.9737 H   0  0  0  0  0  0  0  0  0  0  0  0
  1  2  1  0
  2  3  1  0
  3  4  1  0
  4  5  1  0
  5  6  1  0
  6  7  1  0
  7  8  1  0
  8  9  1  0
  9 10  1  0
 10 11  1  0
 11 12  1  0
 12 13  1  0
 13 14  1  0
 14 15  1  0
 15 16  1  0
 16 17  2  0
 17 18  1  0
 18 19  2  0
 19 20  1  0
 20 21  2  0
 21 22  1  0
 22 23  2  0
 23 24  1  0
 23 25  1  0
 25 26  2  0
 26 27  1  0
 27 28  2  0
 28 29  1  0
 29 30  2  0
 30 16  1  0
 22 17  1  0
 30 25  1  0
  1 31  1  0
  1 32  1  0
  1 33  1  0
  2 34  1  0
  2 35  1  0
  3 36  1  0
  4 37  1  0
  4 38  1  0
  5 39  1  0
  5 40  1  0
  7 41  1  0
  7 42  1  0
  8 43  1  0
  8 44  1  0
 10 45  1  0
 10 46  1  0
 11 47  1  0
 11 48  1  0
 13 49  1  0
 13 50  1  0
 14 51  1  0
 14 52  1  0
 15 53  1  0
 18 54  1  0
 19 55  1  0
 20 56  1  0
 21 57  1  0
 24 58  1  0
 24 59  1  0
 24 60  1  0
 26 61  1  0
 27 62  1  0
 28 63  1  0
 29 64  1  0
M  CHG  1  23   1
M  END
>  <UniqueID>  (17) 
17

>  <SMILES>  (17) 
CCNCCOCCOCCOCCNc1c2ccccc2[n+](C)c2ccccc12

>  <Energy>  (17) 
90.21123999287131

>  <Genealogy>  (17) 
CCNCCOCCOCCOCCNc1c2ccccc2[n+](C)c2ccccc12 (3D coordinates assigned)
CCNCCOCCOCCOCCNc1c2ccccc2[n+](C)c2ccccc12 (optimized conformer: 90.21123999287131 kcal/mol)

>  <smiles>  (17) 
CCNCCOCCOCCOCCNc1c2ccccc2[n+](C)c2ccccc12

>  <score_type>  (17) 
oracle

>  <origin>  (17) 
adg

>  <m_score__min__energy>  (17) 
-9.0399999999999991

>  <m_primary>  (17) 
energy

$$$$
17:0
     RDKit          3D

 63 66  0  0  0  0  0  0  0  0999 V2000
   -2.7910   22.5440  -30.5020 C   0  0  0  0  0  0  0  0  0  0  0  0
   -3.8920   23.3770  -31.1560 C   0  0  0  0  0  0  0  0  0  0  0  0
   -4.0340   24.6760  -30.4630 N   0  0  0  0  0  0  0  0  0  0  0  0
   -3.7130   24.5290  -29.0320 C   0  0  0  0  0  0  0  0  0  0  0  0
   -5.3980   25.2260  -30.6310 C   0  0  0  0  0  0  0  0  0  0  0  0
   -6.3840   24.1100  -30.8480 C   0  0  0  0  0  0  0  0  0  0  0  0
   -6.8550   23.8100  -32.1360 C   0  0  0  0  0  0  0  0  0  0  0  0
   -7.7500   22.7560  -32.3300 C   0  0  0  0  0  0  0  0  0  0  0  0
   -8.1810   21.9790  -31.2420 C   0  0  0  0  0  0  0  0  0  0  0  0
   -9.1440   20.8410  -31.4590 C   0  0  0  0  0  0  0  0  0  0  0  0
   -8.4280   19.6280  -31.8610 N   0  0  0  0  0  0  0  0  0  0  0  0
   -7.0680   19.6040  -32.3360 C   0  0  0  0  0  0  0  0  0  0  0  0
   -6.8180   19.3080  -33.6830 C   0  0  0  0  0  0  0  0  0  0  0  0
   -5.5110   19.2810  -34.1780 C   0  0  0  0  0  0  0  0  0  0  0  0
   -4.4200   19.5540  -33.3320 C   0  0  0  0  0  0  0  0  0  0  0  0
   -3.0200   19.5260  -33.8330 C   0  0  0  0  0  0  0  0  0  0  0  0
   -2.3000   18.3290  -33.9630 C   0  0  0  0  0  0  0  0  0  0  0  0
   -0.9940   18.3660  -34.4460 C   0  0  0  0  0  0  0  0  0  0  0  0
   -0.4220   19.5930  -34.7960 C   0  0  0  0  0  0  0  0  0  0  0  0
    0.9180   19.6520  -35.3200 N   0  0  0  0  0  0  0  0  0  0  0  0
    1.3980   18.6230  -36.2520 C   0  0  0  0  0  0  0  0  0  0  0  0
    2.3720   19.2200  -37.2950 C   0  0  0  0  0  0  0  0  0  0  0  0
    2.7130   20.5740  -37.0460 O   0  0  0  0  0  0  0  0  0  0  0  0
    3.0950   20.7340  -35.6970 C   0  0  0  0  0  0  0  0  0  0  0  0
    1.8580   20.6520  -34.8010 C   0  0  0  0  0  0  0  0  0  0  0  0
   -1.1690   20.7270  -34.6700 N   0  0  0  0  0  0  0  0  0  0  0  0
   -2.4190   20.6890  -34.2040 N   0  0  0  0  0  0  0  0  0  0  0  0
   -4.6710   19.8330  -31.9770 C   0  0  0  0  0  0  0  0  0  0  0  0
   -5.9780   19.8570  -31.4840 C   0  0  0  0  0  0  0  0  0  0  0  0
   -7.7180   22.2870  -29.9520 C   0  0  0  0  0  0  0  0  0  0  0  0
   -6.8210   23.3410  -29.7580 C   0  0  0  0  0  0  0  0  0  0  0  0
   -2.8808   22.6119  -29.4078 H   0  0  0  0  0  0  0  0  0  0  0  0
   -2.8916   21.4939  -30.8137 H   0  0  0  0  0  0  0  0  0  0  0  0
   -1.8078   22.9264  -30.8137 H   0  0  0  0  0  0  0  0  0  0  0  0
   -3.6345   23.5547  -32.2106 H   0  0  0  0  0  0  0  0  0  0  0  0
   -4.8434   22.8292  -31.0872 H   0  0  0  0  0  0  0  0  0  0  0  0
   -4.5486   24.9117  -28.4276 H   0  0  0  0  0  0  0  0  0  0  0  0
   -3.5494   23.4662  -28.8002 H   0  0  0  0  0  0  0  0  0  0  0  0
   -2.8015   25.0994  -28.8002 H   0  0  0  0  0  0  0  0  0  0  0  0
   -5.6775   25.7875  -29.7273 H   0  0  0  0  0  0  0  0  0  0  0  0
   -5.4115   25.8927  -31.5058 H   0  0  0  0  0  0  0  0  0  0  0  0
   -6.5177   24.4076  -32.9957 H   0  0  0  0  0  0  0  0  0  0  0  0
   -8.1200   22.5326  -33.3415 H   0  0  0  0  0  0  0  0  0  0  0  0
   -9.6891   20.6456  -30.5238 H   0  0  0  0  0  0  0  0  0  0  0  0
   -9.8465   21.1190  -32.2585 H   0  0  0  0  0  0  0  0  0  0  0  0
   -8.9640   18.7310  -31.8390 H   0  0  0  0  0  0  0  0  0  0  0  0
   -7.6598   19.0945  -34.3582 H   0  0  0  0  0  0  0  0  0  0  0  0
   -5.3338   19.0444  -35.2375 H   0  0  0  0  0  0  0  0  0  0  0  0
   -2.7625   17.3701  -33.6861 H   0  0  0  0  0  0  0  0  0  0  0  0
   -0.4163   17.4359  -34.5514 H   0  0  0  0  0  0  0  0  0  0  0  0
    1.9189   17.8389  -35.6829 H   0  0  0  0  0  0  0  0  0  0  0  0
    0.5311   18.2058  -36.7853 H   0  0  0  0  0  0  0  0  0  0  0  0
    3.2956   18.6225  -37.2898 H   0  0  0  0  0  0  0  0  0  0  0  0
    1.8593   19.1909  -38.2678 H   0  0  0  0  0  0  0  0  0  0  0  0
    3.8016   19.9379  -35.4196 H   0  0  0  0  0  0  0  0  0  0  0  0
    3.5762   21.7146  -35.5671 H   0  0  0  0  0  0  0  0  0  0  0  0
    2.1651   20.3677  -33.7837 H   0  0  0  0  0  0  0  0  0  0  0  0
    1.3625   21.6340  -34.7847 H   0  0  0  0  0  0  0  0  0  0  0  0
   -0.7630   21.6540  -34.9250 H   0  0  0  0  0  0  0  0  0  0  0  0
   -3.8294   20.0345  -31.2979 H   0  0  0  0  0  0  0  0  0  0  0  0
   -6.1560   20.0756  -30.4207 H   0  0  0  0  0  0  0  0  0  0  0  0
   -8.0630   21.6960  -29.0908 H   0  0  0  0  0  0  0  0  0  0  0  0
   -6.4555   23.5692  -28.7459 H   0  0  0  0  0  0  0  0  0  0  0  0
  1  2  1  0
  2  3  1  0
  3  4  1  0
  3  5  1  0
  5  6  1  0
  6  7  2  0
  7  8  1  0
  8  9  2  0
  9 10  1  0
 10 11  1  0
 11 12  1  0
 12 13  2  0
 13 14  1  0
 14 15  2  0
 15 16  1  0
 16 17  2  0
 17 18  1  0
 18 19  2  0
 19 20  1  0
 20 21  1  0
 21 22  1  0
 22 23  1  0
 23 24  1  0
 24 25  1  0
 19 26  1  0
 26 27  2  0
 15 28  1  0
 28 29  2  0
  9 30  1  0
 30 31  2  0
 31  6  1  0
 29 12  1  0
 27 16  1  0
 25 20  1  0
  1 32  1  0
  1 33  1  0
  1 34  1  0
  2 35  1  0
  2 36  1  0
  4 37  1  0
  4 38  1  0
  4 39  1  0
  5 40  1  0
  5 41  1  0
  7 42  1  0
  8 43  1  0
 10 44  1  0
 10 45  1  0
 11 46  1  0
 13 47  1  0
 14 48  1  0
 17 49  1  0
 18 50  1  0
 21 51  1  0
 21 52  1  0
 22 53  1  0
 22 54  1  0
 24 55  1  0
 24 56  1  0
 25 57  1  0
 25 58  1  0
 26 59  1  0
 28 60  1  0
 29 61  1  0
 30 62  1  0
 31 63  1  0
M  CHG  1  26   1
M  END
>  <UniqueID>  (18) 
18

>  <SMILES>  (18) 
CCN(C)Cc1ccc(CNc2ccc(-c3ccc(N4CCOCC4)[nH+]n3)cc2)cc1

>  <Energy>  (18) 
78.48585218423273

>  <Genealogy>  (18) 
CCN(C)Cc1ccc(CNc2ccc(-c3ccc(N4CCOCC4)[nH+]n3)cc2)cc1 (protonated)
CCN(C)Cc1ccc(CNc2ccc(-c3ccc(N4CCOCC4)[nH+]n3)cc2)cc1 (3D coordinates assigned)
CCN(C)Cc1ccc(CNc2ccc(-c3ccc(N4CCOCC4)[nH+]n3)cc2)cc1 (nonaromatic ring conformer: 78.48585218423273 kcal/mol)

>  <smiles>  (18) 
CCN(C)Cc1ccc(CNc2ccc(-c3ccc(N4CCOCC4)nn3)cc2)cc1

>  <score_type>  (18) 
oracle

>  <origin>  (18) 
adg

>  <m_score__min__energy>  (18) 
-9.0099999999999998

>  <m_primary>  (18) 
energy

$$$$
18:0
     RDKit          3D

 55 57  0  0  0  0  0  0  0  0999 V2000
   -5.7450   25.6890  -30.5770 C   0  0  0  0  0  0  0  0  0  0  0  0
   -5.2920   24.6500  -29.5570 C   0  0  0  0  0  0  0  0  0  0  0  0
   -3.8280   24.6360  -29.4700 N   0  0  0  0  0  0  0  0  0  0  0  0
   -3.3560   23.2920  -29.1090 C   0  0  0  0  0  0  0  0  0  0  0  0
   -2.2880   22.7910  -30.0990 C   0  0  0  0  0  0  0  0  0  0  0  0
   -2.8580   21.9610  -31.2640 C   0  0  0  0  0  0  0  0  0  0  0  0
   -4.0920   22.6200  -31.9250 C   0  0  0  0  0  0  0  0  0  0  0  0
   -4.5790   21.8960  -33.1150 N   0  0  0  0  0  0  0  0  0  0  0  0
   -5.7150   21.0330  -32.8250 C   0  0  0  0  0  0  0  0  0  0  0  0
   -5.6790   19.6130  -32.9790 C   0  0  0  0  0  0  0  0  0  0  0  0
   -6.8190   18.8400  -32.6230 C   0  0  0  0  0  0  0  0  0  0  0  0
   -7.9370   19.4420  -32.0830 N   0  0  0  0  0  0  0  0  0  0  0  0
   -9.0760   18.6390  -31.6060 C   0  0  0  0  0  0  0  0  0  0  0  0
   -7.9940   20.8080  -32.0330 C   0  0  0  0  0  0  0  0  0  0  0  0
   -6.9300   21.5970  -32.3930 C   0  0  0  0  0  0  0  0  0  0  0  0
   -7.2670   23.0450  -32.2620 C   0  0  0  0  0  0  0  0  0  0  0  0
   -8.7710   23.0610  -31.9690 C   0  0  0  0  0  0  0  0  0  0  0  0
   -9.1640   21.6260  -31.6040 C   0  0  0  0  0  0  0  0  0  0  0  0
   -6.7330   17.3350  -32.8300 C   0  0  0  0  0  0  0  0  0  0  0  0
   -6.1300   16.9940  -34.2030 C   0  0  0  0  0  0  0  0  0  0  0  0
   -4.9040   17.8550  -34.5870 C   0  0  0  0  0  0  0  0  0  0  0  0
   -4.4760   18.8320  -33.4860 C   0  0  0  0  0  0  0  0  0  0  0  0
   -6.1312   26.5748  -30.0514 H   0  0  0  0  0  0  0  0  0  0  0  0
   -4.8920   25.9798  -31.2077 H   0  0  0  0  0  0  0  0  0  0  0  0
   -6.5386   25.2619  -31.2077 H   0  0  0  0  0  0  0  0  0  0  0  0
   -5.7129   24.8994  -28.5718 H   0  0  0  0  0  0  0  0  0  0  0  0
   -5.6440   23.6569  -29.8731 H   0  0  0  0  0  0  0  0  0  0  0  0
   -3.5590   25.2940  -28.7030 H   0  0  0  0  0  0  0  0  0  0  0  0
   -2.9218   23.3237  -28.0988 H   0  0  0  0  0  0  0  0  0  0  0  0
   -4.2121   22.6021  -29.1423 H   0  0  0  0  0  0  0  0  0  0  0  0
   -1.7674   23.6646  -30.5183 H   0  0  0  0  0  0  0  0  0  0  0  0
   -1.6148   22.1290  -29.5346 H   0  0  0  0  0  0  0  0  0  0  0  0
   -2.0739   21.8408  -32.0260 H   0  0  0  0  0  0  0  0  0  0  0  0
   -3.1809   20.9931  -30.8530 H   0  0  0  0  0  0  0  0  0  0  0  0
   -4.9044   22.6590  -31.1845 H   0  0  0  0  0  0  0  0  0  0  0  0
   -3.7838   23.6217  -32.2592 H   0  0  0  0  0  0  0  0  0  0  0  0
   -3.7880   21.4030  -33.5710 H   0  0  0  0  0  0  0  0  0  0  0  0
   -4.8760   22.6090  -33.8210 H   0  0  0  0  0  0  0  0  0  0  0  0
   -9.0850   18.6326  -30.5061 H   0  0  0  0  0  0  0  0  0  0  0  0
  -10.0143   19.0764  -31.9779 H   0  0  0  0  0  0  0  0  0  0  0  0
   -8.9793   17.6083  -31.9779 H   0  0  0  0  0  0  0  0  0  0  0  0
   -6.7044   23.5024  -31.4348 H   0  0  0  0  0  0  0  0  0  0  0  0
   -7.0094   23.6189  -33.1644 H   0  0  0  0  0  0  0  0  0  0  0  0
   -8.9864   23.7382  -31.1294 H   0  0  0  0  0  0  0  0  0  0  0  0
   -9.3400   23.4175  -32.8403 H   0  0  0  0  0  0  0  0  0  0  0  0
   -9.3312   21.5304  -30.5210 H   0  0  0  0  0  0  0  0  0  0  0  0
  -10.1003   21.3091  -32.0866 H   0  0  0  0  0  0  0  0  0  0  0  0
   -6.0997   16.9005  -32.0425 H   0  0  0  0  0  0  0  0  0  0  0  0
   -7.7504   16.9193  -32.7844 H   0  0  0  0  0  0  0  0  0  0  0  0
   -5.8206   15.9385  -34.1916 H   0  0  0  0  0  0  0  0  0  0  0  0
   -6.9092   17.2010  -34.9513 H   0  0  0  0  0  0  0  0  0  0  0  0
   -4.0605   17.1831  -34.8039 H   0  0  0  0  0  0  0  0  0  0  0  0
   -5.1918   18.4574  -35.4612 H   0  0  0  0  0  0  0  0  0  0  0  0
   -4.0316   18.2681  -32.6526 H   0  0  0  0  0  0  0  0  0  0  0  0
   -3.7389   19.5366  -33.8985 H   0  0  0  0  0  0  0  0  0  0  0  0
  1  2  1  0
  2  3  1  0
  3  4  1  0
  4  5  1  0
  5  6  1  0
  6  7  1  0
  7  8  1  0
  8  9  1  0
  9 10  2  0
 10 11  1  0
 11 12  2  0
 12 13  1  0
 12 14  1  0
 14 15  2  0
 15 16  1  0
 16 17  1  0
 17 18  1  0
 11 19  1  0
 19 20  1  0
 20 21  1  0
 21 22  1  0
 15  9  1  0
 22 10  1  0
 18 14  1  0
  1 23  1  0
  1 24  1  0
  1 25  1  0
  2 26  1  0
  2 27  1  0
  3 28  1  0
  4 29  1  0
  4 30  1  0
  5 31  1  0
  5 32  1  0
  6 33  1  0
  6 34  1  0
  7 35  1  0
  7 36  1  0
  8 37  1  0
  8 38  1  0
 13 39  1  0
 13 40  1  0
 13 41  1  0
 16 42  1  0
 16 43  1  0
 17 44  1  0
 17 45  1  0
 18 46  1  0
 18 47  1  0
 19 48  1  0
 19 49  1  0
 20 50  1  0
 20 51  1  0
 21 52  1  0
 21 53  1  0
 22 54  1  0
 22 55  1  0
M  CHG  2   8   1  12   1
M  END
>  <UniqueID>  (19) 
19

>  <SMILES>  (19) 
CCNCCCC[NH2+]c1c2c([n+](C)c3c1CCC3)CCCC2

>  <Energy>  (19) 
69.45994643445776

>  <Genealogy>  (19) 
CCNCCCC[NH2+]c1c2c([n+](C)c3c1CCC3)CCCC2 (protonated)
CCNCCCC[NH2+]c1c2c([n+](C)c3c1CCC3)CCCC2 (3D coordinates assigned)
CCNCCCC[NH2+]c1c2c([n+](C)c3c1CCC3)CCCC2 (nonaromatic ring conformer: 69.45994643445776 kcal/mol)

>  <smiles>  (19) 
CCNCCCCNc1c2c([n+](C)c3c1CCC3)CCCC2

>  <score_type>  (19) 
oracle

>  <origin>  (19) 
adg

>  <m_score__min__energy>  (19) 
-8.9199999999999999

>  <m_primary>  (19) 
energy

$$$$
19:0
     RDKit          3D

 66 68  0  0  0  0  0  0  0  0999 V2000
   -0.9090   20.1310  -30.0990 C   0  0  0  0  0  0  0  0  0  0  0  0
   -0.9110   21.6430  -29.8630 C   0  0  0  0  0  0  0  0  0  0  0  0
   -2.2550   22.2260  -29.6710 N   0  0  0  0  0  0  0  0  0  0  0  0
   -3.0940   21.5030  -28.7030 C   0  0  0  0  0  0  0  0  0  0  0  0
   -2.3100   23.7070  -29.5940 C   0  0  0  0  0  0  0  0  0  0  0  0
   -3.7200   24.2900  -29.3810 C   0  0  0  0  0  0  0  0  0  0  0  0
   -4.0970   25.0590  -30.5100 O   0  0  0  0  0  0  0  0  0  0  0  0
   -5.3730   25.6450  -30.3320 C   0  0  0  0  0  0  0  0  0  0  0  0
   -6.4660   24.7120  -30.8660 C   0  0  0  0  0  0  0  0  0  0  0  0
   -5.9550   23.4020  -31.0450 O   0  0  0  0  0  0  0  0  0  0  0  0
   -6.9040   22.5910  -31.7070 C   0  0  0  0  0  0  0  0  0  0  0  0
   -6.1950   21.4270  -32.3370 C   0  0  0  0  0  0  0  0  0  0  0  0
   -6.7700   20.3040  -32.9210 C   0  0  0  0  0  0  0  0  0  0  0  0
   -8.2520   20.0600  -33.0320 C   0  0  0  0  0  0  0  0  0  0  0  0
   -5.8160   19.5270  -33.5110 N   0  0  0  0  0  0  0  0  0  0  0  0
   -6.1110   18.3380  -34.3220 C   0  0  0  0  0  0  0  0  0  0  0  0
   -6.4710   17.1490  -33.4190 C   0  0  0  0  0  0  0  0  0  0  0  0
   -5.5350   17.0570  -32.2770 N   0  0  0  0  0  0  0  0  0  0  0  0
   -6.2090   17.4010  -31.0110 C   0  0  0  0  0  0  0  0  0  0  0  0
   -4.9850   15.6940  -32.1810 C   0  0  0  0  0  0  0  0  0  0  0  0
   -4.6170   20.1400  -33.2670 C   0  0  0  0  0  0  0  0  0  0  0  0
   -4.8450   21.3200  -32.5870 C   0  0  0  0  0  0  0  0  0  0  0  0
   -3.8190   22.2130  -32.3010 C   0  0  0  0  0  0  0  0  0  0  0  0
   -2.5570   21.8990  -32.6870 N   0  0  0  0  0  0  0  0  0  0  0  0
   -2.2610   20.7320  -33.3300 C   0  0  0  0  0  0  0  0  0  0  0  0
   -0.9310   20.4710  -33.6770 C   0  0  0  0  0  0  0  0  0  0  0  0
   -0.5880   19.2680  -34.2890 C   0  0  0  0  0  0  0  0  0  0  0  0
   -1.5670   18.3100  -34.5440 C   0  0  0  0  0  0  0  0  0  0  0  0
   -2.9010   18.5530  -34.2090 C   0  0  0  0  0  0  0  0  0  0  0  0
   -3.2870   19.7810  -33.6290 C   0  0  0  0  0  0  0  0  0  0  0  0
   -0.9083   19.6088  -29.1309 H   0  0  0  0  0  0  0  0  0  0  0  0
   -1.8068   19.8475  -30.6679 H   0  0  0  0  0  0  0  0  0  0  0  0
   -0.0105   19.8499  -30.6679 H   0  0  0  0  0  0  0  0  0  0  0  0
   -0.3129   21.8522  -28.9638 H   0  0  0  0  0  0  0  0  0  0  0  0
   -0.4939   22.1043  -30.7703 H   0  0  0  0  0  0  0  0  0  0  0  0
   -2.7861   21.7683  -27.6808 H   0  0  0  0  0  0  0  0  0  0  0  0
   -4.1480   21.7804  -28.8521 H   0  0  0  0  0  0  0  0  0  0  0  0
   -2.9753   20.4196  -28.8521 H   0  0  0  0  0  0  0  0  0  0  0  0
   -1.6757   24.0300  -28.7554 H   0  0  0  0  0  0  0  0  0  0  0  0
   -1.9637   24.0812  -30.5687 H   0  0  0  0  0  0  0  0  0  0  0  0
   -4.4379   23.4681  -29.2427 H   0  0  0  0  0  0  0  0  0  0  0  0
   -3.7162   24.9329  -28.4885 H   0  0  0  0  0  0  0  0  0  0  0  0
   -5.5426   25.8267  -29.2605 H   0  0  0  0  0  0  0  0  0  0  0  0
   -5.4111   26.5946  -30.8858 H   0  0  0  0  0  0  0  0  0  0  0  0
   -7.2985   24.6810  -30.1477 H   0  0  0  0  0  0  0  0  0  0  0  0
   -6.8171   25.0932  -31.8363 H   0  0  0  0  0  0  0  0  0  0  0  0
   -7.6451   22.2233  -30.9820 H   0  0  0  0  0  0  0  0  0  0  0  0
   -7.4188   23.1774  -32.4823 H   0  0  0  0  0  0  0  0  0  0  0  0
   -8.6882   19.9882  -32.0248 H   0  0  0  0  0  0  0  0  0  0  0  0
   -8.7210   20.8930  -33.5762 H   0  0  0  0  0  0  0  0  0  0  0  0
   -8.4292   19.1206  -33.5762 H   0  0  0  0  0  0  0  0  0  0  0  0
   -6.9579   18.5556  -34.9893 H   0  0  0  0  0  0  0  0  0  0  0  0
   -5.2201   18.0797  -34.9133 H   0  0  0  0  0  0  0  0  0  0  0  0
   -7.4941   17.2822  -33.0374 H   0  0  0  0  0  0  0  0  0  0  0  0
   -6.4010   16.2232  -34.0089 H   0  0  0  0  0  0  0  0  0  0  0  0
   -5.5837   17.0818  -30.1642 H   0  0  0  0  0  0  0  0  0  0  0  0
   -6.3647   18.4888  -30.9623 H   0  0  0  0  0  0  0  0  0  0  0  0
   -7.1813   16.8889  -30.9623 H   0  0  0  0  0  0  0  0  0  0  0  0
   -4.8734   15.4174  -31.1222 H   0  0  0  0  0  0  0  0  0  0  0  0
   -5.6683   14.9873  -32.6745 H   0  0  0  0  0  0  0  0  0  0  0  0
   -4.0025   15.6594  -32.6745 H   0  0  0  0  0  0  0  0  0  0  0  0
   -4.0261   23.1552  -31.7724 H   0  0  0  0  0  0  0  0  0  0  0  0
   -0.1529   21.2192  -33.4655 H   0  0  0  0  0  0  0  0  0  0  0  0
    0.4572   19.0739  -34.5715 H   0  0  0  0  0  0  0  0  0  0  0  0
   -1.2872   17.3550  -35.0127 H   0  0  0  0  0  0  0  0  0  0  0  0
   -3.6592   17.7791  -34.3991 H   0  0  0  0  0  0  0  0  0  0  0  0
  1  2  1  0
  2  3  1  0
  3  4  1  0
  3  5  1  0
  5  6  1  0
  6  7  1  0
  7  8  1  0
  8  9  1  0
  9 10  1  0
 10 11  1  0
 11 12  1  0
 12 13  2  0
 13 14  1  0
 13 15  1  0
 15 16  1  0
 16 17  1  0
 17 18  1  0
 18 19  1  0
 18 20  1  0
 15 21  1  0
 21 22  2  0
 22 23  1  0
 23 24  2  0
 24 25  1  0
 25 26  2  0
 26 27  1  0
 27 28  2  0
 28 29  1  0
 29 30  2  0
 22 12  1  0
 30 25  1  0
 30 21  1  0
  1 31  1  0
  1 32  1  0
  1 33  1  0
  2 34  1  0
  2 35  1  0
  4 36  1  0
  4 37  1  0
  4 38  1  0
  5 39  1  0
  5 40  1  0
  6 41  1  0
  6 42  1  0
  8 43  1  0
  8 44  1  0
  9 45  1  0
  9 46  1  0
 11 47  1  0
 11 48  1  0
 14 49  1  0
 14 50  1  0
 14 51  1  0
 16 52  1  0
 16 53  1  0
 17 54  1  0
 17 55  1  0
 19 56  1  0
 19 57  1  0
 19 58  1  0
 20 59  1  0
 20 60  1  0
 20 61  1  0
 23 62  1  0
 26 63  1  0
 27 64  1  0
 28 65  1  0
 29 66  1  0
M  END
>  <UniqueID>  (20) 
20

>  <SMILES>  (20) 
CCN(C)CCOCCOCc1c(C)n(CCN(C)C)c2c1cnc1ccccc12

>  <Energy>  (20) 
119.24779429247647

>  <Genealogy>  (20) 
CCN(C)CCOCCOCc1c(C)n(CCN(C)C)c2c1cnc1ccccc12 (3D coordinates assigned)
CCN(C)CCOCCOCc1c(C)n(CCN(C)C)c2c1cnc1ccccc12 (optimized conformer: 119.24779429247647 kcal/mol)

>  <smiles>  (20) 
CCN(C)CCOCCOCc1c(C)n(CCN(C)C)c2c1cnc1ccccc12

>  <score_type>  (20) 
oracle

>  <origin>  (20) 
adg

>  <m_score__min__energy>  (20) 
-8.3399999999999999

>  <m_primary>  (20) 
energy

$$$$
20:0
     RDKit          3D

 61 63  0  0  0  0  0  0  0  0999 V2000
   -1.7100   18.2680  -32.8190 C   0  0  0  0  0  0  0  0  0  0  0  0
   -1.5130   19.1490  -34.0500 C   0  0  0  0  0  0  0  0  0  0  0  0
   -1.5790   20.6000  -33.7550 N   0  0  0  0  0  0  0  0  0  0  0  0
   -0.4790   21.4100  -34.3460 C   0  0  0  0  0  0  0  0  0  0  0  0
    0.0320   20.9170  -35.7100 C   0  0  0  0  0  0  0  0  0  0  0  0
   -1.9720   20.9100  -32.3590 C   0  0  0  0  0  0  0  0  0  0  0  0
   -3.2090   21.8200  -32.3070 C   0  0  0  0  0  0  0  0  0  0  0  0
   -4.1080   21.5760  -33.4550 N   0  0  0  0  0  0  0  0  0  0  0  0
   -5.3850   21.0210  -33.0350 C   0  0  0  0  0  0  0  0  0  0  0  0
   -5.7080   19.6510  -33.2660 C   0  0  0  0  0  0  0  0  0  0  0  0
   -6.8560   19.0940  -32.6040 C   0  0  0  0  0  0  0  0  0  0  0  0
   -7.7570   19.9420  -31.9820 N   0  0  0  0  0  0  0  0  0  0  0  0
   -9.0940   19.4460  -31.5830 C   0  0  0  0  0  0  0  0  0  0  0  0
   -7.4270   21.2510  -31.7220 C   0  0  0  0  0  0  0  0  0  0  0  0
   -6.2870   21.8250  -32.3000 C   0  0  0  0  0  0  0  0  0  0  0  0
   -6.1420   23.3320  -32.1670 C   0  0  0  0  0  0  0  0  0  0  0  0
   -6.3060   23.8000  -30.7120 C   0  0  0  0  0  0  0  0  0  0  0  0
   -7.3260   22.9800  -29.9030 C   0  0  0  0  0  0  0  0  0  0  0  0
   -8.2490   22.1300  -30.7870 C   0  0  0  0  0  0  0  0  0  0  0  0
   -7.1380   17.5850  -32.5640 C   0  0  0  0  0  0  0  0  0  0  0  0
   -5.9920   16.7050  -32.0640 C   0  0  0  0  0  0  0  0  0  0  0  0
   -4.9060   16.5320  -33.1310 C   0  0  0  0  0  0  0  0  0  0  0  0
   -5.1800   17.3690  -34.3840 C   0  0  0  0  0  0  0  0  0  0  0  0
   -4.7880   18.8360  -34.1860 C   0  0  0  0  0  0  0  0  0  0  0  0
   -1.5748   18.8725  -31.9100 H   0  0  0  0  0  0  0  0  0  0  0  0
   -2.7251   17.8443  -32.8300 H   0  0  0  0  0  0  0  0  0  0  0  0
   -0.9721   17.4523  -32.8300 H   0  0  0  0  0  0  0  0  0  0  0  0
   -0.5268   18.9263  -34.4834 H   0  0  0  0  0  0  0  0  0  0  0  0
   -2.3349   18.9223  -34.7451 H   0  0  0  0  0  0  0  0  0  0  0  0
   -0.8432   22.4405  -34.4704 H   0  0  0  0  0  0  0  0  0  0  0  0
    0.3703   21.3271  -33.6518 H   0  0  0  0  0  0  0  0  0  0  0  0
    0.8159   20.1607  -35.5564 H   0  0  0  0  0  0  0  0  0  0  0  0
   -0.8008   20.4724  -36.2747 H   0  0  0  0  0  0  0  0  0  0  0  0
    0.4464   21.7652  -36.2747 H   0  0  0  0  0  0  0  0  0  0  0  0
   -2.1986   19.9697  -31.8350 H   0  0  0  0  0  0  0  0  0  0  0  0
   -1.1365   21.4381  -31.8762 H   0  0  0  0  0  0  0  0  0  0  0  0
   -3.7584   21.6239  -31.3744 H   0  0  0  0  0  0  0  0  0  0  0  0
   -2.8708   22.8659  -32.3488 H   0  0  0  0  0  0  0  0  0  0  0  0
   -3.6640   20.9320  -34.1490 H   0  0  0  0  0  0  0  0  0  0  0  0
   -4.2340   22.4610  -33.9970 H   0  0  0  0  0  0  0  0  0  0  0  0
   -9.1631   19.4204  -30.4855 H   0  0  0  0  0  0  0  0  0  0  0  0
   -9.8684   20.1167  -31.9836 H   0  0  0  0  0  0  0  0  0  0  0  0
   -9.2437   18.4325  -31.9836 H   0  0  0  0  0  0  0  0  0  0  0  0
   -5.1439   23.6257  -32.5242 H   0  0  0  0  0  0  0  0  0  0  0  0
   -6.9340   23.8039  -32.7670 H   0  0  0  0  0  0  0  0  0  0  0  0
   -5.3287   23.7264  -30.2126 H   0  0  0  0  0  0  0  0  0  0  0  0
   -6.6851   24.8319  -30.7500 H   0  0  0  0  0  0  0  0  0  0  0  0
   -6.7778   22.3109  -29.2235 H   0  0  0  0  0  0  0  0  0  0  0  0
   -7.9601   23.6924  -29.3549 H   0  0  0  0  0  0  0  0  0  0  0  0
   -8.8764   21.4916  -30.1475 H   0  0  0  0  0  0  0  0  0  0  0  0
   -8.8812   22.7987  -31.3896 H   0  0  0  0  0  0  0  0  0  0  0  0
   -8.0020   17.4209  -31.9033 H   0  0  0  0  0  0  0  0  0  0  0  0
   -7.3091   17.2861  -33.6087 H   0  0  0  0  0  0  0  0  0  0  0  0
   -5.5461   17.1717  -31.1733 H   0  0  0  0  0  0  0  0  0  0  0  0
   -6.4002   15.7120  -31.8248 H   0  0  0  0  0  0  0  0  0  0  0  0
   -3.9398   16.8399  -32.7048 H   0  0  0  0  0  0  0  0  0  0  0  0
   -4.8955   15.4736  -33.4304 H   0  0  0  0  0  0  0  0  0  0  0  0
   -4.5997   16.9556  -35.2221 H   0  0  0  0  0  0  0  0  0  0  0  0
   -6.2594   17.3290  -34.5921 H   0  0  0  0  0  0  0  0  0  0  0  0
   -3.7746   18.8607  -33.7589 H   0  0  0  0  0  0  0  0  0  0  0  0
   -4.8644   19.3041  -35.1785 H   0  0  0  0  0  0  0  0  0  0  0  0
  1  2  1  0
  2  3  1  0
  3  4  1  0
  4  5  1  0
  3  6  1  0
  6  7  1  0
  7  8  1  0
  8  9  1  0
  9 10  2  0
 10 11  1  0
 11 12  2  0
 12 13  1  0
 12 14  1  0
 14 15  2  0
 15 16  1  0
 16 17  1  0
 17 18  1  0
 18 19  1  0
 11 20  1  0
 20 21  1  0
 21 22  1  0
 22 23  1  0
 23 24  1  0
 15  9  1  0
 24 10  1  0
 19 14  1  0
  1 25  1  0
  1 26  1  0
  1 27  1  0
  2 28  1  0
  2 29  1  0
  4 30  1  0
  4 31  1  0
  5 32  1  0
  5 33  1  0
  5 34  1  0
  6 35  1  0
  6 36  1  0
  7 37  1  0
  7 38  1  0
  8 39  1  0
  8 40  1  0
 13 41  1  0
 13 42  1  0
 13 43  1  0
 16 44  1  0
 16 45  1  0
 17 46  1  0
 17 47  1  0
 18 48  1  0
 18 49  1  0
 19 50  1  0
 19 51  1  0
 20 52  1  0
 20 53  1  0
 21 54  1  0
 21 55  1  0
 22 56  1  0
 22 57  1  0
 23 58  1  0
 23 59  1  0
 24 60  1  0
 24 61  1  0
M  CHG  2   8   1  12   1
M  END
>  <UniqueID>  (21) 
21

>  <SMILES>  (21) 
CCN(CC)CC[NH2+]c1c2c([n+](C)c3c1CCCC3)CCCCC2

>  <Energy>  (21) 
98.00258418086061

>  <Genealogy>  (21) 
CCN(CC)CC[NH2+]c1c2c([n+](C)c3c1CCCC3)CCCCC2 (protonated)
CCN(CC)CC[NH2+]c1c2c([n+](C)c3c1CCCC3)CCCCC2 (3D coordinates assigned)
CCN(CC)CC[NH2+]c1c2c([n+](C)c3c1CCCC3)CCCCC2 (nonaromatic ring conformer: 98.00258418086061 kcal/mol)

>  <smiles>  (21) 
CCN(CC)CCNc1c2c([n+](C)c3c1CCCC3)CCCCC2

>  <score_type>  (21) 
oracle

>  <origin>  (21) 
adg

>  <m_score__min__energy>  (21) 
-6.5700000000000003

>  <m_primary>  (21) 
energy

$$$$
21:0
     RDKit          3D

 48 50  0  0  0  0  0  0  0  0999 V2000
   -2.1260   24.8940  -28.7450 C   0  0  0  0  0  0  0  0  0  0  0  0
   -3.1050   25.2560  -29.7150 O   0  0  0  0  0  0  0  0  0  0  0  0
   -4.3130   24.5730  -29.9140 C   0  0  0  0  0  0  0  0  0  0  0  0
   -5.5400   25.2420  -30.0830 C   0  0  0  0  0  0  0  0  0  0  0  0
   -6.7230   24.5140  -30.2400 C   0  0  0  0  0  0  0  0  0  0  0  0
   -6.7020   23.1090  -30.2390 C   0  0  0  0  0  0  0  0  0  0  0  0
   -7.9890   22.3180  -30.2930 C   0  0  0  0  0  0  0  0  0  0  0  0
   -8.2630   21.7070  -31.6110 N   0  0  0  0  0  0  0  0  0  0  0  0
   -7.2780   21.9970  -32.6740 C   0  0  0  0  0  0  0  0  0  0  0  0
   -6.5480   20.7450  -33.1730 C   0  0  0  0  0  0  0  0  0  0  0  0
   -6.3750   19.7860  -32.0690 N   0  0  0  0  0  0  0  0  0  0  0  0
   -5.4470   18.6950  -32.4510 C   0  0  0  0  0  0  0  0  0  0  0  0
   -4.1170   19.2750  -32.8760 C   0  0  0  0  0  0  0  0  0  0  0  0
   -3.6070   20.3950  -32.1980 C   0  0  0  0  0  0  0  0  0  0  0  0
   -2.3710   20.9320  -32.5510 C   0  0  0  0  0  0  0  0  0  0  0  0
   -1.6480   20.3560  -33.5910 C   0  0  0  0  0  0  0  0  0  0  0  0
   -2.1480   19.2800  -34.2500 N   0  0  0  0  0  0  0  0  0  0  0  0
   -3.3440   18.7150  -33.9240 C   0  0  0  0  0  0  0  0  0  0  0  0
   -3.8210   17.5490  -34.7370 C   0  0  0  0  0  0  0  0  0  0  0  0
   -7.6910   19.2450  -31.6660 C   0  0  0  0  0  0  0  0  0  0  0  0
   -8.7900   20.3290  -31.5850 C   0  0  0  0  0  0  0  0  0  0  0  0
   -5.4730   22.4460  -30.0940 C   0  0  0  0  0  0  0  0  0  0  0  0
   -4.2900   23.1750  -29.9360 C   0  0  0  0  0  0  0  0  0  0  0  0
   -2.5363   25.0457  -27.7357 H   0  0  0  0  0  0  0  0  0  0  0  0
   -1.8545   23.8360  -28.8752 H   0  0  0  0  0  0  0  0  0  0  0  0
   -1.2315   25.5208  -28.8752 H   0  0  0  0  0  0  0  0  0  0  0  0
   -5.5680   26.3416  -30.0915 H   0  0  0  0  0  0  0  0  0  0  0  0
   -7.6780   25.0453  -30.3653 H   0  0  0  0  0  0  0  0  0  0  0  0
   -7.9331   21.5145  -29.5439 H   0  0  0  0  0  0  0  0  0  0  0  0
   -8.8069   23.0260  -30.0936 H   0  0  0  0  0  0  0  0  0  0  0  0
   -7.8042   22.4575  -33.5231 H   0  0  0  0  0  0  0  0  0  0  0  0
   -6.5208   22.6701  -32.2456 H   0  0  0  0  0  0  0  0  0  0  0  0
   -7.1376   20.2751  -33.9740 H   0  0  0  0  0  0  0  0  0  0  0  0
   -5.5586   21.0343  -33.5568 H   0  0  0  0  0  0  0  0  0  0  0  0
   -5.2952   18.0273  -31.5901 H   0  0  0  0  0  0  0  0  0  0  0  0
   -5.8794   18.1290  -33.2893 H   0  0  0  0  0  0  0  0  0  0  0  0
   -4.1878   20.8510  -31.3827 H   0  0  0  0  0  0  0  0  0  0  0  0
   -1.9703   21.8034  -32.0125 H   0  0  0  0  0  0  0  0  0  0  0  0
   -0.6715   20.7726  -33.8790 H   0  0  0  0  0  0  0  0  0  0  0  0
   -4.1506   16.7434  -34.0644 H   0  0  0  0  0  0  0  0  0  0  0  0
   -4.6625   17.8642  -35.3715 H   0  0  0  0  0  0  0  0  0  0  0  0
   -2.9999   17.1840  -35.3715 H   0  0  0  0  0  0  0  0  0  0  0  0
   -7.9990   18.4877  -32.4019 H   0  0  0  0  0  0  0  0  0  0  0  0
   -7.5765   18.8164  -30.6594 H   0  0  0  0  0  0  0  0  0  0  0  0
   -9.4693   20.2002  -32.4405 H   0  0  0  0  0  0  0  0  0  0  0  0
   -9.3025   20.1976  -30.6206 H   0  0  0  0  0  0  0  0  0  0  0  0
   -5.4403   21.3465  -30.1047 H   0  0  0  0  0  0  0  0  0  0  0  0
   -3.3328   22.6439  -29.8281 H   0  0  0  0  0  0  0  0  0  0  0  0
  1  2  1  0
  2  3  1  0
  3  4  2  0
  4  5  1  0
  5  6  2  0
  6  7  1  0
  7  8  1  0
  8  9  1  0
  9 10  1  0
 10 11  1  0
 11 12  1  0
 12 13  1  0
 13 14  2  0
 14 15  1  0
 15 16  2  0
 16 17  1  0
 17 18  2  0
 18 19  1  0
 11 20  1  0
 20 21  1  0
  6 22  1  0
 22 23  2  0
 23  3  1  0
 21  8  1  0
 18 13  1  0
  1 24  1  0
  1 25  1  0
  1 26  1  0
  4 27  1  0
  5 28  1  0
  7 29  1  0
  7 30  1  0
  9 31  1  0
  9 32  1  0
 10 33  1  0
 10 34  1  0
 12 35  1  0
 12 36  1  0
 14 37  1  0
 15 38  1  0
 16 39  1  0
 19 40  1  0
 19 41  1  0
 19 42  1  0
 20 43  1  0
 20 44  1  0
 21 45  1  0
 21 46  1  0
 22 47  1  0
 23 48  1  0
M  END
>  <UniqueID>  (22) 
22

>  <SMILES>  (22) 
COc1ccc(CN2CCN(Cc3cccnc3C)CC2)cc1

>  <Energy>  (22) 
61.250440818634836

>  <Genealogy>  (22) 
COc1ccc(CN2CCN(Cc3cccnc3C)CC2)cc1 (3D coordinates assigned)
COc1ccc(CN2CCN(Cc3cccnc3C)CC2)cc1 (nonaromatic ring conformer: 61.250440818634836 kcal/mol)

>  <smiles>  (22) 
COc1ccc(CN2CCN(Cc3cccnc3C)CC2)cc1

>  <score_type>  (22) 
oracle

>  <origin>  (22) 
adg

>  <m_score__min__energy>  (22) 
-8.4199999999999999

>  <m_primary>  (22) 
energy

$$$$
22:0
     RDKit          3D

 56 59  0  0  0  0  0  0  0  0999 V2000
   -6.8630   23.8460  -30.1780 C   0  0  0  0  0  0  0  0  0  0  0  0
   -6.0970   24.5360  -31.0260 C   0  0  0  0  0  0  0  0  0  0  0  0
   -5.2330   25.6710  -30.5550 C   0  0  0  0  0  0  0  0  0  0  0  0
   -3.8640   25.2720  -30.4730 O   0  0  0  0  0  0  0  0  0  0  0  0
   -3.4130   24.0000  -30.0820 C   0  0  0  0  0  0  0  0  0  0  0  0
   -3.6300   23.6010  -28.7580 C   0  0  0  0  0  0  0  0  0  0  0  0
   -3.1920   22.3520  -28.3140 C   0  0  0  0  0  0  0  0  0  0  0  0
   -2.5350   21.4860  -29.1900 C   0  0  0  0  0  0  0  0  0  0  0  0
   -2.3180   21.8600  -30.5270 C   0  0  0  0  0  0  0  0  0  0  0  0
   -1.6120   20.9840  -31.4290 N   0  0  0  0  0  0  0  0  0  0  0  0
   -1.2740   19.6210  -31.0060 C   0  0  0  0  0  0  0  0  0  0  0  0
   -1.0500   18.6900  -32.2140 C   0  0  0  0  0  0  0  0  0  0  0  0
   -1.9560   18.9750  -33.3520 N   0  0  0  0  0  0  0  0  0  0  0  0
   -3.2080   18.1900  -33.3750 C   0  0  0  0  0  0  0  0  0  0  0  0
   -4.3520   18.8830  -34.1340 C   0  0  0  0  0  0  0  0  0  0  0  0
   -5.6450   18.4980  -33.5640 N   0  0  0  0  0  0  0  0  0  0  0  0
   -6.1590   17.2470  -33.4210 C   0  0  0  0  0  0  0  0  0  0  0  0
   -5.4780   16.0020  -33.8940 C   0  0  0  0  0  0  0  0  0  0  0  0
   -7.3600   17.2260  -32.7860 N   0  0  0  0  0  0  0  0  0  0  0  0
   -7.5860   18.5260  -32.5220 C   0  0  0  0  0  0  0  0  0  0  0  0
   -8.6810   19.0790  -31.8630 C   0  0  0  0  0  0  0  0  0  0  0  0
   -8.6970   20.4740  -31.6770 C   0  0  0  0  0  0  0  0  0  0  0  0
   -7.6300   21.2720  -32.1480 C   0  0  0  0  0  0  0  0  0  0  0  0
   -6.5370   20.6820  -32.8090 C   0  0  0  0  0  0  0  0  0  0  0  0
   -6.5560   19.2950  -32.9810 C   0  0  0  0  0  0  0  0  0  0  0  0
   -2.1290   20.4010  -33.7350 C   0  0  0  0  0  0  0  0  0  0  0  0
   -1.3680   21.3620  -32.8210 C   0  0  0  0  0  0  0  0  0  0  0  0
   -2.7550   23.1220  -30.9660 C   0  0  0  0  0  0  0  0  0  0  0  0
   -7.4867   23.0191  -30.5484 H   0  0  0  0  0  0  0  0  0  0  0  0
   -6.8705   24.1043  -29.1088 H   0  0  0  0  0  0  0  0  0  0  0  0
   -6.0985   24.2676  -32.0928 H   0  0  0  0  0  0  0  0  0  0  0  0
   -5.3219   26.5085  -31.2626 H   0  0  0  0  0  0  0  0  0  0  0  0
   -5.5699   25.9757  -29.5532 H   0  0  0  0  0  0  0  0  0  0  0  0
   -4.1494   24.2765  -28.0623 H   0  0  0  0  0  0  0  0  0  0  0  0
   -3.3651   22.0493  -27.2707 H   0  0  0  0  0  0  0  0  0  0  0  0
   -2.1856   20.5064  -28.8319 H   0  0  0  0  0  0  0  0  0  0  0  0
   -0.3538   19.6521  -30.4040 H   0  0  0  0  0  0  0  0  0  0  0  0
   -2.1153   19.2250  -30.4183 H   0  0  0  0  0  0  0  0  0  0  0  0
   -0.0115   18.8075  -32.5571 H   0  0  0  0  0  0  0  0  0  0  0  0
   -1.2630   17.6645  -31.8779 H   0  0  0  0  0  0  0  0  0  0  0  0
   -3.0042   17.2234  -33.8590 H   0  0  0  0  0  0  0  0  0  0  0  0
   -3.5359   18.0728  -32.3316 H   0  0  0  0  0  0  0  0  0  0  0  0
   -4.2311   19.9736  -34.0562 H   0  0  0  0  0  0  0  0  0  0  0  0
   -4.3198   18.5753  -35.1896 H   0  0  0  0  0  0  0  0  0  0  0  0
   -5.1537   15.4091  -33.0261 H   0  0  0  0  0  0  0  0  0  0  0  0
   -6.1777   15.4097  -34.5019 H   0  0  0  0  0  0  0  0  0  0  0  0
   -4.6018   16.2717  -34.5019 H   0  0  0  0  0  0  0  0  0  0  0  0
   -9.5052   18.4472  -31.5003 H   0  0  0  0  0  0  0  0  0  0  0  0
   -9.5460   20.9465  -31.1614 H   0  0  0  0  0  0  0  0  0  0  0  0
   -7.6541   22.3613  -31.9969 H   0  0  0  0  0  0  0  0  0  0  0  0
   -5.6977   21.2904  -33.1772 H   0  0  0  0  0  0  0  0  0  0  0  0
   -1.7649   20.5341  -34.7644 H   0  0  0  0  0  0  0  0  0  0  0  0
   -3.1992   20.6385  -33.6439 H   0  0  0  0  0  0  0  0  0  0  0  0
   -0.2910   21.3021  -33.0367 H   0  0  0  0  0  0  0  0  0  0  0  0
   -1.7123   22.3924  -32.9936 H   0  0  0  0  0  0  0  0  0  0  0  0
   -2.5817   23.4267  -32.0087 H   0  0  0  0  0  0  0  0  0  0  0  0
  1  2  2  0
  2  3  1  0
  3  4  1  0
  4  5  1  0
  5  6  2  0
  6  7  1  0
  7  8  2  0
  8  9  1  0
  9 10  1  0
 10 11  1  0
 11 12  1  0
 12 13  1  0
 13 14  1  0
 14 15  1  0
 15 16  1  0
 16 17  1  0
 17 18  1  0
 17 19  2  0
 19 20  1  0
 20 21  2  0
 21 22  1  0
 22 23  2  0
 23 24  1  0
 24 25  2  0
 13 26  1  0
 26 27  1  0
  9 28  2  0
 28  5  1  0
 27 10  1  0
 25 16  1  0
 25 20  1  0
  1 29  1  0
  1 30  1  0
  2 31  1  0
  3 32  1  0
  3 33  1  0
  6 34  1  0
  7 35  1  0
  8 36  1  0
 11 37  1  0
 11 38  1  0
 12 39  1  0
 12 40  1  0
 14 41  1  0
 14 42  1  0
 15 43  1  0
 15 44  1  0
 18 45  1  0
 18 46  1  0
 18 47  1  0
 21 48  1  0
 22 49  1  0
 23 50  1  0
 24 51  1  0
 26 52  1  0
 26 53  1  0
 27 54  1  0
 27 55  1  0
 28 56  1  0
M  END
>  <UniqueID>  (23) 
23

>  <SMILES>  (23) 
C=CCOc1cccc(N2CCN(CCn3c(C)nc4ccccc43)CC2)c1

>  <Energy>  (23) 
104.21680044838573

>  <Genealogy>  (23) 
C=CCOc1cccc(N2CCN(CCn3c(C)nc4ccccc43)CC2)c1 (3D coordinates assigned)
C=CCOc1cccc(N2CCN(CCn3c(C)nc4ccccc43)CC2)c1 (nonaromatic ring conformer: 104.21680044838573 kcal/mol)

>  <smiles>  (23) 
C=CCOc1cccc(N2CCN(CCn3c(C)nc4ccccc43)CC2)c1

>  <score_type>  (23) 
oracle

>  <origin>  (23) 
adg

>  <m_score__min__energy>  (23) 
-9.2699999999999996

>  <m_primary>  (23) 
energy

$$$$
23:0
     RDKit          3D

 53 55  0  0  0  0  0  0  0  0999 V2000
   -4.5970   13.3100  -31.1470 C   0  0  0  0  0  0  0  0  0  0  0  0
   -4.1710   13.3530  -32.6140 C   0  0  0  0  0  0  0  0  0  0  0  0
   -4.3370   14.7040  -33.1680 N   0  0  0  0  0  0  0  0  0  0  0  0
   -3.0280   15.3550  -33.3390 C   0  0  0  0  0  0  0  0  0  0  0  0
   -3.0430   16.4020  -34.4640 C   0  0  0  0  0  0  0  0  0  0  0  0
   -3.7280   17.6550  -34.0720 N   0  0  0  0  0  0  0  0  0  0  0  0
   -3.0180   18.8190  -33.8790 C   0  0  0  0  0  0  0  0  0  0  0  0
   -1.2550   18.9480  -34.2530 S   0  0  0  0  0  0  0  0  0  0  0  0
   -1.1140   20.7460  -33.9200 C   0  0  0  0  0  0  0  0  0  0  0  0
    0.3230   21.1570  -33.5440 C   0  0  0  0  0  0  0  0  0  0  0  0
    1.0260   21.9350  -34.5900 N   0  0  0  0  0  0  0  0  0  0  0  0
    0.2520   22.0570  -35.8340 C   0  0  0  0  0  0  0  0  0  0  0  0
    2.3880   21.4410  -34.8530 C   0  0  0  0  0  0  0  0  0  0  0  0
   -3.6350   19.9220  -33.3820 N   0  0  0  0  0  0  0  0  0  0  0  0
   -4.9600   19.9420  -33.1160 C   0  0  0  0  0  0  0  0  0  0  0  0
   -5.5540   21.1090  -32.6270 C   0  0  0  0  0  0  0  0  0  0  0  0
   -6.9310   21.1440  -32.3650 C   0  0  0  0  0  0  0  0  0  0  0  0
   -7.5360   22.3120  -31.8750 C   0  0  0  0  0  0  0  0  0  0  0  0
   -8.9100   22.3350  -31.6180 C   0  0  0  0  0  0  0  0  0  0  0  0
   -9.6880   21.1970  -31.8460 C   0  0  0  0  0  0  0  0  0  0  0  0
   -9.0980   20.0280  -32.3340 C   0  0  0  0  0  0  0  0  0  0  0  0
   -7.7180   19.9900  -32.5970 C   0  0  0  0  0  0  0  0  0  0  0  0
   -7.1160   18.8210  -33.0860 C   0  0  0  0  0  0  0  0  0  0  0  0
   -5.7330   18.7920  -33.3480 C   0  0  0  0  0  0  0  0  0  0  0  0
   -5.0830   17.6410  -33.8270 C   0  0  0  0  0  0  0  0  0  0  0  0
   -5.7550   16.5890  -34.0260 O   0  0  0  0  0  0  0  0  0  0  0  0
   -3.7087   13.3997  -30.5045 H   0  0  0  0  0  0  0  0  0  0  0  0
   -5.2847   14.1433  -30.9403 H   0  0  0  0  0  0  0  0  0  0  0  0
   -5.1043   12.3561  -30.9403 H   0  0  0  0  0  0  0  0  0  0  0  0
   -3.1137   13.0594  -32.6909 H   0  0  0  0  0  0  0  0  0  0  0  0
   -4.8047   12.6583  -33.1849 H   0  0  0  0  0  0  0  0  0  0  0  0
   -4.9230   15.2760  -32.5150 H   0  0  0  0  0  0  0  0  0  0  0  0
   -4.8150   14.6300  -34.0960 H   0  0  0  0  0  0  0  0  0  0  0  0
   -2.7535   15.8515  -32.3966 H   0  0  0  0  0  0  0  0  0  0  0  0
   -2.2975   14.5785  -33.6100 H   0  0  0  0  0  0  0  0  0  0  0  0
   -2.0042   16.6398  -34.7368 H   0  0  0  0  0  0  0  0  0  0  0  0
   -3.5985   15.9714  -35.3101 H   0  0  0  0  0  0  0  0  0  0  0  0
   -1.4159   21.2982  -34.8222 H   0  0  0  0  0  0  0  0  0  0  0  0
   -1.7675   20.9841  -33.0678 H   0  0  0  0  0  0  0  0  0  0  0  0
    0.2790   21.7683  -32.6306 H   0  0  0  0  0  0  0  0  0  0  0  0
    0.8922   20.2257  -33.4070 H   0  0  0  0  0  0  0  0  0  0  0  0
   -0.8079   22.2241  -35.5915 H   0  0  0  0  0  0  0  0  0  0  0  0
    0.6322   22.9063  -36.4206 H   0  0  0  0  0  0  0  0  0  0  0  0
    0.3525   21.1319  -36.4206 H   0  0  0  0  0  0  0  0  0  0  0  0
    2.9013   21.2548  -33.8981 H   0  0  0  0  0  0  0  0  0  0  0  0
    2.3338   20.5052  -35.4287 H   0  0  0  0  0  0  0  0  0  0  0  0
    2.9463   22.1939  -35.4287 H   0  0  0  0  0  0  0  0  0  0  0  0
   -4.9390   22.0031  -32.4471 H   0  0  0  0  0  0  0  0  0  0  0  0
   -6.9281   23.2105  -31.6930 H   0  0  0  0  0  0  0  0  0  0  0  0
   -9.3804   23.2525  -31.2348 H   0  0  0  0  0  0  0  0  0  0  0  0
  -10.7684   21.2214  -31.6407 H   0  0  0  0  0  0  0  0  0  0  0  0
   -9.7153   19.1353  -32.5127 H   0  0  0  0  0  0  0  0  0  0  0  0
   -7.7267   17.9238  -33.2654 H   0  0  0  0  0  0  0  0  0  0  0  0
  1  2  1  0
  2  3  1  0
  3  4  1  0
  4  5  1  0
  5  6  1  0
  6  7  1  0
  7  8  1  0
  8  9  1  0
  9 10  1  0
 10 11  1  0
 11 12  1  0
 11 13  1  0
  7 14  2  0
 14 15  1  0
 15 16  2  0
 16 17  1  0
 17 18  2  0
 18 19  1  0
 19 20  2  0
 20 21  1  0
 21 22  2  0
 22 23  1  0
 23 24  2  0
 24 25  1  0
 25 26  2  0
 25  6  1  0
 24 15  1  0
 22 17  1  0
  1 27  1  0
  1 28  1  0
  1 29  1  0
  2 30  1  0
  2 31  1  0
  3 32  1  0
  3 33  1  0
  4 34  1  0
  4 35  1  0
  5 36  1  0
  5 37  1  0
  9 38  1  0
  9 39  1  0
 10 40  1  0
 10 41  1  0
 12 42  1  0
 12 43  1  0
 12 44  1  0
 13 45  1  0
 13 46  1  0
 13 47  1  0
 16 48  1  0
 18 49  1  0
 19 50  1  0
 20 51  1  0
 21 52  1  0
 23 53  1  0
M  CHG  1   3   1
M  END
>  <UniqueID>  (24) 
24

>  <SMILES>  (24) 
CC[NH2+]CCn1c(SCCN(C)C)nc2cc3ccccc3cc2c1=O

>  <Energy>  (24) 
60.095470633195745

>  <Genealogy>  (24) 
CC[NH2+]CCn1c(SCCN(C)C)nc2cc3ccccc3cc2c1=O (protonated)
CC[NH2+]CCn1c(SCCN(C)C)nc2cc3ccccc3cc2c1=O (3D coordinates assigned)
CC[NH2+]CCn1c(SCCN(C)C)nc2cc3ccccc3cc2c1=O (optimized conformer: 60.095470633195745 kcal/mol)

>  <smiles>  (24) 
CCNCCn1c(SCCN(C)C)nc2cc3ccccc3cc2c1=O

>  <score_type>  (24) 
oracle

>  <origin>  (24) 
adg

>  <m_score__min__energy>  (24) 
-7.0099999999999998

>  <m_primary>  (24) 
energy

$$$$
24:0
     RDKit          3D

 43 44  0  0  0  0  0  0  0  0999 V2000
   -9.0100   18.5330  -31.5780 C   0  0  0  0  0  0  0  0  0  0  0  0
   -9.4870   19.6320  -32.5200 C   0  0  0  0  0  0  0  0  0  0  0  0
   -8.3350   20.3380  -33.0910 N   0  0  0  0  0  0  0  0  0  0  0  0
   -7.2690   20.4650  -32.0940 C   0  0  0  0  0  0  0  0  0  0  0  0
   -5.9420   20.1570  -32.7240 C   0  0  0  0  0  0  0  0  0  0  0  0
   -5.5770   19.0190  -33.4330 C   0  0  0  0  0  0  0  0  0  0  0  0
   -6.4110   17.7930  -33.6660 C   0  0  0  0  0  0  0  0  0  0  0  0
   -6.1130   16.7320  -32.6130 C   0  0  0  0  0  0  0  0  0  0  0  0
   -4.2990   19.1470  -33.8440 N   0  0  0  0  0  0  0  0  0  0  0  0
   -3.8350   20.3180  -33.4340 N   0  0  0  0  0  0  0  0  0  0  0  0
   -2.4850   20.8030  -33.7000 C   0  0  0  0  0  0  0  0  0  0  0  0
   -4.8120   20.9560  -32.7570 C   0  0  0  0  0  0  0  0  0  0  0  0
   -4.6890   22.2590  -32.1700 N   0  0  0  0  0  0  0  0  0  0  0  0
   -5.6650   23.3040  -32.4760 C   0  0  0  0  0  0  0  0  0  0  0  0
   -5.8070   24.2310  -31.2650 C   0  0  0  0  0  0  0  0  0  0  0  0
   -4.5410   24.7090  -30.8460 O   0  0  0  0  0  0  0  0  0  0  0  0
   -3.7490   23.6310  -30.3810 C   0  0  0  0  0  0  0  0  0  0  0  0
   -3.4410   22.6490  -31.5150 C   0  0  0  0  0  0  0  0  0  0  0  0
   -9.1505   18.8566  -30.5361 H   0  0  0  0  0  0  0  0  0  0  0  0
   -9.5915   17.6170  -31.7590 H   0  0  0  0  0  0  0  0  0  0  0  0
   -7.9437   18.3322  -31.7590 H   0  0  0  0  0  0  0  0  0  0  0  0
  -10.0790   19.1844  -33.3319 H   0  0  0  0  0  0  0  0  0  0  0  0
  -10.1059   20.3465  -31.9574 H   0  0  0  0  0  0  0  0  0  0  0  0
   -7.9680   19.7630  -33.8860 H   0  0  0  0  0  0  0  0  0  0  0  0
   -7.2569   21.4926  -31.7017 H   0  0  0  0  0  0  0  0  0  0  0  0
   -7.4539   19.7562  -31.2734 H   0  0  0  0  0  0  0  0  0  0  0  0
   -7.4756   18.0649  -33.6137 H   0  0  0  0  0  0  0  0  0  0  0  0
   -6.1704   17.3843  -34.6585 H   0  0  0  0  0  0  0  0  0  0  0  0
   -6.2350   17.1665  -31.6099 H   0  0  0  0  0  0  0  0  0  0  0  0
   -6.8091   15.8890  -32.7346 H   0  0  0  0  0  0  0  0  0  0  0  0
   -5.0798   16.3747  -32.7346 H   0  0  0  0  0  0  0  0  0  0  0  0
   -3.7500   18.4420  -34.3870 H   0  0  0  0  0  0  0  0  0  0  0  0
   -1.9678   20.9888  -32.7471 H   0  0  0  0  0  0  0  0  0  0  0  0
   -1.9310   20.0477  -34.2767 H   0  0  0  0  0  0  0  0  0  0  0  0
   -2.5383   21.7382  -34.2767 H   0  0  0  0  0  0  0  0  0  0  0  0
   -5.3222   23.8843  -33.3453 H   0  0  0  0  0  0  0  0  0  0  0  0
   -6.6378   22.8450  -32.7061 H   0  0  0  0  0  0  0  0  0  0  0  0
   -6.4430   25.0860  -31.5380 H   0  0  0  0  0  0  0  0  0  0  0  0
   -6.2610   23.6644  -30.4387 H   0  0  0  0  0  0  0  0  0  0  0  0
   -2.8038   24.0256  -29.9798 H   0  0  0  0  0  0  0  0  0  0  0  0
   -4.3070   23.0981  -29.5970 H   0  0  0  0  0  0  0  0  0  0  0  0
   -2.7766   23.1306  -32.2476 H   0  0  0  0  0  0  0  0  0  0  0  0
   -2.9460   21.7564  -31.1048 H   0  0  0  0  0  0  0  0  0  0  0  0
  1  2  1  0
  2  3  1  0
  3  4  1  0
  4  5  1  0
  5  6  1  0
  6  7  1  0
  7  8  1  0
  6  9  2  0
  9 10  1  0
 10 11  1  0
 10 12  1  0
 12 13  1  0
 13 14  1  0
 14 15  1  0
 15 16  1  0
 16 17  1  0
 17 18  1  0
 12  5  2  0
 18 13  1  0
  1 19  1  0
  1 20  1  0
  1 21  1  0
  2 22  1  0
  2 23  1  0
  3 24  1  0
  4 25  1  0
  4 26  1  0
  7 27  1  0
  7 28  1  0
  8 29  1  0
  8 30  1  0
  8 31  1  0
  9 32  1  0
 11 33  1  0
 11 34  1  0
 11 35  1  0
 14 36  1  0
 14 37  1  0
 15 38  1  0
 15 39  1  0
 17 40  1  0
 17 41  1  0
 18 42  1  0
 18 43  1  0
M  CHG  1   9   1
M  END
>  <UniqueID>  (25) 
25

>  <SMILES>  (25) 
CCNCc1c(CC)[nH+]n(C)c1N1CCOCC1

>  <Energy>  (25) 
67.43898547406388

>  <Genealogy>  (25) 
CCNCc1c(CC)[nH+]n(C)c1N1CCOCC1 (protonated)
CCNCc1c(CC)[nH+]n(C)c1N1CCOCC1 (3D coordinates assigned)
CCNCc1c(CC)[nH+]n(C)c1N1CCOCC1 (nonaromatic ring conformer: 67.43898547406388 kcal/mol)

>  <smiles>  (25) 
CCNCc1c(CC)nn(C)c1N1CCOCC1

>  <score_type>  (25) 
oracle

>  <origin>  (25) 
adg

>  <m_score__min__energy>  (25) 
-6.2699999999999996

>  <m_primary>  (25) 
energy

$$$$
25:0
     RDKit          3D

 45 44  0  0  0  0  0  0  0  0999 V2000
   -2.3516   20.9946  -33.0307 H   0  0  0  0  0  0  0  0  0  0  0  0
   -3.4510   20.9710  -33.0020 C   0  0  0  0  0  0  0  0  0  0  0  0
   -4.0680   19.7920  -33.2370 C   0  0  0  0  0  0  0  0  0  0  0  0
   -3.3900   18.7990  -34.1470 C   0  0  0  0  0  0  0  0  0  0  0  0
   -2.8722   18.0407  -33.5413 H   0  0  0  0  0  0  0  0  0  0  0  0
   -4.1433   18.3095  -34.7818 H   0  0  0  0  0  0  0  0  0  0  0  0
   -2.6599   19.3224  -34.7818 H   0  0  0  0  0  0  0  0  0  0  0  0
   -5.3850   19.4010  -32.5880 C   0  0  0  0  0  0  0  0  0  0  0  0
   -5.4367   19.8539  -31.5869 H   0  0  0  0  0  0  0  0  0  0  0  0
   -5.4237   18.3033  -32.5284 H   0  0  0  0  0  0  0  0  0  0  0  0
   -6.5920   19.8770  -33.4120 C   0  0  0  0  0  0  0  0  0  0  0  0
   -7.1905   19.0009  -33.7023 H   0  0  0  0  0  0  0  0  0  0  0  0
   -6.2093   20.4105  -34.2946 H   0  0  0  0  0  0  0  0  0  0  0  0
   -7.4700   20.8310  -32.6380 C   0  0  0  0  0  0  0  0  0  0  0  0
   -7.1837   21.8930  -32.6247 H   0  0  0  0  0  0  0  0  0  0  0  0
   -8.5820   20.4720  -31.9610 C   0  0  0  0  0  0  0  0  0  0  0  0
   -9.0420   19.0350  -31.8830 C   0  0  0  0  0  0  0  0  0  0  0  0
   -9.1373   18.7373  -30.8284 H   0  0  0  0  0  0  0  0  0  0  0  0
  -10.0172   18.9346  -32.3819 H   0  0  0  0  0  0  0  0  0  0  0  0
   -8.3064   18.3869  -32.3819 H   0  0  0  0  0  0  0  0  0  0  0  0
   -9.3800   21.5460  -31.2670 C   0  0  0  0  0  0  0  0  0  0  0  0
   -9.2893   21.4240  -30.1776 H   0  0  0  0  0  0  0  0  0  0  0  0
   -8.9956   22.5346  -31.5585 H   0  0  0  0  0  0  0  0  0  0  0  0
  -10.4374   21.4632  -31.5585 H   0  0  0  0  0  0  0  0  0  0  0  0
   -4.1850   22.2640  -32.7010 C   0  0  0  0  0  0  0  0  0  0  0  0
   -3.8549   23.0268  -33.4215 H   0  0  0  0  0  0  0  0  0  0  0  0
   -5.2609   22.0497  -32.7811 H   0  0  0  0  0  0  0  0  0  0  0  0
   -3.9460   22.7780  -31.3330 N   0  0  0  0  0  0  0  0  0  0  0  0
   -2.5790   22.4910  -30.8630 C   0  0  0  0  0  0  0  0  0  0  0  0
   -2.5626   22.4876  -29.7631 H   0  0  0  0  0  0  0  0  0  0  0  0
   -2.2616   21.5066  -31.2375 H   0  0  0  0  0  0  0  0  0  0  0  0
   -1.8925   23.2646  -31.2375 H   0  0  0  0  0  0  0  0  0  0  0  0
   -4.9730   22.3320  -30.3670 C   0  0  0  0  0  0  0  0  0  0  0  0
   -5.3440   21.3397  -30.6630 H   0  0  0  0  0  0  0  0  0  0  0  0
   -4.5248   22.2807  -29.3638 H   0  0  0  0  0  0  0  0  0  0  0  0
   -6.1220   23.3070  -30.3440 C   0  0  0  0  0  0  0  0  0  0  0  0
   -7.0215   23.0354  -29.7720 H   0  0  0  0  0  0  0  0  0  0  0  0
   -6.1100   24.4900  -30.9830 C   0  0  0  0  0  0  0  0  0  0  0  0
   -6.7767   24.6120  -31.8494 H   0  0  0  0  0  0  0  0  0  0  0  0
   -5.2450   25.6590  -30.5920 C   0  0  0  0  0  0  0  0  0  0  0  0
   -5.2949   26.4272  -31.3778 H   0  0  0  0  0  0  0  0  0  0  0  0
   -5.6085   26.0727  -29.6398 H   0  0  0  0  0  0  0  0  0  0  0  0
   -3.8610   25.2270  -30.4270 N   0  0  0  0  0  0  0  0  0  0  0  0
   -3.8480   24.3770  -29.8190 H   0  0  0  0  0  0  0  0  0  0  0  0
   -3.5090   24.9230  -31.3640 H   0  0  0  0  0  0  0  0  0  0  0  0
  1  2  1  0
  2  3  2  3
  3  4  1  0
  4  5  1  0
  4  6  1  0
  4  7  1  0
  3  8  1  0
  8  9  1  0
  8 10  1  0
  8 11  1  0
 11 12  1  0
 11 13  1  0
 11 14  1  0
 14 15  1  0
 14 16  2  3
 16 17  1  0
 17 18  1  0
 17 19  1  0
 17 20  1  0
 16 21  1  0
 21 22  1  0
 21 23  1  0
 21 24  1  0
  2 25  1  0
 25 26  1  0
 25 27  1  0
 25 28  1  0
 28 29  1  0
 29 30  1  0
 29 31  1  0
 29 32  1  0
 28 33  1  0
 33 34  1  0
 33 35  1  0
 33 36  1  0
 36 37  1  0
 36 38  2  0
 38 39  1  0
 38 40  1  0
 40 41  1  0
 40 42  1  0
 40 43  1  0
 43 44  1  0
 43 45  1  0
M  END
>  <UniqueID>  (26) 
26

>  <SMILES>  (26) 
CC(C)=CCCC(C)=CCN(C)C/C=C\CN

>  <Energy>  (26) 
28.959384989325805

>  <Genealogy>  (26) 
CC(C)=CCCC(C)=CCN(C)C/C=C\CN (cis-trans isomerization)
CC(C)=CCCC(C)=CCN(C)C/C=C\CN (3D coordinates assigned)
CC(C)=CCCC(C)=CCN(C)C/C=C\CN (optimized conformer: 28.959384989325805 kcal/mol)

>  <smiles>  (26) 
CC(C)=CCCC(C)=CCN(C)CC=CCN

>  <score_type>  (26) 
oracle

>  <origin>  (26) 
adg

>  <m_score__min__energy>  (26) 
-6.4400000000000004

>  <m_primary>  (26) 
energy

$$$$
26:0
     RDKit          3D

 33 35  0  0  0  0  0  0  0  0999 V2000
   -8.6460   18.6500  -31.7230 C   0  0  0  0  0  0  0  0  0  0  0  0
   -8.4630   20.0930  -31.6370 N   0  0  0  0  0  0  0  0  0  0  0  0
   -7.2860   20.7420  -31.6860 C   0  0  0  0  0  0  0  0  0  0  0  0
   -7.5440   22.0970  -31.6490 C   0  0  0  0  0  0  0  0  0  0  0  0
   -6.5430   23.1770  -31.7410 C   0  0  0  0  0  0  0  0  0  0  0  0
   -6.8100   24.1830  -32.4540 O   0  0  0  0  0  0  0  0  0  0  0  0
   -5.2740   23.1110  -31.0640 N   0  0  0  0  0  0  0  0  0  0  0  0
   -4.2260   22.1490  -31.3780 C   0  0  0  0  0  0  0  0  0  0  0  0
   -2.9360   22.7690  -30.8610 C   0  0  0  0  0  0  0  0  0  0  0  0
   -3.3830   23.7640  -29.7810 C   0  0  1  0  0  0  0  0  0  0  0  0
   -3.3890   23.1460  -28.3520 C   0  0  0  0  0  0  0  0  0  0  0  0
   -2.8720   24.2450  -27.4160 C   0  0  0  0  0  0  0  0  0  0  0  0
   -2.2370   25.1950  -28.3530 C   0  0  0  0  0  0  0  0  0  0  0  0
   -1.5400   26.1780  -27.9870 O   0  0  0  0  0  0  0  0  0  0  0  0
   -2.4930   24.9120  -29.7130 N   0  0  0  0  0  0  0  0  0  0  0  0
   -4.7870   24.1960  -30.2250 C   0  0  0  0  0  0  0  0  0  0  0  0
   -8.9250   22.1990  -31.6120 C   0  0  0  0  0  0  0  0  0  0  0  0
   -9.4610   20.9620  -31.6120 N   0  0  0  0  0  0  0  0  0  0  0  0
   -8.6998   18.2262  -30.7094 H   0  0  0  0  0  0  0  0  0  0  0  0
   -9.5792   18.4302  -32.2623 H   0  0  0  0  0  0  0  0  0  0  0  0
   -7.7972   18.2042  -32.2623 H   0  0  0  0  0  0  0  0  0  0  0  0
   -6.2920   20.2746  -31.7452 H   0  0  0  0  0  0  0  0  0  0  0  0
   -4.4206   21.1906  -30.8744 H   0  0  0  0  0  0  0  0  0  0  0  0
   -4.1743   21.9398  -32.4567 H   0  0  0  0  0  0  0  0  0  0  0  0
   -2.2812   21.9975  -30.4297 H   0  0  0  0  0  0  0  0  0  0  0  0
   -2.3603   23.2567  -31.6615 H   0  0  0  0  0  0  0  0  0  0  0  0
   -4.4095   22.8501  -28.0675 H   0  0  0  0  0  0  0  0  0  0  0  0
   -2.7621   22.2436  -28.2999 H   0  0  0  0  0  0  0  0  0  0  0  0
   -3.6985   24.7207  -26.8677 H   0  0  0  0  0  0  0  0  0  0  0  0
   -2.1870   23.8721  -26.6403 H   0  0  0  0  0  0  0  0  0  0  0  0
   -5.4424   24.3324  -29.3522 H   0  0  0  0  0  0  0  0  0  0  0  0
   -4.7705   25.1553  -30.7629 H   0  0  0  0  0  0  0  0  0  0  0  0
   -9.4940   23.1400  -31.5866 H   0  0  0  0  0  0  0  0  0  0  0  0
  1  2  1  0
  2  3  1  0
  3  4  2  0
  4  5  1  0
  5  6  2  0
  5  7  1  0
  7  8  1  0
  8  9  1  0
  9 10  1  0
 10 11  1  0
 11 12  1  0
 12 13  1  0
 13 14  2  0
 13 15  1  0
 10 16  1  0
  4 17  1  0
 17 18  2  0
 18  2  1  0
 16  7  1  0
 10 15  1  1
  1 19  1  0
  1 20  1  0
  1 21  1  0
  3 22  1  0
  8 23  1  0
  8 24  1  0
  9 25  1  0
  9 26  1  0
 11 27  1  0
 11 28  1  0
 12 29  1  0
 12 30  1  0
 16 31  1  0
 16 32  1  0
 17 33  1  0
M  CHG  1  15  -1
M  END
>  <UniqueID>  (27) 
27

>  <SMILES>  (27) 
Cn1cc(C(=O)N2CC[C@]3(CCC(=O)[N-]3)C2)cn1

>  <Energy>  (27) 
75.49034241903952

>  <Genealogy>  (27) 
Cn1cc(C(=O)N2CCC3(CCC(=O)[N-]3)C2)cn1 (protonated)
Cn1cc(C(=O)N2CC[C@]3(CCC(=O)[N-]3)C2)cn1 (chirality)
Cn1cc(C(=O)N2CC[C@]3(CCC(=O)[N-]3)C2)cn1 (3D coordinates assigned)
Cn1cc(C(=O)N2CC[C@]3(CCC(=O)[N-]3)C2)cn1 (nonaromatic ring conformer: 75.49034241903952 kcal/mol)

>  <smiles>  (27) 
Cn1cc(C(=O)N2CCC3(CCC(=O)N3)C2)cn1

>  <score_type>  (27) 
oracle

>  <origin>  (27) 
adg

>  <m_score__min__energy>  (27) 
-8.3900000000000006

>  <m_primary>  (27) 
energy

$$$$
27:0
     RDKit          3D

 40 42  0  0  0  0  0  0  0  0999 V2000
   -6.6260   15.4520  -34.0040 C   0  0  0  0  0  0  0  0  0  0  0  0
   -6.0410   16.7890  -34.0510 N   0  0  0  0  0  0  0  0  0  0  0  0
   -4.9030   17.1480  -34.6920 C   0  0  0  0  0  0  0  0  0  0  0  0
   -4.6580   18.5060  -34.5210 C   0  0  0  0  0  0  0  0  0  0  0  0
   -5.6990   18.9700  -33.7430 C   0  0  0  0  0  0  0  0  0  0  0  0
   -5.9660   20.2500  -33.2660 C   0  0  0  0  0  0  0  0  0  0  0  0
   -7.1370   20.4430  -32.4900 C   0  0  0  0  0  0  0  0  0  0  0  0
   -7.5150   21.6940  -31.9720 O   0  0  0  0  0  0  0  0  0  0  0  0
   -8.3610   21.9290  -30.8420 C   0  0  0  0  0  0  0  0  0  0  0  0
   -7.6010   22.6590  -29.7180 C   0  0  0  0  0  0  0  0  0  0  0  0
   -6.4110   23.4070  -30.1920 N   0  0  0  0  0  0  0  0  0  0  0  0
   -5.2180   23.1140  -29.3710 C   0  0  0  0  0  0  0  0  0  0  0  0
   -3.9890   23.8900  -29.9010 C   0  0  0  0  0  0  0  0  0  0  0  0
   -4.3410   24.8890  -30.8420 O   0  0  0  0  0  0  0  0  0  0  0  0
   -5.3870   25.6870  -30.3260 C   0  0  0  0  0  0  0  0  0  0  0  0
   -6.6820   24.8630  -30.1670 C   0  0  0  0  0  0  0  0  0  0  0  0
   -7.9740   19.3370  -32.2100 C   0  0  0  0  0  0  0  0  0  0  0  0
   -7.6730   18.0560  -32.7030 C   0  0  0  0  0  0  0  0  0  0  0  0
   -6.5210   17.9080  -33.4750 C   0  0  0  0  0  0  0  0  0  0  0  0
   -6.7595   15.1468  -32.9556 H   0  0  0  0  0  0  0  0  0  0  0  0
   -7.6024   15.4610  -34.5105 H   0  0  0  0  0  0  0  0  0  0  0  0
   -5.9568   14.7409  -34.5105 H   0  0  0  0  0  0  0  0  0  0  0  0
   -4.2631   16.4622  -35.2666 H   0  0  0  0  0  0  0  0  0  0  0  0
   -3.8138   19.0869  -34.9209 H   0  0  0  0  0  0  0  0  0  0  0  0
   -5.2879   21.0880  -33.4848 H   0  0  0  0  0  0  0  0  0  0  0  0
   -9.2159   22.5458  -31.1561 H   0  0  0  0  0  0  0  0  0  0  0  0
   -8.7039   20.9577  -30.4562 H   0  0  0  0  0  0  0  0  0  0  0  0
   -8.2896   23.3698  -29.2378 H   0  0  0  0  0  0  0  0  0  0  0  0
   -7.2401   21.8887  -29.0206 H   0  0  0  0  0  0  0  0  0  0  0  0
   -6.2150   23.1440  -31.1840 H   0  0  0  0  0  0  0  0  0  0  0  0
   -5.4129   23.4125  -28.3304 H   0  0  0  0  0  0  0  0  0  0  0  0
   -5.0068   22.0358  -29.4240 H   0  0  0  0  0  0  0  0  0  0  0  0
   -3.4815   24.3695  -29.0510 H   0  0  0  0  0  0  0  0  0  0  0  0
   -3.3330   23.1685  -30.4100 H   0  0  0  0  0  0  0  0  0  0  0  0
   -5.0881   26.0811  -29.3435 H   0  0  0  0  0  0  0  0  0  0  0  0
   -5.5793   26.5113  -31.0286 H   0  0  0  0  0  0  0  0  0  0  0  0
   -7.1535   25.1215  -29.2074 H   0  0  0  0  0  0  0  0  0  0  0  0
   -7.3468   25.1027  -31.0099 H   0  0  0  0  0  0  0  0  0  0  0  0
   -8.8752   19.4824  -31.5963 H   0  0  0  0  0  0  0  0  0  0  0  0
   -8.3254   17.1971  -32.4868 H   0  0  0  0  0  0  0  0  0  0  0  0
  1  2  1  0
  2  3  1  0
  3  4  2  0
  4  5  1  0
  5  6  2  0
  6  7  1  0
  7  8  1  0
  8  9  1  0
  9 10  1  0
 10 11  1  0
 11 12  1  0
 12 13  1  0
 13 14  1  0
 14 15  1  0
 15 16  1  0
  7 17  2  0
 17 18  1  0
 18 19  2  0
 19  2  1  0
 19  5  1  0
 16 11  1  0
  1 20  1  0
  1 21  1  0
  1 22  1  0
  3 23  1  0
  4 24  1  0
  6 25  1  0
  9 26  1  0
  9 27  1  0
 10 28  1  0
 10 29  1  0
 11 30  1  0
 12 31  1  0
 12 32  1  0
 13 33  1  0
 13 34  1  0
 15 35  1  0
 15 36  1  0
 16 37  1  0
 16 38  1  0
 17 39  1  0
 18 40  1  0
M  CHG  1  11   1
M  END
>  <UniqueID>  (28) 
28

>  <SMILES>  (28) 
Cn1ccc2cc(OCC[NH+]3CCOCC3)ccc21

>  <Energy>  (28) 
85.17281911633648

>  <Genealogy>  (28) 
Cn1ccc2cc(OCC[NH+]3CCOCC3)ccc21 (protonated)
Cn1ccc2cc(OCC[NH+]3CCOCC3)ccc21 (3D coordinates assigned)
Cn1ccc2cc(OCC[NH+]3CCOCC3)ccc21 (nonaromatic ring conformer: 85.17281911633648 kcal/mol)

>  <smiles>  (28) 
Cn1ccc2cc(OCCN3CCOCC3)ccc21

>  <score_type>  (28) 
oracle

>  <origin>  (28) 
adg

>  <m_score__min__energy>  (28) 
-6.1100000000000003

>  <m_primary>  (28) 
energy

$$$$
28:0
     RDKit          3D

 58 60  0  0  0  0  0  0  0  0999 V2000
   -6.4690   25.6570  -29.6690 C   0  0  0  0  0  0  0  0  0  0  0  0
   -5.4030   24.7000  -30.2290 C   0  0  0  0  0  0  0  0  0  0  0  0
   -5.0930   23.5170  -29.3770 N   0  0  0  0  0  0  0  0  0  0  0  0
   -4.1930   23.8440  -28.2350 C   0  0  0  0  0  0  0  0  0  0  0  0
   -2.7620   24.2140  -28.6190 C   0  0  0  0  0  0  0  0  0  0  0  0
   -4.7010   22.3160  -30.1630 C   0  0  0  0  0  0  0  0  0  0  0  0
   -3.8820   22.6560  -31.4230 C   0  0  0  0  0  0  0  0  0  0  0  0
   -4.6550   22.3710  -32.6340 N   0  0  0  0  0  0  0  0  0  0  0  0
   -5.5330   21.2380  -32.7210 C   0  0  0  0  0  0  0  0  0  0  0  0
   -5.0260   19.9810  -33.1010 C   0  0  0  0  0  0  0  0  0  0  0  0
   -5.8920   18.8600  -33.0860 C   0  0  0  0  0  0  0  0  0  0  0  0
   -7.1760   18.9840  -32.5900 N   0  0  0  0  0  0  0  0  0  0  0  0
   -7.9730   17.7780  -32.2870 C   0  0  0  0  0  0  0  0  0  0  0  0
   -7.7210   20.2360  -32.3950 C   0  0  0  0  0  0  0  0  0  0  0  0
   -6.9080   21.3800  -32.4800 C   0  0  0  0  0  0  0  0  0  0  0  0
   -7.5770   22.7300  -32.3370 C   0  0  0  0  0  0  0  0  0  0  0  0
   -8.4790   22.7120  -31.1000 C   0  0  0  0  0  0  0  0  0  0  0  0
   -9.4810   21.5330  -31.1070 C   0  0  0  0  0  0  0  0  0  0  0  0
   -9.2140   20.4730  -32.1930 C   0  0  0  0  0  0  0  0  0  0  0  0
   -5.3810   17.5360  -33.6190 C   0  0  0  0  0  0  0  0  0  0  0  0
   -4.3270   17.7450  -34.6970 C   0  0  0  0  0  0  0  0  0  0  0  0
   -3.1440   18.5090  -34.1090 C   0  0  0  0  0  0  0  0  0  0  0  0
   -3.5610   19.8620  -33.5100 C   0  0  0  0  0  0  0  0  0  0  0  0
   -6.4421   25.6329  -28.5696 H   0  0  0  0  0  0  0  0  0  0  0  0
   -6.2636   26.6796  -30.0185 H   0  0  0  0  0  0  0  0  0  0  0  0
   -7.4636   25.3429  -30.0185 H   0  0  0  0  0  0  0  0  0  0  0  0
   -5.7558   24.3326  -31.2040 H   0  0  0  0  0  0  0  0  0  0  0  0
   -4.4725   25.2838  -30.2860 H   0  0  0  0  0  0  0  0  0  0  0  0
   -6.0080   23.2710  -28.9250 H   0  0  0  0  0  0  0  0  0  0  0  0
   -4.6297   24.6942  -27.6904 H   0  0  0  0  0  0  0  0  0  0  0  0
   -4.1194   22.9266  -27.6325 H   0  0  0  0  0  0  0  0  0  0  0  0
   -2.1659   24.3681  -27.7074 H   0  0  0  0  0  0  0  0  0  0  0  0
   -2.3198   23.4007  -29.2131 H   0  0  0  0  0  0  0  0  0  0  0  0
   -2.7695   25.1397  -29.2131 H   0  0  0  0  0  0  0  0  0  0  0  0
   -4.0967   21.6592  -29.5199 H   0  0  0  0  0  0  0  0  0  0  0  0
   -5.6280   21.8275  -30.4976 H   0  0  0  0  0  0  0  0  0  0  0  0
   -3.6186   23.7239  -31.4055 H   0  0  0  0  0  0  0  0  0  0  0  0
   -2.9714   22.0390  -31.4307 H   0  0  0  0  0  0  0  0  0  0  0  0
   -4.5840   23.0210  -33.4480 H   0  0  0  0  0  0  0  0  0  0  0  0
   -8.0536   17.6561  -31.1967 H   0  0  0  0  0  0  0  0  0  0  0  0
   -8.9788   17.8850  -32.7193 H   0  0  0  0  0  0  0  0  0  0  0  0
   -7.4802   16.8947  -32.7193 H   0  0  0  0  0  0  0  0  0  0  0  0
   -6.8107   23.5109  -32.2231 H   0  0  0  0  0  0  0  0  0  0  0  0
   -8.1794   22.9425  -33.2326 H   0  0  0  0  0  0  0  0  0  0  0  0
   -7.8458   22.6301  -30.2042 H   0  0  0  0  0  0  0  0  0  0  0  0
   -9.0634   23.6439  -31.1021 H   0  0  0  0  0  0  0  0  0  0  0  0
   -9.4359   21.0381  -30.1256 H   0  0  0  0  0  0  0  0  0  0  0  0
  -10.4689   21.9638  -31.3270 H   0  0  0  0  0  0  0  0  0  0  0  0
   -9.6876   19.5269  -31.8918 H   0  0  0  0  0  0  0  0  0  0  0  0
   -9.6343   20.8399  -33.1410 H   0  0  0  0  0  0  0  0  0  0  0  0
   -4.9383   16.9630  -32.7910 H   0  0  0  0  0  0  0  0  0  0  0  0
   -6.2270   16.9893  -34.0611 H   0  0  0  0  0  0  0  0  0  0  0  0
   -3.9844   16.7683  -35.0694 H   0  0  0  0  0  0  0  0  0  0  0  0
   -4.7604   18.3219  -35.5273 H   0  0  0  0  0  0  0  0  0  0  0  0
   -2.6869   17.8976  -33.3170 H   0  0  0  0  0  0  0  0  0  0  0  0
   -2.4334   18.7076  -34.9249 H   0  0  0  0  0  0  0  0  0  0  0  0
   -2.9450   20.0402  -32.6162 H   0  0  0  0  0  0  0  0  0  0  0  0
   -3.4117   20.6027  -34.3095 H   0  0  0  0  0  0  0  0  0  0  0  0
  1  2  1  0
  2  3  1  0
  3  4  1  0
  4  5  1  0
  3  6  1  0
  6  7  1  0
  7  8  1  0
  8  9  1  0
  9 10  2  0
 10 11  1  0
 11 12  2  0
 12 13  1  0
 12 14  1  0
 14 15  2  0
 15 16  1  0
 16 17  1  0
 17 18  1  0
 18 19  1  0
 11 20  1  0
 20 21  1  0
 21 22  1  0
 22 23  1  0
 15  9  1  0
 23 10  1  0
 19 14  1  0
  1 24  1  0
  1 25  1  0
  1 26  1  0
  2 27  1  0
  2 28  1  0
  3 29  1  0
  4 30  1  0
  4 31  1  0
  5 32  1  0
  5 33  1  0
  5 34  1  0
  6 35  1  0
  6 36  1  0
  7 37  1  0
  7 38  1  0
  8 39  1  0
 13 40  1  0
 13 41  1  0
 13 42  1  0
 16 43  1  0
 16 44  1  0
 17 45  1  0
 17 46  1  0
 18 47  1  0
 18 48  1  0
 19 49  1  0
 19 50  1  0
 20 51  1  0
 20 52  1  0
 21 53  1  0
 21 54  1  0
 22 55  1  0
 22 56  1  0
 23 57  1  0
 23 58  1  0
M  CHG  2   3   1  12   1
M  END
>  <UniqueID>  (29) 
29

>  <SMILES>  (29) 
CC[NH+](CC)CCNc1c2c([n+](C)c3c1CCCC3)CCCC2

>  <Energy>  (29) 
87.58286055493286

>  <Genealogy>  (29) 
CC[NH+](CC)CCNc1c2c([n+](C)c3c1CCCC3)CCCC2 (protonated)
CC[NH+](CC)CCNc1c2c([n+](C)c3c1CCCC3)CCCC2 (3D coordinates assigned)
CC[NH+](CC)CCNc1c2c([n+](C)c3c1CCCC3)CCCC2 (nonaromatic ring conformer: 87.58286055493286 kcal/mol)

>  <smiles>  (29) 
CCN(CC)CCNc1c2c([n+](C)c3c1CCCC3)CCCC2

>  <score_type>  (29) 
oracle

>  <origin>  (29) 
adg

>  <m_score__min__energy>  (29) 
-7.2400000000000002

>  <m_primary>  (29) 
energy

$$$$
29:0
     RDKit          3D

 48 51  0  0  0  0  0  0  0  0999 V2000
   -5.6820   25.4930  -30.7000 C   0  0  0  0  0  0  0  0  0  0  0  0
   -4.2160   25.5170  -30.7390 N   0  0  0  0  0  0  0  0  0  0  0  0
   -3.6310   24.3930  -29.9950 C   0  0  0  0  0  0  0  0  0  0  0  0
   -3.5260   23.1830  -30.8250 C   0  0  0  0  0  0  0  0  0  0  0  0
   -3.4650   22.1830  -31.4950 C   0  0  0  0  0  0  0  0  0  0  0  0
   -3.4160   20.9640  -32.3110 C   0  0  0  0  0  0  0  0  0  0  0  0
   -4.4280   21.0030  -33.4680 C   0  0  0  0  0  0  0  0  0  0  0  0
   -5.8170   20.5860  -33.0480 C   0  0  0  0  0  0  0  0  0  0  0  0
   -6.3450   19.2890  -33.0030 C   0  0  0  0  0  0  0  0  0  0  0  0
   -5.6010   18.0470  -33.2970 C   0  0  0  0  0  0  0  0  0  0  0  0
   -4.9120   17.9150  -34.5250 C   0  0  0  0  0  0  0  0  0  0  0  0
   -4.1900   16.7470  -34.8200 C   0  0  0  0  0  0  0  0  0  0  0  0
   -4.1600   15.7180  -33.8770 C   0  0  0  0  0  0  0  0  0  0  0  0
   -3.4910   14.4960  -34.0060 C   0  0  0  0  0  0  0  0  0  0  0  0
   -3.6480   13.6770  -32.8880 C   0  0  0  0  0  0  0  0  0  0  0  0
   -4.6150   14.4730  -31.7500 S   0  0  0  0  0  0  0  0  0  0  0  0
   -4.8340   15.8540  -32.6750 C   0  0  0  0  0  0  0  0  0  0  0  0
   -5.5580   17.0000  -32.3580 C   0  0  0  0  0  0  0  0  0  0  0  0
   -7.6250   19.3160  -32.5470 N   0  0  0  0  0  0  0  0  0  0  0  0
   -8.5130   18.1710  -32.3350 C   0  0  0  0  0  0  0  0  0  0  0  0
   -7.8980   20.6070  -32.2650 C   0  0  0  0  0  0  0  0  0  0  0  0
   -9.0710   21.1360  -31.7170 C   0  0  0  0  0  0  0  0  0  0  0  0
   -9.1190   22.5190  -31.4670 C   0  0  0  0  0  0  0  0  0  0  0  0
   -8.0050   23.3350  -31.7520 C   0  0  0  0  0  0  0  0  0  0  0  0
   -6.8340   22.7790  -32.2940 C   0  0  0  0  0  0  0  0  0  0  0  0
   -6.8190   21.4060  -32.5530 C   0  0  0  0  0  0  0  0  0  0  0  0
   -6.0209   25.4875  -29.6535 H   0  0  0  0  0  0  0  0  0  0  0  0
   -6.0770   26.3848  -31.2086 H   0  0  0  0  0  0  0  0  0  0  0  0
   -6.0476   24.5887  -31.2086 H   0  0  0  0  0  0  0  0  0  0  0  0
   -3.8860   26.4190  -30.3220 H   0  0  0  0  0  0  0  0  0  0  0  0
   -2.6253   24.6779  -29.6524 H   0  0  0  0  0  0  0  0  0  0  0  0
   -4.2899   24.1671  -29.1437 H   0  0  0  0  0  0  0  0  0  0  0  0
   -2.4039   20.8566  -32.7282 H   0  0  0  0  0  0  0  0  0  0  0  0
   -3.6728   20.1121  -31.6642 H   0  0  0  0  0  0  0  0  0  0  0  0
   -4.4733   22.0297  -33.8602 H   0  0  0  0  0  0  0  0  0  0  0  0
   -4.0852   20.2882  -34.2306 H   0  0  0  0  0  0  0  0  0  0  0  0
   -4.9419   18.7357  -35.2568 H   0  0  0  0  0  0  0  0  0  0  0  0
   -3.6576   16.6448  -35.7771 H   0  0  0  0  0  0  0  0  0  0  0  0
   -2.9050   14.2121  -34.8926 H   0  0  0  0  0  0  0  0  0  0  0  0
   -3.2129   12.6742  -32.7656 H   0  0  0  0  0  0  0  0  0  0  0  0
   -6.0842   17.0850  -31.3958 H   0  0  0  0  0  0  0  0  0  0  0  0
   -8.6433   18.0030  -31.2558 H   0  0  0  0  0  0  0  0  0  0  0  0
   -9.4911   18.3754  -32.7950 H   0  0  0  0  0  0  0  0  0  0  0  0
   -8.0716   17.2746  -32.7950 H   0  0  0  0  0  0  0  0  0  0  0  0
   -9.9308   20.4892  -31.4883 H   0  0  0  0  0  0  0  0  0  0  0  0
  -10.0314   22.9670  -31.0465 H   0  0  0  0  0  0  0  0  0  0  0  0
   -8.0530   24.4149  -31.5485 H   0  0  0  0  0  0  0  0  0  0  0  0
   -5.9556   23.4056  -32.5080 H   0  0  0  0  0  0  0  0  0  0  0  0
  1  2  1  0
  2  3  1  0
  3  4  1  0
  4  5  3  0
  5  6  1  0
  6  7  1  0
  7  8  1  0
  8  9  2  0
  9 10  1  0
 10 11  2  0
 11 12  1  0
 12 13  2  0
 13 14  1  0
 14 15  2  0
 15 16  1  0
 16 17  1  0
 17 18  2  0
  9 19  1  0
 19 20  1  0
 19 21  1  0
 21 22  2  0
 22 23  1  0
 23 24  2  0
 24 25  1  0
 25 26  2  0
 26  8  1  0
 18 10  1  0
 26 21  1  0
 17 13  1  0
  1 27  1  0
  1 28  1  0
  1 29  1  0
  2 30  1  0
  3 31  1  0
  3 32  1  0
  6 33  1  0
  6 34  1  0
  7 35  1  0
  7 36  1  0
 11 37  1  0
 12 38  1  0
 14 39  1  0
 15 40  1  0
 18 41  1  0
 20 42  1  0
 20 43  1  0
 20 44  1  0
 22 45  1  0
 23 46  1  0
 24 47  1  0
 25 48  1  0
M  END
>  <UniqueID>  (30) 
30

>  <SMILES>  (30) 
CNCC#CCCc1c(-c2ccc3ccsc3c2)n(C)c2ccccc12

>  <Energy>  (30) 
111.93611781149681

>  <Genealogy>  (30) 
CNCC#CCCc1c(-c2ccc3ccsc3c2)n(C)c2ccccc12 (3D coordinates assigned)
CNCC#CCCc1c(-c2ccc3ccsc3c2)n(C)c2ccccc12 (optimized conformer: 111.93611781149681 kcal/mol)

>  <smiles>  (30) 
CNCC#CCCc1c(-c2ccc3ccsc3c2)n(C)c2ccccc12

>  <score_type>  (30) 
oracle

>  <origin>  (30) 
adg

>  <m_score__min__energy>  (30) 
-9.3200000000000003

>  <m_primary>  (30) 
energy

$$$$
