0:0
     RDKit          3D

 52 58  0  0  0  0  0  0  0  0999 V2000
   -2.8570   24.1570  -29.6780 C   0  0  0  0  0  0  0  0  0  0  0  0
   -3.8520   24.6140  -30.5880 O   0  0  0  0  0  0  0  0  0  0  0  0
   -5.0250   23.9090  -30.8850 C   0  0  0  0  0  0  0  0  0  0  0  0
   -6.3320   24.4100  -30.6070 C   0  0  0  0  0  0  0  0  0  0  0  0
   -7.4910   23.6850  -30.9990 C   0  0  0  0  0  0  0  0  0  0  0  0
   -7.3600   22.4220  -31.6070 C   0  0  0  0  0  0  0  0  0  0  0  0
   -6.0740   21.9590  -31.7830 C   0  0  0  0  0  0  0  0  0  0  0  0
   -4.9390   22.6670  -31.5140 C   0  0  0  0  0  0  0  0  0  0  0  0
   -3.8280   22.0180  -32.0780 O   0  0  0  0  0  0  0  0  0  0  0  0
   -4.3970   21.1070  -33.0310 C   0  0  1  0  0  0  0  0  0  0  0  0
   -3.7340   19.8670  -33.5280 C   0  0  0  0  0  0  0  0  0  0  0  0
   -4.5730   18.8920  -34.1730 C   0  0  0  0  0  0  0  0  0  0  0  0
   -3.9720   17.7290  -34.7160 C   0  0  0  0  0  0  0  0  0  0  0  0
   -2.5800   17.5290  -34.6330 C   0  0  0  0  0  0  0  0  0  0  0  0
   -1.8110   18.5070  -34.0060 C   0  0  0  0  0  0  0  0  0  0  0  0
   -0.4540   18.5860  -33.7960 C   0  0  0  0  0  0  0  0  0  0  0  0
   -0.2720   19.7960  -33.1340 C   0  0  0  0  0  0  0  0  0  0  0  0
   -1.4320   20.4050  -32.9590 O   0  0  0  0  0  0  0  0  0  0  0  0
   -2.3620   19.6400  -33.4770 C   0  0  0  0  0  0  0  0  0  0  0  0
   -6.1120   19.0700  -34.2770 C   0  0  0  0  0  0  0  0  0  0  0  0
   -6.6910   20.2870  -33.4650 C   0  0  1  0  0  0  0  0  0  0  0  0
   -8.0730   20.1850  -32.7400 C   0  0  2  0  0  0  0  0  0  0  0  0
   -8.4990   21.6430  -32.2700 C   0  0  0  0  0  0  0  0  0  0  0  0
   -8.0750   19.2480  -31.5580 N   0  0  1  0  0  0  0  0  0  0  0  0
   -9.0880   18.1920  -31.7360 C   0  0  0  0  0  0  0  0  0  0  0  0
   -6.7700   18.6270  -31.2190 C   0  0  0  0  0  0  0  0  0  0  0  0
   -5.6000   19.6270  -31.2390 C   0  0  0  0  0  0  0  0  0  0  0  0
   -5.7130   20.6930  -32.3890 C   0  0  2  0  0  0  0  0  0  0  0  0
   -3.2031   24.3160  -28.6460 H   0  0  0  0  0  0  0  0  0  0  0  0
   -2.6744   23.0848  -29.8424 H   0  0  0  0  0  0  0  0  0  0  0  0
   -1.9247   24.7171  -29.8424 H   0  0  0  0  0  0  0  0  0  0  0  0
   -6.4446   25.3702  -30.0823 H   0  0  0  0  0  0  0  0  0  0  0  0
   -8.4903   24.1113  -30.8270 H   0  0  0  0  0  0  0  0  0  0  0  0
   -4.3672   21.6888  -33.9641 H   0  0  0  0  0  0  0  0  0  0  0  0
   -4.6007   16.9727  -35.2087 H   0  0  0  0  0  0  0  0  0  0  0  0
   -2.1130   16.6254  -35.0518 H   0  0  0  0  0  0  0  0  0  0  0  0
    0.3155   17.8556  -34.0866 H   0  0  0  0  0  0  0  0  0  0  0  0
    0.7001   20.1903  -32.8029 H   0  0  0  0  0  0  0  0  0  0  0  0
   -6.3693   19.2122  -35.3370 H   0  0  0  0  0  0  0  0  0  0  0  0
   -6.5590   18.1649  -33.8399 H   0  0  0  0  0  0  0  0  0  0  0  0
   -6.8558   20.9975  -34.2884 H   0  0  0  0  0  0  0  0  0  0  0  0
   -8.7907   19.7633  -33.4591 H   0  0  0  0  0  0  0  0  0  0  0  0
   -8.8421   22.2072  -33.1498 H   0  0  0  0  0  0  0  0  0  0  0  0
   -9.2933   21.5241  -31.5184 H   0  0  0  0  0  0  0  0  0  0  0  0
   -8.3630   19.7710  -30.6960 H   0  0  0  0  0  0  0  0  0  0  0  0
   -9.4267   17.8390  -30.7508 H   0  0  0  0  0  0  0  0  0  0  0  0
   -9.9448   18.5963  -32.2950 H   0  0  0  0  0  0  0  0  0  0  0  0
   -8.6485   17.3528  -32.2950 H   0  0  0  0  0  0  0  0  0  0  0  0
   -6.8410   18.1919  -30.2112 H   0  0  0  0  0  0  0  0  0  0  0  0
   -6.5619   17.8646  -31.9841 H   0  0  0  0  0  0  0  0  0  0  0  0
   -5.5756   20.1552  -30.2744 H   0  0  0  0  0  0  0  0  0  0  0  0
   -4.6810   19.0498  -31.4188 H   0  0  0  0  0  0  0  0  0  0  0  0
  1  2  1  0
  2  3  1  0
  3  4  2  0
  4  5  1  0
  5  6  2  0
  6  7  1  0
  7  8  2  0
  8  9  1  0
  9 10  1  0
 10 11  1  0
 11 12  2  0
 12 13  1  0
 13 14  2  0
 14 15  1  0
 15 16  1  0
 16 17  2  0
 17 18  1  0
 18 19  1  0
 12 20  1  0
 20 21  1  0
 21 22  1  0
 22 23  1  0
 22 24  1  0
 24 25  1  0
 24 26  1  0
 26 27  1  0
 28 27  1  1
  8  3  1  0
 28 10  1  0
 23  6  1  0
 28  7  1  0
 19 11  1  0
 28 21  1  0
 19 15  2  0
  1 29  1  0
  1 30  1  0
  1 31  1  0
  4 32  1  0
  5 33  1  0
 10 34  1  6
 13 35  1  0
 14 36  1  0
 16 37  1  0
 17 38  1  0
 20 39  1  0
 20 40  1  0
 21 41  1  6
 22 42  1  6
 23 43  1  0
 23 44  1  0
 24 45  1  1
 25 46  1  0
 25 47  1  0
 25 48  1  0
 26 49  1  0
 26 50  1  0
 27 51  1  0
 27 52  1  0
M  CHG  1  24   1
M  END
>  <UniqueID>  (1) 
1

>  <SMILES>  (1) 
COc1ccc2c3c1O[C@H]1c4c(ccc5ccoc45)C[C@H]4C(C2)[NH+](C)CCC314

>  <Energy>  (1) 
175.7487392750192

>  <Genealogy>  (1) 
COc1ccc2c3c1OC1c4c(ccc5ccoc45)CC4C(C2)[NH+](C)CCC314 (protonated)
COc1ccc2c3c1O[C@H]1c4c(ccc5ccoc45)C[C@H]4C(C2)[NH+](C)CCC314 (chirality)
COc1ccc2c3c1O[C@H]1c4c(ccc5ccoc45)C[C@H]4C(C2)[NH+](C)CCC314 (3D coordinates assigned)
COc1ccc2c3c1O[C@H]1c4c(ccc5ccoc45)C[C@H]4C(C2)[NH+](C)CCC314 (nonaromatic ring conformer: 175.7487392750192 kcal/mol)

>  <smiles>  (1) 
COc1ccc2c3c1OC1c4c(ccc5ccoc45)CC4C(C2)N(C)CCC314

>  <score_type>  (1) 
oracle

>  <origin>  (1) 
adg

>  <m_score__min__energy>  (1) 
-9.2100000000000009

>  <m_primary>  (1) 
energy

$$$$
1:0
     RDKit          3D

 38 41  0  0  0  0  0  0  0  0999 V2000
   -8.1189   24.6310  -30.5637 H   0  0  0  0  0  0  0  0  0  0  0  0
   -7.1560   24.1640  -30.8180 C   0  0  0  0  0  0  0  0  0  0  0  0
   -7.1300   22.9290  -31.4730 C   0  0  0  0  0  0  0  0  0  0  0  0
   -8.0723   22.4209  -31.7259 H   0  0  0  0  0  0  0  0  0  0  0  0
   -5.9060   22.3390  -31.8070 C   0  0  0  0  0  0  0  0  0  0  0  0
   -5.8690   20.6590  -32.7140 Br  0  0  0  0  0  0  0  0  0  0  0  0
   -4.7080   22.9830  -31.4780 C   0  0  0  0  0  0  0  0  0  0  0  0
   -3.7459   22.5318  -31.7624 H   0  0  0  0  0  0  0  0  0  0  0  0
   -4.7320   24.2050  -30.7850 C   0  0  0  0  0  0  0  0  0  0  0  0
   -3.5130   24.8950  -30.4870 N   0  0  0  0  0  0  0  0  0  0  0  0
   -2.7230   24.6840  -29.4750 C   0  0  0  0  0  0  0  0  0  0  0  0
   -1.9680   25.6700  -28.9380 N   0  0  0  0  0  0  0  0  0  0  0  0
   -1.2580   25.1500  -27.9450 N   0  0  0  0  0  0  0  0  0  0  0  0
   -0.3660   25.9350  -27.0950 C   0  0  0  0  0  0  0  0  0  0  0  0
   -0.0755   26.8540  -27.6251 H   0  0  0  0  0  0  0  0  0  0  0  0
    0.5264   25.3352  -26.8631 H   0  0  0  0  0  0  0  0  0  0  0  0
   -1.0660   26.3060  -25.7920 C   0  0  0  0  0  0  0  0  0  0  0  0
   -0.4513   25.9802  -24.9399 H   0  0  0  0  0  0  0  0  0  0  0  0
   -1.2052   27.3963  -25.7481 H   0  0  0  0  0  0  0  0  0  0  0  0
   -2.0464   25.8091  -25.7481 H   0  0  0  0  0  0  0  0  0  0  0  0
   -1.5730   23.8440  -27.8190 C   0  0  0  0  0  0  0  0  0  0  0  0
   -1.1130   22.9310  -26.8670 C   0  0  0  0  0  0  0  0  0  0  0  0
   -0.3596   23.2223  -26.1203 H   0  0  0  0  0  0  0  0  0  0  0  0
   -1.6430   21.6260  -26.8920 C   0  0  0  0  0  0  0  0  0  0  0  0
   -1.2130   20.6660  -25.9630 C   0  0  0  0  0  0  0  0  0  0  0  0
   -0.4460   20.9278  -25.2192 H   0  0  0  0  0  0  0  0  0  0  0  0
   -1.7560   19.3790  -25.9800 C   0  0  0  0  0  0  0  0  0  0  0  0
   -1.4136   18.6313  -25.2495 H   0  0  0  0  0  0  0  0  0  0  0  0
   -2.7320   19.0360  -26.9200 C   0  0  0  0  0  0  0  0  0  0  0  0
   -3.1532   18.0199  -26.9260 H   0  0  0  0  0  0  0  0  0  0  0  0
   -3.1750   19.9780  -27.8520 C   0  0  0  0  0  0  0  0  0  0  0  0
   -3.9461   19.7017  -28.5862 H   0  0  0  0  0  0  0  0  0  0  0  0
   -2.6400   21.2750  -27.8550 C   0  0  0  0  0  0  0  0  0  0  0  0
   -3.0880   22.2300  -28.7920 C   0  0  0  0  0  0  0  0  0  0  0  0
   -3.8724   21.9816  -29.5221 H   0  0  0  0  0  0  0  0  0  0  0  0
   -2.5060   23.5020  -28.7660 C   0  0  0  0  0  0  0  0  0  0  0  0
   -5.9590   24.8060  -30.4860 C   0  0  0  0  0  0  0  0  0  0  0  0
   -5.9824   25.7866  -29.9882 H   0  0  0  0  0  0  0  0  0  0  0  0
  1  2  1  0
  2  3  2  0
  3  4  1  0
  3  5  1  0
  5  6  1  0
  5  7  2  0
  7  8  1  0
  7  9  1  0
  9 10  1  0
 10 11  2  0
 11 12  1  0
 12 13  1  0
 13 14  1  0
 14 15  1  0
 14 16  1  0
 14 17  1  0
 17 18  1  0
 17 19  1  0
 17 20  1  0
 13 21  1  0
 21 22  2  0
 22 23  1  0
 22 24  1  0
 24 25  2  0
 25 26  1  0
 25 27  1  0
 27 28  1  0
 27 29  2  0
 29 30  1  0
 29 31  1  0
 31 32  1  0
 31 33  2  0
 33 34  1  0
 34 35  1  0
 34 36  2  0
  9 37  2  0
 37 38  1  0
 37  2  1  0
 36 11  1  0
 36 21  1  0
 33 24  1  0
M  CHG  1  12  -1
M  END
>  <UniqueID>  (2) 
2

>  <SMILES>  (2) 
CCn1[n-]/c(=N/c2cccc(Br)c2)c2cc3ccccc3cc21

>  <Energy>  (2) 
92.13539867244594

>  <Genealogy>  (2) 
CCn1[n-]c(=Nc2cccc(Br)c2)c2cc3ccccc3cc21 (protonated)
CCn1[n-]/c(=N/c2cccc(Br)c2)c2cc3ccccc3cc21 (cis-trans isomerization)
CCn1[n-]/c(=N/c2cccc(Br)c2)c2cc3ccccc3cc21 (3D coordinates assigned)
CCn1[n-]/c(=N/c2cccc(Br)c2)c2cc3ccccc3cc21 (optimized conformer: 92.13539867244594 kcal/mol)

>  <smiles>  (2) 
CCn1[nH]c(=Nc2cccc(Br)c2)c2cc3ccccc3cc21

>  <score_type>  (2) 
oracle

>  <origin>  (2) 
adg

>  <m_score__min__energy>  (2) 
-10.06

>  <m_primary>  (2) 
energy

$$$$
2:0
     RDKit          3D

 54 56  0  0  0  0  0  0  0  0999 V2000
   -2.2780   24.6670  -28.2970 C   0  0  0  0  0  0  0  0  0  0  0  0
   -2.9560   25.2850  -29.3860 O   0  0  0  0  0  0  0  0  0  0  0  0
   -4.0900   24.7540  -30.0160 C   0  0  0  0  0  0  0  0  0  0  0  0
   -3.9290   23.6430  -30.8520 C   0  0  0  0  0  0  0  0  0  0  0  0
   -5.0310   23.0670  -31.4910 C   0  0  0  0  0  0  0  0  0  0  0  0
   -6.3180   23.5870  -31.2920 C   0  0  0  0  0  0  0  0  0  0  0  0
   -7.4590   22.9690  -31.9990 C   0  0  0  0  0  0  0  0  0  0  0  0
   -7.7230   21.6520  -32.0000 C   0  0  0  0  0  0  0  0  0  0  0  0
   -9.1320   20.8810  -31.1770 S   0  0  0  0  0  0  0  0  0  0  0  0
   -8.4990   19.2900  -31.7160 C   0  0  0  0  0  0  0  0  0  0  0  0
   -9.1290   18.2200  -31.5110 O   0  0  0  0  0  0  0  0  0  0  0  0
   -7.2530   19.3180  -32.4070 N   0  0  0  0  0  0  0  0  0  0  0  0
   -6.6170   18.1510  -33.0210 C   0  0  0  0  0  0  0  0  0  0  0  0
   -5.9920   18.5330  -34.3630 C   0  0  0  0  0  0  0  0  0  0  0  0
   -4.4970   18.4540  -34.2840 C   0  0  0  0  0  0  0  0  0  0  0  0
   -3.9140   17.3820  -34.6040 O   0  0  0  0  0  0  0  0  0  0  0  0
   -3.7360   19.5990  -33.8840 N   0  0  0  0  0  0  0  0  0  0  0  0
   -2.2730   19.5720  -33.8570 C   0  0  0  0  0  0  0  0  0  0  0  0
   -1.7110   20.9510  -33.4570 C   0  0  0  0  0  0  0  0  0  0  0  0
   -1.7460   21.2330  -32.0040 N   0  0  0  0  0  0  0  0  0  0  0  0
   -2.6680   20.3740  -31.2420 C   0  0  0  0  0  0  0  0  0  0  0  0
   -2.7940   20.9040  -29.7970 C   0  0  0  0  0  0  0  0  0  0  0  0
   -1.8030   21.8690  -29.4800 O   0  0  0  0  0  0  0  0  0  0  0  0
   -0.5250   21.3920  -29.8490 C   0  0  0  0  0  0  0  0  0  0  0  0
   -0.4080   21.2750  -31.3820 C   0  0  0  0  0  0  0  0  0  0  0  0
   -6.8220   20.6590  -32.5870 C   0  0  0  0  0  0  0  0  0  0  0  0
   -5.7630   20.9520  -33.2040 O   0  0  0  0  0  0  0  0  0  0  0  0
   -6.4780   24.7270  -30.4850 C   0  0  0  0  0  0  0  0  0  0  0  0
   -5.3760   25.2990  -29.8420 C   0  0  0  0  0  0  0  0  0  0  0  0
   -2.6896   25.0422  -27.3484 H   0  0  0  0  0  0  0  0  0  0  0  0
   -2.4154   23.5769  -28.3507 H   0  0  0  0  0  0  0  0  0  0  0  0
   -1.2053   24.9045  -28.3507 H   0  0  0  0  0  0  0  0  0  0  0  0
   -2.9260   23.2191  -31.0077 H   0  0  0  0  0  0  0  0  0  0  0  0
   -4.8877   22.2008  -32.1537 H   0  0  0  0  0  0  0  0  0  0  0  0
   -8.1356   23.6300  -32.5605 H   0  0  0  0  0  0  0  0  0  0  0  0
   -5.8325   17.7703  -32.3504 H   0  0  0  0  0  0  0  0  0  0  0  0
   -7.3783   17.3749  -33.1885 H   0  0  0  0  0  0  0  0  0  0  0  0
   -6.3510   17.8420  -35.1399 H   0  0  0  0  0  0  0  0  0  0  0  0
   -6.2824   19.5645  -34.6114 H   0  0  0  0  0  0  0  0  0  0  0  0
   -4.2480   20.4650  -33.6010 H   0  0  0  0  0  0  0  0  0  0  0  0
   -1.9389   18.8201  -33.1269 H   0  0  0  0  0  0  0  0  0  0  0  0
   -1.9048   19.3174  -34.8618 H   0  0  0  0  0  0  0  0  0  0  0  0
   -0.6646   21.0053  -33.7919 H   0  0  0  0  0  0  0  0  0  0  0  0
   -2.3569   21.7017  -33.9359 H   0  0  0  0  0  0  0  0  0  0  0  0
   -3.6575   20.3820  -31.7225 H   0  0  0  0  0  0  0  0  0  0  0  0
   -2.2772   19.3460  -31.2215 H   0  0  0  0  0  0  0  0  0  0  0  0
   -3.7855   21.3648  -29.6762 H   0  0  0  0  0  0  0  0  0  0  0  0
   -2.6569   20.0506  -29.1166 H   0  0  0  0  0  0  0  0  0  0  0  0
    0.2411   22.0902  -29.4807 H   0  0  0  0  0  0  0  0  0  0  0  0
   -0.3782   20.3958  -29.4063 H   0  0  0  0  0  0  0  0  0  0  0  0
    0.1437   22.1441  -31.7697 H   0  0  0  0  0  0  0  0  0  0  0  0
    0.1259   20.3449  -31.6267 H   0  0  0  0  0  0  0  0  0  0  0  0
   -7.4762   25.1717  -30.3587 H   0  0  0  0  0  0  0  0  0  0  0  0
   -5.5148   26.1792  -29.1970 H   0  0  0  0  0  0  0  0  0  0  0  0
  1  2  1  0
  2  3  1  0
  3  4  2  0
  4  5  1  0
  5  6  2  0
  6  7  1  0
  7  8  2  3
  8  9  1  0
  9 10  1  0
 10 11  2  0
 10 12  1  0
 12 13  1  0
 13 14  1  0
 14 15  1  0
 15 16  2  0
 15 17  1  0
 17 18  1  0
 18 19  1  0
 19 20  1  0
 20 21  1  0
 21 22  1  0
 22 23  1  0
 23 24  1  0
 24 25  1  0
 12 26  1  0
 26 27  2  0
  6 28  1  0
 28 29  2  0
 29  3  1  0
 26  8  1  0
 25 20  1  0
  1 30  1  0
  1 31  1  0
  1 32  1  0
  4 33  1  0
  5 34  1  0
  7 35  1  0
 13 36  1  0
 13 37  1  0
 14 38  1  0
 14 39  1  0
 17 40  1  0
 18 41  1  0
 18 42  1  0
 19 43  1  0
 19 44  1  0
 21 45  1  0
 21 46  1  0
 22 47  1  0
 22 48  1  0
 24 49  1  0
 24 50  1  0
 25 51  1  0
 25 52  1  0
 28 53  1  0
 29 54  1  0
M  END
>  <UniqueID>  (3) 
3

>  <SMILES>  (3) 
COc1ccc(C=C2SC(=O)N(CCC(=O)NCCN3CCOCC3)C2=O)cc1

>  <Energy>  (3) 
83.72017511609434

>  <Genealogy>  (3) 
COc1ccc(C=C2SC(=O)N(CCC(=O)NCCN3CCOCC3)C2=O)cc1 (3D coordinates assigned)
COc1ccc(C=C2SC(=O)N(CCC(=O)NCCN3CCOCC3)C2=O)cc1 (nonaromatic ring conformer: 83.72017511609434 kcal/mol)

>  <smiles>  (3) 
COc1ccc(C=C2SC(=O)N(CCC(=O)NCCN3CCOCC3)C2=O)cc1

>  <score_type>  (3) 
oracle

>  <origin>  (3) 
adg

>  <m_score__min__energy>  (3) 
-9.1600000000000001

>  <m_primary>  (3) 
energy

$$$$
3:0
     RDKit          3D

 52 55  0  0  0  0  0  0  0  0999 V2000
   -0.9250   26.3860  -24.4240 C   0  0  0  0  0  0  0  0  0  0  0  0
   -2.1180   26.3930  -25.2010 O   0  0  0  0  0  0  0  0  0  0  0  0
   -2.3290   25.5920  -26.3330 C   0  0  0  0  0  0  0  0  0  0  0  0
   -3.5380   24.9050  -26.5600 C   0  0  0  0  0  0  0  0  0  0  0  0
   -3.6970   24.1210  -27.7070 C   0  0  0  0  0  0  0  0  0  0  0  0
   -2.6550   24.0070  -28.6410 C   0  0  0  0  0  0  0  0  0  0  0  0
   -2.8430   23.1760  -29.8800 C   0  0  0  0  0  0  0  0  0  0  0  0
   -4.2410   23.2030  -30.3010 N   0  0  0  0  0  0  0  0  0  0  0  0
   -4.8900   24.4030  -30.7480 C   0  0  0  0  0  0  0  0  0  0  0  0
   -4.2410   25.4800  -30.8430 O   0  0  0  0  0  0  0  0  0  0  0  0
   -6.3350   24.3730  -31.1410 C   0  0  0  0  0  0  0  0  0  0  0  0
   -7.1330   23.4870  -30.1830 C   0  0  0  0  0  0  0  0  0  0  0  0
   -7.7180   22.3190  -30.9130 C   0  0  0  0  0  0  0  0  0  0  0  0
   -9.0340   21.9980  -30.9230 N   0  0  0  0  0  0  0  0  0  0  0  0
   -9.1850   20.9450  -31.7280 N   0  0  0  0  0  0  0  0  0  0  0  0
   -7.9570   20.6550  -32.1970 C   0  0  0  0  0  0  0  0  0  0  0  0
   -7.5980   19.6470  -33.0790 C   0  0  0  0  0  0  0  0  0  0  0  0
   -6.2390   19.5580  -33.4250 C   0  0  0  0  0  0  0  0  0  0  0  0
   -5.3030   20.4800  -32.8850 C   0  0  0  0  0  0  0  0  0  0  0  0
   -3.9030   20.4130  -33.2180 N   0  0  0  0  0  0  0  0  0  0  0  0
   -3.0050   21.5440  -33.0650 C   0  0  0  0  0  0  0  0  0  0  0  0
   -1.6080   21.0030  -33.3480 C   0  0  0  0  0  0  0  0  0  0  0  0
   -1.8130   19.6710  -34.0640 C   0  0  0  0  0  0  0  0  0  0  0  0
   -3.2310   19.2290  -33.7290 C   0  0  0  0  0  0  0  0  0  0  0  0
   -5.7470   21.4430  -32.0220 N   0  0  0  0  0  0  0  0  0  0  0  0
   -7.0400   21.4890  -31.7160 N   0  0  0  0  0  0  0  0  0  0  0  0
   -1.4530   24.6950  -28.4160 C   0  0  0  0  0  0  0  0  0  0  0  0
   -1.2940   25.4790  -27.2690 C   0  0  0  0  0  0  0  0  0  0  0  0
   -1.1837   26.3875  -23.3549 H   0  0  0  0  0  0  0  0  0  0  0  0
   -0.3400   25.4844  -24.6584 H   0  0  0  0  0  0  0  0  0  0  0  0
   -0.3295   27.2807  -24.6584 H   0  0  0  0  0  0  0  0  0  0  0  0
   -4.3593   24.9856  -25.8327 H   0  0  0  0  0  0  0  0  0  0  0  0
   -4.6449   23.5900  -27.8786 H   0  0  0  0  0  0  0  0  0  0  0  0
   -2.2133   23.5795  -30.6866 H   0  0  0  0  0  0  0  0  0  0  0  0
   -2.5552   22.1371  -29.6612 H   0  0  0  0  0  0  0  0  0  0  0  0
   -4.7840   22.3100  -30.2830 H   0  0  0  0  0  0  0  0  0  0  0  0
   -6.7397   25.3954  -31.1103 H   0  0  0  0  0  0  0  0  0  0  0  0
   -6.4184   23.9622  -32.1580 H   0  0  0  0  0  0  0  0  0  0  0  0
   -6.4661   23.1203  -29.3888 H   0  0  0  0  0  0  0  0  0  0  0  0
   -7.9508   24.0802  -29.7479 H   0  0  0  0  0  0  0  0  0  0  0  0
   -8.3429   18.9491  -33.4890 H   0  0  0  0  0  0  0  0  0  0  0  0
   -5.8991   18.7723  -34.1158 H   0  0  0  0  0  0  0  0  0  0  0  0
   -3.2617   22.3373  -33.7825 H   0  0  0  0  0  0  0  0  0  0  0  0
   -3.0739   21.9839  -32.0591 H   0  0  0  0  0  0  0  0  0  0  0  0
   -1.0502   21.7007  -33.9899 H   0  0  0  0  0  0  0  0  0  0  0  0
   -1.0275   20.8788  -32.4219 H   0  0  0  0  0  0  0  0  0  0  0  0
   -1.6992   19.7995  -35.1505 H   0  0  0  0  0  0  0  0  0  0  0  0
   -1.0717   18.9235  -33.7449 H   0  0  0  0  0  0  0  0  0  0  0  0
   -3.7402   18.8584  -34.6309 H   0  0  0  0  0  0  0  0  0  0  0  0
   -3.2377   18.4101  -32.9945 H   0  0  0  0  0  0  0  0  0  0  0  0
   -0.6326   24.6174  -29.1446 H   0  0  0  0  0  0  0  0  0  0  0  0
   -0.3466   26.0120  -27.1006 H   0  0  0  0  0  0  0  0  0  0  0  0
  1  2  1  0
  2  3  1  0
  3  4  2  0
  4  5  1  0
  5  6  2  0
  6  7  1  0
  7  8  1  0
  8  9  1  0
  9 10  2  0
  9 11  1  0
 11 12  1  0
 12 13  1  0
 13 14  2  0
 14 15  1  0
 15 16  2  0
 16 17  1  0
 17 18  2  0
 18 19  1  0
 19 20  1  0
 20 21  1  0
 21 22  1  0
 22 23  1  0
 23 24  1  0
 19 25  2  0
 25 26  1  0
  6 27  1  0
 27 28  2  0
 28  3  1  0
 26 13  1  0
 26 16  1  0
 24 20  1  0
  1 29  1  0
  1 30  1  0
  1 31  1  0
  4 32  1  0
  5 33  1  0
  7 34  1  0
  7 35  1  0
  8 36  1  0
 11 37  1  0
 11 38  1  0
 12 39  1  0
 12 40  1  0
 17 41  1  0
 18 42  1  0
 21 43  1  0
 21 44  1  0
 22 45  1  0
 22 46  1  0
 23 47  1  0
 23 48  1  0
 24 49  1  0
 24 50  1  0
 27 51  1  0
 28 52  1  0
M  END
>  <UniqueID>  (4) 
4

>  <SMILES>  (4) 
COc1ccc(CNC(=O)CCc2nnc3ccc(N4CCCC4)nn23)cc1

>  <Energy>  (4) 
89.56530490342767

>  <Genealogy>  (4) 
COc1ccc(CNC(=O)CCc2nnc3ccc(N4CCCC4)nn23)cc1 (3D coordinates assigned)
COc1ccc(CNC(=O)CCc2nnc3ccc(N4CCCC4)nn23)cc1 (nonaromatic ring conformer: 89.56530490342767 kcal/mol)

>  <smiles>  (4) 
COc1ccc(CNC(=O)CCc2nnc3ccc(N4CCCC4)nn23)cc1

>  <score_type>  (4) 
oracle

>  <origin>  (4) 
adg

>  <m_score__min__energy>  (4) 
-9.1500000000000004

>  <m_primary>  (4) 
energy

$$$$
4:0
     RDKit          3D

 60 62  0  0  0  0  0  0  0  0999 V2000
   -3.3670   18.5180  -34.2020 C   0  0  0  0  0  0  0  0  0  0  0  0
   -4.3440   17.3710  -34.1750 C   0  0  0  0  0  0  0  0  0  0  0  0
   -3.8000   16.0810  -34.3230 C   0  0  0  0  0  0  0  0  0  0  0  0
   -4.6080   14.9500  -34.2710 C   0  0  0  0  0  0  0  0  0  0  0  0
   -5.9780   15.0840  -34.0860 C   0  0  0  0  0  0  0  0  0  0  0  0
   -6.5460   16.3500  -33.9550 C   0  0  0  0  0  0  0  0  0  0  0  0
   -5.7600   17.5190  -34.0240 C   0  0  0  0  0  0  0  0  0  0  0  0
   -6.4580   18.8570  -33.7780 C   0  0  0  0  0  0  0  0  0  0  0  0
   -6.5770   19.2900  -32.3580 N   0  0  0  0  0  0  0  0  0  0  0  0
   -5.3180   19.3390  -31.5930 C   0  0  0  0  0  0  0  0  0  0  0  0
   -4.7990   20.7790  -31.3970 C   0  0  0  0  0  0  0  0  0  0  0  0
   -5.3680   21.6970  -32.4050 N   0  0  0  0  0  0  0  0  0  0  0  0
   -4.7420   23.0370  -32.3210 C   0  0  0  0  0  0  0  0  0  0  0  0
   -4.5630   23.4240  -30.8760 C   0  0  0  0  0  0  0  0  0  0  0  0
   -3.3660   23.1670  -30.2910 N   0  0  0  0  0  0  0  0  0  0  0  0
   -3.0970   23.4950  -29.0020 C   0  0  0  0  0  0  0  0  0  0  0  0
   -1.7300   23.2090  -28.4530 C   0  0  0  0  0  0  0  0  0  0  0  0
   -4.0950   24.1270  -28.2370 C   0  0  0  0  0  0  0  0  0  0  0  0
   -3.8470   24.5250  -26.8060 C   0  0  0  0  0  0  0  0  0  0  0  0
   -5.3060   24.3810  -28.8120 N   0  0  0  0  0  0  0  0  0  0  0  0
   -5.5660   24.0680  -30.1150 C   0  0  0  0  0  0  0  0  0  0  0  0
   -6.9110   24.4110  -30.7010 C   0  0  0  0  0  0  0  0  0  0  0  0
   -6.8420   21.7830  -32.2840 C   0  0  0  0  0  0  0  0  0  0  0  0
   -7.4850   20.4040  -31.9970 C   0  0  1  0  0  0  0  0  0  0  0  0
   -8.9140   20.2330  -32.5660 C   0  0  0  0  0  0  0  0  0  0  0  0
   -9.4870   18.8270  -32.3410 C   0  0  0  0  0  0  0  0  0  0  0  0
   -8.8390   18.1900  -31.2720 O   0  0  0  0  0  0  0  0  0  0  0  0
   -3.1172   18.8112  -33.1716 H   0  0  0  0  0  0  0  0  0  0  0  0
   -2.4516   18.2076  -34.7270 H   0  0  0  0  0  0  0  0  0  0  0  0
   -3.8190   19.3724  -34.7270 H   0  0  0  0  0  0  0  0  0  0  0  0
   -2.7178   15.9655  -34.4824 H   0  0  0  0  0  0  0  0  0  0  0  0
   -4.1622   13.9499  -34.3763 H   0  0  0  0  0  0  0  0  0  0  0  0
   -6.6161   14.1890  -34.0428 H   0  0  0  0  0  0  0  0  0  0  0  0
   -7.6305   16.4393  -33.7944 H   0  0  0  0  0  0  0  0  0  0  0  0
   -5.8953   19.6325  -34.3184 H   0  0  0  0  0  0  0  0  0  0  0  0
   -7.4912   18.7167  -34.1285 H   0  0  0  0  0  0  0  0  0  0  0  0
   -5.4887   18.8883  -30.6042 H   0  0  0  0  0  0  0  0  0  0  0  0
   -4.5585   18.7859  -32.1651 H   0  0  0  0  0  0  0  0  0  0  0  0
   -5.0828   21.1286  -30.3934 H   0  0  0  0  0  0  0  0  0  0  0  0
   -3.7051   20.7722  -31.5121 H   0  0  0  0  0  0  0  0  0  0  0  0
   -3.7608   23.0140  -32.8177 H   0  0  0  0  0  0  0  0  0  0  0  0
   -5.3903   23.7738  -32.8179 H   0  0  0  0  0  0  0  0  0  0  0  0
   -1.7674   23.2168  -27.3537 H   0  0  0  0  0  0  0  0  0  0  0  0
   -1.3942   22.2212  -28.8015 H   0  0  0  0  0  0  0  0  0  0  0  0
   -1.0264   23.9794  -28.8015 H   0  0  0  0  0  0  0  0  0  0  0  0
   -4.3078   23.7855  -26.1346 H   0  0  0  0  0  0  0  0  0  0  0  0
   -2.7637   24.5651  -26.6190 H   0  0  0  0  0  0  0  0  0  0  0  0
   -4.2883   25.5151  -26.6190 H   0  0  0  0  0  0  0  0  0  0  0  0
   -6.0480   24.8480  -28.2440 H   0  0  0  0  0  0  0  0  0  0  0  0
   -7.6292   24.5941  -29.8882 H   0  0  0  0  0  0  0  0  0  0  0  0
   -6.8210   25.3149  -31.3213 H   0  0  0  0  0  0  0  0  0  0  0  0
   -7.2648   23.5743  -31.3213 H   0  0  0  0  0  0  0  0  0  0  0  0
   -7.0908   22.4685  -31.4605 H   0  0  0  0  0  0  0  0  0  0  0  0
   -7.2395   22.1489  -33.2422 H   0  0  0  0  0  0  0  0  0  0  0  0
   -7.6282   20.3652  -30.9071 H   0  0  0  0  0  0  0  0  0  0  0  0
   -9.5754   20.9631  -32.0767 H   0  0  0  0  0  0  0  0  0  0  0  0
   -8.8559   20.3937  -33.6527 H   0  0  0  0  0  0  0  0  0  0  0  0
  -10.5607   18.9070  -32.1158 H   0  0  0  0  0  0  0  0  0  0  0  0
   -9.3303   18.2323  -33.2530 H   0  0  0  0  0  0  0  0  0  0  0  0
   -7.8920   18.0620  -31.5410 H   0  0  0  0  0  0  0  0  0  0  0  0
  1  2  1  0
  2  3  2  0
  3  4  1  0
  4  5  2  0
  5  6  1  0
  6  7  2  0
  7  8  1  0
  8  9  1  0
  9 10  1  0
 10 11  1  0
 11 12  1  0
 12 13  1  0
 13 14  1  0
 14 15  2  0
 15 16  1  0
 16 17  1  0
 16 18  2  0
 18 19  1  0
 18 20  1  0
 20 21  2  0
 21 22  1  0
 12 23  1  0
 23 24  1  0
 24 25  1  0
 25 26  1  0
 26 27  1  0
  7  2  1  0
 24  9  1  0
 21 14  1  0
  1 28  1  0
  1 29  1  0
  1 30  1  0
  3 31  1  0
  4 32  1  0
  5 33  1  0
  6 34  1  0
  8 35  1  0
  8 36  1  0
 10 37  1  0
 10 38  1  0
 11 39  1  0
 11 40  1  0
 13 41  1  0
 13 42  1  0
 17 43  1  0
 17 44  1  0
 17 45  1  0
 19 46  1  0
 19 47  1  0
 19 48  1  0
 20 49  1  0
 22 50  1  0
 22 51  1  0
 22 52  1  0
 23 53  1  0
 23 54  1  0
 24 55  1  1
 25 56  1  0
 25 57  1  0
 26 58  1  0
 26 59  1  0
 27 60  1  0
M  CHG  1  20   1
M  END
>  <UniqueID>  (5) 
5

>  <SMILES>  (5) 
Cc1ccccc1CN1CCN(Cc2nc(C)c(C)[nH+]c2C)C[C@H]1CCO

>  <Energy>  (5) 
79.85149204193175

>  <Genealogy>  (5) 
Cc1ccccc1CN1CCN(Cc2nc(C)c(C)[nH+]c2C)CC1CCO (protonated)
Cc1ccccc1CN1CCN(Cc2nc(C)c(C)[nH+]c2C)C[C@H]1CCO (chirality)
Cc1ccccc1CN1CCN(Cc2nc(C)c(C)[nH+]c2C)C[C@H]1CCO (3D coordinates assigned)
Cc1ccccc1CN1CCN(Cc2nc(C)c(C)[nH+]c2C)C[C@H]1CCO (nonaromatic ring conformer: 79.85149204193175 kcal/mol)

>  <smiles>  (5) 
Cc1ccccc1CN1CCN(Cc2nc(C)c(C)nc2C)CC1CCO

>  <score_type>  (5) 
oracle

>  <origin>  (5) 
adg

>  <m_score__min__energy>  (5) 
-9.2699999999999996

>  <m_primary>  (5) 
energy

$$$$
5:0
     RDKit          3D

 33 34  0  0  0  0  0  0  0  0999 V2000
   -8.6250   20.6760  -32.2830 C   0  0  0  0  0  0  0  0  0  0  0  0
   -7.5750   21.6200  -31.7760 C   0  0  0  0  0  0  0  0  0  0  0  0
   -6.3130   21.6680  -32.3870 C   0  0  0  0  0  0  0  0  0  0  0  0
   -5.3220   22.5190  -31.8910 C   0  0  0  0  0  0  0  0  0  0  0  0
   -5.5760   23.3200  -30.7700 C   0  0  0  0  0  0  0  0  0  0  0  0
   -4.3190   24.3790  -30.1430 S   0  0  0  0  0  0  0  0  0  0  0  0
   -4.4530   24.5430  -28.6540 O   0  0  0  0  0  0  0  0  0  0  0  0
   -4.4470   25.7260  -30.7970 O   0  0  0  0  0  0  0  0  0  0  0  0
   -2.7550   23.7210  -30.5010 N   0  0  0  0  0  0  0  0  0  0  0  0
   -2.1400   22.6170  -29.8190 C   0  0  0  0  0  0  0  0  0  0  0  0
   -2.3360   21.2890  -30.2460 C   0  0  0  0  0  0  0  0  0  0  0  0
   -1.7300   20.2310  -29.5670 C   0  0  0  0  0  0  0  0  0  0  0  0
   -0.9280   20.4800  -28.4520 C   0  0  0  0  0  0  0  0  0  0  0  0
   -0.1730   19.1460  -27.5990 Cl  0  0  0  0  0  0  0  0  0  0  0  0
   -0.7270   21.7920  -28.0170 C   0  0  0  0  0  0  0  0  0  0  0  0
   -1.3240   22.8670  -28.6950 C   0  0  0  0  0  0  0  0  0  0  0  0
   -1.0520   24.5210  -28.1350 S   0  0  0  0  0  0  0  0  0  0  0  0
   -1.6040   25.6670  -29.3060 N   0  0  0  0  0  0  0  0  0  0  0  0
    0.4170   24.7300  -27.9020 O   0  0  0  0  0  0  0  0  0  0  0  0
   -1.8010   24.7440  -26.8500 O   0  0  0  0  0  0  0  0  0  0  0  0
   -6.8320   23.2650  -30.1510 C   0  0  0  0  0  0  0  0  0  0  0  0
   -7.8240   22.4130  -30.6450 C   0  0  0  0  0  0  0  0  0  0  0  0
   -9.1423   20.2110  -31.4308 H   0  0  0  0  0  0  0  0  0  0  0  0
   -9.3518   21.2303  -32.8950 H   0  0  0  0  0  0  0  0  0  0  0  0
   -8.1508   19.8945  -32.8950 H   0  0  0  0  0  0  0  0  0  0  0  0
   -6.1028   21.0330  -33.2603 H   0  0  0  0  0  0  0  0  0  0  0  0
   -4.3388   22.5602  -32.3825 H   0  0  0  0  0  0  0  0  0  0  0  0
   -2.9710   21.0845  -31.1206 H   0  0  0  0  0  0  0  0  0  0  0  0
   -1.8848   19.1979  -29.9115 H   0  0  0  0  0  0  0  0  0  0  0  0
   -0.0962   21.9846  -27.1366 H   0  0  0  0  0  0  0  0  0  0  0  0
   -2.6450   25.5950  -29.3400 H   0  0  0  0  0  0  0  0  0  0  0  0
   -7.0381   23.8947  -29.2730 H   0  0  0  0  0  0  0  0  0  0  0  0
   -8.8029   22.3639  -30.1457 H   0  0  0  0  0  0  0  0  0  0  0  0
  1  2  1  0
  2  3  2  0
  3  4  1  0
  4  5  2  0
  5  6  1  0
  6  7  2  0
  6  8  2  0
  6  9  1  0
  9 10  1  0
 10 11  2  0
 11 12  1  0
 12 13  2  0
 13 14  1  0
 13 15  1  0
 15 16  2  0
 16 17  1  0
 17 18  1  0
 17 19  2  0
 17 20  2  0
  5 21  1  0
 21 22  2  0
 22  2  1  0
 16 10  1  0
  1 23  1  0
  1 24  1  0
  1 25  1  0
  3 26  1  0
  4 27  1  0
 11 28  1  0
 12 29  1  0
 15 30  1  0
 18 31  1  0
 21 32  1  0
 22 33  1  0
M  CHG  2   9  -1  18  -1
M  END
>  <UniqueID>  (6) 
6

>  <SMILES>  (6) 
Cc1ccc(S(=O)(=O)[N-]c2ccc(Cl)cc2S([NH-])(=O)=O)cc1

>  <Energy>  (6) 
36.28564167496971

>  <Genealogy>  (6) 
Cc1ccc(S(=O)(=O)[N-]c2ccc(Cl)cc2S([NH-])(=O)=O)cc1 (protonated)
Cc1ccc(S(=O)(=O)[N-]c2ccc(Cl)cc2S([NH-])(=O)=O)cc1 (3D coordinates assigned)
Cc1ccc(S(=O)(=O)[N-]c2ccc(Cl)cc2S([NH-])(=O)=O)cc1 (optimized conformer: 36.28564167496971 kcal/mol)

>  <smiles>  (6) 
Cc1ccc(S(=O)(=O)Nc2ccc(Cl)cc2S(N)(=O)=O)cc1

>  <score_type>  (6) 
oracle

>  <origin>  (6) 
adg

>  <m_score__min__energy>  (6) 
-11.279999999999999

>  <m_primary>  (6) 
energy

$$$$
6:0
     RDKit          3D

 29 30  0  0  0  0  0  0  0  0999 V2000
   -6.1160   25.3210  -29.8890 C   0  0  0  0  0  0  0  0  0  0  0  0
   -4.8130   24.5610  -29.6260 C   0  0  0  0  0  0  0  0  0  0  0  0
   -3.9960   24.4030  -30.8400 N   0  0  0  0  0  0  0  0  0  0  0  0
   -3.2550   23.1330  -30.8500 C   0  0  0  0  0  0  0  0  0  0  0  0
   -3.6440   22.3000  -32.0720 C   0  0  0  0  0  0  0  0  0  0  0  0
   -5.0560   21.9320  -32.0160 N   0  0  0  0  0  0  0  0  0  0  0  0
   -6.0460   22.8200  -31.9530 N   0  0  0  0  0  0  0  0  0  0  0  0
   -7.1710   22.0830  -31.9760 C   0  0  0  0  0  0  0  0  0  0  0  0
   -8.4960   22.5090  -31.9400 C   0  0  0  0  0  0  0  0  0  0  0  0
   -9.4950   21.5160  -31.9930 C   0  0  0  0  0  0  0  0  0  0  0  0
   -9.1450   20.1460  -32.0810 C   0  0  0  0  0  0  0  0  0  0  0  0
   -7.7920   19.7550  -32.1190 C   0  0  0  0  0  0  0  0  0  0  0  0
   -6.8380   20.7650  -32.0620 C   0  0  0  0  0  0  0  0  0  0  0  0
   -5.5020   20.6800  -32.0880 N   0  0  0  0  0  0  0  0  0  0  0  0
   -6.5819   25.5927  -28.9303 H   0  0  0  0  0  0  0  0  0  0  0  0
   -5.8986   26.2339  -30.4628 H   0  0  0  0  0  0  0  0  0  0  0  0
   -6.8036   24.6823  -30.4628 H   0  0  0  0  0  0  0  0  0  0  0  0
   -4.2276   25.1139  -28.8766 H   0  0  0  0  0  0  0  0  0  0  0  0
   -5.0797   23.5549  -29.2702 H   0  0  0  0  0  0  0  0  0  0  0  0
   -4.6210   24.4430  -31.6790 H   0  0  0  0  0  0  0  0  0  0  0  0
   -2.1757   23.3430  -30.8829 H   0  0  0  0  0  0  0  0  0  0  0  0
   -3.5019   22.5680  -29.9390 H   0  0  0  0  0  0  0  0  0  0  0  0
   -3.4596   22.8876  -32.9834 H   0  0  0  0  0  0  0  0  0  0  0  0
   -3.0387   21.3816  -32.0819 H   0  0  0  0  0  0  0  0  0  0  0  0
   -8.7527   23.5765  -31.8730 H   0  0  0  0  0  0  0  0  0  0  0  0
  -10.5554   21.8073  -31.9658 H   0  0  0  0  0  0  0  0  0  0  0  0
   -9.9354   19.3820  -32.1199 H   0  0  0  0  0  0  0  0  0  0  0  0
   -7.5027   18.6961  -32.1907 H   0  0  0  0  0  0  0  0  0  0  0  0
   -4.9140   19.8200  -32.1650 H   0  0  0  0  0  0  0  0  0  0  0  0
  1  2  1  0
  2  3  1  0
  3  4  1  0
  4  5  1  0
  5  6  1  0
  6  7  1  0
  7  8  2  0
  8  9  1  0
  9 10  2  0
 10 11  1  0
 11 12  2  0
 12 13  1  0
 13 14  2  0
 14  6  1  0
 13  8  1  0
  1 15  1  0
  1 16  1  0
  1 17  1  0
  2 18  1  0
  2 19  1  0
  3 20  1  0
  4 21  1  0
  4 22  1  0
  5 23  1  0
  5 24  1  0
  9 25  1  0
 10 26  1  0
 11 27  1  0
 12 28  1  0
 14 29  1  0
M  CHG  1  14   1
M  END
>  <UniqueID>  (7) 
7

>  <SMILES>  (7) 
CCNCCn1nc2ccccc2[nH+]1

>  <Energy>  (7) 
67.15253858189178

>  <Genealogy>  (7) 
CCNCCn1nc2ccccc2[nH+]1 (protonated)
CCNCCn1nc2ccccc2[nH+]1 (3D coordinates assigned)
CCNCCn1nc2ccccc2[nH+]1 (optimized conformer: 67.15253858189178 kcal/mol)

>  <smiles>  (7) 
CCNCCn1nc2ccccc2n1

>  <score_type>  (7) 
oracle

>  <origin>  (7) 
adg

>  <m_score__min__energy>  (7) 
-6.0999999999999996

>  <m_primary>  (7) 
energy

$$$$
7:0
     RDKit          3D

 37 39  0  0  1  0  0  0  0  0999 V2000
   -9.7840   21.6810  -30.9480 C   0  0  0  0  0  0  0  0  0  0  0  0
   -8.5530   21.1120  -31.5810 C   0  0  0  0  0  0  0  0  0  0  0  0
   -4.3580   20.7400  -33.0850 C   0  0  0  0  0  0  0  0  0  0  0  0
   -5.0740   21.7380  -32.4380 C   0  0  0  0  0  0  0  0  0  0  0  0
   -7.5930   18.0850  -33.1530 N   0  0  0  0  0  0  0  0  0  0  0  0
   -6.6850   17.0380  -32.7230 C   0  0  0  0  0  0  0  0  0  0  0  0
   -5.8070   16.6320  -33.9130 C   0  0  0  0  0  0  0  0  0  0  0  0
   -5.8690   17.5870  -34.9750 N   0  0  0  0  0  0  0  0  0  0  0  0
   -6.3790   19.9730  -32.7550 N   0  0  0  0  0  0  0  0  0  0  0  0
   -5.1980   19.7060  -33.2460 N   0  0  0  0  0  0  0  0  0  0  0  0
   -8.6260   19.8170  -32.0980 C   0  0  0  0  0  0  0  0  0  0  0  0
   -7.5210   19.2700  -32.6820 C   0  0  0  0  0  0  0  0  0  0  0  0
   -4.5990   22.9330  -32.0920 C   0  0  0  0  0  0  0  0  0  0  0  0
   -4.4250   23.1910  -30.6680 C   0  0  0  0  0  0  0  0  0  0  0  0
   -4.5580   22.2950  -29.6750 N   0  0  0  0  0  0  0  0  0  0  0  0
   -4.3070   22.9670  -28.5190 C   0  0  0  0  0  0  0  0  0  0  0  0
   -4.3440   22.4230  -27.3670 O   0  0  0  0  0  0  0  0  0  0  0  0
   -4.0240   24.2600  -28.8030 N   0  0  0  0  0  0  0  0  0  0  0  0
   -4.0900   24.4290  -30.1350 C   0  0  0  0  0  0  0  0  0  0  0  0
   -3.8650   25.6130  -30.8230 O   0  0  0  0  0  0  0  0  0  0  0  0
   -6.3330   21.2340  -32.2440 C   0  0  0  0  0  0  0  0  0  0  0  0
   -7.4010   21.8100  -31.6610 N   0  0  0  0  0  0  0  0  0  0  0  0
   -9.6874   21.6364  -29.8532 H   0  0  0  0  0  0  0  0  0  0  0  0
   -9.9078   22.7277  -31.2628 H   0  0  0  0  0  0  0  0  0  0  0  0
  -10.6615   21.0972  -31.2628 H   0  0  0  0  0  0  0  0  0  0  0  0
   -3.3063   20.7876  -33.4038 H   0  0  0  0  0  0  0  0  0  0  0  0
   -6.0510   17.4104  -31.9048 H   0  0  0  0  0  0  0  0  0  0  0  0
   -7.2564   16.1693  -32.3642 H   0  0  0  0  0  0  0  0  0  0  0  0
   -4.7645   16.5469  -33.5724 H   0  0  0  0  0  0  0  0  0  0  0  0
   -6.1797   15.6713  -34.2979 H   0  0  0  0  0  0  0  0  0  0  0  0
   -5.2310   18.4030  -34.8340 H   0  0  0  0  0  0  0  0  0  0  0  0
   -6.8540   17.8210  -35.1370 H   0  0  0  0  0  0  0  0  0  0  0  0
   -9.5633   19.2447  -32.0352 H   0  0  0  0  0  0  0  0  0  0  0  0
   -4.3489   23.6922  -32.8477 H   0  0  0  0  0  0  0  0  0  0  0  0
   -4.8080   21.2680  -29.7710 H   0  0  0  0  0  0  0  0  0  0  0  0
   -3.7990   24.9730  -28.0840 H   0  0  0  0  0  0  0  0  0  0  0  0
   -3.2690   25.6500  -31.6380 H   0  0  0  0  0  0  0  0  0  0  0  0
  1  2  1  0
  2  3  2  0
  3  4  1  0
  4  5  2  0
  5  6  1  0
  6  7  1  0
  7  8  1  0
  4  9  1  0
  9 10  1  0
 10 11  2  0
 11 12  1  0
 12 13  2  0
 13 14  1  0
 14 15  1  0
 15 16  1  0
 16 17  2  0
 16 18  1  0
 18 19  1  0
 19 20  1  0
 12 21  1  0
 21 22  2  0
 22  2  1  0
 21  9  1  0
 19 14  2  0
  1 23  1  0
  1 24  1  0
  1 25  1  0
  3 26  1  0
  6 27  1  0
  6 28  1  0
  7 29  1  0
  7 30  1  0
  8 31  1  0
  8 32  1  0
 11 33  1  0
 13 34  1  0
 15 35  1  0
 18 36  1  0
 20 37  1  0
M  END
>  <smiles>  (8) 
Cc1cc(=NCCN)n2ncc(=Cc3[nH]c(=O)[nH]c3O)c2n1

>  <score_type>  (8) 
oracle

>  <origin>  (8) 
adg

>  <m_score__min__energy>  (8) 
-8.1799999999999997

>  <m_primary>  (8) 
energy

$$$$
8:0
     RDKit          3D

 40 41  0  0  0  0  0  0  0  0999 V2000
   -6.8650   16.7150  -33.4310 C   0  0  0  0  0  0  0  0  0  0  0  0
   -7.0860   18.0320  -32.7490 C   0  0  0  0  0  0  0  0  0  0  0  0
   -8.3780   18.4220  -32.3670 C   0  0  0  0  0  0  0  0  0  0  0  0
   -8.5920   19.6660  -31.7650 C   0  0  0  0  0  0  0  0  0  0  0  0
   -7.5140   20.5410  -31.5480 C   0  0  0  0  0  0  0  0  0  0  0  0
   -7.7350   21.8900  -30.9160 C   0  0  0  0  0  0  0  0  0  0  0  0
   -7.6550   22.9560  -31.9400 N   0  0  0  0  0  0  0  0  0  0  0  0
   -9.0050   23.4160  -32.3100 C   0  0  0  0  0  0  0  0  0  0  0  0
   -6.8520   24.0970  -31.4530 C   0  0  0  0  0  0  0  0  0  0  0  0
   -5.3900   23.7620  -31.4990 C   0  0  0  0  0  0  0  0  0  0  0  0
   -4.5750   24.4920  -30.8730 O   0  0  0  0  0  0  0  0  0  0  0  0
   -4.9250   22.6610  -32.2960 N   0  0  0  0  0  0  0  0  0  0  0  0
   -3.5700   22.1800  -32.2910 C   0  0  0  0  0  0  0  0  0  0  0  0
   -3.0790   21.4960  -33.4130 C   0  0  0  0  0  0  0  0  0  0  0  0
   -1.7720   21.0000  -33.4250 C   0  0  0  0  0  0  0  0  0  0  0  0
   -0.9490   21.1690  -32.3090 C   0  0  0  0  0  0  0  0  0  0  0  0
    0.3180   20.6870  -32.3200 F   0  0  0  0  0  0  0  0  0  0  0  0
   -1.4350   21.8290  -31.1770 C   0  0  0  0  0  0  0  0  0  0  0  0
   -2.7410   22.3270  -31.1630 C   0  0  0  0  0  0  0  0  0  0  0  0
   -6.2260   20.1590  -31.9500 C   0  0  0  0  0  0  0  0  0  0  0  0
   -6.0130   18.9150  -32.5520 C   0  0  0  0  0  0  0  0  0  0  0  0
   -6.7329   15.9278  -32.6742 H   0  0  0  0  0  0  0  0  0  0  0  0
   -7.7357   16.4769  -34.0596 H   0  0  0  0  0  0  0  0  0  0  0  0
   -5.9642   16.7742  -34.0596 H   0  0  0  0  0  0  0  0  0  0  0  0
   -9.2277   17.7456  -32.5419 H   0  0  0  0  0  0  0  0  0  0  0  0
   -9.6072   19.9604  -31.4604 H   0  0  0  0  0  0  0  0  0  0  0  0
   -8.7293   21.9121  -30.4460 H   0  0  0  0  0  0  0  0  0  0  0  0
   -6.9563   22.0622  -30.1584 H   0  0  0  0  0  0  0  0  0  0  0  0
   -9.5875   23.6145  -31.3982 H   0  0  0  0  0  0  0  0  0  0  0  0
   -8.9280   24.3386  -32.9040 H   0  0  0  0  0  0  0  0  0  0  0  0
   -9.5074   22.6383  -32.9040 H   0  0  0  0  0  0  0  0  0  0  0  0
   -7.0437   24.9735  -32.0894 H   0  0  0  0  0  0  0  0  0  0  0  0
   -7.1363   24.3168  -30.4134 H   0  0  0  0  0  0  0  0  0  0  0  0
   -5.5860   22.2500  -32.9930 H   0  0  0  0  0  0  0  0  0  0  0  0
   -3.7270   21.3489  -34.2896 H   0  0  0  0  0  0  0  0  0  0  0  0
   -1.3913   20.4761  -34.3142 H   0  0  0  0  0  0  0  0  0  0  0  0
   -0.7889   21.9567  -30.2959 H   0  0  0  0  0  0  0  0  0  0  0  0
   -3.1228   22.8364  -30.2659 H   0  0  0  0  0  0  0  0  0  0  0  0
   -5.3784   20.8418  -31.7909 H   0  0  0  0  0  0  0  0  0  0  0  0
   -5.0007   18.6274  -32.8723 H   0  0  0  0  0  0  0  0  0  0  0  0
  1  2  1  0
  2  3  2  0
  3  4  1  0
  4  5  2  0
  5  6  1  0
  6  7  1  0
  7  8  1  0
  7  9  1  0
  9 10  1  0
 10 11  2  0
 10 12  1  0
 12 13  1  0
 13 14  2  0
 14 15  1  0
 15 16  2  0
 16 17  1  0
 16 18  1  0
 18 19  2  0
  5 20  1  0
 20 21  2  0
 21  2  1  0
 19 13  1  0
  1 22  1  0
  1 23  1  0
  1 24  1  0
  3 25  1  0
  4 26  1  0
  6 27  1  0
  6 28  1  0
  8 29  1  0
  8 30  1  0
  8 31  1  0
  9 32  1  0
  9 33  1  0
 12 34  1  0
 14 35  1  0
 15 36  1  0
 18 37  1  0
 19 38  1  0
 20 39  1  0
 21 40  1  0
M  END
>  <UniqueID>  (9) 
8

>  <SMILES>  (9) 
Cc1ccc(CN(C)CC(=O)Nc2ccc(F)cc2)cc1

>  <Energy>  (9) 
42.287059440699885

>  <Genealogy>  (9) 
Cc1ccc(CN(C)CC(=O)Nc2ccc(F)cc2)cc1 (3D coordinates assigned)
Cc1ccc(CN(C)CC(=O)Nc2ccc(F)cc2)cc1 (optimized conformer: 42.287059440699885 kcal/mol)

>  <smiles>  (9) 
Cc1ccc(CN(C)CC(=O)Nc2ccc(F)cc2)cc1

>  <score_type>  (9) 
oracle

>  <origin>  (9) 
adg

>  <m_score__min__energy>  (9) 
-8.0999999999999996

>  <m_primary>  (9) 
energy

$$$$
9:0
     RDKit          3D

 40 42  0  0  0  0  0  0  0  0999 V2000
   -5.2470   25.2030  -30.5640 C   0  0  0  0  0  0  0  0  0  0  0  0
   -4.0570   24.3430  -30.6700 N   0  0  0  0  0  0  0  0  0  0  0  0
   -3.2000   24.5440  -29.4880 C   0  0  0  0  0  0  0  0  0  0  0  0
   -4.4530   22.9240  -30.8030 C   0  0  0  0  0  0  0  0  0  0  0  0
   -3.7310   22.2660  -31.9830 C   0  0  0  0  0  0  0  0  0  0  0  0
   -4.6690   21.9670  -33.0640 N   0  0  0  0  0  0  0  0  0  0  0  0
   -5.7630   21.0680  -32.8350 C   0  0  0  0  0  0  0  0  0  0  0  0
   -5.6640   19.6750  -33.0670 C   0  0  0  0  0  0  0  0  0  0  0  0
   -4.4950   19.1130  -33.6110 C   0  0  0  0  0  0  0  0  0  0  0  0
   -4.4020   17.7400  -33.8310 C   0  0  0  0  0  0  0  0  0  0  0  0
   -5.4730   16.9060  -33.5240 C   0  0  0  0  0  0  0  0  0  0  0  0
   -6.6550   17.4360  -33.0040 C   0  0  0  0  0  0  0  0  0  0  0  0
   -6.7850   18.8250  -32.7700 C   0  0  0  0  0  0  0  0  0  0  0  0
   -7.9610   19.3680  -32.2760 N   0  0  0  0  0  0  0  0  0  0  0  0
   -9.1330   18.5370  -31.9570 C   0  0  0  0  0  0  0  0  0  0  0  0
   -8.0210   20.7190  -32.0900 C   0  0  0  0  0  0  0  0  0  0  0  0
   -9.0460   21.4020  -31.6340 O   0  0  0  0  0  0  0  0  0  0  0  0
   -8.6910   22.6730  -31.5920 C   0  0  0  0  0  0  0  0  0  0  0  0
   -7.3840   22.8250  -32.0380 C   0  0  0  0  0  0  0  0  0  0  0  0
   -6.9750   21.5500  -32.3580 C   0  0  0  0  0  0  0  0  0  0  0  0
   -5.4829   25.3735  -29.5032 H   0  0  0  0  0  0  0  0  0  0  0  0
   -5.0476   26.1670  -31.0548 H   0  0  0  0  0  0  0  0  0  0  0  0
   -6.0998   24.7111  -31.0548 H   0  0  0  0  0  0  0  0  0  0  0  0
   -3.7966   24.4041  -28.5745 H   0  0  0  0  0  0  0  0  0  0  0  0
   -2.3768   23.8146  -29.5036 H   0  0  0  0  0  0  0  0  0  0  0  0
   -2.7870   25.5634  -29.5036 H   0  0  0  0  0  0  0  0  0  0  0  0
   -4.1934   22.3889  -29.8776 H   0  0  0  0  0  0  0  0  0  0  0  0
   -5.5373   22.8758  -30.9819 H   0  0  0  0  0  0  0  0  0  0  0  0
   -2.9550   22.9497  -32.3576 H   0  0  0  0  0  0  0  0  0  0  0  0
   -3.2780   21.3246  -31.6387 H   0  0  0  0  0  0  0  0  0  0  0  0
   -4.8140   22.7110  -33.7850 H   0  0  0  0  0  0  0  0  0  0  0  0
   -3.6455   19.7639  -33.8654 H   0  0  0  0  0  0  0  0  0  0  0  0
   -3.4782   17.3137  -34.2491 H   0  0  0  0  0  0  0  0  0  0  0  0
   -5.3875   15.8223  -33.6922 H   0  0  0  0  0  0  0  0  0  0  0  0
   -7.4958   16.7653  -32.7733 H   0  0  0  0  0  0  0  0  0  0  0  0
   -9.2416   18.4600  -30.8651 H   0  0  0  0  0  0  0  0  0  0  0  0
  -10.0362   18.9976  -32.3837 H   0  0  0  0  0  0  0  0  0  0  0  0
   -8.9972   17.5323  -32.3837 H   0  0  0  0  0  0  0  0  0  0  0  0
   -9.3382   23.4949  -31.2521 H   0  0  0  0  0  0  0  0  0  0  0  0
   -6.8048   23.7568  -32.1177 H   0  0  0  0  0  0  0  0  0  0  0  0
  1  2  1  0
  2  3  1  0
  2  4  1  0
  4  5  1  0
  5  6  1  0
  6  7  1  0
  7  8  2  0
  8  9  1  0
  9 10  2  0
 10 11  1  0
 11 12  2  0
 12 13  1  0
 13 14  2  0
 14 15  1  0
 14 16  1  0
 16 17  1  0
 17 18  1  0
 18 19  2  0
 19 20  1  0
 20  7  1  0
 13  8  1  0
 20 16  2  0
  1 21  1  0
  1 22  1  0
  1 23  1  0
  3 24  1  0
  3 25  1  0
  3 26  1  0
  4 27  1  0
  4 28  1  0
  5 29  1  0
  5 30  1  0
  6 31  1  0
  9 32  1  0
 10 33  1  0
 11 34  1  0
 12 35  1  0
 15 36  1  0
 15 37  1  0
 15 38  1  0
 18 39  1  0
 19 40  1  0
M  CHG  1  14   1
M  END
>  <UniqueID>  (10) 
9

>  <SMILES>  (10) 
CN(C)CCNc1c2ccccc2[n+](C)c2occc12

>  <Energy>  (10) 
86.5295111667734

>  <Genealogy>  (10) 
CN(C)CCNc1c2ccccc2[n+](C)c2occc12 (3D coordinates assigned)
CN(C)CCNc1c2ccccc2[n+](C)c2occc12 (optimized conformer: 86.5295111667734 kcal/mol)

>  <smiles>  (10) 
CN(C)CCNc1c2ccccc2[n+](C)c2occc12

>  <score_type>  (10) 
oracle

>  <origin>  (10) 
adg

>  <m_score__min__energy>  (10) 
-7.3099999999999996

>  <m_primary>  (10) 
energy

$$$$
10:0
     RDKit          3D

 54 56  0  0  0  0  0  0  0  0999 V2000
   -5.3827   19.3372  -30.6262 H   0  0  0  0  0  0  0  0  0  0  0  0
   -5.5630   20.2100  -31.2710 C   0  0  0  0  0  0  0  0  0  0  0  0
   -4.4860   20.8420  -31.7880 C   0  0  0  0  0  0  0  0  0  0  0  0
   -3.9330   20.4280  -33.1060 C   0  0  0  0  0  0  0  0  0  0  0  0
   -3.1080   21.1740  -33.6970 O   0  0  0  0  0  0  0  0  0  0  0  0
   -4.3250   19.1970  -33.7320 N   0  0  0  0  0  0  0  0  0  0  0  0
   -5.6810   19.0580  -34.2630 C   0  0  0  0  0  0  0  0  0  0  0  0
   -6.3533   19.7294  -33.7087 H   0  0  0  0  0  0  0  0  0  0  0  0
   -5.6635   19.3192  -35.3314 H   0  0  0  0  0  0  0  0  0  0  0  0
   -6.1920   17.6100  -34.1250 C   0  0  0  0  0  0  0  0  0  0  0  0
   -6.7255   17.5229  -33.1670 H   0  0  0  0  0  0  0  0  0  0  0  0
   -6.8394   17.4205  -34.9939 H   0  0  0  0  0  0  0  0  0  0  0  0
   -5.1190   16.5740  -34.1580 N   0  0  0  0  0  0  0  0  0  0  0  0
   -5.4870   15.7600  -34.7070 H   0  0  0  0  0  0  0  0  0  0  0  0
   -4.8200   16.0600  -32.8070 C   0  0  0  0  0  0  0  0  0  0  0  0
   -5.2230   16.7528  -32.0536 H   0  0  0  0  0  0  0  0  0  0  0  0
   -5.2834   15.0705  -32.6803 H   0  0  0  0  0  0  0  0  0  0  0  0
   -3.7307   15.9737  -32.6803 H   0  0  0  0  0  0  0  0  0  0  0  0
   -3.8930   17.0320  -34.8490 C   0  0  0  0  0  0  0  0  0  0  0  0
   -3.1528   16.2185  -34.8353 H   0  0  0  0  0  0  0  0  0  0  0  0
   -4.1656   17.3049  -35.8791 H   0  0  0  0  0  0  0  0  0  0  0  0
   -3.2810   18.2710  -34.1760 C   0  0  0  0  0  0  0  0  0  0  0  0
   -2.6892   17.9520  -33.3054 H   0  0  0  0  0  0  0  0  0  0  0  0
   -2.6426   18.7877  -34.9077 H   0  0  0  0  0  0  0  0  0  0  0  0
   -3.8480   21.9830  -31.0790 C   0  0  0  0  0  0  0  0  0  0  0  0
   -2.6800   21.7870  -30.3320 C   0  0  0  0  0  0  0  0  0  0  0  0
   -2.2282   20.7856  -30.2764 H   0  0  0  0  0  0  0  0  0  0  0  0
   -2.0860   22.8540  -29.6580 C   0  0  0  0  0  0  0  0  0  0  0  0
   -1.1682   22.6891  -29.0745 H   0  0  0  0  0  0  0  0  0  0  0  0
   -2.6540   24.1410  -29.7200 C   0  0  0  0  0  0  0  0  0  0  0  0
   -2.0870   25.2370  -29.0530 O   0  0  0  0  0  0  0  0  0  0  0  0
   -1.6910   25.2320  -27.6860 C   0  0  0  0  0  0  0  0  0  0  0  0
   -2.5850   25.2433  -27.0452 H   0  0  0  0  0  0  0  0  0  0  0  0
   -1.1023   24.3264  -27.4781 H   0  0  0  0  0  0  0  0  0  0  0  0
   -1.0796   26.1225  -27.4781 H   0  0  0  0  0  0  0  0  0  0  0  0
   -3.8260   24.3460  -30.4660 C   0  0  0  0  0  0  0  0  0  0  0  0
   -4.3760   25.6370  -30.5020 O   0  0  0  0  0  0  0  0  0  0  0  0
   -5.7330   25.9430  -30.1880 C   0  0  0  0  0  0  0  0  0  0  0  0
   -5.8591   25.9714  -29.0956 H   0  0  0  0  0  0  0  0  0  0  0  0
   -5.9957   26.9229  -30.6131 H   0  0  0  0  0  0  0  0  0  0  0  0
   -6.3909   25.1706  -30.6131 H   0  0  0  0  0  0  0  0  0  0  0  0
   -4.4130   23.2660  -31.1500 C   0  0  0  0  0  0  0  0  0  0  0  0
   -5.3232   23.4284  -31.7460 H   0  0  0  0  0  0  0  0  0  0  0  0
   -6.9670   20.6090  -31.5110 C   0  0  0  0  0  0  0  0  0  0  0  0
   -7.3270   21.9590  -31.3790 C   0  0  0  0  0  0  0  0  0  0  0  0
   -6.5687   22.7027  -31.0928 H   0  0  0  0  0  0  0  0  0  0  0  0
   -8.6470   22.3630  -31.6100 C   0  0  0  0  0  0  0  0  0  0  0  0
   -8.9263   23.4203  -31.4916 H   0  0  0  0  0  0  0  0  0  0  0  0
   -9.6110   21.4250  -31.9910 C   0  0  0  0  0  0  0  0  0  0  0  0
  -10.6505   21.7423  -32.1608 H   0  0  0  0  0  0  0  0  0  0  0  0
   -9.2540   20.0850  -32.1560 C   0  0  0  0  0  0  0  0  0  0  0  0
  -10.0103   19.3495  -32.4674 H   0  0  0  0  0  0  0  0  0  0  0  0
   -7.9370   19.6770  -31.9260 C   0  0  0  0  0  0  0  0  0  0  0  0
   -7.6573   18.6229  -32.0699 H   0  0  0  0  0  0  0  0  0  0  0  0
  1  2  1  0
  2  3  2  0
  3  4  1  0
  4  5  2  0
  4  6  1  0
  6  7  1  0
  7  8  1  0
  7  9  1  0
  7 10  1  0
 10 11  1  0
 10 12  1  0
 10 13  1  0
 13 14  1  0
 13 15  1  0
 15 16  1  0
 15 17  1  0
 15 18  1  0
 13 19  1  0
 19 20  1  0
 19 21  1  0
 19 22  1  0
 22 23  1  0
 22 24  1  0
  3 25  1  0
 25 26  2  0
 26 27  1  0
 26 28  1  0
 28 29  1  0
 28 30  2  0
 30 31  1  0
 31 32  1  0
 32 33  1  0
 32 34  1  0
 32 35  1  0
 30 36  1  0
 36 37  1  0
 37 38  1  0
 38 39  1  0
 38 40  1  0
 38 41  1  0
 36 42  2  0
 42 43  1  0
  2 44  1  0
 44 45  2  0
 45 46  1  0
 45 47  1  0
 47 48  1  0
 47 49  2  0
 49 50  1  0
 49 51  1  0
 51 52  1  0
 51 53  2  0
 53 54  1  0
 22  6  1  0
 42 25  1  0
 53 44  1  0
M  CHG  1  13   1
M  END
>  <UniqueID>  (11) 
10

>  <SMILES>  (11) 
COc1ccc(/C(=C\c2ccccc2)C(=O)N2CC[NH+](C)CC2)cc1OC

>  <Energy>  (11) 
76.9855251606693

>  <Genealogy>  (11) 
COc1ccc(C(=Cc2ccccc2)C(=O)N2CC[NH+](C)CC2)cc1OC (protonated)
COc1ccc(/C(=C\c2ccccc2)C(=O)N2CC[NH+](C)CC2)cc1OC (cis-trans isomerization)
COc1ccc(/C(=C\c2ccccc2)C(=O)N2CC[NH+](C)CC2)cc1OC (3D coordinates assigned)
COc1ccc(/C(=C\c2ccccc2)C(=O)N2CC[NH+](C)CC2)cc1OC (nonaromatic ring conformer: 76.9855251606693 kcal/mol)

>  <smiles>  (11) 
COc1ccc(C(=Cc2ccccc2)C(=O)N2CCN(C)CC2)cc1OC

>  <score_type>  (11) 
oracle

>  <origin>  (11) 
adg

>  <m_score__min__energy>  (11) 
-9.0899999999999999

>  <m_primary>  (11) 
energy

$$$$
11:0
     RDKit          3D

 40 42  0  0  0  0  0  0  0  0999 V2000
   -2.9920   21.7460  -30.5820 C   0  0  0  0  0  0  0  0  0  0  0  0
   -3.6350   22.7190  -31.5700 C   0  0  0  0  0  0  0  0  0  0  0  0
   -5.1120   22.5690  -31.5750 N   0  0  0  0  0  0  0  0  0  0  0  0
   -5.9090   23.5600  -31.0180 C   0  0  0  0  0  0  0  0  0  0  0  0
   -5.3450   24.8170  -30.3650 C   0  0  0  0  0  0  0  0  0  0  0  0
   -5.3620   24.7300  -28.8910 N   0  0  0  0  0  0  0  0  0  0  0  0
   -4.3850   23.7530  -28.3840 C   0  0  0  0  0  0  0  0  0  0  0  0
   -3.1310   24.4470  -27.9470 C   0  0  0  0  0  0  0  0  0  0  0  0
   -2.8650   24.9180  -26.6680 C   0  0  0  0  0  0  0  0  0  0  0  0
   -1.6450   25.5970  -26.5740 C   0  0  0  0  0  0  0  0  0  0  0  0
   -0.9560   25.6750  -27.7780 C   0  0  0  0  0  0  0  0  0  0  0  0
   -1.8700   24.9020  -28.9610 S   0  0  0  0  0  0  0  0  0  0  0  0
   -7.3030   23.4260  -31.0160 C   0  0  0  0  0  0  0  0  0  0  0  0
   -7.9080   22.3120  -31.5690 C   0  0  0  0  0  0  0  0  0  0  0  0
   -9.1650   22.2170  -31.5370 O   0  0  0  0  0  0  0  0  0  0  0  0
   -7.1220   21.3160  -32.1580 C   0  0  0  0  0  0  0  0  0  0  0  0
   -7.7260   20.1840  -32.7420 C   0  0  0  0  0  0  0  0  0  0  0  0
   -6.9500   19.2040  -33.3530 C   0  0  0  0  0  0  0  0  0  0  0  0
   -5.5680   19.3410  -33.3980 C   0  0  0  0  0  0  0  0  0  0  0  0
   -4.9480   20.4510  -32.8230 C   0  0  0  0  0  0  0  0  0  0  0  0
   -5.7050   21.4630  -32.1740 C   0  0  0  0  0  0  0  0  0  0  0  0
   -3.2073   22.0719  -29.5537 H   0  0  0  0  0  0  0  0  0  0  0  0
   -3.4023   20.7378  -30.7406 H   0  0  0  0  0  0  0  0  0  0  0  0
   -1.9036   21.7281  -30.7406 H   0  0  0  0  0  0  0  0  0  0  0  0
   -3.3784   23.7487  -31.2803 H   0  0  0  0  0  0  0  0  0  0  0  0
   -3.2556   22.4981  -32.5786 H   0  0  0  0  0  0  0  0  0  0  0  0
   -4.3067   24.9562  -30.7006 H   0  0  0  0  0  0  0  0  0  0  0  0
   -5.9767   25.6670  -30.6624 H   0  0  0  0  0  0  0  0  0  0  0  0
   -5.1640   25.6650  -28.4670 H   0  0  0  0  0  0  0  0  0  0  0  0
   -6.3220   24.4300  -28.5960 H   0  0  0  0  0  0  0  0  0  0  0  0
   -4.8197   23.2167  -27.5276 H   0  0  0  0  0  0  0  0  0  0  0  0
   -4.1388   23.0442  -29.1884 H   0  0  0  0  0  0  0  0  0  0  0  0
   -3.5444   24.7721  -25.8153 H   0  0  0  0  0  0  0  0  0  0  0  0
   -1.2671   26.0283  -25.6353 H   0  0  0  0  0  0  0  0  0  0  0  0
    0.0197   26.1591  -27.9317 H   0  0  0  0  0  0  0  0  0  0  0  0
   -7.9242   24.2162  -30.5692 H   0  0  0  0  0  0  0  0  0  0  0  0
   -8.8202   20.0745  -32.7144 H   0  0  0  0  0  0  0  0  0  0  0  0
   -7.4303   18.3212  -33.8002 H   0  0  0  0  0  0  0  0  0  0  0  0
   -4.9584   18.5690  -33.8904 H   0  0  0  0  0  0  0  0  0  0  0  0
   -3.8531   20.5442  -32.8731 H   0  0  0  0  0  0  0  0  0  0  0  0
  1  2  1  0
  2  3  1  0
  3  4  1  0
  4  5  1  0
  5  6  1  0
  6  7  1  0
  7  8  1  0
  8  9  2  0
  9 10  1  0
 10 11  2  0
 11 12  1  0
  4 13  2  0
 13 14  1  0
 14 15  2  0
 14 16  1  0
 16 17  2  0
 17 18  1  0
 18 19  2  0
 19 20  1  0
 20 21  2  0
 21  3  1  0
 12  8  1  0
 21 16  1  0
  1 22  1  0
  1 23  1  0
  1 24  1  0
  2 25  1  0
  2 26  1  0
  5 27  1  0
  5 28  1  0
  6 29  1  0
  6 30  1  0
  7 31  1  0
  7 32  1  0
  9 33  1  0
 10 34  1  0
 11 35  1  0
 13 36  1  0
 17 37  1  0
 18 38  1  0
 19 39  1  0
 20 40  1  0
M  CHG  1   6   1
M  END
>  <UniqueID>  (12) 
11

>  <SMILES>  (12) 
CCn1c(C[NH2+]Cc2cccs2)cc(=O)c2ccccc21

>  <Energy>  (12) 
79.44553946641884

>  <Genealogy>  (12) 
CCn1c(C[NH2+]Cc2cccs2)cc(=O)c2ccccc21 (protonated)
CCn1c(C[NH2+]Cc2cccs2)cc(=O)c2ccccc21 (3D coordinates assigned)
CCn1c(C[NH2+]Cc2cccs2)cc(=O)c2ccccc21 (optimized conformer: 79.44553946641884 kcal/mol)

>  <smiles>  (12) 
CCn1c(CNCc2cccs2)cc(=O)c2ccccc21

>  <score_type>  (12) 
oracle

>  <origin>  (12) 
adg

>  <m_score__min__energy>  (12) 
-7.1900000000000004

>  <m_primary>  (12) 
energy

$$$$
12:0
     RDKit          3D

 45 48  0  0  0  0  0  0  0  0999 V2000
   -9.1130   22.7450  -31.9810 C   0  0  0  0  0  0  0  0  0  0  0  0
   -7.7920   22.2320  -31.8510 O   0  0  0  0  0  0  0  0  0  0  0  0
   -7.4000   20.9300  -32.2100 C   0  0  0  0  0  0  0  0  0  0  0  0
   -8.3300   19.8750  -32.2970 C   0  0  0  0  0  0  0  0  0  0  0  0
   -7.9140   18.5910  -32.6600 C   0  0  0  0  0  0  0  0  0  0  0  0
   -6.5720   18.3430  -32.9440 C   0  0  0  0  0  0  0  0  0  0  0  0
   -6.0110   16.5860  -33.4490 Br  0  0  0  0  0  0  0  0  0  0  0  0
   -5.6380   19.3790  -32.8630 C   0  0  0  0  0  0  0  0  0  0  0  0
   -6.0380   20.6740  -32.4860 C   0  0  0  0  0  0  0  0  0  0  0  0
   -5.0170   21.7830  -32.4430 C   0  0  0  0  0  0  0  0  0  0  0  0
   -3.8730   21.4210  -33.2130 O   0  0  0  0  0  0  0  0  0  0  0  0
   -2.5840   21.2840  -32.6850 C   0  0  0  0  0  0  0  0  0  0  0  0
   -1.4450   21.1870  -33.4990 C   0  0  0  0  0  0  0  0  0  0  0  0
   -0.1840   21.0880  -32.9060 C   0  0  0  0  0  0  0  0  0  0  0  0
   -0.0590   21.1080  -31.5510 N   0  0  0  0  0  0  0  0  0  0  0  0
   -1.1480   21.1990  -30.7350 C   0  0  0  0  0  0  0  0  0  0  0  0
   -0.9690   21.3890  -29.2560 C   0  0  0  0  0  0  0  0  0  0  0  0
   -1.3250   23.0830  -28.8080 S   0  0  0  0  0  0  0  0  0  0  0  0
   -0.1450   24.1400  -29.3710 O   0  0  0  0  0  0  0  0  0  0  0  0
   -2.9230   23.6080  -29.3120 C   0  0  0  0  0  0  0  0  0  0  0  0
   -4.0270   22.8220  -29.1530 N   0  0  0  0  0  0  0  0  0  0  0  0
   -4.9860   23.6210  -29.6290 C   0  0  0  0  0  0  0  0  0  0  0  0
   -6.3530   23.4620  -29.7260 C   0  0  0  0  0  0  0  0  0  0  0  0
   -6.8760   24.9370  -30.3930 S   0  0  0  0  0  0  0  0  0  0  0  0
   -5.3720   25.7230  -30.5340 C   0  0  0  0  0  0  0  0  0  0  0  0
   -4.4760   24.7950  -30.0440 C   0  0  0  0  0  0  0  0  0  0  0  0
   -3.1520   24.8390  -29.8560 N   0  0  0  0  0  0  0  0  0  0  0  0
   -2.4320   21.2680  -31.2980 C   0  0  0  0  0  0  0  0  0  0  0  0
   -9.5417   22.9115  -30.9817 H   0  0  0  0  0  0  0  0  0  0  0  0
   -9.0841   23.6973  -32.5309 H   0  0  0  0  0  0  0  0  0  0  0  0
   -9.7343   22.0228  -32.5309 H   0  0  0  0  0  0  0  0  0  0  0  0
   -9.3913   20.0634  -32.0776 H   0  0  0  0  0  0  0  0  0  0  0  0
   -8.6477   17.7738  -32.7218 H   0  0  0  0  0  0  0  0  0  0  0  0
   -4.5814   19.1805  -33.0959 H   0  0  0  0  0  0  0  0  0  0  0  0
   -5.4589   22.7016  -32.8565 H   0  0  0  0  0  0  0  0  0  0  0  0
   -4.7118   21.9533  -31.4000 H   0  0  0  0  0  0  0  0  0  0  0  0
   -1.5443   21.1889  -34.5945 H   0  0  0  0  0  0  0  0  0  0  0  0
    0.7119   20.9935  -33.5371 H   0  0  0  0  0  0  0  0  0  0  0  0
    0.9000   21.0650  -31.1360 H   0  0  0  0  0  0  0  0  0  0  0  0
   -1.6544   20.7182  -28.7172 H   0  0  0  0  0  0  0  0  0  0  0  0
    0.0715   21.1557  -28.9859 H   0  0  0  0  0  0  0  0  0  0  0  0
   -0.6020   24.6940  -30.0530 H   0  0  0  0  0  0  0  0  0  0  0  0
   -6.9597   22.5900  -29.4404 H   0  0  0  0  0  0  0  0  0  0  0  0
   -5.1642   26.7307  -30.9231 H   0  0  0  0  0  0  0  0  0  0  0  0
   -3.3174   21.3094  -30.6465 H   0  0  0  0  0  0  0  0  0  0  0  0
  1  2  1  0
  2  3  1  0
  3  4  2  0
  4  5  1  0
  5  6  2  0
  6  7  1  0
  6  8  1  0
  8  9  2  0
  9 10  1  0
 10 11  1  0
 11 12  1  0
 12 13  2  0
 13 14  1  0
 14 15  2  0
 15 16  1  0
 16 17  1  0
 17 18  1  0
 18 19  1  6
 18 20  1  0
 20 21  2  0
 21 22  1  0
 22 23  2  0
 23 24  1  0
 24 25  1  0
 25 26  2  0
 26 27  1  0
 16 28  2  0
  9  3  1  0
 28 12  1  0
 27 20  1  0
 26 22  1  0
  1 29  1  0
  1 30  1  0
  1 31  1  0
  4 32  1  0
  5 33  1  0
  8 34  1  0
 10 35  1  0
 10 36  1  0
 13 37  1  0
 14 38  1  0
 15 39  1  0
 17 40  1  0
 17 41  1  0
 19 42  1  0
 23 43  1  0
 25 44  1  0
 28 45  1  0
M  CHG  3  15   1  18   1  27  -1
M  END
>  <UniqueID>  (13) 
12

>  <SMILES>  (13) 
COc1ccc(Br)cc1COc1cc[nH+]c(C[S@@+](O)c2nc3cscc3[n-]2)c1

>  <Energy>  (13) 
112.56655148060536

>  <Genealogy>  (13) 
COc1ccc(Br)cc1COc1cc[nH+]c(C[S+](O)c2nc3cscc3[n-]2)c1 (protonated)
COc1ccc(Br)cc1COc1cc[nH+]c(C[S@@+](O)c2nc3cscc3[n-]2)c1 (chirality)
COc1ccc(Br)cc1COc1cc[nH+]c(C[S@@+](O)c2nc3cscc3[n-]2)c1 (3D coordinates assigned)
COc1ccc(Br)cc1COc1cc[nH+]c(C[S@@+](O)c2nc3cscc3[n-]2)c1 (optimized conformer: 112.56655148060536 kcal/mol)

>  <smiles>  (13) 
COc1ccc(Br)cc1COc1ccnc(C[S+]([O-])c2nc3cscc3[nH]2)c1

>  <score_type>  (13) 
oracle

>  <origin>  (13) 
adg

>  <m_score__min__energy>  (13) 
-8.0800000000000001

>  <m_primary>  (13) 
energy

$$$$
13:0
     RDKit          3D

 67 69  0  0  0  0  0  0  0  0999 V2000
   -1.6500   21.0010  -26.7460 C   0  0  0  0  0  0  0  0  0  0  0  0
   -1.6660   22.3590  -27.3930 C   0  0  0  0  0  0  0  0  0  0  0  0
   -2.7260   22.7190  -28.2410 C   0  0  0  0  0  0  0  0  0  0  0  0
   -2.7570   23.9840  -28.8540 C   0  0  0  0  0  0  0  0  0  0  0  0
   -3.8640   24.3660  -29.7660 C   0  0  0  0  0  0  0  0  0  0  0  0
   -3.7360   24.1780  -31.0060 O   0  0  0  0  0  0  0  0  0  0  0  0
   -5.0740   24.9520  -29.2570 N   0  0  0  0  0  0  0  0  0  0  0  0
   -6.2380   25.1970  -30.1110 C   0  0  0  0  0  0  0  0  0  0  0  0
   -7.1010   23.9340  -30.2430 C   0  0  0  0  0  0  0  0  0  0  0  0
   -6.4500   22.8650  -31.1380 C   0  0  0  0  0  0  0  0  0  0  0  0
   -7.3750   22.3640  -32.2600 C   0  0  0  0  0  0  0  0  0  0  0  0
   -8.1550   21.1760  -31.8360 N   0  0  0  0  0  0  0  0  0  0  0  0
   -9.4840   21.5390  -31.3110 C   0  0  0  0  0  0  0  0  0  0  0  0
   -8.1840   20.0100  -32.7630 C   0  0  0  0  0  0  0  0  0  0  0  0
   -7.0570   18.9680  -32.6140 C   0  0  0  0  0  0  0  0  0  0  0  0
   -5.7920   19.1030  -33.9300 S   0  0  0  0  0  0  0  0  0  0  0  0
   -4.5990   19.9780  -32.9150 C   0  0  0  0  0  0  0  0  0  0  0  0
   -3.4910   20.5970  -33.5100 C   0  0  0  0  0  0  0  0  0  0  0  0
   -2.5730   21.2960  -32.7200 C   0  0  0  0  0  0  0  0  0  0  0  0
   -2.7480   21.3620  -31.3350 C   0  0  0  0  0  0  0  0  0  0  0  0
   -3.8480   20.7370  -30.7380 C   0  0  0  0  0  0  0  0  0  0  0  0
   -4.7750   20.0470  -31.5250 C   0  0  0  0  0  0  0  0  0  0  0  0
   -1.7020   24.8790  -28.6180 C   0  0  0  0  0  0  0  0  0  0  0  0
   -0.6440   24.5260  -27.7790 C   0  0  0  0  0  0  0  0  0  0  0  0
   -0.6140   23.2630  -27.1590 C   0  0  0  0  0  0  0  0  0  0  0  0
    0.4410   22.8700  -26.3150 O   0  0  0  0  0  0  0  0  0  0  0  0
    0.5210   23.1290  -24.9140 C   0  0  0  0  0  0  0  0  0  0  0  0
    0.3140   24.5920  -24.6280 C   0  0  0  0  0  0  0  0  0  0  0  0
   -0.9820   25.1190  -24.5060 C   0  0  0  0  0  0  0  0  0  0  0  0
   -1.1670   26.4840  -24.2620 C   0  0  0  0  0  0  0  0  0  0  0  0
   -0.0610   27.3320  -24.1480 C   0  0  0  0  0  0  0  0  0  0  0  0
    1.2300   26.8170  -24.2810 C   0  0  0  0  0  0  0  0  0  0  0  0
    1.4200   25.4530  -24.5240 C   0  0  0  0  0  0  0  0  0  0  0  0
   -1.6514   21.1160  -25.6520 H   0  0  0  0  0  0  0  0  0  0  0  0
   -2.5416   20.4364  -27.0564 H   0  0  0  0  0  0  0  0  0  0  0  0
   -0.7454   20.4576  -27.0564 H   0  0  0  0  0  0  0  0  0  0  0  0
   -3.5406   22.0038  -28.4276 H   0  0  0  0  0  0  0  0  0  0  0  0
   -5.0490   25.4060  -28.3160 H   0  0  0  0  0  0  0  0  0  0  0  0
   -6.8442   26.0021  -29.6701 H   0  0  0  0  0  0  0  0  0  0  0  0
   -5.8833   25.4845  -31.1118 H   0  0  0  0  0  0  0  0  0  0  0  0
   -7.2573   23.5075  -29.2412 H   0  0  0  0  0  0  0  0  0  0  0  0
   -8.0522   24.2272  -30.7113 H   0  0  0  0  0  0  0  0  0  0  0  0
   -5.5475   23.2959  -31.5961 H   0  0  0  0  0  0  0  0  0  0  0  0
   -6.2183   22.0014  -30.4973 H   0  0  0  0  0  0  0  0  0  0  0  0
   -8.0723   23.1695  -32.5339 H   0  0  0  0  0  0  0  0  0  0  0  0
   -6.7498   22.0763  -33.1181 H   0  0  0  0  0  0  0  0  0  0  0  0
   -9.4583   21.5320  -30.2113 H   0  0  0  0  0  0  0  0  0  0  0  0
   -9.7560   22.5443  -31.6650 H   0  0  0  0  0  0  0  0  0  0  0  0
  -10.2293   20.8115  -31.6650 H   0  0  0  0  0  0  0  0  0  0  0  0
   -9.1403   19.4884  -32.6101 H   0  0  0  0  0  0  0  0  0  0  0  0
   -8.0447   20.4394  -33.7661 H   0  0  0  0  0  0  0  0  0  0  0  0
   -6.5682   19.1151  -31.6396 H   0  0  0  0  0  0  0  0  0  0  0  0
   -7.5140   17.9706  -32.6933 H   0  0  0  0  0  0  0  0  0  0  0  0
   -3.3437   20.5329  -34.5982 H   0  0  0  0  0  0  0  0  0  0  0  0
   -1.7120   21.7945  -33.1893 H   0  0  0  0  0  0  0  0  0  0  0  0
   -2.0206   21.9055  -30.7142 H   0  0  0  0  0  0  0  0  0  0  0  0
   -3.9838   20.7885  -29.6476 H   0  0  0  0  0  0  0  0  0  0  0  0
   -5.6413   19.5588  -31.0548 H   0  0  0  0  0  0  0  0  0  0  0  0
   -1.7091   25.8683  -29.0989 H   0  0  0  0  0  0  0  0  0  0  0  0
    0.1730   25.2407  -27.6009 H   0  0  0  0  0  0  0  0  0  0  0  0
   -0.2546   22.5468  -24.3948 H   0  0  0  0  0  0  0  0  0  0  0  0
    1.5205   22.8383  -24.5583 H   0  0  0  0  0  0  0  0  0  0  0  0
   -1.8546   24.4562  -24.6026 H   0  0  0  0  0  0  0  0  0  0  0  0
   -2.1839   26.8908  -24.1597 H   0  0  0  0  0  0  0  0  0  0  0  0
   -0.2080   28.4047  -23.9536 H   0  0  0  0  0  0  0  0  0  0  0  0
    2.0993   27.4855  -24.1945 H   0  0  0  0  0  0  0  0  0  0  0  0
    2.4386   25.0526  -24.6341 H   0  0  0  0  0  0  0  0  0  0  0  0
  1  2  1  0
  2  3  2  0
  3  4  1  0
  4  5  1  0
  5  6  2  0
  5  7  1  0
  7  8  1  0
  8  9  1  0
  9 10  1  0
 10 11  1  0
 11 12  1  0
 12 13  1  0
 12 14  1  0
 14 15  1  0
 15 16  1  0
 16 17  1  0
 17 18  2  0
 18 19  1  0
 19 20  2  0
 20 21  1  0
 21 22  2  0
  4 23  2  0
 23 24  1  0
 24 25  2  0
 25 26  1  0
 26 27  1  0
 27 28  1  0
 28 29  2  0
 29 30  1  0
 30 31  2  0
 31 32  1  0
 32 33  2  0
 25  2  1  0
 33 28  1  0
 22 17  1  0
  1 34  1  0
  1 35  1  0
  1 36  1  0
  3 37  1  0
  7 38  1  0
  8 39  1  0
  8 40  1  0
  9 41  1  0
  9 42  1  0
 10 43  1  0
 10 44  1  0
 11 45  1  0
 11 46  1  0
 13 47  1  0
 13 48  1  0
 13 49  1  0
 14 50  1  0
 14 51  1  0
 15 52  1  0
 15 53  1  0
 18 54  1  0
 19 55  1  0
 20 56  1  0
 21 57  1  0
 22 58  1  0
 23 59  1  0
 24 60  1  0
 27 61  1  0
 27 62  1  0
 29 63  1  0
 30 64  1  0
 31 65  1  0
 32 66  1  0
 33 67  1  0
M  END
>  <UniqueID>  (14) 
13

>  <SMILES>  (14) 
Cc1cc(C(=O)NCCCCN(C)CCSc2ccccc2)ccc1OCc1ccccc1

>  <Energy>  (14) 
72.7389356102692

>  <Genealogy>  (14) 
Cc1cc(C(=O)NCCCCN(C)CCSc2ccccc2)ccc1OCc1ccccc1 (3D coordinates assigned)
Cc1cc(C(=O)NCCCCN(C)CCSc2ccccc2)ccc1OCc1ccccc1 (optimized conformer: 72.7389356102692 kcal/mol)

>  <smiles>  (14) 
Cc1cc(C(=O)NCCCCN(C)CCSc2ccccc2)ccc1OCc1ccccc1

>  <score_type>  (14) 
oracle

>  <origin>  (14) 
adg

>  <m_score__min__energy>  (14) 
-9.6199999999999992

>  <m_primary>  (14) 
energy

$$$$
14:0
     RDKit          3D

 53 57  0  0  0  0  0  0  0  0999 V2000
   -1.9080   18.0260  -33.5050 C   0  0  0  0  0  0  0  0  0  0  0  0
   -3.0590   18.8560  -33.6320 O   0  0  0  0  0  0  0  0  0  0  0  0
   -3.3220   19.9770  -32.8300 C   0  0  0  0  0  0  0  0  0  0  0  0
   -3.6500   21.1820  -33.4600 C   0  0  0  0  0  0  0  0  0  0  0  0
   -3.8890   22.3360  -32.7100 C   0  0  0  0  0  0  0  0  0  0  0  0
   -3.8540   22.2950  -31.3060 C   0  0  0  0  0  0  0  0  0  0  0  0
   -3.5300   21.0810  -30.6710 C   0  0  0  0  0  0  0  0  0  0  0  0
   -3.2540   19.9350  -31.4240 C   0  0  0  0  0  0  0  0  0  0  0  0
   -3.4800   21.0110  -28.8780 S   0  0  0  0  0  0  0  0  0  0  0  0
   -2.5290   22.5270  -28.7430 C   0  0  0  0  0  0  0  0  0  0  0  0
   -1.4700   22.6190  -27.8340 C   0  0  0  0  0  0  0  0  0  0  0  0
   -0.8270   23.8440  -27.6320 C   0  0  0  0  0  0  0  0  0  0  0  0
    0.5960   23.9780  -26.3640 Br  0  0  0  0  0  0  0  0  0  0  0  0
   -1.2420   24.9780  -28.3400 C   0  0  0  0  0  0  0  0  0  0  0  0
   -2.2830   24.8840  -29.2740 C   0  0  0  0  0  0  0  0  0  0  0  0
   -2.9260   23.6540  -29.4870 C   0  0  0  0  0  0  0  0  0  0  0  0
   -3.9220   23.5100  -30.5220 N   0  0  0  0  0  0  0  0  0  0  0  0
   -5.1880   24.2460  -30.3480 C   0  0  0  0  0  0  0  0  0  0  0  0
   -6.3980   23.3960  -30.5810 C   0  0  0  0  0  0  0  0  0  0  0  0
   -7.0860   22.6870  -29.6030 C   0  0  0  0  0  0  0  0  0  0  0  0
   -8.1340   21.9210  -30.1170 C   0  0  0  0  0  0  0  0  0  0  0  0
   -8.2690   22.0270  -31.4960 C   0  0  0  0  0  0  0  0  0  0  0  0
   -9.2080   21.2200  -32.3460 C   0  0  0  0  0  0  0  0  0  0  0  0
   -8.5590   19.9850  -32.8400 N   0  0  0  0  0  0  0  0  0  0  0  0
   -7.1030   20.1240  -33.0060 C   0  0  0  0  0  0  0  0  0  0  0  0
   -6.4860   18.7490  -32.7740 C   0  0  0  0  0  0  0  0  0  0  0  0
   -7.5770   17.9140  -32.1240 C   0  0  0  0  0  0  0  0  0  0  0  0
   -8.7390   18.8690  -31.9040 C   0  0  0  0  0  0  0  0  0  0  0  0
   -7.0840   23.0670  -32.0850 S   0  0  0  0  0  0  0  0  0  0  0  0
   -1.6868   17.8665  -32.4394 H   0  0  0  0  0  0  0  0  0  0  0  0
   -2.0996   17.0569  -33.9888 H   0  0  0  0  0  0  0  0  0  0  0  0
   -1.0490   18.5138  -33.9888 H   0  0  0  0  0  0  0  0  0  0  0  0
   -3.7204   21.2213  -34.5570 H   0  0  0  0  0  0  0  0  0  0  0  0
   -4.1064   23.2846  -33.2228 H   0  0  0  0  0  0  0  0  0  0  0  0
   -2.9829   18.9977  -30.9162 H   0  0  0  0  0  0  0  0  0  0  0  0
   -1.1431   21.7278  -27.2782 H   0  0  0  0  0  0  0  0  0  0  0  0
   -0.7498   25.9457  -28.1629 H   0  0  0  0  0  0  0  0  0  0  0  0
   -2.5962   25.7737  -29.8400 H   0  0  0  0  0  0  0  0  0  0  0  0
   -5.2273   24.6370  -29.3206 H   0  0  0  0  0  0  0  0  0  0  0  0
   -5.2043   25.0521  -31.0962 H   0  0  0  0  0  0  0  0  0  0  0  0
   -6.8308   22.7255  -28.5337 H   0  0  0  0  0  0  0  0  0  0  0  0
   -8.7882   21.2953  -29.4921 H   0  0  0  0  0  0  0  0  0  0  0  0
  -10.0890   20.9468  -31.7466 H   0  0  0  0  0  0  0  0  0  0  0  0
   -9.5015   21.8291  -33.2137 H   0  0  0  0  0  0  0  0  0  0  0  0
   -8.9830   19.7140  -33.7620 H   0  0  0  0  0  0  0  0  0  0  0  0
   -6.8719   20.4734  -34.0231 H   0  0  0  0  0  0  0  0  0  0  0  0
   -6.6984   20.8574  -32.2930 H   0  0  0  0  0  0  0  0  0  0  0  0
   -6.1778   18.3005  -33.7300 H   0  0  0  0  0  0  0  0  0  0  0  0
   -5.5881   18.8080  -32.1413 H   0  0  0  0  0  0  0  0  0  0  0  0
   -7.8769   17.0892  -32.7871 H   0  0  0  0  0  0  0  0  0  0  0  0
   -7.2374   17.4590  -31.1819 H   0  0  0  0  0  0  0  0  0  0  0  0
   -9.6919   18.3574  -32.1046 H   0  0  0  0  0  0  0  0  0  0  0  0
   -8.7614   19.2277  -30.8644 H   0  0  0  0  0  0  0  0  0  0  0  0
  1  2  1  0
  2  3  1  0
  3  4  2  0
  4  5  1  0
  5  6  2  0
  6  7  1  0
  7  8  2  0
  7  9  1  0
  9 10  1  0
 10 11  2  0
 11 12  1  0
 12 13  1  0
 12 14  2  0
 14 15  1  0
 15 16  2  0
 16 17  1  0
 17 18  1  0
 18 19  1  0
 19 20  2  0
 20 21  1  0
 21 22  2  0
 22 23  1  0
 23 24  1  0
 24 25  1  0
 25 26  1  0
 26 27  1  0
 27 28  1  0
 22 29  1  0
  8  3  1  0
 16 10  1  0
 29 19  1  0
 17  6  1  0
 28 24  1  0
  1 30  1  0
  1 31  1  0
  1 32  1  0
  4 33  1  0
  5 34  1  0
  8 35  1  0
 11 36  1  0
 14 37  1  0
 15 38  1  0
 18 39  1  0
 18 40  1  0
 20 41  1  0
 21 42  1  0
 23 43  1  0
 23 44  1  0
 24 45  1  0
 25 46  1  0
 25 47  1  0
 26 48  1  0
 26 49  1  0
 27 50  1  0
 27 51  1  0
 28 52  1  0
 28 53  1  0
M  CHG  1  24   1
M  END
>  <UniqueID>  (15) 
14

>  <SMILES>  (15) 
COc1ccc2c(c1)Sc1cc(Br)ccc1N2Cc1ccc(C[NH+]2CCCC2)s1

>  <Energy>  (15) 
105.04515321963356

>  <Genealogy>  (15) 
COc1ccc2c(c1)Sc1cc(Br)ccc1N2Cc1ccc(C[NH+]2CCCC2)s1 (protonated)
COc1ccc2c(c1)Sc1cc(Br)ccc1N2Cc1ccc(C[NH+]2CCCC2)s1 (3D coordinates assigned)
COc1ccc2c(c1)Sc1cc(Br)ccc1N2Cc1ccc(C[NH+]2CCCC2)s1 (nonaromatic ring conformer: 105.04515321963356 kcal/mol)

>  <smiles>  (15) 
COc1ccc2c(c1)Sc1cc(Br)ccc1N2Cc1ccc(CN2CCCC2)s1

>  <score_type>  (15) 
oracle

>  <origin>  (15) 
adg

>  <m_score__min__energy>  (15) 
-8.5399999999999991

>  <m_primary>  (15) 
energy

$$$$
15:0
     RDKit          3D

 32 32  0  0  0  0  0  0  0  0999 V2000
   -3.9670   22.8250  -27.8360 C   0  0  0  0  0  0  0  0  0  0  0  0
   -3.2300   23.8810  -28.6560 C   0  0  0  0  0  0  0  0  0  0  0  0
   -3.3860   23.6600  -30.1650 C   0  0  0  0  0  0  0  0  0  0  0  0
   -3.7460   24.9210  -30.8350 N   0  0  0  0  0  0  0  0  0  0  0  0
   -5.1180   25.3380  -30.5160 C   0  0  0  0  0  0  0  0  0  0  0  0
   -6.0800   24.1390  -30.5390 C   0  0  0  0  0  0  0  0  0  0  0  0
   -6.5870   23.7820  -31.9480 C   0  0  0  0  0  0  0  0  0  0  0  0
   -7.3430   22.4760  -31.9840 C   0  0  0  0  0  0  0  0  0  0  0  0
   -6.6890   21.2850  -32.3460 C   0  0  0  0  0  0  0  0  0  0  0  0
   -7.4000   20.0820  -32.4040 C   0  0  0  0  0  0  0  0  0  0  0  0
   -8.7610   20.0540  -32.0900 C   0  0  0  0  0  0  0  0  0  0  0  0
   -9.4140   21.2320  -31.7120 C   0  0  0  0  0  0  0  0  0  0  0  0
   -8.7080   22.4380  -31.6550 C   0  0  0  0  0  0  0  0  0  0  0  0
   -3.8252   23.0282  -26.7643 H   0  0  0  0  0  0  0  0  0  0  0  0
   -5.0399   22.8570  -28.0765 H   0  0  0  0  0  0  0  0  0  0  0  0
   -3.5669   21.8290  -28.0765 H   0  0  0  0  0  0  0  0  0  0  0  0
   -3.6329   24.8721  -28.4002 H   0  0  0  0  0  0  0  0  0  0  0  0
   -2.1594   23.8077  -28.4143 H   0  0  0  0  0  0  0  0  0  0  0  0
   -2.4358   23.2893  -30.5770 H   0  0  0  0  0  0  0  0  0  0  0  0
   -4.1856   22.9243  -30.3367 H   0  0  0  0  0  0  0  0  0  0  0  0
   -3.0960   25.6700  -30.4950 H   0  0  0  0  0  0  0  0  0  0  0  0
   -5.1321   25.7908  -29.5136 H   0  0  0  0  0  0  0  0  0  0  0  0
   -5.4473   26.0649  -31.2730 H   0  0  0  0  0  0  0  0  0  0  0  0
   -5.5556   23.2645  -30.1263 H   0  0  0  0  0  0  0  0  0  0  0  0
   -6.9597   24.4200  -29.9414 H   0  0  0  0  0  0  0  0  0  0  0  0
   -7.2547   24.5843  -32.2950 H   0  0  0  0  0  0  0  0  0  0  0  0
   -5.7070   23.6734  -32.5990 H   0  0  0  0  0  0  0  0  0  0  0  0
   -5.6152   21.2995  -32.5842 H   0  0  0  0  0  0  0  0  0  0  0  0
   -6.8859   19.1549  -32.6978 H   0  0  0  0  0  0  0  0  0  0  0  0
   -9.3184   19.1070  -32.1399 H   0  0  0  0  0  0  0  0  0  0  0  0
  -10.4843   21.2097  -31.4592 H   0  0  0  0  0  0  0  0  0  0  0  0
   -9.2240   23.3608  -31.3512 H   0  0  0  0  0  0  0  0  0  0  0  0
  1  2  1  0
  2  3  1  0
  3  4  1  0
  4  5  1  0
  5  6  1  0
  6  7  1  0
  7  8  1  0
  8  9  2  0
  9 10  1  0
 10 11  2  0
 11 12  1  0
 12 13  2  0
 13  8  1  0
  1 14  1  0
  1 15  1  0
  1 16  1  0
  2 17  1  0
  2 18  1  0
  3 19  1  0
  3 20  1  0
  4 21  1  0
  5 22  1  0
  5 23  1  0
  6 24  1  0
  6 25  1  0
  7 26  1  0
  7 27  1  0
  9 28  1  0
 10 29  1  0
 11 30  1  0
 12 31  1  0
 13 32  1  0
M  END
>  <UniqueID>  (16) 
15

>  <SMILES>  (16) 
CCCNCCCc1ccccc1

>  <Energy>  (16) 
21.012643426091536

>  <Genealogy>  (16) 
CCCNCCCc1ccccc1 (3D coordinates assigned)
CCCNCCCc1ccccc1 (optimized conformer: 21.012643426091536 kcal/mol)

>  <smiles>  (16) 
CCCNCCCc1ccccc1

>  <score_type>  (16) 
oracle

>  <origin>  (16) 
adg

>  <m_score__min__energy>  (16) 
-6.4299999999999997

>  <m_primary>  (16) 
energy

$$$$
16:0
     RDKit          3D

 47 50  0  0  0  0  0  0  0  0999 V2000
   -5.6510   25.8050  -30.1490 C   0  0  0  0  0  0  0  0  0  0  0  0
   -4.8900   25.0020  -31.0460 O   0  0  0  0  0  0  0  0  0  0  0  0
   -4.9810   23.6040  -31.1300 C   0  0  0  0  0  0  0  0  0  0  0  0
   -6.1460   23.0460  -31.6590 C   0  0  0  0  0  0  0  0  0  0  0  0
   -6.2640   21.6640  -31.8020 C   0  0  0  0  0  0  0  0  0  0  0  0
   -5.2330   20.8240  -31.3780 C   0  0  0  0  0  0  0  0  0  0  0  0
   -4.0890   21.3480  -30.7420 C   0  0  0  0  0  0  0  0  0  0  0  0
   -2.9140   20.4430  -30.3460 C   0  0  1  0  0  0  0  0  0  0  0  0
   -1.8230   20.2370  -31.3810 C   0  0  0  0  0  0  0  0  0  0  0  0
   -1.6780   19.0260  -32.0930 C   0  0  0  0  0  0  0  0  0  0  0  0
   -0.6700   18.8760  -33.0470 C   0  0  0  0  0  0  0  0  0  0  0  0
   -0.4860   17.2230  -33.9860 Br  0  0  0  0  0  0  0  0  0  0  0  0
    0.1940   19.9350  -33.3220 C   0  0  0  0  0  0  0  0  0  0  0  0
    0.0280   21.1580  -32.6710 C   0  0  0  0  0  0  0  0  0  0  0  0
   -0.9990   21.3340  -31.7340 C   0  0  0  0  0  0  0  0  0  0  0  0
   -1.1530   22.6330  -31.1390 N   0  0  0  0  0  0  0  0  0  0  0  0
   -1.1560   22.9600  -29.7400 C   0  0  0  0  0  0  0  0  0  0  0  0
   -0.4910   23.9570  -29.3530 O   0  0  0  0  0  0  0  0  0  0  0  0
   -2.0100   22.2200  -28.7360 C   0  0  0  0  0  0  0  0  0  0  0  0
   -2.2550   20.8070  -29.0750 N   0  0  0  0  0  0  0  0  0  0  0  0
   -2.0760   19.8580  -28.0040 C   0  0  0  0  0  0  0  0  0  0  0  0
   -2.9460   19.7760  -27.0960 O   0  0  0  0  0  0  0  0  0  0  0  0
   -0.9180   18.9550  -27.9660 C   0  0  0  0  0  0  0  0  0  0  0  0
    0.1920   19.1890  -28.7880 C   0  0  0  0  0  0  0  0  0  0  0  0
    1.2810   18.3180  -28.7480 C   0  0  0  0  0  0  0  0  0  0  0  0
    1.2430   17.2140  -27.8950 C   0  0  0  0  0  0  0  0  0  0  0  0
    0.1490   16.9860  -27.1190 N   0  0  0  0  0  0  0  0  0  0  0  0
   -0.9260   17.8220  -27.1420 C   0  0  0  0  0  0  0  0  0  0  0  0
   -3.9420   22.7530  -30.7080 C   0  0  0  0  0  0  0  0  0  0  0  0
   -5.3976   25.5376  -29.1125 H   0  0  0  0  0  0  0  0  0  0  0  0
   -5.4197   26.8666  -30.3209 H   0  0  0  0  0  0  0  0  0  0  0  0
   -6.7235   25.6310  -30.3209 H   0  0  0  0  0  0  0  0  0  0  0  0
   -6.9757   23.7002  -31.9648 H   0  0  0  0  0  0  0  0  0  0  0  0
   -7.1721   21.2345  -32.2502 H   0  0  0  0  0  0  0  0  0  0  0  0
   -5.3141   19.7393  -31.5422 H   0  0  0  0  0  0  0  0  0  0  0  0
   -3.4564   19.4921  -30.2381 H   0  0  0  0  0  0  0  0  0  0  0  0
   -2.3669   18.1919  -31.8937 H   0  0  0  0  0  0  0  0  0  0  0  0
    1.0066   19.8065  -34.0522 H   0  0  0  0  0  0  0  0  0  0  0  0
    0.7096   21.9917  -32.8954 H   0  0  0  0  0  0  0  0  0  0  0  0
   -1.5050   22.2577  -27.7595 H   0  0  0  0  0  0  0  0  0  0  0  0
   -2.9910   22.7175  -28.7285 H   0  0  0  0  0  0  0  0  0  0  0  0
    0.2049   20.0573  -29.4632 H   0  0  0  0  0  0  0  0  0  0  0  0
    2.1610   18.4996  -29.3825 H   0  0  0  0  0  0  0  0  0  0  0  0
    2.1002   16.5261  -27.8500 H   0  0  0  0  0  0  0  0  0  0  0  0
    0.1340   16.1530  -26.4900 H   0  0  0  0  0  0  0  0  0  0  0  0
   -1.8021   17.6072  -26.5125 H   0  0  0  0  0  0  0  0  0  0  0  0
   -2.9995   23.1893  -30.3456 H   0  0  0  0  0  0  0  0  0  0  0  0
  1  2  1  0
  2  3  1  0
  3  4  2  0
  4  5  1  0
  5  6  2  0
  6  7  1  0
  7  8  1  0
  8  9  1  0
  9 10  2  0
 10 11  1  0
 11 12  1  0
 11 13  2  0
 13 14  1  0
 14 15  2  0
 15 16  1  0
 16 17  1  0
 17 18  2  0
 17 19  1  0
 19 20  1  0
 20 21  1  0
 21 22  2  0
 21 23  1  0
 23 24  2  0
 24 25  1  0
 25 26  2  0
 26 27  1  0
 27 28  2  0
  7 29  2  0
 29  3  1  0
 20  8  1  0
 28 23  1  0
 15  9  1  0
  1 30  1  0
  1 31  1  0
  1 32  1  0
  4 33  1  0
  5 34  1  0
  6 35  1  0
  8 36  1  1
 10 37  1  0
 13 38  1  0
 14 39  1  0
 19 40  1  0
 19 41  1  0
 24 42  1  0
 25 43  1  0
 26 44  1  0
 27 45  1  0
 28 46  1  0
 29 47  1  0
M  CHG  2  16  -1  27   1
M  END
>  <UniqueID>  (17) 
16

>  <SMILES>  (17) 
COc1cccc([C@H]2c3cc(Br)ccc3[N-]C(=O)CN2C(=O)c2ccc[nH+]c2)c1

>  <Energy>  (17) 
76.62902202558189

>  <Genealogy>  (17) 
COc1cccc(C2c3cc(Br)ccc3[N-]C(=O)CN2C(=O)c2ccc[nH+]c2)c1 (protonated)
COc1cccc([C@H]2c3cc(Br)ccc3[N-]C(=O)CN2C(=O)c2ccc[nH+]c2)c1 (chirality)
COc1cccc([C@H]2c3cc(Br)ccc3[N-]C(=O)CN2C(=O)c2ccc[nH+]c2)c1 (3D coordinates assigned)
COc1cccc([C@H]2c3cc(Br)ccc3[N-]C(=O)CN2C(=O)c2ccc[nH+]c2)c1 (nonaromatic ring conformer: 76.62902202558189 kcal/mol)

>  <smiles>  (17) 
COc1cccc(C2c3cc(Br)ccc3NC(=O)CN2C(=O)c2cccnc2)c1

>  <score_type>  (17) 
oracle

>  <origin>  (17) 
adg

>  <m_score__min__energy>  (17) 
-8.4700000000000006

>  <m_primary>  (17) 
energy

$$$$
17:0
     RDKit          3D

 56 59  0  0  0  0  0  0  0  0999 V2000
   -6.1990   25.7240  -29.3230 C   0  0  0  0  0  0  0  0  0  0  0  0
   -6.8870   25.1490  -30.4300 O   0  0  0  0  0  0  0  0  0  0  0  0
   -6.5450   23.9260  -31.0250 C   0  0  0  0  0  0  0  0  0  0  0  0
   -5.3690   23.2900  -30.6090 C   0  0  0  0  0  0  0  0  0  0  0  0
   -4.9820   22.0720  -31.1740 C   0  0  0  0  0  0  0  0  0  0  0  0
   -5.7610   21.4760  -32.1780 C   0  0  0  0  0  0  0  0  0  0  0  0
   -5.3650   20.2160  -32.7630 N   0  0  0  0  0  0  0  0  0  0  0  0
   -4.1620   20.0950  -33.4170 C   0  0  0  0  0  0  0  0  0  0  0  0
   -2.9550   21.4350  -33.4570 S   0  0  0  0  0  0  0  0  0  0  0  0
   -1.5440   20.3950  -32.9400 C   0  0  0  0  0  0  0  0  0  0  0  0
   -1.0720   19.5140  -34.0790 C   0  0  0  0  0  0  0  0  0  0  0  0
   -0.6930   20.0850  -35.0930 O   0  0  0  0  0  0  0  0  0  0  0  0
   -1.0060   18.0510  -34.0300 N   0  0  0  0  0  0  0  0  0  0  0  0
   -0.1690   17.3850  -35.0580 C   0  0  0  0  0  0  0  0  0  0  0  0
   -0.8590   16.2200  -35.8030 C   0  0  0  0  0  0  0  0  0  0  0  0
   -1.5780   15.2590  -34.8450 C   0  0  0  0  0  0  0  0  0  0  0  0
   -0.8850   15.0960  -33.4810 C   0  0  0  0  0  0  0  0  0  0  0  0
   -1.2850   16.1200  -32.4050 C   0  0  0  0  0  0  0  0  0  0  0  0
   -0.7410   17.5420  -32.6590 C   0  0  0  0  0  0  0  0  0  0  0  0
   -3.8320   18.9310  -34.0320 N   0  0  0  0  0  0  0  0  0  0  0  0
   -4.6480   17.8510  -33.9960 C   0  0  0  0  0  0  0  0  0  0  0  0
   -4.2640   16.6630  -34.6280 C   0  0  0  0  0  0  0  0  0  0  0  0
   -5.1010   15.5450  -34.5810 C   0  0  0  0  0  0  0  0  0  0  0  0
   -6.3220   15.6100  -33.9030 C   0  0  0  0  0  0  0  0  0  0  0  0
   -6.7120   16.7950  -33.2710 C   0  0  0  0  0  0  0  0  0  0  0  0
   -5.8750   17.9260  -33.3130 C   0  0  0  0  0  0  0  0  0  0  0  0
   -6.2220   19.1440  -32.7010 C   0  0  0  0  0  0  0  0  0  0  0  0
   -7.3340   19.2510  -32.1100 O   0  0  0  0  0  0  0  0  0  0  0  0
   -6.9500   22.1020  -32.5830 C   0  0  0  0  0  0  0  0  0  0  0  0
   -7.3380   23.3200  -32.0170 C   0  0  0  0  0  0  0  0  0  0  0  0
   -6.6403   25.3552  -28.3853 H   0  0  0  0  0  0  0  0  0  0  0  0
   -5.1368   25.4412  -29.3644 H   0  0  0  0  0  0  0  0  0  0  0  0
   -6.2887   26.8196  -29.3644 H   0  0  0  0  0  0  0  0  0  0  0  0
   -4.7445   23.7531  -29.8308 H   0  0  0  0  0  0  0  0  0  0  0  0
   -4.0616   21.5775  -30.8300 H   0  0  0  0  0  0  0  0  0  0  0  0
   -0.7159   21.0451  -32.6212 H   0  0  0  0  0  0  0  0  0  0  0  0
   -1.8696   19.7503  -32.1103 H   0  0  0  0  0  0  0  0  0  0  0  0
   -1.9810   17.7420  -34.2500 H   0  0  0  0  0  0  0  0  0  0  0  0
    0.1244   18.1404  -35.8018 H   0  0  0  0  0  0  0  0  0  0  0  0
    0.6861   16.9461  -34.5231 H   0  0  0  0  0  0  0  0  0  0  0  0
   -1.5962   16.6366  -36.5052 H   0  0  0  0  0  0  0  0  0  0  0  0
   -0.0799   15.6493  -36.3295 H   0  0  0  0  0  0  0  0  0  0  0  0
   -2.5952   15.6404  -34.6722 H   0  0  0  0  0  0  0  0  0  0  0  0
   -1.5710   14.2690  -35.3245 H   0  0  0  0  0  0  0  0  0  0  0  0
   -1.1232   14.0926  -33.0983 H   0  0  0  0  0  0  0  0  0  0  0  0
    0.1869   15.2586  -33.6670 H   0  0  0  0  0  0  0  0  0  0  0  0
   -2.3832   16.1713  -32.3674 H   0  0  0  0  0  0  0  0  0  0  0  0
   -0.8446   15.7751  -31.4578 H   0  0  0  0  0  0  0  0  0  0  0  0
   -1.2114   18.2269  -31.9381 H   0  0  0  0  0  0  0  0  0  0  0  0
    0.3516   17.4920  -32.5421 H   0  0  0  0  0  0  0  0  0  0  0  0
   -3.3036   16.6092  -35.1616 H   0  0  0  0  0  0  0  0  0  0  0  0
   -4.7986   14.6117  -35.0785 H   0  0  0  0  0  0  0  0  0  0  0  0
   -6.9773   14.7272  -33.8666 H   0  0  0  0  0  0  0  0  0  0  0  0
   -7.6743   16.8433  -32.7403 H   0  0  0  0  0  0  0  0  0  0  0  0
   -7.5810   21.6310  -33.3511 H   0  0  0  0  0  0  0  0  0  0  0  0
   -8.2671   23.8067  -32.3485 H   0  0  0  0  0  0  0  0  0  0  0  0
  1  2  1  0
  2  3  1  0
  3  4  2  0
  4  5  1  0
  5  6  2  0
  6  7  1  0
  7  8  1  0
  8  9  1  0
  9 10  1  0
 10 11  1  0
 11 12  2  0
 11 13  1  0
 13 14  1  0
 14 15  1  0
 15 16  1  0
 16 17  1  0
 17 18  1  0
 18 19  1  0
  8 20  2  0
 20 21  1  0
 21 22  2  0
 22 23  1  0
 23 24  2  0
 24 25  1  0
 25 26  2  0
 26 27  1  0
 27 28  2  0
  6 29  1  0
 29 30  2  0
 30  3  1  0
 27  7  1  0
 19 13  1  0
 26 21  1  0
  1 31  1  0
  1 32  1  0
  1 33  1  0
  4 34  1  0
  5 35  1  0
 10 36  1  0
 10 37  1  0
 13 38  1  0
 14 39  1  0
 14 40  1  0
 15 41  1  0
 15 42  1  0
 16 43  1  0
 16 44  1  0
 17 45  1  0
 17 46  1  0
 18 47  1  0
 18 48  1  0
 19 49  1  0
 19 50  1  0
 22 51  1  0
 23 52  1  0
 24 53  1  0
 25 54  1  0
 29 55  1  0
 30 56  1  0
M  CHG  1  13   1
M  END
>  <UniqueID>  (18) 
17

>  <SMILES>  (18) 
COc1ccc(-n2c(SCC(=O)[NH+]3CCCCCC3)nc3ccccc3c2=O)cc1

>  <Energy>  (18) 
81.30421555186291

>  <Genealogy>  (18) 
COc1ccc(-n2c(SCC(=O)[NH+]3CCCCCC3)nc3ccccc3c2=O)cc1 (protonated)
COc1ccc(-n2c(SCC(=O)[NH+]3CCCCCC3)nc3ccccc3c2=O)cc1 (3D coordinates assigned)
COc1ccc(-n2c(SCC(=O)[NH+]3CCCCCC3)nc3ccccc3c2=O)cc1 (nonaromatic ring conformer: 81.30421555186291 kcal/mol)

>  <smiles>  (18) 
COc1ccc(-n2c(SCC(=O)N3CCCCCC3)nc3ccccc3c2=O)cc1

>  <score_type>  (18) 
oracle

>  <origin>  (18) 
adg

>  <m_score__min__energy>  (18) 
-6.04

>  <m_primary>  (18) 
energy

$$$$
18:0
     RDKit          3D

 53 55  0  0  0  0  0  0  0  0999 V2000
   -8.4269   23.1996  -30.0970 H   0  0  0  0  0  0  0  0  0  0  0  0
   -7.6560   23.0340  -30.8640 C   0  0  0  0  0  0  0  0  0  0  0  0
   -8.0110   22.4320  -32.0050 C   0  0  0  0  0  0  0  0  0  0  0  0
   -8.3480   23.0454  -32.8536 H   0  0  0  0  0  0  0  0  0  0  0  0
   -7.9610   20.9620  -32.1520 C   0  0  0  0  0  0  0  0  0  0  0  0
   -9.1040   20.2330  -31.7980 C   0  0  0  0  0  0  0  0  0  0  0  0
   -9.9870   20.7544  -31.4000 H   0  0  0  0  0  0  0  0  0  0  0  0
   -9.1230   18.8460  -31.9500 C   0  0  0  0  0  0  0  0  0  0  0  0
  -10.0277   18.2782  -31.6872 H   0  0  0  0  0  0  0  0  0  0  0  0
   -8.0290   18.1950  -32.4210 N   0  0  0  0  0  0  0  0  0  0  0  0
   -6.8890   18.8560  -32.7510 C   0  0  0  0  0  0  0  0  0  0  0  0
   -5.7800   18.1320  -33.2080 C   0  0  0  0  0  0  0  0  0  0  0  0
   -5.8473   17.0402  -33.3243 H   0  0  0  0  0  0  0  0  0  0  0  0
   -4.5900   18.7930  -33.5160 C   0  0  0  0  0  0  0  0  0  0  0  0
   -3.7237   18.2214  -33.8804 H   0  0  0  0  0  0  0  0  0  0  0  0
   -4.4960   20.1770  -33.3630 C   0  0  0  0  0  0  0  0  0  0  0  0
   -3.5529   20.6913  -33.5996 H   0  0  0  0  0  0  0  0  0  0  0  0
   -5.5960   20.9130  -32.9100 C   0  0  0  0  0  0  0  0  0  0  0  0
   -5.5107   22.0023  -32.7830 H   0  0  0  0  0  0  0  0  0  0  0  0
   -6.8150   20.2650  -32.6150 C   0  0  0  0  0  0  0  0  0  0  0  0
   -6.2740   23.4880  -30.5850 C   0  0  0  0  0  0  0  0  0  0  0  0
   -5.8790   24.8270  -30.7580 C   0  0  0  0  0  0  0  0  0  0  0  0
   -6.6030   25.5665  -31.1309 H   0  0  0  0  0  0  0  0  0  0  0  0
   -4.5720   25.2240  -30.4590 C   0  0  0  0  0  0  0  0  0  0  0  0
   -4.2764   26.2755  -30.5893 H   0  0  0  0  0  0  0  0  0  0  0  0
   -3.6360   24.2890  -29.9940 C   0  0  0  0  0  0  0  0  0  0  0  0
   -2.2870   24.6740  -29.6910 N   0  0  0  0  0  0  0  0  0  0  0  0
   -2.0400   25.6890  -29.7480 H   0  0  0  0  0  0  0  0  0  0  0  0
   -1.3420   23.7940  -29.0040 C   0  0  0  0  0  0  0  0  0  0  0  0
   -0.5209   23.5366  -29.6892 H   0  0  0  0  0  0  0  0  0  0  0  0
   -1.8667   22.8805  -28.6874 H   0  0  0  0  0  0  0  0  0  0  0  0
   -0.7690   24.4960  -27.7680 C   0  0  0  0  0  0  0  0  0  0  0  0
    0.2963   24.7115  -27.9375 H   0  0  0  0  0  0  0  0  0  0  0  0
   -0.8929   23.8341  -26.8982 H   0  0  0  0  0  0  0  0  0  0  0  0
   -1.4850   25.7660  -27.5030 N   0  0  0  0  0  0  0  0  0  0  0  0
   -2.3730   25.6510  -26.3140 C   0  0  0  0  0  0  0  0  0  0  0  0
   -2.6353   26.6581  -25.9576 H   0  0  0  0  0  0  0  0  0  0  0  0
   -1.8443   25.0987  -25.5231 H   0  0  0  0  0  0  0  0  0  0  0  0
   -3.6480   24.8980  -26.6800 C   0  0  0  0  0  0  0  0  0  0  0  0
   -4.1688   24.5904  -25.7612 H   0  0  0  0  0  0  0  0  0  0  0  0
   -4.3041   25.5536  -27.2714 H   0  0  0  0  0  0  0  0  0  0  0  0
   -3.3906   24.0069  -27.2714 H   0  0  0  0  0  0  0  0  0  0  0  0
   -0.5180   26.8810  -27.3660 C   0  0  0  0  0  0  0  0  0  0  0  0
    0.4122   26.6125  -27.8882 H   0  0  0  0  0  0  0  0  0  0  0  0
   -0.9698   27.7829  -27.8047 H   0  0  0  0  0  0  0  0  0  0  0  0
   -0.1970   27.1730  -25.9010 C   0  0  0  0  0  0  0  0  0  0  0  0
   -0.8555   26.5739  -25.2549 H   0  0  0  0  0  0  0  0  0  0  0  0
    0.8522   26.9133  -25.6967 H   0  0  0  0  0  0  0  0  0  0  0  0
   -0.3565   28.2420  -25.6967 H   0  0  0  0  0  0  0  0  0  0  0  0
   -4.0390   22.9640  -29.7820 C   0  0  0  0  0  0  0  0  0  0  0  0
   -3.3210   22.2312  -29.3851 H   0  0  0  0  0  0  0  0  0  0  0  0
   -5.3490   22.5670  -30.0720 C   0  0  0  0  0  0  0  0  0  0  0  0
   -5.6555   21.5253  -29.8964 H   0  0  0  0  0  0  0  0  0  0  0  0
  1  2  1  0
  2  3  2  0
  3  4  1  0
  3  5  1  0
  5  6  2  0
  6  7  1  0
  6  8  1  0
  8  9  1  0
  8 10  2  0
 10 11  1  0
 11 12  2  0
 12 13  1  0
 12 14  1  0
 14 15  1  0
 14 16  2  0
 16 17  1  0
 16 18  1  0
 18 19  1  0
 18 20  2  0
  2 21  1  0
 21 22  2  0
 22 23  1  0
 22 24  1  0
 24 25  1  0
 24 26  2  0
 26 27  1  0
 27 28  1  0
 27 29  1  0
 29 30  1  0
 29 31  1  0
 29 32  1  0
 32 33  1  0
 32 34  1  0
 32 35  1  0
 35 36  1  0
 36 37  1  0
 36 38  1  0
 36 39  1  0
 39 40  1  0
 39 41  1  0
 39 42  1  0
 35 43  1  0
 43 44  1  0
 43 45  1  0
 43 46  1  0
 46 47  1  0
 46 48  1  0
 46 49  1  0
 26 50  1  0
 50 51  1  0
 50 52  2  0
 52 53  1  0
 20  5  1  0
 52 21  1  0
 20 11  1  0
M  END
>  <UniqueID>  (19) 
18

>  <SMILES>  (19) 
CCN(CC)CCNc1ccc(/C=C/c2ccnc3ccccc23)cc1

>  <Energy>  (19) 
66.7915160196594

>  <Genealogy>  (19) 
CCN(CC)CCNc1ccc(/C=C/c2ccnc3ccccc23)cc1 (cis-trans isomerization)
CCN(CC)CCNc1ccc(/C=C/c2ccnc3ccccc23)cc1 (3D coordinates assigned)
CCN(CC)CCNc1ccc(/C=C/c2ccnc3ccccc23)cc1 (optimized conformer: 66.7915160196594 kcal/mol)

>  <smiles>  (19) 
CCN(CC)CCNc1ccc(C=Cc2ccnc3ccccc23)cc1

>  <score_type>  (19) 
oracle

>  <origin>  (19) 
adg

>  <m_score__min__energy>  (19) 
-9.4499999999999993

>  <m_primary>  (19) 
energy

$$$$
19:0
     RDKit          3D

 55 58  0  0  0  0  0  0  0  0999 V2000
   -9.1670   22.7490  -31.9680 C   0  0  0  0  0  0  0  0  0  0  0  0
   -9.0550   21.5260  -31.0480 C   0  0  0  0  0  0  0  0  0  0  0  0
   -8.1790   20.4460  -31.5700 N   0  0  0  0  0  0  0  0  0  0  0  0
   -8.8370   19.1220  -31.6620 C   0  0  0  0  0  0  0  0  0  0  0  0
   -7.8400   18.0010  -31.9590 C   0  0  0  0  0  0  0  0  0  0  0  0
   -7.5380   20.8320  -32.8460 C   0  0  0  0  0  0  0  0  0  0  0  0
   -6.0500   20.5890  -32.7990 C   0  0  0  0  0  0  0  0  0  0  0  0
   -5.0780   21.3630  -32.1610 C   0  0  0  0  0  0  0  0  0  0  0  0
   -5.2900   22.5850  -31.3610 C   0  0  0  0  0  0  0  0  0  0  0  0
   -5.9180   23.6970  -31.9480 C   0  0  0  0  0  0  0  0  0  0  0  0
   -6.1210   24.8650  -31.2070 C   0  0  0  0  0  0  0  0  0  0  0  0
   -5.6870   24.9380  -29.8810 C   0  0  0  0  0  0  0  0  0  0  0  0
   -5.0390   23.8460  -29.2970 C   0  0  0  0  0  0  0  0  0  0  0  0
   -4.8340   22.6760  -30.0350 C   0  0  0  0  0  0  0  0  0  0  0  0
   -3.8420   20.8870  -32.4520 N   0  0  0  0  0  0  0  0  0  0  0  0
   -4.0840   19.8200  -33.2400 C   0  0  0  0  0  0  0  0  0  0  0  0
   -3.1280   18.9900  -33.8350 C   0  0  0  0  0  0  0  0  0  0  0  0
   -1.7160   19.1620  -33.6110 N   0  0  0  0  0  0  0  0  0  0  0  0
   -0.9830   20.2580  -34.2490 C   0  0  0  0  0  0  0  0  0  0  0  0
    0.1720   20.6970  -33.3430 C   0  0  0  0  0  0  0  0  0  0  0  0
    0.9730   19.5880  -32.9780 O   0  0  0  0  0  0  0  0  0  0  0  0
    0.2180   18.6920  -32.1840 C   0  0  0  0  0  0  0  0  0  0  0  0
   -0.9340   18.0870  -32.9930 C   0  0  0  0  0  0  0  0  0  0  0  0
   -3.6080   17.9650  -34.6700 C   0  0  0  0  0  0  0  0  0  0  0  0
   -4.9900   17.8170  -34.8780 C   0  0  0  0  0  0  0  0  0  0  0  0
   -5.8640   18.6670  -34.2690 N   0  0  0  0  0  0  0  0  0  0  0  0
   -5.3910   19.6250  -33.4700 N   0  0  0  0  0  0  0  0  0  0  0  0
   -9.2505   23.6604  -31.3578 H   0  0  0  0  0  0  0  0  0  0  0  0
   -8.2710   22.8135  -32.6028 H   0  0  0  0  0  0  0  0  0  0  0  0
  -10.0598   22.6497  -32.6028 H   0  0  0  0  0  0  0  0  0  0  0  0
   -8.6519   21.8589  -30.0802 H   0  0  0  0  0  0  0  0  0  0  0  0
  -10.0658   21.0997  -30.9666 H   0  0  0  0  0  0  0  0  0  0  0  0
   -9.3367   18.9075  -30.7058 H   0  0  0  0  0  0  0  0  0  0  0  0
   -9.5589   19.1605  -32.4911 H   0  0  0  0  0  0  0  0  0  0  0  0
   -7.4671   17.5817  -31.0129 H   0  0  0  0  0  0  0  0  0  0  0  0
   -8.3390   17.2106  -32.5389 H   0  0  0  0  0  0  0  0  0  0  0  0
   -6.9968   18.4044  -32.5389 H   0  0  0  0  0  0  0  0  0  0  0  0
   -7.9740   20.2370  -33.6620 H   0  0  0  0  0  0  0  0  0  0  0  0
   -7.7126   21.9048  -33.0153 H   0  0  0  0  0  0  0  0  0  0  0  0
   -6.2513   23.6481  -32.9952 H   0  0  0  0  0  0  0  0  0  0  0  0
   -6.6232   25.7279  -31.6687 H   0  0  0  0  0  0  0  0  0  0  0  0
   -5.8553   25.8547  -29.2968 H   0  0  0  0  0  0  0  0  0  0  0  0
   -4.6899   23.9070  -28.2557 H   0  0  0  0  0  0  0  0  0  0  0  0
   -4.3134   21.8230  -29.5754 H   0  0  0  0  0  0  0  0  0  0  0  0
   -0.5819   19.9172  -35.2149 H   0  0  0  0  0  0  0  0  0  0  0  0
   -1.6631   21.1070  -34.4127 H   0  0  0  0  0  0  0  0  0  0  0  0
    0.7929   21.4296  -33.8794 H   0  0  0  0  0  0  0  0  0  0  0  0
   -0.2464   21.1459  -32.4301 H   0  0  0  0  0  0  0  0  0  0  0  0
    0.8740   17.8831  -31.8301 H   0  0  0  0  0  0  0  0  0  0  0  0
   -0.2022   19.2448  -31.3309 H   0  0  0  0  0  0  0  0  0  0  0  0
   -0.5266   17.4325  -33.7777 H   0  0  0  0  0  0  0  0  0  0  0  0
   -1.5819   17.5003  -32.3252 H   0  0  0  0  0  0  0  0  0  0  0  0
   -2.9016   17.2791  -35.1603 H   0  0  0  0  0  0  0  0  0  0  0  0
   -5.3658   17.0160  -35.5316 H   0  0  0  0  0  0  0  0  0  0  0  0
   -6.8880   18.5520  -34.4340 H   0  0  0  0  0  0  0  0  0  0  0  0
  1  2  1  0
  2  3  1  0
  3  4  1  0
  4  5  1  0
  3  6  1  0
  6  7  1  0
  7  8  2  0
  8  9  1  0
  9 10  2  0
 10 11  1  0
 11 12  2  0
 12 13  1  0
 13 14  2  0
  8 15  1  0
 15 16  2  0
 16 17  1  0
 17 18  1  0
 18 19  1  0
 19 20  1  0
 20 21  1  0
 21 22  1  0
 22 23  1  0
 17 24  2  0
 24 25  1  0
 25 26  2  0
 26 27  1  0
 27  7  1  0
 14  9  1  0
 27 16  1  0
 23 18  1  0
  1 28  1  0
  1 29  1  0
  1 30  1  0
  2 31  1  0
  2 32  1  0
  4 33  1  0
  4 34  1  0
  5 35  1  0
  5 36  1  0
  5 37  1  0
  6 38  1  0
  6 39  1  0
 10 40  1  0
 11 41  1  0
 12 42  1  0
 13 43  1  0
 14 44  1  0
 19 45  1  0
 19 46  1  0
 20 47  1  0
 20 48  1  0
 22 49  1  0
 22 50  1  0
 23 51  1  0
 23 52  1  0
 24 53  1  0
 25 54  1  0
 26 55  1  0
M  CHG  1  26   1
M  END
>  <UniqueID>  (20) 
19

>  <SMILES>  (20) 
CCN(CC)Cc1c(-c2ccccc2)nc2c(N3CCOCC3)cc[nH+]n12

>  <Energy>  (20) 
104.65738844630435

>  <Genealogy>  (20) 
CCN(CC)Cc1c(-c2ccccc2)nc2c(N3CCOCC3)cc[nH+]n12 (protonated)
CCN(CC)Cc1c(-c2ccccc2)nc2c(N3CCOCC3)cc[nH+]n12 (3D coordinates assigned)
CCN(CC)Cc1c(-c2ccccc2)nc2c(N3CCOCC3)cc[nH+]n12 (nonaromatic ring conformer: 104.65738844630435 kcal/mol)

>  <smiles>  (20) 
CCN(CC)Cc1c(-c2ccccc2)nc2c(N3CCOCC3)ccnn12

>  <score_type>  (20) 
oracle

>  <origin>  (20) 
adg

>  <m_score__min__energy>  (20) 
-8.1999999999999993

>  <m_primary>  (20) 
energy

$$$$
20:0
     RDKit          3D

 59 62  0  0  0  0  0  0  0  0999 V2000
   -0.4550   26.1480  -23.7410 C   0  0  0  0  0  0  0  0  0  0  0  0
   -1.1300   26.7150  -24.8600 O   0  0  0  0  0  0  0  0  0  0  0  0
   -1.5710   25.9830  -25.9720 C   0  0  0  0  0  0  0  0  0  0  0  0
   -2.7730   25.2500  -25.9670 C   0  0  0  0  0  0  0  0  0  0  0  0
   -3.1690   24.5370  -27.1030 C   0  0  0  0  0  0  0  0  0  0  0  0
   -2.3710   24.5430  -28.2540 C   0  0  0  0  0  0  0  0  0  0  0  0
   -2.8930   23.6540  -29.6830 S   0  0  0  0  0  0  0  0  0  0  0  0
   -1.7020   23.1350  -30.4380 O   0  0  0  0  0  0  0  0  0  0  0  0
   -3.7300   22.4830  -29.2500 O   0  0  0  0  0  0  0  0  0  0  0  0
   -3.8470   24.6880  -30.7050 N   0  0  0  0  0  0  0  0  0  0  0  0
   -5.1440   24.9910  -30.0960 C   0  0  0  0  0  0  0  0  0  0  0  0
   -6.2860   24.7780  -31.0940 C   0  0  0  0  0  0  0  0  0  0  0  0
   -6.4490   23.3230  -31.4410 C   0  0  0  0  0  0  0  0  0  0  0  0
   -5.3940   22.4730  -31.5070 N   0  0  0  0  0  0  0  0  0  0  0  0
   -5.9210   21.3200  -31.9500 C   0  0  0  0  0  0  0  0  0  0  0  0
   -5.2600   20.1270  -32.2270 C   0  0  0  0  0  0  0  0  0  0  0  0
   -6.0240   19.0540  -32.7310 C   0  0  0  0  0  0  0  0  0  0  0  0
   -5.2450   17.5110  -33.0670 S   0  0  0  0  0  0  0  0  0  0  0  0
   -5.6310   16.5050  -32.0190 O   0  0  0  0  0  0  0  0  0  0  0  0
   -5.7160   17.0120  -34.4060 O   0  0  0  0  0  0  0  0  0  0  0  0
   -3.5130   17.7210  -33.0970 N   0  0  0  0  0  0  0  0  0  0  0  0
   -2.8510   16.4210  -33.3140 C   0  0  0  0  0  0  0  0  0  0  0  0
   -1.3590   16.6110  -33.6540 C   0  0  0  0  0  0  0  0  0  0  0  0
   -0.9360   17.9260  -33.3520 O   0  0  0  0  0  0  0  0  0  0  0  0
   -1.6080   18.8500  -34.1910 C   0  0  0  0  0  0  0  0  0  0  0  0
   -3.1400   18.6670  -34.1590 C   0  0  0  0  0  0  0  0  0  0  0  0
   -7.4170   19.2120  -32.9400 C   0  0  0  0  0  0  0  0  0  0  0  0
   -8.0500   20.4370  -32.6550 C   0  0  0  0  0  0  0  0  0  0  0  0
   -7.2620   21.4740  -32.1510 C   0  0  0  0  0  0  0  0  0  0  0  0
   -7.6190   22.7310  -31.8190 N   0  0  0  0  0  0  0  0  0  0  0  0
   -8.9370   23.3460  -31.9850 C   0  0  0  0  0  0  0  0  0  0  0  0
   -1.1770   25.2760  -28.2640 C   0  0  0  0  0  0  0  0  0  0  0  0
   -0.7800   25.9890  -27.1280 C   0  0  0  0  0  0  0  0  0  0  0  0
   -0.9051   26.5260  -22.8112 H   0  0  0  0  0  0  0  0  0  0  0  0
   -0.5470   25.0524  -23.7739 H   0  0  0  0  0  0  0  0  0  0  0  0
    0.6083   26.4278  -23.7739 H   0  0  0  0  0  0  0  0  0  0  0  0
   -3.4034   25.2381  -25.0656 H   0  0  0  0  0  0  0  0  0  0  0  0
   -4.1110   23.9692  -27.0925 H   0  0  0  0  0  0  0  0  0  0  0  0
   -5.2967   24.3310  -29.2293 H   0  0  0  0  0  0  0  0  0  0  0  0
   -5.1452   26.0459  -29.7842 H   0  0  0  0  0  0  0  0  0  0  0  0
   -7.2224   25.1470  -30.6501 H   0  0  0  0  0  0  0  0  0  0  0  0
   -6.0468   25.3286  -32.0158 H   0  0  0  0  0  0  0  0  0  0  0  0
   -4.3920   22.6790  -31.2990 H   0  0  0  0  0  0  0  0  0  0  0  0
   -4.1778   20.0244  -32.0585 H   0  0  0  0  0  0  0  0  0  0  0  0
   -2.9374   15.8161  -32.3993 H   0  0  0  0  0  0  0  0  0  0  0  0
   -3.3413   15.9145  -34.1584 H   0  0  0  0  0  0  0  0  0  0  0  0
   -0.7622   15.8971  -33.0673 H   0  0  0  0  0  0  0  0  0  0  0  0
   -1.2189   16.4354  -34.7308 H   0  0  0  0  0  0  0  0  0  0  0  0
   -1.3670   19.8701  -33.8575 H   0  0  0  0  0  0  0  0  0  0  0  0
   -1.2705   18.6732  -35.2229 H   0  0  0  0  0  0  0  0  0  0  0  0
   -3.6186   19.6384  -33.9657 H   0  0  0  0  0  0  0  0  0  0  0  0
   -3.4760   18.2710  -35.1287 H   0  0  0  0  0  0  0  0  0  0  0  0
   -8.0088   18.3700  -33.3283 H   0  0  0  0  0  0  0  0  0  0  0  0
   -9.1285   20.5726  -32.8236 H   0  0  0  0  0  0  0  0  0  0  0  0
   -9.3737   23.5498  -30.9962 H   0  0  0  0  0  0  0  0  0  0  0  0
   -8.8341   24.2891  -32.5418 H   0  0  0  0  0  0  0  0  0  0  0  0
   -9.5936   22.6613  -32.5418 H   0  0  0  0  0  0  0  0  0  0  0  0
   -0.5501   25.2908  -29.1677 H   0  0  0  0  0  0  0  0  0  0  0  0
    0.1607   26.5589  -27.1425 H   0  0  0  0  0  0  0  0  0  0  0  0
  1  2  1  0
  2  3  1  0
  3  4  2  0
  4  5  1  0
  5  6  2  0
  6  7  1  0
  7  8  2  0
  7  9  2  0
  7 10  1  0
 10 11  1  0
 11 12  1  0
 12 13  1  0
 13 14  2  0
 14 15  1  0
 15 16  2  0
 16 17  1  0
 17 18  1  0
 18 19  2  0
 18 20  2  0
 18 21  1  0
 21 22  1  0
 22 23  1  0
 23 24  1  0
 24 25  1  0
 25 26  1  0
 17 27  2  0
 27 28  1  0
 28 29  2  0
 29 30  1  0
 30 31  1  0
  6 32  1  0
 32 33  2  0
 33  3  1  0
 30 13  1  0
 29 15  1  0
 26 21  1  0
  1 34  1  0
  1 35  1  0
  1 36  1  0
  4 37  1  0
  5 38  1  0
 11 39  1  0
 11 40  1  0
 12 41  1  0
 12 42  1  0
 14 43  1  0
 16 44  1  0
 22 45  1  0
 22 46  1  0
 23 47  1  0
 23 48  1  0
 25 49  1  0
 25 50  1  0
 26 51  1  0
 26 52  1  0
 27 53  1  0
 28 54  1  0
 31 55  1  0
 31 56  1  0
 31 57  1  0
 32 58  1  0
 33 59  1  0
M  CHG  2  10  -1  14   1
M  END
>  <UniqueID>  (21) 
20

>  <SMILES>  (21) 
COc1ccc(S(=O)(=O)[N-]CCc2[nH+]c3cc(S(=O)(=O)N4CCOCC4)ccc3n2C)cc1

>  <Energy>  (21) 
103.7158645922236

>  <Genealogy>  (21) 
COc1ccc(S(=O)(=O)[N-]CCc2[nH+]c3cc(S(=O)(=O)N4CCOCC4)ccc3n2C)cc1 (protonated)
COc1ccc(S(=O)(=O)[N-]CCc2[nH+]c3cc(S(=O)(=O)N4CCOCC4)ccc3n2C)cc1 (3D coordinates assigned)
COc1ccc(S(=O)(=O)[N-]CCc2[nH+]c3cc(S(=O)(=O)N4CCOCC4)ccc3n2C)cc1 (nonaromatic ring conformer: 103.7158645922236 kcal/mol)

>  <smiles>  (21) 
COc1ccc(S(=O)(=O)NCCc2nc3cc(S(=O)(=O)N4CCOCC4)ccc3n2C)cc1

>  <score_type>  (21) 
oracle

>  <origin>  (21) 
adg

>  <m_score__min__energy>  (21) 
-9.5500000000000007

>  <m_primary>  (21) 
energy

$$$$
21:0
     RDKit          3D

 43 45  0  0  0  0  0  0  0  0999 V2000
   -8.9520   21.1490  -31.2430 C   0  0  0  0  0  0  0  0  0  0  0  0
   -9.5400   20.2850  -32.3530 C   0  0  0  0  0  0  0  0  0  0  0  0
   -8.9820   18.8870  -32.2950 C   0  0  0  0  0  0  0  0  0  0  0  0
   -9.5770   18.0210  -31.6010 O   0  0  0  0  0  0  0  0  0  0  0  0
   -7.8650   18.4820  -33.0970 N   0  0  0  0  0  0  0  0  0  0  0  0
   -6.5010   18.8590  -32.8860 C   0  0  0  0  0  0  0  0  0  0  0  0
   -5.5070   17.8970  -32.6600 C   0  0  0  0  0  0  0  0  0  0  0  0
   -4.1760   18.2850  -32.4950 C   0  0  0  0  0  0  0  0  0  0  0  0
   -3.8150   19.6380  -32.5760 C   0  0  0  0  0  0  0  0  0  0  0  0
   -4.8110   20.6100  -32.8080 C   0  0  0  0  0  0  0  0  0  0  0  0
   -6.1430   20.2080  -32.9920 C   0  0  0  0  0  0  0  0  0  0  0  0
   -4.4440   22.0660  -32.9670 C   0  0  0  0  0  0  0  0  0  0  0  0
   -3.1800   22.4120  -32.2850 N   0  0  0  0  0  0  0  0  0  0  0  0
   -3.3510   22.5050  -30.8180 C   0  0  0  0  0  0  0  0  0  0  0  0
   -4.5420   23.3610  -30.4650 C   0  0  0  0  0  0  0  0  0  0  0  0
   -5.8310   22.8010  -30.4440 C   0  0  0  0  0  0  0  0  0  0  0  0
   -6.9350   23.5850  -30.0970 C   0  0  0  0  0  0  0  0  0  0  0  0
   -6.7640   24.9320  -29.7680 C   0  0  0  0  0  0  0  0  0  0  0  0
   -7.8370   25.6900  -29.4320 F   0  0  0  0  0  0  0  0  0  0  0  0
   -5.4870   25.4980  -29.7840 C   0  0  0  0  0  0  0  0  0  0  0  0
   -4.3760   24.7200  -30.1280 C   0  0  0  0  0  0  0  0  0  0  0  0
   -3.1110   25.2990  -30.1330 O   0  0  0  0  0  0  0  0  0  0  0  0
   -2.0960   21.4960  -32.7030 C   0  0  0  0  0  0  0  0  0  0  0  0
   -2.3800   20.0300  -32.3360 C   0  0  0  0  0  0  0  0  0  0  0  0
   -9.2354   20.7326  -30.2651 H   0  0  0  0  0  0  0  0  0  0  0  0
   -7.8557   21.1636  -31.3315 H   0  0  0  0  0  0  0  0  0  0  0  0
   -9.3407   22.1742  -31.3315 H   0  0  0  0  0  0  0  0  0  0  0  0
  -10.6329   20.2422  -32.2361 H   0  0  0  0  0  0  0  0  0  0  0  0
   -9.2759   20.7301  -33.3237 H   0  0  0  0  0  0  0  0  0  0  0  0
   -5.7767   16.8316  -32.6124 H   0  0  0  0  0  0  0  0  0  0  0  0
   -3.4054   17.5246  -32.3002 H   0  0  0  0  0  0  0  0  0  0  0  0
   -6.9125   20.9598  -33.2216 H   0  0  0  0  0  0  0  0  0  0  0  0
   -4.3376   22.2872  -34.0393 H   0  0  0  0  0  0  0  0  0  0  0  0
   -5.2448   22.6632  -32.5065 H   0  0  0  0  0  0  0  0  0  0  0  0
   -3.5001   21.4950  -30.4086 H   0  0  0  0  0  0  0  0  0  0  0  0
   -2.4491   22.9659  -30.3889 H   0  0  0  0  0  0  0  0  0  0  0  0
   -5.9716   21.7409  -30.7018 H   0  0  0  0  0  0  0  0  0  0  0  0
   -7.9410   23.1403  -30.0829 H   0  0  0  0  0  0  0  0  0  0  0  0
   -5.3544   26.5589  -29.5253 H   0  0  0  0  0  0  0  0  0  0  0  0
   -1.9760   21.5683  -33.7940 H   0  0  0  0  0  0  0  0  0  0  0  0
   -1.1823   21.7996  -32.1710 H   0  0  0  0  0  0  0  0  0  0  0  0
   -1.7318   19.3828  -32.9451 H   0  0  0  0  0  0  0  0  0  0  0  0
   -2.1785   19.9115  -31.2611 H   0  0  0  0  0  0  0  0  0  0  0  0
  1  2  1  0
  2  3  1  0
  3  4  2  0
  3  5  1  0
  5  6  1  0
  6  7  2  0
  7  8  1  0
  8  9  2  0
  9 10  1  0
 10 11  2  0
 10 12  1  0
 12 13  1  0
 13 14  1  0
 14 15  1  0
 15 16  2  0
 16 17  1  0
 17 18  2  0
 18 19  1  0
 18 20  1  0
 20 21  2  0
 21 22  1  0
 13 23  1  0
 23 24  1  0
 11  6  1  0
 21 15  1  0
 24  9  1  0
  1 25  1  0
  1 26  1  0
  1 27  1  0
  2 28  1  0
  2 29  1  0
  7 30  1  0
  8 31  1  0
 11 32  1  0
 12 33  1  0
 12 34  1  0
 14 35  1  0
 14 36  1  0
 16 37  1  0
 17 38  1  0
 20 39  1  0
 23 40  1  0
 23 41  1  0
 24 42  1  0
 24 43  1  0
M  CHG  2   5  -1  22  -1
M  END
>  <UniqueID>  (22) 
21

>  <SMILES>  (22) 
CCC(=O)[N-]c1ccc2c(c1)CN(Cc1ccc(F)cc1[O-])CC2

>  <Energy>  (22) 
52.92553206547206

>  <Genealogy>  (22) 
CCC(=O)[N-]c1ccc2c(c1)CN(Cc1ccc(F)cc1[O-])CC2 (protonated)
CCC(=O)[N-]c1ccc2c(c1)CN(Cc1ccc(F)cc1[O-])CC2 (3D coordinates assigned)
CCC(=O)[N-]c1ccc2c(c1)CN(Cc1ccc(F)cc1[O-])CC2 (nonaromatic ring conformer: 52.92553206547206 kcal/mol)

>  <smiles>  (22) 
CCC(=O)Nc1ccc2c(c1)CN(Cc1ccc(F)cc1O)CC2

>  <score_type>  (22) 
oracle

>  <origin>  (22) 
adg

>  <m_score__min__energy>  (22) 
-10.27

>  <m_primary>  (22) 
energy

$$$$
22:0
     RDKit          3D

 50 53  0  0  0  0  0  0  0  0999 V2000
   -2.9010   24.1570  -29.5730 C   0  0  0  0  0  0  0  0  0  0  0  0
   -3.8740   24.6770  -30.4740 O   0  0  0  0  0  0  0  0  0  0  0  0
   -5.1360   24.1050  -30.6940 C   0  0  0  0  0  0  0  0  0  0  0  0
   -5.7920   23.5060  -29.6120 C   0  0  0  0  0  0  0  0  0  0  0  0
   -7.0500   22.9210  -29.7790 C   0  0  0  0  0  0  0  0  0  0  0  0
   -7.6730   22.9320  -31.0360 C   0  0  0  0  0  0  0  0  0  0  0  0
   -9.0170   22.2810  -31.2320 C   0  0  0  0  0  0  0  0  0  0  0  0
   -8.9480   21.3020  -32.2500 O   0  0  0  0  0  0  0  0  0  0  0  0
   -8.2160   20.1640  -31.8240 C   0  0  1  0  0  0  0  0  0  0  0  0
   -8.7570   18.8970  -32.5230 C   0  0  0  0  0  0  0  0  0  0  0  0
   -7.6720   17.8170  -32.7190 C   0  0  0  0  0  0  0  0  0  0  0  0
   -6.6430   17.8990  -31.6560 N   0  0  1  0  0  0  0  0  0  0  0  0
   -5.7860   16.6960  -31.6180 C   0  0  0  0  0  0  0  0  0  0  0  0
   -4.9210   16.5640  -32.8710 C   0  0  0  0  0  0  0  0  0  0  0  0
   -4.1660   17.8310  -33.1360 C   0  0  0  0  0  0  0  0  0  0  0  0
   -3.0180   17.7820  -33.9420 C   0  0  0  0  0  0  0  0  0  0  0  0
   -2.2740   18.9370  -34.1850 C   0  0  0  0  0  0  0  0  0  0  0  0
   -2.6680   20.1500  -33.6240 C   0  0  0  0  0  0  0  0  0  0  0  0
   -3.8180   20.2160  -32.8350 C   0  0  0  0  0  0  0  0  0  0  0  0
   -4.6060   19.0680  -32.6110 C   0  0  0  0  0  0  0  0  0  0  0  0
   -5.8530   19.1680  -31.7310 C   0  0  1  0  0  0  0  0  0  0  0  0
   -6.7390   20.3730  -32.1740 C   0  0  0  0  0  0  0  0  0  0  0  0
   -7.0180   23.5270  -32.1240 C   0  0  0  0  0  0  0  0  0  0  0  0
   -5.7590   24.1120  -31.9570 C   0  0  0  0  0  0  0  0  0  0  0  0
   -3.2291   24.3323  -28.5378 H   0  0  0  0  0  0  0  0  0  0  0  0
   -2.7846   23.0764  -29.7427 H   0  0  0  0  0  0  0  0  0  0  0  0
   -1.9379   24.6607  -29.7427 H   0  0  0  0  0  0  0  0  0  0  0  0
   -5.3130   23.4958  -28.6218 H   0  0  0  0  0  0  0  0  0  0  0  0
   -7.5536   22.4502  -28.9218 H   0  0  0  0  0  0  0  0  0  0  0  0
   -9.3291   21.8040  -30.2912 H   0  0  0  0  0  0  0  0  0  0  0  0
   -9.7460   23.0503  -31.5264 H   0  0  0  0  0  0  0  0  0  0  0  0
   -8.3243   20.0328  -30.7372 H   0  0  0  0  0  0  0  0  0  0  0  0
   -9.5670   18.4752  -31.9098 H   0  0  0  0  0  0  0  0  0  0  0  0
   -9.1148   19.1940  -33.5199 H   0  0  0  0  0  0  0  0  0  0  0  0
   -8.1434   16.8236  -32.6875 H   0  0  0  0  0  0  0  0  0  0  0  0
   -7.1851   17.9818  -33.6915 H   0  0  0  0  0  0  0  0  0  0  0  0
   -7.1520   17.8970  -30.7380 H   0  0  0  0  0  0  0  0  0  0  0  0
   -5.1284   16.7571  -30.7383 H   0  0  0  0  0  0  0  0  0  0  0  0
   -6.4426   15.8150  -31.5664 H   0  0  0  0  0  0  0  0  0  0  0  0
   -4.2049   15.7411  -32.7292 H   0  0  0  0  0  0  0  0  0  0  0  0
   -5.5765   16.3594  -33.7304 H   0  0  0  0  0  0  0  0  0  0  0  0
   -2.7026   16.8260  -34.3853 H   0  0  0  0  0  0  0  0  0  0  0  0
   -1.3766   18.8900  -34.8193 H   0  0  0  0  0  0  0  0  0  0  0  0
   -2.0721   21.0571  -33.8030 H   0  0  0  0  0  0  0  0  0  0  0  0
   -4.1128   21.1745  -32.3829 H   0  0  0  0  0  0  0  0  0  0  0  0
   -5.4975   19.3464  -30.7054 H   0  0  0  0  0  0  0  0  0  0  0  0
   -6.3801   21.2815  -31.6683 H   0  0  0  0  0  0  0  0  0  0  0  0
   -6.6606   20.4663  -33.2672 H   0  0  0  0  0  0  0  0  0  0  0  0
   -7.4973   23.5335  -33.1141 H   0  0  0  0  0  0  0  0  0  0  0  0
   -5.2535   24.5792  -32.8150 H   0  0  0  0  0  0  0  0  0  0  0  0
  1  2  1  0
  2  3  1  0
  3  4  2  0
  4  5  1  0
  5  6  2  0
  6  7  1  0
  7  8  1  0
  8  9  1  0
  9 10  1  0
 10 11  1  0
 11 12  1  0
 12 13  1  0
 13 14  1  0
 14 15  1  0
 15 16  2  0
 16 17  1  0
 17 18  2  0
 18 19  1  0
 19 20  2  0
 20 21  1  0
 21 22  1  0
  6 23  1  0
 23 24  2  0
 24  3  1  0
 22  9  1  0
 21 12  1  0
 20 15  1  0
  1 25  1  0
  1 26  1  0
  1 27  1  0
  4 28  1  0
  5 29  1  0
  7 30  1  0
  7 31  1  0
  9 32  1  1
 10 33  1  0
 10 34  1  0
 11 35  1  0
 11 36  1  0
 12 37  1  1
 13 38  1  0
 13 39  1  0
 14 40  1  0
 14 41  1  0
 16 42  1  0
 17 43  1  0
 18 44  1  0
 19 45  1  0
 21 46  1  1
 22 47  1  0
 22 48  1  0
 23 49  1  0
 24 50  1  0
M  CHG  1  12   1
M  END
>  <UniqueID>  (23) 
22

>  <SMILES>  (23) 
COc1ccc(CO[C@H]2CC[N@H+]3CCc4ccccc4C3C2)cc1

>  <Energy>  (23) 
67.58033804080033

>  <Genealogy>  (23) 
COc1ccc(COC2CC[NH+]3CCc4ccccc4C3C2)cc1 (protonated)
COc1ccc(CO[C@H]2CC[N@H+]3CCc4ccccc4C3C2)cc1 (chirality)
COc1ccc(CO[C@H]2CC[N@H+]3CCc4ccccc4C3C2)cc1 (3D coordinates assigned)
COc1ccc(CO[C@H]2CC[N@H+]3CCc4ccccc4C3C2)cc1 (nonaromatic ring conformer: 67.58033804080033 kcal/mol)

>  <smiles>  (23) 
COc1ccc(COC2CCN3CCc4ccccc4C3C2)cc1

>  <score_type>  (23) 
oracle

>  <origin>  (23) 
adg

>  <m_score__min__energy>  (23) 
-8.3300000000000001

>  <m_primary>  (23) 
energy

$$$$
23:0
     RDKit          3D

 41 42  0  0  0  0  0  0  0  0999 V2000
   -4.7560   20.8520  -33.2260 C   0  0  0  0  0  0  0  0  0  0  0  0
   -5.8160   20.0010  -33.6470 O   0  0  0  0  0  0  0  0  0  0  0  0
   -5.6960   18.6150  -33.8470 C   0  0  0  0  0  0  0  0  0  0  0  0
   -4.6550   18.0660  -34.6230 C   0  0  0  0  0  0  0  0  0  0  0  0
   -4.5540   16.6850  -34.7970 C   0  0  0  0  0  0  0  0  0  0  0  0
   -5.4820   15.8330  -34.1980 C   0  0  0  0  0  0  0  0  0  0  0  0
   -6.5180   16.3610  -33.4260 C   0  0  0  0  0  0  0  0  0  0  0  0
   -6.6400   17.7510  -33.2490 C   0  0  0  0  0  0  0  0  0  0  0  0
   -7.7580   18.2870  -32.3810 C   0  0  0  0  0  0  0  0  0  0  0  0
   -8.0940   19.6820  -32.7160 N   0  0  0  0  0  0  0  0  0  0  0  0
   -9.4620   20.0370  -32.2960 C   0  0  0  0  0  0  0  0  0  0  0  0
   -9.4890   21.2840  -31.3930 C   0  0  0  0  0  0  0  0  0  0  0  0
   -8.7900   22.5050  -32.0160 C   0  0  0  0  0  0  0  0  0  0  0  0
   -7.3690   22.4110  -31.9050 O   0  0  0  0  0  0  0  0  0  0  0  0
   -6.5330   23.3610  -31.2990 C   0  0  0  0  0  0  0  0  0  0  0  0
   -7.1010   24.2730  -30.4040 C   0  0  0  0  0  0  0  0  0  0  0  0
   -6.3060   25.2360  -29.7800 C   0  0  0  0  0  0  0  0  0  0  0  0
   -4.9390   25.2760  -30.0570 C   0  0  0  0  0  0  0  0  0  0  0  0
   -4.3950   24.3820  -30.9240 N   0  0  0  0  0  0  0  0  0  0  0  0
   -5.1480   23.4350  -31.5450 C   0  0  0  0  0  0  0  0  0  0  0  0
   -4.7221   20.8792  -32.1269 H   0  0  0  0  0  0  0  0  0  0  0  0
   -3.8010   20.4669  -33.6129 H   0  0  0  0  0  0  0  0  0  0  0  0
   -4.9255   21.8677  -33.6129 H   0  0  0  0  0  0  0  0  0  0  0  0
   -3.9168   18.7311  -35.0949 H   0  0  0  0  0  0  0  0  0  0  0  0
   -3.7404   16.2672  -35.4082 H   0  0  0  0  0  0  0  0  0  0  0  0
   -5.3973   14.7447  -34.3341 H   0  0  0  0  0  0  0  0  0  0  0  0
   -7.2448   15.6847  -32.9523 H   0  0  0  0  0  0  0  0  0  0  0  0
   -8.6513   17.6616  -32.5256 H   0  0  0  0  0  0  0  0  0  0  0  0
   -7.4197   18.2600  -31.3347 H   0  0  0  0  0  0  0  0  0  0  0  0
   -7.4080   20.3040  -32.2280 H   0  0  0  0  0  0  0  0  0  0  0  0
   -7.9900   19.8180  -33.7480 H   0  0  0  0  0  0  0  0  0  0  0  0
  -10.0673   20.2360  -33.1927 H   0  0  0  0  0  0  0  0  0  0  0  0
   -9.8671   19.1932  -31.7181 H   0  0  0  0  0  0  0  0  0  0  0  0
  -10.5382   21.5472  -31.1933 H   0  0  0  0  0  0  0  0  0  0  0  0
   -8.9415   21.0307  -30.4732 H   0  0  0  0  0  0  0  0  0  0  0  0
   -9.0616   22.5673  -33.0801 H   0  0  0  0  0  0  0  0  0  0  0  0
   -9.1187   23.4036  -31.4733 H   0  0  0  0  0  0  0  0  0  0  0  0
   -8.1793   24.2314  -30.1907 H   0  0  0  0  0  0  0  0  0  0  0  0
   -6.7523   25.9554  -29.0777 H   0  0  0  0  0  0  0  0  0  0  0  0
   -4.3017   26.0311  -29.5736 H   0  0  0  0  0  0  0  0  0  0  0  0
   -4.6749   22.7259  -32.2403 H   0  0  0  0  0  0  0  0  0  0  0  0
  1  2  1  0
  2  3  1  0
  3  4  2  0
  4  5  1  0
  5  6  2  0
  6  7  1  0
  7  8  2  0
  8  9  1  0
  9 10  1  0
 10 11  1  0
 11 12  1  0
 12 13  1  0
 13 14  1  0
 14 15  1  0
 15 16  2  0
 16 17  1  0
 17 18  2  0
 18 19  1  0
 19 20  2  0
  8  3  1  0
 20 15  1  0
  1 21  1  0
  1 22  1  0
  1 23  1  0
  4 24  1  0
  5 25  1  0
  6 26  1  0
  7 27  1  0
  9 28  1  0
  9 29  1  0
 10 30  1  0
 10 31  1  0
 11 32  1  0
 11 33  1  0
 12 34  1  0
 12 35  1  0
 13 36  1  0
 13 37  1  0
 16 38  1  0
 17 39  1  0
 18 40  1  0
 20 41  1  0
M  CHG  1  10   1
M  END
>  <UniqueID>  (24) 
23

>  <SMILES>  (24) 
COc1ccccc1C[NH2+]CCCOc1cccnc1

>  <Energy>  (24) 
38.93502530828089

>  <Genealogy>  (24) 
COc1ccccc1C[NH2+]CCCOc1cccnc1 (protonated)
COc1ccccc1C[NH2+]CCCOc1cccnc1 (3D coordinates assigned)
COc1ccccc1C[NH2+]CCCOc1cccnc1 (optimized conformer: 38.93502530828089 kcal/mol)

>  <smiles>  (24) 
COc1ccccc1CNCCCOc1cccnc1

>  <score_type>  (24) 
oracle

>  <origin>  (24) 
adg

>  <m_score__min__energy>  (24) 
-5.8700000000000001

>  <m_primary>  (24) 
energy

$$$$
24:0
     RDKit          3D

 42 44  0  0  0  0  0  0  0  0999 V2000
   -9.8748   23.1496  -32.0763 H   0  0  0  0  0  0  0  0  0  0  0  0
   -8.8980   22.6610  -31.9450 C   0  0  0  0  0  0  0  0  0  0  0  0
   -8.7770   21.2830  -32.1390 C   0  0  0  0  0  0  0  0  0  0  0  0
   -9.6604   20.6918  -32.4220 H   0  0  0  0  0  0  0  0  0  0  0  0
   -7.5400   20.6490  -31.9760 C   0  0  0  0  0  0  0  0  0  0  0  0
   -7.4710   19.2630  -32.1820 O   0  0  0  0  0  0  0  0  0  0  0  0
   -8.4710   18.3370  -31.7680 C   0  0  0  0  0  0  0  0  0  0  0  0
   -8.5072   18.3034  -30.6691 H   0  0  0  0  0  0  0  0  0  0  0  0
   -9.4492   18.6552  -32.1576 H   0  0  0  0  0  0  0  0  0  0  0  0
   -8.2288   17.3372  -32.1576 H   0  0  0  0  0  0  0  0  0  0  0  0
   -6.4150   21.4170  -31.6120 C   0  0  0  0  0  0  0  0  0  0  0  0
   -5.4387   20.9273  -31.4812 H   0  0  0  0  0  0  0  0  0  0  0  0
   -6.5320   22.8040  -31.4150 C   0  0  0  0  0  0  0  0  0  0  0  0
   -5.3570   23.6120  -31.0340 C   0  0  0  0  0  0  0  0  0  0  0  0
   -5.2240   24.9330  -31.2780 N   0  0  0  0  0  0  0  0  0  0  0  0
   -4.0460   25.2920  -30.7910 N   0  0  0  0  0  0  0  0  0  0  0  0
   -3.5110   24.1740  -30.2710 C   0  0  0  0  0  0  0  0  0  0  0  0
   -2.3480   24.1380  -29.6980 N   0  0  0  0  0  0  0  0  0  0  0  0
   -1.9060   23.0190  -28.8750 C   0  0  0  0  0  0  0  0  0  0  0  0
   -1.1804   23.3767  -28.1296 H   0  0  0  0  0  0  0  0  0  0  0  0
   -2.7731   22.5775  -28.3619 H   0  0  0  0  0  0  0  0  0  0  0  0
   -1.2440   21.9570  -29.7640 C   0  0  0  0  0  0  0  0  0  0  0  0
   -0.2221   22.2853  -30.0048 H   0  0  0  0  0  0  0  0  0  0  0  0
   -1.2425   21.0081  -29.2077 H   0  0  0  0  0  0  0  0  0  0  0  0
   -1.9840   21.7370  -31.0300 N   0  0  0  0  0  0  0  0  0  0  0  0
   -2.4930   22.6220  -31.2710 H   0  0  0  0  0  0  0  0  0  0  0  0
   -2.9730   20.6370  -30.9030 C   0  0  0  0  0  0  0  0  0  0  0  0
   -2.5207   19.8165  -30.3266 H   0  0  0  0  0  0  0  0  0  0  0  0
   -3.8630   21.0350  -30.3935 H   0  0  0  0  0  0  0  0  0  0  0  0
   -3.4110   20.0970  -32.2810 C   0  0  0  0  0  0  0  0  0  0  0  0
   -2.8406   19.1847  -32.5095 H   0  0  0  0  0  0  0  0  0  0  0  0
   -4.4878   19.8748  -32.2485 H   0  0  0  0  0  0  0  0  0  0  0  0
   -3.1750   21.0560  -33.2890 O   0  0  0  0  0  0  0  0  0  0  0  0
   -1.7800   21.2350  -33.4610 C   0  0  0  0  0  0  0  0  0  0  0  0
   -1.3690   20.3414  -33.9536 H   0  0  0  0  0  0  0  0  0  0  0  0
   -1.6346   22.1396  -34.0698 H   0  0  0  0  0  0  0  0  0  0  0  0
   -1.0340   21.4490  -32.1230 C   0  0  0  0  0  0  0  0  0  0  0  0
   -0.4673   20.5388  -31.8771 H   0  0  0  0  0  0  0  0  0  0  0  0
   -0.3544   22.3069  -32.2330 H   0  0  0  0  0  0  0  0  0  0  0  0
   -4.3020   23.1380  -30.4120 O   0  0  0  0  0  0  0  0  0  0  0  0
   -7.7830   23.4200  -31.5850 C   0  0  0  0  0  0  0  0  0  0  0  0
   -7.8844   24.5048  -31.4338 H   0  0  0  0  0  0  0  0  0  0  0  0
  1  2  1  0
  2  3  2  0
  3  4  1  0
  3  5  1  0
  5  6  1  0
  6  7  1  0
  7  8  1  0
  7  9  1  0
  7 10  1  0
  5 11  2  0
 11 12  1  0
 11 13  1  0
 13 14  1  0
 14 15  2  0
 15 16  1  0
 16 17  1  0
 17 18  2  0
 18 19  1  0
 19 20  1  0
 19 21  1  0
 19 22  1  0
 22 23  1  0
 22 24  1  0
 22 25  1  0
 25 26  1  0
 25 27  1  0
 27 28  1  0
 27 29  1  0
 27 30  1  0
 30 31  1  0
 30 32  1  0
 30 33  1  0
 33 34  1  0
 34 35  1  0
 34 36  1  0
 34 37  1  0
 37 38  1  0
 37 39  1  0
 17 40  1  0
 13 41  2  0
 41 42  1  0
 41  2  1  0
 40 14  1  0
 37 25  1  0
M  CHG  2  16  -1  25   1
M  END
>  <UniqueID>  (25) 
24

>  <SMILES>  (25) 
COc1cccc(-c2n[n-]/c(=N/CC[NH+]3CCOCC3)o2)c1

>  <Energy>  (25) 
85.04476380466002

>  <Genealogy>  (25) 
COc1cccc(-c2n[n-]c(=NCC[NH+]3CCOCC3)o2)c1 (protonated)
COc1cccc(-c2n[n-]/c(=N/CC[NH+]3CCOCC3)o2)c1 (cis-trans isomerization)
COc1cccc(-c2n[n-]/c(=N/CC[NH+]3CCOCC3)o2)c1 (3D coordinates assigned)
COc1cccc(-c2n[n-]/c(=N/CC[NH+]3CCOCC3)o2)c1 (nonaromatic ring conformer: 85.04476380466002 kcal/mol)

>  <smiles>  (25) 
COc1cccc(-c2n[nH]c(=NCCN3CCOCC3)o2)c1

>  <score_type>  (25) 
oracle

>  <origin>  (25) 
adg

>  <m_score__min__energy>  (25) 
-6.8399999999999999

>  <m_primary>  (25) 
energy

$$$$
26:0
     RDKit          3D

 31 33  0  0  0  0  0  0  0  0999 V2000
   -4.3460   23.4140  -29.1440 C   0  0  0  0  0  0  0  0  0  0  0  0
   -3.6730   24.5370  -29.6280 C   0  0  0  0  0  0  0  0  0  0  0  0
   -4.2100   25.2700  -30.6380 N   0  0  0  0  0  0  0  0  0  0  0  0
   -5.4000   24.9390  -31.2070 C   0  0  0  0  0  0  0  0  0  0  0  0
   -6.1070   23.8110  -30.7610 C   0  0  0  0  0  0  0  0  0  0  0  0
   -7.4290   23.4440  -31.3810 C   0  0  0  0  0  0  0  0  0  0  0  0
   -7.2290   22.6360  -32.5860 N   0  0  0  0  0  0  0  0  0  0  0  0
   -7.2880   21.1960  -32.6220 C   0  0  0  0  0  0  0  0  0  0  0  0
   -8.2660   20.4740  -31.9080 C   0  0  0  0  0  0  0  0  0  0  0  0
   -8.2960   19.0780  -31.9580 C   0  0  0  0  0  0  0  0  0  0  0  0
   -7.3550   18.3820  -32.7240 C   0  0  0  0  0  0  0  0  0  0  0  0
   -7.3840   17.0220  -32.7730 N   0  0  0  0  0  0  0  0  0  0  0  0
   -6.4850   16.3150  -33.5090 C   0  0  0  0  0  0  0  0  0  0  0  0
   -5.4980   16.9810  -34.2400 C   0  0  0  0  0  0  0  0  0  0  0  0
   -5.4430   18.3760  -34.2110 C   0  0  0  0  0  0  0  0  0  0  0  0
   -6.3750   19.0930  -33.4490 C   0  0  0  0  0  0  0  0  0  0  0  0
   -6.3480   20.4940  -33.3950 C   0  0  0  0  0  0  0  0  0  0  0  0
   -5.5690   23.0520  -29.7110 C   0  0  0  0  0  0  0  0  0  0  0  0
   -3.9167   22.8200  -28.3237 H   0  0  0  0  0  0  0  0  0  0  0  0
   -2.7066   24.8289  -29.1911 H   0  0  0  0  0  0  0  0  0  0  0  0
   -5.8100   25.5571  -32.0194 H   0  0  0  0  0  0  0  0  0  0  0  0
   -8.0212   22.8684  -30.6544 H   0  0  0  0  0  0  0  0  0  0  0  0
   -7.9582   24.3676  -31.6583 H   0  0  0  0  0  0  0  0  0  0  0  0
   -6.9870   23.1470  -33.4660 H   0  0  0  0  0  0  0  0  0  0  0  0
   -9.0118   21.0143  -31.3064 H   0  0  0  0  0  0  0  0  0  0  0  0
   -9.0614   18.5250  -31.3937 H   0  0  0  0  0  0  0  0  0  0  0  0
   -6.5351   15.2163  -33.5288 H   0  0  0  0  0  0  0  0  0  0  0  0
   -4.7692   16.4103  -34.8343 H   0  0  0  0  0  0  0  0  0  0  0  0
   -4.6709   18.9101  -34.7842 H   0  0  0  0  0  0  0  0  0  0  0  0
   -5.5851   21.0475  -33.9621 H   0  0  0  0  0  0  0  0  0  0  0  0
   -6.1108   22.1718  -29.3346 H   0  0  0  0  0  0  0  0  0  0  0  0
  1  2  2  0
  2  3  1  0
  3  4  2  0
  4  5  1  0
  5  6  1  0
  6  7  1  0
  7  8  1  0
  8  9  2  0
  9 10  1  0
 10 11  2  0
 11 12  1  0
 12 13  2  0
 13 14  1  0
 14 15  2  0
 15 16  1  0
 16 17  2  0
  5 18  2  0
 18  1  1  0
 17  8  1  0
 16 11  1  0
  1 19  1  0
  2 20  1  0
  4 21  1  0
  6 22  1  0
  6 23  1  0
  7 24  1  0
  9 25  1  0
 10 26  1  0
 13 27  1  0
 14 28  1  0
 15 29  1  0
 17 30  1  0
 18 31  1  0
M  END
>  <UniqueID>  (26) 
25

>  <SMILES>  (26) 
c1cncc(CNc2ccc3ncccc3c2)c1

>  <Energy>  (26) 
37.13610841749938

>  <Genealogy>  (26) 
c1cncc(CNc2ccc3ncccc3c2)c1 (3D coordinates assigned)
c1cncc(CNc2ccc3ncccc3c2)c1 (optimized conformer: 37.13610841749938 kcal/mol)

>  <smiles>  (26) 
c1cncc(CNc2ccc3ncccc3c2)c1

>  <score_type>  (26) 
oracle

>  <origin>  (26) 
adg

>  <m_score__min__energy>  (26) 
-7.8099999999999996

>  <m_primary>  (26) 
energy

$$$$
27:0
     RDKit          3D

 49 52  0  0  0  0  0  0  0  0999 V2000
   -5.6060   17.2150  -34.1410 C   0  0  0  0  0  0  0  0  0  0  0  0
   -4.4490   16.5940  -33.6730 C   0  0  0  0  0  0  0  0  0  0  0  0
   -3.4130   17.3610  -33.1390 C   0  0  0  0  0  0  0  0  0  0  0  0
   -3.5330   18.7600  -33.0390 C   0  0  0  0  0  0  0  0  0  0  0  0
   -2.4030   19.5190  -32.5770 N   0  0  0  0  0  0  0  0  0  0  0  0
   -2.4790   20.0430  -31.2030 C   0  0  0  0  0  0  0  0  0  0  0  0
   -1.3440   21.0190  -30.8810 C   0  0  0  0  0  0  0  0  0  0  0  0
   -1.0730   21.8520  -31.9860 O   0  0  0  0  0  0  0  0  0  0  0  0
   -0.4860   21.0760  -33.0050 C   0  0  0  0  0  0  0  0  0  0  0  0
   -1.4920   20.0770  -33.5910 C   0  0  0  0  0  0  0  0  0  0  0  0
   -4.7220   19.3830  -33.4830 C   0  0  0  0  0  0  0  0  0  0  0  0
   -4.9830   21.1680  -33.4100 S   0  0  0  0  0  0  0  0  0  0  0  0
   -6.4900   21.1300  -32.4090 C   0  0  0  0  0  0  0  0  0  0  0  0
   -7.5630   20.2960  -32.7700 C   0  0  0  0  0  0  0  0  0  0  0  0
   -8.7140   20.2400  -31.9800 C   0  0  0  0  0  0  0  0  0  0  0  0
   -8.8230   21.0410  -30.8440 C   0  0  0  0  0  0  0  0  0  0  0  0
   -7.7980   21.9320  -30.5190 C   0  0  0  0  0  0  0  0  0  0  0  0
   -6.6400   21.9990  -31.3060 C   0  0  0  0  0  0  0  0  0  0  0  0
   -5.6970   23.0470  -31.0470 N   0  0  0  0  0  0  0  0  0  0  0  0
   -6.0430   24.4300  -31.3810 C   0  0  0  0  0  0  0  0  0  0  0  0
   -5.2420   25.3900  -30.5000 C   0  0  0  0  0  0  0  0  0  0  0  0
   -3.8620   25.0870  -30.5660 O   0  0  0  0  0  0  0  0  0  0  0  0
   -3.6240   23.8200  -29.9790 C   0  0  0  0  0  0  0  0  0  0  0  0
   -4.3030   22.7040  -30.7790 C   0  0  0  0  0  0  0  0  0  0  0  0
   -5.7350   18.6020  -34.0600 C   0  0  0  0  0  0  0  0  0  0  0  0
   -6.4173   16.6116  -34.5742 H   0  0  0  0  0  0  0  0  0  0  0  0
   -4.3528   15.4994  -33.7247 H   0  0  0  0  0  0  0  0  0  0  0  0
   -2.4930   16.8674  -32.7926 H   0  0  0  0  0  0  0  0  0  0  0  0
   -3.4389   20.5654  -31.0778 H   0  0  0  0  0  0  0  0  0  0  0  0
   -2.3890   19.1891  -30.5155 H   0  0  0  0  0  0  0  0  0  0  0  0
   -1.6362   21.6418  -30.0227 H   0  0  0  0  0  0  0  0  0  0  0  0
   -0.4384   20.4415  -30.6435 H   0  0  0  0  0  0  0  0  0  0  0  0
   -0.1343   21.7427  -33.8061 H   0  0  0  0  0  0  0  0  0  0  0  0
    0.3538   20.5118  -32.5731 H   0  0  0  0  0  0  0  0  0  0  0  0
   -2.0917   20.5911  -34.3566 H   0  0  0  0  0  0  0  0  0  0  0  0
   -0.9174   19.2401  -34.0146 H   0  0  0  0  0  0  0  0  0  0  0  0
   -7.4957   19.6832  -33.6810 H   0  0  0  0  0  0  0  0  0  0  0  0
   -9.5359   19.5626  -32.2548 H   0  0  0  0  0  0  0  0  0  0  0  0
   -9.7153   20.9712  -30.2045 H   0  0  0  0  0  0  0  0  0  0  0  0
   -7.9000   22.5853  -29.6399 H   0  0  0  0  0  0  0  0  0  0  0  0
   -5.8066   24.6207  -32.4382 H   0  0  0  0  0  0  0  0  0  0  0  0
   -7.1177   24.5882  -31.2079 H   0  0  0  0  0  0  0  0  0  0  0  0
   -5.4035   26.4210  -30.8479 H   0  0  0  0  0  0  0  0  0  0  0  0
   -5.5805   25.2842  -29.4587 H   0  0  0  0  0  0  0  0  0  0  0  0
   -2.5401   23.6344  -29.9526 H   0  0  0  0  0  0  0  0  0  0  0  0
   -4.0412   23.8231  -28.9612 H   0  0  0  0  0  0  0  0  0  0  0  0
   -3.7731   22.5679  -31.7333 H   0  0  0  0  0  0  0  0  0  0  0  0
   -4.2703   21.7736  -30.1931 H   0  0  0  0  0  0  0  0  0  0  0  0
   -6.6402   19.0883  -34.4526 H   0  0  0  0  0  0  0  0  0  0  0  0
  1  2  2  0
  2  3  1  0
  3  4  2  0
  4  5  1  0
  5  6  1  0
  6  7  1  0
  7  8  1  0
  8  9  1  0
  9 10  1  0
  4 11  1  0
 11 12  1  0
 12 13  1  0
 13 14  2  0
 14 15  1  0
 15 16  2  0
 16 17  1  0
 17 18  2  0
 18 19  1  0
 19 20  1  0
 20 21  1  0
 21 22  1  0
 22 23  1  0
 23 24  1  0
 11 25  2  0
 25  1  1  0
 10  5  1  0
 18 13  1  0
 24 19  1  0
  1 26  1  0
  2 27  1  0
  3 28  1  0
  6 29  1  0
  6 30  1  0
  7 31  1  0
  7 32  1  0
  9 33  1  0
  9 34  1  0
 10 35  1  0
 10 36  1  0
 14 37  1  0
 15 38  1  0
 16 39  1  0
 17 40  1  0
 20 41  1  0
 20 42  1  0
 21 43  1  0
 21 44  1  0
 23 45  1  0
 23 46  1  0
 24 47  1  0
 24 48  1  0
 25 49  1  0
M  END
>  <UniqueID>  (27) 
26

>  <SMILES>  (27) 
c1ccc(N2CCOCC2)c(Sc2ccccc2N2CCOCC2)c1

>  <Energy>  (27) 
67.58952711929919

>  <Genealogy>  (27) 
c1ccc(N2CCOCC2)c(Sc2ccccc2N2CCOCC2)c1 (3D coordinates assigned)
c1ccc(N2CCOCC2)c(Sc2ccccc2N2CCOCC2)c1 (nonaromatic ring conformer: 67.58952711929919 kcal/mol)

>  <smiles>  (27) 
c1ccc(N2CCOCC2)c(Sc2ccccc2N2CCOCC2)c1

>  <score_type>  (27) 
oracle

>  <origin>  (27) 
adg

>  <m_score__min__energy>  (27) 
-8.9399999999999995

>  <m_primary>  (27) 
energy

$$$$
28:0
     RDKit          3D

 29 29  0  0  0  0  0  0  0  0999 V2000
   -6.0830   20.0420  -33.4370 C   0  0  0  0  0  0  0  0  0  0  0  0
   -6.6900   20.5580  -32.1490 C   0  0  0  0  0  0  0  0  0  0  0  0
   -7.9690   21.1970  -32.3240 N   0  0  0  0  0  0  0  0  0  0  0  0
   -9.0900   20.4270  -31.9260 C   0  0  0  0  0  0  0  0  0  0  0  0
   -8.9340   18.9450  -31.9810 C   0  0  0  0  0  0  0  0  0  0  0  0
   -7.9010   22.4920  -31.7050 C   0  0  0  0  0  0  0  0  0  0  0  0
   -6.9020   23.4360  -32.3230 C   0  0  0  0  0  0  0  0  0  0  0  0
   -5.9950   24.0190  -31.2920 C   0  0  0  0  0  0  0  0  0  0  0  0
   -6.4600   24.7420  -30.1860 C   0  0  0  0  0  0  0  0  0  0  0  0
   -5.3730   25.1080  -29.4820 N   0  0  0  0  0  0  0  0  0  0  0  0
   -4.2460   24.6480  -30.0980 C   0  0  0  0  0  0  0  0  0  0  0  0
   -4.6520   23.9770  -31.2160 N   0  0  0  0  0  0  0  0  0  0  0  0
   -5.2640   19.3458  -33.2033 H   0  0  0  0  0  0  0  0  0  0  0  0
   -6.8538   19.5184  -34.0216 H   0  0  0  0  0  0  0  0  0  0  0  0
   -5.6903   20.8870  -34.0216 H   0  0  0  0  0  0  0  0  0  0  0  0
   -6.8177   19.7090  -31.4613 H   0  0  0  0  0  0  0  0  0  0  0  0
   -6.0025   21.3203  -31.7538 H   0  0  0  0  0  0  0  0  0  0  0  0
   -9.3305   20.6992  -30.8877 H   0  0  0  0  0  0  0  0  0  0  0  0
   -9.8787   20.6634  -32.6554 H   0  0  0  0  0  0  0  0  0  0  0  0
   -8.8916   18.5426  -30.9581 H   0  0  0  0  0  0  0  0  0  0  0  0
   -9.7909   18.5056  -32.5127 H   0  0  0  0  0  0  0  0  0  0  0  0
   -8.0044   18.6936  -32.5127 H   0  0  0  0  0  0  0  0  0  0  0  0
   -8.8963   22.9556  -31.7712 H   0  0  0  0  0  0  0  0  0  0  0  0
   -7.5687   22.3235  -30.6700 H   0  0  0  0  0  0  0  0  0  0  0  0
   -6.2990   22.8864  -33.0608 H   0  0  0  0  0  0  0  0  0  0  0  0
   -7.4532   24.2575  -32.8040 H   0  0  0  0  0  0  0  0  0  0  0  0
   -7.5085   24.9667  -29.9409 H   0  0  0  0  0  0  0  0  0  0  0  0
   -5.3640   25.6680  -28.5820 H   0  0  0  0  0  0  0  0  0  0  0  0
   -3.2092   24.7903  -29.7592 H   0  0  0  0  0  0  0  0  0  0  0  0
  1  2  1  0
  2  3  1  0
  3  4  1  0
  4  5  1  0
  3  6  1  0
  6  7  1  0
  7  8  1  0
  8  9  2  0
  9 10  1  0
 10 11  1  0
 11 12  2  0
 12  8  1  0
  1 13  1  0
  1 14  1  0
  1 15  1  0
  2 16  1  0
  2 17  1  0
  4 18  1  0
  4 19  1  0
  5 20  1  0
  5 21  1  0
  5 22  1  0
  6 23  1  0
  6 24  1  0
  7 25  1  0
  7 26  1  0
  9 27  1  0
 10 28  1  0
 11 29  1  0
M  END
>  <smiles>  (28) 
CCN(CC)CCc1c[nH]cn1

>  <score_type>  (28) 
oracle

>  <origin>  (28) 
adg

>  <m_score__min__energy>  (28) 
-5.1100000000000003

>  <m_primary>  (28) 
energy

$$$$
29:0
     RDKit          3D

 40 41  0  0  0  0  0  0  0  0999 V2000
   -4.1390   22.8020  -31.5850 C   0  0  0  0  0  0  0  0  0  0  0  0
   -5.3610   23.5350  -31.0190 C   0  0  2  0  0  0  0  0  0  0  0  0
   -6.4870   23.6120  -32.0690 C   0  0  0  0  0  0  0  0  0  0  0  0
   -7.3360   22.3640  -32.0670 C   0  0  0  0  0  0  0  0  0  0  0  0
   -8.6710   22.4170  -31.6330 C   0  0  0  0  0  0  0  0  0  0  0  0
   -9.4790   21.2780  -31.6970 C   0  0  0  0  0  0  0  0  0  0  0  0
   -8.9640   20.0810  -32.2030 C   0  0  0  0  0  0  0  0  0  0  0  0
   -7.6400   20.0210  -32.6440 C   0  0  0  0  0  0  0  0  0  0  0  0
   -6.8270   21.1570  -32.5770 C   0  0  0  0  0  0  0  0  0  0  0  0
   -4.9910   24.9130  -30.5340 C   0  0  0  0  0  0  0  0  0  0  0  0
   -5.8770   25.7020  -30.1080 O   0  0  0  0  0  0  0  0  0  0  0  0
   -3.6090   25.2750  -30.4600 N   0  0  0  0  0  0  0  0  0  0  0  0
   -2.7590   24.9220  -29.3330 C   0  0  0  0  0  0  0  0  0  0  0  0
   -3.5900   24.2010  -28.2750 C   0  0  0  0  0  0  0  0  0  0  0  0
   -2.9990   22.8530  -27.9650 C   0  0  0  0  0  0  0  0  0  0  0  0
   -1.9120   22.7450  -27.0810 C   0  0  0  0  0  0  0  0  0  0  0  0
   -1.3410   21.4960  -26.8170 C   0  0  0  0  0  0  0  0  0  0  0  0
   -1.8430   20.3490  -27.4390 C   0  0  0  0  0  0  0  0  0  0  0  0
   -1.1250   18.7830  -27.1080 Cl  0  0  0  0  0  0  0  0  0  0  0  0
   -2.9170   20.4510  -28.3310 C   0  0  0  0  0  0  0  0  0  0  0  0
   -3.4900   21.6990  -28.5970 C   0  0  0  0  0  0  0  0  0  0  0  0
   -3.5185   22.4298  -30.7565 H   0  0  0  0  0  0  0  0  0  0  0  0
   -4.4729   21.9550  -32.2023 H   0  0  0  0  0  0  0  0  0  0  0  0
   -3.5489   23.4954  -32.2023 H   0  0  0  0  0  0  0  0  0  0  0  0
   -5.7302   22.9597  -30.1572 H   0  0  0  0  0  0  0  0  0  0  0  0
   -7.1260   24.4786  -31.8440 H   0  0  0  0  0  0  0  0  0  0  0  0
   -6.0246   23.7116  -33.0621 H   0  0  0  0  0  0  0  0  0  0  0  0
   -9.0824   23.3589  -31.2411 H   0  0  0  0  0  0  0  0  0  0  0  0
  -10.5214   21.3237  -31.3487 H   0  0  0  0  0  0  0  0  0  0  0  0
   -9.6016   19.1861  -32.2539 H   0  0  0  0  0  0  0  0  0  0  0  0
   -7.2364   19.0793  -33.0444 H   0  0  0  0  0  0  0  0  0  0  0  0
   -5.7847   21.1058  -32.9249 H   0  0  0  0  0  0  0  0  0  0  0  0
   -1.9499   24.2609  -29.6769 H   0  0  0  0  0  0  0  0  0  0  0  0
   -2.3266   25.8359  -28.8995 H   0  0  0  0  0  0  0  0  0  0  0  0
   -3.6103   24.8065  -27.3569 H   0  0  0  0  0  0  0  0  0  0  0  0
   -4.6104   24.0603  -28.6610 H   0  0  0  0  0  0  0  0  0  0  0  0
   -1.5089   23.6458  -26.5951 H   0  0  0  0  0  0  0  0  0  0  0  0
   -0.4951   21.4159  -26.1184 H   0  0  0  0  0  0  0  0  0  0  0  0
   -3.3105   19.5493  -28.8230 H   0  0  0  0  0  0  0  0  0  0  0  0
   -4.3289   21.7769  -29.3043 H   0  0  0  0  0  0  0  0  0  0  0  0
  1  2  1  0
  2  3  1  0
  3  4  1  0
  4  5  2  0
  5  6  1  0
  6  7  2  0
  7  8  1  0
  8  9  2  0
  2 10  1  0
 10 11  2  0
 10 12  1  0
 12 13  1  0
 13 14  1  0
 14 15  1  0
 15 16  2  0
 16 17  1  0
 17 18  2  0
 18 19  1  0
 18 20  1  0
 20 21  2  0
  9  4  1  0
 21 15  1  0
  1 22  1  0
  1 23  1  0
  1 24  1  0
  2 25  1  1
  3 26  1  0
  3 27  1  0
  5 28  1  0
  6 29  1  0
  7 30  1  0
  8 31  1  0
  9 32  1  0
 13 33  1  0
 13 34  1  0
 14 35  1  0
 14 36  1  0
 16 37  1  0
 17 38  1  0
 20 39  1  0
 21 40  1  0
M  CHG  1  12  -1
M  END
>  <UniqueID>  (29) 
27

>  <SMILES>  (29) 
C[C@H](Cc1ccccc1)C(=O)[N-]CCc1ccc(Cl)cc1

>  <Energy>  (29) 
29.050286174860858

>  <Genealogy>  (29) 
CC(Cc1ccccc1)C(=O)[N-]CCc1ccc(Cl)cc1 (protonated)
C[C@H](Cc1ccccc1)C(=O)[N-]CCc1ccc(Cl)cc1 (chirality)
C[C@H](Cc1ccccc1)C(=O)[N-]CCc1ccc(Cl)cc1 (3D coordinates assigned)
C[C@H](Cc1ccccc1)C(=O)[N-]CCc1ccc(Cl)cc1 (optimized conformer: 29.050286174860858 kcal/mol)

>  <smiles>  (29) 
CC(Cc1ccccc1)C(=O)NCCc1ccc(Cl)cc1

>  <score_type>  (29) 
oracle

>  <origin>  (29) 
adg

>  <m_score__min__energy>  (29) 
-9.9499999999999993

>  <m_primary>  (29) 
energy

$$$$
30:0
     RDKit          3D

 40 43  0  0  0  0  0  0  0  0999 V2000
   -0.3440   25.8650  -27.2180 C   0  0  0  0  0  0  0  0  0  0  0  0
   -1.2780   24.9400  -27.9260 C   0  0  0  0  0  0  0  0  0  0  0  0
   -2.0600   25.2970  -28.9710 N   0  0  0  0  0  0  0  0  0  0  0  0
   -2.7760   24.2370  -29.3380 N   0  0  0  0  0  0  0  0  0  0  0  0
   -3.7560   24.2660  -30.3890 C   0  0  0  0  0  0  0  0  0  0  0  0
   -4.1600   25.3750  -30.8340 O   0  0  0  0  0  0  0  0  0  0  0  0
   -4.2750   23.0150  -30.9890 C   0  0  0  0  0  0  0  0  0  0  0  0
   -3.4370   22.2110  -31.7800 C   0  0  0  0  0  0  0  0  0  0  0  0
   -3.9200   21.0330  -32.3570 C   0  0  0  0  0  0  0  0  0  0  0  0
   -5.2550   20.6380  -32.1650 C   0  0  0  0  0  0  0  0  0  0  0  0
   -5.7690   19.3860  -32.7770 C   0  0  0  0  0  0  0  0  0  0  0  0
   -6.7570   18.6230  -32.1250 C   0  0  0  0  0  0  0  0  0  0  0  0
   -7.2390   17.4460  -32.7050 C   0  0  0  0  0  0  0  0  0  0  0  0
   -6.7440   17.0170  -33.9380 C   0  0  0  0  0  0  0  0  0  0  0  0
   -5.7640   17.7640  -34.5950 C   0  0  0  0  0  0  0  0  0  0  0  0
   -5.2770   18.9430  -34.0210 C   0  0  0  0  0  0  0  0  0  0  0  0
   -6.0970   21.4510  -31.3860 C   0  0  0  0  0  0  0  0  0  0  0  0
   -5.6140   22.6290  -30.8090 C   0  0  0  0  0  0  0  0  0  0  0  0
   -2.4670   23.2070  -28.5200 C   0  0  0  0  0  0  0  0  0  0  0  0
   -2.9450   21.8930  -28.5240 C   0  0  0  0  0  0  0  0  0  0  0  0
   -2.4380   21.0080  -27.5530 C   0  0  0  0  0  0  0  0  0  0  0  0
   -1.4730   21.4450  -26.6170 C   0  0  0  0  0  0  0  0  0  0  0  0
   -1.0020   22.7700  -26.6440 C   0  0  0  0  0  0  0  0  0  0  0  0
   -1.5240   23.6190  -27.6180 C   0  0  0  0  0  0  0  0  0  0  0  0
   -0.4641   25.7461  -26.1311 H   0  0  0  0  0  0  0  0  0  0  0  0
    0.6921   25.6270  -27.5007 H   0  0  0  0  0  0  0  0  0  0  0  0
   -0.5719   26.9033  -27.5007 H   0  0  0  0  0  0  0  0  0  0  0  0
   -2.3919   22.5112  -31.9466 H   0  0  0  0  0  0  0  0  0  0  0  0
   -3.2493   20.4097  -32.9667 H   0  0  0  0  0  0  0  0  0  0  0  0
   -7.1518   18.9552  -31.1535 H   0  0  0  0  0  0  0  0  0  0  0  0
   -8.0105   16.8561  -32.1885 H   0  0  0  0  0  0  0  0  0  0  0  0
   -7.1259   16.0907  -34.3919 H   0  0  0  0  0  0  0  0  0  0  0  0
   -5.3742   17.4246  -35.5660 H   0  0  0  0  0  0  0  0  0  0  0  0
   -4.5056   19.5277  -34.5436 H   0  0  0  0  0  0  0  0  0  0  0  0
   -7.1454   21.1574  -31.2292 H   0  0  0  0  0  0  0  0  0  0  0  0
   -6.2875   23.2588  -30.2093 H   0  0  0  0  0  0  0  0  0  0  0  0
   -3.6918   21.5618  -29.2606 H   0  0  0  0  0  0  0  0  0  0  0  0
   -2.7958   19.9683  -27.5226 H   0  0  0  0  0  0  0  0  0  0  0  0
   -1.0877   20.7438  -25.8621 H   0  0  0  0  0  0  0  0  0  0  0  0
   -0.2497   23.1229  -25.9232 H   0  0  0  0  0  0  0  0  0  0  0  0
  1  2  1  0
  2  3  2  0
  3  4  1  0
  4  5  1  0
  5  6  2  0
  5  7  1  0
  7  8  2  0
  8  9  1  0
  9 10  2  0
 10 11  1  0
 11 12  2  0
 12 13  1  0
 13 14  2  0
 14 15  1  0
 15 16  2  0
 10 17  1  0
 17 18  2  0
  4 19  1  0
 19 20  2  0
 20 21  1  0
 21 22  2  0
 22 23  1  0
 23 24  2  0
 24  2  1  0
 18  7  1  0
 24 19  1  0
 16 11  1  0
  1 25  1  0
  1 26  1  0
  1 27  1  0
  8 28  1  0
  9 29  1  0
 12 30  1  0
 13 31  1  0
 14 32  1  0
 15 33  1  0
 16 34  1  0
 17 35  1  0
 18 36  1  0
 20 37  1  0
 21 38  1  0
 22 39  1  0
 23 40  1  0
M  END
>  <UniqueID>  (30) 
28

>  <SMILES>  (30) 
Cc1nn(C(=O)c2ccc(-c3ccccc3)cc2)c2ccccc12

>  <Energy>  (30) 
93.58359770815744

>  <Genealogy>  (30) 
Cc1nn(C(=O)c2ccc(-c3ccccc3)cc2)c2ccccc12 (3D coordinates assigned)
Cc1nn(C(=O)c2ccc(-c3ccccc3)cc2)c2ccccc12 (optimized conformer: 93.58359770815744 kcal/mol)

>  <smiles>  (30) 
Cc1nn(C(=O)c2ccc(-c3ccccc3)cc2)c2ccccc12

>  <score_type>  (30) 
oracle

>  <origin>  (30) 
adg

>  <m_score__min__energy>  (30) 
-9.2300000000000004

>  <m_primary>  (30) 
energy

$$$$
31:0
     RDKit          3D

 40 42  0  0  0  0  0  0  0  0999 V2000
   -1.0370   24.8440  -28.6840 C   0  0  0  0  0  0  0  0  0  0  0  0
   -2.4840   24.5590  -28.9040 C   0  0  0  0  0  0  0  0  0  0  0  0
   -3.3170   23.8980  -28.0220 C   0  0  0  0  0  0  0  0  0  0  0  0
   -4.5570   23.8760  -28.6260 C   0  0  0  0  0  0  0  0  0  0  0  0
   -4.3970   24.5240  -29.8360 C   0  0  0  0  0  0  0  0  0  0  0  0
   -5.4650   24.7540  -30.8550 C   0  0  0  0  0  0  0  0  0  0  0  0
   -5.3710   23.7370  -31.9190 N   0  0  0  0  0  0  0  0  0  0  0  0
   -6.4120   22.6790  -31.8600 C   0  0  0  0  0  0  0  0  0  0  0  0
   -5.9470   21.3670  -32.5500 C   0  0  0  0  0  0  0  0  0  0  0  0
   -6.8630   20.4220  -33.0770 C   0  0  0  0  0  0  0  0  0  0  0  0
   -6.4180   19.2560  -33.7040 C   0  0  0  0  0  0  0  0  0  0  0  0
   -5.0570   18.9950  -33.8160 C   0  0  0  0  0  0  0  0  0  0  0  0
   -4.1320   19.8960  -33.2960 C   0  0  0  0  0  0  0  0  0  0  0  0
   -4.5630   21.0680  -32.6660 C   0  0  0  0  0  0  0  0  0  0  0  0
   -3.6140   21.8900  -32.1520 F   0  0  0  0  0  0  0  0  0  0  0  0
   -7.7490   23.2580  -32.3730 C   0  0  0  0  0  0  0  0  0  0  0  0
   -8.8580   22.5080  -31.6450 C   0  0  0  0  0  0  0  0  0  0  0  0
   -8.2190   21.9200  -30.3910 C   0  0  0  0  0  0  0  0  0  0  0  0
   -6.7660   22.3800  -30.3920 C   0  0  0  0  0  0  0  0  0  0  0  0
   -3.1530   24.9250  -29.9730 O   0  0  0  0  0  0  0  0  0  0  0  0
   -0.8313   24.8845  -27.6042 H   0  0  0  0  0  0  0  0  0  0  0  0
   -0.4326   24.0477  -29.1428 H   0  0  0  0  0  0  0  0  0  0  0  0
   -0.7797   25.8101  -29.1428 H   0  0  0  0  0  0  0  0  0  0  0  0
   -3.0475   23.4769  -27.0422 H   0  0  0  0  0  0  0  0  0  0  0  0
   -5.4819   23.4340  -28.2270 H   0  0  0  0  0  0  0  0  0  0  0  0
   -6.4508   24.6863  -30.3718 H   0  0  0  0  0  0  0  0  0  0  0  0
   -5.3352   25.7531  -31.2965 H   0  0  0  0  0  0  0  0  0  0  0  0
   -5.3710   24.2110  -32.8500 H   0  0  0  0  0  0  0  0  0  0  0  0
   -7.9433   20.6104  -32.9906 H   0  0  0  0  0  0  0  0  0  0  0  0
   -7.1478   18.5408  -34.1111 H   0  0  0  0  0  0  0  0  0  0  0  0
   -4.7115   18.0776  -34.3150 H   0  0  0  0  0  0  0  0  0  0  0  0
   -3.0558   19.6850  -33.3811 H   0  0  0  0  0  0  0  0  0  0  0  0
   -7.8077   24.3333  -32.1485 H   0  0  0  0  0  0  0  0  0  0  0  0
   -7.8398   23.1392  -33.4628 H   0  0  0  0  0  0  0  0  0  0  0  0
   -9.6699   23.1981  -31.3720 H   0  0  0  0  0  0  0  0  0  0  0  0
   -9.2951   21.7226  -32.2791 H   0  0  0  0  0  0  0  0  0  0  0  0
   -8.7344   22.2897  -29.4923 H   0  0  0  0  0  0  0  0  0  0  0  0
   -8.2896   20.8223  -30.3848 H   0  0  0  0  0  0  0  0  0  0  0  0
   -6.6526   23.2869  -29.7799 H   0  0  0  0  0  0  0  0  0  0  0  0
   -6.1020   21.6126  -29.9675 H   0  0  0  0  0  0  0  0  0  0  0  0
  1  2  1  0
  2  3  2  0
  3  4  1  0
  4  5  2  0
  5  6  1  0
  6  7  1  0
  7  8  1  0
  8  9  1  0
  9 10  2  0
 10 11  1  0
 11 12  2  0
 12 13  1  0
 13 14  2  0
 14 15  1  0
  8 16  1  0
 16 17  1  0
 17 18  1  0
 18 19  1  0
  5 20  1  0
 20  2  1  0
 19  8  1  0
 14  9  1  0
  1 21  1  0
  1 22  1  0
  1 23  1  0
  3 24  1  0
  4 25  1  0
  6 26  1  0
  6 27  1  0
  7 28  1  0
 10 29  1  0
 11 30  1  0
 12 31  1  0
 13 32  1  0
 16 33  1  0
 16 34  1  0
 17 35  1  0
 17 36  1  0
 18 37  1  0
 18 38  1  0
 19 39  1  0
 19 40  1  0
M  END
>  <UniqueID>  (31) 
29

>  <SMILES>  (31) 
Cc1ccc(CNC2(c3ccccc3F)CCCC2)o1

>  <Energy>  (31) 
77.31695290234313

>  <Genealogy>  (31) 
Cc1ccc(CNC2(c3ccccc3F)CCCC2)o1 (3D coordinates assigned)
Cc1ccc(CNC2(c3ccccc3F)CCCC2)o1 (nonaromatic ring conformer: 77.31695290234313 kcal/mol)

>  <smiles>  (31) 
Cc1ccc(CNC2(c3ccccc3F)CCCC2)o1

>  <score_type>  (31) 
oracle

>  <origin>  (31) 
adg

>  <m_score__min__energy>  (31) 
-8.4000000000000004

>  <m_primary>  (31) 
energy

$$$$
32:0
     RDKit          3D

 39 41  0  0  1  0  0  0  0  0999 V2000
   -9.8540   21.5580  -30.3710 C   0  0  0  0  0  0  0  0  0  0  0  0
   -9.2280   20.7160  -31.2940 N   0  0  0  0  0  0  0  0  0  0  0  0
   -8.1090   20.8490  -31.8190 C   0  0  0  0  0  0  0  0  0  0  0  0
   -7.5670   22.1460  -31.7980 C   0  0  0  0  0  0  0  0  0  0  0  0
   -6.3350   22.4280  -32.3460 C   0  0  0  0  0  0  0  0  0  0  0  0
   -5.7420   23.7880  -32.3370 C   0  0  0  0  0  0  0  0  0  0  0  0
   -4.9270   24.0280  -31.1710 N   0  0  0  0  0  0  0  0  0  0  0  0
   -4.6980   22.7240  -30.5400 C   0  0  0  0  0  0  0  0  0  0  0  0
   -4.3530   23.1310  -29.1060 C   0  0  0  0  0  0  0  0  0  0  0  0
   -4.9570   24.5140  -28.9190 C   0  0  0  0  0  0  0  0  0  0  0  0
   -5.8120   24.6340  -30.1720 C   0  0  0  0  0  0  0  0  0  0  0  0
   -5.6950   21.3700  -32.9010 N   0  0  0  0  0  0  0  0  0  0  0  0
   -6.2370   20.1400  -32.9070 C   0  0  0  0  0  0  0  0  0  0  0  0
   -5.4520   19.1560  -33.5170 C   0  0  0  0  0  0  0  0  0  0  0  0
   -6.0030   17.8970  -33.5240 C   0  0  0  0  0  0  0  0  0  0  0  0
   -5.2130   16.8130  -34.1600 C   0  0  0  0  0  0  0  0  0  0  0  0
   -7.2080   17.5750  -32.9980 C   0  0  0  0  0  0  0  0  0  0  0  0
   -7.9540   18.6140  -32.3960 C   0  0  0  0  0  0  0  0  0  0  0  0
   -7.4400   19.8400  -32.3770 N   0  0  0  0  0  0  0  0  0  0  0  0
   -9.6096   21.2292  -29.3501 H   0  0  0  0  0  0  0  0  0  0  0  0
   -9.5018   22.5897  -30.5181 H   0  0  0  0  0  0  0  0  0  0  0  0
  -10.9434   21.5179  -30.5181 H   0  0  0  0  0  0  0  0  0  0  0  0
   -8.1429   22.9585  -31.3308 H   0  0  0  0  0  0  0  0  0  0  0  0
   -5.1171   23.9062  -33.2345 H   0  0  0  0  0  0  0  0  0  0  0  0
   -6.5691   24.5130  -32.3215 H   0  0  0  0  0  0  0  0  0  0  0  0
   -5.6020   22.0981  -30.5729 H   0  0  0  0  0  0  0  0  0  0  0  0
   -3.9219   22.1194  -31.0321 H   0  0  0  0  0  0  0  0  0  0  0  0
   -4.7903   22.4205  -28.3891 H   0  0  0  0  0  0  0  0  0  0  0  0
   -3.2667   23.1336  -28.9330 H   0  0  0  0  0  0  0  0  0  0  0  0
   -5.5691   24.5667  -28.0066 H   0  0  0  0  0  0  0  0  0  0  0  0
   -4.2161   25.3181  -28.7989 H   0  0  0  0  0  0  0  0  0  0  0  0
   -6.7540   24.0745  -30.0738 H   0  0  0  0  0  0  0  0  0  0  0  0
   -6.1292   25.6603  -30.4090 H   0  0  0  0  0  0  0  0  0  0  0  0
   -4.4679   19.3735  -33.9578 H   0  0  0  0  0  0  0  0  0  0  0  0
   -4.7562   16.1862  -33.3800 H   0  0  0  0  0  0  0  0  0  0  0  0
   -5.8746   16.1958  -34.7856 H   0  0  0  0  0  0  0  0  0  0  0  0
   -4.4229   17.2538  -34.7856 H   0  0  0  0  0  0  0  0  0  0  0  0
   -7.5918   16.5449  -33.0375 H   0  0  0  0  0  0  0  0  0  0  0  0
   -8.9400   18.4122  -31.9522 H   0  0  0  0  0  0  0  0  0  0  0  0
  1  2  1  0
  2  3  2  0
  3  4  1  0
  4  5  2  0
  5  6  1  0
  6  7  1  0
  7  8  1  0
  8  9  1  0
  9 10  1  0
 10 11  1  0
  5 12  1  0
 12 13  2  0
 13 14  1  0
 14 15  2  0
 15 16  1  0
 15 17  1  0
 17 18  2  0
 18 19  1  0
 19  3  1  0
 11  7  1  0
 19 13  1  0
  1 20  1  0
  1 21  1  0
  1 22  1  0
  4 23  1  0
  6 24  1  0
  6 25  1  0
  8 26  1  0
  8 27  1  0
  9 28  1  0
  9 29  1  0
 10 30  1  0
 10 31  1  0
 11 32  1  0
 11 33  1  0
 14 34  1  0
 16 35  1  0
 16 36  1  0
 16 37  1  0
 17 38  1  0
 18 39  1  0
M  END
>  <smiles>  (32) 
CN=c1cc(CN2CCCC2)nc2cc(C)ccn12

>  <score_type>  (32) 
oracle

>  <origin>  (32) 
adg

>  <m_score__min__energy>  (32) 
-7.0099999999999998

>  <m_primary>  (32) 
energy

$$$$
33:0
     RDKit          3D

 48 50  0  0  0  0  0  0  0  0999 V2000
   -0.2280   28.7770  -26.9440 C   0  0  0  0  0  0  0  0  0  0  0  0
    0.7710   27.6840  -26.5790 C   0  0  0  0  0  0  0  0  0  0  0  0
    0.1130   26.6150  -25.8110 N   0  0  0  0  0  0  0  0  0  0  0  0
    0.5800   26.3400  -24.4410 C   0  0  0  0  0  0  0  0  0  0  0  0
   -0.4450   26.8000  -23.4060 C   0  0  0  0  0  0  0  0  0  0  0  0
   -0.9220   25.8230  -26.4430 C   0  0  0  0  0  0  0  0  0  0  0  0
   -2.2270   25.7650  -25.9230 C   0  0  0  0  0  0  0  0  0  0  0  0
   -3.2100   24.9900  -26.5590 C   0  0  0  0  0  0  0  0  0  0  0  0
   -4.5990   24.9450  -25.9720 C   0  0  0  0  0  0  0  0  0  0  0  0
   -2.8720   24.2740  -27.7320 C   0  0  0  0  0  0  0  0  0  0  0  0
   -3.8040   23.4770  -28.4300 C   0  0  0  0  0  0  0  0  0  0  0  0
   -3.4250   22.7730  -29.5830 C   0  0  0  0  0  0  0  0  0  0  0  0
   -4.4080   21.9910  -30.2830 N   0  0  0  0  0  0  0  0  0  0  0  0
   -5.3720   22.5460  -31.1960 C   0  0  0  0  0  0  0  0  0  0  0  0
   -5.2840   23.7510  -31.5540 O   0  0  0  0  0  0  0  0  0  0  0  0
   -6.4490   21.6990  -31.7580 C   0  0  0  0  0  0  0  0  0  0  0  0
   -7.7900   21.9810  -31.4420 C   0  0  0  0  0  0  0  0  0  0  0  0
   -8.8220   21.1880  -31.9490 C   0  0  0  0  0  0  0  0  0  0  0  0
   -8.5290   20.1030  -32.7760 C   0  0  0  0  0  0  0  0  0  0  0  0
   -7.2030   19.8100  -33.1000 C   0  0  0  0  0  0  0  0  0  0  0  0
   -6.1590   20.5970  -32.5960 C   0  0  0  0  0  0  0  0  0  0  0  0
   -4.5150   20.2050  -33.0900 Cl  0  0  0  0  0  0  0  0  0  0  0  0
   -2.1130   22.8980  -30.0670 C   0  0  0  0  0  0  0  0  0  0  0  0
   -1.1820   23.6860  -29.3870 C   0  0  0  0  0  0  0  0  0  0  0  0
   -1.5510   24.3680  -28.2250 C   0  0  0  0  0  0  0  0  0  0  0  0
   -0.6340   25.1290  -27.5770 N   0  0  0  0  0  0  0  0  0  0  0  0
   -0.6356   29.2230  -26.0248 H   0  0  0  0  0  0  0  0  0  0  0  0
    0.2785   29.5541  -27.5352 H   0  0  0  0  0  0  0  0  0  0  0  0
   -1.0474   28.3422  -27.5352 H   0  0  0  0  0  0  0  0  0  0  0  0
    1.1940   27.2586  -27.5010 H   0  0  0  0  0  0  0  0  0  0  0  0
    1.5680   28.1243  -25.9619 H   0  0  0  0  0  0  0  0  0  0  0  0
    0.7436   25.2581  -24.3279 H   0  0  0  0  0  0  0  0  0  0  0  0
    1.5162   26.8930  -24.2742 H   0  0  0  0  0  0  0  0  0  0  0  0
   -0.0499   26.6227  -22.3948 H   0  0  0  0  0  0  0  0  0  0  0  0
   -0.6438   27.8737  -23.5389 H   0  0  0  0  0  0  0  0  0  0  0  0
   -1.3793   26.2349  -23.5389 H   0  0  0  0  0  0  0  0  0  0  0  0
   -2.4792   26.3297  -25.0133 H   0  0  0  0  0  0  0  0  0  0  0  0
   -4.5333   24.9471  -24.8740 H   0  0  0  0  0  0  0  0  0  0  0  0
   -5.1673   25.8252  -26.3070 H   0  0  0  0  0  0  0  0  0  0  0  0
   -5.1092   24.0299  -26.3070 H   0  0  0  0  0  0  0  0  0  0  0  0
   -4.8397   23.4068  -28.0660 H   0  0  0  0  0  0  0  0  0  0  0  0
   -4.3810   20.9550  -30.1520 H   0  0  0  0  0  0  0  0  0  0  0  0
   -8.0284   22.8339  -30.7896 H   0  0  0  0  0  0  0  0  0  0  0  0
   -9.8672   21.4192  -31.6960 H   0  0  0  0  0  0  0  0  0  0  0  0
   -9.3429   19.4784  -33.1727 H   0  0  0  0  0  0  0  0  0  0  0  0
   -6.9764   18.9559  -33.7551 H   0  0  0  0  0  0  0  0  0  0  0  0
   -1.8168   22.3724  -30.9868 H   0  0  0  0  0  0  0  0  0  0  0  0
   -0.1535   23.7701  -29.7680 H   0  0  0  0  0  0  0  0  0  0  0  0
  1  2  1  0
  2  3  1  0
  3  4  1  0
  4  5  1  0
  3  6  1  0
  6  7  2  0
  7  8  1  0
  8  9  1  0
  8 10  2  0
 10 11  1  0
 11 12  2  0
 12 13  1  0
 13 14  1  0
 14 15  2  0
 14 16  1  0
 16 17  2  0
 17 18  1  0
 18 19  2  0
 19 20  1  0
 20 21  2  0
 21 22  1  0
 12 23  1  0
 23 24  2  0
 24 25  1  0
 25 26  2  0
 26  6  1  0
 25 10  1  0
 21 16  1  0
  1 27  1  0
  1 28  1  0
  1 29  1  0
  2 30  1  0
  2 31  1  0
  4 32  1  0
  4 33  1  0
  5 34  1  0
  5 35  1  0
  5 36  1  0
  7 37  1  0
  9 38  1  0
  9 39  1  0
  9 40  1  0
 11 41  1  0
 13 42  1  0
 17 43  1  0
 18 44  1  0
 19 45  1  0
 20 46  1  0
 23 47  1  0
 24 48  1  0
M  END
>  <UniqueID>  (33) 
30

>  <SMILES>  (33) 
CCN(CC)c1cc(C)c2cc(NC(=O)c3ccccc3Cl)ccc2n1

>  <Energy>  (33) 
59.46625226574179

>  <Genealogy>  (33) 
CCN(CC)c1cc(C)c2cc(NC(=O)c3ccccc3Cl)ccc2n1 (3D coordinates assigned)
CCN(CC)c1cc(C)c2cc(NC(=O)c3ccccc3Cl)ccc2n1 (optimized conformer: 59.46625226574179 kcal/mol)

>  <smiles>  (33) 
CCN(CC)c1cc(C)c2cc(NC(=O)c3ccccc3Cl)ccc2n1

>  <score_type>  (33) 
oracle

>  <origin>  (33) 
adg

>  <m_score__min__energy>  (33) 
-8.4100000000000001

>  <m_primary>  (33) 
energy

$$$$
34:0
     RDKit          3D

 34 36  0  0  0  0  0  0  0  0999 V2000
   -9.4350   20.9220  -31.9760 C   0  0  0  0  0  0  0  0  0  0  0  0
   -8.6530   21.7880  -31.1820 O   0  0  0  0  0  0  0  0  0  0  0  0
   -7.8800   22.6410  -32.0050 C   0  0  0  0  0  0  0  0  0  0  0  0
   -6.4570   22.1290  -32.1260 C   0  0  0  0  0  0  0  0  0  0  0  0
   -6.1890   21.0410  -32.9770 C   0  0  0  0  0  0  0  0  0  0  0  0
   -7.1800   20.4460  -33.6900 F   0  0  0  0  0  0  0  0  0  0  0  0
   -4.8880   20.5540  -33.0960 C   0  0  0  0  0  0  0  0  0  0  0  0
   -3.8790   21.1190  -32.3890 N   0  0  0  0  0  0  0  0  0  0  0  0
   -4.0850   22.1650  -31.5460 C   0  0  0  0  0  0  0  0  0  0  0  0
   -3.0030   22.7040  -30.8400 C   0  0  0  0  0  0  0  0  0  0  0  0
   -1.7560   22.2110  -31.0540 F   0  0  0  0  0  0  0  0  0  0  0  0
   -3.1990   23.7790  -29.9550 C   0  0  0  0  0  0  0  0  0  0  0  0
   -2.1020   24.3490  -29.2210 N   0  0  0  0  0  0  0  0  0  0  0  0
   -1.9890   25.6450  -28.9650 N   0  0  0  0  0  0  0  0  0  0  0  0
   -0.8680   25.8190  -28.2310 C   0  0  0  0  0  0  0  0  0  0  0  0
   -0.4300   27.1350  -27.6850 C   0  0  0  0  0  0  0  0  0  0  0  0
   -0.2640   24.5980  -27.9780 C   0  0  0  0  0  0  0  0  0  0  0  0
   -1.0820   23.7010  -28.6220 C   0  0  0  0  0  0  0  0  0  0  0  0
   -0.9370   22.4490  -28.6100 O   0  0  0  0  0  0  0  0  0  0  0  0
   -4.4810   24.3250  -29.8130 C   0  0  0  0  0  0  0  0  0  0  0  0
   -5.5650   23.7920  -30.5140 C   0  0  0  0  0  0  0  0  0  0  0  0
   -5.3870   22.7040  -31.3910 C   0  0  0  0  0  0  0  0  0  0  0  0
  -10.0292   20.2640  -31.3249 H   0  0  0  0  0  0  0  0  0  0  0  0
  -10.1092   21.5155  -32.6110 H   0  0  0  0  0  0  0  0  0  0  0  0
   -8.7761   20.3116  -32.6110 H   0  0  0  0  0  0  0  0  0  0  0  0
   -8.3339   22.6846  -33.0061 H   0  0  0  0  0  0  0  0  0  0  0  0
   -7.8568   23.6427  -31.5510 H   0  0  0  0  0  0  0  0  0  0  0  0
   -4.6795   19.7074  -33.7667 H   0  0  0  0  0  0  0  0  0  0  0  0
   -0.4422   27.0983  -26.5857 H   0  0  0  0  0  0  0  0  0  0  0  0
    0.5899   27.3553  -28.0332 H   0  0  0  0  0  0  0  0  0  0  0  0
   -1.1145   27.9226  -28.0332 H   0  0  0  0  0  0  0  0  0  0  0  0
    0.6501   24.3954  -27.4007 H   0  0  0  0  0  0  0  0  0  0  0  0
   -4.6357   25.1829  -29.1421 H   0  0  0  0  0  0  0  0  0  0  0  0
   -6.5670   24.2257  -30.3801 H   0  0  0  0  0  0  0  0  0  0  0  0
  1  2  1  0
  2  3  1  0
  3  4  1  0
  4  5  2  0
  5  6  1  0
  5  7  1  0
  7  8  2  0
  8  9  1  0
  9 10  2  0
 10 11  1  0
 10 12  1  0
 12 13  1  0
 13 14  1  0
 14 15  1  0
 15 16  1  0
 15 17  2  0
 17 18  1  0
 18 19  2  0
 12 20  2  0
 20 21  1  0
 21 22  2  0
 22  4  1  0
 22  9  1  0
 18 13  1  0
  1 23  1  0
  1 24  1  0
  1 25  1  0
  3 26  1  0
  3 27  1  0
  7 28  1  0
 16 29  1  0
 16 30  1  0
 16 31  1  0
 17 32  1  0
 20 33  1  0
 21 34  1  0
M  CHG  1  14  -1
M  END
>  <UniqueID>  (34) 
31

>  <SMILES>  (34) 
COCc1c(F)cnc2c(F)c(-n3[n-]c(C)cc3=O)ccc12

>  <Energy>  (34) 
80.31936475030432

>  <Genealogy>  (34) 
COCc1c(F)cnc2c(F)c(-n3[n-]c(C)cc3=O)ccc12 (protonated)
COCc1c(F)cnc2c(F)c(-n3[n-]c(C)cc3=O)ccc12 (3D coordinates assigned)
COCc1c(F)cnc2c(F)c(-n3[n-]c(C)cc3=O)ccc12 (optimized conformer: 80.31936475030432 kcal/mol)

>  <smiles>  (34) 
COCc1c(F)cnc2c(F)c(-n3[nH]c(C)cc3=O)ccc12

>  <score_type>  (34) 
oracle

>  <origin>  (34) 
adg

>  <m_score__min__energy>  (34) 
-7.8399999999999999

>  <m_primary>  (34) 
energy

$$$$
35:0
     RDKit          3D

 59 63  0  0  0  0  0  0  0  0999 V2000
   -4.8840   15.2620  -32.9480 C   0  0  0  0  0  0  0  0  0  0  0  0
   -4.9020   16.0580  -34.5850 S   0  0  0  0  0  0  0  0  0  0  0  0
   -5.1920   17.6980  -33.9180 C   0  0  0  0  0  0  0  0  0  0  0  0
   -4.1580   18.6620  -33.9460 C   0  0  0  0  0  0  0  0  0  0  0  0
   -4.3710   19.9530  -33.4350 C   0  0  0  0  0  0  0  0  0  0  0  0
   -5.6260   20.2420  -32.9060 C   0  0  0  0  0  0  0  0  0  0  0  0
   -6.1420   21.3990  -32.3690 C   0  0  0  0  0  0  0  0  0  0  0  0
   -5.5680   22.6490  -32.1510 C   0  0  0  0  0  0  0  0  0  0  0  0
   -6.3710   23.6540  -31.5700 C   0  0  0  0  0  0  0  0  0  0  0  0
   -5.7590   24.9790  -31.1850 C   0  0  0  0  0  0  0  0  0  0  0  0
   -5.1550   24.9220  -29.7730 C   0  0  0  0  0  0  0  0  0  0  0  0
   -4.0190   23.9770  -29.7250 N   0  0  0  0  0  0  0  0  0  0  0  0
   -2.8430   24.5540  -29.0440 C   0  0  0  0  0  0  0  0  0  0  0  0
   -1.6090   23.6880  -29.3500 C   0  0  0  0  0  0  0  0  0  0  0  0
   -2.0140   22.3010  -29.6220 N   0  0  0  0  0  0  0  0  0  0  0  0
   -1.4350   21.5830  -30.7300 C   0  0  0  0  0  0  0  0  0  0  0  0
   -0.3520   20.7110  -30.5180 C   0  0  0  0  0  0  0  0  0  0  0  0
    0.2470   20.0530  -31.5960 C   0  0  0  0  0  0  0  0  0  0  0  0
   -0.2250   20.2610  -32.8960 C   0  0  0  0  0  0  0  0  0  0  0  0
   -1.2990   21.1260  -33.1170 C   0  0  0  0  0  0  0  0  0  0  0  0
   -1.9030   21.7840  -32.0420 C   0  0  0  0  0  0  0  0  0  0  0  0
   -3.1690   21.7770  -28.8820 C   0  0  0  0  0  0  0  0  0  0  0  0
   -4.3980   22.6830  -29.1090 C   0  0  0  0  0  0  0  0  0  0  0  0
   -7.7240   23.3770  -31.2500 C   0  0  0  0  0  0  0  0  0  0  0  0
   -8.2750   22.1050  -31.4840 C   0  0  0  0  0  0  0  0  0  0  0  0
   -7.4520   21.1220  -32.0340 C   0  0  0  0  0  0  0  0  0  0  0  0
   -7.7670   19.8330  -32.3180 N   0  0  0  0  0  0  0  0  0  0  0  0
   -9.0650   19.1810  -32.1470 C   0  0  0  0  0  0  0  0  0  0  0  0
   -6.6450   19.3090  -32.8720 C   0  0  0  0  0  0  0  0  0  0  0  0
   -6.4540   18.0200  -33.3800 C   0  0  0  0  0  0  0  0  0  0  0  0
   -4.9015   16.0341  -32.1647 H   0  0  0  0  0  0  0  0  0  0  0  0
   -5.7677   14.6152  -32.8451 H   0  0  0  0  0  0  0  0  0  0  0  0
   -3.9719   14.6558  -32.8451 H   0  0  0  0  0  0  0  0  0  0  0  0
   -3.1784   18.3987  -34.3716 H   0  0  0  0  0  0  0  0  0  0  0  0
   -3.5732   20.7101  -33.4522 H   0  0  0  0  0  0  0  0  0  0  0  0
   -4.5208   22.8471  -32.4233 H   0  0  0  0  0  0  0  0  0  0  0  0
   -4.9661   25.2308  -31.9047 H   0  0  0  0  0  0  0  0  0  0  0  0
   -6.5492   25.7442  -31.1956 H   0  0  0  0  0  0  0  0  0  0  0  0
   -4.8018   25.9249  -29.4912 H   0  0  0  0  0  0  0  0  0  0  0  0
   -5.9297   24.5776  -29.0721 H   0  0  0  0  0  0  0  0  0  0  0  0
   -2.6732   25.5785  -29.4068 H   0  0  0  0  0  0  0  0  0  0  0  0
   -3.0185   24.5786  -27.9584 H   0  0  0  0  0  0  0  0  0  0  0  0
   -1.0901   24.0940  -30.2309 H   0  0  0  0  0  0  0  0  0  0  0  0
   -0.9379   23.7006  -28.4785 H   0  0  0  0  0  0  0  0  0  0  0  0
    0.0257   20.5459  -29.4982 H   0  0  0  0  0  0  0  0  0  0  0  0
    1.0915   19.3701  -31.4215 H   0  0  0  0  0  0  0  0  0  0  0  0
    0.2491   19.7440  -33.7433 H   0  0  0  0  0  0  0  0  0  0  0  0
   -1.6703   21.2898  -34.1394 H   0  0  0  0  0  0  0  0  0  0  0  0
   -2.7493   22.4631  -32.2225 H   0  0  0  0  0  0  0  0  0  0  0  0
   -3.3963   20.7601  -29.2344 H   0  0  0  0  0  0  0  0  0  0  0  0
   -2.9300   21.7557  -27.8085 H   0  0  0  0  0  0  0  0  0  0  0  0
   -5.1047   22.1650  -29.7740 H   0  0  0  0  0  0  0  0  0  0  0  0
   -4.8566   22.8902  -28.1309 H   0  0  0  0  0  0  0  0  0  0  0  0
   -8.3511   24.1679  -30.8128 H   0  0  0  0  0  0  0  0  0  0  0  0
   -9.3260   21.8907  -31.2402 H   0  0  0  0  0  0  0  0  0  0  0  0
   -9.2820   19.0720  -31.0742 H   0  0  0  0  0  0  0  0  0  0  0  0
   -9.8477   19.7929  -32.6191 H   0  0  0  0  0  0  0  0  0  0  0  0
   -9.0414   18.1877  -32.6191 H   0  0  0  0  0  0  0  0  0  0  0  0
   -7.2661   17.2783  -33.3601 H   0  0  0  0  0  0  0  0  0  0  0  0
  1  2  1  0
  2  3  1  0
  3  4  2  0
  4  5  1  0
  5  6  2  0
  6  7  1  0
  7  8  2  0
  8  9  1  0
  9 10  1  0
 10 11  1  0
 11 12  1  0
 12 13  1  0
 13 14  1  0
 14 15  1  0
 15 16  1  0
 16 17  2  0
 17 18  1  0
 18 19  2  0
 19 20  1  0
 20 21  2  0
 15 22  1  0
 22 23  1  0
  9 24  2  0
 24 25  1  0
 25 26  2  0
 26 27  1  0
 27 28  1  0
 27 29  1  0
 29 30  2  0
 30  3  1  0
 29  6  1  0
 26  7  1  0
 23 12  1  0
 21 16  1  0
  1 31  1  0
  1 32  1  0
  1 33  1  0
  4 34  1  0
  5 35  1  0
  8 36  1  0
 10 37  1  0
 10 38  1  0
 11 39  1  0
 11 40  1  0
 13 41  1  0
 13 42  1  0
 14 43  1  0
 14 44  1  0
 17 45  1  0
 18 46  1  0
 19 47  1  0
 20 48  1  0
 21 49  1  0
 22 50  1  0
 22 51  1  0
 23 52  1  0
 23 53  1  0
 24 54  1  0
 25 55  1  0
 28 56  1  0
 28 57  1  0
 28 58  1  0
 30 59  1  0
M  END
>  <UniqueID>  (35) 
32

>  <SMILES>  (35) 
CSc1ccc2c3cc(CCN4CCN(c5ccccc5)CC4)ccc3n(C)c2c1

>  <Energy>  (35) 
107.96678249030545

>  <Genealogy>  (35) 
CSc1ccc2c3cc(CCN4CCN(c5ccccc5)CC4)ccc3n(C)c2c1 (3D coordinates assigned)
CSc1ccc2c3cc(CCN4CCN(c5ccccc5)CC4)ccc3n(C)c2c1 (nonaromatic ring conformer: 107.96678249030545 kcal/mol)

>  <smiles>  (35) 
CSc1ccc2c3cc(CCN4CCN(c5ccccc5)CC4)ccc3n(C)c2c1

>  <score_type>  (35) 
oracle

>  <origin>  (35) 
adg

>  <m_score__min__energy>  (35) 
-10.32

>  <m_primary>  (35) 
energy

$$$$
36:0
     RDKit          3D

 44 49  0  0  0  0  0  0  0  0999 V2000
   -5.0440   24.4840  -30.8430 Br  0  0  0  0  0  0  0  0  0  0  0  0
   -4.2120   22.9830  -29.9900 C   0  0  0  0  0  0  0  0  0  0  0  0
   -3.9450   23.1150  -28.6200 C   0  0  0  0  0  0  0  0  0  0  0  0
   -3.3930   22.0580  -27.8970 C   0  0  0  0  0  0  0  0  0  0  0  0
   -3.1140   20.8510  -28.5340 C   0  0  0  0  0  0  0  0  0  0  0  0
   -3.3720   20.7020  -29.8970 C   0  0  0  0  0  0  0  0  0  0  0  0
   -3.8980   21.7690  -30.6570 C   0  0  0  0  0  0  0  0  0  0  0  0
   -4.1680   21.5290  -32.1400 C   0  0  1  0  0  0  0  0  0  0  0  0
   -2.8990   21.0850  -32.8060 C   0  0  0  0  0  0  0  0  0  0  0  0
   -1.7180   21.7460  -32.8150 N   0  0  0  0  0  0  0  0  0  0  0  0
   -0.8800   20.9600  -33.5240 C   0  0  0  0  0  0  0  0  0  0  0  0
    0.4620   21.2000  -33.8140 C   0  0  0  0  0  0  0  0  0  0  0  0
    1.1530   20.2370  -34.5730 C   0  0  0  0  0  0  0  0  0  0  0  0
    0.4960   19.0670  -35.0200 C   0  0  0  0  0  0  0  0  0  0  0  0
   -0.8600   18.8490  -34.7140 C   0  0  0  0  0  0  0  0  0  0  0  0
   -1.5140   19.8200  -33.9620 C   0  0  0  0  0  0  0  0  0  0  0  0
   -2.8020   19.9100  -33.5010 C   0  0  0  0  0  0  0  0  0  0  0  0
   -3.8590   19.0290  -33.6620 O   0  0  0  0  0  0  0  0  0  0  0  0
   -5.1160   19.3400  -33.1210 C   0  0  0  0  0  0  0  0  0  0  0  0
   -6.1490   18.4230  -33.3030 C   0  0  0  0  0  0  0  0  0  0  0  0
   -7.4210   18.6780  -32.8040 C   0  0  0  0  0  0  0  0  0  0  0  0
   -7.6930   19.8780  -32.1410 C   0  0  0  0  0  0  0  0  0  0  0  0
   -8.9950   20.1320  -31.6770 C   0  0  0  0  0  0  0  0  0  0  0  0
   -9.2960   21.3380  -31.0480 C   0  0  0  0  0  0  0  0  0  0  0  0
   -8.3060   22.3070  -30.8880 C   0  0  0  0  0  0  0  0  0  0  0  0
   -7.0070   22.0690  -31.3390 C   0  0  0  0  0  0  0  0  0  0  0  0
   -6.6650   20.8420  -31.9520 C   0  0  0  0  0  0  0  0  0  0  0  0
   -5.3400   20.5550  -32.3980 C   0  0  0  0  0  0  0  0  0  0  0  0
   -4.1734   24.0625  -28.1100 H   0  0  0  0  0  0  0  0  0  0  0  0
   -3.1781   22.1772  -26.8248 H   0  0  0  0  0  0  0  0  0  0  0  0
   -2.6893   20.0135  -27.9611 H   0  0  0  0  0  0  0  0  0  0  0  0
   -3.1626   19.7394  -30.3864 H   0  0  0  0  0  0  0  0  0  0  0  0
   -4.4950   22.4798  -32.5861 H   0  0  0  0  0  0  0  0  0  0  0  0
   -1.5020   22.6650  -32.3670 H   0  0  0  0  0  0  0  0  0  0  0  0
    0.9648   22.1125  -33.4611 H   0  0  0  0  0  0  0  0  0  0  0  0
    2.2130   20.3957  -34.8206 H   0  0  0  0  0  0  0  0  0  0  0  0
    1.0490   18.3222  -35.6111 H   0  0  0  0  0  0  0  0  0  0  0  0
   -1.3837   17.9444  -35.0566 H   0  0  0  0  0  0  0  0  0  0  0  0
   -5.9558   17.4870  -33.8476 H   0  0  0  0  0  0  0  0  0  0  0  0
   -8.2183   17.9310  -32.9316 H   0  0  0  0  0  0  0  0  0  0  0  0
   -9.7809   19.3742  -31.8113 H   0  0  0  0  0  0  0  0  0  0  0  0
  -10.3146   21.5259  -30.6776 H   0  0  0  0  0  0  0  0  0  0  0  0
   -8.5503   23.2640  -30.4037 H   0  0  0  0  0  0  0  0  0  0  0  0
   -6.2389   22.8467  -31.2158 H   0  0  0  0  0  0  0  0  0  0  0  0
  1  2  1  0
  2  3  2  0
  3  4  1  0
  4  5  2  0
  5  6  1  0
  6  7  2  0
  7  8  1  0
  8  9  1  0
  9 10  1  0
 10 11  1  0
 11 12  2  0
 12 13  1  0
 13 14  2  0
 14 15  1  0
 15 16  2  0
 16 17  1  0
 17 18  1  0
 18 19  1  0
 19 20  2  0
 20 21  1  0
 21 22  2  0
 22 23  1  0
 23 24  2  0
 24 25  1  0
 25 26  2  0
 26 27  1  0
 27 28  2  0
  7  2  1  0
 28  8  1  0
 17  9  2  0
 28 19  1  0
 16 11  1  0
 27 22  1  0
  3 29  1  0
  4 30  1  0
  5 31  1  0
  6 32  1  0
  8 33  1  6
 10 34  1  0
 12 35  1  0
 13 36  1  0
 14 37  1  0
 15 38  1  0
 20 39  1  0
 21 40  1  0
 23 41  1  0
 24 42  1  0
 25 43  1  0
 26 44  1  0
M  END
>  <UniqueID>  (36) 
33

>  <SMILES>  (36) 
Brc1ccccc1[C@H]1c2[nH]c3ccccc3c2Oc2ccc3ccccc3c21

>  <Energy>  (36) 
101.6367408380987

>  <Genealogy>  (36) 
Brc1ccccc1[C@H]1c2[nH]c3ccccc3c2Oc2ccc3ccccc3c21 (chirality)
Brc1ccccc1[C@H]1c2[nH]c3ccccc3c2Oc2ccc3ccccc3c21 (3D coordinates assigned)
Brc1ccccc1[C@H]1c2[nH]c3ccccc3c2Oc2ccc3ccccc3c21 (nonaromatic ring conformer: 101.6367408380987 kcal/mol)

>  <smiles>  (36) 
Brc1ccccc1C1c2[nH]c3ccccc3c2Oc2ccc3ccccc3c21

>  <score_type>  (36) 
oracle

>  <origin>  (36) 
adg

>  <m_score__min__energy>  (36) 
-9.5899999999999999

>  <m_primary>  (36) 
energy

$$$$
37:0
     RDKit          3D

 30 31  0  0  0  0  0  0  0  0999 V2000
   -4.3840   24.5330  -30.5620 F   0  0  0  0  0  0  0  0  0  0  0  0
   -5.5520   23.8910  -30.8080 C   0  0  0  0  0  0  0  0  0  0  0  0
   -6.0420   23.8060  -32.1130 C   0  0  0  0  0  0  0  0  0  0  0  0
   -7.2480   23.1450  -32.3680 C   0  0  0  0  0  0  0  0  0  0  0  0
   -7.9680   22.5550  -31.3160 C   0  0  0  0  0  0  0  0  0  0  0  0
   -9.2830   21.8740  -31.5830 C   0  0  0  0  0  0  0  0  0  0  0  0
   -9.0940   20.3590  -31.6950 C   0  0  0  0  0  0  0  0  0  0  0  0
   -8.4390   20.0070  -32.9560 N   0  0  0  0  0  0  0  0  0  0  0  0
   -7.0450   19.6810  -33.0350 C   0  0  0  0  0  0  0  0  0  0  0  0
   -6.2520   19.6670  -32.0190 N   0  0  0  0  0  0  0  0  0  0  0  0
   -4.9060   19.2960  -32.4370 C   0  0  0  0  0  0  0  0  0  0  0  0
   -5.0160   19.0740  -33.9560 C   0  0  0  0  0  0  0  0  0  0  0  0
   -6.4130   19.3400  -34.2510 N   0  0  0  0  0  0  0  0  0  0  0  0
   -7.4750   22.6560  -30.0040 C   0  0  0  0  0  0  0  0  0  0  0  0
   -6.2690   23.3180  -29.7520 C   0  0  0  0  0  0  0  0  0  0  0  0
   -5.4786   24.2596  -32.9417 H   0  0  0  0  0  0  0  0  0  0  0  0
   -7.6341   23.0870  -33.3964 H   0  0  0  0  0  0  0  0  0  0  0  0
   -9.9766   22.0914  -30.7574 H   0  0  0  0  0  0  0  0  0  0  0  0
   -9.6905   22.2510  -32.5326 H   0  0  0  0  0  0  0  0  0  0  0  0
   -8.4728   20.0104  -30.8568 H   0  0  0  0  0  0  0  0  0  0  0  0
  -10.0828   19.8780  -31.6659 H   0  0  0  0  0  0  0  0  0  0  0  0
   -8.9940   19.9880  -33.8420 H   0  0  0  0  0  0  0  0  0  0  0  0
   -6.5210   19.8870  -31.0350 H   0  0  0  0  0  0  0  0  0  0  0  0
   -4.1939   20.1041  -32.2136 H   0  0  0  0  0  0  0  0  0  0  0  0
   -4.5384   18.4024  -31.9113 H   0  0  0  0  0  0  0  0  0  0  0  0
   -4.3620   19.7705  -34.5011 H   0  0  0  0  0  0  0  0  0  0  0  0
   -4.7048   18.0635  -34.2593 H   0  0  0  0  0  0  0  0  0  0  0  0
   -6.8660   19.2890  -35.1900 H   0  0  0  0  0  0  0  0  0  0  0  0
   -8.0403   22.2123  -29.1712 H   0  0  0  0  0  0  0  0  0  0  0  0
   -5.8843   23.3881  -28.7238 H   0  0  0  0  0  0  0  0  0  0  0  0
  1  2  1  0
  2  3  2  0
  3  4  1  0
  4  5  2  0
  5  6  1  0
  6  7  1  0
  7  8  1  0
  8  9  1  0
  9 10  2  0
 10 11  1  0
 11 12  1  0
 12 13  1  0
  5 14  1  0
 14 15  2  0
 15  2  1  0
 13  9  1  0
  3 16  1  0
  4 17  1  0
  6 18  1  0
  6 19  1  0
  7 20  1  0
  7 21  1  0
  8 22  1  0
 10 23  1  0
 11 24  1  0
 11 25  1  0
 12 26  1  0
 12 27  1  0
 13 28  1  0
 14 29  1  0
 15 30  1  0
M  CHG  1  10   1
M  END
>  <UniqueID>  (37) 
34

>  <SMILES>  (37) 
Fc1ccc(CCNC2=[NH+]CCN2)cc1

>  <Energy>  (37) 
35.50532102050359

>  <Genealogy>  (37) 
Fc1ccc(CCNC2=[NH+]CCN2)cc1 (protonated)
Fc1ccc(CCNC2=[NH+]CCN2)cc1 (3D coordinates assigned)
Fc1ccc(CCNC2=[NH+]CCN2)cc1 (nonaromatic ring conformer: 35.50532102050359 kcal/mol)

>  <smiles>  (37) 
Fc1ccc(CCNC2=NCCN2)cc1

>  <score_type>  (37) 
oracle

>  <origin>  (37) 
adg

>  <m_score__min__energy>  (37) 
-5.79

>  <m_primary>  (37) 
energy

$$$$
38:0
     RDKit          3D

 50 53  0  0  0  0  0  0  0  0999 V2000
  -10.4473   20.6778  -31.9472 H   0  0  0  0  0  0  0  0  0  0  0  0
   -9.3800   20.4550  -32.0930 C   0  0  0  0  0  0  0  0  0  0  0  0
   -8.4390   21.4840  -32.0350 C   0  0  0  0  0  0  0  0  0  0  0  0
   -8.8640   22.8680  -31.6390 C   0  0  0  0  0  0  0  0  0  0  0  0
   -8.8875   22.9445  -30.5419 H   0  0  0  0  0  0  0  0  0  0  0  0
   -8.1494   23.6005  -32.0424 H   0  0  0  0  0  0  0  0  0  0  0  0
   -9.8666   23.0732  -32.0424 H   0  0  0  0  0  0  0  0  0  0  0  0
   -7.0820   21.1990  -32.2580 C   0  0  0  0  0  0  0  0  0  0  0  0
   -6.3400   22.0013  -32.1330 H   0  0  0  0  0  0  0  0  0  0  0  0
   -6.6420   19.9090  -32.6390 C   0  0  0  0  0  0  0  0  0  0  0  0
   -5.2550   19.6470  -32.9880 C   0  0  0  0  0  0  0  0  0  0  0  0
   -4.4490   20.5490  -33.4920 N   0  0  0  0  0  0  0  0  0  0  0  0
   -4.0970   21.9230  -33.1270 C   0  0  0  0  0  0  0  0  0  0  0  0
   -3.0969   22.1565  -33.5212 H   0  0  0  0  0  0  0  0  0  0  0  0
   -4.8451   22.6058  -33.5561 H   0  0  0  0  0  0  0  0  0  0  0  0
   -4.0900   22.0940  -31.6000 C   0  0  0  0  0  0  0  0  0  0  0  0
   -4.9273   21.5222  -31.1734 H   0  0  0  0  0  0  0  0  0  0  0  0
   -3.1262   21.7260  -31.2182 H   0  0  0  0  0  0  0  0  0  0  0  0
   -4.2300   23.5160  -31.2070 N   0  0  0  0  0  0  0  0  0  0  0  0
   -3.7660   23.7500  -29.8160 C   0  0  0  0  0  0  0  0  0  0  0  0
   -3.1791   22.8799  -29.4866 H   0  0  0  0  0  0  0  0  0  0  0  0
   -3.1574   24.6663  -29.8111 H   0  0  0  0  0  0  0  0  0  0  0  0
   -4.9410   23.9550  -28.8410 C   0  0  0  0  0  0  0  0  0  0  0  0
   -5.5569   23.0436  -28.8395 H   0  0  0  0  0  0  0  0  0  0  0  0
   -4.5107   24.1651  -27.8507 H   0  0  0  0  0  0  0  0  0  0  0  0
   -5.7680   25.0580  -29.1840 O   0  0  0  0  0  0  0  0  0  0  0  0
   -5.8840   25.2690  -30.5850 C   0  0  0  0  0  0  0  0  0  0  0  0
   -6.9076   25.6105  -30.7987 H   0  0  0  0  0  0  0  0  0  0  0  0
   -5.1206   26.0130  -30.8565 H   0  0  0  0  0  0  0  0  0  0  0  0
   -5.6050   24.0190  -31.4370 C   0  0  0  0  0  0  0  0  0  0  0  0
   -6.3255   23.2324  -31.1684 H   0  0  0  0  0  0  0  0  0  0  0  0
   -5.7068   24.2884  -32.4986 H   0  0  0  0  0  0  0  0  0  0  0  0
   -4.7210   18.3260  -32.9250 C   0  0  0  0  0  0  0  0  0  0  0  0
   -5.4700   17.1850  -32.7890 C   0  0  0  0  0  0  0  0  0  0  0  0
   -7.1310   17.2510  -32.6540 S   0  0  0  0  0  0  0  0  0  0  0  0
   -7.6210   18.8670  -32.5650 C   0  0  0  0  0  0  0  0  0  0  0  0
   -8.9700   19.1480  -32.3350 C   0  0  0  0  0  0  0  0  0  0  0  0
   -9.7096   18.3339  -32.3453 H   0  0  0  0  0  0  0  0  0  0  0  0
   -4.6090   16.1180  -32.8850 C   0  0  0  0  0  0  0  0  0  0  0  0
   -4.9650   14.6670  -32.9060 C   0  0  0  0  0  0  0  0  0  0  0  0
   -5.0558   14.2968  -31.8742 H   0  0  0  0  0  0  0  0  0  0  0  0
   -5.9229   14.5320  -33.4296 H   0  0  0  0  0  0  0  0  0  0  0  0
   -4.1784   14.1040  -33.4296 H   0  0  0  0  0  0  0  0  0  0  0  0
   -3.3720   16.6080  -33.0870 N   0  0  0  0  0  0  0  0  0  0  0  0
   -2.5040   16.0440  -33.2280 H   0  0  0  0  0  0  0  0  0  0  0  0
   -3.4280   17.9350  -33.1060 N   0  0  0  0  0  0  0  0  0  0  0  0
   -2.2480   18.7750  -33.3080 C   0  0  0  0  0  0  0  0  0  0  0  0
   -1.8355   19.0687  -32.3315 H   0  0  0  0  0  0  0  0  0  0  0  0
   -1.4896   18.2124  -33.8722 H   0  0  0  0  0  0  0  0  0  0  0  0
   -2.5314   19.6758  -33.8722 H   0  0  0  0  0  0  0  0  0  0  0  0
  1  2  1  0
  2  3  2  0
  3  4  1  0
  4  5  1  0
  4  6  1  0
  4  7  1  0
  3  8  1  0
  8  9  1  0
  8 10  2  0
 10 11  1  0
 11 12  2  0
 12 13  1  0
 13 14  1  0
 13 15  1  0
 13 16  1  0
 16 17  1  0
 16 18  1  0
 16 19  1  0
 19 20  1  0
 20 21  1  0
 20 22  1  0
 20 23  1  0
 23 24  1  0
 23 25  1  0
 23 26  1  0
 26 27  1  0
 27 28  1  0
 27 29  1  0
 27 30  1  0
 30 31  1  0
 30 32  1  0
 11 33  1  0
 33 34  2  0
 34 35  1  0
 35 36  1  0
 36 37  2  0
 37 38  1  0
 34 39  1  0
 39 40  1  0
 40 41  1  0
 40 42  1  0
 40 43  1  0
 39 44  2  0
 44 45  1  0
 44 46  1  0
 46 47  1  0
 47 48  1  0
 47 49  1  0
 47 50  1  0
 37  2  1  0
 36 10  1  0
 30 19  1  0
 46 33  1  0
M  CHG  1  44   1
M  END
>  <UniqueID>  (38) 
35

>  <SMILES>  (38) 
Cc1ccc2sc3c(C)[nH+]n(C)c3/c(=N/CCN3CCOCC3)c2c1

>  <Energy>  (38) 
130.1098040197185

>  <Genealogy>  (38) 
Cc1ccc2sc3c(C)[nH+]n(C)c3c(=NCCN3CCOCC3)c2c1 (protonated)
Cc1ccc2sc3c(C)[nH+]n(C)c3/c(=N/CCN3CCOCC3)c2c1 (cis-trans isomerization)
Cc1ccc2sc3c(C)[nH+]n(C)c3/c(=N/CCN3CCOCC3)c2c1 (3D coordinates assigned)
Cc1ccc2sc3c(C)[nH+]n(C)c3/c(=N/CCN3CCOCC3)c2c1 (nonaromatic ring conformer: 130.1098040197185 kcal/mol)

>  <smiles>  (38) 
Cc1ccc2sc3c(C)nn(C)c3c(=NCCN3CCOCC3)c2c1

>  <score_type>  (38) 
oracle

>  <origin>  (38) 
adg

>  <m_score__min__energy>  (38) 
-8.3599999999999994

>  <m_primary>  (38) 
energy

$$$$
39:0
     RDKit          3D

 63 67  0  0  0  0  0  0  0  0999 V2000
   -2.0800   25.9710  -26.2350 C   0  0  0  0  0  0  0  0  0  0  0  0
   -1.5500   25.7740  -24.8150 C   0  0  0  0  0  0  0  0  0  0  0  0
   -0.0880   26.0080  -24.7670 N   0  0  0  0  0  0  0  0  0  0  0  0
    0.4030   26.7770  -25.9440 C   0  0  0  0  0  0  0  0  0  0  0  0
    1.0640   25.9010  -27.0260 C   0  0  0  0  0  0  0  0  0  0  0  0
    0.4780   24.5570  -27.0220 N   0  0  0  0  0  0  0  0  0  0  0  0
   -0.2100   24.0610  -28.1860 C   0  0  0  0  0  0  0  0  0  0  0  0
   -0.7470   24.8840  -28.9780 O   0  0  0  0  0  0  0  0  0  0  0  0
   -0.2770   22.5750  -28.4990 C   0  0  0  0  0  0  0  0  0  0  0  0
   -0.4780   22.3320  -30.0170 C   0  0  0  0  0  0  0  0  0  0  0  0
   -1.9500   22.1170  -30.4320 C   0  0  0  0  0  0  0  0  0  0  0  0
   -2.8800   22.7250  -29.4700 N   0  0  0  0  0  0  0  0  0  0  0  0
   -4.0570   23.3960  -29.9540 C   0  0  0  0  0  0  0  0  0  0  0  0
   -4.2670   24.7200  -29.6740 N   0  0  0  0  0  0  0  0  0  0  0  0
   -5.3950   25.3750  -30.0960 C   0  0  0  0  0  0  0  0  0  0  0  0
   -6.3590   24.7120  -30.8020 N   0  0  0  0  0  0  0  0  0  0  0  0
   -6.1570   23.4000  -31.0780 C   0  0  0  0  0  0  0  0  0  0  0  0
   -5.0510   22.7320  -30.6740 C   0  0  0  0  0  0  0  0  0  0  0  0
   -5.1490   21.4300  -30.9970 N   0  0  0  0  0  0  0  0  0  0  0  0
   -6.3560   21.3560  -31.6200 C   0  0  0  0  0  0  0  0  0  0  0  0
   -6.9960   22.5560  -31.6910 N   0  0  0  0  0  0  0  0  0  0  0  0
   -8.3040   22.8500  -32.2690 C   0  0  0  0  0  0  0  0  0  0  0  0
   -9.4130   22.0500  -31.5710 C   0  0  0  0  0  0  0  0  0  0  0  0
   -9.4160   20.5410  -31.8940 C   0  0  0  0  0  0  0  0  0  0  0  0
   -8.2780   20.1210  -32.8410 C   0  0  0  0  0  0  0  0  0  0  0  0
   -6.8900   20.0510  -32.1620 C   0  0  0  0  0  0  0  0  0  0  0  0
   -2.7750   22.3790  -28.0450 C   0  0  0  0  0  0  0  0  0  0  0  0
   -1.3750   21.8600  -27.6860 C   0  0  0  0  0  0  0  0  0  0  0  0
    0.5010   23.7980  -25.7650 C   0  0  0  0  0  0  0  0  0  0  0  0
    0.6660   24.7490  -24.5660 C   0  0  0  0  0  0  0  0  0  0  0  0
   -3.1103   26.3540  -26.1920 H   0  0  0  0  0  0  0  0  0  0  0  0
   -1.4427   26.6923  -26.7675 H   0  0  0  0  0  0  0  0  0  0  0  0
   -2.0685   25.0085  -26.7675 H   0  0  0  0  0  0  0  0  0  0  0  0
   -2.0519   26.4830  -24.1402 H   0  0  0  0  0  0  0  0  0  0  0  0
   -1.7541   24.7398  -24.5006 H   0  0  0  0  0  0  0  0  0  0  0  0
   -0.4512   27.3019  -26.3965 H   0  0  0  0  0  0  0  0  0  0  0  0
    1.1746   27.4692  -25.5759 H   0  0  0  0  0  0  0  0  0  0  0  0
    0.9067   26.3623  -28.0121 H   0  0  0  0  0  0  0  0  0  0  0  0
    2.1404   25.8222  -26.8136 H   0  0  0  0  0  0  0  0  0  0  0  0
    0.6894   22.1423  -28.2010 H   0  0  0  0  0  0  0  0  0  0  0  0
   -0.0899   23.2057  -30.5610 H   0  0  0  0  0  0  0  0  0  0  0  0
    0.0596   21.4046  -30.2636 H   0  0  0  0  0  0  0  0  0  0  0  0
   -2.1118   22.5717  -31.4205 H   0  0  0  0  0  0  0  0  0  0  0  0
   -2.1441   21.0346  -30.4596 H   0  0  0  0  0  0  0  0  0  0  0  0
   -5.5251   26.4425  -29.8645 H   0  0  0  0  0  0  0  0  0  0  0  0
   -8.5122   23.9243  -32.1573 H   0  0  0  0  0  0  0  0  0  0  0  0
   -8.2865   22.5663  -33.3316 H   0  0  0  0  0  0  0  0  0  0  0  0
   -9.2895   22.1682  -30.4844 H   0  0  0  0  0  0  0  0  0  0  0  0
  -10.3678   22.4506  -31.9424 H   0  0  0  0  0  0  0  0  0  0  0  0
   -9.3115   19.9818  -30.9525 H   0  0  0  0  0  0  0  0  0  0  0  0
  -10.3647   20.3180  -32.4042 H   0  0  0  0  0  0  0  0  0  0  0  0
   -8.5151   19.1267  -33.2475 H   0  0  0  0  0  0  0  0  0  0  0  0
   -8.2122   20.8925  -33.6223 H   0  0  0  0  0  0  0  0  0  0  0  0
   -6.9595   19.3411  -31.3246 H   0  0  0  0  0  0  0  0  0  0  0  0
   -6.1869   19.7455  -32.9509 H   0  0  0  0  0  0  0  0  0  0  0  0
   -2.9872   23.2757  -27.4443 H   0  0  0  0  0  0  0  0  0  0  0  0
   -3.5007   21.5801  -27.8327 H   0  0  0  0  0  0  0  0  0  0  0  0
   -1.1947   22.0321  -26.6146 H   0  0  0  0  0  0  0  0  0  0  0  0
   -1.3350   20.7869  -27.9245 H   0  0  0  0  0  0  0  0  0  0  0  0
   -0.4427   23.2427  -25.6598 H   0  0  0  0  0  0  0  0  0  0  0  0
    1.3507   23.0997  -25.7857 H   0  0  0  0  0  0  0  0  0  0  0  0
    0.2937   24.2497  -23.6593 H   0  0  0  0  0  0  0  0  0  0  0  0
    1.7329   24.9968  -24.4650 H   0  0  0  0  0  0  0  0  0  0  0  0
  1  2  1  0
  2  3  1  0
  3  4  1  0
  4  5  1  0
  5  6  1  0
  6  7  1  0
  7  8  2  0
  7  9  1  0
  9 10  1  0
 10 11  1  0
 11 12  1  0
 12 13  1  0
 13 14  2  0
 14 15  1  0
 15 16  2  0
 16 17  1  0
 17 18  2  0
 18 19  1  0
 19 20  2  0
 20 21  1  0
 21 22  1  0
 22 23  1  0
 23 24  1  0
 24 25  1  0
 25 26  1  0
 12 27  1  0
 27 28  1  0
  6 29  1  0
 29 30  1  0
 30  3  1  0
 28  9  1  0
 18 13  1  0
 26 20  1  0
 21 17  1  0
  1 31  1  0
  1 32  1  0
  1 33  1  0
  2 34  1  0
  2 35  1  0
  4 36  1  0
  4 37  1  0
  5 38  1  0
  5 39  1  0
  9 40  1  0
 10 41  1  0
 10 42  1  0
 11 43  1  0
 11 44  1  0
 15 45  1  0
 22 46  1  0
 22 47  1  0
 23 48  1  0
 23 49  1  0
 24 50  1  0
 24 51  1  0
 25 52  1  0
 25 53  1  0
 26 54  1  0
 26 55  1  0
 27 56  1  0
 27 57  1  0
 28 58  1  0
 28 59  1  0
 29 60  1  0
 29 61  1  0
 30 62  1  0
 30 63  1  0
M  END
>  <UniqueID>  (39) 
36

>  <SMILES>  (39) 
CCN1CCN(C(=O)C2CCN(c3ncnc4c3nc3n4CCCCC3)CC2)CC1

>  <Energy>  (39) 
125.39920671483229

>  <Genealogy>  (39) 
CCN1CCN(C(=O)C2CCN(c3ncnc4c3nc3n4CCCCC3)CC2)CC1 (3D coordinates assigned)
CCN1CCN(C(=O)C2CCN(c3ncnc4c3nc3n4CCCCC3)CC2)CC1 (nonaromatic ring conformer: 125.39920671483229 kcal/mol)

>  <smiles>  (39) 
CCN1CCN(C(=O)C2CCN(c3ncnc4c3nc3n4CCCCC3)CC2)CC1

>  <score_type>  (39) 
oracle

>  <origin>  (39) 
adg

>  <m_score__min__energy>  (39) 
-7.5599999999999996

>  <m_primary>  (39) 
energy

$$$$
40:0
     RDKit          3D

 50 51  0  0  0  0  0  0  0  0999 V2000
   -4.1040   23.6710  -27.3260 C   0  0  0  0  0  0  0  0  0  0  0  0
   -4.3040   22.2600  -27.8730 C   0  0  0  0  0  0  0  0  0  0  0  0
   -3.0350   21.4440  -27.7480 C   0  0  0  0  0  0  0  0  0  0  0  0
   -3.0780   20.2190  -27.0530 C   0  0  0  0  0  0  0  0  0  0  0  0
   -1.9200   19.4610  -26.8740 C   0  0  0  0  0  0  0  0  0  0  0  0
   -0.7010   19.9120  -27.3820 C   0  0  0  0  0  0  0  0  0  0  0  0
   -0.6410   21.1180  -28.0860 C   0  0  0  0  0  0  0  0  0  0  0  0
   -1.8000   21.8870  -28.2830 C   0  0  0  0  0  0  0  0  0  0  0  0
   -1.7200   23.0860  -29.0720 N   0  0  0  0  0  0  0  0  0  0  0  0
   -2.0860   23.0360  -30.4900 C   0  0  0  0  0  0  0  0  0  0  0  0
   -3.4080   23.7060  -30.7030 C   0  0  0  0  0  0  0  0  0  0  0  0
   -3.5310   24.9330  -30.4330 O   0  0  0  0  0  0  0  0  0  0  0  0
   -4.5400   22.9520  -31.1640 N   0  0  0  0  0  0  0  0  0  0  0  0
   -5.8830   23.5210  -31.2430 C   0  0  0  0  0  0  0  0  0  0  0  0
   -6.8850   22.6240  -30.5080 C   0  0  0  0  0  0  0  0  0  0  0  0
   -8.3710   22.3180  -31.5260 S   0  0  0  0  0  0  0  0  0  0  0  0
   -7.9060   20.6540  -32.0160 C   0  0  0  0  0  0  0  0  0  0  0  0
   -6.8130   20.4490  -32.8710 C   0  0  0  0  0  0  0  0  0  0  0  0
   -6.4610   19.1510  -33.2620 C   0  0  0  0  0  0  0  0  0  0  0  0
   -7.2070   18.0550  -32.8070 C   0  0  0  0  0  0  0  0  0  0  0  0
   -8.3060   18.2580  -31.9650 C   0  0  0  0  0  0  0  0  0  0  0  0
   -8.6610   19.5560  -31.5760 C   0  0  0  0  0  0  0  0  0  0  0  0
   -0.8470   24.4580  -28.4580 S   0  0  0  0  0  0  0  0  0  0  0  0
   -1.2390   24.7150  -26.7400 C   0  0  0  0  0  0  0  0  0  0  0  0
   -1.2400   25.6910  -29.2280 O   0  0  0  0  0  0  0  0  0  0  0  0
    0.6310   24.2300  -28.6100 O   0  0  0  0  0  0  0  0  0  0  0  0
   -4.1081   23.6420  -26.2264 H   0  0  0  0  0  0  0  0  0  0  0  0
   -3.1406   24.0679  -27.6787 H   0  0  0  0  0  0  0  0  0  0  0  0
   -4.9191   24.3200  -27.6787 H   0  0  0  0  0  0  0  0  0  0  0  0
   -5.1069   21.7653  -27.3068 H   0  0  0  0  0  0  0  0  0  0  0  0
   -4.5707   22.3318  -28.9378 H   0  0  0  0  0  0  0  0  0  0  0  0
   -4.0341   19.8565  -26.6474 H   0  0  0  0  0  0  0  0  0  0  0  0
   -1.9682   18.5055  -26.3311 H   0  0  0  0  0  0  0  0  0  0  0  0
    0.2124   19.3186  -27.2284 H   0  0  0  0  0  0  0  0  0  0  0  0
    0.3210   21.4676  -28.4888 H   0  0  0  0  0  0  0  0  0  0  0  0
   -1.3166   23.5521  -31.0830 H   0  0  0  0  0  0  0  0  0  0  0  0
   -2.1593   21.9851  -30.8065 H   0  0  0  0  0  0  0  0  0  0  0  0
   -4.4040   21.9610  -31.4650 H   0  0  0  0  0  0  0  0  0  0  0  0
   -5.8820   24.5190  -30.7803 H   0  0  0  0  0  0  0  0  0  0  0  0
   -6.1782   23.5959  -32.3000 H   0  0  0  0  0  0  0  0  0  0  0  0
   -6.4036   21.6620  -30.2781 H   0  0  0  0  0  0  0  0  0  0  0  0
   -7.1954   23.1338  -29.5840 H   0  0  0  0  0  0  0  0  0  0  0  0
   -6.2315   21.3089  -33.2349 H   0  0  0  0  0  0  0  0  0  0  0  0
   -5.5989   18.9916  -33.9263 H   0  0  0  0  0  0  0  0  0  0  0  0
   -6.9285   17.0354  -33.1118 H   0  0  0  0  0  0  0  0  0  0  0  0
   -8.8915   17.3978  -31.6084 H   0  0  0  0  0  0  0  0  0  0  0  0
   -9.5330   19.7149  -30.9246 H   0  0  0  0  0  0  0  0  0  0  0  0
   -0.4830   24.2193  -26.1133 H   0  0  0  0  0  0  0  0  0  0  0  0
   -1.2456   25.7933  -26.5228 H   0  0  0  0  0  0  0  0  0  0  0  0
   -2.2305   24.2911  -26.5228 H   0  0  0  0  0  0  0  0  0  0  0  0
  1  2  1  0
  2  3  1  0
  3  4  2  0
  4  5  1  0
  5  6  2  0
  6  7  1  0
  7  8  2  0
  8  9  1  0
  9 10  1  0
 10 11  1  0
 11 12  2  0
 11 13  1  0
 13 14  1  0
 14 15  1  0
 15 16  1  0
 16 17  1  0
 17 18  2  0
 18 19  1  0
 19 20  2  0
 20 21  1  0
 21 22  2  0
  9 23  1  0
 23 24  1  0
 23 25  2  0
 23 26  2  0
  8  3  1  0
 22 17  1  0
  1 27  1  0
  1 28  1  0
  1 29  1  0
  2 30  1  0
  2 31  1  0
  4 32  1  0
  5 33  1  0
  6 34  1  0
  7 35  1  0
 10 36  1  0
 10 37  1  0
 13 38  1  0
 14 39  1  0
 14 40  1  0
 15 41  1  0
 15 42  1  0
 18 43  1  0
 19 44  1  0
 20 45  1  0
 21 46  1  0
 22 47  1  0
 24 48  1  0
 24 49  1  0
 24 50  1  0
M  END
>  <UniqueID>  (40) 
37

>  <SMILES>  (40) 
CCc1ccccc1N(CC(=O)NCCSc1ccccc1)S(C)(=O)=O

>  <Energy>  (40) 
39.43675042104139

>  <Genealogy>  (40) 
CCc1ccccc1N(CC(=O)NCCSc1ccccc1)S(C)(=O)=O (3D coordinates assigned)
CCc1ccccc1N(CC(=O)NCCSc1ccccc1)S(C)(=O)=O (optimized conformer: 39.43675042104139 kcal/mol)

>  <smiles>  (40) 
CCc1ccccc1N(CC(=O)NCCSc1ccccc1)S(C)(=O)=O

>  <score_type>  (40) 
oracle

>  <origin>  (40) 
adg

>  <m_score__min__energy>  (40) 
-10.029999999999999

>  <m_primary>  (40) 
energy

$$$$
41:0
     RDKit          3D

 48 51  0  0  0  0  0  0  0  0999 V2000
   -6.1190   17.4820  -34.6580 C   0  0  0  0  0  0  0  0  0  0  0  0
   -5.1470   18.3620  -33.9070 C   0  0  0  0  0  0  0  0  0  0  0  0
   -3.7410   18.1670  -33.9920 C   0  0  0  0  0  0  0  0  0  0  0  0
   -3.1970   16.9830  -34.5420 C   0  0  0  0  0  0  0  0  0  0  0  0
   -1.8190   16.7980  -34.6270 C   0  0  0  0  0  0  0  0  0  0  0  0
   -0.9520   17.7740  -34.1520 C   0  0  0  0  0  0  0  0  0  0  0  0
   -1.4540   18.9430  -33.5850 C   0  0  0  0  0  0  0  0  0  0  0  0
   -2.8480   19.1720  -33.4980 C   0  0  0  0  0  0  0  0  0  0  0  0
   -3.3630   20.3710  -32.9210 C   0  0  0  0  0  0  0  0  0  0  0  0
   -2.4520   21.5600  -32.7080 C   0  0  0  0  0  0  0  0  0  0  0  0
   -4.7500   20.4140  -32.6250 C   0  0  0  0  0  0  0  0  0  0  0  0
   -5.6060   19.4300  -33.1150 C   0  0  0  0  0  0  0  0  0  0  0  0
   -6.8770   19.7500  -32.6480 C   0  0  0  0  0  0  0  0  0  0  0  0
   -8.1070   19.0800  -32.7170 C   0  0  0  0  0  0  0  0  0  0  0  0
   -9.2170   19.6520  -32.0760 C   0  0  0  0  0  0  0  0  0  0  0  0
   -9.0850   20.8530  -31.3580 C   0  0  0  0  0  0  0  0  0  0  0  0
   -7.8370   21.4850  -31.2560 C   0  0  0  0  0  0  0  0  0  0  0  0
   -6.7390   20.9070  -31.9110 C   0  0  0  0  0  0  0  0  0  0  0  0
   -5.4480   21.3190  -31.8690 N   0  0  0  0  0  0  0  0  0  0  0  0
   -4.9600   22.4140  -31.0160 C   0  0  0  0  0  0  0  0  0  0  0  0
   -5.3540   23.7780  -31.6020 C   0  0  0  0  0  0  0  0  0  0  0  0
   -4.7090   24.8790  -30.8550 N   0  0  0  0  0  0  0  0  0  0  0  0
   -3.7030   24.3590  -29.9130 C   0  0  0  0  0  0  0  0  0  0  0  0
   -5.7220   25.6480  -30.1140 C   0  0  0  0  0  0  0  0  0  0  0  0
   -6.7370   16.9225  -33.9403 H   0  0  0  0  0  0  0  0  0  0  0  0
   -6.7666   18.1072  -35.2902 H   0  0  0  0  0  0  0  0  0  0  0  0
   -5.5610   16.7756  -35.2902 H   0  0  0  0  0  0  0  0  0  0  0  0
   -3.8726   16.1960  -34.9083 H   0  0  0  0  0  0  0  0  0  0  0  0
   -1.4160   15.8761  -35.0717 H   0  0  0  0  0  0  0  0  0  0  0  0
    0.1352   17.6230  -34.2240 H   0  0  0  0  0  0  0  0  0  0  0  0
   -0.7559   19.7003  -33.1987 H   0  0  0  0  0  0  0  0  0  0  0  0
   -2.3200   21.7323  -31.6296 H   0  0  0  0  0  0  0  0  0  0  0  0
   -1.4739   21.3599  -33.1698 H   0  0  0  0  0  0  0  0  0  0  0  0
   -2.8998   22.4524  -33.1698 H   0  0  0  0  0  0  0  0  0  0  0  0
   -8.1998   18.1283  -33.2608 H   0  0  0  0  0  0  0  0  0  0  0  0
  -10.1973   19.1567  -32.1360 H   0  0  0  0  0  0  0  0  0  0  0  0
   -9.9655   21.2999  -30.8733 H   0  0  0  0  0  0  0  0  0  0  0  0
   -7.7217   22.4124  -30.6759 H   0  0  0  0  0  0  0  0  0  0  0  0
   -5.3985   22.3123  -30.0123 H   0  0  0  0  0  0  0  0  0  0  0  0
   -3.8628   22.3569  -30.9617 H   0  0  0  0  0  0  0  0  0  0  0  0
   -5.0374   23.8229  -32.6545 H   0  0  0  0  0  0  0  0  0  0  0  0
   -6.4453   23.8922  -31.5240 H   0  0  0  0  0  0  0  0  0  0  0  0
   -4.0418   24.5341  -28.8812 H   0  0  0  0  0  0  0  0  0  0  0  0
   -3.5704   23.2794  -30.0772 H   0  0  0  0  0  0  0  0  0  0  0  0
   -2.7456   24.8751  -30.0772 H   0  0  0  0  0  0  0  0  0  0  0  0
   -5.5585   25.5239  -29.0333 H   0  0  0  0  0  0  0  0  0  0  0  0
   -5.6392   26.7128  -30.3775 H   0  0  0  0  0  0  0  0  0  0  0  0
   -6.7253   25.2820  -30.3775 H   0  0  0  0  0  0  0  0  0  0  0  0
  1  2  1  0
  2  3  2  0
  3  4  1  0
  4  5  2  0
  5  6  1  0
  6  7  2  0
  7  8  1  0
  8  9  2  0
  9 10  1  0
  9 11  1  0
 11 12  2  0
 12 13  1  0
 13 14  2  0
 14 15  1  0
 15 16  2  0
 16 17  1  0
 17 18  2  0
 18 19  1  0
 19 20  1  0
 20 21  1  0
 21 22  1  0
 22 23  1  0
 22 24  1  0
 12  2  1  0
 18 13  1  0
  8  3  1  0
 19 11  1  0
  1 25  1  0
  1 26  1  0
  1 27  1  0
  4 28  1  0
  5 29  1  0
  6 30  1  0
  7 31  1  0
 10 32  1  0
 10 33  1  0
 10 34  1  0
 14 35  1  0
 15 36  1  0
 16 37  1  0
 17 38  1  0
 20 39  1  0
 20 40  1  0
 21 41  1  0
 21 42  1  0
 23 43  1  0
 23 44  1  0
 23 45  1  0
 24 46  1  0
 24 47  1  0
 24 48  1  0
M  END
>  <UniqueID>  (41) 
38

>  <SMILES>  (41) 
Cc1c2ccccc2c(C)c2c1c1ccccc1n2CCN(C)C

>  <Energy>  (41) 
113.56840995016574

>  <Genealogy>  (41) 
Cc1c2ccccc2c(C)c2c1c1ccccc1n2CCN(C)C (3D coordinates assigned)
Cc1c2ccccc2c(C)c2c1c1ccccc1n2CCN(C)C (optimized conformer: 113.56840995016574 kcal/mol)

>  <smiles>  (41) 
Cc1c2ccccc2c(C)c2c1c1ccccc1n2CCN(C)C

>  <score_type>  (41) 
oracle

>  <origin>  (41) 
adg

>  <m_score__min__energy>  (41) 
-9.1199999999999992

>  <m_primary>  (41) 
energy

$$$$
42:0
     RDKit          3D

 42 44  0  0  0  0  0  0  0  0999 V2000
   -9.4650   22.2550  -31.9750 C   0  0  0  0  0  0  0  0  0  0  0  0
   -8.2410   22.0580  -31.0780 C   0  0  0  0  0  0  0  0  0  0  0  0
   -7.0360   21.7140  -31.8710 N   0  0  0  0  0  0  0  0  0  0  0  0
   -6.0900   22.6880  -32.1480 C   0  0  0  0  0  0  0  0  0  0  0  0
   -6.3220   24.1770  -31.9160 C   0  0  0  0  0  0  0  0  0  0  0  0
   -5.1730   24.7920  -31.2240 N   0  0  0  0  0  0  0  0  0  0  0  0
   -5.3600   24.8580  -29.7640 C   0  0  0  0  0  0  0  0  0  0  0  0
   -4.0840   24.5380  -29.0490 C   0  0  0  0  0  0  0  0  0  0  0  0
   -3.9810   23.9840  -27.7870 C   0  0  0  0  0  0  0  0  0  0  0  0
   -2.6310   23.8080  -27.5660 C   0  0  0  0  0  0  0  0  0  0  0  0
   -2.0030   24.2640  -28.7070 C   0  0  0  0  0  0  0  0  0  0  0  0
   -0.5300   24.2730  -28.9430 C   0  0  0  0  0  0  0  0  0  0  0  0
   -2.8890   24.6990  -29.5710 O   0  0  0  0  0  0  0  0  0  0  0  0
   -4.8420   22.3220  -32.6710 C   0  0  0  0  0  0  0  0  0  0  0  0
   -4.5890   21.0130  -33.0450 C   0  0  0  0  0  0  0  0  0  0  0  0
   -3.4630   20.7200  -33.5340 O   0  0  0  0  0  0  0  0  0  0  0  0
   -5.5890   20.0450  -32.8980 C   0  0  0  0  0  0  0  0  0  0  0  0
   -5.3720   18.7240  -33.3340 C   0  0  0  0  0  0  0  0  0  0  0  0
   -6.3730   17.7630  -33.2080 C   0  0  0  0  0  0  0  0  0  0  0  0
   -6.0950   16.1250  -33.7700 Cl  0  0  0  0  0  0  0  0  0  0  0  0
   -7.5990   18.1080  -32.6480 C   0  0  0  0  0  0  0  0  0  0  0  0
   -7.8310   19.4090  -32.2020 C   0  0  0  0  0  0  0  0  0  0  0  0
   -6.8300   20.4110  -32.3060 C   0  0  0  0  0  0  0  0  0  0  0  0
  -10.3585   22.3988  -31.3497 H   0  0  0  0  0  0  0  0  0  0  0  0
   -9.3155   23.1406  -32.6100 H   0  0  0  0  0  0  0  0  0  0  0  0
   -9.6009   21.3672  -32.6100 H   0  0  0  0  0  0  0  0  0  0  0  0
   -8.0505   22.9889  -30.5238 H   0  0  0  0  0  0  0  0  0  0  0  0
   -8.4489   21.2270  -30.3879 H   0  0  0  0  0  0  0  0  0  0  0  0
   -6.4647   24.6740  -32.8869 H   0  0  0  0  0  0  0  0  0  0  0  0
   -7.2151   24.2974  -31.2852 H   0  0  0  0  0  0  0  0  0  0  0  0
   -4.3420   24.1800  -31.4000 H   0  0  0  0  0  0  0  0  0  0  0  0
   -5.6836   25.8723  -29.4875 H   0  0  0  0  0  0  0  0  0  0  0  0
   -6.1218   24.1199  -29.4726 H   0  0  0  0  0  0  0  0  0  0  0  0
   -4.8044   23.7352  -27.1014 H   0  0  0  0  0  0  0  0  0  0  0  0
   -2.1540   23.3908  -26.6669 H   0  0  0  0  0  0  0  0  0  0  0  0
   -0.0039   24.2762  -27.9770 H   0  0  0  0  0  0  0  0  0  0  0  0
   -0.2445   23.3766  -29.5130 H   0  0  0  0  0  0  0  0  0  0  0  0
   -0.2555   25.1728  -29.5130 H   0  0  0  0  0  0  0  0  0  0  0  0
   -4.0555   23.0825  -32.7855 H   0  0  0  0  0  0  0  0  0  0  0  0
   -4.4040   18.4483  -33.7779 H   0  0  0  0  0  0  0  0  0  0  0  0
   -8.3906   17.3497  -32.5564 H   0  0  0  0  0  0  0  0  0  0  0  0
   -8.8065   19.6634  -31.7619 H   0  0  0  0  0  0  0  0  0  0  0  0
  1  2  1  0
  2  3  1  0
  3  4  1  0
  4  5  1  0
  5  6  1  0
  6  7  1  0
  7  8  1  0
  8  9  2  0
  9 10  1  0
 10 11  2  0
 11 12  1  0
 11 13  1  0
  4 14  2  0
 14 15  1  0
 15 16  2  0
 15 17  1  0
 17 18  2  0
 18 19  1  0
 19 20  1  0
 19 21  2  0
 21 22  1  0
 22 23  2  0
 23  3  1  0
 13  8  1  0
 23 17  1  0
  1 24  1  0
  1 25  1  0
  1 26  1  0
  2 27  1  0
  2 28  1  0
  5 29  1  0
  5 30  1  0
  6 31  1  0
  7 32  1  0
  7 33  1  0
  9 34  1  0
 10 35  1  0
 12 36  1  0
 12 37  1  0
 12 38  1  0
 14 39  1  0
 18 40  1  0
 21 41  1  0
 22 42  1  0
M  END
>  <UniqueID>  (42) 
39

>  <SMILES>  (42) 
CCn1c(CNCc2ccc(C)o2)cc(=O)c2cc(Cl)ccc21

>  <Energy>  (42) 
76.18597472748635

>  <Genealogy>  (42) 
CCn1c(CNCc2ccc(C)o2)cc(=O)c2cc(Cl)ccc21 (3D coordinates assigned)
CCn1c(CNCc2ccc(C)o2)cc(=O)c2cc(Cl)ccc21 (optimized conformer: 76.18597472748635 kcal/mol)

>  <smiles>  (42) 
CCn1c(CNCc2ccc(C)o2)cc(=O)c2cc(Cl)ccc21

>  <score_type>  (42) 
oracle

>  <origin>  (42) 
adg

>  <m_score__min__energy>  (42) 
-9.3800000000000008

>  <m_primary>  (42) 
energy

$$$$
43:0
     RDKit          3D

 53 57  0  0  0  0  0  0  0  0999 V2000
    3.0390   19.5260  -33.4790 C   0  0  0  0  0  0  0  0  0  0  0  0
    1.9940   20.4940  -33.5090 O   0  0  0  0  0  0  0  0  0  0  0  0
    0.6250   20.1880  -33.4530 C   0  0  0  0  0  0  0  0  0  0  0  0
    0.1420   19.0330  -32.8090 C   0  0  0  0  0  0  0  0  0  0  0  0
   -1.2260   18.7600  -32.7780 C   0  0  0  0  0  0  0  0  0  0  0  0
   -2.1360   19.6310  -33.3930 C   0  0  0  0  0  0  0  0  0  0  0  0
   -3.5850   19.3360  -33.3540 C   0  0  0  0  0  0  0  0  0  0  0  0
   -4.5000   20.3200  -32.9300 C   0  0  0  0  0  0  0  0  0  0  0  0
   -5.8840   20.0320  -32.8790 C   0  0  0  0  0  0  0  0  0  0  0  0
   -6.8400   21.0640  -32.4140 C   0  0  0  0  0  0  0  0  0  0  0  0
   -6.3990   22.3970  -32.3430 C   0  0  0  0  0  0  0  0  0  0  0  0
   -7.2820   23.4190  -31.9940 C   0  0  0  0  0  0  0  0  0  0  0  0
   -8.6150   23.1260  -31.7140 C   0  0  0  0  0  0  0  0  0  0  0  0
   -9.0680   21.8060  -31.7640 C   0  0  0  0  0  0  0  0  0  0  0  0
   -8.1890   20.7580  -32.0970 C   0  0  0  0  0  0  0  0  0  0  0  0
   -8.6670   19.4010  -32.0610 N   0  0  0  0  0  0  0  0  0  0  0  0
   -8.2210   18.6010  -31.2140 O   0  0  0  0  0  0  0  0  0  0  0  0
   -9.4820   18.9230  -33.0610 O   0  0  0  0  0  0  0  0  0  0  0  0
   -6.3340   18.7820  -33.2090 N   0  0  0  0  0  0  0  0  0  0  0  0
   -5.4490   17.8360  -33.6150 C   0  0  0  0  0  0  0  0  0  0  0  0
   -4.0950   18.0780  -33.7030 C   0  0  0  0  0  0  0  0  0  0  0  0
   -3.3550   16.8260  -34.1000 C   0  0  0  0  0  0  0  0  0  0  0  0
   -4.4930   15.8530  -34.2230 C   0  0  0  0  0  0  0  0  0  0  0  0
   -4.4280   14.5020  -34.5670 C   0  0  0  0  0  0  0  0  0  0  0  0
   -5.6230   13.7640  -34.6210 C   0  0  0  0  0  0  0  0  0  0  0  0
   -6.8560   14.3820  -34.3320 C   0  0  0  0  0  0  0  0  0  0  0  0
   -6.9060   15.7420  -33.9870 C   0  0  0  0  0  0  0  0  0  0  0  0
   -5.7070   16.4530  -33.9430 C   0  0  0  0  0  0  0  0  0  0  0  0
   -1.6610   20.7910  -34.0220 C   0  0  0  0  0  0  0  0  0  0  0  0
   -0.2810   21.0720  -34.0610 C   0  0  0  0  0  0  0  0  0  0  0  0
    0.2270   22.2190  -34.6920 O   0  0  0  0  0  0  0  0  0  0  0  0
    0.6610   22.2690  -36.0460 C   0  0  0  0  0  0  0  0  0  0  0  0
    3.2919   19.2917  -32.4344 H   0  0  0  0  0  0  0  0  0  0  0  0
    2.7056   18.6106  -33.9897 H   0  0  0  0  0  0  0  0  0  0  0  0
    3.9263   19.9284  -33.9897 H   0  0  0  0  0  0  0  0  0  0  0  0
    0.8481   18.3409  -32.3269 H   0  0  0  0  0  0  0  0  0  0  0  0
   -1.5923   17.8566  -32.2683 H   0  0  0  0  0  0  0  0  0  0  0  0
   -4.1366   21.3162  -32.6375 H   0  0  0  0  0  0  0  0  0  0  0  0
   -5.3484   22.6362  -32.5646 H   0  0  0  0  0  0  0  0  0  0  0  0
   -6.9252   24.4581  -31.9398 H   0  0  0  0  0  0  0  0  0  0  0  0
   -9.3120   23.9360  -31.4530 H   0  0  0  0  0  0  0  0  0  0  0  0
  -10.1218   21.5830  -31.5410 H   0  0  0  0  0  0  0  0  0  0  0  0
   -7.3520   18.5530  -33.1540 H   0  0  0  0  0  0  0  0  0  0  0  0
   -2.8268   16.9541  -35.0563 H   0  0  0  0  0  0  0  0  0  0  0  0
   -2.5680   16.5194  -33.3952 H   0  0  0  0  0  0  0  0  0  0  0  0
   -3.4624   14.0250  -34.7910 H   0  0  0  0  0  0  0  0  0  0  0  0
   -5.5956   12.6979  -34.8904 H   0  0  0  0  0  0  0  0  0  0  0  0
   -7.7853   13.7951  -34.3770 H   0  0  0  0  0  0  0  0  0  0  0  0
   -7.8635   16.2327  -33.7580 H   0  0  0  0  0  0  0  0  0  0  0  0
   -2.3724   21.4878  -34.4892 H   0  0  0  0  0  0  0  0  0  0  0  0
    1.7534   22.3948  -36.0765 H   0  0  0  0  0  0  0  0  0  0  0  0
    0.3854   21.3332  -36.5542 H   0  0  0  0  0  0  0  0  0  0  0  0
    0.1798   23.1176  -36.5542 H   0  0  0  0  0  0  0  0  0  0  0  0
  1  2  1  0
  2  3  1  0
  3  4  2  0
  4  5  1  0
  5  6  2  0
  6  7  1  0
  7  8  2  0
  8  9  1  0
  9 10  1  0
 10 11  2  0
 11 12  1  0
 12 13  2  0
 13 14  1  0
 14 15  2  0
 15 16  1  0
 16 17  2  0
 16 18  1  0
  9 19  2  0
 19 20  1  0
 20 21  2  0
 21 22  1  0
 22 23  1  0
 23 24  2  0
 24 25  1  0
 25 26  2  0
 26 27  1  0
 27 28  2  0
  6 29  1  0
 29 30  2  0
 30 31  1  0
 31 32  1  0
 30  3  1  0
 21  7  1  0
 28 23  1  0
 15 10  1  0
 28 20  1  0
  1 33  1  0
  1 34  1  0
  1 35  1  0
  4 36  1  0
  5 37  1  0
  8 38  1  0
 11 39  1  0
 12 40  1  0
 13 41  1  0
 14 42  1  0
 19 43  1  0
 22 44  1  0
 22 45  1  0
 24 46  1  0
 25 47  1  0
 26 48  1  0
 27 49  1  0
 29 50  1  0
 32 51  1  0
 32 52  1  0
 32 53  1  0
M  CHG  3  16   1  18  -1  19   1
M  END
>  <UniqueID>  (43) 
40

>  <SMILES>  (43) 
COc1ccc(-c2cc(-c3ccccc3[N+](=O)[O-])[nH+]c3c2Cc2ccccc2-3)cc1OC

>  <Energy>  (43) 
97.88581780414442

>  <Genealogy>  (43) 
COc1ccc(-c2cc(-c3ccccc3[N+](=O)[O-])[nH+]c3c2Cc2ccccc2-3)cc1OC (protonated)
COc1ccc(-c2cc(-c3ccccc3[N+](=O)[O-])[nH+]c3c2Cc2ccccc2-3)cc1OC (3D coordinates assigned)
COc1ccc(-c2cc(-c3ccccc3[N+](=O)[O-])[nH+]c3c2Cc2ccccc2-3)cc1OC (nonaromatic ring conformer: 97.88581780414442 kcal/mol)

>  <smiles>  (43) 
COc1ccc(-c2cc(-c3ccccc3[N+](=O)[O-])nc3c2Cc2ccccc2-3)cc1OC

>  <score_type>  (43) 
oracle

>  <origin>  (43) 
adg

>  <m_score__min__energy>  (43) 
-9.0500000000000007

>  <m_primary>  (43) 
energy

$$$$
44:0
     RDKit          3D

 46 49  0  0  0  0  0  0  0  0999 V2000
   -3.3210   19.1770  -33.8380 C   0  0  0  0  0  0  0  0  0  0  0  0
   -4.6250   19.7450  -33.9180 O   0  0  0  0  0  0  0  0  0  0  0  0
   -5.7670   19.2050  -33.3040 C   0  0  0  0  0  0  0  0  0  0  0  0
   -6.1660   17.8670  -33.5080 C   0  0  0  0  0  0  0  0  0  0  0  0
   -7.3000   17.3630  -32.8660 C   0  0  0  0  0  0  0  0  0  0  0  0
   -8.0470   18.1810  -32.0150 C   0  0  0  0  0  0  0  0  0  0  0  0
   -7.6640   19.5080  -31.8070 C   0  0  0  0  0  0  0  0  0  0  0  0
   -6.5300   20.0270  -32.4510 C   0  0  0  0  0  0  0  0  0  0  0  0
   -6.1580   21.3970  -32.2410 N   0  0  0  0  0  0  0  0  0  0  0  0
   -7.1800   22.3770  -31.8620 C   0  0  0  0  0  0  0  0  0  0  0  0
   -6.7020   23.7980  -32.1950 C   0  0  0  0  0  0  0  0  0  0  0  0
   -5.3680   24.1140  -31.6200 N   0  0  0  0  0  0  0  0  0  0  0  0
   -5.4140   25.0860  -30.5060 C   0  0  0  0  0  0  0  0  0  0  0  0
   -4.4410   24.7610  -29.4070 C   0  0  0  0  0  0  0  0  0  0  0  0
   -4.7770   24.2580  -28.2060 N   0  0  0  0  0  0  0  0  0  0  0  0
   -3.6640   24.1180  -27.5060 N   0  0  0  0  0  0  0  0  0  0  0  0
   -2.6760   24.5480  -28.3170 C   0  0  0  0  0  0  0  0  0  0  0  0
   -1.2590   24.5780  -27.9450 C   0  0  0  0  0  0  0  0  0  0  0  0
   -0.3770   23.5100  -28.0340 C   0  0  0  0  0  0  0  0  0  0  0  0
    0.9190   23.8320  -27.6130 C   0  0  0  0  0  0  0  0  0  0  0  0
    1.0590   25.1490  -27.1970 C   0  0  0  0  0  0  0  0  0  0  0  0
   -0.4320   25.9140  -27.3510 S   0  0  0  0  0  0  0  0  0  0  0  0
   -3.1440   24.9400  -29.4820 O   0  0  0  0  0  0  0  0  0  0  0  0
   -4.4990   22.9500  -31.3240 C   0  0  0  0  0  0  0  0  0  0  0  0
   -4.7470   21.7900  -32.2930 C   0  0  0  0  0  0  0  0  0  0  0  0
   -3.0388   19.0541  -32.7820 H   0  0  0  0  0  0  0  0  0  0  0  0
   -3.3173   18.1958  -34.3351 H   0  0  0  0  0  0  0  0  0  0  0  0
   -2.6000   19.8426  -34.3351 H   0  0  0  0  0  0  0  0  0  0  0  0
   -5.5812   17.2174  -34.1759 H   0  0  0  0  0  0  0  0  0  0  0  0
   -7.6054   16.3192  -33.0311 H   0  0  0  0  0  0  0  0  0  0  0  0
   -8.9372   17.7799  -31.5085 H   0  0  0  0  0  0  0  0  0  0  0  0
   -8.2538   20.1492  -31.1354 H   0  0  0  0  0  0  0  0  0  0  0  0
   -8.1075   22.1668  -32.4147 H   0  0  0  0  0  0  0  0  0  0  0  0
   -7.3629   22.3044  -30.7797 H   0  0  0  0  0  0  0  0  0  0  0  0
   -6.6452   23.9010  -33.2887 H   0  0  0  0  0  0  0  0  0  0  0  0
   -7.4246   24.4994  -31.7524 H   0  0  0  0  0  0  0  0  0  0  0  0
   -5.1766   26.0847  -30.9013 H   0  0  0  0  0  0  0  0  0  0  0  0
   -6.4251   25.0469  -30.0746 H   0  0  0  0  0  0  0  0  0  0  0  0
   -5.7330   24.0150  -27.8640 H   0  0  0  0  0  0  0  0  0  0  0  0
   -0.6664   22.5131  -28.3979 H   0  0  0  0  0  0  0  0  0  0  0  0
    1.7483   23.1093  -27.6120 H   0  0  0  0  0  0  0  0  0  0  0  0
    1.9861   25.6132  -26.8295 H   0  0  0  0  0  0  0  0  0  0  0  0
   -3.4473   23.2619  -31.4047 H   0  0  0  0  0  0  0  0  0  0  0  0
   -4.7325   22.6005  -30.3075 H   0  0  0  0  0  0  0  0  0  0  0  0
   -4.4929   22.1067  -33.3153 H   0  0  0  0  0  0  0  0  0  0  0  0
   -4.1192   20.9339  -32.0051 H   0  0  0  0  0  0  0  0  0  0  0  0
  1  2  1  0
  2  3  1  0
  3  4  2  0
  4  5  1  0
  5  6  2  0
  6  7  1  0
  7  8  2  0
  8  9  1  0
  9 10  1  0
 10 11  1  0
 11 12  1  0
 12 13  1  0
 13 14  1  0
 14 15  2  0
 15 16  1  0
 16 17  2  0
 17 18  1  0
 18 19  2  0
 19 20  1  0
 20 21  2  0
 21 22  1  0
 17 23  1  0
 12 24  1  0
 24 25  1  0
  8  3  1  0
 25  9  1  0
 23 14  1  0
 22 18  1  0
  1 26  1  0
  1 27  1  0
  1 28  1  0
  4 29  1  0
  5 30  1  0
  6 31  1  0
  7 32  1  0
 10 33  1  0
 10 34  1  0
 11 35  1  0
 11 36  1  0
 13 37  1  0
 13 38  1  0
 15 39  1  0
 19 40  1  0
 20 41  1  0
 21 42  1  0
 24 43  1  0
 24 44  1  0
 25 45  1  0
 25 46  1  0
M  CHG  1  15   1
M  END
>  <UniqueID>  (44) 
41

>  <SMILES>  (44) 
COc1ccccc1N1CCN(Cc2[nH+]nc(-c3cccs3)o2)CC1

>  <Energy>  (44) 
121.68415281413122

>  <Genealogy>  (44) 
COc1ccccc1N1CCN(Cc2[nH+]nc(-c3cccs3)o2)CC1 (protonated)
COc1ccccc1N1CCN(Cc2[nH+]nc(-c3cccs3)o2)CC1 (3D coordinates assigned)
COc1ccccc1N1CCN(Cc2[nH+]nc(-c3cccs3)o2)CC1 (nonaromatic ring conformer: 121.68415281413122 kcal/mol)

>  <smiles>  (44) 
COc1ccccc1N1CCN(Cc2nnc(-c3cccs3)o2)CC1

>  <score_type>  (44) 
oracle

>  <origin>  (44) 
adg

>  <m_score__min__energy>  (44) 
-8.1999999999999993

>  <m_primary>  (44) 
energy

$$$$
