0:0
     RDKit          3D

 38 40  0  0  0  0  0  0  0  0999 V2000
   -2.1770   24.6690  -28.1720 C   0  0  0  0  0  0  0  0  0  0  0  0
   -2.7460   25.2270  -29.3520 O   0  0  0  0  0  0  0  0  0  0  0  0
   -3.7990   24.6460  -30.0740 C   0  0  0  0  0  0  0  0  0  0  0  0
   -5.0250   25.3180  -30.1210 C   0  0  0  0  0  0  0  0  0  0  0  0
   -6.1040   24.7820  -30.8280 C   0  0  0  0  0  0  0  0  0  0  0  0
   -5.9720   23.5570  -31.5000 C   0  0  0  0  0  0  0  0  0  0  0  0
   -7.1220   22.9860  -32.2840 C   0  0  0  0  0  0  0  0  0  0  0  0
   -7.0300   21.4890  -32.3440 C   0  0  0  0  0  0  0  0  0  0  0  0
   -5.8870   20.6400  -33.2390 S   0  0  0  0  0  0  0  0  0  0  0  0
   -6.5270   19.1300  -32.8460 C   0  0  0  0  0  0  0  0  0  0  0  0
   -6.0050   17.8230  -33.3060 C   0  0  0  0  0  0  0  0  0  0  0  0
   -6.8700   16.7190  -33.4250 C   0  0  0  0  0  0  0  0  0  0  0  0
   -6.3850   15.4820  -33.8590 C   0  0  0  0  0  0  0  0  0  0  0  0
   -5.0350   15.3320  -34.1800 C   0  0  0  0  0  0  0  0  0  0  0  0
   -4.1660   16.4200  -34.0670 C   0  0  0  0  0  0  0  0  0  0  0  0
   -4.6450   17.6590  -33.6330 C   0  0  0  0  0  0  0  0  0  0  0  0
   -7.6110   19.2610  -32.0470 N   0  0  0  0  0  0  0  0  0  0  0  0
   -7.8970   20.5610  -31.7620 C   0  0  0  0  0  0  0  0  0  0  0  0
   -9.0900   20.9280  -30.9380 C   0  0  0  0  0  0  0  0  0  0  0  0
   -4.7430   22.8800  -31.4570 C   0  0  0  0  0  0  0  0  0  0  0  0
   -3.6640   23.4180  -30.7490 C   0  0  0  0  0  0  0  0  0  0  0  0
   -2.6441   25.1271  -27.2877 H   0  0  0  0  0  0  0  0  0  0  0  0
   -2.3525   23.5832  -28.1584 H   0  0  0  0  0  0  0  0  0  0  0  0
   -1.0948   24.8657  -28.1584 H   0  0  0  0  0  0  0  0  0  0  0  0
   -5.1405   26.2778  -29.5962 H   0  0  0  0  0  0  0  0  0  0  0  0
   -7.0615   25.3226  -30.8582 H   0  0  0  0  0  0  0  0  0  0  0  0
   -8.0671   23.2708  -31.7985 H   0  0  0  0  0  0  0  0  0  0  0  0
   -7.0848   23.3846  -33.3086 H   0  0  0  0  0  0  0  0  0  0  0  0
   -7.9353   16.8305  -33.1747 H   0  0  0  0  0  0  0  0  0  0  0  0
   -7.0687   14.6249  -33.9478 H   0  0  0  0  0  0  0  0  0  0  0  0
   -4.6555   14.3577  -34.5217 H   0  0  0  0  0  0  0  0  0  0  0  0
   -3.1022   16.3011  -34.3203 H   0  0  0  0  0  0  0  0  0  0  0  0
   -3.9554   18.5116  -33.5462 H   0  0  0  0  0  0  0  0  0  0  0  0
   -8.8364   20.8500  -29.8705 H   0  0  0  0  0  0  0  0  0  0  0  0
   -9.3915   21.9604  -31.1687 H   0  0  0  0  0  0  0  0  0  0  0  0
   -9.9196   20.2435  -31.1687 H   0  0  0  0  0  0  0  0  0  0  0  0
   -4.6282   21.9209  -31.9832 H   0  0  0  0  0  0  0  0  0  0  0  0
   -2.7054   22.8793  -30.7193 H   0  0  0  0  0  0  0  0  0  0  0  0
  1  2  1  0
  2  3  1  0
  3  4  2  0
  4  5  1  0
  5  6  2  0
  6  7  1  0
  7  8  1  0
  8  9  1  0
  9 10  1  0
 10 11  1  0
 11 12  2  0
 12 13  1  0
 13 14  2  0
 14 15  1  0
 15 16  2  0
 10 17  2  0
 17 18  1  0
 18 19  1  0
  6 20  1  0
 20 21  2  0
 21  3  1  0
 18  8  2  0
 16 11  1  0
  1 22  1  0
  1 23  1  0
  1 24  1  0
  4 25  1  0
  5 26  1  0
  7 27  1  0
  7 28  1  0
 12 29  1  0
 13 30  1  0
 14 31  1  0
 15 32  1  0
 16 33  1  0
 19 34  1  0
 19 35  1  0
 19 36  1  0
 20 37  1  0
 21 38  1  0
M  END
>  <UniqueID>  (1) 
1

>  <SMILES>  (1) 
COc1ccc(Cc2sc(-c3ccccc3)nc2C)cc1

>  <Energy>  (1) 
67.0868028101049

>  <Genealogy>  (1) 
COc1ccc(Cc2sc(-c3ccccc3)nc2C)cc1 (3D coordinates assigned)
COc1ccc(Cc2sc(-c3ccccc3)nc2C)cc1 (optimized conformer: 67.0868028101049 kcal/mol)

>  <smiles>  (1) 
COc1ccc(Cc2sc(-c3ccccc3)nc2C)cc1

>  <score_type>  (1) 
oracle

>  <origin>  (1) 
adg

>  <m_score__min__energy>  (1) 
-8.5299999999999994

>  <m_primary>  (1) 
energy

$$$$
1:0
     RDKit          3D

 55 58  0  0  0  0  0  0  0  0999 V2000
   -2.5980   15.9890  -34.2240 C   0  0  0  0  0  0  0  0  0  0  0  0
   -3.1930   16.6020  -33.0850 O   0  0  0  0  0  0  0  0  0  0  0  0
   -4.2340   17.5430  -33.1390 C   0  0  0  0  0  0  0  0  0  0  0  0
   -5.5590   17.2120  -32.7950 C   0  0  0  0  0  0  0  0  0  0  0  0
   -6.5770   18.1730  -32.8590 C   0  0  0  0  0  0  0  0  0  0  0  0
   -6.2650   19.4920  -33.2420 C   0  0  0  0  0  0  0  0  0  0  0  0
   -4.9500   19.8170  -33.6030 C   0  0  0  0  0  0  0  0  0  0  0  0
   -3.9290   18.8500  -33.5470 C   0  0  0  0  0  0  0  0  0  0  0  0
   -2.6000   19.1470  -33.8920 O   0  0  0  0  0  0  0  0  0  0  0  0
   -1.9240   20.3500  -33.5380 C   0  0  0  0  0  0  0  0  0  0  0  0
   -7.3500   20.5350  -33.3680 C   0  0  0  0  0  0  0  0  0  0  0  0
   -8.5220   20.2430  -32.5180 N   0  0  0  0  0  0  0  0  0  0  0  0
   -8.2540   20.5340  -31.0910 C   0  0  0  0  0  0  0  0  0  0  0  0
   -7.3940   21.7630  -30.9440 C   0  0  0  0  0  0  0  0  0  0  0  0
   -5.9970   21.6390  -30.8940 C   0  0  0  0  0  0  0  0  0  0  0  0
   -5.1920   22.7760  -30.7840 C   0  0  0  0  0  0  0  0  0  0  0  0
   -5.7680   24.0580  -30.7310 C   0  0  0  0  0  0  0  0  0  0  0  0
   -4.9130   25.2620  -30.6160 C   0  0  0  0  0  0  0  0  0  0  0  0
   -5.4330   26.4110  -30.6430 O   0  0  0  0  0  0  0  0  0  0  0  0
   -3.4940   25.1270  -30.4710 N   0  0  0  0  0  0  0  0  0  0  0  0
   -2.8430   24.7250  -29.2300 C   0  0  0  0  0  0  0  0  0  0  0  0
   -2.5710   23.2540  -29.2450 C   0  0  0  0  0  0  0  0  0  0  0  0
   -2.9710   22.3460  -28.2730 C   0  0  0  0  0  0  0  0  0  0  0  0
   -2.6170   21.0250  -28.5770 C   0  0  0  0  0  0  0  0  0  0  0  0
   -1.9470   20.8900  -29.7860 C   0  0  0  0  0  0  0  0  0  0  0  0
   -1.7990   22.4160  -30.4820 S   0  0  0  0  0  0  0  0  0  0  0  0
   -7.1700   24.1770  -30.7870 C   0  0  0  0  0  0  0  0  0  0  0  0
   -7.9740   23.0390  -30.8910 C   0  0  0  0  0  0  0  0  0  0  0  0
   -9.0130   18.8700  -32.7650 C   0  0  0  0  0  0  0  0  0  0  0  0
   -7.9690   17.7930  -32.4250 C   0  0  0  0  0  0  0  0  0  0  0  0
   -1.8669   15.2358  -33.8951 H   0  0  0  0  0  0  0  0  0  0  0  0
   -3.3782   15.5032  -34.8285 H   0  0  0  0  0  0  0  0  0  0  0  0
   -2.0892   16.7544  -34.8285 H   0  0  0  0  0  0  0  0  0  0  0  0
   -5.7975   16.1877  -32.4725 H   0  0  0  0  0  0  0  0  0  0  0  0
   -4.7136   20.8391  -33.9337 H   0  0  0  0  0  0  0  0  0  0  0  0
   -1.8763   20.4350  -32.4423 H   0  0  0  0  0  0  0  0  0  0  0  0
   -0.9039   20.3320  -33.9492 H   0  0  0  0  0  0  0  0  0  0  0  0
   -2.4699   21.2119  -33.9492 H   0  0  0  0  0  0  0  0  0  0  0  0
   -6.9361   21.5108  -33.0738 H   0  0  0  0  0  0  0  0  0  0  0  0
   -7.6900   20.5364  -34.4141 H   0  0  0  0  0  0  0  0  0  0  0  0
   -9.2095   20.6991  -30.5717 H   0  0  0  0  0  0  0  0  0  0  0  0
   -7.7206   19.6778  -30.6523 H   0  0  0  0  0  0  0  0  0  0  0  0
   -5.5336   20.6425  -30.9416 H   0  0  0  0  0  0  0  0  0  0  0  0
   -4.0983   22.6674  -30.7385 H   0  0  0  0  0  0  0  0  0  0  0  0
   -1.8931   25.2695  -29.1245 H   0  0  0  0  0  0  0  0  0  0  0  0
   -3.5052   24.9600  -28.3837 H   0  0  0  0  0  0  0  0  0  0  0  0
   -3.5102   22.6344  -27.3586 H   0  0  0  0  0  0  0  0  0  0  0  0
   -2.8482   20.1740  -27.9194 H   0  0  0  0  0  0  0  0  0  0  0  0
   -1.5765   19.9475  -30.2154 H   0  0  0  0  0  0  0  0  0  0  0  0
   -7.6355   25.1729  -30.7486 H   0  0  0  0  0  0  0  0  0  0  0  0
   -9.0682   23.1444  -30.9315 H   0  0  0  0  0  0  0  0  0  0  0  0
   -9.9071   18.7001  -32.1472 H   0  0  0  0  0  0  0  0  0  0  0  0
   -9.2368   18.7867  -33.8388 H   0  0  0  0  0  0  0  0  0  0  0  0
   -7.9674   17.6361  -31.3362 H   0  0  0  0  0  0  0  0  0  0  0  0
   -8.2475   16.8779  -32.9682 H   0  0  0  0  0  0  0  0  0  0  0  0
  1  2  1  0
  2  3  1  0
  3  4  2  0
  4  5  1  0
  5  6  2  0
  6  7  1  0
  7  8  2  0
  8  9  1  0
  9 10  1  0
  6 11  1  0
 11 12  1  0
 12 13  1  0
 13 14  1  0
 14 15  2  0
 15 16  1  0
 16 17  2  0
 17 18  1  0
 18 19  2  0
 18 20  1  0
 20 21  1  0
 21 22  1  0
 22 23  2  0
 23 24  1  0
 24 25  2  0
 25 26  1  0
 17 27  1  0
 27 28  2  0
 12 29  1  0
 29 30  1  0
  8  3  1  0
 28 14  1  0
 30  5  1  0
 26 22  1  0
  1 31  1  0
  1 32  1  0
  1 33  1  0
  4 34  1  0
  7 35  1  0
 10 36  1  0
 10 37  1  0
 10 38  1  0
 11 39  1  0
 11 40  1  0
 13 41  1  0
 13 42  1  0
 15 43  1  0
 16 44  1  0
 21 45  1  0
 21 46  1  0
 23 47  1  0
 24 48  1  0
 25 49  1  0
 27 50  1  0
 28 51  1  0
 29 52  1  0
 29 53  1  0
 30 54  1  0
 30 55  1  0
M  CHG  1  20  -1
M  END
>  <UniqueID>  (2) 
2

>  <SMILES>  (2) 
COc1cc2c(cc1OC)CN(Cc1ccc(C(=O)[N-]Cc3cccs3)cc1)CC2

>  <Energy>  (2) 
86.91784157755791

>  <Genealogy>  (2) 
COc1cc2c(cc1OC)CN(Cc1ccc(C(=O)[N-]Cc3cccs3)cc1)CC2 (protonated)
COc1cc2c(cc1OC)CN(Cc1ccc(C(=O)[N-]Cc3cccs3)cc1)CC2 (3D coordinates assigned)
COc1cc2c(cc1OC)CN(Cc1ccc(C(=O)[N-]Cc3cccs3)cc1)CC2 (nonaromatic ring conformer: 86.91784157755791 kcal/mol)

>  <smiles>  (2) 
COc1cc2c(cc1OC)CN(Cc1ccc(C(=O)NCc3cccs3)cc1)CC2

>  <score_type>  (2) 
oracle

>  <origin>  (2) 
adg

>  <m_score__min__energy>  (2) 
-10.970000000000001

>  <m_primary>  (2) 
energy

$$$$
2:0
     RDKit          3D

 51 54  0  0  0  0  0  0  0  0999 V2000
   -0.1860   21.6700  -28.9510 C   0  0  0  0  0  0  0  0  0  0  0  0
   -1.0470   22.8980  -29.1010 C   0  0  0  0  0  0  0  0  0  0  0  0
   -0.6510   24.0900  -28.4810 C   0  0  0  0  0  0  0  0  0  0  0  0
   -1.4450   25.2310  -28.6170 C   0  0  0  0  0  0  0  0  0  0  0  0
   -1.0980   26.3070  -28.0640 O   0  0  0  0  0  0  0  0  0  0  0  0
   -2.5650   25.1900  -29.3280 O   0  0  0  0  0  0  0  0  0  0  0  0
   -2.9890   24.0870  -29.9380 C   0  0  0  0  0  0  0  0  0  0  0  0
   -4.1760   24.1250  -30.6720 C   0  0  0  0  0  0  0  0  0  0  0  0
   -4.6510   22.9860  -31.3410 C   0  0  0  0  0  0  0  0  0  0  0  0
   -3.9280   21.7750  -31.2320 C   0  0  0  0  0  0  0  0  0  0  0  0
   -2.7270   21.7380  -30.5030 C   0  0  0  0  0  0  0  0  0  0  0  0
   -2.2470   22.8880  -29.8490 C   0  0  0  0  0  0  0  0  0  0  0  0
   -4.3850   20.5450  -31.9640 C   0  0  0  0  0  0  0  0  0  0  0  0
   -5.7360   20.0510  -31.4230 C   0  0  0  0  0  0  0  0  0  0  0  0
   -6.9170   20.7030  -32.0400 N   0  0  0  0  0  0  0  0  0  0  0  0
   -7.1400   20.3780  -33.4650 C   0  0  0  0  0  0  0  0  0  0  0  0
   -6.1490   19.3010  -33.9110 C   0  0  0  0  0  0  0  0  0  0  0  0
   -6.7960   17.9680  -33.8720 N   0  0  0  0  0  0  0  0  0  0  0  0
   -5.9940   16.9380  -34.5610 C   0  0  0  0  0  0  0  0  0  0  0  0
   -4.7170   16.5790  -33.7640 C   0  0  0  0  0  0  0  0  0  0  0  0
   -4.7580   17.0240  -32.4180 O   0  0  0  0  0  0  0  0  0  0  0  0
   -6.0070   16.7060  -31.8440 C   0  0  0  0  0  0  0  0  0  0  0  0
   -7.1310   17.5420  -32.4910 C   0  0  0  0  0  0  0  0  0  0  0  0
   -7.1070   22.1250  -31.6850 C   0  0  0  0  0  0  0  0  0  0  0  0
   -5.9590   23.0860  -32.1080 C   0  0  0  0  0  0  0  0  0  0  0  0
   -0.0358   21.4558  -27.8826 H   0  0  0  0  0  0  0  0  0  0  0  0
   -0.6823   20.8134  -29.4305 H   0  0  0  0  0  0  0  0  0  0  0  0
    0.7885   21.8446  -29.4305 H   0  0  0  0  0  0  0  0  0  0  0  0
    0.2773   24.1271  -27.8921 H   0  0  0  0  0  0  0  0  0  0  0  0
   -4.7483   25.0628  -30.7270 H   0  0  0  0  0  0  0  0  0  0  0  0
   -2.1559   20.7998  -30.4429 H   0  0  0  0  0  0  0  0  0  0  0  0
   -4.4905   20.7813  -33.0331 H   0  0  0  0  0  0  0  0  0  0  0  0
   -3.6375   19.7517  -31.8161 H   0  0  0  0  0  0  0  0  0  0  0  0
   -5.8053   18.9686  -31.6063 H   0  0  0  0  0  0  0  0  0  0  0  0
   -5.7588   20.3063  -30.3533 H   0  0  0  0  0  0  0  0  0  0  0  0
   -8.1670   20.0075  -33.5989 H   0  0  0  0  0  0  0  0  0  0  0  0
   -6.9910   21.2831  -34.0721 H   0  0  0  0  0  0  0  0  0  0  0  0
   -5.8168   19.5146  -34.9377 H   0  0  0  0  0  0  0  0  0  0  0  0
   -5.2845   19.3024  -33.2308 H   0  0  0  0  0  0  0  0  0  0  0  0
   -6.6055   16.0316  -34.6816 H   0  0  0  0  0  0  0  0  0  0  0  0
   -5.6869   17.3393  -35.5381 H   0  0  0  0  0  0  0  0  0  0  0  0
   -4.5978   15.4855  -33.7678 H   0  0  0  0  0  0  0  0  0  0  0  0
   -3.8721   17.0870  -34.2519 H   0  0  0  0  0  0  0  0  0  0  0  0
   -6.2153   15.6374  -32.0009 H   0  0  0  0  0  0  0  0  0  0  0  0
   -5.9708   16.9329  -30.7683 H   0  0  0  0  0  0  0  0  0  0  0  0
   -8.0489   16.9366  -32.5210 H   0  0  0  0  0  0  0  0  0  0  0  0
   -7.2660   18.4492  -31.8838 H   0  0  0  0  0  0  0  0  0  0  0  0
   -8.0330   22.4725  -32.1663 H   0  0  0  0  0  0  0  0  0  0  0  0
   -7.1355   22.1580  -30.5859 H   0  0  0  0  0  0  0  0  0  0  0  0
   -5.7371   22.8902  -33.1674 H   0  0  0  0  0  0  0  0  0  0  0  0
   -6.3391   24.0949  -31.8896 H   0  0  0  0  0  0  0  0  0  0  0  0
  1  2  1  0
  2  3  2  0
  3  4  1  0
  4  5  2  0
  4  6  1  0
  6  7  1  0
  7  8  2  0
  8  9  1  0
  9 10  2  0
 10 11  1  0
 11 12  2  0
 10 13  1  0
 13 14  1  0
 14 15  1  0
 15 16  1  0
 16 17  1  0
 17 18  1  0
 18 19  1  0
 19 20  1  0
 20 21  1  0
 21 22  1  0
 22 23  1  0
 15 24  1  0
 24 25  1  0
 12  2  1  0
 23 18  1  0
 12  7  1  0
 25  9  1  0
  1 26  1  0
  1 27  1  0
  1 28  1  0
  3 29  1  0
  8 30  1  0
 11 31  1  0
 13 32  1  0
 13 33  1  0
 14 34  1  0
 14 35  1  0
 16 36  1  0
 16 37  1  0
 17 38  1  0
 17 39  1  0
 19 40  1  0
 19 41  1  0
 20 42  1  0
 20 43  1  0
 22 44  1  0
 22 45  1  0
 23 46  1  0
 23 47  1  0
 24 48  1  0
 24 49  1  0
 25 50  1  0
 25 51  1  0
M  END
>  <UniqueID>  (3) 
3

>  <SMILES>  (3) 
Cc1cc(=O)oc2cc3c(cc12)CCN(CCN1CCOCC1)CC3

>  <Energy>  (3) 
86.24030638671906

>  <Genealogy>  (3) 
Cc1cc(=O)oc2cc3c(cc12)CCN(CCN1CCOCC1)CC3 (3D coordinates assigned)
Cc1cc(=O)oc2cc3c(cc12)CCN(CCN1CCOCC1)CC3 (nonaromatic ring conformer: 86.24030638671906 kcal/mol)

>  <smiles>  (3) 
Cc1cc(=O)oc2cc3c(cc12)CCN(CCN1CCOCC1)CC3

>  <score_type>  (3) 
oracle

>  <origin>  (3) 
adg

>  <m_score__min__energy>  (3) 
-6.8600000000000003

>  <m_primary>  (3) 
energy

$$$$
3:0
     RDKit          3D

 32 33  0  0  0  0  0  0  0  0999 V2000
   -5.3820   19.2870  -33.8310 C   0  0  0  0  0  0  0  0  0  0  0  0
   -5.6090   20.6420  -33.4590 O   0  0  0  0  0  0  0  0  0  0  0  0
   -6.6280   21.0710  -32.5930 C   0  0  0  0  0  0  0  0  0  0  0  0
   -7.7460   20.2620  -32.3020 C   0  0  0  0  0  0  0  0  0  0  0  0
   -8.7430   20.7180  -31.4380 C   0  0  0  0  0  0  0  0  0  0  0  0
   -8.6380   21.9790  -30.8500 C   0  0  0  0  0  0  0  0  0  0  0  0
   -7.5360   22.7890  -31.1250 C   0  0  0  0  0  0  0  0  0  0  0  0
   -6.5300   22.3490  -32.0030 C   0  0  0  0  0  0  0  0  0  0  0  0
   -5.3640   23.2540  -32.3220 C   0  0  0  0  0  0  0  0  0  0  0  0
   -4.4760   23.3850  -31.1690 N   0  0  0  0  0  0  0  0  0  0  0  0
   -4.1430   24.6190  -30.5230 C   0  0  0  0  0  0  0  0  0  0  0  0
   -4.6500   25.6890  -30.9470 O   0  0  0  0  0  0  0  0  0  0  0  0
   -3.2910   24.6520  -29.3730 N   0  0  0  0  0  0  0  0  0  0  0  0
   -2.1350   25.2970  -29.3380 N   0  0  0  0  0  0  0  0  0  0  0  0
   -1.6080   25.1050  -28.1090 C   0  0  0  0  0  0  0  0  0  0  0  0
   -0.3450   25.7440  -27.6400 C   0  0  0  0  0  0  0  0  0  0  0  0
   -2.4520   24.3230  -27.3370 C   0  0  0  0  0  0  0  0  0  0  0  0
   -3.4970   24.0500  -28.1880 C   0  0  0  0  0  0  0  0  0  0  0  0
   -4.4920   23.3270  -27.9160 O   0  0  0  0  0  0  0  0  0  0  0  0
   -5.2787   18.6706  -32.9258 H   0  0  0  0  0  0  0  0  0  0  0  0
   -6.2317   18.9232  -34.4274 H   0  0  0  0  0  0  0  0  0  0  0  0
   -4.4601   19.2200  -34.4274 H   0  0  0  0  0  0  0  0  0  0  0  0
   -7.8329   19.2652  -32.7589 H   0  0  0  0  0  0  0  0  0  0  0  0
   -9.6135   20.0818  -31.2202 H   0  0  0  0  0  0  0  0  0  0  0  0
   -9.4250   22.3348  -30.1688 H   0  0  0  0  0  0  0  0  0  0  0  0
   -7.4536   23.7786  -30.6517 H   0  0  0  0  0  0  0  0  0  0  0  0
   -4.7992   22.8302  -33.1654 H   0  0  0  0  0  0  0  0  0  0  0  0
   -5.7524   24.2498  -32.5819 H   0  0  0  0  0  0  0  0  0  0  0  0
   -0.3255   25.7539  -26.5402 H   0  0  0  0  0  0  0  0  0  0  0  0
    0.5166   25.1733  -28.0169 H   0  0  0  0  0  0  0  0  0  0  0  0
   -0.2944   26.7762  -28.0169 H   0  0  0  0  0  0  0  0  0  0  0  0
   -2.3183   23.9987  -26.2944 H   0  0  0  0  0  0  0  0  0  0  0  0
  1  2  1  0
  2  3  1  0
  3  4  2  0
  4  5  1  0
  5  6  2  0
  6  7  1  0
  7  8  2  0
  8  9  1  0
  9 10  1  0
 10 11  1  0
 11 12  2  0
 11 13  1  0
 13 14  1  0
 14 15  1  0
 15 16  1  0
 15 17  2  0
 17 18  1  0
 18 19  2  0
  8  3  1  0
 18 13  1  0
  1 20  1  0
  1 21  1  0
  1 22  1  0
  4 23  1  0
  5 24  1  0
  6 25  1  0
  7 26  1  0
  9 27  1  0
  9 28  1  0
 16 29  1  0
 16 30  1  0
 16 31  1  0
 17 32  1  0
M  CHG  2  10  -1  14  -1
M  END
>  <UniqueID>  (4) 
4

>  <SMILES>  (4) 
COc1ccccc1C[N-]C(=O)n1[n-]c(C)cc1=O

>  <Energy>  (4) 
64.70515109981432

>  <Genealogy>  (4) 
COc1ccccc1C[N-]C(=O)n1[n-]c(C)cc1=O (protonated)
COc1ccccc1C[N-]C(=O)n1[n-]c(C)cc1=O (3D coordinates assigned)
COc1ccccc1C[N-]C(=O)n1[n-]c(C)cc1=O (optimized conformer: 64.70515109981432 kcal/mol)

>  <smiles>  (4) 
COc1ccccc1CNC(=O)n1[nH]c(C)cc1=O

>  <score_type>  (4) 
oracle

>  <origin>  (4) 
adg

>  <m_score__min__energy>  (4) 
-9.75

>  <m_primary>  (4) 
energy

$$$$
4:0
     RDKit          3D

 41 42  0  0  0  0  0  0  0  0999 V2000
   -3.5800   18.6410  -33.9150 C   0  0  0  0  0  0  0  0  0  0  0  0
   -2.8170   19.4620  -32.8740 C   0  0  0  0  0  0  0  0  0  0  0  0
   -3.7630   20.1960  -31.9010 C   0  0  2  0  0  0  0  0  0  0  0  0
   -5.0510   20.6560  -32.5630 C   0  0  0  0  0  0  0  0  0  0  0  0
   -4.9650   21.4640  -33.4770 O   0  0  0  0  0  0  0  0  0  0  0  0
   -6.3440   20.0910  -32.2020 N   0  0  0  0  0  0  0  0  0  0  0  0
   -6.2570   18.7200  -31.6380 C   0  0  0  0  0  0  0  0  0  0  0  0
   -7.3960   17.7610  -32.0480 C   0  0  0  0  0  0  0  0  0  0  0  0
   -8.8060   18.3390  -31.8550 C   0  0  0  0  0  0  0  0  0  0  0  0
   -9.0670   19.6870  -32.5400 C   0  0  0  0  0  0  0  0  0  0  0  0
   -8.7160   20.9040  -31.6730 C   0  0  0  0  0  0  0  0  0  0  0  0
   -7.1960   21.0430  -31.4480 C   0  0  0  0  0  0  0  0  0  0  0  0
   -3.1410   21.3030  -31.1480 N   0  0  0  0  0  0  0  0  0  0  0  0
   -3.7180   22.5120  -31.0150 C   0  0  0  0  0  0  0  0  0  0  0  0
   -2.8430   23.3340  -30.3500 C   0  0  0  0  0  0  0  0  0  0  0  0
   -3.0710   24.7040  -30.0090 N   0  0  0  0  0  0  0  0  0  0  0  0
   -3.9540   25.3640  -30.5940 O   0  0  0  0  0  0  0  0  0  0  0  0
   -2.3150   25.3030  -29.0290 O   0  0  0  0  0  0  0  0  0  0  0  0
   -1.7080   22.6740  -30.0650 N   0  0  0  0  0  0  0  0  0  0  0  0
   -1.9130   21.4380  -30.5700 C   0  0  0  0  0  0  0  0  0  0  0  0
   -0.5550   20.0980  -30.4040 Br  0  0  0  0  0  0  0  0  0  0  0  0
   -4.2434   17.9272  -33.4046 H   0  0  0  0  0  0  0  0  0  0  0  0
   -4.1806   19.3141  -34.5445 H   0  0  0  0  0  0  0  0  0  0  0  0
   -2.8648   18.0913  -34.5445 H   0  0  0  0  0  0  0  0  0  0  0  0
   -2.1692   18.7866  -32.2959 H   0  0  0  0  0  0  0  0  0  0  0  0
   -2.2284   20.2216  -33.4092 H   0  0  0  0  0  0  0  0  0  0  0  0
   -4.0127   19.4248  -31.1574 H   0  0  0  0  0  0  0  0  0  0  0  0
   -6.8580   19.9580  -33.0990 H   0  0  0  0  0  0  0  0  0  0  0  0
   -5.3055   18.2773  -31.9677 H   0  0  0  0  0  0  0  0  0  0  0  0
   -6.3365   18.8357  -30.5470 H   0  0  0  0  0  0  0  0  0  0  0  0
   -7.2690   17.5092  -33.1112 H   0  0  0  0  0  0  0  0  0  0  0  0
   -7.3217   16.8826  -31.3901 H   0  0  0  0  0  0  0  0  0  0  0  0
   -9.5281   17.6110  -32.2533 H   0  0  0  0  0  0  0  0  0  0  0  0
   -8.9116   18.5233  -30.7757 H   0  0  0  0  0  0  0  0  0  0  0  0
   -8.4639   19.7310  -33.4589 H   0  0  0  0  0  0  0  0  0  0  0  0
  -10.1473   19.7391  -32.7407 H   0  0  0  0  0  0  0  0  0  0  0  0
   -9.0843   21.8123  -32.1724 H   0  0  0  0  0  0  0  0  0  0  0  0
   -9.1907   20.7656  -30.6904 H   0  0  0  0  0  0  0  0  0  0  0  0
   -6.9031   22.0625  -31.7394 H   0  0  0  0  0  0  0  0  0  0  0  0
   -7.0286   20.8174  -30.3845 H   0  0  0  0  0  0  0  0  0  0  0  0
   -4.7182   22.7926  -31.3769 H   0  0  0  0  0  0  0  0  0  0  0  0
  1  2  1  0
  2  3  1  0
  3  4  1  0
  4  5  2  0
  4  6  1  0
  6  7  1  0
  7  8  1  0
  8  9  1  0
  9 10  1  0
 10 11  1  0
 11 12  1  0
  3 13  1  0
 13 14  1  0
 14 15  2  0
 15 16  1  0
 16 17  2  0
 16 18  1  0
 15 19  1  0
 19 20  2  0
 20 21  1  0
 12  6  1  0
 20 13  1  0
  1 22  1  0
  1 23  1  0
  1 24  1  0
  2 25  1  0
  2 26  1  0
  3 27  1  1
  6 28  1  0
  7 29  1  0
  7 30  1  0
  8 31  1  0
  8 32  1  0
  9 33  1  0
  9 34  1  0
 10 35  1  0
 10 36  1  0
 11 37  1  0
 11 38  1  0
 12 39  1  0
 12 40  1  0
 14 41  1  0
M  CHG  3   6   1  16   1  18  -1
M  END
>  <UniqueID>  (5) 
5

>  <SMILES>  (5) 
CC[C@H](C(=O)[NH+]1CCCCCC1)n1cc([N+](=O)[O-])nc1Br

>  <Energy>  (5) 
82.80559815001837

>  <Genealogy>  (5) 
CCC(C(=O)[NH+]1CCCCCC1)n1cc([N+](=O)[O-])nc1Br (protonated)
CC[C@H](C(=O)[NH+]1CCCCCC1)n1cc([N+](=O)[O-])nc1Br (chirality)
CC[C@H](C(=O)[NH+]1CCCCCC1)n1cc([N+](=O)[O-])nc1Br (3D coordinates assigned)
CC[C@H](C(=O)[NH+]1CCCCCC1)n1cc([N+](=O)[O-])nc1Br (nonaromatic ring conformer: 82.80559815001837 kcal/mol)

>  <smiles>  (5) 
CCC(C(=O)N1CCCCCC1)n1cc([N+](=O)[O-])nc1Br

>  <score_type>  (5) 
oracle

>  <origin>  (5) 
adg

>  <m_score__min__energy>  (5) 
-5.7699999999999996

>  <m_primary>  (5) 
energy

$$$$
5:0
     RDKit          3D

 55 58  0  0  0  0  0  0  0  0999 V2000
   -0.1218   26.3037  -28.1532 H   0  0  0  0  0  0  0  0  0  0  0  0
   -0.8660   25.4950  -28.1990 C   0  0  0  0  0  0  0  0  0  0  0  0
   -1.9660   25.6340  -28.9710 N   0  0  0  0  0  0  0  0  0  0  0  0
   -2.9300   24.6810  -29.0310 C   0  0  0  0  0  0  0  0  0  0  0  0
   -4.0490   24.9130  -29.8390 C   0  0  0  0  0  0  0  0  0  0  0  0
   -4.1063   25.8316  -30.4414 H   0  0  0  0  0  0  0  0  0  0  0  0
   -5.0900   23.9900  -29.8860 C   0  0  0  0  0  0  0  0  0  0  0  0
   -6.4900   24.2900  -30.9000 Cl  0  0  0  0  0  0  0  0  0  0  0  0
   -5.0310   22.8430  -29.1010 C   0  0  0  0  0  0  0  0  0  0  0  0
   -5.8665   22.1276  -29.1167 H   0  0  0  0  0  0  0  0  0  0  0  0
   -3.9180   22.5920  -28.2920 C   0  0  0  0  0  0  0  0  0  0  0  0
   -3.8997   21.6907  -27.6616 H   0  0  0  0  0  0  0  0  0  0  0  0
   -2.8130   23.4800  -28.2710 C   0  0  0  0  0  0  0  0  0  0  0  0
   -1.6060   23.2860  -27.5120 C   0  0  0  0  0  0  0  0  0  0  0  0
   -1.2410   22.1880  -26.9000 N   0  0  0  0  0  0  0  0  0  0  0  0
   -0.5380   20.9970  -27.3570 C   0  0  0  0  0  0  0  0  0  0  0  0
   -0.9040   20.1182  -26.8058 H   0  0  0  0  0  0  0  0  0  0  0  0
    0.5415   21.1107  -27.1785 H   0  0  0  0  0  0  0  0  0  0  0  0
   -0.7920   20.8140  -28.8170 C   0  0  0  0  0  0  0  0  0  0  0  0
   -2.0100   20.4810  -29.3140 N   0  0  0  0  0  0  0  0  0  0  0  0
   -1.7790   20.4320  -30.6340 C   0  0  0  0  0  0  0  0  0  0  0  0
   -2.6820   20.1070  -31.6420 C   0  0  0  0  0  0  0  0  0  0  0  0
   -3.7325   19.8780  -31.4094 H   0  0  0  0  0  0  0  0  0  0  0  0
   -2.2070   20.0800  -32.9780 C   0  0  0  0  0  0  0  0  0  0  0  0
   -3.0660   19.7260  -34.0810 N   0  0  0  0  0  0  0  0  0  0  0  0
   -2.9290   20.2190  -34.9920 H   0  0  0  0  0  0  0  0  0  0  0  0
   -4.0920   18.6820  -34.0340 C   0  0  0  0  0  0  0  0  0  0  0  0
   -3.9674   18.0956  -33.1117 H   0  0  0  0  0  0  0  0  0  0  0  0
   -3.9779   18.0367  -34.9175 H   0  0  0  0  0  0  0  0  0  0  0  0
   -5.4960   19.2950  -34.0530 C   0  0  0  0  0  0  0  0  0  0  0  0
   -6.2259   18.5259  -34.3457 H   0  0  0  0  0  0  0  0  0  0  0  0
   -5.5196   20.1240  -34.7756 H   0  0  0  0  0  0  0  0  0  0  0  0
   -5.8390   19.8110  -32.7070 N   0  0  0  0  0  0  0  0  0  0  0  0
   -6.8980   19.0010  -32.0610 C   0  0  0  0  0  0  0  0  0  0  0  0
   -6.5317   18.6506  -31.0848 H   0  0  0  0  0  0  0  0  0  0  0  0
   -7.1319   18.1553  -32.7244 H   0  0  0  0  0  0  0  0  0  0  0  0
   -8.1800   19.8030  -31.8480 C   0  0  0  0  0  0  0  0  0  0  0  0
   -8.3652   19.9188  -30.7699 H   0  0  0  0  0  0  0  0  0  0  0  0
   -8.0728   20.7953  -32.3103 H   0  0  0  0  0  0  0  0  0  0  0  0
   -9.0255   19.2725  -32.3103 H   0  0  0  0  0  0  0  0  0  0  0  0
   -6.0900   21.2720  -32.6990 C   0  0  0  0  0  0  0  0  0  0  0  0
   -6.6881   21.5244  -33.5870 H   0  0  0  0  0  0  0  0  0  0  0  0
   -6.6105   21.4986  -31.7568 H   0  0  0  0  0  0  0  0  0  0  0  0
   -4.8150   22.1290  -32.7170 C   0  0  0  0  0  0  0  0  0  0  0  0
   -4.5006   22.3403  -31.6843 H   0  0  0  0  0  0  0  0  0  0  0  0
   -4.0147   21.5847  -33.2398 H   0  0  0  0  0  0  0  0  0  0  0  0
   -5.0168   23.0756  -33.2398 H   0  0  0  0  0  0  0  0  0  0  0  0
   -0.8510   20.4110  -33.2400 C   0  0  0  0  0  0  0  0  0  0  0  0
   -0.4828   20.4108  -34.2765 H   0  0  0  0  0  0  0  0  0  0  0  0
    0.0270   20.7390  -32.1920 C   0  0  0  0  0  0  0  0  0  0  0  0
    1.0793   20.9916  -32.3893 H   0  0  0  0  0  0  0  0  0  0  0  0
   -0.4810   20.7330  -30.8970 C   0  0  0  0  0  0  0  0  0  0  0  0
    0.1770   20.9880  -29.7560 N   0  0  0  0  0  0  0  0  0  0  0  0
   -0.6730   24.3330  -27.4630 C   0  0  0  0  0  0  0  0  0  0  0  0
    0.2232   24.2321  -26.8333 H   0  0  0  0  0  0  0  0  0  0  0  0
  1  2  1  0
  2  3  1  0
  3  4  1  0
  4  5  2  0
  5  6  1  0
  5  7  1  0
  7  8  1  0
  7  9  2  0
  9 10  1  0
  9 11  1  0
 11 12  1  0
 11 13  2  0
 13 14  1  0
 14 15  2  0
 15 16  1  0
 16 17  1  0
 16 18  1  0
 16 19  1  0
 19 20  2  0
 20 21  1  0
 21 22  2  0
 22 23  1  0
 22 24  1  0
 24 25  1  0
 25 26  1  0
 25 27  1  0
 27 28  1  0
 27 29  1  0
 27 30  1  0
 30 31  1  0
 30 32  1  0
 30 33  1  0
 33 34  1  0
 34 35  1  0
 34 36  1  0
 34 37  1  0
 37 38  1  0
 37 39  1  0
 37 40  1  0
 33 41  1  0
 41 42  1  0
 41 43  1  0
 41 44  1  0
 44 45  1  0
 44 46  1  0
 44 47  1  0
 24 48  2  0
 48 49  1  0
 48 50  1  0
 50 51  1  0
 50 52  2  0
 52 53  1  0
 14 54  1  0
 54 55  1  0
 54  2  2  0
 13  4  1  0
 53 19  1  0
 52 21  1  0
M  CHG  2   3  -1  53  -1
M  END
>  <UniqueID>  (6) 
6

>  <SMILES>  (6) 
CCN(CC)CCNc1ccc2[n-]c(C/N=c3/cc[n-]c4cc(Cl)ccc34)nc2c1

>  <Energy>  (6) 
109.99142638513256

>  <Genealogy>  (6) 
CCN(CC)CCNc1ccc2[n-]c(CN=c3cc[n-]c4cc(Cl)ccc34)nc2c1 (protonated)
CCN(CC)CCNc1ccc2[n-]c(C/N=c3/cc[n-]c4cc(Cl)ccc34)nc2c1 (cis-trans isomerization)
CCN(CC)CCNc1ccc2[n-]c(C/N=c3/cc[n-]c4cc(Cl)ccc34)nc2c1 (3D coordinates assigned)
CCN(CC)CCNc1ccc2[n-]c(C/N=c3/cc[n-]c4cc(Cl)ccc34)nc2c1 (optimized conformer: 109.99142638513256 kcal/mol)

>  <smiles>  (6) 
CCN(CC)CCNc1ccc2[nH]c(CN=c3cc[nH]c4cc(Cl)ccc34)nc2c1

>  <score_type>  (6) 
oracle

>  <origin>  (6) 
adg

>  <m_score__min__energy>  (6) 
-9.6199999999999992

>  <m_primary>  (6) 
energy

$$$$
6:0
     RDKit          3D

 26 27  0  0  0  0  0  0  0  0999 V2000
   -6.5271   26.4431  -28.9799 H   0  0  0  0  0  0  0  0  0  0  0  0
   -6.4760   25.5220  -29.5790 C   0  0  0  0  0  0  0  0  0  0  0  0
   -7.2689   24.7646  -29.4920 H   0  0  0  0  0  0  0  0  0  0  0  0
   -5.4550   25.3240  -30.4090 C   0  0  0  0  0  0  0  0  0  0  0  0
   -4.6671   26.0875  -30.4888 H   0  0  0  0  0  0  0  0  0  0  0  0
   -5.3620   24.1010  -31.2220 C   0  0  0  0  0  0  0  0  0  0  0  0
   -4.4929   23.4366  -31.1071 H   0  0  0  0  0  0  0  0  0  0  0  0
   -6.3220   23.7880  -32.0990 C   0  0  0  0  0  0  0  0  0  0  0  0
   -6.4957   24.4596  -32.9527 H   0  0  0  0  0  0  0  0  0  0  0  0
   -7.1370   22.6090  -31.9720 N   0  0  0  0  0  0  0  0  0  0  0  0
   -6.9000   21.3500  -32.3980 C   0  0  0  0  0  0  0  0  0  0  0  0
   -5.8050   20.8860  -33.0380 N   0  0  0  0  0  0  0  0  0  0  0  0
   -5.7410   19.5550  -33.3410 C   0  0  0  0  0  0  0  0  0  0  0  0
   -4.8617   19.1630  -33.8732 H   0  0  0  0  0  0  0  0  0  0  0  0
   -6.7620   18.6940  -32.9900 N   0  0  0  0  0  0  0  0  0  0  0  0
   -6.6420   17.2710  -33.3370 C   0  0  0  0  0  0  0  0  0  0  0  0
   -6.5915   16.6720  -32.4158 H   0  0  0  0  0  0  0  0  0  0  0  0
   -7.5173   16.9625  -33.9275 H   0  0  0  0  0  0  0  0  0  0  0  0
   -5.7274   17.1134  -33.9275 H   0  0  0  0  0  0  0  0  0  0  0  0
   -7.8680   19.1710  -32.3090 C   0  0  0  0  0  0  0  0  0  0  0  0
   -9.1000   18.1870  -31.8340 S   0  0  0  0  0  0  0  0  0  0  0  0
   -7.9130   20.5310  -32.0180 C   0  0  0  0  0  0  0  0  0  0  0  0
   -8.8000   21.3340  -31.3270 C   0  0  0  0  0  0  0  0  0  0  0  0
   -9.7476   21.0124  -30.8703 H   0  0  0  0  0  0  0  0  0  0  0  0
   -8.2910   22.5890  -31.3140 N   0  0  0  0  0  0  0  0  0  0  0  0
   -8.7290   23.4190  -30.8520 H   0  0  0  0  0  0  0  0  0  0  0  0
  1  2  1  0
  2  3  1  0
  2  4  2  0
  4  5  1  0
  4  6  1  0
  6  7  1  0
  6  8  2  0
  8  9  1  0
  8 10  1  0
 10 11  1  0
 11 12  1  0
 12 13  2  0
 13 14  1  0
 13 15  1  0
 15 16  1  0
 16 17  1  0
 16 18  1  0
 16 19  1  0
 15 20  1  0
 20 21  2  0
 20 22  1  0
 22 23  1  0
 23 24  1  0
 23 25  2  0
 25 26  1  0
 25 10  1  0
 22 11  2  0
M  CHG  1  25   1
M  END
>  <UniqueID>  (7) 
7

>  <SMILES>  (7) 
C=C/C=C/n1[nH+]cc2c(=S)n(C)cnc21

>  <Energy>  (7) 
71.503333793878

>  <Genealogy>  (7) 
C=CC=Cn1[nH+]cc2c(=S)n(C)cnc21 (protonated)
C=C/C=C/n1[nH+]cc2c(=S)n(C)cnc21 (cis-trans isomerization)
C=C/C=C/n1[nH+]cc2c(=S)n(C)cnc21 (3D coordinates assigned)
C=C/C=C/n1[nH+]cc2c(=S)n(C)cnc21 (optimized conformer: 71.503333793878 kcal/mol)

>  <smiles>  (7) 
C=CC=Cn1ncc2c(=S)n(C)cnc21

>  <score_type>  (7) 
oracle

>  <origin>  (7) 
adg

>  <m_score__min__energy>  (7) 
-5.3799999999999999

>  <m_primary>  (7) 
energy

$$$$
7:0
     RDKit          3D

 42 42  0  0  0  0  0  0  0  0999 V2000
   -5.7560   19.9960  -33.4760 C   0  0  0  0  0  0  0  0  0  0  0  0
   -7.0920   20.3840  -32.8370 C   0  0  0  0  0  0  0  0  0  0  0  0
   -6.9600   21.2950  -31.5870 C   0  0  0  0  0  0  0  0  0  0  0  0
   -8.3290   21.7770  -31.0380 C   0  0  0  0  0  0  0  0  0  0  0  0
   -9.4960   21.4660  -31.9750 C   0  0  0  0  0  0  0  0  0  0  0  0
   -6.0070   22.4950  -31.8480 C   0  0  0  0  0  0  0  0  0  0  0  0
   -5.8580   23.3430  -30.6510 N   0  0  0  0  0  0  0  0  0  0  0  0
   -6.2770   24.7410  -30.8620 C   0  0  0  0  0  0  0  0  0  0  0  0
   -5.1900   25.6950  -30.3700 C   0  0  0  0  0  0  0  0  0  0  0  0
   -3.8830   25.2360  -30.8400 N   0  0  0  0  0  0  0  0  0  0  0  0
   -3.0430   24.3970  -29.5730 S   0  0  0  0  0  0  0  0  0  0  0  0
   -4.0150   24.0120  -28.4900 O   0  0  0  0  0  0  0  0  0  0  0  0
   -1.9950   25.2990  -28.9850 O   0  0  0  0  0  0  0  0  0  0  0  0
   -2.2650   22.9680  -30.2460 C   0  0  0  0  0  0  0  0  0  0  0  0
   -2.8300   22.3360  -31.3620 C   0  0  0  0  0  0  0  0  0  0  0  0
   -2.2500   21.1740  -31.8820 C   0  0  0  0  0  0  0  0  0  0  0  0
   -1.1020   20.6400  -31.2890 C   0  0  0  0  0  0  0  0  0  0  0  0
   -0.5450   19.5100  -31.7870 F   0  0  0  0  0  0  0  0  0  0  0  0
   -0.5320   21.2690  -30.1780 C   0  0  0  0  0  0  0  0  0  0  0  0
   -1.1120   22.4300  -29.6550 C   0  0  0  0  0  0  0  0  0  0  0  0
   -5.0203   19.7823  -32.6866 H   0  0  0  0  0  0  0  0  0  0  0  0
   -5.8944   19.1009  -34.1003 H   0  0  0  0  0  0  0  0  0  0  0  0
   -5.3934   20.8259  -34.1003 H   0  0  0  0  0  0  0  0  0  0  0  0
   -7.6925   20.9161  -33.5895 H   0  0  0  0  0  0  0  0  0  0  0  0
   -7.5630   19.4495  -32.4981 H   0  0  0  0  0  0  0  0  0  0  0  0
   -6.5115   20.6673  -30.8028 H   0  0  0  0  0  0  0  0  0  0  0  0
   -8.5132   21.2812  -30.0735 H   0  0  0  0  0  0  0  0  0  0  0  0
   -8.2738   22.8709  -30.9360 H   0  0  0  0  0  0  0  0  0  0  0  0
  -10.3902   21.2277  -31.3804 H   0  0  0  0  0  0  0  0  0  0  0  0
   -9.7001   22.3411  -32.6095 H   0  0  0  0  0  0  0  0  0  0  0  0
   -9.2375   20.6054  -32.6095 H   0  0  0  0  0  0  0  0  0  0  0  0
   -5.0183   22.1089  -32.1367 H   0  0  0  0  0  0  0  0  0  0  0  0
   -6.4403   23.1088  -32.6515 H   0  0  0  0  0  0  0  0  0  0  0  0
   -4.8430   23.3480  -30.3920 H   0  0  0  0  0  0  0  0  0  0  0  0
   -6.4515   24.9105  -31.9348 H   0  0  0  0  0  0  0  0  0  0  0  0
   -7.2026   24.9284  -30.2980 H   0  0  0  0  0  0  0  0  0  0  0  0
   -5.3853   26.7047  -30.7604 H   0  0  0  0  0  0  0  0  0  0  0  0
   -5.1949   25.7174  -29.2702 H   0  0  0  0  0  0  0  0  0  0  0  0
   -3.7326   22.7551  -31.8307 H   0  0  0  0  0  0  0  0  0  0  0  0
   -2.6972   20.6804  -32.7575 H   0  0  0  0  0  0  0  0  0  0  0  0
    0.3736   20.8506  -29.7145 H   0  0  0  0  0  0  0  0  0  0  0  0
   -0.6633   22.9216  -28.7792 H   0  0  0  0  0  0  0  0  0  0  0  0
  1  2  1  0
  2  3  1  0
  3  4  1  0
  4  5  1  0
  3  6  1  0
  6  7  1  0
  7  8  1  0
  8  9  1  0
  9 10  1  0
 10 11  1  0
 11 12  2  0
 11 13  2  0
 11 14  1  0
 14 15  2  0
 15 16  1  0
 16 17  2  0
 17 18  1  0
 17 19  1  0
 19 20  2  0
 20 14  1  0
  1 21  1  0
  1 22  1  0
  1 23  1  0
  2 24  1  0
  2 25  1  0
  3 26  1  0
  4 27  1  0
  4 28  1  0
  5 29  1  0
  5 30  1  0
  5 31  1  0
  6 32  1  0
  6 33  1  0
  7 34  1  0
  8 35  1  0
  8 36  1  0
  9 37  1  0
  9 38  1  0
 15 39  1  0
 16 40  1  0
 19 41  1  0
 20 42  1  0
M  CHG  1  10  -1
M  END
>  <UniqueID>  (8) 
8

>  <SMILES>  (8) 
CCC(CC)CNCC[N-]S(=O)(=O)c1ccc(F)cc1

>  <Energy>  (8) 
30.546658075961787

>  <Genealogy>  (8) 
CCC(CC)CNCC[N-]S(=O)(=O)c1ccc(F)cc1 (protonated)
CCC(CC)CNCC[N-]S(=O)(=O)c1ccc(F)cc1 (3D coordinates assigned)
CCC(CC)CNCC[N-]S(=O)(=O)c1ccc(F)cc1 (optimized conformer: 30.546658075961787 kcal/mol)

>  <smiles>  (8) 
CCC(CC)CNCCNS(=O)(=O)c1ccc(F)cc1

>  <score_type>  (8) 
oracle

>  <origin>  (8) 
adg

>  <m_score__min__energy>  (8) 
-7.8300000000000001

>  <m_primary>  (8) 
energy

$$$$
8:0
     RDKit          3D

 27 28  0  0  0  0  0  0  0  0999 V2000
   -4.5380   24.8500  -31.2120 O   0  0  0  0  0  0  0  0  0  0  0  0
   -4.8370   24.4990  -30.0390 C   0  0  0  0  0  0  0  0  0  0  0  0
   -6.1720   24.0590  -29.7390 N   0  0  0  0  0  0  0  0  0  0  0  0
   -7.2370   24.0590  -30.7390 C   0  0  0  0  0  0  0  0  0  0  0  0
   -7.3560   22.7010  -31.3750 C   0  0  0  0  0  0  0  0  0  0  0  0
   -6.2840   22.1520  -32.0980 C   0  0  0  0  0  0  0  0  0  0  0  0
   -6.4130   20.8980  -32.7040 C   0  0  0  0  0  0  0  0  0  0  0  0
   -7.6110   20.1860  -32.5950 C   0  0  0  0  0  0  0  0  0  0  0  0
   -8.6840   20.7290  -31.8810 C   0  0  0  0  0  0  0  0  0  0  0  0
   -8.5590   21.9820  -31.2750 C   0  0  0  0  0  0  0  0  0  0  0  0
   -3.8050   24.5430  -28.9880 C   0  0  0  0  0  0  0  0  0  0  0  0
   -4.1310   24.2310  -27.7040 N   0  0  0  0  0  0  0  0  0  0  0  0
   -3.1980   24.2620  -26.7170 C   0  0  0  0  0  0  0  0  0  0  0  0
   -1.8830   24.6180  -27.0140 C   0  0  0  0  0  0  0  0  0  0  0  0
   -0.5510   24.6690  -25.6470 Br  0  0  0  0  0  0  0  0  0  0  0  0
   -1.5630   24.9350  -28.3340 C   0  0  0  0  0  0  0  0  0  0  0  0
   -2.5260   24.8920  -29.2920 N   0  0  0  0  0  0  0  0  0  0  0  0
   -6.4020   23.7210  -28.7780 H   0  0  0  0  0  0  0  0  0  0  0  0
   -8.1900   24.3174  -30.2542 H   0  0  0  0  0  0  0  0  0  0  0  0
   -6.9973   24.7987  -31.5170 H   0  0  0  0  0  0  0  0  0  0  0  0
   -5.3403   22.7100  -32.1878 H   0  0  0  0  0  0  0  0  0  0  0  0
   -5.5701   20.4713  -33.2674 H   0  0  0  0  0  0  0  0  0  0  0  0
   -7.7097   19.1991  -33.0706 H   0  0  0  0  0  0  0  0  0  0  0  0
   -9.6272   20.1693  -31.7964 H   0  0  0  0  0  0  0  0  0  0  0  0
   -9.4063   22.4073  -30.7172 H   0  0  0  0  0  0  0  0  0  0  0  0
   -3.4796   24.0066  -25.6848 H   0  0  0  0  0  0  0  0  0  0  0  0
   -0.5339   25.2191  -28.5990 H   0  0  0  0  0  0  0  0  0  0  0  0
  1  2  2  0
  2  3  1  0
  3  4  1  0
  4  5  1  0
  5  6  2  0
  6  7  1  0
  7  8  2  0
  8  9  1  0
  9 10  2  0
  2 11  1  0
 11 12  2  0
 12 13  1  0
 13 14  2  0
 14 15  1  0
 14 16  1  0
 16 17  2  0
 10  5  1  0
 17 11  1  0
  3 18  1  0
  4 19  1  0
  4 20  1  0
  6 21  1  0
  7 22  1  0
  8 23  1  0
  9 24  1  0
 10 25  1  0
 13 26  1  0
 16 27  1  0
M  END
>  <UniqueID>  (9) 
9

>  <SMILES>  (9) 
O=C(NCc1ccccc1)c1ncc(Br)cn1

>  <Energy>  (9) 
25.45801214190948

>  <Genealogy>  (9) 
O=C(NCc1ccccc1)c1ncc(Br)cn1 (3D coordinates assigned)
O=C(NCc1ccccc1)c1ncc(Br)cn1 (optimized conformer: 25.45801214190948 kcal/mol)

>  <smiles>  (9) 
O=C(NCc1ccccc1)c1ncc(Br)cn1

>  <score_type>  (9) 
oracle

>  <origin>  (9) 
adg

>  <m_score__min__energy>  (9) 
-7.1299999999999999

>  <m_primary>  (9) 
energy

$$$$
9:0
     RDKit          3D

 52 56  0  0  0  0  0  0  0  0999 V2000
    1.4250   16.9500  -28.0220 C   0  0  0  0  0  0  0  0  0  0  0  0
    0.3000   17.6270  -27.4740 O   0  0  0  0  0  0  0  0  0  0  0  0
   -0.0810   18.9340  -27.8160 C   0  0  0  0  0  0  0  0  0  0  0  0
   -1.2080   19.4820  -27.1930 C   0  0  0  0  0  0  0  0  0  0  0  0
   -1.6290   20.7790  -27.5010 C   0  0  0  0  0  0  0  0  0  0  0  0
   -0.9240   21.5480  -28.4380 C   0  0  0  0  0  0  0  0  0  0  0  0
   -1.3610   22.9270  -28.7490 C   0  0  0  0  0  0  0  0  0  0  0  0
   -0.7850   24.0960  -28.2470 C   0  0  0  0  0  0  0  0  0  0  0  0
    0.3790   24.1870  -27.3400 C   0  0  0  0  0  0  0  0  0  0  0  0
    1.5390   24.2320  -27.8340 O   0  0  0  0  0  0  0  0  0  0  0  0
    0.1850   24.1950  -25.8460 C   0  0  0  0  0  0  0  0  0  0  0  0
   -1.2020   24.5570  -25.3290 C   0  0  0  0  0  0  0  0  0  0  0  0
   -0.7440   23.1080  -25.3280 C   0  0  0  0  0  0  0  0  0  0  0  0
   -1.4940   25.1430  -28.8220 C   0  0  0  0  0  0  0  0  0  0  0  0
   -1.2730   26.5110  -28.6820 O   0  0  0  0  0  0  0  0  0  0  0  0
   -2.4600   24.5810  -29.6210 C   0  0  0  0  0  0  0  0  0  0  0  0
   -3.3990   25.2960  -30.3570 O   0  0  0  0  0  0  0  0  0  0  0  0
   -2.3850   23.2370  -29.5850 N   0  0  0  0  0  0  0  0  0  0  0  0
   -3.2770   22.3280  -30.2570 C   0  0  0  0  0  0  0  0  0  0  0  0
   -2.7750   21.1990  -30.9210 C   0  0  0  0  0  0  0  0  0  0  0  0
   -3.6400   20.3220  -31.5800 C   0  0  0  0  0  0  0  0  0  0  0  0
   -5.0260   20.5560  -31.5790 C   0  0  0  0  0  0  0  0  0  0  0  0
   -5.9430   19.6310  -32.2780 C   0  0  0  0  0  0  0  0  0  0  0  0
   -7.2660   19.8510  -32.4230 N   0  0  0  0  0  0  0  0  0  0  0  0
   -7.7080   18.8220  -33.0790 O   0  0  0  0  0  0  0  0  0  0  0  0
   -6.7170   18.0070  -33.3360 C   0  0  0  0  0  0  0  0  0  0  0  0
   -6.8660   16.7060  -34.0490 C   0  0  0  0  0  0  0  0  0  0  0  0
   -5.5530   18.4670  -32.8410 N   0  0  0  0  0  0  0  0  0  0  0  0
   -5.5280   21.6820  -30.9060 C   0  0  0  0  0  0  0  0  0  0  0  0
   -4.6600   22.5590  -30.2480 C   0  0  0  0  0  0  0  0  0  0  0  0
    0.2070   21.0030  -29.0630 C   0  0  0  0  0  0  0  0  0  0  0  0
    0.6270   19.7050  -28.7560 C   0  0  0  0  0  0  0  0  0  0  0  0
    2.0572   16.5696  -27.2061 H   0  0  0  0  0  0  0  0  0  0  0  0
    1.0807   16.1090  -28.6418 H   0  0  0  0  0  0  0  0  0  0  0  0
    2.0069   17.6481  -28.6418 H   0  0  0  0  0  0  0  0  0  0  0  0
   -1.7669   18.8876  -26.4552 H   0  0  0  0  0  0  0  0  0  0  0  0
   -2.5174   21.1982  -27.0060 H   0  0  0  0  0  0  0  0  0  0  0  0
    1.2018   24.5474  -25.6183 H   0  0  0  0  0  0  0  0  0  0  0  0
   -1.3104   25.1003  -24.3787 H   0  0  0  0  0  0  0  0  0  0  0  0
   -2.0676   25.0991  -25.7375 H   0  0  0  0  0  0  0  0  0  0  0  0
   -0.5218   22.6025  -24.3766 H   0  0  0  0  0  0  0  0  0  0  0  0
   -1.1422   22.1671  -25.7356 H   0  0  0  0  0  0  0  0  0  0  0  0
   -1.6100   27.1840  -29.3550 H   0  0  0  0  0  0  0  0  0  0  0  0
   -1.6926   21.0028  -30.9228 H   0  0  0  0  0  0  0  0  0  0  0  0
   -3.2341   19.4433  -32.1027 H   0  0  0  0  0  0  0  0  0  0  0  0
   -6.9591   15.8934  -33.3135 H   0  0  0  0  0  0  0  0  0  0  0  0
   -7.7667   16.7346  -34.6798 H   0  0  0  0  0  0  0  0  0  0  0  0
   -5.9821   16.5302  -34.6798 H   0  0  0  0  0  0  0  0  0  0  0  0
   -6.6109   21.8752  -30.8965 H   0  0  0  0  0  0  0  0  0  0  0  0
   -5.0646   23.4352  -29.7202 H   0  0  0  0  0  0  0  0  0  0  0  0
    0.7666   21.5996  -29.7985 H   0  0  0  0  0  0  0  0  0  0  0  0
    1.5147   19.2850  -29.2516 H   0  0  0  0  0  0  0  0  0  0  0  0
  1  2  1  0
  2  3  1  0
  3  4  2  0
  4  5  1  0
  5  6  2  0
  6  7  1  0
  7  8  2  0
  8  9  1  0
  9 10  2  0
  9 11  1  0
 11 12  1  0
 12 13  1  0
  8 14  1  0
 14 15  1  0
 14 16  2  0
 16 17  1  0
 16 18  1  0
 18 19  1  0
 19 20  2  0
 20 21  1  0
 21 22  2  0
 22 23  1  0
 23 24  2  0
 24 25  1  0
 25 26  1  0
 26 27  1  0
 26 28  2  0
 22 29  1  0
 29 30  2  0
  6 31  1  0
 31 32  2  0
 32  3  1  0
 18  7  1  0
 30 19  1  0
 13 11  1  0
 28 23  1  0
  1 33  1  0
  1 34  1  0
  1 35  1  0
  4 36  1  0
  5 37  1  0
 11 38  1  0
 12 39  1  0
 12 40  1  0
 13 41  1  0
 13 42  1  0
 15 43  1  0
 20 44  1  0
 21 45  1  0
 27 46  1  0
 27 47  1  0
 27 48  1  0
 29 49  1  0
 30 50  1  0
 31 51  1  0
 32 52  1  0
M  CHG  1  17  -1
M  END
>  <UniqueID>  (10) 
10

>  <SMILES>  (10) 
COc1ccc(-c2c(C(=O)C3CC3)c(O)c([O-])n2-c2ccc(-c3noc(C)n3)cc2)cc1

>  <Energy>  (10) 
395.7513597278583

>  <Genealogy>  (10) 
COc1ccc(-c2c(C(=O)C3CC3)c(O)c([O-])n2-c2ccc(-c3noc(C)n3)cc2)cc1 (protonated)
COc1ccc(-c2c(C(=O)C3CC3)c(O)c([O-])n2-c2ccc(-c3noc(C)n3)cc2)cc1 (3D coordinates assigned)
COc1ccc(-c2c(C(=O)C3CC3)c(O)c([O-])n2-c2ccc(-c3noc(C)n3)cc2)cc1 (nonaromatic ring conformer: 395.7513597278583 kcal/mol)

>  <smiles>  (10) 
COc1ccc(-c2c(C(=O)C3CC3)c(O)c(O)n2-c2ccc(-c3noc(C)n3)cc2)cc1

>  <score_type>  (10) 
oracle

>  <origin>  (10) 
adg

>  <m_score__min__energy>  (10) 
-12.06

>  <m_primary>  (10) 
energy

$$$$
10:0
     RDKit          3D

 47 48  0  0  0  0  0  0  0  0999 V2000
   -7.1470   23.7820  -32.3310 C   0  0  0  0  0  0  0  0  0  0  0  0
   -6.0300   22.8100  -32.0710 C   0  0  0  0  0  0  0  0  0  0  0  0
   -6.1820   21.4570  -32.4170 C   0  0  0  0  0  0  0  0  0  0  0  0
   -5.1440   20.5510  -32.1940 C   0  0  0  0  0  0  0  0  0  0  0  0
   -5.3420   18.8630  -32.6290 Cl  0  0  0  0  0  0  0  0  0  0  0  0
   -3.9470   20.9870  -31.6230 C   0  0  0  0  0  0  0  0  0  0  0  0
   -3.7830   22.3310  -31.2790 C   0  0  0  0  0  0  0  0  0  0  0  0
   -4.8170   23.2600  -31.5110 C   0  0  0  0  0  0  0  0  0  0  0  0
   -4.6890   24.6250  -31.1940 O   0  0  0  0  0  0  0  0  0  0  0  0
   -5.6200   25.4150  -30.4490 C   0  0  0  0  0  0  0  0  0  0  0  0
   -5.6500   24.9960  -28.9770 C   0  0  0  0  0  0  0  0  0  0  0  0
   -4.3580   24.4370  -28.5530 N   0  0  0  0  0  0  0  0  0  0  0  0
   -4.1910   24.5370  -27.0930 C   0  0  0  0  0  0  0  0  0  0  0  0
   -2.7890   25.0420  -26.7340 C   0  0  0  0  0  0  0  0  0  0  0  0
   -1.7540   24.1900  -27.3390 N   0  0  0  0  0  0  0  0  0  0  0  0
   -0.8450   23.4150  -26.4890 C   0  0  0  0  0  0  0  0  0  0  0  0
   -1.2130   21.9260  -26.4770 C   0  0  0  0  0  0  0  0  0  0  0  0
   -1.4510   21.3140  -27.8680 C   0  0  0  0  0  0  0  0  0  0  0  0
   -0.5700   21.9250  -28.9650 C   0  0  0  0  0  0  0  0  0  0  0  0
   -1.2310   23.1360  -29.6390 C   0  0  0  0  0  0  0  0  0  0  0  0
   -1.4600   24.3290  -28.7430 C   0  0  0  0  0  0  0  0  0  0  0  0
   -1.5050   25.4710  -29.2730 O   0  0  0  0  0  0  0  0  0  0  0  0
   -7.5547   24.1368  -31.3730 H   0  0  0  0  0  0  0  0  0  0  0  0
   -6.7622   24.6377  -32.9051 H   0  0  0  0  0  0  0  0  0  0  0  0
   -7.9414   23.2827  -32.9051 H   0  0  0  0  0  0  0  0  0  0  0  0
   -7.1242   21.1097  -32.8661 H   0  0  0  0  0  0  0  0  0  0  0  0
   -3.1315   20.2709  -31.4436 H   0  0  0  0  0  0  0  0  0  0  0  0
   -2.8396   22.6667  -30.8236 H   0  0  0  0  0  0  0  0  0  0  0  0
   -5.3258   26.4729  -30.5148 H   0  0  0  0  0  0  0  0  0  0  0  0
   -6.6231   25.2635  -30.8742 H   0  0  0  0  0  0  0  0  0  0  0  0
   -5.8795   25.8764  -28.3587 H   0  0  0  0  0  0  0  0  0  0  0  0
   -6.4206   24.2209  -28.8529 H   0  0  0  0  0  0  0  0  0  0  0  0
   -3.6060   25.0230  -28.9850 H   0  0  0  0  0  0  0  0  0  0  0  0
   -4.9390   25.2370  -26.6924 H   0  0  0  0  0  0  0  0  0  0  0  0
   -4.3261   23.5369  -26.6554 H   0  0  0  0  0  0  0  0  0  0  0  0
   -2.6708   26.0708  -27.1048 H   0  0  0  0  0  0  0  0  0  0  0  0
   -2.6739   25.0124  -25.6404 H   0  0  0  0  0  0  0  0  0  0  0  0
    0.1810   23.5258  -26.8698 H   0  0  0  0  0  0  0  0  0  0  0  0
   -0.9265   23.7973  -25.4608 H   0  0  0  0  0  0  0  0  0  0  0  0
   -0.3928   21.3738  -25.9949 H   0  0  0  0  0  0  0  0  0  0  0  0
   -2.1659   21.8447  -25.9335 H   0  0  0  0  0  0  0  0  0  0  0  0
   -1.2418   20.2354  -27.8141 H   0  0  0  0  0  0  0  0  0  0  0  0
   -2.4963   21.5236  -28.1388 H   0  0  0  0  0  0  0  0  0  0  0  0
    0.3815   22.2462  -28.5161 H   0  0  0  0  0  0  0  0  0  0  0  0
   -0.4125   21.1563  -29.7359 H   0  0  0  0  0  0  0  0  0  0  0  0
   -0.5865   23.4551  -30.4713 H   0  0  0  0  0  0  0  0  0  0  0  0
   -2.2287   22.7993  -29.9573 H   0  0  0  0  0  0  0  0  0  0  0  0
  1  2  1  0
  2  3  2  0
  3  4  1  0
  4  5  1  0
  4  6  2  0
  6  7  1  0
  7  8  2  0
  8  9  1  0
  9 10  1  0
 10 11  1  0
 11 12  1  0
 12 13  1  0
 13 14  1  0
 14 15  1  0
 15 16  1  0
 16 17  1  0
 17 18  1  0
 18 19  1  0
 19 20  1  0
 20 21  1  0
 21 22  2  0
  8  2  1  0
 21 15  1  0
  1 23  1  0
  1 24  1  0
  1 25  1  0
  3 26  1  0
  6 27  1  0
  7 28  1  0
 10 29  1  0
 10 30  1  0
 11 31  1  0
 11 32  1  0
 12 33  1  0
 13 34  1  0
 13 35  1  0
 14 36  1  0
 14 37  1  0
 16 38  1  0
 16 39  1  0
 17 40  1  0
 17 41  1  0
 18 42  1  0
 18 43  1  0
 19 44  1  0
 19 45  1  0
 20 46  1  0
 20 47  1  0
M  END
>  <UniqueID>  (11) 
11

>  <SMILES>  (11) 
Cc1cc(Cl)ccc1OCCNCCN1CCCCCC1=O

>  <Energy>  (11) 
44.202979874657174

>  <Genealogy>  (11) 
Cc1cc(Cl)ccc1OCCNCCN1CCCCCC1=O (3D coordinates assigned)
Cc1cc(Cl)ccc1OCCNCCN1CCCCCC1=O (nonaromatic ring conformer: 44.202979874657174 kcal/mol)

>  <smiles>  (11) 
Cc1cc(Cl)ccc1OCCNCCN1CCCCCC1=O

>  <score_type>  (11) 
oracle

>  <origin>  (11) 
adg

>  <m_score__min__energy>  (11) 
-6.6399999999999997

>  <m_primary>  (11) 
energy

$$$$
11:0
     RDKit          3D

 57 60  0  0  0  0  0  0  0  0999 V2000
   -6.9130   13.8770  -34.6000 C   0  0  0  0  0  0  0  0  0  0  0  0
   -5.8640   14.5500  -33.9160 O   0  0  0  0  0  0  0  0  0  0  0  0
   -5.8750   15.9150  -33.5960 C   0  0  0  0  0  0  0  0  0  0  0  0
   -6.0700   16.8400  -34.6290 C   0  0  0  0  0  0  0  0  0  0  0  0
   -6.0940   18.2110  -34.3610 C   0  0  0  0  0  0  0  0  0  0  0  0
   -5.9190   18.6760  -33.0500 C   0  0  0  0  0  0  0  0  0  0  0  0
   -5.9590   20.0870  -32.7700 N   0  0  0  0  0  0  0  0  0  0  0  0
   -4.9130   20.9500  -32.8020 C   0  0  0  0  0  0  0  0  0  0  0  0
   -3.4970   20.5820  -33.0300 C   0  0  0  0  0  0  0  0  0  0  0  0
   -3.1530   19.5620  -33.9330 C   0  0  0  0  0  0  0  0  0  0  0  0
   -1.8140   19.2210  -34.1370 C   0  0  0  0  0  0  0  0  0  0  0  0
   -0.8060   19.8870  -33.4340 C   0  0  0  0  0  0  0  0  0  0  0  0
    0.4940   19.5550  -33.6330 F   0  0  0  0  0  0  0  0  0  0  0  0
   -1.1390   20.8910  -32.5220 C   0  0  0  0  0  0  0  0  0  0  0  0
   -2.4780   21.2350  -32.3150 C   0  0  0  0  0  0  0  0  0  0  0  0
   -5.3520   22.2390  -32.5550 C   0  0  0  0  0  0  0  0  0  0  0  0
   -6.7170   22.1560  -32.3590 C   0  0  0  0  0  0  0  0  0  0  0  0
   -7.6160   23.3190  -32.0410 C   0  0  0  0  0  0  0  0  0  0  0  0
   -7.1670   24.0000  -30.8100 N   0  0  0  0  0  0  0  0  0  0  0  0
   -6.8380   23.0400  -29.7230 C   0  0  0  0  0  0  0  0  0  0  0  0
   -5.3260   22.7880  -29.5990 C   0  0  0  0  0  0  0  0  0  0  0  0
   -4.5620   24.0360  -29.3560 N   0  0  0  0  0  0  0  0  0  0  0  0
   -4.2270   24.1920  -27.9310 C   0  0  0  0  0  0  0  0  0  0  0  0
   -5.2360   25.2530  -29.8630 C   0  0  0  0  0  0  0  0  0  0  0  0
   -6.0660   24.9440  -31.1130 C   0  0  0  0  0  0  0  0  0  0  0  0
   -7.0690   20.8230  -32.5140 C   0  0  0  0  0  0  0  0  0  0  0  0
   -8.4620   20.2690  -32.4080 C   0  0  0  0  0  0  0  0  0  0  0  0
   -5.7210   17.7550  -32.0120 C   0  0  0  0  0  0  0  0  0  0  0  0
   -5.7000   16.3830  -32.2800 C   0  0  0  0  0  0  0  0  0  0  0  0
   -7.6035   13.4340  -33.8672 H   0  0  0  0  0  0  0  0  0  0  0  0
   -7.4586   14.5941  -35.2310 H   0  0  0  0  0  0  0  0  0  0  0  0
   -6.4886   13.0822  -35.2310 H   0  0  0  0  0  0  0  0  0  0  0  0
   -6.2055   16.4840  -35.6609 H   0  0  0  0  0  0  0  0  0  0  0  0
   -6.2506   18.9275  -35.1808 H   0  0  0  0  0  0  0  0  0  0  0  0
   -3.9428   19.0289  -34.4825 H   0  0  0  0  0  0  0  0  0  0  0  0
   -1.5523   18.4271  -34.8520 H   0  0  0  0  0  0  0  0  0  0  0  0
   -0.3460   21.4121  -31.9655 H   0  0  0  0  0  0  0  0  0  0  0  0
   -2.7355   22.0204  -31.5892 H   0  0  0  0  0  0  0  0  0  0  0  0
   -4.7359   23.1496  -32.5214 H   0  0  0  0  0  0  0  0  0  0  0  0
   -7.5939   24.0326  -32.8778 H   0  0  0  0  0  0  0  0  0  0  0  0
   -8.6391   22.9454  -31.8872 H   0  0  0  0  0  0  0  0  0  0  0  0
   -7.2075   23.4460  -28.7698 H   0  0  0  0  0  0  0  0  0  0  0  0
   -7.3183   22.0809  -29.9668 H   0  0  0  0  0  0  0  0  0  0  0  0
   -5.1507   22.0977  -28.7607 H   0  0  0  0  0  0  0  0  0  0  0  0
   -4.9781   22.3623  -30.5517 H   0  0  0  0  0  0  0  0  0  0  0  0
   -5.0536   23.8071  -27.3157 H   0  0  0  0  0  0  0  0  0  0  0  0
   -3.3094   23.6286  -27.7062 H   0  0  0  0  0  0  0  0  0  0  0  0
   -4.0677   25.2569  -27.7062 H   0  0  0  0  0  0  0  0  0  0  0  0
   -5.8996   25.6487  -29.0800 H   0  0  0  0  0  0  0  0  0  0  0  0
   -4.4669   25.9932  -30.1287 H   0  0  0  0  0  0  0  0  0  0  0  0
   -6.4938   25.8809  -31.4994 H   0  0  0  0  0  0  0  0  0  0  0  0
   -5.4066   24.4790  -31.8606 H   0  0  0  0  0  0  0  0  0  0  0  0
   -8.7339   20.1609  -31.3476 H   0  0  0  0  0  0  0  0  0  0  0  0
   -9.1678   20.9549  -32.8994 H   0  0  0  0  0  0  0  0  0  0  0  0
   -8.5039   19.2858  -32.8994 H   0  0  0  0  0  0  0  0  0  0  0  0
   -5.5815   18.1135  -30.9815 H   0  0  0  0  0  0  0  0  0  0  0  0
   -5.5462   15.6667  -31.4595 H   0  0  0  0  0  0  0  0  0  0  0  0
  1  2  1  0
  2  3  1  0
  3  4  2  0
  4  5  1  0
  5  6  2  0
  6  7  1  0
  7  8  1  0
  8  9  1  0
  9 10  2  0
 10 11  1  0
 11 12  2  0
 12 13  1  0
 12 14  1  0
 14 15  2  0
  8 16  2  0
 16 17  1  0
 17 18  1  0
 18 19  1  0
 19 20  1  0
 20 21  1  0
 21 22  1  0
 22 23  1  0
 22 24  1  0
 24 25  1  0
 17 26  2  0
 26 27  1  0
  6 28  1  0
 28 29  2  0
 29  3  1  0
 26  7  1  0
 15  9  1  0
 25 19  1  0
  1 30  1  0
  1 31  1  0
  1 32  1  0
  4 33  1  0
  5 34  1  0
 10 35  1  0
 11 36  1  0
 14 37  1  0
 15 38  1  0
 16 39  1  0
 18 40  1  0
 18 41  1  0
 20 42  1  0
 20 43  1  0
 21 44  1  0
 21 45  1  0
 23 46  1  0
 23 47  1  0
 23 48  1  0
 24 49  1  0
 24 50  1  0
 25 51  1  0
 25 52  1  0
 27 53  1  0
 27 54  1  0
 27 55  1  0
 28 56  1  0
 29 57  1  0
M  END
>  <UniqueID>  (12) 
12

>  <SMILES>  (12) 
COc1ccc(-n2c(-c3ccc(F)cc3)cc(CN3CCN(C)CC3)c2C)cc1

>  <Energy>  (12) 
106.65018099343018

>  <Genealogy>  (12) 
COc1ccc(-n2c(-c3ccc(F)cc3)cc(CN3CCN(C)CC3)c2C)cc1 (3D coordinates assigned)
COc1ccc(-n2c(-c3ccc(F)cc3)cc(CN3CCN(C)CC3)c2C)cc1 (nonaromatic ring conformer: 106.65018099343018 kcal/mol)

>  <smiles>  (12) 
COc1ccc(-n2c(-c3ccc(F)cc3)cc(CN3CCN(C)CC3)c2C)cc1

>  <score_type>  (12) 
oracle

>  <origin>  (12) 
adg

>  <m_score__min__energy>  (12) 
-8.4499999999999993

>  <m_primary>  (12) 
energy

$$$$
12:0
     RDKit          3D

 47 49  0  0  0  0  0  0  0  0999 V2000
   -5.6140   15.9670  -32.6960 C   0  0  0  0  0  0  0  0  0  0  0  0
   -6.5540   16.8020  -33.3640 O   0  0  0  0  0  0  0  0  0  0  0  0
   -6.7330   18.1700  -33.1030 C   0  0  0  0  0  0  0  0  0  0  0  0
   -7.9580   18.6890  -32.6510 C   0  0  0  0  0  0  0  0  0  0  0  0
   -8.1040   20.0600  -32.3990 C   0  0  0  0  0  0  0  0  0  0  0  0
   -9.3370   20.5670  -31.9620 C   0  0  0  0  0  0  0  0  0  0  0  0
   -9.4870   21.9320  -31.7140 C   0  0  0  0  0  0  0  0  0  0  0  0
   -8.4130   22.8010  -31.8940 C   0  0  0  0  0  0  0  0  0  0  0  0
   -7.1700   22.3200  -32.3320 C   0  0  0  0  0  0  0  0  0  0  0  0
   -6.0730   23.2330  -32.4600 N   0  0  0  0  0  0  0  0  0  0  0  0
   -5.1830   23.7820  -31.0780 S   0  0  0  0  0  0  0  0  0  0  0  0
   -5.9500   23.5240  -29.8130 O   0  0  0  0  0  0  0  0  0  0  0  0
   -4.9590   25.2620  -31.2110 O   0  0  0  0  0  0  0  0  0  0  0  0
   -3.6330   22.9270  -31.0010 C   0  0  0  0  0  0  0  0  0  0  0  0
   -3.2940   22.0430  -32.0390 C   0  0  0  0  0  0  0  0  0  0  0  0
   -2.0850   21.3330  -32.0140 C   0  0  0  0  0  0  0  0  0  0  0  0
   -1.7200   20.4230  -33.1490 C   0  0  0  0  0  0  0  0  0  0  0  0
   -1.1930   21.5320  -30.9550 C   0  0  0  0  0  0  0  0  0  0  0  0
   -1.5170   22.4060  -29.9170 C   0  0  0  0  0  0  0  0  0  0  0  0
   -2.7330   23.1100  -29.9230 C   0  0  0  0  0  0  0  0  0  0  0  0
   -3.0440   24.0380  -28.7790 C   0  0  0  0  0  0  0  0  0  0  0  0
   -7.0060   20.9360  -32.5890 C   0  0  0  0  0  0  0  0  0  0  0  0
   -5.7880   20.4100  -33.0560 C   0  0  0  0  0  0  0  0  0  0  0  0
   -5.6460   19.0330  -33.3100 C   0  0  0  0  0  0  0  0  0  0  0  0
   -4.4410   18.4790  -33.7710 O   0  0  0  0  0  0  0  0  0  0  0  0
   -4.2920   17.7710  -34.9980 C   0  0  0  0  0  0  0  0  0  0  0  0
   -5.7357   16.0751  -31.6081 H   0  0  0  0  0  0  0  0  0  0  0  0
   -5.7865   14.9189  -32.9819 H   0  0  0  0  0  0  0  0  0  0  0  0
   -4.5935   16.2619  -32.9819 H   0  0  0  0  0  0  0  0  0  0  0  0
   -8.8110   18.0125  -32.4933 H   0  0  0  0  0  0  0  0  0  0  0  0
  -10.1883   19.8862  -31.8144 H   0  0  0  0  0  0  0  0  0  0  0  0
  -10.4574   22.3236  -31.3749 H   0  0  0  0  0  0  0  0  0  0  0  0
   -8.5408   23.8745  -31.6908 H   0  0  0  0  0  0  0  0  0  0  0  0
   -5.9270   23.7390  -33.3630 H   0  0  0  0  0  0  0  0  0  0  0  0
   -3.9863   21.9060  -32.8827 H   0  0  0  0  0  0  0  0  0  0  0  0
   -1.3386   19.4721  -32.7485 H   0  0  0  0  0  0  0  0  0  0  0  0
   -2.6104   20.2304  -33.7655 H   0  0  0  0  0  0  0  0  0  0  0  0
   -0.9433   20.8991  -33.7655 H   0  0  0  0  0  0  0  0  0  0  0  0
   -0.2319   20.9971  -30.9406 H   0  0  0  0  0  0  0  0  0  0  0  0
   -0.8122   22.5456  -29.0841 H   0  0  0  0  0  0  0  0  0  0  0  0
   -2.8693   23.5168  -27.8262 H   0  0  0  0  0  0  0  0  0  0  0  0
   -2.3934   24.9230  -28.8375 H   0  0  0  0  0  0  0  0  0  0  0  0
   -4.0965   24.3522  -28.8375 H   0  0  0  0  0  0  0  0  0  0  0  0
   -4.9351   21.0838  -33.2249 H   0  0  0  0  0  0  0  0  0  0  0  0
   -4.0697   16.7146  -34.7871 H   0  0  0  0  0  0  0  0  0  0  0  0
   -5.2245   17.8409  -35.5772 H   0  0  0  0  0  0  0  0  0  0  0  0
   -3.4667   18.2108  -35.5772 H   0  0  0  0  0  0  0  0  0  0  0  0
  1  2  1  0
  2  3  1  0
  3  4  2  0
  4  5  1  0
  5  6  2  0
  6  7  1  0
  7  8  2  0
  8  9  1  0
  9 10  1  0
 10 11  1  0
 11 12  2  0
 11 13  2  0
 11 14  1  0
 14 15  2  0
 15 16  1  0
 16 17  1  0
 16 18  2  0
 18 19  1  0
 19 20  2  0
 20 21  1  0
  9 22  2  0
 22 23  1  0
 23 24  2  0
 24 25  1  0
 25 26  1  0
 24  3  1  0
 22  5  1  0
 20 14  1  0
  1 27  1  0
  1 28  1  0
  1 29  1  0
  4 30  1  0
  6 31  1  0
  7 32  1  0
  8 33  1  0
 10 34  1  0
 15 35  1  0
 17 36  1  0
 17 37  1  0
 17 38  1  0
 18 39  1  0
 19 40  1  0
 21 41  1  0
 21 42  1  0
 21 43  1  0
 23 44  1  0
 26 45  1  0
 26 46  1  0
 26 47  1  0
M  END
>  <UniqueID>  (13) 
13

>  <SMILES>  (13) 
COc1cc2cccc(NS(=O)(=O)c3cc(C)ccc3C)c2cc1OC

>  <Energy>  (13) 
60.06429186773537

>  <Genealogy>  (13) 
COc1cc2cccc(NS(=O)(=O)c3cc(C)ccc3C)c2cc1OC (3D coordinates assigned)
COc1cc2cccc(NS(=O)(=O)c3cc(C)ccc3C)c2cc1OC (optimized conformer: 60.06429186773537 kcal/mol)

>  <smiles>  (13) 
COc1cc2cccc(NS(=O)(=O)c3cc(C)ccc3C)c2cc1OC

>  <score_type>  (13) 
oracle

>  <origin>  (13) 
adg

>  <m_score__min__energy>  (13) 
-9.5299999999999994

>  <m_primary>  (13) 
energy

$$$$
13:0
     RDKit          3D

 44 46  0  0  0  0  0  0  0  0999 V2000
   -3.8430   24.1330  -27.5210 C   0  0  0  0  0  0  0  0  0  0  0  0
   -3.2950   24.4220  -28.9130 C   0  0  0  0  0  0  0  0  0  0  0  0
   -4.3270   24.1920  -29.9190 N   0  0  0  0  0  0  0  0  0  0  0  0
   -5.1360   23.1170  -29.9880 C   0  0  0  0  0  0  0  0  0  0  0  0
   -6.0060   23.3120  -31.0390 C   0  0  0  0  0  0  0  0  0  0  0  0
   -7.1300   22.4370  -31.4220 C   0  0  0  0  0  0  0  0  0  0  0  0
   -8.3860   22.9700  -31.4190 N   0  0  0  0  0  0  0  0  0  0  0  0
   -9.4700   22.2230  -31.7400 C   0  0  0  0  0  0  0  0  0  0  0  0
   -9.3270   20.9130  -32.0480 N   0  0  0  0  0  0  0  0  0  0  0  0
   -8.1070   20.3180  -32.0540 C   0  0  0  0  0  0  0  0  0  0  0  0
   -8.0400   18.5950  -32.4070 Cl  0  0  0  0  0  0  0  0  0  0  0  0
   -6.9510   21.0690  -31.7500 C   0  0  0  0  0  0  0  0  0  0  0  0
   -5.5960   20.3850  -31.6840 C   0  0  0  0  0  0  0  0  0  0  0  0
   -4.8340   20.5900  -32.9340 N   0  0  0  0  0  0  0  0  0  0  0  0
   -4.0240   21.8180  -32.8960 C   0  0  0  0  0  0  0  0  0  0  0  0
   -4.0340   19.4020  -33.3140 C   0  0  0  0  0  0  0  0  0  0  0  0
   -4.8690   18.1690  -33.5950 C   0  0  0  0  0  0  0  0  0  0  0  0
   -4.8050   17.0500  -32.7510 C   0  0  0  0  0  0  0  0  0  0  0  0
   -5.5710   15.9180  -33.0310 C   0  0  0  0  0  0  0  0  0  0  0  0
   -6.4020   15.9140  -34.1510 C   0  0  0  0  0  0  0  0  0  0  0  0
   -6.4640   17.0080  -34.9570 N   0  0  0  0  0  0  0  0  0  0  0  0
   -5.7260   18.1230  -34.7060 C   0  0  0  0  0  0  0  0  0  0  0  0
   -5.6930   24.5600  -31.5460 C   0  0  0  0  0  0  0  0  0  0  0  0
   -4.6640   25.0760  -30.8450 N   0  0  0  0  0  0  0  0  0  0  0  0
   -3.1368   24.5054  -26.7643 H   0  0  0  0  0  0  0  0  0  0  0  0
   -4.8129   24.6369  -27.3969 H   0  0  0  0  0  0  0  0  0  0  0  0
   -3.9750   23.0480  -27.3969 H   0  0  0  0  0  0  0  0  0  0  0  0
   -2.9658   25.4704  -28.9634 H   0  0  0  0  0  0  0  0  0  0  0  0
   -2.4456   23.7516  -29.1105 H   0  0  0  0  0  0  0  0  0  0  0  0
   -5.1073   22.2403  -29.3242 H   0  0  0  0  0  0  0  0  0  0  0  0
   -8.5270   23.9760  -31.1740 H   0  0  0  0  0  0  0  0  0  0  0  0
  -10.4692   22.6828  -31.7503 H   0  0  0  0  0  0  0  0  0  0  0  0
   -5.0238   20.8020  -30.8422 H   0  0  0  0  0  0  0  0  0  0  0  0
   -5.7563   19.3055  -31.5460 H   0  0  0  0  0  0  0  0  0  0  0  0
   -3.8369   22.1016  -31.8498 H   0  0  0  0  0  0  0  0  0  0  0  0
   -3.0651   21.6406  -33.4049 H   0  0  0  0  0  0  0  0  0  0  0  0
   -4.5645   22.6297  -33.4049 H   0  0  0  0  0  0  0  0  0  0  0  0
   -3.4591   19.6458  -34.2196 H   0  0  0  0  0  0  0  0  0  0  0  0
   -3.3868   19.1632  -32.4572 H   0  0  0  0  0  0  0  0  0  0  0  0
   -4.1500   17.0652  -31.8674 H   0  0  0  0  0  0  0  0  0  0  0  0
   -5.5200   15.0369  -32.3745 H   0  0  0  0  0  0  0  0  0  0  0  0
   -7.0077   15.0255  -34.3828 H   0  0  0  0  0  0  0  0  0  0  0  0
   -5.8011   18.9920  -35.3763 H   0  0  0  0  0  0  0  0  0  0  0  0
   -6.2025   25.0528  -32.3871 H   0  0  0  0  0  0  0  0  0  0  0  0
  1  2  1  0
  2  3  1  0
  3  4  1  0
  4  5  2  0
  5  6  1  0
  6  7  2  0
  7  8  1  0
  8  9  2  0
  9 10  1  0
 10 11  1  0
 10 12  2  0
 12 13  1  0
 13 14  1  0
 14 15  1  0
 14 16  1  0
 16 17  1  0
 17 18  2  0
 18 19  1  0
 19 20  2  0
 20 21  1  0
 21 22  2  0
  5 23  1  0
 23 24  2  0
 24  3  1  0
 12  6  1  0
 22 17  1  0
  1 25  1  0
  1 26  1  0
  1 27  1  0
  2 28  1  0
  2 29  1  0
  4 30  1  0
  7 31  1  0
  8 32  1  0
 13 33  1  0
 13 34  1  0
 15 35  1  0
 15 36  1  0
 15 37  1  0
 16 38  1  0
 16 39  1  0
 18 40  1  0
 19 41  1  0
 20 42  1  0
 22 43  1  0
 23 44  1  0
M  CHG  1   7   1
M  END
>  <UniqueID>  (14) 
14

>  <SMILES>  (14) 
CCn1cc(-c2[nH+]cnc(Cl)c2CN(C)Cc2cccnc2)cn1

>  <Energy>  (14) 
85.35564239538145

>  <Genealogy>  (14) 
CCn1cc(-c2[nH+]cnc(Cl)c2CN(C)Cc2cccnc2)cn1 (protonated)
CCn1cc(-c2[nH+]cnc(Cl)c2CN(C)Cc2cccnc2)cn1 (3D coordinates assigned)
CCn1cc(-c2[nH+]cnc(Cl)c2CN(C)Cc2cccnc2)cn1 (optimized conformer: 85.35564239538145 kcal/mol)

>  <smiles>  (14) 
CCn1cc(-c2ncnc(Cl)c2CN(C)Cc2cccnc2)cn1

>  <score_type>  (14) 
oracle

>  <origin>  (14) 
adg

>  <m_score__min__energy>  (14) 
-7.7400000000000002

>  <m_primary>  (14) 
energy

$$$$
14:0
     RDKit          3D

 52 56  0  0  0  0  0  0  0  0999 V2000
   -5.5424   26.4538  -30.5204 H   0  0  0  0  0  0  0  0  0  0  0  0
   -5.3510   25.3790  -30.6550 C   0  0  0  0  0  0  0  0  0  0  0  0
   -4.0970   24.8860  -30.4900 N   0  0  0  0  0  0  0  0  0  0  0  0
   -3.8330   23.5600  -30.6480 C   0  0  0  0  0  0  0  0  0  0  0  0
   -2.6360   23.0780  -30.4840 N   0  0  0  0  0  0  0  0  0  0  0  0
   -2.0070   21.9990  -31.1970 C   0  0  0  0  0  0  0  0  0  0  0  0
   -0.4590   21.3540  -30.9060 S   0  0  0  0  0  0  0  0  0  0  0  0
   -0.6010   20.2460  -32.1610 C   0  0  0  0  0  0  0  0  0  0  0  0
    0.3190   19.2930  -32.5890 C   0  0  0  0  0  0  0  0  0  0  0  0
    1.2935   19.1834  -32.0906 H   0  0  0  0  0  0  0  0  0  0  0  0
   -0.0330   18.4750  -33.6760 C   0  0  0  0  0  0  0  0  0  0  0  0
    0.6726   17.7126  -34.0379 H   0  0  0  0  0  0  0  0  0  0  0  0
   -1.2850   18.6260  -34.3050 C   0  0  0  0  0  0  0  0  0  0  0  0
   -1.5503   17.9810  -35.1556 H   0  0  0  0  0  0  0  0  0  0  0  0
   -2.1970   19.5950  -33.8530 C   0  0  0  0  0  0  0  0  0  0  0  0
   -3.1760   19.7139  -34.3403 H   0  0  0  0  0  0  0  0  0  0  0  0
   -1.8360   20.4050  -32.7720 C   0  0  0  0  0  0  0  0  0  0  0  0
   -2.6160   21.3790  -32.2380 N   0  0  0  0  0  0  0  0  0  0  0  0
   -3.5700   21.6250  -32.5840 H   0  0  0  0  0  0  0  0  0  0  0  0
   -4.8430   22.7140  -30.9800 N   0  0  0  0  0  0  0  0  0  0  0  0
   -6.1130   23.1630  -31.1770 C   0  0  0  0  0  0  0  0  0  0  0  0
   -7.1820   22.1990  -31.5090 C   0  0  0  0  0  0  0  0  0  0  0  0
   -8.4300   22.3620  -30.8830 C   0  0  0  0  0  0  0  0  0  0  0  0
   -8.5658   23.1627  -30.1411 H   0  0  0  0  0  0  0  0  0  0  0  0
   -9.4980   21.5200  -31.1920 C   0  0  0  0  0  0  0  0  0  0  0  0
  -10.4671   21.6548  -30.6893 H   0  0  0  0  0  0  0  0  0  0  0  0
   -9.3390   20.5090  -32.1360 C   0  0  0  0  0  0  0  0  0  0  0  0
  -10.1897   19.8620  -32.3961 H   0  0  0  0  0  0  0  0  0  0  0  0
   -8.1020   20.3150  -32.7530 C   0  0  0  0  0  0  0  0  0  0  0  0
   -7.9881   19.5206  -33.5053 H   0  0  0  0  0  0  0  0  0  0  0  0
   -6.9980   21.1250  -32.4230 C   0  0  0  0  0  0  0  0  0  0  0  0
   -5.6510   20.7920  -33.0360 C   0  0  0  0  0  0  0  0  0  0  0  0
   -5.1172   21.7267  -33.2626 H   0  0  0  0  0  0  0  0  0  0  0  0
   -5.8166   20.2122  -33.9560 H   0  0  0  0  0  0  0  0  0  0  0  0
   -4.8380   19.9840  -32.1090 N   0  0  0  0  0  0  0  0  0  0  0  0
   -4.6600   20.5670  -31.2570 H   0  0  0  0  0  0  0  0  0  0  0  0
   -5.5330   18.7660  -31.6600 C   0  0  0  0  0  0  0  0  0  0  0  0
   -6.6099   18.9761  -31.5810 H   0  0  0  0  0  0  0  0  0  0  0  0
   -5.1220   18.4712  -30.6832 H   0  0  0  0  0  0  0  0  0  0  0  0
   -5.3240   17.6300  -32.6270 C   0  0  0  0  0  0  0  0  0  0  0  0
   -5.1030   17.8860  -33.9910 C   0  0  0  0  0  0  0  0  0  0  0  0
   -5.1370   18.9191  -34.3672 H   0  0  0  0  0  0  0  0  0  0  0  0
   -4.8400   16.8320  -34.8720 C   0  0  0  0  0  0  0  0  0  0  0  0
   -4.6637   17.0379  -35.9381 H   0  0  0  0  0  0  0  0  0  0  0  0
   -4.8010   15.5170  -34.3990 C   0  0  0  0  0  0  0  0  0  0  0  0
   -4.5878   14.6894  -35.0916 H   0  0  0  0  0  0  0  0  0  0  0  0
   -5.0330   15.2540  -33.0460 C   0  0  0  0  0  0  0  0  0  0  0  0
   -5.0071   14.2185  -32.6757 H   0  0  0  0  0  0  0  0  0  0  0  0
   -5.2980   16.3050  -32.1620 C   0  0  0  0  0  0  0  0  0  0  0  0
   -5.4866   16.0931  -31.0992 H   0  0  0  0  0  0  0  0  0  0  0  0
   -6.3950   24.5220  -30.9950 C   0  0  0  0  0  0  0  0  0  0  0  0
   -7.4189   24.9048  -31.1178 H   0  0  0  0  0  0  0  0  0  0  0  0
  1  2  1  0
  2  3  1  0
  3  4  1  0
  4  5  2  0
  5  6  1  0
  6  7  1  0
  7  8  1  0
  8  9  2  0
  9 10  1  0
  9 11  1  0
 11 12  1  0
 11 13  2  0
 13 14  1  0
 13 15  1  0
 15 16  1  0
 15 17  2  0
 17 18  1  0
 18 19  1  0
  4 20  1  0
 20 21  2  0
 21 22  1  0
 22 23  2  0
 23 24  1  0
 23 25  1  0
 25 26  1  0
 25 27  2  0
 27 28  1  0
 27 29  1  0
 29 30  1  0
 29 31  2  0
 31 32  1  0
 32 33  1  0
 32 34  1  0
 32 35  1  0
 35 36  1  0
 35 37  1  0
 37 38  1  0
 37 39  1  0
 37 40  1  0
 40 41  2  0
 41 42  1  0
 41 43  1  0
 43 44  1  0
 43 45  2  0
 45 46  1  0
 45 47  1  0
 47 48  1  0
 47 49  2  0
 49 50  1  0
 21 51  1  0
 51 52  1  0
 51  2  2  0
 18  6  2  0
 31 22  1  0
 49 40  1  0
 17  8  1  0
M  CHG  2   3  -1  18   1
M  END
>  <UniqueID>  (15) 
15

>  <SMILES>  (15) 
c1ccc(CNCc2ccccc2-c2cc[n-]/c(=N\c3[nH+]c4ccccc4s3)n2)cc1

>  <Energy>  (15) 
102.2137287714006

>  <Genealogy>  (15) 
c1ccc(CNCc2ccccc2-c2cc[n-]c(=Nc3[nH+]c4ccccc4s3)n2)cc1 (protonated)
c1ccc(CNCc2ccccc2-c2cc[n-]/c(=N\c3[nH+]c4ccccc4s3)n2)cc1 (cis-trans isomerization)
c1ccc(CNCc2ccccc2-c2cc[n-]/c(=N\c3[nH+]c4ccccc4s3)n2)cc1 (3D coordinates assigned)
c1ccc(CNCc2ccccc2-c2cc[n-]/c(=N\c3[nH+]c4ccccc4s3)n2)cc1 (optimized conformer: 102.2137287714006 kcal/mol)

>  <smiles>  (15) 
c1ccc(CNCc2ccccc2-c2cc[nH]c(=Nc3nc4ccccc4s3)n2)cc1

>  <score_type>  (15) 
oracle

>  <origin>  (15) 
adg

>  <m_score__min__energy>  (15) 
-10.23

>  <m_primary>  (15) 
energy

$$$$
15:0
     RDKit          3D

 64 64  0  0  0  0  0  0  0  0999 V2000
  -10.2724   20.2555  -32.7056 H   0  0  0  0  0  0  0  0  0  0  0  0
   -9.3740   20.4140  -32.0910 C   0  0  0  0  0  0  0  0  0  0  0  0
   -8.7700   19.3560  -31.5290 C   0  0  0  0  0  0  0  0  0  0  0  0
   -8.5976   19.3504  -30.4426 H   0  0  0  0  0  0  0  0  0  0  0  0
   -8.3230   18.1770  -32.3500 C   0  0  0  0  0  0  0  0  0  0  0  0
   -8.7852   17.2636  -31.9474 H   0  0  0  0  0  0  0  0  0  0  0  0
   -8.6326   18.3414  -33.3926 H   0  0  0  0  0  0  0  0  0  0  0  0
   -6.0610   18.4780  -33.3120 C   0  0  0  0  0  0  0  0  0  0  0  0
   -6.0620   17.9358  -34.2691 H   0  0  0  0  0  0  0  0  0  0  0  0
   -6.8300   18.0260  -32.3160 C   0  0  0  0  0  0  0  0  0  0  0  0
   -6.3584   17.5329  -31.4532 H   0  0  0  0  0  0  0  0  0  0  0  0
   -6.9340   23.9880  -30.9210 C   0  0  0  0  0  0  0  0  0  0  0  0
   -7.8797   24.3482  -31.3523 H   0  0  0  0  0  0  0  0  0  0  0  0
   -6.1635   23.8496  -31.6937 H   0  0  0  0  0  0  0  0  0  0  0  0
   -6.4140   25.0390  -29.9260 C   0  0  0  0  0  0  0  0  0  0  0  0
   -7.2215   25.2772  -29.2180 H   0  0  0  0  0  0  0  0  0  0  0  0
   -6.1023   25.9144  -30.5147 H   0  0  0  0  0  0  0  0  0  0  0  0
   -5.1850   24.5730  -29.1240 C   0  0  0  0  0  0  0  0  0  0  0  0
   -5.3563   23.5421  -28.7807 H   0  0  0  0  0  0  0  0  0  0  0  0
   -5.0547   25.2614  -28.2760 H   0  0  0  0  0  0  0  0  0  0  0  0
   -3.9300   24.6070  -29.9400 C   0  0  0  0  0  0  0  0  0  0  0  0
   -3.9510   24.1910  -31.1320 O   0  0  0  0  0  0  0  0  0  0  0  0
   -2.7430   25.0790  -29.3650 O   0  0  0  0  0  0  0  0  0  0  0  0
   -2.1530   24.5220  -28.1910 C   0  0  0  0  0  0  0  0  0  0  0  0
   -2.9526   24.2259  -27.4960 H   0  0  0  0  0  0  0  0  0  0  0  0
   -1.5013   25.2844  -27.7394 H   0  0  0  0  0  0  0  0  0  0  0  0
   -1.2930   23.2870  -28.5180 C   0  0  0  0  0  0  0  0  0  0  0  0
   -1.3051   22.6141  -27.6479 H   0  0  0  0  0  0  0  0  0  0  0  0
   -0.2811   23.6501  -28.7509 H   0  0  0  0  0  0  0  0  0  0  0  0
   -1.7710   22.5270  -29.7090 N   0  0  0  0  0  0  0  0  0  0  0  0
   -2.2020   23.2270  -30.3600 H   0  0  0  0  0  0  0  0  0  0  0  0
   -2.8820   21.5800  -29.4050 C   0  0  0  0  0  0  0  0  0  0  0  0
   -2.7405   20.6817  -30.0239 H   0  0  0  0  0  0  0  0  0  0  0  0
   -3.8121   22.1258  -29.6219 H   0  0  0  0  0  0  0  0  0  0  0  0
   -2.9870   21.1340  -27.9420 C   0  0  0  0  0  0  0  0  0  0  0  0
   -2.7853   21.9907  -27.2821 H   0  0  0  0  0  0  0  0  0  0  0  0
   -3.9998   20.7515  -27.7471 H   0  0  0  0  0  0  0  0  0  0  0  0
   -2.2513   20.3398  -27.7471 H   0  0  0  0  0  0  0  0  0  0  0  0
   -0.6810   21.9090  -30.5200 C   0  0  0  0  0  0  0  0  0  0  0  0
   -0.6345   22.4385  -31.4831 H   0  0  0  0  0  0  0  0  0  0  0  0
    0.2329   22.0027  -29.9150 H   0  0  0  0  0  0  0  0  0  0  0  0
   -0.8380   20.4040  -30.8140 C   0  0  0  0  0  0  0  0  0  0  0  0
   -0.8959   19.8493  -29.8659 H   0  0  0  0  0  0  0  0  0  0  0  0
   -1.7584   20.2376  -31.3930 H   0  0  0  0  0  0  0  0  0  0  0  0
    0.0282   20.0512  -31.3930 H   0  0  0  0  0  0  0  0  0  0  0  0
   -8.8530   21.8090  -31.9010 C   0  0  0  0  0  0  0  0  0  0  0  0
   -9.6709   22.5269  -32.0615 H   0  0  0  0  0  0  0  0  0  0  0  0
   -8.0447   21.9908  -32.6246 H   0  0  0  0  0  0  0  0  0  0  0  0
   -7.1770   22.6520  -30.2740 C   0  0  0  0  0  0  0  0  0  0  0  0
   -6.4181   22.2249  -29.6020 H   0  0  0  0  0  0  0  0  0  0  0  0
   -8.3110   21.9780  -30.5100 C   0  0  0  0  0  0  0  0  0  0  0  0
   -8.8588   21.5374  -29.6640 H   0  0  0  0  0  0  0  0  0  0  0  0
   -5.2100   19.6780  -33.1760 C   0  0  0  0  0  0  0  0  0  0  0  0
   -5.6870   20.8500  -32.8000 C   0  0  0  0  0  0  0  0  0  0  0  0
   -6.7453   21.0300  -32.5599 H   0  0  0  0  0  0  0  0  0  0  0  0
   -4.6390   21.8970  -32.7370 C   0  0  0  0  0  0  0  0  0  0  0  0
   -4.8673   22.7179  -33.4327 H   0  0  0  0  0  0  0  0  0  0  0  0
   -4.5607   22.3506  -31.7380 H   0  0  0  0  0  0  0  0  0  0  0  0
   -3.3530   21.1780  -33.1520 C   0  0  0  0  0  0  0  0  0  0  0  0
   -2.9310   21.6434  -34.0549 H   0  0  0  0  0  0  0  0  0  0  0  0
   -2.5893   21.2376  -32.3626 H   0  0  0  0  0  0  0  0  0  0  0  0
   -3.7450   19.7260  -33.4380 C   0  0  0  0  0  0  0  0  0  0  0  0
   -3.5281   19.4633  -34.4839 H   0  0  0  0  0  0  0  0  0  0  0  0
   -3.1850   19.0111  -32.8173 H   0  0  0  0  0  0  0  0  0  0  0  0
  1  2  1  0
  2  3  2  3
  3  4  1  0
  3  5  1  0
  5  6  1  0
  5  7  1  0
  5  8  1  0
  8  9  1  0
  8 10  2  0
 10 11  1  0
 10 12  1  0
 12 13  1  0
 12 14  1  0
 12 15  1  0
 15 16  1  0
 15 17  1  0
 15 18  1  0
 18 19  1  0
 18 20  1  0
 18 21  1  0
 21 22  2  0
 21 23  1  0
 23 24  1  0
 24 25  1  0
 24 26  1  0
 24 27  1  0
 27 28  1  0
 27 29  1  0
 27 30  1  0
 30 31  1  0
 30 32  1  0
 32 33  1  0
 32 34  1  0
 32 35  1  0
 35 36  1  0
 35 37  1  0
 35 38  1  0
 30 39  1  0
 39 40  1  0
 39 41  1  0
 39 42  1  0
 42 43  1  0
 42 44  1  0
 42 45  1  0
  2 46  1  0
 46 47  1  0
 46 48  1  0
 46 49  1  0
 49 50  1  0
 49 51  2  0
 51 52  1  0
 51 53  1  0
 53 54  2  0
 54 55  1  0
 54 56  1  0
 56 57  1  0
 56 58  1  0
 56 59  1  0
 59 60  1  0
 59 61  1  0
 59 62  1  0
 62 63  1  0
 62 64  1  0
 62 53  1  0
M  CHG  1  30   1
M  END
>  <UniqueID>  (16) 
16

>  <SMILES>  (16) 
CC[NH+](CC)CCOC(=O)CCC/C=C/CC=CC/C=C/C1=CCCC1

>  <Energy>  (16) 
57.52163297255143

>  <Genealogy>  (16) 
CC[NH+](CC)CCOC(=O)CCCC=CCC=CCC=CC1=CCCC1 (protonated)
CC[NH+](CC)CCOC(=O)CCC/C=C/CC=CC/C=C/C1=CCCC1 (cis-trans isomerization)
CC[NH+](CC)CCOC(=O)CCC/C=C/CC=CC/C=C/C1=CCCC1 (3D coordinates assigned)
CC[NH+](CC)CCOC(=O)CCC/C=C/CC=CC/C=C/C1=CCCC1 (nonaromatic ring conformer: 57.52163297255143 kcal/mol)

>  <smiles>  (16) 
CCN(CC)CCOC(=O)CCCC=CCC=CCC=CC1=CCCC1

>  <score_type>  (16) 
oracle

>  <origin>  (16) 
adg

>  <m_score__min__energy>  (16) 
-6.6799999999999997

>  <m_primary>  (16) 
energy

$$$$
16:0
     RDKit          3D

 60 64  0  0  0  0  0  0  0  0999 V2000
   -9.2580   18.2060  -31.9600 C   0  0  0  0  0  0  0  0  0  0  0  0
   -8.1740   19.1660  -32.1700 N   0  0  0  0  0  0  0  0  0  0  0  0
   -6.8950   18.8960  -32.5450 C   0  0  0  0  0  0  0  0  0  0  0  0
   -6.3840   17.5410  -32.8290 C   0  0  0  0  0  0  0  0  0  0  0  0
   -5.4170   16.9580  -31.9950 C   0  0  0  0  0  0  0  0  0  0  0  0
   -4.9200   15.6830  -32.2810 C   0  0  0  0  0  0  0  0  0  0  0  0
   -5.3850   14.9830  -33.3980 C   0  0  0  0  0  0  0  0  0  0  0  0
   -4.9020   13.7470  -33.6740 F   0  0  0  0  0  0  0  0  0  0  0  0
   -6.3500   15.5590  -34.2310 C   0  0  0  0  0  0  0  0  0  0  0  0
   -6.8490   16.8340  -33.9480 C   0  0  0  0  0  0  0  0  0  0  0  0
   -6.1650   20.0830  -32.6850 C   0  0  0  0  0  0  0  0  0  0  0  0
   -4.7410   20.2350  -33.1590 C   0  0  0  0  0  0  0  0  0  0  0  0
   -3.6700   20.0600  -32.0490 C   0  0  0  0  0  0  0  0  0  0  0  0
   -3.4380   21.2240  -31.1500 N   0  0  0  0  0  0  0  0  0  0  0  0
   -2.0720   21.2340  -30.5540 C   0  0  0  0  0  0  0  0  0  0  0  0
   -1.5890   22.6420  -30.1540 C   0  0  0  0  0  0  0  0  0  0  0  0
   -2.7270   23.4800  -29.7580 N   0  0  0  0  0  0  0  0  0  0  0  0
   -2.7410   24.1640  -28.4900 C   0  0  0  0  0  0  0  0  0  0  0  0
   -3.8990   24.1640  -27.6920 C   0  0  0  0  0  0  0  0  0  0  0  0
   -3.9070   24.8170  -26.4550 C   0  0  0  0  0  0  0  0  0  0  0  0
   -2.7580   25.4710  -26.0010 C   0  0  0  0  0  0  0  0  0  0  0  0
   -1.6000   25.4700  -26.7820 C   0  0  0  0  0  0  0  0  0  0  0  0
   -1.5880   24.8180  -28.0200 C   0  0  0  0  0  0  0  0  0  0  0  0
   -3.8600   23.6170  -30.6820 C   0  0  0  0  0  0  0  0  0  0  0  0
   -3.8210   22.5190  -31.7560 C   0  0  0  0  0  0  0  0  0  0  0  0
   -7.0530   21.0990  -32.3670 C   0  0  0  0  0  0  0  0  0  0  0  0
   -6.8850   22.4850  -32.3130 C   0  0  0  0  0  0  0  0  0  0  0  0
   -7.9990   23.2740  -31.9800 C   0  0  0  0  0  0  0  0  0  0  0  0
   -9.2440   22.6730  -31.7040 C   0  0  0  0  0  0  0  0  0  0  0  0
   -9.3850   21.2760  -31.7500 C   0  0  0  0  0  0  0  0  0  0  0  0
   -8.2610   20.5100  -32.0780 C   0  0  0  0  0  0  0  0  0  0  0  0
   -9.4182   18.0641  -30.8810 H   0  0  0  0  0  0  0  0  0  0  0  0
  -10.1808   18.5885  -32.4205 H   0  0  0  0  0  0  0  0  0  0  0  0
   -8.9899   17.2437  -32.4205 H   0  0  0  0  0  0  0  0  0  0  0  0
   -5.0495   17.5055  -31.1146 H   0  0  0  0  0  0  0  0  0  0  0  0
   -4.1616   15.2298  -31.6258 H   0  0  0  0  0  0  0  0  0  0  0  0
   -6.7166   15.0081  -35.1097 H   0  0  0  0  0  0  0  0  0  0  0  0
   -7.6083   17.2840  -34.6045 H   0  0  0  0  0  0  0  0  0  0  0  0
   -4.5556   19.4799  -33.9371 H   0  0  0  0  0  0  0  0  0  0  0  0
   -4.6429   21.2666  -33.5280 H   0  0  0  0  0  0  0  0  0  0  0  0
   -3.9773   19.2107  -31.4211 H   0  0  0  0  0  0  0  0  0  0  0  0
   -2.7204   19.9171  -32.5855 H   0  0  0  0  0  0  0  0  0  0  0  0
   -4.0980   21.0770  -30.3460 H   0  0  0  0  0  0  0  0  0  0  0  0
   -2.0789   20.5994  -29.6555 H   0  0  0  0  0  0  0  0  0  0  0  0
   -1.3797   20.8593  -31.3223 H   0  0  0  0  0  0  0  0  0  0  0  0
   -0.8890   22.5587  -29.3096 H   0  0  0  0  0  0  0  0  0  0  0  0
   -1.0876   23.1056  -31.0164 H   0  0  0  0  0  0  0  0  0  0  0  0
   -4.8044   23.6471  -28.0429 H   0  0  0  0  0  0  0  0  0  0  0  0
   -4.8183   24.8159  -25.8389 H   0  0  0  0  0  0  0  0  0  0  0  0
   -2.7658   25.9862  -25.0291 H   0  0  0  0  0  0  0  0  0  0  0  0
   -0.6955   25.9829  -26.4231 H   0  0  0  0  0  0  0  0  0  0  0  0
   -0.6719   24.8169  -28.6289 H   0  0  0  0  0  0  0  0  0  0  0  0
   -4.7996   23.5351  -30.1159 H   0  0  0  0  0  0  0  0  0  0  0  0
   -3.7965   24.5976  -31.1764 H   0  0  0  0  0  0  0  0  0  0  0  0
   -4.8159   22.4249  -32.2156 H   0  0  0  0  0  0  0  0  0  0  0  0
   -3.0782   22.7910  -32.5204 H   0  0  0  0  0  0  0  0  0  0  0  0
   -5.9087   22.9453  -32.5251 H   0  0  0  0  0  0  0  0  0  0  0  0
   -7.8989   24.3685  -31.9343 H   0  0  0  0  0  0  0  0  0  0  0  0
  -10.1104   23.3018  -31.4511 H   0  0  0  0  0  0  0  0  0  0  0  0
  -10.3518   20.7978  -31.5342 H   0  0  0  0  0  0  0  0  0  0  0  0
  1  2  1  0
  2  3  1  0
  3  4  1  0
  4  5  2  0
  5  6  1  0
  6  7  2  0
  7  8  1  0
  7  9  1  0
  9 10  2  0
  3 11  2  0
 11 12  1  0
 12 13  1  0
 13 14  1  0
 14 15  1  0
 15 16  1  0
 16 17  1  0
 17 18  1  0
 18 19  2  0
 19 20  1  0
 20 21  2  0
 21 22  1  0
 22 23  2  0
 17 24  1  0
 24 25  1  0
 11 26  1  0
 26 27  2  0
 27 28  1  0
 28 29  2  0
 29 30  1  0
 30 31  2  0
 31  2  1  0
 10  4  1  0
 25 14  1  0
 31 26  1  0
 23 18  1  0
  1 32  1  0
  1 33  1  0
  1 34  1  0
  5 35  1  0
  6 36  1  0
  9 37  1  0
 10 38  1  0
 12 39  1  0
 12 40  1  0
 13 41  1  0
 13 42  1  0
 14 43  1  0
 15 44  1  0
 15 45  1  0
 16 46  1  0
 16 47  1  0
 19 48  1  0
 20 49  1  0
 21 50  1  0
 22 51  1  0
 23 52  1  0
 24 53  1  0
 24 54  1  0
 25 55  1  0
 25 56  1  0
 27 57  1  0
 28 58  1  0
 29 59  1  0
 30 60  1  0
M  CHG  1  14   1
M  END
>  <UniqueID>  (17) 
17

>  <SMILES>  (17) 
Cn1c(-c2ccc(F)cc2)c(CC[NH+]2CCN(c3ccccc3)CC2)c2ccccc21

>  <Energy>  (17) 
117.84460928216744

>  <Genealogy>  (17) 
Cn1c(-c2ccc(F)cc2)c(CC[NH+]2CCN(c3ccccc3)CC2)c2ccccc21 (protonated)
Cn1c(-c2ccc(F)cc2)c(CC[NH+]2CCN(c3ccccc3)CC2)c2ccccc21 (3D coordinates assigned)
Cn1c(-c2ccc(F)cc2)c(CC[NH+]2CCN(c3ccccc3)CC2)c2ccccc21 (nonaromatic ring conformer: 117.84460928216744 kcal/mol)

>  <smiles>  (17) 
Cn1c(-c2ccc(F)cc2)c(CCN2CCN(c3ccccc3)CC2)c2ccccc21

>  <score_type>  (17) 
oracle

>  <origin>  (17) 
adg

>  <m_score__min__energy>  (17) 
-8.9399999999999995

>  <m_primary>  (17) 
energy

$$$$
17:0
     RDKit          3D

 50 52  0  0  0  0  0  0  0  0999 V2000
   -3.1910   25.6040  -31.5930 H   0  0  0  0  0  0  0  0  0  0  0  0
   -3.9900   25.6400  -30.9710 O   0  0  0  0  0  0  0  0  0  0  0  0
   -4.9300   24.6110  -30.9080 C   0  0  0  0  0  0  0  0  0  0  0  0
   -6.2860   24.9420  -30.8290 C   0  0  0  0  0  0  0  0  0  0  0  0
   -6.5910   25.9988  -30.8188 H   0  0  0  0  0  0  0  0  0  0  0  0
   -7.2550   23.9400  -30.7630 C   0  0  0  0  0  0  0  0  0  0  0  0
   -8.3205   24.2096  -30.7187 H   0  0  0  0  0  0  0  0  0  0  0  0
   -6.8740   22.5890  -30.7530 C   0  0  0  0  0  0  0  0  0  0  0  0
   -7.8880   21.5160  -30.7360 C   0  0  0  0  0  0  0  0  0  0  0  0
   -8.7200   21.6189  -30.0238 H   0  0  0  0  0  0  0  0  0  0  0  0
   -7.8780   20.4200  -31.5220 C   0  0  0  0  0  0  0  0  0  0  0  0
   -7.0050   20.2480  -32.7090 C   0  0  0  0  0  0  0  0  0  0  0  0
   -6.4350   21.2310  -33.2560 O   0  0  0  0  0  0  0  0  0  0  0  0
   -6.8800   18.8940  -33.2890 C   0  0  0  0  0  0  0  0  0  0  0  0
   -5.8900   18.6120  -34.1600 C   0  0  0  0  0  0  0  0  0  0  0  0
   -5.9894   18.9774  -35.1928 H   0  0  0  0  0  0  0  0  0  0  0  0
   -4.6810   17.8420  -33.8090 C   0  0  0  0  0  0  0  0  0  0  0  0
   -4.7870   16.4810  -33.4830 C   0  0  0  0  0  0  0  0  0  0  0  0
   -5.7772   16.0024  -33.4640 H   0  0  0  0  0  0  0  0  0  0  0  0
   -3.6490   15.7260  -33.1820 C   0  0  0  0  0  0  0  0  0  0  0  0
   -3.8150   14.3740  -32.8510 O   0  0  0  0  0  0  0  0  0  0  0  0
   -4.5820   13.9040  -31.7480 C   0  0  0  0  0  0  0  0  0  0  0  0
   -4.0943   14.2028  -30.8084 H   0  0  0  0  0  0  0  0  0  0  0  0
   -5.5915   14.3388  -31.7916 H   0  0  0  0  0  0  0  0  0  0  0  0
   -4.6530   12.8072  -31.7916 H   0  0  0  0  0  0  0  0  0  0  0  0
   -2.3870   16.3430  -33.2240 C   0  0  0  0  0  0  0  0  0  0  0  0
   -1.4854   15.7608  -32.9831 H   0  0  0  0  0  0  0  0  0  0  0  0
   -2.2710   17.6920  -33.5700 C   0  0  0  0  0  0  0  0  0  0  0  0
   -1.2776   18.1630  -33.6065 H   0  0  0  0  0  0  0  0  0  0  0  0
   -3.4160   18.4520  -33.8720 C   0  0  0  0  0  0  0  0  0  0  0  0
   -3.3350   19.8090  -34.2290 O   0  0  0  0  0  0  0  0  0  0  0  0
   -3.3520   20.8900  -33.3030 C   0  0  0  0  0  0  0  0  0  0  0  0
   -3.3458   20.4939  -32.2768 H   0  0  0  0  0  0  0  0  0  0  0  0
   -2.4636   21.5198  -33.4583 H   0  0  0  0  0  0  0  0  0  0  0  0
   -4.2597   21.4916  -33.4583 H   0  0  0  0  0  0  0  0  0  0  0  0
   -7.8040   17.8320  -32.7310 C   0  0  0  0  0  0  0  0  0  0  0  0
   -8.0357   17.1035  -33.5220 H   0  0  0  0  0  0  0  0  0  0  0  0
   -7.3018   17.3346  -31.8881 H   0  0  0  0  0  0  0  0  0  0  0  0
   -9.0110   18.4110  -32.2640 O   0  0  0  0  0  0  0  0  0  0  0  0
   -8.7590   19.2490  -31.1500 C   0  0  0  0  0  0  0  0  0  0  0  0
   -9.7168   19.6306  -30.7665 H   0  0  0  0  0  0  0  0  0  0  0  0
   -8.2374   18.6558  -30.3844 H   0  0  0  0  0  0  0  0  0  0  0  0
   -5.5170   22.2540  -30.8630 C   0  0  0  0  0  0  0  0  0  0  0  0
   -5.2174   21.1961  -30.8973 H   0  0  0  0  0  0  0  0  0  0  0  0
   -4.5340   23.2610  -30.9300 C   0  0  0  0  0  0  0  0  0  0  0  0
   -3.1650   22.9580  -31.0220 O   0  0  0  0  0  0  0  0  0  0  0  0
   -2.5500   21.8160  -30.4370 C   0  0  0  0  0  0  0  0  0  0  0  0
   -2.5937   21.8971  -29.3409 H   0  0  0  0  0  0  0  0  0  0  0  0
   -3.0812   20.9082  -30.7589 H   0  0  0  0  0  0  0  0  0  0  0  0
   -1.4997   21.7599  -30.7589 H   0  0  0  0  0  0  0  0  0  0  0  0
  1  2  1  0
  2  3  1  0
  3  4  2  0
  4  5  1  0
  4  6  1  0
  6  7  1  0
  6  8  2  0
  8  9  1  0
  9 10  1  0
  9 11  2  0
 11 12  1  0
 12 13  2  0
 12 14  1  0
 14 15  2  3
 15 16  1  0
 15 17  1  0
 17 18  2  0
 18 19  1  0
 18 20  1  0
 20 21  1  0
 21 22  1  0
 22 23  1  0
 22 24  1  0
 22 25  1  0
 20 26  2  0
 26 27  1  0
 26 28  1  0
 28 29  1  0
 28 30  2  0
 30 31  1  0
 31 32  1  0
 32 33  1  0
 32 34  1  0
 32 35  1  0
 14 36  1  0
 36 37  1  0
 36 38  1  0
 36 39  1  0
 39 40  1  0
 40 41  1  0
 40 42  1  0
  8 43  1  0
 43 44  1  0
 43 45  2  0
 45 46  1  0
 46 47  1  0
 47 48  1  0
 47 49  1  0
 47 50  1  0
 45  3  1  0
 40 11  1  0
 30 17  1  0
M  END
>  <UniqueID>  (18) 
18

>  <SMILES>  (18) 
COc1ccc(OC)c(C=C2COC/C(=C/c3ccc(O)c(OC)c3)C2=O)c1

>  <Energy>  (18) 
72.76563595999032

>  <Genealogy>  (18) 
COc1ccc(OC)c(C=C2COC/C(=C/c3ccc(O)c(OC)c3)C2=O)c1 (cis-trans isomerization)
COc1ccc(OC)c(C=C2COC/C(=C/c3ccc(O)c(OC)c3)C2=O)c1 (3D coordinates assigned)
COc1ccc(OC)c(C=C2COC/C(=C/c3ccc(O)c(OC)c3)C2=O)c1 (nonaromatic ring conformer: 72.76563595999032 kcal/mol)

>  <smiles>  (18) 
COc1ccc(OC)c(C=C2COCC(=Cc3ccc(O)c(OC)c3)C2=O)c1

>  <score_type>  (18) 
oracle

>  <origin>  (18) 
adg

>  <m_score__min__energy>  (18) 
-9.1999999999999993

>  <m_primary>  (18) 
energy

$$$$
18:0
     RDKit          3D

 33 34  0  0  0  0  0  0  0  0999 V2000
   -6.6460   19.7820  -32.5700 C   0  0  0  0  0  0  0  0  0  0  0  0
   -6.7400   21.3060  -32.7050 C   0  0  0  0  0  0  0  0  0  0  0  0
   -7.0400   21.9900  -31.4200 N   0  0  0  0  0  0  0  0  0  0  0  0
   -8.3460   21.5880  -30.8210 C   0  0  0  0  0  0  0  0  0  0  0  0
   -9.5250   21.5460  -31.8050 C   0  0  0  0  0  0  0  0  0  0  0  0
   -6.9130   23.4580  -31.6010 C   0  0  0  0  0  0  0  0  0  0  0  0
   -5.6000   23.9870  -31.0950 C   0  0  0  0  0  0  0  0  0  0  0  0
   -5.2450   25.3120  -30.9850 C   0  0  0  0  0  0  0  0  0  0  0  0
   -4.0400   25.3540  -30.4750 O   0  0  0  0  0  0  0  0  0  0  0  0
   -3.6620   24.1110  -30.2710 C   0  0  0  0  0  0  0  0  0  0  0  0
   -2.3620   23.7420  -29.7030 C   0  0  0  0  0  0  0  0  0  0  0  0
   -1.7860   22.4780  -29.7290 C   0  0  0  0  0  0  0  0  0  0  0  0
   -0.5350   22.4320  -29.1020 C   0  0  0  0  0  0  0  0  0  0  0  0
   -0.1250   23.6540  -28.5840 C   0  0  0  0  0  0  0  0  0  0  0  0
   -1.3210   24.7930  -28.9050 S   0  0  0  0  0  0  0  0  0  0  0  0
   -4.6000   23.2100  -30.6380 N   0  0  0  0  0  0  0  0  0  0  0  0
   -6.6291   19.5086  -31.5046 H   0  0  0  0  0  0  0  0  0  0  0  0
   -7.5171   19.3166  -33.0542 H   0  0  0  0  0  0  0  0  0  0  0  0
   -5.7243   19.4272  -33.0542 H   0  0  0  0  0  0  0  0  0  0  0  0
   -5.7795   21.6832  -33.0859 H   0  0  0  0  0  0  0  0  0  0  0  0
   -7.5708   21.5227  -33.3926 H   0  0  0  0  0  0  0  0  0  0  0  0
   -6.2940   21.7020  -30.7420 H   0  0  0  0  0  0  0  0  0  0  0  0
   -8.2279   20.5843  -30.3867 H   0  0  0  0  0  0  0  0  0  0  0  0
   -8.5936   22.3591  -30.0766 H   0  0  0  0  0  0  0  0  0  0  0  0
  -10.4703   21.5123  -31.2434 H   0  0  0  0  0  0  0  0  0  0  0  0
   -9.5064   22.4454  -32.4381 H   0  0  0  0  0  0  0  0  0  0  0  0
   -9.4425   20.6502  -32.4381 H   0  0  0  0  0  0  0  0  0  0  0  0
   -6.9978   23.6903  -32.6728 H   0  0  0  0  0  0  0  0  0  0  0  0
   -7.7141   23.9379  -31.0196 H   0  0  0  0  0  0  0  0  0  0  0  0
   -5.8606   26.1770  -31.2727 H   0  0  0  0  0  0  0  0  0  0  0  0
   -2.2637   21.6032  -30.1944 H   0  0  0  0  0  0  0  0  0  0  0  0
    0.0668   21.5143  -29.0266 H   0  0  0  0  0  0  0  0  0  0  0  0
    0.8201   23.8444  -28.0544 H   0  0  0  0  0  0  0  0  0  0  0  0
  1  2  1  0
  2  3  1  0
  3  4  1  0
  4  5  1  0
  3  6  1  0
  6  7  1  0
  7  8  2  0
  8  9  1  0
  9 10  1  0
 10 11  1  0
 11 12  2  0
 12 13  1  0
 13 14  2  0
 14 15  1  0
 10 16  2  0
 16  7  1  0
 15 11  1  0
  1 17  1  0
  1 18  1  0
  1 19  1  0
  2 20  1  0
  2 21  1  0
  3 22  1  0
  4 23  1  0
  4 24  1  0
  5 25  1  0
  5 26  1  0
  5 27  1  0
  6 28  1  0
  6 29  1  0
  8 30  1  0
 12 31  1  0
 13 32  1  0
 14 33  1  0
M  CHG  1   3   1
M  END
>  <UniqueID>  (19) 
19

>  <SMILES>  (19) 
CC[NH+](CC)Cc1coc(-c2cccs2)n1

>  <Energy>  (19) 
89.291693376319

>  <Genealogy>  (19) 
CC[NH+](CC)Cc1coc(-c2cccs2)n1 (protonated)
CC[NH+](CC)Cc1coc(-c2cccs2)n1 (3D coordinates assigned)
CC[NH+](CC)Cc1coc(-c2cccs2)n1 (optimized conformer: 89.291693376319 kcal/mol)

>  <smiles>  (19) 
CCN(CC)Cc1coc(-c2cccs2)n1

>  <score_type>  (19) 
oracle

>  <origin>  (19) 
adg

>  <m_score__min__energy>  (19) 
-5.1299999999999999

>  <m_primary>  (19) 
energy

$$$$
19:0
     RDKit          3D

 32 34  0  0  0  0  0  0  0  0999 V2000
   -5.1330   19.3310  -33.9280 O   0  0  0  0  0  0  0  0  0  0  0  0
   -5.7350   20.1260  -33.1570 C   0  0  0  0  0  0  0  0  0  0  0  0
   -4.9720   21.2440  -32.5000 C   0  0  0  0  0  0  0  0  0  0  0  0
   -5.9060   22.3610  -31.9930 C   0  0  2  0  0  0  0  0  0  0  0  0
   -5.1690   23.2980  -31.1410 N   0  0  0  0  0  0  0  0  0  0  0  0
   -4.5840   23.0420  -29.9550 C   0  0  0  0  0  0  0  0  0  0  0  0
   -4.0280   24.2310  -29.5420 C   0  0  0  0  0  0  0  0  0  0  0  0
   -3.3250   24.4860  -28.2510 C   0  0  0  0  0  0  0  0  0  0  0  0
   -1.4600   24.8780  -28.5900 Br  0  0  0  0  0  0  0  0  0  0  0  0
   -4.2980   25.1750  -30.4650 N   0  0  0  0  0  0  0  0  0  0  0  0
   -4.9870   24.5770  -31.4280 N   0  0  0  0  0  0  0  0  0  0  0  0
   -7.1160   21.7810  -31.2360 C   0  0  0  0  0  0  0  0  0  0  0  0
   -7.9420   20.9090  -32.1930 C   0  0  2  0  0  0  0  0  0  0  0  0
   -9.0600   20.1320  -31.4980 C   0  0  0  0  0  0  0  0  0  0  0  0
   -9.1140   18.7850  -32.2200 C   0  0  0  0  0  0  0  0  0  0  0  0
   -7.7320   18.5860  -32.8340 C   0  0  0  0  0  0  0  0  0  0  0  0
   -7.1100   19.8960  -32.8160 N   0  0  0  0  0  0  0  0  0  0  0  0
   -4.4097   20.8367  -31.6468 H   0  0  0  0  0  0  0  0  0  0  0  0
   -4.2962   21.6807  -33.2500 H   0  0  0  0  0  0  0  0  0  0  0  0
   -6.2871   22.9049  -32.8699 H   0  0  0  0  0  0  0  0  0  0  0  0
   -4.5564   22.0787  -29.4247 H   0  0  0  0  0  0  0  0  0  0  0  0
   -3.7923   25.3426  -27.7432 H   0  0  0  0  0  0  0  0  0  0  0  0
   -3.3994   23.5929  -27.6131 H   0  0  0  0  0  0  0  0  0  0  0  0
   -6.7632   21.1689  -30.3929 H   0  0  0  0  0  0  0  0  0  0  0  0
   -7.7401   22.6022  -30.8538 H   0  0  0  0  0  0  0  0  0  0  0  0
   -8.3656   21.6212  -32.9165 H   0  0  0  0  0  0  0  0  0  0  0  0
   -8.8276   19.9903  -30.4322 H   0  0  0  0  0  0  0  0  0  0  0  0
  -10.0220   20.6635  -31.5426 H   0  0  0  0  0  0  0  0  0  0  0  0
   -9.3363   17.9772  -31.5073 H   0  0  0  0  0  0  0  0  0  0  0  0
   -9.9033   18.7680  -32.9860 H   0  0  0  0  0  0  0  0  0  0  0  0
   -7.1447   17.8729  -32.2369 H   0  0  0  0  0  0  0  0  0  0  0  0
   -7.7924   18.1759  -33.8529 H   0  0  0  0  0  0  0  0  0  0  0  0
  1  2  2  0
  2  3  1  0
  3  4  1  0
  4  5  1  0
  5  6  1  0
  6  7  2  0
  7  8  1  0
  8  9  1  0
  7 10  1  0
 10 11  2  0
  4 12  1  0
 12 13  1  0
 13 14  1  0
 14 15  1  0
 15 16  1  0
 16 17  1  0
 17  2  1  0
 11  5  1  0
 17 13  1  0
  3 18  1  0
  3 19  1  0
  4 20  1  6
  6 21  1  0
  8 22  1  0
  8 23  1  0
 12 24  1  0
 12 25  1  0
 13 26  1  6
 14 27  1  0
 14 28  1  0
 15 29  1  0
 15 30  1  0
 16 31  1  0
 16 32  1  0
M  END
>  <UniqueID>  (20) 
20

>  <SMILES>  (20) 
O=C1C[C@H](n2cc(CBr)nn2)C[C@@H]2CCCN12

>  <Energy>  (20) 
65.06045358532525

>  <Genealogy>  (20) 
O=C1C[C@H](n2cc(CBr)nn2)C[C@@H]2CCCN12 (chirality)
O=C1C[C@H](n2cc(CBr)nn2)C[C@@H]2CCCN12 (3D coordinates assigned)
O=C1C[C@H](n2cc(CBr)nn2)C[C@@H]2CCCN12 (nonaromatic ring conformer: 65.06045358532525 kcal/mol)

>  <smiles>  (20) 
O=C1CC(n2cc(CBr)nn2)CC2CCCN12

>  <score_type>  (20) 
oracle

>  <origin>  (20) 
adg

>  <m_score__min__energy>  (20) 
-8.0299999999999994

>  <m_primary>  (20) 
energy

$$$$
20:0
     RDKit          3D

 37 39  0  0  0  0  0  0  0  0999 V2000
   -1.5010   26.0040  -27.3790 C   0  0  0  0  0  0  0  0  0  0  0  0
   -1.9970   25.3730  -28.6060 N   0  0  0  0  0  0  0  0  0  0  0  0
   -1.6850   23.9370  -28.6360 C   0  0  0  0  0  0  0  0  0  0  0  0
   -1.9850   23.3480  -30.0150 C   0  0  0  0  0  0  0  0  0  0  0  0
   -3.3800   23.5890  -30.3720 N   0  0  0  0  0  0  0  0  0  0  0  0
   -4.2820   22.6510  -30.7100 C   0  0  0  0  0  0  0  0  0  0  0  0
   -5.4660   23.2880  -31.0380 C   0  0  0  0  0  0  0  0  0  0  0  0
   -6.7420   22.6640  -31.4750 C   0  0  0  0  0  0  0  0  0  0  0  0
   -7.9160   23.4250  -31.5610 C   0  0  0  0  0  0  0  0  0  0  0  0
   -9.1030   22.8220  -31.9730 C   0  0  0  0  0  0  0  0  0  0  0  0
   -9.1300   21.5020  -32.2930 N   0  0  0  0  0  0  0  0  0  0  0  0
   -8.0150   20.7190  -32.2270 C   0  0  0  0  0  0  0  0  0  0  0  0
   -8.1540   19.2530  -32.6090 C   0  0  0  0  0  0  0  0  0  0  0  0
   -8.9640   18.3570  -31.6820 C   0  0  0  0  0  0  0  0  0  0  0  0
   -7.4450   18.2280  -31.7330 C   0  0  0  0  0  0  0  0  0  0  0  0
   -6.7960   21.3000  -31.8130 C   0  0  0  0  0  0  0  0  0  0  0  0
   -5.1900   24.6400  -30.8800 C   0  0  0  0  0  0  0  0  0  0  0  0
   -3.9140   24.7950  -30.4830 N   0  0  0  0  0  0  0  0  0  0  0  0
   -1.9133   25.4795  -26.5044 H   0  0  0  0  0  0  0  0  0  0  0  0
   -0.4027   25.9479  -27.3560 H   0  0  0  0  0  0  0  0  0  0  0  0
   -1.8149   27.0580  -27.3560 H   0  0  0  0  0  0  0  0  0  0  0  0
   -3.0390   25.4760  -28.6030 H   0  0  0  0  0  0  0  0  0  0  0  0
   -0.6188   23.7942  -28.4064 H   0  0  0  0  0  0  0  0  0  0  0  0
   -2.3081   23.4238  -27.8888 H   0  0  0  0  0  0  0  0  0  0  0  0
   -1.3314   23.8212  -30.7626 H   0  0  0  0  0  0  0  0  0  0  0  0
   -1.8024   22.2635  -29.9903 H   0  0  0  0  0  0  0  0  0  0  0  0
   -4.1088   21.5648  -30.7235 H   0  0  0  0  0  0  0  0  0  0  0  0
   -7.9005   24.4945  -31.3042 H   0  0  0  0  0  0  0  0  0  0  0  0
  -10.0245   23.4191  -32.0395 H   0  0  0  0  0  0  0  0  0  0  0  0
  -10.0390   21.0870  -32.5970 H   0  0  0  0  0  0  0  0  0  0  0  0
   -8.1726   19.4764  -33.6859 H   0  0  0  0  0  0  0  0  0  0  0  0
   -9.4503   18.7828  -30.7919 H   0  0  0  0  0  0  0  0  0  0  0  0
   -9.8084   17.6641  -31.8118 H   0  0  0  0  0  0  0  0  0  0  0  0
   -6.8356   18.5609  -30.8799 H   0  0  0  0  0  0  0  0  0  0  0  0
   -6.7396   17.4038  -31.9149 H   0  0  0  0  0  0  0  0  0  0  0  0
   -5.8865   20.6840  -31.7548 H   0  0  0  0  0  0  0  0  0  0  0  0
   -5.9047   25.4581  -31.0529 H   0  0  0  0  0  0  0  0  0  0  0  0
  1  2  1  0
  2  3  1  0
  3  4  1  0
  4  5  1  0
  5  6  1  0
  6  7  2  0
  7  8  1  0
  8  9  2  0
  9 10  1  0
 10 11  2  0
 11 12  1  0
 12 13  1  0
 13 14  1  0
 14 15  1  0
 12 16  2  0
  7 17  1  0
 17 18  2  0
 18  5  1  0
 16  8  1  0
 15 13  1  0
  1 19  1  0
  1 20  1  0
  1 21  1  0
  2 22  1  0
  3 23  1  0
  3 24  1  0
  4 25  1  0
  4 26  1  0
  6 27  1  0
  9 28  1  0
 10 29  1  0
 11 30  1  0
 13 31  1  0
 14 32  1  0
 14 33  1  0
 15 34  1  0
 15 35  1  0
 16 36  1  0
 17 37  1  0
M  CHG  1  11   1
M  END
>  <UniqueID>  (21) 
21

>  <SMILES>  (21) 
CNCCn1cc(-c2cc[nH+]c(C3CC3)c2)cn1

>  <Energy>  (21) 
333.86228535956144

>  <Genealogy>  (21) 
CNCCn1cc(-c2cc[nH+]c(C3CC3)c2)cn1 (protonated)
CNCCn1cc(-c2cc[nH+]c(C3CC3)c2)cn1 (3D coordinates assigned)
CNCCn1cc(-c2cc[nH+]c(C3CC3)c2)cn1 (nonaromatic ring conformer: 333.86228535956144 kcal/mol)

>  <smiles>  (21) 
CNCCn1cc(-c2ccnc(C3CC3)c2)cn1

>  <score_type>  (21) 
oracle

>  <origin>  (21) 
adg

>  <m_score__min__energy>  (21) 
-7.2699999999999996

>  <m_primary>  (21) 
energy

$$$$
21:0
     RDKit          3D

 45 46  0  0  0  0  0  0  0  0999 V2000
   -3.6360   21.5480  -33.0750 C   0  0  0  0  0  0  0  0  0  0  0  0
   -4.9250   21.8020  -32.5260 O   0  0  0  0  0  0  0  0  0  0  0  0
   -5.2110   22.8330  -31.6160 C   0  0  0  0  0  0  0  0  0  0  0  0
   -4.2090   23.4360  -30.8290 C   0  0  0  0  0  0  0  0  0  0  0  0
   -4.5340   24.4620  -29.9410 C   0  0  0  0  0  0  0  0  0  0  0  0
   -5.8560   24.8950  -29.8230 C   0  0  0  0  0  0  0  0  0  0  0  0
   -6.8570   24.3040  -30.5970 C   0  0  0  0  0  0  0  0  0  0  0  0
   -6.5410   23.2720  -31.5040 C   0  0  0  0  0  0  0  0  0  0  0  0
   -7.5140   22.6530  -32.3060 O   0  0  0  0  0  0  0  0  0  0  0  0
   -8.8850   22.4640  -31.9530 C   0  0  0  0  0  0  0  0  0  0  0  0
   -9.0550   21.2780  -30.9950 C   0  0  0  0  0  0  0  0  0  0  0  0
   -9.0190   19.9350  -31.7440 C   0  0  0  0  0  0  0  0  0  0  0  0
   -8.2310   20.0270  -33.0690 C   0  0  0  0  0  0  0  0  0  0  0  0
   -6.7600   19.9210  -32.8680 N   0  0  0  0  0  0  0  0  0  0  0  0
   -6.4100   19.2340  -31.5850 C   0  0  0  0  0  0  0  0  0  0  0  0
   -5.8530   17.8060  -31.7590 C   0  0  0  0  0  0  0  0  0  0  0  0
   -6.5820   17.0650  -32.8790 C   0  0  0  0  0  0  0  0  0  0  0  0
   -6.4800   17.8170  -34.2170 C   0  0  0  0  0  0  0  0  0  0  0  0
   -6.1030   19.3010  -34.0420 C   0  0  0  0  0  0  0  0  0  0  0  0
   -2.9117   21.4053  -32.2595 H   0  0  0  0  0  0  0  0  0  0  0  0
   -3.6739   20.6400  -33.6948 H   0  0  0  0  0  0  0  0  0  0  0  0
   -3.3266   22.4024  -33.6948 H   0  0  0  0  0  0  0  0  0  0  0  0
   -3.1664   23.0962  -30.9153 H   0  0  0  0  0  0  0  0  0  0  0  0
   -3.7467   24.9308  -29.3324 H   0  0  0  0  0  0  0  0  0  0  0  0
   -6.1093   25.7022  -29.1199 H   0  0  0  0  0  0  0  0  0  0  0  0
   -7.8979   24.6457  -30.4984 H   0  0  0  0  0  0  0  0  0  0  0  0
   -9.2582   23.3760  -31.4641 H   0  0  0  0  0  0  0  0  0  0  0  0
   -9.4542   22.2538  -32.8705 H   0  0  0  0  0  0  0  0  0  0  0  0
   -8.2404   21.2965  -30.2560 H   0  0  0  0  0  0  0  0  0  0  0  0
  -10.0343   21.3711  -30.5028 H   0  0  0  0  0  0  0  0  0  0  0  0
   -8.5414   19.1825  -31.0993 H   0  0  0  0  0  0  0  0  0  0  0  0
  -10.0550   19.6554  -31.9859 H   0  0  0  0  0  0  0  0  0  0  0  0
   -8.5562   19.2100  -33.7299 H   0  0  0  0  0  0  0  0  0  0  0  0
   -8.4369   21.0128  -33.5116 H   0  0  0  0  0  0  0  0  0  0  0  0
   -6.3720   20.8910  -32.8130 H   0  0  0  0  0  0  0  0  0  0  0  0
   -5.6512   19.8386  -31.0667 H   0  0  0  0  0  0  0  0  0  0  0  0
   -7.3454   19.1391  -31.0140 H   0  0  0  0  0  0  0  0  0  0  0  0
   -4.7824   17.8652  -32.0046 H   0  0  0  0  0  0  0  0  0  0  0  0
   -6.0036   17.2548  -30.8190 H   0  0  0  0  0  0  0  0  0  0  0  0
   -6.1353   16.0666  -32.9959 H   0  0  0  0  0  0  0  0  0  0  0  0
   -7.6452   16.9909  -32.6067 H   0  0  0  0  0  0  0  0  0  0  0  0
   -5.7120   17.3301  -34.8359 H   0  0  0  0  0  0  0  0  0  0  0  0
   -7.4712   17.7815  -34.6928 H   0  0  0  0  0  0  0  0  0  0  0  0
   -5.0128   19.3750  -33.9155 H   0  0  0  0  0  0  0  0  0  0  0  0
   -6.4449   19.8395  -34.9381 H   0  0  0  0  0  0  0  0  0  0  0  0
  1  2  1  0
  2  3  1  0
  3  4  2  0
  4  5  1  0
  5  6  2  0
  6  7  1  0
  7  8  2  0
  8  9  1  0
  9 10  1  0
 10 11  1  0
 11 12  1  0
 12 13  1  0
 13 14  1  0
 14 15  1  0
 15 16  1  0
 16 17  1  0
 17 18  1  0
 18 19  1  0
  8  3  1  0
 19 14  1  0
  1 20  1  0
  1 21  1  0
  1 22  1  0
  4 23  1  0
  5 24  1  0
  6 25  1  0
  7 26  1  0
 10 27  1  0
 10 28  1  0
 11 29  1  0
 11 30  1  0
 12 31  1  0
 12 32  1  0
 13 33  1  0
 13 34  1  0
 14 35  1  0
 15 36  1  0
 15 37  1  0
 16 38  1  0
 16 39  1  0
 17 40  1  0
 17 41  1  0
 18 42  1  0
 18 43  1  0
 19 44  1  0
 19 45  1  0
M  CHG  1  14   1
M  END
>  <UniqueID>  (22) 
22

>  <SMILES>  (22) 
COc1ccccc1OCCCC[NH+]1CCCCC1

>  <Energy>  (22) 
48.367296558967915

>  <Genealogy>  (22) 
COc1ccccc1OCCCC[NH+]1CCCCC1 (protonated)
COc1ccccc1OCCCC[NH+]1CCCCC1 (3D coordinates assigned)
COc1ccccc1OCCCC[NH+]1CCCCC1 (nonaromatic ring conformer: 48.367296558967915 kcal/mol)

>  <smiles>  (22) 
COc1ccccc1OCCCCN1CCCCC1

>  <score_type>  (22) 
oracle

>  <origin>  (22) 
adg

>  <m_score__min__energy>  (22) 
-7.6399999999999997

>  <m_primary>  (22) 
energy

$$$$
22:0
     RDKit          3D

 35 37  0  0  0  0  0  0  0  0999 V2000
   -9.8826   19.3718  -32.7545 H   0  0  0  0  0  0  0  0  0  0  0  0
   -9.1170   20.0840  -32.4130 C   0  0  0  0  0  0  0  0  0  0  0  0
   -9.3950   21.4590  -31.4840 S   0  0  0  0  0  0  0  0  0  0  0  0
   -7.7930   21.9660  -31.4230 C   0  0  0  0  0  0  0  0  0  0  0  0
   -7.2790   23.1280  -30.6250 C   0  0  0  0  0  0  0  0  0  0  0  0
   -6.4899   22.7723  -29.9462 H   0  0  0  0  0  0  0  0  0  0  0  0
   -8.1220   23.5555  -30.0624 H   0  0  0  0  0  0  0  0  0  0  0  0
   -6.7010   24.2270  -31.5250 C   0  0  0  0  0  0  0  0  0  0  0  0
   -7.3491   25.1140  -31.4684 H   0  0  0  0  0  0  0  0  0  0  0  0
   -6.6548   23.8434  -32.5549 H   0  0  0  0  0  0  0  0  0  0  0  0
   -5.3160   24.6070  -31.1000 C   0  0  0  0  0  0  0  0  0  0  0  0
   -5.0520   25.8100  -30.8280 O   0  0  0  0  0  0  0  0  0  0  0  0
   -4.3060   23.5930  -31.0190 N   0  0  0  0  0  0  0  0  0  0  0  0
   -3.2760   23.5910  -30.2240 C   0  0  0  0  0  0  0  0  0  0  0  0
   -2.3730   22.2000  -29.9020 S   0  0  0  0  0  0  0  0  0  0  0  0
   -1.2720   23.0470  -28.9580 C   0  0  0  0  0  0  0  0  0  0  0  0
   -0.1480   22.5620  -28.2980 C   0  0  0  0  0  0  0  0  0  0  0  0
    0.1144   21.4945  -28.3375 H   0  0  0  0  0  0  0  0  0  0  0  0
    0.6410   23.4720  -27.5810 C   0  0  0  0  0  0  0  0  0  0  0  0
    1.5340   23.1165  -27.0460 H   0  0  0  0  0  0  0  0  0  0  0  0
    0.3000   24.8370  -27.5400 C   0  0  0  0  0  0  0  0  0  0  0  0
    0.9300   25.5391  -26.9742 H   0  0  0  0  0  0  0  0  0  0  0  0
   -0.8460   25.3150  -28.2200 C   0  0  0  0  0  0  0  0  0  0  0  0
   -1.2220   26.6660  -28.2120 O   0  0  0  0  0  0  0  0  0  0  0  0
   -0.5580   27.6790  -27.4650 C   0  0  0  0  0  0  0  0  0  0  0  0
   -0.6854   27.4847  -26.3898 H   0  0  0  0  0  0  0  0  0  0  0  0
    0.5135   27.6753  -27.7139 H   0  0  0  0  0  0  0  0  0  0  0  0
   -0.9888   28.6600  -27.7139 H   0  0  0  0  0  0  0  0  0  0  0  0
   -1.6270   24.3890  -28.9260 C   0  0  0  0  0  0  0  0  0  0  0  0
   -2.7450   24.6960  -29.6350 N   0  0  0  0  0  0  0  0  0  0  0  0
   -3.1080   25.6690  -29.7380 H   0  0  0  0  0  0  0  0  0  0  0  0
   -7.0120   21.0510  -32.1190 C   0  0  0  0  0  0  0  0  0  0  0  0
   -5.9206   21.1415  -32.2227 H   0  0  0  0  0  0  0  0  0  0  0  0
   -7.7550   20.0020  -32.6750 C   0  0  0  0  0  0  0  0  0  0  0  0
   -7.3030   19.1900  -33.2635 H   0  0  0  0  0  0  0  0  0  0  0  0
  1  2  1  0
  2  3  1  0
  3  4  1  0
  4  5  1  0
  5  6  1  0
  5  7  1  0
  5  8  1  0
  8  9  1  0
  8 10  1  0
  8 11  1  0
 11 12  2  0
 11 13  1  0
 13 14  2  0
 14 15  1  0
 15 16  1  0
 16 17  2  0
 17 18  1  0
 17 19  1  0
 19 20  1  0
 19 21  2  0
 21 22  1  0
 21 23  1  0
 23 24  1  0
 24 25  1  0
 25 26  1  0
 25 27  1  0
 25 28  1  0
 23 29  2  0
 29 30  1  0
 30 31  1  0
  4 32  2  0
 32 33  1  0
 32 34  1  0
 34 35  1  0
 34  2  2  0
 30 14  1  0
 29 16  1  0
M  END
>  <UniqueID>  (23) 
23

>  <SMILES>  (23) 
COc1cccc2s/c(=N/C(=O)CCc3cccs3)[nH]c12

>  <Energy>  (23) 
96.00507289091611

>  <Genealogy>  (23) 
COc1cccc2s/c(=N/C(=O)CCc3cccs3)[nH]c12 (cis-trans isomerization)
COc1cccc2s/c(=N/C(=O)CCc3cccs3)[nH]c12 (3D coordinates assigned)
COc1cccc2s/c(=N/C(=O)CCc3cccs3)[nH]c12 (optimized conformer: 96.00507289091611 kcal/mol)

>  <smiles>  (23) 
COc1cccc2sc(=NC(=O)CCc3cccs3)[nH]c12

>  <score_type>  (23) 
oracle

>  <origin>  (23) 
adg

>  <m_score__min__energy>  (23) 
-8.6500000000000004

>  <m_primary>  (23) 
energy

$$$$
23:0
     RDKit          3D

 41 43  0  0  0  0  0  0  0  0999 V2000
   -6.4405   19.3165  -31.2014 H   0  0  0  0  0  0  0  0  0  0  0  0
   -6.0030   18.8690  -32.1060 C   0  0  0  0  0  0  0  0  0  0  0  0
   -6.6860   17.9100  -32.7840 N   0  0  0  0  0  0  0  0  0  0  0  0
   -6.1870   17.3280  -33.9100 C   0  0  0  0  0  0  0  0  0  0  0  0
   -6.9110   16.3450  -34.5910 O   0  0  0  0  0  0  0  0  0  0  0  0
   -6.8750   14.9700  -34.2240 C   0  0  0  0  0  0  0  0  0  0  0  0
   -6.8727   14.8831  -33.1274 H   0  0  0  0  0  0  0  0  0  0  0  0
   -7.7601   14.4587  -34.6305 H   0  0  0  0  0  0  0  0  0  0  0  0
   -5.9644   14.5057  -34.6305 H   0  0  0  0  0  0  0  0  0  0  0  0
   -4.9360   17.7170  -34.3930 C   0  0  0  0  0  0  0  0  0  0  0  0
   -4.5240   17.2534  -35.3015 H   0  0  0  0  0  0  0  0  0  0  0  0
   -4.2120   18.6990  -33.7140 C   0  0  0  0  0  0  0  0  0  0  0  0
   -3.2251   19.0093  -34.0877 H   0  0  0  0  0  0  0  0  0  0  0  0
   -4.7400   19.2920  -32.5550 C   0  0  0  0  0  0  0  0  0  0  0  0
   -3.9820   20.3390  -31.8230 C   0  0  0  0  0  0  0  0  0  0  0  0
   -2.7130   20.0580  -31.2860 C   0  0  0  0  0  0  0  0  0  0  0  0
   -2.2797   19.0547  -31.4112 H   0  0  0  0  0  0  0  0  0  0  0  0
   -1.9960   21.0390  -30.5950 C   0  0  0  0  0  0  0  0  0  0  0  0
   -1.0039   20.8043  -30.1819 H   0  0  0  0  0  0  0  0  0  0  0  0
   -2.5370   22.3200  -30.4270 C   0  0  0  0  0  0  0  0  0  0  0  0
   -1.8280   23.3140  -29.7380 C   0  0  0  0  0  0  0  0  0  0  0  0
   -0.8317   23.0978  -29.3248 H   0  0  0  0  0  0  0  0  0  0  0  0
   -2.4010   24.5940  -29.5780 C   0  0  0  0  0  0  0  0  0  0  0  0
   -1.7900   25.5640  -28.9570 N   0  0  0  0  0  0  0  0  0  0  0  0
   -1.0190   25.4780  -27.7510 C   0  0  0  0  0  0  0  0  0  0  0  0
    0.2100   25.2170  -27.8290 O   0  0  0  0  0  0  0  0  0  0  0  0
   -1.6140   25.7780  -26.4770 N   0  0  0  0  0  0  0  0  0  0  0  0
   -2.6050   26.1090  -26.4440 H   0  0  0  0  0  0  0  0  0  0  0  0
   -0.8960   25.6170  -25.2160 C   0  0  0  0  0  0  0  0  0  0  0  0
    0.1843   25.5721  -25.4185 H   0  0  0  0  0  0  0  0  0  0  0  0
   -1.2322   24.6875  -24.7332 H   0  0  0  0  0  0  0  0  0  0  0  0
   -1.1820   26.7870  -24.2810 C   0  0  0  0  0  0  0  0  0  0  0  0
   -1.0998   26.4506  -23.2369 H   0  0  0  0  0  0  0  0  0  0  0  0
   -0.4538   27.5905  -24.4658 H   0  0  0  0  0  0  0  0  0  0  0  0
   -2.1987   27.1640  -24.4658 H   0  0  0  0  0  0  0  0  0  0  0  0
   -3.6190   24.8470  -30.1280 N   0  0  0  0  0  0  0  0  0  0  0  0
   -4.3280   23.9050  -30.8030 C   0  0  0  0  0  0  0  0  0  0  0  0
   -5.3129   24.1559  -31.2238 H   0  0  0  0  0  0  0  0  0  0  0  0
   -3.8070   22.6150  -30.9640 C   0  0  0  0  0  0  0  0  0  0  0  0
   -4.5240   21.6280  -31.6560 C   0  0  0  0  0  0  0  0  0  0  0  0
   -5.5156   21.8621  -32.0707 H   0  0  0  0  0  0  0  0  0  0  0  0
  1  2  1  0
  2  3  2  0
  3  4  1  0
  4  5  1  0
  5  6  1  0
  6  7  1  0
  6  8  1  0
  6  9  1  0
  4 10  2  0
 10 11  1  0
 10 12  1  0
 12 13  1  0
 12 14  2  0
 14 15  1  0
 15 16  1  0
 16 17  1  0
 16 18  2  0
 18 19  1  0
 18 20  1  0
 20 21  2  0
 21 22  1  0
 21 23  1  0
 23 24  2  0
 24 25  1  0
 25 26  2  0
 25 27  1  0
 27 28  1  0
 27 29  1  0
 29 30  1  0
 29 31  1  0
 29 32  1  0
 32 33  1  0
 32 34  1  0
 32 35  1  0
 23 36  1  0
 36 37  1  0
 37 38  1  0
 37 39  2  0
 39 40  1  0
 40 41  1  0
 14  2  1  0
 40 15  2  0
 39 20  1  0
M  CHG  1  36  -1
M  END
>  <UniqueID>  (24) 
24

>  <SMILES>  (24) 
CCNC(=O)/N=c1\cc2ccc(-c3ccc(OC)nc3)cc2c[n-]1

>  <Energy>  (24) 
54.33859880342046

>  <Genealogy>  (24) 
CCNC(=O)N=c1cc2ccc(-c3ccc(OC)nc3)cc2c[n-]1 (protonated)
CCNC(=O)/N=c1\cc2ccc(-c3ccc(OC)nc3)cc2c[n-]1 (cis-trans isomerization)
CCNC(=O)/N=c1\cc2ccc(-c3ccc(OC)nc3)cc2c[n-]1 (3D coordinates assigned)
CCNC(=O)/N=c1\cc2ccc(-c3ccc(OC)nc3)cc2c[n-]1 (optimized conformer: 54.33859880342046 kcal/mol)

>  <smiles>  (24) 
CCNC(=O)N=c1cc2ccc(-c3ccc(OC)nc3)cc2c[nH]1

>  <score_type>  (24) 
oracle

>  <origin>  (24) 
adg

>  <m_score__min__energy>  (24) 
-8.4100000000000001

>  <m_primary>  (24) 
energy

$$$$
24:0
     RDKit          3D

 60 64  0  0  0  0  0  0  0  0999 V2000
    0.2910   24.2250  -27.8960 C   0  0  0  0  0  0  0  0  0  0  0  0
   -0.8130   24.9410  -28.5490 N   0  0  0  0  0  0  0  0  0  0  0  0
   -0.8580   26.3540  -28.1500 C   0  0  0  0  0  0  0  0  0  0  0  0
   -2.1220   24.2490  -28.4760 C   0  0  0  0  0  0  0  0  0  0  0  0
   -2.4390   23.2620  -29.6400 C   0  0  0  0  0  0  0  0  0  0  0  0
   -1.1350   22.6020  -30.1330 C   0  0  0  0  0  0  0  0  0  0  0  0
   -1.4200   21.7220  -31.3540 C   0  0  0  0  0  0  0  0  0  0  0  0
   -2.5740   20.8460  -31.1210 N   0  0  0  0  0  0  0  0  0  0  0  0
   -2.9640   19.9210  -32.1510 C   0  0  0  0  0  0  0  0  0  0  0  0
   -2.1230   18.9050  -32.4950 N   0  0  0  0  0  0  0  0  0  0  0  0
   -2.4380   18.0370  -33.4980 C   0  0  0  0  0  0  0  0  0  0  0  0
   -1.5670   16.9950  -33.8540 C   0  0  0  0  0  0  0  0  0  0  0  0
   -1.9140   16.1180  -34.8890 C   0  0  0  0  0  0  0  0  0  0  0  0
   -3.1260   16.2770  -35.5710 C   0  0  0  0  0  0  0  0  0  0  0  0
   -3.9980   17.3130  -35.2220 C   0  0  0  0  0  0  0  0  0  0  0  0
   -3.6580   18.1940  -34.1890 C   0  0  0  0  0  0  0  0  0  0  0  0
   -4.4990   19.1980  -33.8380 N   0  0  0  0  0  0  0  0  0  0  0  0
   -4.1910   20.0610  -32.8330 C   0  0  0  0  0  0  0  0  0  0  0  0
   -5.1680   21.0950  -32.4590 C   0  0  0  0  0  0  0  0  0  0  0  0
   -4.8080   22.4570  -32.4430 C   0  0  0  0  0  0  0  0  0  0  0  0
   -5.7620   23.4460  -32.1230 C   0  0  0  0  0  0  0  0  0  0  0  0
   -7.0860   23.0880  -31.8210 C   0  0  0  0  0  0  0  0  0  0  0  0
   -7.4200   21.7310  -31.8430 C   0  0  0  0  0  0  0  0  0  0  0  0
   -6.4900   20.7680  -32.1370 C   0  0  0  0  0  0  0  0  0  0  0  0
   -7.1360   19.5450  -32.0940 C   0  0  0  0  0  0  0  0  0  0  0  0
   -8.4570   19.8340  -31.7710 C   0  0  0  0  0  0  0  0  0  0  0  0
   -8.6240   21.1690  -31.6230 N   0  0  0  0  0  0  0  0  0  0  0  0
   -9.8620   21.8470  -31.2430 C   0  0  0  0  0  0  0  0  0  0  0  0
   -3.2070   20.7830  -29.7980 C   0  0  0  0  0  0  0  0  0  0  0  0
   -3.4960   22.1900  -29.2480 C   0  0  0  0  0  0  0  0  0  0  0  0
    0.1798   24.2971  -26.8040 H   0  0  0  0  0  0  0  0  0  0  0  0
    0.2713   23.1673  -28.1975 H   0  0  0  0  0  0  0  0  0  0  0  0
    1.2487   24.6744  -28.1975 H   0  0  0  0  0  0  0  0  0  0  0  0
   -0.8603   26.4251  -27.0523 H   0  0  0  0  0  0  0  0  0  0  0  0
    0.0240   26.8761  -28.5495 H   0  0  0  0  0  0  0  0  0  0  0  0
   -1.7714   26.8189  -28.5495 H   0  0  0  0  0  0  0  0  0  0  0  0
   -2.1498   23.6798  -27.5351 H   0  0  0  0  0  0  0  0  0  0  0  0
   -2.8810   25.0422  -28.5448 H   0  0  0  0  0  0  0  0  0  0  0  0
   -2.8845   23.8455  -30.4592 H   0  0  0  0  0  0  0  0  0  0  0  0
   -0.4128   23.3845  -30.4090 H   0  0  0  0  0  0  0  0  0  0  0  0
   -0.7205   21.9776  -29.3278 H   0  0  0  0  0  0  0  0  0  0  0  0
   -1.6288   22.3672  -32.2201 H   0  0  0  0  0  0  0  0  0  0  0  0
   -0.5379   21.0923  -31.5421 H   0  0  0  0  0  0  0  0  0  0  0  0
   -1.2120   18.8080  -31.9890 H   0  0  0  0  0  0  0  0  0  0  0  0
   -0.6134   16.8677  -33.3207 H   0  0  0  0  0  0  0  0  0  0  0  0
   -1.2317   15.3012  -35.1671 H   0  0  0  0  0  0  0  0  0  0  0  0
   -3.3932   15.5853  -36.3835 H   0  0  0  0  0  0  0  0  0  0  0  0
   -4.9503   17.4354  -35.7588 H   0  0  0  0  0  0  0  0  0  0  0  0
   -3.7754   22.7515  -32.6818 H   0  0  0  0  0  0  0  0  0  0  0  0
   -5.4665   24.5055  -32.1100 H   0  0  0  0  0  0  0  0  0  0  0  0
   -7.8375   23.8525  -31.5746 H   0  0  0  0  0  0  0  0  0  0  0  0
   -6.6969   18.5532  -32.2769 H   0  0  0  0  0  0  0  0  0  0  0  0
   -9.2532   19.0843  -31.6526 H   0  0  0  0  0  0  0  0  0  0  0  0
   -9.9361   21.8876  -30.1462 H   0  0  0  0  0  0  0  0  0  0  0  0
   -9.8594   22.8696  -31.6484 H   0  0  0  0  0  0  0  0  0  0  0  0
  -10.7222   21.2941  -31.6484 H   0  0  0  0  0  0  0  0  0  0  0  0
   -4.1538   20.2291  -29.8800 H   0  0  0  0  0  0  0  0  0  0  0  0
   -2.5173   20.2757  -29.1074 H   0  0  0  0  0  0  0  0  0  0  0  0
   -4.4744   22.5151  -29.6313 H   0  0  0  0  0  0  0  0  0  0  0  0
   -3.4706   22.1100  -28.1512 H   0  0  0  0  0  0  0  0  0  0  0  0
  1  2  1  0
  2  3  1  0
  2  4  1  0
  4  5  1  0
  5  6  1  0
  6  7  1  0
  7  8  1  0
  8  9  1  0
  9 10  2  0
 10 11  1  0
 11 12  2  0
 12 13  1  0
 13 14  2  0
 14 15  1  0
 15 16  2  0
 16 17  1  0
 17 18  2  0
 18 19  1  0
 19 20  2  0
 20 21  1  0
 21 22  2  0
 22 23  1  0
 23 24  2  0
 24 25  1  0
 25 26  2  0
 26 27  1  0
 27 28  1  0
  8 29  1  0
 29 30  1  0
 30  5  1  0
 18  9  1  0
 24 19  1  0
 16 11  1  0
 27 23  1  0
  1 31  1  0
  1 32  1  0
  1 33  1  0
  3 34  1  0
  3 35  1  0
  3 36  1  0
  4 37  1  0
  4 38  1  0
  5 39  1  0
  6 40  1  0
  6 41  1  0
  7 42  1  0
  7 43  1  0
 10 44  1  0
 12 45  1  0
 13 46  1  0
 14 47  1  0
 15 48  1  0
 20 49  1  0
 21 50  1  0
 22 51  1  0
 25 52  1  0
 26 53  1  0
 28 54  1  0
 28 55  1  0
 28 56  1  0
 29 57  1  0
 29 58  1  0
 30 59  1  0
 30 60  1  0
M  CHG  1  10   1
M  END
>  <UniqueID>  (25) 
25

>  <SMILES>  (25) 
CN(C)CC1CCN(c2[nH+]c3ccccc3nc2-c2cccc3c2ccn3C)CC1

>  <Energy>  (25) 
118.46811034312746

>  <Genealogy>  (25) 
CN(C)CC1CCN(c2[nH+]c3ccccc3nc2-c2cccc3c2ccn3C)CC1 (protonated)
CN(C)CC1CCN(c2[nH+]c3ccccc3nc2-c2cccc3c2ccn3C)CC1 (3D coordinates assigned)
CN(C)CC1CCN(c2[nH+]c3ccccc3nc2-c2cccc3c2ccn3C)CC1 (nonaromatic ring conformer: 118.46811034312746 kcal/mol)

>  <smiles>  (25) 
CN(C)CC1CCN(c2nc3ccccc3nc2-c2cccc3c2ccn3C)CC1

>  <score_type>  (25) 
oracle

>  <origin>  (25) 
adg

>  <m_score__min__energy>  (25) 
-7.7199999999999998

>  <m_primary>  (25) 
energy

$$$$
25:0
     RDKit          3D

 47 49  0  0  0  0  0  0  0  0999 V2000
   -3.1430   16.3460  -33.2850 C   0  0  0  0  0  0  0  0  0  0  0  0
   -3.9190   15.0520  -33.0700 C   0  0  0  0  0  0  0  0  0  0  0  0
   -4.9630   14.8910  -34.0800 N   0  0  0  0  0  0  0  0  0  0  0  0
   -6.2490   15.5230  -34.0650 C   0  0  0  0  0  0  0  0  0  0  0  0
   -7.2780   14.8100  -34.1930 O   0  0  0  0  0  0  0  0  0  0  0  0
   -6.3890   16.9400  -33.8840 N   0  0  0  0  0  0  0  0  0  0  0  0
   -7.2500   17.4380  -32.8040 C   0  0  0  0  0  0  0  0  0  0  0  0
   -7.4150   18.9640  -32.8610 C   0  0  0  0  0  0  0  0  0  0  0  0
   -6.1290   19.6240  -33.1480 N   0  0  0  0  0  0  0  0  0  0  0  0
   -5.8320   20.9050  -32.5430 C   0  0  0  0  0  0  0  0  0  0  0  0
   -6.8090   21.6240  -31.8310 C   0  0  0  0  0  0  0  0  0  0  0  0
   -6.4840   22.8570  -31.2650 C   0  0  0  0  0  0  0  0  0  0  0  0
   -5.1930   23.3850  -31.4110 C   0  0  0  0  0  0  0  0  0  0  0  0
   -4.8250   24.6940  -30.8190 C   0  0  0  0  0  0  0  0  0  0  0  0
   -5.6890   25.6080  -30.7570 O   0  0  0  0  0  0  0  0  0  0  0  0
   -3.4960   24.9730  -30.3570 N   0  0  0  0  0  0  0  0  0  0  0  0
   -2.7730   24.2370  -29.3590 C   0  0  0  0  0  0  0  0  0  0  0  0
   -3.0120   24.5220  -28.0080 C   0  0  0  0  0  0  0  0  0  0  0  0
   -2.3280   23.8280  -27.0070 C   0  0  0  0  0  0  0  0  0  0  0  0
   -1.4120   22.8300  -27.3480 C   0  0  0  0  0  0  0  0  0  0  0  0
   -1.1880   22.5180  -28.6910 C   0  0  0  0  0  0  0  0  0  0  0  0
   -1.8690   23.2090  -29.6980 C   0  0  0  0  0  0  0  0  0  0  0  0
   -1.6790   22.8430  -30.9900 F   0  0  0  0  0  0  0  0  0  0  0  0
   -4.2420   22.6310  -32.1120 C   0  0  0  0  0  0  0  0  0  0  0  0
   -4.5820   21.4330  -32.6560 N   0  0  0  0  0  0  0  0  0  0  0  0
   -5.2420   19.0740  -34.1900 C   0  0  0  0  0  0  0  0  0  0  0  0
   -5.8730   17.8680  -34.8910 C   0  0  0  0  0  0  0  0  0  0  0  0
   -2.8811   16.7828  -32.3100 H   0  0  0  0  0  0  0  0  0  0  0  0
   -2.2237   16.1327  -33.8501 H   0  0  0  0  0  0  0  0  0  0  0  0
   -3.7642   17.0565  -33.8501 H   0  0  0  0  0  0  0  0  0  0  0  0
   -3.2241   14.2016  -33.1328 H   0  0  0  0  0  0  0  0  0  0  0  0
   -4.3945   15.0901  -32.0788 H   0  0  0  0  0  0  0  0  0  0  0  0
   -8.2411   16.9695  -32.8945 H   0  0  0  0  0  0  0  0  0  0  0  0
   -6.7765   17.1818  -31.8447 H   0  0  0  0  0  0  0  0  0  0  0  0
   -8.1346   19.2186  -33.6530 H   0  0  0  0  0  0  0  0  0  0  0  0
   -7.7780   19.3140  -31.8834 H   0  0  0  0  0  0  0  0  0  0  0  0
   -7.8246   21.2160  -31.7210 H   0  0  0  0  0  0  0  0  0  0  0  0
   -7.2441   23.4178  -30.7014 H   0  0  0  0  0  0  0  0  0  0  0  0
   -3.7428   25.2971  -27.7339 H   0  0  0  0  0  0  0  0  0  0  0  0
   -2.5109   24.0677  -25.9491 H   0  0  0  0  0  0  0  0  0  0  0  0
   -0.8674   22.2901  -26.5594 H   0  0  0  0  0  0  0  0  0  0  0  0
   -0.4731   21.7256  -28.9575 H   0  0  0  0  0  0  0  0  0  0  0  0
   -3.2155   23.0107  -32.2224 H   0  0  0  0  0  0  0  0  0  0  0  0
   -5.0417   19.8562  -34.9371 H   0  0  0  0  0  0  0  0  0  0  0  0
   -4.3107   18.7422  -33.7078 H   0  0  0  0  0  0  0  0  0  0  0  0
   -6.6976   18.2072  -35.5352 H   0  0  0  0  0  0  0  0  0  0  0  0
   -5.1153   17.3608  -35.5063 H   0  0  0  0  0  0  0  0  0  0  0  0
  1  2  1  0
  2  3  1  0
  3  4  1  0
  4  5  2  0
  4  6  1  0
  6  7  1  0
  7  8  1  0
  8  9  1  0
  9 10  1  0
 10 11  2  0
 11 12  1  0
 12 13  2  0
 13 14  1  0
 14 15  2  0
 14 16  1  0
 16 17  1  0
 17 18  2  0
 18 19  1  0
 19 20  2  0
 20 21  1  0
 21 22  2  0
 22 23  1  0
 13 24  1  0
 24 25  2  0
  9 26  1  0
 26 27  1  0
 27  6  1  0
 25 10  1  0
 22 17  1  0
  1 28  1  0
  1 29  1  0
  1 30  1  0
  2 31  1  0
  2 32  1  0
  7 33  1  0
  7 34  1  0
  8 35  1  0
  8 36  1  0
 11 37  1  0
 12 38  1  0
 18 39  1  0
 19 40  1  0
 20 41  1  0
 21 42  1  0
 24 43  1  0
 26 44  1  0
 26 45  1  0
 27 46  1  0
 27 47  1  0
M  CHG  2   3  -1  16  -1
M  END
>  <UniqueID>  (26) 
26

>  <SMILES>  (26) 
CC[N-]C(=O)N1CCN(c2ccc(C(=O)[N-]c3ccccc3F)cn2)CC1

>  <Energy>  (26) 
59.019718795553

>  <Genealogy>  (26) 
CC[N-]C(=O)N1CCN(c2ccc(C(=O)[N-]c3ccccc3F)cn2)CC1 (protonated)
CC[N-]C(=O)N1CCN(c2ccc(C(=O)[N-]c3ccccc3F)cn2)CC1 (3D coordinates assigned)
CC[N-]C(=O)N1CCN(c2ccc(C(=O)[N-]c3ccccc3F)cn2)CC1 (nonaromatic ring conformer: 59.019718795553 kcal/mol)

>  <smiles>  (26) 
CCNC(=O)N1CCN(c2ccc(C(=O)Nc3ccccc3F)cn2)CC1

>  <score_type>  (26) 
oracle

>  <origin>  (26) 
adg

>  <m_score__min__energy>  (26) 
-10.289999999999999

>  <m_primary>  (26) 
energy

$$$$
26:0
     RDKit          3D

 50 52  0  0  0  0  0  0  0  0999 V2000
   -9.2270   20.6500  -31.9920 C   0  0  0  0  0  0  0  0  0  0  0  0
   -8.8810   19.5230  -32.6200 C   0  0  0  0  0  0  0  0  0  0  0  0
   -8.5330   18.2630  -31.8630 C   0  0  0  0  0  0  0  0  0  0  0  0
   -7.2340   17.6520  -32.2500 N   0  0  0  0  0  0  0  0  0  0  0  0
   -6.8330   17.9290  -33.6570 C   0  0  0  0  0  0  0  0  0  0  0  0
   -5.6680   18.9250  -33.7840 C   0  0  0  0  0  0  0  0  0  0  0  0
   -5.7260   19.9090  -32.6950 N   0  0  0  0  0  0  0  0  0  0  0  0
   -4.7860   21.0230  -32.9420 C   0  0  0  0  0  0  0  0  0  0  0  0
   -5.1770   22.2300  -32.1310 C   0  0  0  0  0  0  0  0  0  0  0  0
   -6.5270   22.5610  -31.9320 C   0  0  0  0  0  0  0  0  0  0  0  0
   -6.8670   23.7020  -31.2000 C   0  0  0  0  0  0  0  0  0  0  0  0
   -5.8660   24.5180  -30.6620 C   0  0  0  0  0  0  0  0  0  0  0  0
   -4.5160   24.1940  -30.8420 C   0  0  0  0  0  0  0  0  0  0  0  0
   -3.5120   25.0710  -30.3050 N   0  0  0  0  0  0  0  0  0  0  0  0
   -2.5240   24.7310  -29.3220 C   0  0  0  0  0  0  0  0  0  0  0  0
   -1.7310   25.6270  -28.9300 O   0  0  0  0  0  0  0  0  0  0  0  0
   -2.4420   23.3780  -28.7220 C   0  0  0  0  0  0  0  0  0  0  0  0
   -1.2470   22.6390  -28.7810 C   0  0  0  0  0  0  0  0  0  0  0  0
   -1.1720   21.3740  -28.1910 C   0  0  0  0  0  0  0  0  0  0  0  0
   -2.2890   20.8300  -27.5470 C   0  0  0  0  0  0  0  0  0  0  0  0
   -2.1850   19.0990  -26.7460 Br  0  0  0  0  0  0  0  0  0  0  0  0
   -3.4870   21.5510  -27.5030 C   0  0  0  0  0  0  0  0  0  0  0  0
   -3.5670   22.8170  -28.0920 C   0  0  0  0  0  0  0  0  0  0  0  0
   -4.1770   23.0570  -31.5960 C   0  0  0  0  0  0  0  0  0  0  0  0
   -5.4500   19.2530  -31.3990 C   0  0  0  0  0  0  0  0  0  0  0  0
   -6.1490   17.8790  -31.2640 C   0  0  0  0  0  0  0  0  0  0  0  0
   -9.4745   21.5501  -32.5738 H   0  0  0  0  0  0  0  0  0  0  0  0
   -9.2644   20.6780  -30.8930 H   0  0  0  0  0  0  0  0  0  0  0  0
   -8.8486   19.5122  -33.7195 H   0  0  0  0  0  0  0  0  0  0  0  0
   -8.4929   18.5059  -30.7909 H   0  0  0  0  0  0  0  0  0  0  0  0
   -9.3116   17.5253  -32.1072 H   0  0  0  0  0  0  0  0  0  0  0  0
   -7.4210   16.6200  -32.2090 H   0  0  0  0  0  0  0  0  0  0  0  0
   -6.5313   16.9804  -34.1251 H   0  0  0  0  0  0  0  0  0  0  0  0
   -7.7014   18.3855  -34.1545 H   0  0  0  0  0  0  0  0  0  0  0  0
   -4.7146   18.3789  -33.7308 H   0  0  0  0  0  0  0  0  0  0  0  0
   -5.7450   19.4491  -34.7481 H   0  0  0  0  0  0  0  0  0  0  0  0
   -3.7703   20.7097  -32.6588 H   0  0  0  0  0  0  0  0  0  0  0  0
   -4.8169   21.2856  -34.0098 H   0  0  0  0  0  0  0  0  0  0  0  0
   -7.3174   21.9219  -32.3525 H   0  0  0  0  0  0  0  0  0  0  0  0
   -7.9254   23.9594  -31.0463 H   0  0  0  0  0  0  0  0  0  0  0  0
   -6.1412   25.4192  -30.0944 H   0  0  0  0  0  0  0  0  0  0  0  0
   -0.3683   23.0579  -29.2932 H   0  0  0  0  0  0  0  0  0  0  0  0
   -0.2320   20.8043  -28.2331 H   0  0  0  0  0  0  0  0  0  0  0  0
   -4.3681   21.1212  -27.0040 H   0  0  0  0  0  0  0  0  0  0  0  0
   -4.5138   23.3761  -28.0623 H   0  0  0  0  0  0  0  0  0  0  0  0
   -3.1183   22.8132  -31.7683 H   0  0  0  0  0  0  0  0  0  0  0  0
   -4.3641   19.1063  -31.3031 H   0  0  0  0  0  0  0  0  0  0  0  0
   -5.8441   19.9055  -30.6059 H   0  0  0  0  0  0  0  0  0  0  0  0
   -5.3920   17.0919  -31.3960 H   0  0  0  0  0  0  0  0  0  0  0  0
   -6.6156   17.8569  -30.2681 H   0  0  0  0  0  0  0  0  0  0  0  0
  1  2  2  0
  2  3  1  0
  3  4  1  0
  4  5  1  0
  5  6  1  0
  6  7  1  0
  7  8  1  0
  8  9  1  0
  9 10  2  0
 10 11  1  0
 11 12  2  0
 12 13  1  0
 13 14  1  0
 14 15  1  0
 15 16  2  0
 15 17  1  0
 17 18  2  0
 18 19  1  0
 19 20  2  0
 20 21  1  0
 20 22  1  0
 22 23  2  0
 13 24  2  0
  7 25  1  0
 25 26  1  0
 26  4  1  0
 24  9  1  0
 23 17  1  0
  1 27  1  0
  1 28  1  0
  2 29  1  0
  3 30  1  0
  3 31  1  0
  4 32  1  0
  5 33  1  0
  5 34  1  0
  6 35  1  0
  6 36  1  0
  8 37  1  0
  8 38  1  0
 10 39  1  0
 11 40  1  0
 12 41  1  0
 18 42  1  0
 19 43  1  0
 22 44  1  0
 23 45  1  0
 24 46  1  0
 25 47  1  0
 25 48  1  0
 26 49  1  0
 26 50  1  0
M  CHG  2   4   1  14  -1
M  END
>  <UniqueID>  (27) 
27

>  <SMILES>  (27) 
C=CC[NH+]1CCN(Cc2cccc([N-]C(=O)c3ccc(Br)cc3)c2)CC1

>  <Energy>  (27) 
69.19560926347111

>  <Genealogy>  (27) 
C=CC[NH+]1CCN(Cc2cccc([N-]C(=O)c3ccc(Br)cc3)c2)CC1 (protonated)
C=CC[NH+]1CCN(Cc2cccc([N-]C(=O)c3ccc(Br)cc3)c2)CC1 (3D coordinates assigned)
C=CC[NH+]1CCN(Cc2cccc([N-]C(=O)c3ccc(Br)cc3)c2)CC1 (nonaromatic ring conformer: 69.19560926347111 kcal/mol)

>  <smiles>  (27) 
C=CCN1CCN(Cc2cccc(NC(=O)c3ccc(Br)cc3)c2)CC1

>  <score_type>  (27) 
oracle

>  <origin>  (27) 
adg

>  <m_score__min__energy>  (27) 
-11.02

>  <m_primary>  (27) 
energy

$$$$
27:0
     RDKit          3D

 42 43  0  0  0  0  0  0  0  0999 V2000
   -3.7070   23.7560  -28.9790 C   0  0  0  0  0  0  0  0  0  0  0  0
   -3.7900   23.8340  -30.5030 C   0  0  0  0  0  0  0  0  0  0  0  0
   -5.1210   24.3160  -30.9390 N   0  0  0  0  0  0  0  0  0  0  0  0
   -5.3640   25.6890  -30.4430 C   0  0  0  0  0  0  0  0  0  0  0  0
   -6.4520   25.7030  -29.3710 C   0  0  0  0  0  0  0  0  0  0  0  0
   -6.2050   23.3820  -30.5340 C   0  0  0  0  0  0  0  0  0  0  0  0
   -7.3030   23.3900  -31.5970 C   0  0  0  0  0  0  0  0  0  0  0  0
   -7.6170   22.0250  -32.0140 N   0  0  0  0  0  0  0  0  0  0  0  0
   -8.9340   21.4050  -31.9480 C   0  0  0  0  0  0  0  0  0  0  0  0
   -8.7320   19.9420  -32.4170 C   0  0  0  0  0  0  0  0  0  0  0  0
   -7.3140   19.8170  -32.7570 N   0  0  0  0  0  0  0  0  0  0  0  0
   -6.7020   18.6580  -33.3580 C   0  0  0  0  0  0  0  0  0  0  0  0
   -7.0040   17.3620  -32.9000 C   0  0  0  0  0  0  0  0  0  0  0  0
   -6.3950   16.2450  -33.4830 C   0  0  0  0  0  0  0  0  0  0  0  0
   -5.4770   16.4100  -34.5210 C   0  0  0  0  0  0  0  0  0  0  0  0
   -5.1580   17.6920  -34.9740 C   0  0  0  0  0  0  0  0  0  0  0  0
   -5.7630   18.8120  -34.3940 C   0  0  0  0  0  0  0  0  0  0  0  0
   -6.6960   21.0580  -32.4680 C   0  0  0  0  0  0  0  0  0  0  0  0
   -5.4530   21.2600  -32.5340 O   0  0  0  0  0  0  0  0  0  0  0  0
   -4.4407   24.4455  -28.5361 H   0  0  0  0  0  0  0  0  0  0  0  0
   -3.9253   22.7287  -28.6520 H   0  0  0  0  0  0  0  0  0  0  0  0
   -2.6952   24.0377  -28.6520 H   0  0  0  0  0  0  0  0  0  0  0  0
   -3.0187   24.5270  -30.8701 H   0  0  0  0  0  0  0  0  0  0  0  0
   -3.6306   22.8263  -30.9143 H   0  0  0  0  0  0  0  0  0  0  0  0
   -4.4321   26.0860  -30.0140 H   0  0  0  0  0  0  0  0  0  0  0  0
   -5.6975   26.3109  -31.2868 H   0  0  0  0  0  0  0  0  0  0  0  0
   -5.9854   25.6970  -28.3749 H   0  0  0  0  0  0  0  0  0  0  0  0
   -7.0655   26.6091  -29.4831 H   0  0  0  0  0  0  0  0  0  0  0  0
   -7.0886   24.8130  -29.4831 H   0  0  0  0  0  0  0  0  0  0  0  0
   -5.7963   22.3655  -30.4357 H   0  0  0  0  0  0  0  0  0  0  0  0
   -6.6247   23.7015  -29.5687 H   0  0  0  0  0  0  0  0  0  0  0  0
   -8.2069   23.8591  -31.1812 H   0  0  0  0  0  0  0  0  0  0  0  0
   -6.9505   23.9582  -32.4704 H   0  0  0  0  0  0  0  0  0  0  0  0
   -9.3176   21.4280  -30.9173 H   0  0  0  0  0  0  0  0  0  0  0  0
   -9.6648   21.9357  -32.5760 H   0  0  0  0  0  0  0  0  0  0  0  0
   -8.9941   19.2426  -31.6095 H   0  0  0  0  0  0  0  0  0  0  0  0
   -9.3742   19.7035  -33.2777 H   0  0  0  0  0  0  0  0  0  0  0  0
   -7.7231   17.2262  -32.0788 H   0  0  0  0  0  0  0  0  0  0  0  0
   -6.6404   15.2352  -33.1224 H   0  0  0  0  0  0  0  0  0  0  0  0
   -5.0046   15.5303  -34.9824 H   0  0  0  0  0  0  0  0  0  0  0  0
   -4.4298   17.8212  -35.7882 H   0  0  0  0  0  0  0  0  0  0  0  0
   -5.5028   19.8196  -34.7503 H   0  0  0  0  0  0  0  0  0  0  0  0
  1  2  1  0
  2  3  1  0
  3  4  1  0
  4  5  1  0
  3  6  1  0
  6  7  1  0
  7  8  1  0
  8  9  1  0
  9 10  1  0
 10 11  1  0
 11 12  1  0
 12 13  2  0
 13 14  1  0
 14 15  2  0
 15 16  1  0
 16 17  2  0
 11 18  1  0
 18 19  2  0
 18  8  1  0
 17 12  1  0
  1 20  1  0
  1 21  1  0
  1 22  1  0
  2 23  1  0
  2 24  1  0
  4 25  1  0
  4 26  1  0
  5 27  1  0
  5 28  1  0
  5 29  1  0
  6 30  1  0
  6 31  1  0
  7 32  1  0
  7 33  1  0
  9 34  1  0
  9 35  1  0
 10 36  1  0
 10 37  1  0
 13 38  1  0
 14 39  1  0
 15 40  1  0
 16 41  1  0
 17 42  1  0
M  END
>  <UniqueID>  (28) 
28

>  <SMILES>  (28) 
CCN(CC)CCN1CCN(c2ccccc2)C1=O

>  <Energy>  (28) 
53.81231809613905

>  <Genealogy>  (28) 
CCN(CC)CCN1CCN(c2ccccc2)C1=O (3D coordinates assigned)
CCN(CC)CCN1CCN(c2ccccc2)C1=O (nonaromatic ring conformer: 53.81231809613905 kcal/mol)

>  <smiles>  (28) 
CCN(CC)CCN1CCN(c2ccccc2)C1=O

>  <score_type>  (28) 
oracle

>  <origin>  (28) 
adg

>  <m_score__min__energy>  (28) 
-6.8399999999999999

>  <m_primary>  (28) 
energy

$$$$
28:0
     RDKit          3D

 42 46  0  0  0  0  0  0  0  0999 V2000
    0.3130   20.6870  -34.3600 C   0  0  0  0  0  0  0  0  0  0  0  0
   -0.0060   19.3540  -34.6220 C   0  0  0  0  0  0  0  0  0  0  0  0
   -1.2900   18.8720  -34.3490 C   0  0  0  0  0  0  0  0  0  0  0  0
   -2.2750   19.7260  -33.8130 C   0  0  0  0  0  0  0  0  0  0  0  0
   -3.6430   19.2340  -33.5070 C   0  0  0  0  0  0  0  0  0  0  0  0
   -3.9850   17.8650  -33.6420 C   0  0  0  0  0  0  0  0  0  0  0  0
   -5.2920   17.4230  -33.3460 C   0  0  0  0  0  0  0  0  0  0  0  0
   -5.6580   16.0010  -33.5150 C   0  0  0  0  0  0  0  0  0  0  0  0
   -6.8190   15.6490  -34.2180 C   0  0  0  0  0  0  0  0  0  0  0  0
   -7.1490   14.3000  -34.3740 C   0  0  0  0  0  0  0  0  0  0  0  0
   -6.3440   13.3340  -33.8550 N   0  0  0  0  0  0  0  0  0  0  0  0
   -5.2060   13.6480  -33.1800 C   0  0  0  0  0  0  0  0  0  0  0  0
   -4.8400   14.9840  -33.0010 C   0  0  0  0  0  0  0  0  0  0  0  0
   -6.2250   18.3810  -32.9260 C   0  0  0  0  0  0  0  0  0  0  0  0
   -5.8520   19.7040  -32.8290 C   0  0  0  0  0  0  0  0  0  0  0  0
   -4.5980   20.1300  -33.1170 N   0  0  0  0  0  0  0  0  0  0  0  0
   -6.9990   20.5010  -32.4750 C   0  0  0  0  0  0  0  0  0  0  0  0
   -7.1140   21.8760  -32.2770 C   0  0  0  0  0  0  0  0  0  0  0  0
   -8.3770   22.3920  -31.9460 C   0  0  0  0  0  0  0  0  0  0  0  0
   -9.4880   21.5320  -31.8260 C   0  0  0  0  0  0  0  0  0  0  0  0
   -9.3450   20.1500  -32.0370 C   0  0  0  0  0  0  0  0  0  0  0  0
   -8.0820   19.6510  -32.3640 C   0  0  0  0  0  0  0  0  0  0  0  0
   -7.6960   18.2240  -32.6360 C   0  0  0  0  0  0  0  0  0  0  0  0
   -1.9350   21.0650  -33.5420 C   0  0  0  0  0  0  0  0  0  0  0  0
   -0.6490   21.5420  -33.8180 C   0  0  0  0  0  0  0  0  0  0  0  0
    1.3224   21.0644  -34.5804 H   0  0  0  0  0  0  0  0  0  0  0  0
    0.7545   18.6807  -35.0443 H   0  0  0  0  0  0  0  0  0  0  0  0
   -1.5330   17.8190  -34.5540 H   0  0  0  0  0  0  0  0  0  0  0  0
   -3.2270   17.1429  -33.9795 H   0  0  0  0  0  0  0  0  0  0  0  0
   -7.4661   16.4299  -34.6441 H   0  0  0  0  0  0  0  0  0  0  0  0
   -8.0626   14.0184  -34.9182 H   0  0  0  0  0  0  0  0  0  0  0  0
   -6.6040   12.3300  -33.9810 H   0  0  0  0  0  0  0  0  0  0  0  0
   -4.5713   12.8468  -32.7734 H   0  0  0  0  0  0  0  0  0  0  0  0
   -3.9161   15.2371  -32.4603 H   0  0  0  0  0  0  0  0  0  0  0  0
   -6.2408   22.5374  -32.3772 H   0  0  0  0  0  0  0  0  0  0  0  0
   -8.5005   23.4723  -31.7795 H   0  0  0  0  0  0  0  0  0  0  0  0
  -10.4734   21.9457  -31.5654 H   0  0  0  0  0  0  0  0  0  0  0  0
  -10.2093   19.4756  -31.9466 H   0  0  0  0  0  0  0  0  0  0  0  0
   -7.8698   17.5832  -31.7590 H   0  0  0  0  0  0  0  0  0  0  0  0
   -8.2704   17.7418  -33.4407 H   0  0  0  0  0  0  0  0  0  0  0  0
   -2.6867   21.7418  -33.1097 H   0  0  0  0  0  0  0  0  0  0  0  0
   -0.3954   22.5915  -33.6079 H   0  0  0  0  0  0  0  0  0  0  0  0
  1  2  2  0
  2  3  1  0
  3  4  2  0
  4  5  1  0
  5  6  2  0
  6  7  1  0
  7  8  1  0
  8  9  2  0
  9 10  1  0
 10 11  2  0
 11 12  1  0
 12 13  2  0
  7 14  2  0
 14 15  1  0
 15 16  2  0
 15 17  1  0
 17 18  2  0
 18 19  1  0
 19 20  2  0
 20 21  1  0
 21 22  2  0
 22 23  1  0
  4 24  1  0
 24 25  2  0
 25  1  1  0
 16  5  1  0
 22 17  1  0
 13  8  1  0
 23 14  1  0
  1 26  1  0
  2 27  1  0
  3 28  1  0
  6 29  1  0
  9 30  1  0
 10 31  1  0
 11 32  1  0
 12 33  1  0
 13 34  1  0
 18 35  1  0
 19 36  1  0
 20 37  1  0
 21 38  1  0
 23 39  1  0
 23 40  1  0
 24 41  1  0
 25 42  1  0
M  CHG  1  11   1
M  END
>  <UniqueID>  (29) 
29

>  <SMILES>  (29) 
c1ccc(-c2cc(-c3cc[nH+]cc3)c3c(n2)-c2ccccc2C3)cc1

>  <Energy>  (29) 
82.59200224989463

>  <Genealogy>  (29) 
c1ccc(-c2cc(-c3cc[nH+]cc3)c3c(n2)-c2ccccc2C3)cc1 (protonated)
c1ccc(-c2cc(-c3cc[nH+]cc3)c3c(n2)-c2ccccc2C3)cc1 (3D coordinates assigned)
c1ccc(-c2cc(-c3cc[nH+]cc3)c3c(n2)-c2ccccc2C3)cc1 (nonaromatic ring conformer: 82.59200224989463 kcal/mol)

>  <smiles>  (29) 
c1ccc(-c2cc(-c3ccncc3)c3c(n2)-c2ccccc2C3)cc1

>  <score_type>  (29) 
oracle

>  <origin>  (29) 
adg

>  <m_score__min__energy>  (29) 
-8.1699999999999999

>  <m_primary>  (29) 
energy

$$$$
29:0
     RDKit          3D

 31 33  0  0  0  0  0  0  0  0999 V2000
   -9.5320   19.1180  -32.9370 O   0  0  0  0  0  0  0  0  0  0  0  0
   -8.8310   20.0530  -32.4600 C   0  0  0  0  0  0  0  0  0  0  0  0
   -9.4620   21.1920  -31.9620 C   0  0  0  0  0  0  0  0  0  0  0  0
   -8.6930   22.2430  -31.4750 C   0  0  0  0  0  0  0  0  0  0  0  0
   -7.2970   22.1440  -31.5050 C   0  0  0  0  0  0  0  0  0  0  0  0
   -6.4180   23.2330  -31.0080 C   0  0  0  0  0  0  0  0  0  0  0  0
   -6.9510   24.4260  -30.4760 C   0  0  0  0  0  0  0  0  0  0  0  0
   -6.1030   25.4410  -30.0210 C   0  0  0  0  0  0  0  0  0  0  0  0
   -4.7180   25.2840  -30.0960 C   0  0  0  0  0  0  0  0  0  0  0  0
   -4.1760   24.1140  -30.6310 C   0  0  0  0  0  0  0  0  0  0  0  0
   -5.0180   23.0940  -31.0870 C   0  0  0  0  0  0  0  0  0  0  0  0
   -6.7370   21.0010  -31.9870 N   0  0  0  0  0  0  0  0  0  0  0  0
   -7.4630   19.9760  -32.4450 N   0  0  0  0  0  0  0  0  0  0  0  0
   -6.7620   18.8150  -32.9330 C   0  0  0  0  0  0  0  0  0  0  0  0
   -6.1060   18.8630  -34.1740 C   0  0  0  0  0  0  0  0  0  0  0  0
   -5.4020   17.7510  -34.6460 C   0  0  0  0  0  0  0  0  0  0  0  0
   -5.3370   16.5850  -33.8780 C   0  0  0  0  0  0  0  0  0  0  0  0
   -4.3740   15.0660  -34.5230 Br  0  0  0  0  0  0  0  0  0  0  0  0
   -5.9730   16.5330  -32.6330 C   0  0  0  0  0  0  0  0  0  0  0  0
   -6.6770   17.6440  -32.1590 C   0  0  0  0  0  0  0  0  0  0  0  0
  -10.5599   21.2587  -31.9544 H   0  0  0  0  0  0  0  0  0  0  0  0
   -9.1771   23.1439  -31.0699 H   0  0  0  0  0  0  0  0  0  0  0  0
   -8.0414   24.5589  -30.4186 H   0  0  0  0  0  0  0  0  0  0  0  0
   -6.5286   26.3652  -29.6030 H   0  0  0  0  0  0  0  0  0  0  0  0
   -4.0536   26.0822  -29.7335 H   0  0  0  0  0  0  0  0  0  0  0  0
   -3.0844   23.9938  -30.6942 H   0  0  0  0  0  0  0  0  0  0  0  0
   -4.5837   22.1764  -31.5105 H   0  0  0  0  0  0  0  0  0  0  0  0
   -6.1463   19.7812  -34.7784 H   0  0  0  0  0  0  0  0  0  0  0  0
   -4.8986   17.7939  -35.6231 H   0  0  0  0  0  0  0  0  0  0  0  0
   -5.9191   15.6170  -32.0264 H   0  0  0  0  0  0  0  0  0  0  0  0
   -7.1671   17.6019  -31.1751 H   0  0  0  0  0  0  0  0  0  0  0  0
  1  2  2  0
  2  3  1  0
  3  4  2  0
  4  5  1  0
  5  6  1  0
  6  7  2  0
  7  8  1  0
  8  9  2  0
  9 10  1  0
 10 11  2  0
  5 12  2  0
 12 13  1  0
 13 14  1  0
 14 15  2  0
 15 16  1  0
 16 17  2  0
 17 18  1  0
 17 19  1  0
 19 20  2  0
 13  2  1  0
 20 14  1  0
 11  6  1  0
  3 21  1  0
  4 22  1  0
  7 23  1  0
  8 24  1  0
  9 25  1  0
 10 26  1  0
 11 27  1  0
 15 28  1  0
 16 29  1  0
 19 30  1  0
 20 31  1  0
M  END
>  <UniqueID>  (30) 
30

>  <SMILES>  (30) 
O=c1ccc(-c2ccccc2)nn1-c1ccc(Br)cc1

>  <Energy>  (30) 
45.529206595194765

>  <Genealogy>  (30) 
O=c1ccc(-c2ccccc2)nn1-c1ccc(Br)cc1 (3D coordinates assigned)
O=c1ccc(-c2ccccc2)nn1-c1ccc(Br)cc1 (optimized conformer: 45.529206595194765 kcal/mol)

>  <smiles>  (30) 
O=c1ccc(-c2ccccc2)nn1-c1ccc(Br)cc1

>  <score_type>  (30) 
oracle

>  <origin>  (30) 
adg

>  <m_score__min__energy>  (30) 
-8.3399999999999999

>  <m_primary>  (30) 
energy

$$$$
30:0
     RDKit          3D

 60 62  0  0  0  0  0  0  0  0999 V2000
   -3.0420   21.5300  -28.0450 C   0  0  0  0  0  0  0  0  0  0  0  0
   -3.1160   21.3750  -29.5620 C   0  0  0  0  0  0  0  0  0  0  0  0
   -2.3560   22.4580  -30.2280 N   0  0  0  0  0  0  0  0  0  0  0  0
   -1.2170   21.9090  -31.0030 C   0  0  0  0  0  0  0  0  0  0  0  0
   -0.7860   20.5610  -30.4310 C   0  0  0  0  0  0  0  0  0  0  0  0
   -1.9020   23.4720  -29.2430 C   0  0  0  0  0  0  0  0  0  0  0  0
   -2.9070   24.6230  -29.1340 C   0  0  0  0  0  0  0  0  0  0  0  0
   -3.4790   24.9190  -30.4390 N   0  0  0  0  0  0  0  0  0  0  0  0
   -4.8720   25.1690  -30.6550 C   0  0  0  0  0  0  0  0  0  0  0  0
   -5.3320   26.3330  -30.4990 O   0  0  0  0  0  0  0  0  0  0  0  0
   -5.7670   24.0620  -31.0630 C   0  0  0  0  0  0  0  0  0  0  0  0
   -7.1490   24.1350  -30.8240 C   0  0  0  0  0  0  0  0  0  0  0  0
   -7.9900   23.0950  -31.2260 C   0  0  0  0  0  0  0  0  0  0  0  0
   -7.4640   21.9680  -31.8590 C   0  0  0  0  0  0  0  0  0  0  0  0
   -6.0850   21.8680  -32.1010 C   0  0  0  0  0  0  0  0  0  0  0  0
   -5.5200   20.6670  -32.7660 C   0  0  0  0  0  0  0  0  0  0  0  0
   -6.3670   19.5950  -33.1480 C   0  0  0  0  0  0  0  0  0  0  0  0
   -5.8400   18.4480  -33.7700 C   0  0  0  0  0  0  0  0  0  0  0  0
   -4.4680   18.4000  -33.9920 C   0  0  0  0  0  0  0  0  0  0  0  0
   -3.7630   17.3860  -34.5190 N   0  0  0  0  0  0  0  0  0  0  0  0
   -2.4800   17.8340  -34.4690 C   0  0  0  0  0  0  0  0  0  0  0  0
   -1.3410   16.9630  -34.9590 C   0  0  0  0  0  0  0  0  0  0  0  0
   -0.3530   16.6360  -33.8330 C   0  0  0  0  0  0  0  0  0  0  0  0
   -1.8180   15.7060  -35.6950 C   0  0  0  0  0  0  0  0  0  0  0  0
   -2.3750   19.0950  -33.9470 N   0  0  0  0  0  0  0  0  0  0  0  0
   -1.1750   19.8720  -33.6350 C   0  0  0  0  0  0  0  0  0  0  0  0
   -3.6430   19.4260  -33.6390 C   0  0  0  0  0  0  0  0  0  0  0  0
   -4.1300   20.5780  -33.0170 C   0  0  0  0  0  0  0  0  0  0  0  0
   -5.2440   22.9220  -31.7040 C   0  0  0  0  0  0  0  0  0  0  0  0
   -3.4682   20.6373  -27.5640 H   0  0  0  0  0  0  0  0  0  0  0  0
   -1.9917   21.6453  -27.7390 H   0  0  0  0  0  0  0  0  0  0  0  0
   -3.6128   22.4192  -27.7390 H   0  0  0  0  0  0  0  0  0  0  0  0
   -2.6886   20.4028  -29.8485 H   0  0  0  0  0  0  0  0  0  0  0  0
   -4.1687   21.4317  -29.8761 H   0  0  0  0  0  0  0  0  0  0  0  0
   -1.5219   21.7772  -32.0516 H   0  0  0  0  0  0  0  0  0  0  0  0
   -0.3717   22.6101  -30.9409 H   0  0  0  0  0  0  0  0  0  0  0  0
   -0.8008   20.6074  -29.3321 H   0  0  0  0  0  0  0  0  0  0  0  0
   -1.4788   19.7786  -30.7744 H   0  0  0  0  0  0  0  0  0  0  0  0
    0.2322   20.3256  -30.7744 H   0  0  0  0  0  0  0  0  0  0  0  0
   -1.7952   22.9937  -28.2582 H   0  0  0  0  0  0  0  0  0  0  0  0
   -0.9381   23.8804  -29.5808 H   0  0  0  0  0  0  0  0  0  0  0  0
   -3.7122   24.3373  -28.4411 H   0  0  0  0  0  0  0  0  0  0  0  0
   -2.3876   25.5175  -28.7596 H   0  0  0  0  0  0  0  0  0  0  0  0
   -7.5711   25.0156  -30.3177 H   0  0  0  0  0  0  0  0  0  0  0  0
   -9.0724   23.1646  -31.0428 H   0  0  0  0  0  0  0  0  0  0  0  0
   -8.1341   21.1531  -32.1702 H   0  0  0  0  0  0  0  0  0  0  0  0
   -7.4481   19.6611  -32.9558 H   0  0  0  0  0  0  0  0  0  0  0  0
   -6.4928   17.6155  -34.0712 H   0  0  0  0  0  0  0  0  0  0  0  0
   -0.7981   17.5579  -35.7082 H   0  0  0  0  0  0  0  0  0  0  0  0
   -0.8398   16.7971  -32.8598 H   0  0  0  0  0  0  0  0  0  0  0  0
   -0.0374   15.5855  -33.9157 H   0  0  0  0  0  0  0  0  0  0  0  0
    0.5270   17.2908  -33.9157 H   0  0  0  0  0  0  0  0  0  0  0  0
   -2.1088   14.9397  -34.9614 H   0  0  0  0  0  0  0  0  0  0  0  0
   -2.6835   15.9567  -36.3259 H   0  0  0  0  0  0  0  0  0  0  0  0
   -1.0041   15.3194  -36.3259 H   0  0  0  0  0  0  0  0  0  0  0  0
   -1.0599   19.9465  -32.5436 H   0  0  0  0  0  0  0  0  0  0  0  0
   -0.2933   19.3729  -34.0634 H   0  0  0  0  0  0  0  0  0  0  0  0
   -1.2696   20.8807  -34.0634 H   0  0  0  0  0  0  0  0  0  0  0  0
   -3.4511   21.3945  -32.7298 H   0  0  0  0  0  0  0  0  0  0  0  0
   -4.1630   22.8557  -31.8965 H   0  0  0  0  0  0  0  0  0  0  0  0
  1  2  1  0
  2  3  1  0
  3  4  1  0
  4  5  1  0
  3  6  1  0
  6  7  1  0
  7  8  1  0
  8  9  1  0
  9 10  2  0
  9 11  1  0
 11 12  2  0
 12 13  1  0
 13 14  2  0
 14 15  1  0
 15 16  1  0
 16 17  2  0
 17 18  1  0
 18 19  2  0
 19 20  1  0
 20 21  2  0
 21 22  1  0
 22 23  1  0
 22 24  1  0
 21 25  1  0
 25 26  1  0
 25 27  1  0
 27 28  2  0
 15 29  2  0
 29 11  1  0
 28 16  1  0
 27 19  1  0
  1 30  1  0
  1 31  1  0
  1 32  1  0
  2 33  1  0
  2 34  1  0
  4 35  1  0
  4 36  1  0
  5 37  1  0
  5 38  1  0
  5 39  1  0
  6 40  1  0
  6 41  1  0
  7 42  1  0
  7 43  1  0
 12 44  1  0
 13 45  1  0
 14 46  1  0
 17 47  1  0
 18 48  1  0
 22 49  1  0
 23 50  1  0
 23 51  1  0
 23 52  1  0
 24 53  1  0
 24 54  1  0
 24 55  1  0
 26 56  1  0
 26 57  1  0
 26 58  1  0
 28 59  1  0
 29 60  1  0
M  CHG  1   8  -1
M  END
>  <UniqueID>  (31) 
31

>  <SMILES>  (31) 
CCN(CC)CC[N-]C(=O)c1cccc(-c2ccc3nc(C(C)C)n(C)c3c2)c1

>  <Energy>  (31) 
97.88220317935078

>  <Genealogy>  (31) 
CCN(CC)CC[N-]C(=O)c1cccc(-c2ccc3nc(C(C)C)n(C)c3c2)c1 (protonated)
CCN(CC)CC[N-]C(=O)c1cccc(-c2ccc3nc(C(C)C)n(C)c3c2)c1 (3D coordinates assigned)
CCN(CC)CC[N-]C(=O)c1cccc(-c2ccc3nc(C(C)C)n(C)c3c2)c1 (optimized conformer: 97.88220317935078 kcal/mol)

>  <smiles>  (31) 
CCN(CC)CCNC(=O)c1cccc(-c2ccc3nc(C(C)C)n(C)c3c2)c1

>  <score_type>  (31) 
oracle

>  <origin>  (31) 
adg

>  <m_score__min__energy>  (31) 
-10.42

>  <m_primary>  (31) 
energy

$$$$
31:0
     RDKit          3D

 42 44  0  0  0  0  0  0  0  0999 V2000
   -2.3770   24.6610  -28.6390 C   0  0  0  0  0  0  0  0  0  0  0  0
   -3.1620   25.1390  -29.7260 O   0  0  0  0  0  0  0  0  0  0  0  0
   -4.4130   24.6210  -30.0960 C   0  0  0  0  0  0  0  0  0  0  0  0
   -5.6140   25.3050  -29.8140 C   0  0  0  0  0  0  0  0  0  0  0  0
   -6.8430   24.7610  -30.1950 C   0  0  0  0  0  0  0  0  0  0  0  0
   -6.8910   23.5320  -30.8520 C   0  0  0  0  0  0  0  0  0  0  0  0
   -5.7100   22.8450  -31.1370 C   0  0  0  0  0  0  0  0  0  0  0  0
   -4.4630   23.3880  -30.7760 C   0  0  0  0  0  0  0  0  0  0  0  0
   -3.2450   22.6680  -31.0370 N   0  0  0  0  0  0  0  0  0  0  0  0
   -2.6760   21.7060  -30.1350 C   0  0  0  0  0  0  0  0  0  0  0  0
   -3.3680   21.2140  -29.2030 O   0  0  0  0  0  0  0  0  0  0  0  0
   -1.2470   21.2860  -30.2860 C   0  0  0  0  0  0  0  0  0  0  0  0
   -0.8130   21.1080  -32.0500 S   0  0  0  0  0  0  0  0  0  0  0  0
   -2.3770   20.3630  -32.5090 C   0  0  0  0  0  0  0  0  0  0  0  0
   -2.6650   19.0580  -32.3470 N   0  0  0  0  0  0  0  0  0  0  0  0
   -3.8940   18.8920  -32.8100 N   0  0  0  0  0  0  0  0  0  0  0  0
   -4.3010   20.1020  -33.2360 C   0  0  0  0  0  0  0  0  0  0  0  0
   -5.6500   20.3770  -33.8160 C   0  0  0  0  0  0  0  0  0  0  0  0
   -6.7160   19.7720  -32.9460 C   0  0  0  0  0  0  0  0  0  0  0  0
   -6.7730   18.3810  -32.7590 C   0  0  0  0  0  0  0  0  0  0  0  0
   -7.7840   17.8180  -31.9740 C   0  0  0  0  0  0  0  0  0  0  0  0
   -8.7480   18.6370  -31.3790 C   0  0  0  0  0  0  0  0  0  0  0  0
   -8.7050   20.0200  -31.5720 C   0  0  0  0  0  0  0  0  0  0  0  0
   -7.6970   20.5880  -32.3570 C   0  0  0  0  0  0  0  0  0  0  0  0
   -3.3770   21.0130  -33.0480 O   0  0  0  0  0  0  0  0  0  0  0  0
   -2.8512   24.9498  -27.6894 H   0  0  0  0  0  0  0  0  0  0  0  0
   -2.3037   23.5648  -28.6938 H   0  0  0  0  0  0  0  0  0  0  0  0
   -1.3695   25.0991  -28.6938 H   0  0  0  0  0  0  0  0  0  0  0  0
   -5.5826   26.2723  -29.2911 H   0  0  0  0  0  0  0  0  0  0  0  0
   -7.7747   25.3032  -29.9763 H   0  0  0  0  0  0  0  0  0  0  0  0
   -7.8606   23.1035  -31.1459 H   0  0  0  0  0  0  0  0  0  0  0  0
   -5.7543   21.8717  -31.6477 H   0  0  0  0  0  0  0  0  0  0  0  0
   -2.7570   22.8340  -31.9460 H   0  0  0  0  0  0  0  0  0  0  0  0
   -0.5965   22.0460  -29.8285 H   0  0  0  0  0  0  0  0  0  0  0  0
   -1.1078   20.3157  -29.7868 H   0  0  0  0  0  0  0  0  0  0  0  0
   -5.8048   21.4642  -33.8791 H   0  0  0  0  0  0  0  0  0  0  0  0
   -5.7086   19.9332  -34.8208 H   0  0  0  0  0  0  0  0  0  0  0  0
   -6.0202   17.7328  -33.2314 H   0  0  0  0  0  0  0  0  0  0  0  0
   -7.8208   16.7288  -31.8244 H   0  0  0  0  0  0  0  0  0  0  0  0
   -9.5404   18.1926  -30.7589 H   0  0  0  0  0  0  0  0  0  0  0  0
   -9.4656   20.6633  -31.1055 H   0  0  0  0  0  0  0  0  0  0  0  0
   -7.6717   21.6764  -32.5140 H   0  0  0  0  0  0  0  0  0  0  0  0
  1  2  1  0
  2  3  1  0
  3  4  2  0
  4  5  1  0
  5  6  2  0
  6  7  1  0
  7  8  2  0
  8  9  1  0
  9 10  1  0
 10 11  2  0
 10 12  1  0
 12 13  1  0
 13 14  1  0
 14 15  2  0
 15 16  1  0
 16 17  2  0
 17 18  1  0
 18 19  1  0
 19 20  2  0
 20 21  1  0
 21 22  2  0
 22 23  1  0
 23 24  2  0
 17 25  1  0
  8  3  1  0
 25 14  1  0
 24 19  1  0
  1 26  1  0
  1 27  1  0
  1 28  1  0
  4 29  1  0
  5 30  1  0
  6 31  1  0
  7 32  1  0
  9 33  1  0
 12 34  1  0
 12 35  1  0
 18 36  1  0
 18 37  1  0
 20 38  1  0
 21 39  1  0
 22 40  1  0
 23 41  1  0
 24 42  1  0
M  END
>  <UniqueID>  (32) 
32

>  <SMILES>  (32) 
COc1ccccc1NC(=O)CSc1nnc(Cc2ccccc2)o1

>  <Energy>  (32) 
74.59796674269798

>  <Genealogy>  (32) 
COc1ccccc1NC(=O)CSc1nnc(Cc2ccccc2)o1 (3D coordinates assigned)
COc1ccccc1NC(=O)CSc1nnc(Cc2ccccc2)o1 (optimized conformer: 74.59796674269798 kcal/mol)

>  <smiles>  (32) 
COc1ccccc1NC(=O)CSc1nnc(Cc2ccccc2)o1

>  <score_type>  (32) 
oracle

>  <origin>  (32) 
adg

>  <m_score__min__energy>  (32) 
-8.3499999999999996

>  <m_primary>  (32) 
energy

$$$$
32:0
     RDKit          3D

 38 39  0  0  0  0  0  0  0  0999 V2000
   -8.7010   18.9300  -32.0930 C   0  0  0  0  0  0  0  0  0  0  0  0
   -7.2580   19.2890  -32.4330 C   0  0  0  0  0  0  0  0  0  0  0  0
   -7.1810   20.6010  -32.9900 O   0  0  0  0  0  0  0  0  0  0  0  0
   -6.6560   21.7370  -32.3490 C   0  0  0  0  0  0  0  0  0  0  0  0
   -5.2850   22.0520  -32.3740 C   0  0  0  0  0  0  0  0  0  0  0  0
   -4.8280   23.1760  -31.7620 N   0  0  0  0  0  0  0  0  0  0  0  0
   -5.6590   24.0290  -31.1060 C   0  0  0  0  0  0  0  0  0  0  0  0
   -5.1050   25.2890  -30.5080 C   0  0  0  0  0  0  0  0  0  0  0  0
   -3.6440   25.2840  -30.5520 N   0  0  0  0  0  0  0  0  0  0  0  0
   -2.7870   24.7840  -29.5150 C   0  0  0  0  0  0  0  0  0  0  0  0
   -1.9670   25.5680  -28.9700 O   0  0  0  0  0  0  0  0  0  0  0  0
   -2.8250   23.3700  -29.0910 C   0  0  0  0  0  0  0  0  0  0  0  0
   -2.1620   22.3960  -29.8460 C   0  0  0  0  0  0  0  0  0  0  0  0
   -2.1810   21.0970  -29.4530 N   0  0  0  0  0  0  0  0  0  0  0  0
   -2.8400   20.7190  -28.3290 C   0  0  0  0  0  0  0  0  0  0  0  0
   -3.4930   21.6420  -27.5780 N   0  0  0  0  0  0  0  0  0  0  0  0
   -3.5030   22.9580  -27.9250 C   0  0  0  0  0  0  0  0  0  0  0  0
   -4.2240   23.9340  -27.0430 C   0  0  0  0  0  0  0  0  0  0  0  0
   -7.0290   23.7510  -31.0450 C   0  0  0  0  0  0  0  0  0  0  0  0
   -7.5320   22.5980  -31.6650 C   0  0  0  0  0  0  0  0  0  0  0  0
   -9.0080   22.3120  -31.6360 C   0  0  0  0  0  0  0  0  0  0  0  0
   -8.8235   18.8995  -31.0003 H   0  0  0  0  0  0  0  0  0  0  0  0
   -9.3769   19.6874  -32.5168 H   0  0  0  0  0  0  0  0  0  0  0  0
   -8.9432   17.9442  -32.5168 H   0  0  0  0  0  0  0  0  0  0  0  0
   -6.6509   19.2499  -31.5166 H   0  0  0  0  0  0  0  0  0  0  0  0
   -6.8799   18.5684  -33.1731 H   0  0  0  0  0  0  0  0  0  0  0  0
   -4.5796   21.3852  -32.8915 H   0  0  0  0  0  0  0  0  0  0  0  0
   -5.4802   26.1533  -31.0757 H   0  0  0  0  0  0  0  0  0  0  0  0
   -5.4265   25.3527  -29.4580 H   0  0  0  0  0  0  0  0  0  0  0  0
   -1.6237   22.6841  -30.7610 H   0  0  0  0  0  0  0  0  0  0  0  0
   -2.8451   19.6617  -28.0255 H   0  0  0  0  0  0  0  0  0  0  0  0
   -4.0379   23.6821  -25.9885 H   0  0  0  0  0  0  0  0  0  0  0  0
   -3.8590   24.9514  -27.2469 H   0  0  0  0  0  0  0  0  0  0  0  0
   -5.3038   23.8841  -27.2469 H   0  0  0  0  0  0  0  0  0  0  0  0
   -7.7082   24.4336  -30.5133 H   0  0  0  0  0  0  0  0  0  0  0  0
   -9.3483   22.2461  -30.5920 H   0  0  0  0  0  0  0  0  0  0  0  0
   -9.5486   23.1221  -32.1474 H   0  0  0  0  0  0  0  0  0  0  0  0
   -9.2069   21.3586  -32.1474 H   0  0  0  0  0  0  0  0  0  0  0  0
  1  2  1  0
  2  3  1  0
  3  4  1  0
  4  5  2  0
  5  6  1  0
  6  7  2  0
  7  8  1  0
  8  9  1  0
  9 10  1  0
 10 11  2  0
 10 12  1  0
 12 13  2  0
 13 14  1  0
 14 15  2  0
 15 16  1  0
 16 17  2  0
 17 18  1  0
  7 19  1  0
 19 20  2  0
 20 21  1  0
 20  4  1  0
 17 12  1  0
  1 22  1  0
  1 23  1  0
  1 24  1  0
  2 25  1  0
  2 26  1  0
  5 27  1  0
  8 28  1  0
  8 29  1  0
 13 30  1  0
 15 31  1  0
 18 32  1  0
 18 33  1  0
 18 34  1  0
 19 35  1  0
 21 36  1  0
 21 37  1  0
 21 38  1  0
M  CHG  1   9  -1
M  END
>  <UniqueID>  (33) 
33

>  <SMILES>  (33) 
CCOc1cnc(C[N-]C(=O)c2cncnc2C)cc1C

>  <Energy>  (33) 
38.88232130538859

>  <Genealogy>  (33) 
CCOc1cnc(C[N-]C(=O)c2cncnc2C)cc1C (protonated)
CCOc1cnc(C[N-]C(=O)c2cncnc2C)cc1C (3D coordinates assigned)
CCOc1cnc(C[N-]C(=O)c2cncnc2C)cc1C (optimized conformer: 38.88232130538859 kcal/mol)

>  <smiles>  (33) 
CCOc1cnc(CNC(=O)c2cncnc2C)cc1C

>  <score_type>  (33) 
oracle

>  <origin>  (33) 
adg

>  <m_score__min__energy>  (33) 
-8.9000000000000004

>  <m_primary>  (33) 
energy

$$$$
33:0
     RDKit          3D

 46 47  0  0  0  0  0  0  0  0999 V2000
   -6.0940   17.2320  -31.9470 C   0  0  0  0  0  0  0  0  0  0  0  0
   -4.8030   16.7400  -32.5960 C   0  0  0  0  0  0  0  0  0  0  0  0
   -4.2110   17.8080  -33.4350 N   0  0  0  0  0  0  0  0  0  0  0  0
   -4.4260   17.5360  -34.8750 C   0  0  0  0  0  0  0  0  0  0  0  0
   -5.7310   18.1740  -35.3430 C   0  0  0  0  0  0  0  0  0  0  0  0
   -2.7710   17.9860  -33.1380 C   0  0  0  0  0  0  0  0  0  0  0  0
   -2.5310   19.3710  -32.5180 C   0  0  0  0  0  0  0  0  0  0  0  0
   -3.0750   20.5010  -33.4020 C   0  0  0  0  0  0  0  0  0  0  0  0
   -4.5400   20.5120  -33.4150 N   0  0  0  0  0  0  0  0  0  0  0  0
   -5.3470   21.4740  -32.7050 C   0  0  0  0  0  0  0  0  0  0  0  0
   -4.7880   22.6750  -32.2270 C   0  0  0  0  0  0  0  0  0  0  0  0
   -5.5650   23.6080  -31.5320 C   0  0  0  0  0  0  0  0  0  0  0  0
   -4.9420   24.7820  -31.0800 O   0  0  0  0  0  0  0  0  0  0  0  0
   -5.5100   25.6830  -30.1350 C   0  0  0  0  0  0  0  0  0  0  0  0
   -6.9280   23.3460  -31.3090 C   0  0  0  0  0  0  0  0  0  0  0  0
   -7.5040   22.1610  -31.7830 C   0  0  0  0  0  0  0  0  0  0  0  0
   -8.8610   21.8810  -31.5650 C   0  0  0  0  0  0  0  0  0  0  0  0
   -9.4100   20.6890  -32.0370 C   0  0  0  0  0  0  0  0  0  0  0  0
   -8.5970   19.7840  -32.7220 C   0  0  0  0  0  0  0  0  0  0  0  0
   -7.2840   20.0660  -32.9270 N   0  0  0  0  0  0  0  0  0  0  0  0
   -6.7140   21.2220  -32.4850 C   0  0  0  0  0  0  0  0  0  0  0  0
   -5.9921   17.1932  -30.8524 H   0  0  0  0  0  0  0  0  0  0  0  0
   -6.2903   18.2680  -32.2604 H   0  0  0  0  0  0  0  0  0  0  0  0
   -6.9300   16.5894  -32.2604 H   0  0  0  0  0  0  0  0  0  0  0  0
   -4.0870   16.4565  -31.8106 H   0  0  0  0  0  0  0  0  0  0  0  0
   -5.0297   15.8704  -33.2303 H   0  0  0  0  0  0  0  0  0  0  0  0
   -3.5890   17.9551  -35.4528 H   0  0  0  0  0  0  0  0  0  0  0  0
   -4.4824   16.4485  -35.0302 H   0  0  0  0  0  0  0  0  0  0  0  0
   -6.3302   18.4670  -34.4683 H   0  0  0  0  0  0  0  0  0  0  0  0
   -5.5072   19.0643  -35.9490 H   0  0  0  0  0  0  0  0  0  0  0  0
   -6.2962   17.4506  -35.9490 H   0  0  0  0  0  0  0  0  0  0  0  0
   -2.4459   17.2087  -32.4308 H   0  0  0  0  0  0  0  0  0  0  0  0
   -2.1962   17.9035  -34.0722 H   0  0  0  0  0  0  0  0  0  0  0  0
   -3.0321   19.4134  -31.5397 H   0  0  0  0  0  0  0  0  0  0  0  0
   -1.4450   19.5132  -32.4165 H   0  0  0  0  0  0  0  0  0  0  0  0
   -2.7134   21.4646  -33.0138 H   0  0  0  0  0  0  0  0  0  0  0  0
   -2.7211   20.3366  -34.4305 H   0  0  0  0  0  0  0  0  0  0  0  0
   -5.0130   19.7140  -33.8960 H   0  0  0  0  0  0  0  0  0  0  0  0
   -3.7223   22.8830  -32.4031 H   0  0  0  0  0  0  0  0  0  0  0  0
   -5.2892   25.3328  -29.1159 H   0  0  0  0  0  0  0  0  0  0  0  0
   -5.0800   26.6851  -30.2795 H   0  0  0  0  0  0  0  0  0  0  0  0
   -6.5996   25.7272  -30.2795 H   0  0  0  0  0  0  0  0  0  0  0  0
   -7.5438   24.0740  -30.7606 H   0  0  0  0  0  0  0  0  0  0  0  0
   -9.4915   22.6008  -31.0224 H   0  0  0  0  0  0  0  0  0  0  0  0
  -10.4739   20.4639  -31.8711 H   0  0  0  0  0  0  0  0  0  0  0  0
   -9.0206   18.8405  -33.0966 H   0  0  0  0  0  0  0  0  0  0  0  0
  1  2  1  0
  2  3  1  0
  3  4  1  0
  4  5  1  0
  3  6  1  0
  6  7  1  0
  7  8  1  0
  8  9  1  0
  9 10  1  0
 10 11  2  0
 11 12  1  0
 12 13  1  0
 13 14  1  0
 12 15  2  0
 15 16  1  0
 16 17  2  0
 17 18  1  0
 18 19  2  0
 19 20  1  0
 20 21  2  0
 21 10  1  0
 21 16  1  0
  1 22  1  0
  1 23  1  0
  1 24  1  0
  2 25  1  0
  2 26  1  0
  4 27  1  0
  4 28  1  0
  5 29  1  0
  5 30  1  0
  5 31  1  0
  6 32  1  0
  6 33  1  0
  7 34  1  0
  7 35  1  0
  8 36  1  0
  8 37  1  0
  9 38  1  0
 11 39  1  0
 14 40  1  0
 14 41  1  0
 14 42  1  0
 15 43  1  0
 17 44  1  0
 18 45  1  0
 19 46  1  0
M  END
>  <UniqueID>  (34) 
34

>  <SMILES>  (34) 
CCN(CC)CCCNc1cc(OC)cc2cccnc12

>  <Energy>  (34) 
43.56628649270064

>  <Genealogy>  (34) 
CCN(CC)CCCNc1cc(OC)cc2cccnc12 (3D coordinates assigned)
CCN(CC)CCCNc1cc(OC)cc2cccnc12 (optimized conformer: 43.56628649270064 kcal/mol)

>  <smiles>  (34) 
CCN(CC)CCCNc1cc(OC)cc2cccnc12

>  <score_type>  (34) 
oracle

>  <origin>  (34) 
adg

>  <m_score__min__energy>  (34) 
-7.5300000000000002

>  <m_primary>  (34) 
energy

$$$$
34:0
     RDKit          3D

 54 53  0  0  0  0  0  0  0  0999 V2000
   -6.5310   19.7500  -33.3710 C   0  0  0  0  0  0  0  0  0  0  0  0
   -7.6150   18.9160  -32.6890 C   0  0  0  0  0  0  0  0  0  0  0  0
   -8.3280   19.6740  -31.5570 C   0  0  0  0  0  0  0  0  0  0  0  0
   -9.4690   20.5670  -32.0740 C   0  0  0  0  0  0  0  0  0  0  0  0
   -9.1610   22.0700  -31.9420 C   0  0  0  0  0  0  0  0  0  0  0  0
   -7.8770   22.4090  -31.1640 C   0  0  0  0  0  0  0  0  0  0  0  0
   -7.1330   23.6250  -31.7340 C   0  0  0  0  0  0  0  0  0  0  0  0
   -6.4740   24.4380  -30.6160 C   0  0  0  0  0  0  0  0  0  0  0  0
   -5.0070   24.5810  -30.8700 C   0  0  0  0  0  0  0  0  0  0  0  0
   -4.4470   25.6980  -30.6960 O   0  0  0  0  0  0  0  0  0  0  0  0
   -4.2620   23.4580  -31.2480 O   0  0  0  0  0  0  0  0  0  0  0  0
   -4.4680   22.1590  -30.6980 C   0  0  0  0  0  0  0  0  0  0  0  0
   -3.1260   21.4620  -30.4470 C   0  0  0  0  0  0  0  0  0  0  0  0
   -2.1610   22.4010  -29.8320 N   0  0  0  0  0  0  0  0  0  0  0  0
   -0.8010   22.2120  -30.3870 C   0  0  0  0  0  0  0  0  0  0  0  0
   -0.8650   21.4450  -31.7050 C   0  0  0  0  0  0  0  0  0  0  0  0
   -2.1670   22.3010  -28.3490 C   0  0  0  0  0  0  0  0  0  0  0  0
   -1.5140   23.5420  -27.7290 C   0  0  0  0  0  0  0  0  0  0  0  0
   -2.3770   24.7990  -27.8790 C   0  0  0  0  0  0  0  0  0  0  0  0
   -2.4200   25.2140  -29.2770 N   0  0  0  0  0  0  0  0  0  0  0  0
   -5.9041   20.2323  -32.6065 H   0  0  0  0  0  0  0  0  0  0  0  0
   -5.9067   19.0971  -33.9987 H   0  0  0  0  0  0  0  0  0  0  0  0
   -7.0020   20.5208  -33.9987 H   0  0  0  0  0  0  0  0  0  0  0  0
   -8.3620   18.6268  -33.4429 H   0  0  0  0  0  0  0  0  0  0  0  0
   -7.1248   18.0387  -32.2418 H   0  0  0  0  0  0  0  0  0  0  0  0
   -8.7456   18.9417  -30.8504 H   0  0  0  0  0  0  0  0  0  0  0  0
   -7.5864   20.3260  -31.0723 H   0  0  0  0  0  0  0  0  0  0  0  0
   -9.6418   20.3361  -33.1355 H   0  0  0  0  0  0  0  0  0  0  0  0
  -10.3567   20.3569  -31.4594 H   0  0  0  0  0  0  0  0  0  0  0  0
   -9.0658   22.4883  -32.9549 H   0  0  0  0  0  0  0  0  0  0  0  0
   -9.9914   22.5026  -31.3647 H   0  0  0  0  0  0  0  0  0  0  0  0
   -8.1463   22.6212  -30.1188 H   0  0  0  0  0  0  0  0  0  0  0  0
   -7.2038   21.5430  -31.2471 H   0  0  0  0  0  0  0  0  0  0  0  0
   -6.3568   23.2774  -32.4316 H   0  0  0  0  0  0  0  0  0  0  0  0
   -7.8584   24.2678  -32.2542 H   0  0  0  0  0  0  0  0  0  0  0  0
   -6.9337   25.4365  -30.5748 H   0  0  0  0  0  0  0  0  0  0  0  0
   -6.6210   23.9142  -29.6599 H   0  0  0  0  0  0  0  0  0  0  0  0
   -5.0114   22.2512  -29.7461 H   0  0  0  0  0  0  0  0  0  0  0  0
   -5.0517   21.5594  -31.4120 H   0  0  0  0  0  0  0  0  0  0  0  0
   -3.2822   20.6088  -29.7705 H   0  0  0  0  0  0  0  0  0  0  0  0
   -2.7205   21.1143  -31.4086 H   0  0  0  0  0  0  0  0  0  0  0  0
   -0.3413   23.1958  -30.5623 H   0  0  0  0  0  0  0  0  0  0  0  0
   -0.1996   21.6360  -29.6683 H   0  0  0  0  0  0  0  0  0  0  0  0
   -0.9548   20.3683  -31.4986 H   0  0  0  0  0  0  0  0  0  0  0  0
   -1.7382   21.7817  -32.2831 H   0  0  0  0  0  0  0  0  0  0  0  0
    0.0519   21.6323  -32.2831 H   0  0  0  0  0  0  0  0  0  0  0  0
   -3.2055   22.2222  -27.9949 H   0  0  0  0  0  0  0  0  0  0  0  0
   -1.5975   21.4092  -28.0483 H   0  0  0  0  0  0  0  0  0  0  0  0
   -1.3477   23.3546  -26.6579 H   0  0  0  0  0  0  0  0  0  0  0  0
   -0.5682   23.7218  -28.2611 H   0  0  0  0  0  0  0  0  0  0  0  0
   -3.3982   24.5826  -27.5322 H   0  0  0  0  0  0  0  0  0  0  0  0
   -1.9407   25.6092  -27.2763 H   0  0  0  0  0  0  0  0  0  0  0  0
   -2.8830   24.4540  -29.8300 H   0  0  0  0  0  0  0  0  0  0  0  0
   -3.0460   26.0500  -29.3420 H   0  0  0  0  0  0  0  0  0  0  0  0
  1  2  1  0
  2  3  1  0
  3  4  1  0
  4  5  1  0
  5  6  1  0
  6  7  1  0
  7  8  1  0
  8  9  1  0
  9 10  2  0
  9 11  1  0
 11 12  1  0
 12 13  1  0
 13 14  1  0
 14 15  1  0
 15 16  1  0
 14 17  1  0
 17 18  1  0
 18 19  1  0
 19 20  1  0
  1 21  1  0
  1 22  1  0
  1 23  1  0
  2 24  1  0
  2 25  1  0
  3 26  1  0
  3 27  1  0
  4 28  1  0
  4 29  1  0
  5 30  1  0
  5 31  1  0
  6 32  1  0
  6 33  1  0
  7 34  1  0
  7 35  1  0
  8 36  1  0
  8 37  1  0
 12 38  1  0
 12 39  1  0
 13 40  1  0
 13 41  1  0
 15 42  1  0
 15 43  1  0
 16 44  1  0
 16 45  1  0
 16 46  1  0
 17 47  1  0
 17 48  1  0
 18 49  1  0
 18 50  1  0
 19 51  1  0
 19 52  1  0
 20 53  1  0
 20 54  1  0
M  END
>  <UniqueID>  (35) 
35

>  <SMILES>  (35) 
CCCCCCCCC(=O)OCCN(CC)CCCN

>  <Energy>  (35) 
28.846076688092715

>  <Genealogy>  (35) 
CCCCCCCCC(=O)OCCN(CC)CCCN (3D coordinates assigned)
CCCCCCCCC(=O)OCCN(CC)CCCN (optimized conformer: 28.846076688092715 kcal/mol)

>  <smiles>  (35) 
CCCCCCCCC(=O)OCCN(CC)CCCN

>  <score_type>  (35) 
oracle

>  <origin>  (35) 
adg

>  <m_score__min__energy>  (35) 
-5.9299999999999997

>  <m_primary>  (35) 
energy

$$$$
35:0
     RDKit          3D

 37 37  0  0  0  0  0  0  0  0999 V2000
   -6.1830   17.2530  -34.1940 C   0  0  0  0  0  0  0  0  0  0  0  0
   -5.4950   18.5680  -34.5610 C   0  0  0  0  0  0  0  0  0  0  0  0
   -4.6840   19.1620  -33.3970 C   0  0  0  0  0  0  0  0  0  0  0  0
   -3.4330   19.9520  -33.8300 C   0  0  0  0  0  0  0  0  0  0  0  0
   -3.5670   21.4110  -33.6130 N   0  0  0  0  0  0  0  0  0  0  0  0
   -3.2920   21.7860  -32.2160 C   0  0  0  0  0  0  0  0  0  0  0  0
   -4.4780   22.5450  -31.6080 C   0  0  0  0  0  0  0  0  0  0  0  0
   -5.5490   22.6420  -32.5470 O   0  0  0  0  0  0  0  0  0  0  0  0
   -6.8560   22.1630  -32.3500 C   0  0  0  0  0  0  0  0  0  0  0  0
   -7.8770   23.1000  -32.1600 C   0  0  0  0  0  0  0  0  0  0  0  0
   -9.1950   22.6820  -31.9520 C   0  0  0  0  0  0  0  0  0  0  0  0
   -9.5050   21.3200  -31.9400 C   0  0  0  0  0  0  0  0  0  0  0  0
   -8.4980   20.3660  -32.1500 C   0  0  0  0  0  0  0  0  0  0  0  0
   -8.8240   18.9030  -32.1010 C   0  0  0  0  0  0  0  0  0  0  0  0
   -7.1730   20.7890  -32.3420 C   0  0  0  0  0  0  0  0  0  0  0  0
   -6.2326   17.1582  -33.0992 H   0  0  0  0  0  0  0  0  0  0  0  0
   -7.2015   17.2437  -34.6094 H   0  0  0  0  0  0  0  0  0  0  0  0
   -5.6099   16.4110  -34.6094 H   0  0  0  0  0  0  0  0  0  0  0  0
   -4.8147   18.3848  -35.4058 H   0  0  0  0  0  0  0  0  0  0  0  0
   -6.2816   19.2921  -34.8198 H   0  0  0  0  0  0  0  0  0  0  0  0
   -5.3401   19.8398  -32.8312 H   0  0  0  0  0  0  0  0  0  0  0  0
   -4.3264   18.3118  -32.7976 H   0  0  0  0  0  0  0  0  0  0  0  0
   -2.5712   19.5890  -33.2508 H   0  0  0  0  0  0  0  0  0  0  0  0
   -3.2989   19.7906  -34.9098 H   0  0  0  0  0  0  0  0  0  0  0  0
   -2.9370   21.9480  -34.2530 H   0  0  0  0  0  0  0  0  0  0  0  0
   -4.5510   21.6920  -33.8370 H   0  0  0  0  0  0  0  0  0  0  0  0
   -3.1085   20.8745  -31.6281 H   0  0  0  0  0  0  0  0  0  0  0  0
   -2.4087   22.4412  -32.1960 H   0  0  0  0  0  0  0  0  0  0  0  0
   -4.8292   22.0096  -30.7135 H   0  0  0  0  0  0  0  0  0  0  0  0
   -4.1490   23.5599  -31.3403 H   0  0  0  0  0  0  0  0  0  0  0  0
   -7.6412   24.1743  -32.1743 H   0  0  0  0  0  0  0  0  0  0  0  0
   -9.9893   23.4271  -31.7975 H   0  0  0  0  0  0  0  0  0  0  0  0
  -10.5412   20.9947  -31.7655 H   0  0  0  0  0  0  0  0  0  0  0  0
   -8.8963   18.5784  -31.0525 H   0  0  0  0  0  0  0  0  0  0  0  0
   -9.7840   18.7241  -32.6073 H   0  0  0  0  0  0  0  0  0  0  0  0
   -8.0307   18.3334  -32.6073 H   0  0  0  0  0  0  0  0  0  0  0  0
   -6.3771   20.0437  -32.4871 H   0  0  0  0  0  0  0  0  0  0  0  0
  1  2  1  0
  2  3  1  0
  3  4  1  0
  4  5  1  0
  5  6  1  0
  6  7  1  0
  7  8  1  0
  8  9  1  0
  9 10  2  0
 10 11  1  0
 11 12  2  0
 12 13  1  0
 13 14  1  0
 13 15  2  0
 15  9  1  0
  1 16  1  0
  1 17  1  0
  1 18  1  0
  2 19  1  0
  2 20  1  0
  3 21  1  0
  3 22  1  0
  4 23  1  0
  4 24  1  0
  5 25  1  0
  5 26  1  0
  6 27  1  0
  6 28  1  0
  7 29  1  0
  7 30  1  0
 10 31  1  0
 11 32  1  0
 12 33  1  0
 14 34  1  0
 14 35  1  0
 14 36  1  0
 15 37  1  0
M  CHG  1   5   1
M  END
>  <UniqueID>  (36) 
36

>  <SMILES>  (36) 
CCCC[NH2+]CCOc1cccc(C)c1

>  <Energy>  (36) 
29.2406709106351

>  <Genealogy>  (36) 
CCCC[NH2+]CCOc1cccc(C)c1 (protonated)
CCCC[NH2+]CCOc1cccc(C)c1 (3D coordinates assigned)
CCCC[NH2+]CCOc1cccc(C)c1 (optimized conformer: 29.2406709106351 kcal/mol)

>  <smiles>  (36) 
CCCCNCCOc1cccc(C)c1

>  <score_type>  (36) 
oracle

>  <origin>  (36) 
adg

>  <m_score__min__energy>  (36) 
-5.0199999999999996

>  <m_primary>  (36) 
energy

$$$$
36:0
     RDKit          3D

 42 44  0  0  0  0  0  0  0  0999 V2000
   -9.8450   20.7770  -32.3180 C   0  0  0  0  0  0  0  0  0  0  0  0
   -9.4170   19.5170  -32.4290 C   0  0  0  0  0  0  0  0  0  0  0  0
   -8.2510   19.0000  -31.6300 C   0  0  0  0  0  0  0  0  0  0  0  0
   -6.9750   19.5850  -32.1110 N   0  0  0  0  0  0  0  0  0  0  0  0
   -6.6180   20.8430  -31.6740 C   0  0  0  0  0  0  0  0  0  0  0  0
   -7.3850   21.4770  -30.8990 O   0  0  0  0  0  0  0  0  0  0  0  0
   -5.4040   21.4470  -32.0770 C   0  0  0  0  0  0  0  0  0  0  0  0
   -4.9620   22.7910  -31.4820 C   0  0  0  0  0  0  0  0  0  0  0  0
   -4.3220   22.6640  -30.0640 C   0  0  0  0  0  0  0  0  0  0  0  0
   -5.0760   23.4540  -28.9850 C   0  0  0  0  0  0  0  0  0  0  0  0
   -5.2620   24.9250  -29.3860 C   0  0  0  0  0  0  0  0  0  0  0  0
   -5.7230   25.1210  -30.8480 C   0  0  0  0  0  0  0  0  0  0  0  0
   -6.1200   23.8100  -31.5370 C   0  0  0  0  0  0  0  0  0  0  0  0
   -4.6260   20.7940  -33.0590 C   0  0  0  0  0  0  0  0  0  0  0  0
   -3.5280   21.4140  -33.6700 O   0  0  0  0  0  0  0  0  0  0  0  0
   -4.9630   19.4930  -33.4610 C   0  0  0  0  0  0  0  0  0  0  0  0
   -4.1390   18.7940  -34.3670 C   0  0  0  0  0  0  0  0  0  0  0  0
   -4.4570   17.4970  -34.7600 C   0  0  0  0  0  0  0  0  0  0  0  0
   -5.5960   16.8780  -34.2600 C   0  0  0  0  0  0  0  0  0  0  0  0
   -6.4320   17.5550  -33.3720 C   0  0  0  0  0  0  0  0  0  0  0  0
   -6.1420   18.8820  -32.9600 C   0  0  0  0  0  0  0  0  0  0  0  0
  -10.7005   21.1221  -32.9172 H   0  0  0  0  0  0  0  0  0  0  0  0
   -9.3421   21.4699  -31.6274 H   0  0  0  0  0  0  0  0  0  0  0  0
   -9.9314   18.8374  -33.1244 H   0  0  0  0  0  0  0  0  0  0  0  0
   -8.3930   19.2672  -30.5724 H   0  0  0  0  0  0  0  0  0  0  0  0
   -8.2021   17.9075  -31.7485 H   0  0  0  0  0  0  0  0  0  0  0  0
   -4.1465   23.1763  -32.1117 H   0  0  0  0  0  0  0  0  0  0  0  0
   -4.3146   21.6018  -29.7780 H   0  0  0  0  0  0  0  0  0  0  0  0
   -3.3070   23.0835  -30.1257 H   0  0  0  0  0  0  0  0  0  0  0  0
   -6.0654   22.9974  -28.8344 H   0  0  0  0  0  0  0  0  0  0  0  0
   -4.4832   23.4226  -28.0589 H   0  0  0  0  0  0  0  0  0  0  0  0
   -6.0161   25.3725  -28.7219 H   0  0  0  0  0  0  0  0  0  0  0  0
   -4.2783   25.4085  -29.2934 H   0  0  0  0  0  0  0  0  0  0  0  0
   -6.5918   25.7957  -30.8532 H   0  0  0  0  0  0  0  0  0  0  0  0
   -4.8720   25.5389  -31.4059 H   0  0  0  0  0  0  0  0  0  0  0  0
   -6.9981   23.3862  -31.0278 H   0  0  0  0  0  0  0  0  0  0  0  0
   -6.3544   24.0217  -32.5907 H   0  0  0  0  0  0  0  0  0  0  0  0
   -3.1610   21.1570  -34.5750 H   0  0  0  0  0  0  0  0  0  0  0  0
   -3.2361   19.2784  -34.7671 H   0  0  0  0  0  0  0  0  0  0  0  0
   -3.8060   16.9618  -35.4669 H   0  0  0  0  0  0  0  0  0  0  0  0
   -5.8395   15.8498  -34.5657 H   0  0  0  0  0  0  0  0  0  0  0  0
   -7.3305   17.0524  -32.9848 H   0  0  0  0  0  0  0  0  0  0  0  0
  1  2  2  0
  2  3  1  0
  3  4  1  0
  4  5  1  0
  5  6  2  0
  5  7  1  0
  7  8  1  0
  8  9  1  0
  9 10  1  0
 10 11  1  0
 11 12  1  0
 12 13  1  0
  7 14  2  0
 14 15  1  0
 14 16  1  0
 16 17  2  0
 17 18  1  0
 18 19  2  0
 19 20  1  0
 20 21  2  0
 21  4  1  0
 13  8  1  0
 21 16  1  0
  1 22  1  0
  1 23  1  0
  2 24  1  0
  3 25  1  0
  3 26  1  0
  8 27  1  0
  9 28  1  0
  9 29  1  0
 10 30  1  0
 10 31  1  0
 11 32  1  0
 11 33  1  0
 12 34  1  0
 12 35  1  0
 13 36  1  0
 13 37  1  0
 15 38  1  0
 17 39  1  0
 18 40  1  0
 19 41  1  0
 20 42  1  0
M  END
>  <UniqueID>  (37) 
37

>  <SMILES>  (37) 
C=CCn1c(=O)c(C2CCCCC2)c(O)c2ccccc21

>  <Energy>  (37) 
62.919609537999555

>  <Genealogy>  (37) 
C=CCn1c(=O)c(C2CCCCC2)c(O)c2ccccc21 (3D coordinates assigned)
C=CCn1c(=O)c(C2CCCCC2)c(O)c2ccccc21 (nonaromatic ring conformer: 62.919609537999555 kcal/mol)

>  <smiles>  (37) 
C=CCn1c(=O)c(C2CCCCC2)c(O)c2ccccc21

>  <score_type>  (37) 
oracle

>  <origin>  (37) 
adg

>  <m_score__min__energy>  (37) 
-7.96

>  <m_primary>  (37) 
energy

$$$$
37:0
     RDKit          3D

 50 52  0  0  0  0  0  0  0  0999 V2000
   -1.5560   26.4280  -25.0660 C   0  0  0  0  0  0  0  0  0  0  0  0
   -1.7210   25.1500  -25.6740 O   0  0  0  0  0  0  0  0  0  0  0  0
   -2.3120   24.9440  -26.9290 C   0  0  0  0  0  0  0  0  0  0  0  0
   -3.5920   24.3930  -27.0910 C   0  0  0  0  0  0  0  0  0  0  0  0
   -4.1020   24.2220  -28.3380 N   0  0  0  0  0  0  0  0  0  0  0  0
   -3.3930   24.5690  -29.4460 C   0  0  0  0  0  0  0  0  0  0  0  0
   -3.8910   24.4290  -30.6410 N   0  0  0  0  0  0  0  0  0  0  0  0
   -4.4470   23.2320  -31.2090 C   0  0  0  0  0  0  0  0  0  0  0  0
   -5.8290   23.0200  -31.2990 C   0  0  0  0  0  0  0  0  0  0  0  0
   -6.3000   21.8230  -31.8290 C   0  0  0  0  0  0  0  0  0  0  0  0
   -5.3890   20.8410  -32.2420 C   0  0  0  0  0  0  0  0  0  0  0  0
   -5.8520   19.5880  -32.7910 N   0  0  0  0  0  0  0  0  0  0  0  0
   -5.7690   19.3380  -34.2390 C   0  0  0  0  0  0  0  0  0  0  0  0
   -5.6430   17.8380  -34.5180 C   0  0  0  0  0  0  0  0  0  0  0  0
   -6.8270   17.0310  -33.9260 C   0  0  0  0  0  0  0  0  0  0  0  0
   -6.4130   15.5670  -33.6510 C   0  0  0  0  0  0  0  0  0  0  0  0
   -4.9460   15.4340  -33.4950 N   0  0  0  0  0  0  0  0  0  0  0  0
   -4.3710   14.5960  -34.5630 C   0  0  0  0  0  0  0  0  0  0  0  0
   -4.6270   14.8450  -32.1860 C   0  0  0  0  0  0  0  0  0  0  0  0
   -7.4180   17.6860  -32.6490 C   0  0  0  0  0  0  0  0  0  0  0  0
   -6.3970   18.5510  -31.9020 C   0  0  0  0  0  0  0  0  0  0  0  0
   -4.0540   21.0870  -32.1000 N   0  0  0  0  0  0  0  0  0  0  0  0
   -3.6050   22.2380  -31.5960 N   0  0  0  0  0  0  0  0  0  0  0  0
   -2.1560   25.1140  -29.3060 N   0  0  0  0  0  0  0  0  0  0  0  0
   -1.6060   25.3030  -28.0780 C   0  0  0  0  0  0  0  0  0  0  0  0
   -1.5702   26.3180  -23.9716 H   0  0  0  0  0  0  0  0  0  0  0  0
   -0.5945   26.8613  -25.3785 H   0  0  0  0  0  0  0  0  0  0  0  0
   -2.3760   27.0913  -25.3785 H   0  0  0  0  0  0  0  0  0  0  0  0
   -4.1814   24.1000  -26.2096 H   0  0  0  0  0  0  0  0  0  0  0  0
   -6.5336   23.7912  -30.9545 H   0  0  0  0  0  0  0  0  0  0  0  0
   -7.3819   21.6481  -31.9235 H   0  0  0  0  0  0  0  0  0  0  0  0
   -6.6781   19.7215  -34.7252 H   0  0  0  0  0  0  0  0  0  0  0  0
   -4.8808   19.8498  -34.6379 H   0  0  0  0  0  0  0  0  0  0  0  0
   -5.6164   17.6811  -35.6064 H   0  0  0  0  0  0  0  0  0  0  0  0
   -4.7187   17.4819  -34.0396 H   0  0  0  0  0  0  0  0  0  0  0  0
   -7.6241   17.0364  -34.6840 H   0  0  0  0  0  0  0  0  0  0  0  0
   -6.9024   15.2254  -32.7270 H   0  0  0  0  0  0  0  0  0  0  0  0
   -6.7239   14.9549  -34.5104 H   0  0  0  0  0  0  0  0  0  0  0  0
   -3.8029   13.7681  -34.1137 H   0  0  0  0  0  0  0  0  0  0  0  0
   -5.1811   14.1892  -35.1861 H   0  0  0  0  0  0  0  0  0  0  0  0
   -3.7000   15.2055  -35.1861 H   0  0  0  0  0  0  0  0  0  0  0  0
   -4.9871   15.5099  -31.3872 H   0  0  0  0  0  0  0  0  0  0  0  0
   -5.1174   13.8645  -32.0958 H   0  0  0  0  0  0  0  0  0  0  0  0
   -3.5379   14.7199  -32.0958 H   0  0  0  0  0  0  0  0  0  0  0  0
   -8.2696   18.3186  -32.9398 H   0  0  0  0  0  0  0  0  0  0  0  0
   -7.7261   16.8757  -31.9718 H   0  0  0  0  0  0  0  0  0  0  0  0
   -6.8890   19.0320  -31.0438 H   0  0  0  0  0  0  0  0  0  0  0  0
   -5.5728   17.9098  -31.5562 H   0  0  0  0  0  0  0  0  0  0  0  0
   -3.3520   20.3760  -32.4020 H   0  0  0  0  0  0  0  0  0  0  0  0
   -0.6007   25.7405  -27.9892 H   0  0  0  0  0  0  0  0  0  0  0  0
  1  2  1  0
  2  3  1  0
  3  4  1  0
  4  5  2  0
  5  6  1  0
  6  7  2  3
  7  8  1  0
  8  9  2  0
  9 10  1  0
 10 11  2  0
 11 12  1  0
 12 13  1  0
 13 14  1  0
 14 15  1  0
 15 16  1  0
 16 17  1  0
 17 18  1  0
 17 19  1  0
 15 20  1  0
 20 21  1  0
 11 22  1  0
 22 23  2  0
  6 24  1  0
 24 25  1  0
 25  3  2  0
 23  8  1  0
 21 12  1  0
  1 26  1  0
  1 27  1  0
  1 28  1  0
  4 29  1  0
  9 30  1  0
 10 31  1  0
 13 32  1  0
 13 33  1  0
 14 34  1  0
 14 35  1  0
 15 36  1  0
 16 37  1  0
 16 38  1  0
 18 39  1  0
 18 40  1  0
 18 41  1  0
 19 42  1  0
 19 43  1  0
 19 44  1  0
 20 45  1  0
 20 46  1  0
 21 47  1  0
 21 48  1  0
 22 49  1  0
 25 50  1  0
M  CHG  2  22   1  24  -1
M  END
>  <UniqueID>  (38) 
38

>  <SMILES>  (38) 
COc1cnc(=Nc2ccc(N3CCC(CN(C)C)CC3)[nH+]n2)[n-]c1

>  <Energy>  (38) 
62.38458258349935

>  <Genealogy>  (38) 
COc1cnc(=Nc2ccc(N3CCC(CN(C)C)CC3)[nH+]n2)[n-]c1 (protonated)
COc1cnc(=Nc2ccc(N3CCC(CN(C)C)CC3)[nH+]n2)[n-]c1 (3D coordinates assigned)
COc1cnc(=Nc2ccc(N3CCC(CN(C)C)CC3)[nH+]n2)[n-]c1 (nonaromatic ring conformer: 62.38458258349935 kcal/mol)

>  <smiles>  (38) 
COc1cnc(=Nc2ccc(N3CCC(CN(C)C)CC3)nn2)[nH]c1

>  <score_type>  (38) 
oracle

>  <origin>  (38) 
adg

>  <m_score__min__energy>  (38) 
-8.0099999999999998

>  <m_primary>  (38) 
energy

$$$$
38:0
     RDKit          3D

 58 61  0  0  0  0  0  0  0  0999 V2000
   -7.9030   18.5430  -31.4290 C   0  0  0  0  0  0  0  0  0  0  0  0
   -7.0140   18.3460  -32.6270 C   0  0  0  0  0  0  0  0  0  0  0  0
   -7.1490   17.1900  -33.4140 C   0  0  0  0  0  0  0  0  0  0  0  0
   -6.3150   16.9850  -34.5160 C   0  0  0  0  0  0  0  0  0  0  0  0
   -5.3360   17.9270  -34.8410 C   0  0  0  0  0  0  0  0  0  0  0  0
   -5.1870   19.0770  -34.0640 C   0  0  0  0  0  0  0  0  0  0  0  0
   -6.0180   19.2930  -32.9560 C   0  0  0  0  0  0  0  0  0  0  0  0
   -5.8480   20.4830  -32.1780 N   0  0  0  0  0  0  0  0  0  0  0  0
   -4.5270   20.8060  -31.6270 C   0  0  0  0  0  0  0  0  0  0  0  0
   -4.6180   22.0240  -30.7040 C   0  0  0  0  0  0  0  0  0  0  0  0
   -5.2610   23.1650  -31.3970 N   0  0  0  0  0  0  0  0  0  0  0  0
   -5.3950   24.3690  -30.5430 C   0  0  0  0  0  0  0  0  0  0  0  0
   -4.2330   24.5360  -29.5280 C   0  0  0  0  0  0  0  0  0  0  0  0
   -4.7190   24.6250  -28.1390 N   0  0  0  0  0  0  0  0  0  0  0  0
   -3.9300   23.7920  -27.2150 C   0  0  0  0  0  0  0  0  0  0  0  0
   -2.4460   23.9930  -27.4600 C   0  0  0  0  0  0  0  0  0  0  0  0
   -1.9730   25.3010  -27.6730 C   0  0  0  0  0  0  0  0  0  0  0  0
   -0.6040   25.5580  -27.7860 C   0  0  0  0  0  0  0  0  0  0  0  0
    0.3120   24.5160  -27.6610 C   0  0  0  0  0  0  0  0  0  0  0  0
   -0.1350   23.2120  -27.4370 C   0  0  0  0  0  0  0  0  0  0  0  0
   -1.5100   22.9320  -27.3440 C   0  0  0  0  0  0  0  0  0  0  0  0
   -1.9250   21.5350  -27.1150 C   0  0  0  0  0  0  0  0  0  0  0  0
   -1.4960   20.7080  -26.0840 C   0  0  0  0  0  0  0  0  0  0  0  0
   -2.1270   19.4560  -26.0800 C   0  0  0  0  0  0  0  0  0  0  0  0
   -3.0620   19.2960  -27.0960 C   0  0  0  0  0  0  0  0  0  0  0  0
   -3.1120   20.7180  -27.9950 S   0  0  0  0  0  0  0  0  0  0  0  0
   -6.4970   22.8450  -32.1670 C   0  0  0  0  0  0  0  0  0  0  0  0
   -6.9730   21.3980  -31.9800 C   0  0  0  0  0  0  0  0  0  0  0  0
   -7.3135   18.4124  -30.5095 H   0  0  0  0  0  0  0  0  0  0  0  0
   -8.3284   19.5572  -31.4509 H   0  0  0  0  0  0  0  0  0  0  0  0
   -8.7170   17.8034  -31.4509 H   0  0  0  0  0  0  0  0  0  0  0  0
   -7.9153   16.4424  -33.1612 H   0  0  0  0  0  0  0  0  0  0  0  0
   -6.4296   16.0792  -35.1295 H   0  0  0  0  0  0  0  0  0  0  0  0
   -4.6820   17.7624  -35.7100 H   0  0  0  0  0  0  0  0  0  0  0  0
   -4.4146   19.8165  -34.3221 H   0  0  0  0  0  0  0  0  0  0  0  0
   -4.1523   19.9446  -31.0547 H   0  0  0  0  0  0  0  0  0  0  0  0
   -3.8410   21.0361  -32.4555 H   0  0  0  0  0  0  0  0  0  0  0  0
   -5.2123   21.7601  -29.8168 H   0  0  0  0  0  0  0  0  0  0  0  0
   -3.6000   22.3194  -30.4102 H   0  0  0  0  0  0  0  0  0  0  0  0
   -5.4210   25.2563  -31.1926 H   0  0  0  0  0  0  0  0  0  0  0  0
   -6.3211   24.2532  -29.9608 H   0  0  0  0  0  0  0  0  0  0  0  0
   -3.5600   23.6701  -29.6136 H   0  0  0  0  0  0  0  0  0  0  0  0
   -3.7087   25.4737  -29.7643 H   0  0  0  0  0  0  0  0  0  0  0  0
   -4.6440   25.6270  -27.8360 H   0  0  0  0  0  0  0  0  0  0  0  0
   -5.7290   24.3490  -28.0960 H   0  0  0  0  0  0  0  0  0  0  0  0
   -4.1681   24.0744  -26.1789 H   0  0  0  0  0  0  0  0  0  0  0  0
   -4.1803   22.7344  -27.3848 H   0  0  0  0  0  0  0  0  0  0  0  0
   -2.6898   26.1317  -27.7516 H   0  0  0  0  0  0  0  0  0  0  0  0
   -0.2500   26.5825  -27.9735 H   0  0  0  0  0  0  0  0  0  0  0  0
    1.3900   24.7207  -27.7389 H   0  0  0  0  0  0  0  0  0  0  0  0
    0.5954   22.3962  -27.3323 H   0  0  0  0  0  0  0  0  0  0  0  0
   -0.7374   21.0058  -25.3451 H   0  0  0  0  0  0  0  0  0  0  0  0
   -1.9028   18.6726  -25.3410 H   0  0  0  0  0  0  0  0  0  0  0  0
   -3.6654   18.3950  -27.2807 H   0  0  0  0  0  0  0  0  0  0  0  0
   -7.2989   23.5215  -31.8364 H   0  0  0  0  0  0  0  0  0  0  0  0
   -6.2583   22.9736  -33.2331 H   0  0  0  0  0  0  0  0  0  0  0  0
   -7.3727   21.2724  -30.9629 H   0  0  0  0  0  0  0  0  0  0  0  0
   -7.7605   21.1740  -32.7147 H   0  0  0  0  0  0  0  0  0  0  0  0
  1  2  1  0
  2  3  2  0
  3  4  1  0
  4  5  2  0
  5  6  1  0
  6  7  2  0
  7  8  1  0
  8  9  1  0
  9 10  1  0
 10 11  1  0
 11 12  1  0
 12 13  1  0
 13 14  1  0
 14 15  1  0
 15 16  1  0
 16 17  2  0
 17 18  1  0
 18 19  2  0
 19 20  1  0
 20 21  2  0
 21 22  1  0
 22 23  2  0
 23 24  1  0
 24 25  2  0
 25 26  1  0
 11 27  1  0
 27 28  1  0
  7  2  1  0
 28  8  1  0
 21 16  1  0
 26 22  1  0
  1 29  1  0
  1 30  1  0
  1 31  1  0
  3 32  1  0
  4 33  1  0
  5 34  1  0
  6 35  1  0
  9 36  1  0
  9 37  1  0
 10 38  1  0
 10 39  1  0
 12 40  1  0
 12 41  1  0
 13 42  1  0
 13 43  1  0
 14 44  1  0
 14 45  1  0
 15 46  1  0
 15 47  1  0
 17 48  1  0
 18 49  1  0
 19 50  1  0
 20 51  1  0
 23 52  1  0
 24 53  1  0
 25 54  1  0
 27 55  1  0
 27 56  1  0
 28 57  1  0
 28 58  1  0
M  CHG  1  14   1
M  END
>  <UniqueID>  (39) 
39

>  <SMILES>  (39) 
Cc1ccccc1N1CCN(CC[NH2+]Cc2ccccc2-c2cccs2)CC1

>  <Energy>  (39) 
107.85873682175769

>  <Genealogy>  (39) 
Cc1ccccc1N1CCN(CC[NH2+]Cc2ccccc2-c2cccs2)CC1 (protonated)
Cc1ccccc1N1CCN(CC[NH2+]Cc2ccccc2-c2cccs2)CC1 (3D coordinates assigned)
Cc1ccccc1N1CCN(CC[NH2+]Cc2ccccc2-c2cccs2)CC1 (nonaromatic ring conformer: 107.85873682175769 kcal/mol)

>  <smiles>  (39) 
Cc1ccccc1N1CCN(CCNCc2ccccc2-c2cccs2)CC1

>  <score_type>  (39) 
oracle

>  <origin>  (39) 
adg

>  <m_score__min__energy>  (39) 
-8.4900000000000002

>  <m_primary>  (39) 
energy

$$$$
39:0
     RDKit          3D

 69 72  0  0  0  0  0  0  0  0999 V2000
   -0.1330   17.8480  -35.4580 C   0  0  0  0  0  0  0  0  0  0  0  0
    0.6950   16.6240  -35.8520 C   0  0  0  0  0  0  0  0  0  0  0  0
   -0.1360   15.3330  -35.8950 C   0  0  0  0  0  0  0  0  0  0  0  0
   -0.9490   15.1970  -37.1900 C   0  0  0  0  0  0  0  0  0  0  0  0
   -2.1280   14.2310  -37.0010 C   0  0  0  0  0  0  0  0  0  0  0  0
   -2.4860   14.0610  -35.5460 C   0  0  0  0  0  0  0  0  0  0  0  0
   -2.1530   13.0030  -34.9470 O   0  0  0  0  0  0  0  0  0  0  0  0
   -3.2610   15.0560  -34.8540 N   0  0  0  0  0  0  0  0  0  0  0  0
   -2.7400   16.2920  -34.2690 C   0  0  0  0  0  0  0  0  0  0  0  0
   -4.0120   17.1040  -33.9950 C   0  0  2  0  0  0  0  0  0  0  0  0
   -3.9860   18.2930  -33.0070 C   0  0  1  0  0  0  0  0  0  0  0  0
   -3.1560   19.4320  -33.6250 C   0  0  0  0  0  0  0  0  0  0  0  0
   -3.1280   20.6380  -32.7030 C   0  0  0  0  0  0  0  0  0  0  0  0
   -4.5180   21.1370  -32.4330 C   0  0  0  0  0  0  0  0  0  0  0  0
   -4.6990   22.4950  -32.1260 C   0  0  0  0  0  0  0  0  0  0  0  0
   -5.9580   22.9910  -31.7520 C   0  0  0  0  0  0  0  0  0  0  0  0
   -6.1700   24.3450  -31.4430 O   0  0  0  0  0  0  0  0  0  0  0  0
   -5.2210   25.2880  -30.3750 S   0  0  0  0  0  0  0  0  0  0  0  0
   -5.3550   24.6730  -28.7630 N   0  0  0  0  0  0  0  0  0  0  0  0
   -3.7830   25.2830  -30.8120 O   0  0  0  0  0  0  0  0  0  0  0  0
   -5.7320   26.7010  -30.3990 O   0  0  0  0  0  0  0  0  0  0  0  0
   -7.0480   22.1060  -31.6750 C   0  0  0  0  0  0  0  0  0  0  0  0
   -8.4050   22.5870  -31.2200 C   0  0  0  0  0  0  0  0  0  0  0  0
   -9.5080   21.6790  -31.7530 C   0  0  0  0  0  0  0  0  0  0  0  0
   -6.8590   20.7430  -31.9500 C   0  0  0  0  0  0  0  0  0  0  0  0
   -5.6120   20.2460  -32.3710 C   0  0  0  0  0  0  0  0  0  0  0  0
   -5.4600   18.7490  -32.6520 C   0  0  1  0  0  0  0  0  0  0  0  0
   -6.5030   18.2460  -33.7080 C   0  0  0  0  0  0  0  0  0  0  0  0
   -6.4850   16.7020  -33.9370 C   0  0  0  0  0  0  0  0  0  0  0  0
   -5.0960   16.0680  -33.6580 C   0  0  2  0  0  0  0  0  0  0  0  0
   -5.0050   15.4920  -32.2200 C   0  0  0  0  0  0  0  0  0  0  0  0
   -4.6610   14.9770  -34.5750 C   0  0  0  0  0  0  0  0  0  0  0  0
   -5.4050   14.0440  -34.9810 O   0  0  0  0  0  0  0  0  0  0  0  0
   -0.1818   17.9202  -34.3615 H   0  0  0  0  0  0  0  0  0  0  0  0
    0.3376   18.7553  -35.8646 H   0  0  0  0  0  0  0  0  0  0  0  0
   -1.1503   17.7489  -35.8646 H   0  0  0  0  0  0  0  0  0  0  0  0
    1.1268   16.7976  -36.8487 H   0  0  0  0  0  0  0  0  0  0  0  0
    1.4747   16.4911  -35.0875 H   0  0  0  0  0  0  0  0  0  0  0  0
    0.5450   14.4729  -35.8146 H   0  0  0  0  0  0  0  0  0  0  0  0
   -0.8477   15.3669  -35.0569 H   0  0  0  0  0  0  0  0  0  0  0  0
   -1.3365   16.1857  -37.4769 H   0  0  0  0  0  0  0  0  0  0  0  0
   -0.2914   14.7977  -37.9762 H   0  0  0  0  0  0  0  0  0  0  0  0
   -3.0022   14.6268  -37.5387 H   0  0  0  0  0  0  0  0  0  0  0  0
   -1.8314   13.2485  -37.3968 H   0  0  0  0  0  0  0  0  0  0  0  0
   -2.1920   16.0885  -33.3372 H   0  0  0  0  0  0  0  0  0  0  0  0
   -2.0239   16.8133  -34.9213 H   0  0  0  0  0  0  0  0  0  0  0  0
   -4.2012   17.6877  -34.9080 H   0  0  0  0  0  0  0  0  0  0  0  0
   -3.5125   17.9926  -32.0607 H   0  0  0  0  0  0  0  0  0  0  0  0
   -2.1270   19.0801  -33.7904 H   0  0  0  0  0  0  0  0  0  0  0  0
   -3.6167   19.7274  -34.5792 H   0  0  0  0  0  0  0  0  0  0  0  0
   -2.6562   20.3529  -31.7511 H   0  0  0  0  0  0  0  0  0  0  0  0
   -2.5545   21.4403  -33.1903 H   0  0  0  0  0  0  0  0  0  0  0  0
   -3.8409   23.1811  -32.1793 H   0  0  0  0  0  0  0  0  0  0  0  0
   -6.3720   24.5300  -28.5730 H   0  0  0  0  0  0  0  0  0  0  0  0
   -5.0310   25.4190  -28.1080 H   0  0  0  0  0  0  0  0  0  0  0  0
   -8.4377   22.5869  -30.1205 H   0  0  0  0  0  0  0  0  0  0  0  0
   -8.5670   23.6036  -31.6077 H   0  0  0  0  0  0  0  0  0  0  0  0
  -10.0531   21.2303  -30.9095 H   0  0  0  0  0  0  0  0  0  0  0  0
  -10.2041   22.2693  -32.3670 H   0  0  0  0  0  0  0  0  0  0  0  0
   -9.0625   20.8824  -32.3670 H   0  0  0  0  0  0  0  0  0  0  0  0
   -7.7039   20.0483  -31.8339 H   0  0  0  0  0  0  0  0  0  0  0  0
   -5.6826   18.2547  -31.6949 H   0  0  0  0  0  0  0  0  0  0  0  0
   -7.5079   18.5325  -33.3644 H   0  0  0  0  0  0  0  0  0  0  0  0
   -6.2328   18.7118  -34.6672 H   0  0  0  0  0  0  0  0  0  0  0  0
   -7.2237   16.2387  -33.2664 H   0  0  0  0  0  0  0  0  0  0  0  0
   -6.7245   16.5217  -34.9954 H   0  0  0  0  0  0  0  0  0  0  0  0
   -5.1335   16.3052  -31.4905 H   0  0  0  0  0  0  0  0  0  0  0  0
   -5.7957   14.7411  -32.0751 H   0  0  0  0  0  0  0  0  0  0  0  0
   -4.0214   15.0214  -32.0751 H   0  0  0  0  0  0  0  0  0  0  0  0
  1  2  1  0
  2  3  1  0
  3  4  1  0
  4  5  1  0
  5  6  1  0
  6  7  2  0
  6  8  1  0
  8  9  1  0
  9 10  1  0
 10 11  1  0
 11 12  1  0
 12 13  1  0
 13 14  1  0
 14 15  2  0
 15 16  1  0
 16 17  1  0
 17 18  1  0
 18 19  1  0
 18 20  2  0
 18 21  2  0
 16 22  2  0
 22 23  1  0
 23 24  1  0
 22 25  1  0
 25 26  2  0
 26 27  1  0
 27 28  1  0
 28 29  1  0
 29 30  1  0
 30 31  1  1
 30 32  1  0
 32 33  2  0
 32  8  1  0
 30 10  1  0
 27 11  1  0
 26 14  1  0
  1 34  1  0
  1 35  1  0
  1 36  1  0
  2 37  1  0
  2 38  1  0
  3 39  1  0
  3 40  1  0
  4 41  1  0
  4 42  1  0
  5 43  1  0
  5 44  1  0
  9 45  1  0
  9 46  1  0
 10 47  1  6
 11 48  1  1
 12 49  1  0
 12 50  1  0
 13 51  1  0
 13 52  1  0
 15 53  1  0
 19 54  1  0
 19 55  1  0
 23 56  1  0
 23 57  1  0
 24 58  1  0
 24 59  1  0
 24 60  1  0
 25 61  1  0
 27 62  1  1
 28 63  1  0
 28 64  1  0
 29 65  1  0
 29 66  1  0
 31 67  1  0
 31 68  1  0
 31 69  1  0
M  END
>  <UniqueID>  (40) 
40

>  <SMILES>  (40) 
CCCCCC(=O)N1C[C@@H]2[C@H]3CCc4cc(OS(N)(=O)=O)c(CC)cc4C3CCC2(C)C1=O

>  <Energy>  (40) 
88.20113938448974

>  <Genealogy>  (40) 
CCCCCC(=O)N1C[C@@H]2[C@H]3CCc4cc(OS(N)(=O)=O)c(CC)cc4C3CCC2(C)C1=O (chirality)
CCCCCC(=O)N1C[C@@H]2[C@H]3CCc4cc(OS(N)(=O)=O)c(CC)cc4C3CCC2(C)C1=O (3D coordinates assigned)
CCCCCC(=O)N1C[C@@H]2[C@H]3CCc4cc(OS(N)(=O)=O)c(CC)cc4C3CCC2(C)C1=O (nonaromatic ring conformer: 88.20113938448974 kcal/mol)

>  <smiles>  (40) 
CCCCCC(=O)N1CC2C3CCc4cc(OS(N)(=O)=O)c(CC)cc4C3CCC2(C)C1=O

>  <score_type>  (40) 
oracle

>  <origin>  (40) 
adg

>  <m_score__min__energy>  (40) 
-9.8800000000000008

>  <m_primary>  (40) 
energy

$$$$
40:0
     RDKit          3D

 43 44  0  0  0  0  0  0  0  0999 V2000
   -0.0120   25.9530  -24.2160 C   0  0  0  0  0  0  0  0  0  0  0  0
    0.1670   25.5200  -25.5610 O   0  0  0  0  0  0  0  0  0  0  0  0
   -0.8800   25.2030  -26.4410 C   0  0  0  0  0  0  0  0  0  0  0  0
   -2.2250   25.1910  -26.0270 C   0  0  0  0  0  0  0  0  0  0  0  0
   -3.2410   24.8710  -26.9290 C   0  0  0  0  0  0  0  0  0  0  0  0
   -2.9390   24.5620  -28.2670 C   0  0  0  0  0  0  0  0  0  0  0  0
   -4.0060   24.2110  -29.2380 C   0  0  0  0  0  0  0  0  0  0  0  0
   -4.9830   23.2450  -28.9520 C   0  0  0  0  0  0  0  0  0  0  0  0
   -5.9620   22.9580  -29.9000 C   0  0  0  0  0  0  0  0  0  0  0  0
   -5.9520   23.6390  -31.1160 C   0  0  0  0  0  0  0  0  0  0  0  0
   -7.2000   23.3050  -32.3590 S   0  0  0  0  0  0  0  0  0  0  0  0
   -8.2010   22.2030  -31.2990 C   0  0  0  0  0  0  0  0  0  0  0  0
   -8.7640   21.0310  -32.1070 C   0  0  0  0  0  0  0  0  0  0  0  0
   -7.9100   19.8330  -31.9510 N   0  0  0  0  0  0  0  0  0  0  0  0
   -6.9800   19.7180  -33.0870 C   0  0  0  0  0  0  0  0  0  0  0  0
   -8.7250   18.6080  -31.8620 C   0  0  0  0  0  0  0  0  0  0  0  0
   -5.0000   24.5800  -31.3450 N   0  0  0  0  0  0  0  0  0  0  0  0
   -4.0610   24.8560  -30.4370 N   0  0  0  0  0  0  0  0  0  0  0  0
   -1.5930   24.5640  -28.6750 C   0  0  0  0  0  0  0  0  0  0  0  0
   -0.5630   24.8850  -27.7700 C   0  0  0  0  0  0  0  0  0  0  0  0
    0.7880   24.9030  -28.1530 O   0  0  0  0  0  0  0  0  0  0  0  0
    1.8260   24.1920  -27.4860 C   0  0  0  0  0  0  0  0  0  0  0  0
    0.3161   25.1594  -23.5286 H   0  0  0  0  0  0  0  0  0  0  0  0
    0.5849   26.8601  -24.0403 H   0  0  0  0  0  0  0  0  0  0  0  0
   -1.0752   26.1739  -24.0403 H   0  0  0  0  0  0  0  0  0  0  0  0
   -2.4775   25.4357  -24.9847 H   0  0  0  0  0  0  0  0  0  0  0  0
   -4.2874   24.8605  -26.5900 H   0  0  0  0  0  0  0  0  0  0  0  0
   -4.9756   22.7184  -27.9862 H   0  0  0  0  0  0  0  0  0  0  0  0
   -6.7341   22.2027  -29.6915 H   0  0  0  0  0  0  0  0  0  0  0  0
   -7.5688   21.8110  -30.4886 H   0  0  0  0  0  0  0  0  0  0  0  0
   -9.0410   22.7807  -30.8859 H   0  0  0  0  0  0  0  0  0  0  0  0
   -9.7788   20.8005  -31.7505 H   0  0  0  0  0  0  0  0  0  0  0  0
   -8.7890   21.3127  -33.1700 H   0  0  0  0  0  0  0  0  0  0  0  0
   -5.9545   19.5912  -32.7099 H   0  0  0  0  0  0  0  0  0  0  0  0
   -7.2556   18.8471  -33.6998 H   0  0  0  0  0  0  0  0  0  0  0  0
   -7.0352   20.6298  -33.6998 H   0  0  0  0  0  0  0  0  0  0  0  0
   -8.8930   18.3554  -30.8047 H   0  0  0  0  0  0  0  0  0  0  0  0
   -9.6928   18.7747  -32.3575 H   0  0  0  0  0  0  0  0  0  0  0  0
   -8.1973   17.7797  -32.3575 H   0  0  0  0  0  0  0  0  0  0  0  0
   -1.3414   24.3113  -29.7156 H   0  0  0  0  0  0  0  0  0  0  0  0
    1.6925   24.2834  -26.3980 H   0  0  0  0  0  0  0  0  0  0  0  0
    1.7861   23.1307  -27.7724 H   0  0  0  0  0  0  0  0  0  0  0  0
    2.8012   24.6127  -27.7724 H   0  0  0  0  0  0  0  0  0  0  0  0
  1  2  1  0
  2  3  1  0
  3  4  2  0
  4  5  1  0
  5  6  2  0
  6  7  1  0
  7  8  2  0
  8  9  1  0
  9 10  2  0
 10 11  1  0
 11 12  1  0
 12 13  1  0
 13 14  1  0
 14 15  1  0
 14 16  1  0
 10 17  1  0
 17 18  2  0
  6 19  1  0
 19 20  2  0
 20 21  1  0
 21 22  1  0
 20  3  1  0
 18  7  1  0
  1 23  1  0
  1 24  1  0
  1 25  1  0
  4 26  1  0
  5 27  1  0
  8 28  1  0
  9 29  1  0
 12 30  1  0
 12 31  1  0
 13 32  1  0
 13 33  1  0
 15 34  1  0
 15 35  1  0
 15 36  1  0
 16 37  1  0
 16 38  1  0
 16 39  1  0
 19 40  1  0
 22 41  1  0
 22 42  1  0
 22 43  1  0
M  END
>  <UniqueID>  (41) 
41

>  <SMILES>  (41) 
COc1ccc(-c2ccc(SCCN(C)C)nn2)cc1OC

>  <Energy>  (41) 
42.45743075375946

>  <Genealogy>  (41) 
COc1ccc(-c2ccc(SCCN(C)C)nn2)cc1OC (3D coordinates assigned)
COc1ccc(-c2ccc(SCCN(C)C)nn2)cc1OC (optimized conformer: 42.45743075375946 kcal/mol)

>  <smiles>  (41) 
COc1ccc(-c2ccc(SCCN(C)C)nn2)cc1OC

>  <score_type>  (41) 
oracle

>  <origin>  (41) 
adg

>  <m_score__min__energy>  (41) 
-7.7699999999999996

>  <m_primary>  (41) 
energy

$$$$
41:0
     RDKit          3D

 38 41  0  0  0  0  0  0  0  0999 V2000
   -6.1600   25.2820  -29.7250 C   0  0  0  0  0  0  0  0  0  0  0  0
   -5.6470   24.1630  -30.5000 N   0  0  0  0  0  0  0  0  0  0  0  0
   -6.3680   23.0910  -30.9030 C   0  0  0  0  0  0  0  0  0  0  0  0
   -5.5020   22.2370  -31.5530 C   0  0  0  0  0  0  0  0  0  0  0  0
   -5.6850   21.0080  -32.1980 C   0  0  0  0  0  0  0  0  0  0  0  0
   -6.9990   20.3250  -32.2430 C   0  0  0  0  0  0  0  0  0  0  0  0
   -8.1900   21.0690  -32.3180 C   0  0  0  0  0  0  0  0  0  0  0  0
   -9.4280   20.4180  -32.3500 C   0  0  0  0  0  0  0  0  0  0  0  0
   -9.4880   19.0240  -32.3030 C   0  0  0  0  0  0  0  0  0  0  0  0
   -8.3100   18.2770  -32.2190 C   0  0  0  0  0  0  0  0  0  0  0  0
   -7.0710   18.9220  -32.1860 C   0  0  0  0  0  0  0  0  0  0  0  0
   -4.5500   20.4310  -32.8140 C   0  0  0  0  0  0  0  0  0  0  0  0
   -3.2810   21.0700  -32.7660 C   0  0  0  0  0  0  0  0  0  0  0  0
   -2.1020   20.4450  -33.4180 C   0  0  0  0  0  0  0  0  0  0  0  0
   -2.1200   19.0840  -33.7750 C   0  0  0  0  0  0  0  0  0  0  0  0
   -1.0090   18.4970  -34.3880 C   0  0  0  0  0  0  0  0  0  0  0  0
    0.1300   19.2610  -34.6520 C   0  0  0  0  0  0  0  0  0  0  0  0
    0.1610   20.6130  -34.3020 C   0  0  0  0  0  0  0  0  0  0  0  0
   -0.9480   21.2050  -33.6900 C   0  0  0  0  0  0  0  0  0  0  0  0
   -3.1500   22.3080  -32.0940 C   0  0  0  0  0  0  0  0  0  0  0  0
   -4.2820   22.8590  -31.5050 C   0  0  0  0  0  0  0  0  0  0  0  0
   -4.3730   24.0310  -30.8520 N   0  0  0  0  0  0  0  0  0  0  0  0
   -6.0590   25.0618  -28.6520 H   0  0  0  0  0  0  0  0  0  0  0  0
   -5.5880   26.1895  -29.9685 H   0  0  0  0  0  0  0  0  0  0  0  0
   -7.2209   25.4409  -29.9685 H   0  0  0  0  0  0  0  0  0  0  0  0
   -7.4443   22.9307  -30.7421 H   0  0  0  0  0  0  0  0  0  0  0  0
   -8.1481   22.1677  -32.3517 H   0  0  0  0  0  0  0  0  0  0  0  0
  -10.3558   21.0056  -32.4123 H   0  0  0  0  0  0  0  0  0  0  0  0
  -10.4621   18.5139  -32.3321 H   0  0  0  0  0  0  0  0  0  0  0  0
   -8.3583   17.1788  -32.1788 H   0  0  0  0  0  0  0  0  0  0  0  0
   -6.1472   18.3291  -32.1151 H   0  0  0  0  0  0  0  0  0  0  0  0
   -4.6511   19.4701  -33.3399 H   0  0  0  0  0  0  0  0  0  0  0  0
   -3.0146   18.4776  -33.5703 H   0  0  0  0  0  0  0  0  0  0  0  0
   -1.0320   17.4321  -34.6627 H   0  0  0  0  0  0  0  0  0  0  0  0
    1.0028   18.7980  -35.1356 H   0  0  0  0  0  0  0  0  0  0  0  0
    1.0596   21.2130  -34.5083 H   0  0  0  0  0  0  0  0  0  0  0  0
   -0.9189   22.2708  -33.4193 H   0  0  0  0  0  0  0  0  0  0  0  0
   -2.1784   22.8208  -32.0391 H   0  0  0  0  0  0  0  0  0  0  0  0
  1  2  1  0
  2  3  1  0
  3  4  2  0
  4  5  1  0
  5  6  1  0
  6  7  2  0
  7  8  1  0
  8  9  2  0
  9 10  1  0
 10 11  2  0
  5 12  2  0
 12 13  1  0
 13 14  1  0
 14 15  2  0
 15 16  1  0
 16 17  2  0
 17 18  1  0
 18 19  2  0
 13 20  2  0
 20 21  1  0
 21 22  2  0
 22  2  1  0
 21  4  1  0
 11  6  1  0
 19 14  1  0
  1 23  1  0
  1 24  1  0
  1 25  1  0
  3 26  1  0
  7 27  1  0
  8 28  1  0
  9 29  1  0
 10 30  1  0
 11 31  1  0
 12 32  1  0
 15 33  1  0
 16 34  1  0
 17 35  1  0
 18 36  1  0
 19 37  1  0
 20 38  1  0
M  END
>  <UniqueID>  (42) 
42

>  <SMILES>  (42) 
Cn1cc2c(-c3ccccc3)cc(-c3ccccc3)cc2n1

>  <Energy>  (42) 
90.15202049712033

>  <Genealogy>  (42) 
Cn1cc2c(-c3ccccc3)cc(-c3ccccc3)cc2n1 (3D coordinates assigned)
Cn1cc2c(-c3ccccc3)cc(-c3ccccc3)cc2n1 (optimized conformer: 90.15202049712033 kcal/mol)

>  <smiles>  (42) 
Cn1cc2c(-c3ccccc3)cc(-c3ccccc3)cc2n1

>  <score_type>  (42) 
oracle

>  <origin>  (42) 
adg

>  <m_score__min__energy>  (42) 
-8.6999999999999993

>  <m_primary>  (42) 
energy

$$$$
42:0
     RDKit          3D

 65 68  0  0  0  0  0  0  0  0999 V2000
   -4.1760   24.1720  -28.0950 C   0  0  0  0  0  0  0  0  0  0  0  0
   -3.1910   23.8650  -27.0510 N   0  0  0  0  0  0  0  0  0  0  0  0
   -1.8910   24.5840  -27.1280 C   0  0  0  0  0  0  0  0  0  0  0  0
   -1.9790   25.7590  -26.1350 C   0  0  0  0  0  0  0  0  0  0  0  0
   -1.6240   25.1870  -28.5300 C   0  0  0  0  0  0  0  0  0  0  0  0
   -0.7000   23.6800  -26.6870 C   0  0  0  0  0  0  0  0  0  0  0  0
   -1.1480   22.3130  -26.3260 N   0  0  0  0  0  0  0  0  0  0  0  0
   -0.8100   21.9580  -24.9370 C   0  0  0  0  0  0  0  0  0  0  0  0
   -0.7550   21.2680  -27.3020 C   0  0  0  0  0  0  0  0  0  0  0  0
   -1.3440   21.4630  -28.6860 C   0  0  0  0  0  0  0  0  0  0  0  0
   -0.5170   21.7820  -29.7770 C   0  0  0  0  0  0  0  0  0  0  0  0
   -1.0600   21.9310  -31.0560 C   0  0  0  0  0  0  0  0  0  0  0  0
   -2.4420   21.7930  -31.2610 C   0  0  0  0  0  0  0  0  0  0  0  0
   -3.0110   21.8630  -32.6510 C   0  0  0  0  0  0  0  0  0  0  0  0
   -4.3660   21.2990  -32.6540 N   0  0  0  0  0  0  0  0  0  0  0  0
   -4.4900   19.9940  -32.9030 N   0  0  0  0  0  0  0  0  0  0  0  0
   -5.6830   19.3450  -32.8770 C   0  0  0  0  0  0  0  0  0  0  0  0
   -5.6830   17.9000  -33.1870 C   0  0  0  0  0  0  0  0  0  0  0  0
   -4.9680   16.9900  -32.3950 C   0  0  0  0  0  0  0  0  0  0  0  0
   -5.0130   15.6270  -32.6880 C   0  0  0  0  0  0  0  0  0  0  0  0
   -5.7880   15.1820  -33.7620 C   0  0  0  0  0  0  0  0  0  0  0  0
   -6.4950   16.0720  -34.5080 N   0  0  0  0  0  0  0  0  0  0  0  0
   -6.4660   17.4070  -34.2410 C   0  0  0  0  0  0  0  0  0  0  0  0
   -6.8480   20.0660  -32.5430 C   0  0  0  0  0  0  0  0  0  0  0  0
   -8.1110   19.4490  -32.4170 C   0  0  0  0  0  0  0  0  0  0  0  0
   -9.2390   20.2030  -32.0870 C   0  0  0  0  0  0  0  0  0  0  0  0
   -9.1260   21.5750  -31.8650 C   0  0  0  0  0  0  0  0  0  0  0  0
   -7.8810   22.1990  -31.9570 C   0  0  0  0  0  0  0  0  0  0  0  0
   -6.7320   21.4540  -32.2850 C   0  0  0  0  0  0  0  0  0  0  0  0
   -5.4630   22.0570  -32.3420 C   0  0  0  0  0  0  0  0  0  0  0  0
   -5.3380   23.2890  -32.0950 O   0  0  0  0  0  0  0  0  0  0  0  0
   -3.2720   21.5000  -30.1690 C   0  0  0  0  0  0  0  0  0  0  0  0
   -2.7300   21.3470  -28.8910 C   0  0  0  0  0  0  0  0  0  0  0  0
   -5.1263   24.4682  -27.6268 H   0  0  0  0  0  0  0  0  0  0  0  0
   -3.8027   24.9964  -28.7203 H   0  0  0  0  0  0  0  0  0  0  0  0
   -4.3372   23.2815  -28.7203 H   0  0  0  0  0  0  0  0  0  0  0  0
   -3.0290   22.8300  -27.0340 H   0  0  0  0  0  0  0  0  0  0  0  0
   -1.9500   25.3721  -25.1057 H   0  0  0  0  0  0  0  0  0  0  0  0
   -1.1293   26.4389  -26.2952 H   0  0  0  0  0  0  0  0  0  0  0  0
   -2.9205   26.3047  -26.2952 H   0  0  0  0  0  0  0  0  0  0  0  0
   -1.1809   26.1878  -28.4204 H   0  0  0  0  0  0  0  0  0  0  0  0
   -0.9295   24.5370  -29.0825 H   0  0  0  0  0  0  0  0  0  0  0  0
   -2.5720   25.2643  -29.0825 H   0  0  0  0  0  0  0  0  0  0  0  0
    0.0201   23.6111  -27.5157 H   0  0  0  0  0  0  0  0  0  0  0  0
   -0.2385   24.1337  -25.7976 H   0  0  0  0  0  0  0  0  0  0  0  0
   -1.4002   22.5779  -24.2461 H   0  0  0  0  0  0  0  0  0  0  0  0
   -1.0391   20.8962  -24.7638 H   0  0  0  0  0  0  0  0  0  0  0  0
    0.2618   22.1348  -24.7638 H   0  0  0  0  0  0  0  0  0  0  0  0
    0.3415   21.2712  -27.3893 H   0  0  0  0  0  0  0  0  0  0  0  0
   -1.1471   20.3135  -26.9211 H   0  0  0  0  0  0  0  0  0  0  0  0
    0.5640   21.9151  -29.6231 H   0  0  0  0  0  0  0  0  0  0  0  0
   -0.4009   22.1577  -31.9070 H   0  0  0  0  0  0  0  0  0  0  0  0
   -3.0499   22.9123  -32.9789 H   0  0  0  0  0  0  0  0  0  0  0  0
   -2.3728   21.2876  -33.3378 H   0  0  0  0  0  0  0  0  0  0  0  0
   -4.3723   17.3507  -31.5435 H   0  0  0  0  0  0  0  0  0  0  0  0
   -4.4437   14.9092  -32.0792 H   0  0  0  0  0  0  0  0  0  0  0  0
   -5.8262   14.1097  -34.0044 H   0  0  0  0  0  0  0  0  0  0  0  0
   -7.0760   15.7240  -35.3040 H   0  0  0  0  0  0  0  0  0  0  0  0
   -7.0590   18.1014  -34.8543 H   0  0  0  0  0  0  0  0  0  0  0  0
   -8.2076   18.3654  -32.5801 H   0  0  0  0  0  0  0  0  0  0  0  0
  -10.2201   19.7130  -32.0019 H   0  0  0  0  0  0  0  0  0  0  0  0
  -10.0196   22.1665  -31.6169 H   0  0  0  0  0  0  0  0  0  0  0  0
   -7.7968   23.2801  -31.7720 H   0  0  0  0  0  0  0  0  0  0  0  0
   -4.3560   21.3901  -30.3200 H   0  0  0  0  0  0  0  0  0  0  0  0
   -3.3922   21.1342  -28.0388 H   0  0  0  0  0  0  0  0  0  0  0  0
  1  2  1  0
  2  3  1  0
  3  4  1  0
  3  5  1  0
  3  6  1  0
  6  7  1  0
  7  8  1  0
  7  9  1  0
  9 10  1  0
 10 11  2  0
 11 12  1  0
 12 13  2  0
 13 14  1  0
 14 15  1  0
 15 16  1  0
 16 17  2  0
 17 18  1  0
 18 19  2  0
 19 20  1  0
 20 21  2  0
 21 22  1  0
 22 23  2  0
 17 24  1  0
 24 25  2  0
 25 26  1  0
 26 27  2  0
 27 28  1  0
 28 29  2  0
 29 30  1  0
 30 31  2  0
 13 32  1  0
 32 33  2  0
 33 10  1  0
 30 15  1  0
 23 18  1  0
 29 24  1  0
  1 34  1  0
  1 35  1  0
  1 36  1  0
  2 37  1  0
  4 38  1  0
  4 39  1  0
  4 40  1  0
  5 41  1  0
  5 42  1  0
  5 43  1  0
  6 44  1  0
  6 45  1  0
  8 46  1  0
  8 47  1  0
  8 48  1  0
  9 49  1  0
  9 50  1  0
 11 51  1  0
 12 52  1  0
 14 53  1  0
 14 54  1  0
 19 55  1  0
 20 56  1  0
 21 57  1  0
 22 58  1  0
 23 59  1  0
 25 60  1  0
 26 61  1  0
 27 62  1  0
 28 63  1  0
 32 64  1  0
 33 65  1  0
M  CHG  1  22   1
M  END
>  <UniqueID>  (43) 
43

>  <SMILES>  (43) 
CNC(C)(C)CN(C)Cc1ccc(Cn2nc(-c3ccc[nH+]c3)c3ccccc3c2=O)cc1

>  <Energy>  (43) 
89.95902173372306

>  <Genealogy>  (43) 
CNC(C)(C)CN(C)Cc1ccc(Cn2nc(-c3ccc[nH+]c3)c3ccccc3c2=O)cc1 (protonated)
CNC(C)(C)CN(C)Cc1ccc(Cn2nc(-c3ccc[nH+]c3)c3ccccc3c2=O)cc1 (3D coordinates assigned)
CNC(C)(C)CN(C)Cc1ccc(Cn2nc(-c3ccc[nH+]c3)c3ccccc3c2=O)cc1 (optimized conformer: 89.95902173372306 kcal/mol)

>  <smiles>  (43) 
CNC(C)(C)CN(C)Cc1ccc(Cn2nc(-c3cccnc3)c3ccccc3c2=O)cc1

>  <score_type>  (43) 
oracle

>  <origin>  (43) 
adg

>  <m_score__min__energy>  (43) 
-10.529999999999999

>  <m_primary>  (43) 
energy

$$$$
43:0
     RDKit          3D

 41 43  0  0  0  0  0  0  0  0999 V2000
   -3.3820   23.7320  -30.4070 C   0  0  0  0  0  0  0  0  0  0  0  0
   -4.3470   24.5320  -29.6310 N   0  0  0  0  0  0  0  0  0  0  0  0
   -4.2440   24.1560  -28.2100 C   0  0  0  0  0  0  0  0  0  0  0  0
   -5.7280   24.3190  -30.1200 C   0  0  0  0  0  0  0  0  0  0  0  0
   -6.0210   22.8430  -30.4630 C   0  0  0  0  0  0  0  0  0  0  0  0
   -6.2350   22.4300  -31.9670 C   0  0  2  0  0  0  0  0  0  0  0  0
   -7.2340   23.4290  -32.6000 C   0  0  0  0  0  0  0  0  0  0  0  0
   -8.6460   23.4110  -31.9720 C   0  0  0  0  0  0  0  0  0  0  0  0
   -9.1090   22.0460  -31.4080 C   0  0  0  0  0  0  0  0  0  0  0  0
   -8.2490   20.8780  -31.8250 C   0  0  0  0  0  0  0  0  0  0  0  0
   -8.8160   19.5970  -31.9000 C   0  0  0  0  0  0  0  0  0  0  0  0
   -8.0650   18.5200  -32.3700 C   0  0  0  0  0  0  0  0  0  0  0  0
   -6.7540   18.7200  -32.8000 C   0  0  0  0  0  0  0  0  0  0  0  0
   -6.1640   19.9870  -32.6970 C   0  0  0  0  0  0  0  0  0  0  0  0
   -6.8830   21.0570  -32.1370 C   0  0  0  0  0  0  0  0  0  0  0  0
   -4.8450   20.2430  -33.3500 C   0  0  0  0  0  0  0  0  0  0  0  0
   -4.1740   21.4590  -32.7310 C   0  0  0  0  0  0  0  0  0  0  0  0
   -5.0230   22.5940  -32.7090 O   0  0  0  0  0  0  0  0  0  0  0  0
   -2.7217   23.1846  -29.7182 H   0  0  0  0  0  0  0  0  0  0  0  0
   -3.9253   23.0158  -31.0409 H   0  0  0  0  0  0  0  0  0  0  0  0
   -2.7789   24.3987  -31.0409 H   0  0  0  0  0  0  0  0  0  0  0  0
   -4.4826   25.0270  -27.5820 H   0  0  0  0  0  0  0  0  0  0  0  0
   -4.9525   23.3428  -27.9936 H   0  0  0  0  0  0  0  0  0  0  0  0
   -3.2200   23.8174  -27.9936 H   0  0  0  0  0  0  0  0  0  0  0  0
   -6.4312   24.6445  -29.3393 H   0  0  0  0  0  0  0  0  0  0  0  0
   -5.8453   24.9031  -31.0447 H   0  0  0  0  0  0  0  0  0  0  0  0
   -5.1742   22.2514  -30.0850 H   0  0  0  0  0  0  0  0  0  0  0  0
   -7.0011   22.6572  -29.9996 H   0  0  0  0  0  0  0  0  0  0  0  0
   -6.8221   24.4429  -32.4893 H   0  0  0  0  0  0  0  0  0  0  0  0
   -7.3557   23.1253  -33.6502 H   0  0  0  0  0  0  0  0  0  0  0  0
   -8.6595   24.1398  -31.1482 H   0  0  0  0  0  0  0  0  0  0  0  0
   -9.3422   23.6510  -32.7891 H   0  0  0  0  0  0  0  0  0  0  0  0
   -9.0996   22.1060  -30.3097 H   0  0  0  0  0  0  0  0  0  0  0  0
  -10.1129   21.8601  -31.8173 H   0  0  0  0  0  0  0  0  0  0  0  0
   -9.8588   19.4412  -31.5863 H   0  0  0  0  0  0  0  0  0  0  0  0
   -8.5068   17.5131  -32.4014 H   0  0  0  0  0  0  0  0  0  0  0  0
   -6.1810   17.8809  -33.2214 H   0  0  0  0  0  0  0  0  0  0  0  0
   -4.1974   19.3641  -33.2156 H   0  0  0  0  0  0  0  0  0  0  0  0
   -5.0080   20.4322  -34.4213 H   0  0  0  0  0  0  0  0  0  0  0  0
   -3.8844   21.2148  -31.6983 H   0  0  0  0  0  0  0  0  0  0  0  0
   -3.2981   21.7082  -33.3480 H   0  0  0  0  0  0  0  0  0  0  0  0
  1  2  1  0
  2  3  1  0
  2  4  1  0
  4  5  1  0
  6  5  1  1
  6  7  1  0
  7  8  1  0
  8  9  1  0
  9 10  1  0
 10 11  2  0
 11 12  1  0
 12 13  2  0
 13 14  1  0
 14 15  2  0
 14 16  1  0
 16 17  1  0
 17 18  1  0
 15  6  1  0
 18  6  1  0
 15 10  1  0
  1 19  1  0
  1 20  1  0
  1 21  1  0
  3 22  1  0
  3 23  1  0
  3 24  1  0
  4 25  1  0
  4 26  1  0
  5 27  1  0
  5 28  1  0
  7 29  1  0
  7 30  1  0
  8 31  1  0
  8 32  1  0
  9 33  1  0
  9 34  1  0
 11 35  1  0
 12 36  1  0
 13 37  1  0
 16 38  1  0
 16 39  1  0
 17 40  1  0
 17 41  1  0
M  END
>  <UniqueID>  (44) 
44

>  <SMILES>  (44) 
CN(C)CC[C@]12CCCc3cccc(c31)CCO2

>  <Energy>  (44) 
60.80165416686757

>  <Genealogy>  (44) 
CN(C)CC[C@]12CCCc3cccc(c31)CCO2 (chirality)
CN(C)CC[C@]12CCCc3cccc(c31)CCO2 (3D coordinates assigned)
CN(C)CC[C@]12CCCc3cccc(c31)CCO2 (nonaromatic ring conformer: 60.80165416686757 kcal/mol)

>  <smiles>  (44) 
CN(C)CCC12CCCc3cccc(c31)CCO2

>  <score_type>  (44) 
oracle

>  <origin>  (44) 
adg

>  <m_score__min__energy>  (44) 
-7.7699999999999996

>  <m_primary>  (44) 
energy

$$$$
44:0
     RDKit          3D

 47 50  0  0  0  0  0  0  0  0999 V2000
    1.7290   20.9080  -34.9410 C   0  0  0  0  0  0  0  0  0  0  0  0
    1.0090   19.8400  -34.3350 O   0  0  0  0  0  0  0  0  0  0  0  0
   -0.3490   19.8950  -33.9890 C   0  0  0  0  0  0  0  0  0  0  0  0
   -0.9510   21.1490  -33.8530 C   0  0  0  0  0  0  0  0  0  0  0  0
   -2.3010   21.2580  -33.5070 C   0  0  0  0  0  0  0  0  0  0  0  0
   -3.0700   20.1060  -33.2820 C   0  0  0  0  0  0  0  0  0  0  0  0
   -4.5000   20.2320  -32.9190 C   0  0  0  0  0  0  0  0  0  0  0  0
   -5.4730   19.4430  -33.4320 N   0  0  0  0  0  0  0  0  0  0  0  0
   -6.6050   19.8520  -32.8300 C   0  0  0  0  0  0  0  0  0  0  0  0
   -7.8830   19.3470  -33.0570 C   0  0  0  0  0  0  0  0  0  0  0  0
   -8.9500   19.9350  -32.3620 C   0  0  0  0  0  0  0  0  0  0  0  0
   -8.7190   21.0010  -31.4640 C   0  0  0  0  0  0  0  0  0  0  0  0
   -9.8660   21.6670  -30.7640 C   0  0  0  0  0  0  0  0  0  0  0  0
   -7.4060   21.4780  -31.2920 C   0  0  0  0  0  0  0  0  0  0  0  0
   -6.3990   20.8640  -31.9680 N   0  0  0  0  0  0  0  0  0  0  0  0
   -5.0730   21.1210  -32.0070 C   0  0  0  0  0  0  0  0  0  0  0  0
   -4.3990   22.2180  -31.2800 C   0  0  0  0  0  0  0  0  0  0  0  0
   -3.1690   21.9950  -30.6460 C   0  0  0  0  0  0  0  0  0  0  0  0
   -2.5400   23.0270  -29.9440 C   0  0  0  0  0  0  0  0  0  0  0  0
   -3.1290   24.2950  -29.8630 C   0  0  0  0  0  0  0  0  0  0  0  0
   -2.4580   25.2970  -29.1470 O   0  0  0  0  0  0  0  0  0  0  0  0
   -1.9700   25.1440  -27.8180 C   0  0  0  0  0  0  0  0  0  0  0  0
   -4.3650   24.5180  -30.4990 C   0  0  0  0  0  0  0  0  0  0  0  0
   -4.9940   23.4860  -31.2000 C   0  0  0  0  0  0  0  0  0  0  0  0
   -2.4730   18.8450  -33.4340 C   0  0  0  0  0  0  0  0  0  0  0  0
   -1.1220   18.7370  -33.7790 C   0  0  0  0  0  0  0  0  0  0  0  0
    2.1613   21.5492  -34.1587 H   0  0  0  0  0  0  0  0  0  0  0  0
    2.5358   20.4980  -35.5663 H   0  0  0  0  0  0  0  0  0  0  0  0
    1.0463   21.5021  -35.5663 H   0  0  0  0  0  0  0  0  0  0  0  0
   -0.3565   22.0593  -34.0199 H   0  0  0  0  0  0  0  0  0  0  0  0
   -2.7628   22.2517  -33.4106 H   0  0  0  0  0  0  0  0  0  0  0  0
   -5.3710   18.6740  -34.1300 H   0  0  0  0  0  0  0  0  0  0  0  0
   -8.0498   18.5154  -33.7574 H   0  0  0  0  0  0  0  0  0  0  0  0
   -9.9737   19.5636  -32.5172 H   0  0  0  0  0  0  0  0  0  0  0  0
   -9.7278   21.5868  -29.6757 H   0  0  0  0  0  0  0  0  0  0  0  0
   -9.9047   22.7281  -31.0515 H   0  0  0  0  0  0  0  0  0  0  0  0
  -10.8067   21.1747  -31.0515 H   0  0  0  0  0  0  0  0  0  0  0  0
   -7.1994   22.3284  -30.6256 H   0  0  0  0  0  0  0  0  0  0  0  0
   -2.6965   21.0032  -30.7012 H   0  0  0  0  0  0  0  0  0  0  0  0
   -1.5743   22.8417  -29.4510 H   0  0  0  0  0  0  0  0  0  0  0  0
   -2.7679   25.3942  -27.1033 H   0  0  0  0  0  0  0  0  0  0  0  0
   -1.6513   24.1028  -27.6620 H   0  0  0  0  0  0  0  0  0  0  0  0
   -1.1139   25.8168  -27.6620 H   0  0  0  0  0  0  0  0  0  0  0  0
   -4.8379   25.5096  -30.4438 H   0  0  0  0  0  0  0  0  0  0  0  0
   -5.9608   23.6687  -31.6918 H   0  0  0  0  0  0  0  0  0  0  0  0
   -3.0719   17.9352  -33.2807 H   0  0  0  0  0  0  0  0  0  0  0  0
   -0.6616   17.7438  -33.8867 H   0  0  0  0  0  0  0  0  0  0  0  0
  1  2  1  0
  2  3  1  0
  3  4  2  0
  4  5  1  0
  5  6  2  0
  6  7  1  0
  7  8  1  0
  8  9  2  0
  9 10  1  0
 10 11  2  0
 11 12  1  0
 12 13  1  0
 12 14  2  0
 14 15  1  0
 15 16  1  0
 16 17  1  0
 17 18  2  0
 18 19  1  0
 19 20  2  0
 20 21  1  0
 21 22  1  0
 20 23  1  0
 23 24  2  0
  6 25  1  0
 25 26  2  0
 26  3  1  0
 16  7  2  0
 24 17  1  0
 15  9  1  0
  1 27  1  0
  1 28  1  0
  1 29  1  0
  4 30  1  0
  5 31  1  0
  8 32  1  0
 10 33  1  0
 11 34  1  0
 13 35  1  0
 13 36  1  0
 13 37  1  0
 14 38  1  0
 18 39  1  0
 19 40  1  0
 22 41  1  0
 22 42  1  0
 22 43  1  0
 23 44  1  0
 24 45  1  0
 25 46  1  0
 26 47  1  0
M  CHG  1   8   1
M  END
>  <UniqueID>  (45) 
45

>  <SMILES>  (45) 
COc1ccc(-c2[nH+]c3ccc(C)cn3c2-c2ccc(OC)cc2)cc1

>  <Energy>  (45) 
94.24521022763072

>  <Genealogy>  (45) 
COc1ccc(-c2[nH+]c3ccc(C)cn3c2-c2ccc(OC)cc2)cc1 (protonated)
COc1ccc(-c2[nH+]c3ccc(C)cn3c2-c2ccc(OC)cc2)cc1 (3D coordinates assigned)
COc1ccc(-c2[nH+]c3ccc(C)cn3c2-c2ccc(OC)cc2)cc1 (optimized conformer: 94.24521022763072 kcal/mol)

>  <smiles>  (45) 
COc1ccc(-c2nc3ccc(C)cn3c2-c2ccc(OC)cc2)cc1

>  <score_type>  (45) 
oracle

>  <origin>  (45) 
adg

>  <m_score__min__energy>  (45) 
-7.6299999999999999

>  <m_primary>  (45) 
energy

$$$$
45:0
     RDKit          3D

 38 40  0  0  0  0  0  0  0  0999 V2000
   -5.4090   23.7970  -32.7040 O   0  0  0  0  0  0  0  0  0  0  0  0
   -5.4030   23.9590  -31.4550 C   0  0  0  0  0  0  0  0  0  0  0  0
   -6.6200   23.5600  -30.6580 C   0  0  0  0  0  0  0  0  0  0  0  0
   -7.2540   22.2950  -31.2020 C   0  0  0  0  0  0  0  0  0  0  0  0
   -8.6010   22.3440  -31.6080 C   0  0  0  0  0  0  0  0  0  0  0  0
   -9.2210   21.2270  -32.1680 C   0  0  0  0  0  0  0  0  0  0  0  0
   -8.5110   20.0400  -32.3240 C   0  0  0  0  0  0  0  0  0  0  0  0
   -7.1810   19.9620  -31.9120 C   0  0  0  0  0  0  0  0  0  0  0  0
   -6.5350   21.0760  -31.3460 C   0  0  0  0  0  0  0  0  0  0  0  0
   -5.1110   20.8910  -30.8700 C   0  0  0  0  0  0  0  0  0  0  0  0
   -4.1990   20.8820  -32.0110 N   0  0  0  0  0  0  0  0  0  0  0  0
   -3.8640   19.8080  -32.7540 C   0  0  0  0  0  0  0  0  0  0  0  0
   -2.9340   20.2020  -33.6960 C   0  0  0  0  0  0  0  0  0  0  0  0
   -2.7370   21.5520  -33.4640 C   0  0  0  0  0  0  0  0  0  0  0  0
   -3.5140   21.9320  -32.4350 N   0  0  0  0  0  0  0  0  0  0  0  0
   -4.2590   24.5730  -30.8460 N   0  0  0  0  0  0  0  0  0  0  0  0
   -3.6230   24.1370  -29.6400 C   0  0  0  0  0  0  0  0  0  0  0  0
   -2.3400   23.5850  -29.6980 C   0  0  0  0  0  0  0  0  0  0  0  0
   -1.7140   23.1500  -28.5280 C   0  0  0  0  0  0  0  0  0  0  0  0
   -2.3930   23.2510  -27.3120 C   0  0  0  0  0  0  0  0  0  0  0  0
   -3.6540   23.7590  -27.2770 N   0  0  0  0  0  0  0  0  0  0  0  0
   -4.2810   24.1950  -28.4030 C   0  0  0  0  0  0  0  0  0  0  0  0
   -6.3219   23.3889  -29.6131 H   0  0  0  0  0  0  0  0  0  0  0  0
   -7.3584   24.3723  -30.7282 H   0  0  0  0  0  0  0  0  0  0  0  0
   -9.1722   23.2756  -31.4820 H   0  0  0  0  0  0  0  0  0  0  0  0
  -10.2723   21.2843  -32.4867 H   0  0  0  0  0  0  0  0  0  0  0  0
   -8.9995   19.1625  -32.7728 H   0  0  0  0  0  0  0  0  0  0  0  0
   -6.6301   19.0174  -32.0311 H   0  0  0  0  0  0  0  0  0  0  0  0
   -4.8423   21.7174  -30.1956 H   0  0  0  0  0  0  0  0  0  0  0  0
   -5.0307   19.9324  -30.3366 H   0  0  0  0  0  0  0  0  0  0  0  0
   -4.2636   18.7906  -32.6308 H   0  0  0  0  0  0  0  0  0  0  0  0
   -2.4539   19.5780  -34.4642 H   0  0  0  0  0  0  0  0  0  0  0  0
   -2.0566   22.2064  -34.0287 H   0  0  0  0  0  0  0  0  0  0  0  0
   -3.5700   22.8920  -32.0280 H   0  0  0  0  0  0  0  0  0  0  0  0
   -1.8237   23.4933  -30.6650 H   0  0  0  0  0  0  0  0  0  0  0  0
   -0.6970   22.7323  -28.5639 H   0  0  0  0  0  0  0  0  0  0  0  0
   -1.9078   22.9196  -26.3821 H   0  0  0  0  0  0  0  0  0  0  0  0
   -5.3046   24.5932  -28.3430 H   0  0  0  0  0  0  0  0  0  0  0  0
  1  2  2  0
  2  3  1  0
  3  4  1  0
  4  5  2  0
  5  6  1  0
  6  7  2  0
  7  8  1  0
  8  9  2  0
  9 10  1  0
 10 11  1  0
 11 12  1  0
 12 13  2  0
 13 14  1  0
 14 15  2  0
  2 16  1  0
 16 17  1  0
 17 18  2  0
 18 19  1  0
 19 20  2  0
 20 21  1  0
 21 22  2  0
  9  4  1  0
 15 11  1  0
 22 17  1  0
  3 23  1  0
  3 24  1  0
  5 25  1  0
  6 26  1  0
  7 27  1  0
  8 28  1  0
 10 29  1  0
 10 30  1  0
 12 31  1  0
 13 32  1  0
 14 33  1  0
 15 34  1  0
 18 35  1  0
 19 36  1  0
 20 37  1  0
 22 38  1  0
M  CHG  2  15   1  16  -1
M  END
>  <UniqueID>  (46) 
46

>  <SMILES>  (46) 
O=C(Cc1ccccc1Cn1ccc[nH+]1)[N-]c1cccnc1

>  <Energy>  (46) 
75.62663132083634

>  <Genealogy>  (46) 
O=C(Cc1ccccc1Cn1ccc[nH+]1)[N-]c1cccnc1 (protonated)
O=C(Cc1ccccc1Cn1ccc[nH+]1)[N-]c1cccnc1 (3D coordinates assigned)
O=C(Cc1ccccc1Cn1ccc[nH+]1)[N-]c1cccnc1 (optimized conformer: 75.62663132083634 kcal/mol)

>  <smiles>  (46) 
O=C(Cc1ccccc1Cn1cccn1)Nc1cccnc1

>  <score_type>  (46) 
oracle

>  <origin>  (46) 
adg

>  <m_score__min__energy>  (46) 
-7.3300000000000001

>  <m_primary>  (46) 
energy

$$$$
46:0
     RDKit          3D

 45 47  0  0  0  0  0  0  0  0999 V2000
   -0.1103   21.4384  -31.7875 H   0  0  0  0  0  0  0  0  0  0  0  0
   -1.1140   21.3460  -31.3470 C   0  0  0  0  0  0  0  0  0  0  0  0
   -1.2550   21.0230  -29.9950 C   0  0  0  0  0  0  0  0  0  0  0  0
   -0.3629   20.8686  -29.3702 H   0  0  0  0  0  0  0  0  0  0  0  0
   -2.5320   20.8960  -29.4360 C   0  0  0  0  0  0  0  0  0  0  0  0
   -2.7260   20.4340  -27.5930 Br  0  0  0  0  0  0  0  0  0  0  0  0
   -3.6670   21.1000  -30.2280 C   0  0  0  0  0  0  0  0  0  0  0  0
   -4.6698   20.9784  -29.7926 H   0  0  0  0  0  0  0  0  0  0  0  0
   -3.5280   21.4590  -31.5750 C   0  0  0  0  0  0  0  0  0  0  0  0
   -4.6940   21.6030  -32.3930 N   0  0  0  0  0  0  0  0  0  0  0  0
   -5.9170   21.9270  -32.0520 C   0  0  0  0  0  0  0  0  0  0  0  0
   -6.2850   23.2020  -31.5310 C   0  0  0  0  0  0  0  0  0  0  0  0
   -5.3420   24.2480  -31.2110 C   0  0  0  0  0  0  0  0  0  0  0  0
   -4.5800   25.0800  -30.9480 N   0  0  0  0  0  0  0  0  0  0  0  0
   -7.6240   23.4430  -31.1990 C   0  0  0  0  0  0  0  0  0  0  0  0
   -7.9200   24.4309  -30.8163 H   0  0  0  0  0  0  0  0  0  0  0  0
   -8.5600   22.4720  -31.3440 N   0  0  0  0  0  0  0  0  0  0  0  0
   -9.5510   22.6770  -31.0830 H   0  0  0  0  0  0  0  0  0  0  0  0
   -8.2380   21.2380  -31.8030 C   0  0  0  0  0  0  0  0  0  0  0  0
   -9.0187   20.4679  -31.8890 H   0  0  0  0  0  0  0  0  0  0  0  0
   -6.9200   20.9340  -32.1690 C   0  0  0  0  0  0  0  0  0  0  0  0
   -6.6210   19.5750  -32.6910 C   0  0  0  0  0  0  0  0  0  0  0  0
   -6.8760   18.4430  -31.9010 C   0  0  0  0  0  0  0  0  0  0  0  0
   -7.2950   18.5645  -30.8912 H   0  0  0  0  0  0  0  0  0  0  0  0
   -6.6010   17.1630  -32.3890 C   0  0  0  0  0  0  0  0  0  0  0  0
   -6.7981   16.2829  -31.7593 H   0  0  0  0  0  0  0  0  0  0  0  0
   -6.0740   16.9950  -33.6800 C   0  0  0  0  0  0  0  0  0  0  0  0
   -5.7540   15.6200  -34.2050 C   0  0  0  0  0  0  0  0  0  0  0  0
   -5.7166   15.6523  -35.3039 H   0  0  0  0  0  0  0  0  0  0  0  0
   -6.5360   14.9222  -33.8711 H   0  0  0  0  0  0  0  0  0  0  0  0
   -4.4490   15.1560  -33.6880 N   0  0  0  0  0  0  0  0  0  0  0  0
   -3.7840   14.3060  -34.6870 C   0  0  0  0  0  0  0  0  0  0  0  0
   -3.1841   13.5392  -34.1750 H   0  0  0  0  0  0  0  0  0  0  0  0
   -4.5426   13.8181  -35.3166 H   0  0  0  0  0  0  0  0  0  0  0  0
   -3.1279   14.9249  -35.3166 H   0  0  0  0  0  0  0  0  0  0  0  0
   -4.6210   14.3990  -32.4340 C   0  0  0  0  0  0  0  0  0  0  0  0
   -4.4684   15.0707  -31.5764 H   0  0  0  0  0  0  0  0  0  0  0  0
   -5.6373   13.9799  -32.3952 H   0  0  0  0  0  0  0  0  0  0  0  0
   -3.8856   13.5819  -32.3952 H   0  0  0  0  0  0  0  0  0  0  0  0
   -5.8250   18.1250  -34.4730 C   0  0  0  0  0  0  0  0  0  0  0  0
   -5.4109   18.0027  -35.4847 H   0  0  0  0  0  0  0  0  0  0  0  0
   -6.1000   19.4050  -33.9850 C   0  0  0  0  0  0  0  0  0  0  0  0
   -5.9076   20.2844  -34.6171 H   0  0  0  0  0  0  0  0  0  0  0  0
   -2.2460   21.5520  -32.1410 C   0  0  0  0  0  0  0  0  0  0  0  0
   -2.1326   21.7870  -33.2096 H   0  0  0  0  0  0  0  0  0  0  0  0
  1  2  1  0
  2  3  2  0
  3  4  1  0
  3  5  1  0
  5  6  1  0
  5  7  2  0
  7  8  1  0
  7  9  1  0
  9 10  1  0
 10 11  2  0
 11 12  1  0
 12 13  1  0
 13 14  3  0
 12 15  2  0
 15 16  1  0
 15 17  1  0
 17 18  1  0
 17 19  1  0
 19 20  1  0
 19 21  2  0
 21 22  1  0
 22 23  2  0
 23 24  1  0
 23 25  1  0
 25 26  1  0
 25 27  2  0
 27 28  1  0
 28 29  1  0
 28 30  1  0
 28 31  1  0
 31 32  1  0
 32 33  1  0
 32 34  1  0
 32 35  1  0
 31 36  1  0
 36 37  1  0
 36 38  1  0
 36 39  1  0
 27 40  1  0
 40 41  1  0
 40 42  2  0
 42 43  1  0
  9 44  2  0
 44 45  1  0
 44  2  1  0
 21 11  1  0
 42 22  1  0
M  END
>  <UniqueID>  (47) 
47

>  <SMILES>  (47) 
CN(C)Cc1ccc(-c2c[nH]cc(C#N)/c2=N\c2cccc(Br)c2)cc1

>  <Energy>  (47) 
69.2603471773212

>  <Genealogy>  (47) 
CN(C)Cc1ccc(-c2c[nH]cc(C#N)/c2=N\c2cccc(Br)c2)cc1 (cis-trans isomerization)
CN(C)Cc1ccc(-c2c[nH]cc(C#N)/c2=N\c2cccc(Br)c2)cc1 (3D coordinates assigned)
CN(C)Cc1ccc(-c2c[nH]cc(C#N)/c2=N\c2cccc(Br)c2)cc1 (optimized conformer: 69.2603471773212 kcal/mol)

>  <smiles>  (47) 
CN(C)Cc1ccc(-c2c[nH]cc(C#N)c2=Nc2cccc(Br)c2)cc1

>  <score_type>  (47) 
oracle

>  <origin>  (47) 
adg

>  <m_score__min__energy>  (47) 
-8.5700000000000003

>  <m_primary>  (47) 
energy

$$$$
47:0
     RDKit          3D

 49 52  0  0  0  0  0  0  0  0999 V2000
   -2.2760   23.3890  -28.5320 C   0  0  0  0  0  0  0  0  0  0  0  0
   -2.9270   24.5170  -29.3450 C   0  0  0  0  0  0  0  0  0  0  0  0
   -4.2340   24.1650  -29.9440 N   0  0  0  0  0  0  0  0  0  0  0  0
   -4.7860   22.8910  -29.4430 C   0  0  0  0  0  0  0  0  0  0  0  0
   -6.2380   22.6710  -29.9240 C   0  0  0  0  0  0  0  0  0  0  0  0
   -6.5650   23.4770  -31.1170 N   0  0  0  0  0  0  0  0  0  0  0  0
   -5.8390   23.0020  -32.3160 C   0  0  0  0  0  0  0  0  0  0  0  0
   -5.9760   21.5110  -32.4820 C   0  0  0  0  0  0  0  0  0  0  0  0
   -4.9650   20.5440  -32.5850 C   0  0  0  0  0  0  0  0  0  0  0  0
   -3.5050   20.7670  -32.6490 C   0  0  0  0  0  0  0  0  0  0  0  0
   -2.7610   20.4010  -33.7840 C   0  0  0  0  0  0  0  0  0  0  0  0
   -1.3790   20.6090  -33.8220 C   0  0  0  0  0  0  0  0  0  0  0  0
   -0.7260   21.1720  -32.7220 C   0  0  0  0  0  0  0  0  0  0  0  0
   -1.4520   21.5200  -31.5810 C   0  0  0  0  0  0  0  0  0  0  0  0
   -2.8350   21.3140  -31.5410 C   0  0  0  0  0  0  0  0  0  0  0  0
   -5.5270   19.3140  -32.5590 N   0  0  0  0  0  0  0  0  0  0  0  0
   -6.8340   19.4630  -32.4480 N   0  0  0  0  0  0  0  0  0  0  0  0
   -7.7630   18.4740  -32.3680 C   0  0  0  0  0  0  0  0  0  0  0  0
   -9.1080   18.8390  -32.2150 C   0  0  0  0  0  0  0  0  0  0  0  0
   -9.4550   20.2020  -32.1410 C   0  0  0  0  0  0  0  0  0  0  0  0
   -8.4620   21.1910  -32.2240 C   0  0  0  0  0  0  0  0  0  0  0  0
   -7.1420   20.7690  -32.3890 C   0  0  0  0  0  0  0  0  0  0  0  0
   -6.3950   24.9290  -30.8560 C   0  0  0  0  0  0  0  0  0  0  0  0
   -5.2250   25.2490  -29.9030 C   0  0  0  0  0  0  0  0  0  0  0  0
   -2.3950   23.5953  -27.4581 H   0  0  0  0  0  0  0  0  0  0  0  0
   -2.7612   22.4328  -28.7777 H   0  0  0  0  0  0  0  0  0  0  0  0
   -1.2054   23.3307  -28.7777 H   0  0  0  0  0  0  0  0  0  0  0  0
   -3.0754   25.3795  -28.6787 H   0  0  0  0  0  0  0  0  0  0  0  0
   -2.2467   24.7328  -30.1820 H   0  0  0  0  0  0  0  0  0  0  0  0
   -4.1601   22.0631  -29.8074 H   0  0  0  0  0  0  0  0  0  0  0  0
   -4.7898   22.9267  -28.3436 H   0  0  0  0  0  0  0  0  0  0  0  0
   -6.3713   21.6070  -30.1694 H   0  0  0  0  0  0  0  0  0  0  0  0
   -6.9109   22.9854  -29.1126 H   0  0  0  0  0  0  0  0  0  0  0  0
   -6.2506   23.5012  -33.2056 H   0  0  0  0  0  0  0  0  0  0  0  0
   -4.7724   23.2419  -32.1946 H   0  0  0  0  0  0  0  0  0  0  0  0
   -3.2694   19.9480  -34.6479 H   0  0  0  0  0  0  0  0  0  0  0  0
   -0.8054   20.3294  -34.7180 H   0  0  0  0  0  0  0  0  0  0  0  0
    0.3604   21.3411  -32.7551 H   0  0  0  0  0  0  0  0  0  0  0  0
   -0.9360   21.9564  -30.7131 H   0  0  0  0  0  0  0  0  0  0  0  0
   -3.4017   21.5817  -30.6370 H   0  0  0  0  0  0  0  0  0  0  0  0
   -5.0300   18.3960  -32.6110 H   0  0  0  0  0  0  0  0  0  0  0  0
   -7.4675   17.4158  -32.4218 H   0  0  0  0  0  0  0  0  0  0  0  0
   -9.8876   18.0655  -32.1531 H   0  0  0  0  0  0  0  0  0  0  0  0
  -10.5086   20.4929  -32.0176 H   0  0  0  0  0  0  0  0  0  0  0  0
   -8.7152   22.2596  -32.1613 H   0  0  0  0  0  0  0  0  0  0  0  0
   -6.2121   25.4362  -31.8148 H   0  0  0  0  0  0  0  0  0  0  0  0
   -7.3159   25.2804  -30.3678 H   0  0  0  0  0  0  0  0  0  0  0  0
   -4.7485   26.1904  -30.2141 H   0  0  0  0  0  0  0  0  0  0  0  0
   -5.6106   25.3478  -28.8775 H   0  0  0  0  0  0  0  0  0  0  0  0
  1  2  1  0
  2  3  1  0
  3  4  1  0
  4  5  1  0
  5  6  1  0
  6  7  1  0
  7  8  1  0
  8  9  1  0
  9 10  1  0
 10 11  2  0
 11 12  1  0
 12 13  2  0
 13 14  1  0
 14 15  2  0
  9 16  2  0
 16 17  1  0
 17 18  1  0
 18 19  2  0
 19 20  1  0
 20 21  2  0
 21 22  1  0
  6 23  1  0
 23 24  1  0
 24  3  1  0
 22  8  2  0
 15 10  1  0
 22 17  1  0
  1 25  1  0
  1 26  1  0
  1 27  1  0
  2 28  1  0
  2 29  1  0
  4 30  1  0
  4 31  1  0
  5 32  1  0
  5 33  1  0
  7 34  1  0
  7 35  1  0
 11 36  1  0
 12 37  1  0
 13 38  1  0
 14 39  1  0
 15 40  1  0
 16 41  1  0
 18 42  1  0
 19 43  1  0
 20 44  1  0
 21 45  1  0
 23 46  1  0
 23 47  1  0
 24 48  1  0
 24 49  1  0
M  CHG  1  16   1
M  END
>  <UniqueID>  (48) 
48

>  <SMILES>  (48) 
CCN1CCN(Cc2c(-c3ccccc3)[nH+]n3ccccc23)CC1

>  <Energy>  (48) 
104.66799412902353

>  <Genealogy>  (48) 
CCN1CCN(Cc2c(-c3ccccc3)[nH+]n3ccccc23)CC1 (protonated)
CCN1CCN(Cc2c(-c3ccccc3)[nH+]n3ccccc23)CC1 (3D coordinates assigned)
CCN1CCN(Cc2c(-c3ccccc3)[nH+]n3ccccc23)CC1 (nonaromatic ring conformer: 104.66799412902353 kcal/mol)

>  <smiles>  (48) 
CCN1CCN(Cc2c(-c3ccccc3)nn3ccccc23)CC1

>  <score_type>  (48) 
oracle

>  <origin>  (48) 
adg

>  <m_score__min__energy>  (48) 
-7.7999999999999998

>  <m_primary>  (48) 
energy

$$$$
48:0
     RDKit          3D

 63 66  0  0  0  0  0  0  0  0999 V2000
   -2.7320   18.6520  -25.7210 C   0  0  0  0  0  0  0  0  0  0  0  0
   -2.0050   19.2100  -26.8720 N   0  0  0  0  0  0  0  0  0  0  0  0
   -0.6750   18.6040  -27.1160 C   0  0  0  0  0  0  0  0  0  0  0  0
   -0.0630   18.9350  -28.4970 C   0  0  0  0  0  0  0  0  0  0  0  0
    0.7260   20.2500  -28.5610 C   0  0  0  0  0  0  0  0  0  0  0  0
   -0.1630   21.4260  -28.3610 N   0  0  0  0  0  0  0  0  0  0  0  0
   -1.2590   21.5690  -29.3700 C   0  0  0  0  0  0  0  0  0  0  0  0
   -1.6990   23.0540  -29.4890 C   0  0  0  0  0  0  0  0  0  0  0  0
   -2.9870   23.1580  -30.3240 C   0  0  0  0  0  0  0  0  0  0  0  0
   -2.9770   22.1880  -31.4290 N   0  0  0  0  0  0  0  0  0  0  0  0
   -4.2190   21.6760  -31.9530 C   0  0  0  0  0  0  0  0  0  0  0  0
   -4.2140   20.7160  -32.9770 C   0  0  0  0  0  0  0  0  0  0  0  0
   -5.4130   20.2030  -33.4730 C   0  0  0  0  0  0  0  0  0  0  0  0
   -6.6440   20.6440  -32.9550 C   0  0  0  0  0  0  0  0  0  0  0  0
   -7.8830   20.0930  -33.4470 N   0  0  0  0  0  0  0  0  0  0  0  0
   -8.2920   18.9470  -32.6230 C   0  0  0  0  0  0  0  0  0  0  0  0
   -7.2290   17.8800  -32.6370 C   0  0  0  0  0  0  0  0  0  0  0  0
   -6.5780   17.5230  -31.4430 C   0  0  0  0  0  0  0  0  0  0  0  0
   -5.5780   16.5460  -31.4530 C   0  0  0  0  0  0  0  0  0  0  0  0
   -5.2130   15.9270  -32.6520 C   0  0  0  0  0  0  0  0  0  0  0  0
   -5.8460   16.2860  -33.8460 C   0  0  0  0  0  0  0  0  0  0  0  0
   -6.8490   17.2620  -33.8420 C   0  0  0  0  0  0  0  0  0  0  0  0
   -6.6490   21.5980  -31.9230 C   0  0  0  0  0  0  0  0  0  0  0  0
   -5.4470   22.1040  -31.4220 C   0  0  0  0  0  0  0  0  0  0  0  0
   -1.6860   21.7090  -31.9330 C   0  0  0  0  0  0  0  0  0  0  0  0
   -0.8590   21.0780  -30.7970 C   0  0  0  0  0  0  0  0  0  0  0  0
   -0.7030   21.3840  -26.9740 C   0  0  0  0  0  0  0  0  0  0  0  0
   -2.0700   20.6870  -26.9450 C   0  0  0  0  0  0  0  0  0  0  0  0
   -2.2696   19.0069  -24.7882 H   0  0  0  0  0  0  0  0  0  0  0  0
   -3.7818   18.9784  -25.7572 H   0  0  0  0  0  0  0  0  0  0  0  0
   -2.6881   17.5535  -25.7572 H   0  0  0  0  0  0  0  0  0  0  0  0
    0.0149   18.9652  -26.3390 H   0  0  0  0  0  0  0  0  0  0  0  0
   -0.8186   17.5137  -27.0907 H   0  0  0  0  0  0  0  0  0  0  0  0
    0.6170   18.1158  -28.7736 H   0  0  0  0  0  0  0  0  0  0  0  0
   -0.9110   19.0525  -29.1877 H   0  0  0  0  0  0  0  0  0  0  0  0
    1.4951   20.2447  -27.7745 H   0  0  0  0  0  0  0  0  0  0  0  0
    1.1869   20.3294  -29.5566 H   0  0  0  0  0  0  0  0  0  0  0  0
   -2.0788   20.9344  -29.0022 H   0  0  0  0  0  0  0  0  0  0  0  0
   -1.8832   23.4606  -28.4837 H   0  0  0  0  0  0  0  0  0  0  0  0
   -0.9015   23.6274  -29.9841 H   0  0  0  0  0  0  0  0  0  0  0  0
   -3.8531   22.9569  -29.6763 H   0  0  0  0  0  0  0  0  0  0  0  0
   -3.0501   24.1714  -30.7471 H   0  0  0  0  0  0  0  0  0  0  0  0
   -3.2574   20.3654  -33.3917 H   0  0  0  0  0  0  0  0  0  0  0  0
   -5.3954   19.4492  -34.2739 H   0  0  0  0  0  0  0  0  0  0  0  0
   -8.6220   20.8310  -33.4300 H   0  0  0  0  0  0  0  0  0  0  0  0
   -7.7660   19.7880  -34.4430 H   0  0  0  0  0  0  0  0  0  0  0  0
   -8.4526   19.2842  -31.5884 H   0  0  0  0  0  0  0  0  0  0  0  0
   -9.2220   18.5275  -33.0342 H   0  0  0  0  0  0  0  0  0  0  0  0
   -6.8562   18.0136  -30.4986 H   0  0  0  0  0  0  0  0  0  0  0  0
   -5.0773   16.2637  -30.5151 H   0  0  0  0  0  0  0  0  0  0  0  0
   -4.4274   15.1571  -32.6562 H   0  0  0  0  0  0  0  0  0  0  0  0
   -5.5553   15.8008  -34.7894 H   0  0  0  0  0  0  0  0  0  0  0  0
   -7.3414   17.5465  -34.7836 H   0  0  0  0  0  0  0  0  0  0  0  0
   -7.6052   21.9484  -31.5072 H   0  0  0  0  0  0  0  0  0  0  0  0
   -5.4623   22.8422  -30.6066 H   0  0  0  0  0  0  0  0  0  0  0  0
   -1.8606   20.9549  -32.7145 H   0  0  0  0  0  0  0  0  0  0  0  0
   -1.1280   22.5628  -32.3449 H   0  0  0  0  0  0  0  0  0  0  0  0
   -0.9927   19.9869  -30.8372 H   0  0  0  0  0  0  0  0  0  0  0  0
    0.1855   21.3838  -30.9569 H   0  0  0  0  0  0  0  0  0  0  0  0
   -0.0024   20.8319  -26.3303 H   0  0  0  0  0  0  0  0  0  0  0  0
   -0.8239   22.4150  -26.6102 H   0  0  0  0  0  0  0  0  0  0  0  0
   -2.6222   21.0504  -26.0658 H   0  0  0  0  0  0  0  0  0  0  0  0
   -2.5658   20.9315  -27.8960 H   0  0  0  0  0  0  0  0  0  0  0  0
  1  2  1  0
  2  3  1  0
  3  4  1  0
  4  5  1  0
  5  6  1  0
  6  7  1  0
  7  8  1  0
  8  9  1  0
  9 10  1  0
 10 11  1  0
 11 12  2  0
 12 13  1  0
 13 14  2  0
 14 15  1  0
 15 16  1  0
 16 17  1  0
 17 18  2  0
 18 19  1  0
 19 20  2  0
 20 21  1  0
 21 22  2  0
 14 23  1  0
 23 24  2  0
 10 25  1  0
 25 26  1  0
  6 27  1  0
 27 28  1  0
 28  2  1  0
 26  7  1  0
 24 11  1  0
 22 17  1  0
  1 29  1  0
  1 30  1  0
  1 31  1  0
  3 32  1  0
  3 33  1  0
  4 34  1  0
  4 35  1  0
  5 36  1  0
  5 37  1  0
  7 38  1  0
  8 39  1  0
  8 40  1  0
  9 41  1  0
  9 42  1  0
 12 43  1  0
 13 44  1  0
 15 45  1  0
 15 46  1  0
 16 47  1  0
 16 48  1  0
 18 49  1  0
 19 50  1  0
 20 51  1  0
 21 52  1  0
 22 53  1  0
 23 54  1  0
 24 55  1  0
 25 56  1  0
 25 57  1  0
 26 58  1  0
 26 59  1  0
 27 60  1  0
 27 61  1  0
 28 62  1  0
 28 63  1  0
M  CHG  1  15   1
M  END
>  <UniqueID>  (49) 
49

>  <SMILES>  (49) 
CN1CCCN(C2CCN(c3ccc([NH2+]Cc4ccccc4)cc3)CC2)CC1

>  <Energy>  (49) 
94.7224668046399

>  <Genealogy>  (49) 
CN1CCCN(C2CCN(c3ccc([NH2+]Cc4ccccc4)cc3)CC2)CC1 (protonated)
CN1CCCN(C2CCN(c3ccc([NH2+]Cc4ccccc4)cc3)CC2)CC1 (3D coordinates assigned)
CN1CCCN(C2CCN(c3ccc([NH2+]Cc4ccccc4)cc3)CC2)CC1 (nonaromatic ring conformer: 94.7224668046399 kcal/mol)

>  <smiles>  (49) 
CN1CCCN(C2CCN(c3ccc(NCc4ccccc4)cc3)CC2)CC1

>  <score_type>  (49) 
oracle

>  <origin>  (49) 
adg

>  <m_score__min__energy>  (49) 
-7.1900000000000004

>  <m_primary>  (49) 
energy

$$$$
49:0
     RDKit          3D

 42 44  0  0  0  0  0  0  0  0999 V2000
   -5.4010   25.1400  -29.6730 C   0  0  0  0  0  0  0  0  0  0  0  0
   -4.4480   24.0650  -30.0210 N   0  0  0  0  0  0  0  0  0  0  0  0
   -3.1170   24.2160  -29.7320 C   0  0  0  0  0  0  0  0  0  0  0  0
   -2.6920   25.2660  -29.1730 O   0  0  0  0  0  0  0  0  0  0  0  0
   -2.2020   23.2080  -30.0540 C   0  0  0  0  0  0  0  0  0  0  0  0
   -0.9820   23.3840  -29.7730 O   0  0  0  0  0  0  0  0  0  0  0  0
   -2.6220   22.0530  -30.6610 N   0  0  0  0  0  0  0  0  0  0  0  0
   -1.6410   21.0000  -30.9880 C   0  0  0  0  0  0  0  0  0  0  0  0
   -3.9560   21.8870  -30.9620 C   0  0  0  0  0  0  0  0  0  0  0  0
   -4.4090   20.7430  -31.5750 N   0  0  0  0  0  0  0  0  0  0  0  0
   -5.7210   20.5450  -31.8810 C   0  0  0  0  0  0  0  0  0  0  0  0
   -6.1200   19.3260  -32.5290 N   0  0  0  0  0  0  0  0  0  0  0  0
   -5.7150   18.0490  -31.9320 C   0  0  0  0  0  0  0  0  0  0  0  0
   -6.6970   16.9260  -32.2810 C   0  0  0  0  0  0  0  0  0  0  0  0
   -6.8920   16.6520  -33.7870 C   0  0  0  0  0  0  0  0  0  0  0  0
   -5.6880   17.0010  -34.6810 C   0  0  0  0  0  0  0  0  0  0  0  0
   -5.4630   18.5190  -34.7920 C   0  0  0  0  0  0  0  0  0  0  0  0
   -6.4390   19.3620  -33.9620 C   0  0  0  0  0  0  0  0  0  0  0  0
   -6.6620   21.5320  -31.5740 C   0  0  0  0  0  0  0  0  0  0  0  0
   -8.5240   21.3100  -31.9640 Br  0  0  0  0  0  0  0  0  0  0  0  0
   -6.2430   22.7050  -30.9540 C   0  0  0  0  0  0  0  0  0  0  0  0
   -4.8840   22.9110  -30.6340 C   0  0  0  0  0  0  0  0  0  0  0  0
   -5.4754   25.2240  -28.5787 H   0  0  0  0  0  0  0  0  0  0  0  0
   -5.0463   26.0938  -30.0906 H   0  0  0  0  0  0  0  0  0  0  0  0
   -6.3905   24.9022  -30.0906 H   0  0  0  0  0  0  0  0  0  0  0  0
   -1.2406   20.5703  -30.0579 H   0  0  0  0  0  0  0  0  0  0  0  0
   -2.1327   20.2102  -31.5749 H   0  0  0  0  0  0  0  0  0  0  0  0
   -0.8184   21.4347  -31.5749 H   0  0  0  0  0  0  0  0  0  0  0  0
   -3.7530   19.9780  -31.8400 H   0  0  0  0  0  0  0  0  0  0  0  0
   -4.7169   17.7799  -32.3080 H   0  0  0  0  0  0  0  0  0  0  0  0
   -5.7041   18.1687  -30.8386 H   0  0  0  0  0  0  0  0  0  0  0  0
   -6.3314   15.9998  -31.8135 H   0  0  0  0  0  0  0  0  0  0  0  0
   -7.6769   17.2575  -31.9071 H   0  0  0  0  0  0  0  0  0  0  0  0
   -7.1089   15.5809  -33.9122 H   0  0  0  0  0  0  0  0  0  0  0  0
   -7.7123   17.3090  -34.1118 H   0  0  0  0  0  0  0  0  0  0  0  0
   -4.7851   16.5400  -34.2541 H   0  0  0  0  0  0  0  0  0  0  0  0
   -5.8964   16.6172  -35.6906 H   0  0  0  0  0  0  0  0  0  0  0  0
   -4.4405   18.7418  -34.4531 H   0  0  0  0  0  0  0  0  0  0  0  0
   -5.6310   18.7870  -35.8455 H   0  0  0  0  0  0  0  0  0  0  0  0
   -6.3916   20.4045  -34.3098 H   0  0  0  0  0  0  0  0  0  0  0  0
   -7.4470   18.9421  -34.0952 H   0  0  0  0  0  0  0  0  0  0  0  0
   -6.9815   23.4828  -30.7098 H   0  0  0  0  0  0  0  0  0  0  0  0
  1  2  1  0
  2  3  1  0
  3  4  2  0
  3  5  1  0
  5  6  2  0
  5  7  1  0
  7  8  1  0
  7  9  1  0
  9 10  2  0
 10 11  1  0
 11 12  1  0
 12 13  1  0
 13 14  1  0
 14 15  1  0
 15 16  1  0
 16 17  1  0
 17 18  1  0
 11 19  2  0
 19 20  1  0
 19 21  1  0
 21 22  2  0
 22  2  1  0
 22  9  1  0
 18 12  1  0
  1 23  1  0
  1 24  1  0
  1 25  1  0
  8 26  1  0
  8 27  1  0
  8 28  1  0
 10 29  1  0
 13 30  1  0
 13 31  1  0
 14 32  1  0
 14 33  1  0
 15 34  1  0
 15 35  1  0
 16 36  1  0
 16 37  1  0
 17 38  1  0
 17 39  1  0
 18 40  1  0
 18 41  1  0
 21 42  1  0
M  CHG  1  10   1
M  END
>  <UniqueID>  (50) 
50

>  <SMILES>  (50) 
Cn1c(=O)c(=O)n(C)c2[nH+]c(N3CCCCCC3)c(Br)cc21

>  <Energy>  (50) 
67.36601265526635

>  <Genealogy>  (50) 
Cn1c(=O)c(=O)n(C)c2[nH+]c(N3CCCCCC3)c(Br)cc21 (protonated)
Cn1c(=O)c(=O)n(C)c2[nH+]c(N3CCCCCC3)c(Br)cc21 (3D coordinates assigned)
Cn1c(=O)c(=O)n(C)c2[nH+]c(N3CCCCCC3)c(Br)cc21 (nonaromatic ring conformer: 67.36601265526635 kcal/mol)

>  <smiles>  (50) 
Cn1c(=O)c(=O)n(C)c2nc(N3CCCCCC3)c(Br)cc21

>  <score_type>  (50) 
oracle

>  <origin>  (50) 
adg

>  <m_score__min__energy>  (50) 
-5.4000000000000004

>  <m_primary>  (50) 
energy

$$$$
