0:0
     RDKit          3D

 45 47  0  0  0  0  0  0  0  0999 V2000
   -5.8270   20.8210  -33.0340 C   0  0  0  0  0  0  0  0  0  0  0  0
   -5.7910   22.0800  -32.2290 C   0  0  0  0  0  0  0  0  0  0  0  0
   -6.8660   22.9770  -32.2680 C   0  0  0  0  0  0  0  0  0  0  0  0
   -6.8130   24.1390  -31.4990 C   0  0  0  0  0  0  0  0  0  0  0  0
   -5.6960   24.4010  -30.7040 C   0  0  0  0  0  0  0  0  0  0  0  0
   -4.6290   23.4890  -30.6940 C   0  0  0  0  0  0  0  0  0  0  0  0
   -3.4200   23.7250  -29.8190 C   0  0  0  0  0  0  0  0  0  0  0  0
   -3.8460   24.1530  -28.3940 C   0  0  0  0  0  0  0  0  0  0  0  0
   -2.9640   23.5410  -27.2890 C   0  0  0  0  0  0  0  0  0  0  0  0
   -1.5360   23.4670  -27.6580 N   0  0  0  0  0  0  0  0  0  0  0  0
   -0.7520   25.0300  -27.5830 S   0  0  0  0  0  0  0  0  0  0  0  0
   -1.5340   26.0430  -28.3720 O   0  0  0  0  0  0  0  0  0  0  0  0
    0.6250   24.9270  -28.1740 O   0  0  0  0  0  0  0  0  0  0  0  0
   -0.5930   25.5550  -25.9070 C   0  0  0  0  0  0  0  0  0  0  0  0
   -0.3530   24.7930  -24.7780 C   0  0  0  0  0  0  0  0  0  0  0  0
   -0.1850   23.3100  -24.7010 C   0  0  0  0  0  0  0  0  0  0  0  0
   -0.2750   25.6200  -23.7170 N   0  0  0  0  0  0  0  0  0  0  0  0
   -0.4500   26.8390  -24.1370 O   0  0  0  0  0  0  0  0  0  0  0  0
   -0.6430   26.8550  -25.4370 C   0  0  0  0  0  0  0  0  0  0  0  0
   -0.8560   28.0930  -26.2430 C   0  0  0  0  0  0  0  0  0  0  0  0
   -1.2600   22.7660  -28.9390 C   0  0  0  0  0  0  0  0  0  0  0  0
   -2.5150   22.4850  -29.7840 C   0  0  0  0  0  0  0  0  0  0  0  0
   -4.7130   22.3550  -31.4460 N   0  0  0  0  0  0  0  0  0  0  0  0
   -5.8518   19.9539  -32.3576 H   0  0  0  0  0  0  0  0  0  0  0  0
   -6.7256   20.8170  -33.6684 H   0  0  0  0  0  0  0  0  0  0  0  0
   -4.9301   20.7656  -33.6684 H   0  0  0  0  0  0  0  0  0  0  0  0
   -7.7426   22.7671  -32.8985 H   0  0  0  0  0  0  0  0  0  0  0  0
   -7.6522   24.8498  -31.5189 H   0  0  0  0  0  0  0  0  0  0  0  0
   -5.6523   25.3134  -30.0912 H   0  0  0  0  0  0  0  0  0  0  0  0
   -2.8371   24.5491  -30.2561 H   0  0  0  0  0  0  0  0  0  0  0  0
   -3.7837   25.2490  -28.3245 H   0  0  0  0  0  0  0  0  0  0  0  0
   -4.8712   23.7873  -28.2349 H   0  0  0  0  0  0  0  0  0  0  0  0
   -3.0595   24.1583  -26.3836 H   0  0  0  0  0  0  0  0  0  0  0  0
   -3.3130   22.5107  -27.1256 H   0  0  0  0  0  0  0  0  0  0  0  0
   -0.1498   22.9992  -23.6464 H   0  0  0  0  0  0  0  0  0  0  0  0
   -1.0332   22.8185  -25.2000 H   0  0  0  0  0  0  0  0  0  0  0  0
    0.7517   23.0207  -25.2000 H   0  0  0  0  0  0  0  0  0  0  0  0
   -0.1000   25.3520  -22.7240 H   0  0  0  0  0  0  0  0  0  0  0  0
   -1.0033   28.9491  -25.5681 H   0  0  0  0  0  0  0  0  0  0  0  0
    0.0243   28.2735  -26.8774 H   0  0  0  0  0  0  0  0  0  0  0  0
   -1.7460   27.9689  -26.8774 H   0  0  0  0  0  0  0  0  0  0  0  0
   -0.5756   23.3892  -29.5334 H   0  0  0  0  0  0  0  0  0  0  0  0
   -0.8270   21.7888  -28.6791 H   0  0  0  0  0  0  0  0  0  0  0  0
   -2.2121   22.2273  -30.8096 H   0  0  0  0  0  0  0  0  0  0  0  0
   -3.0701   21.6484  -29.3346 H   0  0  0  0  0  0  0  0  0  0  0  0
  1  2  1  0
  2  3  2  0
  3  4  1  0
  4  5  2  0
  5  6  1  0
  6  7  1  0
  7  8  1  0
  8  9  1  0
  9 10  1  0
 10 11  1  0
 11 12  2  0
 11 13  2  0
 11 14  1  0
 14 15  1  0
 15 16  1  0
 15 17  2  0
 17 18  1  0
 18 19  1  0
 19 20  1  0
 10 21  1  0
 21 22  1  0
  6 23  2  0
 23  2  1  0
 22  7  1  0
 19 14  2  0
  1 24  1  0
  1 25  1  0
  1 26  1  0
  3 27  1  0
  4 28  1  0
  5 29  1  0
  7 30  1  0
  8 31  1  0
  8 32  1  0
  9 33  1  0
  9 34  1  0
 16 35  1  0
 16 36  1  0
 16 37  1  0
 17 38  1  0
 20 39  1  0
 20 40  1  0
 20 41  1  0
 21 42  1  0
 21 43  1  0
 22 44  1  0
 22 45  1  0
M  CHG  1  17   1
M  END
>  <UniqueID>  (1) 
1

>  <SMILES>  (1) 
Cc1cccc(C2CCN(S(=O)(=O)c3c(C)[nH+]oc3C)CC2)n1

>  <Energy>  (1) 
82.23345852204133

>  <Genealogy>  (1) 
Cc1cccc(C2CCN(S(=O)(=O)c3c(C)[nH+]oc3C)CC2)n1 (protonated)
Cc1cccc(C2CCN(S(=O)(=O)c3c(C)[nH+]oc3C)CC2)n1 (3D coordinates assigned)
Cc1cccc(C2CCN(S(=O)(=O)c3c(C)[nH+]oc3C)CC2)n1 (nonaromatic ring conformer: 82.23345852204133 kcal/mol)

>  <smiles>  (1) 
Cc1cccc(C2CCN(S(=O)(=O)c3c(C)noc3C)CC2)n1

>  <score_type>  (1) 
oracle

>  <origin>  (1) 
adg

>  <m_score__min__energy>  (1) 
-9.2300000000000004

>  <m_primary>  (1) 
energy

$$$$
1:0
     RDKit          3D

 34 36  0  0  0  0  0  0  0  0999 V2000
   -4.8640   25.7070  -30.4900 N   0  0  0  0  0  0  0  0  0  0  0  0
   -4.5910   24.3420  -30.7710 C   0  0  0  0  0  0  0  0  0  0  0  0
   -3.3810   23.9330  -30.8250 O   0  0  0  0  0  0  0  0  0  0  0  0
   -5.7150   23.4350  -30.9900 C   0  0  0  0  0  0  0  0  0  0  0  0
   -5.5160   22.1980  -31.5670 C   0  0  0  0  0  0  0  0  0  0  0  0
   -6.6330   21.3800  -31.7500 C   0  0  0  0  0  0  0  0  0  0  0  0
   -7.8890   21.8010  -31.3640 C   0  0  0  0  0  0  0  0  0  0  0  0
   -8.0330   22.9740  -30.8240 O   0  0  0  0  0  0  0  0  0  0  0  0
   -7.0060   23.7700  -30.6360 C   0  0  0  0  0  0  0  0  0  0  0  0
   -7.2380   24.8890  -30.1070 O   0  0  0  0  0  0  0  0  0  0  0  0
   -9.1120   20.9690  -31.5350 C   0  0  0  0  0  0  0  0  0  0  0  0
   -8.6300   19.5340  -31.6490 C   0  0  0  0  0  0  0  0  0  0  0  0
   -7.6350   19.4260  -32.6690 N   0  0  0  0  0  0  0  0  0  0  0  0
   -7.5190   18.0600  -33.0810 C   0  0  0  0  0  0  0  0  0  0  0  0
   -6.2300   17.7220  -33.7310 C   0  0  0  0  0  0  0  0  0  0  0  0
   -5.7340   18.1020  -34.9600 C   0  0  0  0  0  0  0  0  0  0  0  0
   -4.5220   17.5160  -35.0560 N   0  0  0  0  0  0  0  0  0  0  0  0
   -4.2520   16.7990  -33.9500 C   0  0  0  0  0  0  0  0  0  0  0  0
   -5.3060   16.9230  -33.1270 N   0  0  0  0  0  0  0  0  0  0  0  0
   -6.3810   20.0570  -32.3730 C   0  0  0  0  0  0  0  0  0  0  0  0
   -4.7030   26.4430  -31.1960 H   0  0  0  0  0  0  0  0  0  0  0  0
   -5.2420   26.0260  -29.5530 H   0  0  0  0  0  0  0  0  0  0  0  0
   -4.5123   21.8673  -31.8724 H   0  0  0  0  0  0  0  0  0  0  0  0
   -9.7753   21.0813  -30.6647 H   0  0  0  0  0  0  0  0  0  0  0  0
   -9.6849   21.2731  -32.4234 H   0  0  0  0  0  0  0  0  0  0  0  0
   -8.1999   19.2179  -30.6872 H   0  0  0  0  0  0  0  0  0  0  0  0
   -9.4822   18.8893  -31.9099 H   0  0  0  0  0  0  0  0  0  0  0  0
   -7.6335   17.4220  -32.1923 H   0  0  0  0  0  0  0  0  0  0  0  0
   -8.3030   17.8924  -33.8342 H   0  0  0  0  0  0  0  0  0  0  0  0
   -6.2229   18.7468  -35.7051 H   0  0  0  0  0  0  0  0  0  0  0  0
   -3.8630   17.5910  -35.8640 H   0  0  0  0  0  0  0  0  0  0  0  0
   -3.3377   16.2190  -33.7559 H   0  0  0  0  0  0  0  0  0  0  0  0
   -5.8075   19.4266  -31.6776 H   0  0  0  0  0  0  0  0  0  0  0  0
   -5.8071   20.1903  -33.3019 H   0  0  0  0  0  0  0  0  0  0  0  0
  1  2  1  0
  2  3  2  0
  2  4  1  0
  4  5  2  0
  5  6  1  0
  6  7  2  0
  7  8  1  0
  8  9  1  0
  9 10  2  0
  7 11  1  0
 11 12  1  0
 12 13  1  0
 13 14  1  0
 14 15  1  0
 15 16  2  0
 16 17  1  0
 17 18  1  0
 18 19  2  0
 13 20  1  0
  9  4  1  0
 19 15  1  0
 20  6  1  0
  1 21  1  0
  1 22  1  0
  5 23  1  0
 11 24  1  0
 11 25  1  0
 12 26  1  0
 12 27  1  0
 14 28  1  0
 14 29  1  0
 16 30  1  0
 17 31  1  0
 18 32  1  0
 20 33  1  0
 20 34  1  0
M  END
>  <smiles>  (2) 
NC(=O)c1cc2c(oc1=O)CCN(Cc1c[nH]cn1)C2

>  <score_type>  (2) 
oracle

>  <origin>  (2) 
adg

>  <m_score__min__energy>  (2) 
-7.6699999999999999

>  <m_primary>  (2) 
energy

$$$$
2:0
     RDKit          3D

 48 50  0  0  0  0  0  0  0  0999 V2000
   -6.9720   19.9670  -33.0900 C   0  0  0  0  0  0  0  0  0  0  0  0
   -6.9070   21.2490  -32.3040 C   0  0  0  0  0  0  0  0  0  0  0  0
   -8.1010   21.8780  -31.9120 C   0  0  0  0  0  0  0  0  0  0  0  0
   -8.0690   23.0580  -31.1650 C   0  0  0  0  0  0  0  0  0  0  0  0
   -6.8460   23.6280  -30.8060 C   0  0  0  0  0  0  0  0  0  0  0  0
   -6.8080   25.1080  -29.8660 Cl  0  0  0  0  0  0  0  0  0  0  0  0
   -5.6500   23.0230  -31.2040 C   0  0  0  0  0  0  0  0  0  0  0  0
   -5.6690   21.8440  -31.9640 C   0  0  0  0  0  0  0  0  0  0  0  0
   -4.4240   21.2520  -32.3670 N   0  0  0  0  0  0  0  0  0  0  0  0
   -3.6680   21.8400  -33.4750 C   0  0  0  0  0  0  0  0  0  0  0  0
   -2.2080   21.3770  -33.4160 C   0  0  0  0  0  0  0  0  0  0  0  0
   -2.0940   19.8920  -33.4360 N   0  0  0  0  0  0  0  0  0  0  0  0
   -0.7370   19.4450  -33.0350 C   0  0  0  0  0  0  0  0  0  0  0  0
    0.0900   20.5300  -32.3970 C   0  0  0  0  0  0  0  0  0  0  0  0
    0.8020   21.2790  -33.1200 O   0  0  0  0  0  0  0  0  0  0  0  0
    0.1030   20.6750  -30.9720 N   0  0  0  0  0  0  0  0  0  0  0  0
   -0.9580   21.2150  -30.1740 C   0  0  0  0  0  0  0  0  0  0  0  0
   -1.6500   20.4320  -29.2330 C   0  0  0  0  0  0  0  0  0  0  0  0
   -2.6640   20.9980  -28.4580 C   0  0  0  0  0  0  0  0  0  0  0  0
   -2.9940   22.3480  -28.6100 C   0  0  0  0  0  0  0  0  0  0  0  0
   -2.2950   23.1540  -29.5270 C   0  0  0  0  0  0  0  0  0  0  0  0
   -2.6270   24.5450  -29.6840 N   0  0  0  0  0  0  0  0  0  0  0  0
   -3.5150   24.8990  -30.4900 O   0  0  0  0  0  0  0  0  0  0  0  0
   -1.9570   25.5100  -28.9650 O   0  0  0  0  0  0  0  0  0  0  0  0
   -1.2670   22.5760  -30.2970 C   0  0  0  0  0  0  0  0  0  0  0  0
   -3.1770   19.1690  -32.7040 C   0  0  0  0  0  0  0  0  0  0  0  0
   -3.9210   20.0520  -31.6930 C   0  0  0  0  0  0  0  0  0  0  0  0
   -7.0153   19.1138  -32.3970 H   0  0  0  0  0  0  0  0  0  0  0  0
   -7.8711   19.9706  -33.7237 H   0  0  0  0  0  0  0  0  0  0  0  0
   -6.0771   19.8797  -33.7237 H   0  0  0  0  0  0  0  0  0  0  0  0
   -9.0683   21.4377  -32.1956 H   0  0  0  0  0  0  0  0  0  0  0  0
   -9.0096   23.5393  -30.8589 H   0  0  0  0  0  0  0  0  0  0  0  0
   -4.6881   23.4743  -30.9194 H   0  0  0  0  0  0  0  0  0  0  0  0
   -4.1130   21.5217  -34.4293 H   0  0  0  0  0  0  0  0  0  0  0  0
   -3.7031   22.9365  -33.3949 H   0  0  0  0  0  0  0  0  0  0  0  0
   -1.6699   21.7865  -34.2836 H   0  0  0  0  0  0  0  0  0  0  0  0
   -1.7738   21.7391  -32.4724 H   0  0  0  0  0  0  0  0  0  0  0  0
   -2.1880   19.6140  -34.4440 H   0  0  0  0  0  0  0  0  0  0  0  0
   -0.8410   18.6187  -32.3164 H   0  0  0  0  0  0  0  0  0  0  0  0
   -0.2139   19.1374  -33.9525 H   0  0  0  0  0  0  0  0  0  0  0  0
   -1.3916   19.3702  -29.1071 H   0  0  0  0  0  0  0  0  0  0  0  0
   -3.2047   20.3802  -27.7259 H   0  0  0  0  0  0  0  0  0  0  0  0
   -3.8058   22.7830  -28.0085 H   0  0  0  0  0  0  0  0  0  0  0  0
   -0.7001   23.2004  -31.0032 H   0  0  0  0  0  0  0  0  0  0  0  0
   -3.9033   18.7917  -33.4389 H   0  0  0  0  0  0  0  0  0  0  0  0
   -2.7001   18.3558  -32.1371 H   0  0  0  0  0  0  0  0  0  0  0  0
   -4.7653   19.4899  -31.2673 H   0  0  0  0  0  0  0  0  0  0  0  0
   -3.2320   20.3464  -30.8876 H   0  0  0  0  0  0  0  0  0  0  0  0
  1  2  1  0
  2  3  2  0
  3  4  1  0
  4  5  2  0
  5  6  1  0
  5  7  1  0
  7  8  2  0
  8  9  1  0
  9 10  1  0
 10 11  1  0
 11 12  1  0
 12 13  1  0
 13 14  1  0
 14 15  2  0
 14 16  1  0
 16 17  1  0
 17 18  2  0
 18 19  1  0
 19 20  2  0
 20 21  1  0
 21 22  1  0
 22 23  2  0
 22 24  1  0
 21 25  2  0
 12 26  1  0
 26 27  1  0
  8  2  1  0
 27  9  1  0
 25 17  1  0
  1 28  1  0
  1 29  1  0
  1 30  1  0
  3 31  1  0
  4 32  1  0
  7 33  1  0
 10 34  1  0
 10 35  1  0
 11 36  1  0
 11 37  1  0
 12 38  1  0
 13 39  1  0
 13 40  1  0
 18 41  1  0
 19 42  1  0
 20 43  1  0
 25 44  1  0
 26 45  1  0
 26 46  1  0
 27 47  1  0
 27 48  1  0
M  CHG  4  12   1  16  -1  22   1  24  -1
M  END
>  <UniqueID>  (3) 
2

>  <SMILES>  (3) 
Cc1ccc(Cl)cc1N1CC[NH+](CC(=O)[N-]c2cccc([N+](=O)[O-])c2)CC1

>  <Energy>  (3) 
66.21397240951067

>  <Genealogy>  (3) 
Cc1ccc(Cl)cc1N1CC[NH+](CC(=O)[N-]c2cccc([N+](=O)[O-])c2)CC1 (protonated)
Cc1ccc(Cl)cc1N1CC[NH+](CC(=O)[N-]c2cccc([N+](=O)[O-])c2)CC1 (3D coordinates assigned)
Cc1ccc(Cl)cc1N1CC[NH+](CC(=O)[N-]c2cccc([N+](=O)[O-])c2)CC1 (nonaromatic ring conformer: 66.21397240951067 kcal/mol)

>  <smiles>  (3) 
Cc1ccc(Cl)cc1N1CCN(CC(=O)Nc2cccc([N+](=O)[O-])c2)CC1

>  <score_type>  (3) 
oracle

>  <origin>  (3) 
adg

>  <m_score__min__energy>  (3) 
-9.7899999999999991

>  <m_primary>  (3) 
energy

$$$$
3:0
     RDKit          3D

 46 49  0  0  0  0  0  0  0  0999 V2000
    0.3330   17.7970  -27.4590 C   0  0  0  0  0  0  0  0  0  0  0  0
   -0.4300   18.9700  -27.9990 C   0  0  0  0  0  0  0  0  0  0  0  0
   -1.4710   19.5410  -27.2520 C   0  0  0  0  0  0  0  0  0  0  0  0
   -2.1590   20.6570  -27.7360 C   0  0  0  0  0  0  0  0  0  0  0  0
   -1.8080   21.2300  -28.9720 C   0  0  0  0  0  0  0  0  0  0  0  0
   -2.5400   22.4160  -29.4860 C   0  0  0  0  0  0  0  0  0  0  0  0
   -2.1030   23.7160  -29.1890 C   0  0  0  0  0  0  0  0  0  0  0  0
   -2.7790   24.7930  -29.6650 N   0  0  0  0  0  0  0  0  0  0  0  0
   -3.8830   24.6640  -30.4480 C   0  0  0  0  0  0  0  0  0  0  0  0
   -4.4750   25.7020  -30.8460 O   0  0  0  0  0  0  0  0  0  0  0  0
   -4.3550   23.3850  -30.7980 C   0  0  0  0  0  0  0  0  0  0  0  0
   -5.5780   23.2030  -31.6730 C   0  0  0  0  0  0  0  0  0  0  0  0
   -5.6520   21.8000  -32.2480 C   0  0  0  0  0  0  0  0  0  0  0  0
   -4.4930   21.2570  -32.8240 C   0  0  0  0  0  0  0  0  0  0  0  0
   -4.4960   19.9550  -33.3350 C   0  0  0  0  0  0  0  0  0  0  0  0
   -3.2370   19.3730  -33.9060 C   0  0  0  0  0  0  0  0  0  0  0  0
   -5.6230   19.1950  -33.2500 N   0  0  0  0  0  0  0  0  0  0  0  0
   -6.7770   19.6810  -32.7110 C   0  0  0  0  0  0  0  0  0  0  0  0
   -7.9200   18.8670  -32.6580 C   0  0  0  0  0  0  0  0  0  0  0  0
   -9.1100   19.3550  -32.1170 C   0  0  0  0  0  0  0  0  0  0  0  0
   -9.1720   20.6580  -31.6270 C   0  0  0  0  0  0  0  0  0  0  0  0
   -8.0450   21.4810  -31.6710 C   0  0  0  0  0  0  0  0  0  0  0  0
   -6.8270   21.0060  -32.2020 C   0  0  0  0  0  0  0  0  0  0  0  0
   -3.6820   22.2640  -30.2870 C   0  0  0  0  0  0  0  0  0  0  0  0
   -0.7530   20.6640  -29.7090 C   0  0  0  0  0  0  0  0  0  0  0  0
   -0.0660   19.5490  -29.2240 C   0  0  0  0  0  0  0  0  0  0  0  0
    0.3159   17.8232  -26.3594 H   0  0  0  0  0  0  0  0  0  0  0  0
   -0.1316   16.8640  -27.8108 H   0  0  0  0  0  0  0  0  0  0  0  0
    1.3742   17.8435  -27.8108 H   0  0  0  0  0  0  0  0  0  0  0  0
   -1.7474   19.1078  -26.2794 H   0  0  0  0  0  0  0  0  0  0  0  0
   -2.9805   21.0903  -27.1466 H   0  0  0  0  0  0  0  0  0  0  0  0
   -1.2077   23.8633  -28.5671 H   0  0  0  0  0  0  0  0  0  0  0  0
   -6.4789   23.3893  -31.0700 H   0  0  0  0  0  0  0  0  0  0  0  0
   -5.5104   23.9139  -32.5097 H   0  0  0  0  0  0  0  0  0  0  0  0
   -3.5746   21.8604  -32.8740 H   0  0  0  0  0  0  0  0  0  0  0  0
   -2.5709   19.0651  -33.0866 H   0  0  0  0  0  0  0  0  0  0  0  0
   -3.4853   18.4983  -34.5251 H   0  0  0  0  0  0  0  0  0  0  0  0
   -2.7315   20.1288  -34.5251 H   0  0  0  0  0  0  0  0  0  0  0  0
   -5.5980   18.2140  -33.6120 H   0  0  0  0  0  0  0  0  0  0  0  0
   -7.8770   17.8384  -33.0453 H   0  0  0  0  0  0  0  0  0  0  0  0
  -10.0004   18.7103  -32.0773 H   0  0  0  0  0  0  0  0  0  0  0  0
  -10.1128   21.0398  -31.2038 H   0  0  0  0  0  0  0  0  0  0  0  0
   -8.1072   22.5102  -31.2878 H   0  0  0  0  0  0  0  0  0  0  0  0
   -4.0542   21.2548  -30.5172 H   0  0  0  0  0  0  0  0  0  0  0  0
   -0.4662   21.1031  -30.6759 H   0  0  0  0  0  0  0  0  0  0  0  0
    0.7647   19.1226  -29.8054 H   0  0  0  0  0  0  0  0  0  0  0  0
  1  2  1  0
  2  3  2  0
  3  4  1  0
  4  5  2  0
  5  6  1  0
  6  7  2  0
  7  8  1  0
  8  9  1  0
  9 10  2  0
  9 11  1  0
 11 12  1  0
 12 13  1  0
 13 14  2  0
 14 15  1  0
 15 16  1  0
 15 17  2  0
 17 18  1  0
 18 19  2  0
 19 20  1  0
 20 21  2  0
 21 22  1  0
 22 23  2  0
 11 24  2  0
  5 25  1  0
 25 26  2  0
 26  2  1  0
 24  6  1  0
 23 13  1  0
 23 18  1  0
  1 27  1  0
  1 28  1  0
  1 29  1  0
  3 30  1  0
  4 31  1  0
  7 32  1  0
 12 33  1  0
 12 34  1  0
 14 35  1  0
 16 36  1  0
 16 37  1  0
 16 38  1  0
 17 39  1  0
 19 40  1  0
 20 41  1  0
 21 42  1  0
 22 43  1  0
 24 44  1  0
 25 45  1  0
 26 46  1  0
M  CHG  2   8  -1  17   1
M  END
>  <UniqueID>  (4) 
3

>  <SMILES>  (4) 
Cc1ccc(-c2c[n-]c(=O)c(Cc3cc(C)[nH+]c4ccccc34)c2)cc1

>  <Energy>  (4) 
60.91965015794146

>  <Genealogy>  (4) 
Cc1ccc(-c2c[n-]c(=O)c(Cc3cc(C)[nH+]c4ccccc34)c2)cc1 (protonated)
Cc1ccc(-c2c[n-]c(=O)c(Cc3cc(C)[nH+]c4ccccc34)c2)cc1 (3D coordinates assigned)
Cc1ccc(-c2c[n-]c(=O)c(Cc3cc(C)[nH+]c4ccccc34)c2)cc1 (optimized conformer: 60.91965015794146 kcal/mol)

>  <smiles>  (4) 
Cc1ccc(-c2c[nH]c(=O)c(Cc3cc(C)nc4ccccc34)c2)cc1

>  <score_type>  (4) 
oracle

>  <origin>  (4) 
adg

>  <m_score__min__energy>  (4) 
-11.130000000000001

>  <m_primary>  (4) 
energy

$$$$
4:0
     RDKit          3D

 40 42  0  0  0  0  0  0  0  0999 V2000
   -9.9080   21.4560  -32.1490 N   0  0  0  0  0  0  0  0  0  0  0  0
   -9.6320   20.2730  -32.3420 N   0  0  0  0  0  0  0  0  0  0  0  0
   -9.3570   19.0900  -32.5350 N   0  0  0  0  0  0  0  0  0  0  0  0
   -8.5220   18.3590  -31.5910 C   0  0  0  0  0  0  0  0  0  0  0  0
   -7.1980   17.9630  -32.2480 C   0  0  0  0  0  0  0  0  0  0  0  0
   -6.8380   18.8160  -33.4790 C   0  0  0  0  0  0  0  0  0  0  0  0
   -5.7060   19.7360  -33.2010 N   0  0  0  0  0  0  0  0  0  0  0  0
   -5.9930   20.9430  -32.5980 C   0  0  0  0  0  0  0  0  0  0  0  0
   -7.1840   21.2400  -32.2990 O   0  0  0  0  0  0  0  0  0  0  0  0
   -4.9670   21.8590  -32.3120 C   0  0  0  0  0  0  0  0  0  0  0  0
   -5.2300   23.1680  -31.6160 C   0  0  0  0  0  0  0  0  0  0  0  0
   -4.2240   23.3970  -30.5670 N   0  0  0  0  0  0  0  0  0  0  0  0
   -3.7450   22.3270  -29.8640 C   0  0  0  0  0  0  0  0  0  0  0  0
   -2.8140   22.5070  -28.8420 C   0  0  0  0  0  0  0  0  0  0  0  0
   -2.3390   21.4430  -28.1480 F   0  0  0  0  0  0  0  0  0  0  0  0
   -2.3900   23.8010  -28.5500 C   0  0  0  0  0  0  0  0  0  0  0  0
   -1.5500   24.0050  -27.6350 O   0  0  0  0  0  0  0  0  0  0  0  0
   -2.8870   24.8480  -29.2560 N   0  0  0  0  0  0  0  0  0  0  0  0
   -3.7940   24.6620  -30.2520 C   0  0  0  0  0  0  0  0  0  0  0  0
   -4.2290   25.6670  -30.8760 O   0  0  0  0  0  0  0  0  0  0  0  0
   -3.6900   21.5390  -32.6230 N   0  0  0  0  0  0  0  0  0  0  0  0
   -3.3720   20.3680  -33.2190 C   0  0  0  0  0  0  0  0  0  0  0  0
   -2.0340   20.1010  -33.5250 C   0  0  0  0  0  0  0  0  0  0  0  0
   -1.6820   18.9050  -34.1480 C   0  0  0  0  0  0  0  0  0  0  0  0
   -2.6660   17.9730  -34.4680 C   0  0  0  0  0  0  0  0  0  0  0  0
   -4.0070   18.2260  -34.1650 C   0  0  0  0  0  0  0  0  0  0  0  0
   -4.3940   19.4320  -33.5280 C   0  0  0  0  0  0  0  0  0  0  0  0
   -8.3175   18.9966  -30.7183 H   0  0  0  0  0  0  0  0  0  0  0  0
   -9.0517   17.4477  -31.2764 H   0  0  0  0  0  0  0  0  0  0  0  0
   -6.3951   18.0710  -31.5039 H   0  0  0  0  0  0  0  0  0  0  0  0
   -7.3100   16.9259  -32.5972 H   0  0  0  0  0  0  0  0  0  0  0  0
   -6.5581   18.1470  -34.3061 H   0  0  0  0  0  0  0  0  0  0  0  0
   -7.7160   19.4242  -33.7419 H   0  0  0  0  0  0  0  0  0  0  0  0
   -5.1821   23.9858  -32.3501 H   0  0  0  0  0  0  0  0  0  0  0  0
   -6.2282   23.1351  -31.1549 H   0  0  0  0  0  0  0  0  0  0  0  0
   -4.0976   21.3138  -30.1071 H   0  0  0  0  0  0  0  0  0  0  0  0
   -1.2566   20.8374  -33.2732 H   0  0  0  0  0  0  0  0  0  0  0  0
   -0.6284   18.6975  -34.3866 H   0  0  0  0  0  0  0  0  0  0  0  0
   -2.3861   17.0312  -34.9626 H   0  0  0  0  0  0  0  0  0  0  0  0
   -4.7721   17.4794  -34.4243 H   0  0  0  0  0  0  0  0  0  0  0  0
  1  2  2  0
  2  3  2  0
  3  4  1  0
  4  5  1  0
  5  6  1  0
  6  7  1  0
  7  8  1  0
  8  9  2  0
  8 10  1  0
 10 11  1  0
 11 12  1  0
 12 13  1  0
 13 14  2  0
 14 15  1  0
 14 16  1  0
 16 17  2  0
 16 18  1  0
 18 19  1  0
 19 20  2  0
 10 21  2  0
 21 22  1  0
 22 23  2  0
 23 24  1  0
 24 25  2  0
 25 26  1  0
 26 27  2  0
 27  7  1  0
 19 12  1  0
 27 22  1  0
  4 28  1  0
  4 29  1  0
  5 30  1  0
  5 31  1  0
  6 32  1  0
  6 33  1  0
 11 34  1  0
 11 35  1  0
 13 36  1  0
 23 37  1  0
 24 38  1  0
 25 39  1  0
 26 40  1  0
M  CHG  3   1  -1   2   1  18  -1
M  END
>  <UniqueID>  (5) 
4

>  <SMILES>  (5) 
[N-]=[N+]=NCCCn1c(=O)c(Cn2cc(F)c(=O)[n-]c2=O)nc2ccccc21

>  <Energy>  (5) 
51.54246910894869

>  <Genealogy>  (5) 
[N-]=[N+]=NCCCn1c(=O)c(Cn2cc(F)c(=O)[n-]c2=O)nc2ccccc21 (protonated)
[N-]=[N+]=NCCCn1c(=O)c(Cn2cc(F)c(=O)[n-]c2=O)nc2ccccc21 (3D coordinates assigned)
[N-]=[N+]=NCCCn1c(=O)c(Cn2cc(F)c(=O)[n-]c2=O)nc2ccccc21 (optimized conformer: 51.54246910894869 kcal/mol)

>  <smiles>  (5) 
[N-]=[N+]=NCCCn1c(=O)c(Cn2cc(F)c(=O)[nH]c2=O)nc2ccccc21

>  <score_type>  (5) 
oracle

>  <origin>  (5) 
adg

>  <m_score__min__energy>  (5) 
-9.4499999999999993

>  <m_primary>  (5) 
energy

$$$$
5:0
     RDKit          3D

 28 30  0  0  0  0  0  0  0  0999 V2000
   -8.3130   18.4560  -32.9860 F   0  0  0  0  0  0  0  0  0  0  0  0
   -8.0510   19.6640  -32.4270 C   0  0  0  0  0  0  0  0  0  0  0  0
   -6.7390   20.1440  -32.3850 C   0  0  0  0  0  0  0  0  0  0  0  0
   -6.4650   21.3870  -31.8060 C   0  0  0  0  0  0  0  0  0  0  0  0
   -7.5070   22.1610  -31.2670 C   0  0  0  0  0  0  0  0  0  0  0  0
   -7.2060   23.4820  -30.6130 C   0  0  0  0  0  0  0  0  0  0  0  0
   -5.9810   24.4290  -31.5840 S   0  0  0  0  0  0  0  0  0  0  0  0
   -4.6670   24.2450  -30.3820 C   0  0  0  0  0  0  0  0  0  0  0  0
   -3.4970   24.9300  -30.4660 N   0  0  0  0  0  0  0  0  0  0  0  0
   -2.8420   24.5110  -29.3740 C   0  0  0  0  0  0  0  0  0  0  0  0
   -1.5750   24.8930  -28.9400 C   0  0  0  0  0  0  0  0  0  0  0  0
   -1.0920   24.3200  -27.7480 C   0  0  0  0  0  0  0  0  0  0  0  0
   -1.8810   23.3920  -27.0300 C   0  0  0  0  0  0  0  0  0  0  0  0
   -3.1580   23.0290  -27.5000 C   0  0  0  0  0  0  0  0  0  0  0  0
   -3.6010   23.6150  -28.6840 C   0  0  0  0  0  0  0  0  0  0  0  0
   -4.7730   23.4240  -29.3050 N   0  0  0  0  0  0  0  0  0  0  0  0
   -8.8230   21.6690  -31.3100 C   0  0  0  0  0  0  0  0  0  0  0  0
   -9.0910   20.4250  -31.8880 C   0  0  0  0  0  0  0  0  0  0  0  0
   -5.9206   19.5430  -32.8081 H   0  0  0  0  0  0  0  0  0  0  0  0
   -5.4308   21.7602  -31.7723 H   0  0  0  0  0  0  0  0  0  0  0  0
   -8.1350   24.0663  -30.5380 H   0  0  0  0  0  0  0  0  0  0  0  0
   -6.7891   23.2913  -29.6131 H   0  0  0  0  0  0  0  0  0  0  0  0
   -0.9728   25.6170  -29.5085 H   0  0  0  0  0  0  0  0  0  0  0  0
   -0.0953   24.5958  -27.3732 H   0  0  0  0  0  0  0  0  0  0  0  0
   -1.4952   22.9511  -26.0990 H   0  0  0  0  0  0  0  0  0  0  0  0
   -3.7833   22.3087  -26.9521 H   0  0  0  0  0  0  0  0  0  0  0  0
   -9.6450   22.2653  -30.8872 H   0  0  0  0  0  0  0  0  0  0  0  0
  -10.1227   20.0446  -31.9185 H   0  0  0  0  0  0  0  0  0  0  0  0
  1  2  1  0
  2  3  2  0
  3  4  1  0
  4  5  2  0
  5  6  1  0
  6  7  1  0
  7  8  1  0
  8  9  2  0
  9 10  1  0
 10 11  2  0
 11 12  1  0
 12 13  2  0
 13 14  1  0
 14 15  2  0
 15 16  1  0
  5 17  1  0
 17 18  2  0
 18  2  1  0
 16  8  1  0
 15 10  1  0
  3 19  1  0
  4 20  1  0
  6 21  1  0
  6 22  1  0
 11 23  1  0
 12 24  1  0
 13 25  1  0
 14 26  1  0
 17 27  1  0
 18 28  1  0
M  CHG  1  16  -1
M  END
>  <UniqueID>  (6) 
5

>  <SMILES>  (6) 
Fc1ccc(CSc2nc3ccccc3[n-]2)cc1

>  <Energy>  (6) 
60.55801933327587

>  <Genealogy>  (6) 
Fc1ccc(CSc2nc3ccccc3[n-]2)cc1 (protonated)
Fc1ccc(CSc2nc3ccccc3[n-]2)cc1 (3D coordinates assigned)
Fc1ccc(CSc2nc3ccccc3[n-]2)cc1 (optimized conformer: 60.55801933327587 kcal/mol)

>  <smiles>  (6) 
Fc1ccc(CSc2nc3ccccc3[nH]2)cc1

>  <score_type>  (6) 
oracle

>  <origin>  (6) 
adg

>  <m_score__min__energy>  (6) 
-8.0600000000000005

>  <m_primary>  (6) 
energy

$$$$
6:0
     RDKit          3D

 31 32  0  0  0  0  0  0  0  0999 V2000
   -3.5790   21.8350  -31.1190 C   0  0  0  0  0  0  0  0  0  0  0  0
   -3.8620   23.1470  -31.5890 O   0  0  0  0  0  0  0  0  0  0  0  0
   -4.7070   24.0260  -30.9060 C   0  0  0  0  0  0  0  0  0  0  0  0
   -4.2730   25.1290  -30.4730 O   0  0  0  0  0  0  0  0  0  0  0  0
   -6.1470   23.6530  -30.6940 C   0  0  0  0  0  0  0  0  0  0  0  0
   -6.6520   22.7780  -31.7810 N   0  0  2  0  0  0  0  0  0  0  0  0
   -7.7440   23.4230  -32.5380 C   0  0  0  0  0  0  0  0  0  0  0  0
   -9.0710   22.9380  -31.9660 C   0  0  0  0  0  0  0  0  0  0  0  0
   -8.7340   21.7710  -31.0540 C   0  0  0  0  0  0  0  0  0  0  0  0
   -7.2330   21.5330  -31.2270 C   0  0  1  0  0  0  0  0  0  0  0  0
   -6.9570   20.3500  -32.1310 C   0  0  0  0  0  0  0  0  0  0  0  0
   -7.5270   19.0920  -32.0490 C   0  0  0  0  0  0  0  0  0  0  0  0
   -6.9870   18.3700  -33.0910 C   0  0  0  0  0  0  0  0  0  0  0  0
   -6.1270   19.2280  -33.7460 C   0  0  0  0  0  0  0  0  0  0  0  0
   -6.1330   20.3980  -33.1520 O   0  0  0  0  0  0  0  0  0  0  0  0
   -3.5783   21.8318  -30.0190 H   0  0  0  0  0  0  0  0  0  0  0  0
   -4.3478   21.1398  -31.4872 H   0  0  0  0  0  0  0  0  0  0  0  0
   -2.5919   21.5186  -31.4872 H   0  0  0  0  0  0  0  0  0  0  0  0
   -6.2403   23.1212  -29.7356 H   0  0  0  0  0  0  0  0  0  0  0  0
   -6.7442   24.5768  -30.6914 H   0  0  0  0  0  0  0  0  0  0  0  0
   -5.8550   22.5570  -32.4270 H   0  0  0  0  0  0  0  0  0  0  0  0
   -7.6722   24.5160  -32.4369 H   0  0  0  0  0  0  0  0  0  0  0  0
   -7.6722   23.1631  -33.6044 H   0  0  0  0  0  0  0  0  0  0  0  0
   -9.5569   23.7420  -31.3938 H   0  0  0  0  0  0  0  0  0  0  0  0
   -9.7669   22.6377  -32.7632 H   0  0  0  0  0  0  0  0  0  0  0  0
   -8.9648   22.0220  -30.0082 H   0  0  0  0  0  0  0  0  0  0  0  0
   -9.3197   20.8749  -31.3068 H   0  0  0  0  0  0  0  0  0  0  0  0
   -6.7733   21.2903  -30.2576 H   0  0  0  0  0  0  0  0  0  0  0  0
   -8.2589   18.7412  -31.3065 H   0  0  0  0  0  0  0  0  0  0  0  0
   -7.1986   17.3217  -33.3487 H   0  0  0  0  0  0  0  0  0  0  0  0
   -5.5276   18.9702  -34.6315 H   0  0  0  0  0  0  0  0  0  0  0  0
  1  2  1  0
  2  3  1  0
  3  4  2  0
  3  5  1  0
  5  6  1  0
  6  7  1  0
  7  8  1  0
  8  9  1  0
  9 10  1  0
 10 11  1  0
 11 12  2  0
 12 13  1  0
 13 14  2  0
 14 15  1  0
 10  6  1  0
 15 11  1  0
  1 16  1  0
  1 17  1  0
  1 18  1  0
  5 19  1  0
  5 20  1  0
  6 21  1  6
  7 22  1  0
  7 23  1  0
  8 24  1  0
  8 25  1  0
  9 26  1  0
  9 27  1  0
 10 28  1  1
 12 29  1  0
 13 30  1  0
 14 31  1  0
M  CHG  1   6   1
M  END
>  <UniqueID>  (7) 
6

>  <SMILES>  (7) 
COC(=O)C[N@@H+]1CCC[C@H]1c1ccco1

>  <Energy>  (7) 
58.78373900237493

>  <Genealogy>  (7) 
COC(=O)C[NH+]1CCCC1c1ccco1 (protonated)
COC(=O)C[N@@H+]1CCC[C@H]1c1ccco1 (chirality)
COC(=O)C[N@@H+]1CCC[C@H]1c1ccco1 (3D coordinates assigned)
COC(=O)C[N@@H+]1CCC[C@H]1c1ccco1 (nonaromatic ring conformer: 58.78373900237493 kcal/mol)

>  <smiles>  (7) 
COC(=O)CN1CCCC1c1ccco1

>  <score_type>  (7) 
oracle

>  <origin>  (7) 
adg

>  <m_score__min__energy>  (7) 
-4.9299999999999997

>  <m_primary>  (7) 
energy

$$$$
7:0
     RDKit          3D

 30 30  0  0  0  0  0  0  0  0999 V2000
   -9.5828   19.8883  -31.8587 H   0  0  0  0  0  0  0  0  0  0  0  0
   -8.7170   20.5350  -32.0640 C   0  0  0  0  0  0  0  0  0  0  0  0
   -7.8421   20.1308  -32.5943 H   0  0  0  0  0  0  0  0  0  0  0  0
   -8.7280   21.8090  -31.6700 C   0  0  0  0  0  0  0  0  0  0  0  0
   -9.6191   22.1799  -31.1424 H   0  0  0  0  0  0  0  0  0  0  0  0
   -7.6690   22.7050  -31.8890 O   0  0  0  0  0  0  0  0  0  0  0  0
   -7.1740   23.6600  -30.9470 C   0  0  0  0  0  0  0  0  0  0  0  0
   -7.9627   24.3982  -30.7396 H   0  0  0  0  0  0  0  0  0  0  0  0
   -6.8875   23.1222  -30.0312 H   0  0  0  0  0  0  0  0  0  0  0  0
   -5.9350   24.3920  -31.4800 C   0  0  0  0  0  0  0  0  0  0  0  0
   -5.1824   23.6443  -31.7708 H   0  0  0  0  0  0  0  0  0  0  0  0
   -6.2533   25.0033  -32.3373 H   0  0  0  0  0  0  0  0  0  0  0  0
   -5.3150   25.3340  -30.4450 C   0  0  0  0  0  0  0  0  0  0  0  0
   -5.6704   26.3587  -30.6287 H   0  0  0  0  0  0  0  0  0  0  0  0
   -5.6139   25.0049  -29.4388 H   0  0  0  0  0  0  0  0  0  0  0  0
   -3.8600   25.3060  -30.5390 N   0  0  0  0  0  0  0  0  0  0  0  0
   -3.0020   24.6520  -29.5970 C   0  0  0  0  0  0  0  0  0  0  0  0
   -1.9470   25.2370  -29.2350 O   0  0  0  0  0  0  0  0  0  0  0  0
   -3.3720   23.3490  -29.0000 C   0  0  0  0  0  0  0  0  0  0  0  0
   -3.7200   23.3513  -27.9565 H   0  0  0  0  0  0  0  0  0  0  0  0
   -3.3170   22.1660  -29.6290 C   0  0  0  0  0  0  0  0  0  0  0  0
   -2.8585   21.3286  -29.0826 H   0  0  0  0  0  0  0  0  0  0  0  0
   -3.8170   21.8880  -30.9890 C   0  0  0  0  0  0  0  0  0  0  0  0
   -3.2490   22.3680  -32.0710 O   0  0  0  0  0  0  0  0  0  0  0  0
   -3.8870   21.9090  -33.1230 C   0  0  0  0  0  0  0  0  0  0  0  0
   -3.6400   22.1478  -34.1680 H   0  0  0  0  0  0  0  0  0  0  0  0
   -4.9150   21.0810  -32.7180 C   0  0  0  0  0  0  0  0  0  0  0  0
   -5.6274   20.5469  -33.3639 H   0  0  0  0  0  0  0  0  0  0  0  0
   -4.8680   21.0590  -31.3420 C   0  0  0  0  0  0  0  0  0  0  0  0
   -5.5286   20.4989  -30.6639 H   0  0  0  0  0  0  0  0  0  0  0  0
  1  2  1  0
  2  3  1  0
  2  4  2  0
  4  5  1  0
  4  6  1  0
  6  7  1  0
  7  8  1  0
  7  9  1  0
  7 10  1  0
 10 11  1  0
 10 12  1  0
 10 13  1  0
 13 14  1  0
 13 15  1  0
 13 16  1  0
 16 17  1  0
 17 18  2  0
 17 19  1  0
 19 20  1  0
 19 21  2  0
 21 22  1  0
 21 23  1  0
 23 24  1  0
 24 25  1  0
 25 26  1  0
 25 27  2  0
 27 28  1  0
 27 29  1  0
 29 30  1  0
 29 23  2  0
M  CHG  1  16  -1
M  END
>  <UniqueID>  (8) 
7

>  <SMILES>  (8) 
C=COCCC[N-]C(=O)/C=C\c1ccco1

>  <Energy>  (8) 
54.71315892792545

>  <Genealogy>  (8) 
C=COCCC[N-]C(=O)C=Cc1ccco1 (protonated)
C=COCCC[N-]C(=O)/C=C\c1ccco1 (cis-trans isomerization)
C=COCCC[N-]C(=O)/C=C\c1ccco1 (3D coordinates assigned)
C=COCCC[N-]C(=O)/C=C\c1ccco1 (optimized conformer: 54.71315892792545 kcal/mol)

>  <smiles>  (8) 
C=COCCCNC(=O)C=Cc1ccco1

>  <score_type>  (8) 
oracle

>  <origin>  (8) 
adg

>  <m_score__min__energy>  (8) 
-7.2199999999999998

>  <m_primary>  (8) 
energy

$$$$
8:0
     RDKit          3D

 43 46  0  0  0  0  0  0  0  0999 V2000
    1.4310   24.6940  -26.7100 C   0  0  0  0  0  0  0  0  0  0  0  0
    0.3330   25.3760  -25.9480 C   0  0  0  0  0  0  0  0  0  0  0  0
    0.5750   25.7960  -24.6780 N   0  0  0  0  0  0  0  0  0  0  0  0
   -0.3780   26.4270  -23.9460 C   0  0  0  0  0  0  0  0  0  0  0  0
   -1.6100   26.6460  -24.4760 N   0  0  0  0  0  0  0  0  0  0  0  0
   -1.9040   26.2400  -25.7380 C   0  0  0  0  0  0  0  0  0  0  0  0
   -0.9330   25.6030  -26.5190 C   0  0  0  0  0  0  0  0  0  0  0  0
   -1.2600   25.1950  -27.8990 C   0  0  0  0  0  0  0  0  0  0  0  0
   -1.2650   26.0690  -28.8070 O   0  0  0  0  0  0  0  0  0  0  0  0
   -1.5620   23.8210  -28.2200 N   0  0  0  0  0  0  0  0  0  0  0  0
   -1.4240   22.8010  -27.1710 C   0  0  0  0  0  0  0  0  0  0  0  0
   -2.3640   21.6250  -27.4440 C   0  0  0  0  0  0  0  0  0  0  0  0
   -2.1580   21.0070  -28.8420 C   0  0  0  0  0  0  0  0  0  0  0  0
   -1.3960   21.9190  -29.8220 C   0  0  0  0  0  0  0  0  0  0  0  0
   -1.7170   23.4140  -29.6310 C   0  0  1  0  0  0  0  0  0  0  0  0
   -3.0960   23.7360  -30.1280 C   0  0  0  0  0  0  0  0  0  0  0  0
   -4.0550   22.8100  -30.3200 N   0  0  0  0  0  0  0  0  0  0  0  0
   -5.0610   23.5700  -30.7990 C   0  0  0  0  0  0  0  0  0  0  0  0
   -6.3530   23.0240  -31.2260 C   0  0  0  0  0  0  0  0  0  0  0  0
   -7.5040   23.7570  -31.4880 C   0  0  0  0  0  0  0  0  0  0  0  0
   -8.5800   22.9620  -31.9000 C   0  0  0  0  0  0  0  0  0  0  0  0
   -8.2810   21.6070  -31.9650 C   0  0  0  0  0  0  0  0  0  0  0  0
   -6.6740   21.3980  -31.5110 S   0  0  0  0  0  0  0  0  0  0  0  0
   -4.7330   24.8740  -30.8850 N   0  0  0  0  0  0  0  0  0  0  0  0
   -3.5090   24.9350  -30.4590 O   0  0  0  0  0  0  0  0  0  0  0  0
    2.1467   24.2494  -26.0028 H   0  0  0  0  0  0  0  0  0  0  0  0
    1.0017   23.9033  -27.3429 H   0  0  0  0  0  0  0  0  0  0  0  0
    1.9495   25.4292  -27.3429 H   0  0  0  0  0  0  0  0  0  0  0  0
   -0.1528   26.7615  -22.9226 H   0  0  0  0  0  0  0  0  0  0  0  0
   -2.3370   27.1330  -23.9070 H   0  0  0  0  0  0  0  0  0  0  0  0
   -2.9099   26.4126  -26.1483 H   0  0  0  0  0  0  0  0  0  0  0  0
   -0.3857   22.4384  -27.1524 H   0  0  0  0  0  0  0  0  0  0  0  0
   -1.6852   23.2490  -26.2009 H   0  0  0  0  0  0  0  0  0  0  0  0
   -2.1841   20.8481  -26.6864 H   0  0  0  0  0  0  0  0  0  0  0  0
   -3.3944   22.0075  -27.3997 H   0  0  0  0  0  0  0  0  0  0  0  0
   -1.5906   20.0717  -28.7269 H   0  0  0  0  0  0  0  0  0  0  0  0
   -3.1584   20.8445  -29.2696 H   0  0  0  0  0  0  0  0  0  0  0  0
   -0.3166   21.7707  -29.6709 H   0  0  0  0  0  0  0  0  0  0  0  0
   -1.7114   21.6433  -30.8391 H   0  0  0  0  0  0  0  0  0  0  0  0
   -0.9934   23.9875  -30.2289 H   0  0  0  0  0  0  0  0  0  0  0  0
   -7.5636   24.8503  -31.3824 H   0  0  0  0  0  0  0  0  0  0  0  0
   -9.5699   23.3720  -32.1490 H   0  0  0  0  0  0  0  0  0  0  0  0
   -8.9756   20.8076  -32.2623 H   0  0  0  0  0  0  0  0  0  0  0  0
  1  2  1  0
  2  3  2  0
  3  4  1  0
  4  5  2  0
  5  6  1  0
  6  7  2  0
  7  8  1  0
  8  9  2  0
  8 10  1  0
 10 11  1  0
 11 12  1  0
 12 13  1  0
 13 14  1  0
 14 15  1  0
 15 16  1  0
 16 17  2  0
 17 18  1  0
 18 19  1  0
 19 20  2  0
 20 21  1  0
 21 22  2  0
 22 23  1  0
 18 24  2  0
 24 25  1  0
  7  2  1  0
 15 10  1  0
 25 16  1  0
 23 19  1  0
  1 26  1  0
  1 27  1  0
  1 28  1  0
  4 29  1  0
  5 30  1  0
  6 31  1  0
 11 32  1  0
 11 33  1  0
 12 34  1  0
 12 35  1  0
 13 36  1  0
 13 37  1  0
 14 38  1  0
 14 39  1  0
 15 40  1  6
 20 41  1  0
 21 42  1  0
 22 43  1  0
M  CHG  1   5   1
M  END
>  <UniqueID>  (9) 
8

>  <SMILES>  (9) 
Cc1nc[nH+]cc1C(=O)N1CCCC[C@H]1c1nc(-c2cccs2)no1

>  <Energy>  (9) 
110.38285673432111

>  <Genealogy>  (9) 
Cc1nc[nH+]cc1C(=O)N1CCCCC1c1nc(-c2cccs2)no1 (protonated)
Cc1nc[nH+]cc1C(=O)N1CCCC[C@H]1c1nc(-c2cccs2)no1 (chirality)
Cc1nc[nH+]cc1C(=O)N1CCCC[C@H]1c1nc(-c2cccs2)no1 (3D coordinates assigned)
Cc1nc[nH+]cc1C(=O)N1CCCC[C@H]1c1nc(-c2cccs2)no1 (nonaromatic ring conformer: 110.38285673432111 kcal/mol)

>  <smiles>  (9) 
Cc1ncncc1C(=O)N1CCCCC1c1nc(-c2cccs2)no1

>  <score_type>  (9) 
oracle

>  <origin>  (9) 
adg

>  <m_score__min__energy>  (9) 
-9.6999999999999993

>  <m_primary>  (9) 
energy

$$$$
9:0
     RDKit          3D

 27 27  0  0  0  0  0  0  0  0999 V2000
   -1.0074   24.8592  -28.3322 H   0  0  0  0  0  0  0  0  0  0  0  0
   -2.0930   24.6900  -28.3850 C   0  0  0  0  0  0  0  0  0  0  0  0
   -2.7330   24.7530  -29.5800 N   0  0  0  0  0  0  0  0  0  0  0  0
   -4.0740   24.5470  -29.6770 C   0  0  0  0  0  0  0  0  0  0  0  0
   -4.6320   24.6220  -30.8530 N   0  0  0  0  0  0  0  0  0  0  0  0
   -6.0610   24.5640  -31.1590 C   0  0  0  0  0  0  0  0  0  0  0  0
   -6.2707   25.2061  -32.0272 H   0  0  0  0  0  0  0  0  0  0  0  0
   -6.6250   24.9126  -30.2813 H   0  0  0  0  0  0  0  0  0  0  0  0
   -6.4890   23.1260  -31.4810 C   0  0  0  0  0  0  0  0  0  0  0  0
   -6.3792   22.5154  -30.5726 H   0  0  0  0  0  0  0  0  0  0  0  0
   -5.8458   22.7652  -32.2972 H   0  0  0  0  0  0  0  0  0  0  0  0
   -7.9450   23.0290  -31.9640 C   0  0  0  0  0  0  0  0  0  0  0  0
   -7.9400   22.8570  -33.0505 H   0  0  0  0  0  0  0  0  0  0  0  0
   -8.4383   23.9737  -31.6916 H   0  0  0  0  0  0  0  0  0  0  0  0
   -8.7450   21.8920  -31.2940 C   0  0  0  0  0  0  0  0  0  0  0  0
   -9.7800   22.2316  -31.1407 H   0  0  0  0  0  0  0  0  0  0  0  0
   -8.2524   21.6536  -30.3398 H   0  0  0  0  0  0  0  0  0  0  0  0
   -8.7670   20.6170  -32.1370 C   0  0  0  0  0  0  0  0  0  0  0  0
   -8.7821   19.7393  -31.4741 H   0  0  0  0  0  0  0  0  0  0  0  0
   -9.6654   20.6126  -32.7718 H   0  0  0  0  0  0  0  0  0  0  0  0
   -7.8693   20.5816  -32.7718 H   0  0  0  0  0  0  0  0  0  0  0  0
   -4.7970   24.2750  -28.5450 N   0  0  0  0  0  0  0  0  0  0  0  0
   -5.8270   24.1170  -28.5730 H   0  0  0  0  0  0  0  0  0  0  0  0
   -4.1850   24.2040  -27.3320 C   0  0  0  0  0  0  0  0  0  0  0  0
   -4.7769   23.9823  -26.4317 H   0  0  0  0  0  0  0  0  0  0  0  0
   -2.8120   24.4110  -27.2260 C   0  0  0  0  0  0  0  0  0  0  0  0
   -2.3077   24.3554  -26.2500 H   0  0  0  0  0  0  0  0  0  0  0  0
  1  2  1  0
  2  3  2  0
  3  4  1  0
  4  5  2  0
  5  6  1  0
  6  7  1  0
  6  8  1  0
  6  9  1  0
  9 10  1  0
  9 11  1  0
  9 12  1  0
 12 13  1  0
 12 14  1  0
 12 15  1  0
 15 16  1  0
 15 17  1  0
 15 18  1  0
 18 19  1  0
 18 20  1  0
 18 21  1  0
  4 22  1  0
 22 23  1  0
 22 24  1  0
 24 25  1  0
 24 26  2  0
 26 27  1  0
 26  2  1  0
M  END
>  <UniqueID>  (10) 
9

>  <SMILES>  (10) 
CCCCC/N=c1/nccc[nH]1

>  <Energy>  (10) 
21.917696573179455

>  <Genealogy>  (10) 
CCCCC/N=c1/nccc[nH]1 (cis-trans isomerization)
CCCCC/N=c1/nccc[nH]1 (3D coordinates assigned)
CCCCC/N=c1/nccc[nH]1 (optimized conformer: 21.917696573179455 kcal/mol)

>  <smiles>  (10) 
CCCCCN=c1nccc[nH]1

>  <score_type>  (10) 
oracle

>  <origin>  (10) 
adg

>  <m_score__min__energy>  (10) 
-5.2699999999999996

>  <m_primary>  (10) 
energy

$$$$
10:0
     RDKit          3D

 41 43  0  0  0  0  0  0  0  0999 V2000
   -7.2280   23.8270  -30.9400 C   0  0  0  0  0  0  0  0  0  0  0  0
   -6.5440   24.3640  -29.9270 C   0  0  0  0  0  0  0  0  0  0  0  0
   -5.7500   25.6270  -30.1030 C   0  0  0  0  0  0  0  0  0  0  0  0
   -4.4710   25.3460  -30.6690 O   0  0  0  0  0  0  0  0  0  0  0  0
   -3.8950   24.0710  -30.6780 C   0  0  0  0  0  0  0  0  0  0  0  0
   -4.3690   23.1010  -31.5060 N   0  0  0  0  0  0  0  0  0  0  0  0
   -3.8200   21.8550  -31.5400 C   0  0  0  0  0  0  0  0  0  0  0  0
   -4.3560   20.8250  -32.4650 C   0  0  0  0  0  0  0  0  0  0  0  0
   -5.7370   20.7470  -32.7260 C   0  0  0  0  0  0  0  0  0  0  0  0
   -6.2400   19.7770  -33.5980 C   0  0  0  0  0  0  0  0  0  0  0  0
   -5.3740   18.8760  -34.2190 C   0  0  0  0  0  0  0  0  0  0  0  0
   -4.0020   18.9420  -33.9690 C   0  0  0  0  0  0  0  0  0  0  0  0
   -3.4920   19.9100  -33.0980 C   0  0  0  0  0  0  0  0  0  0  0  0
   -2.7750   21.5650  -30.7150 N   0  0  0  0  0  0  0  0  0  0  0  0
   -2.2740   22.4950  -29.8640 C   0  0  0  0  0  0  0  0  0  0  0  0
   -2.8150   23.7810  -29.8370 C   0  0  0  0  0  0  0  0  0  0  0  0
   -2.2420   24.7610  -28.9630 N   0  0  0  0  0  0  0  0  0  0  0  0
   -0.9420   24.5070  -28.3410 C   0  0  0  0  0  0  0  0  0  0  0  0
   -0.8240   23.0190  -27.9190 C   0  0  0  0  0  0  0  0  0  0  0  0
    0.6300   22.6970  -27.5480 C   0  0  0  0  0  0  0  0  0  0  0  0
   -1.7340   22.7350  -26.7110 C   0  0  0  0  0  0  0  0  0  0  0  0
   -1.2150   22.1710  -29.0080 O   0  0  0  0  0  0  0  0  0  0  0  0
   -7.8021   22.9013  -30.7865 H   0  0  0  0  0  0  0  0  0  0  0  0
   -7.2174   24.3102  -31.9281 H   0  0  0  0  0  0  0  0  0  0  0  0
   -6.5622   23.8716  -28.9435 H   0  0  0  0  0  0  0  0  0  0  0  0
   -6.2983   26.3077  -30.7708 H   0  0  0  0  0  0  0  0  0  0  0  0
   -5.6049   26.0928  -29.1171 H   0  0  0  0  0  0  0  0  0  0  0  0
   -6.4253   21.4544  -32.2404 H   0  0  0  0  0  0  0  0  0  0  0  0
   -7.3209   19.7238  -33.7951 H   0  0  0  0  0  0  0  0  0  0  0  0
   -5.7722   18.1141  -34.9052 H   0  0  0  0  0  0  0  0  0  0  0  0
   -3.3204   18.2307  -34.4584 H   0  0  0  0  0  0  0  0  0  0  0  0
   -2.4099   19.9572  -32.9061 H   0  0  0  0  0  0  0  0  0  0  0  0
   -2.7060   25.6860  -28.8180 H   0  0  0  0  0  0  0  0  0  0  0  0
   -0.1440   24.7438  -29.0601 H   0  0  0  0  0  0  0  0  0  0  0  0
   -0.8457   25.1396  -27.4463 H   0  0  0  0  0  0  0  0  0  0  0  0
    0.7326   22.6743  -26.4530 H   0  0  0  0  0  0  0  0  0  0  0  0
    0.9056   21.7161  -27.9625 H   0  0  0  0  0  0  0  0  0  0  0  0
    1.2940   23.4699  -27.9625 H   0  0  0  0  0  0  0  0  0  0  0  0
   -1.1737   22.9099  -25.7807 H   0  0  0  0  0  0  0  0  0  0  0  0
   -2.6070   23.4034  -26.7444 H   0  0  0  0  0  0  0  0  0  0  0  0
   -2.0718   21.6887  -26.7444 H   0  0  0  0  0  0  0  0  0  0  0  0
  1  2  2  0
  2  3  1  0
  3  4  1  0
  4  5  1  0
  5  6  2  0
  6  7  1  0
  7  8  1  0
  8  9  2  0
  9 10  1  0
 10 11  2  0
 11 12  1  0
 12 13  2  0
  7 14  2  0
 14 15  1  0
 15 16  2  0
 16 17  1  0
 17 18  1  0
 18 19  1  0
 19 20  1  0
 19 21  1  0
 19 22  1  0
 16  5  1  0
 13  8  1  0
 22 15  1  0
  1 23  1  0
  1 24  1  0
  2 25  1  0
  3 26  1  0
  3 27  1  0
  9 28  1  0
 10 29  1  0
 11 30  1  0
 12 31  1  0
 13 32  1  0
 17 33  1  0
 18 34  1  0
 18 35  1  0
 20 36  1  0
 20 37  1  0
 20 38  1  0
 21 39  1  0
 21 40  1  0
 21 41  1  0
M  END
>  <UniqueID>  (11) 
10

>  <SMILES>  (11) 
C=CCOc1nc(-c2ccccc2)nc2c1NCC(C)(C)O2

>  <Energy>  (11) 
37.47048476738246

>  <Genealogy>  (11) 
C=CCOc1nc(-c2ccccc2)nc2c1NCC(C)(C)O2 (3D coordinates assigned)
C=CCOc1nc(-c2ccccc2)nc2c1NCC(C)(C)O2 (nonaromatic ring conformer: 37.47048476738246 kcal/mol)

>  <smiles>  (11) 
C=CCOc1nc(-c2ccccc2)nc2c1NCC(C)(C)O2

>  <score_type>  (11) 
oracle

>  <origin>  (11) 
adg

>  <m_score__min__energy>  (11) 
-7.2800000000000002

>  <m_primary>  (11) 
energy

$$$$
11:0
     RDKit          3D

 56 60  0  0  1  0  0  0  0  0999 V2000
   -4.0750   15.1940  -34.9560 C   0  0  0  0  0  0  0  0  0  0  0  0
   -4.0540   16.5670  -34.4060 C   0  0  0  0  0  0  0  0  0  0  0  0
   -5.1640   17.1260  -33.9190 N   0  0  0  0  0  0  0  0  0  0  0  0
   -5.1490   18.3940  -33.4100 C   0  0  0  0  0  0  0  0  0  0  0  0
   -6.3670   18.9890  -32.8840 C   0  0  0  0  0  0  0  0  0  0  0  0
   -7.4570   18.2640  -32.4610 C   0  0  0  0  0  0  0  0  0  0  0  0
   -8.6100   18.8480  -31.9620 C   0  0  0  0  0  0  0  0  0  0  0  0
   -8.6790   20.2270  -31.8790 C   0  0  0  0  0  0  0  0  0  0  0  0
   -9.6040   21.0640  -31.4630 O   0  0  0  0  0  0  0  0  0  0  0  0
   -9.1680   22.3130  -31.5940 C   0  0  0  0  0  0  0  0  0  0  0  0
   -7.8960   22.2920  -32.1200 C   0  0  0  0  0  0  0  0  0  0  0  0
   -7.0220   23.4370  -32.4360 C   0  0  0  0  0  0  0  0  0  0  0  0
   -7.5920   20.9630  -32.2980 C   0  0  0  0  0  0  0  0  0  0  0  0
   -6.4540   20.3610  -32.7930 C   0  0  0  0  0  0  0  0  0  0  0  0
   -3.9350   19.0310  -33.4360 C   0  0  0  0  0  0  0  0  0  0  0  0
   -2.7780   18.4660  -33.9350 C   0  0  0  0  0  0  0  0  0  0  0  0
   -1.7160   19.1360  -33.8910 N   0  0  0  0  0  0  0  0  0  0  0  0
   -1.4880   20.5310  -33.8270 C   0  0  2  0  0  0  0  0  0  0  0  0
   -0.4820   21.1210  -34.7730 C   0  0  0  0  0  0  0  0  0  0  0  0
   -1.5240   21.1580  -32.4880 C   0  0  0  0  0  0  0  0  0  0  0  0
   -0.5260   21.0600  -31.5490 C   0  0  0  0  0  0  0  0  0  0  0  0
   -0.6040   21.6840  -30.3000 C   0  0  0  0  0  0  0  0  0  0  0  0
   -1.7070   22.4350  -29.9550 C   0  0  0  0  0  0  0  0  0  0  0  0
   -2.7230   22.5460  -30.8870 C   0  0  0  0  0  0  0  0  0  0  0  0
   -3.8780   23.3480  -30.4950 C   0  0  0  0  0  0  0  0  0  0  0  0
   -4.9410   22.8510  -29.7750 C   0  0  0  0  0  0  0  0  0  0  0  0
   -6.0250   23.6360  -29.4150 C   0  0  0  0  0  0  0  0  0  0  0  0
   -6.0140   24.9710  -29.8090 C   0  0  0  0  0  0  0  0  0  0  0  0
   -6.9910   25.7140  -29.4950 O   0  0  0  0  0  0  0  0  0  0  0  0
   -4.9570   25.4250  -30.5130 N   0  0  0  0  0  0  0  0  0  0  0  0
   -3.9300   24.6440  -30.8420 N   0  0  0  0  0  0  0  0  0  0  0  0
   -2.6320   21.9280  -32.1100 C   0  0  0  0  0  0  0  0  0  0  0  0
   -2.8510   17.2060  -34.4270 N   0  0  0  0  0  0  0  0  0  0  0  0
   -4.0861   14.4681  -34.1296 H   0  0  0  0  0  0  0  0  0  0  0  0
   -4.9753   15.0602  -35.5737 H   0  0  0  0  0  0  0  0  0  0  0  0
   -3.1792   15.0327  -35.5737 H   0  0  0  0  0  0  0  0  0  0  0  0
   -7.4108   17.1667  -32.5220 H   0  0  0  0  0  0  0  0  0  0  0  0
   -9.4566   18.2253  -31.6372 H   0  0  0  0  0  0  0  0  0  0  0  0
   -9.7328   23.2178  -31.3253 H   0  0  0  0  0  0  0  0  0  0  0  0
   -6.6699   23.8983  -31.5016 H   0  0  0  0  0  0  0  0  0  0  0  0
   -6.1582   23.0884  -33.0211 H   0  0  0  0  0  0  0  0  0  0  0  0
   -7.5860   24.1783  -33.0211 H   0  0  0  0  0  0  0  0  0  0  0  0
   -5.6070   20.9828  -33.1185 H   0  0  0  0  0  0  0  0  0  0  0  0
   -3.8794   20.0539  -33.0352 H   0  0  0  0  0  0  0  0  0  0  0  0
   -2.4356   20.8617  -34.2772 H   0  0  0  0  0  0  0  0  0  0  0  0
    0.3272   21.5956  -34.1985 H   0  0  0  0  0  0  0  0  0  0  0  0
   -0.0638   20.3251  -35.4067 H   0  0  0  0  0  0  0  0  0  0  0  0
   -0.9725   21.8745  -35.4067 H   0  0  0  0  0  0  0  0  0  0  0  0
    0.3693   20.4676  -31.7890 H   0  0  0  0  0  0  0  0  0  0  0  0
    0.2244   21.5742  -29.5847 H   0  0  0  0  0  0  0  0  0  0  0  0
   -1.7768   22.9281  -28.9742 H   0  0  0  0  0  0  0  0  0  0  0  0
   -4.9296   21.7929  -29.4747 H   0  0  0  0  0  0  0  0  0  0  0  0
   -6.8640   23.2190  -28.8386 H   0  0  0  0  0  0  0  0  0  0  0  0
   -4.9530   26.4400  -30.8100 H   0  0  0  0  0  0  0  0  0  0  0  0
   -3.4628   22.0421  -32.8219 H   0  0  0  0  0  0  0  0  0  0  0  0
   -1.9950   16.7460  -34.8140 H   0  0  0  0  0  0  0  0  0  0  0  0
  1  2  1  0
  2  3  2  0
  3  4  1  0
  4  5  1  0
  5  6  2  0
  6  7  1  0
  7  8  2  0
  8  9  1  0
  9 10  1  0
 10 11  2  0
 11 12  1  0
 11 13  1  0
 13 14  2  0
  4 15  2  0
 15 16  1  0
 16 17  2  0
 17 18  1  0
 18 19  1  0
 18 20  1  0
 20 21  2  0
 21 22  1  0
 22 23  2  0
 23 24  1  0
 24 25  1  0
 25 26  1  0
 26 27  2  0
 27 28  1  0
 28 29  2  0
 28 30  1  0
 30 31  1  0
 24 32  2  0
 16 33  1  0
 33  2  1  0
 14  5  1  0
 32 20  1  0
 13  8  1  0
 31 25  2  0
  1 34  1  0
  1 35  1  0
  1 36  1  0
  6 37  1  0
  7 38  1  0
 10 39  1  0
 12 40  1  0
 12 41  1  0
 12 42  1  0
 14 43  1  0
 15 44  1  0
 18 45  1  6
 19 46  1  0
 19 47  1  0
 19 48  1  0
 21 49  1  0
 22 50  1  0
 23 51  1  0
 26 52  1  0
 27 53  1  0
 30 54  1  0
 32 55  1  0
 33 56  1  0
M  END
>  <smiles>  (12) 
Cc1nc(-c2ccc3occ(C)c3c2)cc(=NC(C)c2cccc(-c3ccc(=O)[nH]n3)c2)[nH]1

>  <score_type>  (12) 
oracle

>  <origin>  (12) 
adg

>  <m_score__min__energy>  (12) 
-11.69

>  <m_primary>  (12) 
energy

$$$$
12:0
     RDKit          3D

 20 20  0  0  0  0  0  0  0  0999 V2000
   -4.0140   25.5370  -30.6430 N   0  0  0  0  0  0  0  0  0  0  0  0
   -5.4300   25.1940  -30.7560 C   0  0  0  0  0  0  0  0  0  0  0  0
   -5.6010   23.8340  -31.2870 C   0  0  0  0  0  0  0  0  0  0  0  0
   -5.7410   22.7190  -31.7230 C   0  0  0  0  0  0  0  0  0  0  0  0
   -5.9060   21.4130  -32.2340 C   0  0  0  0  0  0  0  0  0  0  0  0
   -6.0460   20.2980  -32.6680 C   0  0  0  0  0  0  0  0  0  0  0  0
   -6.2120   18.9660  -33.1870 C   0  0  0  0  0  0  0  0  0  0  0  0
   -5.5080   18.5550  -34.3250 C   0  0  0  0  0  0  0  0  0  0  0  0
   -5.6790   17.2600  -34.8180 C   0  0  0  0  0  0  0  0  0  0  0  0
   -6.5560   16.3910  -34.1640 C   0  0  0  0  0  0  0  0  0  0  0  0
   -7.2310   16.8070  -33.0600 N   0  0  0  0  0  0  0  0  0  0  0  0
   -7.0800   18.0640  -32.5610 C   0  0  0  0  0  0  0  0  0  0  0  0
   -3.9250   26.4390  -30.1230 H   0  0  0  0  0  0  0  0  0  0  0  0
   -3.6230   25.6810  -31.6030 H   0  0  0  0  0  0  0  0  0  0  0  0
   -5.8951   25.2529  -29.7609 H   0  0  0  0  0  0  0  0  0  0  0  0
   -5.9087   25.9033  -31.4472 H   0  0  0  0  0  0  0  0  0  0  0  0
   -4.8216   19.2508  -34.8297 H   0  0  0  0  0  0  0  0  0  0  0  0
   -5.1295   16.9277  -35.7111 H   0  0  0  0  0  0  0  0  0  0  0  0
   -6.7004   15.3686  -34.5431 H   0  0  0  0  0  0  0  0  0  0  0  0
   -7.6402   18.3712  -31.6656 H   0  0  0  0  0  0  0  0  0  0  0  0
  1  2  1  0
  2  3  1  0
  3  4  3  0
  4  5  1  0
  5  6  3  0
  6  7  1  0
  7  8  2  0
  8  9  1  0
  9 10  2  0
 10 11  1  0
 11 12  2  0
 12  7  1  0
  1 13  1  0
  1 14  1  0
  2 15  1  0
  2 16  1  0
  8 17  1  0
  9 18  1  0
 10 19  1  0
 12 20  1  0
M  END
>  <UniqueID>  (13) 
11

>  <SMILES>  (13) 
NCC#CC#Cc1cccnc1

>  <Energy>  (13) 
11.509508034232558

>  <Genealogy>  (13) 
NCC#CC#Cc1cccnc1 (3D coordinates assigned)
NCC#CC#Cc1cccnc1 (optimized conformer: 11.509508034232558 kcal/mol)

>  <smiles>  (13) 
NCC#CC#Cc1cccnc1

>  <score_type>  (13) 
oracle

>  <origin>  (13) 
adg

>  <m_score__min__energy>  (13) 
-5.29

>  <m_primary>  (13) 
energy

$$$$
13:0
     RDKit          3D

 56 59  0  0  0  0  0  0  0  0999 V2000
   -6.1270   25.6180  -29.3960 C   0  0  0  0  0  0  0  0  0  0  0  0
   -5.3570   25.1300  -30.6200 C   0  0  0  0  0  0  0  0  0  0  0  0
   -5.0460   23.6940  -30.5430 N   0  0  0  0  0  0  0  0  0  0  0  0
   -4.1130   23.2810  -29.5260 C   0  0  0  0  0  0  0  0  0  0  0  0
   -4.5380   23.0870  -28.3540 O   0  0  0  0  0  0  0  0  0  0  0  0
   -2.6150   23.0910  -29.7900 C   0  0  2  0  0  0  0  0  0  0  0  0
   -2.4680   22.4380  -31.1740 C   0  0  0  0  0  0  0  0  0  0  0  0
   -2.3340   21.0680  -30.4650 C   0  0  0  0  0  0  0  0  0  0  0  0
   -1.9440   21.8410  -29.2190 C   0  0  2  0  0  0  0  0  0  0  0  0
   -1.9460   22.1410  -27.7710 C   0  0  0  0  0  0  0  0  0  0  0  0
   -1.9170   21.1080  -26.7190 C   0  0  0  0  0  0  0  0  0  0  0  0
   -1.0500   21.1430  -25.8030 O   0  0  0  0  0  0  0  0  0  0  0  0
   -2.8960   20.1110  -26.7240 O   0  0  0  0  0  0  0  0  0  0  0  0
   -2.7610   18.9020  -25.9870 C   0  0  0  0  0  0  0  0  0  0  0  0
   -1.7340   23.4740  -27.6620 C   0  0  0  0  0  0  0  0  0  0  0  0
   -1.4130   24.2120  -26.4230 C   0  0  0  0  0  0  0  0  0  0  0  0
   -2.0880   25.3950  -26.0900 C   0  0  0  0  0  0  0  0  0  0  0  0
   -1.7790   26.0660  -24.9060 C   0  0  0  0  0  0  0  0  0  0  0  0
   -0.8070   25.5390  -24.0540 C   0  0  0  0  0  0  0  0  0  0  0  0
   -0.1780   24.3740  -24.3730 N   0  0  0  0  0  0  0  0  0  0  0  0
   -0.4680   23.7020  -25.5200 C   0  0  0  0  0  0  0  0  0  0  0  0
   -1.8180   24.1500  -29.0280 C   0  0  0  0  0  0  0  0  0  0  0  0
   -6.0280   22.7410  -31.0070 C   0  0  0  0  0  0  0  0  0  0  0  0
   -7.3530   22.8000  -30.5460 C   0  0  0  0  0  0  0  0  0  0  0  0
   -8.3130   21.9060  -31.0260 C   0  0  0  0  0  0  0  0  0  0  0  0
   -7.9610   20.9300  -31.9590 C   0  0  0  0  0  0  0  0  0  0  0  0
   -6.6370   20.8310  -32.4060 C   0  0  0  0  0  0  0  0  0  0  0  0
   -6.2670   19.8120  -33.4430 C   0  0  0  0  0  0  0  0  0  0  0  0
   -5.6780   21.7440  -31.9390 C   0  0  0  0  0  0  0  0  0  0  0  0
   -5.6095   25.2900  -28.4825 H   0  0  0  0  0  0  0  0  0  0  0  0
   -6.1825   26.7165  -29.4117 H   0  0  0  0  0  0  0  0  0  0  0  0
   -7.1441   25.1992  -29.4117 H   0  0  0  0  0  0  0  0  0  0  0  0
   -5.9654   25.3133  -31.5179 H   0  0  0  0  0  0  0  0  0  0  0  0
   -4.4056   25.6804  -30.6628 H   0  0  0  0  0  0  0  0  0  0  0  0
   -3.3544   22.5324  -31.8185 H   0  0  0  0  0  0  0  0  0  0  0  0
   -1.7105   22.7858  -31.8918 H   0  0  0  0  0  0  0  0  0  0  0  0
   -3.2719   20.4996  -30.3798 H   0  0  0  0  0  0  0  0  0  0  0  0
   -1.7064   20.2607  -30.8705 H   0  0  0  0  0  0  0  0  0  0  0  0
   -1.0830   21.2102  -28.9530 H   0  0  0  0  0  0  0  0  0  0  0  0
   -2.7858   19.1244  -24.9100 H   0  0  0  0  0  0  0  0  0  0  0  0
   -3.5890   18.2236  -26.2405 H   0  0  0  0  0  0  0  0  0  0  0  0
   -1.8038   18.4230  -26.2405 H   0  0  0  0  0  0  0  0  0  0  0  0
   -2.8615   25.7944  -26.7624 H   0  0  0  0  0  0  0  0  0  0  0  0
   -2.2965   27.0014  -24.6466 H   0  0  0  0  0  0  0  0  0  0  0  0
   -0.5487   26.0656  -23.1234 H   0  0  0  0  0  0  0  0  0  0  0  0
    0.5390   23.9850  -23.7210 H   0  0  0  0  0  0  0  0  0  0  0  0
    0.0418   22.7526  -25.7408 H   0  0  0  0  0  0  0  0  0  0  0  0
   -2.3543   25.1091  -28.9781 H   0  0  0  0  0  0  0  0  0  0  0  0
   -0.8499   24.4176  -29.4764 H   0  0  0  0  0  0  0  0  0  0  0  0
   -7.6375   23.5569  -29.8003 H   0  0  0  0  0  0  0  0  0  0  0  0
   -9.3507   21.9717  -30.6670 H   0  0  0  0  0  0  0  0  0  0  0  0
   -8.7240   20.2375  -32.3440 H   0  0  0  0  0  0  0  0  0  0  0  0
   -5.9319   18.8891  -32.9470 H   0  0  0  0  0  0  0  0  0  0  0  0
   -7.1431   19.5933  -34.0712 H   0  0  0  0  0  0  0  0  0  0  0  0
   -5.4547   20.2064  -34.0712 H   0  0  0  0  0  0  0  0  0  0  0  0
   -4.6425   21.6802  -32.3046 H   0  0  0  0  0  0  0  0  0  0  0  0
  1  2  1  0
  2  3  1  0
  3  4  1  0
  4  5  2  0
  6  4  1  1
  6  7  1  0
  7  8  1  0
  8  9  1  0
  9 10  1  0
 10 11  1  0
 11 12  2  0
 11 13  1  0
 13 14  1  0
 10 15  2  0
 15 16  1  0
 16 17  2  0
 17 18  1  0
 18 19  2  0
 19 20  1  0
 20 21  2  0
 15 22  1  0
  3 23  1  0
 23 24  2  0
 24 25  1  0
 25 26  2  0
 26 27  1  0
 27 28  1  0
 27 29  2  0
  9  6  1  0
 21 16  1  0
 29 23  1  0
 22  6  1  0
  1 30  1  0
  1 31  1  0
  1 32  1  0
  2 33  1  0
  2 34  1  0
  7 35  1  0
  7 36  1  0
  8 37  1  0
  8 38  1  0
  9 39  1  6
 14 40  1  0
 14 41  1  0
 14 42  1  0
 17 43  1  0
 18 44  1  0
 19 45  1  0
 20 46  1  0
 21 47  1  0
 22 48  1  0
 22 49  1  0
 24 50  1  0
 25 51  1  0
 26 52  1  0
 28 53  1  0
 28 54  1  0
 28 55  1  0
 29 56  1  0
M  CHG  1  20   1
M  END
>  <UniqueID>  (14) 
12

>  <SMILES>  (14) 
CCN(C(=O)[C@]12CC[C@@H]1C(C(=O)OC)=C(c1ccc[nH+]c1)C2)c1cccc(C)c1

>  <Energy>  (14) 
223.1795035319974

>  <Genealogy>  (14) 
CCN(C(=O)C12CCC1C(C(=O)OC)=C(c1ccc[nH+]c1)C2)c1cccc(C)c1 (protonated)
CCN(C(=O)[C@]12CC[C@@H]1C(C(=O)OC)=C(c1ccc[nH+]c1)C2)c1cccc(C)c1 (chirality)
CCN(C(=O)[C@]12CC[C@@H]1C(C(=O)OC)=C(c1ccc[nH+]c1)C2)c1cccc(C)c1 (3D coordinates assigned)
CCN(C(=O)[C@]12CC[C@@H]1C(C(=O)OC)=C(c1ccc[nH+]c1)C2)c1cccc(C)c1 (nonaromatic ring conformer: 223.1795035319974 kcal/mol)

>  <smiles>  (14) 
CCN(C(=O)C12CCC1C(C(=O)OC)=C(c1cccnc1)C2)c1cccc(C)c1

>  <score_type>  (14) 
oracle

>  <origin>  (14) 
adg

>  <m_score__min__energy>  (14) 
-8.9399999999999995

>  <m_primary>  (14) 
energy

$$$$
14:0
     RDKit          3D

 57 59  0  0  0  0  0  0  0  0999 V2000
   -5.3340   25.2800  -30.7900 C   0  0  0  0  0  0  0  0  0  0  0  0
   -3.8810   25.3160  -30.7110 N   0  0  0  0  0  0  0  0  0  0  0  0
   -3.1520   24.8080  -29.5930 C   0  0  0  0  0  0  0  0  0  0  0  0
   -3.6670   23.9360  -28.8410 O   0  0  0  0  0  0  0  0  0  0  0  0
   -1.8300   25.2890  -29.3440 N   0  0  0  0  0  0  0  0  0  0  0  0
   -0.7660   24.4330  -28.8300 C   0  0  0  0  0  0  0  0  0  0  0  0
   -1.1680   23.8100  -27.4900 C   0  0  0  0  0  0  0  0  0  0  0  0
   -1.2570   22.2990  -27.5860 C   0  0  0  0  0  0  0  0  0  0  0  0
   -1.1760   21.5710  -26.3830 C   0  0  0  0  0  0  0  0  0  0  0  0
   -1.2910   20.1830  -26.3780 C   0  0  0  0  0  0  0  0  0  0  0  0
   -1.5000   19.4970  -27.5700 C   0  0  0  0  0  0  0  0  0  0  0  0
   -1.5940   20.1970  -28.7720 C   0  0  0  0  0  0  0  0  0  0  0  0
   -1.4780   21.6020  -28.8120 C   0  0  0  0  0  0  0  0  0  0  0  0
   -1.5870   22.3080  -30.0740 N   0  0  0  0  0  0  0  0  0  0  0  0
   -1.0910   21.8010  -31.3570 C   0  0  0  0  0  0  0  0  0  0  0  0
   -2.1920   21.0580  -32.0960 C   0  0  0  0  0  0  0  0  0  0  0  0
   -1.9570   19.8580  -32.8090 C   0  0  0  0  0  0  0  0  0  0  0  0
   -0.5520   19.5470  -33.2820 C   0  0  0  0  0  0  0  0  0  0  0  0
   -3.0770   19.0890  -33.2440 C   0  0  0  0  0  0  0  0  0  0  0  0
   -3.0080   17.7240  -33.6570 C   0  0  0  0  0  0  0  0  0  0  0  0
   -1.8510   16.8310  -33.2530 C   0  0  0  0  0  0  0  0  0  0  0  0
   -4.1160   17.1450  -34.3290 C   0  0  0  0  0  0  0  0  0  0  0  0
   -4.0400   15.7510  -34.9100 C   0  0  0  0  0  0  0  0  0  0  0  0
   -5.3380   17.8370  -34.3840 C   0  0  0  0  0  0  0  0  0  0  0  0
   -6.4500   17.2320  -34.9670 O   0  0  0  0  0  0  0  0  0  0  0  0
   -5.4580   19.1210  -33.8340 C   0  0  0  0  0  0  0  0  0  0  0  0
   -6.7990   19.8130  -33.8230 C   0  0  0  0  0  0  0  0  0  0  0  0
   -4.3390   19.7330  -33.2460 C   0  0  0  0  0  0  0  0  0  0  0  0
   -4.4820   20.9320  -32.6920 O   0  0  0  0  0  0  0  0  0  0  0  0
   -3.4920   21.5880  -32.1090 C   0  0  0  0  0  0  0  0  0  0  0  0
   -3.7310   22.7120  -31.5910 O   0  0  0  0  0  0  0  0  0  0  0  0
   -5.7563   25.2695  -29.7743 H   0  0  0  0  0  0  0  0  0  0  0  0
   -5.6941   26.1695  -31.3277 H   0  0  0  0  0  0  0  0  0  0  0  0
   -5.6496   24.3738  -31.3277 H   0  0  0  0  0  0  0  0  0  0  0  0
   -0.5668   23.6304  -29.5554 H   0  0  0  0  0  0  0  0  0  0  0  0
    0.1356   25.0445  -28.6779 H   0  0  0  0  0  0  0  0  0  0  0  0
   -0.4170   24.0767  -26.7318 H   0  0  0  0  0  0  0  0  0  0  0  0
   -2.1590   24.1979  -27.2116 H   0  0  0  0  0  0  0  0  0  0  0  0
   -1.0198   22.1059  -25.4346 H   0  0  0  0  0  0  0  0  0  0  0  0
   -1.2165   19.6288  -25.4307 H   0  0  0  0  0  0  0  0  0  0  0  0
   -1.5912   18.4008  -27.5642 H   0  0  0  0  0  0  0  0  0  0  0  0
   -1.7619   19.6428  -29.7072 H   0  0  0  0  0  0  0  0  0  0  0  0
   -2.0680   23.2300  -30.1210 H   0  0  0  0  0  0  0  0  0  0  0  0
   -0.7482   22.6460  -31.9723 H   0  0  0  0  0  0  0  0  0  0  0  0
   -0.2581   21.1077  -31.1681 H   0  0  0  0  0  0  0  0  0  0  0  0
    0.1043   19.4017  -32.4113 H   0  0  0  0  0  0  0  0  0  0  0  0
   -0.5641   18.6298  -33.8891 H   0  0  0  0  0  0  0  0  0  0  0  0
   -0.1759   20.3836  -33.8891 H   0  0  0  0  0  0  0  0  0  0  0  0
   -1.7900   16.7839  -32.1557 H   0  0  0  0  0  0  0  0  0  0  0  0
   -2.0106   15.8196  -33.6551 H   0  0  0  0  0  0  0  0  0  0  0  0
   -0.9131   17.2416  -33.6551 H   0  0  0  0  0  0  0  0  0  0  0  0
   -3.9999   15.0151  -34.0934 H   0  0  0  0  0  0  0  0  0  0  0  0
   -4.9292   15.5630  -35.5296 H   0  0  0  0  0  0  0  0  0  0  0  0
   -3.1356   15.6608  -35.5296 H   0  0  0  0  0  0  0  0  0  0  0  0
   -7.1181   19.9777  -32.7833 H   0  0  0  0  0  0  0  0  0  0  0  0
   -6.7163   20.7810  -34.3389 H   0  0  0  0  0  0  0  0  0  0  0  0
   -7.5401   19.1847  -34.3389 H   0  0  0  0  0  0  0  0  0  0  0  0
  1  2  1  0
  2  3  1  0
  3  4  2  0
  3  5  1  0
  5  6  1  0
  6  7  1  0
  7  8  1  0
  8  9  2  0
  9 10  1  0
 10 11  2  0
 11 12  1  0
 12 13  2  0
 13 14  1  0
 14 15  1  0
 15 16  1  0
 16 17  2  0
 17 18  1  0
 17 19  1  0
 19 20  2  0
 20 21  1  0
 20 22  1  0
 22 23  1  0
 22 24  2  0
 24 25  1  0
 24 26  1  0
 26 27  1  0
 26 28  2  0
 28 29  1  0
 29 30  1  0
 30 31  2  0
 13  8  1  0
 30 16  1  0
 28 19  1  0
  1 32  1  0
  1 33  1  0
  1 34  1  0
  6 35  1  0
  6 36  1  0
  7 37  1  0
  7 38  1  0
  9 39  1  0
 10 40  1  0
 11 41  1  0
 12 42  1  0
 14 43  1  0
 15 44  1  0
 15 45  1  0
 18 46  1  0
 18 47  1  0
 18 48  1  0
 21 49  1  0
 21 50  1  0
 21 51  1  0
 23 52  1  0
 23 53  1  0
 23 54  1  0
 27 55  1  0
 27 56  1  0
 27 57  1  0
M  CHG  3   2  -1   5  -1  25  -1
M  END
>  <UniqueID>  (15) 
13

>  <SMILES>  (15) 
C[N-]C(=O)[N-]CCc1ccccc1NCc1c(C)c2c(C)c(C)c([O-])c(C)c2oc1=O

>  <Energy>  (15) 
78.49051658696317

>  <Genealogy>  (15) 
C[N-]C(=O)[N-]CCc1ccccc1NCc1c(C)c2c(C)c(C)c([O-])c(C)c2oc1=O (protonated)
C[N-]C(=O)[N-]CCc1ccccc1NCc1c(C)c2c(C)c(C)c([O-])c(C)c2oc1=O (3D coordinates assigned)
C[N-]C(=O)[N-]CCc1ccccc1NCc1c(C)c2c(C)c(C)c([O-])c(C)c2oc1=O (optimized conformer: 78.49051658696317 kcal/mol)

>  <smiles>  (15) 
CNC(=O)NCCc1ccccc1NCc1c(C)c2c(C)c(C)c(O)c(C)c2oc1=O

>  <score_type>  (15) 
oracle

>  <origin>  (15) 
adg

>  <m_score__min__energy>  (15) 
-12.35

>  <m_primary>  (15) 
energy

$$$$
15:0
     RDKit          3D

 37 40  0  0  0  0  0  0  0  0999 V2000
   -5.5903   26.0573  -31.4922 H   0  0  0  0  0  0  0  0  0  0  0  0
   -5.0740   25.1750  -31.0860 C   0  0  0  0  0  0  0  0  0  0  0  0
   -3.8640   25.3270  -30.4780 N   0  0  0  0  0  0  0  0  0  0  0  0
   -3.2130   24.2500  -29.9780 C   0  0  0  0  0  0  0  0  0  0  0  0
   -1.9700   24.2940  -29.3440 C   0  0  0  0  0  0  0  0  0  0  0  0
   -1.3935   25.2184  -29.1920 H   0  0  0  0  0  0  0  0  0  0  0  0
   -1.5410   23.0350  -28.9250 C   0  0  0  0  0  0  0  0  0  0  0  0
   -0.5950   22.8219  -28.4058 H   0  0  0  0  0  0  0  0  0  0  0  0
   -2.7120   21.8890  -29.3450 S   0  0  0  0  0  0  0  0  0  0  0  0
   -3.7630   22.9860  -30.0660 C   0  0  0  0  0  0  0  0  0  0  0  0
   -5.0110   22.7610  -30.6510 C   0  0  0  0  0  0  0  0  0  0  0  0
   -5.4720   21.5380  -30.6690 N   0  0  0  0  0  0  0  0  0  0  0  0
   -5.4260   20.5780  -31.7320 C   0  0  0  0  0  0  0  0  0  0  0  0
   -4.2450   20.4080  -32.4610 C   0  0  0  0  0  0  0  0  0  0  0  0
   -3.3712   21.0403  -32.2451 H   0  0  0  0  0  0  0  0  0  0  0  0
   -4.1720   19.4360  -33.4640 C   0  0  0  0  0  0  0  0  0  0  0  0
   -3.2515   19.3278  -34.0564 H   0  0  0  0  0  0  0  0  0  0  0  0
   -5.2720   18.5960  -33.7180 C   0  0  0  0  0  0  0  0  0  0  0  0
   -5.2440   17.6220  -34.7270 O   0  0  0  0  0  0  0  0  0  0  0  0
   -5.4280   16.2450  -34.5340 C   0  0  0  0  0  0  0  0  0  0  0  0
   -4.3040   15.4090  -34.5340 C   0  0  0  0  0  0  0  0  0  0  0  0
   -3.3016   15.8405  -34.6716 H   0  0  0  0  0  0  0  0  0  0  0  0
   -4.4490   14.0280  -34.3600 C   0  0  0  0  0  0  0  0  0  0  0  0
   -3.5610   13.3789  -34.3515 H   0  0  0  0  0  0  0  0  0  0  0  0
   -5.7210   13.4730  -34.1970 C   0  0  0  0  0  0  0  0  0  0  0  0
   -5.8335   12.3881  -34.0545 H   0  0  0  0  0  0  0  0  0  0  0  0
   -6.8500   14.2960  -34.2150 C   0  0  0  0  0  0  0  0  0  0  0  0
   -7.8514   13.8578  -34.0923 H   0  0  0  0  0  0  0  0  0  0  0  0
   -6.7080   15.6770  -34.3890 C   0  0  0  0  0  0  0  0  0  0  0  0
   -7.5994   16.3211  -34.4126 H   0  0  0  0  0  0  0  0  0  0  0  0
   -6.4470   18.7610  -32.9760 C   0  0  0  0  0  0  0  0  0  0  0  0
   -7.3182   18.1218  -33.1820 H   0  0  0  0  0  0  0  0  0  0  0  0
   -6.5200   19.7340  -31.9740 C   0  0  0  0  0  0  0  0  0  0  0  0
   -7.4366   19.8376  -31.3748 H   0  0  0  0  0  0  0  0  0  0  0  0
   -5.6760   23.9020  -31.2030 C   0  0  0  0  0  0  0  0  0  0  0  0
   -6.8950   23.8240  -31.9730 C   0  0  0  0  0  0  0  0  0  0  0  0
   -7.8730   23.7510  -32.5890 N   0  0  0  0  0  0  0  0  0  0  0  0
  1  2  1  0
  2  3  1  0
  3  4  1  0
  4  5  1  0
  5  6  1  0
  5  7  2  0
  7  8  1  0
  7  9  1  0
  9 10  1  0
 10 11  1  0
 11 12  2  0
 12 13  1  0
 13 14  2  0
 14 15  1  0
 14 16  1  0
 16 17  1  0
 16 18  2  0
 18 19  1  0
 19 20  1  0
 20 21  2  0
 21 22  1  0
 21 23  1  0
 23 24  1  0
 23 25  2  0
 25 26  1  0
 25 27  1  0
 27 28  1  0
 27 29  2  0
 29 30  1  0
 18 31  1  0
 31 32  1  0
 31 33  2  0
 33 34  1  0
 11 35  1  0
 35 36  1  0
 36 37  3  0
 35  2  2  0
 10  4  2  0
 33 13  1  0
 29 20  1  0
M  CHG  1   3  -1
M  END
>  <UniqueID>  (16) 
14

>  <SMILES>  (16) 
N#Cc1c[n-]c2ccsc2/c1=N/c1ccc(Oc2ccccc2)cc1

>  <Energy>  (16) 
95.29054743981273

>  <Genealogy>  (16) 
N#Cc1c[n-]c2ccsc2c1=Nc1ccc(Oc2ccccc2)cc1 (protonated)
N#Cc1c[n-]c2ccsc2/c1=N/c1ccc(Oc2ccccc2)cc1 (cis-trans isomerization)
N#Cc1c[n-]c2ccsc2/c1=N/c1ccc(Oc2ccccc2)cc1 (3D coordinates assigned)
N#Cc1c[n-]c2ccsc2/c1=N/c1ccc(Oc2ccccc2)cc1 (optimized conformer: 95.29054743981273 kcal/mol)

>  <smiles>  (16) 
N#Cc1c[nH]c2ccsc2c1=Nc1ccc(Oc2ccccc2)cc1

>  <score_type>  (16) 
oracle

>  <origin>  (16) 
adg

>  <m_score__min__energy>  (16) 
-8.6999999999999993

>  <m_primary>  (16) 
energy

$$$$
16:0
     RDKit          3D

 28 29  0  0  0  0  0  0  0  0999 V2000
   -7.1038   15.7260  -33.9304 H   0  0  0  0  0  0  0  0  0  0  0  0
   -6.8430   16.7530  -33.6350 C   0  0  0  0  0  0  0  0  0  0  0  0
   -5.7510   17.7630  -34.4250 S   0  0  0  0  0  0  0  0  0  0  0  0
   -5.9510   19.0180  -33.3280 C   0  0  0  0  0  0  0  0  0  0  0  0
   -5.3410   20.3070  -33.4810 N   0  0  0  0  0  0  0  0  0  0  0  0
   -5.4710   21.3220  -32.6810 C   0  0  0  0  0  0  0  0  0  0  0  0
   -6.5170   21.4380  -31.8360 N   0  0  0  0  0  0  0  0  0  0  0  0
   -6.4810   22.6000  -31.1280 C   0  0  0  0  0  0  0  0  0  0  0  0
   -7.5480   22.9220  -30.1280 C   0  0  0  0  0  0  0  0  0  0  0  0
   -7.1462   22.8007  -29.1112 H   0  0  0  0  0  0  0  0  0  0  0  0
   -7.8813   23.9607  -30.2691 H   0  0  0  0  0  0  0  0  0  0  0  0
   -8.4003   22.2411  -30.2691 H   0  0  0  0  0  0  0  0  0  0  0  0
   -5.3920   23.4330  -31.4240 C   0  0  0  0  0  0  0  0  0  0  0  0
   -5.0740   24.7480  -30.8410 C   0  0  0  0  0  0  0  0  0  0  0  0
   -5.9950   25.5960  -30.6830 O   0  0  0  0  0  0  0  0  0  0  0  0
   -3.7640   25.0560  -30.4670 O   0  0  0  0  0  0  0  0  0  0  0  0
   -3.0390   24.3010  -29.5020 C   0  0  0  0  0  0  0  0  0  0  0  0
   -2.0978   24.8180  -29.2636 H   0  0  0  0  0  0  0  0  0  0  0  0
   -2.8164   23.3034  -29.9086 H   0  0  0  0  0  0  0  0  0  0  0  0
   -3.8740   24.1590  -28.2380 C   0  0  0  0  0  0  0  0  0  0  0  0
   -3.2259   24.2692  -27.3561 H   0  0  0  0  0  0  0  0  0  0  0  0
   -4.6505   24.9380  -28.2221 H   0  0  0  0  0  0  0  0  0  0  0  0
   -4.3493   23.1671  -28.2221 H   0  0  0  0  0  0  0  0  0  0  0  0
   -4.4640   22.6730  -32.6080 S   0  0  0  0  0  0  0  0  0  0  0  0
   -6.8680   18.7030  -32.3860 N   0  0  0  0  0  0  0  0  0  0  0  0
   -7.2160   19.3560  -31.6510 H   0  0  0  0  0  0  0  0  0  0  0  0
   -7.3570   17.4450  -32.5440 C   0  0  0  0  0  0  0  0  0  0  0  0
   -8.1014   17.0082  -31.8620 H   0  0  0  0  0  0  0  0  0  0  0  0
  1  2  1  0
  2  3  1  0
  3  4  1  0
  4  5  1  0
  5  6  2  0
  6  7  1  0
  7  8  1  0
  8  9  1  0
  9 10  1  0
  9 11  1  0
  9 12  1  0
  8 13  2  0
 13 14  1  0
 14 15  2  0
 14 16  1  0
 16 17  1  0
 17 18  1  0
 17 19  1  0
 17 20  1  0
 20 21  1  0
 20 22  1  0
 20 23  1  0
 13 24  1  0
  4 25  2  0
 25 26  1  0
 25 27  1  0
 27 28  1  0
 27  2  2  0
 24  6  1  0
M  CHG  2   7  -1  25   1
M  END
>  <UniqueID>  (17) 
15

>  <SMILES>  (17) 
CCOC(=O)c1s/c(=N\c2[nH+]ccs2)[n-]c1C

>  <Energy>  (17) 
87.17154538068532

>  <Genealogy>  (17) 
CCOC(=O)c1sc(=Nc2[nH+]ccs2)[n-]c1C (protonated)
CCOC(=O)c1s/c(=N\c2[nH+]ccs2)[n-]c1C (cis-trans isomerization)
CCOC(=O)c1s/c(=N\c2[nH+]ccs2)[n-]c1C (3D coordinates assigned)
CCOC(=O)c1s/c(=N\c2[nH+]ccs2)[n-]c1C (optimized conformer: 87.17154538068532 kcal/mol)

>  <smiles>  (17) 
CCOC(=O)c1sc(=Nc2nccs2)[nH]c1C

>  <score_type>  (17) 
oracle

>  <origin>  (17) 
adg

>  <m_score__min__energy>  (17) 
-6.2599999999999998

>  <m_primary>  (17) 
energy

$$$$
17:0
     RDKit          3D

 30 31  0  0  0  0  0  0  0  0999 V2000
   -4.5970   23.6550  -28.9480 C   0  0  0  0  0  0  0  0  0  0  0  0
   -4.2980   24.1700  -30.2960 N   0  0  0  0  0  0  0  0  0  0  0  0
   -3.7900   23.1060  -31.1880 C   0  0  0  0  0  0  0  0  0  0  0  0
   -4.8790   22.0730  -31.5260 C   0  0  0  0  0  0  0  0  0  0  0  0
   -6.1770   22.7310  -31.7260 N   0  0  0  0  0  0  0  0  0  0  0  0
   -7.4010   22.0220  -31.4490 C   0  0  0  0  0  0  0  0  0  0  0  0
   -8.3470   22.6210  -30.8680 O   0  0  0  0  0  0  0  0  0  0  0  0
   -7.5680   20.5980  -31.8120 C   0  0  0  0  0  0  0  0  0  0  0  0
   -8.6010   19.8360  -31.2420 C   0  0  0  0  0  0  0  0  0  0  0  0
   -8.7580   18.5290  -31.5850 N   0  0  0  0  0  0  0  0  0  0  0  0
   -7.9390   17.9230  -32.4860 C   0  0  0  0  0  0  0  0  0  0  0  0
   -6.9090   18.6450  -33.0910 C   0  0  0  0  0  0  0  0  0  0  0  0
   -5.7680   17.8090  -34.3740 Br  0  0  0  0  0  0  0  0  0  0  0  0
   -6.7280   19.9900  -32.7560 C   0  0  0  0  0  0  0  0  0  0  0  0
   -6.1940   24.1720  -31.9840 C   0  0  0  0  0  0  0  0  0  0  0  0
   -5.4460   24.9240  -30.8670 C   0  0  0  0  0  0  0  0  0  0  0  0
   -4.1951   24.3473  -28.1935 H   0  0  0  0  0  0  0  0  0  0  0  0
   -5.6863   23.5676  -28.8221 H   0  0  0  0  0  0  0  0  0  0  0  0
   -4.1328   22.6657  -28.8221 H   0  0  0  0  0  0  0  0  0  0  0  0
   -3.4330   23.5650  -32.1217 H   0  0  0  0  0  0  0  0  0  0  0  0
   -2.9746   22.5837  -30.6661 H   0  0  0  0  0  0  0  0  0  0  0  0
   -4.5984   21.5412  -32.4471 H   0  0  0  0  0  0  0  0  0  0  0  0
   -4.9671   21.3660  -30.6879 H   0  0  0  0  0  0  0  0  0  0  0  0
   -9.2857   20.2978  -30.5154 H   0  0  0  0  0  0  0  0  0  0  0  0
   -8.0885   16.8628  -32.7382 H   0  0  0  0  0  0  0  0  0  0  0  0
   -5.9259   20.5720  -33.2333 H   0  0  0  0  0  0  0  0  0  0  0  0
   -5.7044   24.3738  -32.9481 H   0  0  0  0  0  0  0  0  0  0  0  0
   -7.2377   24.5183  -32.0116 H   0  0  0  0  0  0  0  0  0  0  0  0
   -5.0673   25.8705  -31.2803 H   0  0  0  0  0  0  0  0  0  0  0  0
   -6.1652   25.0777  -30.0490 H   0  0  0  0  0  0  0  0  0  0  0  0
  1  2  1  0
  2  3  1  0
  3  4  1  0
  4  5  1  0
  5  6  1  0
  6  7  2  0
  6  8  1  0
  8  9  2  0
  9 10  1  0
 10 11  2  0
 11 12  1  0
 12 13  1  0
 12 14  2  0
  5 15  1  0
 15 16  1  0
 16  2  1  0
 14  8  1  0
  1 17  1  0
  1 18  1  0
  1 19  1  0
  3 20  1  0
  3 21  1  0
  4 22  1  0
  4 23  1  0
  9 24  1  0
 11 25  1  0
 14 26  1  0
 15 27  1  0
 15 28  1  0
 16 29  1  0
 16 30  1  0
M  END
>  <UniqueID>  (18) 
16

>  <SMILES>  (18) 
CN1CCN(C(=O)c2cncc(Br)c2)CC1

>  <Energy>  (18) 
42.78221041040123

>  <Genealogy>  (18) 
CN1CCN(C(=O)c2cncc(Br)c2)CC1 (3D coordinates assigned)
CN1CCN(C(=O)c2cncc(Br)c2)CC1 (nonaromatic ring conformer: 42.78221041040123 kcal/mol)

>  <smiles>  (18) 
CN1CCN(C(=O)c2cncc(Br)c2)CC1

>  <score_type>  (18) 
oracle

>  <origin>  (18) 
adg

>  <m_score__min__energy>  (18) 
-6.7300000000000004

>  <m_primary>  (18) 
energy

$$$$
18:0
     RDKit          3D

 47 50  0  0  0  0  0  0  0  0999 V2000
   -1.0350   21.1470  -26.6980 O   0  0  0  0  0  0  0  0  0  0  0  0
   -1.1690   22.3940  -26.8200 C   0  0  0  0  0  0  0  0  0  0  0  0
   -0.3010   23.2550  -26.0670 N   0  0  0  0  0  0  0  0  0  0  0  0
   -0.6090   24.3990  -25.5180 C   0  0  0  0  0  0  0  0  0  0  0  0
   -1.2420   25.4350  -26.2380 C   0  0  0  0  0  0  0  0  0  0  0  0
   -1.5430   26.6360  -25.5960 C   0  0  0  0  0  0  0  0  0  0  0  0
   -1.2070   26.8100  -24.2550 C   0  0  0  0  0  0  0  0  0  0  0  0
   -0.5660   25.7770  -23.5720 C   0  0  0  0  0  0  0  0  0  0  0  0
   -0.2780   24.6090  -24.2110 N   0  0  0  0  0  0  0  0  0  0  0  0
   -2.2620   22.9330  -27.6680 C   0  0  0  0  0  0  0  0  0  0  0  0
   -3.5940   22.5250  -27.4730 C   0  0  0  0  0  0  0  0  0  0  0  0
   -4.6170   23.0370  -28.2760 C   0  0  0  0  0  0  0  0  0  0  0  0
   -4.3240   23.9570  -29.2890 C   0  0  0  0  0  0  0  0  0  0  0  0
   -5.6110   24.5990  -30.3060 S   0  0  0  0  0  0  0  0  0  0  0  0
   -6.6670   25.2520  -29.4590 O   0  0  0  0  0  0  0  0  0  0  0  0
   -5.0310   25.6370  -31.2250 O   0  0  0  0  0  0  0  0  0  0  0  0
   -6.3410   23.3040  -31.2220 N   0  0  0  0  0  0  0  0  0  0  0  0
   -7.8010   23.2070  -31.2970 C   0  0  0  0  0  0  0  0  0  0  0  0
   -8.2340   21.7770  -30.9840 C   0  0  0  0  0  0  0  0  0  0  0  0
   -7.6210   20.8050  -31.9970 C   0  0  0  0  0  0  0  0  0  0  0  0
   -6.1410   21.0380  -32.1970 C   0  0  0  0  0  0  0  0  0  0  0  0
   -5.3720   20.0360  -32.8080 C   0  0  0  0  0  0  0  0  0  0  0  0
   -4.0160   20.2430  -33.0640 C   0  0  0  0  0  0  0  0  0  0  0  0
   -3.4190   21.4580  -32.7290 C   0  0  0  0  0  0  0  0  0  0  0  0
   -4.1740   22.4700  -32.1300 C   0  0  0  0  0  0  0  0  0  0  0  0
   -5.5420   22.2750  -31.8520 C   0  0  0  0  0  0  0  0  0  0  0  0
   -3.0000   24.3640  -29.4920 C   0  0  0  0  0  0  0  0  0  0  0  0
   -1.9750   23.8530  -28.6920 C   0  0  0  0  0  0  0  0  0  0  0  0
   -1.4964   25.2960  -27.2991 H   0  0  0  0  0  0  0  0  0  0  0  0
   -2.0449   27.4447  -26.1475 H   0  0  0  0  0  0  0  0  0  0  0  0
   -1.4450   27.7526  -23.7404 H   0  0  0  0  0  0  0  0  0  0  0  0
   -0.2922   25.9057  -22.5144 H   0  0  0  0  0  0  0  0  0  0  0  0
    0.2030   23.8530  -23.6710 H   0  0  0  0  0  0  0  0  0  0  0  0
   -3.8322   21.7977  -26.6828 H   0  0  0  0  0  0  0  0  0  0  0  0
   -5.6560   22.7157  -28.1112 H   0  0  0  0  0  0  0  0  0  0  0  0
   -8.2519   23.8946  -30.5664 H   0  0  0  0  0  0  0  0  0  0  0  0
   -8.1343   23.4771  -32.3099 H   0  0  0  0  0  0  0  0  0  0  0  0
   -7.8962   21.5083  -29.9722 H   0  0  0  0  0  0  0  0  0  0  0  0
   -9.3305   21.7129  -31.0432 H   0  0  0  0  0  0  0  0  0  0  0  0
   -7.7710   19.7770  -31.6355 H   0  0  0  0  0  0  0  0  0  0  0  0
   -8.1198   20.9694  -32.9635 H   0  0  0  0  0  0  0  0  0  0  0  0
   -5.8412   19.0810  -33.0870 H   0  0  0  0  0  0  0  0  0  0  0  0
   -3.4172   19.4469  -33.5306 H   0  0  0  0  0  0  0  0  0  0  0  0
   -2.3511   21.6202  -32.9368 H   0  0  0  0  0  0  0  0  0  0  0  0
   -3.6965   23.4271  -31.8732 H   0  0  0  0  0  0  0  0  0  0  0  0
   -2.7657   25.0894  -30.2850 H   0  0  0  0  0  0  0  0  0  0  0  0
   -0.9366   24.1724  -28.8643 H   0  0  0  0  0  0  0  0  0  0  0  0
  1  2  2  0
  2  3  1  0
  3  4  2  3
  4  5  1  0
  5  6  2  0
  6  7  1  0
  7  8  2  0
  8  9  1  0
  2 10  1  0
 10 11  2  0
 11 12  1  0
 12 13  2  0
 13 14  1  0
 14 15  2  0
 14 16  2  0
 14 17  1  0
 17 18  1  0
 18 19  1  0
 19 20  1  0
 20 21  1  0
 21 22  2  0
 22 23  1  0
 23 24  2  0
 24 25  1  0
 25 26  2  0
 13 27  1  0
 27 28  2  0
  9  4  1  0
 28 10  1  0
 26 17  1  0
 26 21  1  0
  5 29  1  0
  6 30  1  0
  7 31  1  0
  8 32  1  0
  9 33  1  0
 11 34  1  0
 12 35  1  0
 18 36  1  0
 18 37  1  0
 19 38  1  0
 19 39  1  0
 20 40  1  0
 20 41  1  0
 22 42  1  0
 23 43  1  0
 24 44  1  0
 25 45  1  0
 27 46  1  0
 28 47  1  0
M  END
>  <UniqueID>  (19) 
17

>  <SMILES>  (19) 
O=C(N=c1cccc[nH]1)c1ccc(S(=O)(=O)N2CCCc3ccccc32)cc1

>  <Energy>  (19) 
65.11956317899784

>  <Genealogy>  (19) 
O=C(N=c1cccc[nH]1)c1ccc(S(=O)(=O)N2CCCc3ccccc32)cc1 (3D coordinates assigned)
O=C(N=c1cccc[nH]1)c1ccc(S(=O)(=O)N2CCCc3ccccc32)cc1 (nonaromatic ring conformer: 65.11956317899784 kcal/mol)

>  <smiles>  (19) 
O=C(N=c1cccc[nH]1)c1ccc(S(=O)(=O)N2CCCc3ccccc32)cc1

>  <score_type>  (19) 
oracle

>  <origin>  (19) 
adg

>  <m_score__min__energy>  (19) 
-10.619999999999999

>  <m_primary>  (19) 
energy

$$$$
19:0
     RDKit          3D

 31 32  0  0  0  0  0  0  0  0999 V2000
   -3.5270   25.6760  -29.7010 H   0  0  0  0  0  0  0  0  0  0  0  0
   -3.8850   25.2960  -30.6040 N   0  0  0  0  0  0  0  0  0  0  0  0
   -5.2400   24.8660  -30.7360 C   0  0  0  0  0  0  0  0  0  0  0  0
   -6.1630   25.6110  -30.3080 O   0  0  0  0  0  0  0  0  0  0  0  0
   -5.5680   23.5690  -31.3690 C   0  0  0  0  0  0  0  0  0  0  0  0
   -4.6730   22.4520  -31.1550 C   0  0  0  0  0  0  0  0  0  0  0  0
   -3.9550   21.5620  -30.9770 N   0  0  0  0  0  0  0  0  0  0  0  0
   -6.6480   23.4400  -32.1610 C   0  0  0  0  0  0  0  0  0  0  0  0
   -6.8362   24.2147  -32.9189 H   0  0  0  0  0  0  0  0  0  0  0  0
   -7.5920   22.3110  -32.0630 C   0  0  0  0  0  0  0  0  0  0  0  0
   -8.7210   22.3170  -31.2690 C   0  0  0  0  0  0  0  0  0  0  0  0
   -9.1129   23.1636  -30.6861 H   0  0  0  0  0  0  0  0  0  0  0  0
   -9.2600   21.0500  -31.3520 C   0  0  0  0  0  0  0  0  0  0  0  0
  -10.1753   20.6919  -30.8580 H   0  0  0  0  0  0  0  0  0  0  0  0
   -8.4280   20.3190  -32.1750 C   0  0  0  0  0  0  0  0  0  0  0  0
   -8.5687   19.2580  -32.4288 H   0  0  0  0  0  0  0  0  0  0  0  0
   -7.4170   21.0920  -32.6240 N   0  0  0  0  0  0  0  0  0  0  0  0
   -6.2220   20.6200  -33.3350 C   0  0  0  0  0  0  0  0  0  0  0  0
   -6.2894   20.9262  -34.3894 H   0  0  0  0  0  0  0  0  0  0  0  0
   -5.3373   21.0627  -32.8540 H   0  0  0  0  0  0  0  0  0  0  0  0
   -6.0950   19.1190  -33.2680 C   0  0  0  0  0  0  0  0  0  0  0  0
   -6.0260   18.3570  -34.4460 C   0  0  0  0  0  0  0  0  0  0  0  0
   -6.0887   18.8551  -35.4248 H   0  0  0  0  0  0  0  0  0  0  0  0
   -5.8780   16.9680  -34.3800 C   0  0  0  0  0  0  0  0  0  0  0  0
   -5.8300   16.3756  -35.3056 H   0  0  0  0  0  0  0  0  0  0  0  0
   -5.7910   16.3320  -33.1380 C   0  0  0  0  0  0  0  0  0  0  0  0
   -5.6768   15.2391  -33.0867 H   0  0  0  0  0  0  0  0  0  0  0  0
   -5.8490   17.0840  -31.9620 C   0  0  0  0  0  0  0  0  0  0  0  0
   -5.7782   16.5828  -30.9854 H   0  0  0  0  0  0  0  0  0  0  0  0
   -5.9970   18.4730  -32.0250 C   0  0  0  0  0  0  0  0  0  0  0  0
   -6.0368   19.0622  -31.0969 H   0  0  0  0  0  0  0  0  0  0  0  0
  1  2  1  0
  2  3  1  0
  3  4  2  0
  3  5  1  0
  5  6  1  0
  6  7  3  0
  5  8  2  0
  8  9  1  0
  8 10  1  0
 10 11  2  0
 11 12  1  0
 11 13  1  0
 13 14  1  0
 13 15  2  0
 15 16  1  0
 15 17  1  0
 17 18  1  0
 18 19  1  0
 18 20  1  0
 18 21  1  0
 21 22  2  0
 22 23  1  0
 22 24  1  0
 24 25  1  0
 24 26  2  0
 26 27  1  0
 26 28  1  0
 28 29  1  0
 28 30  2  0
 30 31  1  0
 17 10  1  0
 30 21  1  0
M  CHG  1   2  -1
M  END
>  <UniqueID>  (20) 
18

>  <SMILES>  (20) 
N#C/C(=C\c1cccn1Cc1ccccc1)C([NH-])=O

>  <Energy>  (20) 
63.128222798053464

>  <Genealogy>  (20) 
N#CC(=Cc1cccn1Cc1ccccc1)C([NH-])=O (protonated)
N#C/C(=C\c1cccn1Cc1ccccc1)C([NH-])=O (cis-trans isomerization)
N#C/C(=C\c1cccn1Cc1ccccc1)C([NH-])=O (3D coordinates assigned)
N#C/C(=C\c1cccn1Cc1ccccc1)C([NH-])=O (optimized conformer: 63.128222798053464 kcal/mol)

>  <smiles>  (20) 
N#CC(=Cc1cccn1Cc1ccccc1)C(N)=O

>  <score_type>  (20) 
oracle

>  <origin>  (20) 
adg

>  <m_score__min__energy>  (20) 
-10

>  <m_primary>  (20) 
energy

$$$$
20:0
     RDKit          3D

 36 38  0  0  0  0  0  0  0  0999 V2000
   -5.6640   18.6530  -32.2140 F   0  0  0  0  0  0  0  0  0  0  0  0
   -6.7550   19.1930  -32.8730 C   0  0  0  0  0  0  0  0  0  0  0  0
   -7.8370   18.3450  -32.7240 F   0  0  0  0  0  0  0  0  0  0  0  0
   -6.4420   19.2900  -34.2170 F   0  0  0  0  0  0  0  0  0  0  0  0
   -7.1020   20.5450  -32.3030 C   0  0  0  0  0  0  0  0  0  0  0  0
   -8.4420   20.9400  -32.1630 C   0  0  0  0  0  0  0  0  0  0  0  0
   -8.7590   22.1760  -31.5980 C   0  0  0  0  0  0  0  0  0  0  0  0
   -7.7460   23.0270  -31.1520 C   0  0  0  0  0  0  0  0  0  0  0  0
   -6.3970   22.6420  -31.2550 C   0  0  0  0  0  0  0  0  0  0  0  0
   -5.3070   23.5270  -30.7830 C   0  0  0  0  0  0  0  0  0  0  0  0
   -5.1440   24.8710  -31.0550 C   0  0  0  0  0  0  0  0  0  0  0  0
   -3.9940   25.2950  -30.5030 N   0  0  0  0  0  0  0  0  0  0  0  0
   -3.4990   24.1970  -29.8930 C   0  0  0  0  0  0  0  0  0  0  0  0
   -2.1540   24.1620  -29.2270 C   0  0  0  0  0  0  0  0  0  0  0  0
   -1.5800   25.4220  -29.2790 F   0  0  0  0  0  0  0  0  0  0  0  0
   -1.3320   23.2830  -29.9110 F   0  0  0  0  0  0  0  0  0  0  0  0
   -2.2690   23.7000  -27.7650 C   0  0  0  0  0  0  0  0  0  0  0  0
   -2.0290   22.2210  -27.6170 C   0  0  0  0  0  0  0  0  0  0  0  0
   -3.0980   21.3110  -27.6650 C   0  0  0  0  0  0  0  0  0  0  0  0
   -2.8510   19.9530  -27.4570 C   0  0  0  0  0  0  0  0  0  0  0  0
   -1.5510   19.5130  -27.2070 C   0  0  0  0  0  0  0  0  0  0  0  0
   -0.5100   20.4450  -27.1680 C   0  0  0  0  0  0  0  0  0  0  0  0
   -0.7700   21.7650  -27.3650 N   0  0  0  0  0  0  0  0  0  0  0  0
   -4.2640   23.0980  -30.0520 N   0  0  0  0  0  0  0  0  0  0  0  0
   -6.0870   21.3920  -31.8220 C   0  0  0  0  0  0  0  0  0  0  0  0
   -9.2471   20.2709  -32.5008 H   0  0  0  0  0  0  0  0  0  0  0  0
   -9.8116   22.4811  -31.5036 H   0  0  0  0  0  0  0  0  0  0  0  0
   -8.0043   24.0040  -30.7176 H   0  0  0  0  0  0  0  0  0  0  0  0
   -5.8433   25.4948  -31.6311 H   0  0  0  0  0  0  0  0  0  0  0  0
   -1.5252   24.2419  -27.1624 H   0  0  0  0  0  0  0  0  0  0  0  0
   -3.2924   23.9127  -27.4224 H   0  0  0  0  0  0  0  0  0  0  0  0
   -4.1201   21.6652  -27.8646 H   0  0  0  0  0  0  0  0  0  0  0  0
   -3.6801   19.2309  -27.4902 H   0  0  0  0  0  0  0  0  0  0  0  0
   -1.3474   18.4446  -27.0424 H   0  0  0  0  0  0  0  0  0  0  0  0
    0.5204   20.1103  -26.9778 H   0  0  0  0  0  0  0  0  0  0  0  0
   -5.0365   21.0728  -31.8901 H   0  0  0  0  0  0  0  0  0  0  0  0
  1  2  1  0
  2  3  1  0
  2  4  1  0
  2  5  1  0
  5  6  2  0
  6  7  1  0
  7  8  2  0
  8  9  1  0
  9 10  1  0
 10 11  2  0
 11 12  1  0
 12 13  1  0
 13 14  1  0
 14 15  1  0
 14 16  1  0
 14 17  1  0
 17 18  1  0
 18 19  2  0
 19 20  1  0
 20 21  2  0
 21 22  1  0
 22 23  2  0
 13 24  2  0
  9 25  2  0
 25  5  1  0
 24 10  1  0
 23 18  1  0
  6 26  1  0
  7 27  1  0
  8 28  1  0
 11 29  1  0
 17 30  1  0
 17 31  1  0
 19 32  1  0
 20 33  1  0
 21 34  1  0
 22 35  1  0
 25 36  1  0
M  CHG  1  12  -1
M  END
>  <UniqueID>  (21) 
19

>  <SMILES>  (21) 
FC(F)(F)c1cccc(-c2c[n-]c(C(F)(F)Cc3ccccn3)n2)c1

>  <Energy>  (21) 
64.610473499042

>  <Genealogy>  (21) 
FC(F)(F)c1cccc(-c2c[n-]c(C(F)(F)Cc3ccccn3)n2)c1 (protonated)
FC(F)(F)c1cccc(-c2c[n-]c(C(F)(F)Cc3ccccn3)n2)c1 (3D coordinates assigned)
FC(F)(F)c1cccc(-c2c[n-]c(C(F)(F)Cc3ccccn3)n2)c1 (optimized conformer: 64.610473499042 kcal/mol)

>  <smiles>  (21) 
FC(F)(F)c1cccc(-c2c[nH]c(C(F)(F)Cc3ccccn3)n2)c1

>  <score_type>  (21) 
oracle

>  <origin>  (21) 
adg

>  <m_score__min__energy>  (21) 
-8.7300000000000004

>  <m_primary>  (21) 
energy

$$$$
21:0
     RDKit          3D

 47 51  0  0  0  0  0  0  0  0999 V2000
   -1.2199   19.0208  -29.0578 H   0  0  0  0  0  0  0  0  0  0  0  0
   -1.4730   20.0900  -29.1100 C   0  0  0  0  0  0  0  0  0  0  0  0
   -0.5820   20.9910  -29.7010 C   0  0  0  0  0  0  0  0  0  0  0  0
    0.3739   20.6308  -30.1090 H   0  0  0  0  0  0  0  0  0  0  0  0
   -0.9050   22.3500  -29.7740 C   0  0  0  0  0  0  0  0  0  0  0  0
   -0.1982   23.0574  -30.2324 H   0  0  0  0  0  0  0  0  0  0  0  0
   -2.1290   22.8150  -29.2640 C   0  0  0  0  0  0  0  0  0  0  0  0
   -2.4600   24.2780  -29.3070 C   0  0  0  0  0  0  0  0  0  0  0  0
   -1.5320   24.8627  -29.3901 H   0  0  0  0  0  0  0  0  0  0  0  0
   -2.9890   24.5640  -28.3859 H   0  0  0  0  0  0  0  0  0  0  0  0
   -3.3100   24.5450  -30.4630 N   0  0  0  0  0  0  0  0  0  0  0  0
   -4.5870   24.3040  -30.5450 C   0  0  0  0  0  0  0  0  0  0  0  0
   -4.9960   23.1690  -31.1720 N   0  0  0  0  0  0  0  0  0  0  0  0
   -6.3120   22.8580  -31.3010 C   0  0  0  0  0  0  0  0  0  0  0  0
   -6.6860   21.6010  -31.9700 C   0  0  0  0  0  0  0  0  0  0  0  0
   -5.8920   20.6160  -32.6730 C   0  0  0  0  0  0  0  0  0  0  0  0
   -4.4180   20.5430  -32.7480 C   0  0  0  0  0  0  0  0  0  0  0  0
   -3.6820   21.6200  -33.2690 C   0  0  0  0  0  0  0  0  0  0  0  0
   -4.2045   22.5247  -33.6132 H   0  0  0  0  0  0  0  0  0  0  0  0
   -2.2880   21.5470  -33.3520 C   0  0  0  0  0  0  0  0  0  0  0  0
   -1.7164   22.3966  -33.7539 H   0  0  0  0  0  0  0  0  0  0  0  0
   -1.6200   20.3960  -32.9250 C   0  0  0  0  0  0  0  0  0  0  0  0
   -0.2680   20.3270  -33.0070 F   0  0  0  0  0  0  0  0  0  0  0  0
   -2.3460   19.3140  -32.4180 C   0  0  0  0  0  0  0  0  0  0  0  0
   -1.8202   18.4070  -32.0850 H   0  0  0  0  0  0  0  0  0  0  0  0
   -3.7390   19.3840  -32.3340 C   0  0  0  0  0  0  0  0  0  0  0  0
   -4.3072   18.5276  -31.9418 H   0  0  0  0  0  0  0  0  0  0  0  0
   -6.7910   19.6320  -33.1990 C   0  0  0  0  0  0  0  0  0  0  0  0
   -6.5270   18.5860  -33.8470 O   0  0  0  0  0  0  0  0  0  0  0  0
   -7.9970   20.0260  -32.8170 N   0  0  0  0  0  0  0  0  0  0  0  0
   -7.9360   21.1530  -32.1080 N   0  0  0  0  0  0  0  0  0  0  0  0
   -9.3810   21.1740  -31.9430 C   0  0  0  0  0  0  0  0  0  0  0  0
   -9.8810   22.0303  -32.4192 H   0  0  0  0  0  0  0  0  0  0  0  0
   -9.8400   21.2539  -30.9465 H   0  0  0  0  0  0  0  0  0  0  0  0
   -9.4450   19.9760  -32.6830 C   0  0  0  0  0  0  0  0  0  0  0  0
   -9.9929   20.0571  -33.6334 H   0  0  0  0  0  0  0  0  0  0  0  0
   -9.9497   19.0847  -32.2819 H   0  0  0  0  0  0  0  0  0  0  0  0
   -7.2730   23.7090  -30.7470 C   0  0  0  0  0  0  0  0  0  0  0  0
   -8.3437   23.4659  -30.8136 H   0  0  0  0  0  0  0  0  0  0  0  0
   -6.8460   24.8710  -30.1090 C   0  0  0  0  0  0  0  0  0  0  0  0
   -7.5849   25.5609  -29.6754 H   0  0  0  0  0  0  0  0  0  0  0  0
   -5.5200   25.1560  -30.0200 N   0  0  0  0  0  0  0  0  0  0  0  0
   -5.2440   26.0370  -29.5320 H   0  0  0  0  0  0  0  0  0  0  0  0
   -3.0110   21.9060  -28.6570 C   0  0  0  0  0  0  0  0  0  0  0  0
   -3.9622   22.2635  -28.2359 H   0  0  0  0  0  0  0  0  0  0  0  0
   -2.6840   20.5470  -28.5860 C   0  0  0  0  0  0  0  0  0  0  0  0
   -3.3819   19.8379  -28.1168 H   0  0  0  0  0  0  0  0  0  0  0  0
  1  2  1  0
  2  3  2  0
  3  4  1  0
  3  5  1  0
  5  6  1  0
  5  7  2  0
  7  8  1  0
  8  9  1  0
  8 10  1  0
  8 11  1  0
 11 12  2  0
 12 13  1  0
 13 14  2  0
 14 15  1  0
 15 16  2  0
 16 17  1  0
 17 18  2  0
 18 19  1  0
 18 20  1  0
 20 21  1  0
 20 22  2  0
 22 23  1  0
 22 24  1  0
 24 25  1  0
 24 26  2  0
 26 27  1  0
 16 28  1  0
 28 29  2  0
 28 30  1  0
 30 31  1  0
 31 32  1  0
 32 33  1  0
 32 34  1  0
 32 35  1  0
 35 36  1  0
 35 37  1  0
 14 38  1  0
 38 39  1  0
 38 40  2  0
 40 41  1  0
 40 42  1  0
 42 43  1  0
  7 44  1  0
 44 45  1  0
 44 46  2  0
 46 47  1  0
 46  2  1  0
 42 12  1  0
 31 15  1  0
 26 17  1  0
 35 30  1  0
M  END
>  <UniqueID>  (22) 
20

>  <SMILES>  (22) 
O=c1c(-c2ccc(F)cc2)c(-c2cc[nH]/c(=N\Cc3ccccc3)n2)n2n1CC2

>  <Energy>  (22) 
212.2953389276018

>  <Genealogy>  (22) 
O=c1c(-c2ccc(F)cc2)c(-c2cc[nH]/c(=N\Cc3ccccc3)n2)n2n1CC2 (cis-trans isomerization)
O=c1c(-c2ccc(F)cc2)c(-c2cc[nH]/c(=N\Cc3ccccc3)n2)n2n1CC2 (3D coordinates assigned)
O=c1c(-c2ccc(F)cc2)c(-c2cc[nH]/c(=N\Cc3ccccc3)n2)n2n1CC2 (nonaromatic ring conformer: 212.2953389276018 kcal/mol)

>  <smiles>  (22) 
O=c1c(-c2ccc(F)cc2)c(-c2cc[nH]c(=NCc3ccccc3)n2)n2n1CC2

>  <score_type>  (22) 
oracle

>  <origin>  (22) 
adg

>  <m_score__min__energy>  (22) 
-9.3699999999999992

>  <m_primary>  (22) 
energy

$$$$
22:0
     RDKit          3D

 54 56  0  0  0  0  0  0  0  0999 V2000
   -1.6857   22.6475  -28.6736 H   0  0  0  0  0  0  0  0  0  0  0  0
   -1.8910   23.1190  -29.6460 C   0  0  0  0  0  0  0  0  0  0  0  0
   -2.3600   24.5230  -29.6240 C   0  0  0  0  0  0  0  0  0  0  0  0
   -1.7180   25.3600  -28.9370 O   0  0  0  0  0  0  0  0  0  0  0  0
   -3.4980   24.9470  -30.3760 N   0  0  0  0  0  0  0  0  0  0  0  0
   -4.8560   24.5980  -30.0050 C   0  0  0  0  0  0  0  0  0  0  0  0
   -5.2044   25.2833  -29.2183 H   0  0  0  0  0  0  0  0  0  0  0  0
   -4.8704   23.5616  -29.6366 H   0  0  0  0  0  0  0  0  0  0  0  0
   -5.7890   24.7080  -31.2230 C   0  0  0  0  0  0  0  0  0  0  0  0
   -5.2037   24.5132  -32.1338 H   0  0  0  0  0  0  0  0  0  0  0  0
   -6.2167   25.7214  -31.2243 H   0  0  0  0  0  0  0  0  0  0  0  0
   -6.9090   23.7510  -31.1680 N   0  0  0  0  0  0  0  0  0  0  0  0
   -6.8600   22.9530  -29.9280 C   0  0  0  0  0  0  0  0  0  0  0  0
   -6.9012   23.6247  -29.0578 H   0  0  0  0  0  0  0  0  0  0  0  0
   -7.7176   22.2646  -29.9008 H   0  0  0  0  0  0  0  0  0  0  0  0
   -5.9247   22.3747  -29.9008 H   0  0  0  0  0  0  0  0  0  0  0  0
   -6.8230   22.8440  -32.3230 C   0  0  0  0  0  0  0  0  0  0  0  0
   -6.7247   21.8073  -31.9686 H   0  0  0  0  0  0  0  0  0  0  0  0
   -7.7341   22.9385  -32.9320 H   0  0  0  0  0  0  0  0  0  0  0  0
   -5.9459   23.1080  -32.9320 H   0  0  0  0  0  0  0  0  0  0  0  0
   -1.6920   22.3650  -30.7420 C   0  0  0  0  0  0  0  0  0  0  0  0
   -0.7304   22.4618  -31.2674 H   0  0  0  0  0  0  0  0  0  0  0  0
   -2.6840   21.4160  -31.2830 C   0  0  0  0  0  0  0  0  0  0  0  0
   -3.9890   21.4150  -30.7780 C   0  0  0  0  0  0  0  0  0  0  0  0
   -4.2865   22.1551  -30.0205 H   0  0  0  0  0  0  0  0  0  0  0  0
   -4.8890   20.4990  -31.2240 N   0  0  0  0  0  0  0  0  0  0  0  0
   -4.5820   19.5810  -32.1840 C   0  0  0  0  0  0  0  0  0  0  0  0
   -5.5770   18.6250  -32.5900 N   0  0  0  0  0  0  0  0  0  0  0  0
   -6.7400   18.2530  -31.7930 C   0  0  0  0  0  0  0  0  0  0  0  0
   -6.4311   17.6759  -30.9090 H   0  0  0  0  0  0  0  0  0  0  0  0
   -7.2821   19.1372  -31.4264 H   0  0  0  0  0  0  0  0  0  0  0  0
   -7.6070   17.4000  -32.7080 C   0  0  0  0  0  0  0  0  0  0  0  0
   -8.0070   16.5347  -32.1592 H   0  0  0  0  0  0  0  0  0  0  0  0
   -8.4680   17.9662  -33.0929 H   0  0  0  0  0  0  0  0  0  0  0  0
   -6.6930   16.9370  -33.8340 C   0  0  0  0  0  0  0  0  0  0  0  0
   -6.3015   15.9310  -33.6225 H   0  0  0  0  0  0  0  0  0  0  0  0
   -7.2260   16.8777  -34.7944 H   0  0  0  0  0  0  0  0  0  0  0  0
   -5.5530   17.9560  -33.8790 C   0  0  0  0  0  0  0  0  0  0  0  0
   -4.5892   17.4477  -34.0301 H   0  0  0  0  0  0  0  0  0  0  0  0
   -5.6748   18.6671  -34.7093 H   0  0  0  0  0  0  0  0  0  0  0  0
   -3.2940   19.5870  -32.7500 C   0  0  0  0  0  0  0  0  0  0  0  0
   -3.0314   18.8571  -33.5299 H   0  0  0  0  0  0  0  0  0  0  0  0
   -2.3480   20.5230  -32.3190 C   0  0  0  0  0  0  0  0  0  0  0  0
   -1.0280   20.5790  -32.9820 C   0  0  0  0  0  0  0  0  0  0  0  0
   -0.9010   21.2960  -34.1780 C   0  0  0  0  0  0  0  0  0  0  0  0
   -1.7796   21.7987  -34.6086 H   0  0  0  0  0  0  0  0  0  0  0  0
    0.3310   21.3780  -34.8280 C   0  0  0  0  0  0  0  0  0  0  0  0
    0.4188   21.9436  -35.7674 H   0  0  0  0  0  0  0  0  0  0  0  0
    1.4480   20.7470  -34.2920 C   0  0  0  0  0  0  0  0  0  0  0  0
    2.9930   20.8490  -35.1130 Cl  0  0  0  0  0  0  0  0  0  0  0  0
    1.3310   20.0270  -33.1040 C   0  0  0  0  0  0  0  0  0  0  0  0
    2.2144   19.5283  -32.6787 H   0  0  0  0  0  0  0  0  0  0  0  0
    0.0990   19.9340  -32.4490 C   0  0  0  0  0  0  0  0  0  0  0  0
    0.0070   19.0240  -30.9650 Cl  0  0  0  0  0  0  0  0  0  0  0  0
  1  2  1  0
  2  3  1  0
  3  4  2  0
  3  5  1  0
  5  6  1  0
  6  7  1  0
  6  8  1  0
  6  9  1  0
  9 10  1  0
  9 11  1  0
  9 12  1  0
 12 13  1  0
 13 14  1  0
 13 15  1  0
 13 16  1  0
 12 17  1  0
 17 18  1  0
 17 19  1  0
 17 20  1  0
  2 21  2  0
 21 22  1  0
 21 23  1  0
 23 24  2  0
 24 25  1  0
 24 26  1  0
 26 27  2  0
 27 28  1  0
 28 29  1  0
 29 30  1  0
 29 31  1  0
 29 32  1  0
 32 33  1  0
 32 34  1  0
 32 35  1  0
 35 36  1  0
 35 37  1  0
 35 38  1  0
 38 39  1  0
 38 40  1  0
 27 41  1  0
 41 42  1  0
 41 43  2  0
 43 44  1  0
 44 45  2  0
 45 46  1  0
 45 47  1  0
 47 48  1  0
 47 49  2  0
 49 50  1  0
 49 51  1  0
 51 52  1  0
 51 53  2  0
 53 54  1  0
 43 23  1  0
 53 44  1  0
 38 28  1  0
M  CHG  1   5  -1
M  END
>  <UniqueID>  (23) 
21

>  <SMILES>  (23) 
CN(C)CC[N-]C(=O)/C=C\c1cnc(N2CCCC2)cc1-c1ccc(Cl)cc1Cl

>  <Energy>  (23) 
68.57156296059865

>  <Genealogy>  (23) 
CN(C)CC[N-]C(=O)C=Cc1cnc(N2CCCC2)cc1-c1ccc(Cl)cc1Cl (protonated)
CN(C)CC[N-]C(=O)/C=C\c1cnc(N2CCCC2)cc1-c1ccc(Cl)cc1Cl (cis-trans isomerization)
CN(C)CC[N-]C(=O)/C=C\c1cnc(N2CCCC2)cc1-c1ccc(Cl)cc1Cl (3D coordinates assigned)
CN(C)CC[N-]C(=O)/C=C\c1cnc(N2CCCC2)cc1-c1ccc(Cl)cc1Cl (nonaromatic ring conformer: 68.57156296059865 kcal/mol)

>  <smiles>  (23) 
CN(C)CCNC(=O)C=Cc1cnc(N2CCCC2)cc1-c1ccc(Cl)cc1Cl

>  <score_type>  (23) 
oracle

>  <origin>  (23) 
adg

>  <m_score__min__energy>  (23) 
-11.17

>  <m_primary>  (23) 
energy

$$$$
23:0
     RDKit          3D

 46 47  0  0  0  0  0  0  0  0999 V2000
   -9.4510   21.4570  -31.9740 C   0  0  0  0  0  0  0  0  0  0  0  0
   -8.4560   22.2570  -31.1310 C   0  0  0  0  0  0  0  0  0  0  0  0
   -7.7630   23.3590  -31.9470 C   0  0  0  0  0  0  0  0  0  0  0  0
   -6.3280   23.4650  -31.5910 N   0  0  0  0  0  0  0  0  0  0  0  0
   -5.7260   22.1270  -31.3500 C   0  0  0  0  0  0  0  0  0  0  0  0
   -5.2620   21.4990  -32.6730 C   0  0  0  0  0  0  0  0  0  0  0  0
   -6.1290   20.3160  -33.1010 C   0  0  0  0  0  0  0  0  0  0  0  0
   -6.1290   24.3740  -30.4330 C   0  0  0  0  0  0  0  0  0  0  0  0
   -5.2470   25.5650  -30.8310 C   0  0  0  0  0  0  0  0  0  0  0  0
   -3.8930   25.2890  -30.4680 O   0  0  0  0  0  0  0  0  0  0  0  0
   -3.4400   24.1010  -29.8750 C   0  0  0  0  0  0  0  0  0  0  0  0
   -3.6620   23.9250  -28.5070 C   0  0  0  0  0  0  0  0  0  0  0  0
   -3.2900   22.7360  -27.8730 C   0  0  0  0  0  0  0  0  0  0  0  0
   -2.6650   21.7060  -28.5950 C   0  0  0  0  0  0  0  0  0  0  0  0
   -2.3000   20.4370  -27.9190 C   0  0  0  0  0  0  0  0  0  0  0  0
   -3.0830   19.7200  -27.0140 C   0  0  0  0  0  0  0  0  0  0  0  0
   -2.4610   18.5600  -26.5330 C   0  0  0  0  0  0  0  0  0  0  0  0
   -1.1910   18.3470  -27.0530 C   0  0  0  0  0  0  0  0  0  0  0  0
   -0.8450   19.6080  -28.1080 S   0  0  0  0  0  0  0  0  0  0  0  0
   -2.4070   21.8990  -29.9620 C   0  0  0  0  0  0  0  0  0  0  0  0
   -2.7820   23.0880  -30.5950 C   0  0  0  0  0  0  0  0  0  0  0  0
  -10.1348   20.9072  -31.3106 H   0  0  0  0  0  0  0  0  0  0  0  0
  -10.0296   22.1443  -32.6088 H   0  0  0  0  0  0  0  0  0  0  0  0
   -8.9040   20.7443  -32.6088 H   0  0  0  0  0  0  0  0  0  0  0  0
   -8.9949   22.7222  -30.2924 H   0  0  0  0  0  0  0  0  0  0  0  0
   -7.6815   21.5634  -30.7717 H   0  0  0  0  0  0  0  0  0  0  0  0
   -7.8509   23.1222  -33.0176 H   0  0  0  0  0  0  0  0  0  0  0  0
   -8.2504   24.3190  -31.7218 H   0  0  0  0  0  0  0  0  0  0  0  0
   -4.8619   22.2347  -30.6778 H   0  0  0  0  0  0  0  0  0  0  0  0
   -6.4835   21.4735  -30.8926 H   0  0  0  0  0  0  0  0  0  0  0  0
   -5.3013   22.2668  -33.4597 H   0  0  0  0  0  0  0  0  0  0  0  0
   -4.2393   21.1234  -32.5215 H   0  0  0  0  0  0  0  0  0  0  0  0
   -6.5088   19.7978  -32.2081 H   0  0  0  0  0  0  0  0  0  0  0  0
   -6.9756   20.6802  -33.7015 H   0  0  0  0  0  0  0  0  0  0  0  0
   -5.5268   19.6183  -33.7015 H   0  0  0  0  0  0  0  0  0  0  0  0
   -7.1066   24.7454  -30.0920 H   0  0  0  0  0  0  0  0  0  0  0  0
   -5.6322   23.8174  -29.6247 H   0  0  0  0  0  0  0  0  0  0  0  0
   -5.3115   25.7237  -31.9176 H   0  0  0  0  0  0  0  0  0  0  0  0
   -5.5919   26.4705  -30.3104 H   0  0  0  0  0  0  0  0  0  0  0  0
   -4.1338   24.7293  -27.9235 H   0  0  0  0  0  0  0  0  0  0  0  0
   -3.4885   22.6058  -26.7989 H   0  0  0  0  0  0  0  0  0  0  0  0
   -4.0914   20.0348  -26.7075 H   0  0  0  0  0  0  0  0  0  0  0  0
   -2.9353   17.8804  -25.8097 H   0  0  0  0  0  0  0  0  0  0  0  0
   -0.5283   17.5016  -26.8159 H   0  0  0  0  0  0  0  0  0  0  0  0
   -1.9058   21.1082  -30.5394 H   0  0  0  0  0  0  0  0  0  0  0  0
   -2.5609   23.2319  -31.6629 H   0  0  0  0  0  0  0  0  0  0  0  0
  1  2  1  0
  2  3  1  0
  3  4  1  0
  4  5  1  0
  5  6  1  0
  6  7  1  0
  4  8  1  0
  8  9  1  0
  9 10  1  0
 10 11  1  0
 11 12  2  0
 12 13  1  0
 13 14  2  0
 14 15  1  0
 15 16  2  0
 16 17  1  0
 17 18  2  0
 18 19  1  0
 14 20  1  0
 20 21  2  0
 21 11  1  0
 19 15  1  0
  1 22  1  0
  1 23  1  0
  1 24  1  0
  2 25  1  0
  2 26  1  0
  3 27  1  0
  3 28  1  0
  5 29  1  0
  5 30  1  0
  6 31  1  0
  6 32  1  0
  7 33  1  0
  7 34  1  0
  7 35  1  0
  8 36  1  0
  8 37  1  0
  9 38  1  0
  9 39  1  0
 12 40  1  0
 13 41  1  0
 16 42  1  0
 17 43  1  0
 18 44  1  0
 20 45  1  0
 21 46  1  0
M  END
>  <UniqueID>  (24) 
22

>  <SMILES>  (24) 
CCCN(CCC)CCOc1ccc(-c2cccs2)cc1

>  <Energy>  (24) 
69.11407268797143

>  <Genealogy>  (24) 
CCCN(CCC)CCOc1ccc(-c2cccs2)cc1 (3D coordinates assigned)
CCCN(CCC)CCOc1ccc(-c2cccs2)cc1 (optimized conformer: 69.11407268797143 kcal/mol)

>  <smiles>  (24) 
CCCN(CCC)CCOc1ccc(-c2cccs2)cc1

>  <score_type>  (24) 
oracle

>  <origin>  (24) 
adg

>  <m_score__min__energy>  (24) 
-7.4500000000000002

>  <m_primary>  (24) 
energy

$$$$
24:0
     RDKit          3D

 31 33  0  0  0  0  0  0  0  0999 V2000
   -1.7470   20.4570  -29.2260 C   0  0  0  0  0  0  0  0  0  0  0  0
   -3.0540   21.1840  -29.5620 C   0  0  0  0  0  0  0  0  0  0  0  0
   -3.4990   22.0340  -28.3630 C   0  0  0  0  0  0  0  0  0  0  0  0
   -3.0170   22.0400  -30.8620 C   0  0  1  0  0  0  0  0  0  0  0  0
   -3.2730   21.2740  -32.0830 N   0  0  0  0  0  0  0  0  0  0  0  0
   -4.5420   20.9660  -32.6810 C   0  0  0  0  0  0  0  0  0  0  0  0
   -4.5390   20.3730  -33.7950 O   0  0  0  0  0  0  0  0  0  0  0  0
   -5.8510   21.2480  -32.0450 C   0  0  0  0  0  0  0  0  0  0  0  0
   -6.8920   20.3230  -32.2470 C   0  0  0  0  0  0  0  0  0  0  0  0
   -8.1630   20.5540  -31.7250 C   0  0  0  0  0  0  0  0  0  0  0  0
   -8.3990   21.7220  -31.0090 C   0  0  0  0  0  0  0  0  0  0  0  0
   -7.3940   22.6140  -30.8220 N   0  0  0  0  0  0  0  0  0  0  0  0
   -6.1340   22.4210  -31.3060 C   0  0  0  0  0  0  0  0  0  0  0  0
   -5.1430   23.4290  -31.0450 N   0  0  0  0  0  0  0  0  0  0  0  0
   -3.8210   23.3060  -30.8060 C   0  0  0  0  0  0  0  0  0  0  0  0
   -3.2740   24.4920  -30.4600 N   0  0  0  0  0  0  0  0  0  0  0  0
   -4.2430   25.3940  -30.4700 N   0  0  0  0  0  0  0  0  0  0  0  0
   -5.3620   24.7390  -30.8150 C   0  0  0  0  0  0  0  0  0  0  0  0
   -6.4870   25.2980  -30.9110 O   0  0  0  0  0  0  0  0  0  0  0  0
   -1.6330   20.3936  -28.1338 H   0  0  0  0  0  0  0  0  0  0  0  0
   -1.7716   19.4430  -29.6516 H   0  0  0  0  0  0  0  0  0  0  0  0
   -0.8984   21.0127  -29.6516 H   0  0  0  0  0  0  0  0  0  0  0  0
   -3.7908   20.3939  -29.7693 H   0  0  0  0  0  0  0  0  0  0  0  0
   -3.2297   21.5196  -27.4287 H   0  0  0  0  0  0  0  0  0  0  0  0
   -2.9973   23.0122  -28.4007 H   0  0  0  0  0  0  0  0  0  0  0  0
   -4.5887   22.1791  -28.4007 H   0  0  0  0  0  0  0  0  0  0  0  0
   -1.9684   22.3677  -30.9166 H   0  0  0  0  0  0  0  0  0  0  0  0
   -2.4280   20.9550  -32.6090 H   0  0  0  0  0  0  0  0  0  0  0  0
   -6.7000   19.4064  -32.8240 H   0  0  0  0  0  0  0  0  0  0  0  0
   -8.9694   19.8215  -31.8775 H   0  0  0  0  0  0  0  0  0  0  0  0
   -9.3982   21.9225  -30.5950 H   0  0  0  0  0  0  0  0  0  0  0  0
  1  2  1  0
  2  3  1  0
  2  4  1  0
  4  5  1  0
  5  6  1  0
  6  7  2  0
  6  8  1  0
  8  9  2  0
  9 10  1  0
 10 11  2  0
 11 12  1  0
 12 13  2  0
 13 14  1  0
 14 15  1  0
 15 16  2  0
 16 17  1  0
 17 18  1  0
 18 19  2  0
 15  4  1  0
 13  8  1  0
 18 14  1  0
  1 20  1  0
  1 21  1  0
  1 22  1  0
  2 23  1  0
  3 24  1  0
  3 25  1  0
  3 26  1  0
  4 27  1  6
  5 28  1  0
  9 29  1  0
 10 30  1  0
 11 31  1  0
M  CHG  1  17  -1
M  END
>  <UniqueID>  (25) 
23

>  <SMILES>  (25) 
CC(C)[C@H]1NC(=O)c2cccnc2-n2c1n[n-]c2=O

>  <Energy>  (25) 
81.04893795150326

>  <Genealogy>  (25) 
CC(C)C1NC(=O)c2cccnc2-n2c1n[n-]c2=O (protonated)
CC(C)[C@H]1NC(=O)c2cccnc2-n2c1n[n-]c2=O (chirality)
CC(C)[C@H]1NC(=O)c2cccnc2-n2c1n[n-]c2=O (3D coordinates assigned)
CC(C)[C@H]1NC(=O)c2cccnc2-n2c1n[n-]c2=O (nonaromatic ring conformer: 81.04893795150326 kcal/mol)

>  <smiles>  (25) 
CC(C)C1NC(=O)c2cccnc2-n2c1n[nH]c2=O

>  <score_type>  (25) 
oracle

>  <origin>  (25) 
adg

>  <m_score__min__energy>  (25) 
-7.75

>  <m_primary>  (25) 
energy

$$$$
25:0
     RDKit          3D

 55 58  0  0  0  0  0  0  0  0999 V2000
   -6.0740   18.6140  -35.3000 O   0  0  0  0  0  0  0  0  0  0  0  0
   -5.5150   18.1510  -34.2680 C   0  0  0  0  0  0  0  0  0  0  0  0
   -4.0390   18.2000  -34.2200 C   0  0  0  0  0  0  0  0  0  0  0  0
   -3.4140   19.3150  -33.6390 C   0  0  0  0  0  0  0  0  0  0  0  0
   -2.0170   19.4050  -33.5960 C   0  0  0  0  0  0  0  0  0  0  0  0
   -1.2470   20.8180  -32.8700 S   0  0  0  0  0  0  0  0  0  0  0  0
   -2.2630   21.9190  -32.7550 O   0  0  0  0  0  0  0  0  0  0  0  0
   -0.7810   20.4690  -31.4830 O   0  0  0  0  0  0  0  0  0  0  0  0
    0.1150   21.3810  -33.8070 N   0  0  0  0  0  0  0  0  0  0  0  0
   -0.2220   21.4270  -35.2400 C   0  0  0  0  0  0  0  0  0  0  0  0
    0.9860   21.9480  -36.0480 C   0  0  0  0  0  0  0  0  0  0  0  0
    2.1590   22.0540  -35.2580 O   0  0  0  0  0  0  0  0  0  0  0  0
    2.4040   20.8270  -34.5950 C   0  0  0  0  0  0  0  0  0  0  0  0
    1.2850   20.5130  -33.5800 C   0  0  0  0  0  0  0  0  0  0  0  0
   -1.2400   18.3580  -34.1120 C   0  0  0  0  0  0  0  0  0  0  0  0
   -1.8580   17.2270  -34.6550 C   0  0  0  0  0  0  0  0  0  0  0  0
   -3.2520   17.1410  -34.7030 C   0  0  0  0  0  0  0  0  0  0  0  0
   -3.8310   16.0160  -35.1930 F   0  0  0  0  0  0  0  0  0  0  0  0
   -6.3310   17.6360  -33.1710 N   0  0  0  0  0  0  0  0  0  0  0  0
   -5.6690   17.8080  -31.8620 C   0  0  0  0  0  0  0  0  0  0  0  0
   -5.4450   19.2890  -31.5210 C   0  0  0  0  0  0  0  0  0  0  0  0
   -6.5800   20.1510  -31.8910 N   0  0  0  0  0  0  0  0  0  0  0  0
   -6.5230   21.5440  -31.5290 C   0  0  0  0  0  0  0  0  0  0  0  0
   -7.6460   22.3690  -31.7120 C   0  0  0  0  0  0  0  0  0  0  0  0
   -7.5830   23.7290  -31.3900 C   0  0  0  0  0  0  0  0  0  0  0  0
   -6.3980   24.2760  -30.8880 C   0  0  0  0  0  0  0  0  0  0  0  0
   -5.2740   23.4640  -30.7050 C   0  0  0  0  0  0  0  0  0  0  0  0
   -3.7800   24.1570  -30.0980 Cl  0  0  0  0  0  0  0  0  0  0  0  0
   -5.3340   22.1040  -31.0260 C   0  0  0  0  0  0  0  0  0  0  0  0
   -7.6700   19.7300  -32.7870 C   0  0  0  0  0  0  0  0  0  0  0  0
   -7.6850   18.2220  -33.0780 C   0  0  0  0  0  0  0  0  0  0  0  0
   -4.0263   20.1241  -33.2143 H   0  0  0  0  0  0  0  0  0  0  0  0
   -0.4832   20.4160  -35.5858 H   0  0  0  0  0  0  0  0  0  0  0  0
   -1.0763   22.1037  -35.3893 H   0  0  0  0  0  0  0  0  0  0  0  0
    1.1811   21.2541  -36.8789 H   0  0  0  0  0  0  0  0  0  0  0  0
    0.7359   22.9547  -36.4142 H   0  0  0  0  0  0  0  0  0  0  0  0
    2.4510   20.0189  -35.3399 H   0  0  0  0  0  0  0  0  0  0  0  0
    3.3572   20.9068  -34.0518 H   0  0  0  0  0  0  0  0  0  0  0  0
    0.9813   19.4616  -33.6915 H   0  0  0  0  0  0  0  0  0  0  0  0
    1.6679   20.6948  -32.5649 H   0  0  0  0  0  0  0  0  0  0  0  0
   -0.1424   18.4263  -34.0897 H   0  0  0  0  0  0  0  0  0  0  0  0
   -1.2444   16.4019  -35.0458 H   0  0  0  0  0  0  0  0  0  0  0  0
   -6.4450   16.6070  -33.3330 H   0  0  0  0  0  0  0  0  0  0  0  0
   -6.2999   17.3556  -31.0827 H   0  0  0  0  0  0  0  0  0  0  0  0
   -4.6854   17.3181  -31.9115 H   0  0  0  0  0  0  0  0  0  0  0  0
   -5.2793   19.3763  -30.4371 H   0  0  0  0  0  0  0  0  0  0  0  0
   -4.5753   19.6288  -32.1025 H   0  0  0  0  0  0  0  0  0  0  0  0
   -8.5789   21.9434  -32.1103 H   0  0  0  0  0  0  0  0  0  0  0  0
   -8.4665   24.3687  -31.5319 H   0  0  0  0  0  0  0  0  0  0  0  0
   -6.3498   25.3459  -30.6368 H   0  0  0  0  0  0  0  0  0  0  0  0
   -4.4471   21.4688  -30.8845 H   0  0  0  0  0  0  0  0  0  0  0  0
   -8.6279   20.0027  -32.3200 H   0  0  0  0  0  0  0  0  0  0  0  0
   -7.5101   20.2404  -33.7482 H   0  0  0  0  0  0  0  0  0  0  0  0
   -8.2312   17.7147  -32.2691 H   0  0  0  0  0  0  0  0  0  0  0  0
   -8.1712   18.0812  -34.0546 H   0  0  0  0  0  0  0  0  0  0  0  0
  1  2  2  0
  2  3  1  0
  3  4  2  0
  4  5  1  0
  5  6  1  0
  6  7  2  0
  6  8  2  0
  6  9  1  0
  9 10  1  0
 10 11  1  0
 11 12  1  0
 12 13  1  0
 13 14  1  0
  5 15  2  0
 15 16  1  0
 16 17  2  0
 17 18  1  0
  2 19  1  0
 19 20  1  0
 20 21  1  0
 21 22  1  0
 22 23  1  0
 23 24  2  0
 24 25  1  0
 25 26  2  0
 26 27  1  0
 27 28  1  0
 27 29  2  0
 22 30  1  0
 30 31  1  0
 17  3  1  0
 31 19  1  0
 14  9  1  0
 29 23  1  0
  4 32  1  0
 10 33  1  0
 10 34  1  0
 11 35  1  0
 11 36  1  0
 13 37  1  0
 13 38  1  0
 14 39  1  0
 14 40  1  0
 15 41  1  0
 16 42  1  0
 19 43  1  0
 20 44  1  0
 20 45  1  0
 21 46  1  0
 21 47  1  0
 24 48  1  0
 25 49  1  0
 26 50  1  0
 29 51  1  0
 30 52  1  0
 30 53  1  0
 31 54  1  0
 31 55  1  0
M  CHG  1  19   1
M  END
>  <UniqueID>  (26) 
24

>  <SMILES>  (26) 
O=C(c1cc(S(=O)(=O)N2CCOCC2)ccc1F)[NH+]1CCN(c2cccc(Cl)c2)CC1

>  <Energy>  (26) 
79.86843686845012

>  <Genealogy>  (26) 
O=C(c1cc(S(=O)(=O)N2CCOCC2)ccc1F)[NH+]1CCN(c2cccc(Cl)c2)CC1 (protonated)
O=C(c1cc(S(=O)(=O)N2CCOCC2)ccc1F)[NH+]1CCN(c2cccc(Cl)c2)CC1 (3D coordinates assigned)
O=C(c1cc(S(=O)(=O)N2CCOCC2)ccc1F)[NH+]1CCN(c2cccc(Cl)c2)CC1 (nonaromatic ring conformer: 79.86843686845012 kcal/mol)

>  <smiles>  (26) 
O=C(c1cc(S(=O)(=O)N2CCOCC2)ccc1F)N1CCN(c2cccc(Cl)c2)CC1

>  <score_type>  (26) 
oracle

>  <origin>  (26) 
adg

>  <m_score__min__energy>  (26) 
-9.5999999999999996

>  <m_primary>  (26) 
energy

$$$$
26:0
     RDKit          3D

 49 52  0  0  1  0  0  0  0  0999 V2000
   -6.1200   19.2550  -34.6400 N   0  0  0  0  0  0  0  0  0  0  0  0
   -5.8050   18.7340  -33.3100 C   0  0  0  0  0  0  0  0  0  0  0  0
   -5.7930   19.8080  -32.2470 C   0  0  1  0  0  0  0  0  0  0  0  0
   -5.1710   21.0260  -32.7130 N   0  0  0  0  0  0  0  0  0  0  0  0
   -4.7990   21.9640  -31.9240 C   0  0  0  0  0  0  0  0  0  0  0  0
   -5.5090   23.1200  -31.9410 N   0  0  0  0  0  0  0  0  0  0  0  0
   -5.1560   24.1510  -31.1200 C   0  0  0  0  0  0  0  0  0  0  0  0
   -4.0860   24.0140  -30.2840 N   0  0  0  0  0  0  0  0  0  0  0  0
   -3.3820   22.8640  -30.2710 C   0  0  0  0  0  0  0  0  0  0  0  0
   -3.7290   21.8150  -31.0940 C   0  0  0  0  0  0  0  0  0  0  0  0
   -2.8480   20.8460  -30.8390 N   0  0  0  0  0  0  0  0  0  0  0  0
   -1.9720   21.2060  -29.9160 C   0  0  0  0  0  0  0  0  0  0  0  0
   -2.2940   22.4680  -29.5500 N   0  0  0  0  0  0  0  0  0  0  0  0
   -1.5630   23.2060  -28.5580 C   0  0  2  0  0  0  0  0  0  0  0  0
   -2.2970   23.5140  -27.4390 O   0  0  0  0  0  0  0  0  0  0  0  0
   -1.4070   24.2870  -26.6960 C   0  0  2  0  0  0  0  0  0  0  0  0
   -2.0840   25.1870  -25.7050 C   0  0  0  0  0  0  0  0  0  0  0  0
   -3.3370   25.6130  -26.0870 O   0  0  0  0  0  0  0  0  0  0  0  0
   -0.6430   25.1370  -27.6760 C   0  0  1  0  0  0  0  0  0  0  0  0
    0.7100   24.7880  -27.5920 O   0  0  0  0  0  0  0  0  0  0  0  0
   -1.1530   24.5910  -29.0150 C   0  0  2  0  0  0  0  0  0  0  0  0
   -2.2940   25.2940  -29.3460 O   0  0  0  0  0  0  0  0  0  0  0  0
   -7.2550   20.2360  -32.1080 C   0  0  0  0  0  0  0  0  0  0  0  0
   -7.6390   21.2040  -31.2210 C   0  0  0  0  0  0  0  0  0  0  0  0
   -8.9810   21.5560  -31.1390 C   0  0  0  0  0  0  0  0  0  0  0  0
   -9.8600   20.8860  -31.9800 C   0  0  0  0  0  0  0  0  0  0  0  0
   -9.4470   19.9210  -32.8570 C   0  0  0  0  0  0  0  0  0  0  0  0
   -8.1560   19.6070  -32.9120 N   0  0  0  0  0  0  0  0  0  0  0  0
   -5.6970   20.1970  -34.7870 H   0  0  0  0  0  0  0  0  0  0  0  0
   -7.1360   19.2300  -34.8360 H   0  0  0  0  0  0  0  0  0  0  0  0
   -6.5599   17.9809  -33.0399 H   0  0  0  0  0  0  0  0  0  0  0  0
   -4.7945   18.3018  -33.3549 H   0  0  0  0  0  0  0  0  0  0  0  0
   -5.2841   19.4147  -31.3546 H   0  0  0  0  0  0  0  0  0  0  0  0
   -6.3320   23.2580  -32.5670 H   0  0  0  0  0  0  0  0  0  0  0  0
   -5.7313   25.0885  -31.1319 H   0  0  0  0  0  0  0  0  0  0  0  0
   -1.1437   20.5983  -29.5228 H   0  0  0  0  0  0  0  0  0  0  0  0
   -0.7209   22.5253  -28.3646 H   0  0  0  0  0  0  0  0  0  0  0  0
   -0.7614   23.6112  -26.1158 H   0  0  0  0  0  0  0  0  0  0  0  0
   -2.1809   24.6414  -24.7548 H   0  0  0  0  0  0  0  0  0  0  0  0
   -1.4583   26.0877  -25.6202 H   0  0  0  0  0  0  0  0  0  0  0  0
   -3.5690   25.3450  -27.0160 H   0  0  0  0  0  0  0  0  0  0  0  0
   -0.7601   26.2204  -27.5257 H   0  0  0  0  0  0  0  0  0  0  0  0
    1.2220   25.3800  -28.2150 H   0  0  0  0  0  0  0  0  0  0  0  0
   -0.4573   24.6355  -29.8659 H   0  0  0  0  0  0  0  0  0  0  0  0
   -3.0410   25.1200  -28.7210 H   0  0  0  0  0  0  0  0  0  0  0  0
   -6.8941   21.6982  -30.5799 H   0  0  0  0  0  0  0  0  0  0  0  0
   -9.3309   22.3299  -30.4400 H   0  0  0  0  0  0  0  0  0  0  0  0
  -10.9292   21.1411  -31.9393 H   0  0  0  0  0  0  0  0  0  0  0  0
  -10.1729   19.4116  -33.5079 H   0  0  0  0  0  0  0  0  0  0  0  0
  1  2  1  0
  2  3  1  0
  3  4  1  0
  4  5  2  0
  5  6  1  0
  6  7  1  0
  7  8  2  0
  8  9  1  0
  9 10  2  0
 10 11  1  0
 11 12  2  0
 12 13  1  0
 13 14  1  0
 14 15  1  0
 15 16  1  0
 16 17  1  0
 17 18  1  0
 16 19  1  0
 19 20  1  0
 19 21  1  0
 21 22  1  0
  3 23  1  0
 23 24  2  0
 24 25  1  0
 25 26  2  0
 26 27  1  0
 27 28  2  0
 10  5  1  0
 21 14  1  0
 28 23  1  0
 13  9  1  0
  1 29  1  0
  1 30  1  0
  2 31  1  0
  2 32  1  0
  3 33  1  1
  6 34  1  0
  7 35  1  0
 12 36  1  0
 14 37  1  1
 16 38  1  1
 17 39  1  0
 17 40  1  0
 18 41  1  0
 19 42  1  1
 20 43  1  0
 21 44  1  6
 22 45  1  0
 24 46  1  0
 25 47  1  0
 26 48  1  0
 27 49  1  0
M  END
>  <smiles>  (27) 
NCC(N=c1[nH]cnc2c1ncn2C1OC(CO)C(O)C1O)c1ccccn1

>  <score_type>  (27) 
oracle

>  <origin>  (27) 
adg

>  <m_score__min__energy>  (27) 
-7.5999999999999996

>  <m_primary>  (27) 
energy

$$$$
27:0
     RDKit          3D

 37 39  0  0  0  0  0  0  0  0999 V2000
   -1.3140   21.2530  -26.9360 C   0  0  0  0  0  0  0  0  0  0  0  0
   -2.7300   21.1110  -27.4870 C   0  0  0  0  0  0  0  0  0  0  0  0
   -3.2140   22.4150  -28.0650 C   0  0  0  0  0  0  0  0  0  0  0  0
   -3.1940   23.6020  -27.3510 C   0  0  0  0  0  0  0  0  0  0  0  0
   -3.6280   24.5980  -28.1410 N   0  0  0  0  0  0  0  0  0  0  0  0
   -3.8980   24.0100  -29.3210 C   0  0  0  0  0  0  0  0  0  0  0  0
   -4.3840   24.6540  -30.4510 C   0  0  0  0  0  0  0  0  0  0  0  0
   -4.6060   25.8940  -30.4540 O   0  0  0  0  0  0  0  0  0  0  0  0
   -4.6220   23.9130  -31.5600 N   0  0  0  0  0  0  0  0  0  0  0  0
   -4.3980   22.5650  -31.6050 C   0  0  0  0  0  0  0  0  0  0  0  0
   -4.7110   21.8150  -32.8850 C   0  0  0  0  0  0  0  0  0  0  0  0
   -5.9560   20.9700  -32.7780 C   0  0  0  0  0  0  0  0  0  0  0  0
   -7.1220   21.4950  -32.1960 C   0  0  0  0  0  0  0  0  0  0  0  0
   -8.2640   20.6980  -32.0640 C   0  0  0  0  0  0  0  0  0  0  0  0
   -8.2470   19.3710  -32.5050 C   0  0  0  0  0  0  0  0  0  0  0  0
   -9.3540   18.5990  -32.3750 F   0  0  0  0  0  0  0  0  0  0  0  0
   -7.0860   18.8380  -33.0730 C   0  0  0  0  0  0  0  0  0  0  0  0
   -5.9420   19.6320  -33.2060 C   0  0  0  0  0  0  0  0  0  0  0  0
   -3.8660   21.9100  -30.4520 C   0  0  0  0  0  0  0  0  0  0  0  0
   -3.5940   20.4240  -30.4610 C   0  0  0  0  0  0  0  0  0  0  0  0
   -3.6540   22.6810  -29.3300 N   0  0  0  0  0  0  0  0  0  0  0  0
   -1.3464   21.2498  -25.8365 H   0  0  0  0  0  0  0  0  0  0  0  0
   -0.6979   20.4121  -27.2872 H   0  0  0  0  0  0  0  0  0  0  0  0
   -0.8771   22.1995  -27.2872 H   0  0  0  0  0  0  0  0  0  0  0  0
   -2.7347   20.3437  -28.2752 H   0  0  0  0  0  0  0  0  0  0  0  0
   -3.4001   20.8204  -26.6645 H   0  0  0  0  0  0  0  0  0  0  0  0
   -2.8739   23.7114  -26.3043 H   0  0  0  0  0  0  0  0  0  0  0  0
   -3.7270   25.6060  -27.8870 H   0  0  0  0  0  0  0  0  0  0  0  0
   -4.8508   22.5457  -33.6953 H   0  0  0  0  0  0  0  0  0  0  0  0
   -3.8677   21.1381  -33.0868 H   0  0  0  0  0  0  0  0  0  0  0  0
   -7.1369   22.5367  -31.8428 H   0  0  0  0  0  0  0  0  0  0  0  0
   -9.1763   21.1155  -31.6129 H   0  0  0  0  0  0  0  0  0  0  0  0
   -7.0721   17.7929  -33.4158 H   0  0  0  0  0  0  0  0  0  0  0  0
   -5.0283   19.2072  -33.6472 H   0  0  0  0  0  0  0  0  0  0  0  0
   -3.5269   20.0573  -29.4261 H   0  0  0  0  0  0  0  0  0  0  0  0
   -4.4120   19.9047  -30.9817 H   0  0  0  0  0  0  0  0  0  0  0  0
   -2.6451   20.2281  -30.9817 H   0  0  0  0  0  0  0  0  0  0  0  0
  1  2  1  0
  2  3  1  0
  3  4  2  0
  4  5  1  0
  5  6  2  0
  6  7  1  0
  7  8  2  0
  7  9  1  0
  9 10  1  0
 10 11  1  0
 11 12  1  0
 12 13  2  0
 13 14  1  0
 14 15  2  0
 15 16  1  0
 15 17  1  0
 17 18  2  0
 10 19  2  0
 19 20  1  0
 19 21  1  0
 21  3  1  0
 21  6  1  0
 18 12  1  0
  1 22  1  0
  1 23  1  0
  1 24  1  0
  2 25  1  0
  2 26  1  0
  4 27  1  0
  5 28  1  0
 11 29  1  0
 11 30  1  0
 13 31  1  0
 14 32  1  0
 17 33  1  0
 18 34  1  0
 20 35  1  0
 20 36  1  0
 20 37  1  0
M  CHG  2   5   1   9  -1
M  END
>  <UniqueID>  (28) 
25

>  <SMILES>  (28) 
CCc1c[nH+]c2c(=O)[n-]c(Cc3ccc(F)cc3)c(C)n12

>  <Energy>  (28) 
81.47528874557383

>  <Genealogy>  (28) 
CCc1c[nH+]c2c(=O)[n-]c(Cc3ccc(F)cc3)c(C)n12 (protonated)
CCc1c[nH+]c2c(=O)[n-]c(Cc3ccc(F)cc3)c(C)n12 (3D coordinates assigned)
CCc1c[nH+]c2c(=O)[n-]c(Cc3ccc(F)cc3)c(C)n12 (optimized conformer: 81.47528874557383 kcal/mol)

>  <smiles>  (28) 
CCc1cnc2c(=O)[nH]c(Cc3ccc(F)cc3)c(C)n12

>  <score_type>  (28) 
oracle

>  <origin>  (28) 
adg

>  <m_score__min__energy>  (28) 
-7.3399999999999999

>  <m_primary>  (28) 
energy

$$$$
28:0
     RDKit          3D

 55 58  0  0  0  0  0  0  0  0999 V2000
   -0.3930   27.8740  -24.4240 C   0  0  0  0  0  0  0  0  0  0  0  0
   -0.3530   26.5440  -23.6820 C   0  0  0  0  0  0  0  0  0  0  0  0
   -0.6260   25.4390  -24.6000 N   0  0  0  0  0  0  0  0  0  0  0  0
    0.3070   24.3690  -24.9290 C   0  0  0  0  0  0  0  0  0  0  0  0
   -0.4270   23.4820  -25.9660 C   0  0  0  0  0  0  0  0  0  0  0  0
   -1.6810   24.1690  -26.2720 N   0  0  0  0  0  0  0  0  0  0  0  0
   -2.6100   23.7760  -27.3000 C   0  0  0  0  0  0  0  0  0  0  0  0
   -2.4220   22.5870  -28.0250 C   0  0  0  0  0  0  0  0  0  0  0  0
   -3.3440   22.2210  -29.0040 C   0  0  0  0  0  0  0  0  0  0  0  0
   -4.4630   23.0250  -29.2550 C   0  0  0  0  0  0  0  0  0  0  0  0
   -5.4180   22.6650  -30.2730 N   0  0  0  0  0  0  0  0  0  0  0  0
   -4.9770   22.2680  -31.6160 C   0  0  0  0  0  0  0  0  0  0  0  0
   -5.6860   20.9750  -32.0670 C   0  0  0  0  0  0  0  0  0  0  0  0
   -6.9240   20.7010  -31.3040 N   0  0  0  0  0  0  0  0  0  0  0  0
   -7.9430   19.5990  -32.1940 S   0  0  0  0  0  0  0  0  0  0  0  0
   -8.8430   20.3660  -33.1230 O   0  0  0  0  0  0  0  0  0  0  0  0
   -8.7970   18.8130  -31.2380 O   0  0  0  0  0  0  0  0  0  0  0  0
   -6.9430   18.4750  -33.1110 C   0  0  0  0  0  0  0  0  0  0  0  0
   -6.1940   18.9410  -34.2000 C   0  0  0  0  0  0  0  0  0  0  0  0
   -5.4150   18.0530  -34.9490 C   0  0  0  0  0  0  0  0  0  0  0  0
   -5.3850   16.6950  -34.6150 C   0  0  0  0  0  0  0  0  0  0  0  0
   -6.1360   16.2250  -33.5340 C   0  0  0  0  0  0  0  0  0  0  0  0
   -6.9150   17.1100  -32.7840 C   0  0  0  0  0  0  0  0  0  0  0  0
   -7.6610   21.9390  -31.0090 C   0  0  0  0  0  0  0  0  0  0  0  0
   -6.8590   22.7680  -30.0000 C   0  0  0  0  0  0  0  0  0  0  0  0
   -4.6210   24.2020  -28.5090 C   0  0  0  0  0  0  0  0  0  0  0  0
   -3.7100   24.5440  -27.5570 N   0  0  0  0  0  0  0  0  0  0  0  0
   -1.7660   25.2970  -25.4180 C   0  0  0  0  0  0  0  0  0  0  0  0
   -2.7660   26.0630  -25.3570 O   0  0  0  0  0  0  0  0  0  0  0  0
   -0.4178   28.6990  -23.6968 H   0  0  0  0  0  0  0  0  0  0  0  0
    0.5027   27.9687  -25.0555 H   0  0  0  0  0  0  0  0  0  0  0  0
   -1.2928   27.9147  -25.0555 H   0  0  0  0  0  0  0  0  0  0  0  0
    0.6435   26.4074  -23.2367 H   0  0  0  0  0  0  0  0  0  0  0  0
   -1.1213   26.5517  -22.8948 H   0  0  0  0  0  0  0  0  0  0  0  0
    1.2294   24.7832  -25.3622 H   0  0  0  0  0  0  0  0  0  0  0  0
    0.6003   23.7956  -24.0373 H   0  0  0  0  0  0  0  0  0  0  0  0
    0.1817   23.3753  -26.8760 H   0  0  0  0  0  0  0  0  0  0  0  0
   -0.6083   22.4707  -25.5731 H   0  0  0  0  0  0  0  0  0  0  0  0
   -1.5505   21.9476  -27.8206 H   0  0  0  0  0  0  0  0  0  0  0  0
   -3.1923   21.2973  -29.5817 H   0  0  0  0  0  0  0  0  0  0  0  0
   -5.2128   23.0746  -32.3258 H   0  0  0  0  0  0  0  0  0  0  0  0
   -3.8928   22.0842  -31.5904 H   0  0  0  0  0  0  0  0  0  0  0  0
   -5.9438   21.0693  -33.1322 H   0  0  0  0  0  0  0  0  0  0  0  0
   -4.9946   20.1389  -31.8857 H   0  0  0  0  0  0  0  0  0  0  0  0
   -6.2188   20.0080  -34.4664 H   0  0  0  0  0  0  0  0  0  0  0  0
   -4.8257   18.4227  -35.8011 H   0  0  0  0  0  0  0  0  0  0  0  0
   -4.7706   15.9972  -35.2029 H   0  0  0  0  0  0  0  0  0  0  0  0
   -6.1138   15.1566  -33.2732 H   0  0  0  0  0  0  0  0  0  0  0  0
   -7.5074   16.7365  -31.9358 H   0  0  0  0  0  0  0  0  0  0  0  0
   -7.7977   22.5165  -31.9352 H   0  0  0  0  0  0  0  0  0  0  0  0
   -8.6472   21.6934  -30.5882 H   0  0  0  0  0  0  0  0  0  0  0  0
   -7.1661   23.8217  -30.0729 H   0  0  0  0  0  0  0  0  0  0  0  0
   -7.0563   22.3826  -28.9888 H   0  0  0  0  0  0  0  0  0  0  0  0
   -5.4875   24.8537  -28.6945 H   0  0  0  0  0  0  0  0  0  0  0  0
   -3.8620   25.4330  -27.0320 H   0  0  0  0  0  0  0  0  0  0  0  0
  1  2  1  0
  2  3  1  0
  3  4  1  0
  4  5  1  0
  5  6  1  0
  6  7  1  0
  7  8  2  0
  8  9  1  0
  9 10  2  0
 10 11  1  0
 11 12  1  0
 12 13  1  0
 13 14  1  0
 14 15  1  0
 15 16  2  0
 15 17  2  0
 15 18  1  0
 18 19  2  0
 19 20  1  0
 20 21  2  0
 21 22  1  0
 22 23  2  0
 14 24  1  0
 24 25  1  0
 10 26  1  0
 26 27  2  0
  6 28  1  0
 28 29  2  0
 28  3  1  0
 27  7  1  0
 25 11  1  0
 23 18  1  0
  1 30  1  0
  1 31  1  0
  1 32  1  0
  2 33  1  0
  2 34  1  0
  4 35  1  0
  4 36  1  0
  5 37  1  0
  5 38  1  0
  8 39  1  0
  9 40  1  0
 12 41  1  0
 12 42  1  0
 13 43  1  0
 13 44  1  0
 19 45  1  0
 20 46  1  0
 21 47  1  0
 22 48  1  0
 23 49  1  0
 24 50  1  0
 24 51  1  0
 25 52  1  0
 25 53  1  0
 26 54  1  0
 27 55  1  0
M  CHG  1  27   1
M  END
>  <UniqueID>  (29) 
26

>  <SMILES>  (29) 
CCN1CCN(c2ccc(N3CCN(S(=O)(=O)c4ccccc4)CC3)c[nH+]2)C1=O

>  <Energy>  (29) 
77.55339641148072

>  <Genealogy>  (29) 
CCN1CCN(c2ccc(N3CCN(S(=O)(=O)c4ccccc4)CC3)c[nH+]2)C1=O (protonated)
CCN1CCN(c2ccc(N3CCN(S(=O)(=O)c4ccccc4)CC3)c[nH+]2)C1=O (3D coordinates assigned)
CCN1CCN(c2ccc(N3CCN(S(=O)(=O)c4ccccc4)CC3)c[nH+]2)C1=O (nonaromatic ring conformer: 77.55339641148072 kcal/mol)

>  <smiles>  (29) 
CCN1CCN(c2ccc(N3CCN(S(=O)(=O)c4ccccc4)CC3)cn2)C1=O

>  <score_type>  (29) 
oracle

>  <origin>  (29) 
adg

>  <m_score__min__energy>  (29) 
-8.6500000000000004

>  <m_primary>  (29) 
energy

$$$$
29:0
     RDKit          3D

 36 38  0  0  0  0  0  0  0  0999 V2000
   -2.6920   25.6680  -25.8290 C   0  0  0  0  0  0  0  0  0  0  0  0
   -3.0620   24.6690  -26.8710 C   0  0  0  0  0  0  0  0  0  0  0  0
   -4.1910   23.9360  -26.8490 N   0  0  0  0  0  0  0  0  0  0  0  0
   -4.1740   23.1970  -27.9480 N   0  0  0  0  0  0  0  0  0  0  0  0
   -3.0370   23.5130  -28.5960 C   0  0  0  0  0  0  0  0  0  0  0  0
   -2.6210   22.9200  -29.9050 C   0  0  0  0  0  0  0  0  0  0  0  0
   -3.4920   23.3990  -30.9790 N   0  0  0  0  0  0  0  0  0  0  0  0
   -4.8330   22.9150  -31.2030 C   0  0  0  0  0  0  0  0  0  0  0  0
   -5.0410   21.6330  -31.7500 C   0  0  0  0  0  0  0  0  0  0  0  0
   -6.3360   21.1650  -32.0370 C   0  0  0  0  0  0  0  0  0  0  0  0
   -6.5540   19.8500  -32.5920 N   0  0  0  0  0  0  0  0  0  0  0  0
   -7.3480   18.8740  -32.1020 C   0  0  0  0  0  0  0  0  0  0  0  0
   -7.2600   17.7770  -32.9310 C   0  0  0  0  0  0  0  0  0  0  0  0
   -6.3790   18.1560  -33.9220 C   0  0  0  0  0  0  0  0  0  0  0  0
   -5.9620   19.4150  -33.6960 N   0  0  0  0  0  0  0  0  0  0  0  0
   -7.4310   21.9980  -31.7660 C   0  0  0  0  0  0  0  0  0  0  0  0
   -7.2420   23.2670  -31.2210 C   0  0  0  0  0  0  0  0  0  0  0  0
   -5.9530   23.7390  -30.9270 C   0  0  0  0  0  0  0  0  0  0  0  0
   -5.8110   25.0600  -30.2710 C   0  0  0  0  0  0  0  0  0  0  0  0
   -5.7370   25.1630  -28.8470 N   0  0  0  0  0  0  0  0  0  0  0  0
   -5.7270   26.1050  -30.9700 O   0  0  0  0  0  0  0  0  0  0  0  0
   -2.3500   24.4180  -27.9440 O   0  0  0  0  0  0  0  0  0  0  0  0
   -2.8528   25.2338  -24.8312 H   0  0  0  0  0  0  0  0  0  0  0  0
   -1.6328   25.9419  -25.9433 H   0  0  0  0  0  0  0  0  0  0  0  0
   -3.3173   26.5658  -25.9433 H   0  0  0  0  0  0  0  0  0  0  0  0
   -1.5829   23.2120  -30.1221 H   0  0  0  0  0  0  0  0  0  0  0  0
   -2.6990   21.8245  -29.8426 H   0  0  0  0  0  0  0  0  0  0  0  0
   -3.1130   24.1540  -31.5940 H   0  0  0  0  0  0  0  0  0  0  0  0
   -4.1751   20.9867  -31.9562 H   0  0  0  0  0  0  0  0  0  0  0  0
   -7.9627   18.9432  -31.1924 H   0  0  0  0  0  0  0  0  0  0  0  0
   -7.7779   16.8123  -32.8257 H   0  0  0  0  0  0  0  0  0  0  0  0
   -6.0654   17.5258  -34.7673 H   0  0  0  0  0  0  0  0  0  0  0  0
   -8.4498   21.6463  -31.9858 H   0  0  0  0  0  0  0  0  0  0  0  0
   -8.1138   23.9066  -31.0188 H   0  0  0  0  0  0  0  0  0  0  0  0
   -5.8720   24.3280  -28.2380 H   0  0  0  0  0  0  0  0  0  0  0  0
   -5.5960   26.0950  -28.3960 H   0  0  0  0  0  0  0  0  0  0  0  0
  1  2  1  0
  2  3  2  0
  3  4  1  0
  4  5  2  0
  5  6  1  0
  6  7  1  0
  7  8  1  0
  8  9  2  0
  9 10  1  0
 10 11  1  0
 11 12  1  0
 12 13  2  0
 13 14  1  0
 14 15  2  0
 10 16  2  0
 16 17  1  0
 17 18  2  0
 18 19  1  0
 19 20  1  0
 19 21  2  0
  5 22  1  0
 22  2  1  0
 18  8  1  0
 15 11  1  0
  1 23  1  0
  1 24  1  0
  1 25  1  0
  6 26  1  0
  6 27  1  0
  7 28  1  0
  9 29  1  0
 12 30  1  0
 13 31  1  0
 14 32  1  0
 16 33  1  0
 17 34  1  0
 20 35  1  0
 20 36  1  0
M  END
>  <UniqueID>  (30) 
27

>  <SMILES>  (30) 
Cc1nnc(CNc2cc(-n3cccn3)ccc2C(N)=O)o1

>  <Energy>  (30) 
106.80544511524751

>  <Genealogy>  (30) 
Cc1nnc(CNc2cc(-n3cccn3)ccc2C(N)=O)o1 (3D coordinates assigned)
Cc1nnc(CNc2cc(-n3cccn3)ccc2C(N)=O)o1 (optimized conformer: 106.80544511524751 kcal/mol)

>  <smiles>  (30) 
Cc1nnc(CNc2cc(-n3cccn3)ccc2C(N)=O)o1

>  <score_type>  (30) 
oracle

>  <origin>  (30) 
adg

>  <m_score__min__energy>  (30) 
-8.7100000000000009

>  <m_primary>  (30) 
energy

$$$$
30:0
     RDKit          3D

 52 55  0  0  0  0  0  0  0  0999 V2000
   -5.5930   25.8060  -30.2380 H   0  0  0  0  0  0  0  0  0  0  0  0
   -5.9610   25.2980  -31.0340 O   0  0  0  0  0  0  0  0  0  0  0  0
   -5.3710   24.1430  -31.5680 C   0  0  0  0  0  0  0  0  0  0  0  0
   -4.1540   23.7250  -31.1010 C   0  0  0  0  0  0  0  0  0  0  0  0
   -3.5770   24.4630  -30.1200 N   0  0  0  0  0  0  0  0  0  0  0  0
   -2.3800   24.1830  -29.5460 C   0  0  0  0  0  0  0  0  0  0  0  0
   -1.9350   25.0300  -28.5840 C   0  0  0  0  0  0  0  0  0  0  0  0
   -2.1510   24.6450  -26.8240 S   0  0  0  0  0  0  0  0  0  0  0  0
   -1.2440   26.1420  -26.4670 C   0  0  0  0  0  0  0  0  0  0  0  0
   -0.9270   26.6010  -25.1860 C   0  0  0  0  0  0  0  0  0  0  0  0
   -1.2169   26.0213  -24.2972 H   0  0  0  0  0  0  0  0  0  0  0  0
   -0.2330   27.8130  -25.0510 C   0  0  0  0  0  0  0  0  0  0  0  0
    0.0285   28.1866  -24.0500 H   0  0  0  0  0  0  0  0  0  0  0  0
    0.1290   28.5510  -26.1910 C   0  0  0  0  0  0  0  0  0  0  0  0
    0.6697   29.5025  -26.0795 H   0  0  0  0  0  0  0  0  0  0  0  0
   -0.1970   28.0780  -27.4700 C   0  0  0  0  0  0  0  0  0  0  0  0
    0.0820   28.6511  -28.3665 H   0  0  0  0  0  0  0  0  0  0  0  0
   -0.8830   26.8650  -27.5860 C   0  0  0  0  0  0  0  0  0  0  0  0
   -1.2710   26.2800  -28.8160 N   0  0  0  0  0  0  0  0  0  0  0  0
   -1.2240   26.8130  -29.7100 H   0  0  0  0  0  0  0  0  0  0  0  0
   -1.7000   23.0230  -29.9830 C   0  0  0  0  0  0  0  0  0  0  0  0
   -0.6350   22.6500  -29.4220 O   0  0  0  0  0  0  0  0  0  0  0  0
   -2.2260   22.2660  -31.0020 N   0  0  0  0  0  0  0  0  0  0  0  0
   -1.5080   21.0560  -31.4580 C   0  0  0  0  0  0  0  0  0  0  0  0
   -2.2075   20.2074  -31.4839 H   0  0  0  0  0  0  0  0  0  0  0  0
   -0.6843   20.8451  -30.7601 H   0  0  0  0  0  0  0  0  0  0  0  0
   -0.9290   21.2760  -32.8590 C   0  0  0  0  0  0  0  0  0  0  0  0
    0.1374   21.0062  -32.8524 H   0  0  0  0  0  0  0  0  0  0  0  0
   -1.0611   22.3347  -33.1268 H   0  0  0  0  0  0  0  0  0  0  0  0
   -1.6510   20.4230  -33.8980 C   0  0  0  0  0  0  0  0  0  0  0  0
   -2.2807   19.6790  -33.3881 H   0  0  0  0  0  0  0  0  0  0  0  0
   -2.2819   21.0678  -34.5274 H   0  0  0  0  0  0  0  0  0  0  0  0
   -0.9108   19.9073  -34.5274 H   0  0  0  0  0  0  0  0  0  0  0  0
   -3.4440   22.5820  -31.5560 C   0  0  0  0  0  0  0  0  0  0  0  0
   -3.9200   21.8350  -32.4530 O   0  0  0  0  0  0  0  0  0  0  0  0
   -6.1260   23.4530  -32.5880 N   0  0  0  0  0  0  0  0  0  0  0  0
   -6.2980   24.1310  -33.3680 H   0  0  0  0  0  0  0  0  0  0  0  0
   -5.5850   22.6700  -33.0170 H   0  0  0  0  0  0  0  0  0  0  0  0
   -7.4340   23.0280  -32.0660 C   0  0  0  0  0  0  0  0  0  0  0  0
   -7.5322   23.3597  -31.0218 H   0  0  0  0  0  0  0  0  0  0  0  0
   -8.2263   23.4774  -32.6827 H   0  0  0  0  0  0  0  0  0  0  0  0
   -7.5630   21.5290  -32.1240 C   0  0  0  0  0  0  0  0  0  0  0  0
   -6.6570   20.7670  -32.8800 C   0  0  0  0  0  0  0  0  0  0  0  0
   -5.8318   21.2646  -33.4104 H   0  0  0  0  0  0  0  0  0  0  0  0
   -6.8000   19.3780  -32.9610 C   0  0  0  0  0  0  0  0  0  0  0  0
   -6.0836   18.7854  -33.5488 H   0  0  0  0  0  0  0  0  0  0  0  0
   -7.8520   18.7420  -32.2960 C   0  0  0  0  0  0  0  0  0  0  0  0
   -7.9910   17.3950  -32.3760 F   0  0  0  0  0  0  0  0  0  0  0  0
   -8.7660   19.4950  -31.5530 C   0  0  0  0  0  0  0  0  0  0  0  0
   -9.5962   18.9944  -31.0331 H   0  0  0  0  0  0  0  0  0  0  0  0
   -8.6260   20.8840  -31.4700 C   0  0  0  0  0  0  0  0  0  0  0  0
   -9.3512   21.4739  -30.8903 H   0  0  0  0  0  0  0  0  0  0  0  0
  1  2  1  0
  2  3  1  0
  3  4  2  0
  4  5  1  0
  5  6  1  0
  6  7  2  3
  7  8  1  0
  8  9  1  0
  9 10  2  0
 10 11  1  0
 10 12  1  0
 12 13  1  0
 12 14  2  0
 14 15  1  0
 14 16  1  0
 16 17  1  0
 16 18  2  0
 18 19  1  0
 19 20  1  0
  6 21  1  0
 21 22  2  0
 21 23  1  0
 23 24  1  0
 24 25  1  0
 24 26  1  0
 24 27  1  0
 27 28  1  0
 27 29  1  0
 27 30  1  0
 30 31  1  0
 30 32  1  0
 30 33  1  0
 23 34  1  0
 34 35  2  0
  3 36  1  0
 36 37  1  0
 36 38  1  0
 36 39  1  0
 39 40  1  0
 39 41  1  0
 39 42  1  0
 42 43  2  0
 43 44  1  0
 43 45  1  0
 45 46  1  0
 45 47  2  0
 47 48  1  0
 47 49  1  0
 49 50  1  0
 49 51  2  0
 51 52  1  0
 34  4  1  0
 51 42  1  0
 19  7  1  0
 18  9  1  0
M  CHG  2   5  -1  36   1
M  END
>  <UniqueID>  (31) 
28

>  <SMILES>  (31) 
CCCn1c(=O)c(=C2Nc3ccccc3S2)[n-]/c(=C(\O)[NH2+]Cc2ccc(F)cc2)c1=O

>  <Energy>  (31) 
94.93507021438177

>  <Genealogy>  (31) 
CCCn1c(=O)c(=C(O)[NH2+]Cc2ccc(F)cc2)[n-]c(=C2Nc3ccccc3S2)c1=O (protonated)
CCCn1c(=O)c(=C2Nc3ccccc3S2)[n-]/c(=C(\O)[NH2+]Cc2ccc(F)cc2)c1=O (cis-trans isomerization)
CCCn1c(=O)c(=C2Nc3ccccc3S2)[n-]/c(=C(\O)[NH2+]Cc2ccc(F)cc2)c1=O (3D coordinates assigned)
CCCn1c(=O)c(=C2Nc3ccccc3S2)[n-]/c(=C(\O)[NH2+]Cc2ccc(F)cc2)c1=O (nonaromatic ring conformer: 94.93507021438177 kcal/mol)

>  <smiles>  (31) 
CCCn1c(=O)c(=C(O)NCc2ccc(F)cc2)[nH]c(=C2Nc3ccccc3S2)c1=O

>  <score_type>  (31) 
oracle

>  <origin>  (31) 
adg

>  <m_score__min__energy>  (31) 
-9.9600000000000009

>  <m_primary>  (31) 
energy

$$$$
31:0
     RDKit          3D

 28 29  0  0  1  0  0  0  0  0999 V2000
   -1.1250   26.4430  -24.5160 C   0  0  0  0  0  0  0  0  0  0  0  0
   -0.4580   26.1940  -25.7710 N   0  0  0  0  0  0  0  0  0  0  0  0
    1.0050   26.3400  -25.8790 C   0  0  0  0  0  0  0  0  0  0  0  0
   -1.2110   25.7900  -26.9090 C   0  0  0  0  0  0  0  0  0  0  0  0
   -1.2760   25.9550  -28.0630 N   0  0  0  0  0  0  0  0  0  0  0  0
   -2.0450   25.4300  -28.9420 N   0  0  0  0  0  0  0  0  0  0  0  0
   -2.9290   24.5450  -28.4950 C   0  0  0  0  0  0  0  0  0  0  0  0
   -3.7880   23.8820  -29.0820 N   0  0  0  0  0  0  0  0  0  0  0  0
   -4.3910   24.2900  -30.2870 C   0  0  0  0  0  0  0  0  0  0  0  0
   -3.9790   25.3380  -30.8470 O   0  0  0  0  0  0  0  0  0  0  0  0
   -5.4750   23.5330  -30.9010 C   0  0  0  0  0  0  0  0  0  0  0  0
   -6.8020   23.8210  -30.6110 C   0  0  0  0  0  0  0  0  0  0  0  0
   -7.7660   23.0560  -31.2230 C   0  0  0  0  0  0  0  0  0  0  0  0
   -7.4180   22.0360  -32.0950 C   0  0  0  0  0  0  0  0  0  0  0  0
   -6.0860   21.7940  -32.3440 C   0  0  0  0  0  0  0  0  0  0  0  0
   -5.1320   22.5470  -31.7440 N   0  0  0  0  0  0  0  0  0  0  0  0
   -2.5940   24.4990  -26.6780 S   0  0  0  0  0  0  0  0  0  0  0  0
   -0.4494   26.1908  -23.6854 H   0  0  0  0  0  0  0  0  0  0  0  0
   -1.4029   27.5054  -24.4529 H   0  0  0  0  0  0  0  0  0  0  0  0
   -2.0312   25.8226  -24.4529 H   0  0  0  0  0  0  0  0  0  0  0  0
    1.4445   26.3839  -24.8716 H   0  0  0  0  0  0  0  0  0  0  0  0
    1.4203   25.4788  -26.4230 H   0  0  0  0  0  0  0  0  0  0  0  0
    1.2419   27.2662  -26.4230 H   0  0  0  0  0  0  0  0  0  0  0  0
   -2.0040   25.6700  -29.9860 H   0  0  0  0  0  0  0  0  0  0  0  0
   -7.0717   24.6311  -29.9174 H   0  0  0  0  0  0  0  0  0  0  0  0
   -8.8281   23.2558  -31.0181 H   0  0  0  0  0  0  0  0  0  0  0  0
   -8.1955   21.4285  -32.5812 H   0  0  0  0  0  0  0  0  0  0  0  0
   -5.7948   20.9868  -33.0322 H   0  0  0  0  0  0  0  0  0  0  0  0
  1  2  1  0
  2  3  1  0
  2  4  1  0
  4  5  2  0
  5  6  1  0
  6  7  1  0
  7  8  2  0
  8  9  1  0
  9 10  2  0
  9 11  1  0
 11 12  2  0
 12 13  1  0
 13 14  2  0
 14 15  1  0
 15 16  2  0
  7 17  1  0
 17  4  1  0
 16 11  1  0
  1 18  1  0
  1 19  1  0
  1 20  1  0
  3 21  1  0
  3 22  1  0
  3 23  1  0
  6 24  1  0
 12 25  1  0
 13 26  1  0
 14 27  1  0
 15 28  1  0
M  END
>  <smiles>  (32) 
CN(C)c1n[nH]c(=NC(=O)c2ccccn2)s1

>  <score_type>  (32) 
oracle

>  <origin>  (32) 
adg

>  <m_score__min__energy>  (32) 
-6.6799999999999997

>  <m_primary>  (32) 
energy

$$$$
32:0
     RDKit          3D

 40 42  0  0  0  0  0  0  0  0999 V2000
   -2.8630   21.6220  -30.4350 C   0  0  0  0  0  0  0  0  0  0  0  0
   -3.5330   22.9590  -30.6350 C   0  0  0  0  0  0  0  0  0  0  0  0
   -2.8890   24.0780  -30.0750 C   0  0  0  0  0  0  0  0  0  0  0  0
   -3.4850   25.2970  -30.0720 N   0  0  0  0  0  0  0  0  0  0  0  0
   -4.7140   25.4890  -30.6060 C   0  0  0  0  0  0  0  0  0  0  0  0
   -5.3890   24.4270  -31.2020 C   0  0  0  0  0  0  0  0  0  0  0  0
   -4.7990   23.1580  -31.2760 C   0  0  0  0  0  0  0  0  0  0  0  0
   -5.4800   22.2410  -31.9140 N   0  0  0  0  0  0  0  0  0  0  0  0
   -6.8790   22.1370  -32.2030 C   0  0  0  0  0  0  0  0  0  0  0  0
   -7.5480   23.1940  -32.3580 O   0  0  0  0  0  0  0  0  0  0  0  0
   -7.5890   20.8230  -32.1490 C   0  0  0  0  0  0  0  0  0  0  0  0
   -8.9530   20.7970  -32.5190 C   0  0  0  0  0  0  0  0  0  0  0  0
   -9.7030   19.6240  -32.4290 C   0  0  0  0  0  0  0  0  0  0  0  0
   -9.1160   18.4530  -31.9630 C   0  0  0  0  0  0  0  0  0  0  0  0
   -7.7710   18.4460  -31.6020 C   0  0  0  0  0  0  0  0  0  0  0  0
   -6.9870   19.6050  -31.7150 C   0  0  0  0  0  0  0  0  0  0  0  0
   -5.2430   19.4440  -31.2810 S   0  0  0  0  0  0  0  0  0  0  0  0
   -4.8360   18.4730  -32.7450 C   0  0  0  0  0  0  0  0  0  0  0  0
   -5.4790   17.2400  -32.9200 C   0  0  0  0  0  0  0  0  0  0  0  0
   -5.1480   16.4100  -33.9910 C   0  0  0  0  0  0  0  0  0  0  0  0
   -4.1730   16.8080  -34.9040 C   0  0  0  0  0  0  0  0  0  0  0  0
   -3.5410   18.0450  -34.7600 C   0  0  0  0  0  0  0  0  0  0  0  0
   -3.8760   18.9010  -33.6940 C   0  0  0  0  0  0  0  0  0  0  0  0
   -3.2440   20.1910  -33.6030 N   0  0  0  0  0  0  0  0  0  0  0  0
   -3.9020   21.2290  -33.8260 O   0  0  0  0  0  0  0  0  0  0  0  0
   -1.9670   20.3120  -33.1060 O   0  0  0  0  0  0  0  0  0  0  0  0
   -2.7618   21.4200  -29.3585 H   0  0  0  0  0  0  0  0  0  0  0  0
   -3.4723   20.8332  -30.9004 H   0  0  0  0  0  0  0  0  0  0  0  0
   -1.8664   21.6380  -30.9004 H   0  0  0  0  0  0  0  0  0  0  0  0
   -1.8881   23.9628  -29.6334 H   0  0  0  0  0  0  0  0  0  0  0  0
   -5.1798   26.4848  -30.5690 H   0  0  0  0  0  0  0  0  0  0  0  0
   -6.3946   24.5855  -31.6186 H   0  0  0  0  0  0  0  0  0  0  0  0
   -9.4315   21.7177  -32.8843 H   0  0  0  0  0  0  0  0  0  0  0  0
  -10.7617   19.6257  -32.7276 H   0  0  0  0  0  0  0  0  0  0  0  0
   -9.7133   17.5331  -31.8795 H   0  0  0  0  0  0  0  0  0  0  0  0
   -7.3164   17.5189  -31.2228 H   0  0  0  0  0  0  0  0  0  0  0  0
   -6.2529   16.9235  -32.2052 H   0  0  0  0  0  0  0  0  0  0  0  0
   -5.6560   15.4422  -34.1150 H   0  0  0  0  0  0  0  0  0  0  0  0
   -3.9008   16.1465  -35.7396 H   0  0  0  0  0  0  0  0  0  0  0  0
   -2.7744   18.3532  -35.4862 H   0  0  0  0  0  0  0  0  0  0  0  0
  1  2  1  0
  2  3  2  0
  3  4  1  0
  4  5  1  0
  5  6  2  0
  6  7  1  0
  7  8  2  3
  8  9  1  0
  9 10  2  0
  9 11  1  0
 11 12  2  0
 12 13  1  0
 13 14  2  0
 14 15  1  0
 15 16  2  0
 16 17  1  0
 17 18  1  0
 18 19  2  0
 19 20  1  0
 20 21  2  0
 21 22  1  0
 22 23  2  0
 23 24  1  0
 24 25  2  0
 24 26  1  0
  7  2  1  0
 16 11  1  0
 23 18  1  0
  1 27  1  0
  1 28  1  0
  1 29  1  0
  3 30  1  0
  5 31  1  0
  6 32  1  0
 12 33  1  0
 13 34  1  0
 14 35  1  0
 15 36  1  0
 19 37  1  0
 20 38  1  0
 21 39  1  0
 22 40  1  0
M  CHG  3   4  -1  24   1  26  -1
M  END
>  <UniqueID>  (33) 
29

>  <SMILES>  (33) 
Cc1c[n-]ccc1=NC(=O)c1ccccc1Sc1ccccc1[N+](=O)[O-]

>  <Energy>  (33) 
65.42091569615292

>  <Genealogy>  (33) 
Cc1c[n-]ccc1=NC(=O)c1ccccc1Sc1ccccc1[N+](=O)[O-] (protonated)
Cc1c[n-]ccc1=NC(=O)c1ccccc1Sc1ccccc1[N+](=O)[O-] (3D coordinates assigned)
Cc1c[n-]ccc1=NC(=O)c1ccccc1Sc1ccccc1[N+](=O)[O-] (optimized conformer: 65.42091569615292 kcal/mol)

>  <smiles>  (33) 
Cc1c[nH]ccc1=NC(=O)c1ccccc1Sc1ccccc1[N+](=O)[O-]

>  <score_type>  (33) 
oracle

>  <origin>  (33) 
adg

>  <m_score__min__energy>  (33) 
-10.220000000000001

>  <m_primary>  (33) 
energy

$$$$
33:0
     RDKit          3D

 43 46  0  0  0  0  0  0  0  0999 V2000
   -6.5725   25.4329  -29.5237 H   0  0  0  0  0  0  0  0  0  0  0  0
   -5.9370   24.9050  -30.2500 C   0  0  0  0  0  0  0  0  0  0  0  0
   -4.4890   24.8480  -29.9640 C   0  0  0  0  0  0  0  0  0  0  0  0
   -3.6420   25.2190  -30.8210 O   0  0  0  0  0  0  0  0  0  0  0  0
   -4.0590   24.4470  -28.6590 N   0  0  0  0  0  0  0  0  0  0  0  0
   -2.9830   23.5320  -28.4120 C   0  0  0  0  0  0  0  0  0  0  0  0
   -3.2940   22.2650  -27.9000 C   0  0  0  0  0  0  0  0  0  0  0  0
   -4.3451   21.9854  -27.7356 H   0  0  0  0  0  0  0  0  0  0  0  0
   -2.2790   21.3550  -27.5970 C   0  0  0  0  0  0  0  0  0  0  0  0
   -2.5319   20.3668  -27.1853 H   0  0  0  0  0  0  0  0  0  0  0  0
   -0.9440   21.6980  -27.8160 C   0  0  0  0  0  0  0  0  0  0  0  0
   -0.1446   20.9862  -27.5625 H   0  0  0  0  0  0  0  0  0  0  0  0
   -0.6230   22.9450  -28.3570 C   0  0  0  0  0  0  0  0  0  0  0  0
    0.4304   23.2090  -28.5321 H   0  0  0  0  0  0  0  0  0  0  0  0
   -1.6340   23.8640  -28.6790 C   0  0  0  0  0  0  0  0  0  0  0  0
   -1.2800   25.0920  -29.3280 N   0  0  0  0  0  0  0  0  0  0  0  0
   -1.9900   25.6720  -29.8240 H   0  0  0  0  0  0  0  0  0  0  0  0
   -0.2790   25.3780  -29.4110 H   0  0  0  0  0  0  0  0  0  0  0  0
   -6.5440   24.3680  -31.3200 C   0  0  0  0  0  0  0  0  0  0  0  0
   -7.2362   25.0107  -31.8838 H   0  0  0  0  0  0  0  0  0  0  0  0
   -6.3580   22.9840  -31.8020 C   0  0  0  0  0  0  0  0  0  0  0  0
   -5.0950   22.5210  -32.2060 C   0  0  0  0  0  0  0  0  0  0  0  0
   -4.2325   23.2036  -32.1952 H   0  0  0  0  0  0  0  0  0  0  0  0
   -4.9290   21.1960  -32.6220 C   0  0  0  0  0  0  0  0  0  0  0  0
   -3.9403   20.8474  -32.9551 H   0  0  0  0  0  0  0  0  0  0  0  0
   -6.0180   20.3070  -32.6170 C   0  0  0  0  0  0  0  0  0  0  0  0
   -5.8430   18.9040  -33.0570 C   0  0  0  0  0  0  0  0  0  0  0  0
   -4.6370   18.3880  -33.4190 N   0  0  0  0  0  0  0  0  0  0  0  0
   -4.9410   17.1220  -33.7340 C   0  0  0  0  0  0  0  0  0  0  0  0
   -4.0780   16.1210  -34.1760 C   0  0  0  0  0  0  0  0  0  0  0  0
   -3.0029   16.3131  -34.3077 H   0  0  0  0  0  0  0  0  0  0  0  0
   -4.6310   14.8550  -34.4480 C   0  0  0  0  0  0  0  0  0  0  0  0
   -3.9830   14.0391  -34.8007 H   0  0  0  0  0  0  0  0  0  0  0  0
   -6.0160   14.6270  -34.2700 C   0  0  0  0  0  0  0  0  0  0  0  0
   -6.4386   13.6342  -34.4838 H   0  0  0  0  0  0  0  0  0  0  0  0
   -6.8560   15.6630  -33.8210 C   0  0  0  0  0  0  0  0  0  0  0  0
   -7.9345   15.5003  -33.6780 H   0  0  0  0  0  0  0  0  0  0  0  0
   -6.2730   16.9020  -33.5640 C   0  0  0  0  0  0  0  0  0  0  0  0
   -6.8750   18.0190  -33.1330 N   0  0  0  0  0  0  0  0  0  0  0  0
   -7.2720   20.7660  -32.1790 C   0  0  0  0  0  0  0  0  0  0  0  0
   -8.1300   20.0779  -32.1609 H   0  0  0  0  0  0  0  0  0  0  0  0
   -7.4360   22.0920  -31.7660 C   0  0  0  0  0  0  0  0  0  0  0  0
   -8.4185   22.4362  -31.4106 H   0  0  0  0  0  0  0  0  0  0  0  0
  1  2  1  0
  2  3  1  0
  3  4  2  0
  3  5  1  0
  5  6  1  0
  6  7  2  0
  7  8  1  0
  7  9  1  0
  9 10  1  0
  9 11  2  0
 11 12  1  0
 11 13  1  0
 13 14  1  0
 13 15  2  0
 15 16  1  0
 16 17  1  0
 16 18  1  0
  2 19  2  0
 19 20  1  0
 19 21  1  0
 21 22  2  0
 22 23  1  0
 22 24  1  0
 24 25  1  0
 24 26  2  0
 26 27  1  0
 27 28  2  0
 28 29  1  0
 29 30  2  0
 30 31  1  0
 30 32  1  0
 32 33  1  0
 32 34  2  0
 34 35  1  0
 34 36  1  0
 36 37  1  0
 36 38  2  0
 38 39  1  0
 26 40  1  0
 40 41  1  0
 40 42  2  0
 42 43  1  0
 15  6  1  0
 42 21  1  0
 39 27  1  0
 38 29  1  0
M  CHG  2   5  -1  39  -1
M  END
>  <UniqueID>  (34) 
30

>  <SMILES>  (34) 
Nc1ccccc1[N-]C(=O)/C=C\c1ccc(-c2nc3ccccc3[n-]2)cc1

>  <Energy>  (34) 
96.68580892622188

>  <Genealogy>  (34) 
Nc1ccccc1[N-]C(=O)C=Cc1ccc(-c2nc3ccccc3[n-]2)cc1 (protonated)
Nc1ccccc1[N-]C(=O)/C=C\c1ccc(-c2nc3ccccc3[n-]2)cc1 (cis-trans isomerization)
Nc1ccccc1[N-]C(=O)/C=C\c1ccc(-c2nc3ccccc3[n-]2)cc1 (3D coordinates assigned)
Nc1ccccc1[N-]C(=O)/C=C\c1ccc(-c2nc3ccccc3[n-]2)cc1 (optimized conformer: 96.68580892622188 kcal/mol)

>  <smiles>  (34) 
Nc1ccccc1NC(=O)C=Cc1ccc(-c2nc3ccccc3[nH]2)cc1

>  <score_type>  (34) 
oracle

>  <origin>  (34) 
adg

>  <m_score__min__energy>  (34) 
-10.01

>  <m_primary>  (34) 
energy

$$$$
34:0
     RDKit          3D

 34 36  0  0  0  0  0  0  0  0999 V2000
   -8.1500   22.4990  -31.9310 C   0  0  0  0  0  0  0  0  0  0  0  0
   -8.0410   21.0020  -32.0680 C   0  0  0  0  0  0  0  0  0  0  0  0
   -9.1080   20.2020  -31.6230 C   0  0  0  0  0  0  0  0  0  0  0  0
   -9.0590   18.8140  -31.7510 C   0  0  0  0  0  0  0  0  0  0  0  0
   -7.9490   18.2050  -32.3300 C   0  0  0  0  0  0  0  0  0  0  0  0
   -6.8780   18.9810  -32.7750 C   0  0  0  0  0  0  0  0  0  0  0  0
   -6.9000   20.3810  -32.6450 C   0  0  0  0  0  0  0  0  0  0  0  0
   -5.6810   21.1580  -33.0930 C   0  0  0  0  0  0  0  0  0  0  0  0
   -4.2030   20.6810  -32.1260 S   0  0  0  0  0  0  0  0  0  0  0  0
   -4.0570   22.2590  -31.2960 C   0  0  0  0  0  0  0  0  0  0  0  0
   -4.6070   23.4030  -31.7410 N   0  0  0  0  0  0  0  0  0  0  0  0
   -4.3030   24.3290  -30.8440 N   0  0  0  0  0  0  0  0  0  0  0  0
   -3.5810   23.7090  -29.8870 C   0  0  0  0  0  0  0  0  0  0  0  0
   -3.0610   24.3650  -28.6730 C   0  0  0  0  0  0  0  0  0  0  0  0
   -1.7730   24.9300  -28.6770 C   0  0  0  0  0  0  0  0  0  0  0  0
   -1.2680   25.5420  -27.5260 C   0  0  0  0  0  0  0  0  0  0  0  0
   -2.0420   25.5950  -26.3620 C   0  0  0  0  0  0  0  0  0  0  0  0
   -1.4060   26.3630  -24.9200 Cl  0  0  0  0  0  0  0  0  0  0  0  0
   -3.3230   25.0350  -26.3500 C   0  0  0  0  0  0  0  0  0  0  0  0
   -3.8300   24.4210  -27.5000 C   0  0  0  0  0  0  0  0  0  0  0  0
   -3.4210   22.4390  -30.1650 O   0  0  0  0  0  0  0  0  0  0  0  0
   -8.1697   22.7692  -30.8649 H   0  0  0  0  0  0  0  0  0  0  0  0
   -7.2842   22.9754  -32.4141 H   0  0  0  0  0  0  0  0  0  0  0  0
   -9.0757   22.8450  -32.4141 H   0  0  0  0  0  0  0  0  0  0  0  0
   -9.9909   20.6758  -31.1690 H   0  0  0  0  0  0  0  0  0  0  0  0
   -9.8986   18.1996  -31.3939 H   0  0  0  0  0  0  0  0  0  0  0  0
   -7.9162   17.1107  -32.4368 H   0  0  0  0  0  0  0  0  0  0  0  0
   -6.0059   18.4916  -33.2331 H   0  0  0  0  0  0  0  0  0  0  0  0
   -5.4954   20.9525  -34.1576 H   0  0  0  0  0  0  0  0  0  0  0  0
   -5.8718   22.2295  -32.9333 H   0  0  0  0  0  0  0  0  0  0  0  0
   -1.1604   24.8902  -29.5897 H   0  0  0  0  0  0  0  0  0  0  0  0
   -0.2602   25.9827  -27.5357 H   0  0  0  0  0  0  0  0  0  0  0  0
   -3.9327   25.0773  -25.4354 H   0  0  0  0  0  0  0  0  0  0  0  0
   -4.8374   23.9794  -27.4851 H   0  0  0  0  0  0  0  0  0  0  0  0
  1  2  1  0
  2  3  2  0
  3  4  1  0
  4  5  2  0
  5  6  1  0
  6  7  2  0
  7  8  1  0
  8  9  1  0
  9 10  1  0
 10 11  2  0
 11 12  1  0
 12 13  2  0
 13 14  1  0
 14 15  2  0
 15 16  1  0
 16 17  2  0
 17 18  1  0
 17 19  1  0
 19 20  2  0
 13 21  1  0
  7  2  1  0
 21 10  1  0
 20 14  1  0
  1 22  1  0
  1 23  1  0
  1 24  1  0
  3 25  1  0
  4 26  1  0
  5 27  1  0
  6 28  1  0
  8 29  1  0
  8 30  1  0
 15 31  1  0
 16 32  1  0
 19 33  1  0
 20 34  1  0
M  END
>  <UniqueID>  (35) 
31

>  <SMILES>  (35) 
Cc1ccccc1CSc1nnc(-c2ccc(Cl)cc2)o1

>  <Energy>  (35) 
67.17350824866874

>  <Genealogy>  (35) 
Cc1ccccc1CSc1nnc(-c2ccc(Cl)cc2)o1 (3D coordinates assigned)
Cc1ccccc1CSc1nnc(-c2ccc(Cl)cc2)o1 (optimized conformer: 67.17350824866874 kcal/mol)

>  <smiles>  (35) 
Cc1ccccc1CSc1nnc(-c2ccc(Cl)cc2)o1

>  <score_type>  (35) 
oracle

>  <origin>  (35) 
adg

>  <m_score__min__energy>  (35) 
-8.6400000000000006

>  <m_primary>  (35) 
energy

$$$$
35:0
     RDKit          3D

 42 44  0  0  0  0  0  0  0  0999 V2000
   -5.7700   18.2320  -34.4150 C   0  0  0  0  0  0  0  0  0  0  0  0
   -6.3050   19.4210  -33.6770 C   0  0  0  0  0  0  0  0  0  0  0  0
   -7.5990   19.5460  -33.3150 N   0  0  0  0  0  0  0  0  0  0  0  0
   -7.6760   20.7210  -32.6660 C   0  0  0  0  0  0  0  0  0  0  0  0
   -9.1490   21.3660  -31.9650 Cl  0  0  0  0  0  0  0  0  0  0  0  0
   -6.4230   21.3020  -32.6360 C   0  0  0  0  0  0  0  0  0  0  0  0
   -6.0690   22.6120  -31.9830 C   0  0  0  0  0  0  0  0  0  0  0  0
   -5.7850   22.4230  -30.5460 N   0  0  0  0  0  0  0  0  0  0  0  0
   -4.3860   21.9650  -30.3450 C   0  0  0  0  0  0  0  0  0  0  0  0
   -3.7970   22.4150  -29.0030 C   0  0  0  0  0  0  0  0  0  0  0  0
   -3.8480   23.8790  -28.9160 N   0  0  0  0  0  0  0  0  0  0  0  0
   -2.8340   24.5970  -28.1800 C   0  0  0  0  0  0  0  0  0  0  0  0
   -2.8270   24.6210  -26.7720 C   0  0  0  0  0  0  0  0  0  0  0  0
   -1.8270   25.3240  -26.0980 C   0  0  0  0  0  0  0  0  0  0  0  0
   -0.8430   25.9990  -26.8220 C   0  0  0  0  0  0  0  0  0  0  0  0
   -0.8800   25.9660  -28.2160 C   0  0  0  0  0  0  0  0  0  0  0  0
   -1.8620   25.2740  -28.8550 N   0  0  0  0  0  0  0  0  0  0  0  0
   -4.9970   24.5790  -29.5070 C   0  0  0  0  0  0  0  0  0  0  0  0
   -6.1650   23.6100  -29.7390 C   0  0  0  0  0  0  0  0  0  0  0  0
   -5.5600   20.4830  -33.2820 N   0  0  0  0  0  0  0  0  0  0  0  0
   -4.1180   20.6800  -33.4520 C   0  0  0  0  0  0  0  0  0  0  0  0
   -5.4294   17.4751  -33.6931 H   0  0  0  0  0  0  0  0  0  0  0  0
   -6.5629   17.8054  -35.0469 H   0  0  0  0  0  0  0  0  0  0  0  0
   -4.9248   18.5425  -35.0469 H   0  0  0  0  0  0  0  0  0  0  0  0
   -8.3770   18.8730  -33.4930 H   0  0  0  0  0  0  0  0  0  0  0  0
   -5.1784   23.0306  -32.4744 H   0  0  0  0  0  0  0  0  0  0  0  0
   -6.9221   23.2987  -32.0860 H   0  0  0  0  0  0  0  0  0  0  0  0
   -4.3675   20.8659  -30.3854 H   0  0  0  0  0  0  0  0  0  0  0  0
   -3.7743   22.4147  -31.1410 H   0  0  0  0  0  0  0  0  0  0  0  0
   -4.3817   21.9777  -28.1803 H   0  0  0  0  0  0  0  0  0  0  0  0
   -2.7525   22.0781  -28.9281 H   0  0  0  0  0  0  0  0  0  0  0  0
   -3.6056   24.0885  -26.2062 H   0  0  0  0  0  0  0  0  0  0  0  0
   -1.8145   25.3460  -24.9983 H   0  0  0  0  0  0  0  0  0  0  0  0
   -0.0476   26.5506  -26.2994 H   0  0  0  0  0  0  0  0  0  0  0  0
   -0.1149   26.4997  -28.7990 H   0  0  0  0  0  0  0  0  0  0  0  0
   -5.3218   25.3787  -28.8251 H   0  0  0  0  0  0  0  0  0  0  0  0
   -4.6921   25.0021  -30.4755 H   0  0  0  0  0  0  0  0  0  0  0  0
   -6.5336   23.2655  -28.7615 H   0  0  0  0  0  0  0  0  0  0  0  0
   -6.9373   24.1555  -30.3012 H   0  0  0  0  0  0  0  0  0  0  0  0
   -3.6380   20.7456  -32.4645 H   0  0  0  0  0  0  0  0  0  0  0  0
   -3.6952   19.8313  -34.0096 H   0  0  0  0  0  0  0  0  0  0  0  0
   -3.9383   21.6110  -34.0096 H   0  0  0  0  0  0  0  0  0  0  0  0
  1  2  1  0
  2  3  2  0
  3  4  1  0
  4  5  1  0
  4  6  2  0
  6  7  1  0
  7  8  1  0
  8  9  1  0
  9 10  1  0
 10 11  1  0
 11 12  1  0
 12 13  2  0
 13 14  1  0
 14 15  2  0
 15 16  1  0
 16 17  2  0
 11 18  1  0
 18 19  1  0
  6 20  1  0
 20 21  1  0
 20  2  1  0
 19  8  1  0
 17 12  1  0
  1 22  1  0
  1 23  1  0
  1 24  1  0
  3 25  1  0
  7 26  1  0
  7 27  1  0
  9 28  1  0
  9 29  1  0
 10 30  1  0
 10 31  1  0
 13 32  1  0
 14 33  1  0
 15 34  1  0
 16 35  1  0
 18 36  1  0
 18 37  1  0
 19 38  1  0
 19 39  1  0
 21 40  1  0
 21 41  1  0
 21 42  1  0
M  CHG  1   3   1
M  END
>  <UniqueID>  (36) 
32

>  <SMILES>  (36) 
Cc1[nH+]c(Cl)c(CN2CCN(c3ccccn3)CC2)n1C

>  <Energy>  (36) 
82.2193831270517

>  <Genealogy>  (36) 
Cc1[nH+]c(Cl)c(CN2CCN(c3ccccn3)CC2)n1C (protonated)
Cc1[nH+]c(Cl)c(CN2CCN(c3ccccn3)CC2)n1C (3D coordinates assigned)
Cc1[nH+]c(Cl)c(CN2CCN(c3ccccn3)CC2)n1C (nonaromatic ring conformer: 82.2193831270517 kcal/mol)

>  <smiles>  (36) 
Cc1nc(Cl)c(CN2CCN(c3ccccn3)CC2)n1C

>  <score_type>  (36) 
oracle

>  <origin>  (36) 
adg

>  <m_score__min__energy>  (36) 
-6.8700000000000001

>  <m_primary>  (36) 
energy

$$$$
36:0
     RDKit          3D

 31 33  0  0  0  0  0  0  0  0999 V2000
   -4.4810   21.2050  -33.2010 O   0  0  0  0  0  0  0  0  0  0  0  0
   -5.3160   21.8710  -32.5320 C   0  0  0  0  0  0  0  0  0  0  0  0
   -4.9310   23.0430  -31.9670 N   0  0  0  0  0  0  0  0  0  0  0  0
   -5.7930   23.7930  -31.2330 C   0  0  0  0  0  0  0  0  0  0  0  0
   -5.2180   25.3160  -30.4830 S   0  0  0  0  0  0  0  0  0  0  0  0
   -4.7150   24.5310  -28.9100 C   0  0  0  0  0  0  0  0  0  0  0  0
   -3.5930   23.5500  -29.1290 C   0  0  0  0  0  0  0  0  0  0  0  0
   -3.8600   22.1710  -29.1050 C   0  0  0  0  0  0  0  0  0  0  0  0
   -2.8230   21.2470  -29.2740 C   0  0  0  0  0  0  0  0  0  0  0  0
   -1.5140   21.6920  -29.4620 C   0  0  0  0  0  0  0  0  0  0  0  0
   -1.2360   23.0620  -29.4830 C   0  0  0  0  0  0  0  0  0  0  0  0
   -2.2670   23.9910  -29.3180 C   0  0  0  0  0  0  0  0  0  0  0  0
   -1.9710   25.3150  -29.3300 F   0  0  0  0  0  0  0  0  0  0  0  0
   -7.0780   23.3840  -31.0570 N   0  0  0  0  0  0  0  0  0  0  0  0
   -7.5180   22.2130  -31.6000 C   0  0  0  0  0  0  0  0  0  0  0  0
   -8.8430   21.7910  -31.4060 C   0  0  0  0  0  0  0  0  0  0  0  0
   -9.2850   20.5880  -31.9630 C   0  0  0  0  0  0  0  0  0  0  0  0
   -8.4110   19.7980  -32.7160 C   0  0  0  0  0  0  0  0  0  0  0  0
   -7.0890   20.2070  -32.9170 C   0  0  0  0  0  0  0  0  0  0  0  0
   -6.6330   21.4160  -32.3600 C   0  0  0  0  0  0  0  0  0  0  0  0
   -4.3793   25.3107  -28.2104 H   0  0  0  0  0  0  0  0  0  0  0  0
   -5.5786   23.9884  -28.4980 H   0  0  0  0  0  0  0  0  0  0  0  0
   -4.8898   21.8157  -28.9525 H   0  0  0  0  0  0  0  0  0  0  0  0
   -3.0399   20.1687  -29.2586 H   0  0  0  0  0  0  0  0  0  0  0  0
   -0.6999   20.9641  -29.5938 H   0  0  0  0  0  0  0  0  0  0  0  0
   -0.2028   23.4097  -29.6298 H   0  0  0  0  0  0  0  0  0  0  0  0
   -7.7260   23.9760  -30.4880 H   0  0  0  0  0  0  0  0  0  0  0  0
   -9.5346   22.4087  -30.8143 H   0  0  0  0  0  0  0  0  0  0  0  0
  -10.3240   20.2615  -31.8085 H   0  0  0  0  0  0  0  0  0  0  0  0
   -8.7645   18.8518  -33.1516 H   0  0  0  0  0  0  0  0  0  0  0  0
   -6.4050   19.5831  -33.5110 H   0  0  0  0  0  0  0  0  0  0  0  0
  1  2  2  0
  2  3  1  0
  3  4  2  0
  4  5  1  0
  5  6  1  0
  6  7  1  0
  7  8  2  0
  8  9  1  0
  9 10  2  0
 10 11  1  0
 11 12  2  0
 12 13  1  0
  4 14  1  0
 14 15  1  0
 15 16  2  0
 16 17  1  0
 17 18  2  0
 18 19  1  0
 19 20  2  0
 20  2  1  0
 12  7  1  0
 20 15  1  0
  6 21  1  0
  6 22  1  0
  8 23  1  0
  9 24  1  0
 10 25  1  0
 11 26  1  0
 14 27  1  0
 16 28  1  0
 17 29  1  0
 18 30  1  0
 19 31  1  0
M  END
>  <UniqueID>  (37) 
33

>  <SMILES>  (37) 
O=c1nc(SCc2ccccc2F)[nH]c2ccccc12

>  <Energy>  (37) 
33.71822980533568

>  <Genealogy>  (37) 
O=c1nc(SCc2ccccc2F)[nH]c2ccccc12 (3D coordinates assigned)
O=c1nc(SCc2ccccc2F)[nH]c2ccccc12 (optimized conformer: 33.71822980533568 kcal/mol)

>  <smiles>  (37) 
O=c1nc(SCc2ccccc2F)[nH]c2ccccc12

>  <score_type>  (37) 
oracle

>  <origin>  (37) 
adg

>  <m_score__min__energy>  (37) 
-7.75

>  <m_primary>  (37) 
energy

$$$$
37:0
     RDKit          3D

 50 52  0  0  0  0  0  0  0  0999 V2000
   -2.7120   23.4440  -29.9390 C   0  0  0  0  0  0  0  0  0  0  0  0
   -4.1540   23.6740  -30.2850 C   0  0  0  0  0  0  0  0  0  0  0  0
   -4.7370   24.9330  -30.0800 C   0  0  0  0  0  0  0  0  0  0  0  0
   -6.0670   25.1580  -30.4420 C   0  0  0  0  0  0  0  0  0  0  0  0
   -6.8220   24.1350  -31.0200 C   0  0  0  0  0  0  0  0  0  0  0  0
   -6.2490   22.8710  -31.2440 C   0  0  0  0  0  0  0  0  0  0  0  0
   -7.0210   21.8180  -31.8580 N   0  0  0  0  0  0  0  0  0  0  0  0
   -8.4750   22.0130  -31.9950 C   0  0  0  0  0  0  0  0  0  0  0  0
   -9.3030   20.7510  -31.7120 C   0  0  0  0  0  0  0  0  0  0  0  0
   -8.9270   19.5650  -32.6230 C   0  0  0  0  0  0  0  0  0  0  0  0
   -7.8830   18.6750  -32.0720 N   0  0  0  0  0  0  0  0  0  0  0  0
   -7.6000   17.4720  -32.8830 C   0  0  0  0  0  0  0  0  0  0  0  0
   -6.2890   17.6260  -33.5880 C   0  0  0  0  0  0  0  0  0  0  0  0
   -6.1450   18.2190  -34.7900 N   0  0  0  0  0  0  0  0  0  0  0  0
   -4.8650   18.2060  -35.0240 O   0  0  0  0  0  0  0  0  0  0  0  0
   -4.2340   17.6420  -34.0190 C   0  0  0  0  0  0  0  0  0  0  0  0
   -2.7440   17.4640  -33.9460 C   0  0  0  0  0  0  0  0  0  0  0  0
   -2.2460   16.6190  -35.1220 C   0  0  0  0  0  0  0  0  0  0  0  0
   -2.0440   18.8250  -33.9100 C   0  0  0  0  0  0  0  0  0  0  0  0
   -5.1050   17.2540  -33.0700 N   0  0  0  0  0  0  0  0  0  0  0  0
   -6.6790   19.3740  -31.5810 C   0  0  0  0  0  0  0  0  0  0  0  0
   -6.3260   20.6350  -32.3880 C   0  0  0  0  0  0  0  0  0  0  0  0
   -4.9080   22.6520  -30.8820 C   0  0  0  0  0  0  0  0  0  0  0  0
   -2.5958   23.4255  -28.8453 H   0  0  0  0  0  0  0  0  0  0  0  0
   -2.3831   22.4820  -30.3590 H   0  0  0  0  0  0  0  0  0  0  0  0
   -2.1001   24.2559  -30.3590 H   0  0  0  0  0  0  0  0  0  0  0  0
   -4.1452   25.7453  -29.6329 H   0  0  0  0  0  0  0  0  0  0  0  0
   -6.5217   26.1449  -30.2712 H   0  0  0  0  0  0  0  0  0  0  0  0
   -7.8694   24.3191  -31.3011 H   0  0  0  0  0  0  0  0  0  0  0  0
   -8.7870   22.7970  -31.2894 H   0  0  0  0  0  0  0  0  0  0  0  0
   -8.6622   22.2884  -33.0434 H   0  0  0  0  0  0  0  0  0  0  0  0
   -9.1416   20.4536  -30.6653 H   0  0  0  0  0  0  0  0  0  0  0  0
  -10.3562   20.9976  -31.9119 H   0  0  0  0  0  0  0  0  0  0  0  0
   -9.8325   18.9653  -32.7975 H   0  0  0  0  0  0  0  0  0  0  0  0
   -8.5134   19.9983  -33.5456 H   0  0  0  0  0  0  0  0  0  0  0  0
   -7.5586   16.5911  -32.2256 H   0  0  0  0  0  0  0  0  0  0  0  0
   -8.3980   17.3439  -33.6291 H   0  0  0  0  0  0  0  0  0  0  0  0
   -2.4986   16.9298  -33.0163 H   0  0  0  0  0  0  0  0  0  0  0  0
   -1.7224   15.7305  -34.7393 H   0  0  0  0  0  0  0  0  0  0  0  0
   -3.1027   16.3037  -35.7357 H   0  0  0  0  0  0  0  0  0  0  0  0
   -1.5552   17.2158  -35.7357 H   0  0  0  0  0  0  0  0  0  0  0  0
   -1.8875   19.1293  -32.8646 H   0  0  0  0  0  0  0  0  0  0  0  0
   -1.0721   18.7510  -34.4198 H   0  0  0  0  0  0  0  0  0  0  0  0
   -2.6695   19.5726  -34.4198 H   0  0  0  0  0  0  0  0  0  0  0  0
   -4.9100   16.7930  -32.1520 H   0  0  0  0  0  0  0  0  0  0  0  0
   -6.8498   19.6674  -30.5347 H   0  0  0  0  0  0  0  0  0  0  0  0
   -5.8353   18.6763  -31.6879 H   0  0  0  0  0  0  0  0  0  0  0  0
   -5.2402   20.8029  -32.3345 H   0  0  0  0  0  0  0  0  0  0  0  0
   -6.6441   20.4820  -33.4298 H   0  0  0  0  0  0  0  0  0  0  0  0
   -4.4460   21.6712  -31.0684 H   0  0  0  0  0  0  0  0  0  0  0  0
  1  2  1  0
  2  3  2  0
  3  4  1  0
  4  5  2  0
  5  6  1  0
  6  7  1  0
  7  8  1  0
  8  9  1  0
  9 10  1  0
 10 11  1  0
 11 12  1  0
 12 13  1  0
 13 14  2  0
 14 15  1  0
 15 16  1  0
 16 17  1  0
 17 18  1  0
 17 19  1  0
 16 20  2  0
 11 21  1  0
 21 22  1  0
  6 23  2  0
 23  2  1  0
 22  7  1  0
 20 13  1  0
  1 24  1  0
  1 25  1  0
  1 26  1  0
  3 27  1  0
  4 28  1  0
  5 29  1  0
  8 30  1  0
  8 31  1  0
  9 32  1  0
  9 33  1  0
 10 34  1  0
 10 35  1  0
 12 36  1  0
 12 37  1  0
 17 38  1  0
 18 39  1  0
 18 40  1  0
 18 41  1  0
 19 42  1  0
 19 43  1  0
 19 44  1  0
 20 45  1  0
 21 46  1  0
 21 47  1  0
 22 48  1  0
 22 49  1  0
 23 50  1  0
M  CHG  1  20   1
M  END
>  <UniqueID>  (38) 
34

>  <SMILES>  (38) 
Cc1cccc(N2CCCN(Cc3noc(C(C)C)[nH+]3)CC2)c1

>  <Energy>  (38) 
91.98182728036198

>  <Genealogy>  (38) 
Cc1cccc(N2CCCN(Cc3noc(C(C)C)[nH+]3)CC2)c1 (protonated)
Cc1cccc(N2CCCN(Cc3noc(C(C)C)[nH+]3)CC2)c1 (3D coordinates assigned)
Cc1cccc(N2CCCN(Cc3noc(C(C)C)[nH+]3)CC2)c1 (nonaromatic ring conformer: 91.98182728036198 kcal/mol)

>  <smiles>  (38) 
Cc1cccc(N2CCCN(Cc3noc(C(C)C)n3)CC2)c1

>  <score_type>  (38) 
oracle

>  <origin>  (38) 
adg

>  <m_score__min__energy>  (38) 
-6.8399999999999999

>  <m_primary>  (38) 
energy

$$$$
38:0
     RDKit          3D

 50 52  0  0  0  0  0  0  0  0999 V2000
   -0.8999   21.1565  -32.6886 H   0  0  0  0  0  0  0  0  0  0  0  0
   -1.7550   20.5670  -33.0510 C   0  0  0  0  0  0  0  0  0  0  0  0
   -1.6700   19.1060  -33.8810 S   0  0  0  0  0  0  0  0  0  0  0  0
   -3.3380   18.9680  -34.0170 C   0  0  0  0  0  0  0  0  0  0  0  0
   -3.9250   17.9750  -34.6190 N   0  0  0  0  0  0  0  0  0  0  0  0
   -5.3290   17.6660  -34.6630 C   0  0  0  0  0  0  0  0  0  0  0  0
   -6.0830   18.4370  -35.3160 O   0  0  0  0  0  0  0  0  0  0  0  0
   -5.9190   16.4650  -33.9570 C   0  0  0  0  0  0  0  0  0  0  0  0
   -6.7255   16.0526  -34.5812 H   0  0  0  0  0  0  0  0  0  0  0  0
   -5.1058   15.7400  -33.8054 H   0  0  0  0  0  0  0  0  0  0  0  0
   -6.4950   16.8050  -32.5750 C   0  0  0  0  0  0  0  0  0  0  0  0
   -7.5090   16.3862  -32.4955 H   0  0  0  0  0  0  0  0  0  0  0  0
   -5.8369   16.3733  -31.8065 H   0  0  0  0  0  0  0  0  0  0  0  0
   -6.5610   18.3040  -32.3650 C   0  0  0  0  0  0  0  0  0  0  0  0
   -5.8200   18.7940  -31.5230 O   0  0  0  0  0  0  0  0  0  0  0  0
   -7.5150   19.1670  -33.0520 N   0  0  0  0  0  0  0  0  0  0  0  0
   -7.7570   18.6720  -33.9450 H   0  0  0  0  0  0  0  0  0  0  0  0
   -8.8050   19.3500  -32.3290 C   0  0  0  0  0  0  0  0  0  0  0  0
   -9.6274   19.0971  -33.0144 H   0  0  0  0  0  0  0  0  0  0  0  0
   -8.7789   18.6914  -31.4483 H   0  0  0  0  0  0  0  0  0  0  0  0
   -9.0220   20.7840  -31.8160 C   0  0  0  0  0  0  0  0  0  0  0  0
   -9.3500   21.4253  -32.6473 H   0  0  0  0  0  0  0  0  0  0  0  0
   -9.7921   20.7803  -31.0305 H   0  0  0  0  0  0  0  0  0  0  0  0
   -7.7620   21.3020  -31.2650 N   0  0  0  0  0  0  0  0  0  0  0  0
   -7.9730   22.5590  -30.5220 C   0  0  0  0  0  0  0  0  0  0  0  0
   -8.6472   23.2117  -31.0960 H   0  0  0  0  0  0  0  0  0  0  0  0
   -8.4183   22.3273  -29.5432 H   0  0  0  0  0  0  0  0  0  0  0  0
   -6.6590   23.2640  -30.3100 C   0  0  0  0  0  0  0  0  0  0  0  0
   -6.4280   24.5100  -30.9160 C   0  0  0  0  0  0  0  0  0  0  0  0
   -7.1951   24.9524  -31.5686 H   0  0  0  0  0  0  0  0  0  0  0  0
   -5.2270   25.1900  -30.6930 C   0  0  0  0  0  0  0  0  0  0  0  0
   -5.0493   26.1641  -31.1722 H   0  0  0  0  0  0  0  0  0  0  0  0
   -4.2520   24.6320  -29.8610 C   0  0  0  0  0  0  0  0  0  0  0  0
   -3.0880   25.2930  -29.6430 F   0  0  0  0  0  0  0  0  0  0  0  0
   -4.4770   23.3960  -29.2490 C   0  0  0  0  0  0  0  0  0  0  0  0
   -3.7093   22.9593  -28.5933 H   0  0  0  0  0  0  0  0  0  0  0  0
   -5.6780   22.7140  -29.4700 C   0  0  0  0  0  0  0  0  0  0  0  0
   -5.8544   21.7432  -28.9838 H   0  0  0  0  0  0  0  0  0  0  0  0
   -6.7220   21.4450  -32.3100 C   0  0  0  0  0  0  0  0  0  0  0  0
   -6.7784   22.4633  -32.7222 H   0  0  0  0  0  0  0  0  0  0  0  0
   -5.7508   21.2449  -31.8339 H   0  0  0  0  0  0  0  0  0  0  0  0
   -6.8810   20.4370  -33.4690 C   0  0  0  0  0  0  0  0  0  0  0  0
   -7.5023   20.8980  -34.2509 H   0  0  0  0  0  0  0  0  0  0  0  0
   -5.8717   20.1951  -33.8335 H   0  0  0  0  0  0  0  0  0  0  0  0
   -3.9770   20.0140  -33.4510 N   0  0  0  0  0  0  0  0  0  0  0  0
   -3.1010   20.8980  -32.9040 C   0  0  0  0  0  0  0  0  0  0  0  0
   -3.5590   22.1550  -32.2420 C   0  0  0  0  0  0  0  0  0  0  0  0
   -3.5140   22.0316  -31.1499 H   0  0  0  0  0  0  0  0  0  0  0  0
   -2.9064   22.9873  -32.5441 H   0  0  0  0  0  0  0  0  0  0  0  0
   -4.5941   22.3724  -32.5441 H   0  0  0  0  0  0  0  0  0  0  0  0
  1  2  1  0
  2  3  1  0
  3  4  1  0
  4  5  2  0
  5  6  1  0
  6  7  2  0
  6  8  1  0
  8  9  1  0
  8 10  1  0
  8 11  1  0
 11 12  1  0
 11 13  1  0
 11 14  1  0
 14 15  2  0
 14 16  1  0
 16 17  1  0
 16 18  1  0
 18 19  1  0
 18 20  1  0
 18 21  1  0
 21 22  1  0
 21 23  1  0
 21 24  1  0
 24 25  1  0
 25 26  1  0
 25 27  1  0
 25 28  1  0
 28 29  2  0
 29 30  1  0
 29 31  1  0
 31 32  1  0
 31 33  2  0
 33 34  1  0
 33 35  1  0
 35 36  1  0
 35 37  2  0
 37 38  1  0
 24 39  1  0
 39 40  1  0
 39 41  1  0
 39 42  1  0
 42 43  1  0
 42 44  1  0
  4 45  1  0
 45 46  1  0
 46 47  1  0
 47 48  1  0
 47 49  1  0
 47 50  1  0
 46  2  2  0
 42 16  1  0
 37 28  1  0
M  CHG  2  16   1  45  -1
M  END
>  <UniqueID>  (39) 
35

>  <SMILES>  (39) 
Cc1cs/c(=N/C(=O)CCC(=O)[NH+]2CCN(Cc3ccc(F)cc3)CC2)[n-]1

>  <Energy>  (39) 
94.66188231253804

>  <Genealogy>  (39) 
Cc1csc(=NC(=O)CCC(=O)[NH+]2CCN(Cc3ccc(F)cc3)CC2)[n-]1 (protonated)
Cc1cs/c(=N/C(=O)CCC(=O)[NH+]2CCN(Cc3ccc(F)cc3)CC2)[n-]1 (cis-trans isomerization)
Cc1cs/c(=N/C(=O)CCC(=O)[NH+]2CCN(Cc3ccc(F)cc3)CC2)[n-]1 (3D coordinates assigned)
Cc1cs/c(=N/C(=O)CCC(=O)[NH+]2CCN(Cc3ccc(F)cc3)CC2)[n-]1 (nonaromatic ring conformer: 94.66188231253804 kcal/mol)

>  <smiles>  (39) 
Cc1csc(=NC(=O)CCC(=O)N2CCN(Cc3ccc(F)cc3)CC2)[nH]1

>  <score_type>  (39) 
oracle

>  <origin>  (39) 
adg

>  <m_score__min__energy>  (39) 
-9.3200000000000003

>  <m_primary>  (39) 
energy

$$$$
39:0
     RDKit          3D

 22 23  0  0  0  0  0  0  0  0999 V2000
    0.2600   21.5960  -29.2010 H   0  0  0  0  0  0  0  0  0  0  0  0
   -0.6760   21.7760  -29.6270 N   0  0  0  0  0  0  0  0  0  0  0  0
   -1.3230   22.9020  -29.5310 C   0  0  0  0  0  0  0  0  0  0  0  0
   -0.7620   24.0170  -28.8590 C   0  0  0  0  0  0  0  0  0  0  0  0
    0.5530   23.9430  -28.2550 C   0  0  0  0  0  0  0  0  0  0  0  0
    1.6030   23.8830  -27.7720 N   0  0  0  0  0  0  0  0  0  0  0  0
   -1.5000   25.2180  -28.7790 C   0  0  0  0  0  0  0  0  0  0  0  0
   -0.9580   26.4310  -28.0800 C   0  0  0  0  0  0  0  0  0  0  0  0
   -1.0226   26.2864  -26.9915 H   0  0  0  0  0  0  0  0  0  0  0  0
    0.0929   26.5813  -28.3682 H   0  0  0  0  0  0  0  0  0  0  0  0
   -1.5471   27.3141  -28.3682 H   0  0  0  0  0  0  0  0  0  0  0  0
   -2.7330   25.2920  -29.3440 N   0  0  0  0  0  0  0  0  0  0  0  0
   -3.3010   24.2450  -29.9950 C   0  0  0  0  0  0  0  0  0  0  0  0
   -4.5760   24.3890  -30.5540 C   0  0  0  0  0  0  0  0  0  0  0  0
   -5.1096   25.3466  -30.4632 H   0  0  0  0  0  0  0  0  0  0  0  0
   -5.1730   23.3200  -31.2270 C   0  0  0  0  0  0  0  0  0  0  0  0
   -6.7710   23.5070  -31.9270 Cl  0  0  0  0  0  0  0  0  0  0  0  0
   -4.4980   22.1020  -31.3440 C   0  0  0  0  0  0  0  0  0  0  0  0
   -4.9704   21.2620  -31.8743 H   0  0  0  0  0  0  0  0  0  0  0  0
   -3.2240   21.9480  -30.7890 C   0  0  0  0  0  0  0  0  0  0  0  0
   -2.6982   20.9867  -30.8859 H   0  0  0  0  0  0  0  0  0  0  0  0
   -2.6090   23.0170  -30.1060 C   0  0  0  0  0  0  0  0  0  0  0  0
  1  2  1  0
  2  3  2  0
  3  4  1  0
  4  5  1  0
  5  6  3  0
  4  7  2  0
  7  8  1  0
  8  9  1  0
  8 10  1  0
  8 11  1  0
  7 12  1  0
 12 13  1  0
 13 14  2  0
 14 15  1  0
 14 16  1  0
 16 17  1  0
 16 18  2  0
 18 19  1  0
 18 20  1  0
 20 21  1  0
 20 22  2  0
 22  3  1  0
 22 13  1  0
M  CHG  1  12  -1
M  END
>  <UniqueID>  (40) 
36

>  <SMILES>  (40) 
[H]/N=c1\c(C#N)c(C)[n-]c2cc(Cl)ccc12

>  <Energy>  (40) 
29.60083169627817

>  <Genealogy>  (40) 
Cc1[n-]c2cc(Cl)ccc2c(=N)c1C#N (protonated)
[H]/N=c1\c(C#N)c(C)[n-]c2cc(Cl)ccc12 (cis-trans isomerization)
[H]/N=c1\c(C#N)c(C)[n-]c2cc(Cl)ccc12 (3D coordinates assigned)
[H]/N=c1\c(C#N)c(C)[n-]c2cc(Cl)ccc12 (optimized conformer: 29.60083169627817 kcal/mol)

>  <smiles>  (40) 
Cc1[nH]c2cc(Cl)ccc2c(=N)c1C#N

>  <score_type>  (40) 
oracle

>  <origin>  (40) 
adg

>  <m_score__min__energy>  (40) 
-6.5899999999999999

>  <m_primary>  (40) 
energy

$$$$
40:0
     RDKit          3D

 38 40  0  0  0  0  0  0  0  0999 V2000
   -0.0270   24.2500  -24.1250 N   0  0  0  0  0  0  0  0  0  0  0  0
   -0.6440   24.4500  -25.3990 C   0  0  0  0  0  0  0  0  0  0  0  0
   -0.1420   23.8020  -26.5360 C   0  0  0  0  0  0  0  0  0  0  0  0
   -0.7450   23.9990  -27.7820 C   0  0  0  0  0  0  0  0  0  0  0  0
   -1.8670   24.8380  -27.9030 C   0  0  0  0  0  0  0  0  0  0  0  0
   -2.4900   25.0730  -29.1370 O   0  0  0  0  0  0  0  0  0  0  0  0
   -3.7280   24.5500  -29.5370 C   0  0  0  0  0  0  0  0  0  0  0  0
   -4.4900   25.2630  -30.4670 C   0  0  0  0  0  0  0  0  0  0  0  0
   -5.7360   24.7820  -30.8810 C   0  0  0  0  0  0  0  0  0  0  0  0
   -6.2380   23.5780  -30.3630 C   0  0  0  0  0  0  0  0  0  0  0  0
   -7.5960   23.0790  -30.7780 C   0  0  0  0  0  0  0  0  0  0  0  0
   -7.4610   21.8230  -31.5940 C   0  0  0  0  0  0  0  0  0  0  0  0
   -8.4780   20.8530  -31.5780 C   0  0  0  0  0  0  0  0  0  0  0  0
   -8.3350   19.6700  -32.3100 C   0  0  0  0  0  0  0  0  0  0  0  0
   -7.1740   19.4430  -33.0550 C   0  0  0  0  0  0  0  0  0  0  0  0
   -6.1530   20.3970  -33.0660 C   0  0  0  0  0  0  0  0  0  0  0  0
   -6.2920   21.5820  -32.3360 C   0  0  0  0  0  0  0  0  0  0  0  0
   -5.4890   22.8760  -29.4060 C   0  0  0  0  0  0  0  0  0  0  0  0
   -4.2430   23.3590  -28.9930 C   0  0  0  0  0  0  0  0  0  0  0  0
   -2.3520   25.4990  -26.7680 C   0  0  0  0  0  0  0  0  0  0  0  0
   -1.7500   25.3030  -25.5210 C   0  0  0  0  0  0  0  0  0  0  0  0
   -0.2230   23.3890  -23.5650 H   0  0  0  0  0  0  0  0  0  0  0  0
    0.6290   24.9600  -23.7300 H   0  0  0  0  0  0  0  0  0  0  0  0
    0.7292   23.1363  -26.4477 H   0  0  0  0  0  0  0  0  0  0  0  0
   -0.3398   23.4952  -28.6719 H   0  0  0  0  0  0  0  0  0  0  0  0
   -4.1067   26.2094  -30.8762 H   0  0  0  0  0  0  0  0  0  0  0  0
   -6.3254   25.3498  -31.6160 H   0  0  0  0  0  0  0  0  0  0  0  0
   -8.1949   22.8663  -29.8802 H   0  0  0  0  0  0  0  0  0  0  0  0
   -8.0913   23.8504  -31.3860 H   0  0  0  0  0  0  0  0  0  0  0  0
   -9.3899   21.0250  -30.9874 H   0  0  0  0  0  0  0  0  0  0  0  0
   -9.1370   18.9172  -32.2996 H   0  0  0  0  0  0  0  0  0  0  0  0
   -7.0642   18.5133  -33.6326 H   0  0  0  0  0  0  0  0  0  0  0  0
   -5.2384   20.2158  -33.6497 H   0  0  0  0  0  0  0  0  0  0  0  0
   -5.4835   22.3279  -32.3427 H   0  0  0  0  0  0  0  0  0  0  0  0
   -5.8834   21.9422  -28.9790 H   0  0  0  0  0  0  0  0  0  0  0  0
   -3.6633   22.8054  -28.2397 H   0  0  0  0  0  0  0  0  0  0  0  0
   -3.2131   26.1776  -26.8578 H   0  0  0  0  0  0  0  0  0  0  0  0
   -2.1452   25.8193  -24.6337 H   0  0  0  0  0  0  0  0  0  0  0  0
  1  2  1  0
  2  3  2  0
  3  4  1  0
  4  5  2  0
  5  6  1  0
  6  7  1  0
  7  8  2  0
  8  9  1  0
  9 10  2  0
 10 11  1  0
 11 12  1  0
 12 13  2  0
 13 14  1  0
 14 15  2  0
 15 16  1  0
 16 17  2  0
 10 18  1  0
 18 19  2  0
  5 20  1  0
 20 21  2  0
 21  2  1  0
 19  7  1  0
 17 12  1  0
  1 22  1  0
  1 23  1  0
  3 24  1  0
  4 25  1  0
  8 26  1  0
  9 27  1  0
 11 28  1  0
 11 29  1  0
 13 30  1  0
 14 31  1  0
 15 32  1  0
 16 33  1  0
 17 34  1  0
 18 35  1  0
 19 36  1  0
 20 37  1  0
 21 38  1  0
M  END
>  <UniqueID>  (41) 
37

>  <SMILES>  (41) 
Nc1ccc(Oc2ccc(Cc3ccccc3)cc2)cc1

>  <Energy>  (41) 
44.66030976390474

>  <Genealogy>  (41) 
Nc1ccc(Oc2ccc(Cc3ccccc3)cc2)cc1 (3D coordinates assigned)
Nc1ccc(Oc2ccc(Cc3ccccc3)cc2)cc1 (optimized conformer: 44.66030976390474 kcal/mol)

>  <smiles>  (41) 
Nc1ccc(Oc2ccc(Cc3ccccc3)cc2)cc1

>  <score_type>  (41) 
oracle

>  <origin>  (41) 
adg

>  <m_score__min__energy>  (41) 
-8.2100000000000009

>  <m_primary>  (41) 
energy

$$$$
41:0
     RDKit          3D

 41 43  0  0  0  0  0  0  0  0999 V2000
   -8.8150   19.9020  -33.0970 O   0  0  0  0  0  0  0  0  0  0  0  0
   -7.5580   19.8820  -33.0090 C   0  0  0  0  0  0  0  0  0  0  0  0
   -6.8540   21.0930  -32.5290 C   0  0  0  0  0  0  0  0  0  0  0  0
   -7.5600   22.1590  -31.9470 C   0  0  0  0  0  0  0  0  0  0  0  0
   -6.8840   23.3030  -31.5130 C   0  0  0  0  0  0  0  0  0  0  0  0
   -5.4970   23.4100  -31.6650 C   0  0  0  0  0  0  0  0  0  0  0  0
   -4.8670   24.5760  -31.2080 O   0  0  0  0  0  0  0  0  0  0  0  0
   -5.1950   25.2500  -29.9970 C   0  0  0  0  0  0  0  0  0  0  0  0
   -4.5710   24.5350  -28.7850 C   0  0  0  0  0  0  0  0  0  0  0  0
   -3.0920   24.5910  -28.7030 N   0  0  0  0  0  0  0  0  0  0  0  0
   -2.5830   24.9220  -27.3570 C   0  0  0  0  0  0  0  0  0  0  0  0
   -1.0520   24.7630  -27.2970 C   0  0  0  0  0  0  0  0  0  0  0  0
   -0.4940   24.8520  -28.5930 O   0  0  0  0  0  0  0  0  0  0  0  0
   -0.8790   23.7270  -29.3670 C   0  0  0  0  0  0  0  0  0  0  0  0
   -2.3930   23.4340  -29.2880 C   0  0  0  0  0  0  0  0  0  0  0  0
   -4.7890   22.3530  -32.2650 C   0  0  0  0  0  0  0  0  0  0  0  0
   -5.4650   21.2080  -32.7000 C   0  0  0  0  0  0  0  0  0  0  0  0
   -6.8350   18.6560  -33.4090 C   0  0  0  0  0  0  0  0  0  0  0  0
   -7.0230   17.3950  -32.8560 C   0  0  0  0  0  0  0  0  0  0  0  0
   -6.2510   16.3980  -33.4670 C   0  0  0  0  0  0  0  0  0  0  0  0
   -5.4630   16.8640  -34.5110 C   0  0  0  0  0  0  0  0  0  0  0  0
   -5.7300   18.5150  -34.6730 S   0  0  0  0  0  0  0  0  0  0  0  0
   -8.6520   22.0930  -31.8320 H   0  0  0  0  0  0  0  0  0  0  0  0
   -7.4469   24.1259  -31.0482 H   0  0  0  0  0  0  0  0  0  0  0  0
   -4.8130   26.2805  -30.0433 H   0  0  0  0  0  0  0  0  0  0  0  0
   -6.2888   25.2510  -29.8801 H   0  0  0  0  0  0  0  0  0  0  0  0
   -4.9787   24.9955  -27.8730 H   0  0  0  0  0  0  0  0  0  0  0  0
   -4.8272   23.4711  -28.8971 H   0  0  0  0  0  0  0  0  0  0  0  0
   -2.8472   25.9625  -27.1173 H   0  0  0  0  0  0  0  0  0  0  0  0
   -3.0378   24.2342  -26.6290 H   0  0  0  0  0  0  0  0  0  0  0  0
   -0.6298   25.5587  -26.6656 H   0  0  0  0  0  0  0  0  0  0  0  0
   -0.8130   23.7763  -26.8737 H   0  0  0  0  0  0  0  0  0  0  0  0
   -0.6122   23.9155  -30.4174 H   0  0  0  0  0  0  0  0  0  0  0  0
   -0.3513   22.8510  -28.9619 H   0  0  0  0  0  0  0  0  0  0  0  0
   -2.7822   23.2446  -30.2993 H   0  0  0  0  0  0  0  0  0  0  0  0
   -2.5606   22.5492  -28.6563 H   0  0  0  0  0  0  0  0  0  0  0  0
   -3.6990   22.4270  -32.3928 H   0  0  0  0  0  0  0  0  0  0  0  0
   -4.9044   20.3920  -33.1794 H   0  0  0  0  0  0  0  0  0  0  0  0
   -7.7107   17.1987  -32.0202 H   0  0  0  0  0  0  0  0  0  0  0  0
   -6.2676   15.3450  -33.1494 H   0  0  0  0  0  0  0  0  0  0  0  0
   -4.7818   16.2573  -35.1257 H   0  0  0  0  0  0  0  0  0  0  0  0
  1  2  2  0
  2  3  1  0
  3  4  2  0
  4  5  1  0
  5  6  2  0
  6  7  1  0
  7  8  1  0
  8  9  1  0
  9 10  1  0
 10 11  1  0
 11 12  1  0
 12 13  1  0
 13 14  1  0
 14 15  1  0
  6 16  1  0
 16 17  2  0
  2 18  1  0
 18 19  2  0
 19 20  1  0
 20 21  2  0
 21 22  1  0
 17  3  1  0
 22 18  1  0
 15 10  1  0
  4 23  1  0
  5 24  1  0
  8 25  1  0
  8 26  1  0
  9 27  1  0
  9 28  1  0
 11 29  1  0
 11 30  1  0
 12 31  1  0
 12 32  1  0
 14 33  1  0
 14 34  1  0
 15 35  1  0
 15 36  1  0
 16 37  1  0
 17 38  1  0
 19 39  1  0
 20 40  1  0
 21 41  1  0
M  END
>  <UniqueID>  (42) 
38

>  <SMILES>  (42) 
O=C(c1ccc(OCCN2CCOCC2)cc1)c1cccs1

>  <Energy>  (42) 
84.570227249174

>  <Genealogy>  (42) 
O=C(c1ccc(OCCN2CCOCC2)cc1)c1cccs1 (3D coordinates assigned)
O=C(c1ccc(OCCN2CCOCC2)cc1)c1cccs1 (nonaromatic ring conformer: 84.570227249174 kcal/mol)

>  <smiles>  (42) 
O=C(c1ccc(OCCN2CCOCC2)cc1)c1cccs1

>  <score_type>  (42) 
oracle

>  <origin>  (42) 
adg

>  <m_score__min__energy>  (42) 
-8.3300000000000001

>  <m_primary>  (42) 
energy

$$$$
42:0
     RDKit          3D

 40 42  0  0  0  0  0  0  0  0999 V2000
   -5.3790   25.6710  -30.5190 C   0  0  0  0  0  0  0  0  0  0  0  0
   -4.1130   25.0550  -30.7290 O   0  0  0  0  0  0  0  0  0  0  0  0
   -3.7170   23.8290  -30.1690 C   0  0  0  0  0  0  0  0  0  0  0  0
   -3.1810   23.7500  -28.8660 C   0  0  0  0  0  0  0  0  0  0  0  0
   -2.8080   22.5170  -28.3270 C   0  0  0  0  0  0  0  0  0  0  0  0
   -2.2930   22.4540  -27.0740 F   0  0  0  0  0  0  0  0  0  0  0  0
   -2.9680   21.3500  -29.0730 C   0  0  0  0  0  0  0  0  0  0  0  0
   -3.4970   21.4120  -30.3630 C   0  0  0  0  0  0  0  0  0  0  0  0
   -3.8620   22.6460  -30.9260 C   0  0  0  0  0  0  0  0  0  0  0  0
   -4.4290   22.6680  -32.3260 C   0  0  0  0  0  0  0  0  0  0  0  0
   -5.3090   21.5630  -32.5310 O   0  0  0  0  0  0  0  0  0  0  0  0
   -6.7030   21.5720  -32.3210 C   0  0  0  0  0  0  0  0  0  0  0  0
   -7.3740   22.7360  -31.9000 C   0  0  0  0  0  0  0  0  0  0  0  0
   -8.7480   22.7010  -31.6840 C   0  0  0  0  0  0  0  0  0  0  0  0
   -9.4510   21.5190  -31.8820 C   0  0  0  0  0  0  0  0  0  0  0  0
   -8.7690   20.3750  -32.3030 C   0  0  0  0  0  0  0  0  0  0  0  0
   -9.4210   19.3110  -32.4940 O   0  0  0  0  0  0  0  0  0  0  0  0
   -7.4140   20.4130  -32.5170 N   0  0  0  0  0  0  0  0  0  0  0  0
   -6.7260   19.2290  -32.9620 C   0  0  0  0  0  0  0  0  0  0  0  0
   -6.0990   19.2060  -34.2190 C   0  0  0  0  0  0  0  0  0  0  0  0
   -5.4250   18.0600  -34.6490 C   0  0  0  0  0  0  0  0  0  0  0  0
   -5.3750   16.9280  -33.8290 C   0  0  0  0  0  0  0  0  0  0  0  0
   -5.9980   16.9430  -32.5770 C   0  0  0  0  0  0  0  0  0  0  0  0
   -6.6720   18.0890  -32.1440 C   0  0  0  0  0  0  0  0  0  0  0  0
   -5.5675   25.7627  -29.4392 H   0  0  0  0  0  0  0  0  0  0  0  0
   -5.3809   26.6708  -30.9778 H   0  0  0  0  0  0  0  0  0  0  0  0
   -6.1669   25.0555  -30.9778 H   0  0  0  0  0  0  0  0  0  0  0  0
   -3.0561   24.6664  -28.2705 H   0  0  0  0  0  0  0  0  0  0  0  0
   -2.6770   20.3796  -28.6444 H   0  0  0  0  0  0  0  0  0  0  0  0
   -3.6292   20.4870  -30.9435 H   0  0  0  0  0  0  0  0  0  0  0  0
   -4.9851   23.6052  -32.4757 H   0  0  0  0  0  0  0  0  0  0  0  0
   -3.5994   22.5977  -33.0449 H   0  0  0  0  0  0  0  0  0  0  0  0
   -6.8140   23.6696  -31.7424 H   0  0  0  0  0  0  0  0  0  0  0  0
   -9.2772   23.6081  -31.3568 H   0  0  0  0  0  0  0  0  0  0  0  0
  -10.5367   21.4844  -31.7085 H   0  0  0  0  0  0  0  0  0  0  0  0
   -6.1388   20.0937  -34.8673 H   0  0  0  0  0  0  0  0  0  0  0  0
   -4.9334   18.0481  -35.6330 H   0  0  0  0  0  0  0  0  0  0  0  0
   -4.8455   16.0257  -34.1689 H   0  0  0  0  0  0  0  0  0  0  0  0
   -5.9578   16.0526  -31.9324 H   0  0  0  0  0  0  0  0  0  0  0  0
   -7.1617   18.0975  -31.1590 H   0  0  0  0  0  0  0  0  0  0  0  0
  1  2  1  0
  2  3  1  0
  3  4  2  0
  4  5  1  0
  5  6  1  0
  5  7  2  0
  7  8  1  0
  8  9  2  0
  9 10  1  0
 10 11  1  0
 11 12  1  0
 12 13  2  0
 13 14  1  0
 14 15  2  0
 15 16  1  0
 16 17  2  0
 16 18  1  0
 18 19  1  0
 19 20  2  0
 20 21  1  0
 21 22  2  0
 22 23  1  0
 23 24  2  0
  9  3  1  0
 18 12  1  0
 24 19  1  0
  1 25  1  0
  1 26  1  0
  1 27  1  0
  4 28  1  0
  7 29  1  0
  8 30  1  0
 10 31  1  0
 10 32  1  0
 13 33  1  0
 14 34  1  0
 15 35  1  0
 20 36  1  0
 21 37  1  0
 22 38  1  0
 23 39  1  0
 24 40  1  0
M  END
>  <UniqueID>  (43) 
39

>  <SMILES>  (43) 
COc1cc(F)ccc1COc1cccc(=O)n1-c1ccccc1

>  <Energy>  (43) 
52.15061032598914

>  <Genealogy>  (43) 
COc1cc(F)ccc1COc1cccc(=O)n1-c1ccccc1 (3D coordinates assigned)
COc1cc(F)ccc1COc1cccc(=O)n1-c1ccccc1 (optimized conformer: 52.15061032598914 kcal/mol)

>  <smiles>  (43) 
COc1cc(F)ccc1COc1cccc(=O)n1-c1ccccc1

>  <score_type>  (43) 
oracle

>  <origin>  (43) 
adg

>  <m_score__min__energy>  (43) 
-8.3399999999999999

>  <m_primary>  (43) 
energy

$$$$
43:0
     RDKit          3D

 42 45  0  0  0  0  0  0  0  0999 V2000
   -2.3730   24.6070  -27.5070 C   0  0  0  0  0  0  0  0  0  0  0  0
   -2.0700   24.6500  -29.0000 C   0  0  0  0  0  0  0  0  0  0  0  0
   -3.2800   24.3800  -29.7680 N   0  0  0  0  0  0  0  0  0  0  0  0
   -3.9420   23.2090  -29.8150 C   0  0  0  0  0  0  0  0  0  0  0  0
   -5.0650   23.3820  -30.5990 C   0  0  0  0  0  0  0  0  0  0  0  0
   -6.0800   22.3590  -30.9180 C   0  0  0  0  0  0  0  0  0  0  0  0
   -7.4540   22.5950  -30.7340 C   0  0  0  0  0  0  0  0  0  0  0  0
   -8.3550   21.6230  -31.0420 N   0  0  0  0  0  0  0  0  0  0  0  0
   -7.9460   20.4190  -31.5290 C   0  0  0  0  0  0  0  0  0  0  0  0
   -8.8590   19.4070  -31.8460 C   0  0  0  0  0  0  0  0  0  0  0  0
   -8.3960   18.1860  -32.3420 C   0  0  0  0  0  0  0  0  0  0  0  0
   -7.0130   17.9830  -32.5240 C   0  0  0  0  0  0  0  0  0  0  0  0
   -6.4750   16.7000  -33.0440 C   0  0  0  0  0  0  0  0  0  0  0  0
   -7.1590   15.9660  -34.0330 C   0  0  0  0  0  0  0  0  0  0  0  0
   -6.6390   14.7590  -34.5030 C   0  0  0  0  0  0  0  0  0  0  0  0
   -5.4270   14.2740  -34.0090 C   0  0  0  0  0  0  0  0  0  0  0  0
   -4.7070   15.0070  -33.0520 C   0  0  0  0  0  0  0  0  0  0  0  0
   -3.4200   14.4640  -32.4830 C   0  0  0  0  0  0  0  0  0  0  0  0
   -2.8930   13.4890  -33.3140 F   0  0  0  0  0  0  0  0  0  0  0  0
   -2.5060   15.4940  -32.3610 F   0  0  0  0  0  0  0  0  0  0  0  0
   -3.6320   13.8990  -31.2370 F   0  0  0  0  0  0  0  0  0  0  0  0
   -5.2480   16.2080  -32.5620 C   0  0  0  0  0  0  0  0  0  0  0  0
   -6.1470   18.9840  -32.1990 N   0  0  0  0  0  0  0  0  0  0  0  0
   -6.5740   20.1800  -31.7140 C   0  0  0  0  0  0  0  0  0  0  0  0
   -5.6790   21.1530  -31.4040 N   0  0  0  0  0  0  0  0  0  0  0  0
   -5.0230   24.7110  -30.9930 C   0  0  0  0  0  0  0  0  0  0  0  0
   -3.9300   25.2980  -30.4680 N   0  0  0  0  0  0  0  0  0  0  0  0
   -1.4400   24.7394  -26.9396 H   0  0  0  0  0  0  0  0  0  0  0  0
   -3.0750   25.4145  -27.2519 H   0  0  0  0  0  0  0  0  0  0  0  0
   -2.8226   23.6360  -27.2519 H   0  0  0  0  0  0  0  0  0  0  0  0
   -1.6868   25.6466  -29.2643 H   0  0  0  0  0  0  0  0  0  0  0  0
   -1.3172   23.8833  -29.2354 H   0  0  0  0  0  0  0  0  0  0  0  0
   -3.6406   22.2764  -29.3156 H   0  0  0  0  0  0  0  0  0  0  0  0
   -7.7996   23.5630  -30.3421 H   0  0  0  0  0  0  0  0  0  0  0  0
   -9.3730   21.8150  -30.8980 H   0  0  0  0  0  0  0  0  0  0  0  0
   -9.9373   19.5724  -31.7051 H   0  0  0  0  0  0  0  0  0  0  0  0
   -9.1084   17.3854  -32.5898 H   0  0  0  0  0  0  0  0  0  0  0  0
   -8.1087   16.3464  -34.4373 H   0  0  0  0  0  0  0  0  0  0  0  0
   -7.1870   14.1872  -35.2664 H   0  0  0  0  0  0  0  0  0  0  0  0
   -5.0339   13.3126  -34.3713 H   0  0  0  0  0  0  0  0  0  0  0  0
   -4.7040   16.7719  -31.7900 H   0  0  0  0  0  0  0  0  0  0  0  0
   -5.7660   25.2081  -31.6340 H   0  0  0  0  0  0  0  0  0  0  0  0
  1  2  1  0
  2  3  1  0
  3  4  1  0
  4  5  2  0
  5  6  1  0
  6  7  2  0
  7  8  1  0
  8  9  2  0
  9 10  1  0
 10 11  2  0
 11 12  1  0
 12 13  1  0
 13 14  2  0
 14 15  1  0
 15 16  2  0
 16 17  1  0
 17 18  1  0
 18 19  1  0
 18 20  1  0
 18 21  1  0
 17 22  2  0
 12 23  2  0
 23 24  1  0
 24 25  2  0
  5 26  1  0
 26 27  2  0
 27  3  1  0
 25  6  1  0
 24  9  1  0
 22 13  1  0
  1 28  1  0
  1 29  1  0
  1 30  1  0
  2 31  1  0
  2 32  1  0
  4 33  1  0
  7 34  1  0
  8 35  1  0
 10 36  1  0
 11 37  1  0
 14 38  1  0
 15 39  1  0
 16 40  1  0
 22 41  1  0
 26 42  1  0
M  CHG  1   8   1
M  END
>  <UniqueID>  (44) 
40

>  <SMILES>  (44) 
CCn1cc(-c2c[nH+]c3ccc(-c4cccc(C(F)(F)F)c4)nc3n2)cn1

>  <Energy>  (44) 
81.90743316775082

>  <Genealogy>  (44) 
CCn1cc(-c2c[nH+]c3ccc(-c4cccc(C(F)(F)F)c4)nc3n2)cn1 (protonated)
CCn1cc(-c2c[nH+]c3ccc(-c4cccc(C(F)(F)F)c4)nc3n2)cn1 (3D coordinates assigned)
CCn1cc(-c2c[nH+]c3ccc(-c4cccc(C(F)(F)F)c4)nc3n2)cn1 (optimized conformer: 81.90743316775082 kcal/mol)

>  <smiles>  (44) 
CCn1cc(-c2cnc3ccc(-c4cccc(C(F)(F)F)c4)nc3n2)cn1

>  <score_type>  (44) 
oracle

>  <origin>  (44) 
adg

>  <m_score__min__energy>  (44) 
-7.1699999999999999

>  <m_primary>  (44) 
energy

$$$$
44:0
     RDKit          3D

 30 31  0  0  1  0  0  0  0  0999 V2000
    0.9720   23.8370  -26.9750 C   0  0  0  0  0  0  0  0  0  0  0  0
   -0.2120   24.0890  -27.8490 C   0  0  0  0  0  0  0  0  0  0  0  0
   -0.6780   24.8760  -28.5650 N   0  0  0  0  0  0  0  0  0  0  0  0
   -1.7690   24.8880  -29.2490 N   0  0  0  0  0  0  0  0  0  0  0  0
   -2.5220   23.7760  -29.1160 C   0  0  0  0  0  0  0  0  0  0  0  0
   -3.6440   23.4250  -29.6230 N   0  0  0  0  0  0  0  0  0  0  0  0
   -4.4940   24.3960  -30.2810 C   0  0  0  0  0  0  0  0  0  0  0  0
   -3.9010   25.3570  -30.8020 O   0  0  0  0  0  0  0  0  0  0  0  0
   -5.9310   24.1310  -30.2540 C   0  0  0  0  0  0  0  0  0  0  0  0
   -6.5600   23.9740  -31.6100 C   0  0  0  0  0  0  0  0  0  0  0  0
   -7.2620   22.7090  -31.8130 C   0  0  0  0  0  0  0  0  0  0  0  0
   -8.6050   22.4860  -31.6570 C   0  0  0  0  0  0  0  0  0  0  0  0
   -9.1880   21.2440  -31.9000 C   0  0  0  0  0  0  0  0  0  0  0  0
   -8.4300   20.1660  -32.3130 C   0  0  0  0  0  0  0  0  0  0  0  0
   -7.0680   20.3790  -32.4740 C   0  0  0  0  0  0  0  0  0  0  0  0
   -6.5020   21.6140  -32.2310 C   0  0  0  0  0  0  0  0  0  0  0  0
   -1.5540   22.7300  -27.9470 S   0  0  0  0  0  0  0  0  0  0  0  0
    0.6690   23.9015  -25.9195 H   0  0  0  0  0  0  0  0  0  0  0  0
    1.3727   22.8335  -27.1808 H   0  0  0  0  0  0  0  0  0  0  0  0
    1.7466   24.5904  -27.1808 H   0  0  0  0  0  0  0  0  0  0  0  0
   -2.1070   25.6730  -29.8860 H   0  0  0  0  0  0  0  0  0  0  0  0
   -6.0989   23.2031  -29.6875 H   0  0  0  0  0  0  0  0  0  0  0  0
   -6.4030   25.0092  -29.7893 H   0  0  0  0  0  0  0  0  0  0  0  0
   -7.2811   24.7927  -31.7504 H   0  0  0  0  0  0  0  0  0  0  0  0
   -5.7367   23.9937  -32.3392 H   0  0  0  0  0  0  0  0  0  0  0  0
   -9.2459   23.3173  -31.3281 H   0  0  0  0  0  0  0  0  0  0  0  0
  -10.2720   21.1199  -31.7603 H   0  0  0  0  0  0  0  0  0  0  0  0
   -8.8850   19.1832  -32.5056 H   0  0  0  0  0  0  0  0  0  0  0  0
   -6.4271   19.5472  -32.8017 H   0  0  0  0  0  0  0  0  0  0  0  0
   -5.4182   21.7401  -32.3709 H   0  0  0  0  0  0  0  0  0  0  0  0
  1  2  1  0
  2  3  2  0
  3  4  1  0
  4  5  1  0
  5  6  2  0
  6  7  1  0
  7  8  2  0
  7  9  1  0
  9 10  1  0
 10 11  1  0
 11 12  2  0
 12 13  1  0
 13 14  2  0
 14 15  1  0
 15 16  2  0
  5 17  1  0
 17  2  1  0
 16 11  1  0
  1 18  1  0
  1 19  1  0
  1 20  1  0
  4 21  1  0
  9 22  1  0
  9 23  1  0
 10 24  1  0
 10 25  1  0
 12 26  1  0
 13 27  1  0
 14 28  1  0
 15 29  1  0
 16 30  1  0
M  END
>  <smiles>  (45) 
Cc1n[nH]c(=NC(=O)CCc2ccccc2)s1

>  <score_type>  (45) 
oracle

>  <origin>  (45) 
adg

>  <m_score__min__energy>  (45) 
-7.9699999999999998

>  <m_primary>  (45) 
energy

$$$$
45:0
     RDKit          3D

 36 37  0  0  0  0  0  0  0  0999 V2000
   -0.3480   26.5920  -27.7050 C   0  0  0  0  0  0  0  0  0  0  0  0
   -1.1460   25.3300  -27.8000 C   0  0  0  0  0  0  0  0  0  0  0  0
   -1.1000   24.3330  -26.8280 C   0  0  0  0  0  0  0  0  0  0  0  0
   -2.0780   23.0600  -27.3400 S   0  0  0  0  0  0  0  0  0  0  0  0
   -2.5180   23.8300  -28.7650 C   0  0  0  0  0  0  0  0  0  0  0  0
   -3.3040   23.2960  -29.6550 N   0  0  0  0  0  0  0  0  0  0  0  0
   -4.2130   24.0090  -30.5050 C   0  0  0  0  0  0  0  0  0  0  0  0
   -3.9530   25.2080  -30.7950 O   0  0  0  0  0  0  0  0  0  0  0  0
   -5.4000   23.3530  -31.1070 C   0  0  0  0  0  0  0  0  0  0  0  0
   -6.6260   24.0360  -31.1810 C   0  0  0  0  0  0  0  0  0  0  0  0
   -7.7490   23.4160  -31.7360 C   0  0  0  0  0  0  0  0  0  0  0  0
   -7.6590   22.1130  -32.2290 C   0  0  0  0  0  0  0  0  0  0  0  0
   -6.4410   21.4240  -32.1780 C   0  0  0  0  0  0  0  0  0  0  0  0
   -6.3270   19.7720  -32.7920 S   0  0  0  0  0  0  0  0  0  0  0  0
   -4.9270   19.2650  -32.5870 O   0  0  0  0  0  0  0  0  0  0  0  0
   -6.6090   19.7710  -34.2690 O   0  0  0  0  0  0  0  0  0  0  0  0
   -7.4540   18.7080  -31.9850 N   0  0  0  0  0  0  0  0  0  0  0  0
   -7.2030   17.3200  -32.3910 C   0  0  0  0  0  0  0  0  0  0  0  0
   -8.8300   19.0920  -32.3230 C   0  0  0  0  0  0  0  0  0  0  0  0
   -5.3140   22.0480  -31.6250 C   0  0  0  0  0  0  0  0  0  0  0  0
   -1.9210   25.0400  -28.8800 N   0  0  0  0  0  0  0  0  0  0  0  0
   -0.1876   26.8456  -26.6467 H   0  0  0  0  0  0  0  0  0  0  0  0
    0.6243   26.4491  -28.1992 H   0  0  0  0  0  0  0  0  0  0  0  0
   -0.8939   27.4091  -28.1992 H   0  0  0  0  0  0  0  0  0  0  0  0
   -0.5258   24.3703  -25.8905 H   0  0  0  0  0  0  0  0  0  0  0  0
   -6.7023   25.0650  -30.7997 H   0  0  0  0  0  0  0  0  0  0  0  0
   -8.7061   23.9561  -31.7845 H   0  0  0  0  0  0  0  0  0  0  0  0
   -8.5471   21.6264  -32.6586 H   0  0  0  0  0  0  0  0  0  0  0  0
   -7.0893   16.6910  -31.4958 H   0  0  0  0  0  0  0  0  0  0  0  0
   -8.0496   16.9546  -32.9907 H   0  0  0  0  0  0  0  0  0  0  0  0
   -6.2820   17.2742  -32.9907 H   0  0  0  0  0  0  0  0  0  0  0  0
   -9.4037   19.2521  -31.3982 H   0  0  0  0  0  0  0  0  0  0  0  0
   -8.8173   20.0209  -32.9120 H   0  0  0  0  0  0  0  0  0  0  0  0
   -9.3001   18.2907  -32.9120 H   0  0  0  0  0  0  0  0  0  0  0  0
   -4.3537   21.5123  -31.5959 H   0  0  0  0  0  0  0  0  0  0  0  0
   -2.0080   25.6750  -29.7060 H   0  0  0  0  0  0  0  0  0  0  0  0
  1  2  1  0
  2  3  2  0
  3  4  1  0
  4  5  1  0
  5  6  2  3
  6  7  1  0
  7  8  2  0
  7  9  1  0
  9 10  2  0
 10 11  1  0
 11 12  2  0
 12 13  1  0
 13 14  1  0
 14 15  2  0
 14 16  2  0
 14 17  1  0
 17 18  1  0
 17 19  1  0
 13 20  2  0
  5 21  1  0
 21  2  1  0
 20  9  1  0
  1 22  1  0
  1 23  1  0
  1 24  1  0
  3 25  1  0
 10 26  1  0
 11 27  1  0
 12 28  1  0
 18 29  1  0
 18 30  1  0
 18 31  1  0
 19 32  1  0
 19 33  1  0
 19 34  1  0
 20 35  1  0
 21 36  1  0
M  END
>  <UniqueID>  (46) 
41

>  <SMILES>  (46) 
Cc1csc(=NC(=O)c2cccc(S(=O)(=O)N(C)C)c2)[nH]1

>  <Energy>  (46) 
67.91774649099794

>  <Genealogy>  (46) 
Cc1csc(=NC(=O)c2cccc(S(=O)(=O)N(C)C)c2)[nH]1 (3D coordinates assigned)
Cc1csc(=NC(=O)c2cccc(S(=O)(=O)N(C)C)c2)[nH]1 (optimized conformer: 67.91774649099794 kcal/mol)

>  <smiles>  (46) 
Cc1csc(=NC(=O)c2cccc(S(=O)(=O)N(C)C)c2)[nH]1

>  <score_type>  (46) 
oracle

>  <origin>  (46) 
adg

>  <m_score__min__energy>  (46) 
-8.5700000000000003

>  <m_primary>  (46) 
energy

$$$$
46:0
     RDKit          3D

 55 58  0  0  0  0  0  0  0  0999 V2000
   -4.5850   18.1490  -34.5810 C   0  0  0  0  0  0  0  0  0  0  0  0
   -4.2850   19.1040  -33.7400 C   0  0  0  0  0  0  0  0  0  0  0  0
   -4.8980   19.1680  -32.4050 C   0  0  0  0  0  0  0  0  0  0  0  0
   -6.3690   19.2230  -32.4870 N   0  0  0  0  0  0  0  0  0  0  0  0
   -7.2390   18.1870  -32.5290 C   0  0  0  0  0  0  0  0  0  0  0  0
   -6.8620   16.9640  -32.6730 N   0  0  0  0  0  0  0  0  0  0  0  0
   -8.5190   18.5670  -32.4490 N   0  0  0  0  0  0  0  0  0  0  0  0
   -8.4350   19.9140  -32.3410 C   0  0  0  0  0  0  0  0  0  0  0  0
   -9.4990   20.7900  -32.1030 C   0  0  0  0  0  0  0  0  0  0  0  0
   -9.1700   22.1180  -31.8280 C   0  0  0  0  0  0  0  0  0  0  0  0
   -7.8270   22.5280  -31.8420 C   0  0  0  0  0  0  0  0  0  0  0  0
   -7.4270   23.7230  -31.1610 C   0  0  0  0  0  0  0  0  0  0  0  0
   -7.1890   24.6300  -30.4060 C   0  0  0  0  0  0  0  0  0  0  0  0
   -6.6570   25.6580  -29.5190 C   0  0  0  0  0  0  0  0  0  0  0  0
   -5.3140   25.2620  -29.1620 N   0  0  0  0  0  0  0  0  0  0  0  0
   -4.4150   24.6660  -30.0910 C   0  0  0  0  0  0  0  0  0  0  0  0
   -4.2360   25.2280  -31.2100 O   0  0  0  0  0  0  0  0  0  0  0  0
   -3.6600   23.4540  -29.7370 C   0  0  0  0  0  0  0  0  0  0  0  0
   -3.3040   22.7950  -30.9370 C   0  0  0  0  0  0  0  0  0  0  0  0
   -2.8460   21.4950  -30.9760 C   0  0  0  0  0  0  0  0  0  0  0  0
   -2.6460   20.8420  -29.7930 C   0  0  0  0  0  0  0  0  0  0  0  0
   -2.8290   21.4910  -28.6120 N   0  0  0  0  0  0  0  0  0  0  0  0
   -2.5870   20.7230  -27.3820 C   0  0  0  0  0  0  0  0  0  0  0  0
   -1.2910   19.9490  -27.4360 C   0  0  0  0  0  0  0  0  0  0  0  0
   -1.3140   18.5580  -27.3480 C   0  0  0  0  0  0  0  0  0  0  0  0
   -0.1400   17.8240  -27.5270 C   0  0  0  0  0  0  0  0  0  0  0  0
    1.0770   18.4720  -27.8490 C   0  0  0  0  0  0  0  0  0  0  0  0
    2.2130   17.7360  -27.9970 F   0  0  0  0  0  0  0  0  0  0  0  0
    1.0720   19.8550  -27.9300 C   0  0  0  0  0  0  0  0  0  0  0  0
    2.1930   20.5050  -28.2180 F   0  0  0  0  0  0  0  0  0  0  0  0
   -0.0980   20.5870  -27.6700 C   0  0  0  0  0  0  0  0  0  0  0  0
   -3.3620   22.7570  -28.5890 C   0  0  0  0  0  0  0  0  0  0  0  0
   -3.6400   23.2980  -27.4950 O   0  0  0  0  0  0  0  0  0  0  0  0
   -6.7960   21.6350  -32.1930 C   0  0  0  0  0  0  0  0  0  0  0  0
   -7.1440   20.3160  -32.3870 C   0  0  0  0  0  0  0  0  0  0  0  0
   -4.1131   18.1225  -35.5743 H   0  0  0  0  0  0  0  0  0  0  0  0
   -5.3093   17.3720  -34.2953 H   0  0  0  0  0  0  0  0  0  0  0  0
   -3.5592   19.8753  -34.0372 H   0  0  0  0  0  0  0  0  0  0  0  0
   -4.6052   18.2745  -31.8342 H   0  0  0  0  0  0  0  0  0  0  0  0
   -4.5460   20.0838  -31.9076 H   0  0  0  0  0  0  0  0  0  0  0  0
   -6.8670   16.5460  -33.5860 H   0  0  0  0  0  0  0  0  0  0  0  0
  -10.5444   20.4488  -32.1312 H   0  0  0  0  0  0  0  0  0  0  0  0
   -9.9638   22.8446  -31.6000 H   0  0  0  0  0  0  0  0  0  0  0  0
   -6.6387   26.6289  -30.0358 H   0  0  0  0  0  0  0  0  0  0  0  0
   -7.2847   25.7621  -28.6217 H   0  0  0  0  0  0  0  0  0  0  0  0
   -5.0480   25.2480  -28.1810 H   0  0  0  0  0  0  0  0  0  0  0  0
   -3.3970   23.3461  -31.8845 H   0  0  0  0  0  0  0  0  0  0  0  0
   -2.6466   20.9962  -31.9359 H   0  0  0  0  0  0  0  0  0  0  0  0
   -2.3356   19.7867  -29.7956 H   0  0  0  0  0  0  0  0  0  0  0  0
   -2.5479   21.4197  -26.5317 H   0  0  0  0  0  0  0  0  0  0  0  0
   -3.4074   19.9988  -27.2701 H   0  0  0  0  0  0  0  0  0  0  0  0
   -2.2597   18.0373  -27.1370 H   0  0  0  0  0  0  0  0  0  0  0  0
   -0.1607   16.7297  -27.4166 H   0  0  0  0  0  0  0  0  0  0  0  0
   -0.0581   21.6862  -27.6536 H   0  0  0  0  0  0  0  0  0  0  0  0
   -5.7566   21.9762  -32.3075 H   0  0  0  0  0  0  0  0  0  0  0  0
  1  2  2  0
  2  3  1  0
  3  4  1  0
  4  5  1  0
  5  6  2  3
  5  7  1  0
  7  8  1  0
  8  9  2  0
  9 10  1  0
 10 11  2  0
 11 12  1  0
 12 13  3  0
 13 14  1  0
 14 15  1  0
 15 16  1  0
 16 17  2  0
 16 18  1  0
 18 19  2  0
 19 20  1  0
 20 21  2  0
 21 22  1  0
 22 23  1  0
 23 24  1  0
 24 25  2  0
 25 26  1  0
 26 27  2  0
 27 28  1  0
 27 29  1  0
 29 30  1  0
 29 31  2  0
 22 32  1  0
 32 33  2  0
 11 34  1  0
 34 35  2  0
 35  4  1  0
 35  8  1  0
 32 18  1  0
 31 24  1  0
  1 36  1  0
  1 37  1  0
  2 38  1  0
  3 39  1  0
  3 40  1  0
  6 41  1  0
  9 42  1  0
 10 43  1  0
 14 44  1  0
 14 45  1  0
 15 46  1  0
 19 47  1  0
 20 48  1  0
 21 49  1  0
 23 50  1  0
 23 51  1  0
 25 52  1  0
 26 53  1  0
 31 54  1  0
 34 55  1  0
M  CHG  1   7  -1
M  END
>  <UniqueID>  (47) 
42

>  <SMILES>  (47) 
C=CCn1c(=N)[n-]c2ccc(C#CCNC(=O)c3cccn(Cc4ccc(F)c(F)c4)c3=O)cc21

>  <Energy>  (47) 
144.1858136347881

>  <Genealogy>  (47) 
C=CCn1c(=N)[n-]c2ccc(C#CCNC(=O)c3cccn(Cc4ccc(F)c(F)c4)c3=O)cc21 (protonated)
C=CCn1c(=N)[n-]c2ccc(C#CCNC(=O)c3cccn(Cc4ccc(F)c(F)c4)c3=O)cc21 (3D coordinates assigned)
C=CCn1c(=N)[n-]c2ccc(C#CCNC(=O)c3cccn(Cc4ccc(F)c(F)c4)c3=O)cc21 (optimized conformer: 144.1858136347881 kcal/mol)

>  <smiles>  (47) 
C=CCn1c(=N)[nH]c2ccc(C#CCNC(=O)c3cccn(Cc4ccc(F)c(F)c4)c3=O)cc21

>  <score_type>  (47) 
oracle

>  <origin>  (47) 
adg

>  <m_score__min__energy>  (47) 
-11.18

>  <m_primary>  (47) 
energy

$$$$
47:0
     RDKit          3D

 44 46  0  0  0  0  0  0  0  0999 V2000
   -8.4950   21.4550  -32.0470 C   0  0  0  0  0  0  0  0  0  0  0  0
   -8.3410   22.0470  -30.6500 C   0  0  0  0  0  0  0  0  0  0  0  0
   -7.0770   22.8610  -30.5530 C   0  0  0  0  0  0  0  0  0  0  0  0
   -6.7210   23.7380  -31.5920 C   0  0  0  0  0  0  0  0  0  0  0  0
   -5.5320   24.4700  -31.5240 C   0  0  0  0  0  0  0  0  0  0  0  0
   -4.6820   24.3280  -30.4230 C   0  0  0  0  0  0  0  0  0  0  0  0
   -3.5260   25.0380  -30.3580 N   0  0  0  0  0  0  0  0  0  0  0  0
   -2.6680   24.9280  -29.3090 C   0  0  0  0  0  0  0  0  0  0  0  0
   -1.6100   25.6130  -29.3070 O   0  0  0  0  0  0  0  0  0  0  0  0
   -2.9650   24.0540  -28.2420 C   0  0  0  0  0  0  0  0  0  0  0  0
   -2.0510   23.9100  -27.0480 C   0  0  0  0  0  0  0  0  0  0  0  0
   -1.0240   22.8930  -27.3120 N   0  0  0  0  0  0  0  0  0  0  0  0
   -0.8620   21.7560  -26.4000 C   0  0  0  0  0  0  0  0  0  0  0  0
   -0.1500   23.0130  -28.4510 C   0  0  0  0  0  0  0  0  0  0  0  0
    0.5920   24.0250  -28.5730 O   0  0  0  0  0  0  0  0  0  0  0  0
   -0.1640   22.0070  -29.4740 N   0  0  0  0  0  0  0  0  0  0  0  0
   -1.2930   21.6090  -30.2650 C   0  0  0  0  0  0  0  0  0  0  0  0
   -1.3010   21.9200  -31.6320 C   0  0  0  0  0  0  0  0  0  0  0  0
   -2.3920   21.5710  -32.4320 C   0  0  0  0  0  0  0  0  0  0  0  0
   -3.4930   20.9240  -31.8670 C   0  0  0  0  0  0  0  0  0  0  0  0
   -3.5070   20.6310  -30.5000 C   0  0  0  0  0  0  0  0  0  0  0  0
   -2.4150   20.9770  -29.6980 C   0  0  0  0  0  0  0  0  0  0  0  0
   -4.1570   23.3140  -28.2890 C   0  0  0  0  0  0  0  0  0  0  0  0
   -5.0240   23.4430  -29.3800 C   0  0  0  0  0  0  0  0  0  0  0  0
   -6.2180   22.7090  -29.4510 C   0  0  0  0  0  0  0  0  0  0  0  0
   -8.7712   20.3933  -31.9669 H   0  0  0  0  0  0  0  0  0  0  0  0
   -9.2817   21.9985  -32.5909 H   0  0  0  0  0  0  0  0  0  0  0  0
   -7.5432   21.5463  -32.5909 H   0  0  0  0  0  0  0  0  0  0  0  0
   -9.2044   22.6937  -30.4347 H   0  0  0  0  0  0  0  0  0  0  0  0
   -8.2889   21.2247  -29.9212 H   0  0  0  0  0  0  0  0  0  0  0  0
   -7.3821   23.8491  -32.4641 H   0  0  0  0  0  0  0  0  0  0  0  0
   -5.2645   25.1592  -32.3385 H   0  0  0  0  0  0  0  0  0  0  0  0
   -1.5628   24.8749  -26.8462 H   0  0  0  0  0  0  0  0  0  0  0  0
   -2.6465   23.5996  -26.1768 H   0  0  0  0  0  0  0  0  0  0  0  0
   -0.9125   22.1102  -25.3598 H   0  0  0  0  0  0  0  0  0  0  0  0
   -1.6652   21.0258  -26.5781 H   0  0  0  0  0  0  0  0  0  0  0  0
    0.1132   21.2792  -26.5781 H   0  0  0  0  0  0  0  0  0  0  0  0
   -0.4420   22.4426  -32.0780 H   0  0  0  0  0  0  0  0  0  0  0  0
   -2.3837   21.8058  -33.5066 H   0  0  0  0  0  0  0  0  0  0  0  0
   -4.3498   20.6447  -32.4978 H   0  0  0  0  0  0  0  0  0  0  0  0
   -4.3780   20.1277  -30.0549 H   0  0  0  0  0  0  0  0  0  0  0  0
   -2.4332   20.7545  -28.6209 H   0  0  0  0  0  0  0  0  0  0  0  0
   -4.4105   22.6303  -27.4654 H   0  0  0  0  0  0  0  0  0  0  0  0
   -6.4824   22.0125  -28.6417 H   0  0  0  0  0  0  0  0  0  0  0  0
  1  2  1  0
  2  3  1  0
  3  4  2  0
  4  5  1  0
  5  6  2  0
  6  7  1  0
  7  8  1  0
  8  9  2  0
  8 10  1  0
 10 11  1  0
 11 12  1  0
 12 13  1  0
 12 14  1  0
 14 15  2  0
 14 16  1  0
 16 17  1  0
 17 18  2  0
 18 19  1  0
 19 20  2  0
 20 21  1  0
 21 22  2  0
 10 23  2  0
 23 24  1  0
 24 25  2  0
 25  3  1  0
 24  6  1  0
 22 17  1  0
  1 26  1  0
  1 27  1  0
  1 28  1  0
  2 29  1  0
  2 30  1  0
  4 31  1  0
  5 32  1  0
 11 33  1  0
 11 34  1  0
 13 35  1  0
 13 36  1  0
 13 37  1  0
 18 38  1  0
 19 39  1  0
 20 40  1  0
 21 41  1  0
 22 42  1  0
 23 43  1  0
 25 44  1  0
M  CHG  2   7  -1  16  -1
M  END
>  <UniqueID>  (48) 
43

>  <SMILES>  (48) 
CCc1ccc2[n-]c(=O)c(CN(C)C(=O)[N-]c3ccccc3)cc2c1

>  <Energy>  (48) 
47.46696492304318

>  <Genealogy>  (48) 
CCc1ccc2[n-]c(=O)c(CN(C)C(=O)[N-]c3ccccc3)cc2c1 (protonated)
CCc1ccc2[n-]c(=O)c(CN(C)C(=O)[N-]c3ccccc3)cc2c1 (3D coordinates assigned)
CCc1ccc2[n-]c(=O)c(CN(C)C(=O)[N-]c3ccccc3)cc2c1 (optimized conformer: 47.46696492304318 kcal/mol)

>  <smiles>  (48) 
CCc1ccc2[nH]c(=O)c(CN(C)C(=O)Nc3ccccc3)cc2c1

>  <score_type>  (48) 
oracle

>  <origin>  (48) 
adg

>  <m_score__min__energy>  (48) 
-11.26

>  <m_primary>  (48) 
energy

$$$$
48:0
     RDKit          3D

 45 47  0  0  0  0  0  0  0  0999 V2000
   -6.1170   18.7700  -34.1580 C   0  0  0  0  0  0  0  0  0  0  0  0
   -6.2390   20.1080  -33.6920 O   0  0  0  0  0  0  0  0  0  0  0  0
   -7.2400   20.5590  -32.8210 C   0  0  0  0  0  0  0  0  0  0  0  0
   -8.5050   19.9410  -32.7540 C   0  0  0  0  0  0  0  0  0  0  0  0
   -9.4890   20.4350  -31.8940 C   0  0  0  0  0  0  0  0  0  0  0  0
   -9.2250   21.5440  -31.0940 C   0  0  0  0  0  0  0  0  0  0  0  0
   -7.9750   22.1610  -31.1450 C   0  0  0  0  0  0  0  0  0  0  0  0
   -6.9760   21.6730  -32.0030 C   0  0  0  0  0  0  0  0  0  0  0  0
   -5.6910   22.3120  -32.0280 N   0  0  0  0  0  0  0  0  0  0  0  0
   -4.4880   21.5050  -32.2800 C   0  0  0  0  0  0  0  0  0  0  0  0
   -3.2160   22.3000  -31.9710 C   0  0  0  0  0  0  0  0  0  0  0  0
   -3.3800   23.0030  -30.6940 N   0  0  0  0  0  0  0  0  0  0  0  0
   -2.6640   22.5070  -29.5480 C   0  0  0  0  0  0  0  0  0  0  0  0
   -2.8030   21.2960  -29.2240 O   0  0  0  0  0  0  0  0  0  0  0  0
   -1.7200   23.3320  -28.8340 N   0  0  0  0  0  0  0  0  0  0  0  0
   -1.8030   24.7950  -28.9320 C   0  0  0  0  0  0  0  0  0  0  0  0
   -0.8940   25.4900  -27.9130 C   0  0  0  0  0  0  0  0  0  0  0  0
    0.3850   24.8970  -27.8880 O   0  0  0  0  0  0  0  0  0  0  0  0
    0.2720   23.5910  -27.3660 C   0  0  0  0  0  0  0  0  0  0  0  0
   -0.4980   22.6860  -28.3280 C   0  0  0  0  0  0  0  0  0  0  0  0
   -4.5510   23.8760  -30.5020 C   0  0  0  0  0  0  0  0  0  0  0  0
   -5.5650   23.7250  -31.6460 C   0  0  0  0  0  0  0  0  0  0  0  0
   -6.0547   18.0866  -33.2983 H   0  0  0  0  0  0  0  0  0  0  0  0
   -6.9954   18.5127  -34.7681 H   0  0  0  0  0  0  0  0  0  0  0  0
   -5.2065   18.6758  -34.7681 H   0  0  0  0  0  0  0  0  0  0  0  0
   -8.7189   19.0642  -33.3828 H   0  0  0  0  0  0  0  0  0  0  0  0
  -10.4739   19.9472  -31.8487 H   0  0  0  0  0  0  0  0  0  0  0  0
  -10.0031   21.9338  -30.4212 H   0  0  0  0  0  0  0  0  0  0  0  0
   -7.7705   23.0351  -30.5093 H   0  0  0  0  0  0  0  0  0  0  0  0
   -4.5159   20.6095  -31.6417 H   0  0  0  0  0  0  0  0  0  0  0  0
   -4.4735   21.2220  -33.3429 H   0  0  0  0  0  0  0  0  0  0  0  0
   -2.3602   21.6121  -31.9042 H   0  0  0  0  0  0  0  0  0  0  0  0
   -3.0353   23.0311  -32.7728 H   0  0  0  0  0  0  0  0  0  0  0  0
   -1.5009   25.1010  -29.9445 H   0  0  0  0  0  0  0  0  0  0  0  0
   -2.8408   25.0918  -28.7202 H   0  0  0  0  0  0  0  0  0  0  0  0
   -0.7931   26.5508  -28.1859 H   0  0  0  0  0  0  0  0  0  0  0  0
   -1.3459   25.3895  -26.9152 H   0  0  0  0  0  0  0  0  0  0  0  0
    1.2790   23.1769  -27.2095 H   0  0  0  0  0  0  0  0  0  0  0  0
   -0.2751   23.6386  -26.4129 H   0  0  0  0  0  0  0  0  0  0  0  0
    0.1521   22.4389  -29.1803 H   0  0  0  0  0  0  0  0  0  0  0  0
   -0.7950   21.7806  -27.7785 H   0  0  0  0  0  0  0  0  0  0  0  0
   -5.0414   23.6114  -29.5536 H   0  0  0  0  0  0  0  0  0  0  0  0
   -4.2026   24.9193  -30.4876 H   0  0  0  0  0  0  0  0  0  0  0  0
   -6.5445   24.1009  -31.3155 H   0  0  0  0  0  0  0  0  0  0  0  0
   -5.2152   24.3022  -32.5146 H   0  0  0  0  0  0  0  0  0  0  0  0
  1  2  1  0
  2  3  1  0
  3  4  2  0
  4  5  1  0
  5  6  2  0
  6  7  1  0
  7  8  2  0
  8  9  1  0
  9 10  1  0
 10 11  1  0
 11 12  1  0
 12 13  1  0
 13 14  2  0
 13 15  1  0
 15 16  1  0
 16 17  1  0
 17 18  1  0
 18 19  1  0
 19 20  1  0
 12 21  1  0
 21 22  1  0
  8  3  1  0
 22  9  1  0
 20 15  1  0
  1 23  1  0
  1 24  1  0
  1 25  1  0
  4 26  1  0
  5 27  1  0
  6 28  1  0
  7 29  1  0
 10 30  1  0
 10 31  1  0
 11 32  1  0
 11 33  1  0
 16 34  1  0
 16 35  1  0
 17 36  1  0
 17 37  1  0
 19 38  1  0
 19 39  1  0
 20 40  1  0
 20 41  1  0
 21 42  1  0
 21 43  1  0
 22 44  1  0
 22 45  1  0
M  END
>  <UniqueID>  (49) 
44

>  <SMILES>  (49) 
COc1ccccc1N1CCN(C(=O)N2CCOCC2)CC1

>  <Energy>  (49) 
60.55531333070295

>  <Genealogy>  (49) 
COc1ccccc1N1CCN(C(=O)N2CCOCC2)CC1 (3D coordinates assigned)
COc1ccccc1N1CCN(C(=O)N2CCOCC2)CC1 (nonaromatic ring conformer: 60.55531333070295 kcal/mol)

>  <smiles>  (49) 
COc1ccccc1N1CCN(C(=O)N2CCOCC2)CC1

>  <score_type>  (49) 
oracle

>  <origin>  (49) 
adg

>  <m_score__min__energy>  (49) 
-7.0999999999999996

>  <m_primary>  (49) 
energy

$$$$
49:0
     RDKit          3D

 29 30  0  0  0  0  0  0  0  0999 V2000
   -3.0940   22.8640  -27.4560 C   0  0  0  0  0  0  0  0  0  0  0  0
   -3.9460   23.3490  -28.5810 C   0  0  0  0  0  0  0  0  0  0  0  0
   -4.2430   22.6540  -29.7370 C   0  0  0  0  0  0  0  0  0  0  0  0
   -5.0880   23.4080  -30.4640 N   0  0  0  0  0  0  0  0  0  0  0  0
   -5.7390   23.0030  -32.0200 S   0  0  0  0  0  0  0  0  0  0  0  0
   -6.5040   24.1720  -32.5730 O   0  0  0  0  0  0  0  0  0  0  0  0
   -4.6080   22.6730  -32.9520 O   0  0  0  0  0  0  0  0  0  0  0  0
   -6.8330   21.6330  -31.8590 C   0  0  0  0  0  0  0  0  0  0  0  0
   -6.3640   20.3360  -32.1160 C   0  0  0  0  0  0  0  0  0  0  0  0
   -7.2270   19.2430  -32.0040 C   0  0  0  0  0  0  0  0  0  0  0  0
   -8.5610   19.4380  -31.6330 C   0  0  0  0  0  0  0  0  0  0  0  0
   -9.3970   18.3770  -31.5240 F   0  0  0  0  0  0  0  0  0  0  0  0
   -9.0320   20.7280  -31.3730 C   0  0  0  0  0  0  0  0  0  0  0  0
   -8.1700   21.8250  -31.4850 C   0  0  0  0  0  0  0  0  0  0  0  0
   -5.3070   24.5270  -29.7400 C   0  0  0  0  0  0  0  0  0  0  0  0
   -6.1570   25.6760  -30.1850 C   0  0  0  0  0  0  0  0  0  0  0  0
   -4.6180   24.5170  -28.5810 N   0  0  0  0  0  0  0  0  0  0  0  0
   -3.5641   23.1316  -26.4982 H   0  0  0  0  0  0  0  0  0  0  0  0
   -2.9892   21.7709  -27.5202 H   0  0  0  0  0  0  0  0  0  0  0  0
   -2.1006   23.3320  -27.5202 H   0  0  0  0  0  0  0  0  0  0  0  0
   -3.8577   21.6616  -30.0139 H   0  0  0  0  0  0  0  0  0  0  0  0
   -5.3146   20.1793  -32.4063 H   0  0  0  0  0  0  0  0  0  0  0  0
   -6.8565   18.2276  -32.2080 H   0  0  0  0  0  0  0  0  0  0  0  0
  -10.0811   20.8812  -31.0801 H   0  0  0  0  0  0  0  0  0  0  0  0
   -8.5424   22.8394  -31.2792 H   0  0  0  0  0  0  0  0  0  0  0  0
   -6.5486   26.2053  -29.3038 H   0  0  0  0  0  0  0  0  0  0  0  0
   -5.5515   26.3677  -30.7891 H   0  0  0  0  0  0  0  0  0  0  0  0
   -6.9956   25.2994  -30.7891 H   0  0  0  0  0  0  0  0  0  0  0  0
   -4.6080   25.2540  -27.8420 H   0  0  0  0  0  0  0  0  0  0  0  0
  1  2  1  0
  2  3  2  0
  3  4  1  0
  4  5  1  0
  5  6  2  0
  5  7  2  0
  5  8  1  0
  8  9  2  0
  9 10  1  0
 10 11  2  0
 11 12  1  0
 11 13  1  0
 13 14  2  0
  4 15  1  0
 15 16  1  0
 15 17  2  0
 17  2  1  0
 14  8  1  0
  1 18  1  0
  1 19  1  0
  1 20  1  0
  3 21  1  0
  9 22  1  0
 10 23  1  0
 13 24  1  0
 14 25  1  0
 16 26  1  0
 16 27  1  0
 16 28  1  0
 17 29  1  0
M  CHG  1  17   1
M  END
>  <UniqueID>  (50) 
45

>  <SMILES>  (50) 
Cc1cn(S(=O)(=O)c2ccc(F)cc2)c(C)[nH+]1

>  <Energy>  (50) 
58.69760150190412

>  <Genealogy>  (50) 
Cc1cn(S(=O)(=O)c2ccc(F)cc2)c(C)[nH+]1 (protonated)
Cc1cn(S(=O)(=O)c2ccc(F)cc2)c(C)[nH+]1 (3D coordinates assigned)
Cc1cn(S(=O)(=O)c2ccc(F)cc2)c(C)[nH+]1 (optimized conformer: 58.69760150190412 kcal/mol)

>  <smiles>  (50) 
Cc1cn(S(=O)(=O)c2ccc(F)cc2)c(C)n1

>  <score_type>  (50) 
oracle

>  <origin>  (50) 
adg

>  <m_score__min__energy>  (50) 
-6.6200000000000001

>  <m_primary>  (50) 
energy

$$$$
