0:0
     RDKit          3D

 58 60  0  0  0  0  0  0  0  0999 V2000
   -2.3410   19.8130  -26.8700 C   0  0  0  0  0  0  0  0  0  0  0  0
   -2.8630   20.1740  -28.2640 C   0  0  0  0  0  0  0  0  0  0  0  0
   -2.7550   21.5830  -28.4770 N   0  0  0  0  0  0  0  0  0  0  0  0
   -3.8230   22.2870  -27.8650 C   0  0  0  0  0  0  0  0  0  0  0  0
   -1.4350   22.0380  -28.3410 C   0  0  0  0  0  0  0  0  0  0  0  0
   -0.4950   21.7350  -29.4580 C   0  0  0  0  0  0  0  0  0  0  0  0
   -1.0700   22.0220  -30.6700 O   0  0  0  0  0  0  0  0  0  0  0  0
   -0.7510   21.1410  -31.6870 C   0  0  0  0  0  0  0  0  0  0  0  0
   -1.6510   21.4510  -32.8780 C   0  0  0  0  0  0  0  0  0  0  0  0
   -2.9650   20.6660  -32.7520 C   0  0  0  0  0  0  0  0  0  0  0  0
   -3.5780   21.0470  -31.5220 N   0  0  0  0  0  0  0  0  0  0  0  0
   -4.9280   21.4110  -31.4930 C   0  0  0  0  0  0  0  0  0  0  0  0
   -5.8660   20.4300  -31.8440 C   0  0  0  0  0  0  0  0  0  0  0  0
   -5.4010   19.1730  -32.1830 C   0  0  0  0  0  0  0  0  0  0  0  0
   -6.2600   18.1520  -32.5360 C   0  0  0  0  0  0  0  0  0  0  0  0
   -7.5970   18.4200  -32.5400 C   0  0  0  0  0  0  0  0  0  0  0  0
   -8.0680   19.6840  -32.1990 C   0  0  0  0  0  0  0  0  0  0  0  0
   -7.2280   20.7190  -31.8430 C   0  0  0  0  0  0  0  0  0  0  0  0
   -7.6910   21.9510  -31.5060 N   0  0  0  0  0  0  0  0  0  0  0  0
   -9.1140   22.1490  -31.5490 C   0  0  0  0  0  0  0  0  0  0  0  0
   -6.7890   22.8800  -31.1720 C   0  0  0  0  0  0  0  0  0  0  0  0
   -7.2210   24.1380  -30.8110 C   0  0  0  0  0  0  0  0  0  0  0  0
   -6.3040   25.1150  -30.4490 C   0  0  0  0  0  0  0  0  0  0  0  0
   -4.9640   24.8960  -30.4280 C   0  0  0  0  0  0  0  0  0  0  0  0
   -4.5100   23.6220  -30.7920 C   0  0  0  0  0  0  0  0  0  0  0  0
   -3.1130   23.4280  -30.7390 N   0  0  0  0  0  0  0  0  0  0  0  0
   -5.4200   22.6510  -31.1530 C   0  0  0  0  0  0  0  0  0  0  0  0
   -2.9924   20.2635  -26.1066 H   0  0  0  0  0  0  0  0  0  0  0  0
   -2.3387   18.7194  -26.7512 H   0  0  0  0  0  0  0  0  0  0  0  0
   -1.3170   20.1968  -26.7512 H   0  0  0  0  0  0  0  0  0  0  0  0
   -2.2694   19.6443  -29.0236 H   0  0  0  0  0  0  0  0  0  0  0  0
   -3.9193   19.8771  -28.3419 H   0  0  0  0  0  0  0  0  0  0  0  0
   -3.7254   22.2227  -26.7712 H   0  0  0  0  0  0  0  0  0  0  0  0
   -3.7917   23.3421  -28.1745 H   0  0  0  0  0  0  0  0  0  0  0  0
   -4.7803   21.8423  -28.1745 H   0  0  0  0  0  0  0  0  0  0  0  0
   -1.4713   23.1313  -28.2255 H   0  0  0  0  0  0  0  0  0  0  0  0
   -1.0332   21.4926  -27.4743 H   0  0  0  0  0  0  0  0  0  0  0  0
    0.4150   22.3412  -29.3380 H   0  0  0  0  0  0  0  0  0  0  0  0
   -0.2478   20.6635  -29.4299 H   0  0  0  0  0  0  0  0  0  0  0  0
    0.3036   21.2672  -31.9731 H   0  0  0  0  0  0  0  0  0  0  0  0
   -0.9007   20.1031  -31.3547 H   0  0  0  0  0  0  0  0  0  0  0  0
   -1.8697   22.5288  -32.9003 H   0  0  0  0  0  0  0  0  0  0  0  0
   -1.1396   21.1585  -33.8069 H   0  0  0  0  0  0  0  0  0  0  0  0
   -3.6298   20.9097  -33.5938 H   0  0  0  0  0  0  0  0  0  0  0  0
   -2.7715   19.5833  -32.7684 H   0  0  0  0  0  0  0  0  0  0  0  0
   -3.0500   21.0640  -30.6010 H   0  0  0  0  0  0  0  0  0  0  0  0
   -4.3179   18.9815  -32.1711 H   0  0  0  0  0  0  0  0  0  0  0  0
   -5.8790   17.1558  -32.8050 H   0  0  0  0  0  0  0  0  0  0  0  0
   -8.3102   17.6291  -32.8155 H   0  0  0  0  0  0  0  0  0  0  0  0
   -9.1529   19.8653  -32.2138 H   0  0  0  0  0  0  0  0  0  0  0  0
   -9.5077   22.2038  -30.5233 H   0  0  0  0  0  0  0  0  0  0  0  0
   -9.3379   23.0869  -32.0783 H   0  0  0  0  0  0  0  0  0  0  0  0
   -9.5854   21.3078  -32.0783 H   0  0  0  0  0  0  0  0  0  0  0  0
   -8.2966   24.3686  -30.8098 H   0  0  0  0  0  0  0  0  0  0  0  0
   -6.6790   26.1099  -30.1669 H   0  0  0  0  0  0  0  0  0  0  0  0
   -4.2610   25.6900  -30.1359 H   0  0  0  0  0  0  0  0  0  0  0  0
   -2.6330   23.2670  -29.8190 H   0  0  0  0  0  0  0  0  0  0  0  0
   -2.4780   23.4350  -31.5710 H   0  0  0  0  0  0  0  0  0  0  0  0
  1  2  1  0
  2  3  1  0
  3  4  1  0
  3  5  1  0
  5  6  1  0
  6  7  1  0
  7  8  1  0
  8  9  1  0
  9 10  1  0
 10 11  1  0
 11 12  1  0
 12 13  2  0
 13 14  1  0
 14 15  2  0
 15 16  1  0
 16 17  2  0
 17 18  1  0
 18 19  2  0
 19 20  1  0
 19 21  1  0
 21 22  2  0
 22 23  1  0
 23 24  2  0
 24 25  1  0
 25 26  1  0
 25 27  2  0
 27 12  1  0
 18 13  1  0
 27 21  1  0
  1 28  1  0
  1 29  1  0
  1 30  1  0
  2 31  1  0
  2 32  1  0
  4 33  1  0
  4 34  1  0
  4 35  1  0
  5 36  1  0
  5 37  1  0
  6 38  1  0
  6 39  1  0
  8 40  1  0
  8 41  1  0
  9 42  1  0
  9 43  1  0
 10 44  1  0
 10 45  1  0
 11 46  1  0
 14 47  1  0
 15 48  1  0
 16 49  1  0
 17 50  1  0
 20 51  1  0
 20 52  1  0
 20 53  1  0
 22 54  1  0
 23 55  1  0
 24 56  1  0
 26 57  1  0
 26 58  1  0
M  CHG  1  19   1
M  END
>  <smiles>  (1) 
CCN(C)CCOCCCNc1c2ccccc2[n+](C)c2cccc(N)c12

>  <score_type>  (1) 
oracle

>  <origin>  (1) 
adg

>  <m_score__min__energy>  (1) 
-8.5199999999999996

>  <m_primary>  (1) 
energy

$$$$
1:0
     RDKit          3D

 20 20  0  0  0  0  0  0  0  0999 V2000
   -4.1010   24.7510  -29.7660 C   0  0  0  0  0  0  0  0  0  0  0  0
   -4.4050   24.6870  -31.1800 N   0  0  0  0  0  0  0  0  0  0  0  0
   -5.8460   24.4720  -31.2950 C   0  0  0  0  0  0  0  0  0  0  0  0
   -6.1950   23.1140  -31.7580 C   0  0  0  0  0  0  0  0  0  0  0  0
   -7.4850   22.6520  -31.6670 C   0  0  0  0  0  0  0  0  0  0  0  0
   -7.8160   21.3790  -32.0950 C   0  0  0  0  0  0  0  0  0  0  0  0
   -9.4810   20.7970  -31.9720 Cl  0  0  0  0  0  0  0  0  0  0  0  0
   -6.8280   20.5660  -32.6200 C   0  0  0  0  0  0  0  0  0  0  0  0
   -5.5130   21.0460  -32.7100 C   0  0  0  0  0  0  0  0  0  0  0  0
   -5.1720   22.3140  -32.2870 C   0  0  0  0  0  0  0  0  0  0  0  0
   -3.8900   22.7820  -32.3710 F   0  0  0  0  0  0  0  0  0  0  0  0
   -5.0152   24.5585  -29.1853 H   0  0  0  0  0  0  0  0  0  0  0  0
   -3.3434   23.9927  -29.5191 H   0  0  0  0  0  0  0  0  0  0  0  0
   -3.7134   25.7504  -29.5191 H   0  0  0  0  0  0  0  0  0  0  0  0
   -4.2080   25.6500  -31.5890 H   0  0  0  0  0  0  0  0  0  0  0  0
   -6.3037   24.6335  -30.3079 H   0  0  0  0  0  0  0  0  0  0  0  0
   -6.2241   25.1813  -32.0460 H   0  0  0  0  0  0  0  0  0  0  0  0
   -8.2660   23.3034  -31.2479 H   0  0  0  0  0  0  0  0  0  0  0  0
   -7.0716   19.5502  -32.9645 H   0  0  0  0  0  0  0  0  0  0  0  0
   -4.7327   20.3937  -33.1292 H   0  0  0  0  0  0  0  0  0  0  0  0
  1  2  1  0
  2  3  1  0
  3  4  1  0
  4  5  2  0
  5  6  1  0
  6  7  1  0
  6  8  2  0
  8  9  1  0
  9 10  2  0
 10 11  1  0
 10  4  1  0
  1 12  1  0
  1 13  1  0
  1 14  1  0
  2 15  1  0
  3 16  1  0
  3 17  1  0
  5 18  1  0
  8 19  1  0
  9 20  1  0
M  END
>  <smiles>  (2) 
CNCc1cc(Cl)ccc1F

>  <score_type>  (2) 
oracle

>  <origin>  (2) 
adg

>  <m_score__min__energy>  (2) 
-5.4699999999999998

>  <m_primary>  (2) 
energy

$$$$
2:0
     RDKit          3D

 43 44  0  0  0  0  0  0  0  0999 V2000
   -2.3480   25.0120  -26.8370 C   0  0  0  0  0  0  0  0  0  0  0  0
   -1.3480   25.5740  -27.8150 C   0  0  0  0  0  0  0  0  0  0  0  0
   -1.7050   25.3140  -29.1330 O   0  0  0  0  0  0  0  0  0  0  0  0
   -2.0410   23.9780  -29.3570 C   0  0  0  0  0  0  0  0  0  0  0  0
   -3.3310   23.9860  -30.1320 C   0  0  0  0  0  0  0  0  0  0  0  0
   -3.8610   25.2930  -30.3930 N   0  0  0  0  0  0  0  0  0  0  0  0
   -5.3140   25.2880  -30.4610 C   0  0  0  0  0  0  0  0  0  0  0  0
   -5.8560   23.9060  -30.3000 C   0  0  0  0  0  0  0  0  0  0  0  0
   -7.4220   23.8240  -31.2520 S   0  0  0  0  0  0  0  0  0  0  0  0
   -7.7580   22.1010  -31.6670 C   0  0  0  0  0  0  0  0  0  0  0  0
   -8.8820   21.3970  -31.4620 N   0  0  0  0  0  0  0  0  0  0  0  0
   -8.6600   20.1610  -31.9390 N   0  0  0  0  0  0  0  0  0  0  0  0
   -7.3980   20.1150  -32.4310 C   0  0  0  0  0  0  0  0  0  0  0  0
   -6.7030   18.9910  -33.0520 C   0  0  0  0  0  0  0  0  0  0  0  0
   -6.0990   18.9210  -34.2840 C   0  0  0  0  0  0  0  0  0  0  0  0
   -5.5200   17.7810  -34.6440 C   0  0  0  0  0  0  0  0  0  0  0  0
   -5.5610   16.7360  -33.7580 C   0  0  0  0  0  0  0  0  0  0  0  0
   -6.4620   17.3780  -32.3300 S   0  0  0  0  0  0  0  0  0  0  0  0
   -6.8180   21.3190  -32.2710 N   0  0  0  0  0  0  0  0  0  0  0  0
   -5.4780   21.7140  -32.6550 C   0  0  0  0  0  0  0  0  0  0  0  0
   -4.4360   21.0770  -31.7940 C   0  0  0  0  0  0  0  0  0  0  0  0
   -2.0047   25.2050  -25.8099 H   0  0  0  0  0  0  0  0  0  0  0  0
   -3.3246   25.4934  -26.9937 H   0  0  0  0  0  0  0  0  0  0  0  0
   -2.4445   23.9275  -26.9937 H   0  0  0  0  0  0  0  0  0  0  0  0
   -1.2853   26.6629  -27.6724 H   0  0  0  0  0  0  0  0  0  0  0  0
   -0.3783   25.0909  -27.6243 H   0  0  0  0  0  0  0  0  0  0  0  0
   -1.2513   23.4799  -29.9387 H   0  0  0  0  0  0  0  0  0  0  0  0
   -2.1499   23.4309  -28.4090 H   0  0  0  0  0  0  0  0  0  0  0  0
   -3.1550   23.4878  -31.0968 H   0  0  0  0  0  0  0  0  0  0  0  0
   -4.0734   23.4666  -29.5083 H   0  0  0  0  0  0  0  0  0  0  0  0
   -3.4900   26.0470  -29.7960 H   0  0  0  0  0  0  0  0  0  0  0  0
   -5.7132   25.9260  -29.6587 H   0  0  0  0  0  0  0  0  0  0  0  0
   -5.6185   25.6696  -31.4468 H   0  0  0  0  0  0  0  0  0  0  0  0
   -5.1375   23.1712  -30.6922 H   0  0  0  0  0  0  0  0  0  0  0  0
   -6.0314   23.6763  -29.2387 H   0  0  0  0  0  0  0  0  0  0  0  0
   -6.0950   19.7904  -34.9579 H   0  0  0  0  0  0  0  0  0  0  0  0
   -5.0242   17.6790  -35.6206 H   0  0  0  0  0  0  0  0  0  0  0  0
   -5.1385   15.7287  -33.8879 H   0  0  0  0  0  0  0  0  0  0  0  0
   -5.3059   21.4157  -33.6997 H   0  0  0  0  0  0  0  0  0  0  0  0
   -5.3981   22.8043  -32.5331 H   0  0  0  0  0  0  0  0  0  0  0  0
   -4.6902   21.2324  -30.7351 H   0  0  0  0  0  0  0  0  0  0  0  0
   -4.3938   19.9986  -32.0065 H   0  0  0  0  0  0  0  0  0  0  0  0
   -3.4569   21.5311  -32.0065 H   0  0  0  0  0  0  0  0  0  0  0  0
  1  2  1  0
  2  3  1  0
  3  4  1  0
  4  5  1  0
  5  6  1  0
  6  7  1  0
  7  8  1  0
  8  9  1  0
  9 10  1  0
 10 11  2  0
 11 12  1  0
 12 13  2  0
 13 14  1  0
 14 15  2  0
 15 16  1  0
 16 17  2  0
 17 18  1  0
 13 19  1  0
 19 20  1  0
 20 21  1  0
 19 10  1  0
 18 14  1  0
  1 22  1  0
  1 23  1  0
  1 24  1  0
  2 25  1  0
  2 26  1  0
  4 27  1  0
  4 28  1  0
  5 29  1  0
  5 30  1  0
  6 31  1  0
  7 32  1  0
  7 33  1  0
  8 34  1  0
  8 35  1  0
 15 36  1  0
 16 37  1  0
 17 38  1  0
 20 39  1  0
 20 40  1  0
 21 41  1  0
 21 42  1  0
 21 43  1  0
M  END
>  <smiles>  (3) 
CCOCCNCCSc1nnc(-c2cccs2)n1CC

>  <score_type>  (3) 
oracle

>  <origin>  (3) 
adg

>  <m_score__min__energy>  (3) 
-8.3100000000000005

>  <m_primary>  (3) 
energy

$$$$
3:0
     RDKit          3D

 63 65  0  0  0  0  0  0  0  0999 V2000
   -1.8980   25.5420  -26.7160 C   0  0  0  0  0  0  0  0  0  0  0  0
   -1.0800   26.1000  -27.8980 C   0  0  0  0  0  0  0  0  0  0  0  0
   -1.6050   25.5790  -29.0910 O   0  0  0  0  0  0  0  0  0  0  0  0
   -2.1300   24.3250  -28.9160 C   0  0  0  0  0  0  0  0  0  0  0  0
   -3.4470   24.0700  -29.5590 C   0  0  0  0  0  0  0  0  0  0  0  0
   -3.8620   25.0730  -30.4280 N   0  0  0  0  0  0  0  0  0  0  0  0
   -5.1420   25.2710  -30.9190 C   0  0  0  0  0  0  0  0  0  0  0  0
   -6.2870   24.5510  -30.3250 C   0  0  0  0  0  0  0  0  0  0  0  0
   -6.6780   23.2160  -30.7980 C   0  0  0  0  0  0  0  0  0  0  0  0
   -7.2490   23.0010  -32.0010 O   0  0  0  0  0  0  0  0  0  0  0  0
   -8.4640   22.4400  -31.9850 C   0  0  0  0  0  0  0  0  0  0  0  0
   -8.4850   21.1430  -31.1160 C   0  0  0  0  0  0  0  0  0  0  0  0
   -7.9090   20.0970  -32.0040 C   0  0  0  0  0  0  0  0  0  0  0  0
   -6.8080   20.4560  -32.8220 N   0  0  0  0  0  0  0  0  0  0  0  0
   -5.6300   19.6850  -33.0190 C   0  0  0  0  0  0  0  0  0  0  0  0
   -4.3900   20.2750  -32.8420 C   0  0  0  0  0  0  0  0  0  0  0  0
   -4.3750   21.6000  -32.4890 C   0  0  0  0  0  0  0  0  0  0  0  0
   -3.1740   22.2560  -32.2970 C   0  0  0  0  0  0  0  0  0  0  0  0
   -2.0290   21.5180  -32.4780 C   0  0  0  0  0  0  0  0  0  0  0  0
   -2.0380   20.1770  -32.8360 C   0  0  0  0  0  0  0  0  0  0  0  0
   -3.2410   19.5330  -33.0230 C   0  0  0  0  0  0  0  0  0  0  0  0
   -3.2350   18.2380  -33.3700 N   0  0  0  0  0  0  0  0  0  0  0  0
   -2.0860   17.4230  -33.5640 C   0  0  0  0  0  0  0  0  0  0  0  0
   -4.4510   17.6600  -33.5440 C   0  0  0  0  0  0  0  0  0  0  0  0
   -4.5350   16.3240  -33.8970 C   0  0  0  0  0  0  0  0  0  0  0  0
   -5.7500   15.6780  -34.0820 C   0  0  0  0  0  0  0  0  0  0  0  0
   -6.9290   16.3690  -33.9130 C   0  0  0  0  0  0  0  0  0  0  0  0
   -6.8410   17.7140  -33.5570 C   0  0  0  0  0  0  0  0  0  0  0  0
   -5.6330   18.3550  -33.3750 C   0  0  0  0  0  0  0  0  0  0  0  0
   -1.4358   25.8573  -25.7689 H   0  0  0  0  0  0  0  0  0  0  0  0
   -2.9270   25.9273  -26.7679 H   0  0  0  0  0  0  0  0  0  0  0  0
   -1.9148   24.4434  -26.7679 H   0  0  0  0  0  0  0  0  0  0  0  0
   -1.1489   27.1978  -27.9110 H   0  0  0  0  0  0  0  0  0  0  0  0
   -0.0238   25.8107  -27.7941 H   0  0  0  0  0  0  0  0  0  0  0  0
   -1.4108   23.5998  -29.3245 H   0  0  0  0  0  0  0  0  0  0  0  0
   -2.3059   24.2272  -27.8346 H   0  0  0  0  0  0  0  0  0  0  0  0
   -3.3776   23.1298  -30.1257 H   0  0  0  0  0  0  0  0  0  0  0  0
   -4.1903   24.0265  -28.7493 H   0  0  0  0  0  0  0  0  0  0  0  0
   -3.1060   25.6770  -30.8320 H   0  0  0  0  0  0  0  0  0  0  0  0
   -5.3569   26.3451  -30.8179 H   0  0  0  0  0  0  0  0  0  0  0  0
   -5.0864   24.8561  -31.9362 H   0  0  0  0  0  0  0  0  0  0  0  0
   -6.0678   24.4491  -29.2519 H   0  0  0  0  0  0  0  0  0  0  0  0
   -7.1427   25.1718  -30.6289 H   0  0  0  0  0  0  0  0  0  0  0  0
   -5.7606   22.6092  -30.7852 H   0  0  0  0  0  0  0  0  0  0  0  0
   -7.5058   22.9743  -30.1151 H   0  0  0  0  0  0  0  0  0  0  0  0
   -9.1845   23.1600  -31.5697 H   0  0  0  0  0  0  0  0  0  0  0  0
   -8.7318   22.1681  -33.0167 H   0  0  0  0  0  0  0  0  0  0  0  0
   -7.8703   21.2691  -30.2126 H   0  0  0  0  0  0  0  0  0  0  0  0
   -9.4961   20.8875  -30.7661 H   0  0  0  0  0  0  0  0  0  0  0  0
   -7.5832   19.2651  -31.3623 H   0  0  0  0  0  0  0  0  0  0  0  0
   -8.7158   19.8618  -32.7138 H   0  0  0  0  0  0  0  0  0  0  0  0
   -6.8160   21.3820  -33.3590 H   0  0  0  0  0  0  0  0  0  0  0  0
   -5.3227   22.1428  -32.3581 H   0  0  0  0  0  0  0  0  0  0  0  0
   -3.1363   23.3180  -32.0129 H   0  0  0  0  0  0  0  0  0  0  0  0
   -1.0581   22.0141  -32.3321 H   0  0  0  0  0  0  0  0  0  0  0  0
   -1.0915   19.6327  -32.9694 H   0  0  0  0  0  0  0  0  0  0  0  0
   -1.6743   17.1310  -32.5866 H   0  0  0  0  0  0  0  0  0  0  0  0
   -2.3670   16.5212  -34.1277 H   0  0  0  0  0  0  0  0  0  0  0  0
   -1.3278   17.9863  -34.1277 H   0  0  0  0  0  0  0  0  0  0  0  0
   -3.6050   15.7533  -34.0360 H   0  0  0  0  0  0  0  0  0  0  0  0
   -5.7707   14.6148  -34.3634 H   0  0  0  0  0  0  0  0  0  0  0  0
   -7.9034   15.8783  -34.0536 H   0  0  0  0  0  0  0  0  0  0  0  0
   -7.7700   18.2859  -33.4159 H   0  0  0  0  0  0  0  0  0  0  0  0
  1  2  1  0
  2  3  1  0
  3  4  1  0
  4  5  1  0
  5  6  1  0
  6  7  1  0
  7  8  1  0
  8  9  1  0
  9 10  1  0
 10 11  1  0
 11 12  1  0
 12 13  1  0
 13 14  1  0
 14 15  1  0
 15 16  2  0
 16 17  1  0
 17 18  2  0
 18 19  1  0
 19 20  2  0
 20 21  1  0
 21 22  2  0
 22 23  1  0
 22 24  1  0
 24 25  2  0
 25 26  1  0
 26 27  2  0
 27 28  1  0
 28 29  2  0
 29 15  1  0
 21 16  1  0
 29 24  1  0
  1 30  1  0
  1 31  1  0
  1 32  1  0
  2 33  1  0
  2 34  1  0
  4 35  1  0
  4 36  1  0
  5 37  1  0
  5 38  1  0
  6 39  1  0
  7 40  1  0
  7 41  1  0
  8 42  1  0
  8 43  1  0
  9 44  1  0
  9 45  1  0
 11 46  1  0
 11 47  1  0
 12 48  1  0
 12 49  1  0
 13 50  1  0
 13 51  1  0
 14 52  1  0
 17 53  1  0
 18 54  1  0
 19 55  1  0
 20 56  1  0
 23 57  1  0
 23 58  1  0
 23 59  1  0
 25 60  1  0
 26 61  1  0
 27 62  1  0
 28 63  1  0
M  CHG  1  22   1
M  END
>  <smiles>  (4) 
CCOCCNCCCOCCCNc1c2ccccc2[n+](C)c2ccccc12

>  <score_type>  (4) 
oracle

>  <origin>  (4) 
adg

>  <m_score__min__energy>  (4) 
-9.2699999999999996

>  <m_primary>  (4) 
energy

$$$$
4:0
     RDKit          3D

 27 29  0  0  0  0  0  0  0  0999 V2000
   -9.2410   19.3060  -32.7040 C   0  0  0  0  0  0  0  0  0  0  0  0
   -8.0930   20.1880  -32.4830 N   0  0  0  0  0  0  0  0  0  0  0  0
   -8.1330   21.3350  -31.7720 C   0  0  0  0  0  0  0  0  0  0  0  0
   -6.8690   21.8900  -31.7840 C   0  0  0  0  0  0  0  0  0  0  0  0
   -6.3900   23.0480  -31.2090 C   0  0  0  0  0  0  0  0  0  0  0  0
   -7.2370   23.8550  -30.4790 C   0  0  0  0  0  0  0  0  0  0  0  0
   -6.6980   25.0000  -29.9310 C   0  0  0  0  0  0  0  0  0  0  0  0
   -5.3630   25.2930  -30.1220 C   0  0  0  0  0  0  0  0  0  0  0  0
   -4.5400   24.4840  -30.8450 N   0  0  0  0  0  0  0  0  0  0  0  0
   -5.0570   23.3480  -31.3970 C   0  0  0  0  0  0  0  0  0  0  0  0
   -4.2660   22.5000  -32.1350 C   0  0  0  0  0  0  0  0  0  0  0  0
   -4.7320   21.3380  -32.7160 C   0  0  0  0  0  0  0  0  0  0  0  0
   -6.0850   21.0310  -32.5270 C   0  0  0  0  0  0  0  0  0  0  0  0
   -6.8550   20.0120  -32.9370 N   0  0  0  0  0  0  0  0  0  0  0  0
   -6.4040   18.8830  -33.7520 C   0  0  0  0  0  0  0  0  0  0  0  0
   -9.6525   18.9898  -31.7341 H   0  0  0  0  0  0  0  0  0  0  0  0
  -10.0136   19.8451  -33.2719 H   0  0  0  0  0  0  0  0  0  0  0  0
   -8.9192   18.4206  -33.2719 H   0  0  0  0  0  0  0  0  0  0  0  0
   -9.0180   21.7540  -31.2708 H   0  0  0  0  0  0  0  0  0  0  0  0
   -8.2971   23.5965  -30.3398 H   0  0  0  0  0  0  0  0  0  0  0  0
   -7.3318   25.6793  -29.3420 H   0  0  0  0  0  0  0  0  0  0  0  0
   -4.9503   26.2098  -29.6757 H   0  0  0  0  0  0  0  0  0  0  0  0
   -3.2060   22.7612  -32.2696 H   0  0  0  0  0  0  0  0  0  0  0  0
   -4.0702   20.6826  -33.3012 H   0  0  0  0  0  0  0  0  0  0  0  0
   -6.0768   18.0639  -33.0947 H   0  0  0  0  0  0  0  0  0  0  0  0
   -7.2322   18.5351  -34.3869 H   0  0  0  0  0  0  0  0  0  0  0  0
   -5.5641   19.2015  -34.3869 H   0  0  0  0  0  0  0  0  0  0  0  0
  1  2  1  0
  2  3  1  0
  3  4  2  0
  4  5  1  0
  5  6  2  0
  6  7  1  0
  7  8  2  0
  8  9  1  0
  9 10  2  0
 10 11  1  0
 11 12  2  0
 12 13  1  0
 13 14  2  0
 14 15  1  0
 14  2  1  0
 13  4  1  0
 10  5  1  0
  1 16  1  0
  1 17  1  0
  1 18  1  0
  3 19  1  0
  6 20  1  0
  7 21  1  0
  8 22  1  0
 11 23  1  0
 12 24  1  0
 15 25  1  0
 15 26  1  0
 15 27  1  0
M  CHG  1  14   1
M  END
>  <smiles>  (5) 
Cn1cc2c3cccnc3ccc2[n+]1C

>  <score_type>  (5) 
oracle

>  <origin>  (5) 
adg

>  <m_score__min__energy>  (5) 
-6.8099999999999996

>  <m_primary>  (5) 
energy

$$$$
5:0
     RDKit          3D

 57 59  0  0  0  0  0  0  0  0999 V2000
   -6.2400   25.3000  -29.4190 C   0  0  0  0  0  0  0  0  0  0  0  0
   -5.3810   25.9800  -30.4930 C   0  0  0  0  0  0  0  0  0  0  0  0
   -4.2590   25.2520  -30.6210 O   0  0  0  0  0  0  0  0  0  0  0  0
   -4.1950   23.9550  -30.2690 C   0  0  0  0  0  0  0  0  0  0  0  0
   -3.1520   23.5490  -29.2730 C   0  0  0  0  0  0  0  0  0  0  0  0
   -3.3200   22.2740  -28.7910 O   0  0  0  0  0  0  0  0  0  0  0  0
   -2.5770   21.2870  -29.3730 C   0  0  0  0  0  0  0  0  0  0  0  0
   -1.5610   21.8660  -30.3140 C   0  0  0  0  0  0  0  0  0  0  0  0
   -1.1970   20.9170  -31.3610 N   0  0  0  0  0  0  0  0  0  0  0  0
   -2.2140   20.7280  -32.3410 C   0  0  0  0  0  0  0  0  0  0  0  0
   -3.1880   21.8170  -32.5370 C   0  0  0  0  0  0  0  0  0  0  0  0
   -4.3430   21.5930  -33.3550 N   0  0  0  0  0  0  0  0  0  0  0  0
   -5.4270   20.7470  -33.0570 C   0  0  0  0  0  0  0  0  0  0  0  0
   -6.5690   21.3670  -32.5230 C   0  0  0  0  0  0  0  0  0  0  0  0
   -6.5580   22.7540  -32.3490 C   0  0  0  0  0  0  0  0  0  0  0  0
   -7.6480   23.4360  -31.8390 C   0  0  0  0  0  0  0  0  0  0  0  0
   -8.7590   22.7000  -31.5040 C   0  0  0  0  0  0  0  0  0  0  0  0
   -8.7790   21.3260  -31.6750 C   0  0  0  0  0  0  0  0  0  0  0  0
   -7.6900   20.6270  -32.1850 C   0  0  0  0  0  0  0  0  0  0  0  0
   -7.7400   19.2740  -32.3530 N   0  0  0  0  0  0  0  0  0  0  0  0
   -8.9140   18.5490  -31.9700 C   0  0  0  0  0  0  0  0  0  0  0  0
   -6.6400   18.6620  -32.8720 C   0  0  0  0  0  0  0  0  0  0  0  0
   -6.6230   17.3030  -33.0940 C   0  0  0  0  0  0  0  0  0  0  0  0
   -5.5190   16.6500  -33.6470 C   0  0  0  0  0  0  0  0  0  0  0  0
   -5.4980   14.7730  -33.9520 Br  0  0  0  0  0  0  0  0  0  0  0  0
   -4.4110   17.3820  -33.9830 C   0  0  0  0  0  0  0  0  0  0  0  0
   -4.4360   18.7280  -33.7600 C   0  0  0  0  0  0  0  0  0  0  0  0
   -5.5010   19.3980  -33.2180 C   0  0  0  0  0  0  0  0  0  0  0  0
   -5.8761   25.5881  -28.4217 H   0  0  0  0  0  0  0  0  0  0  0  0
   -7.2874   25.6164  -29.5326 H   0  0  0  0  0  0  0  0  0  0  0  0
   -6.1725   24.2080  -29.5326 H   0  0  0  0  0  0  0  0  0  0  0  0
   -5.9242   26.0073  -31.4491 H   0  0  0  0  0  0  0  0  0  0  0  0
   -5.1451   27.0159  -30.2077 H   0  0  0  0  0  0  0  0  0  0  0  0
   -5.1738   23.6812  -29.8482 H   0  0  0  0  0  0  0  0  0  0  0  0
   -3.9110   23.4321  -31.1941 H   0  0  0  0  0  0  0  0  0  0  0  0
   -2.1661   23.6110  -29.7568 H   0  0  0  0  0  0  0  0  0  0  0  0
   -3.2405   24.2326  -28.4158 H   0  0  0  0  0  0  0  0  0  0  0  0
   -2.0577   20.7170  -28.5885 H   0  0  0  0  0  0  0  0  0  0  0  0
   -3.2502   20.6301  -29.9433 H   0  0  0  0  0  0  0  0  0  0  0  0
   -1.9807   22.7692  -30.7809 H   0  0  0  0  0  0  0  0  0  0  0  0
   -0.6556   22.1066  -29.7375 H   0  0  0  0  0  0  0  0  0  0  0  0
   -0.9210   20.0280  -30.9330 H   0  0  0  0  0  0  0  0  0  0  0  0
   -1.7132   20.5577  -33.3055 H   0  0  0  0  0  0  0  0  0  0  0  0
   -2.8115   19.8856  -31.9625 H   0  0  0  0  0  0  0  0  0  0  0  0
   -3.5532   22.1028  -31.5395 H   0  0  0  0  0  0  0  0  0  0  0  0
   -2.6190   22.5744  -33.0961 H   0  0  0  0  0  0  0  0  0  0  0  0
   -4.3890   22.1150  -34.2760 H   0  0  0  0  0  0  0  0  0  0  0  0
   -5.6561   23.3196  -32.6258 H   0  0  0  0  0  0  0  0  0  0  0  0
   -7.6262   24.5278  -31.7064 H   0  0  0  0  0  0  0  0  0  0  0  0
   -9.6441   23.2090  -31.0946 H   0  0  0  0  0  0  0  0  0  0  0  0
   -9.6862   20.7689  -31.3983 H   0  0  0  0  0  0  0  0  0  0  0  0
   -8.9786   18.5091  -30.8726 H   0  0  0  0  0  0  0  0  0  0  0  0
   -9.8045   19.0547  -32.3716 H   0  0  0  0  0  0  0  0  0  0  0  0
   -8.8607   17.5263  -32.3716 H   0  0  0  0  0  0  0  0  0  0  0  0
   -7.5104   16.7107  -32.8263 H   0  0  0  0  0  0  0  0  0  0  0  0
   -3.5254   16.8981  -34.4206 H   0  0  0  0  0  0  0  0  0  0  0  0
   -3.5446   19.3120  -34.0327 H   0  0  0  0  0  0  0  0  0  0  0  0
  1  2  1  0
  2  3  1  0
  3  4  1  0
  4  5  1  0
  5  6  1  0
  6  7  1  0
  7  8  1  0
  8  9  1  0
  9 10  1  0
 10 11  1  0
 11 12  1  0
 12 13  1  0
 13 14  2  0
 14 15  1  0
 15 16  2  0
 16 17  1  0
 17 18  2  0
 18 19  1  0
 19 20  2  0
 20 21  1  0
 20 22  1  0
 22 23  2  0
 23 24  1  0
 24 25  1  0
 24 26  2  0
 26 27  1  0
 27 28  2  0
 28 13  1  0
 19 14  1  0
 28 22  1  0
  1 29  1  0
  1 30  1  0
  1 31  1  0
  2 32  1  0
  2 33  1  0
  4 34  1  0
  4 35  1  0
  5 36  1  0
  5 37  1  0
  7 38  1  0
  7 39  1  0
  8 40  1  0
  8 41  1  0
  9 42  1  0
 10 43  1  0
 10 44  1  0
 11 45  1  0
 11 46  1  0
 12 47  1  0
 15 48  1  0
 16 49  1  0
 17 50  1  0
 18 51  1  0
 21 52  1  0
 21 53  1  0
 21 54  1  0
 23 55  1  0
 26 56  1  0
 27 57  1  0
M  CHG  1  20   1
M  END
>  <smiles>  (6) 
CCOCCOCCNCCNc1c2ccccc2[n+](C)c2cc(Br)ccc12

>  <score_type>  (6) 
oracle

>  <origin>  (6) 
adg

>  <m_score__min__energy>  (6) 
-9.7799999999999994

>  <m_primary>  (6) 
energy

$$$$
6:0
     RDKit          3D

 50 52  0  0  0  0  0  0  0  0999 V2000
   -5.8020   18.6240  -34.3910 C   0  0  0  0  0  0  0  0  0  0  0  0
   -6.0030   19.8270  -33.5130 C   0  0  0  0  0  0  0  0  0  0  0  0
   -4.8790   20.5160  -33.1140 C   0  0  0  0  0  0  0  0  0  0  0  0
   -5.0410   21.6190  -32.3050 C   0  0  0  0  0  0  0  0  0  0  0  0
   -6.3280   21.9940  -31.9250 C   0  0  0  0  0  0  0  0  0  0  0  0
   -7.4570   21.3110  -32.3160 C   0  0  0  0  0  0  0  0  0  0  0  0
   -7.2910   20.2120  -33.1230 C   0  0  0  0  0  0  0  0  0  0  0  0
   -8.6500   21.9830  -31.6710 C   0  0  0  0  0  0  0  0  0  0  0  0
   -7.9320   22.5190  -30.4010 C   0  0  0  0  0  0  0  0  0  0  0  0
   -6.7680   23.1030  -31.1090 N   0  0  0  0  0  0  0  0  0  0  0  0
   -6.1830   24.3920  -30.9840 C   0  0  0  0  0  0  0  0  0  0  0  0
   -4.9340   24.4800  -30.2080 C   0  0  0  0  0  0  0  0  0  0  0  0
   -3.8840   25.0640  -30.5420 O   0  0  0  0  0  0  0  0  0  0  0  0
   -4.9090   23.8250  -28.9300 N   0  0  0  0  0  0  0  0  0  0  0  0
   -3.6680   23.9230  -28.1820 C   0  0  0  0  0  0  0  0  0  0  0  0
   -4.0110   24.5470  -26.8350 C   0  0  0  0  0  0  0  0  0  0  0  0
   -2.8440   25.3000  -26.3140 C   0  0  0  0  0  0  0  0  0  0  0  0
   -1.6120   25.1230  -27.0590 N   0  0  0  0  0  0  0  0  0  0  0  0
   -0.8120   26.3160  -27.1320 C   0  0  0  0  0  0  0  0  0  0  0  0
    0.6350   25.9480  -27.0740 C   0  0  0  0  0  0  0  0  0  0  0  0
    0.9540   24.8820  -27.9120 O   0  0  0  0  0  0  0  0  0  0  0  0
    0.2580   23.7340  -27.5780 C   0  0  0  0  0  0  0  0  0  0  0  0
   -0.8420   23.9980  -26.5700 C   0  0  0  0  0  0  0  0  0  0  0  0
   -5.6531   17.7329  -33.7635 H   0  0  0  0  0  0  0  0  0  0  0  0
   -6.6887   18.4813  -35.0261 H   0  0  0  0  0  0  0  0  0  0  0  0
   -4.9170   18.7773  -35.0261 H   0  0  0  0  0  0  0  0  0  0  0  0
   -3.8770   20.1934  -33.4334 H   0  0  0  0  0  0  0  0  0  0  0  0
   -4.1679   22.1948  -31.9642 H   0  0  0  0  0  0  0  0  0  0  0  0
   -8.1659   19.6373  -33.4611 H   0  0  0  0  0  0  0  0  0  0  0  0
   -9.0587   22.7934  -32.2925 H   0  0  0  0  0  0  0  0  0  0  0  0
   -9.5291   21.3451  -31.4969 H   0  0  0  0  0  0  0  0  0  0  0  0
   -8.5254   23.2747  -29.8655 H   0  0  0  0  0  0  0  0  0  0  0  0
   -7.7186   21.7922  -29.6033 H   0  0  0  0  0  0  0  0  0  0  0  0
   -5.9719   24.7618  -31.9982 H   0  0  0  0  0  0  0  0  0  0  0  0
   -6.9157   24.9882  -30.4204 H   0  0  0  0  0  0  0  0  0  0  0  0
   -5.7540   23.3200  -28.6020 H   0  0  0  0  0  0  0  0  0  0  0  0
   -3.2344   22.9227  -28.0360 H   0  0  0  0  0  0  0  0  0  0  0  0
   -2.9299   24.5339  -28.7223 H   0  0  0  0  0  0  0  0  0  0  0  0
   -4.8623   25.2329  -26.9572 H   0  0  0  0  0  0  0  0  0  0  0  0
   -4.2738   23.7501  -26.1238 H   0  0  0  0  0  0  0  0  0  0  0  0
   -3.0973   26.3704  -26.3247 H   0  0  0  0  0  0  0  0  0  0  0  0
   -2.6507   24.9042  -25.3060 H   0  0  0  0  0  0  0  0  0  0  0  0
   -1.0198   26.8399  -28.0766 H   0  0  0  0  0  0  0  0  0  0  0  0
   -1.0575   26.9751  -26.2863 H   0  0  0  0  0  0  0  0  0  0  0  0
    1.2323   26.8218  -27.3736 H   0  0  0  0  0  0  0  0  0  0  0  0
    0.8569   25.6369  -26.0425 H   0  0  0  0  0  0  0  0  0  0  0  0
   -0.1920   23.3157  -28.4904 H   0  0  0  0  0  0  0  0  0  0  0  0
    0.9701   23.0311  -27.1209 H   0  0  0  0  0  0  0  0  0  0  0  0
   -1.4874   23.1122  -26.4762 H   0  0  0  0  0  0  0  0  0  0  0  0
   -0.4182   24.2170  -25.5788 H   0  0  0  0  0  0  0  0  0  0  0  0
  1  2  1  0
  2  3  2  0
  3  4  1  0
  4  5  2  0
  5  6  1  0
  6  7  2  0
  6  8  1  0
  8  9  1  0
  9 10  1  0
 10 11  1  0
 11 12  1  0
 12 13  2  0
 12 14  1  0
 14 15  1  0
 15 16  1  0
 16 17  1  0
 17 18  1  0
 18 19  1  0
 19 20  1  0
 20 21  1  0
 21 22  1  0
 22 23  1  0
  7  2  1  0
 23 18  1  0
 10  5  1  0
  1 24  1  0
  1 25  1  0
  1 26  1  0
  3 27  1  0
  4 28  1  0
  7 29  1  0
  8 30  1  0
  8 31  1  0
  9 32  1  0
  9 33  1  0
 11 34  1  0
 11 35  1  0
 14 36  1  0
 15 37  1  0
 15 38  1  0
 16 39  1  0
 16 40  1  0
 17 41  1  0
 17 42  1  0
 19 43  1  0
 19 44  1  0
 20 45  1  0
 20 46  1  0
 22 47  1  0
 22 48  1  0
 23 49  1  0
 23 50  1  0
M  END
>  <smiles>  (7) 
Cc1ccc2c(c1)CCN2CC(=O)NCCCN1CCOCC1

>  <score_type>  (7) 
oracle

>  <origin>  (7) 
adg

>  <m_score__min__energy>  (7) 
-8.8000000000000007

>  <m_primary>  (7) 
energy

$$$$
7:0
     RDKit          3D

 49 51  0  0  0  0  0  0  0  0999 V2000
   -1.7660   25.7320  -26.5470 C   0  0  0  0  0  0  0  0  0  0  0  0
   -0.9430   26.0500  -27.7650 C   0  0  0  0  0  0  0  0  0  0  0  0
   -1.5910   25.8480  -28.9640 O   0  0  0  0  0  0  0  0  0  0  0  0
   -2.0840   24.5450  -29.0080 C   0  0  0  0  0  0  0  0  0  0  0  0
   -3.5810   24.5510  -29.2410 C   0  0  0  0  0  0  0  0  0  0  0  0
   -3.9570   25.0670  -30.4600 O   0  0  0  0  0  0  0  0  0  0  0  0
   -5.0050   24.3940  -30.9800 C   0  0  0  0  0  0  0  0  0  0  0  0
   -4.8210   22.9460  -31.3460 C   0  0  0  0  0  0  0  0  0  0  0  0
   -5.5660   22.5680  -32.5640 N   0  0  0  0  0  0  0  0  0  0  0  0
   -5.7180   21.1670  -32.7450 C   0  0  0  0  0  0  0  0  0  0  0  0
   -4.5540   20.4940  -33.1530 C   0  0  0  0  0  0  0  0  0  0  0  0
   -3.3650   21.1740  -33.3040 C   0  0  0  0  0  0  0  0  0  0  0  0
   -2.1870   20.5430  -33.7020 C   0  0  0  0  0  0  0  0  0  0  0  0
   -2.2420   19.1960  -33.9470 C   0  0  0  0  0  0  0  0  0  0  0  0
   -3.4230   18.5320  -33.7960 C   0  0  0  0  0  0  0  0  0  0  0  0
   -4.6110   19.1500  -33.3970 C   0  0  0  0  0  0  0  0  0  0  0  0
   -5.7310   18.4050  -33.2680 N   0  0  0  0  0  0  0  0  0  0  0  0
   -5.6260   17.0110  -33.5620 C   0  0  0  0  0  0  0  0  0  0  0  0
   -6.8370   19.0510  -32.8740 C   0  0  0  0  0  0  0  0  0  0  0  0
   -7.9910   18.3260  -32.7000 C   0  0  0  0  0  0  0  0  0  0  0  0
   -9.1760   18.9300  -32.2590 C   0  0  0  0  0  0  0  0  0  0  0  0
   -9.1530   20.2800  -32.0000 C   0  0  0  0  0  0  0  0  0  0  0  0
   -7.9960   21.0050  -32.1750 C   0  0  0  0  0  0  0  0  0  0  0  0
   -8.0310   22.8320  -31.6630 Br  0  0  0  0  0  0  0  0  0  0  0  0
   -6.8370   20.4220  -32.6110 C   0  0  0  0  0  0  0  0  0  0  0  0
   -1.1832   25.9572  -25.6417 H   0  0  0  0  0  0  0  0  0  0  0  0
   -2.6821   26.3409  -26.5543 H   0  0  0  0  0  0  0  0  0  0  0  0
   -2.0347   24.6653  -26.5543 H   0  0  0  0  0  0  0  0  0  0  0  0
   -0.6439   27.1072  -27.7105 H   0  0  0  0  0  0  0  0  0  0  0  0
   -0.0877   25.3583  -27.7525 H   0  0  0  0  0  0  0  0  0  0  0  0
   -1.5925   23.9996  -29.8271 H   0  0  0  0  0  0  0  0  0  0  0  0
   -1.8759   24.0535  -28.0462 H   0  0  0  0  0  0  0  0  0  0  0  0
   -3.9449   23.5149  -29.1772 H   0  0  0  0  0  0  0  0  0  0  0  0
   -4.0196   25.2030  -28.4712 H   0  0  0  0  0  0  0  0  0  0  0  0
   -5.8191   24.4409  -30.2417 H   0  0  0  0  0  0  0  0  0  0  0  0
   -5.1928   24.8922  -31.9426 H   0  0  0  0  0  0  0  0  0  0  0  0
   -3.7504   22.7590  -31.5158 H   0  0  0  0  0  0  0  0  0  0  0  0
   -5.2123   22.3405  -30.5152 H   0  0  0  0  0  0  0  0  0  0  0  0
   -5.9390   23.2880  -33.2210 H   0  0  0  0  0  0  0  0  0  0  0  0
   -3.3444   22.2553  -33.1030 H   0  0  0  0  0  0  0  0  0  0  0  0
   -1.2485   21.1056  -33.8151 H   0  0  0  0  0  0  0  0  0  0  0  0
   -1.3388   18.6538  -34.2636 H   0  0  0  0  0  0  0  0  0  0  0  0
   -3.4417   17.4511  -33.9993 H   0  0  0  0  0  0  0  0  0  0  0  0
   -5.5830   16.4404  -32.6226 H   0  0  0  0  0  0  0  0  0  0  0  0
   -6.5027   16.6922  -34.1449 H   0  0  0  0  0  0  0  0  0  0  0  0
   -4.7115   16.8271  -34.1449 H   0  0  0  0  0  0  0  0  0  0  0  0
   -7.9846   17.2466  -32.9117 H   0  0  0  0  0  0  0  0  0  0  0  0
  -10.0960   18.3423  -32.1242 H   0  0  0  0  0  0  0  0  0  0  0  0
  -10.0658   20.7845  -31.6504 H   0  0  0  0  0  0  0  0  0  0  0  0
  1  2  1  0
  2  3  1  0
  3  4  1  0
  4  5  1  0
  5  6  1  0
  6  7  1  0
  7  8  1  0
  8  9  1  0
  9 10  1  0
 10 11  2  0
 11 12  1  0
 12 13  2  0
 13 14  1  0
 14 15  2  0
 15 16  1  0
 16 17  2  0
 17 18  1  0
 17 19  1  0
 19 20  2  0
 20 21  1  0
 21 22  2  0
 22 23  1  0
 23 24  1  0
 23 25  2  0
 25 10  1  0
 16 11  1  0
 25 19  1  0
  1 26  1  0
  1 27  1  0
  1 28  1  0
  2 29  1  0
  2 30  1  0
  4 31  1  0
  4 32  1  0
  5 33  1  0
  5 34  1  0
  7 35  1  0
  7 36  1  0
  8 37  1  0
  8 38  1  0
  9 39  1  0
 12 40  1  0
 13 41  1  0
 14 42  1  0
 15 43  1  0
 18 44  1  0
 18 45  1  0
 18 46  1  0
 20 47  1  0
 21 48  1  0
 22 49  1  0
M  CHG  1  17   1
M  END
>  <smiles>  (8) 
CCOCCOCCNc1c2ccccc2[n+](C)c2cccc(Br)c12

>  <score_type>  (8) 
oracle

>  <origin>  (8) 
adg

>  <m_score__min__energy>  (8) 
-9.7799999999999994

>  <m_primary>  (8) 
energy

$$$$
9:0
     RDKit          3D

 42 44  0  0  0  0  0  0  0  0999 V2000
   -8.7690   18.7730  -32.1360 C   0  0  0  0  0  0  0  0  0  0  0  0
   -8.5980   20.1990  -31.9950 N   0  0  0  0  0  0  0  0  0  0  0  0
   -9.6800   21.0350  -31.9690 C   0  0  0  0  0  0  0  0  0  0  0  0
   -9.2070   22.3280  -31.8970 C   0  0  0  0  0  0  0  0  0  0  0  0
   -7.8430   22.2200  -31.8800 C   0  0  0  0  0  0  0  0  0  0  0  0
   -7.4730   20.8750  -31.9400 C   0  0  0  0  0  0  0  0  0  0  0  0
   -6.0370   20.4910  -31.8680 C   0  0  0  0  0  0  0  0  0  0  0  0
   -5.1430   21.0880  -32.7230 N   0  0  0  0  0  0  0  0  0  0  0  0
   -4.2460   20.0570  -33.3170 C   0  0  0  0  0  0  0  0  0  0  0  0
   -4.8900   18.7630  -33.4860 C   0  0  0  0  0  0  0  0  0  0  0  0
   -4.7280   17.6620  -32.6720 C   0  0  0  0  0  0  0  0  0  0  0  0
   -5.3790   16.4780  -32.9050 C   0  0  0  0  0  0  0  0  0  0  0  0
   -6.2380   16.3480  -33.9890 C   0  0  0  0  0  0  0  0  0  0  0  0
   -6.3950   17.4160  -34.7800 N   0  0  0  0  0  0  0  0  0  0  0  0
   -5.7600   18.5970  -34.5670 C   0  0  0  0  0  0  0  0  0  0  0  0
   -4.2970   22.1420  -32.3940 C   0  0  0  0  0  0  0  0  0  0  0  0
   -4.6310   23.0920  -31.3390 C   0  0  0  0  0  0  0  0  0  0  0  0
   -5.3660   24.1930  -31.6020 N   0  0  0  0  0  0  0  0  0  0  0  0
   -5.7380   25.0630  -30.6490 C   0  0  0  0  0  0  0  0  0  0  0  0
   -5.3690   24.8550  -29.3170 C   0  0  0  0  0  0  0  0  0  0  0  0
   -4.6130   23.7250  -29.0370 C   0  0  0  0  0  0  0  0  0  0  0  0
   -4.2450   22.8520  -30.0380 C   0  0  0  0  0  0  0  0  0  0  0  0
   -3.2220   21.4550  -29.7610 Cl  0  0  0  0  0  0  0  0  0  0  0  0
   -8.8245   18.3101  -31.1397 H   0  0  0  0  0  0  0  0  0  0  0  0
   -9.6982   18.5679  -32.6879 H   0  0  0  0  0  0  0  0  0  0  0  0
   -7.9147   18.3541  -32.6879 H   0  0  0  0  0  0  0  0  0  0  0  0
  -10.7366   20.7308  -31.9999 H   0  0  0  0  0  0  0  0  0  0  0  0
   -9.8016   23.2528  -31.8608 H   0  0  0  0  0  0  0  0  0  0  0  0
   -7.1425   23.0665  -31.8270 H   0  0  0  0  0  0  0  0  0  0  0  0
   -5.6969   20.7067  -30.8444 H   0  0  0  0  0  0  0  0  0  0  0  0
   -6.0312   19.4352  -32.1765 H   0  0  0  0  0  0  0  0  0  0  0  0
   -3.9109   20.4117  -34.3028 H   0  0  0  0  0  0  0  0  0  0  0  0
   -3.4064   19.9149  -32.6206 H   0  0  0  0  0  0  0  0  0  0  0  0
   -4.0535   17.7360  -31.8062 H   0  0  0  0  0  0  0  0  0  0  0  0
   -5.2200   15.6251  -32.2288 H   0  0  0  0  0  0  0  0  0  0  0  0
   -6.7679   15.4050  -34.1891 H   0  0  0  0  0  0  0  0  0  0  0  0
   -5.9331   19.4366  -35.2563 H   0  0  0  0  0  0  0  0  0  0  0  0
   -3.3353   21.6898  -32.1100 H   0  0  0  0  0  0  0  0  0  0  0  0
   -4.3419   22.7690  -33.2967 H   0  0  0  0  0  0  0  0  0  0  0  0
   -6.3371   25.9453  -30.9185 H   0  0  0  0  0  0  0  0  0  0  0  0
   -5.6653   25.5573  -28.5239 H   0  0  0  0  0  0  0  0  0  0  0  0
   -4.3031   23.5233  -28.0010 H   0  0  0  0  0  0  0  0  0  0  0  0
  1  2  1  0
  2  3  1  0
  3  4  2  0
  4  5  1  0
  5  6  2  0
  6  7  1  0
  7  8  1  0
  8  9  1  0
  9 10  1  0
 10 11  2  0
 11 12  1  0
 12 13  2  0
 13 14  1  0
 14 15  2  0
  8 16  1  0
 16 17  1  0
 17 18  2  0
 18 19  1  0
 19 20  2  0
 20 21  1  0
 21 22  2  0
 22 23  1  0
  6  2  1  0
 15 10  1  0
 22 17  1  0
  1 24  1  0
  1 25  1  0
  1 26  1  0
  3 27  1  0
  4 28  1  0
  5 29  1  0
  7 30  1  0
  7 31  1  0
  9 32  1  0
  9 33  1  0
 11 34  1  0
 12 35  1  0
 13 36  1  0
 15 37  1  0
 16 38  1  0
 16 39  1  0
 19 40  1  0
 20 41  1  0
 21 42  1  0
M  END
>  <smiles>  (9) 
Cn1cccc1CN(Cc1cccnc1)Cc1ncccc1Cl

>  <score_type>  (9) 
oracle

>  <origin>  (9) 
adg

>  <m_score__min__energy>  (9) 
-7.9400000000000004

>  <m_primary>  (9) 
energy

$$$$
10:0
     RDKit          3D

 52 57  0  0  1  0  0  0  0  0999 V2000
   -9.3370   22.6310  -31.9710 C   0  0  0  0  0  0  0  0  0  0  0  0
   -8.2190   21.9780  -31.3510 N   0  0  0  0  0  0  0  0  0  0  0  0
   -8.5560   20.6880  -30.8960 C   0  0  0  0  0  0  0  0  0  0  0  0
   -8.5670   19.7270  -32.0740 C   0  0  0  0  0  0  0  0  0  0  0  0
   -7.1270   19.6970  -32.4980 C   0  0  0  0  0  0  0  0  0  0  0  0
   -6.4100   20.8930  -32.4420 C   0  0  0  0  0  0  0  0  0  0  0  0
   -5.1370   20.5060  -32.8890 C   0  0  0  0  0  0  0  0  0  0  0  0
   -3.9410   21.1470  -33.0910 C   0  0  0  0  0  0  0  0  0  0  0  0
   -2.8130   20.4820  -33.5580 C   0  0  0  0  0  0  0  0  0  0  0  0
   -2.8540   19.1340  -33.8380 C   0  0  0  0  0  0  0  0  0  0  0  0
   -4.0470   18.4690  -33.6430 C   0  0  0  0  0  0  0  0  0  0  0  0
   -5.1580   19.1440  -33.1780 C   0  0  0  0  0  0  0  0  0  0  0  0
   -6.3770   18.6970  -32.9290 N   0  0  0  0  0  0  0  0  0  0  0  0
   -6.8380   17.3230  -33.0960 C   0  0  0  0  0  0  0  0  0  0  0  0
   -6.9610   22.1740  -32.0160 C   0  0  2  0  0  0  0  0  0  0  0  0
   -6.1090   23.0250  -31.1600 C   0  0  0  0  0  0  0  0  0  0  0  0
   -6.1960   24.4160  -31.3090 C   0  0  0  0  0  0  0  0  0  0  0  0
   -5.3610   25.4200  -30.8650 C   0  0  0  0  0  0  0  0  0  0  0  0
   -4.0770   25.3020  -30.4140 N   0  0  0  0  0  0  0  0  0  0  0  0
   -3.4880   24.2080  -29.9000 C   0  0  0  0  0  0  0  0  0  0  0  0
   -2.2320   24.1260  -29.3350 C   0  0  0  0  0  0  0  0  0  0  0  0
   -2.0140   22.8200  -28.9330 C   0  0  0  0  0  0  0  0  0  0  0  0
   -3.1050   22.0310  -29.2230 C   0  0  0  0  0  0  0  0  0  0  0  0
   -4.0330   22.8580  -29.8200 C   0  0  0  0  0  0  0  0  0  0  0  0
   -5.2650   22.4120  -30.2510 C   0  0  0  0  0  0  0  0  0  0  0  0
   -3.1470   20.6850  -28.9250 O   0  0  0  0  0  0  0  0  0  0  0  0
   -2.0040   20.0590  -28.4170 C   0  0  0  0  0  0  0  0  0  0  0  0
   -1.2760   21.0320  -27.5240 C   0  0  0  0  0  0  0  0  0  0  0  0
   -0.9350   22.1690  -28.3110 O   0  0  0  0  0  0  0  0  0  0  0  0
  -10.0093   23.0237  -31.1940 H   0  0  0  0  0  0  0  0  0  0  0  0
   -8.9762   23.4604  -32.5971 H   0  0  0  0  0  0  0  0  0  0  0  0
   -9.8822   21.9093  -32.5971 H   0  0  0  0  0  0  0  0  0  0  0  0
   -7.8139   20.3538  -30.1560 H   0  0  0  0  0  0  0  0  0  0  0  0
   -9.5518   20.7102  -30.4291 H   0  0  0  0  0  0  0  0  0  0  0  0
   -8.9095   18.7280  -31.7662 H   0  0  0  0  0  0  0  0  0  0  0  0
   -9.2499   20.0357  -32.8792 H   0  0  0  0  0  0  0  0  0  0  0  0
   -3.8722   22.2236  -32.8762 H   0  0  0  0  0  0  0  0  0  0  0  0
   -1.8762   21.0392  -33.7057 H   0  0  0  0  0  0  0  0  0  0  0  0
   -1.9630   18.6040  -34.2058 H   0  0  0  0  0  0  0  0  0  0  0  0
   -4.1135   17.3926  -33.8597 H   0  0  0  0  0  0  0  0  0  0  0  0
   -6.9916   16.8651  -32.1077 H   0  0  0  0  0  0  0  0  0  0  0  0
   -7.7865   17.3196  -33.6531 H   0  0  0  0  0  0  0  0  0  0  0  0
   -6.0835   16.7482  -33.6531 H   0  0  0  0  0  0  0  0  0  0  0  0
   -7.0603   22.7273  -32.9615 H   0  0  0  0  0  0  0  0  0  0  0  0
   -7.0743   24.7640  -31.8725 H   0  0  0  0  0  0  0  0  0  0  0  0
   -5.7790   26.4374  -30.8753 H   0  0  0  0  0  0  0  0  0  0  0  0
   -1.5227   24.9593  -29.2229 H   0  0  0  0  0  0  0  0  0  0  0  0
   -5.6163   21.4613  -29.8236 H   0  0  0  0  0  0  0  0  0  0  0  0
   -2.2953   19.1709  -27.8369 H   0  0  0  0  0  0  0  0  0  0  0  0
   -1.3489   19.7470  -29.2438 H   0  0  0  0  0  0  0  0  0  0  0  0
   -1.9267   21.3347  -26.6904 H   0  0  0  0  0  0  0  0  0  0  0  0
   -0.3712   20.5678  -27.1047 H   0  0  0  0  0  0  0  0  0  0  0  0
  1  2  1  0
  2  3  1  0
  3  4  1  0
  4  5  1  0
  5  6  2  0
  6  7  1  0
  7  8  2  0
  8  9  1  0
  9 10  2  0
 10 11  1  0
 11 12  2  0
 12 13  1  0
 13 14  1  0
  6 15  1  0
 15 16  1  0
 16 17  2  0
 17 18  1  0
 18 19  2  0
 19 20  1  0
 20 21  2  0
 21 22  1  0
 22 23  2  0
 23 24  1  0
 24 25  2  0
 23 26  1  0
 26 27  1  0
 27 28  1  0
 28 29  1  0
 15  2  1  0
 25 16  1  0
 13  5  1  0
 24 20  1  0
 12  7  1  0
 29 22  1  0
  1 30  1  0
  1 31  1  0
  1 32  1  0
  3 33  1  0
  3 34  1  0
  4 35  1  0
  4 36  1  0
  8 37  1  0
  9 38  1  0
 10 39  1  0
 11 40  1  0
 14 41  1  0
 14 42  1  0
 14 43  1  0
 15 44  1  6
 17 45  1  0
 18 46  1  0
 21 47  1  0
 25 48  1  0
 27 49  1  0
 27 50  1  0
 28 51  1  0
 28 52  1  0
M  END
>  <smiles>  (10) 
CN1CCc2c(c3ccccc3n2C)C1c1ccnc2cc3c(c-2c1)OCCO3

>  <score_type>  (10) 
oracle

>  <origin>  (10) 
adg

>  <m_score__min__energy>  (10) 
-10.210000000000001

>  <m_primary>  (10) 
energy

$$$$
11:0
     RDKit          3D

 53 55  0  0  0  0  0  0  0  0999 V2000
   -6.0480   25.2860  -29.5010 C   0  0  0  0  0  0  0  0  0  0  0  0
   -5.3670   25.4370  -30.8540 C   0  0  0  0  0  0  0  0  0  0  0  0
   -3.9650   25.3000  -30.6400 N   0  0  0  0  0  0  0  0  0  0  0  0
   -3.6090   24.2100  -29.7350 C   0  0  0  0  0  0  0  0  0  0  0  0
   -3.6620   22.8710  -30.3910 C   0  0  0  0  0  0  0  0  0  0  0  0
   -4.3390   22.8130  -31.6400 N   0  0  0  0  0  0  0  0  0  0  0  0
   -4.9270   21.6620  -32.2180 C   0  0  0  0  0  0  0  0  0  0  0  0
   -4.0970   20.7590  -32.9010 C   0  0  0  0  0  0  0  0  0  0  0  0
   -4.6320   19.6060  -33.4830 C   0  0  0  0  0  0  0  0  0  0  0  0
   -5.9510   19.3200  -33.4130 N   0  0  0  0  0  0  0  0  0  0  0  0
   -6.4570   18.1240  -34.0440 C   0  0  0  0  0  0  0  0  0  0  0  0
   -6.7540   20.1950  -32.7500 C   0  0  0  0  0  0  0  0  0  0  0  0
   -8.1110   19.9370  -32.6340 C   0  0  0  0  0  0  0  0  0  0  0  0
   -8.9710   20.7920  -31.9530 C   0  0  0  0  0  0  0  0  0  0  0  0
   -8.4780   21.9360  -31.3660 C   0  0  0  0  0  0  0  0  0  0  0  0
   -7.1240   22.1790  -31.4900 C   0  0  0  0  0  0  0  0  0  0  0  0
   -6.2610   21.3450  -32.1610 C   0  0  0  0  0  0  0  0  0  0  0  0
   -3.6500   18.7190  -34.1620 C   0  0  0  0  0  0  0  0  0  0  0  0
   -2.3470   18.7030  -33.3930 C   0  0  0  0  0  0  0  0  0  0  0  0
   -1.7790   19.9870  -33.1730 N   0  0  0  0  0  0  0  0  0  0  0  0
   -0.8490   20.3240  -34.2540 C   0  0  0  0  0  0  0  0  0  0  0  0
   -0.9470   19.8860  -31.9610 C   0  0  0  0  0  0  0  0  0  0  0  0
   -2.6650   21.0760  -32.9800 C   0  0  0  0  0  0  0  0  0  0  0  0
   -5.3121   25.4492  -28.6999 H   0  0  0  0  0  0  0  0  0  0  0  0
   -6.8564   26.0267  -29.4127 H   0  0  0  0  0  0  0  0  0  0  0  0
   -6.4676   24.2730  -29.4127 H   0  0  0  0  0  0  0  0  0  0  0  0
   -5.7208   24.6558  -31.5428 H   0  0  0  0  0  0  0  0  0  0  0  0
   -5.5992   26.4153  -31.3000 H   0  0  0  0  0  0  0  0  0  0  0  0
   -3.5000   25.1750  -31.5580 H   0  0  0  0  0  0  0  0  0  0  0  0
   -2.5869   24.3799  -29.3657 H   0  0  0  0  0  0  0  0  0  0  0  0
   -4.3441   24.2064  -28.9167 H   0  0  0  0  0  0  0  0  0  0  0  0
   -2.6272   22.5352  -30.5536 H   0  0  0  0  0  0  0  0  0  0  0  0
   -4.2424   22.2310  -29.7102 H   0  0  0  0  0  0  0  0  0  0  0  0
   -4.4230   23.6960  -32.2040 H   0  0  0  0  0  0  0  0  0  0  0  0
   -6.7621   17.4028  -33.2714 H   0  0  0  0  0  0  0  0  0  0  0  0
   -7.3244   18.3789  -34.6706 H   0  0  0  0  0  0  0  0  0  0  0  0
   -5.6700   17.6790  -34.6706 H   0  0  0  0  0  0  0  0  0  0  0  0
   -8.5210   19.0265  -33.0955 H   0  0  0  0  0  0  0  0  0  0  0  0
  -10.0429   20.5549  -31.8834 H   0  0  0  0  0  0  0  0  0  0  0  0
   -9.1360   22.6284  -30.8204 H   0  0  0  0  0  0  0  0  0  0  0  0
   -6.7140   23.0887  -31.0270 H   0  0  0  0  0  0  0  0  0  0  0  0
   -4.0557   17.6978  -34.2121 H   0  0  0  0  0  0  0  0  0  0  0  0
   -3.4644   19.0976  -35.1780 H   0  0  0  0  0  0  0  0  0  0  0  0
   -2.5310   18.2360  -32.4142 H   0  0  0  0  0  0  0  0  0  0  0  0
   -1.6270   18.1424  -34.0073 H   0  0  0  0  0  0  0  0  0  0  0  0
    0.1031   20.6690  -33.8244 H   0  0  0  0  0  0  0  0  0  0  0  0
   -0.6700   19.4336  -34.8746 H   0  0  0  0  0  0  0  0  0  0  0  0
   -1.2819   21.1224  -34.8746 H   0  0  0  0  0  0  0  0  0  0  0  0
   -1.5868   19.9637  -31.0696 H   0  0  0  0  0  0  0  0  0  0  0  0
   -0.4248   18.9179  -31.9543 H   0  0  0  0  0  0  0  0  0  0  0  0
   -0.2083   20.7011  -31.9543 H   0  0  0  0  0  0  0  0  0  0  0  0
   -2.3819   21.5728  -32.0403 H   0  0  0  0  0  0  0  0  0  0  0  0
   -2.5572   21.6978  -33.8810 H   0  0  0  0  0  0  0  0  0  0  0  0
  1  2  1  0
  2  3  1  0
  3  4  1  0
  4  5  1  0
  5  6  1  0
  6  7  1  0
  7  8  2  0
  8  9  1  0
  9 10  2  0
 10 11  1  0
 10 12  1  0
 12 13  2  0
 13 14  1  0
 14 15  2  0
 15 16  1  0
 16 17  2  0
  9 18  1  0
 18 19  1  0
 19 20  1  0
 20 21  1  0
 20 22  1  0
 20 23  1  0
 17  7  1  0
 23  8  1  0
 17 12  1  0
  1 24  1  0
  1 25  1  0
  1 26  1  0
  2 27  1  0
  2 28  1  0
  3 29  1  0
  4 30  1  0
  4 31  1  0
  5 32  1  0
  5 33  1  0
  6 34  1  0
 11 35  1  0
 11 36  1  0
 11 37  1  0
 13 38  1  0
 14 39  1  0
 15 40  1  0
 16 41  1  0
 18 42  1  0
 18 43  1  0
 19 44  1  0
 19 45  1  0
 21 46  1  0
 21 47  1  0
 21 48  1  0
 22 49  1  0
 22 50  1  0
 22 51  1  0
 23 52  1  0
 23 53  1  0
M  CHG  2  10   1  20   1
M  END
>  <smiles>  (11) 
CCNCCNc1c2c([n+](C)c3ccccc13)CC[N+](C)(C)C2

>  <score_type>  (11) 
oracle

>  <origin>  (11) 
adg

>  <m_score__min__energy>  (11) 
-8.4299999999999997

>  <m_primary>  (11) 
energy

$$$$
12:0
     RDKit          3D

 28 29  0  0  1  0  0  0  0  0999 V2000
   -5.2710   17.7920  -34.9690 C   0  0  0  0  0  0  0  0  0  0  0  0
   -6.3770   17.3510  -34.0720 C   0  0  0  0  0  0  0  0  0  0  0  0
   -7.1470   18.3780  -33.4600 N   0  0  0  0  0  3  0  0  0  0  0  0
   -7.6770   17.8310  -32.2090 C   0  0  1  0  0  0  0  0  0  0  0  0
   -6.4890   17.8110  -31.2730 C   0  0  0  0  0  0  0  0  0  0  0  0
   -5.7550   19.0560  -31.6840 C   0  0  0  0  0  0  0  0  0  0  0  0
   -6.4380   19.5100  -32.9700 C   0  0  2  0  0  0  0  0  0  0  0  0
   -7.3730   20.5210  -32.7090 O   0  0  0  0  0  0  0  0  0  0  0  0
   -8.6600   20.0440  -32.5690 C   0  0  2  0  0  0  0  0  0  0  0  0
   -9.4870   21.1740  -31.9690 C   0  0  0  0  0  0  0  0  0  0  0  0
   -8.6460   18.8550  -31.6320 C   0  0  0  0  0  0  0  0  0  0  0  0
   -4.4193   18.1316  -34.3613 H   0  0  0  0  0  0  0  0  0  0  0  0
   -4.9561   16.9506  -35.6038 H   0  0  0  0  0  0  0  0  0  0  0  0
   -5.6214   18.6192  -35.6038 H   0  0  0  0  0  0  0  0  0  0  0  0
   -7.0622   16.7297  -34.6673 H   0  0  0  0  0  0  0  0  0  0  0  0
   -5.8848   16.8231  -33.2419 H   0  0  0  0  0  0  0  0  0  0  0  0
   -8.1613   16.8528  -32.3449 H   0  0  0  0  0  0  0  0  0  0  0  0
   -6.8066   17.8618  -30.2211 H   0  0  0  0  0  0  0  0  0  0  0  0
   -5.8844   16.8944  -31.3390 H   0  0  0  0  0  0  0  0  0  0  0  0
   -5.8405   19.8297  -30.9068 H   0  0  0  0  0  0  0  0  0  0  0  0
   -4.6801   18.8732  -31.8292 H   0  0  0  0  0  0  0  0  0  0  0  0
   -5.6929   19.8962  -33.6811 H   0  0  0  0  0  0  0  0  0  0  0  0
   -9.0823   19.7244  -33.5331 H   0  0  0  0  0  0  0  0  0  0  0  0
   -9.4448   21.1164  -30.8713 H   0  0  0  0  0  0  0  0  0  0  0  0
   -9.0819   22.1412  -32.3012 H   0  0  0  0  0  0  0  0  0  0  0  0
  -10.5314   21.0803  -32.3012 H   0  0  0  0  0  0  0  0  0  0  0  0
   -8.3106   19.1682  -30.6323 H   0  0  0  0  0  0  0  0  0  0  0  0
   -9.6538   18.4247  -31.5359 H   0  0  0  0  0  0  0  0  0  0  0  0
  1  2  1  0
  2  3  1  0
  3  4  1  0
  4  5  1  0
  5  6  1  0
  6  7  1  0
  7  8  1  0
  8  9  1  0
  9 10  1  0
  9 11  1  0
  7  3  1  0
 11  4  1  0
  1 12  1  0
  1 13  1  0
  1 14  1  0
  2 15  1  0
  2 16  1  0
  4 17  1  6
  5 18  1  0
  5 19  1  0
  6 20  1  0
  6 21  1  0
  7 22  1  6
  9 23  1  6
 10 24  1  0
 10 25  1  0
 10 26  1  0
 11 27  1  0
 11 28  1  0
M  CHG  1   3   1
M  RAD  1   3   2
M  END
>  <smiles>  (12) 
CC[N+]1C2CCC1OC(C)C2

>  <score_type>  (12) 
oracle

>  <origin>  (12) 
adg

>  <m_score__min__energy>  (12) 
-4.6799999999999997

>  <m_primary>  (12) 
energy

$$$$
13:0
     RDKit          3D

 52 54  0  0  0  0  0  0  0  0999 V2000
   -1.9220   25.6250  -26.5720 C   0  0  0  0  0  0  0  0  0  0  0  0
   -0.9200   26.1640  -27.5790 C   0  0  0  0  0  0  0  0  0  0  0  0
   -0.6520   25.2480  -28.5670 O   0  0  0  0  0  0  0  0  0  0  0  0
    0.0870   24.1540  -28.1780 C   0  0  0  0  0  0  0  0  0  0  0  0
   -0.8380   22.9440  -28.3650 C   0  0  0  0  0  0  0  0  0  0  0  0
   -0.5500   22.4730  -29.6460 O   0  0  0  0  0  0  0  0  0  0  0  0
   -1.4220   21.4870  -30.0520 C   0  0  0  0  0  0  0  0  0  0  0  0
   -1.3660   21.1710  -31.5160 C   0  0  0  0  0  0  0  0  0  0  0  0
   -2.6870   21.2180  -32.1140 N   0  0  0  0  0  0  0  0  0  0  0  0
   -3.8210   20.5870  -31.7090 C   0  0  0  0  0  0  0  0  0  0  0  0
   -4.8630   20.9120  -32.5720 C   0  0  0  0  0  0  0  0  0  0  0  0
   -6.2070   20.3940  -32.4070 C   0  0  0  0  0  0  0  0  0  0  0  0
   -6.3920   19.0190  -32.3100 C   0  0  0  0  0  0  0  0  0  0  0  0
   -7.6190   18.4250  -32.1450 C   0  0  0  0  0  0  0  0  0  0  0  0
   -8.7310   19.2220  -32.0720 C   0  0  0  0  0  0  0  0  0  0  0  0
   -8.5510   20.5810  -32.1680 C   0  0  0  0  0  0  0  0  0  0  0  0
   -7.3360   21.2010  -32.3330 C   0  0  0  0  0  0  0  0  0  0  0  0
   -7.2860   22.5920  -32.4590 N   0  0  0  0  0  0  0  0  0  0  0  0
   -7.4160   23.5790  -31.4260 C   0  0  0  0  0  0  0  0  0  0  0  0
   -6.1330   23.8050  -30.7530 C   0  0  0  0  0  0  0  0  0  0  0  0
   -5.5610   23.0690  -29.7650 C   0  0  0  0  0  0  0  0  0  0  0  0
   -4.3130   23.4050  -29.2280 C   0  0  0  0  0  0  0  0  0  0  0  0
   -3.6090   24.5090  -29.6860 C   0  0  0  0  0  0  0  0  0  0  0  0
   -4.1970   25.2210  -30.6630 N   0  0  0  0  0  0  0  0  0  0  0  0
   -5.3950   24.9180  -31.1960 C   0  0  0  0  0  0  0  0  0  0  0  0
   -4.3040   21.7310  -33.4640 N   0  0  0  0  0  0  0  0  0  0  0  0
   -3.0320   21.8940  -33.1740 N   0  0  0  0  0  0  0  0  0  0  0  0
   -1.5585   25.8205  -25.5524 H   0  0  0  0  0  0  0  0  0  0  0  0
   -2.8919   26.1231  -26.7173 H   0  0  0  0  0  0  0  0  0  0  0  0
   -2.0410   24.5411  -26.7173 H   0  0  0  0  0  0  0  0  0  0  0  0
   -1.3311   27.0748  -28.0389 H   0  0  0  0  0  0  0  0  0  0  0  0
    0.0184   26.3808  -27.0476 H   0  0  0  0  0  0  0  0  0  0  0  0
    0.9836   24.0528  -28.8071 H   0  0  0  0  0  0  0  0  0  0  0  0
    0.4328   24.2452  -27.1378 H   0  0  0  0  0  0  0  0  0  0  0  0
   -0.6245   22.1722  -27.6108 H   0  0  0  0  0  0  0  0  0  0  0  0
   -1.8991   23.2092  -28.2478 H   0  0  0  0  0  0  0  0  0  0  0  0
   -1.1867   20.5691  -29.4933 H   0  0  0  0  0  0  0  0  0  0  0  0
   -2.4357   21.8647  -29.8524 H   0  0  0  0  0  0  0  0  0  0  0  0
   -0.7190   21.9060  -32.0172 H   0  0  0  0  0  0  0  0  0  0  0  0
   -0.9647   20.1541  -31.6376 H   0  0  0  0  0  0  0  0  0  0  0  0
   -3.9021   19.9233  -30.8356 H   0  0  0  0  0  0  0  0  0  0  0  0
   -5.5053   18.3707  -32.3688 H   0  0  0  0  0  0  0  0  0  0  0  0
   -7.7074   17.3309  -32.0729 H   0  0  0  0  0  0  0  0  0  0  0  0
   -9.7336   18.7889  -31.9410 H   0  0  0  0  0  0  0  0  0  0  0  0
   -9.4450   21.2191  -32.1084 H   0  0  0  0  0  0  0  0  0  0  0  0
   -7.1390   22.9860  -33.4270 H   0  0  0  0  0  0  0  0  0  0  0  0
   -7.7599   24.5239  -31.8720 H   0  0  0  0  0  0  0  0  0  0  0  0
   -8.1429   23.2171  -30.6839 H   0  0  0  0  0  0  0  0  0  0  0  0
   -6.0918   22.1870  -29.3773 H   0  0  0  0  0  0  0  0  0  0  0  0
   -3.8830   22.7830  -28.4291 H   0  0  0  0  0  0  0  0  0  0  0  0
   -2.6273   24.7856  -29.2740 H   0  0  0  0  0  0  0  0  0  0  0  0
   -5.8057   25.5535  -31.9944 H   0  0  0  0  0  0  0  0  0  0  0  0
  1  2  1  0
  2  3  1  0
  3  4  1  0
  4  5  1  0
  5  6  1  0
  6  7  1  0
  7  8  1  0
  8  9  1  0
  9 10  1  0
 10 11  2  0
 11 12  1  0
 12 13  2  0
 13 14  1  0
 14 15  2  0
 15 16  1  0
 16 17  2  0
 17 18  1  0
 18 19  1  0
 19 20  1  0
 20 21  2  0
 21 22  1  0
 22 23  2  0
 23 24  1  0
 24 25  2  0
 11 26  1  0
 26 27  2  0
 27  9  1  0
 17 12  1  0
 25 20  1  0
  1 28  1  0
  1 29  1  0
  1 30  1  0
  2 31  1  0
  2 32  1  0
  4 33  1  0
  4 34  1  0
  5 35  1  0
  5 36  1  0
  7 37  1  0
  7 38  1  0
  8 39  1  0
  8 40  1  0
 10 41  1  0
 13 42  1  0
 14 43  1  0
 15 44  1  0
 16 45  1  0
 18 46  1  0
 19 47  1  0
 19 48  1  0
 21 49  1  0
 22 50  1  0
 23 51  1  0
 25 52  1  0
M  END
>  <smiles>  (13) 
CCOCCOCCn1cc(-c2ccccc2NCc2cccnc2)nn1

>  <score_type>  (13) 
oracle

>  <origin>  (13) 
adg

>  <m_score__min__energy>  (13) 
-9.3499999999999996

>  <m_primary>  (13) 
energy

$$$$
14:0
     RDKit          3D

 44 44  0  0  0  0  0  0  0  0999 V2000
   -6.1150   25.6340  -29.5210 C   0  0  0  0  0  0  0  0  0  0  0  0
   -5.2910   25.6660  -30.8050 C   0  0  0  0  0  0  0  0  0  0  0  0
   -4.0070   25.3030  -30.4910 O   0  0  0  0  0  0  0  0  0  0  0  0
   -3.9480   24.3530  -29.4920 C   0  0  0  0  0  0  0  0  0  0  0  0
   -3.4440   23.0350  -29.9940 C   0  0  0  0  0  0  0  0  0  0  0  0
   -3.7830   22.8180  -31.4580 C   0  0  0  0  0  0  0  0  0  0  0  0
   -4.4290   21.5560  -31.6530 N   0  0  0  0  0  0  0  0  0  0  0  0
   -3.5270   20.5630  -32.2120 C   0  0  0  0  0  0  0  0  0  0  0  0
   -4.0750   19.9240  -33.4440 C   0  0  0  0  0  0  0  0  0  0  0  0
   -5.4130   20.1180  -33.7070 O   0  0  0  0  0  0  0  0  0  0  0  0
   -6.4930   19.5950  -33.0950 C   0  0  0  0  0  0  0  0  0  0  0  0
   -6.8150   18.2730  -32.9320 C   0  0  0  0  0  0  0  0  0  0  0  0
   -7.9600   17.8370  -32.2770 C   0  0  0  0  0  0  0  0  0  0  0  0
   -8.8460   18.7440  -31.7500 C   0  0  0  0  0  0  0  0  0  0  0  0
   -8.5520   20.0830  -31.8980 C   0  0  0  0  0  0  0  0  0  0  0  0
   -7.4160   20.5110  -32.5460 C   0  0  0  0  0  0  0  0  0  0  0  0
   -7.1310   21.8550  -32.6880 O   0  0  0  0  0  0  0  0  0  0  0  0
   -7.6550   22.8400  -31.8450 C   0  0  0  0  0  0  0  0  0  0  0  0
   -7.2850   22.6810  -30.3890 C   0  0  0  0  0  0  0  0  0  0  0  0
   -5.4410   25.6602  -28.6521 H   0  0  0  0  0  0  0  0  0  0  0  0
   -6.7838   26.5068  -29.4927 H   0  0  0  0  0  0  0  0  0  0  0  0
   -6.7141   24.7119  -29.4927 H   0  0  0  0  0  0  0  0  0  0  0  0
   -5.7109   24.9596  -31.5362 H   0  0  0  0  0  0  0  0  0  0  0  0
   -5.3073   26.6738  -31.2456 H   0  0  0  0  0  0  0  0  0  0  0  0
   -3.2734   24.7122  -28.7009 H   0  0  0  0  0  0  0  0  0  0  0  0
   -4.9682   24.2011  -29.1096 H   0  0  0  0  0  0  0  0  0  0  0  0
   -2.3510   23.0034  -29.8738 H   0  0  0  0  0  0  0  0  0  0  0  0
   -3.9310   22.2398  -29.4105 H   0  0  0  0  0  0  0  0  0  0  0  0
   -4.4544   23.6217  -31.7948 H   0  0  0  0  0  0  0  0  0  0  0  0
   -2.8491   22.8273  -32.0392 H   0  0  0  0  0  0  0  0  0  0  0  0
   -5.2720   21.5980  -32.2450 H   0  0  0  0  0  0  0  0  0  0  0  0
   -2.5743   21.0527  -32.4623 H   0  0  0  0  0  0  0  0  0  0  0  0
   -3.3896   19.7736  -31.4583 H   0  0  0  0  0  0  0  0  0  0  0  0
   -3.5081   20.3160  -34.3013 H   0  0  0  0  0  0  0  0  0  0  0  0
   -3.9712   18.8421  -33.2749 H   0  0  0  0  0  0  0  0  0  0  0  0
   -6.1299   17.5162  -33.3419 H   0  0  0  0  0  0  0  0  0  0  0  0
   -8.1579   16.7593  -32.1801 H   0  0  0  0  0  0  0  0  0  0  0  0
   -9.7569   18.4145  -31.2288 H   0  0  0  0  0  0  0  0  0  0  0  0
   -9.2457   20.8308  -31.4861 H   0  0  0  0  0  0  0  0  0  0  0  0
   -7.2860   23.8177  -32.1883 H   0  0  0  0  0  0  0  0  0  0  0  0
   -8.7498   22.7492  -31.9010 H   0  0  0  0  0  0  0  0  0  0  0  0
   -8.1136   23.0371  -29.7591 H   0  0  0  0  0  0  0  0  0  0  0  0
   -7.0906   21.6199  -30.1738 H   0  0  0  0  0  0  0  0  0  0  0  0
   -6.3814   23.2703  -30.1738 H   0  0  0  0  0  0  0  0  0  0  0  0
  1  2  1  0
  2  3  1  0
  3  4  1  0
  4  5  1  0
  5  6  1  0
  6  7  1  0
  7  8  1  0
  8  9  1  0
  9 10  1  0
 10 11  1  0
 11 12  2  0
 12 13  1  0
 13 14  2  0
 14 15  1  0
 15 16  2  0
 16 17  1  0
 17 18  1  0
 18 19  1  0
 16 11  1  0
  1 20  1  0
  1 21  1  0
  1 22  1  0
  2 23  1  0
  2 24  1  0
  4 25  1  0
  4 26  1  0
  5 27  1  0
  5 28  1  0
  6 29  1  0
  6 30  1  0
  7 31  1  0
  8 32  1  0
  8 33  1  0
  9 34  1  0
  9 35  1  0
 12 36  1  0
 13 37  1  0
 14 38  1  0
 15 39  1  0
 18 40  1  0
 18 41  1  0
 19 42  1  0
 19 43  1  0
 19 44  1  0
M  END
>  <smiles>  (14) 
CCOCCCNCCOc1ccccc1OCC

>  <score_type>  (14) 
oracle

>  <origin>  (14) 
adg

>  <m_score__min__energy>  (14) 
-5.7699999999999996

>  <m_primary>  (14) 
energy

$$$$
15:0
     RDKit          3D

 53 56  0  0  0  0  0  0  0  0999 V2000
   -6.2690   25.6700  -29.3920 C   0  0  0  0  0  0  0  0  0  0  0  0
   -5.7690   25.5920  -30.8210 C   0  0  0  0  0  0  0  0  0  0  0  0
   -4.3300   25.5450  -30.8030 N   0  0  0  0  0  0  0  0  0  0  0  0
   -3.8300   24.3880  -30.0760 C   0  0  0  0  0  0  0  0  0  0  0  0
   -4.4360   23.1100  -30.6240 C   0  0  0  0  0  0  0  0  0  0  0  0
   -3.4160   22.0730  -30.9270 C   0  0  0  0  0  0  0  0  0  0  0  0
   -2.9850   21.9470  -32.3460 C   0  0  0  0  0  0  0  0  0  0  0  0
   -4.1080   21.6620  -33.2170 N   0  0  0  0  0  0  0  0  0  0  0  0
   -4.8190   20.4530  -33.2530 C   0  0  0  0  0  0  0  0  0  0  0  0
   -4.1100   19.3130  -33.6380 C   0  0  0  0  0  0  0  0  0  0  0  0
   -2.7800   19.3390  -33.9630 C   0  0  0  0  0  0  0  0  0  0  0  0
   -2.0580   18.2190  -34.3450 C   0  0  0  0  0  0  0  0  0  0  0  0
   -2.6930   16.9990  -34.4100 C   0  0  0  0  0  0  0  0  0  0  0  0
   -4.0340   16.9270  -34.0910 C   0  0  0  0  0  0  0  0  0  0  0  0
   -4.7450   18.0730  -33.7070 C   0  0  0  0  0  0  0  0  0  0  0  0
   -6.0580   17.9480  -33.4030 N   0  0  0  0  0  0  0  0  0  0  0  0
   -6.7180   16.6660  -33.4700 C   0  0  0  0  0  0  0  0  0  0  0  0
   -6.7050   19.0710  -33.0360 C   0  0  0  0  0  0  0  0  0  0  0  0
   -8.0090   19.1740  -32.6820 N   0  0  0  0  0  0  0  0  0  0  0  0
   -8.2330   20.4620  -32.3840 C   0  0  0  0  0  0  0  0  0  0  0  0
   -9.3950   21.0970  -31.9630 C   0  0  0  0  0  0  0  0  0  0  0  0
   -9.3310   22.4430  -31.7210 C   0  0  0  0  0  0  0  0  0  0  0  0
   -8.1400   23.1510  -31.8910 C   0  0  0  0  0  0  0  0  0  0  0  0
   -6.9900   22.4930  -32.3140 C   0  0  0  0  0  0  0  0  0  0  0  0
   -7.0500   21.1430  -32.5590 C   0  0  0  0  0  0  0  0  0  0  0  0
   -6.1090   20.2760  -32.9630 N   0  0  0  0  0  0  0  0  0  0  0  0
   -5.4240   25.5382  -28.7002 H   0  0  0  0  0  0  0  0  0  0  0  0
   -6.7345   26.6516  -29.2195 H   0  0  0  0  0  0  0  0  0  0  0  0
   -7.0113   24.8768  -29.2195 H   0  0  0  0  0  0  0  0  0  0  0  0
   -6.1633   24.6849  -31.3024 H   0  0  0  0  0  0  0  0  0  0  0  0
   -6.1089   26.4723  -31.3863 H   0  0  0  0  0  0  0  0  0  0  0  0
   -3.8760   26.4250  -30.5040 H   0  0  0  0  0  0  0  0  0  0  0  0
   -2.7357   24.3420  -30.1783 H   0  0  0  0  0  0  0  0  0  0  0  0
   -4.1094   24.4870  -29.0167 H   0  0  0  0  0  0  0  0  0  0  0  0
   -5.1374   22.7060  -29.8791 H   0  0  0  0  0  0  0  0  0  0  0  0
   -4.9428   23.3617  -31.5673 H   0  0  0  0  0  0  0  0  0  0  0  0
   -2.5224   22.3005  -30.3272 H   0  0  0  0  0  0  0  0  0  0  0  0
   -3.9012   21.1151  -30.6885 H   0  0  0  0  0  0  0  0  0  0  0  0
   -2.5169   22.8906  -32.6629 H   0  0  0  0  0  0  0  0  0  0  0  0
   -2.2710   21.1133  -32.4180 H   0  0  0  0  0  0  0  0  0  0  0  0
   -4.4250   22.4210  -33.8830 H   0  0  0  0  0  0  0  0  0  0  0  0
   -2.2543   20.3042  -33.9184 H   0  0  0  0  0  0  0  0  0  0  0  0
   -0.9898   18.3040  -34.5934 H   0  0  0  0  0  0  0  0  0  0  0  0
   -2.1407   16.0966  -34.7112 H   0  0  0  0  0  0  0  0  0  0  0  0
   -4.5518   15.9577  -34.1386 H   0  0  0  0  0  0  0  0  0  0  0  0
   -6.9077   16.2976  -32.4510 H   0  0  0  0  0  0  0  0  0  0  0  0
   -7.6732   16.7729  -34.0050 H   0  0  0  0  0  0  0  0  0  0  0  0
   -6.0761   15.9506  -34.0050 H   0  0  0  0  0  0  0  0  0  0  0  0
   -8.7290   18.4230  -32.6390 H   0  0  0  0  0  0  0  0  0  0  0  0
  -10.3329   20.5381  -31.8289 H   0  0  0  0  0  0  0  0  0  0  0  0
  -10.2336   22.9757  -31.3869 H   0  0  0  0  0  0  0  0  0  0  0  0
   -8.1110   24.2321  -31.6899 H   0  0  0  0  0  0  0  0  0  0  0  0
   -6.0481   23.0447  -32.4500 H   0  0  0  0  0  0  0  0  0  0  0  0
  1  2  1  0
  2  3  1  0
  3  4  1  0
  4  5  1  0
  5  6  1  0
  6  7  1  0
  7  8  1  0
  8  9  1  0
  9 10  2  0
 10 11  1  0
 11 12  2  0
 12 13  1  0
 13 14  2  0
 14 15  1  0
 15 16  2  0
 16 17  1  0
 16 18  1  0
 18 19  1  0
 19 20  1  0
 20 21  2  0
 21 22  1  0
 22 23  2  0
 23 24  1  0
 24 25  2  0
 25 26  1  0
 26  9  1  0
 15 10  1  0
 26 18  2  0
 25 20  1  0
  1 27  1  0
  1 28  1  0
  1 29  1  0
  2 30  1  0
  2 31  1  0
  3 32  1  0
  4 33  1  0
  4 34  1  0
  5 35  1  0
  5 36  1  0
  6 37  1  0
  6 38  1  0
  7 39  1  0
  7 40  1  0
  8 41  1  0
 11 42  1  0
 12 43  1  0
 13 44  1  0
 14 45  1  0
 17 46  1  0
 17 47  1  0
 17 48  1  0
 19 49  1  0
 21 50  1  0
 22 51  1  0
 23 52  1  0
 24 53  1  0
M  CHG  2  16   1  26   1
M  END
>  <smiles>  (15) 
CCNCCCCNc1c2ccccc2[n+](C)c2[nH]c3ccccc3[n+]12

>  <score_type>  (15) 
oracle

>  <origin>  (15) 
adg

>  <m_score__min__energy>  (15) 
-9.0899999999999999

>  <m_primary>  (15) 
energy

$$$$
16:0
     RDKit          3D

 63 65  0  0  0  0  0  0  0  0999 V2000
   -5.3930   25.6210  -30.8320 C   0  0  0  0  0  0  0  0  0  0  0  0
   -6.0500   24.9170  -29.6950 C   0  0  0  0  0  0  0  0  0  0  0  0
   -5.7230   23.4920  -29.4890 C   0  0  0  0  0  0  0  0  0  0  0  0
   -4.6600   23.1440  -28.6230 N   0  0  0  0  0  0  0  0  0  0  0  0
   -4.1010   24.1500  -27.7840 C   0  0  0  0  0  0  0  0  0  0  0  0
   -2.5970   24.2190  -27.9290 C   0  0  0  0  0  0  0  0  0  0  0  0
   -2.2160   23.9100  -29.3430 C   0  0  0  0  0  0  0  0  0  0  0  0
   -1.3250   22.7010  -29.4810 C   0  0  0  0  0  0  0  0  0  0  0  0
   -2.1120   21.4830  -29.3040 N   0  0  0  0  0  0  0  0  0  0  0  0
   -2.3250   20.7760  -30.5410 C   0  0  0  0  0  0  0  0  0  0  0  0
   -3.6710   21.2590  -31.1030 C   0  0  0  0  0  0  0  0  0  0  0  0
   -3.3860   21.5850  -32.5580 C   0  0  0  0  0  0  0  0  0  0  0  0
   -4.5470   21.6090  -33.3910 N   0  0  0  0  0  0  0  0  0  0  0  0
   -5.6570   20.7930  -33.0440 C   0  0  0  0  0  0  0  0  0  0  0  0
   -5.6630   19.4200  -33.1600 C   0  0  0  0  0  0  0  0  0  0  0  0
   -4.5160   18.8240  -33.6230 C   0  0  0  0  0  0  0  0  0  0  0  0
   -4.4620   17.4750  -33.7530 C   0  0  0  0  0  0  0  0  0  0  0  0
   -5.5290   16.6770  -33.4340 C   0  0  0  0  0  0  0  0  0  0  0  0
   -6.6980   17.2870  -32.9610 C   0  0  0  0  0  0  0  0  0  0  0  0
   -6.7710   18.6550  -32.8230 C   0  0  0  0  0  0  0  0  0  0  0  0
   -7.8960   19.2160  -32.3640 N   0  0  0  0  0  0  0  0  0  0  0  0
   -9.0840   18.5120  -31.9890 C   0  0  0  0  0  0  0  0  0  0  0  0
   -7.9380   20.5790  -32.2300 C   0  0  0  0  0  0  0  0  0  0  0  0
   -9.0380   21.2430  -31.7710 C   0  0  0  0  0  0  0  0  0  0  0  0
   -9.1250   22.6100  -31.6190 C   0  0  0  0  0  0  0  0  0  0  0  0
   -7.9840   23.3370  -31.9730 C   0  0  0  0  0  0  0  0  0  0  0  0
   -6.8360   22.7330  -32.4450 C   0  0  0  0  0  0  0  0  0  0  0  0
   -6.8360   21.3620  -32.5640 C   0  0  0  0  0  0  0  0  0  0  0  0
   -4.6914   26.3728  -30.4415 H   0  0  0  0  0  0  0  0  0  0  0  0
   -4.8447   24.8922  -31.4469 H   0  0  0  0  0  0  0  0  0  0  0  0
   -6.1579   26.1177  -31.4469 H   0  0  0  0  0  0  0  0  0  0  0  0
   -5.7764   25.4533  -28.7744 H   0  0  0  0  0  0  0  0  0  0  0  0
   -7.1210   24.9230  -29.9458 H   0  0  0  0  0  0  0  0  0  0  0  0
   -6.6292   23.0085  -29.0952 H   0  0  0  0  0  0  0  0  0  0  0  0
   -5.3734   23.1593  -30.4775 H   0  0  0  0  0  0  0  0  0  0  0  0
   -3.9580   22.5570  -29.1110 H   0  0  0  0  0  0  0  0  0  0  0  0
   -4.5317   25.1243  -28.0583 H   0  0  0  0  0  0  0  0  0  0  0  0
   -4.3361   23.8984  -26.7393 H   0  0  0  0  0  0  0  0  0  0  0  0
   -2.2498   25.2297  -27.6685 H   0  0  0  0  0  0  0  0  0  0  0  0
   -2.1303   23.4852  -27.2554 H   0  0  0  0  0  0  0  0  0  0  0  0
   -3.1358   23.7310  -29.9192 H   0  0  0  0  0  0  0  0  0  0  0  0
   -1.6466   24.7732  -29.7182 H   0  0  0  0  0  0  0  0  0  0  0  0
   -0.8667   22.6975  -30.4810 H   0  0  0  0  0  0  0  0  0  0  0  0
   -0.5387   22.7400  -28.7128 H   0  0  0  0  0  0  0  0  0  0  0  0
   -3.0210   21.7350  -28.8730 H   0  0  0  0  0  0  0  0  0  0  0  0
   -1.5154   21.0021  -31.2505 H   0  0  0  0  0  0  0  0  0  0  0  0
   -2.3334   19.6883  -30.3773 H   0  0  0  0  0  0  0  0  0  0  0  0
   -4.4308   20.4674  -31.0244 H   0  0  0  0  0  0  0  0  0  0  0  0
   -4.0655   22.1253  -30.5518 H   0  0  0  0  0  0  0  0  0  0  0  0
   -2.9088   22.5751  -32.6027 H   0  0  0  0  0  0  0  0  0  0  0  0
   -2.7386   20.7823  -32.9409 H   0  0  0  0  0  0  0  0  0  0  0  0
   -4.5820   22.2190  -34.2440 H   0  0  0  0  0  0  0  0  0  0  0  0
   -3.6432   19.4389  -33.8878 H   0  0  0  0  0  0  0  0  0  0  0  0
   -3.5372   17.0094  -34.1243 H   0  0  0  0  0  0  0  0  0  0  0  0
   -5.4692   15.5844  -33.5465 H   0  0  0  0  0  0  0  0  0  0  0  0
   -7.5670   16.6664  -32.6970 H   0  0  0  0  0  0  0  0  0  0  0  0
   -9.1546   18.4702  -30.8921 H   0  0  0  0  0  0  0  0  0  0  0  0
   -9.9632   19.0350  -32.3933 H   0  0  0  0  0  0  0  0  0  0  0  0
   -9.0474   17.4897  -32.3933 H   0  0  0  0  0  0  0  0  0  0  0  0
   -9.9202   20.6432  -31.5026 H   0  0  0  0  0  0  0  0  0  0  0  0
  -10.0356   23.0990  -31.2425 H   0  0  0  0  0  0  0  0  0  0  0  0
   -8.0020   24.4322  -31.8714 H   0  0  0  0  0  0  0  0  0  0  0  0
   -5.9512   23.3274  -32.7168 H   0  0  0  0  0  0  0  0  0  0  0  0
  1  2  1  0
  2  3  1  0
  3  4  1  0
  4  5  1  0
  5  6  1  0
  6  7  1  0
  7  8  1  0
  8  9  1  0
  9 10  1  0
 10 11  1  0
 11 12  1  0
 12 13  1  0
 13 14  1  0
 14 15  2  0
 15 16  1  0
 16 17  2  0
 17 18  1  0
 18 19  2  0
 19 20  1  0
 20 21  2  0
 21 22  1  0
 21 23  1  0
 23 24  2  0
 24 25  1  0
 25 26  2  0
 26 27  1  0
 27 28  2  0
 28 14  1  0
 20 15  1  0
 28 23  1  0
  1 29  1  0
  1 30  1  0
  1 31  1  0
  2 32  1  0
  2 33  1  0
  3 34  1  0
  3 35  1  0
  4 36  1  0
  5 37  1  0
  5 38  1  0
  6 39  1  0
  6 40  1  0
  7 41  1  0
  7 42  1  0
  8 43  1  0
  8 44  1  0
  9 45  1  0
 10 46  1  0
 10 47  1  0
 11 48  1  0
 11 49  1  0
 12 50  1  0
 12 51  1  0
 13 52  1  0
 16 53  1  0
 17 54  1  0
 18 55  1  0
 19 56  1  0
 22 57  1  0
 22 58  1  0
 22 59  1  0
 24 60  1  0
 25 61  1  0
 26 62  1  0
 27 63  1  0
M  CHG  1  21   1
M  END
>  <smiles>  (16) 
CCCNCCCCNCCCNc1c2ccccc2[n+](C)c2ccccc12

>  <score_type>  (16) 
oracle

>  <origin>  (16) 
adg

>  <m_score__min__energy>  (16) 
-9.5999999999999996

>  <m_primary>  (16) 
energy

$$$$
17:0
     RDKit          3D

 74 78  0  0  0  0  0  0  0  0999 V2000
   -5.6920   25.4870  -30.4100 C   0  0  0  0  0  0  0  0  0  0  0  0
   -5.9480   24.0350  -30.0450 C   0  0  0  0  0  0  0  0  0  0  0  0
   -4.7740   23.4460  -29.5440 N   0  0  0  0  0  0  0  0  0  0  0  0
   -4.1730   23.9660  -28.3860 C   0  0  0  0  0  0  0  0  0  0  0  0
   -2.7190   24.3240  -28.4890 C   0  0  0  0  0  0  0  0  0  0  0  0
   -4.2810   22.2590  -30.1110 C   0  0  0  0  0  0  0  0  0  0  0  0
   -3.7350   22.5960  -31.5480 C   0  0  0  0  0  0  0  0  0  0  0  0
   -4.5910   22.0650  -32.5450 N   0  0  0  0  0  0  0  0  0  0  0  0
   -5.3160   20.8990  -32.7570 C   0  0  0  0  0  0  0  0  0  0  0  0
   -6.6680   20.7890  -32.4970 C   0  0  0  0  0  0  0  0  0  0  0  0
   -7.4720   21.8610  -32.1800 C   0  0  0  0  0  0  0  0  0  0  0  0
   -8.8040   21.8080  -31.9280 C   0  0  0  0  0  0  0  0  0  0  0  0
   -9.4480   20.6050  -31.9820 C   0  0  0  0  0  0  0  0  0  0  0  0
   -8.6910   19.4750  -32.2990 C   0  0  0  0  0  0  0  0  0  0  0  0
   -7.3380   19.5550  -32.5510 C   0  0  0  0  0  0  0  0  0  0  0  0
   -6.6760   18.4370  -32.8620 N   0  0  0  0  0  0  0  0  0  0  0  0
   -7.2570   17.1200  -32.9290 C   0  0  0  0  0  0  0  0  0  0  0  0
   -5.3370   18.5060  -33.1370 C   0  0  0  0  0  0  0  0  0  0  0  0
   -4.6770   17.3340  -33.4840 C   0  0  0  0  0  0  0  0  0  0  0  0
   -3.3390   17.3040  -33.8100 C   0  0  0  0  0  0  0  0  0  0  0  0
   -2.6650   18.5020  -33.7870 C   0  0  0  0  0  0  0  0  0  0  0  0
   -3.3250   19.6730  -33.4420 C   0  0  0  0  0  0  0  0  0  0  0  0
   -2.6070   20.8670  -33.8280 N   0  0  0  0  0  0  0  0  0  0  0  0
   -1.1550   20.9440  -33.8240 C   0  0  0  0  0  0  0  0  0  0  0  0
   -0.7380   21.5430  -32.5060 C   0  0  0  0  0  0  0  0  0  0  0  0
   -0.4840   20.4420  -31.5910 N   0  0  0  0  0  0  0  0  0  0  0  0
    0.0470   19.2660  -31.9500 C   0  0  0  0  0  0  0  0  0  0  0  0
    0.1450   18.4730  -30.8610 N   0  0  0  0  0  0  0  0  0  0  0  0
    0.6660   17.1110  -30.8000 C   0  0  0  0  0  0  0  0  0  0  0  0
   -0.3330   19.1560  -29.7840 C   0  0  0  0  0  0  0  0  0  0  0  0
   -0.4700   18.8330  -28.4330 C   0  0  0  0  0  0  0  0  0  0  0  0
   -1.0020   19.7430  -27.5300 C   0  0  0  0  0  0  0  0  0  0  0  0
   -1.3940   20.9890  -28.0260 C   0  0  0  0  0  0  0  0  0  0  0  0
   -1.2610   21.3160  -29.3620 C   0  0  0  0  0  0  0  0  0  0  0  0
   -0.7260   20.3950  -30.2590 C   0  0  0  0  0  0  0  0  0  0  0  0
   -4.6600   19.7230  -33.0930 C   0  0  0  0  0  0  0  0  0  0  0  0
   -5.5869   26.0829  -29.4914 H   0  0  0  0  0  0  0  0  0  0  0  0
   -4.7673   25.5589  -31.0015 H   0  0  0  0  0  0  0  0  0  0  0  0
   -6.5363   25.8707  -31.0015 H   0  0  0  0  0  0  0  0  0  0  0  0
   -6.7348   23.9865  -29.2778 H   0  0  0  0  0  0  0  0  0  0  0  0
   -6.2672   23.4895  -30.9453 H   0  0  0  0  0  0  0  0  0  0  0  0
   -4.7222   24.8766  -28.1045 H   0  0  0  0  0  0  0  0  0  0  0  0
   -4.2213   23.1554  -27.6439 H   0  0  0  0  0  0  0  0  0  0  0  0
   -2.2947   24.4285  -27.4795 H   0  0  0  0  0  0  0  0  0  0  0  0
   -2.1836   23.5308  -29.0315 H   0  0  0  0  0  0  0  0  0  0  0  0
   -2.6131   25.2750  -29.0315 H   0  0  0  0  0  0  0  0  0  0  0  0
   -3.4685   21.8571  -29.4878 H   0  0  0  0  0  0  0  0  0  0  0  0
   -5.0795   21.5050  -30.1730 H   0  0  0  0  0  0  0  0  0  0  0  0
   -3.6772   23.6882  -31.6656 H   0  0  0  0  0  0  0  0  0  0  0  0
   -2.7372   22.1472  -31.6621 H   0  0  0  0  0  0  0  0  0  0  0  0
   -4.5210   22.6880  -33.4700 H   0  0  0  0  0  0  0  0  0  0  0  0
   -6.9912   22.8489  -32.1263 H   0  0  0  0  0  0  0  0  0  0  0  0
   -9.3598   22.7250  -31.6826 H   0  0  0  0  0  0  0  0  0  0  0  0
  -10.5270   20.5286  -31.7825 H   0  0  0  0  0  0  0  0  0  0  0  0
   -9.1877   18.4948  -32.3489 H   0  0  0  0  0  0  0  0  0  0  0  0
   -7.4243   16.7408  -31.9101 H   0  0  0  0  0  0  0  0  0  0  0  0
   -8.2168   17.1695  -33.4640 H   0  0  0  0  0  0  0  0  0  0  0  0
   -6.5734   16.4444  -33.4640 H   0  0  0  0  0  0  0  0  0  0  0  0
   -5.2455   16.3924  -33.4990 H   0  0  0  0  0  0  0  0  0  0  0  0
   -2.8329   16.3644  -34.0766 H   0  0  0  0  0  0  0  0  0  0  0  0
   -1.5958   18.5326  -34.0437 H   0  0  0  0  0  0  0  0  0  0  0  0
   -3.0590   21.7100  -34.2470 H   0  0  0  0  0  0  0  0  0  0  0  0
   -0.7250   19.9373  -33.9320 H   0  0  0  0  0  0  0  0  0  0  0  0
   -0.7970   21.5612  -34.6612 H   0  0  0  0  0  0  0  0  0  0  0  0
    0.1754   22.1418  -32.6370 H   0  0  0  0  0  0  0  0  0  0  0  0
   -1.5251   22.2028  -32.1120 H   0  0  0  0  0  0  0  0  0  0  0  0
    0.3544   18.9899  -32.9695 H   0  0  0  0  0  0  0  0  0  0  0  0
    0.7814   16.8093  -29.7485 H   0  0  0  0  0  0  0  0  0  0  0  0
   -0.0342   16.4277  -31.3028 H   0  0  0  0  0  0  0  0  0  0  0  0
    1.6435   17.0695  -31.3028 H   0  0  0  0  0  0  0  0  0  0  0  0
   -0.1513   17.8417  -28.0784 H   0  0  0  0  0  0  0  0  0  0  0  0
   -1.1109   19.4927  -26.4644 H   0  0  0  0  0  0  0  0  0  0  0  0
   -1.8203   21.7301  -27.3339 H   0  0  0  0  0  0  0  0  0  0  0  0
   -1.5788   22.3071  -29.7181 H   0  0  0  0  0  0  0  0  0  0  0  0
  1  2  1  0
  2  3  1  0
  3  4  1  0
  4  5  1  0
  3  6  1  0
  6  7  1  0
  7  8  1  0
  8  9  1  0
  9 10  2  0
 10 11  1  0
 11 12  2  0
 12 13  1  0
 13 14  2  0
 14 15  1  0
 15 16  2  0
 16 17  1  0
 16 18  1  0
 18 19  2  0
 19 20  1  0
 20 21  2  0
 21 22  1  0
 22 23  1  0
 23 24  1  0
 24 25  1  0
 25 26  1  0
 26 27  2  0
 27 28  1  0
 28 29  1  0
 28 30  1  0
 30 31  2  0
 31 32  1  0
 32 33  2  0
 33 34  1  0
 34 35  2  0
 22 36  2  0
 36  9  1  0
 15 10  1  0
 36 18  1  0
 35 26  1  0
 35 30  1  0
  1 37  1  0
  1 38  1  0
  1 39  1  0
  2 40  1  0
  2 41  1  0
  4 42  1  0
  4 43  1  0
  5 44  1  0
  5 45  1  0
  5 46  1  0
  6 47  1  0
  6 48  1  0
  7 49  1  0
  7 50  1  0
  8 51  1  0
 11 52  1  0
 12 53  1  0
 13 54  1  0
 14 55  1  0
 17 56  1  0
 17 57  1  0
 17 58  1  0
 19 59  1  0
 20 60  1  0
 21 61  1  0
 23 62  1  0
 24 63  1  0
 24 64  1  0
 25 65  1  0
 25 66  1  0
 27 67  1  0
 29 68  1  0
 29 69  1  0
 29 70  1  0
 31 71  1  0
 32 72  1  0
 33 73  1  0
 34 74  1  0
M  CHG  2  16   1  26   1
M  END
>  <smiles>  (17) 
CCN(CC)CCNc1c2ccccc2[n+](C)c2cccc(NCC[n+]3cn(C)c4ccccc43)c12

>  <score_type>  (17) 
oracle

>  <origin>  (17) 
adg

>  <m_score__min__energy>  (17) 
-9.2799999999999994

>  <m_primary>  (17) 
energy

$$$$
19:0
     RDKit          3D

 46 48  0  0  0  0  0  0  0  0999 V2000
   -4.1810   23.0100  -28.2540 C   0  0  0  0  0  0  0  0  0  0  0  0
   -3.5440   21.9380  -29.1080 C   0  0  0  0  0  0  0  0  0  0  0  0
   -3.8580   22.1110  -30.5110 N   0  0  0  0  0  0  0  0  0  0  0  0
   -3.7900   23.4980  -30.8430 C   0  0  0  0  0  0  0  0  0  0  0  0
   -3.0490   21.2710  -31.3590 C   0  0  0  0  0  0  0  0  0  0  0  0
   -3.1510   21.5230  -32.8110 C   0  0  0  0  0  0  0  0  0  0  0  0
   -4.4370   21.5210  -33.4300 N   0  0  0  0  0  0  0  0  0  0  0  0
   -5.5230   20.6840  -33.1060 C   0  0  0  0  0  0  0  0  0  0  0  0
   -6.6370   21.3150  -32.5350 C   0  0  0  0  0  0  0  0  0  0  0  0
   -6.5960   22.6820  -32.3280 C   0  0  0  0  0  0  0  0  0  0  0  0
   -7.6530   23.3760  -31.7620 C   0  0  0  0  0  0  0  0  0  0  0  0
   -8.7560   22.6650  -31.4090 C   0  0  0  0  0  0  0  0  0  0  0  0
   -8.8110   21.3010  -31.6090 C   0  0  0  0  0  0  0  0  0  0  0  0
   -7.7650   20.5790  -32.1760 C   0  0  0  0  0  0  0  0  0  0  0  0
   -7.8350   19.2440  -32.3580 N   0  0  0  0  0  0  0  0  0  0  0  0
   -9.0450   18.5780  -31.9670 C   0  0  0  0  0  0  0  0  0  0  0  0
   -6.7680   18.6430  -32.9020 C   0  0  0  0  0  0  0  0  0  0  0  0
   -6.7820   17.2760  -33.0970 C   0  0  0  0  0  0  0  0  0  0  0  0
   -5.6900   16.5980  -33.6490 C   0  0  0  0  0  0  0  0  0  0  0  0
   -5.7160   14.7220  -33.9100 Br  0  0  0  0  0  0  0  0  0  0  0  0
   -4.5660   17.2950  -34.0110 C   0  0  0  0  0  0  0  0  0  0  0  0
   -3.0770   16.3880  -34.7620 Br  0  0  0  0  0  0  0  0  0  0  0  0
   -4.5750   18.6550  -33.8070 C   0  0  0  0  0  0  0  0  0  0  0  0
   -5.6190   19.3380  -33.2760 C   0  0  0  0  0  0  0  0  0  0  0  0
   -4.0362   22.7663  -27.1912 H   0  0  0  0  0  0  0  0  0  0  0  0
   -3.7131   23.9808  -28.4746 H   0  0  0  0  0  0  0  0  0  0  0  0
   -5.2573   23.0632  -28.4746 H   0  0  0  0  0  0  0  0  0  0  0  0
   -2.4524   21.9821  -28.9793 H   0  0  0  0  0  0  0  0  0  0  0  0
   -3.9409   20.9638  -28.7864 H   0  0  0  0  0  0  0  0  0  0  0  0
   -3.7607   24.0950  -29.9196 H   0  0  0  0  0  0  0  0  0  0  0  0
   -2.8814   23.6898  -31.4326 H   0  0  0  0  0  0  0  0  0  0  0  0
   -4.6755   23.7777  -31.4326 H   0  0  0  0  0  0  0  0  0  0  0  0
   -1.9979   21.4112  -31.0666 H   0  0  0  0  0  0  0  0  0  0  0  0
   -3.4268   20.2488  -31.2093 H   0  0  0  0  0  0  0  0  0  0  0  0
   -2.7063   22.5116  -32.9975 H   0  0  0  0  0  0  0  0  0  0  0  0
   -2.6423   20.6585  -33.2626 H   0  0  0  0  0  0  0  0  0  0  0  0
   -4.5890   22.2240  -34.2130 H   0  0  0  0  0  0  0  0  0  0  0  0
   -5.6933   23.2371  -32.6229 H   0  0  0  0  0  0  0  0  0  0  0  0
   -7.6013   24.4634  -31.6040 H   0  0  0  0  0  0  0  0  0  0  0  0
   -9.6153   23.1832  -30.9584 H   0  0  0  0  0  0  0  0  0  0  0  0
   -9.7206   20.7610  -31.3074 H   0  0  0  0  0  0  0  0  0  0  0  0
   -9.1066   18.5441  -30.8692 H   0  0  0  0  0  0  0  0  0  0  0  0
   -9.9109   19.1266  -32.3661 H   0  0  0  0  0  0  0  0  0  0  0  0
   -9.0447   17.5529  -32.3661 H   0  0  0  0  0  0  0  0  0  0  0  0
   -7.6769   16.7042  -32.8102 H   0  0  0  0  0  0  0  0  0  0  0  0
   -3.6785   19.2248  -34.0927 H   0  0  0  0  0  0  0  0  0  0  0  0
  1  2  1  0
  2  3  1  0
  3  4  1  0
  3  5  1  0
  5  6  1  0
  6  7  1  0
  7  8  1  0
  8  9  2  0
  9 10  1  0
 10 11  2  0
 11 12  1  0
 12 13  2  0
 13 14  1  0
 14 15  2  0
 15 16  1  0
 15 17  1  0
 17 18  2  0
 18 19  1  0
 19 20  1  0
 19 21  2  0
 21 22  1  0
 21 23  1  0
 23 24  2  0
 24  8  1  0
 14  9  1  0
 24 17  1  0
  1 25  1  0
  1 26  1  0
  1 27  1  0
  2 28  1  0
  2 29  1  0
  4 30  1  0
  4 31  1  0
  4 32  1  0
  5 33  1  0
  5 34  1  0
  6 35  1  0
  6 36  1  0
  7 37  1  0
 10 38  1  0
 11 39  1  0
 12 40  1  0
 13 41  1  0
 16 42  1  0
 16 43  1  0
 16 44  1  0
 18 45  1  0
 23 46  1  0
M  CHG  1  15   1
M  END
>  <smiles>  (18) 
CCN(C)CCNc1c2ccccc2[n+](C)c2cc(Br)c(Br)cc12

>  <score_type>  (18) 
oracle

>  <origin>  (18) 
adg

>  <m_score__min__energy>  (18) 
-9.2599999999999998

>  <m_primary>  (18) 
energy

$$$$
20:0
     RDKit          3D

 60 62  0  0  0  0  0  0  0  0999 V2000
   -1.3010   20.6770  -30.1980 C   0  0  0  0  0  0  0  0  0  0  0  0
   -1.2150   22.0710  -30.7960 C   0  0  0  0  0  0  0  0  0  0  0  0
   -2.0290   22.9840  -30.0570 N   0  0  0  0  0  0  0  0  0  0  0  0
   -1.9450   22.7790  -28.6240 C   0  0  0  0  0  0  0  0  0  0  0  0
   -3.2210   22.2120  -28.0600 C   0  0  0  0  0  0  0  0  0  0  0  0
   -4.2520   22.1530  -28.9620 O   0  0  0  0  0  0  0  0  0  0  0  0
   -5.1330   23.2270  -28.8900 C   0  0  0  0  0  0  0  0  0  0  0  0
   -4.4170   24.5360  -29.1570 C   0  0  0  0  0  0  0  0  0  0  0  0
   -4.2770   24.8290  -30.5050 O   0  0  0  0  0  0  0  0  0  0  0  0
   -5.4510   24.9630  -31.1960 C   0  0  0  0  0  0  0  0  0  0  0  0
   -5.7450   23.7610  -32.0790 C   0  0  0  0  0  0  0  0  0  0  0  0
   -4.9690   22.6110  -31.7030 N   0  0  0  0  0  0  0  0  0  0  0  0
   -5.3310   21.3510  -32.2530 C   0  0  0  0  0  0  0  0  0  0  0  0
   -6.6040   20.8320  -32.1460 C   0  0  0  0  0  0  0  0  0  0  0  0
   -7.5260   21.6090  -31.4620 C   0  0  0  0  0  0  0  0  0  0  0  0
   -8.8200   21.1560  -31.3050 C   0  0  0  0  0  0  0  0  0  0  0  0
   -9.1370   19.9340  -31.8460 C   0  0  0  0  0  0  0  0  0  0  0  0
   -8.2100   19.1650  -32.5290 C   0  0  0  0  0  0  0  0  0  0  0  0
   -6.9130   19.6050  -32.6930 C   0  0  0  0  0  0  0  0  0  0  0  0
   -6.0060   18.8460  -33.3580 N   0  0  0  0  0  0  0  0  0  0  0  0
   -6.3340   17.5780  -33.9470 C   0  0  0  0  0  0  0  0  0  0  0  0
   -6.0620   16.3970  -33.0430 C   0  0  0  0  0  0  0  0  0  0  0  0
   -4.7470   19.3570  -33.4630 C   0  0  0  0  0  0  0  0  0  0  0  0
   -3.7320   18.6730  -34.1100 C   0  0  0  0  0  0  0  0  0  0  0  0
   -2.4500   19.1830  -34.2160 C   0  0  0  0  0  0  0  0  0  0  0  0
   -2.1390   20.4040  -33.6740 C   0  0  0  0  0  0  0  0  0  0  0  0
   -3.1250   21.1110  -33.0230 C   0  0  0  0  0  0  0  0  0  0  0  0
   -4.4040   20.5840  -32.9260 C   0  0  0  0  0  0  0  0  0  0  0  0
   -1.2966   20.7480  -29.1003 H   0  0  0  0  0  0  0  0  0  0  0  0
   -2.2308   20.1922  -30.5304 H   0  0  0  0  0  0  0  0  0  0  0  0
   -0.4379   20.0815  -30.5304 H   0  0  0  0  0  0  0  0  0  0  0  0
   -0.1700   22.4132  -30.7676 H   0  0  0  0  0  0  0  0  0  0  0  0
   -1.5743   22.0350  -31.8351 H   0  0  0  0  0  0  0  0  0  0  0  0
   -2.9890   23.0570  -30.4010 H   0  0  0  0  0  0  0  0  0  0  0  0
   -1.1220   22.0804  -28.4127 H   0  0  0  0  0  0  0  0  0  0  0  0
   -1.7687   23.7561  -28.1505 H   0  0  0  0  0  0  0  0  0  0  0  0
   -3.0172   21.1926  -27.7005 H   0  0  0  0  0  0  0  0  0  0  0  0
   -3.5414   22.8892  -27.2546 H   0  0  0  0  0  0  0  0  0  0  0  0
   -5.9268   23.0919  -29.6394 H   0  0  0  0  0  0  0  0  0  0  0  0
   -5.5608   23.2619  -27.8772 H   0  0  0  0  0  0  0  0  0  0  0  0
   -4.9882   25.3475  -28.6826 H   0  0  0  0  0  0  0  0  0  0  0  0
   -3.4030   24.4387  -28.7418 H   0  0  0  0  0  0  0  0  0  0  0  0
   -6.2735   25.0813  -30.4752 H   0  0  0  0  0  0  0  0  0  0  0  0
   -5.3570   25.8433  -31.8488 H   0  0  0  0  0  0  0  0  0  0  0  0
   -6.8129   23.5114  -31.9942 H   0  0  0  0  0  0  0  0  0  0  0  0
   -5.4780   24.0266  -33.1125 H   0  0  0  0  0  0  0  0  0  0  0  0
   -4.1450   22.6640  -31.0370 H   0  0  0  0  0  0  0  0  0  0  0  0
   -7.2274   22.5826  -31.0461 H   0  0  0  0  0  0  0  0  0  0  0  0
   -9.5708   21.7523  -30.7658 H   0  0  0  0  0  0  0  0  0  0  0  0
  -10.1627   19.5531  -31.7328 H   0  0  0  0  0  0  0  0  0  0  0  0
   -8.5112   18.1924  -32.9454 H   0  0  0  0  0  0  0  0  0  0  0  0
   -7.4040   17.5804  -34.2020 H   0  0  0  0  0  0  0  0  0  0  0  0
   -5.6908   17.4595  -34.8315 H   0  0  0  0  0  0  0  0  0  0  0  0
   -6.1352   16.7149  -31.9925 H   0  0  0  0  0  0  0  0  0  0  0  0
   -6.8017   15.6069  -33.2394 H   0  0  0  0  0  0  0  0  0  0  0  0
   -5.0512   16.0100  -33.2394 H   0  0  0  0  0  0  0  0  0  0  0  0
   -3.9520   17.6912  -34.5547 H   0  0  0  0  0  0  0  0  0  0  0  0
   -1.6742   18.6046  -34.7391 H   0  0  0  0  0  0  0  0  0  0  0  0
   -1.1205   20.8109  -33.7579 H   0  0  0  0  0  0  0  0  0  0  0  0
   -2.8985   22.0923  -32.5806 H   0  0  0  0  0  0  0  0  0  0  0  0
  1  2  1  0
  2  3  1  0
  3  4  1  0
  4  5  1  0
  5  6  1  0
  6  7  1  0
  7  8  1  0
  8  9  1  0
  9 10  1  0
 10 11  1  0
 11 12  1  0
 12 13  1  0
 13 14  2  0
 14 15  1  0
 15 16  2  0
 16 17  1  0
 17 18  2  0
 18 19  1  0
 19 20  2  0
 20 21  1  0
 21 22  1  0
 20 23  1  0
 23 24  2  0
 24 25  1  0
 25 26  2  0
 26 27  1  0
 27 28  2  0
 28 13  1  0
 19 14  1  0
 28 23  1  0
  1 29  1  0
  1 30  1  0
  1 31  1  0
  2 32  1  0
  2 33  1  0
  3 34  1  0
  4 35  1  0
  4 36  1  0
  5 37  1  0
  5 38  1  0
  7 39  1  0
  7 40  1  0
  8 41  1  0
  8 42  1  0
 10 43  1  0
 10 44  1  0
 11 45  1  0
 11 46  1  0
 12 47  1  0
 15 48  1  0
 16 49  1  0
 17 50  1  0
 18 51  1  0
 21 52  1  0
 21 53  1  0
 22 54  1  0
 22 55  1  0
 22 56  1  0
 24 57  1  0
 25 58  1  0
 26 59  1  0
 27 60  1  0
M  CHG  1  20   1
M  END
>  <smiles>  (19) 
CCNCCOCCOCCNc1c2ccccc2[n+](CC)c2ccccc12

>  <score_type>  (19) 
oracle

>  <origin>  (19) 
adg

>  <m_score__min__energy>  (19) 
-9.4100000000000001

>  <m_primary>  (19) 
energy

$$$$
