0:0
     RDKit          3D

 45 48  0  0  0  0  0  0  0  0999 V2000
   -0.8110   18.7530  -32.7090 C   0  0  0  0  0  0  0  0  0  0  0  0
   -2.0110   19.5850  -32.6100 N   0  0  0  0  0  0  0  0  0  0  0  0
   -3.1780   19.4650  -33.2990 C   0  0  0  0  0  0  0  0  0  0  0  0
   -3.4930   18.3410  -34.2430 C   0  0  0  0  0  0  0  0  0  0  0  0
   -4.6630   17.6640  -33.8300 O   0  0  0  0  0  0  0  0  0  0  0  0
   -5.7980   18.1930  -34.4850 C   0  0  0  0  0  0  0  0  0  0  0  0
   -6.7560   18.7050  -33.4490 C   0  0  0  0  0  0  0  0  0  0  0  0
   -7.0590   20.0750  -33.3720 C   0  0  0  0  0  0  0  0  0  0  0  0
   -7.9810   20.5400  -32.4290 C   0  0  0  0  0  0  0  0  0  0  0  0
   -8.6140   19.6410  -31.5660 C   0  0  0  0  0  0  0  0  0  0  0  0
   -8.3300   18.2750  -31.6490 C   0  0  0  0  0  0  0  0  0  0  0  0
   -7.4090   17.8060  -32.5900 C   0  0  0  0  0  0  0  0  0  0  0  0
   -4.0680   20.4550  -33.0270 N   0  0  0  0  0  0  0  0  0  0  0  0
   -3.4050   21.2260  -32.1470 C   0  0  0  0  0  0  0  0  0  0  0  0
   -3.8510   22.3980  -31.5430 C   0  0  0  0  0  0  0  0  0  0  0  0
   -2.9730   23.0610  -30.6600 C   0  0  0  0  0  0  0  0  0  0  0  0
   -3.4850   24.5350  -29.8460 S   0  0  0  0  0  0  0  0  0  0  0  0
   -4.2090   25.4240  -30.8180 O   0  0  0  0  0  0  0  0  0  0  0  0
   -2.2770   25.2700  -29.3350 O   0  0  0  0  0  0  0  0  0  0  0  0
   -4.5990   24.0950  -28.5150 C   0  0  0  0  0  0  0  0  0  0  0  0
   -4.0220   24.2370  -27.1160 C   0  0  0  0  0  0  0  0  0  0  0  0
   -4.1920   22.8570  -27.7350 C   0  0  0  0  0  0  0  0  0  0  0  0
   -1.6860   22.5270  -30.4060 C   0  0  0  0  0  0  0  0  0  0  0  0
   -1.2660   21.3400  -31.0340 C   0  0  0  0  0  0  0  0  0  0  0  0
   -2.1650   20.7140  -31.9000 C   0  0  0  0  0  0  0  0  0  0  0  0
   -0.4527   18.5046  -31.6991 H   0  0  0  0  0  0  0  0  0  0  0  0
   -1.0509   17.8265  -33.2512 H   0  0  0  0  0  0  0  0  0  0  0  0
   -0.0274   19.3026  -33.2512 H   0  0  0  0  0  0  0  0  0  0  0  0
   -3.6474   18.7484  -35.2530 H   0  0  0  0  0  0  0  0  0  0  0  0
   -2.6524   17.6314  -34.2461 H   0  0  0  0  0  0  0  0  0  0  0  0
   -5.4930   19.0171  -35.1467 H   0  0  0  0  0  0  0  0  0  0  0  0
   -6.2813   17.4105  -35.0885 H   0  0  0  0  0  0  0  0  0  0  0  0
   -6.5693   20.7840  -34.0558 H   0  0  0  0  0  0  0  0  0  0  0  0
   -8.2083   21.6144  -32.3663 H   0  0  0  0  0  0  0  0  0  0  0  0
   -9.3356   20.0085  -30.8216 H   0  0  0  0  0  0  0  0  0  0  0  0
   -8.8322   17.5677  -30.9725 H   0  0  0  0  0  0  0  0  0  0  0  0
   -7.1949   16.7292  -32.6580 H   0  0  0  0  0  0  0  0  0  0  0  0
   -4.8563   22.7947  -31.7477 H   0  0  0  0  0  0  0  0  0  0  0  0
   -5.5168   24.4391  -29.0142 H   0  0  0  0  0  0  0  0  0  0  0  0
   -3.0150   24.6571  -26.9761 H   0  0  0  0  0  0  0  0  0  0  0  0
   -4.3517   24.7176  -26.1831 H   0  0  0  0  0  0  0  0  0  0  0  0
   -3.3078   22.2793  -28.0423 H   0  0  0  0  0  0  0  0  0  0  0  0
   -4.6956   21.9263  -27.4346 H   0  0  0  0  0  0  0  0  0  0  0  0
   -1.0085   23.0451  -29.7113 H   0  0  0  0  0  0  0  0  0  0  0  0
   -0.2660   20.9205  -30.8495 H   0  0  0  0  0  0  0  0  0  0  0  0
  1  2  1  0
  2  3  1  0
  3  4  1  0
  4  5  1  0
  5  6  1  0
  6  7  1  0
  7  8  2  0
  8  9  1  0
  9 10  2  0
 10 11  1  0
 11 12  2  0
  3 13  2  0
 13 14  1  0
 14 15  2  0
 15 16  1  0
 16 17  1  0
 17 18  2  0
 17 19  2  0
 17 20  1  0
 20 21  1  0
 21 22  1  0
 16 23  2  0
 23 24  1  0
 24 25  2  0
 25  2  1  0
 12  7  1  0
 25 14  1  0
 22 20  1  0
  1 26  1  0
  1 27  1  0
  1 28  1  0
  4 29  1  0
  4 30  1  0
  6 31  1  0
  6 32  1  0
  8 33  1  0
  9 34  1  0
 10 35  1  0
 11 36  1  0
 12 37  1  0
 15 38  1  0
 20 39  1  0
 21 40  1  0
 21 41  1  0
 22 42  1  0
 22 43  1  0
 23 44  1  0
 24 45  1  0
M  END
>  <UniqueID>  (1) 
1

>  <SMILES>  (1) 
Cn1c(COCc2ccccc2)nc2cc(S(=O)(=O)C3CC3)ccc21

>  <Energy>  (1) 
347.95669453414416

>  <Genealogy>  (1) 
Cn1c(COCc2ccccc2)nc2cc(S(=O)(=O)C3CC3)ccc21 (3D coordinates assigned)
Cn1c(COCc2ccccc2)nc2cc(S(=O)(=O)C3CC3)ccc21 (nonaromatic ring conformer: 347.95669453414416 kcal/mol)

>  <smiles>  (1) 
Cn1c(COCc2ccccc2)nc2cc(S(=O)(=O)C3CC3)ccc21

>  <score_type>  (1) 
oracle

>  <origin>  (1) 
adg

>  <m_score__min__energy>  (1) 
-9.0199999999999996

>  <m_primary>  (1) 
energy

$$$$
1:0
     RDKit          3D

 42 44  0  0  0  0  0  0  0  0999 V2000
   -8.4550   18.6380  -31.8000 C   0  0  0  0  0  0  0  0  0  0  0  0
   -7.5110   19.5940  -32.3780 N   0  0  0  0  0  0  0  0  0  0  0  0
   -6.3560   19.3580  -33.0460 C   0  0  0  0  0  0  0  0  0  0  0  0
   -5.7610   18.0300  -33.3110 C   0  0  0  0  0  0  0  0  0  0  0  0
   -5.2040   17.7140  -34.5590 C   0  0  0  0  0  0  0  0  0  0  0  0
   -4.6360   16.4540  -34.7620 C   0  0  0  0  0  0  0  0  0  0  0  0
   -4.6090   15.5470  -33.7510 N   0  0  0  0  0  0  0  0  0  0  0  0
   -5.1230   15.8310  -32.5250 C   0  0  0  0  0  0  0  0  0  0  0  0
   -5.7000   17.0800  -32.2800 C   0  0  0  0  0  0  0  0  0  0  0  0
   -5.7690   20.5100  -33.4360 N   0  0  0  0  0  0  0  0  0  0  0  0
   -6.5670   21.4870  -33.0370 N   0  0  0  0  0  0  0  0  0  0  0  0
   -7.6120   20.9390  -32.3990 C   0  0  0  0  0  0  0  0  0  0  0  0
   -8.9500   21.8930  -31.6700 S   0  0  0  0  0  0  0  0  0  0  0  0
   -7.9120   22.6730  -30.3840 C   0  0  0  0  0  0  0  0  0  0  0  0
   -6.4620   22.1830  -30.4670 C   0  0  0  0  0  0  0  0  0  0  0  0
   -5.5660   23.1020  -31.1990 N   0  0  0  0  0  0  0  0  0  0  0  0
   -6.0420   24.4930  -31.3610 C   0  0  0  0  0  0  0  0  0  0  0  0
   -5.3650   25.4690  -30.3940 C   0  0  0  0  0  0  0  0  0  0  0  0
   -3.9090   25.3280  -30.4680 N   0  0  0  0  0  0  0  0  0  0  0  0
   -3.5250   23.9850  -30.0330 C   0  0  0  0  0  0  0  0  0  0  0  0
   -4.1150   22.9290  -30.9770 C   0  0  0  0  0  0  0  0  0  0  0  0
   -8.4037   18.6900  -30.7024 H   0  0  0  0  0  0  0  0  0  0  0  0
   -9.4747   18.8836  -32.1314 H   0  0  0  0  0  0  0  0  0  0  0  0
   -8.1966   17.6215  -32.1314 H   0  0  0  0  0  0  0  0  0  0  0  0
   -5.2144   18.4539  -35.3729 H   0  0  0  0  0  0  0  0  0  0  0  0
   -4.2097   16.1957  -35.7426 H   0  0  0  0  0  0  0  0  0  0  0  0
   -5.0847   15.0770  -31.7250 H   0  0  0  0  0  0  0  0  0  0  0  0
   -6.1040   17.3171  -31.2847 H   0  0  0  0  0  0  0  0  0  0  0  0
   -6.3870   22.5040  -33.1920 H   0  0  0  0  0  0  0  0  0  0  0  0
   -7.9301   23.7642  -30.5218 H   0  0  0  0  0  0  0  0  0  0  0  0
   -8.3156   22.3989  -29.3981 H   0  0  0  0  0  0  0  0  0  0  0  0
   -6.0765   22.0637  -29.4437 H   0  0  0  0  0  0  0  0  0  0  0  0
   -6.4744   21.2344  -31.0237 H   0  0  0  0  0  0  0  0  0  0  0  0
   -5.8339   24.8179  -32.3911 H   0  0  0  0  0  0  0  0  0  0  0  0
   -7.1195   24.5019  -31.1399 H   0  0  0  0  0  0  0  0  0  0  0  0
   -5.6442   26.4985  -30.6625 H   0  0  0  0  0  0  0  0  0  0  0  0
   -5.6952   25.2449  -29.3689 H   0  0  0  0  0  0  0  0  0  0  0  0
   -3.4890   26.0130  -29.7970 H   0  0  0  0  0  0  0  0  0  0  0  0
   -2.4281   23.9024  -30.0367 H   0  0  0  0  0  0  0  0  0  0  0  0
   -3.9130   23.8136  -29.0181 H   0  0  0  0  0  0  0  0  0  0  0  0
   -3.6008   22.9988  -31.9469 H   0  0  0  0  0  0  0  0  0  0  0  0
   -3.9682   21.9461  -30.5055 H   0  0  0  0  0  0  0  0  0  0  0  0
  1  2  1  0
  2  3  1  0
  3  4  1  0
  4  5  2  0
  5  6  1  0
  6  7  2  0
  7  8  1  0
  8  9  2  0
  3 10  2  0
 10 11  1  0
 11 12  2  0
 12 13  1  0
 13 14  1  0
 14 15  1  0
 15 16  1  0
 16 17  1  0
 17 18  1  0
 18 19  1  0
 19 20  1  0
 20 21  1  0
 12  2  1  0
 21 16  1  0
  9  4  1  0
  1 22  1  0
  1 23  1  0
  1 24  1  0
  5 25  1  0
  6 26  1  0
  8 27  1  0
  9 28  1  0
 11 29  1  0
 14 30  1  0
 14 31  1  0
 15 32  1  0
 15 33  1  0
 17 34  1  0
 17 35  1  0
 18 36  1  0
 18 37  1  0
 19 38  1  0
 20 39  1  0
 20 40  1  0
 21 41  1  0
 21 42  1  0
M  CHG  1  11   1
M  END
>  <UniqueID>  (2) 
2

>  <SMILES>  (2) 
Cn1c(-c2ccncc2)n[nH+]c1SCCN1CCNCC1

>  <Energy>  (2) 
86.74915012538631

>  <Genealogy>  (2) 
Cn1c(-c2ccncc2)n[nH+]c1SCCN1CCNCC1 (protonated)
Cn1c(-c2ccncc2)n[nH+]c1SCCN1CCNCC1 (3D coordinates assigned)
Cn1c(-c2ccncc2)n[nH+]c1SCCN1CCNCC1 (nonaromatic ring conformer: 86.74915012538631 kcal/mol)

>  <smiles>  (2) 
Cn1c(SCCN2CCNCC2)nnc1-c1ccncc1

>  <score_type>  (2) 
oracle

>  <origin>  (2) 
adg

>  <m_score__min__energy>  (2) 
-8.1199999999999992

>  <m_primary>  (2) 
energy

$$$$
2:0
     RDKit          3D

 67 69  0  0  0  0  0  0  0  0999 V2000
   -6.1800   25.2380  -29.7630 C   0  0  0  0  0  0  0  0  0  0  0  0
   -5.1860   25.6630  -30.8390 C   0  0  0  0  0  0  0  0  0  0  0  0
   -3.8730   25.2730  -30.4820 O   0  0  0  0  0  0  0  0  0  0  0  0
   -3.8840   24.1780  -29.5850 C   0  0  0  0  0  0  0  0  0  0  0  0
   -2.9820   24.4610  -28.3800 C   0  0  0  0  0  0  0  0  0  0  0  0
   -2.3880   23.2640  -27.9100 O   0  0  0  0  0  0  0  0  0  0  0  0
   -3.0930   22.1230  -28.3650 C   0  0  0  0  0  0  0  0  0  0  0  0
   -2.1620   21.1080  -29.0630 C   0  0  0  0  0  0  0  0  0  0  0  0
   -2.3400   20.9950  -30.5300 N   0  0  0  0  0  0  0  0  0  0  0  0
   -1.3630   21.7670  -31.3140 C   0  0  0  0  0  0  0  0  0  0  0  0
   -3.7330   21.1940  -30.9880 C   0  0  0  0  0  0  0  0  0  0  0  0
   -3.7710   22.2220  -32.1210 C   0  0  0  0  0  0  0  0  0  0  0  0
   -4.5670   21.7360  -33.2470 N   0  0  0  0  0  0  0  0  0  0  0  0
   -5.6940   20.8730  -33.0230 C   0  0  0  0  0  0  0  0  0  0  0  0
   -6.8860   21.4290  -32.5270 C   0  0  0  0  0  0  0  0  0  0  0  0
   -7.0130   22.8240  -32.3470 C   0  0  0  0  0  0  0  0  0  0  0  0
   -8.2080   23.3800  -31.8950 C   0  0  0  0  0  0  0  0  0  0  0  0
   -9.2990   22.5620  -31.6330 C   0  0  0  0  0  0  0  0  0  0  0  0
   -9.1970   21.1810  -31.8000 C   0  0  0  0  0  0  0  0  0  0  0  0
   -7.9820   20.5820  -32.2230 C   0  0  0  0  0  0  0  0  0  0  0  0
   -7.8550   19.2150  -32.3580 N   0  0  0  0  0  0  0  0  0  0  0  0
   -8.8660   18.3180  -31.7530 C   0  0  0  0  0  0  0  0  0  0  0  0
   -6.7740   18.6820  -33.0350 C   0  0  0  0  0  0  0  0  0  0  0  0
   -6.7710   17.3280  -33.4490 C   0  0  0  0  0  0  0  0  0  0  0  0
   -5.6640   16.7690  -34.0730 C   0  0  0  0  0  0  0  0  0  0  0  0
   -4.5350   17.5340  -34.3120 C   0  0  0  0  0  0  0  0  0  0  0  0
   -4.5000   18.8950  -33.9620 C   0  0  0  0  0  0  0  0  0  0  0  0
   -3.3510   19.6600  -34.2250 O   0  0  0  0  0  0  0  0  0  0  0  0
   -2.0280   19.3310  -33.8080 C   0  0  0  0  0  0  0  0  0  0  0  0
   -1.0560   20.3620  -34.3570 C   0  0  0  0  0  0  0  0  0  0  0  0
   -5.6410   19.4920  -33.3430 C   0  0  0  0  0  0  0  0  0  0  0  0
   -5.7462   25.4235  -28.7693 H   0  0  0  0  0  0  0  0  0  0  0  0
   -7.1084   25.8178  -29.8719 H   0  0  0  0  0  0  0  0  0  0  0  0
   -6.4022   24.1662  -29.8719 H   0  0  0  0  0  0  0  0  0  0  0  0
   -5.4586   25.1867  -31.7923 H   0  0  0  0  0  0  0  0  0  0  0  0
   -5.2171   26.7579  -30.9400 H   0  0  0  0  0  0  0  0  0  0  0  0
   -4.9127   24.0076  -29.2347 H   0  0  0  0  0  0  0  0  0  0  0  0
   -3.5083   23.2863  -30.1083 H   0  0  0  0  0  0  0  0  0  0  0  0
   -2.1906   25.1645  -28.6781 H   0  0  0  0  0  0  0  0  0  0  0  0
   -3.5924   24.8943  -27.5740 H   0  0  0  0  0  0  0  0  0  0  0  0
   -3.5699   21.6332  -27.5032 H   0  0  0  0  0  0  0  0  0  0  0  0
   -3.8423   22.4566  -29.0980 H   0  0  0  0  0  0  0  0  0  0  0  0
   -1.1223   21.4099  -28.8684 H   0  0  0  0  0  0  0  0  0  0  0  0
   -2.4179   20.1223  -28.6472 H   0  0  0  0  0  0  0  0  0  0  0  0
   -0.6860   22.3020  -30.6317 H   0  0  0  0  0  0  0  0  0  0  0  0
   -0.7795   21.0834  -31.9482 H   0  0  0  0  0  0  0  0  0  0  0  0
   -1.8932   22.4928  -31.9482 H   0  0  0  0  0  0  0  0  0  0  0  0
   -4.1371   20.2374  -31.3507 H   0  0  0  0  0  0  0  0  0  0  0  0
   -4.3399   21.5614  -30.1474 H   0  0  0  0  0  0  0  0  0  0  0  0
   -4.2143   23.1555  -31.7442 H   0  0  0  0  0  0  0  0  0  0  0  0
   -2.7423   22.3954  -32.4698 H   0  0  0  0  0  0  0  0  0  0  0  0
   -4.1870   21.8120  -34.2170 H   0  0  0  0  0  0  0  0  0  0  0  0
   -6.1577   23.4799  -32.5664 H   0  0  0  0  0  0  0  0  0  0  0  0
   -8.2871   24.4669  -31.7457 H   0  0  0  0  0  0  0  0  0  0  0  0
  -10.2468   23.0045  -31.2926 H   0  0  0  0  0  0  0  0  0  0  0  0
  -10.0726   20.5458  -31.6006 H   0  0  0  0  0  0  0  0  0  0  0  0
   -8.7994   18.3771  -30.6566 H   0  0  0  0  0  0  0  0  0  0  0  0
   -9.8709   18.6271  -32.0765 H   0  0  0  0  0  0  0  0  0  0  0  0
   -8.6787   17.2835  -32.0765 H   0  0  0  0  0  0  0  0  0  0  0  0
   -7.6621   16.7076  -33.2730 H   0  0  0  0  0  0  0  0  0  0  0  0
   -5.6839   15.7127  -34.3792 H   0  0  0  0  0  0  0  0  0  0  0  0
   -3.6545   17.0711  -34.7816 H   0  0  0  0  0  0  0  0  0  0  0  0
   -1.9792   19.3289  -32.7091 H   0  0  0  0  0  0  0  0  0  0  0  0
   -1.7599   18.3339  -34.1874 H   0  0  0  0  0  0  0  0  0  0  0  0
   -0.5644   20.8834  -33.5224 H   0  0  0  0  0  0  0  0  0  0  0  0
   -0.2965   19.8584  -34.9730 H   0  0  0  0  0  0  0  0  0  0  0  0
   -1.6035   21.0906  -34.9730 H   0  0  0  0  0  0  0  0  0  0  0  0
  1  2  1  0
  2  3  1  0
  3  4  1  0
  4  5  1  0
  5  6  1  0
  6  7  1  0
  7  8  1  0
  8  9  1  0
  9 10  1  0
  9 11  1  0
 11 12  1  0
 12 13  1  0
 13 14  1  0
 14 15  2  0
 15 16  1  0
 16 17  2  0
 17 18  1  0
 18 19  2  0
 19 20  1  0
 20 21  2  0
 21 22  1  0
 21 23  1  0
 23 24  2  0
 24 25  1  0
 25 26  2  0
 26 27  1  0
 27 28  1  0
 28 29  1  0
 29 30  1  0
 27 31  2  0
 31 14  1  0
 20 15  1  0
 31 23  1  0
  1 32  1  0
  1 33  1  0
  1 34  1  0
  2 35  1  0
  2 36  1  0
  4 37  1  0
  4 38  1  0
  5 39  1  0
  5 40  1  0
  7 41  1  0
  7 42  1  0
  8 43  1  0
  8 44  1  0
 10 45  1  0
 10 46  1  0
 10 47  1  0
 11 48  1  0
 11 49  1  0
 12 50  1  0
 12 51  1  0
 13 52  1  0
 16 53  1  0
 17 54  1  0
 18 55  1  0
 19 56  1  0
 22 57  1  0
 22 58  1  0
 22 59  1  0
 24 60  1  0
 25 61  1  0
 26 62  1  0
 29 63  1  0
 29 64  1  0
 30 65  1  0
 30 66  1  0
 30 67  1  0
M  CHG  1  21   1
M  END
>  <UniqueID>  (3) 
3

>  <SMILES>  (3) 
CCOCCOCCN(C)CCNc1c2ccccc2[n+](C)c2cccc(OCC)c12

>  <Energy>  (3) 
98.39993561270376

>  <Genealogy>  (3) 
CCOCCOCCN(C)CCNc1c2ccccc2[n+](C)c2cccc(OCC)c12 (3D coordinates assigned)
CCOCCOCCN(C)CCNc1c2ccccc2[n+](C)c2cccc(OCC)c12 (optimized conformer: 98.39993561270376 kcal/mol)

>  <smiles>  (3) 
CCOCCOCCN(C)CCNc1c2ccccc2[n+](C)c2cccc(OCC)c12

>  <score_type>  (3) 
oracle

>  <origin>  (3) 
adg

>  <m_score__min__energy>  (3) 
-8.8499999999999996

>  <m_primary>  (3) 
energy

$$$$
3:0
     RDKit          3D

 57 59  0  0  0  0  0  0  0  0999 V2000
   -2.7190   25.3290  -26.1520 C   0  0  0  0  0  0  0  0  0  0  0  0
   -4.2030   24.9940  -26.2950 C   0  0  0  0  0  0  0  0  0  0  0  0
   -4.5040   24.5170  -27.6550 N   0  0  0  0  0  0  0  0  0  0  0  0
   -3.8360   23.2410  -27.9740 C   0  0  0  0  0  0  0  0  0  0  0  0
   -2.8030   23.3280  -29.1200 C   0  0  0  0  0  0  0  0  0  0  0  0
   -3.4130   23.6330  -30.4910 C   0  0  0  0  0  0  0  0  0  0  0  0
   -3.8920   24.9640  -30.5220 O   0  0  0  0  0  0  0  0  0  0  0  0
   -5.2640   24.9880  -30.8660 C   0  0  0  0  0  0  0  0  0  0  0  0
   -5.8180   23.5610  -30.9130 C   0  0  0  0  0  0  0  0  0  0  0  0
   -5.6500   22.9760  -32.2440 N   0  0  0  0  0  0  0  0  0  0  0  0
   -5.7400   21.5580  -32.4660 C   0  0  0  0  0  0  0  0  0  0  0  0
   -6.9780   20.8980  -32.3650 C   0  0  0  0  0  0  0  0  0  0  0  0
   -8.1350   21.5890  -31.9460 C   0  0  0  0  0  0  0  0  0  0  0  0
   -9.3750   20.9560  -31.9280 C   0  0  0  0  0  0  0  0  0  0  0  0
   -9.4840   19.6300  -32.3230 C   0  0  0  0  0  0  0  0  0  0  0  0
   -8.3460   18.9130  -32.6940 C   0  0  0  0  0  0  0  0  0  0  0  0
   -7.0620   19.5150  -32.6750 C   0  0  0  0  0  0  0  0  0  0  0  0
   -5.9150   18.7950  -32.9570 N   0  0  0  0  0  0  0  0  0  0  0  0
   -5.9640   17.3150  -33.0020 C   0  0  0  0  0  0  0  0  0  0  0  0
   -4.7140   19.4510  -33.1570 C   0  0  0  0  0  0  0  0  0  0  0  0
   -3.5780   18.7870  -33.6820 C   0  0  0  0  0  0  0  0  0  0  0  0
   -2.3580   19.4460  -33.8260 C   0  0  0  0  0  0  0  0  0  0  0  0
   -2.2290   20.7830  -33.4530 C   0  0  0  0  0  0  0  0  0  0  0  0
   -0.9210   21.4970  -33.6380 C   0  0  0  0  0  0  0  0  0  0  0  0
   -3.3510   21.4790  -32.9940 C   0  0  0  0  0  0  0  0  0  0  0  0
   -4.6000   20.8360  -32.8620 C   0  0  0  0  0  0  0  0  0  0  0  0
   -2.4576   25.3880  -25.0851 H   0  0  0  0  0  0  0  0  0  0  0  0
   -2.1178   24.5440  -26.6340 H   0  0  0  0  0  0  0  0  0  0  0  0
   -2.5133   26.2962  -26.6340 H   0  0  0  0  0  0  0  0  0  0  0  0
   -4.4666   24.2088  -25.5711 H   0  0  0  0  0  0  0  0  0  0  0  0
   -4.7895   25.9047  -26.1036 H   0  0  0  0  0  0  0  0  0  0  0  0
   -5.5350   24.3550  -27.7330 H   0  0  0  0  0  0  0  0  0  0  0  0
   -4.2480   25.2460  -28.3580 H   0  0  0  0  0  0  0  0  0  0  0  0
   -3.3175   22.8891  -27.0699 H   0  0  0  0  0  0  0  0  0  0  0  0
   -4.6232   22.5519  -28.3138 H   0  0  0  0  0  0  0  0  0  0  0  0
   -2.0841   24.1243  -28.8771 H   0  0  0  0  0  0  0  0  0  0  0  0
   -2.3307   22.3375  -29.1967 H   0  0  0  0  0  0  0  0  0  0  0  0
   -2.6453   23.5039  -31.2682 H   0  0  0  0  0  0  0  0  0  0  0  0
   -4.2500   22.9435  -30.6754 H   0  0  0  0  0  0  0  0  0  0  0  0
   -5.8179   25.5691  -30.1139 H   0  0  0  0  0  0  0  0  0  0  0  0
   -5.3796   25.4527  -31.8563 H   0  0  0  0  0  0  0  0  0  0  0  0
   -5.2817   22.9427  -30.1781 H   0  0  0  0  0  0  0  0  0  0  0  0
   -6.8921   23.5945  -30.6783 H   0  0  0  0  0  0  0  0  0  0  0  0
   -5.5390   23.6110  -33.0670 H   0  0  0  0  0  0  0  0  0  0  0  0
   -8.0563   22.6397  -31.6300 H   0  0  0  0  0  0  0  0  0  0  0  0
  -10.2688   21.5072  -31.6005 H   0  0  0  0  0  0  0  0  0  0  0  0
  -10.4701   19.1430  -32.3436 H   0  0  0  0  0  0  0  0  0  0  0  0
   -8.4464   17.8631  -33.0065 H   0  0  0  0  0  0  0  0  0  0  0  0
   -5.9772   16.9172  -31.9765 H   0  0  0  0  0  0  0  0  0  0  0  0
   -6.8733   16.9942  -33.5314 H   0  0  0  0  0  0  0  0  0  0  0  0
   -5.0780   16.9347  -33.5314 H   0  0  0  0  0  0  0  0  0  0  0  0
   -3.6601   17.7318  -33.9816 H   0  0  0  0  0  0  0  0  0  0  0  0
   -1.4913   18.9074  -34.2367 H   0  0  0  0  0  0  0  0  0  0  0  0
   -0.4895   21.7326  -32.6540 H   0  0  0  0  0  0  0  0  0  0  0  0
   -0.2274   20.8524  -34.1978 H   0  0  0  0  0  0  0  0  0  0  0  0
   -1.0880   22.4291  -34.1978 H   0  0  0  0  0  0  0  0  0  0  0  0
   -3.2589   22.5433  -32.7319 H   0  0  0  0  0  0  0  0  0  0  0  0
  1  2  1  0
  2  3  1  0
  3  4  1  0
  4  5  1  0
  5  6  1  0
  6  7  1  0
  7  8  1  0
  8  9  1  0
  9 10  1  0
 10 11  1  0
 11 12  2  0
 12 13  1  0
 13 14  2  0
 14 15  1  0
 15 16  2  0
 16 17  1  0
 17 18  2  0
 18 19  1  0
 18 20  1  0
 20 21  2  0
 21 22  1  0
 22 23  2  0
 23 24  1  0
 23 25  1  0
 25 26  2  0
 26 11  1  0
 17 12  1  0
 26 20  1  0
  1 27  1  0
  1 28  1  0
  1 29  1  0
  2 30  1  0
  2 31  1  0
  3 32  1  0
  3 33  1  0
  4 34  1  0
  4 35  1  0
  5 36  1  0
  5 37  1  0
  6 38  1  0
  6 39  1  0
  8 40  1  0
  8 41  1  0
  9 42  1  0
  9 43  1  0
 10 44  1  0
 13 45  1  0
 14 46  1  0
 15 47  1  0
 16 48  1  0
 19 49  1  0
 19 50  1  0
 19 51  1  0
 21 52  1  0
 22 53  1  0
 24 54  1  0
 24 55  1  0
 24 56  1  0
 25 57  1  0
M  CHG  2   3   1  18   1
M  END
>  <UniqueID>  (4) 
4

>  <SMILES>  (4) 
CC[NH2+]CCCOCCNc1c2ccccc2[n+](C)c2ccc(C)cc12

>  <Energy>  (4) 
78.02599124339599

>  <Genealogy>  (4) 
CC[NH2+]CCCOCCNc1c2ccccc2[n+](C)c2ccc(C)cc12 (protonated)
CC[NH2+]CCCOCCNc1c2ccccc2[n+](C)c2ccc(C)cc12 (3D coordinates assigned)
CC[NH2+]CCCOCCNc1c2ccccc2[n+](C)c2ccc(C)cc12 (optimized conformer: 78.02599124339599 kcal/mol)

>  <smiles>  (4) 
CCNCCCOCCNc1c2ccccc2[n+](C)c2ccc(C)cc12

>  <score_type>  (4) 
oracle

>  <origin>  (4) 
adg

>  <m_score__min__energy>  (4) 
-8.6999999999999993

>  <m_primary>  (4) 
energy

$$$$
4:0
     RDKit          3D

 50 52  0  0  0  0  0  0  0  0999 V2000
   -8.0370   22.2420  -30.5630 C   0  0  0  0  0  0  0  0  0  0  0  0
   -7.8170   22.8390  -31.9430 C   0  0  0  0  0  0  0  0  0  0  0  0
   -6.7160   23.7210  -31.8960 O   0  0  0  0  0  0  0  0  0  0  0  0
   -6.7410   24.4420  -30.6830 C   0  0  0  0  0  0  0  0  0  0  0  0
   -5.3990   25.1370  -30.4700 C   0  0  0  0  0  0  0  0  0  0  0  0
   -4.3050   24.2970  -30.9760 N   0  0  0  0  0  0  0  0  0  0  0  0
   -3.8330   23.3830  -29.9300 C   0  0  0  0  0  0  0  0  0  0  0  0
   -3.9460   21.9340  -30.4030 C   0  0  0  0  0  0  0  0  0  0  0  0
   -4.2520   21.8770  -31.8310 N   0  0  0  0  0  0  0  0  0  0  0  0
   -3.9630   20.6980  -32.6050 C   0  0  0  0  0  0  0  0  0  0  0  0
   -2.6800   20.5050  -33.1440 C   0  0  0  0  0  0  0  0  0  0  0  0
   -1.6960   21.5120  -33.0470 C   0  0  0  0  0  0  0  0  0  0  0  0
   -0.4390   21.3380  -33.6200 C   0  0  0  0  0  0  0  0  0  0  0  0
   -0.1480   20.1710  -34.3170 C   0  0  0  0  0  0  0  0  0  0  0  0
   -1.1060   19.1640  -34.4310 C   0  0  0  0  0  0  0  0  0  0  0  0
   -2.3820   19.2950  -33.8260 C   0  0  0  0  0  0  0  0  0  0  0  0
   -3.3310   18.2920  -33.9050 N   0  0  0  0  0  0  0  0  0  0  0  0
   -2.9390   16.9350  -34.3470 C   0  0  0  0  0  0  0  0  0  0  0  0
   -4.6420   18.5530  -33.5530 C   0  0  0  0  0  0  0  0  0  0  0  0
   -5.6920   17.6520  -33.8670 C   0  0  0  0  0  0  0  0  0  0  0  0
   -7.0010   17.8970  -33.4520 C   0  0  0  0  0  0  0  0  0  0  0  0
   -7.3030   19.0470  -32.7320 C   0  0  0  0  0  0  0  0  0  0  0  0
   -9.0960   19.3710  -32.1590 Br  0  0  0  0  0  0  0  0  0  0  0  0
   -6.3020   19.9750  -32.4500 C   0  0  0  0  0  0  0  0  0  0  0  0
   -4.9720   19.7530  -32.8660 C   0  0  0  0  0  0  0  0  0  0  0  0
   -7.7644   22.9817  -29.7958 H   0  0  0  0  0  0  0  0  0  0  0  0
   -9.0957   21.9666  -30.4471 H   0  0  0  0  0  0  0  0  0  0  0  0
   -7.4102   21.3455  -30.4471 H   0  0  0  0  0  0  0  0  0  0  0  0
   -7.6131   22.0338  -32.6641 H   0  0  0  0  0  0  0  0  0  0  0  0
   -8.7174   23.3876  -32.2566 H   0  0  0  0  0  0  0  0  0  0  0  0
   -7.5411   25.1959  -30.7222 H   0  0  0  0  0  0  0  0  0  0  0  0
   -6.9280   23.7479  -29.8504 H   0  0  0  0  0  0  0  0  0  0  0  0
   -5.3980   26.0969  -31.0071 H   0  0  0  0  0  0  0  0  0  0  0  0
   -5.2510   25.3080  -29.3935 H   0  0  0  0  0  0  0  0  0  0  0  0
   -3.5060   24.9230  -31.2370 H   0  0  0  0  0  0  0  0  0  0  0  0
   -2.7816   23.6084  -29.6982 H   0  0  0  0  0  0  0  0  0  0  0  0
   -4.4532   23.5160  -29.0313 H   0  0  0  0  0  0  0  0  0  0  0  0
   -2.9920   21.4186  -30.2177 H   0  0  0  0  0  0  0  0  0  0  0  0
   -4.7597   21.4442  -29.8480 H   0  0  0  0  0  0  0  0  0  0  0  0
   -4.9010   22.5940  -32.2280 H   0  0  0  0  0  0  0  0  0  0  0  0
   -1.9249   22.4456  -32.5123 H   0  0  0  0  0  0  0  0  0  0  0  0
    0.3240   22.1242  -33.5211 H   0  0  0  0  0  0  0  0  0  0  0  0
    0.8413   20.0414  -34.7802 H   0  0  0  0  0  0  0  0  0  0  0  0
   -0.8680   18.2529  -34.9996 H   0  0  0  0  0  0  0  0  0  0  0  0
   -2.7559   16.3013  -33.4667 H   0  0  0  0  0  0  0  0  0  0  0  0
   -3.7477   16.4983  -34.9514 H   0  0  0  0  0  0  0  0  0  0  0  0
   -2.0220   16.9968  -34.9514 H   0  0  0  0  0  0  0  0  0  0  0  0
   -5.4700   16.7446  -34.4477 H   0  0  0  0  0  0  0  0  0  0  0  0
   -7.7969   17.1777  -33.6953 H   0  0  0  0  0  0  0  0  0  0  0  0
   -6.5519   20.8920  -31.8962 H   0  0  0  0  0  0  0  0  0  0  0  0
  1  2  1  0
  2  3  1  0
  3  4  1  0
  4  5  1  0
  5  6  1  0
  6  7  1  0
  7  8  1  0
  8  9  1  0
  9 10  1  0
 10 11  2  0
 11 12  1  0
 12 13  2  0
 13 14  1  0
 14 15  2  0
 15 16  1  0
 16 17  2  0
 17 18  1  0
 17 19  1  0
 19 20  2  0
 20 21  1  0
 21 22  2  0
 22 23  1  0
 22 24  1  0
 24 25  2  0
 25 10  1  0
 16 11  1  0
 25 19  1  0
  1 26  1  0
  1 27  1  0
  1 28  1  0
  2 29  1  0
  2 30  1  0
  4 31  1  0
  4 32  1  0
  5 33  1  0
  5 34  1  0
  6 35  1  0
  7 36  1  0
  7 37  1  0
  8 38  1  0
  8 39  1  0
  9 40  1  0
 12 41  1  0
 13 42  1  0
 14 43  1  0
 15 44  1  0
 18 45  1  0
 18 46  1  0
 18 47  1  0
 20 48  1  0
 21 49  1  0
 24 50  1  0
M  CHG  1  17   1
M  END
>  <UniqueID>  (5) 
5

>  <SMILES>  (5) 
CCOCCNCCNc1c2ccccc2[n+](C)c2ccc(Br)cc12

>  <Energy>  (5) 
67.76281870473969

>  <Genealogy>  (5) 
CCOCCNCCNc1c2ccccc2[n+](C)c2ccc(Br)cc12 (3D coordinates assigned)
CCOCCNCCNc1c2ccccc2[n+](C)c2ccc(Br)cc12 (optimized conformer: 67.76281870473969 kcal/mol)

>  <smiles>  (5) 
CCOCCNCCNc1c2ccccc2[n+](C)c2ccc(Br)cc12

>  <score_type>  (5) 
oracle

>  <origin>  (5) 
adg

>  <m_score__min__energy>  (5) 
-8.7599999999999998

>  <m_primary>  (5) 
energy

$$$$
5:0
     RDKit          3D

 54 56  0  0  0  0  0  0  0  0999 V2000
   -6.1650   25.2750  -29.5830 C   0  0  0  0  0  0  0  0  0  0  0  0
   -5.3120   25.3300  -30.8450 C   0  0  0  0  0  0  0  0  0  0  0  0
   -3.8900   25.1590  -30.5070 N   0  0  0  0  0  0  0  0  0  0  0  0
   -3.6880   24.4900  -29.2090 C   0  0  0  0  0  0  0  0  0  0  0  0
   -3.4080   22.9840  -29.3530 C   0  0  0  0  0  0  0  0  0  0  0  0
   -2.6120   22.7240  -30.4970 O   0  0  0  0  0  0  0  0  0  0  0  0
   -3.2320   21.7820  -31.3540 C   0  0  0  0  0  0  0  0  0  0  0  0
   -4.0370   22.5010  -32.4370 C   0  0  0  0  0  0  0  0  0  0  0  0
   -4.5990   21.5320  -33.3770 N   0  0  0  0  0  0  0  0  0  0  0  0
   -5.7190   20.7140  -32.9960 C   0  0  0  0  0  0  0  0  0  0  0  0
   -6.8830   21.3150  -32.4880 C   0  0  0  0  0  0  0  0  0  0  0  0
   -7.9830   20.5000  -32.1130 C   0  0  0  0  0  0  0  0  0  0  0  0
   -7.8650   19.1210  -32.1430 N   0  0  0  0  0  0  0  0  0  0  0  0
   -8.9210   18.2690  -31.5530 C   0  0  0  0  0  0  0  0  0  0  0  0
   -6.7710   18.5270  -32.7480 C   0  0  0  0  0  0  0  0  0  0  0  0
   -6.7150   17.1290  -32.9860 C   0  0  0  0  0  0  0  0  0  0  0  0
   -5.5980   16.5410  -33.5820 C   0  0  0  0  0  0  0  0  0  0  0  0
   -5.5540   14.6550  -33.8800 Br  0  0  0  0  0  0  0  0  0  0  0  0
   -4.5220   17.3290  -33.9760 C   0  0  0  0  0  0  0  0  0  0  0  0
   -4.5590   18.7070  -33.7820 C   0  0  0  0  0  0  0  0  0  0  0  0
   -5.6710   19.3210  -33.1690 C   0  0  0  0  0  0  0  0  0  0  0  0
   -9.2670   21.1530  -31.6100 C   0  0  0  0  0  0  0  0  0  0  0  0
   -9.3950   22.6310  -31.9760 C   0  0  0  0  0  0  0  0  0  0  0  0
   -8.1180   23.3620  -31.5930 C   0  0  0  0  0  0  0  0  0  0  0  0
   -6.9530   22.8340  -32.4250 C   0  0  0  0  0  0  0  0  0  0  0  0
   -5.5133   25.3170  -28.6978 H   0  0  0  0  0  0  0  0  0  0  0  0
   -6.8564   26.1304  -29.5702 H   0  0  0  0  0  0  0  0  0  0  0  0
   -6.7409   24.3379  -29.5702 H   0  0  0  0  0  0  0  0  0  0  0  0
   -5.6221   24.5255  -31.5281 H   0  0  0  0  0  0  0  0  0  0  0  0
   -5.4502   26.3084  -31.3284 H   0  0  0  0  0  0  0  0  0  0  0  0
   -3.4170   24.6150  -31.2660 H   0  0  0  0  0  0  0  0  0  0  0  0
   -2.8330   24.9596  -28.7006 H   0  0  0  0  0  0  0  0  0  0  0  0
   -4.6171   24.6008  -28.6306 H   0  0  0  0  0  0  0  0  0  0  0  0
   -2.8776   22.6291  -28.4571 H   0  0  0  0  0  0  0  0  0  0  0  0
   -4.3673   22.4576  -29.4656 H   0  0  0  0  0  0  0  0  0  0  0  0
   -2.4593   21.1596  -31.8289 H   0  0  0  0  0  0  0  0  0  0  0  0
   -3.9114   21.1515  -30.7617 H   0  0  0  0  0  0  0  0  0  0  0  0
   -4.8546   23.0667  -31.9664 H   0  0  0  0  0  0  0  0  0  0  0  0
   -3.3715   23.1858  -32.9831 H   0  0  0  0  0  0  0  0  0  0  0  0
   -4.4300   21.6910  -34.3960 H   0  0  0  0  0  0  0  0  0  0  0  0
   -8.8608   18.3175  -30.4557 H   0  0  0  0  0  0  0  0  0  0  0  0
   -9.9076   18.6270  -31.8823 H   0  0  0  0  0  0  0  0  0  0  0  0
   -8.7797   17.2290  -31.8823 H   0  0  0  0  0  0  0  0  0  0  0  0
   -7.5674   16.4973  -32.6955 H   0  0  0  0  0  0  0  0  0  0  0  0
   -3.6409   16.8630  -34.4413 H   0  0  0  0  0  0  0  0  0  0  0  0
   -3.7104   19.3248  -34.1109 H   0  0  0  0  0  0  0  0  0  0  0  0
  -10.1224   20.6137  -32.0430 H   0  0  0  0  0  0  0  0  0  0  0  0
   -9.2444   21.0971  -30.5117 H   0  0  0  0  0  0  0  0  0  0  0  0
   -9.5615   22.7272  -33.0591 H   0  0  0  0  0  0  0  0  0  0  0  0
  -10.2450   23.0702  -31.4332 H   0  0  0  0  0  0  0  0  0  0  0  0
   -8.2428   24.4387  -31.7807 H   0  0  0  0  0  0  0  0  0  0  0  0
   -7.9087   23.1945  -30.5262 H   0  0  0  0  0  0  0  0  0  0  0  0
   -7.0560   23.2194  -33.4501 H   0  0  0  0  0  0  0  0  0  0  0  0
   -6.0289   23.1777  -31.9373 H   0  0  0  0  0  0  0  0  0  0  0  0
  1  2  1  0
  2  3  1  0
  3  4  1  0
  4  5  1  0
  5  6  1  0
  6  7  1  0
  7  8  1  0
  8  9  1  0
  9 10  1  0
 10 11  2  0
 11 12  1  0
 12 13  2  0
 13 14  1  0
 13 15  1  0
 15 16  2  0
 16 17  1  0
 17 18  1  0
 17 19  2  0
 19 20  1  0
 20 21  2  0
 12 22  1  0
 22 23  1  0
 23 24  1  0
 24 25  1  0
 21 10  1  0
 25 11  1  0
 21 15  1  0
  1 26  1  0
  1 27  1  0
  1 28  1  0
  2 29  1  0
  2 30  1  0
  3 31  1  0
  4 32  1  0
  4 33  1  0
  5 34  1  0
  5 35  1  0
  7 36  1  0
  7 37  1  0
  8 38  1  0
  8 39  1  0
  9 40  1  0
 14 41  1  0
 14 42  1  0
 14 43  1  0
 16 44  1  0
 19 45  1  0
 20 46  1  0
 22 47  1  0
 22 48  1  0
 23 49  1  0
 23 50  1  0
 24 51  1  0
 24 52  1  0
 25 53  1  0
 25 54  1  0
M  CHG  1  13   1
M  END
>  <UniqueID>  (6) 
6

>  <SMILES>  (6) 
CCNCCOCCNc1c2c([n+](C)c3cc(Br)ccc13)CCCC2

>  <Energy>  (6) 
72.84782116726612

>  <Genealogy>  (6) 
CCNCCOCCNc1c2c([n+](C)c3cc(Br)ccc13)CCCC2 (3D coordinates assigned)
CCNCCOCCNc1c2c([n+](C)c3cc(Br)ccc13)CCCC2 (nonaromatic ring conformer: 72.84782116726612 kcal/mol)

>  <smiles>  (6) 
CCNCCOCCNc1c2c([n+](C)c3cc(Br)ccc13)CCCC2

>  <score_type>  (6) 
oracle

>  <origin>  (6) 
adg

>  <m_score__min__energy>  (6) 
-9.7899999999999991

>  <m_primary>  (6) 
energy

$$$$
6:0
     RDKit          3D

 62 64  0  0  0  0  0  0  0  0999 V2000
   -6.0630   25.1410  -29.3920 C   0  0  0  0  0  0  0  0  0  0  0  0
   -5.7730   25.2960  -30.8860 C   0  0  0  0  0  0  0  0  0  0  0  0
   -4.9430   24.1900  -31.4120 N   0  0  0  0  0  0  0  0  0  0  0  0
   -4.1820   23.5460  -30.3280 C   0  0  0  0  0  0  0  0  0  0  0  0
   -5.6590   23.2080  -32.2660 C   0  0  0  0  0  0  0  0  0  0  0  0
   -6.5950   22.2400  -31.5180 C   0  0  0  0  0  0  0  0  0  0  0  0
   -7.6620   21.8500  -32.3590 O   0  0  0  0  0  0  0  0  0  0  0  0
   -8.8960   21.9290  -31.6700 C   0  0  0  0  0  0  0  0  0  0  0  0
   -9.8760   20.8730  -32.2140 C   0  0  0  0  0  0  0  0  0  0  0  0
   -9.2070   19.8730  -33.0620 N   0  0  0  0  0  0  0  0  0  0  0  0
   -8.5900   18.7990  -32.2680 C   0  0  0  0  0  0  0  0  0  0  0  0
   -7.0740   19.0320  -32.0960 C   0  0  0  0  0  0  0  0  0  0  0  0
   -6.4120   19.4920  -33.3350 N   0  0  0  0  0  0  0  0  0  0  0  0
   -5.1610   18.7840  -33.5900 C   0  0  0  0  0  0  0  0  0  0  0  0
   -3.8970   19.4450  -33.5170 C   0  0  0  0  0  0  0  0  0  0  0  0
   -3.7510   20.7710  -33.0250 C   0  0  0  0  0  0  0  0  0  0  0  0
   -2.5020   21.3820  -32.9460 C   0  0  0  0  0  0  0  0  0  0  0  0
   -1.3650   20.6950  -33.3340 C   0  0  0  0  0  0  0  0  0  0  0  0
   -1.4690   19.4000  -33.8250 C   0  0  0  0  0  0  0  0  0  0  0  0
   -2.7270   18.7590  -33.9590 C   0  0  0  0  0  0  0  0  0  0  0  0
   -2.8220   17.4960  -34.5040 N   0  0  0  0  0  0  0  0  0  0  0  0
   -1.6860   16.9330  -35.2680 C   0  0  0  0  0  0  0  0  0  0  0  0
   -3.9820   16.7680  -34.3620 C   0  0  0  0  0  0  0  0  0  0  0  0
   -4.0080   15.3720  -34.6190 C   0  0  0  0  0  0  0  0  0  0  0  0
   -5.1930   14.6480  -34.5580 C   0  0  0  0  0  0  0  0  0  0  0  0
   -6.3800   15.2860  -34.2310 C   0  0  0  0  0  0  0  0  0  0  0  0
   -7.5380   14.5790  -34.1890 F   0  0  0  0  0  0  0  0  0  0  0  0
   -6.3820   16.6450  -33.9280 C   0  0  0  0  0  0  0  0  0  0  0  0
   -5.1850   17.4070  -33.9540 C   0  0  0  0  0  0  0  0  0  0  0  0
   -5.2392   25.5813  -28.8110 H   0  0  0  0  0  0  0  0  0  0  0  0
   -7.0025   25.6572  -29.1454 H   0  0  0  0  0  0  0  0  0  0  0  0
   -6.1558   24.0730  -29.1454 H   0  0  0  0  0  0  0  0  0  0  0  0
   -6.7276   25.3132  -31.4322 H   0  0  0  0  0  0  0  0  0  0  0  0
   -5.2146   26.2333  -31.0261 H   0  0  0  0  0  0  0  0  0  0  0  0
   -4.5752   23.8788  -29.3561 H   0  0  0  0  0  0  0  0  0  0  0  0
   -4.2814   22.4535  -30.4091 H   0  0  0  0  0  0  0  0  0  0  0  0
   -3.1210   23.8247  -30.4091 H   0  0  0  0  0  0  0  0  0  0  0  0
   -6.2629   23.7688  -32.9946 H   0  0  0  0  0  0  0  0  0  0  0  0
   -4.8802   22.5817  -32.7257 H   0  0  0  0  0  0  0  0  0  0  0  0
   -6.0278   21.3484  -31.2125 H   0  0  0  0  0  0  0  0  0  0  0  0
   -7.0023   22.7463  -30.6304 H   0  0  0  0  0  0  0  0  0  0  0  0
   -8.7261   21.7493  -30.5982 H   0  0  0  0  0  0  0  0  0  0  0  0
   -9.3272   22.9300  -31.8187 H   0  0  0  0  0  0  0  0  0  0  0  0
  -10.3477   20.3575  -31.3644 H   0  0  0  0  0  0  0  0  0  0  0  0
  -10.6216   21.3936  -32.8328 H   0  0  0  0  0  0  0  0  0  0  0  0
   -8.4960   20.3470  -33.6620 H   0  0  0  0  0  0  0  0  0  0  0  0
   -9.0633   18.7694  -31.2755 H   0  0  0  0  0  0  0  0  0  0  0  0
   -8.7380   17.8460  -32.7970 H   0  0  0  0  0  0  0  0  0  0  0  0
   -6.9234   19.7927  -31.3158 H   0  0  0  0  0  0  0  0  0  0  0  0
   -6.6234   18.0663  -31.8234 H   0  0  0  0  0  0  0  0  0  0  0  0
   -6.2300   20.5170  -33.2700 H   0  0  0  0  0  0  0  0  0  0  0  0
   -7.0940   19.4490  -34.1150 H   0  0  0  0  0  0  0  0  0  0  0  0
   -4.6434   21.3260  -32.6999 H   0  0  0  0  0  0  0  0  0  0  0  0
   -2.4190   22.4139  -32.5740 H   0  0  0  0  0  0  0  0  0  0  0  0
   -0.3785   21.1748  -33.2535 H   0  0  0  0  0  0  0  0  0  0  0  0
   -0.5560   18.8599  -34.1162 H   0  0  0  0  0  0  0  0  0  0  0  0
   -0.9250   16.5559  -34.5690 H   0  0  0  0  0  0  0  0  0  0  0  0
   -2.0432   16.1076  -35.9014 H   0  0  0  0  0  0  0  0  0  0  0  0
   -1.2456   17.7171  -35.9014 H   0  0  0  0  0  0  0  0  0  0  0  0
   -3.0716   14.8529  -34.8715 H   0  0  0  0  0  0  0  0  0  0  0  0
   -5.1892   13.5685  -34.7692 H   0  0  0  0  0  0  0  0  0  0  0  0
   -7.3294   17.1374  -33.6634 H   0  0  0  0  0  0  0  0  0  0  0  0
  1  2  1  0
  2  3  1  0
  3  4  1  0
  3  5  1  0
  5  6  1  0
  6  7  1  0
  7  8  1  0
  8  9  1  0
  9 10  1  0
 10 11  1  0
 11 12  1  0
 12 13  1  0
 13 14  1  0
 14 15  2  0
 15 16  1  0
 16 17  2  0
 17 18  1  0
 18 19  2  0
 19 20  1  0
 20 21  2  0
 21 22  1  0
 21 23  1  0
 23 24  2  0
 24 25  1  0
 25 26  2  0
 26 27  1  0
 26 28  1  0
 28 29  2  0
 29 14  1  0
 20 15  1  0
 29 23  1  0
  1 30  1  0
  1 31  1  0
  1 32  1  0
  2 33  1  0
  2 34  1  0
  4 35  1  0
  4 36  1  0
  4 37  1  0
  5 38  1  0
  5 39  1  0
  6 40  1  0
  6 41  1  0
  8 42  1  0
  8 43  1  0
  9 44  1  0
  9 45  1  0
 10 46  1  0
 11 47  1  0
 11 48  1  0
 12 49  1  0
 12 50  1  0
 13 51  1  0
 13 52  1  0
 16 53  1  0
 17 54  1  0
 18 55  1  0
 19 56  1  0
 22 57  1  0
 22 58  1  0
 22 59  1  0
 24 60  1  0
 25 61  1  0
 28 62  1  0
M  CHG  2  13   1  21   1
M  END
>  <UniqueID>  (7) 
7

>  <SMILES>  (7) 
CCN(C)CCOCCNCC[NH2+]c1c2ccccc2[n+](C)c2ccc(F)cc12

>  <Energy>  (7) 
95.65949703900701

>  <Genealogy>  (7) 
CCN(C)CCOCCNCC[NH2+]c1c2ccccc2[n+](C)c2ccc(F)cc12 (protonated)
CCN(C)CCOCCNCC[NH2+]c1c2ccccc2[n+](C)c2ccc(F)cc12 (3D coordinates assigned)
CCN(C)CCOCCNCC[NH2+]c1c2ccccc2[n+](C)c2ccc(F)cc12 (optimized conformer: 95.65949703900701 kcal/mol)

>  <smiles>  (7) 
CCN(C)CCOCCNCCNc1c2ccccc2[n+](C)c2ccc(F)cc12

>  <score_type>  (7) 
oracle

>  <origin>  (7) 
adg

>  <m_score__min__energy>  (7) 
-8.4299999999999997

>  <m_primary>  (7) 
energy

$$$$
7:0
     RDKit          3D

 46 48  0  0  0  0  0  0  0  0999 V2000
   -6.1050   18.2740  -33.7830 C   0  0  0  0  0  0  0  0  0  0  0  0
   -6.1080   19.5750  -33.1110 N   0  0  0  0  0  0  0  0  0  0  0  0
   -5.0650   20.4380  -32.9670 C   0  0  0  0  0  0  0  0  0  0  0  0
   -3.6690   20.2020  -33.4670 C   0  0  0  0  0  0  0  0  0  0  0  0
   -2.8710   21.4220  -33.3030 N   0  0  0  0  0  0  0  0  0  0  0  0
   -1.5290   21.1450  -32.7670 C   0  0  0  0  0  0  0  0  0  0  0  0
   -1.4230   21.4620  -31.2520 C   0  0  0  0  0  0  0  0  0  0  0  0
   -2.7280   21.6710  -30.5770 N   0  0  0  0  0  0  0  0  0  0  0  0
   -3.0750   23.1100  -30.4640 C   0  0  0  0  0  0  0  0  0  0  0  0
   -4.3660   23.2980  -29.6580 C   0  0  0  0  0  0  0  0  0  0  0  0
   -4.2300   22.7420  -28.2280 C   0  0  0  0  0  0  0  0  0  0  0  0
   -3.0330   21.7940  -28.0620 C   0  0  0  0  0  0  0  0  0  0  0  0
   -2.8540   20.9010  -29.3010 C   0  0  0  0  0  0  0  0  0  0  0  0
   -5.4880   21.6290  -32.3810 C   0  0  0  0  0  0  0  0  0  0  0  0
   -6.8400   21.4700  -32.1730 C   0  0  0  0  0  0  0  0  0  0  0  0
   -7.7780   22.3550  -31.6460 C   0  0  0  0  0  0  0  0  0  0  0  0
   -9.1190   21.9340  -31.5910 C   0  0  0  0  0  0  0  0  0  0  0  0
   -9.4870   20.6570  -32.0660 C   0  0  0  0  0  0  0  0  0  0  0  0
   -8.5190   19.7870  -32.5990 C   0  0  0  0  0  0  0  0  0  0  0  0
   -7.1900   20.2250  -32.6310 C   0  0  0  0  0  0  0  0  0  0  0  0
   -6.1032   17.4723  -33.0298 H   0  0  0  0  0  0  0  0  0  0  0  0
   -7.0029   18.1841  -34.4120 H   0  0  0  0  0  0  0  0  0  0  0  0
   -5.2067   18.1883  -34.4120 H   0  0  0  0  0  0  0  0  0  0  0  0
   -3.2086   19.3843  -32.8931 H   0  0  0  0  0  0  0  0  0  0  0  0
   -3.7051   19.9314  -34.5326 H   0  0  0  0  0  0  0  0  0  0  0  0
   -2.7790   21.9060  -34.2270 H   0  0  0  0  0  0  0  0  0  0  0  0
   -1.2987   20.0807  -32.9226 H   0  0  0  0  0  0  0  0  0  0  0  0
   -0.8148   21.7923  -33.2970 H   0  0  0  0  0  0  0  0  0  0  0  0
   -0.9116   20.6218  -30.7596 H   0  0  0  0  0  0  0  0  0  0  0  0
   -0.8703   22.4093  -31.1672 H   0  0  0  0  0  0  0  0  0  0  0  0
   -3.4380   21.2640  -31.2340 H   0  0  0  0  0  0  0  0  0  0  0  0
   -2.2542   23.6402  -29.9588 H   0  0  0  0  0  0  0  0  0  0  0  0
   -3.2286   23.5157  -31.4748 H   0  0  0  0  0  0  0  0  0  0  0  0
   -4.5986   24.3717  -29.6025 H   0  0  0  0  0  0  0  0  0  0  0  0
   -5.1710   22.7463  -30.1656 H   0  0  0  0  0  0  0  0  0  0  0  0
   -4.1066   23.5866  -27.5342 H   0  0  0  0  0  0  0  0  0  0  0  0
   -5.1399   22.1624  -28.0133 H   0  0  0  0  0  0  0  0  0  0  0  0
   -2.1206   22.3906  -27.9151 H   0  0  0  0  0  0  0  0  0  0  0  0
   -3.2188   21.1480  -27.1913 H   0  0  0  0  0  0  0  0  0  0  0  0
   -1.9441   20.2976  -29.1670 H   0  0  0  0  0  0  0  0  0  0  0  0
   -3.7575   20.2794  -29.3856 H   0  0  0  0  0  0  0  0  0  0  0  0
   -4.8736   22.5081  -32.1368 H   0  0  0  0  0  0  0  0  0  0  0  0
   -7.4798   23.3503  -31.2848 H   0  0  0  0  0  0  0  0  0  0  0  0
   -9.8857   22.6043  -31.1752 H   0  0  0  0  0  0  0  0  0  0  0  0
  -10.5392   20.3396  -32.0190 H   0  0  0  0  0  0  0  0  0  0  0  0
   -8.7977   18.7931  -32.9790 H   0  0  0  0  0  0  0  0  0  0  0  0
  1  2  1  0
  2  3  1  0
  3  4  1  0
  4  5  1  0
  5  6  1  0
  6  7  1  0
  7  8  1  0
  8  9  1  0
  9 10  1  0
 10 11  1  0
 11 12  1  0
 12 13  1  0
  3 14  2  0
 14 15  1  0
 15 16  2  0
 16 17  1  0
 17 18  2  0
 18 19  1  0
 19 20  2  0
 20  2  1  0
 13  8  1  0
 20 15  1  0
  1 21  1  0
  1 22  1  0
  1 23  1  0
  4 24  1  0
  4 25  1  0
  5 26  1  0
  6 27  1  0
  6 28  1  0
  7 29  1  0
  7 30  1  0
  8 31  1  0
  9 32  1  0
  9 33  1  0
 10 34  1  0
 10 35  1  0
 11 36  1  0
 11 37  1  0
 12 38  1  0
 12 39  1  0
 13 40  1  0
 13 41  1  0
 14 42  1  0
 16 43  1  0
 17 44  1  0
 18 45  1  0
 19 46  1  0
M  CHG  1   8   1
M  END
>  <UniqueID>  (8) 
8

>  <SMILES>  (8) 
Cn1c(CNCC[NH+]2CCCCC2)cc2ccccc21

>  <Energy>  (8) 
89.32219818966445

>  <Genealogy>  (8) 
Cn1c(CNCC[NH+]2CCCCC2)cc2ccccc21 (protonated)
Cn1c(CNCC[NH+]2CCCCC2)cc2ccccc21 (3D coordinates assigned)
Cn1c(CNCC[NH+]2CCCCC2)cc2ccccc21 (nonaromatic ring conformer: 89.32219818966445 kcal/mol)

>  <smiles>  (8) 
Cn1c(CNCCN2CCCCC2)cc2ccccc21

>  <score_type>  (8) 
oracle

>  <origin>  (8) 
adg

>  <m_score__min__energy>  (8) 
-6.8099999999999996

>  <m_primary>  (8) 
energy

$$$$
8:0
     RDKit          3D

 43 45  0  0  0  0  0  0  0  0999 V2000
   -5.0120   24.9480  -30.0340 C   0  0  0  0  0  0  0  0  0  0  0  0
   -5.9800   23.9430  -30.5860 C   0  0  0  0  0  0  0  0  0  0  0  0
   -6.4300   22.8840  -29.7880 C   0  0  0  0  0  0  0  0  0  0  0  0
   -7.3610   21.9700  -30.2880 C   0  0  0  0  0  0  0  0  0  0  0  0
   -7.8850   22.1200  -31.5840 C   0  0  0  0  0  0  0  0  0  0  0  0
   -8.8960   21.1220  -32.1220 C   0  0  0  0  0  0  0  0  0  0  0  0
   -8.3130   20.0470  -32.9700 N   0  0  0  0  0  0  0  0  0  0  0  0
   -6.9270   20.3640  -33.4090 C   0  0  0  0  0  0  0  0  0  0  0  0
   -6.2020   19.1270  -33.9500 C   0  0  0  0  0  0  0  0  0  0  0  0
   -6.1530   18.0830  -32.9160 N   0  0  0  0  0  0  0  0  0  0  0  0
   -5.1020   17.0930  -32.9240 C   0  0  0  0  0  0  0  0  0  0  0  0
   -5.2980   15.8340  -32.3250 C   0  0  0  0  0  0  0  0  0  0  0  0
   -4.2780   14.8780  -32.3330 C   0  0  0  0  0  0  0  0  0  0  0  0
   -3.0500   15.1660  -32.9360 C   0  0  0  0  0  0  0  0  0  0  0  0
   -1.7720   13.9640  -32.9440 Cl  0  0  0  0  0  0  0  0  0  0  0  0
   -2.8430   16.4120  -33.5320 C   0  0  0  0  0  0  0  0  0  0  0  0
   -3.8600   17.3710  -33.5270 C   0  0  0  0  0  0  0  0  0  0  0  0
   -7.1680   18.0910  -31.8530 C   0  0  0  0  0  0  0  0  0  0  0  0
   -8.4800   18.6850  -32.3870 C   0  0  0  0  0  0  0  0  0  0  0  0
   -7.4170   23.1760  -32.3870 C   0  0  0  0  0  0  0  0  0  0  0  0
   -6.4860   24.0880  -31.8850 C   0  0  0  0  0  0  0  0  0  0  0  0
   -5.0401   24.9188  -28.9347 H   0  0  0  0  0  0  0  0  0  0  0  0
   -3.9963   24.7079  -30.3813 H   0  0  0  0  0  0  0  0  0  0  0  0
   -5.2900   25.9540  -30.3813 H   0  0  0  0  0  0  0  0  0  0  0  0
   -6.0486   22.7711  -28.7624 H   0  0  0  0  0  0  0  0  0  0  0  0
   -7.6868   21.1259  -29.6624 H   0  0  0  0  0  0  0  0  0  0  0  0
   -9.4001   20.6489  -31.2664 H   0  0  0  0  0  0  0  0  0  0  0  0
   -9.5829   21.6901  -32.7666 H   0  0  0  0  0  0  0  0  0  0  0  0
   -8.8910   20.0540  -33.8450 H   0  0  0  0  0  0  0  0  0  0  0  0
   -6.9704   21.1257  -34.2014 H   0  0  0  0  0  0  0  0  0  0  0  0
   -6.3685   20.7318  -32.5356 H   0  0  0  0  0  0  0  0  0  0  0  0
   -6.7406   18.7442  -34.8294 H   0  0  0  0  0  0  0  0  0  0  0  0
   -5.1759   19.4040  -34.2336 H   0  0  0  0  0  0  0  0  0  0  0  0
   -6.2609   15.6008  -31.8471 H   0  0  0  0  0  0  0  0  0  0  0  0
   -4.4420   13.8968  -31.8637 H   0  0  0  0  0  0  0  0  0  0  0  0
   -1.8771   16.6393  -34.0066 H   0  0  0  0  0  0  0  0  0  0  0  0
   -3.6889   18.3504  -33.9977 H   0  0  0  0  0  0  0  0  0  0  0  0
   -7.3465   17.0607  -31.5115 H   0  0  0  0  0  0  0  0  0  0  0  0
   -6.8083   18.7041  -31.0135 H   0  0  0  0  0  0  0  0  0  0  0  0
   -8.8746   18.0168  -33.1666 H   0  0  0  0  0  0  0  0  0  0  0  0
   -9.1687   18.7764  -31.5342 H   0  0  0  0  0  0  0  0  0  0  0  0
   -7.7868   23.2842  -33.4173 H   0  0  0  0  0  0  0  0  0  0  0  0
   -6.1477   24.9253  -32.5130 H   0  0  0  0  0  0  0  0  0  0  0  0
  1  2  1  0
  2  3  2  0
  3  4  1  0
  4  5  2  0
  5  6  1  0
  6  7  1  0
  7  8  1  0
  8  9  1  0
  9 10  1  0
 10 11  1  0
 11 12  2  0
 12 13  1  0
 13 14  2  0
 14 15  1  0
 14 16  1  0
 16 17  2  0
 10 18  1  0
 18 19  1  0
  5 20  1  0
 20 21  2  0
 21  2  1  0
 19  7  1  0
 17 11  1  0
  1 22  1  0
  1 23  1  0
  1 24  1  0
  3 25  1  0
  4 26  1  0
  6 27  1  0
  6 28  1  0
  7 29  1  0
  8 30  1  0
  8 31  1  0
  9 32  1  0
  9 33  1  0
 12 34  1  0
 13 35  1  0
 16 36  1  0
 17 37  1  0
 18 38  1  0
 18 39  1  0
 19 40  1  0
 19 41  1  0
 20 42  1  0
 21 43  1  0
M  CHG  1   7   1
M  END
>  <UniqueID>  (9) 
9

>  <SMILES>  (9) 
Cc1ccc(C[NH+]2CCN(c3ccc(Cl)cc3)CC2)cc1

>  <Energy>  (9) 
57.11447472220841

>  <Genealogy>  (9) 
Cc1ccc(C[NH+]2CCN(c3ccc(Cl)cc3)CC2)cc1 (protonated)
Cc1ccc(C[NH+]2CCN(c3ccc(Cl)cc3)CC2)cc1 (3D coordinates assigned)
Cc1ccc(C[NH+]2CCN(c3ccc(Cl)cc3)CC2)cc1 (nonaromatic ring conformer: 57.11447472220841 kcal/mol)

>  <smiles>  (9) 
Cc1ccc(CN2CCN(c3ccc(Cl)cc3)CC2)cc1

>  <score_type>  (9) 
oracle

>  <origin>  (9) 
adg

>  <m_score__min__energy>  (9) 
-7.4299999999999997

>  <m_primary>  (9) 
energy

$$$$
9:0
     RDKit          3D

 69 71  0  0  0  0  0  0  0  0999 V2000
    0.2110   21.5530  -35.1250 C   0  0  0  0  0  0  0  0  0  0  0  0
    0.9560   21.1770  -33.8540 C   0  0  0  0  0  0  0  0  0  0  0  0
    0.6060   19.8610  -33.4840 O   0  0  0  0  0  0  0  0  0  0  0  0
    0.1360   19.1630  -34.6170 C   0  0  0  0  0  0  0  0  0  0  0  0
   -1.1330   18.4060  -34.2570 C   0  0  0  0  0  0  0  0  0  0  0  0
   -1.3030   18.4160  -32.8570 O   0  0  0  0  0  0  0  0  0  0  0  0
   -0.8900   17.1770  -32.3210 C   0  0  0  0  0  0  0  0  0  0  0  0
    0.2760   17.3890  -31.3430 C   0  0  0  0  0  0  0  0  0  0  0  0
    0.6710   18.8040  -31.2040 N   0  0  0  0  0  0  0  0  0  0  0  0
    0.8900   19.1930  -29.7990 C   0  0  0  0  0  0  0  0  0  0  0  0
   -0.0120   20.3670  -29.3750 C   0  0  0  0  0  0  0  0  0  0  0  0
   -1.3750   20.4000  -30.0850 C   0  0  0  0  0  0  0  0  0  0  0  0
   -1.2900   21.0860  -31.3810 N   0  0  0  0  0  0  0  0  0  0  0  0
   -2.6200   21.5250  -31.8200 C   0  0  0  0  0  0  0  0  0  0  0  0
   -2.9250   20.9970  -33.2240 C   0  0  0  0  0  0  0  0  0  0  0  0
   -4.2750   21.3730  -33.6540 N   0  0  0  0  0  0  0  0  0  0  0  0
   -5.4470   20.6570  -33.2170 C   0  0  0  0  0  0  0  0  0  0  0  0
   -6.5270   21.3440  -32.6320 C   0  0  0  0  0  0  0  0  0  0  0  0
   -6.4390   22.7240  -32.3440 C   0  0  0  0  0  0  0  0  0  0  0  0
   -7.5270   23.4160  -31.8200 C   0  0  0  0  0  0  0  0  0  0  0  0
   -8.7210   22.7490  -31.5780 C   0  0  0  0  0  0  0  0  0  0  0  0
   -8.8210   21.3800  -31.8170 C   0  0  0  0  0  0  0  0  0  0  0  0
   -7.7110   20.6340  -32.2930 C   0  0  0  0  0  0  0  0  0  0  0  0
   -7.7630   19.2600  -32.4310 N   0  0  0  0  0  0  0  0  0  0  0  0
   -8.8900   18.5010  -31.8410 C   0  0  0  0  0  0  0  0  0  0  0  0
   -6.7410   18.5860  -33.0750 C   0  0  0  0  0  0  0  0  0  0  0  0
   -6.8560   17.2160  -33.4290 C   0  0  0  0  0  0  0  0  0  0  0  0
   -5.7880   16.5280  -34.0030 C   0  0  0  0  0  0  0  0  0  0  0  0
   -4.5890   17.1830  -34.2550 C   0  0  0  0  0  0  0  0  0  0  0  0
   -4.4640   18.5410  -33.9730 C   0  0  0  0  0  0  0  0  0  0  0  0
   -5.5390   19.2670  -33.4160 C   0  0  0  0  0  0  0  0  0  0  0  0
   -0.7426   22.0343  -34.8623 H   0  0  0  0  0  0  0  0  0  0  0  0
    0.8230   22.2502  -35.7161 H   0  0  0  0  0  0  0  0  0  0  0  0
    0.0136   20.6466  -35.7161 H   0  0  0  0  0  0  0  0  0  0  0  0
    2.0400   21.2332  -34.0325 H   0  0  0  0  0  0  0  0  0  0  0  0
    0.6845   21.8729  -33.0465 H   0  0  0  0  0  0  0  0  0  0  0  0
   -0.0804   19.8781  -35.4243 H   0  0  0  0  0  0  0  0  0  0  0  0
    0.9042   18.4511  -34.9533 H   0  0  0  0  0  0  0  0  0  0  0  0
   -1.9973   18.8901  -34.7351 H   0  0  0  0  0  0  0  0  0  0  0  0
   -1.0540   17.3672  -34.6102 H   0  0  0  0  0  0  0  0  0  0  0  0
   -1.7324   16.7119  -31.7880 H   0  0  0  0  0  0  0  0  0  0  0  0
   -0.5590   16.5219  -33.1403 H   0  0  0  0  0  0  0  0  0  0  0  0
   -0.0244   17.0116  -30.3544 H   0  0  0  0  0  0  0  0  0  0  0  0
    1.1434   16.8467  -31.7475 H   0  0  0  0  0  0  0  0  0  0  0  0
    1.5580   18.9390  -31.7430 H   0  0  0  0  0  0  0  0  0  0  0  0
   -0.0650   19.4130  -31.6330 H   0  0  0  0  0  0  0  0  0  0  0  0
    0.6737   18.3287  -29.1539 H   0  0  0  0  0  0  0  0  0  0  0  0
    1.9365   19.5160  -29.6964 H   0  0  0  0  0  0  0  0  0  0  0  0
   -0.1885   20.2932  -28.2918 H   0  0  0  0  0  0  0  0  0  0  0  0
    0.5152   21.2901  -29.6578 H   0  0  0  0  0  0  0  0  0  0  0  0
   -1.7179   19.3677  -30.2487 H   0  0  0  0  0  0  0  0  0  0  0  0
   -2.0827   20.9512  -29.4483 H   0  0  0  0  0  0  0  0  0  0  0  0
   -0.9240   20.4060  -32.0820 H   0  0  0  0  0  0  0  0  0  0  0  0
   -3.3765   21.1440  -31.1182 H   0  0  0  0  0  0  0  0  0  0  0  0
   -2.6413   22.6246  -31.8421 H   0  0  0  0  0  0  0  0  0  0  0  0
   -2.1941   21.4165  -33.9310 H   0  0  0  0  0  0  0  0  0  0  0  0
   -2.8610   19.8991  -33.2030 H   0  0  0  0  0  0  0  0  0  0  0  0
   -4.3940   22.2650  -34.1830 H   0  0  0  0  0  0  0  0  0  0  0  0
   -5.4975   23.2593  -32.5365 H   0  0  0  0  0  0  0  0  0  0  0  0
   -7.4413   24.4899  -31.5978 H   0  0  0  0  0  0  0  0  0  0  0  0
   -9.5909   23.3036  -31.1962 H   0  0  0  0  0  0  0  0  0  0  0  0
   -9.7772   20.8681  -31.6336 H   0  0  0  0  0  0  0  0  0  0  0  0
   -8.8263   18.5439  -30.7437 H   0  0  0  0  0  0  0  0  0  0  0  0
   -9.8420   18.9427  -32.1706 H   0  0  0  0  0  0  0  0  0  0  0  0
   -8.8386   17.4528  -32.1706 H   0  0  0  0  0  0  0  0  0  0  0  0
   -7.8039   16.6884  -33.2473 H   0  0  0  0  0  0  0  0  0  0  0  0
   -5.8950   15.4631  -34.2572 H   0  0  0  0  0  0  0  0  0  0  0  0
   -3.7380   16.6287  -34.6775 H   0  0  0  0  0  0  0  0  0  0  0  0
   -3.5152   19.0547  -34.1871 H   0  0  0  0  0  0  0  0  0  0  0  0
  1  2  1  0
  2  3  1  0
  3  4  1  0
  4  5  1  0
  5  6  1  0
  6  7  1  0
  7  8  1  0
  8  9  1  0
  9 10  1  0
 10 11  1  0
 11 12  1  0
 12 13  1  0
 13 14  1  0
 14 15  1  0
 15 16  1  0
 16 17  1  0
 17 18  2  0
 18 19  1  0
 19 20  2  0
 20 21  1  0
 21 22  2  0
 22 23  1  0
 23 24  2  0
 24 25  1  0
 24 26  1  0
 26 27  2  0
 27 28  1  0
 28 29  2  0
 29 30  1  0
 30 31  2  0
 31 17  1  0
 23 18  1  0
 31 26  1  0
  1 32  1  0
  1 33  1  0
  1 34  1  0
  2 35  1  0
  2 36  1  0
  4 37  1  0
  4 38  1  0
  5 39  1  0
  5 40  1  0
  7 41  1  0
  7 42  1  0
  8 43  1  0
  8 44  1  0
  9 45  1  0
  9 46  1  0
 10 47  1  0
 10 48  1  0
 11 49  1  0
 11 50  1  0
 12 51  1  0
 12 52  1  0
 13 53  1  0
 14 54  1  0
 14 55  1  0
 15 56  1  0
 15 57  1  0
 16 58  1  0
 19 59  1  0
 20 60  1  0
 21 61  1  0
 22 62  1  0
 25 63  1  0
 25 64  1  0
 25 65  1  0
 27 66  1  0
 28 67  1  0
 29 68  1  0
 30 69  1  0
M  CHG  2   9   1  24   1
M  END
>  <UniqueID>  (10) 
10

>  <SMILES>  (10) 
CCOCCOCC[NH2+]CCCNCCNc1c2ccccc2[n+](C)c2ccccc12

>  <Energy>  (10) 
79.78546293800736

>  <Genealogy>  (10) 
CCOCCOCC[NH2+]CCCNCCNc1c2ccccc2[n+](C)c2ccccc12 (protonated)
CCOCCOCC[NH2+]CCCNCCNc1c2ccccc2[n+](C)c2ccccc12 (3D coordinates assigned)
CCOCCOCC[NH2+]CCCNCCNc1c2ccccc2[n+](C)c2ccccc12 (optimized conformer: 79.78546293800736 kcal/mol)

>  <smiles>  (10) 
CCOCCOCCNCCCNCCNc1c2ccccc2[n+](C)c2ccccc12

>  <score_type>  (10) 
oracle

>  <origin>  (10) 
adg

>  <m_score__min__energy>  (10) 
-7.4800000000000004

>  <m_primary>  (10) 
energy

$$$$
10:0
     RDKit          3D

 39 40  0  0  0  0  0  0  0  0999 V2000
   -6.1260   25.6430  -29.5750 C   0  0  0  0  0  0  0  0  0  0  0  0
   -4.7910   24.9270  -29.7830 C   0  0  0  0  0  0  0  0  0  0  0  0
   -4.7480   24.2280  -31.0860 N   0  0  0  0  0  0  0  0  0  0  0  0
   -3.5250   23.3940  -31.2190 C   0  0  0  0  0  0  0  0  0  0  0  0
   -3.7310   22.2480  -32.2230 C   0  0  0  0  0  0  0  0  0  0  0  0
   -4.7920   21.2840  -31.7800 N   0  0  0  0  0  0  0  0  0  0  0  0
   -4.1780   20.2300  -30.9300 C   0  0  0  0  0  0  0  0  0  0  0  0
   -5.4480   20.6520  -32.9700 C   0  0  0  0  0  0  0  0  0  0  0  0
   -6.7380   19.9060  -32.6660 C   0  0  0  0  0  0  0  0  0  0  0  0
   -7.9790   20.5690  -32.7130 C   0  0  0  0  0  0  0  0  0  0  0  0
   -9.1600   19.8790  -32.4230 C   0  0  0  0  0  0  0  0  0  0  0  0
   -9.1140   18.5280  -32.0700 C   0  0  0  0  0  0  0  0  0  0  0  0
   -7.8860   17.8660  -31.9990 C   0  0  0  0  0  0  0  0  0  0  0  0
   -6.7030   18.5520  -32.2870 C   0  0  0  0  0  0  0  0  0  0  0  0
   -5.8480   21.9790  -30.9660 C   0  0  0  0  0  0  0  0  0  0  0  0
   -5.9970   23.4660  -31.3360 C   0  0  0  0  0  0  0  0  0  0  0  0
   -6.3218   25.7480  -28.4977 H   0  0  0  0  0  0  0  0  0  0  0  0
   -6.0838   26.6395  -30.0388 H   0  0  0  0  0  0  0  0  0  0  0  0
   -6.9328   25.0565  -30.0388 H   0  0  0  0  0  0  0  0  0  0  0  0
   -3.9787   25.6679  -29.7479 H   0  0  0  0  0  0  0  0  0  0  0  0
   -4.6729   24.1784  -28.9857 H   0  0  0  0  0  0  0  0  0  0  0  0
   -2.6958   24.0282  -31.5657 H   0  0  0  0  0  0  0  0  0  0  0  0
   -3.2979   22.9552  -30.2362 H   0  0  0  0  0  0  0  0  0  0  0  0
   -4.0252   22.6762  -33.1926 H   0  0  0  0  0  0  0  0  0  0  0  0
   -2.7840   21.6935  -32.2983 H   0  0  0  0  0  0  0  0  0  0  0  0
   -4.3250   20.4824  -29.8695 H   0  0  0  0  0  0  0  0  0  0  0  0
   -4.6534   19.2618  -31.1458 H   0  0  0  0  0  0  0  0  0  0  0  0
   -3.1013   20.1660  -31.1458 H   0  0  0  0  0  0  0  0  0  0  0  0
   -5.6748   21.4455  -33.6973 H   0  0  0  0  0  0  0  0  0  0  0  0
   -4.7396   19.9024  -33.3523 H   0  0  0  0  0  0  0  0  0  0  0  0
   -8.0198   21.6355  -32.9793 H   0  0  0  0  0  0  0  0  0  0  0  0
  -10.1271   20.4008  -32.4729 H   0  0  0  0  0  0  0  0  0  0  0  0
  -10.0449   17.9856  -31.8480 H   0  0  0  0  0  0  0  0  0  0  0  0
   -7.8501   16.8036  -31.7161 H   0  0  0  0  0  0  0  0  0  0  0  0
   -5.7377   18.0293  -32.2168 H   0  0  0  0  0  0  0  0  0  0  0  0
   -6.8113   21.4756  -31.1350 H   0  0  0  0  0  0  0  0  0  0  0  0
   -5.5430   21.9271  -29.9104 H   0  0  0  0  0  0  0  0  0  0  0  0
   -6.2525   23.5428  -32.4032 H   0  0  0  0  0  0  0  0  0  0  0  0
   -6.7896   23.8956  -30.7058 H   0  0  0  0  0  0  0  0  0  0  0  0
  1  2  1  0
  2  3  1  0
  3  4  1  0
  4  5  1  0
  5  6  1  0
  6  7  1  0
  6  8  1  0
  8  9  1  0
  9 10  2  0
 10 11  1  0
 11 12  2  0
 12 13  1  0
 13 14  2  0
  6 15  1  0
 15 16  1  0
 16  3  1  0
 14  9  1  0
  1 17  1  0
  1 18  1  0
  1 19  1  0
  2 20  1  0
  2 21  1  0
  4 22  1  0
  4 23  1  0
  5 24  1  0
  5 25  1  0
  7 26  1  0
  7 27  1  0
  7 28  1  0
  8 29  1  0
  8 30  1  0
 10 31  1  0
 11 32  1  0
 12 33  1  0
 13 34  1  0
 14 35  1  0
 15 36  1  0
 15 37  1  0
 16 38  1  0
 16 39  1  0
M  CHG  1   6   1
M  END
>  <UniqueID>  (11) 
11

>  <SMILES>  (11) 
CCN1CC[N+](C)(Cc2ccccc2)CC1

>  <Energy>  (11) 
57.98325000408325

>  <Genealogy>  (11) 
CCN1CC[N+](C)(Cc2ccccc2)CC1 (protonated)
CCN1CC[N+](C)(Cc2ccccc2)CC1 (3D coordinates assigned)
CCN1CC[N+](C)(Cc2ccccc2)CC1 (nonaromatic ring conformer: 57.98325000408325 kcal/mol)

>  <smiles>  (11) 
CC[N+]1CC[N+](C)(Cc2ccccc2)CC1

>  <score_type>  (11) 
oracle

>  <origin>  (11) 
adg

>  <m_score__min__energy>  (11) 
-5.7599999999999998

>  <m_primary>  (11) 
energy

$$$$
11:0
     RDKit          3D

 48 50  0  0  0  0  0  0  0  0999 V2000
   -0.4580   27.1560  -24.7080 C   0  0  0  0  0  0  0  0  0  0  0  0
   -0.9770   26.4030  -25.8960 C   0  0  0  0  0  0  0  0  0  0  0  0
   -2.1390   25.6310  -25.8050 C   0  0  0  0  0  0  0  0  0  0  0  0
   -2.6080   24.9770  -26.9000 N   0  0  0  0  0  0  0  0  0  0  0  0
   -1.9770   25.0640  -28.1040 C   0  0  0  0  0  0  0  0  0  0  0  0
   -2.5010   24.3700  -29.2580 N   0  0  0  0  0  0  0  0  0  0  0  0
   -1.6540   23.4140  -29.9960 C   0  0  0  0  0  0  0  0  0  0  0  0
   -2.3960   22.0950  -30.3120 C   0  0  1  0  0  0  0  0  0  0  0  0
   -3.0960   21.5220  -29.0590 C   0  0  0  0  0  0  0  0  0  0  0  0
   -4.3170   22.3640  -28.6170 C   0  0  0  0  0  0  0  0  0  0  0  0
   -4.7550   23.3630  -29.7070 C   0  0  1  0  0  0  0  0  0  0  0  0
   -3.8680   24.6400  -29.7390 C   0  0  0  0  0  0  0  0  0  0  0  0
   -4.7570   22.6550  -31.0040 N   0  0  0  0  0  0  0  0  0  0  0  0
   -5.6010   23.2880  -32.0440 C   0  0  0  0  0  0  0  0  0  0  0  0
   -6.8170   22.4020  -32.3350 C   0  0  0  0  0  0  0  0  0  0  0  0
   -6.7170   21.1230  -31.6220 N   0  0  0  0  0  0  0  0  0  0  0  0
   -7.5360   19.8790  -32.5160 S   0  0  0  0  0  0  0  0  0  0  0  0
   -7.4740   18.3230  -31.6500 C   0  0  0  0  0  0  0  0  0  0  0  0
   -8.9720   20.2720  -32.7360 O   0  0  0  0  0  0  0  0  0  0  0  0
   -6.8570   19.7160  -33.8510 O   0  0  0  0  0  0  0  0  0  0  0  0
   -3.4080   22.2690  -31.4750 C   0  0  0  0  0  0  0  0  0  0  0  0
   -0.8580   25.8350  -28.2120 N   0  0  0  0  0  0  0  0  0  0  0  0
   -0.3520   26.4990  -27.1440 C   0  0  0  0  0  0  0  0  0  0  0  0
   -0.7974   26.6635  -23.7848 H   0  0  0  0  0  0  0  0  0  0  0  0
    0.6416   27.1688  -24.7338 H   0  0  0  0  0  0  0  0  0  0  0  0
   -0.8374   28.1882  -24.7338 H   0  0  0  0  0  0  0  0  0  0  0  0
   -2.6737   25.5530  -24.8469 H   0  0  0  0  0  0  0  0  0  0  0  0
   -1.3388   23.8780  -30.9422 H   0  0  0  0  0  0  0  0  0  0  0  0
   -0.7898   23.1700  -29.3607 H   0  0  0  0  0  0  0  0  0  0  0  0
   -1.6341   21.3706  -30.6356 H   0  0  0  0  0  0  0  0  0  0  0  0
   -3.4361   20.5001  -29.2827 H   0  0  0  0  0  0  0  0  0  0  0  0
   -2.3668   21.5380  -28.2356 H   0  0  0  0  0  0  0  0  0  0  0  0
   -5.1555   21.6863  -28.3988 H   0  0  0  0  0  0  0  0  0  0  0  0
   -4.0280   22.9394  -27.7252 H   0  0  0  0  0  0  0  0  0  0  0  0
   -5.7681   23.7262  -29.4796 H   0  0  0  0  0  0  0  0  0  0  0  0
   -3.8147   25.0105  -30.7734 H   0  0  0  0  0  0  0  0  0  0  0  0
   -4.3227   25.3885  -29.0735 H   0  0  0  0  0  0  0  0  0  0  0  0
   -5.9423   24.2715  -31.6887 H   0  0  0  0  0  0  0  0  0  0  0  0
   -5.0121   23.4108  -32.9649 H   0  0  0  0  0  0  0  0  0  0  0  0
   -7.7290   22.9246  -32.0107 H   0  0  0  0  0  0  0  0  0  0  0  0
   -6.8533   22.1996  -33.4156 H   0  0  0  0  0  0  0  0  0  0  0  0
   -5.7140   20.8360  -31.6000 H   0  0  0  0  0  0  0  0  0  0  0  0
   -7.4813   18.5065  -30.5654 H   0  0  0  0  0  0  0  0  0  0  0  0
   -8.3486   17.7152  -31.9250 H   0  0  0  0  0  0  0  0  0  0  0  0
   -6.5538   17.7867  -31.9250 H   0  0  0  0  0  0  0  0  0  0  0  0
   -3.4846   21.3169  -32.0205 H   0  0  0  0  0  0  0  0  0  0  0  0
   -3.0368   23.0785  -32.1207 H   0  0  0  0  0  0  0  0  0  0  0  0
    0.5522   27.1148  -27.2589 H   0  0  0  0  0  0  0  0  0  0  0  0
  1  2  1  0
  2  3  2  0
  3  4  1  0
  4  5  2  0
  5  6  1  0
  6  7  1  0
  7  8  1  0
  8  9  1  0
  9 10  1  0
 10 11  1  0
 11 12  1  0
 11 13  1  0
 13 14  1  0
 14 15  1  0
 15 16  1  0
 16 17  1  0
 17 18  1  0
 17 19  2  0
 17 20  2  0
 13 21  1  0
  5 22  1  0
 22 23  2  0
 23  2  1  0
 12  6  1  0
 21  8  1  0
  1 24  1  0
  1 25  1  0
  1 26  1  0
  3 27  1  0
  7 28  1  0
  7 29  1  0
  8 30  1  6
  9 31  1  0
  9 32  1  0
 10 33  1  0
 10 34  1  0
 11 35  1  1
 12 36  1  0
 12 37  1  0
 14 38  1  0
 14 39  1  0
 15 40  1  0
 15 41  1  0
 16 42  1  0
 18 43  1  0
 18 44  1  0
 18 45  1  0
 21 46  1  0
 21 47  1  0
 23 48  1  0
M  END
>  <UniqueID>  (12) 
12

>  <SMILES>  (12) 
Cc1cnc(N2C[C@H]3CC[C@@H](C2)N(CCNS(C)(=O)=O)C3)nc1

>  <Energy>  (12) 
59.45281065836288

>  <Genealogy>  (12) 
Cc1cnc(N2C[C@H]3CC[C@@H](C2)N(CCNS(C)(=O)=O)C3)nc1 (chirality)
Cc1cnc(N2C[C@H]3CC[C@@H](C2)N(CCNS(C)(=O)=O)C3)nc1 (3D coordinates assigned)
Cc1cnc(N2C[C@H]3CC[C@@H](C2)N(CCNS(C)(=O)=O)C3)nc1 (nonaromatic ring conformer: 59.45281065836288 kcal/mol)

>  <smiles>  (12) 
Cc1cnc(N2CC3CCC(C2)N(CCNS(C)(=O)=O)C3)nc1

>  <score_type>  (12) 
oracle

>  <origin>  (12) 
adg

>  <m_score__min__energy>  (12) 
-5.9800000000000004

>  <m_primary>  (12) 
energy

$$$$
12:0
     RDKit          3D

 37 38  0  0  0  0  0  0  0  0999 V2000
   -9.7910   20.7970  -32.0280 C   0  0  0  0  0  0  0  0  0  0  0  0
   -9.3920   21.9860  -31.1550 C   0  0  0  0  0  0  0  0  0  0  0  0
   -8.7740   23.1220  -31.9740 C   0  0  0  0  0  0  0  0  0  0  0  0
   -7.2830   23.7880  -31.1520 S   0  0  0  0  0  0  0  0  0  0  0  0
   -6.1770   22.5810  -31.8990 C   0  0  0  0  0  0  0  0  0  0  0  0
   -6.7650   21.4780  -32.5520 C   0  0  0  0  0  0  0  0  0  0  0  0
   -5.9250   20.5100  -33.0880 C   0  0  0  0  0  0  0  0  0  0  0  0
   -6.2660   19.4070  -33.7730 N   0  0  0  0  0  0  0  0  0  0  0  0
   -5.0800   18.8310  -34.0850 C   0  0  0  0  0  0  0  0  0  0  0  0
   -4.9670   17.3580  -35.0360 S   0  0  0  0  0  0  0  0  0  0  0  0
   -5.6790   15.9590  -34.2020 C   0  0  0  0  0  0  0  0  0  0  0  0
   -3.3850   17.0640  -35.5170 O   0  0  0  0  0  0  0  0  0  0  0  0
   -4.0150   19.5290  -33.6050 N   0  0  0  0  0  0  0  0  0  0  0  0
   -2.5920   19.2850  -33.8360 C   0  0  0  0  0  0  0  0  0  0  0  0
   -4.5690   20.5940  -32.9900 C   0  0  0  0  0  0  0  0  0  0  0  0
   -3.9430   21.6650  -32.3570 C   0  0  0  0  0  0  0  0  0  0  0  0
   -4.7520   22.6840  -31.7970 C   0  0  0  0  0  0  0  0  0  0  0  0
   -4.1180   23.7880  -31.1220 N   0  0  0  0  0  0  0  0  0  0  0  0
   -4.6150   24.9300  -31.1920 O   0  0  0  0  0  0  0  0  0  0  0  0
   -3.0570   23.5830  -30.2720 O   0  0  0  0  0  0  0  0  0  0  0  0
  -10.0752   19.9500  -31.3863 H   0  0  0  0  0  0  0  0  0  0  0  0
  -10.6440   21.0783  -32.6631 H   0  0  0  0  0  0  0  0  0  0  0  0
   -8.9410   20.5068  -32.6631 H   0  0  0  0  0  0  0  0  0  0  0  0
  -10.2880   22.3656  -30.6422 H   0  0  0  0  0  0  0  0  0  0  0  0
   -8.6364   21.6384  -30.4352 H   0  0  0  0  0  0  0  0  0  0  0  0
   -8.4963   22.7393  -32.9672 H   0  0  0  0  0  0  0  0  0  0  0  0
   -9.5142   23.9306  -32.0651 H   0  0  0  0  0  0  0  0  0  0  0  0
   -7.8581   21.3867  -32.6346 H   0  0  0  0  0  0  0  0  0  0  0  0
   -7.2240   19.0780  -34.0260 H   0  0  0  0  0  0  0  0  0  0  0  0
   -5.6052   16.1041  -33.1141 H   0  0  0  0  0  0  0  0  0  0  0  0
   -6.7367   15.8610  -34.4879 H   0  0  0  0  0  0  0  0  0  0  0  0
   -5.1358   15.0462  -34.4879 H   0  0  0  0  0  0  0  0  0  0  0  0
   -3.4700   16.6840  -36.4270 H   0  0  0  0  0  0  0  0  0  0  0  0
   -2.0737   19.1961  -32.8699 H   0  0  0  0  0  0  0  0  0  0  0  0
   -2.4677   18.3524  -34.4060 H   0  0  0  0  0  0  0  0  0  0  0  0
   -2.1641   20.1229  -34.4060 H   0  0  0  0  0  0  0  0  0  0  0  0
   -2.8461   21.7183  -32.2934 H   0  0  0  0  0  0  0  0  0  0  0  0
  1  2  1  0
  2  3  1  0
  3  4  1  0
  4  5  1  0
  5  6  2  0
  6  7  1  0
  7  8  1  0
  8  9  2  0
  9 10  1  0
 10 11  1  0
 10 12  1  1
  9 13  1  0
 13 14  1  0
 13 15  1  0
 15 16  1  0
 16 17  2  0
 17 18  1  0
 18 19  2  0
 18 20  1  0
 17  5  1  0
 15  7  2  0
  1 21  1  0
  1 22  1  0
  1 23  1  0
  2 24  1  0
  2 25  1  0
  3 26  1  0
  3 27  1  0
  6 28  1  0
  8 29  1  0
 11 30  1  0
 11 31  1  0
 11 32  1  0
 12 33  1  0
 14 34  1  0
 14 35  1  0
 14 36  1  0
 16 37  1  0
M  CHG  4   8   1  10   1  18   1  20  -1
M  END
>  <UniqueID>  (13) 
13

>  <SMILES>  (13) 
CCCSc1cc2[nH+]c([S@+](C)O)n(C)c2cc1[N+](=O)[O-]

>  <Energy>  (13) 
67.94752591361181

>  <Genealogy>  (13) 
CCCSc1cc2[nH+]c([S+](C)O)n(C)c2cc1[N+](=O)[O-] (protonated)
CCCSc1cc2[nH+]c([S@+](C)O)n(C)c2cc1[N+](=O)[O-] (chirality)
CCCSc1cc2[nH+]c([S@+](C)O)n(C)c2cc1[N+](=O)[O-] (3D coordinates assigned)
CCCSc1cc2[nH+]c([S@+](C)O)n(C)c2cc1[N+](=O)[O-] (optimized conformer: 67.94752591361181 kcal/mol)

>  <smiles>  (13) 
CCCSc1cc2nc([S+](C)[O-])n(C)c2cc1[N+](=O)[O-]

>  <score_type>  (13) 
oracle

>  <origin>  (13) 
adg

>  <m_score__min__energy>  (13) 
-6.5099999999999998

>  <m_primary>  (13) 
energy

$$$$
13:0
     RDKit          3D

 59 61  0  0  0  0  0  0  0  0999 V2000
   -1.6350   26.2940  -25.2660 C   0  0  0  0  0  0  0  0  0  0  0  0
   -2.0370   25.6750  -26.6020 C   0  0  0  0  0  0  0  0  0  0  0  0
   -1.1580   26.1980  -27.7450 C   0  0  0  0  0  0  0  0  0  0  0  0
   -1.6010   25.6660  -28.9790 O   0  0  0  0  0  0  0  0  0  0  0  0
   -1.1460   24.3360  -29.1380 C   0  0  0  0  0  0  0  0  0  0  0  0
   -2.3330   23.4140  -29.4100 C   0  0  0  0  0  0  0  0  0  0  0  0
   -3.6730   24.1560  -29.3140 C   0  0  0  0  0  0  0  0  0  0  0  0
   -3.8820   24.9790  -30.5130 N   0  0  0  0  0  0  0  0  0  0  0  0
   -5.1470   25.7280  -30.4470 C   0  0  0  0  0  0  0  0  0  0  0  0
   -6.3290   24.8060  -30.7700 C   0  0  0  0  0  0  0  0  0  0  0  0
   -6.0460   23.8660  -31.9530 C   0  0  0  0  0  0  0  0  0  0  0  0
   -5.2360   22.7180  -31.5390 N   0  0  0  0  0  0  0  0  0  0  0  0
   -5.3950   21.4130  -32.1280 C   0  0  0  0  0  0  0  0  0  0  0  0
   -6.6570   20.7890  -32.1430 C   0  0  0  0  0  0  0  0  0  0  0  0
   -7.8010   21.4450  -31.6340 C   0  0  0  0  0  0  0  0  0  0  0  0
   -9.0510   20.8350  -31.6810 C   0  0  0  0  0  0  0  0  0  0  0  0
   -9.1890   19.5710  -32.2410 C   0  0  0  0  0  0  0  0  0  0  0  0
   -8.0720   18.8940  -32.7280 C   0  0  0  0  0  0  0  0  0  0  0  0
   -6.7780   19.4680  -32.6550 C   0  0  0  0  0  0  0  0  0  0  0  0
   -5.6530   18.7780  -33.0650 N   0  0  0  0  0  0  0  0  0  0  0  0
   -5.7230   17.3160  -33.2920 C   0  0  0  0  0  0  0  0  0  0  0  0
   -4.4570   19.4490  -33.2420 C   0  0  0  0  0  0  0  0  0  0  0  0
   -3.3650   18.8560  -33.9280 C   0  0  0  0  0  0  0  0  0  0  0  0
   -2.1620   19.5400  -34.0940 C   0  0  0  0  0  0  0  0  0  0  0  0
   -2.0190   20.8330  -33.6060 C   0  0  0  0  0  0  0  0  0  0  0  0
   -3.0830   21.4540  -32.9550 C   0  0  0  0  0  0  0  0  0  0  0  0
   -4.3070   20.7760  -32.7580 C   0  0  0  0  0  0  0  0  0  0  0  0
   -2.0329   25.6814  -24.4436 H   0  0  0  0  0  0  0  0  0  0  0  0
   -0.5380   26.3342  -25.1958 H   0  0  0  0  0  0  0  0  0  0  0  0
   -2.0445   27.3125  -25.1958 H   0  0  0  0  0  0  0  0  0  0  0  0
   -1.9287   24.5822  -26.5378 H   0  0  0  0  0  0  0  0  0  0  0  0
   -3.0809   25.9507  -26.8125 H   0  0  0  0  0  0  0  0  0  0  0  0
   -1.2194   27.2958  -27.7786 H   0  0  0  0  0  0  0  0  0  0  0  0
   -0.1172   25.8875  -27.5710 H   0  0  0  0  0  0  0  0  0  0  0  0
   -0.4447   24.2883  -29.9841 H   0  0  0  0  0  0  0  0  0  0  0  0
   -0.6375   24.0128  -28.2177 H   0  0  0  0  0  0  0  0  0  0  0  0
   -2.2316   22.9940  -30.4216 H   0  0  0  0  0  0  0  0  0  0  0  0
   -2.3287   22.6216  -28.6471 H   0  0  0  0  0  0  0  0  0  0  0  0
   -4.4891   23.4234  -29.2289 H   0  0  0  0  0  0  0  0  0  0  0  0
   -3.6608   24.8077  -28.4279 H   0  0  0  0  0  0  0  0  0  0  0  0
   -3.1030   25.6770  -30.5670 H   0  0  0  0  0  0  0  0  0  0  0  0
   -5.2732   26.1385  -29.4343 H   0  0  0  0  0  0  0  0  0  0  0  0
   -5.1183   26.5443  -31.1837 H   0  0  0  0  0  0  0  0  0  0  0  0
   -6.5517   24.1961  -29.8821 H   0  0  0  0  0  0  0  0  0  0  0  0
   -7.1797   25.4444  -31.0507 H   0  0  0  0  0  0  0  0  0  0  0  0
   -7.0018   23.5025  -32.3584 H   0  0  0  0  0  0  0  0  0  0  0  0
   -5.4876   24.4274  -32.7165 H   0  0  0  0  0  0  0  0  0  0  0  0
   -4.4150   22.8970  -30.9170 H   0  0  0  0  0  0  0  0  0  0  0  0
   -7.7021   22.4491  -31.1958 H   0  0  0  0  0  0  0  0  0  0  0  0
   -9.9311   21.3544  -31.2741 H   0  0  0  0  0  0  0  0  0  0  0  0
  -10.1827   19.1030  -32.3003 H   0  0  0  0  0  0  0  0  0  0  0  0
   -8.1969   17.8974  -33.1766 H   0  0  0  0  0  0  0  0  0  0  0  0
   -5.7479   16.7953  -32.3234 H   0  0  0  0  0  0  0  0  0  0  0  0
   -6.6336   17.0764  -33.8606 H   0  0  0  0  0  0  0  0  0  0  0  0
   -4.8394   16.9905  -33.8606 H   0  0  0  0  0  0  0  0  0  0  0  0
   -3.4699   17.8396  -34.3354 H   0  0  0  0  0  0  0  0  0  0  0  0
   -1.3227   19.0544  -34.6133 H   0  0  0  0  0  0  0  0  0  0  0  0
   -1.0656   21.3666  -33.7336 H   0  0  0  0  0  0  0  0  0  0  0  0
   -2.9687   22.4853  -32.5898 H   0  0  0  0  0  0  0  0  0  0  0  0
  1  2  1  0
  2  3  1  0
  3  4  1  0
  4  5  1  0
  5  6  1  0
  6  7  1  0
  7  8  1  0
  8  9  1  0
  9 10  1  0
 10 11  1  0
 11 12  1  0
 12 13  1  0
 13 14  2  0
 14 15  1  0
 15 16  2  0
 16 17  1  0
 17 18  2  0
 18 19  1  0
 19 20  2  0
 20 21  1  0
 20 22  1  0
 22 23  2  0
 23 24  1  0
 24 25  2  0
 25 26  1  0
 26 27  2  0
 27 13  1  0
 19 14  1  0
 27 22  1  0
  1 28  1  0
  1 29  1  0
  1 30  1  0
  2 31  1  0
  2 32  1  0
  3 33  1  0
  3 34  1  0
  5 35  1  0
  5 36  1  0
  6 37  1  0
  6 38  1  0
  7 39  1  0
  7 40  1  0
  8 41  1  0
  9 42  1  0
  9 43  1  0
 10 44  1  0
 10 45  1  0
 11 46  1  0
 11 47  1  0
 12 48  1  0
 15 49  1  0
 16 50  1  0
 17 51  1  0
 18 52  1  0
 21 53  1  0
 21 54  1  0
 21 55  1  0
 23 56  1  0
 24 57  1  0
 25 58  1  0
 26 59  1  0
M  CHG  1  20   1
M  END
>  <UniqueID>  (14) 
14

>  <SMILES>  (14) 
CCCOCCCNCCCNc1c2ccccc2[n+](C)c2ccccc12

>  <Energy>  (14) 
71.39250287528247

>  <Genealogy>  (14) 
CCCOCCCNCCCNc1c2ccccc2[n+](C)c2ccccc12 (3D coordinates assigned)
CCCOCCCNCCCNc1c2ccccc2[n+](C)c2ccccc12 (optimized conformer: 71.39250287528247 kcal/mol)

>  <smiles>  (14) 
CCCOCCCNCCCNc1c2ccccc2[n+](C)c2ccccc12

>  <score_type>  (14) 
oracle

>  <origin>  (14) 
adg

>  <m_score__min__energy>  (14) 
-9.8399999999999999

>  <m_primary>  (14) 
energy

$$$$
14:0
     RDKit          3D

 36 37  0  0  0  0  0  0  0  0999 V2000
   -7.1910   19.1010  -33.0640 C   0  0  0  0  0  0  0  0  0  0  0  0
   -8.5260   19.5170  -32.6080 N   0  0  0  0  0  0  0  0  0  0  0  0
   -9.0690   18.5710  -31.6190 C   0  0  0  0  0  0  0  0  0  0  0  0
   -8.5670   20.9230  -32.1450 C   0  0  0  0  0  0  0  0  0  0  0  0
   -7.2540   21.7020  -32.3700 C   0  0  0  0  0  0  0  0  0  0  0  0
   -7.3960   23.1560  -31.9080 C   0  0  0  0  0  0  0  0  0  0  0  0
   -7.2110   23.3000  -30.0960 S   0  0  0  0  0  0  0  0  0  0  0  0
   -5.5390   23.9560  -30.1540 C   0  0  0  0  0  0  0  0  0  0  0  0
   -5.1190   24.8200  -31.0940 N   0  0  0  0  0  0  0  0  0  0  0  0
   -3.8480   25.0860  -30.8330 N   0  0  0  0  0  0  0  0  0  0  0  0
   -3.5110   24.3840  -29.7320 C   0  0  0  0  0  0  0  0  0  0  0  0
   -2.1570   24.4380  -29.1460 C   0  0  0  0  0  0  0  0  0  0  0  0
   -1.1490   23.4820  -29.2400 C   0  0  0  0  0  0  0  0  0  0  0  0
    0.0030   23.8180  -28.5170 C   0  0  0  0  0  0  0  0  0  0  0  0
   -0.0920   25.0260  -27.8410 C   0  0  0  0  0  0  0  0  0  0  0  0
   -1.6130   25.6730  -28.1410 S   0  0  0  0  0  0  0  0  0  0  0  0
   -4.5520   23.6430  -29.2890 N   0  0  0  0  0  0  0  0  0  0  0  0
   -4.6040   22.6890  -28.1810 C   0  0  0  0  0  0  0  0  0  0  0  0
   -6.5512   18.9016  -32.1917 H   0  0  0  0  0  0  0  0  0  0  0  0
   -7.2789   18.1876  -33.6707 H   0  0  0  0  0  0  0  0  0  0  0  0
   -6.7445   19.9026  -33.6707 H   0  0  0  0  0  0  0  0  0  0  0  0
   -8.8574   18.9396  -30.6044 H   0  0  0  0  0  0  0  0  0  0  0  0
  -10.1566   18.4804  -31.7569 H   0  0  0  0  0  0  0  0  0  0  0  0
   -8.5987   17.5862  -31.7569 H   0  0  0  0  0  0  0  0  0  0  0  0
   -9.3724   21.4410  -32.6862 H   0  0  0  0  0  0  0  0  0  0  0  0
   -8.7343   20.8930  -31.0582 H   0  0  0  0  0  0  0  0  0  0  0  0
   -6.4466   21.2198  -31.7993 H   0  0  0  0  0  0  0  0  0  0  0  0
   -7.0208   21.6955  -33.4450 H   0  0  0  0  0  0  0  0  0  0  0  0
   -6.6205   23.7642  -32.3965 H   0  0  0  0  0  0  0  0  0  0  0  0
   -8.4004   23.5104  -32.1830 H   0  0  0  0  0  0  0  0  0  0  0  0
   -1.2474   22.5550  -29.8239 H   0  0  0  0  0  0  0  0  0  0  0  0
    0.9004   23.1825  -28.4879 H   0  0  0  0  0  0  0  0  0  0  0  0
    0.6919   25.4807  -27.2174 H   0  0  0  0  0  0  0  0  0  0  0  0
   -4.5743   23.2342  -27.2261 H   0  0  0  0  0  0  0  0  0  0  0  0
   -5.5352   22.1067  -28.2419 H   0  0  0  0  0  0  0  0  0  0  0  0
   -3.7416   22.0089  -28.2419 H   0  0  0  0  0  0  0  0  0  0  0  0
  1  2  1  0
  2  3  1  0
  2  4  1  0
  4  5  1  0
  5  6  1  0
  6  7  1  0
  7  8  1  0
  8  9  2  0
  9 10  1  0
 10 11  2  0
 11 12  1  0
 12 13  2  0
 13 14  1  0
 14 15  2  0
 15 16  1  0
 11 17  1  0
 17 18  1  0
 17  8  1  0
 16 12  1  0
  1 19  1  0
  1 20  1  0
  1 21  1  0
  3 22  1  0
  3 23  1  0
  3 24  1  0
  4 25  1  0
  4 26  1  0
  5 27  1  0
  5 28  1  0
  6 29  1  0
  6 30  1  0
 13 31  1  0
 14 32  1  0
 15 33  1  0
 18 34  1  0
 18 35  1  0
 18 36  1  0
M  END
>  <UniqueID>  (15) 
15

>  <SMILES>  (15) 
CN(C)CCCSc1nnc(-c2cccs2)n1C

>  <Energy>  (15) 
93.65547437123033

>  <Genealogy>  (15) 
CN(C)CCCSc1nnc(-c2cccs2)n1C (3D coordinates assigned)
CN(C)CCCSc1nnc(-c2cccs2)n1C (optimized conformer: 93.65547437123033 kcal/mol)

>  <smiles>  (15) 
CN(C)CCCSc1nnc(-c2cccs2)n1C

>  <score_type>  (15) 
oracle

>  <origin>  (15) 
adg

>  <m_score__min__energy>  (15) 
-6.8399999999999999

>  <m_primary>  (15) 
energy

$$$$
15:0
     RDKit          3D

 55 58  0  0  0  0  0  0  0  0999 V2000
   -6.1110   17.0770  -30.9240 C   0  0  0  0  0  0  0  0  0  0  0  0
   -7.1020   17.6980  -31.8950 C   0  0  0  0  0  0  0  0  0  0  0  0
   -6.6600   19.0030  -32.2490 O   0  0  0  0  0  0  0  0  0  0  0  0
   -7.4030   20.1760  -32.0590 C   0  0  0  0  0  0  0  0  0  0  0  0
   -8.8060   20.2180  -32.2510 C   0  0  0  0  0  0  0  0  0  0  0  0
   -9.5350   21.3970  -32.0050 C   0  0  0  0  0  0  0  0  0  0  0  0
   -8.8860   22.5550  -31.5550 C   0  0  0  0  0  0  0  0  0  0  0  0
   -7.5060   22.5010  -31.3820 C   0  0  0  0  0  0  0  0  0  0  0  0
   -6.6220   23.4520  -30.9400 C   0  0  0  0  0  0  0  0  0  0  0  0
   -6.8220   24.7670  -30.5200 C   0  0  0  0  0  0  0  0  0  0  0  0
   -5.7020   25.4970  -30.0920 C   0  0  0  0  0  0  0  0  0  0  0  0
   -4.4230   24.9020  -30.0840 C   0  0  0  0  0  0  0  0  0  0  0  0
   -4.2470   23.5730  -30.5110 C   0  0  0  0  0  0  0  0  0  0  0  0
   -5.3730   22.8640  -30.9550 C   0  0  0  0  0  0  0  0  0  0  0  0
   -5.4380   21.5870  -31.4210 N   0  0  0  0  0  0  0  0  0  0  0  0
   -4.3160   20.6660  -31.6670 C   0  0  0  0  0  0  0  0  0  0  0  0
   -3.5140   21.0450  -32.9330 C   0  0  0  0  0  0  0  0  0  0  0  0
   -2.5180   19.9750  -33.4220 C   0  0  0  0  0  0  0  0  0  0  0  0
   -2.7190   18.5500  -32.8610 C   0  0  0  0  0  0  0  0  0  0  0  0
   -3.9750   17.8910  -33.2940 N   0  0  0  0  0  0  0  0  0  0  0  0
   -3.8250   16.4180  -33.3870 C   0  0  0  0  0  0  0  0  0  0  0  0
   -4.9590   15.7830  -34.2190 C   0  0  0  0  0  0  0  0  0  0  0  0
   -6.0760   16.6450  -34.2840 O   0  0  0  0  0  0  0  0  0  0  0  0
   -5.7490   17.8020  -35.0330 C   0  0  0  0  0  0  0  0  0  0  0  0
   -4.4090   18.4400  -34.5940 C   0  0  0  0  0  0  0  0  0  0  0  0
   -6.7670   21.3610  -31.6440 C   0  0  0  0  0  0  0  0  0  0  0  0
   -6.4333   17.2790  -29.8919 H   0  0  0  0  0  0  0  0  0  0  0  0
   -6.0682   15.9902  -31.0887 H   0  0  0  0  0  0  0  0  0  0  0  0
   -5.1144   17.5124  -31.0887 H   0  0  0  0  0  0  0  0  0  0  0  0
   -7.1696   17.0753  -32.7992 H   0  0  0  0  0  0  0  0  0  0  0  0
   -8.0923   17.7610  -31.4202 H   0  0  0  0  0  0  0  0  0  0  0  0
   -9.3332   19.3167  -32.5972 H   0  0  0  0  0  0  0  0  0  0  0  0
  -10.6229   21.4095  -32.1673 H   0  0  0  0  0  0  0  0  0  0  0  0
   -9.4490   23.4765  -31.3454 H   0  0  0  0  0  0  0  0  0  0  0  0
   -7.8254   25.2176  -30.5240 H   0  0  0  0  0  0  0  0  0  0  0  0
   -5.8224   26.5391  -29.7609 H   0  0  0  0  0  0  0  0  0  0  0  0
   -3.5544   25.4830  -29.7404 H   0  0  0  0  0  0  0  0  0  0  0  0
   -3.2528   23.1024  -30.4970 H   0  0  0  0  0  0  0  0  0  0  0  0
   -3.6404   20.6914  -30.7993 H   0  0  0  0  0  0  0  0  0  0  0  0
   -4.7334   19.6600  -31.8211 H   0  0  0  0  0  0  0  0  0  0  0  0
   -4.2306   21.2395  -33.7446 H   0  0  0  0  0  0  0  0  0  0  0  0
   -2.9103   21.9234  -32.6611 H   0  0  0  0  0  0  0  0  0  0  0  0
   -2.5969   19.9187  -34.5177 H   0  0  0  0  0  0  0  0  0  0  0  0
   -1.5331   20.2998  -33.0554 H   0  0  0  0  0  0  0  0  0  0  0  0
   -1.8734   17.9284  -33.1905 H   0  0  0  0  0  0  0  0  0  0  0  0
   -2.7785   18.6495  -31.7671 H   0  0  0  0  0  0  0  0  0  0  0  0
   -4.7310   18.1080  -32.6060 H   0  0  0  0  0  0  0  0  0  0  0  0
   -2.8606   16.1867  -33.8628 H   0  0  0  0  0  0  0  0  0  0  0  0
   -3.8707   16.0026  -32.3695 H   0  0  0  0  0  0  0  0  0  0  0  0
   -4.5934   15.5888  -35.2381 H   0  0  0  0  0  0  0  0  0  0  0  0
   -5.2663   14.8431  -33.7371 H   0  0  0  0  0  0  0  0  0  0  0  0
   -5.6752   17.5244  -36.0948 H   0  0  0  0  0  0  0  0  0  0  0  0
   -6.5422   18.5443  -34.8603 H   0  0  0  0  0  0  0  0  0  0  0  0
   -3.6409   18.2258  -35.3517 H   0  0  0  0  0  0  0  0  0  0  0  0
   -4.5493   19.5262  -34.4919 H   0  0  0  0  0  0  0  0  0  0  0  0
  1  2  1  0
  2  3  1  0
  3  4  1  0
  4  5  2  0
  5  6  1  0
  6  7  2  0
  7  8  1  0
  8  9  1  0
  9 10  2  0
 10 11  1  0
 11 12  2  0
 12 13  1  0
 13 14  2  0
 14 15  1  0
 15 16  1  0
 16 17  1  0
 17 18  1  0
 18 19  1  0
 19 20  1  0
 20 21  1  0
 21 22  1  0
 22 23  1  0
 23 24  1  0
 24 25  1  0
 15 26  1  0
 26  4  1  0
 26  8  2  0
 14  9  1  0
 25 20  1  0
  1 27  1  0
  1 28  1  0
  1 29  1  0
  2 30  1  0
  2 31  1  0
  5 32  1  0
  6 33  1  0
  7 34  1  0
 10 35  1  0
 11 36  1  0
 12 37  1  0
 13 38  1  0
 16 39  1  0
 16 40  1  0
 17 41  1  0
 17 42  1  0
 18 43  1  0
 18 44  1  0
 19 45  1  0
 19 46  1  0
 20 47  1  0
 21 48  1  0
 21 49  1  0
 22 50  1  0
 22 51  1  0
 24 52  1  0
 24 53  1  0
 25 54  1  0
 25 55  1  0
M  CHG  1  20   1
M  END
>  <UniqueID>  (16) 
16

>  <SMILES>  (16) 
CCOc1cccc2c3ccccc3n(CCCC[NH+]3CCOCC3)c12

>  <Energy>  (16) 
102.11417090402146

>  <Genealogy>  (16) 
CCOc1cccc2c3ccccc3n(CCCC[NH+]3CCOCC3)c12 (protonated)
CCOc1cccc2c3ccccc3n(CCCC[NH+]3CCOCC3)c12 (3D coordinates assigned)
CCOc1cccc2c3ccccc3n(CCCC[NH+]3CCOCC3)c12 (nonaromatic ring conformer: 102.11417090402146 kcal/mol)

>  <smiles>  (16) 
CCOc1cccc2c3ccccc3n(CCCCN3CCOCC3)c12

>  <score_type>  (16) 
oracle

>  <origin>  (16) 
adg

>  <m_score__min__energy>  (16) 
-7.79

>  <m_primary>  (16) 
energy

$$$$
