0:0
     RDKit          3D

 77 80  0  0  0  0  0  0  0  0999 V2000
   -3.4810   18.5600  -25.6290 C   0  0  0  0  0  0  0  0  0  0  0  0
   -2.9840   18.9630  -27.0160 C   0  0  0  0  0  0  0  0  0  0  0  0
   -1.9760   20.0430  -26.9090 N   0  0  0  0  0  0  0  0  0  0  0  0
   -0.6050   19.5200  -27.1110 C   0  0  0  0  0  0  0  0  0  0  0  0
   -0.5360   18.6800  -28.3840 C   0  0  0  0  0  0  0  0  0  0  0  0
   -2.2730   21.1710  -27.8290 C   0  0  0  0  0  0  0  0  0  0  0  0
   -1.0020   21.9840  -28.0990 C   0  0  0  0  0  0  0  0  0  0  0  0
   -0.6800   22.0820  -29.5930 C   0  0  0  0  0  0  0  0  0  0  0  0
   -1.5510   23.0600  -30.2450 N   0  0  0  0  0  0  0  0  0  0  0  0
   -2.7400   22.6560  -30.9440 C   0  0  0  0  0  0  0  0  0  0  0  0
   -2.6620   21.6080  -31.8770 C   0  0  0  0  0  0  0  0  0  0  0  0
   -1.4260   21.0310  -32.2350 C   0  0  0  0  0  0  0  0  0  0  0  0
   -1.3760   19.9840  -33.1520 C   0  0  0  0  0  0  0  0  0  0  0  0
   -2.5590   19.5140  -33.7100 C   0  0  0  0  0  0  0  0  0  0  0  0
   -3.7430   20.0760  -33.3590 N   0  0  0  0  0  0  0  0  0  0  0  0
   -3.8410   21.1040  -32.4640 C   0  0  0  0  0  0  0  0  0  0  0  0
   -5.0690   21.6300  -32.1380 N   0  0  0  0  0  0  0  0  0  0  0  0
   -6.2940   21.0390  -32.7250 C   0  0  0  0  0  0  0  0  0  0  0  0
   -5.1620   22.7190  -31.2900 C   0  0  0  0  0  0  0  0  0  0  0  0
   -6.4130   23.3180  -31.0040 C   0  0  0  0  0  0  0  0  0  0  0  0
   -6.5090   24.4320  -30.1830 C   0  0  0  0  0  0  0  0  0  0  0  0
   -5.3690   24.9990  -29.6360 C   0  0  0  0  0  0  0  0  0  0  0  0
   -4.1020   24.4450  -29.8810 C   0  0  0  0  0  0  0  0  0  0  0  0
   -2.9430   25.0590  -29.3710 O   0  0  0  0  0  0  0  0  0  0  0  0
   -2.3980   24.8930  -28.0610 C   0  0  0  0  0  0  0  0  0  0  0  0
   -1.0240   25.6030  -27.9430 C   0  0  0  0  0  0  0  0  0  0  0  0
   -0.4630   25.6810  -26.5560 N   0  0  0  0  0  0  0  0  0  0  0  0
    1.0010   25.4370  -26.6810 C   0  0  0  0  0  0  0  0  0  0  0  0
   -1.0530   24.6000  -25.7040 C   0  0  0  0  0  0  0  0  0  0  0  0
   -0.5660   24.6410  -24.2410 C   0  0  0  0  0  0  0  0  0  0  0  0
   -0.4830   26.0690  -23.6740 C   0  0  0  0  0  0  0  0  0  0  0  0
   -1.2320   27.0740  -24.5460 C   0  0  0  0  0  0  0  0  0  0  0  0
   -0.6800   27.0610  -25.9840 C   0  0  0  0  0  0  0  0  0  0  0  0
   -3.9900   23.2740  -30.6890 C   0  0  0  0  0  0  0  0  0  0  0  0
   -2.8688   19.0564  -24.8616 H   0  0  0  0  0  0  0  0  0  0  0  0
   -4.5317   18.8643  -25.5133 H   0  0  0  0  0  0  0  0  0  0  0  0
   -3.4004   17.4691  -25.5133 H   0  0  0  0  0  0  0  0  0  0  0  0
   -2.5289   18.0896  -27.5060 H   0  0  0  0  0  0  0  0  0  0  0  0
   -3.8361   19.3273  -27.6087 H   0  0  0  0  0  0  0  0  0  0  0  0
    0.0956   20.3638  -27.1955 H   0  0  0  0  0  0  0  0  0  0  0  0
   -0.3350   18.8878  -26.2522 H   0  0  0  0  0  0  0  0  0  0  0  0
   -0.4486   17.6164  -28.1172 H   0  0  0  0  0  0  0  0  0  0  0  0
   -1.4500   18.8356  -28.9760 H   0  0  0  0  0  0  0  0  0  0  0  0
    0.3403   18.9827  -28.9760 H   0  0  0  0  0  0  0  0  0  0  0  0
   -2.6581   20.7728  -28.7793 H   0  0  0  0  0  0  0  0  0  0  0  0
   -3.0247   21.8251  -27.3632 H   0  0  0  0  0  0  0  0  0  0  0  0
   -1.1405   22.9996  -27.6998 H   0  0  0  0  0  0  0  0  0  0  0  0
   -0.1632   21.4695  -27.6074 H   0  0  0  0  0  0  0  0  0  0  0  0
    0.3681   22.3920  -29.7172 H   0  0  0  0  0  0  0  0  0  0  0  0
   -0.8434   21.0977  -30.0560 H   0  0  0  0  0  0  0  0  0  0  0  0
   -1.2270   24.0510  -30.3280 H   0  0  0  0  0  0  0  0  0  0  0  0
   -0.4956   21.4103  -31.7872 H   0  0  0  0  0  0  0  0  0  0  0  0
   -0.4117   19.5344  -33.4313 H   0  0  0  0  0  0  0  0  0  0  0  0
   -2.5354   18.6874  -34.4353 H   0  0  0  0  0  0  0  0  0  0  0  0
   -6.9673   20.7142  -31.9181 H   0  0  0  0  0  0  0  0  0  0  0  0
   -6.8024   21.7909  -33.3464 H   0  0  0  0  0  0  0  0  0  0  0  0
   -6.0219   20.1731  -33.3464 H   0  0  0  0  0  0  0  0  0  0  0  0
   -7.3273   22.8911  -31.4419 H   0  0  0  0  0  0  0  0  0  0  0  0
   -7.4953   24.8676  -29.9650 H   0  0  0  0  0  0  0  0  0  0  0  0
   -5.4575   25.8937  -29.0023 H   0  0  0  0  0  0  0  0  0  0  0  0
   -3.0916   25.3246  -27.3243 H   0  0  0  0  0  0  0  0  0  0  0  0
   -2.2577   23.8187  -27.8706 H   0  0  0  0  0  0  0  0  0  0  0  0
   -0.3042   25.0576  -28.5710 H   0  0  0  0  0  0  0  0  0  0  0  0
   -1.1889   26.6420  -28.2643 H   0  0  0  0  0  0  0  0  0  0  0  0
    1.4473   25.3626  -25.6783 H   0  0  0  0  0  0  0  0  0  0  0  0
    1.1708   24.4982  -27.2285 H   0  0  0  0  0  0  0  0  0  0  0  0
    1.4661   26.2700  -27.2285 H   0  0  0  0  0  0  0  0  0  0  0  0
   -2.1476   24.7087  -25.7106 H   0  0  0  0  0  0  0  0  0  0  0  0
   -0.7290   23.6381  -26.1280 H   0  0  0  0  0  0  0  0  0  0  0  0
   -1.2648   24.0585  -23.6226 H   0  0  0  0  0  0  0  0  0  0  0  0
    0.4499   24.2197  -24.2208 H   0  0  0  0  0  0  0  0  0  0  0  0
   -0.9221   26.0769  -22.6655 H   0  0  0  0  0  0  0  0  0  0  0  0
    0.5764   26.3639  -23.6485 H   0  0  0  0  0  0  0  0  0  0  0  0
   -2.2997   26.8101  -24.5662 H   0  0  0  0  0  0  0  0  0  0  0  0
   -1.0969   28.0805  -24.1232 H   0  0  0  0  0  0  0  0  0  0  0  0
   -1.3927   27.5935  -26.6310 H   0  0  0  0  0  0  0  0  0  0  0  0
    0.3076   27.5439  -25.9456 H   0  0  0  0  0  0  0  0  0  0  0  0
  1  2  1  0
  2  3  1  0
  3  4  1  0
  4  5  1  0
  3  6  1  0
  6  7  1  0
  7  8  1  0
  8  9  1  0
  9 10  1  0
 10 11  2  0
 11 12  1  0
 12 13  2  0
 13 14  1  0
 14 15  2  0
 15 16  1  0
 16 17  2  0
 17 18  1  0
 17 19  1  0
 19 20  2  0
 20 21  1  0
 21 22  2  0
 22 23  1  0
 23 24  1  0
 24 25  1  0
 25 26  1  0
 26 27  1  0
 27 28  1  0
 27 29  1  0
 29 30  1  0
 30 31  1  0
 31 32  1  0
 32 33  1  0
 23 34  2  0
 34 10  1  0
 16 11  1  0
 34 19  1  0
 33 27  1  0
  1 35  1  0
  1 36  1  0
  1 37  1  0
  2 38  1  0
  2 39  1  0
  4 40  1  0
  4 41  1  0
  5 42  1  0
  5 43  1  0
  5 44  1  0
  6 45  1  0
  6 46  1  0
  7 47  1  0
  7 48  1  0
  8 49  1  0
  8 50  1  0
  9 51  1  0
 12 52  1  0
 13 53  1  0
 14 54  1  0
 18 55  1  0
 18 56  1  0
 18 57  1  0
 20 58  1  0
 21 59  1  0
 22 60  1  0
 25 61  1  0
 25 62  1  0
 26 63  1  0
 26 64  1  0
 28 65  1  0
 28 66  1  0
 28 67  1  0
 29 68  1  0
 29 69  1  0
 30 70  1  0
 30 71  1  0
 31 72  1  0
 31 73  1  0
 32 74  1  0
 32 75  1  0
 33 76  1  0
 33 77  1  0
M  CHG  2  17   1  27   1
M  END
>  <UniqueID>  (1) 
1

>  <SMILES>  (1) 
CCN(CC)CCCNc1c2cccnc2[n+](C)c2cccc(OCC[N+]3(C)CCCCC3)c12

>  <Energy>  (1) 
114.22886017067916

>  <Genealogy>  (1) 
CCN(CC)CCCNc1c2cccnc2[n+](C)c2cccc(OCC[N+]3(C)CCCCC3)c12 (3D coordinates assigned)
CCN(CC)CCCNc1c2cccnc2[n+](C)c2cccc(OCC[N+]3(C)CCCCC3)c12 (nonaromatic ring conformer: 114.22886017067916 kcal/mol)

>  <smiles>  (1) 
CCN(CC)CCCNc1c2cccnc2[n+](C)c2cccc(OCC[N+]3(C)CCCCC3)c12

>  <score_type>  (1) 
oracle

>  <origin>  (1) 
adg

>  <m_score__min__energy>  (1) 
-8.2300000000000004

>  <m_primary>  (1) 
energy

$$$$
1:0
     RDKit          3D

 57 59  0  0  0  0  0  0  0  0999 V2000
   -1.2960   26.0580  -26.7160 C   0  0  0  0  0  0  0  0  0  0  0  0
   -0.9660   26.2170  -28.1950 C   0  0  0  0  0  0  0  0  0  0  0  0
   -1.6900   25.2140  -28.9900 N   0  0  0  0  0  0  0  0  0  0  0  0
   -2.7600   24.5370  -28.2300 C   0  0  0  0  0  0  0  0  0  0  0  0
   -4.0730   24.4450  -29.0190 C   0  0  0  0  0  0  0  0  0  0  0  0
   -3.8900   24.9830  -30.3110 O   0  0  0  0  0  0  0  0  0  0  0  0
   -5.1300   25.3710  -30.8610 C   0  0  0  0  0  0  0  0  0  0  0  0
   -5.7390   24.1880  -31.6090 C   0  0  0  0  0  0  0  0  0  0  0  0
   -5.0200   22.9490  -31.3100 N   0  0  0  0  0  0  0  0  0  0  0  0
   -5.4390   21.7100  -31.9010 C   0  0  0  0  0  0  0  0  0  0  0  0
   -6.8060   21.3850  -31.9060 C   0  0  0  0  0  0  0  0  0  0  0  0
   -7.7510   22.2400  -31.2970 C   0  0  0  0  0  0  0  0  0  0  0  0
   -9.1100   21.9430  -31.3380 C   0  0  0  0  0  0  0  0  0  0  0  0
   -9.5530   20.8040  -32.0000 C   0  0  0  0  0  0  0  0  0  0  0  0
   -8.6370   19.9420  -32.6020 C   0  0  0  0  0  0  0  0  0  0  0  0
   -7.2430   20.1950  -32.5380 C   0  0  0  0  0  0  0  0  0  0  0  0
   -6.3240   19.3260  -33.0880 N   0  0  0  0  0  0  0  0  0  0  0  0
   -6.7430   17.9640  -33.4880 C   0  0  0  0  0  0  0  0  0  0  0  0
   -5.0030   19.7090  -33.2290 C   0  0  0  0  0  0  0  0  0  0  0  0
   -4.1120   18.9730  -34.0440 C   0  0  0  0  0  0  0  0  0  0  0  0
   -2.7650   19.2980  -34.1110 C   0  0  0  0  0  0  0  0  0  0  0  0
   -2.2610   20.3500  -33.3610 C   0  0  0  0  0  0  0  0  0  0  0  0
   -3.1130   21.1380  -32.5670 C   0  0  0  0  0  0  0  0  0  0  0  0
   -2.5920   22.1790  -31.7750 O   0  0  0  0  0  0  0  0  0  0  0  0
   -1.8230   22.0250  -30.5820 C   0  0  0  0  0  0  0  0  0  0  0  0
   -2.5980   21.2310  -29.5370 C   0  0  0  0  0  0  0  0  0  0  0  0
   -4.5120   20.8680  -32.5600 C   0  0  0  0  0  0  0  0  0  0  0  0
   -0.4685   26.4567  -26.1108 H   0  0  0  0  0  0  0  0  0  0  0  0
   -2.2187   26.6104  -26.4847 H   0  0  0  0  0  0  0  0  0  0  0  0
   -1.4390   24.9921  -26.4847 H   0  0  0  0  0  0  0  0  0  0  0  0
   -1.2601   27.2239  -28.5262 H   0  0  0  0  0  0  0  0  0  0  0  0
    0.1153   26.0743  -28.3378 H   0  0  0  0  0  0  0  0  0  0  0  0
   -2.0900   25.6740  -29.8420 H   0  0  0  0  0  0  0  0  0  0  0  0
   -2.4259   23.5190  -27.9810 H   0  0  0  0  0  0  0  0  0  0  0  0
   -2.9547   25.1313  -27.3251 H   0  0  0  0  0  0  0  0  0  0  0  0
   -4.3770   23.3911  -29.1014 H   0  0  0  0  0  0  0  0  0  0  0  0
   -4.8541   25.0147  -28.4943 H   0  0  0  0  0  0  0  0  0  0  0  0
   -5.8084   25.6848  -30.0540 H   0  0  0  0  0  0  0  0  0  0  0  0
   -4.9798   26.2102  -31.5561 H   0  0  0  0  0  0  0  0  0  0  0  0
   -6.7907   24.0749  -31.3070 H   0  0  0  0  0  0  0  0  0  0  0  0
   -5.6657   24.3825  -32.6892 H   0  0  0  0  0  0  0  0  0  0  0  0
   -4.3050   22.9170  -30.5500 H   0  0  0  0  0  0  0  0  0  0  0  0
   -7.4089   23.1511  -30.7844 H   0  0  0  0  0  0  0  0  0  0  0  0
   -9.8337   22.6098  -30.8464 H   0  0  0  0  0  0  0  0  0  0  0  0
  -10.6292   20.5819  -32.0492 H   0  0  0  0  0  0  0  0  0  0  0  0
   -9.0015   19.0515  -33.1351 H   0  0  0  0  0  0  0  0  0  0  0  0
   -6.9292   17.3587  -32.5886 H   0  0  0  0  0  0  0  0  0  0  0  0
   -7.6640   18.0246  -34.0863 H   0  0  0  0  0  0  0  0  0  0  0  0
   -5.9472   17.4964  -34.0863 H   0  0  0  0  0  0  0  0  0  0  0  0
   -4.4938   18.1277  -34.6354 H   0  0  0  0  0  0  0  0  0  0  0  0
   -2.0937   18.7187  -34.7619 H   0  0  0  0  0  0  0  0  0  0  0  0
   -1.1836   20.5703  -33.3875 H   0  0  0  0  0  0  0  0  0  0  0  0
   -0.8902   21.4930  -30.8204 H   0  0  0  0  0  0  0  0  0  0  0  0
   -1.6016   23.0223  -30.1741 H   0  0  0  0  0  0  0  0  0  0  0  0
   -2.2878   21.5488  -28.5306 H   0  0  0  0  0  0  0  0  0  0  0  0
   -3.6755   21.4129  -29.6631 H   0  0  0  0  0  0  0  0  0  0  0  0
   -2.3900   20.1582  -29.6631 H   0  0  0  0  0  0  0  0  0  0  0  0
  1  2  1  0
  2  3  1  0
  3  4  1  0
  4  5  1  0
  5  6  1  0
  6  7  1  0
  7  8  1  0
  8  9  1  0
  9 10  1  0
 10 11  2  0
 11 12  1  0
 12 13  2  0
 13 14  1  0
 14 15  2  0
 15 16  1  0
 16 17  2  0
 17 18  1  0
 17 19  1  0
 19 20  2  0
 20 21  1  0
 21 22  2  0
 22 23  1  0
 23 24  1  0
 24 25  1  0
 25 26  1  0
 23 27  2  0
 27 10  1  0
 16 11  1  0
 27 19  1  0
  1 28  1  0
  1 29  1  0
  1 30  1  0
  2 31  1  0
  2 32  1  0
  3 33  1  0
  4 34  1  0
  4 35  1  0
  5 36  1  0
  5 37  1  0
  7 38  1  0
  7 39  1  0
  8 40  1  0
  8 41  1  0
  9 42  1  0
 12 43  1  0
 13 44  1  0
 14 45  1  0
 15 46  1  0
 18 47  1  0
 18 48  1  0
 18 49  1  0
 20 50  1  0
 21 51  1  0
 22 52  1  0
 25 53  1  0
 25 54  1  0
 26 55  1  0
 26 56  1  0
 26 57  1  0
M  CHG  1  17   1
M  END
>  <UniqueID>  (2) 
2

>  <SMILES>  (2) 
CCNCCOCCNc1c2ccccc2[n+](C)c2cccc(OCC)c12

>  <Energy>  (2) 
80.36356779904709

>  <Genealogy>  (2) 
CCNCCOCCNc1c2ccccc2[n+](C)c2cccc(OCC)c12 (3D coordinates assigned)
CCNCCOCCNc1c2ccccc2[n+](C)c2cccc(OCC)c12 (optimized conformer: 80.36356779904709 kcal/mol)

>  <smiles>  (2) 
CCNCCOCCNc1c2ccccc2[n+](C)c2cccc(OCC)c12

>  <score_type>  (2) 
oracle

>  <origin>  (2) 
adg

>  <m_score__min__energy>  (2) 
-8.6099999999999994

>  <m_primary>  (2) 
energy

$$$$
2:0
     RDKit          3D

 63 65  0  0  0  0  0  0  0  0999 V2000
   -0.8640   24.1870  -28.9990 C   0  0  0  0  0  0  0  0  0  0  0  0
   -2.3410   23.9490  -29.2970 C   0  0  0  0  0  0  0  0  0  0  0  0
   -2.9730   23.2500  -28.1480 N   0  0  0  0  0  0  0  0  0  0  0  0
   -3.8980   24.1240  -27.3890 C   0  0  0  0  0  0  0  0  0  0  0  0
   -3.1470   24.9910  -26.3770 C   0  0  0  0  0  0  0  0  0  0  0  0
   -3.5400   21.9300  -28.5370 C   0  0  0  0  0  0  0  0  0  0  0  0
   -2.4910   20.8530  -28.8730 C   0  0  0  0  0  0  0  0  0  0  0  0
   -2.1470   20.9620  -30.2410 O   0  0  0  0  0  0  0  0  0  0  0  0
   -1.0410   20.1350  -30.5540 C   0  0  0  0  0  0  0  0  0  0  0  0
   -0.2110   20.7520  -31.6770 C   0  0  0  0  0  0  0  0  0  0  0  0
   -1.0270   21.6200  -32.4350 O   0  0  0  0  0  0  0  0  0  0  0  0
   -1.2870   21.0620  -33.7080 C   0  0  0  0  0  0  0  0  0  0  0  0
   -2.7710   20.6660  -33.8460 C   0  0  0  0  0  0  0  0  0  0  0  0
   -3.4740   20.7440  -32.5640 N   0  0  0  0  0  0  0  0  0  0  0  0
   -4.8800   20.4710  -32.4900 C   0  0  0  0  0  0  0  0  0  0  0  0
   -5.3650   19.1790  -32.7570 C   0  0  0  0  0  0  0  0  0  0  0  0
   -4.4790   18.1030  -32.9870 C   0  0  0  0  0  0  0  0  0  0  0  0
   -4.9640   16.8110  -33.1960 C   0  0  0  0  0  0  0  0  0  0  0  0
   -6.3330   16.5620  -33.1550 C   0  0  0  0  0  0  0  0  0  0  0  0
   -7.2260   17.6100  -32.9280 C   0  0  0  0  0  0  0  0  0  0  0  0
   -6.7670   18.9430  -32.7480 C   0  0  0  0  0  0  0  0  0  0  0  0
   -7.6440   19.9890  -32.5360 N   0  0  0  0  0  0  0  0  0  0  0  0
   -9.0850   19.8170  -32.8290 C   0  0  0  0  0  0  0  0  0  0  0  0
   -7.1700   21.2000  -32.0650 C   0  0  0  0  0  0  0  0  0  0  0  0
   -8.0420   22.1970  -31.5550 C   0  0  0  0  0  0  0  0  0  0  0  0
   -7.5510   23.4130  -31.0840 C   0  0  0  0  0  0  0  0  0  0  0  0
   -6.1830   23.6730  -31.1030 C   0  0  0  0  0  0  0  0  0  0  0  0
   -5.5140   25.3230  -30.4240 Br  0  0  0  0  0  0  0  0  0  0  0  0
   -5.3000   22.7120  -31.5940 C   0  0  0  0  0  0  0  0  0  0  0  0
   -5.7740   21.4650  -32.0570 C   0  0  0  0  0  0  0  0  0  0  0  0
   -0.7090   24.2120  -27.9103 H   0  0  0  0  0  0  0  0  0  0  0  0
   -0.2661   23.3736  -29.4359 H   0  0  0  0  0  0  0  0  0  0  0  0
   -0.5518   25.1470  -29.4359 H   0  0  0  0  0  0  0  0  0  0  0  0
   -2.8423   24.9146  -29.4593 H   0  0  0  0  0  0  0  0  0  0  0  0
   -2.4370   23.3290  -30.2005 H   0  0  0  0  0  0  0  0  0  0  0  0
   -4.4309   24.7785  -28.0944 H   0  0  0  0  0  0  0  0  0  0  0  0
   -4.6036   23.4842  -26.8387 H   0  0  0  0  0  0  0  0  0  0  0  0
   -3.4162   24.6802  -25.3567 H   0  0  0  0  0  0  0  0  0  0  0  0
   -2.0635   24.8701  -26.5233 H   0  0  0  0  0  0  0  0  0  0  0  0
   -3.4212   26.0462  -26.5233 H   0  0  0  0  0  0  0  0  0  0  0  0
   -4.1543   21.5615  -27.7022 H   0  0  0  0  0  0  0  0  0  0  0  0
   -4.1178   22.0990  -29.4576 H   0  0  0  0  0  0  0  0  0  0  0  0
   -1.5948   21.0039  -28.2534 H   0  0  0  0  0  0  0  0  0  0  0  0
   -2.9035   19.8537  -28.6700 H   0  0  0  0  0  0  0  0  0  0  0  0
   -0.4109   20.0199  -29.6598 H   0  0  0  0  0  0  0  0  0  0  0  0
   -1.4133   19.1543  -30.8852 H   0  0  0  0  0  0  0  0  0  0  0  0
    0.6277   21.3185  -31.2460 H   0  0  0  0  0  0  0  0  0  0  0  0
    0.1832   19.9556  -32.3253 H   0  0  0  0  0  0  0  0  0  0  0  0
   -1.0389   21.8025  -34.4827 H   0  0  0  0  0  0  0  0  0  0  0  0
   -0.6710   20.1584  -33.8267 H   0  0  0  0  0  0  0  0  0  0  0  0
   -3.2566   21.3467  -34.5608 H   0  0  0  0  0  0  0  0  0  0  0  0
   -2.8167   19.6253  -34.1992 H   0  0  0  0  0  0  0  0  0  0  0  0
   -2.9920   21.1110  -31.7090 H   0  0  0  0  0  0  0  0  0  0  0  0
   -3.3943   18.2855  -33.0015 H   0  0  0  0  0  0  0  0  0  0  0  0
   -4.2624   15.9872  -33.3937 H   0  0  0  0  0  0  0  0  0  0  0  0
   -6.7108   15.5393  -33.3015 H   0  0  0  0  0  0  0  0  0  0  0  0
   -8.3051   17.4006  -32.8876 H   0  0  0  0  0  0  0  0  0  0  0  0
   -9.6457   19.7501  -31.8850 H   0  0  0  0  0  0  0  0  0  0  0  0
   -9.4464   20.6784  -33.4099 H   0  0  0  0  0  0  0  0  0  0  0  0
   -9.2335   18.8947  -33.4099 H   0  0  0  0  0  0  0  0  0  0  0  0
   -9.1251   22.0063  -31.5311 H   0  0  0  0  0  0  0  0  0  0  0  0
   -8.2471   24.1710  -30.6954 H   0  0  0  0  0  0  0  0  0  0  0  0
   -4.2217   22.9278  -31.6210 H   0  0  0  0  0  0  0  0  0  0  0  0
  1  2  1  0
  2  3  1  0
  3  4  1  0
  4  5  1  0
  3  6  1  0
  6  7  1  0
  7  8  1  0
  8  9  1  0
  9 10  1  0
 10 11  1  0
 11 12  1  0
 12 13  1  0
 13 14  1  0
 14 15  1  0
 15 16  2  0
 16 17  1  0
 17 18  2  0
 18 19  1  0
 19 20  2  0
 20 21  1  0
 21 22  2  0
 22 23  1  0
 22 24  1  0
 24 25  2  0
 25 26  1  0
 26 27  2  0
 27 28  1  0
 27 29  1  0
 29 30  2  0
 30 15  1  0
 21 16  1  0
 30 24  1  0
  1 31  1  0
  1 32  1  0
  1 33  1  0
  2 34  1  0
  2 35  1  0
  4 36  1  0
  4 37  1  0
  5 38  1  0
  5 39  1  0
  5 40  1  0
  6 41  1  0
  6 42  1  0
  7 43  1  0
  7 44  1  0
  9 45  1  0
  9 46  1  0
 10 47  1  0
 10 48  1  0
 12 49  1  0
 12 50  1  0
 13 51  1  0
 13 52  1  0
 14 53  1  0
 17 54  1  0
 18 55  1  0
 19 56  1  0
 20 57  1  0
 23 58  1  0
 23 59  1  0
 23 60  1  0
 25 61  1  0
 26 62  1  0
 29 63  1  0
M  CHG  1  22   1
M  END
>  <UniqueID>  (3) 
3

>  <SMILES>  (3) 
CCN(CC)CCOCCOCCNc1c2ccccc2[n+](C)c2ccc(Br)cc12

>  <Energy>  (3) 
89.42727823913667

>  <Genealogy>  (3) 
CCN(CC)CCOCCOCCNc1c2ccccc2[n+](C)c2ccc(Br)cc12 (3D coordinates assigned)
CCN(CC)CCOCCOCCNc1c2ccccc2[n+](C)c2ccc(Br)cc12 (optimized conformer: 89.42727823913667 kcal/mol)

>  <smiles>  (3) 
CCN(CC)CCOCCOCCNc1c2ccccc2[n+](C)c2ccc(Br)cc12

>  <score_type>  (3) 
oracle

>  <origin>  (3) 
adg

>  <m_score__min__energy>  (3) 
-9.5999999999999996

>  <m_primary>  (3) 
energy

$$$$
3:0
     RDKit          3D

 76 78  0  0  0  0  0  0  0  0999 V2000
   -2.4190   19.7990  -27.1320 C   0  0  0  0  0  0  0  0  0  0  0  0
   -2.7060   21.0560  -27.9480 C   0  0  0  0  0  0  0  0  0  0  0  0
   -1.4480   21.5810  -28.5260 N   0  0  0  0  0  0  0  0  0  0  0  0
   -1.4570   21.5380  -30.0060 C   0  0  0  0  0  0  0  0  0  0  0  0
   -0.9170   20.2100  -30.5260 C   0  0  0  0  0  0  0  0  0  0  0  0
   -1.0640   22.8960  -27.9580 C   0  0  0  0  0  0  0  0  0  0  0  0
   -0.3360   23.8230  -28.9510 C   0  0  0  0  0  0  0  0  0  0  0  0
   -1.1470   24.9560  -29.2060 O   0  0  0  0  0  0  0  0  0  0  0  0
   -2.4200   24.8520  -28.5980 C   0  0  0  0  0  0  0  0  0  0  0  0
   -3.4550   24.2770  -29.5670 C   0  0  0  0  0  0  0  0  0  0  0  0
   -3.8630   25.2830  -30.4700 O   0  0  0  0  0  0  0  0  0  0  0  0
   -5.2300   25.6070  -30.2910 C   0  0  0  0  0  0  0  0  0  0  0  0
   -6.1030   24.8720  -31.3080 C   0  0  0  0  0  0  0  0  0  0  0  0
   -5.4650   23.6790  -31.7080 O   0  0  0  0  0  0  0  0  0  0  0  0
   -5.7500   22.6280  -30.8020 C   0  0  0  0  0  0  0  0  0  0  0  0
   -5.0240   21.3360  -31.2080 C   0  0  0  0  0  0  0  0  0  0  0  0
   -4.7700   21.2380  -32.6540 N   0  0  0  0  0  0  0  0  0  0  0  0
   -4.1100   20.1110  -33.2600 C   0  0  0  0  0  0  0  0  0  0  0  0
   -2.7360   20.1900  -33.5420 C   0  0  0  0  0  0  0  0  0  0  0  0
   -2.0650   21.4310  -33.5160 C   0  0  0  0  0  0  0  0  0  0  0  0
   -0.7160   21.5180  -33.8560 C   0  0  0  0  0  0  0  0  0  0  0  0
   -0.0190   20.3780  -34.2340 C   0  0  0  0  0  0  0  0  0  0  0  0
   -0.6580   19.1370  -34.2460 C   0  0  0  0  0  0  0  0  0  0  0  0
   -2.0210   19.0120  -33.8710 C   0  0  0  0  0  0  0  0  0  0  0  0
   -2.6560   17.7900  -33.8220 N   0  0  0  0  0  0  0  0  0  0  0  0
   -1.8640   16.5410  -33.8050 C   0  0  0  0  0  0  0  0  0  0  0  0
   -4.0390   17.7280  -33.7710 C   0  0  0  0  0  0  0  0  0  0  0  0
   -4.7190   16.5060  -33.9800 C   0  0  0  0  0  0  0  0  0  0  0  0
   -6.1080   16.4250  -33.9340 C   0  0  0  0  0  0  0  0  0  0  0  0
   -6.7910   15.1100  -34.1900 C   0  0  0  0  0  0  0  0  0  0  0  0
   -6.8560   17.5810  -33.7430 C   0  0  0  0  0  0  0  0  0  0  0  0
   -6.2380   18.8220  -33.5470 C   0  0  0  0  0  0  0  0  0  0  0  0
   -7.1520   20.0240  -33.4540 C   0  0  0  0  0  0  0  0  0  0  0  0
   -4.8080   18.9040  -33.5190 C   0  0  0  0  0  0  0  0  0  0  0  0
   -2.4735   20.0376  -26.0596 H   0  0  0  0  0  0  0  0  0  0  0  0
   -3.1639   19.0267  -27.3741 H   0  0  0  0  0  0  0  0  0  0  0  0
   -1.4127   19.4265  -27.3741 H   0  0  0  0  0  0  0  0  0  0  0  0
   -3.4062   20.8113  -28.7603 H   0  0  0  0  0  0  0  0  0  0  0  0
   -3.1490   21.8198  -27.2920 H   0  0  0  0  0  0  0  0  0  0  0  0
   -2.4896   21.6687  -30.3618 H   0  0  0  0  0  0  0  0  0  0  0  0
   -0.8107   22.3456  -30.3803 H   0  0  0  0  0  0  0  0  0  0  0  0
   -0.6540   19.5631  -29.6761 H   0  0  0  0  0  0  0  0  0  0  0  0
   -1.6858   19.7162  -31.1385 H   0  0  0  0  0  0  0  0  0  0  0  0
   -0.0218   20.3928  -31.1385 H   0  0  0  0  0  0  0  0  0  0  0  0
   -1.9776   23.4048  -27.6169 H   0  0  0  0  0  0  0  0  0  0  0  0
   -0.3588   22.6934  -27.1385 H   0  0  0  0  0  0  0  0  0  0  0  0
    0.6227   24.1458  -28.5188 H   0  0  0  0  0  0  0  0  0  0  0  0
   -0.1459   23.2838  -29.8907 H   0  0  0  0  0  0  0  0  0  0  0  0
   -2.3452   24.1922  -27.7210 H   0  0  0  0  0  0  0  0  0  0  0  0
   -2.7456   25.8598  -28.3009 H   0  0  0  0  0  0  0  0  0  0  0  0
   -3.0094   23.4410  -30.1261 H   0  0  0  0  0  0  0  0  0  0  0  0
   -4.3266   23.9160  -29.0013 H   0  0  0  0  0  0  0  0  0  0  0  0
   -5.5387   25.3175  -29.2757 H   0  0  0  0  0  0  0  0  0  0  0  0
   -5.3564   26.6899  -30.4372 H   0  0  0  0  0  0  0  0  0  0  0  0
   -7.0740   24.6317  -30.8504 H   0  0  0  0  0  0  0  0  0  0  0  0
   -6.2579   25.5147  -32.1871 H   0  0  0  0  0  0  0  0  0  0  0  0
   -5.4217   22.9232  -29.7945 H   0  0  0  0  0  0  0  0  0  0  0  0
   -6.8336   22.4391  -30.8155 H   0  0  0  0  0  0  0  0  0  0  0  0
   -4.0591   21.2980  -30.6812 H   0  0  0  0  0  0  0  0  0  0  0  0
   -5.6798   20.4958  -30.9359 H   0  0  0  0  0  0  0  0  0  0  0  0
   -4.7480   22.1430  -33.1790 H   0  0  0  0  0  0  0  0  0  0  0  0
   -2.6123   22.3395  -33.2243 H   0  0  0  0  0  0  0  0  0  0  0  0
   -0.2031   22.4906  -33.8248 H   0  0  0  0  0  0  0  0  0  0  0  0
    1.0392   20.4531  -34.5247 H   0  0  0  0  0  0  0  0  0  0  0  0
   -0.0962   18.2418  -34.5509 H   0  0  0  0  0  0  0  0  0  0  0  0
   -1.6740   16.2414  -32.7638 H   0  0  0  0  0  0  0  0  0  0  0  0
   -2.4230   15.7454  -34.3193 H   0  0  0  0  0  0  0  0  0  0  0  0
   -0.9060   16.7073  -34.3193 H   0  0  0  0  0  0  0  0  0  0  0  0
   -4.1356   15.5961  -34.1842 H   0  0  0  0  0  0  0  0  0  0  0  0
   -7.0389   14.6327  -33.2305 H   0  0  0  0  0  0  0  0  0  0  0  0
   -7.7139   15.2817  -34.7634 H   0  0  0  0  0  0  0  0  0  0  0  0
   -6.1198   14.4537  -34.7634 H   0  0  0  0  0  0  0  0  0  0  0  0
   -7.9543   17.5196  -33.7459 H   0  0  0  0  0  0  0  0  0  0  0  0
   -7.3349   20.2646  -32.3963 H   0  0  0  0  0  0  0  0  0  0  0  0
   -6.6779   20.8843  -33.9490 H   0  0  0  0  0  0  0  0  0  0  0  0
   -8.1077   19.7971  -33.9490 H   0  0  0  0  0  0  0  0  0  0  0  0
  1  2  1  0
  2  3  1  0
  3  4  1  0
  4  5  1  0
  3  6  1  0
  6  7  1  0
  7  8  1  0
  8  9  1  0
  9 10  1  0
 10 11  1  0
 11 12  1  0
 12 13  1  0
 13 14  1  0
 14 15  1  0
 15 16  1  0
 16 17  1  0
 17 18  1  0
 18 19  2  0
 19 20  1  0
 20 21  2  0
 21 22  1  0
 22 23  2  0
 23 24  1  0
 24 25  2  0
 25 26  1  0
 25 27  1  0
 27 28  2  0
 28 29  1  0
 29 30  1  0
 29 31  2  0
 31 32  1  0
 32 33  1  0
 32 34  2  0
 34 18  1  0
 24 19  1  0
 34 27  1  0
  1 35  1  0
  1 36  1  0
  1 37  1  0
  2 38  1  0
  2 39  1  0
  4 40  1  0
  4 41  1  0
  5 42  1  0
  5 43  1  0
  5 44  1  0
  6 45  1  0
  6 46  1  0
  7 47  1  0
  7 48  1  0
  9 49  1  0
  9 50  1  0
 10 51  1  0
 10 52  1  0
 12 53  1  0
 12 54  1  0
 13 55  1  0
 13 56  1  0
 15 57  1  0
 15 58  1  0
 16 59  1  0
 16 60  1  0
 17 61  1  0
 20 62  1  0
 21 63  1  0
 22 64  1  0
 23 65  1  0
 26 66  1  0
 26 67  1  0
 26 68  1  0
 28 69  1  0
 30 70  1  0
 30 71  1  0
 30 72  1  0
 31 73  1  0
 33 74  1  0
 33 75  1  0
 33 76  1  0
M  CHG  1  25   1
M  END
>  <UniqueID>  (4) 
4

>  <SMILES>  (4) 
CCN(CC)CCOCCOCCOCCNc1c2ccccc2[n+](C)c2cc(C)cc(C)c12

>  <Energy>  (4) 
104.51128597119755

>  <Genealogy>  (4) 
CCN(CC)CCOCCOCCOCCNc1c2ccccc2[n+](C)c2cc(C)cc(C)c12 (3D coordinates assigned)
CCN(CC)CCOCCOCCOCCNc1c2ccccc2[n+](C)c2cc(C)cc(C)c12 (optimized conformer: 104.51128597119755 kcal/mol)

>  <smiles>  (4) 
CCN(CC)CCOCCOCCOCCNc1c2ccccc2[n+](C)c2cc(C)cc(C)c12

>  <score_type>  (4) 
oracle

>  <origin>  (4) 
adg

>  <m_score__min__energy>  (4) 
-9.3599999999999994

>  <m_primary>  (4) 
energy

$$$$
4:0
     RDKit          3D

 64 65  0  0  0  0  0  0  0  0999 V2000
   -8.6635   23.3576  -31.9713 H   0  0  0  0  0  0  0  0  0  0  0  0
   -7.9210   22.7630  -31.4190 C   0  0  0  0  0  0  0  0  0  0  0  0
   -8.1680   21.5180  -31.1520 N   0  0  0  0  0  0  0  0  0  0  0  0
   -8.8250   20.6270  -32.0990 C   0  0  0  0  0  0  0  0  0  0  0  0
   -8.5573   20.9251  -33.1235 H   0  0  0  0  0  0  0  0  0  0  0  0
   -9.9139   20.6959  -31.9590 H   0  0  0  0  0  0  0  0  0  0  0  0
   -8.3810   19.1750  -31.8610 C   0  0  0  0  0  0  0  0  0  0  0  0
   -9.2759   18.5353  -31.8629 H   0  0  0  0  0  0  0  0  0  0  0  0
   -7.8499   19.1593  -30.8978 H   0  0  0  0  0  0  0  0  0  0  0  0
   -7.4380   18.6580  -32.8770 N   0  0  0  0  0  0  0  0  0  0  0  0
   -6.9070   19.6500  -33.8360 C   0  0  0  0  0  0  0  0  0  0  0  0
   -7.6086   20.4958  -33.8834 H   0  0  0  0  0  0  0  0  0  0  0  0
   -6.8005   19.1348  -34.8020 H   0  0  0  0  0  0  0  0  0  0  0  0
   -5.5070   20.1980  -33.4620 C   0  0  0  0  0  0  0  0  0  0  0  0
   -5.6256   21.2170  -33.0650 H   0  0  0  0  0  0  0  0  0  0  0  0
   -4.8946   20.1775  -34.3755 H   0  0  0  0  0  0  0  0  0  0  0  0
   -4.8100   19.3790  -32.4500 N   0  0  0  0  0  0  0  0  0  0  0  0
   -3.3680   19.7120  -32.4260 C   0  0  0  0  0  0  0  0  0  0  0  0
   -2.8281   18.9033  -31.9117 H   0  0  0  0  0  0  0  0  0  0  0  0
   -3.2562   20.6721  -31.9009 H   0  0  0  0  0  0  0  0  0  0  0  0
   -2.7740   19.8810  -33.8430 C   0  0  0  0  0  0  0  0  0  0  0  0
   -3.5898   19.7872  -34.5749 H   0  0  0  0  0  0  0  0  0  0  0  0
   -2.0082   19.1009  -33.9656 H   0  0  0  0  0  0  0  0  0  0  0  0
   -2.1050   21.1790  -34.0550 N   0  0  0  0  0  0  0  0  0  0  0  0
   -1.5790   21.1740  -34.9600 H   0  0  0  0  0  0  0  0  0  0  0  0
   -2.8500   21.9120  -34.1250 H   0  0  0  0  0  0  0  0  0  0  0  0
   -1.2060   21.5280  -32.9410 C   0  0  0  0  0  0  0  0  0  0  0  0
   -1.6757   21.2311  -31.9917 H   0  0  0  0  0  0  0  0  0  0  0  0
   -1.0290   22.6136  -32.9571 H   0  0  0  0  0  0  0  0  0  0  0  0
    0.1420   20.8070  -33.0830 C   0  0  0  0  0  0  0  0  0  0  0  0
   -0.0409   19.7348  -33.2469 H   0  0  0  0  0  0  0  0  0  0  0  0
    0.7198   20.9673  -32.1608 H   0  0  0  0  0  0  0  0  0  0  0  0
    0.9480   21.3600  -34.2590 C   0  0  0  0  0  0  0  0  0  0  0  0
    1.2384   20.5341  -34.9249 H   0  0  0  0  0  0  0  0  0  0  0  0
    1.8511   21.8614  -33.8807 H   0  0  0  0  0  0  0  0  0  0  0  0
    0.1600   22.2880  -34.9760 O   0  0  0  0  0  0  0  0  0  0  0  0
    0.8900   22.8340  -36.0570 C   0  0  0  0  0  0  0  0  0  0  0  0
    0.5289   22.3918  -36.9972 H   0  0  0  0  0  0  0  0  0  0  0  0
    1.9570   22.6071  -35.9153 H   0  0  0  0  0  0  0  0  0  0  0  0
    0.7120   24.3490  -36.1140 C   0  0  0  0  0  0  0  0  0  0  0  0
    0.6647   24.7514  -35.0913 H   0  0  0  0  0  0  0  0  0  0  0  0
    1.5635   24.7985  -36.6459 H   0  0  0  0  0  0  0  0  0  0  0  0
   -0.2205   24.5889  -36.6459 H   0  0  0  0  0  0  0  0  0  0  0  0
   -5.0360   17.9520  -32.7190 C   0  0  0  0  0  0  0  0  0  0  0  0
   -4.3711   17.3454  -32.0866 H   0  0  0  0  0  0  0  0  0  0  0  0
   -4.8226   17.7292  -33.7749 H   0  0  0  0  0  0  0  0  0  0  0  0
   -6.4970   17.6220  -32.3980 C   0  0  0  0  0  0  0  0  0  0  0  0
   -6.6043   17.5272  -31.3074 H   0  0  0  0  0  0  0  0  0  0  0  0
   -6.7459   16.6840  -32.9160 H   0  0  0  0  0  0  0  0  0  0  0  0
   -6.6560   23.3920  -30.9910 C   0  0  0  0  0  0  0  0  0  0  0  0
   -5.4160   22.7600  -31.2060 C   0  0  0  0  0  0  0  0  0  0  0  0
   -5.3803   21.7801  -31.7044 H   0  0  0  0  0  0  0  0  0  0  0  0
   -4.2300   23.3720  -30.7890 C   0  0  0  0  0  0  0  0  0  0  0  0
   -3.2655   22.8732  -30.9652 H   0  0  0  0  0  0  0  0  0  0  0  0
   -4.2640   24.6230  -30.1450 C   0  0  0  0  0  0  0  0  0  0  0  0
   -3.1030   25.2750  -29.7070 O   0  0  0  0  0  0  0  0  0  0  0  0
   -2.2580   24.8010  -28.6620 C   0  0  0  0  0  0  0  0  0  0  0  0
   -2.7039   25.0511  -27.6880 H   0  0  0  0  0  0  0  0  0  0  0  0
   -2.1483   23.7097  -28.7457 H   0  0  0  0  0  0  0  0  0  0  0  0
   -1.2695   25.2763  -28.7457 H   0  0  0  0  0  0  0  0  0  0  0  0
   -5.4990   25.2500  -29.9320 C   0  0  0  0  0  0  0  0  0  0  0  0
   -5.5357   26.2260  -29.4260 H   0  0  0  0  0  0  0  0  0  0  0  0
   -6.6850   24.6440  -30.3580 C   0  0  0  0  0  0  0  0  0  0  0  0
   -7.6471   25.1521  -30.1958 H   0  0  0  0  0  0  0  0  0  0  0  0
  1  2  1  0
  2  3  2  0
  3  4  1  0
  4  5  1  0
  4  6  1  0
  4  7  1  0
  7  8  1  0
  7  9  1  0
  7 10  1  0
 10 11  1  0
 11 12  1  0
 11 13  1  0
 11 14  1  0
 14 15  1  0
 14 16  1  0
 14 17  1  0
 17 18  1  0
 18 19  1  0
 18 20  1  0
 18 21  1  0
 21 22  1  0
 21 23  1  0
 21 24  1  0
 24 25  1  0
 24 26  1  0
 24 27  1  0
 27 28  1  0
 27 29  1  0
 27 30  1  0
 30 31  1  0
 30 32  1  0
 30 33  1  0
 33 34  1  0
 33 35  1  0
 33 36  1  0
 36 37  1  0
 37 38  1  0
 37 39  1  0
 37 40  1  0
 40 41  1  0
 40 42  1  0
 40 43  1  0
 17 44  1  0
 44 45  1  0
 44 46  1  0
 44 47  1  0
 47 48  1  0
 47 49  1  0
  2 50  1  0
 50 51  2  0
 51 52  1  0
 51 53  1  0
 53 54  1  0
 53 55  2  0
 55 56  1  0
 56 57  1  0
 57 58  1  0
 57 59  1  0
 57 60  1  0
 55 61  1  0
 61 62  1  0
 61 63  2  0
 63 64  1  0
 47 10  1  0
 63 50  1  0
M  CHG  1  24   1
M  END
>  <UniqueID>  (5) 
5

>  <SMILES>  (5) 
CCOCCC[NH2+]CCN1CCN(CC/N=C/c2ccc(OC)cc2)CC1

>  <Energy>  (5) 
65.17173410927016

>  <Genealogy>  (5) 
CCOCCC[NH2+]CCN1CCN(CCN=Cc2ccc(OC)cc2)CC1 (protonated)
CCOCCC[NH2+]CCN1CCN(CC/N=C/c2ccc(OC)cc2)CC1 (cis-trans isomerization)
CCOCCC[NH2+]CCN1CCN(CC/N=C/c2ccc(OC)cc2)CC1 (3D coordinates assigned)
CCOCCC[NH2+]CCN1CCN(CC/N=C/c2ccc(OC)cc2)CC1 (nonaromatic ring conformer: 65.17173410927016 kcal/mol)

>  <smiles>  (5) 
CCOCCCNCCN1CCN(CCN=Cc2ccc(OC)cc2)CC1

>  <score_type>  (5) 
oracle

>  <origin>  (5) 
adg

>  <m_score__min__energy>  (5) 
-7.4500000000000002

>  <m_primary>  (5) 
energy

$$$$
5:0
     RDKit          3D

 70 73  0  0  0  0  0  0  0  0999 V2000
   -1.0530   18.4360  -34.2690 C   0  0  0  0  0  0  0  0  0  0  0  0
   -2.2700   19.1620  -33.7690 C   0  0  0  0  0  0  0  0  0  0  0  0
   -2.1580   20.4700  -33.3020 C   0  0  0  0  0  0  0  0  0  0  0  0
   -3.2790   21.1580  -32.8070 C   0  0  0  0  0  0  0  0  0  0  0  0
   -3.1210   22.3690  -32.0900 O   0  0  0  0  0  0  0  0  0  0  0  0
   -2.5580   22.4430  -30.7750 C   0  0  0  0  0  0  0  0  0  0  0  0
   -2.8380   21.1920  -29.9130 C   0  0  0  0  0  0  0  0  0  0  0  0
   -2.0330   21.0380  -28.6610 N   0  0  0  0  0  0  0  0  0  0  0  0
   -1.2570   22.2710  -28.3620 C   0  0  0  0  0  0  0  0  0  0  0  0
   -2.8810   20.6570  -27.4970 C   0  0  0  0  0  0  0  0  0  0  0  0
   -2.3210   19.3790  -26.8790 C   0  0  0  0  0  0  0  0  0  0  0  0
   -0.9590   19.2050  -27.4980 C   0  0  0  0  0  0  0  0  0  0  0  0
   -1.0840   19.9050  -28.8340 C   0  0  0  0  0  0  0  0  0  0  0  0
   -4.5710   20.5820  -32.9750 C   0  0  0  0  0  0  0  0  0  0  0  0
   -5.7440   21.3110  -32.7030 C   0  0  0  0  0  0  0  0  0  0  0  0
   -5.7120   22.7450  -32.6910 N   0  0  0  0  0  0  0  0  0  0  0  0
   -6.3950   23.4840  -31.6260 C   0  0  0  0  0  0  0  0  0  0  0  0
   -5.8600   23.0840  -30.2400 C   0  0  0  0  0  0  0  0  0  0  0  0
   -5.7020   24.2420  -29.3220 N   0  0  0  0  0  0  0  0  0  0  0  0
   -4.4320   24.1680  -28.5750 C   0  0  0  0  0  0  0  0  0  0  0  0
   -5.7520   25.5000  -30.0860 C   0  0  0  0  0  0  0  0  0  0  0  0
   -6.9700   20.6340  -32.5900 C   0  0  0  0  0  0  0  0  0  0  0  0
   -8.1360   21.2990  -32.1530 C   0  0  0  0  0  0  0  0  0  0  0  0
   -9.3340   20.6060  -31.9920 C   0  0  0  0  0  0  0  0  0  0  0  0
   -9.3880   19.2420  -32.2510 C   0  0  0  0  0  0  0  0  0  0  0  0
   -8.2570   18.5710  -32.7130 C   0  0  0  0  0  0  0  0  0  0  0  0
   -7.0370   19.2610  -32.9360 C   0  0  0  0  0  0  0  0  0  0  0  0
   -5.9400   18.6370  -33.4970 N   0  0  0  0  0  0  0  0  0  0  0  0
   -6.1040   17.3420  -34.1940 C   0  0  0  0  0  0  0  0  0  0  0  0
   -4.6940   19.2370  -33.4270 C   0  0  0  0  0  0  0  0  0  0  0  0
   -3.5180   18.5410  -33.7960 C   0  0  0  0  0  0  0  0  0  0  0  0
   -0.4597   18.0821  -33.4130 H   0  0  0  0  0  0  0  0  0  0  0  0
   -1.3644   17.5759  -34.8800 H   0  0  0  0  0  0  0  0  0  0  0  0
   -0.4441   19.1186  -34.8800 H   0  0  0  0  0  0  0  0  0  0  0  0
   -1.1788   20.9709  -33.3210 H   0  0  0  0  0  0  0  0  0  0  0  0
   -1.4688   22.5643  -30.8690 H   0  0  0  0  0  0  0  0  0  0  0  0
   -3.0309   23.2972  -30.2684 H   0  0  0  0  0  0  0  0  0  0  0  0
   -3.8992   21.2180  -29.6246 H   0  0  0  0  0  0  0  0  0  0  0  0
   -2.5512   20.3385  -30.5449 H   0  0  0  0  0  0  0  0  0  0  0  0
   -1.1767   22.3985  -27.2724 H   0  0  0  0  0  0  0  0  0  0  0  0
   -0.2500   22.1848  -28.7962 H   0  0  0  0  0  0  0  0  0  0  0  0
   -1.7703   23.1416  -28.7962 H   0  0  0  0  0  0  0  0  0  0  0  0
   -2.8690   21.4649  -26.7505 H   0  0  0  0  0  0  0  0  0  0  0  0
   -3.9168   20.4900  -27.8275 H   0  0  0  0  0  0  0  0  0  0  0  0
   -2.2380   19.4828  -25.7871 H   0  0  0  0  0  0  0  0  0  0  0  0
   -2.9717   18.5122  -27.0667 H   0  0  0  0  0  0  0  0  0  0  0  0
   -0.1825   19.6772  -26.8782 H   0  0  0  0  0  0  0  0  0  0  0  0
   -0.6645   18.1495  -27.5941 H   0  0  0  0  0  0  0  0  0  0  0  0
   -0.1016   20.2838  -29.1524 H   0  0  0  0  0  0  0  0  0  0  0  0
   -1.4500   19.2083  -29.6025 H   0  0  0  0  0  0  0  0  0  0  0  0
   -4.9900   23.2350  -33.2620 H   0  0  0  0  0  0  0  0  0  0  0  0
   -6.2327   24.5616  -31.7760 H   0  0  0  0  0  0  0  0  0  0  0  0
   -7.4676   23.2438  -31.6680 H   0  0  0  0  0  0  0  0  0  0  0  0
   -6.5627   22.3700  -29.7857 H   0  0  0  0  0  0  0  0  0  0  0  0
   -4.8633   22.6424  -30.3870 H   0  0  0  0  0  0  0  0  0  0  0  0
   -6.4850   24.2680  -28.6290 H   0  0  0  0  0  0  0  0  0  0  0  0
   -4.6406   24.1802  -27.4950 H   0  0  0  0  0  0  0  0  0  0  0  0
   -3.9065   23.2377  -28.8365 H   0  0  0  0  0  0  0  0  0  0  0  0
   -3.8020   25.0310  -28.8365 H   0  0  0  0  0  0  0  0  0  0  0  0
   -5.7858   26.3508  -29.3896 H   0  0  0  0  0  0  0  0  0  0  0  0
   -4.8563   25.5801  -30.7195 H   0  0  0  0  0  0  0  0  0  0  0  0
   -6.6512   25.5087  -30.7195 H   0  0  0  0  0  0  0  0  0  0  0  0
   -8.0984   22.3769  -31.9370 H   0  0  0  0  0  0  0  0  0  0  0  0
  -10.2372   21.1388  -31.6598 H   0  0  0  0  0  0  0  0  0  0  0  0
  -10.3260   18.6901  -32.0910 H   0  0  0  0  0  0  0  0  0  0  0  0
   -8.3109   17.4897  -32.9078 H   0  0  0  0  0  0  0  0  0  0  0  0
   -6.2060   16.5365  -33.4519 H   0  0  0  0  0  0  0  0  0  0  0  0
   -7.0050   17.3763  -34.8241 H   0  0  0  0  0  0  0  0  0  0  0  0
   -5.2229   17.1506  -34.8241 H   0  0  0  0  0  0  0  0  0  0  0  0
   -3.5902   17.4893  -34.1103 H   0  0  0  0  0  0  0  0  0  0  0  0
  1  2  1  0
  2  3  2  0
  3  4  1  0
  4  5  1  0
  5  6  1  0
  6  7  1  0
  7  8  1  0
  8  9  1  0
  8 10  1  0
 10 11  1  0
 11 12  1  0
 12 13  1  0
  4 14  2  0
 14 15  1  0
 15 16  1  0
 16 17  1  0
 17 18  1  0
 18 19  1  0
 19 20  1  0
 19 21  1  0
 15 22  2  0
 22 23  1  0
 23 24  2  0
 24 25  1  0
 25 26  2  0
 26 27  1  0
 27 28  2  0
 28 29  1  0
 28 30  1  0
 30 31  2  0
 31  2  1  0
 13  8  1  0
 30 14  1  0
 27 22  1  0
  1 32  1  0
  1 33  1  0
  1 34  1  0
  3 35  1  0
  6 36  1  0
  6 37  1  0
  7 38  1  0
  7 39  1  0
  9 40  1  0
  9 41  1  0
  9 42  1  0
 10 43  1  0
 10 44  1  0
 11 45  1  0
 11 46  1  0
 12 47  1  0
 12 48  1  0
 13 49  1  0
 13 50  1  0
 16 51  1  0
 17 52  1  0
 17 53  1  0
 18 54  1  0
 18 55  1  0
 19 56  1  0
 20 57  1  0
 20 58  1  0
 20 59  1  0
 21 60  1  0
 21 61  1  0
 21 62  1  0
 23 63  1  0
 24 64  1  0
 25 65  1  0
 26 66  1  0
 29 67  1  0
 29 68  1  0
 29 69  1  0
 31 70  1  0
M  CHG  3   8   1  19   1  28   1
M  END
>  <UniqueID>  (6) 
6

>  <SMILES>  (6) 
Cc1cc(OCC[N+]2(C)CCCC2)c2c(NCC[NH+](C)C)c3ccccc3[n+](C)c2c1

>  <Energy>  (6) 
113.79278883719788

>  <Genealogy>  (6) 
Cc1cc(OCC[N+]2(C)CCCC2)c2c(NCC[NH+](C)C)c3ccccc3[n+](C)c2c1 (protonated)
Cc1cc(OCC[N+]2(C)CCCC2)c2c(NCC[NH+](C)C)c3ccccc3[n+](C)c2c1 (3D coordinates assigned)
Cc1cc(OCC[N+]2(C)CCCC2)c2c(NCC[NH+](C)C)c3ccccc3[n+](C)c2c1 (nonaromatic ring conformer: 113.79278883719788 kcal/mol)

>  <smiles>  (6) 
Cc1cc(OCC[N+]2(C)CCCC2)c2c(NCCN(C)C)c3ccccc3[n+](C)c2c1

>  <score_type>  (6) 
oracle

>  <origin>  (6) 
adg

>  <m_score__min__energy>  (6) 
-7.5

>  <m_primary>  (6) 
energy

$$$$
6:0
     RDKit          3D

 42 44  0  0  0  0  0  0  0  0999 V2000
   -8.5170   23.0880  -31.9540 C   0  0  0  0  0  0  0  0  0  0  0  0
   -7.8460   21.7550  -32.0500 C   0  0  0  0  0  0  0  0  0  0  0  0
   -8.5140   20.5900  -31.9400 N   0  0  0  0  0  0  0  0  0  0  0  0
   -7.6290   19.6130  -32.0620 N   0  0  0  0  0  0  0  0  0  0  0  0
   -7.9580   18.2000  -31.9450 C   0  0  0  0  0  0  0  0  0  0  0  0
   -6.3930   20.1220  -32.2220 C   0  0  0  0  0  0  0  0  0  0  0  0
   -6.4880   21.4990  -32.2090 C   0  0  0  0  0  0  0  0  0  0  0  0
   -5.3470   22.4800  -32.3710 C   0  0  0  0  0  0  0  0  0  0  0  0
   -4.8010   22.9840  -31.0920 N   0  0  0  0  0  0  0  0  0  0  0  0
   -4.0540   21.9570  -30.3250 C   0  0  0  0  0  0  0  0  0  0  0  0
   -3.9200   22.2920  -28.8250 C   0  0  0  0  0  0  0  0  0  0  0  0
   -3.9860   23.7390  -28.5970 N   0  0  0  0  0  0  0  0  0  0  0  0
   -3.0820   24.3670  -27.6780 C   0  0  0  0  0  0  0  0  0  0  0  0
   -3.5860   24.9530  -26.5070 C   0  0  0  0  0  0  0  0  0  0  0  0
   -2.7240   25.5790  -25.6020 C   0  0  0  0  0  0  0  0  0  0  0  0
   -1.3520   25.6200  -25.8590 C   0  0  0  0  0  0  0  0  0  0  0  0
   -0.8380   25.0330  -27.0180 C   0  0  0  0  0  0  0  0  0  0  0  0
   -1.6950   24.4050  -27.9300 C   0  0  0  0  0  0  0  0  0  0  0  0
   -1.0030   23.6380  -29.3520 Cl  0  0  0  0  0  0  0  0  0  0  0  0
   -5.0390   24.5400  -29.2260 C   0  0  0  0  0  0  0  0  0  0  0  0
   -5.7830   23.7250  -30.2840 C   0  0  0  0  0  0  0  0  0  0  0  0
   -8.6516   23.3554  -30.8955 H   0  0  0  0  0  0  0  0  0  0  0  0
   -7.8943   23.8484  -32.4479 H   0  0  0  0  0  0  0  0  0  0  0  0
   -9.4987   23.0407  -32.4479 H   0  0  0  0  0  0  0  0  0  0  0  0
   -8.0220   17.9252  -30.8818 H   0  0  0  0  0  0  0  0  0  0  0  0
   -8.9251   18.0071  -32.4324 H   0  0  0  0  0  0  0  0  0  0  0  0
   -7.1756   17.5998  -32.4324 H   0  0  0  0  0  0  0  0  0  0  0  0
   -5.4669   19.5407  -32.3424 H   0  0  0  0  0  0  0  0  0  0  0  0
   -4.5358   21.9795  -32.9202 H   0  0  0  0  0  0  0  0  0  0  0  0
   -5.7495   23.3502  -32.9103 H   0  0  0  0  0  0  0  0  0  0  0  0
   -4.5814   20.9966  -30.4223 H   0  0  0  0  0  0  0  0  0  0  0  0
   -3.0367   21.9158  -30.7414 H   0  0  0  0  0  0  0  0  0  0  0  0
   -4.7376   21.8043  -28.2740 H   0  0  0  0  0  0  0  0  0  0  0  0
   -2.9436   21.9280  -28.4726 H   0  0  0  0  0  0  0  0  0  0  0  0
   -4.6658   24.9196  -26.2999 H   0  0  0  0  0  0  0  0  0  0  0  0
   -3.1263   26.0393  -24.6875 H   0  0  0  0  0  0  0  0  0  0  0  0
   -0.6747   26.1153  -25.1477 H   0  0  0  0  0  0  0  0  0  0  0  0
    0.2438   25.0643  -27.2147 H   0  0  0  0  0  0  0  0  0  0  0  0
   -5.7524   24.8668  -28.4551 H   0  0  0  0  0  0  0  0  0  0  0  0
   -4.5758   25.4107  -29.7133 H   0  0  0  0  0  0  0  0  0  0  0  0
   -6.4660   23.0169  -29.7919 H   0  0  0  0  0  0  0  0  0  0  0  0
   -6.3664   24.3972  -30.9303 H   0  0  0  0  0  0  0  0  0  0  0  0
  1  2  1  0
  2  3  2  0
  3  4  1  0
  4  5  1  0
  4  6  1  0
  6  7  2  0
  7  8  1  0
  8  9  1  0
  9 10  1  0
 10 11  1  0
 11 12  1  0
 12 13  1  0
 13 14  2  0
 14 15  1  0
 15 16  2  0
 16 17  1  0
 17 18  2  0
 18 19  1  0
 12 20  1  0
 20 21  1  0
  7  2  1  0
 21  9  1  0
 18 13  1  0
  1 22  1  0
  1 23  1  0
  1 24  1  0
  5 25  1  0
  5 26  1  0
  5 27  1  0
  6 28  1  0
  8 29  1  0
  8 30  1  0
 10 31  1  0
 10 32  1  0
 11 33  1  0
 11 34  1  0
 14 35  1  0
 15 36  1  0
 16 37  1  0
 17 38  1  0
 20 39  1  0
 20 40  1  0
 21 41  1  0
 21 42  1  0
M  END
>  <UniqueID>  (7) 
7

>  <SMILES>  (7) 
Cc1nn(C)cc1CN1CCN(c2ccccc2Cl)CC1

>  <Energy>  (7) 
84.30505857918587

>  <Genealogy>  (7) 
Cc1nn(C)cc1CN1CCN(c2ccccc2Cl)CC1 (3D coordinates assigned)
Cc1nn(C)cc1CN1CCN(c2ccccc2Cl)CC1 (nonaromatic ring conformer: 84.30505857918587 kcal/mol)

>  <smiles>  (7) 
Cc1nn(C)cc1CN1CCN(c2ccccc2Cl)CC1

>  <score_type>  (7) 
oracle

>  <origin>  (7) 
adg

>  <m_score__min__energy>  (7) 
-7.2400000000000002

>  <m_primary>  (7) 
energy

$$$$
7:0
     RDKit          3D

 64 66  0  0  0  0  0  0  0  0999 V2000
   -6.6760   25.2740  -29.7410 C   0  0  0  0  0  0  0  0  0  0  0  0
   -5.4000   25.5590  -30.5240 C   0  0  0  0  0  0  0  0  0  0  0  0
   -4.2590   24.8870  -29.8920 N   0  0  0  0  0  0  0  0  0  0  0  0
   -4.6650   23.5800  -29.3630 C   0  0  0  0  0  0  0  0  0  0  0  0
   -3.5180   22.5740  -29.5200 C   0  0  0  0  0  0  0  0  0  0  0  0
   -3.6540   21.7090  -30.7840 C   0  0  0  0  0  0  0  0  0  0  0  0
   -4.1890   22.4990  -31.9830 C   0  0  0  0  0  0  0  0  0  0  0  0
   -4.6020   21.5880  -33.0490 N   0  0  0  0  0  0  0  0  0  0  0  0
   -5.7730   20.7680  -32.9090 C   0  0  0  0  0  0  0  0  0  0  0  0
   -6.9810   21.3550  -32.4910 C   0  0  0  0  0  0  0  0  0  0  0  0
   -7.1030   22.7570  -32.3670 C   0  0  0  0  0  0  0  0  0  0  0  0
   -8.3120   23.3370  -31.9940 C   0  0  0  0  0  0  0  0  0  0  0  0
   -9.4220   22.5360  -31.7500 C   0  0  0  0  0  0  0  0  0  0  0  0
   -9.3190   21.1490  -31.8470 C   0  0  0  0  0  0  0  0  0  0  0  0
   -8.0900   20.5270  -32.1830 C   0  0  0  0  0  0  0  0  0  0  0  0
   -7.9550   19.1540  -32.2110 N   0  0  0  0  0  0  0  0  0  0  0  0
   -8.9810   18.2990  -31.5720 C   0  0  0  0  0  0  0  0  0  0  0  0
   -6.8520   18.5790  -32.8180 C   0  0  0  0  0  0  0  0  0  0  0  0
   -6.8180   17.1950  -33.1120 C   0  0  0  0  0  0  0  0  0  0  0  0
   -5.7010   16.6090  -33.6900 C   0  0  0  0  0  0  0  0  0  0  0  0
   -4.6010   17.3820  -34.0310 C   0  0  0  0  0  0  0  0  0  0  0  0
   -4.6050   18.7700  -33.8120 C   0  0  0  0  0  0  0  0  0  0  0  0
   -3.5300   19.5650  -34.2530 O   0  0  0  0  0  0  0  0  0  0  0  0
   -2.2030   19.5630  -33.7270 C   0  0  0  0  0  0  0  0  0  0  0  0
   -1.2860   20.4550  -34.5870 C   0  0  0  0  0  0  0  0  0  0  0  0
   -0.4090   21.3590  -33.8100 N   0  0  0  0  0  0  0  0  0  0  0  0
    0.9980   21.3040  -34.2380 C   0  0  0  0  0  0  0  0  0  0  0  0
   -0.5330   21.1650  -32.3570 C   0  0  0  0  0  0  0  0  0  0  0  0
   -5.7280   19.3790  -33.1770 C   0  0  0  0  0  0  0  0  0  0  0  0
   -6.4630   25.3216  -28.6629 H   0  0  0  0  0  0  0  0  0  0  0  0
   -7.4388   26.0239  -29.9975 H   0  0  0  0  0  0  0  0  0  0  0  0
   -7.0472   24.2708  -29.9975 H   0  0  0  0  0  0  0  0  0  0  0  0
   -5.5150   25.1895  -31.5537 H   0  0  0  0  0  0  0  0  0  0  0  0
   -5.2184   26.6439  -30.5333 H   0  0  0  0  0  0  0  0  0  0  0  0
   -3.9490   25.4780  -29.0830 H   0  0  0  0  0  0  0  0  0  0  0  0
   -4.9185   23.6806  -28.2974 H   0  0  0  0  0  0  0  0  0  0  0  0
   -5.5416   23.2198  -29.9214 H   0  0  0  0  0  0  0  0  0  0  0  0
   -2.5692   23.1281  -29.5735 H   0  0  0  0  0  0  0  0  0  0  0  0
   -3.5476   21.8993  -28.6518 H   0  0  0  0  0  0  0  0  0  0  0  0
   -2.6644   21.3040  -31.0420 H   0  0  0  0  0  0  0  0  0  0  0  0
   -4.3750   20.9079  -30.5639 H   0  0  0  0  0  0  0  0  0  0  0  0
   -5.0534   23.1002  -31.6646 H   0  0  0  0  0  0  0  0  0  0  0  0
   -3.3921   23.1553  -32.3627 H   0  0  0  0  0  0  0  0  0  0  0  0
   -4.1450   21.6700  -33.9850 H   0  0  0  0  0  0  0  0  0  0  0  0
   -6.2319   23.3980  -32.5677 H   0  0  0  0  0  0  0  0  0  0  0  0
   -8.3894   24.4295  -31.8922 H   0  0  0  0  0  0  0  0  0  0  0  0
  -10.3833   22.9975  -31.4799 H   0  0  0  0  0  0  0  0  0  0  0  0
  -10.2064   20.5266  -31.6596 H   0  0  0  0  0  0  0  0  0  0  0  0
   -8.8912   18.3738  -30.4782 H   0  0  0  0  0  0  0  0  0  0  0  0
   -9.9820   18.6340  -31.8815 H   0  0  0  0  0  0  0  0  0  0  0  0
   -8.8320   17.2540  -31.8815 H   0  0  0  0  0  0  0  0  0  0  0  0
   -7.6938   16.5720  -32.8778 H   0  0  0  0  0  0  0  0  0  0  0  0
   -5.6878   15.5254  -33.8788 H   0  0  0  0  0  0  0  0  0  0  0  0
   -3.7167   16.9037  -34.4773 H   0  0  0  0  0  0  0  0  0  0  0  0
   -2.2204   19.9472  -32.6964 H   0  0  0  0  0  0  0  0  0  0  0  0
   -1.8148   18.5339  -33.7386 H   0  0  0  0  0  0  0  0  0  0  0  0
   -0.6489   19.8020  -35.2016 H   0  0  0  0  0  0  0  0  0  0  0  0
   -1.9466   21.0979  -35.1873 H   0  0  0  0  0  0  0  0  0  0  0  0
    1.6499   21.2785  -33.3524 H   0  0  0  0  0  0  0  0  0  0  0  0
    1.1628   20.3987  -34.8408 H   0  0  0  0  0  0  0  0  0  0  0  0
    1.2329   22.1936  -34.8408 H   0  0  0  0  0  0  0  0  0  0  0  0
   -0.0122   21.9797  -31.8325 H   0  0  0  0  0  0  0  0  0  0  0  0
   -1.5965   21.1688  -32.0760 H   0  0  0  0  0  0  0  0  0  0  0  0
   -0.0830   20.2014  -32.0760 H   0  0  0  0  0  0  0  0  0  0  0  0
  1  2  1  0
  2  3  1  0
  3  4  1  0
  4  5  1  0
  5  6  1  0
  6  7  1  0
  7  8  1  0
  8  9  1  0
  9 10  2  0
 10 11  1  0
 11 12  2  0
 12 13  1  0
 13 14  2  0
 14 15  1  0
 15 16  2  0
 16 17  1  0
 16 18  1  0
 18 19  2  0
 19 20  1  0
 20 21  2  0
 21 22  1  0
 22 23  1  0
 23 24  1  0
 24 25  1  0
 25 26  1  0
 26 27  1  0
 26 28  1  0
 22 29  2  0
 29  9  1  0
 15 10  1  0
 29 18  1  0
  1 30  1  0
  1 31  1  0
  1 32  1  0
  2 33  1  0
  2 34  1  0
  3 35  1  0
  4 36  1  0
  4 37  1  0
  5 38  1  0
  5 39  1  0
  6 40  1  0
  6 41  1  0
  7 42  1  0
  7 43  1  0
  8 44  1  0
 11 45  1  0
 12 46  1  0
 13 47  1  0
 14 48  1  0
 17 49  1  0
 17 50  1  0
 17 51  1  0
 19 52  1  0
 20 53  1  0
 21 54  1  0
 24 55  1  0
 24 56  1  0
 25 57  1  0
 25 58  1  0
 27 59  1  0
 27 60  1  0
 27 61  1  0
 28 62  1  0
 28 63  1  0
 28 64  1  0
M  CHG  1  16   1
M  END
>  <UniqueID>  (8) 
8

>  <SMILES>  (8) 
CCNCCCCNc1c2ccccc2[n+](C)c2cccc(OCCN(C)C)c12

>  <Energy>  (8) 
85.23309983911005

>  <Genealogy>  (8) 
CCNCCCCNc1c2ccccc2[n+](C)c2cccc(OCCN(C)C)c12 (3D coordinates assigned)
CCNCCCCNc1c2ccccc2[n+](C)c2cccc(OCCN(C)C)c12 (optimized conformer: 85.23309983911005 kcal/mol)

>  <smiles>  (8) 
CCNCCCCNc1c2ccccc2[n+](C)c2cccc(OCCN(C)C)c12

>  <score_type>  (8) 
oracle

>  <origin>  (8) 
adg

>  <m_score__min__energy>  (8) 
-8.8800000000000008

>  <m_primary>  (8) 
energy

$$$$
8:0
     RDKit          3D

 63 65  0  0  0  0  0  0  0  0999 V2000
   -2.7870   20.8830  -28.0090 C   0  0  0  0  0  0  0  0  0  0  0  0
   -2.7260   21.3500  -29.4730 C   0  0  0  0  0  0  0  0  0  0  0  0
   -1.6150   22.2840  -29.7890 N   0  0  0  0  0  0  0  0  0  0  0  0
   -0.5470   21.7830  -30.6840 C   0  0  0  0  0  0  0  0  0  0  0  0
   -0.3210   20.2870  -30.4790 C   0  0  0  0  0  0  0  0  0  0  0  0
   -1.1280   23.0960  -28.6490 C   0  0  0  0  0  0  0  0  0  0  0  0
   -0.8990   24.5760  -28.9890 C   0  0  0  0  0  0  0  0  0  0  0  0
   -2.1450   25.2340  -29.0930 O   0  0  0  0  0  0  0  0  0  0  0  0
   -3.1230   24.5480  -28.3400 C   0  0  0  0  0  0  0  0  0  0  0  0
   -4.4030   24.4580  -29.1780 C   0  0  0  0  0  0  0  0  0  0  0  0
   -4.2490   24.9260  -30.5090 O   0  0  0  0  0  0  0  0  0  0  0  0
   -5.4780   25.0850  -31.2050 C   0  0  0  0  0  0  0  0  0  0  0  0
   -5.9260   23.8370  -31.9810 C   0  0  0  0  0  0  0  0  0  0  0  0
   -5.0440   22.7100  -31.6820 N   0  0  0  0  0  0  0  0  0  0  0  0
   -5.2530   21.4170  -32.2770 C   0  0  0  0  0  0  0  0  0  0  0  0
   -6.4980   20.7730  -32.1530 C   0  0  0  0  0  0  0  0  0  0  0  0
   -7.5430   21.3530  -31.4020 C   0  0  0  0  0  0  0  0  0  0  0  0
   -8.7640   20.7000  -31.2620 C   0  0  0  0  0  0  0  0  0  0  0  0
   -8.9630   19.4590  -31.8550 C   0  0  0  0  0  0  0  0  0  0  0  0
   -7.9490   18.8730  -32.6140 C   0  0  0  0  0  0  0  0  0  0  0  0
   -6.7090   19.5300  -32.8110 C   0  0  0  0  0  0  0  0  0  0  0  0
   -5.7190   18.9940  -33.6140 N   0  0  0  0  0  0  0  0  0  0  0  0
   -6.0300   17.8780  -34.5330 C   0  0  0  0  0  0  0  0  0  0  0  0
   -4.4430   19.5220  -33.5860 C   0  0  0  0  0  0  0  0  0  0  0  0
   -3.3830   18.8590  -34.1590 N   0  0  0  0  0  0  0  0  0  0  0  0
   -2.1250   19.3790  -34.1750 C   0  0  0  0  0  0  0  0  0  0  0  0
   -1.8650   20.6060  -33.5790 C   0  0  0  0  0  0  0  0  0  0  0  0
   -2.8970   21.2910  -32.9510 C   0  0  0  0  0  0  0  0  0  0  0  0
   -4.2020   20.7620  -32.9430 C   0  0  0  0  0  0  0  0  0  0  0  0
   -2.6737   21.7506  -27.3424 H   0  0  0  0  0  0  0  0  0  0  0  0
   -3.7561   20.3985  -27.8188 H   0  0  0  0  0  0  0  0  0  0  0  0
   -1.9749   20.1659  -27.8188 H   0  0  0  0  0  0  0  0  0  0  0  0
   -2.6155   20.4604  -30.1105 H   0  0  0  0  0  0  0  0  0  0  0  0
   -3.6568   21.9066  -29.6568 H   0  0  0  0  0  0  0  0  0  0  0  0
   -0.8391   21.9631  -31.7291 H   0  0  0  0  0  0  0  0  0  0  0  0
    0.3867   22.3148  -30.4487 H   0  0  0  0  0  0  0  0  0  0  0  0
   -0.2875   20.0654  -29.4021 H   0  0  0  0  0  0  0  0  0  0  0  0
   -1.1444   19.7247  -30.9436 H   0  0  0  0  0  0  0  0  0  0  0  0
    0.6317   19.9930  -30.9436 H   0  0  0  0  0  0  0  0  0  0  0  0
   -1.8715   23.0379  -27.8404 H   0  0  0  0  0  0  0  0  0  0  0  0
   -0.1516   22.6817  -28.3573 H   0  0  0  0  0  0  0  0  0  0  0  0
   -0.3012   25.0464  -28.1944 H   0  0  0  0  0  0  0  0  0  0  0  0
   -0.3626   24.6534  -29.9463 H   0  0  0  0  0  0  0  0  0  0  0  0
   -2.7645   23.5363  -28.0993 H   0  0  0  0  0  0  0  0  0  0  0  0
   -3.3228   25.0851  -27.4011 H   0  0  0  0  0  0  0  0  0  0  0  0
   -4.7204   23.4054  -29.2148 H   0  0  0  0  0  0  0  0  0  0  0  0
   -5.1493   25.1055  -28.6945 H   0  0  0  0  0  0  0  0  0  0  0  0
   -6.2597   25.3354  -30.4727 H   0  0  0  0  0  0  0  0  0  0  0  0
   -5.3209   25.8808  -31.9480 H   0  0  0  0  0  0  0  0  0  0  0  0
   -6.9552   23.5793  -31.6908 H   0  0  0  0  0  0  0  0  0  0  0  0
   -5.8808   24.0506  -33.0591 H   0  0  0  0  0  0  0  0  0  0  0  0
   -4.3240   22.8170  -30.9320 H   0  0  0  0  0  0  0  0  0  0  0  0
   -7.3907   22.3312  -30.9225 H   0  0  0  0  0  0  0  0  0  0  0  0
   -9.5729   21.1669  -30.6810 H   0  0  0  0  0  0  0  0  0  0  0  0
   -9.9226   18.9370  -31.7257 H   0  0  0  0  0  0  0  0  0  0  0  0
   -8.1151   17.8844  -33.0670 H   0  0  0  0  0  0  0  0  0  0  0  0
   -6.2801   16.9804  -33.9484 H   0  0  0  0  0  0  0  0  0  0  0  0
   -6.8858   18.1528  -35.1671 H   0  0  0  0  0  0  0  0  0  0  0  0
   -5.1554   17.6706  -35.1671 H   0  0  0  0  0  0  0  0  0  0  0  0
   -3.4850   17.9030  -34.5640 H   0  0  0  0  0  0  0  0  0  0  0  0
   -1.3100   18.8242  -34.6627 H   0  0  0  0  0  0  0  0  0  0  0  0
   -0.8509   21.0315  -33.6041 H   0  0  0  0  0  0  0  0  0  0  0  0
   -2.6938   22.2525  -32.4569 H   0  0  0  0  0  0  0  0  0  0  0  0
  1  2  1  0
  2  3  1  0
  3  4  1  0
  4  5  1  0
  3  6  1  0
  6  7  1  0
  7  8  1  0
  8  9  1  0
  9 10  1  0
 10 11  1  0
 11 12  1  0
 12 13  1  0
 13 14  1  0
 14 15  1  0
 15 16  2  0
 16 17  1  0
 17 18  2  0
 18 19  1  0
 19 20  2  0
 20 21  1  0
 21 22  2  0
 22 23  1  0
 22 24  1  0
 24 25  2  0
 25 26  1  0
 26 27  2  0
 27 28  1  0
 28 29  2  0
 29 15  1  0
 21 16  1  0
 29 24  1  0
  1 30  1  0
  1 31  1  0
  1 32  1  0
  2 33  1  0
  2 34  1  0
  4 35  1  0
  4 36  1  0
  5 37  1  0
  5 38  1  0
  5 39  1  0
  6 40  1  0
  6 41  1  0
  7 42  1  0
  7 43  1  0
  9 44  1  0
  9 45  1  0
 10 46  1  0
 10 47  1  0
 12 48  1  0
 12 49  1  0
 13 50  1  0
 13 51  1  0
 14 52  1  0
 17 53  1  0
 18 54  1  0
 19 55  1  0
 20 56  1  0
 23 57  1  0
 23 58  1  0
 23 59  1  0
 25 60  1  0
 26 61  1  0
 27 62  1  0
 28 63  1  0
M  CHG  2  22   1  25   1
M  END
>  <UniqueID>  (9) 
9

>  <SMILES>  (9) 
CCN(CC)CCOCCOCCNc1c2ccccc2[n+](C)c2[nH+]cccc12

>  <Energy>  (9) 
99.02189116228762

>  <Genealogy>  (9) 
CCN(CC)CCOCCOCCNc1c2ccccc2[n+](C)c2[nH+]cccc12 (protonated)
CCN(CC)CCOCCOCCNc1c2ccccc2[n+](C)c2[nH+]cccc12 (3D coordinates assigned)
CCN(CC)CCOCCOCCNc1c2ccccc2[n+](C)c2[nH+]cccc12 (optimized conformer: 99.02189116228762 kcal/mol)

>  <smiles>  (9) 
CCN(CC)CCOCCOCCNc1c2ccccc2[n+](C)c2ncccc12

>  <score_type>  (9) 
oracle

>  <origin>  (9) 
adg

>  <m_score__min__energy>  (9) 
-8.8800000000000008

>  <m_primary>  (9) 
energy

$$$$
9:0
     RDKit          3D

 77 80  0  0  0  0  0  0  0  0999 V2000
   -0.8480   19.3950  -28.6650 C   0  0  0  0  0  0  0  0  0  0  0  0
   -0.0780   19.6250  -29.9620 C   0  0  0  0  0  0  0  0  0  0  0  0
   -1.0150   19.8660  -31.0820 N   0  0  0  0  0  0  0  0  0  0  0  0
   -1.1120   18.6770  -31.9610 C   0  0  0  0  0  0  0  0  0  0  0  0
    0.1760   17.8600  -31.8910 C   0  0  0  0  0  0  0  0  0  0  0  0
   -0.6200   21.0670  -31.8570 C   0  0  0  0  0  0  0  0  0  0  0  0
   -1.3030   21.1050  -33.2360 C   0  0  0  0  0  0  0  0  0  0  0  0
   -2.7450   21.6830  -33.1550 C   0  0  0  0  0  0  0  0  0  0  0  0
   -3.5920   21.2280  -32.0180 N   0  0  0  0  0  0  0  0  0  0  0  0
   -4.9090   20.7050  -32.3530 C   0  0  0  0  0  0  0  0  0  0  0  0
   -5.0110   19.4480  -33.0140 C   0  0  0  0  0  0  0  0  0  0  0  0
   -3.8760   18.8050  -33.5680 C   0  0  0  0  0  0  0  0  0  0  0  0
   -3.9950   17.6070  -34.2660 C   0  0  0  0  0  0  0  0  0  0  0  0
   -5.2420   17.0260  -34.4420 C   0  0  0  0  0  0  0  0  0  0  0  0
   -6.3720   17.6250  -33.8930 C   0  0  0  0  0  0  0  0  0  0  0  0
   -6.2770   18.8240  -33.1420 C   0  0  0  0  0  0  0  0  0  0  0  0
   -7.3830   19.3820  -32.5440 N   0  0  0  0  0  0  0  0  0  0  0  0
   -8.5980   18.5600  -32.3360 C   0  0  0  0  0  0  0  0  0  0  0  0
   -7.3530   20.6950  -32.1200 C   0  0  0  0  0  0  0  0  0  0  0  0
   -8.5550   21.3640  -31.7880 C   0  0  0  0  0  0  0  0  0  0  0  0
   -8.5490   22.6560  -31.2940 C   0  0  0  0  0  0  0  0  0  0  0  0
   -7.3570   23.3410  -31.1600 C   0  0  0  0  0  0  0  0  0  0  0  0
   -6.1390   22.7610  -31.5450 C   0  0  0  0  0  0  0  0  0  0  0  0
   -4.9830   23.5590  -31.4960 O   0  0  0  0  0  0  0  0  0  0  0  0
   -4.9250   24.8320  -30.8410 C   0  0  0  0  0  0  0  0  0  0  0  0
   -5.1790   24.7700  -29.3100 C   0  0  0  0  0  0  0  0  0  0  0  0
   -4.1910   23.9930  -28.4920 N   0  0  0  0  0  0  0  0  0  0  0  0
   -4.2280   24.4560  -27.0800 C   0  0  0  0  0  0  0  0  0  0  0  0
   -4.4930   22.5280  -28.5570 C   0  0  0  0  0  0  0  0  0  0  0  0
   -3.2160   21.6660  -28.5110 C   0  0  0  0  0  0  0  0  0  0  0  0
   -2.3360   21.9060  -29.5990 O   0  0  0  0  0  0  0  0  0  0  0  0
   -2.3980   23.2350  -30.0970 C   0  0  0  0  0  0  0  0  0  0  0  0
   -2.8160   24.2680  -29.0320 C   0  0  0  0  0  0  0  0  0  0  0  0
   -6.1120   21.4040  -32.0140 C   0  0  0  0  0  0  0  0  0  0  0  0
   -0.1883   19.5920  -27.8071 H   0  0  0  0  0  0  0  0  0  0  0  0
   -1.7125   20.0741  -28.6264 H   0  0  0  0  0  0  0  0  0  0  0  0
   -1.1983   18.3530  -28.6264 H   0  0  0  0  0  0  0  0  0  0  0  0
    0.5783   20.4998  -29.8437 H   0  0  0  0  0  0  0  0  0  0  0  0
    0.5218   18.7302  -30.1846 H   0  0  0  0  0  0  0  0  0  0  0  0
   -1.9563   18.0521  -31.6344 H   0  0  0  0  0  0  0  0  0  0  0  0
   -1.2687   19.0101  -32.9976 H   0  0  0  0  0  0  0  0  0  0  0  0
    0.4452   17.6893  -30.8382 H   0  0  0  0  0  0  0  0  0  0  0  0
    0.0243   16.8926  -32.3922 H   0  0  0  0  0  0  0  0  0  0  0  0
    0.9865   18.4095  -32.3922 H   0  0  0  0  0  0  0  0  0  0  0  0
   -0.9072   21.9661  -31.2921 H   0  0  0  0  0  0  0  0  0  0  0  0
    0.4681   21.0310  -32.0142 H   0  0  0  0  0  0  0  0  0  0  0  0
   -0.7052   21.7346  -33.9114 H   0  0  0  0  0  0  0  0  0  0  0  0
   -1.3706   20.0730  -33.6108 H   0  0  0  0  0  0  0  0  0  0  0  0
   -2.6606   22.7778  -33.0888 H   0  0  0  0  0  0  0  0  0  0  0  0
   -3.2532   21.3112  -34.0569 H   0  0  0  0  0  0  0  0  0  0  0  0
   -3.0720   20.4850  -31.4960 H   0  0  0  0  0  0  0  0  0  0  0  0
   -3.6510   21.9570  -31.2780 H   0  0  0  0  0  0  0  0  0  0  0  0
   -2.8828   19.2613  -33.4440 H   0  0  0  0  0  0  0  0  0  0  0  0
   -3.0990   17.1203  -34.6786 H   0  0  0  0  0  0  0  0  0  0  0  0
   -5.3379   16.0921  -35.0153 H   0  0  0  0  0  0  0  0  0  0  0  0
   -7.3571   17.1596  -34.0445 H   0  0  0  0  0  0  0  0  0  0  0  0
   -8.7781   18.4382  -31.2577 H   0  0  0  0  0  0  0  0  0  0  0  0
   -9.4623   19.0597  -32.7979 H   0  0  0  0  0  0  0  0  0  0  0  0
   -8.4557   17.5719  -32.7979 H   0  0  0  0  0  0  0  0  0  0  0  0
   -9.5151   20.8452  -31.9258 H   0  0  0  0  0  0  0  0  0  0  0  0
   -9.4950   23.1387  -31.0074 H   0  0  0  0  0  0  0  0  0  0  0  0
   -7.3629   24.3593  -30.7440 H   0  0  0  0  0  0  0  0  0  0  0  0
   -3.9261   25.2613  -31.0083 H   0  0  0  0  0  0  0  0  0  0  0  0
   -5.7293   25.4468  -31.2712 H   0  0  0  0  0  0  0  0  0  0  0  0
   -5.1853   25.8028  -28.9315 H   0  0  0  0  0  0  0  0  0  0  0  0
   -6.1320   24.2323  -29.1977 H   0  0  0  0  0  0  0  0  0  0  0  0
   -4.1586   23.5882  -26.4076 H   0  0  0  0  0  0  0  0  0  0  0  0
   -3.3811   25.1328  -26.8937 H   0  0  0  0  0  0  0  0  0  0  0  0
   -5.1717   24.9897  -26.8937 H   0  0  0  0  0  0  0  0  0  0  0  0
   -5.1319   22.2601  -27.7026 H   0  0  0  0  0  0  0  0  0  0  0  0
   -4.9988   22.3303  -29.5136 H   0  0  0  0  0  0  0  0  0  0  0  0
   -2.6812   21.8842  -27.5749 H   0  0  0  0  0  0  0  0  0  0  0  0
   -3.5311   20.6139  -28.5733 H   0  0  0  0  0  0  0  0  0  0  0  0
   -1.4042   23.5109  -30.4795 H   0  0  0  0  0  0  0  0  0  0  0  0
   -3.1655   23.2515  -30.8848 H   0  0  0  0  0  0  0  0  0  0  0  0
   -2.0949   24.2343  -28.2020 H   0  0  0  0  0  0  0  0  0  0  0  0
   -2.8290   25.2601  -29.5069 H   0  0  0  0  0  0  0  0  0  0  0  0
  1  2  1  0
  2  3  1  0
  3  4  1  0
  4  5  1  0
  3  6  1  0
  6  7  1  0
  7  8  1  0
  8  9  1  0
  9 10  1  0
 10 11  2  0
 11 12  1  0
 12 13  2  0
 13 14  1  0
 14 15  2  0
 15 16  1  0
 16 17  2  0
 17 18  1  0
 17 19  1  0
 19 20  2  0
 20 21  1  0
 21 22  2  0
 22 23  1  0
 23 24  1  0
 24 25  1  0
 25 26  1  0
 26 27  1  0
 27 28  1  0
 27 29  1  0
 29 30  1  0
 30 31  1  0
 31 32  1  0
 32 33  1  0
 23 34  2  0
 34 10  1  0
 16 11  1  0
 34 19  1  0
 33 27  1  0
  1 35  1  0
  1 36  1  0
  1 37  1  0
  2 38  1  0
  2 39  1  0
  4 40  1  0
  4 41  1  0
  5 42  1  0
  5 43  1  0
  5 44  1  0
  6 45  1  0
  6 46  1  0
  7 47  1  0
  7 48  1  0
  8 49  1  0
  8 50  1  0
  9 51  1  0
  9 52  1  0
 12 53  1  0
 13 54  1  0
 14 55  1  0
 15 56  1  0
 18 57  1  0
 18 58  1  0
 18 59  1  0
 20 60  1  0
 21 61  1  0
 22 62  1  0
 25 63  1  0
 25 64  1  0
 26 65  1  0
 26 66  1  0
 28 67  1  0
 28 68  1  0
 28 69  1  0
 29 70  1  0
 29 71  1  0
 30 72  1  0
 30 73  1  0
 32 74  1  0
 32 75  1  0
 33 76  1  0
 33 77  1  0
M  CHG  3   9   1  17   1  27   1
M  END
>  <UniqueID>  (10) 
10

>  <SMILES>  (10) 
CCN(CC)CCC[NH2+]c1c2ccccc2[n+](C)c2cccc(OCC[N+]3(C)CCOCC3)c12

>  <Energy>  (10) 
141.85589855295083

>  <Genealogy>  (10) 
CCN(CC)CCC[NH2+]c1c2ccccc2[n+](C)c2cccc(OCC[N+]3(C)CCOCC3)c12 (protonated)
CCN(CC)CCC[NH2+]c1c2ccccc2[n+](C)c2cccc(OCC[N+]3(C)CCOCC3)c12 (3D coordinates assigned)
CCN(CC)CCC[NH2+]c1c2ccccc2[n+](C)c2cccc(OCC[N+]3(C)CCOCC3)c12 (nonaromatic ring conformer: 141.85589855295083 kcal/mol)

>  <smiles>  (10) 
CCN(CC)CCCNc1c2ccccc2[n+](C)c2cccc(OCC[N+]3(C)CCOCC3)c12

>  <score_type>  (10) 
oracle

>  <origin>  (10) 
adg

>  <m_score__min__energy>  (10) 
-7.8300000000000001

>  <m_primary>  (10) 
energy

$$$$
10:0
     RDKit          3D

 39 40  0  0  0  0  0  0  0  0999 V2000
   -3.0240   22.0280  -29.0170 C   0  0  0  0  0  0  0  0  0  0  0  0
   -2.3070   23.0270  -29.5400 C   0  0  0  0  0  0  0  0  0  0  0  0
   -2.6870   24.4660  -29.3410 C   0  0  0  0  0  0  0  0  0  0  0  0
   -3.4870   24.9360  -30.4630 N   0  0  0  0  0  0  0  0  0  0  0  0
   -4.9100   25.0920  -30.4160 C   0  0  0  0  0  0  0  0  0  0  0  0
   -5.4520   26.1540  -30.8260 O   0  0  0  0  0  0  0  0  0  0  0  0
   -5.7580   23.9810  -29.8890 C   0  0  0  0  0  0  0  0  0  0  0  0
   -7.0750   23.5400  -31.0760 S   0  0  0  0  0  0  0  0  0  0  0  0
   -6.1200   22.2400  -31.8900 C   0  0  0  0  0  0  0  0  0  0  0  0
   -4.7700   22.4020  -31.9550 N   0  0  0  0  0  0  0  0  0  0  0  0
   -3.9700   21.4780  -32.5470 C   0  0  0  0  0  0  0  0  0  0  0  0
   -2.5790   21.6630  -32.5900 C   0  0  0  0  0  0  0  0  0  0  0  0
   -1.7620   20.7160  -33.2100 C   0  0  0  0  0  0  0  0  0  0  0  0
   -2.3250   19.5750  -33.7860 C   0  0  0  0  0  0  0  0  0  0  0  0
   -3.7080   19.3760  -33.7400 C   0  0  0  0  0  0  0  0  0  0  0  0
   -4.5400   20.3270  -33.1190 C   0  0  0  0  0  0  0  0  0  0  0  0
   -5.9320   20.1620  -33.0360 C   0  0  0  0  0  0  0  0  0  0  0  0
   -6.4650   19.1270  -33.5300 O   0  0  0  0  0  0  0  0  0  0  0  0
   -6.7110   21.1120  -32.4200 N   0  0  0  0  0  0  0  0  0  0  0  0
   -8.1680   20.8760  -32.3090 C   0  0  0  0  0  0  0  0  0  0  0  0
   -8.4510   19.7140  -31.3970 C   0  0  0  0  0  0  0  0  0  0  0  0
   -9.0160   18.5880  -31.8430 C   0  0  0  0  0  0  0  0  0  0  0  0
   -2.7166   20.9849  -29.1828 H   0  0  0  0  0  0  0  0  0  0  0  0
   -3.9216   22.2487  -28.4207 H   0  0  0  0  0  0  0  0  0  0  0  0
   -1.4123   22.7882  -30.1337 H   0  0  0  0  0  0  0  0  0  0  0  0
   -3.2704   24.5626  -28.4134 H   0  0  0  0  0  0  0  0  0  0  0  0
   -1.7717   25.0724  -29.2746 H   0  0  0  0  0  0  0  0  0  0  0  0
   -5.1250   23.0993  -29.7106 H   0  0  0  0  0  0  0  0  0  0  0  0
   -6.2287   24.3144  -28.9524 H   0  0  0  0  0  0  0  0  0  0  0  0
   -4.3450   23.2610  -31.5370 H   0  0  0  0  0  0  0  0  0  0  0  0
   -2.1311   22.5578  -32.1333 H   0  0  0  0  0  0  0  0  0  0  0  0
   -0.6732   20.8686  -33.2449 H   0  0  0  0  0  0  0  0  0  0  0  0
   -1.6793   18.8318  -34.2766 H   0  0  0  0  0  0  0  0  0  0  0  0
   -4.1475   18.4737  -34.1903 H   0  0  0  0  0  0  0  0  0  0  0  0
   -8.6500   21.7782  -31.9044 H   0  0  0  0  0  0  0  0  0  0  0  0
   -8.5659   20.6459  -33.3084 H   0  0  0  0  0  0  0  0  0  0  0  0
   -8.1853   19.7932  -30.3325 H   0  0  0  0  0  0  0  0  0  0  0  0
   -9.2091   17.7571  -31.1486 H   0  0  0  0  0  0  0  0  0  0  0  0
   -9.2879   18.4921  -32.9045 H   0  0  0  0  0  0  0  0  0  0  0  0
  1  2  2  0
  2  3  1  0
  3  4  1  0
  4  5  1  0
  5  6  2  0
  5  7  1  0
  7  8  1  0
  8  9  1  0
  9 10  2  0
 10 11  1  0
 11 12  2  0
 12 13  1  0
 13 14  2  0
 14 15  1  0
 15 16  2  0
 16 17  1  0
 17 18  2  0
 17 19  1  0
 19 20  1  0
 20 21  1  0
 21 22  2  0
 19  9  1  0
 16 11  1  0
  1 23  1  0
  1 24  1  0
  2 25  1  0
  3 26  1  0
  3 27  1  0
  7 28  1  0
  7 29  1  0
 10 30  1  0
 12 31  1  0
 13 32  1  0
 14 33  1  0
 15 34  1  0
 20 35  1  0
 20 36  1  0
 21 37  1  0
 22 38  1  0
 22 39  1  0
M  CHG  2   4  -1  10   1
M  END
>  <UniqueID>  (11) 
11

>  <SMILES>  (11) 
C=CC[N-]C(=O)CSc1[nH+]c2ccccc2c(=O)n1CC=C

>  <Energy>  (11) 
33.90637576644326

>  <Genealogy>  (11) 
C=CC[N-]C(=O)CSc1[nH+]c2ccccc2c(=O)n1CC=C (protonated)
C=CC[N-]C(=O)CSc1[nH+]c2ccccc2c(=O)n1CC=C (3D coordinates assigned)
C=CC[N-]C(=O)CSc1[nH+]c2ccccc2c(=O)n1CC=C (optimized conformer: 33.90637576644326 kcal/mol)

>  <smiles>  (11) 
C=CCNC(=O)CSc1nc2ccccc2c(=O)n1CC=C

>  <score_type>  (11) 
oracle

>  <origin>  (11) 
adg

>  <m_score__min__energy>  (11) 
-8.4499999999999993

>  <m_primary>  (11) 
energy

$$$$
11:0
     RDKit          3D

 63 65  0  0  0  0  0  0  0  0999 V2000
   -1.4030   21.6470  -30.9230 C   0  0  0  0  0  0  0  0  0  0  0  0
   -0.7390   20.4780  -31.6520 C   0  0  0  0  0  0  0  0  0  0  0  0
   -1.6470   19.8580  -32.6450 N   0  0  0  0  0  0  0  0  0  0  0  0
   -1.8140   20.7120  -33.8430 C   0  0  0  0  0  0  0  0  0  0  0  0
   -0.4560   21.2140  -34.3240 C   0  0  0  0  0  0  0  0  0  0  0  0
   -1.3050   18.4550  -32.9850 C   0  0  0  0  0  0  0  0  0  0  0  0
   -1.7070   18.0360  -34.4200 C   0  0  0  0  0  0  0  0  0  0  0  0
   -2.4190   16.6650  -34.4700 C   0  0  0  0  0  0  0  0  0  0  0  0
   -3.9010   16.7440  -34.5650 N   0  0  0  0  0  0  0  0  0  0  0  0
   -4.3780   18.1470  -34.4540 C   0  0  0  0  0  0  0  0  0  0  0  0
   -5.8930   18.2070  -34.2110 C   0  0  0  0  0  0  0  0  0  0  0  0
   -6.3050   17.4610  -32.9980 N   0  0  0  0  0  0  0  0  0  0  0  0
   -7.0350   18.2680  -31.9900 C   0  0  0  0  0  0  0  0  0  0  0  0
   -6.5390   19.7050  -31.8590 C   0  0  0  0  0  0  0  0  0  0  0  0
   -5.1570   19.9100  -31.7310 C   0  0  0  0  0  0  0  0  0  0  0  0
   -4.6180   21.1900  -31.6310 C   0  0  0  0  0  0  0  0  0  0  0  0
   -5.4480   22.3190  -31.6600 C   0  0  0  0  0  0  0  0  0  0  0  0
   -4.9180   23.6210  -31.5720 O   0  0  0  0  0  0  0  0  0  0  0  0
   -4.9820   24.4500  -30.4150 C   0  0  0  0  0  0  0  0  0  0  0  0
   -6.8400   22.1490  -31.7870 C   0  0  0  0  0  0  0  0  0  0  0  0
   -7.6860   23.2760  -31.8210 C   0  0  0  0  0  0  0  0  0  0  0  0
   -9.0630   23.1260  -31.9620 C   0  0  0  0  0  0  0  0  0  0  0  0
   -9.6180   21.8550  -32.0720 C   0  0  0  0  0  0  0  0  0  0  0  0
   -8.8030   20.7240  -32.0400 C   0  0  0  0  0  0  0  0  0  0  0  0
   -7.4010   20.8420  -31.8950 C   0  0  0  0  0  0  0  0  0  0  0  0
   -5.2650   16.5740  -32.4400 C   0  0  0  0  0  0  0  0  0  0  0  0
   -4.5410   15.8290  -33.5710 C   0  0  0  0  0  0  0  0  0  0  0  0
   -1.3180   21.4974  -29.8365 H   0  0  0  0  0  0  0  0  0  0  0  0
   -0.9033   22.5858  -31.2041 H   0  0  0  0  0  0  0  0  0  0  0  0
   -2.4652   21.6986  -31.2041 H   0  0  0  0  0  0  0  0  0  0  0  0
    0.1578   20.8464  -32.1716 H   0  0  0  0  0  0  0  0  0  0  0  0
   -0.4789   19.7140  -30.9046 H   0  0  0  0  0  0  0  0  0  0  0  0
   -2.2895   20.1264  -34.6436 H   0  0  0  0  0  0  0  0  0  0  0  0
   -2.4452   21.5749  -33.5842 H   0  0  0  0  0  0  0  0  0  0  0  0
    0.1771   21.4480  -33.4554 H   0  0  0  0  0  0  0  0  0  0  0  0
    0.0284   20.4355  -34.9317 H   0  0  0  0  0  0  0  0  0  0  0  0
   -0.5944   22.1204  -34.9317 H   0  0  0  0  0  0  0  0  0  0  0  0
   -0.2172   18.3297  -32.8806 H   0  0  0  0  0  0  0  0  0  0  0  0
   -1.8748   17.8140  -32.2962 H   0  0  0  0  0  0  0  0  0  0  0  0
   -2.3848   18.7985  -34.8312 H   0  0  0  0  0  0  0  0  0  0  0  0
   -0.7823   17.9490  -35.0093 H   0  0  0  0  0  0  0  0  0  0  0  0
   -2.0470   16.1163  -35.3478 H   0  0  0  0  0  0  0  0  0  0  0  0
   -2.1925   16.1595  -33.5197 H   0  0  0  0  0  0  0  0  0  0  0  0
   -4.1800   16.3910  -35.5110 H   0  0  0  0  0  0  0  0  0  0  0  0
   -3.8614   18.6351  -33.6144 H   0  0  0  0  0  0  0  0  0  0  0  0
   -4.1589   18.6627  -35.4006 H   0  0  0  0  0  0  0  0  0  0  0  0
   -6.1899   19.2598  -34.0951 H   0  0  0  0  0  0  0  0  0  0  0  0
   -6.3881   17.7389  -35.0746 H   0  0  0  0  0  0  0  0  0  0  0  0
   -8.0975   18.2946  -32.2735 H   0  0  0  0  0  0  0  0  0  0  0  0
   -6.8649   17.7855  -31.0162 H   0  0  0  0  0  0  0  0  0  0  0  0
   -4.4842   19.0401  -31.7092 H   0  0  0  0  0  0  0  0  0  0  0  0
   -3.5301   21.3163  -31.5282 H   0  0  0  0  0  0  0  0  0  0  0  0
   -4.9336   23.8237  -29.5120 H   0  0  0  0  0  0  0  0  0  0  0  0
   -4.1354   25.1523  -30.4199 H   0  0  0  0  0  0  0  0  0  0  0  0
   -5.9264   25.0141  -30.4199 H   0  0  0  0  0  0  0  0  0  0  0  0
   -7.2540   24.2840  -31.7353 H   0  0  0  0  0  0  0  0  0  0  0  0
   -9.7127   24.0133  -31.9865 H   0  0  0  0  0  0  0  0  0  0  0  0
  -10.7063   21.7416  -32.1849 H   0  0  0  0  0  0  0  0  0  0  0  0
   -9.2568   19.7259  -32.1288 H   0  0  0  0  0  0  0  0  0  0  0  0
   -4.5368   17.1768  -31.8775 H   0  0  0  0  0  0  0  0  0  0  0  0
   -5.7397   15.8396  -31.7727 H   0  0  0  0  0  0  0  0  0  0  0  0
   -3.7601   15.1940  -33.1272 H   0  0  0  0  0  0  0  0  0  0  0  0
   -5.2972   15.2392  -34.1098 H   0  0  0  0  0  0  0  0  0  0  0  0
  1  2  1  0
  2  3  1  0
  3  4  1  0
  4  5  1  0
  3  6  1  0
  6  7  1  0
  7  8  1  0
  8  9  1  0
  9 10  1  0
 10 11  1  0
 11 12  1  0
 12 13  1  0
 13 14  1  0
 14 15  2  0
 15 16  1  0
 16 17  2  0
 17 18  1  0
 18 19  1  0
 17 20  1  0
 20 21  2  0
 21 22  1  0
 22 23  2  0
 23 24  1  0
 24 25  2  0
 12 26  1  0
 26 27  1  0
 27  9  1  0
 25 14  1  0
 25 20  1  0
  1 28  1  0
  1 29  1  0
  1 30  1  0
  2 31  1  0
  2 32  1  0
  4 33  1  0
  4 34  1  0
  5 35  1  0
  5 36  1  0
  5 37  1  0
  6 38  1  0
  6 39  1  0
  7 40  1  0
  7 41  1  0
  8 42  1  0
  8 43  1  0
  9 44  1  0
 10 45  1  0
 10 46  1  0
 11 47  1  0
 11 48  1  0
 13 49  1  0
 13 50  1  0
 15 51  1  0
 16 52  1  0
 19 53  1  0
 19 54  1  0
 19 55  1  0
 21 56  1  0
 22 57  1  0
 23 58  1  0
 24 59  1  0
 26 60  1  0
 26 61  1  0
 27 62  1  0
 27 63  1  0
M  CHG  1   9   1
M  END
>  <UniqueID>  (12) 
12

>  <SMILES>  (12) 
CCN(CC)CCC[NH+]1CCN(Cc2ccc(OC)c3ccccc23)CC1

>  <Energy>  (12) 
88.04077094165875

>  <Genealogy>  (12) 
CCN(CC)CCC[NH+]1CCN(Cc2ccc(OC)c3ccccc23)CC1 (protonated)
CCN(CC)CCC[NH+]1CCN(Cc2ccc(OC)c3ccccc23)CC1 (3D coordinates assigned)
CCN(CC)CCC[NH+]1CCN(Cc2ccc(OC)c3ccccc23)CC1 (nonaromatic ring conformer: 88.04077094165875 kcal/mol)

>  <smiles>  (12) 
CCN(CC)CCCN1CCN(Cc2ccc(OC)c3ccccc23)CC1

>  <score_type>  (12) 
oracle

>  <origin>  (12) 
adg

>  <m_score__min__energy>  (12) 
-7.6299999999999999

>  <m_primary>  (12) 
energy

$$$$
12:0
     RDKit          3D

 72 75  0  0  0  0  0  0  0  0999 V2000
   -6.0890   25.2740  -29.8960 C   0  0  0  0  0  0  0  0  0  0  0  0
   -4.6640   24.9040  -30.3350 C   0  0  0  0  0  0  0  0  0  0  0  0
   -4.6540   23.7820  -31.2860 N   0  0  0  0  0  0  0  0  0  0  0  0
   -3.4540   22.9280  -31.1640 C   0  0  0  0  0  0  0  0  0  0  0  0
   -3.3990   21.9060  -32.3170 C   0  0  0  0  0  0  0  0  0  0  0  0
   -4.5610   21.9740  -33.2290 N   0  0  0  0  0  0  0  0  0  0  0  0
   -5.6180   21.0200  -32.9010 C   0  0  0  0  0  0  0  0  0  0  0  0
   -6.9170   21.4600  -32.4930 C   0  0  0  0  0  0  0  0  0  0  0  0
   -7.2690   22.8360  -32.4070 C   0  0  0  0  0  0  0  0  0  0  0  0
   -8.5150   23.2370  -31.9340 C   0  0  0  0  0  0  0  0  0  0  0  0
   -9.4420   22.2910  -31.5260 C   0  0  0  0  0  0  0  0  0  0  0  0
   -9.1480   20.9360  -31.6290 C   0  0  0  0  0  0  0  0  0  0  0  0
   -7.9050   20.4890  -32.1520 C   0  0  0  0  0  0  0  0  0  0  0  0
   -7.6500   19.1440  -32.3100 N   0  0  0  0  0  0  0  0  0  0  0  0
   -8.7670   18.1720  -32.2790 C   0  0  0  0  0  0  0  0  0  0  0  0
   -6.3630   18.7020  -32.5340 C   0  0  0  0  0  0  0  0  0  0  0  0
   -6.0250   17.3350  -32.3880 C   0  0  0  0  0  0  0  0  0  0  0  0
   -4.7570   16.8650  -32.7110 C   0  0  0  0  0  0  0  0  0  0  0  0
   -3.7810   17.7430  -33.1930 C   0  0  0  0  0  0  0  0  0  0  0  0
   -2.5190   17.3100  -33.6330 O   0  0  0  0  0  0  0  0  0  0  0  0
   -1.9650   17.5290  -34.9300 C   0  0  0  0  0  0  0  0  0  0  0  0
   -0.4700   17.9590  -34.9170 C   0  0  0  0  0  0  0  0  0  0  0  0
   -0.0610   19.0070  -33.9180 N   0  0  0  0  0  0  0  0  0  0  0  0
   -0.0460   18.4340  -32.5470 C   0  0  0  0  0  0  0  0  0  0  0  0
   -1.0060   20.1760  -33.9670 C   0  0  0  0  0  0  0  0  0  0  0  0
   -0.3110   21.5290  -33.6980 C   0  0  0  0  0  0  0  0  0  0  0  0
    0.7600   21.8150  -34.6870 N   0  0  0  0  0  0  0  0  0  0  0  0
    0.2890   22.7120  -35.7510 C   0  0  0  0  0  0  0  0  0  0  0  0
    1.3720   20.5960  -35.2610 C   0  0  0  0  0  0  0  0  0  0  0  0
    1.3440   19.4370  -34.2480 C   0  0  0  0  0  0  0  0  0  0  0  0
   -4.0650   19.1090  -33.2480 C   0  0  0  0  0  0  0  0  0  0  0  0
   -5.3420   19.6220  -32.8990 C   0  0  0  0  0  0  0  0  0  0  0  0
   -6.1423   25.2878  -28.7974 H   0  0  0  0  0  0  0  0  0  0  0  0
   -6.3468   26.2689  -30.2881 H   0  0  0  0  0  0  0  0  0  0  0  0
   -6.7982   24.5302  -30.2881 H   0  0  0  0  0  0  0  0  0  0  0  0
   -4.2014   25.7796  -30.8139 H   0  0  0  0  0  0  0  0  0  0  0  0
   -4.1022   24.5963  -29.4407 H   0  0  0  0  0  0  0  0  0  0  0  0
   -5.5050   23.1940  -31.0890 H   0  0  0  0  0  0  0  0  0  0  0  0
   -2.5547   23.5605  -31.1977 H   0  0  0  0  0  0  0  0  0  0  0  0
   -3.4998   22.3845  -30.2088 H   0  0  0  0  0  0  0  0  0  0  0  0
   -2.4867   22.0923  -32.9027 H   0  0  0  0  0  0  0  0  0  0  0  0
   -3.4079   20.9055  -31.8598 H   0  0  0  0  0  0  0  0  0  0  0  0
   -4.9530   22.9430  -33.2120 H   0  0  0  0  0  0  0  0  0  0  0  0
   -4.2280   21.8970  -34.2090 H   0  0  0  0  0  0  0  0  0  0  0  0
   -6.5412   23.5987  -32.7209 H   0  0  0  0  0  0  0  0  0  0  0  0
   -8.7646   24.3071  -31.8839 H   0  0  0  0  0  0  0  0  0  0  0  0
  -10.4123   22.6128  -31.1199 H   0  0  0  0  0  0  0  0  0  0  0  0
   -9.8920   20.1959  -31.2993 H   0  0  0  0  0  0  0  0  0  0  0  0
   -9.0272   17.9456  -31.2345 H   0  0  0  0  0  0  0  0  0  0  0  0
   -9.6413   18.6018  -32.7898 H   0  0  0  0  0  0  0  0  0  0  0  0
   -8.4621   17.2467  -32.7898 H   0  0  0  0  0  0  0  0  0  0  0  0
   -6.7810   16.6303  -32.0113 H   0  0  0  0  0  0  0  0  0  0  0  0
   -4.5205   15.7979  -32.5869 H   0  0  0  0  0  0  0  0  0  0  0  0
   -2.0510   16.5950  -35.5047 H   0  0  0  0  0  0  0  0  0  0  0  0
   -2.5300   18.3583  -35.3807 H   0  0  0  0  0  0  0  0  0  0  0  0
    0.1306   17.0595  -34.7166 H   0  0  0  0  0  0  0  0  0  0  0  0
   -0.3022   18.4250  -35.8992 H   0  0  0  0  0  0  0  0  0  0  0  0
   -0.0673   19.2491  -31.8087 H   0  0  0  0  0  0  0  0  0  0  0  0
   -0.9276   17.7909  -32.4087 H   0  0  0  0  0  0  0  0  0  0  0  0
    0.8681   17.8379  -32.4087 H   0  0  0  0  0  0  0  0  0  0  0  0
   -1.4672   20.2117  -34.9650 H   0  0  0  0  0  0  0  0  0  0  0  0
   -1.7528   20.0274  -33.1731 H   0  0  0  0  0  0  0  0  0  0  0  0
   -1.0632   22.3301  -33.7485 H   0  0  0  0  0  0  0  0  0  0  0  0
    0.1532   21.4786  -32.7020 H   0  0  0  0  0  0  0  0  0  0  0  0
   -0.1777   23.6008  -35.3014 H   0  0  0  0  0  0  0  0  0  0  0  0
    1.1412   23.0209  -36.3741 H   0  0  0  0  0  0  0  0  0  0  0  0
   -0.4492   22.1858  -36.3741 H   0  0  0  0  0  0  0  0  0  0  0  0
    0.8118   20.3014  -36.1607 H   0  0  0  0  0  0  0  0  0  0  0  0
    2.4196   20.8152  -35.5148 H   0  0  0  0  0  0  0  0  0  0  0  0
    1.8863   18.5801  -34.6743 H   0  0  0  0  0  0  0  0  0  0  0  0
    1.8180   19.7873  -33.3193 H   0  0  0  0  0  0  0  0  0  0  0  0
   -3.2780   19.8066  -33.5705 H   0  0  0  0  0  0  0  0  0  0  0  0
  1  2  1  0
  2  3  1  0
  3  4  1  0
  4  5  1  0
  5  6  1  0
  6  7  1  0
  7  8  2  0
  8  9  1  0
  9 10  2  0
 10 11  1  0
 11 12  2  0
 12 13  1  0
 13 14  2  0
 14 15  1  0
 14 16  1  0
 16 17  2  0
 17 18  1  0
 18 19  2  0
 19 20  1  0
 20 21  1  0
 21 22  1  0
 22 23  1  0
 23 24  1  0
 23 25  1  0
 25 26  1  0
 26 27  1  0
 27 28  1  0
 27 29  1  0
 29 30  1  0
 19 31  1  0
 31 32  2  0
 32  7  1  0
 13  8  1  0
 32 16  1  0
 30 23  1  0
  1 33  1  0
  1 34  1  0
  1 35  1  0
  2 36  1  0
  2 37  1  0
  3 38  1  0
  4 39  1  0
  4 40  1  0
  5 41  1  0
  5 42  1  0
  6 43  1  0
  6 44  1  0
  9 45  1  0
 10 46  1  0
 11 47  1  0
 12 48  1  0
 15 49  1  0
 15 50  1  0
 15 51  1  0
 17 52  1  0
 18 53  1  0
 21 54  1  0
 21 55  1  0
 22 56  1  0
 22 57  1  0
 24 58  1  0
 24 59  1  0
 24 60  1  0
 25 61  1  0
 25 62  1  0
 26 63  1  0
 26 64  1  0
 28 65  1  0
 28 66  1  0
 28 67  1  0
 29 68  1  0
 29 69  1  0
 30 70  1  0
 30 71  1  0
 31 72  1  0
M  CHG  3   6   1  14   1  23   1
M  END
>  <UniqueID>  (13) 
13

>  <SMILES>  (13) 
CCNCC[NH2+]c1c2ccccc2[n+](C)c2ccc(OCC[N+]3(C)CCN(C)CC3)cc12

>  <Energy>  (13) 
124.26624292596112

>  <Genealogy>  (13) 
CCNCC[NH2+]c1c2ccccc2[n+](C)c2ccc(OCC[N+]3(C)CCN(C)CC3)cc12 (protonated)
CCNCC[NH2+]c1c2ccccc2[n+](C)c2ccc(OCC[N+]3(C)CCN(C)CC3)cc12 (3D coordinates assigned)
CCNCC[NH2+]c1c2ccccc2[n+](C)c2ccc(OCC[N+]3(C)CCN(C)CC3)cc12 (nonaromatic ring conformer: 124.26624292596112 kcal/mol)

>  <smiles>  (13) 
CCNCCNc1c2ccccc2[n+](C)c2ccc(OCC[N+]3(C)CCN(C)CC3)cc12

>  <score_type>  (13) 
oracle

>  <origin>  (13) 
adg

>  <m_score__min__energy>  (13) 
-8.2100000000000009

>  <m_primary>  (13) 
energy

$$$$
13:0
     RDKit          3D

 37 40  0  0  1  0  0  0  0  0999 V2000
   -1.2740   22.1310  -26.6220 C   0  0  0  0  0  0  0  0  0  0  0  0
   -1.1940   23.5780  -26.8660 C   0  0  0  0  0  0  0  0  0  0  0  0
   -1.0330   24.4590  -25.8160 C   0  0  0  0  0  0  0  0  0  0  0  0
   -0.9530   25.8310  -25.9990 C   0  0  0  0  0  0  0  0  0  0  0  0
   -1.0430   26.2960  -27.2940 C   0  0  0  0  0  0  0  0  0  0  0  0
   -1.2050   25.4090  -28.3390 C   0  0  0  0  0  0  0  0  0  0  0  0
   -1.2850   24.0420  -28.1630 C   0  0  0  0  0  0  0  0  0  0  0  0
   -1.4480   23.2330  -29.2910 N   0  0  0  0  0  0  0  0  0  0  0  0
   -0.5970   22.3090  -29.8020 C   0  0  0  0  0  0  0  0  0  0  0  0
   -1.1440   21.7310  -30.9300 C   0  0  0  0  0  0  0  0  0  0  0  0
   -2.3440   22.3200  -31.0970 N   0  0  0  0  0  0  0  0  0  0  0  0
   -2.5360   23.2240  -30.1170 C   0  0  0  0  0  0  0  0  0  0  0  0
   -3.9770   24.2060  -29.9780 S   0  0  0  0  0  0  0  0  0  0  0  0
   -3.8610   25.6470  -30.8330 O   0  0  0  0  0  0  0  0  0  0  0  0
   -5.3420   23.3200  -30.5850 C   0  0  0  0  0  0  0  0  0  0  0  0
   -6.6520   23.5340  -30.3890 N   0  0  0  0  0  0  0  0  0  0  0  0
   -7.3380   22.5920  -31.0580 C   0  0  0  0  0  0  0  0  0  0  0  0
   -8.6920   22.3010  -31.2300 C   0  0  0  0  0  0  0  0  0  0  0  0
   -9.0850   21.2120  -32.0150 C   0  0  0  0  0  0  0  0  0  0  0  0
   -8.1400   20.4140  -32.6270 C   0  0  0  0  0  0  0  0  0  0  0  0
   -6.8060   20.6870  -32.4680 C   0  0  0  0  0  0  0  0  0  0  0  0
   -6.4450   21.7640  -31.6900 C   0  0  0  0  0  0  0  0  0  0  0  0
   -5.2250   22.2340  -31.3830 N   0  0  0  0  0  0  0  0  0  0  0  0
   -1.2845   21.9419  -25.5384 H   0  0  0  0  0  0  0  0  0  0  0  0
   -2.1955   21.7336  -27.0725 H   0  0  0  0  0  0  0  0  0  0  0  0
   -0.4019   21.6344  -27.0725 H   0  0  0  0  0  0  0  0  0  0  0  0
   -0.9655   24.0571  -24.7943 H   0  0  0  0  0  0  0  0  0  0  0  0
   -0.8236   26.5176  -25.1494 H   0  0  0  0  0  0  0  0  0  0  0  0
   -0.9856   27.3760  -27.4946 H   0  0  0  0  0  0  0  0  0  0  0  0
   -1.2736   25.8104  -29.3608 H   0  0  0  0  0  0  0  0  0  0  0  0
    0.3866   22.0567  -29.3790 H   0  0  0  0  0  0  0  0  0  0  0  0
   -0.6934   20.9512  -31.5615 H   0  0  0  0  0  0  0  0  0  0  0  0
   -9.4533   22.9306  -30.7463 H   0  0  0  0  0  0  0  0  0  0  0  0
  -10.1545   20.9902  -32.1454 H   0  0  0  0  0  0  0  0  0  0  0  0
   -8.4571   19.5591  -33.2423 H   0  0  0  0  0  0  0  0  0  0  0  0
   -6.0418   20.0602  -32.9508 H   0  0  0  0  0  0  0  0  0  0  0  0
   -4.3230   21.8120  -31.7200 H   0  0  0  0  0  0  0  0  0  0  0  0
  1  2  1  0
  2  3  2  0
  3  4  1  0
  4  5  2  0
  5  6  1  0
  6  7  2  0
  7  8  1  0
  8  9  1  0
  9 10  2  0
 10 11  1  0
 11 12  2  0
 12 13  1  0
 13 14  1  6
 13 15  1  0
 15 16  2  0
 16 17  1  0
 17 18  2  0
 18 19  1  0
 19 20  2  0
 20 21  1  0
 21 22  2  0
 22 23  1  0
  7  2  1  0
 12  8  1  0
 23 15  1  0
 22 17  1  0
  1 24  1  0
  1 25  1  0
  1 26  1  0
  3 27  1  0
  4 28  1  0
  5 29  1  0
  6 30  1  0
  9 31  1  0
 10 32  1  0
 18 33  1  0
 19 34  1  0
 20 35  1  0
 21 36  1  0
 23 37  1  0
M  CHG  2  13   1  14  -1
M  END
>  <smiles>  (14) 
Cc1ccccc1-n1ccnc1[S+]([O-])c1nc2ccccc2[nH]1

>  <score_type>  (14) 
oracle

>  <origin>  (14) 
adg

>  <m_score__min__energy>  (14) 
-9.2599999999999998

>  <m_primary>  (14) 
energy

$$$$
14:0
     RDKit          3D

 52 55  0  0  0  0  0  0  0  0999 V2000
   -3.1530   15.8160  -35.5600 C   0  0  0  0  0  0  0  0  0  0  0  0
   -4.2850   16.3350  -34.7220 C   0  0  0  0  0  0  0  0  0  0  0  0
   -4.6220   15.6930  -33.5230 C   0  0  0  0  0  0  0  0  0  0  0  0
   -5.6940   16.1530  -32.7530 C   0  0  0  0  0  0  0  0  0  0  0  0
   -6.4650   17.2470  -33.1850 C   0  0  0  0  0  0  0  0  0  0  0  0
   -7.6320   17.7380  -32.3530 C   0  0  0  0  0  0  0  0  0  0  0  0
   -7.4360   19.0910  -31.7840 N   0  0  0  0  0  0  0  0  0  0  0  0
   -8.3660   20.1060  -32.3300 C   0  0  0  0  0  0  0  0  0  0  0  0
   -7.9280   21.5210  -31.9440 C   0  0  0  0  0  0  0  0  0  0  0  0
   -6.5530   21.8480  -32.5750 C   0  0  0  0  0  0  0  0  0  0  0  0
   -5.8500   22.9380  -31.8010 C   0  0  0  0  0  0  0  0  0  0  0  0
   -6.4680   24.0260  -31.3000 N   0  0  0  0  0  0  0  0  0  0  0  0
   -5.5220   24.7550  -30.7300 N   0  0  0  0  0  0  0  0  0  0  0  0
   -5.7620   26.0560  -30.1270 C   0  0  0  0  0  0  0  0  0  0  0  0
   -4.3200   24.2110  -30.8440 N   0  0  0  0  0  0  0  0  0  0  0  0
   -4.4990   23.0480  -31.4990 C   0  0  0  0  0  0  0  0  0  0  0  0
   -3.3990   22.1120  -31.8090 C   0  0  0  0  0  0  0  0  0  0  0  0
   -2.6990   21.4490  -30.7860 C   0  0  0  0  0  0  0  0  0  0  0  0
   -1.6500   20.5780  -31.0980 C   0  0  0  0  0  0  0  0  0  0  0  0
   -1.2820   20.3730  -32.4310 C   0  0  0  0  0  0  0  0  0  0  0  0
   -1.9570   21.0470  -33.4520 C   0  0  0  0  0  0  0  0  0  0  0  0
   -3.0060   21.9190  -33.1440 C   0  0  0  0  0  0  0  0  0  0  0  0
   -5.6500   20.5960  -32.7050 C   0  0  0  0  0  0  0  0  0  0  0  0
   -6.0190   19.5180  -31.6740 C   0  0  0  0  0  0  0  0  0  0  0  0
   -6.1150   17.8950  -34.3820 C   0  0  0  0  0  0  0  0  0  0  0  0
   -5.0430   17.4340  -35.1510 C   0  0  0  0  0  0  0  0  0  0  0  0
   -2.3502   15.4479  -34.9043 H   0  0  0  0  0  0  0  0  0  0  0  0
   -3.5139   14.9934  -36.1949 H   0  0  0  0  0  0  0  0  0  0  0  0
   -2.7653   16.6263  -36.1949 H   0  0  0  0  0  0  0  0  0  0  0  0
   -4.0400   14.8226  -33.1860 H   0  0  0  0  0  0  0  0  0  0  0  0
   -5.9364   15.6557  -31.8022 H   0  0  0  0  0  0  0  0  0  0  0  0
   -8.5282   17.7569  -32.9905 H   0  0  0  0  0  0  0  0  0  0  0  0
   -7.7323   17.0460  -31.5039 H   0  0  0  0  0  0  0  0  0  0  0  0
   -8.3848   20.0226  -33.4267 H   0  0  0  0  0  0  0  0  0  0  0  0
   -9.3664   19.9239  -31.9105 H   0  0  0  0  0  0  0  0  0  0  0  0
   -8.6744   22.2434  -32.3058 H   0  0  0  0  0  0  0  0  0  0  0  0
   -7.8434   21.5835  -30.8490 H   0  0  0  0  0  0  0  0  0  0  0  0
   -6.7481   22.2112  -33.5948 H   0  0  0  0  0  0  0  0  0  0  0  0
   -5.7445   25.9611  -29.0312 H   0  0  0  0  0  0  0  0  0  0  0  0
   -4.9783   26.7585  -30.4468 H   0  0  0  0  0  0  0  0  0  0  0  0
   -6.7448   26.4327  -30.4468 H   0  0  0  0  0  0  0  0  0  0  0  0
   -2.9776   21.6160  -29.7350 H   0  0  0  0  0  0  0  0  0  0  0  0
   -1.1138   20.0536  -30.2933 H   0  0  0  0  0  0  0  0  0  0  0  0
   -0.4620   19.6819  -32.6758 H   0  0  0  0  0  0  0  0  0  0  0  0
   -1.6626   20.8914  -34.5004 H   0  0  0  0  0  0  0  0  0  0  0  0
   -3.5259   22.4564  -33.9508 H   0  0  0  0  0  0  0  0  0  0  0  0
   -5.7654   20.1769  -33.7155 H   0  0  0  0  0  0  0  0  0  0  0  0
   -4.6099   20.9035  -32.5215 H   0  0  0  0  0  0  0  0  0  0  0  0
   -5.3728   18.6420  -31.8323 H   0  0  0  0  0  0  0  0  0  0  0  0
   -5.8756   19.9491  -30.6722 H   0  0  0  0  0  0  0  0  0  0  0  0
   -6.6892   18.7717  -34.7161 H   0  0  0  0  0  0  0  0  0  0  0  0
   -4.7926   17.9357  -36.0974 H   0  0  0  0  0  0  0  0  0  0  0  0
  1  2  1  0
  2  3  2  0
  3  4  1  0
  4  5  2  0
  5  6  1  0
  6  7  1  0
  7  8  1  0
  8  9  1  0
  9 10  1  0
 10 11  1  0
 11 12  2  0
 12 13  1  0
 13 14  1  0
 13 15  1  0
 15 16  2  0
 16 17  1  0
 17 18  2  0
 18 19  1  0
 19 20  2  0
 20 21  1  0
 21 22  2  0
 10 23  1  0
 23 24  1  0
  5 25  1  0
 25 26  2  0
 26  2  1  0
 24  7  1  0
 16 11  1  0
 22 17  1  0
  1 27  1  0
  1 28  1  0
  1 29  1  0
  3 30  1  0
  4 31  1  0
  6 32  1  0
  6 33  1  0
  8 34  1  0
  8 35  1  0
  9 36  1  0
  9 37  1  0
 10 38  1  0
 14 39  1  0
 14 40  1  0
 14 41  1  0
 18 42  1  0
 19 43  1  0
 20 44  1  0
 21 45  1  0
 22 46  1  0
 23 47  1  0
 23 48  1  0
 24 49  1  0
 24 50  1  0
 25 51  1  0
 26 52  1  0
M  END
>  <UniqueID>  (15) 
14

>  <SMILES>  (15) 
Cc1ccc(CN2CCC(c3nn(C)nc3-c3ccccc3)CC2)cc1

>  <Energy>  (15) 
101.67833186749955

>  <Genealogy>  (15) 
Cc1ccc(CN2CCC(c3nn(C)nc3-c3ccccc3)CC2)cc1 (3D coordinates assigned)
Cc1ccc(CN2CCC(c3nn(C)nc3-c3ccccc3)CC2)cc1 (nonaromatic ring conformer: 101.67833186749955 kcal/mol)

>  <smiles>  (15) 
Cc1ccc(CN2CCC(c3nn(C)nc3-c3ccccc3)CC2)cc1

>  <score_type>  (15) 
oracle

>  <origin>  (15) 
adg

>  <m_score__min__energy>  (15) 
-9.5099999999999998

>  <m_primary>  (15) 
energy

$$$$
15:0
     RDKit          3D

 67 71  0  0  0  0  0  0  0  0999 V2000
   -8.5050   19.3890  -32.4190 C   0  0  0  0  0  0  0  0  0  0  0  0
   -7.3100   20.2180  -32.5830 N   0  0  0  0  0  0  0  0  0  0  0  0
   -6.2280   19.9900  -33.3810 C   0  0  0  0  0  0  0  0  0  0  0  0
   -6.1090   18.8420  -34.3580 C   0  0  0  0  0  0  0  0  0  0  0  0
   -5.3080   17.7000  -33.8630 N   0  0  0  0  0  0  0  0  0  0  0  0
   -5.4150   17.4300  -32.4280 C   0  0  0  0  0  0  0  0  0  0  0  0
   -4.9840   15.9900  -32.2450 C   0  0  0  0  0  0  0  0  0  0  0  0
   -5.3700   15.3080  -33.5450 C   0  0  0  0  0  0  0  0  0  0  0  0
   -5.5460   16.4320  -34.5630 C   0  0  0  0  0  0  0  0  0  0  0  0
   -5.2300   20.8950  -33.2000 N   0  0  0  0  0  0  0  0  0  0  0  0
   -5.7200   21.7070  -32.2470 C   0  0  0  0  0  0  0  0  0  0  0  0
   -5.0900   22.8030  -31.6640 C   0  0  0  0  0  0  0  0  0  0  0  0
   -5.7820   23.4980  -30.6500 C   0  0  0  0  0  0  0  0  0  0  0  0
   -5.0310   24.8750  -29.8490 S   0  0  0  0  0  0  0  0  0  0  0  0
   -4.2060   25.6480  -30.8390 O   0  0  0  0  0  0  0  0  0  0  0  0
   -6.1110   25.7780  -29.3220 O   0  0  0  0  0  0  0  0  0  0  0  0
   -4.0000   24.3210  -28.4800 C   0  0  0  0  0  0  0  0  0  0  0  0
   -4.3140   22.8650  -28.0810 C   0  0  0  0  0  0  0  0  0  0  0  0
   -3.5840   21.8580  -28.9830 C   0  0  0  0  0  0  0  0  0  0  0  0
   -2.1130   22.0810  -29.0810 N   0  0  0  0  0  0  0  0  0  0  0  0
   -1.6180   21.9940  -30.4770 C   0  0  0  0  0  0  0  0  0  0  0  0
   -2.5260   21.1070  -31.3470 C   0  0  0  0  0  0  0  0  0  0  0  0
   -1.8160   20.5440  -32.5540 C   0  0  0  0  0  0  0  0  0  0  0  0
   -0.7850   21.2720  -33.1720 C   0  0  0  0  0  0  0  0  0  0  0  0
   -0.1430   20.7620  -34.3050 C   0  0  0  0  0  0  0  0  0  0  0  0
   -0.5210   19.5220  -34.8260 C   0  0  0  0  0  0  0  0  0  0  0  0
   -1.5380   18.7850  -34.2100 C   0  0  0  0  0  0  0  0  0  0  0  0
   -2.1820   19.2920  -33.0770 C   0  0  0  0  0  0  0  0  0  0  0  0
   -1.6470   23.3180  -28.4100 C   0  0  0  0  0  0  0  0  0  0  0  0
   -2.5000   24.5330  -28.8020 C   0  0  0  0  0  0  0  0  0  0  0  0
   -7.0670   23.0660  -30.2450 C   0  0  0  0  0  0  0  0  0  0  0  0
   -7.6720   21.9510  -30.8520 C   0  0  0  0  0  0  0  0  0  0  0  0
   -6.9640   21.2980  -31.8630 C   0  0  0  0  0  0  0  0  0  0  0  0
   -8.7089   19.2476  -31.3474 H   0  0  0  0  0  0  0  0  0  0  0  0
   -9.3641   19.8862  -32.8932 H   0  0  0  0  0  0  0  0  0  0  0  0
   -8.3402   18.4102  -32.8932 H   0  0  0  0  0  0  0  0  0  0  0  0
   -7.1216   18.4786  -34.5872 H   0  0  0  0  0  0  0  0  0  0  0  0
   -5.5847   19.2343  -35.2418 H   0  0  0  0  0  0  0  0  0  0  0  0
   -4.7540   18.1025  -31.8615 H   0  0  0  0  0  0  0  0  0  0  0  0
   -6.4384   17.5957  -32.0604 H   0  0  0  0  0  0  0  0  0  0  0  0
   -3.8981   15.9273  -32.0808 H   0  0  0  0  0  0  0  0  0  0  0  0
   -5.4575   15.5202  -31.3703 H   0  0  0  0  0  0  0  0  0  0  0  0
   -4.5755   14.6190  -33.8676 H   0  0  0  0  0  0  0  0  0  0  0  0
   -6.2879   14.7120  -33.4345 H   0  0  0  0  0  0  0  0  0  0  0  0
   -4.8221   16.3135  -35.3827 H   0  0  0  0  0  0  0  0  0  0  0  0
   -6.5578   16.4105  -34.9940 H   0  0  0  0  0  0  0  0  0  0  0  0
   -4.0853   23.1169  -31.9836 H   0  0  0  0  0  0  0  0  0  0  0  0
   -4.2382   24.9396  -27.6022 H   0  0  0  0  0  0  0  0  0  0  0  0
   -3.9982   22.7049  -27.0396 H   0  0  0  0  0  0  0  0  0  0  0  0
   -5.3963   22.7045  -28.1941 H   0  0  0  0  0  0  0  0  0  0  0  0
   -3.7540   20.8482  -28.5812 H   0  0  0  0  0  0  0  0  0  0  0  0
   -3.9919   21.9871  -29.9964 H   0  0  0  0  0  0  0  0  0  0  0  0
   -1.5879   23.0054  -30.9085 H   0  0  0  0  0  0  0  0  0  0  0  0
   -0.6143   21.5442  -30.4582 H   0  0  0  0  0  0  0  0  0  0  0  0
   -2.8917   20.2706  -30.7332 H   0  0  0  0  0  0  0  0  0  0  0  0
   -3.3498   21.7373  -31.7132 H   0  0  0  0  0  0  0  0  0  0  0  0
   -0.4817   22.2470  -32.7629 H   0  0  0  0  0  0  0  0  0  0  0  0
    0.6608   21.3381  -34.7867 H   0  0  0  0  0  0  0  0  0  0  0  0
   -0.0189   19.1252  -35.7207 H   0  0  0  0  0  0  0  0  0  0  0  0
   -1.8313   17.8061  -34.6171 H   0  0  0  0  0  0  0  0  0  0  0  0
   -2.9787   18.7082  -32.5929 H   0  0  0  0  0  0  0  0  0  0  0  0
   -1.7070   23.1769  -27.3207 H   0  0  0  0  0  0  0  0  0  0  0  0
   -0.6111   23.5101  -28.7263 H   0  0  0  0  0  0  0  0  0  0  0  0
   -2.1395   25.4127  -28.2487 H   0  0  0  0  0  0  0  0  0  0  0  0
   -2.4042   24.6774  -29.8883 H   0  0  0  0  0  0  0  0  0  0  0  0
   -7.5977   23.6073  -29.4479 H   0  0  0  0  0  0  0  0  0  0  0  0
   -8.6688   21.6051  -30.5410 H   0  0  0  0  0  0  0  0  0  0  0  0
  1  2  1  0
  2  3  1  0
  3  4  1  0
  4  5  1  0
  5  6  1  0
  6  7  1  0
  7  8  1  0
  8  9  1  0
  3 10  2  0
 10 11  1  0
 11 12  2  0
 12 13  1  0
 13 14  1  0
 14 15  2  0
 14 16  2  0
 14 17  1  0
 17 18  1  0
 18 19  1  0
 19 20  1  0
 20 21  1  0
 21 22  1  0
 22 23  1  0
 23 24  2  0
 24 25  1  0
 25 26  2  0
 26 27  1  0
 27 28  2  0
 20 29  1  0
 29 30  1  0
 13 31  2  0
 31 32  1  0
 32 33  2  0
 33  2  1  0
  9  5  1  0
 33 11  1  0
 30 17  1  0
 28 23  1  0
  1 34  1  0
  1 35  1  0
  1 36  1  0
  4 37  1  0
  4 38  1  0
  6 39  1  0
  6 40  1  0
  7 41  1  0
  7 42  1  0
  8 43  1  0
  8 44  1  0
  9 45  1  0
  9 46  1  0
 12 47  1  0
 17 48  1  0
 18 49  1  0
 18 50  1  0
 19 51  1  0
 19 52  1  0
 21 53  1  0
 21 54  1  0
 22 55  1  0
 22 56  1  0
 24 57  1  0
 25 58  1  0
 26 59  1  0
 27 60  1  0
 28 61  1  0
 29 62  1  0
 29 63  1  0
 30 64  1  0
 30 65  1  0
 31 66  1  0
 32 67  1  0
M  END
>  <UniqueID>  (16) 
15

>  <SMILES>  (16) 
Cn1c(CN2CCCC2)nc2cc(S(=O)(=O)C3CCN(CCc4ccccc4)CC3)ccc21

>  <Energy>  (16) 
119.32043643364013

>  <Genealogy>  (16) 
Cn1c(CN2CCCC2)nc2cc(S(=O)(=O)C3CCN(CCc4ccccc4)CC3)ccc21 (3D coordinates assigned)
Cn1c(CN2CCCC2)nc2cc(S(=O)(=O)C3CCN(CCc4ccccc4)CC3)ccc21 (nonaromatic ring conformer: 119.32043643364013 kcal/mol)

>  <smiles>  (16) 
Cn1c(CN2CCCC2)nc2cc(S(=O)(=O)C3CCN(CCc4ccccc4)CC3)ccc21

>  <score_type>  (16) 
oracle

>  <origin>  (16) 
adg

>  <m_score__min__energy>  (16) 
-10.6

>  <m_primary>  (16) 
energy

$$$$
16:0
     RDKit          3D

 51 53  0  0  0  0  0  0  0  0999 V2000
   -3.4890   18.9240  -26.3610 C   0  0  0  0  0  0  0  0  0  0  0  0
   -2.0020   18.8030  -26.7110 C   0  0  0  0  0  0  0  0  0  0  0  0
   -1.5200   19.9430  -27.5320 N   0  0  1  0  0  0  0  0  0  0  0  0
   -1.3720   21.1760  -26.7290 C   0  0  0  0  0  0  0  0  0  0  0  0
   -0.2770   19.6110  -28.2820 C   0  0  0  0  0  0  0  0  0  0  0  0
   -0.4650   19.4020  -29.7980 C   0  0  0  0  0  0  0  0  0  0  0  0
   -1.5440   20.1840  -30.2680 O   0  0  0  0  0  0  0  0  0  0  0  0
   -1.1470   20.9140  -31.4070 C   0  0  0  0  0  0  0  0  0  0  0  0
   -2.2380   21.9240  -31.7510 C   0  0  0  0  0  0  0  0  0  0  0  0
   -3.0250   22.2660  -30.5650 N   0  0  0  0  0  0  0  0  0  0  0  0
   -4.2350   23.0320  -30.6610 C   0  0  0  0  0  0  0  0  0  0  0  0
   -4.1950   24.3900  -30.3110 C   0  0  0  0  0  0  0  0  0  0  0  0
   -5.3610   25.1570  -30.3090 C   0  0  0  0  0  0  0  0  0  0  0  0
   -6.5810   24.5780  -30.6600 C   0  0  0  0  0  0  0  0  0  0  0  0
   -6.6400   23.2300  -31.0440 C   0  0  0  0  0  0  0  0  0  0  0  0
   -7.8600   22.6540  -31.4090 C   0  0  0  0  0  0  0  0  0  0  0  0
   -7.9040   21.3140  -31.8100 C   0  0  0  0  0  0  0  0  0  0  0  0
   -9.1330   20.7340  -32.1590 C   0  0  0  0  0  0  0  0  0  0  0  0
   -9.1720   19.4060  -32.5710 C   0  0  0  0  0  0  0  0  0  0  0  0
   -7.9930   18.6700  -32.6440 C   0  0  0  0  0  0  0  0  0  0  0  0
   -6.7830   19.2700  -32.2940 C   0  0  0  0  0  0  0  0  0  0  0  0
   -6.7450   20.5730  -31.8760 N   0  0  0  0  0  0  0  0  0  0  0  0
   -5.5420   21.1240  -31.5250 C   0  0  0  0  0  0  0  0  0  0  0  0
   -5.4600   22.4500  -31.0670 C   0  0  0  0  0  0  0  0  0  0  0  0
   -3.6087   18.9337  -25.2676 H   0  0  0  0  0  0  0  0  0  0  0  0
   -3.8900   19.8577  -26.7821 H   0  0  0  0  0  0  0  0  0  0  0  0
   -4.0357   18.0674  -26.7821 H   0  0  0  0  0  0  0  0  0  0  0  0
   -1.4208   18.7690  -25.7777 H   0  0  0  0  0  0  0  0  0  0  0  0
   -1.8696   17.8843  -27.3014 H   0  0  0  0  0  0  0  0  0  0  0  0
   -2.2430   20.1440  -28.2640 H   0  0  0  0  0  0  0  0  0  0  0  0
   -1.4024   20.9226  -25.6590 H   0  0  0  0  0  0  0  0  0  0  0  0
   -0.4100   21.6542  -26.9653 H   0  0  0  0  0  0  0  0  0  0  0  0
   -2.1935   21.8683  -26.9653 H   0  0  0  0  0  0  0  0  0  0  0  0
    0.4385   20.4339  -28.1374 H   0  0  0  0  0  0  0  0  0  0  0  0
    0.0754   18.6492  -27.8812 H   0  0  0  0  0  0  0  0  0  0  0  0
    0.4549   19.6993  -30.3227 H   0  0  0  0  0  0  0  0  0  0  0  0
   -0.6804   18.3405  -29.9901 H   0  0  0  0  0  0  0  0  0  0  0  0
   -0.2062   21.4438  -31.1967 H   0  0  0  0  0  0  0  0  0  0  0  0
   -0.9924   20.2291  -32.2538 H   0  0  0  0  0  0  0  0  0  0  0  0
   -1.7712   22.8370  -32.1492 H   0  0  0  0  0  0  0  0  0  0  0  0
   -2.9075   21.4769  -32.5006 H   0  0  0  0  0  0  0  0  0  0  0  0
   -2.8620   21.7080  -29.6960 H   0  0  0  0  0  0  0  0  0  0  0  0
   -3.2365   24.8542  -30.0358 H   0  0  0  0  0  0  0  0  0  0  0  0
   -5.3181   26.2202  -30.0301 H   0  0  0  0  0  0  0  0  0  0  0  0
   -7.5006   25.1812  -30.6355 H   0  0  0  0  0  0  0  0  0  0  0  0
   -8.7828   23.2521  -31.3812 H   0  0  0  0  0  0  0  0  0  0  0  0
  -10.0591   21.3253  -32.1072 H   0  0  0  0  0  0  0  0  0  0  0  0
  -10.1315   18.9391  -32.8382 H   0  0  0  0  0  0  0  0  0  0  0  0
   -8.0150   17.6214  -32.9757 H   0  0  0  0  0  0  0  0  0  0  0  0
   -5.8502   18.6902  -32.3545 H   0  0  0  0  0  0  0  0  0  0  0  0
   -4.6260   20.5199  -31.6026 H   0  0  0  0  0  0  0  0  0  0  0  0
  1  2  1  0
  2  3  1  0
  3  4  1  0
  3  5  1  0
  5  6  1  0
  6  7  1  0
  7  8  1  0
  8  9  1  0
  9 10  1  0
 10 11  1  0
 11 12  2  0
 12 13  1  0
 13 14  2  0
 14 15  1  0
 15 16  2  0
 16 17  1  0
 17 18  2  0
 18 19  1  0
 19 20  2  0
 20 21  1  0
 21 22  2  0
 22 23  1  0
 23 24  2  0
 24 11  1  0
 24 15  1  0
 22 17  1  0
  1 25  1  0
  1 26  1  0
  1 27  1  0
  2 28  1  0
  2 29  1  0
  3 30  1  6
  4 31  1  0
  4 32  1  0
  4 33  1  0
  5 34  1  0
  5 35  1  0
  6 36  1  0
  6 37  1  0
  8 38  1  0
  8 39  1  0
  9 40  1  0
  9 41  1  0
 10 42  1  0
 12 43  1  0
 13 44  1  0
 14 45  1  0
 16 46  1  0
 18 47  1  0
 19 48  1  0
 20 49  1  0
 21 50  1  0
 23 51  1  0
M  CHG  2   3   1  22   1
M  END
>  <UniqueID>  (17) 
16

>  <SMILES>  (17) 
CC[N@@H+](C)CCOCCNc1cccc2cc3cccc[n+]3cc12

>  <Energy>  (17) 
65.85963575962248

>  <Genealogy>  (17) 
CC[NH+](C)CCOCCNc1cccc2cc3cccc[n+]3cc12 (protonated)
CC[N@@H+](C)CCOCCNc1cccc2cc3cccc[n+]3cc12 (chirality)
CC[N@@H+](C)CCOCCNc1cccc2cc3cccc[n+]3cc12 (3D coordinates assigned)
CC[N@@H+](C)CCOCCNc1cccc2cc3cccc[n+]3cc12 (optimized conformer: 65.85963575962248 kcal/mol)

>  <smiles>  (17) 
CCN(C)CCOCCNc1cccc2cc3cccc[n+]3cc12

>  <score_type>  (17) 
oracle

>  <origin>  (17) 
adg

>  <m_score__min__energy>  (17) 
-6.9400000000000004

>  <m_primary>  (17) 
energy

$$$$
17:0
     RDKit          3D

 45 47  0  0  0  0  0  0  0  0999 V2000
   -3.7370   21.4640  -33.0970 C   0  0  0  0  0  0  0  0  0  0  0  0
   -5.1030   21.6960  -32.6450 N   0  0  0  0  0  0  0  0  0  0  0  0
   -6.1360   20.9240  -32.9670 N   0  0  0  0  0  0  0  0  0  0  0  0
   -7.2370   21.4120  -32.3440 C   0  0  0  0  0  0  0  0  0  0  0  0
   -8.6050   20.7930  -32.4510 C   0  0  0  0  0  0  0  0  0  0  0  0
   -8.5630   19.4580  -33.0820 N   0  0  0  0  0  0  0  0  0  0  0  0
   -8.3730   18.3530  -32.1230 C   0  0  0  0  0  0  0  0  0  0  0  0
   -7.0740   17.5680  -32.3700 C   0  0  0  0  0  0  0  0  0  0  0  0
   -6.8170   17.4370  -33.8220 N   0  0  0  0  0  0  0  0  0  0  0  0
   -6.5960   16.0330  -34.2260 C   0  0  0  0  0  0  0  0  0  0  0  0
   -5.2860   15.4610  -33.6470 C   0  0  0  0  0  0  0  0  0  0  0  0
   -4.1510   16.4990  -33.6000 C   0  0  0  0  0  0  0  0  0  0  0  0
   -4.3950   17.6490  -34.5780 C   0  0  0  0  0  0  0  0  0  0  0  0
   -5.7430   18.3500  -34.3010 C   0  0  0  0  0  0  0  0  0  0  0  0
   -6.8740   22.5330  -31.6170 C   0  0  0  0  0  0  0  0  0  0  0  0
   -7.5880   23.3980  -30.7890 C   0  0  0  0  0  0  0  0  0  0  0  0
   -6.8740   24.4350  -30.1600 C   0  0  0  0  0  0  0  0  0  0  0  0
   -5.4830   24.5800  -30.3710 C   0  0  0  0  0  0  0  0  0  0  0  0
   -4.7920   23.6890  -31.2120 C   0  0  0  0  0  0  0  0  0  0  0  0
   -5.5290   22.6720  -31.8220 C   0  0  0  0  0  0  0  0  0  0  0  0
   -3.0762   21.3518  -32.2248 H   0  0  0  0  0  0  0  0  0  0  0  0
   -3.7023   20.5471  -33.7037 H   0  0  0  0  0  0  0  0  0  0  0  0
   -3.4015   22.3180  -33.7037 H   0  0  0  0  0  0  0  0  0  0  0  0
   -9.0299   20.6948  -31.4411 H   0  0  0  0  0  0  0  0  0  0  0  0
   -9.2242   21.4469  -33.0826 H   0  0  0  0  0  0  0  0  0  0  0  0
   -9.4840   19.3020  -33.5520 H   0  0  0  0  0  0  0  0  0  0  0  0
   -7.8310   19.4140  -33.8300 H   0  0  0  0  0  0  0  0  0  0  0  0
   -8.3432   18.7712  -31.1060 H   0  0  0  0  0  0  0  0  0  0  0  0
   -9.2126   17.6540  -32.2517 H   0  0  0  0  0  0  0  0  0  0  0  0
   -6.2340   18.1005  -31.9001 H   0  0  0  0  0  0  0  0  0  0  0  0
   -7.1765   16.5632  -31.9342 H   0  0  0  0  0  0  0  0  0  0  0  0
   -7.4383   15.4238  -33.8663 H   0  0  0  0  0  0  0  0  0  0  0  0
   -6.5219   16.0043  -35.3231 H   0  0  0  0  0  0  0  0  0  0  0  0
   -5.4796   15.1055  -32.6242 H   0  0  0  0  0  0  0  0  0  0  0  0
   -4.9606   14.6444  -34.3083 H   0  0  0  0  0  0  0  0  0  0  0  0
   -4.0827   16.9065  -32.5806 H   0  0  0  0  0  0  0  0  0  0  0  0
   -3.2154   15.9971  -33.8876 H   0  0  0  0  0  0  0  0  0  0  0  0
   -3.5825   18.3834  -34.4763 H   0  0  0  0  0  0  0  0  0  0  0  0
   -4.4234   17.2358  -35.5970 H   0  0  0  0  0  0  0  0  0  0  0  0
   -5.5795   19.1224  -33.5351 H   0  0  0  0  0  0  0  0  0  0  0  0
   -6.0859   18.7670  -35.2594 H   0  0  0  0  0  0  0  0  0  0  0  0
   -8.6699   23.2745  -30.6330 H   0  0  0  0  0  0  0  0  0  0  0  0
   -7.4019   25.1382  -29.4991 H   0  0  0  0  0  0  0  0  0  0  0  0
   -4.9375   25.3956  -29.8738 H   0  0  0  0  0  0  0  0  0  0  0  0
   -3.7100   23.7898  -31.3829 H   0  0  0  0  0  0  0  0  0  0  0  0
  1  2  1  0
  2  3  1  0
  3  4  2  0
  4  5  1  0
  5  6  1  0
  6  7  1  0
  7  8  1  0
  8  9  1  0
  9 10  1  0
 10 11  1  0
 11 12  1  0
 12 13  1  0
 13 14  1  0
  4 15  1  0
 15 16  2  0
 16 17  1  0
 17 18  2  0
 18 19  1  0
 19 20  2  0
 20  2  1  0
 14  9  1  0
 20 15  1  0
  1 21  1  0
  1 22  1  0
  1 23  1  0
  5 24  1  0
  5 25  1  0
  6 26  1  0
  6 27  1  0
  7 28  1  0
  7 29  1  0
  8 30  1  0
  8 31  1  0
 10 32  1  0
 10 33  1  0
 11 34  1  0
 11 35  1  0
 12 36  1  0
 12 37  1  0
 13 38  1  0
 13 39  1  0
 14 40  1  0
 14 41  1  0
 16 42  1  0
 17 43  1  0
 18 44  1  0
 19 45  1  0
M  CHG  1   6   1
M  END
>  <UniqueID>  (18) 
17

>  <SMILES>  (18) 
Cn1nc(C[NH2+]CCN2CCCCC2)c2ccccc21

>  <Energy>  (18) 
90.98541021987238

>  <Genealogy>  (18) 
Cn1nc(C[NH2+]CCN2CCCCC2)c2ccccc21 (protonated)
Cn1nc(C[NH2+]CCN2CCCCC2)c2ccccc21 (3D coordinates assigned)
Cn1nc(C[NH2+]CCN2CCCCC2)c2ccccc21 (nonaromatic ring conformer: 90.98541021987238 kcal/mol)

>  <smiles>  (18) 
Cn1nc(CNCCN2CCCCC2)c2ccccc21

>  <score_type>  (18) 
oracle

>  <origin>  (18) 
adg

>  <m_score__min__energy>  (18) 
-6.7400000000000002

>  <m_primary>  (18) 
energy

$$$$
18:0
     RDKit          3D

 39 40  0  0  0  0  0  0  0  0999 V2000
   -2.0150   24.8970  -28.3510 C   0  0  0  0  0  0  0  0  0  0  0  0
   -2.6250   24.3160  -29.6210 C   0  0  0  0  0  0  0  0  0  0  0  0
   -3.6010   25.2050  -30.1590 O   0  0  0  0  0  0  0  0  0  0  0  0
   -4.9800   24.9850  -30.0610 C   0  0  0  0  0  0  0  0  0  0  0  0
   -5.5440   24.9110  -28.9350 O   0  0  0  0  0  0  0  0  0  0  0  0
   -5.7790   24.7840  -31.3070 C   0  0  0  0  0  0  0  0  0  0  0  0
   -5.7750   23.3290  -31.6850 C   0  0  0  0  0  0  0  0  0  0  0  0
   -6.9320   22.7310  -32.2060 C   0  0  0  0  0  0  0  0  0  0  0  0
   -6.9180   21.3880  -32.5970 C   0  0  0  0  0  0  0  0  0  0  0  0
   -5.7430   20.6280  -32.4840 C   0  0  0  0  0  0  0  0  0  0  0  0
   -5.7310   19.2470  -32.8830 N   0  0  0  0  0  0  0  0  0  0  0  0
   -4.7250   18.7310  -33.8160 C   0  0  0  0  0  0  0  0  0  0  0  0
   -5.3710   17.8160  -34.8670 C   0  0  0  0  0  0  0  0  0  0  0  0
   -6.0030   16.5650  -34.2340 C   0  0  0  0  0  0  0  0  0  0  0  0
   -7.2280   16.9020  -33.3800 C   0  0  0  0  0  0  0  0  0  0  0  0
   -6.7990   18.1020  -32.1370 S   0  0  0  0  0  0  0  0  0  0  0  0
   -8.0490   18.7890  -31.6600 O   0  0  0  0  0  0  0  0  0  0  0  0
   -6.1110   17.4350  -30.9800 O   0  0  0  0  0  0  0  0  0  0  0  0
   -4.5840   21.2310  -31.9700 C   0  0  0  0  0  0  0  0  0  0  0  0
   -4.5970   22.5720  -31.5800 C   0  0  0  0  0  0  0  0  0  0  0  0
   -2.4940   24.4407  -27.4722 H   0  0  0  0  0  0  0  0  0  0  0  0
   -0.9359   24.6845  -28.3321 H   0  0  0  0  0  0  0  0  0  0  0  0
   -2.1748   25.9852  -28.3321 H   0  0  0  0  0  0  0  0  0  0  0  0
   -1.8301   24.1583  -30.3648 H   0  0  0  0  0  0  0  0  0  0  0  0
   -3.1113   23.3601  -29.3766 H   0  0  0  0  0  0  0  0  0  0  0  0
   -6.8141   25.1136  -31.1342 H   0  0  0  0  0  0  0  0  0  0  0  0
   -5.3340   25.3725  -32.1228 H   0  0  0  0  0  0  0  0  0  0  0  0
   -7.8548   23.3210  -32.3076 H   0  0  0  0  0  0  0  0  0  0  0  0
   -7.8328   20.9248  -32.9952 H   0  0  0  0  0  0  0  0  0  0  0  0
   -4.2383   19.5762  -34.3246 H   0  0  0  0  0  0  0  0  0  0  0  0
   -3.9856   18.1471  -33.2483 H   0  0  0  0  0  0  0  0  0  0  0  0
   -6.1536   18.3801  -35.3956 H   0  0  0  0  0  0  0  0  0  0  0  0
   -4.5824   17.4844  -35.5585 H   0  0  0  0  0  0  0  0  0  0  0  0
   -6.3096   15.8786  -35.0371 H   0  0  0  0  0  0  0  0  0  0  0  0
   -5.2510   16.1039  -33.5768 H   0  0  0  0  0  0  0  0  0  0  0  0
   -8.0185   17.3134  -34.0248 H   0  0  0  0  0  0  0  0  0  0  0  0
   -7.5849   15.9859  -32.8867 H   0  0  0  0  0  0  0  0  0  0  0  0
   -3.6592   20.6432  -31.8738 H   0  0  0  0  0  0  0  0  0  0  0  0
   -3.6802   23.0373  -31.1888 H   0  0  0  0  0  0  0  0  0  0  0  0
  1  2  1  0
  2  3  1  0
  3  4  1  0
  4  5  2  0
  4  6  1  0
  6  7  1  0
  7  8  2  0
  8  9  1  0
  9 10  2  0
 10 11  1  0
 11 12  1  0
 12 13  1  0
 13 14  1  0
 14 15  1  0
 15 16  1  0
 16 17  2  0
 16 18  2  0
 10 19  1  0
 19 20  2  0
 20  7  1  0
 16 11  1  0
  1 21  1  0
  1 22  1  0
  1 23  1  0
  2 24  1  0
  2 25  1  0
  6 26  1  0
  6 27  1  0
  8 28  1  0
  9 29  1  0
 12 30  1  0
 12 31  1  0
 13 32  1  0
 13 33  1  0
 14 34  1  0
 14 35  1  0
 15 36  1  0
 15 37  1  0
 19 38  1  0
 20 39  1  0
M  END
>  <UniqueID>  (19) 
18

>  <SMILES>  (19) 
CCOC(=O)Cc1ccc(N2CCCCS2(=O)=O)cc1

>  <Energy>  (19) 
31.44474146719473

>  <Genealogy>  (19) 
CCOC(=O)Cc1ccc(N2CCCCS2(=O)=O)cc1 (3D coordinates assigned)
CCOC(=O)Cc1ccc(N2CCCCS2(=O)=O)cc1 (nonaromatic ring conformer: 31.44474146719473 kcal/mol)

>  <smiles>  (19) 
CCOC(=O)Cc1ccc(N2CCCCS2(=O)=O)cc1

>  <score_type>  (19) 
oracle

>  <origin>  (19) 
adg

>  <m_score__min__energy>  (19) 
-7.6900000000000004

>  <m_primary>  (19) 
energy

$$$$
19:0
     RDKit          3D

 45 47  0  0  0  0  0  0  0  0999 V2000
   -5.2640   25.2610  -30.5320 C   0  0  0  0  0  0  0  0  0  0  0  0
   -3.8440   24.9090  -30.4570 N   0  0  0  0  0  0  0  0  0  0  0  0
   -3.6870   23.5190  -30.0060 C   0  0  0  0  0  0  0  0  0  0  0  0
   -2.2300   23.0540  -30.1500 C   0  0  0  0  0  0  0  0  0  0  0  0
   -2.0610   21.5870  -30.5900 C   0  0  0  0  0  0  0  0  0  0  0  0
   -1.1380   21.4530  -31.7320 N   0  0  0  0  0  0  0  0  0  0  0  0
   -1.8460   21.5230  -33.0220 C   0  0  0  0  0  0  0  0  0  0  0  0
   -3.2120   20.8820  -32.9540 C   0  0  0  0  0  0  0  0  0  0  0  0
   -3.3510   19.4770  -33.0870 C   0  0  0  0  0  0  0  0  0  0  0  0
   -4.6140   18.8660  -33.0030 C   0  0  0  0  0  0  0  0  0  0  0  0
   -5.7290   19.6820  -32.7910 C   0  0  0  0  0  0  0  0  0  0  0  0
   -5.5910   21.0480  -32.6550 C   0  0  0  0  0  0  0  0  0  0  0  0
   -4.3520   21.6810  -32.7300 C   0  0  0  0  0  0  0  0  0  0  0  0
   -6.8520   21.5450  -32.4180 C   0  0  0  0  0  0  0  0  0  0  0  0
   -7.3030   22.8410  -32.1760 C   0  0  0  0  0  0  0  0  0  0  0  0
   -8.6750   23.0200  -31.9300 C   0  0  0  0  0  0  0  0  0  0  0  0
   -9.5540   21.9150  -31.9230 C   0  0  0  0  0  0  0  0  0  0  0  0
   -9.0720   20.6160  -32.1670 C   0  0  0  0  0  0  0  0  0  0  0  0
   -7.7050   20.4570  -32.4200 C   0  0  0  0  0  0  0  0  0  0  0  0
   -7.0280   19.3070  -32.6670 N   0  0  0  0  0  0  0  0  0  0  0  0
   -7.5630   17.9450  -32.6700 C   0  0  0  0  0  0  0  0  0  0  0  0
   -5.6710   25.3619  -29.5150 H   0  0  0  0  0  0  0  0  0  0  0  0
   -5.3776   26.2145  -31.0686 H   0  0  0  0  0  0  0  0  0  0  0  0
   -5.8098   24.4710  -31.0686 H   0  0  0  0  0  0  0  0  0  0  0  0
   -3.4650   24.9800  -31.4300 H   0  0  0  0  0  0  0  0  0  0  0  0
   -3.9843   23.4480  -28.9493 H   0  0  0  0  0  0  0  0  0  0  0  0
   -4.3236   22.8744  -30.6299 H   0  0  0  0  0  0  0  0  0  0  0  0
   -1.7386   23.6943  -30.8974 H   0  0  0  0  0  0  0  0  0  0  0  0
   -1.7797   23.1313  -29.1494 H   0  0  0  0  0  0  0  0  0  0  0  0
   -1.6649   21.0063  -29.7439 H   0  0  0  0  0  0  0  0  0  0  0  0
   -3.0461   21.2123  -30.9050 H   0  0  0  0  0  0  0  0  0  0  0  0
   -0.3990   22.1940  -31.6900 H   0  0  0  0  0  0  0  0  0  0  0  0
   -0.6710   20.5190  -31.6840 H   0  0  0  0  0  0  0  0  0  0  0  0
   -1.9632   22.5793  -33.3058 H   0  0  0  0  0  0  0  0  0  0  0  0
   -1.2503   20.9744  -33.7664 H   0  0  0  0  0  0  0  0  0  0  0  0
   -2.4586   18.8571  -33.2582 H   0  0  0  0  0  0  0  0  0  0  0  0
   -4.7221   17.7757  -33.1014 H   0  0  0  0  0  0  0  0  0  0  0  0
   -4.2657   22.7719  -32.6178 H   0  0  0  0  0  0  0  0  0  0  0  0
   -6.6091   23.6945  -32.1775 H   0  0  0  0  0  0  0  0  0  0  0  0
   -9.0677   24.0300  -31.7412 H   0  0  0  0  0  0  0  0  0  0  0  0
  -10.6247   22.0711  -31.7251 H   0  0  0  0  0  0  0  0  0  0  0  0
   -9.7503   19.7501  -32.1591 H   0  0  0  0  0  0  0  0  0  0  0  0
   -7.6978   17.6017  -31.6337 H   0  0  0  0  0  0  0  0  0  0  0  0
   -8.5326   17.9331  -33.1893 H   0  0  0  0  0  0  0  0  0  0  0  0
   -6.8607   17.2763  -33.1893 H   0  0  0  0  0  0  0  0  0  0  0  0
  1  2  1  0
  2  3  1  0
  3  4  1  0
  4  5  1  0
  5  6  1  0
  6  7  1  0
  7  8  1  0
  8  9  2  0
  9 10  1  0
 10 11  2  0
 11 12  1  0
 12 13  2  0
 12 14  1  0
 14 15  2  0
 15 16  1  0
 16 17  2  0
 17 18  1  0
 18 19  2  0
 19 20  1  0
 20 21  1  0
 13  8  1  0
 19 14  1  0
 20 11  1  0
  1 22  1  0
  1 23  1  0
  1 24  1  0
  2 25  1  0
  3 26  1  0
  3 27  1  0
  4 28  1  0
  4 29  1  0
  5 30  1  0
  5 31  1  0
  6 32  1  0
  6 33  1  0
  7 34  1  0
  7 35  1  0
  9 36  1  0
 10 37  1  0
 13 38  1  0
 15 39  1  0
 16 40  1  0
 17 41  1  0
 18 42  1  0
 21 43  1  0
 21 44  1  0
 21 45  1  0
M  CHG  1   6   1
M  END
>  <UniqueID>  (20) 
19

>  <SMILES>  (20) 
CNCCC[NH2+]Cc1ccc2c(c1)c1ccccc1n2C

>  <Energy>  (20) 
83.64852053778057

>  <Genealogy>  (20) 
CNCCC[NH2+]Cc1ccc2c(c1)c1ccccc1n2C (protonated)
CNCCC[NH2+]Cc1ccc2c(c1)c1ccccc1n2C (3D coordinates assigned)
CNCCC[NH2+]Cc1ccc2c(c1)c1ccccc1n2C (optimized conformer: 83.64852053778057 kcal/mol)

>  <smiles>  (20) 
CNCCCNCc1ccc2c(c1)c1ccccc1n2C

>  <score_type>  (20) 
oracle

>  <origin>  (20) 
adg

>  <m_score__min__energy>  (20) 
-7.71

>  <m_primary>  (20) 
energy

$$$$
20:0
     RDKit          3D

 62 64  0  0  0  0  0  0  0  0999 V2000
   -3.2830   23.3310  -29.2640 C   0  0  0  0  0  0  0  0  0  0  0  0
   -3.3890   23.5250  -30.7720 C   0  0  0  0  0  0  0  0  0  0  0  0
   -4.8120   23.5580  -31.1820 N   0  0  0  0  0  0  0  0  0  0  0  0
   -5.3740   24.9260  -31.1350 C   0  0  0  0  0  0  0  0  0  0  0  0
   -6.1550   25.1810  -29.8420 C   0  0  0  0  0  0  0  0  0  0  0  0
   -5.6260   22.5200  -30.4980 C   0  0  0  0  0  0  0  0  0  0  0  0
   -5.6580   21.1510  -31.2180 C   0  0  0  0  0  0  0  0  0  0  0  0
   -5.4440   21.3140  -32.6700 N   0  0  0  0  0  0  0  0  0  0  0  0
   -4.7480   20.1710  -33.2430 C   0  0  0  0  0  0  0  0  0  0  0  0
   -3.3440   20.2590  -33.4920 C   0  0  0  0  0  0  0  0  0  0  0  0
   -2.6100   21.4500  -33.2470 C   0  0  0  0  0  0  0  0  0  0  0  0
   -1.2400   21.5180  -33.4870 C   0  0  0  0  0  0  0  0  0  0  0  0
   -0.5570   20.4070  -33.9520 C   0  0  0  0  0  0  0  0  0  0  0  0
   -1.2430   19.2210  -34.1950 C   0  0  0  0  0  0  0  0  0  0  0  0
   -2.6440   19.1240  -33.9890 C   0  0  0  0  0  0  0  0  0  0  0  0
   -3.3110   17.9440  -34.2130 N   0  0  0  0  0  0  0  0  0  0  0  0
   -2.6570   16.8560  -34.9780 C   0  0  0  0  0  0  0  0  0  0  0  0
   -4.5960   17.7750  -33.7480 C   0  0  0  0  0  0  0  0  0  0  0  0
   -5.1240   16.4760  -33.5720 C   0  0  0  0  0  0  0  0  0  0  0  0
   -6.4410   16.2800  -33.2000 C   0  0  0  0  0  0  0  0  0  0  0  0
   -7.2880   17.3650  -33.0640 C   0  0  0  0  0  0  0  0  0  0  0  0
   -6.8130   18.6800  -33.2160 C   0  0  0  0  0  0  0  0  0  0  0  0
   -7.7870   19.7310  -33.3710 N   0  0  0  0  0  0  0  0  0  0  0  0
   -9.0220   19.8630  -32.5880 C   0  0  0  0  0  0  0  0  0  0  0  0
   -9.1520   21.2490  -31.9550 C   0  0  0  0  0  0  0  0  0  0  0  0
   -8.1010   22.0790  -32.3960 O   0  0  0  0  0  0  0  0  0  0  0  0
   -8.3730   23.4110  -32.0300 C   0  0  0  0  0  0  0  0  0  0  0  0
   -5.4040   18.9040  -33.4170 C   0  0  0  0  0  0  0  0  0  0  0  0
   -3.7495   24.1848  -28.7508 H   0  0  0  0  0  0  0  0  0  0  0  0
   -3.7997   22.4034  -28.9764 H   0  0  0  0  0  0  0  0  0  0  0  0
   -2.2233   23.2647  -28.9764 H   0  0  0  0  0  0  0  0  0  0  0  0
   -2.9077   24.4738  -31.0515 H   0  0  0  0  0  0  0  0  0  0  0  0
   -2.8875   22.6874  -31.2790 H   0  0  0  0  0  0  0  0  0  0  0  0
   -4.5495   25.6512  -31.2009 H   0  0  0  0  0  0  0  0  0  0  0  0
   -6.0697   25.0369  -31.9798 H   0  0  0  0  0  0  0  0  0  0  0  0
   -5.5098   24.9703  -28.9763 H   0  0  0  0  0  0  0  0  0  0  0  0
   -6.4792   26.2317  -29.8106 H   0  0  0  0  0  0  0  0  0  0  0  0
   -7.0367   24.5241  -29.8106 H   0  0  0  0  0  0  0  0  0  0  0  0
   -5.2124   22.3683  -29.4900 H   0  0  0  0  0  0  0  0  0  0  0  0
   -6.6613   22.8917  -30.4872 H   0  0  0  0  0  0  0  0  0  0  0  0
   -4.8648   20.5093  -30.8069 H   0  0  0  0  0  0  0  0  0  0  0  0
   -6.6450   20.6926  -31.0576 H   0  0  0  0  0  0  0  0  0  0  0  0
   -6.3610   21.4580  -33.1480 H   0  0  0  0  0  0  0  0  0  0  0  0
   -4.9500   22.2010  -32.8900 H   0  0  0  0  0  0  0  0  0  0  0  0
   -3.1341   22.3363  -32.8600 H   0  0  0  0  0  0  0  0  0  0  0  0
   -0.6982   22.4582  -33.3064 H   0  0  0  0  0  0  0  0  0  0  0  0
    0.5272   20.4619  -34.1292 H   0  0  0  0  0  0  0  0  0  0  0  0
   -0.6886   18.3413  -34.5538 H   0  0  0  0  0  0  0  0  0  0  0  0
   -2.2194   16.1281  -34.2790 H   0  0  0  0  0  0  0  0  0  0  0  0
   -3.4029   16.3535  -35.6114 H   0  0  0  0  0  0  0  0  0  0  0  0
   -1.8633   17.2789  -35.6114 H   0  0  0  0  0  0  0  0  0  0  0  0
   -4.4741   15.6034  -33.7342 H   0  0  0  0  0  0  0  0  0  0  0  0
   -6.8148   15.2626  -33.0124 H   0  0  0  0  0  0  0  0  0  0  0  0
   -8.3503   17.1966  -32.8332 H   0  0  0  0  0  0  0  0  0  0  0  0
   -7.7070   20.3380  -34.2100 H   0  0  0  0  0  0  0  0  0  0  0  0
   -9.8831   19.6930  -33.2511 H   0  0  0  0  0  0  0  0  0  0  0  0
   -8.9921   19.1201  -31.7774 H   0  0  0  0  0  0  0  0  0  0  0  0
  -10.1149   21.6940  -32.2463 H   0  0  0  0  0  0  0  0  0  0  0  0
   -9.1024   21.1530  -30.8603 H   0  0  0  0  0  0  0  0  0  0  0  0
   -8.3899   23.4937  -30.9332 H   0  0  0  0  0  0  0  0  0  0  0  0
   -7.5908   24.0697  -32.4354 H   0  0  0  0  0  0  0  0  0  0  0  0
   -9.3508   23.7103  -32.4354 H   0  0  0  0  0  0  0  0  0  0  0  0
  1  2  1  0
  2  3  1  0
  3  4  1  0
  4  5  1  0
  3  6  1  0
  6  7  1  0
  7  8  1  0
  8  9  1  0
  9 10  2  0
 10 11  1  0
 11 12  2  0
 12 13  1  0
 13 14  2  0
 14 15  1  0
 15 16  2  0
 16 17  1  0
 16 18  1  0
 18 19  2  0
 19 20  1  0
 20 21  2  0
 21 22  1  0
 22 23  1  0
 23 24  1  0
 24 25  1  0
 25 26  1  0
 26 27  1  0
 22 28  2  0
 28  9  1  0
 15 10  1  0
 28 18  1  0
  1 29  1  0
  1 30  1  0
  1 31  1  0
  2 32  1  0
  2 33  1  0
  4 34  1  0
  4 35  1  0
  5 36  1  0
  5 37  1  0
  5 38  1  0
  6 39  1  0
  6 40  1  0
  7 41  1  0
  7 42  1  0
  8 43  1  0
  8 44  1  0
 11 45  1  0
 12 46  1  0
 13 47  1  0
 14 48  1  0
 17 49  1  0
 17 50  1  0
 17 51  1  0
 19 52  1  0
 20 53  1  0
 21 54  1  0
 23 55  1  0
 24 56  1  0
 24 57  1  0
 25 58  1  0
 25 59  1  0
 27 60  1  0
 27 61  1  0
 27 62  1  0
M  CHG  2   8   1  16   1
M  END
>  <UniqueID>  (21) 
20

>  <SMILES>  (21) 
CCN(CC)CC[NH2+]c1c2ccccc2[n+](C)c2cccc(NCCOC)c12

>  <Energy>  (21) 
104.08695623875278

>  <Genealogy>  (21) 
CCN(CC)CC[NH2+]c1c2ccccc2[n+](C)c2cccc(NCCOC)c12 (protonated)
CCN(CC)CC[NH2+]c1c2ccccc2[n+](C)c2cccc(NCCOC)c12 (3D coordinates assigned)
CCN(CC)CC[NH2+]c1c2ccccc2[n+](C)c2cccc(NCCOC)c12 (optimized conformer: 104.08695623875278 kcal/mol)

>  <smiles>  (21) 
CCN(CC)CCNc1c2ccccc2[n+](C)c2cccc(NCCOC)c12

>  <score_type>  (21) 
oracle

>  <origin>  (21) 
adg

>  <m_score__min__energy>  (21) 
-8.0999999999999996

>  <m_primary>  (21) 
energy

$$$$
21:0
     RDKit          3D

 48 51  0  0  0  0  0  0  0  0999 V2000
   -5.7400   19.0140  -34.2090 C   0  0  0  0  0  0  0  0  0  0  0  0
   -5.9920   20.1030  -33.2700 N   0  0  0  0  0  0  0  0  0  0  0  0
   -5.0680   20.9480  -32.7540 C   0  0  0  0  0  0  0  0  0  0  0  0
   -5.6770   21.8610  -31.8960 C   0  0  0  0  0  0  0  0  0  0  0  0
   -5.0050   22.9340  -31.1450 C   0  0  0  0  0  0  0  0  0  0  0  0
   -4.4150   22.8210  -29.9020 C   0  0  0  0  0  0  0  0  0  0  0  0
   -3.9400   24.0920  -29.6570 C   0  0  0  0  0  0  0  0  0  0  0  0
   -3.1710   24.5290  -28.4410 C   0  0  0  0  0  0  0  0  0  0  0  0
   -2.0100   25.3640  -28.7950 N   0  0  0  0  0  0  0  0  0  0  0  0
   -0.7350   24.7710  -28.3600 C   0  0  0  0  0  0  0  0  0  0  0  0
   -0.2600   25.4320  -27.0470 C   0  0  0  0  0  0  0  0  0  0  0  0
   -1.1890   26.4510  -26.5030 N   0  0  0  0  0  0  0  0  0  0  0  0
   -0.5470   27.7470  -26.2340 C   0  0  0  0  0  0  0  0  0  0  0  0
   -0.5270   27.9710  -24.7250 C   0  0  0  0  0  0  0  0  0  0  0  0
   -1.2040   26.7610  -24.1110 C   0  0  0  0  0  0  0  0  0  0  0  0
   -1.8700   26.0400  -25.2690 C   0  0  0  0  0  0  0  0  0  0  0  0
   -4.2280   24.8970  -30.6970 N   0  0  0  0  0  0  0  0  0  0  0  0
   -4.8670   24.1710  -31.5670 O   0  0  0  0  0  0  0  0  0  0  0  0
   -7.0260   21.5450  -31.9040 C   0  0  0  0  0  0  0  0  0  0  0  0
   -8.1150   22.1130  -31.2390 C   0  0  0  0  0  0  0  0  0  0  0  0
   -9.3870   21.5520  -31.4570 C   0  0  0  0  0  0  0  0  0  0  0  0
   -9.5440   20.4510  -32.3250 C   0  0  0  0  0  0  0  0  0  0  0  0
   -8.4320   19.8970  -32.9840 C   0  0  0  0  0  0  0  0  0  0  0  0
   -7.1790   20.4720  -32.7500 C   0  0  0  0  0  0  0  0  0  0  0  0
   -5.5263   18.0906  -33.6508 H   0  0  0  0  0  0  0  0  0  0  0  0
   -6.6269   18.8629  -34.8419 H   0  0  0  0  0  0  0  0  0  0  0  0
   -4.8769   19.2679  -34.8419 H   0  0  0  0  0  0  0  0  0  0  0  0
   -3.9919   20.9178  -32.9798 H   0  0  0  0  0  0  0  0  0  0  0  0
   -4.3415   21.9303  -29.2607 H   0  0  0  0  0  0  0  0  0  0  0  0
   -3.8393   25.1083  -27.7870 H   0  0  0  0  0  0  0  0  0  0  0  0
   -2.7996   23.6279  -27.9310 H   0  0  0  0  0  0  0  0  0  0  0  0
   -2.1180   26.3060  -28.3490 H   0  0  0  0  0  0  0  0  0  0  0  0
   -0.8736   23.6924  -28.1944 H   0  0  0  0  0  0  0  0  0  0  0  0
    0.0227   24.9367  -29.1400 H   0  0  0  0  0  0  0  0  0  0  0  0
   -0.1337   24.6431  -26.2909 H   0  0  0  0  0  0  0  0  0  0  0  0
    0.6784   25.9561  -27.2811 H   0  0  0  0  0  0  0  0  0  0  0  0
    0.4823   27.7393  -26.6220 H   0  0  0  0  0  0  0  0  0  0  0  0
   -1.1058   28.5552  -26.7285 H   0  0  0  0  0  0  0  0  0  0  0  0
    0.5092   28.0524  -24.3649 H   0  0  0  0  0  0  0  0  0  0  0  0
   -1.0432   28.9027  -24.4503 H   0  0  0  0  0  0  0  0  0  0  0  0
   -0.4617   26.1089  -23.6275 H   0  0  0  0  0  0  0  0  0  0  0  0
   -1.9302   27.0481  -23.3362 H   0  0  0  0  0  0  0  0  0  0  0  0
   -1.7783   24.9520  -25.1352 H   0  0  0  0  0  0  0  0  0  0  0  0
   -2.9392   26.2939  -25.3166 H   0  0  0  0  0  0  0  0  0  0  0  0
   -7.9824   22.9725  -30.5655 H   0  0  0  0  0  0  0  0  0  0  0  0
  -10.2651   21.9749  -30.9470 H   0  0  0  0  0  0  0  0  0  0  0  0
  -10.5440   20.0225  -32.4876 H   0  0  0  0  0  0  0  0  0  0  0  0
   -8.5443   19.0383  -33.6622 H   0  0  0  0  0  0  0  0  0  0  0  0
  1  2  1  0
  2  3  1  0
  3  4  2  0
  4  5  1  0
  5  6  2  0
  6  7  1  0
  7  8  1  0
  8  9  1  0
  9 10  1  0
 10 11  1  0
 11 12  1  0
 12 13  1  0
 13 14  1  0
 14 15  1  0
 15 16  1  0
  7 17  2  0
 17 18  1  0
  4 19  1  0
 19 20  2  0
 20 21  1  0
 21 22  2  0
 22 23  1  0
 23 24  2  0
 24  2  1  0
 18  5  1  0
 24 19  1  0
 16 12  1  0
  1 25  1  0
  1 26  1  0
  1 27  1  0
  3 28  1  0
  6 29  1  0
  8 30  1  0
  8 31  1  0
  9 32  1  0
 10 33  1  0
 10 34  1  0
 11 35  1  0
 11 36  1  0
 13 37  1  0
 13 38  1  0
 14 39  1  0
 14 40  1  0
 15 41  1  0
 15 42  1  0
 16 43  1  0
 16 44  1  0
 20 45  1  0
 21 46  1  0
 22 47  1  0
 23 48  1  0
M  END
>  <UniqueID>  (22) 
21

>  <SMILES>  (22) 
Cn1cc(-c2cc(CNCCN3CCCC3)no2)c2ccccc21

>  <Energy>  (22) 
118.54191427779905

>  <Genealogy>  (22) 
Cn1cc(-c2cc(CNCCN3CCCC3)no2)c2ccccc21 (3D coordinates assigned)
Cn1cc(-c2cc(CNCCN3CCCC3)no2)c2ccccc21 (nonaromatic ring conformer: 118.54191427779905 kcal/mol)

>  <smiles>  (22) 
Cn1cc(-c2cc(CNCCN3CCCC3)no2)c2ccccc21

>  <score_type>  (22) 
oracle

>  <origin>  (22) 
adg

>  <m_score__min__energy>  (22) 
-9.3599999999999994

>  <m_primary>  (22) 
energy

$$$$
22:0
     RDKit          3D

 74 76  0  0  0  0  0  0  0  0999 V2000
   -2.7770   18.8690  -26.2130 C   0  0  0  0  0  0  0  0  0  0  0  0
   -2.9780   19.7290  -27.4680 C   0  0  0  0  0  0  0  0  0  0  0  0
   -1.7390   20.4450  -27.8790 N   0  0  0  0  0  0  0  0  0  0  0  0
   -0.9970   19.6750  -28.9180 C   0  0  0  0  0  0  0  0  0  0  0  0
    0.0740   18.7440  -28.3410 C   0  0  0  0  0  0  0  0  0  0  0  0
   -0.9130   20.8000  -26.6900 C   0  0  0  0  0  0  0  0  0  0  0  0
   -0.8890   22.3040  -26.3480 C   0  0  0  0  0  0  0  0  0  0  0  0
   -1.8450   22.9660  -27.1540 O   0  0  0  0  0  0  0  0  0  0  0  0
   -1.4780   24.3190  -27.3640 C   0  0  0  0  0  0  0  0  0  0  0  0
   -1.4150   24.6630  -28.8550 C   0  0  0  0  0  0  0  0  0  0  0  0
   -2.7160   24.9600  -29.3270 O   0  0  0  0  0  0  0  0  0  0  0  0
   -3.1670   23.9540  -30.2140 C   0  0  0  0  0  0  0  0  0  0  0  0
   -3.5220   22.6870  -29.4370 C   0  0  0  0  0  0  0  0  0  0  0  0
   -3.1550   21.5560  -30.1990 O   0  0  0  0  0  0  0  0  0  0  0  0
   -2.4520   21.9480  -31.3630 C   0  0  0  0  0  0  0  0  0  0  0  0
   -2.5310   20.8690  -32.4480 C   0  0  0  0  0  0  0  0  0  0  0  0
   -3.6010   21.1610  -33.4000 N   0  0  0  0  0  0  0  0  0  0  0  0
   -4.9470   20.7420  -33.1250 C   0  0  0  0  0  0  0  0  0  0  0  0
   -5.8510   21.6280  -32.5180 C   0  0  0  0  0  0  0  0  0  0  0  0
   -5.4390   22.9170  -32.1170 C   0  0  0  0  0  0  0  0  0  0  0  0
   -6.3190   23.7760  -31.4630 C   0  0  0  0  0  0  0  0  0  0  0  0
   -7.6160   23.3620  -31.1870 C   0  0  0  0  0  0  0  0  0  0  0  0
   -8.0470   22.0940  -31.5780 C   0  0  0  0  0  0  0  0  0  0  0  0
   -7.1860   21.2080  -32.2740 C   0  0  0  0  0  0  0  0  0  0  0  0
   -7.6060   19.9570  -32.6850 N   0  0  0  0  0  0  0  0  0  0  0  0
   -9.0490   19.6250  -32.6860 C   0  0  0  0  0  0  0  0  0  0  0  0
   -6.6800   19.0230  -33.1130 C   0  0  0  0  0  0  0  0  0  0  0  0
   -7.0190   17.6540  -33.2750 C   0  0  0  0  0  0  0  0  0  0  0  0
   -6.0870   16.7240  -33.7540 C   0  0  0  0  0  0  0  0  0  0  0  0
   -6.4820   15.2890  -33.9490 C   0  0  0  0  0  0  0  0  0  0  0  0
   -4.8070   17.1540  -34.1050 C   0  0  0  0  0  0  0  0  0  0  0  0
   -4.4330   18.4820  -33.9120 C   0  0  0  0  0  0  0  0  0  0  0  0
   -5.3440   19.4180  -33.3840 C   0  0  0  0  0  0  0  0  0  0  0  0
   -2.9220   19.4894  -25.3163 H   0  0  0  0  0  0  0  0  0  0  0  0
   -3.5070   18.0462  -26.2116 H   0  0  0  0  0  0  0  0  0  0  0  0
   -1.7579   18.4550  -26.2116 H   0  0  0  0  0  0  0  0  0  0  0  0
   -3.2978   19.0767  -28.2940 H   0  0  0  0  0  0  0  0  0  0  0  0
   -3.7376   20.4887  -27.2317 H   0  0  0  0  0  0  0  0  0  0  0  0
   -2.0230   21.3580  -28.3110 H   0  0  0  0  0  0  0  0  0  0  0  0
   -1.7192   19.0670  -29.4826 H   0  0  0  0  0  0  0  0  0  0  0  0
   -0.4795   20.4074  -29.5551 H   0  0  0  0  0  0  0  0  0  0  0  0
    0.0355   18.7774  -27.2422 H   0  0  0  0  0  0  0  0  0  0  0  0
   -0.1115   17.7152  -28.6832 H   0  0  0  0  0  0  0  0  0  0  0  0
    1.0670   19.0709  -28.6832 H   0  0  0  0  0  0  0  0  0  0  0  0
   -1.3126   20.2572  -25.8207 H   0  0  0  0  0  0  0  0  0  0  0  0
    0.1221   20.5206  -26.9360 H   0  0  0  0  0  0  0  0  0  0  0  0
   -1.1375   22.4464  -25.2859 H   0  0  0  0  0  0  0  0  0  0  0  0
    0.1128   22.7165  -26.5382 H   0  0  0  0  0  0  0  0  0  0  0  0
   -2.2208   24.9694  -26.8790 H   0  0  0  0  0  0  0  0  0  0  0  0
   -0.4778   24.4742  -26.9333 H   0  0  0  0  0  0  0  0  0  0  0  0
   -0.7633   25.5369  -29.0023 H   0  0  0  0  0  0  0  0  0  0  0  0
   -1.0103   23.8051  -29.4120 H   0  0  0  0  0  0  0  0  0  0  0  0
   -4.0581   24.3140  -30.7490 H   0  0  0  0  0  0  0  0  0  0  0  0
   -2.3663   23.7227  -30.9319 H   0  0  0  0  0  0  0  0  0  0  0  0
   -2.9790   22.6779  -28.4804 H   0  0  0  0  0  0  0  0  0  0  0  0
   -4.6042   22.6650  -29.2412 H   0  0  0  0  0  0  0  0  0  0  0  0
   -2.8908   22.8793  -31.7505 H   0  0  0  0  0  0  0  0  0  0  0  0
   -1.3951   22.0982  -31.0975 H   0  0  0  0  0  0  0  0  0  0  0  0
   -1.5722   20.8286  -32.9857 H   0  0  0  0  0  0  0  0  0  0  0  0
   -2.7439   19.9030  -31.9668 H   0  0  0  0  0  0  0  0  0  0  0  0
   -3.4560   21.9170  -34.1100 H   0  0  0  0  0  0  0  0  0  0  0  0
   -4.4103   23.2473  -32.3235 H   0  0  0  0  0  0  0  0  0  0  0  0
   -5.9872   24.7816  -31.1652 H   0  0  0  0  0  0  0  0  0  0  0  0
   -8.3057   24.0364  -30.6583 H   0  0  0  0  0  0  0  0  0  0  0  0
   -9.0732   21.7758  -31.3421 H   0  0  0  0  0  0  0  0  0  0  0  0
   -9.4070   19.5426  -31.6492 H   0  0  0  0  0  0  0  0  0  0  0  0
   -9.6074   20.4181  -33.2048 H   0  0  0  0  0  0  0  0  0  0  0  0
   -9.2046   18.6676  -33.2048 H   0  0  0  0  0  0  0  0  0  0  0  0
   -8.0342   17.3165  -33.0192 H   0  0  0  0  0  0  0  0  0  0  0  0
   -6.6142   14.8086  -32.9683 H   0  0  0  0  0  0  0  0  0  0  0  0
   -7.4265   15.2418  -34.5108 H   0  0  0  0  0  0  0  0  0  0  0  0
   -5.6947   14.7651  -34.5108 H   0  0  0  0  0  0  0  0  0  0  0  0
   -4.0893   16.4407  -34.5364 H   0  0  0  0  0  0  0  0  0  0  0  0
   -3.4144   18.8036  -34.1749 H   0  0  0  0  0  0  0  0  0  0  0  0
  1  2  1  0
  2  3  1  0
  3  4  1  0
  4  5  1  0
  3  6  1  0
  6  7  1  0
  7  8  1  0
  8  9  1  0
  9 10  1  0
 10 11  1  0
 11 12  1  0
 12 13  1  0
 13 14  1  0
 14 15  1  0
 15 16  1  0
 16 17  1  0
 17 18  1  0
 18 19  2  0
 19 20  1  0
 20 21  2  0
 21 22  1  0
 22 23  2  0
 23 24  1  0
 24 25  2  0
 25 26  1  0
 25 27  1  0
 27 28  2  0
 28 29  1  0
 29 30  1  0
 29 31  2  0
 31 32  1  0
 32 33  2  0
 33 18  1  0
 24 19  1  0
 33 27  1  0
  1 34  1  0
  1 35  1  0
  1 36  1  0
  2 37  1  0
  2 38  1  0
  3 39  1  0
  4 40  1  0
  4 41  1  0
  5 42  1  0
  5 43  1  0
  5 44  1  0
  6 45  1  0
  6 46  1  0
  7 47  1  0
  7 48  1  0
  9 49  1  0
  9 50  1  0
 10 51  1  0
 10 52  1  0
 12 53  1  0
 12 54  1  0
 13 55  1  0
 13 56  1  0
 15 57  1  0
 15 58  1  0
 16 59  1  0
 16 60  1  0
 17 61  1  0
 20 62  1  0
 21 63  1  0
 22 64  1  0
 23 65  1  0
 26 66  1  0
 26 67  1  0
 26 68  1  0
 28 69  1  0
 30 70  1  0
 30 71  1  0
 30 72  1  0
 31 73  1  0
 32 74  1  0
M  CHG  2   3   1  25   1
M  END
>  <UniqueID>  (23) 
22

>  <SMILES>  (23) 
CC[NH+](CC)CCOCCOCCOCCNc1c2ccccc2[n+](C)c2cc(C)ccc12

>  <Energy>  (23) 
98.16255608486816

>  <Genealogy>  (23) 
CC[NH+](CC)CCOCCOCCOCCNc1c2ccccc2[n+](C)c2cc(C)ccc12 (protonated)
CC[NH+](CC)CCOCCOCCOCCNc1c2ccccc2[n+](C)c2cc(C)ccc12 (3D coordinates assigned)
CC[NH+](CC)CCOCCOCCOCCNc1c2ccccc2[n+](C)c2cc(C)ccc12 (optimized conformer: 98.16255608486816 kcal/mol)

>  <smiles>  (23) 
CCN(CC)CCOCCOCCOCCNc1c2ccccc2[n+](C)c2cc(C)ccc12

>  <score_type>  (23) 
oracle

>  <origin>  (23) 
adg

>  <m_score__min__energy>  (23) 
-9.4199999999999999

>  <m_primary>  (23) 
energy

$$$$
23:0
     RDKit          3D

 65 68  0  0  0  0  0  0  0  0999 V2000
   -9.0240   19.8880  -32.6940 C   0  0  0  0  0  0  0  0  0  0  0  0
   -8.6990   20.8620  -31.5550 C   0  0  0  0  0  0  0  0  0  0  0  0
   -9.1190   22.2860  -31.9530 C   0  0  0  0  0  0  0  0  0  0  0  0
   -7.1960   20.7790  -31.2030 C   0  0  0  0  0  0  0  0  0  0  0  0
   -6.3620   20.1100  -32.3000 C   0  0  0  0  0  0  0  0  0  0  0  0
   -6.0490   21.0720  -33.2870 O   0  0  0  0  0  0  0  0  0  0  0  0
   -4.6480   21.1710  -33.4490 C   0  0  0  0  0  0  0  0  0  0  0  0
   -4.0090   21.5690  -32.1890 N   0  0  0  0  0  0  0  0  0  0  0  0
   -2.9490   20.9830  -31.5720 C   0  0  0  0  0  0  0  0  0  0  0  0
   -2.2960   19.7120  -32.0680 C   0  0  0  0  0  0  0  0  0  0  0  0
   -1.3510   19.9670  -33.2210 C   0  0  0  0  0  0  0  0  0  0  0  0
   -0.9410   18.9210  -34.0710 C   0  0  0  0  0  0  0  0  0  0  0  0
   -0.0990   19.1820  -35.1570 C   0  0  0  0  0  0  0  0  0  0  0  0
    0.3280   20.4880  -35.4160 C   0  0  0  0  0  0  0  0  0  0  0  0
    1.1420   20.7390  -36.4710 F   0  0  0  0  0  0  0  0  0  0  0  0
   -0.0930   21.5340  -34.5920 C   0  0  0  0  0  0  0  0  0  0  0  0
   -0.9330   21.2780  -33.5050 C   0  0  0  0  0  0  0  0  0  0  0  0
   -2.5820   21.7170  -30.4260 C   0  0  0  0  0  0  0  0  0  0  0  0
   -1.4040   21.4590  -29.5170 C   0  0  0  0  0  0  0  0  0  0  0  0
   -0.3480   22.2600  -29.9010 F   0  0  0  0  0  0  0  0  0  0  0  0
   -0.9940   20.1440  -29.5720 F   0  0  0  0  0  0  0  0  0  0  0  0
   -1.7390   21.7270  -28.2060 F   0  0  0  0  0  0  0  0  0  0  0  0
   -3.4480   22.8160  -30.3990 C   0  0  0  0  0  0  0  0  0  0  0  0
   -3.5710   23.9460  -29.5640 C   0  0  0  0  0  0  0  0  0  0  0  0
   -2.7070   24.1890  -28.4470 N   0  0  0  0  0  0  0  0  0  0  0  0
   -1.3160   24.5930  -28.6900 C   0  0  0  0  0  0  0  0  0  0  0  0
   -1.0930   26.0160  -28.1680 C   0  0  0  0  0  0  0  0  0  0  0  0
   -1.5890   26.2110  -26.7140 C   0  0  0  0  0  0  0  0  0  0  0  0
   -2.2960   24.9760  -26.1280 C   0  0  0  0  0  0  0  0  0  0  0  0
   -3.3110   24.4000  -27.1220 C   0  0  0  0  0  0  0  0  0  0  0  0
   -4.5780   24.8810  -29.8740 C   0  0  0  0  0  0  0  0  0  0  0  0
   -5.4160   24.6750  -30.9840 C   0  0  0  0  0  0  0  0  0  0  0  0
   -5.2580   23.5750  -31.7720 N   0  0  0  0  0  0  0  0  0  0  0  0
   -4.2930   22.6690  -31.4730 C   0  0  0  0  0  0  0  0  0  0  0  0
   -9.3455   18.9244  -32.2719 H   0  0  0  0  0  0  0  0  0  0  0  0
   -9.8318   20.3047  -33.3135 H   0  0  0  0  0  0  0  0  0  0  0  0
   -8.1278   19.7362  -33.3135 H   0  0  0  0  0  0  0  0  0  0  0  0
   -9.2661   20.5854  -30.6539 H   0  0  0  0  0  0  0  0  0  0  0  0
   -9.2952   22.8833  -31.0462 H   0  0  0  0  0  0  0  0  0  0  0  0
   -8.3198   22.7510  -32.5488 H   0  0  0  0  0  0  0  0  0  0  0  0
  -10.0427   22.2428  -32.5488 H   0  0  0  0  0  0  0  0  0  0  0  0
   -6.8156   21.7991  -31.0460 H   0  0  0  0  0  0  0  0  0  0  0  0
   -7.1032   20.1630  -30.2964 H   0  0  0  0  0  0  0  0  0  0  0  0
   -5.4335   19.7103  -31.8662 H   0  0  0  0  0  0  0  0  0  0  0  0
   -6.9323   19.2847  -32.7512 H   0  0  0  0  0  0  0  0  0  0  0  0
   -4.2506   20.1946  -33.7633 H   0  0  0  0  0  0  0  0  0  0  0  0
   -4.4323   21.9332  -34.2122 H   0  0  0  0  0  0  0  0  0  0  0  0
   -1.7309   19.2580  -31.2406 H   0  0  0  0  0  0  0  0  0  0  0  0
   -3.0912   19.0413  -32.4254 H   0  0  0  0  0  0  0  0  0  0  0  0
   -1.2848   17.8938  -33.8797 H   0  0  0  0  0  0  0  0  0  0  0  0
    0.2279   18.3582  -35.8086 H   0  0  0  0  0  0  0  0  0  0  0  0
    0.2376   22.5625  -34.7992 H   0  0  0  0  0  0  0  0  0  0  0  0
   -1.2693   22.1087  -32.8672 H   0  0  0  0  0  0  0  0  0  0  0  0
   -0.6380   23.9016  -28.1682 H   0  0  0  0  0  0  0  0  0  0  0  0
   -1.1120   24.5652  -29.7706 H   0  0  0  0  0  0  0  0  0  0  0  0
   -0.0162   26.2380  -28.2039 H   0  0  0  0  0  0  0  0  0  0  0  0
   -1.6737   26.6964  -28.8081 H   0  0  0  0  0  0  0  0  0  0  0  0
   -0.7214   26.4472  -26.0803 H   0  0  0  0  0  0  0  0  0  0  0  0
   -2.3293   27.0243  -26.7344 H   0  0  0  0  0  0  0  0  0  0  0  0
   -1.5440   24.2075  -25.8960 H   0  0  0  0  0  0  0  0  0  0  0  0
   -2.8318   25.2790  -25.2164 H   0  0  0  0  0  0  0  0  0  0  0  0
   -3.6791   23.4367  -26.7393 H   0  0  0  0  0  0  0  0  0  0  0  0
   -4.1362   25.1195  -27.2291 H   0  0  0  0  0  0  0  0  0  0  0  0
   -4.7090   25.7746  -29.2460 H   0  0  0  0  0  0  0  0  0  0  0  0
   -6.2038   25.4063  -31.2175 H   0  0  0  0  0  0  0  0  0  0  0  0
  1  2  1  0
  2  3  1  0
  2  4  1  0
  4  5  1  0
  5  6  1  0
  6  7  1  0
  7  8  1  0
  8  9  1  0
  9 10  1  0
 10 11  1  0
 11 12  2  0
 12 13  1  0
 13 14  2  0
 14 15  1  0
 14 16  1  0
 16 17  2  0
  9 18  2  0
 18 19  1  0
 19 20  1  0
 19 21  1  0
 19 22  1  0
 18 23  1  0
 23 24  2  0
 24 25  1  0
 25 26  1  0
 26 27  1  0
 27 28  1  0
 28 29  1  0
 29 30  1  0
 24 31  1  0
 31 32  2  0
 32 33  1  0
 33 34  2  0
 34  8  1  0
 17 11  1  0
 34 23  1  0
 30 25  1  0
  1 35  1  0
  1 36  1  0
  1 37  1  0
  2 38  1  0
  3 39  1  0
  3 40  1  0
  3 41  1  0
  4 42  1  0
  4 43  1  0
  5 44  1  0
  5 45  1  0
  7 46  1  0
  7 47  1  0
 10 48  1  0
 10 49  1  0
 12 50  1  0
 13 51  1  0
 16 52  1  0
 17 53  1  0
 26 54  1  0
 26 55  1  0
 27 56  1  0
 27 57  1  0
 28 58  1  0
 28 59  1  0
 29 60  1  0
 29 61  1  0
 30 62  1  0
 30 63  1  0
 31 64  1  0
 32 65  1  0
M  END
>  <UniqueID>  (24) 
23

>  <SMILES>  (24) 
CC(C)CCOCn1c(Cc2ccc(F)cc2)c(C(F)(F)F)c2c(N3CCCCC3)ccnc21

>  <Energy>  (24) 
106.44714744162151

>  <Genealogy>  (24) 
CC(C)CCOCn1c(Cc2ccc(F)cc2)c(C(F)(F)F)c2c(N3CCCCC3)ccnc21 (3D coordinates assigned)
CC(C)CCOCn1c(Cc2ccc(F)cc2)c(C(F)(F)F)c2c(N3CCCCC3)ccnc21 (nonaromatic ring conformer: 106.44714744162151 kcal/mol)

>  <smiles>  (24) 
CC(C)CCOCn1c(Cc2ccc(F)cc2)c(C(F)(F)F)c2c(N3CCCCC3)ccnc21

>  <score_type>  (24) 
oracle

>  <origin>  (24) 
adg

>  <m_score__min__energy>  (24) 
-8.2899999999999991

>  <m_primary>  (24) 
energy

$$$$
24:0
     RDKit          3D

 49 51  0  0  0  0  0  0  0  0999 V2000
   -6.7300   24.7780  -29.8040 C   0  0  0  0  0  0  0  0  0  0  0  0
   -5.5290   25.6790  -30.0590 C   0  0  0  0  0  0  0  0  0  0  0  0
   -4.5540   24.9880  -30.9130 N   0  0  0  0  0  0  0  0  0  0  0  0
   -3.7300   24.0510  -30.1350 C   0  0  0  0  0  0  0  0  0  0  0  0
   -4.0370   22.6080  -30.5450 C   0  0  0  0  0  0  0  0  0  0  0  0
   -4.6430   22.5580  -31.8760 N   0  0  0  0  0  0  0  0  0  0  0  0
   -4.9130   21.2950  -32.5060 C   0  0  0  0  0  0  0  0  0  0  0  0
   -3.8460   20.5580  -33.0410 C   0  0  0  0  0  0  0  0  0  0  0  0
   -2.5980   21.1690  -33.2890 C   0  0  0  0  0  0  0  0  0  0  0  0
   -1.5580   20.4470  -33.8700 C   0  0  0  0  0  0  0  0  0  0  0  0
   -1.7450   19.1140  -34.2200 C   0  0  0  0  0  0  0  0  0  0  0  0
   -2.9640   18.4860  -33.9620 C   0  0  0  0  0  0  0  0  0  0  0  0
   -4.0260   19.1850  -33.3340 C   0  0  0  0  0  0  0  0  0  0  0  0
   -5.2060   18.5600  -32.9860 N   0  0  0  0  0  0  0  0  0  0  0  0
   -5.2680   17.0810  -32.9360 C   0  0  0  0  0  0  0  0  0  0  0  0
   -6.3220   19.3160  -32.6670 C   0  0  0  0  0  0  0  0  0  0  0  0
   -7.5960   18.7180  -32.5370 C   0  0  0  0  0  0  0  0  0  0  0  0
   -8.7030   19.4580  -32.1500 C   0  0  0  0  0  0  0  0  0  0  0  0
   -8.6140   20.8370  -31.9680 C   0  0  0  0  0  0  0  0  0  0  0  0
   -9.8650   21.5830  -31.5730 C   0  0  0  0  0  0  0  0  0  0  0  0
   -7.3910   21.4990  -32.2380 C   0  0  0  0  0  0  0  0  0  0  0  0
   -7.3930   23.0080  -32.3920 C   0  0  0  0  0  0  0  0  0  0  0  0
   -6.2090   20.7230  -32.4690 C   0  0  0  0  0  0  0  0  0  0  0  0
   -6.8803   24.6653  -28.7202 H   0  0  0  0  0  0  0  0  0  0  0  0
   -7.6276   25.2274  -30.2538 H   0  0  0  0  0  0  0  0  0  0  0  0
   -6.5496   23.7905  -30.2538 H   0  0  0  0  0  0  0  0  0  0  0  0
   -5.8640   26.5993  -30.5598 H   0  0  0  0  0  0  0  0  0  0  0  0
   -5.0545   25.9281  -29.0984 H   0  0  0  0  0  0  0  0  0  0  0  0
   -5.0930   24.4310  -31.6170 H   0  0  0  0  0  0  0  0  0  0  0  0
   -2.6666   24.2626  -30.3203 H   0  0  0  0  0  0  0  0  0  0  0  0
   -3.9580   24.1759  -29.0662 H   0  0  0  0  0  0  0  0  0  0  0  0
   -3.1012   22.0299  -30.5540 H   0  0  0  0  0  0  0  0  0  0  0  0
   -4.7468   22.1817  -29.8208 H   0  0  0  0  0  0  0  0  0  0  0  0
   -4.5800   23.4120  -32.4740 H   0  0  0  0  0  0  0  0  0  0  0  0
   -2.4453   22.2249  -33.0210 H   0  0  0  0  0  0  0  0  0  0  0  0
   -0.5875   20.9318  -34.0522 H   0  0  0  0  0  0  0  0  0  0  0  0
   -0.9300   18.5535  -34.7013 H   0  0  0  0  0  0  0  0  0  0  0  0
   -3.1032   17.4335  -34.2499 H   0  0  0  0  0  0  0  0  0  0  0  0
   -5.2819   16.7498  -31.8871 H   0  0  0  0  0  0  0  0  0  0  0  0
   -6.1814   16.7350  -33.4419 H   0  0  0  0  0  0  0  0  0  0  0  0
   -4.3867   16.6598  -33.4419 H   0  0  0  0  0  0  0  0  0  0  0  0
   -7.7117   17.6444  -32.7469 H   0  0  0  0  0  0  0  0  0  0  0  0
   -9.6644   18.9498  -31.9844 H   0  0  0  0  0  0  0  0  0  0  0  0
   -9.9358   21.6252  -30.4761 H   0  0  0  0  0  0  0  0  0  0  0  0
   -9.8255   22.6052  -31.9775 H   0  0  0  0  0  0  0  0  0  0  0  0
  -10.7455   21.0624  -31.9775 H   0  0  0  0  0  0  0  0  0  0  0  0
   -7.3936   23.4781  -31.3975 H   0  0  0  0  0  0  0  0  0  0  0  0
   -6.4953   23.3213  -32.9451 H   0  0  0  0  0  0  0  0  0  0  0  0
   -8.2916   23.3189  -32.9451 H   0  0  0  0  0  0  0  0  0  0  0  0
  1  2  1  0
  2  3  1  0
  3  4  1  0
  4  5  1  0
  5  6  1  0
  6  7  1  0
  7  8  2  0
  8  9  1  0
  9 10  2  0
 10 11  1  0
 11 12  2  0
 12 13  1  0
 13 14  2  0
 14 15  1  0
 14 16  1  0
 16 17  2  0
 17 18  1  0
 18 19  2  0
 19 20  1  0
 19 21  1  0
 21 22  1  0
 21 23  2  0
 23  7  1  0
 13  8  1  0
 23 16  1  0
  1 24  1  0
  1 25  1  0
  1 26  1  0
  2 27  1  0
  2 28  1  0
  3 29  1  0
  4 30  1  0
  4 31  1  0
  5 32  1  0
  5 33  1  0
  6 34  1  0
  9 35  1  0
 10 36  1  0
 11 37  1  0
 12 38  1  0
 15 39  1  0
 15 40  1  0
 15 41  1  0
 17 42  1  0
 18 43  1  0
 20 44  1  0
 20 45  1  0
 20 46  1  0
 22 47  1  0
 22 48  1  0
 22 49  1  0
M  CHG  1  14   1
M  END
>  <UniqueID>  (25) 
24

>  <SMILES>  (25) 
CCNCCNc1c2ccccc2[n+](C)c2ccc(C)c(C)c12

>  <Energy>  (25) 
82.63064099206363

>  <Genealogy>  (25) 
CCNCCNc1c2ccccc2[n+](C)c2ccc(C)c(C)c12 (3D coordinates assigned)
CCNCCNc1c2ccccc2[n+](C)c2ccc(C)c(C)c12 (optimized conformer: 82.63064099206363 kcal/mol)

>  <smiles>  (25) 
CCNCCNc1c2ccccc2[n+](C)c2ccc(C)c(C)c12

>  <score_type>  (25) 
oracle

>  <origin>  (25) 
adg

>  <m_score__min__energy>  (25) 
-8.7699999999999996

>  <m_primary>  (25) 
energy

$$$$
25:0
     RDKit          3D

 53 55  0  0  0  0  0  0  0  0999 V2000
   -5.0090   19.2560  -33.9360 C   0  0  0  0  0  0  0  0  0  0  0  0
   -3.5560   19.1330  -33.4480 C   0  0  0  0  0  0  0  0  0  0  0  0
   -2.9040   20.4180  -33.0900 N   0  0  0  0  0  0  0  0  0  0  0  0
   -3.7410   21.5770  -33.4510 C   0  0  0  0  0  0  0  0  0  0  0  0
   -1.5310   20.5800  -33.6200 C   0  0  0  0  0  0  0  0  0  0  0  0
   -0.4880   19.8810  -32.7370 C   0  0  0  0  0  0  0  0  0  0  0  0
   -1.1360   19.1400  -31.7210 O   0  0  0  0  0  0  0  0  0  0  0  0
   -0.3040   18.9370  -30.5920 C   0  0  0  0  0  0  0  0  0  0  0  0
    0.2650   20.2760  -30.0990 C   0  0  0  0  0  0  0  0  0  0  0  0
   -0.5640   20.8750  -29.0980 O   0  0  0  0  0  0  0  0  0  0  0  0
   -1.6810   21.6930  -29.3460 C   0  0  0  0  0  0  0  0  0  0  0  0
   -1.5290   23.0790  -29.2440 C   0  0  0  0  0  0  0  0  0  0  0  0
   -2.5830   23.9540  -29.5430 C   0  0  0  0  0  0  0  0  0  0  0  0
   -2.3410   25.3140  -29.3340 O   0  0  0  0  0  0  0  0  0  0  0  0
   -3.8180   23.4270  -30.0240 C   0  0  0  0  0  0  0  0  0  0  0  0
   -4.9040   24.2070  -30.4920 C   0  0  0  0  0  0  0  0  0  0  0  0
   -4.8530   25.4630  -30.5380 O   0  0  0  0  0  0  0  0  0  0  0  0
   -6.0620   23.5780  -30.9540 C   0  0  0  0  0  0  0  0  0  0  0  0
   -6.1260   22.1770  -30.9840 C   0  0  0  0  0  0  0  0  0  0  0  0
   -7.3040   21.4430  -31.5140 C   0  0  0  0  0  0  0  0  0  0  0  0
   -8.5380   22.0850  -31.7500 C   0  0  0  0  0  0  0  0  0  0  0  0
   -9.6140   21.3730  -32.2890 C   0  0  0  0  0  0  0  0  0  0  0  0
   -9.4730   20.0220  -32.6100 C   0  0  0  0  0  0  0  0  0  0  0  0
   -8.2540   19.3780  -32.3940 C   0  0  0  0  0  0  0  0  0  0  0  0
   -7.1750   20.0810  -31.8520 C   0  0  0  0  0  0  0  0  0  0  0  0
   -5.0910   21.4730  -30.5400 O   0  0  0  0  0  0  0  0  0  0  0  0
   -3.9700   22.0200  -30.0860 C   0  0  0  0  0  0  0  0  0  0  0  0
   -2.9310   21.1740  -29.7040 C   0  0  0  0  0  0  0  0  0  0  0  0
   -5.6834   19.3131  -33.0689 H   0  0  0  0  0  0  0  0  0  0  0  0
   -5.1157   20.1664  -34.5441 H   0  0  0  0  0  0  0  0  0  0  0  0
   -5.2673   18.3765  -34.5441 H   0  0  0  0  0  0  0  0  0  0  0  0
   -3.5484   18.4868  -32.5579 H   0  0  0  0  0  0  0  0  0  0  0  0
   -2.9821   18.7212  -34.2912 H   0  0  0  0  0  0  0  0  0  0  0  0
   -4.0978   22.0710  -32.5352 H   0  0  0  0  0  0  0  0  0  0  0  0
   -3.1467   22.2881  -34.0435 H   0  0  0  0  0  0  0  0  0  0  0  0
   -4.6029   21.2365  -34.0435 H   0  0  0  0  0  0  0  0  0  0  0  0
   -1.4872   20.1484  -34.6308 H   0  0  0  0  0  0  0  0  0  0  0  0
   -1.2974   21.6548  -33.6360 H   0  0  0  0  0  0  0  0  0  0  0  0
    0.1164   19.2010  -33.3553 H   0  0  0  0  0  0  0  0  0  0  0  0
    0.1612   20.6390  -32.2743 H   0  0  0  0  0  0  0  0  0  0  0  0
   -0.8929   18.4746  -29.7861 H   0  0  0  0  0  0  0  0  0  0  0  0
    0.5295   18.2780  -30.8766 H   0  0  0  0  0  0  0  0  0  0  0  0
    1.2649   20.1022  -29.6746 H   0  0  0  0  0  0  0  0  0  0  0  0
    0.3107   20.9623  -30.9574 H   0  0  0  0  0  0  0  0  0  0  0  0
   -0.5616   23.4920  -28.9222 H   0  0  0  0  0  0  0  0  0  0  0  0
   -3.0450   26.0360  -29.3590 H   0  0  0  0  0  0  0  0  0  0  0  0
   -6.9195   24.1780  -31.2926 H   0  0  0  0  0  0  0  0  0  0  0  0
   -8.6543   23.1519  -31.5086 H   0  0  0  0  0  0  0  0  0  0  0  0
  -10.5752   21.8795  -32.4607 H   0  0  0  0  0  0  0  0  0  0  0  0
  -10.3222   19.4653  -33.0330 H   0  0  0  0  0  0  0  0  0  0  0  0
   -8.1423   18.3143  -32.6511 H   0  0  0  0  0  0  0  0  0  0  0  0
   -6.2165   19.5669  -31.6877 H   0  0  0  0  0  0  0  0  0  0  0  0
   -3.0946   20.0864  -29.6835 H   0  0  0  0  0  0  0  0  0  0  0  0
  1  2  1  0
  2  3  1  0
  3  4  1  0
  3  5  1  0
  5  6  1  0
  6  7  1  0
  7  8  1  0
  8  9  1  0
  9 10  1  0
 10 11  1  0
 11 12  2  0
 12 13  1  0
 13 14  1  0
 13 15  2  0
 15 16  1  0
 16 17  2  0
 16 18  1  0
 18 19  2  0
 19 20  1  0
 20 21  2  0
 21 22  1  0
 22 23  2  0
 23 24  1  0
 24 25  2  0
 19 26  1  0
 26 27  1  0
 27 28  2  0
 28 11  1  0
 27 15  1  0
 25 20  1  0
  1 29  1  0
  1 30  1  0
  1 31  1  0
  2 32  1  0
  2 33  1  0
  4 34  1  0
  4 35  1  0
  4 36  1  0
  5 37  1  0
  5 38  1  0
  6 39  1  0
  6 40  1  0
  8 41  1  0
  8 42  1  0
  9 43  1  0
  9 44  1  0
 12 45  1  0
 14 46  1  0
 18 47  1  0
 21 48  1  0
 22 49  1  0
 23 50  1  0
 24 51  1  0
 25 52  1  0
 28 53  1  0
M  END
>  <UniqueID>  (26) 
25

>  <SMILES>  (26) 
CCN(C)CCOCCOc1cc(O)c2c(=O)cc(-c3ccccc3)oc2c1

>  <Energy>  (26) 
71.60045119404946

>  <Genealogy>  (26) 
CCN(C)CCOCCOc1cc(O)c2c(=O)cc(-c3ccccc3)oc2c1 (3D coordinates assigned)
CCN(C)CCOCCOc1cc(O)c2c(=O)cc(-c3ccccc3)oc2c1 (optimized conformer: 71.60045119404946 kcal/mol)

>  <smiles>  (26) 
CCN(C)CCOCCOc1cc(O)c2c(=O)cc(-c3ccccc3)oc2c1

>  <score_type>  (26) 
oracle

>  <origin>  (26) 
adg

>  <m_score__min__energy>  (26) 
-8.2300000000000004

>  <m_primary>  (26) 
energy

$$$$
26:0
     RDKit          3D

 42 45  0  0  0  0  0  0  0  0999 V2000
   -9.0830   19.2720  -32.5330 C   0  0  0  0  0  0  0  0  0  0  0  0
   -7.7480   19.8710  -32.5600 N   0  0  0  0  0  0  0  0  0  0  0  0
   -6.6240   19.3520  -33.1150 C   0  0  0  0  0  0  0  0  0  0  0  0
   -6.4880   18.1590  -33.8330 C   0  0  0  0  0  0  0  0  0  0  0  0
   -5.2100   17.8170  -34.3120 C   0  0  0  0  0  0  0  0  0  0  0  0
   -4.1000   18.6540  -34.0630 C   0  0  0  0  0  0  0  0  0  0  0  0
   -4.2540   19.8430  -33.3300 C   0  0  0  0  0  0  0  0  0  0  0  0
   -5.5310   20.1620  -32.8710 C   0  0  0  0  0  0  0  0  0  0  0  0
   -5.9910   21.2170  -32.1180 C   0  0  0  0  0  0  0  0  0  0  0  0
   -5.3300   22.3130  -31.5700 C   0  0  0  0  0  0  0  0  0  0  0  0
   -6.0860   23.2300  -30.8130 C   0  0  0  0  0  0  0  0  0  0  0  0
   -5.3070   24.6540  -30.1170 S   0  0  0  0  0  0  0  0  0  0  0  0
   -6.3600   25.5710  -29.5590 O   0  0  0  0  0  0  0  0  0  0  0  0
   -4.5740   25.3950  -31.2030 O   0  0  0  0  0  0  0  0  0  0  0  0
   -4.1790   24.2210  -28.8510 N   0  0  0  0  0  0  0  0  0  0  0  0
   -2.7830   24.1950  -29.3520 C   0  0  0  0  0  0  0  0  0  0  0  0
   -2.2770   22.7570  -29.5700 C   0  0  0  0  0  0  0  0  0  0  0  0
   -2.3100   21.9670  -28.3890 O   0  0  0  0  0  0  0  0  0  0  0  0
   -3.3890   22.2810  -27.5180 C   0  0  0  0  0  0  0  0  0  0  0  0
   -4.5860   22.9470  -28.2170 C   0  0  0  0  0  0  0  0  0  0  0  0
   -7.4700   23.0090  -30.6110 C   0  0  0  0  0  0  0  0  0  0  0  0
   -8.1100   21.8900  -31.1730 C   0  0  0  0  0  0  0  0  0  0  0  0
   -7.3430   21.0060  -31.9350 C   0  0  0  0  0  0  0  0  0  0  0  0
   -9.4000   19.1298  -31.4893 H   0  0  0  0  0  0  0  0  0  0  0  0
   -9.7939   19.9374  -33.0447 H   0  0  0  0  0  0  0  0  0  0  0  0
   -9.0585   18.2986  -33.0447 H   0  0  0  0  0  0  0  0  0  0  0  0
   -7.3548   17.5074  -34.0176 H   0  0  0  0  0  0  0  0  0  0  0  0
   -5.0741   16.8886  -34.8861 H   0  0  0  0  0  0  0  0  0  0  0  0
   -3.1077   18.3731  -34.4456 H   0  0  0  0  0  0  0  0  0  0  0  0
   -3.3957   20.4999  -33.1253 H   0  0  0  0  0  0  0  0  0  0  0  0
   -4.2505   22.4586  -31.7233 H   0  0  0  0  0  0  0  0  0  0  0  0
   -4.2470   24.9750  -28.1260 H   0  0  0  0  0  0  0  0  0  0  0  0
   -2.7385   24.7364  -30.3085 H   0  0  0  0  0  0  0  0  0  0  0  0
   -2.1410   24.6710  -28.5962 H   0  0  0  0  0  0  0  0  0  0  0  0
   -2.9092   22.2754  -30.3306 H   0  0  0  0  0  0  0  0  0  0  0  0
   -1.2264   22.8249  -29.8888 H   0  0  0  0  0  0  0  0  0  0  0  0
   -3.7374   21.3488  -27.0494 H   0  0  0  0  0  0  0  0  0  0  0  0
   -3.0051   23.0065  -26.7857 H   0  0  0  0  0  0  0  0  0  0  0  0
   -4.9768   22.2680  -28.9892 H   0  0  0  0  0  0  0  0  0  0  0  0
   -5.3617   23.1576  -27.4661 H   0  0  0  0  0  0  0  0  0  0  0  0
   -8.0515   23.7212  -30.0072 H   0  0  0  0  0  0  0  0  0  0  0  0
   -9.1848   21.7158  -31.0168 H   0  0  0  0  0  0  0  0  0  0  0  0
  1  2  1  0
  2  3  1  0
  3  4  2  0
  4  5  1  0
  5  6  2  0
  6  7  1  0
  7  8  2  0
  8  9  1  0
  9 10  2  0
 10 11  1  0
 11 12  1  0
 12 13  2  0
 12 14  2  0
 12 15  1  0
 15 16  1  0
 16 17  1  0
 17 18  1  0
 18 19  1  0
 19 20  1  0
 11 21  2  0
 21 22  1  0
 22 23  2  0
 23  2  1  0
  8  3  1  0
 23  9  1  0
 20 15  1  0
  1 24  1  0
  1 25  1  0
  1 26  1  0
  4 27  1  0
  5 28  1  0
  6 29  1  0
  7 30  1  0
 10 31  1  0
 15 32  1  0
 16 33  1  0
 16 34  1  0
 17 35  1  0
 17 36  1  0
 19 37  1  0
 19 38  1  0
 20 39  1  0
 20 40  1  0
 21 41  1  0
 22 42  1  0
M  CHG  1  15   1
M  END
>  <UniqueID>  (27) 
26

>  <SMILES>  (27) 
Cn1c2ccccc2c2cc(S(=O)(=O)[NH+]3CCOCC3)ccc21

>  <Energy>  (27) 
98.51267129300963

>  <Genealogy>  (27) 
Cn1c2ccccc2c2cc(S(=O)(=O)[NH+]3CCOCC3)ccc21 (protonated)
Cn1c2ccccc2c2cc(S(=O)(=O)[NH+]3CCOCC3)ccc21 (3D coordinates assigned)
Cn1c2ccccc2c2cc(S(=O)(=O)[NH+]3CCOCC3)ccc21 (nonaromatic ring conformer: 98.51267129300963 kcal/mol)

>  <smiles>  (27) 
Cn1c2ccccc2c2cc(S(=O)(=O)N3CCOCC3)ccc21

>  <score_type>  (27) 
oracle

>  <origin>  (27) 
adg

>  <m_score__min__energy>  (27) 
-8.5700000000000003

>  <m_primary>  (27) 
energy

$$$$
27:0
     RDKit          3D

 59 63  0  0  0  0  0  0  0  0999 V2000
   -0.2600   20.5780  -30.7650 C   0  0  0  0  0  0  0  0  0  0  0  0
   -1.5840   20.3480  -30.0450 C   0  0  0  0  0  0  0  0  0  0  0  0
   -2.4330   21.5450  -30.1330 N   0  0  0  0  0  0  0  0  0  0  0  0
   -3.4940   21.6080  -31.1490 C   0  0  0  0  0  0  0  0  0  0  0  0
   -2.9180   21.9140  -32.5390 C   0  0  0  0  0  0  0  0  0  0  0  0
   -3.9270   21.7220  -33.6020 N   0  0  0  0  0  0  0  0  0  0  0  0
   -5.0180   20.8700  -33.1560 C   0  0  0  0  0  0  0  0  0  0  0  0
   -6.1720   21.4730  -32.5730 C   0  0  0  0  0  0  0  0  0  0  0  0
   -6.2220   22.8640  -32.2820 C   0  0  0  0  0  0  0  0  0  0  0  0
   -7.3660   23.4530  -31.7540 C   0  0  0  0  0  0  0  0  0  0  0  0
   -8.4950   22.6870  -31.5130 C   0  0  0  0  0  0  0  0  0  0  0  0
   -8.4780   21.3220  -31.7780 C   0  0  0  0  0  0  0  0  0  0  0  0
   -7.3140   20.6800  -32.2800 C   0  0  0  0  0  0  0  0  0  0  0  0
   -7.2990   19.3250  -32.5210 N   0  0  0  0  0  0  0  0  0  0  0  0
   -8.3720   18.4660  -31.9670 C   0  0  0  0  0  0  0  0  0  0  0  0
   -6.2700   18.7590  -33.2410 C   0  0  0  0  0  0  0  0  0  0  0  0
   -6.4190   17.4690  -33.8080 C   0  0  0  0  0  0  0  0  0  0  0  0
   -5.3620   16.8300  -34.4340 C   0  0  0  0  0  0  0  0  0  0  0  0
   -4.1180   17.4300  -34.4690 C   0  0  0  0  0  0  0  0  0  0  0  0
   -3.9290   18.7180  -33.9610 C   0  0  0  0  0  0  0  0  0  0  0  0
   -2.2300   19.1720  -33.8420 Cl  0  0  0  0  0  0  0  0  0  0  0  0
   -5.0430   19.4650  -33.4440 C   0  0  0  0  0  0  0  0  0  0  0  0
   -2.2140   22.6590  -29.2420 C   0  0  0  0  0  0  0  0  0  0  0  0
   -2.5710   23.9640  -29.6200 C   0  0  0  0  0  0  0  0  0  0  0  0
   -2.3640   25.0070  -28.7740 N   0  0  0  0  0  0  0  0  0  0  0  0
   -1.8020   24.8350  -27.5490 C   0  0  0  0  0  0  0  0  0  0  0  0
   -1.6050   25.9360  -26.7060 C   0  0  0  0  0  0  0  0  0  0  0  0
   -1.0250   25.7560  -25.4450 C   0  0  0  0  0  0  0  0  0  0  0  0
   -0.7770   27.1360  -24.3900 Cl  0  0  0  0  0  0  0  0  0  0  0  0
   -0.6420   24.4770  -25.0240 C   0  0  0  0  0  0  0  0  0  0  0  0
   -0.8360   23.3730  -25.8600 C   0  0  0  0  0  0  0  0  0  0  0  0
   -1.4180   23.5450  -27.1250 C   0  0  0  0  0  0  0  0  0  0  0  0
   -1.6260   22.4590  -27.9830 C   0  0  0  0  0  0  0  0  0  0  0  0
    0.5410   20.7171  -30.0240 H   0  0  0  0  0  0  0  0  0  0  0  0
   -0.0291   19.7065  -31.3952 H   0  0  0  0  0  0  0  0  0  0  0  0
   -0.3366   21.4763  -31.3952 H   0  0  0  0  0  0  0  0  0  0  0  0
   -2.1062   19.4989  -30.5101 H   0  0  0  0  0  0  0  0  0  0  0  0
   -1.3801   20.1337  -28.9855 H   0  0  0  0  0  0  0  0  0  0  0  0
   -4.0159   20.6403  -31.1825 H   0  0  0  0  0  0  0  0  0  0  0  0
   -4.1889   22.4157  -30.8757 H   0  0  0  0  0  0  0  0  0  0  0  0
   -2.5721   22.9580  -32.5599 H   0  0  0  0  0  0  0  0  0  0  0  0
   -2.0855   21.2198  -32.7262 H   0  0  0  0  0  0  0  0  0  0  0  0
   -4.3080   22.6440  -33.9130 H   0  0  0  0  0  0  0  0  0  0  0  0
   -3.4960   21.3640  -34.4760 H   0  0  0  0  0  0  0  0  0  0  0  0
   -5.3372   23.4873  -32.4786 H   0  0  0  0  0  0  0  0  0  0  0  0
   -7.3744   24.5293  -31.5273 H   0  0  0  0  0  0  0  0  0  0  0  0
   -9.4045   23.1584  -31.1122 H   0  0  0  0  0  0  0  0  0  0  0  0
   -9.3847   20.7267  -31.5952 H   0  0  0  0  0  0  0  0  0  0  0  0
   -8.3348   18.4958  -30.8680 H   0  0  0  0  0  0  0  0  0  0  0  0
   -9.3501   18.8335  -32.3109 H   0  0  0  0  0  0  0  0  0  0  0  0
   -8.2275   17.4312  -32.3109 H   0  0  0  0  0  0  0  0  0  0  0  0
   -7.3948   16.9646  -33.7497 H   0  0  0  0  0  0  0  0  0  0  0  0
   -5.5125   15.8463  -34.9026 H   0  0  0  0  0  0  0  0  0  0  0  0
   -3.2653   16.8868  -34.9024 H   0  0  0  0  0  0  0  0  0  0  0  0
   -3.0212   24.1428  -30.6076 H   0  0  0  0  0  0  0  0  0  0  0  0
   -1.9060   26.9416  -27.0348 H   0  0  0  0  0  0  0  0  0  0  0  0
   -0.1868   24.3400  -24.0320 H   0  0  0  0  0  0  0  0  0  0  0  0
   -0.5324   22.3699  -25.5259 H   0  0  0  0  0  0  0  0  0  0  0  0
   -1.3283   21.4472  -27.6704 H   0  0  0  0  0  0  0  0  0  0  0  0
  1  2  1  0
  2  3  1  0
  3  4  1  0
  4  5  1  0
  5  6  1  0
  6  7  1  0
  7  8  1  0
  8  9  2  0
  9 10  1  0
 10 11  2  0
 11 12  1  0
 12 13  2  0
 13 14  1  0
 14 15  1  0
 14 16  2  0
 16 17  1  0
 17 18  2  0
 18 19  1  0
 19 20  2  0
 20 21  1  0
 20 22  1  0
  3 23  1  0
 23 24  2  0
 24 25  1  0
 25 26  2  0
 26 27  1  0
 27 28  2  0
 28 29  1  0
 28 30  1  0
 30 31  2  0
 31 32  1  0
 32 33  2  0
 22  7  2  0
 33 23  1  0
 13  8  1  0
 22 16  1  0
 32 26  1  0
  1 34  1  0
  1 35  1  0
  1 36  1  0
  2 37  1  0
  2 38  1  0
  4 39  1  0
  4 40  1  0
  5 41  1  0
  5 42  1  0
  6 43  1  0
  6 44  1  0
  9 45  1  0
 10 46  1  0
 11 47  1  0
 12 48  1  0
 15 49  1  0
 15 50  1  0
 15 51  1  0
 17 52  1  0
 18 53  1  0
 19 54  1  0
 24 55  1  0
 27 56  1  0
 30 57  1  0
 31 58  1  0
 33 59  1  0
M  CHG  2   6   1  14   1
M  END
>  <UniqueID>  (28) 
27

>  <SMILES>  (28) 
CCN(CC[NH2+]c1c2ccccc2[n+](C)c2cccc(Cl)c12)c1cnc2cc(Cl)ccc2c1

>  <Energy>  (28) 
106.60350047594471

>  <Genealogy>  (28) 
CCN(CC[NH2+]c1c2ccccc2[n+](C)c2cccc(Cl)c12)c1cnc2cc(Cl)ccc2c1 (protonated)
CCN(CC[NH2+]c1c2ccccc2[n+](C)c2cccc(Cl)c12)c1cnc2cc(Cl)ccc2c1 (3D coordinates assigned)
CCN(CC[NH2+]c1c2ccccc2[n+](C)c2cccc(Cl)c12)c1cnc2cc(Cl)ccc2c1 (optimized conformer: 106.60350047594471 kcal/mol)

>  <smiles>  (28) 
CCN(CCNc1c2ccccc2[n+](C)c2cccc(Cl)c12)c1cnc2cc(Cl)ccc2c1

>  <score_type>  (28) 
oracle

>  <origin>  (28) 
adg

>  <m_score__min__energy>  (28) 
-10.140000000000001

>  <m_primary>  (28) 
energy

$$$$
28:0
     RDKit          3D

 73 76  0  0  0  0  0  0  0  0999 V2000
    0.6670   22.7060  -26.9970 C   0  0  0  0  0  0  0  0  0  0  0  0
    0.9580   23.9650  -26.1720 C   0  0  0  0  0  0  0  0  0  0  0  0
   -0.2390   24.8280  -25.9930 N   0  0  0  0  0  0  0  0  0  0  0  0
   -0.6380   24.8940  -24.5590 C   0  0  0  0  0  0  0  0  0  0  0  0
   -0.8410   26.3330  -24.0690 C   0  0  0  0  0  0  0  0  0  0  0  0
   -0.0730   26.1940  -26.5650 C   0  0  0  0  0  0  0  0  0  0  0  0
   -0.8750   26.4500  -27.8540 C   0  0  0  0  0  0  0  0  0  0  0  0
   -1.0030   25.2300  -28.5580 O   0  0  0  0  0  0  0  0  0  0  0  0
   -2.3170   24.7160  -28.4430 C   0  0  0  0  0  0  0  0  0  0  0  0
   -2.7900   24.0560  -29.7450 C   0  0  0  0  0  0  0  0  0  0  0  0
   -3.6870   24.9160  -30.4130 O   0  0  0  0  0  0  0  0  0  0  0  0
   -4.9900   24.7310  -29.9050 C   0  0  0  0  0  0  0  0  0  0  0  0
   -5.5110   23.3610  -30.3340 C   0  0  0  0  0  0  0  0  0  0  0  0
   -5.1310   23.0520  -31.7140 N   0  0  0  0  0  0  0  0  0  0  0  0
   -5.3810   21.7470  -32.2620 C   0  0  0  0  0  0  0  0  0  0  0  0
   -4.3030   20.9670  -32.7190 C   0  0  0  0  0  0  0  0  0  0  0  0
   -3.0320   21.5390  -32.9110 C   0  0  0  0  0  0  0  0  0  0  0  0
   -1.9790   20.7810  -33.4090 C   0  0  0  0  0  0  0  0  0  0  0  0
   -2.1940   19.4670  -33.8290 C   0  0  0  0  0  0  0  0  0  0  0  0
   -1.1560   18.7590  -34.4540 C   0  0  0  0  0  0  0  0  0  0  0  0
   -1.3940   17.4980  -34.9990 C   0  0  0  0  0  0  0  0  0  0  0  0
   -2.6740   16.9530  -34.9550 C   0  0  0  0  0  0  0  0  0  0  0  0
   -3.7120   17.6380  -34.3190 C   0  0  0  0  0  0  0  0  0  0  0  0
   -3.4770   18.8730  -33.6730 C   0  0  0  0  0  0  0  0  0  0  0  0
   -4.5020   19.5880  -32.9760 C   0  0  0  0  0  0  0  0  0  0  0  0
   -5.6520   18.9920  -32.4960 N   0  0  0  0  0  0  0  0  0  0  0  0
   -5.6320   17.5910  -32.0220 C   0  0  0  0  0  0  0  0  0  0  0  0
   -6.7720   19.7600  -32.2500 C   0  0  0  0  0  0  0  0  0  0  0  0
   -8.0300   19.1610  -32.0100 C   0  0  0  0  0  0  0  0  0  0  0  0
   -9.1600   19.9340  -31.7690 C   0  0  0  0  0  0  0  0  0  0  0  0
   -9.0830   21.3190  -31.8220 C   0  0  0  0  0  0  0  0  0  0  0  0
   -7.8660   21.9600  -32.0920 C   0  0  0  0  0  0  0  0  0  0  0  0
   -7.9060   23.4450  -32.3580 C   0  0  0  0  0  0  0  0  0  0  0  0
   -6.6750   21.1800  -32.2160 C   0  0  0  0  0  0  0  0  0  0  0  0
    0.4717   21.8611  -26.3202 H   0  0  0  0  0  0  0  0  0  0  0  0
   -0.2148   22.8790  -27.6314 H   0  0  0  0  0  0  0  0  0  0  0  0
    1.5353   22.4745  -27.6314 H   0  0  0  0  0  0  0  0  0  0  0  0
    1.3214   23.6585  -25.1800 H   0  0  0  0  0  0  0  0  0  0  0  0
    1.7098   24.5523  -26.7195 H   0  0  0  0  0  0  0  0  0  0  0  0
   -1.0290   24.3900  -26.5250 H   0  0  0  0  0  0  0  0  0  0  0  0
   -1.5804   24.3416  -24.4297 H   0  0  0  0  0  0  0  0  0  0  0  0
    0.1761   24.4518  -23.9659 H   0  0  0  0  0  0  0  0  0  0  0  0
   -0.8432   26.3489  -22.9691 H   0  0  0  0  0  0  0  0  0  0  0  0
   -0.0233   26.9666  -24.4432 H   0  0  0  0  0  0  0  0  0  0  0  0
   -1.8020   26.7156  -24.4432 H   0  0  0  0  0  0  0  0  0  0  0  0
   -0.3964   26.9244  -25.8088 H   0  0  0  0  0  0  0  0  0  0  0  0
    0.9891   26.2930  -26.8334 H   0  0  0  0  0  0  0  0  0  0  0  0
   -1.8727   26.8365  -27.5986 H   0  0  0  0  0  0  0  0  0  0  0  0
   -0.3541   27.1905  -28.4788 H   0  0  0  0  0  0  0  0  0  0  0  0
   -2.3366   23.9673  -27.6374 H   0  0  0  0  0  0  0  0  0  0  0  0
   -2.9928   25.5552  -28.2215 H   0  0  0  0  0  0  0  0  0  0  0  0
   -1.9222   23.8584  -30.3915 H   0  0  0  0  0  0  0  0  0  0  0  0
   -3.2980   23.1089  -29.5108 H   0  0  0  0  0  0  0  0  0  0  0  0
   -4.9674   24.7878  -28.8067 H   0  0  0  0  0  0  0  0  0  0  0  0
   -5.6528   25.5161  -30.2979 H   0  0  0  0  0  0  0  0  0  0  0  0
   -5.0911   22.5937  -29.6670 H   0  0  0  0  0  0  0  0  0  0  0  0
   -6.6092   23.3739  -30.2724 H   0  0  0  0  0  0  0  0  0  0  0  0
   -4.4190   23.6610  -32.1780 H   0  0  0  0  0  0  0  0  0  0  0  0
   -2.8699   22.5986  -32.6640 H   0  0  0  0  0  0  0  0  0  0  0  0
   -0.9716   21.2183  -33.4725 H   0  0  0  0  0  0  0  0  0  0  0  0
   -0.1504   19.2008  -34.5142 H   0  0  0  0  0  0  0  0  0  0  0  0
   -0.5712   16.9345  -35.4632 H   0  0  0  0  0  0  0  0  0  0  0  0
   -2.8693   15.9772  -35.4238 H   0  0  0  0  0  0  0  0  0  0  0  0
   -4.7256   17.2107  -34.3209 H   0  0  0  0  0  0  0  0  0  0  0  0
   -5.6318   17.5760  -30.9221 H   0  0  0  0  0  0  0  0  0  0  0  0
   -6.5227   17.0647  -32.3957 H   0  0  0  0  0  0  0  0  0  0  0  0
   -4.7266   17.0904  -32.3957 H   0  0  0  0  0  0  0  0  0  0  0  0
   -8.1161   18.0644  -32.0140 H   0  0  0  0  0  0  0  0  0  0  0  0
  -10.1181   19.4467  -31.5356 H   0  0  0  0  0  0  0  0  0  0  0  0
   -9.9877   21.9206  -31.6501 H   0  0  0  0  0  0  0  0  0  0  0  0
   -7.9206   23.9885  -31.4018 H   0  0  0  0  0  0  0  0  0  0  0  0
   -7.0154   23.7386  -32.9331 H   0  0  0  0  0  0  0  0  0  0  0  0
   -8.8111   23.6902  -32.9331 H   0  0  0  0  0  0  0  0  0  0  0  0
  1  2  1  0
  2  3  1  0
  3  4  1  0
  4  5  1  0
  3  6  1  0
  6  7  1  0
  7  8  1  0
  8  9  1  0
  9 10  1  0
 10 11  1  0
 11 12  1  0
 12 13  1  0
 13 14  1  0
 14 15  1  0
 15 16  2  0
 16 17  1  0
 17 18  2  0
 18 19  1  0
 19 20  2  0
 20 21  1  0
 21 22  2  0
 22 23  1  0
 23 24  2  0
 24 25  1  0
 25 26  2  0
 26 27  1  0
 26 28  1  0
 28 29  2  0
 29 30  1  0
 30 31  2  0
 31 32  1  0
 32 33  1  0
 32 34  2  0
 34 15  1  0
 25 16  1  0
 34 28  1  0
 24 19  1  0
  1 35  1  0
  1 36  1  0
  1 37  1  0
  2 38  1  0
  2 39  1  0
  3 40  1  0
  4 41  1  0
  4 42  1  0
  5 43  1  0
  5 44  1  0
  5 45  1  0
  6 46  1  0
  6 47  1  0
  7 48  1  0
  7 49  1  0
  9 50  1  0
  9 51  1  0
 10 52  1  0
 10 53  1  0
 12 54  1  0
 12 55  1  0
 13 56  1  0
 13 57  1  0
 14 58  1  0
 17 59  1  0
 18 60  1  0
 20 61  1  0
 21 62  1  0
 22 63  1  0
 23 64  1  0
 27 65  1  0
 27 66  1  0
 27 67  1  0
 29 68  1  0
 30 69  1  0
 31 70  1  0
 33 71  1  0
 33 72  1  0
 33 73  1  0
M  CHG  2   3   1  26   1
M  END
>  <UniqueID>  (29) 
28

>  <SMILES>  (29) 
CC[NH+](CC)CCOCCOCCNc1c2ccc3ccccc3c2[n+](C)c2cccc(C)c12

>  <Energy>  (29) 
125.97700741478978

>  <Genealogy>  (29) 
CC[NH+](CC)CCOCCOCCNc1c2ccc3ccccc3c2[n+](C)c2cccc(C)c12 (protonated)
CC[NH+](CC)CCOCCOCCNc1c2ccc3ccccc3c2[n+](C)c2cccc(C)c12 (3D coordinates assigned)
CC[NH+](CC)CCOCCOCCNc1c2ccc3ccccc3c2[n+](C)c2cccc(C)c12 (optimized conformer: 125.97700741478978 kcal/mol)

>  <smiles>  (29) 
CCN(CC)CCOCCOCCNc1c2ccc3ccccc3c2[n+](C)c2cccc(C)c12

>  <score_type>  (29) 
oracle

>  <origin>  (29) 
adg

>  <m_score__min__energy>  (29) 
-9.2799999999999994

>  <m_primary>  (29) 
energy

$$$$
29:0
     RDKit          3D

 50 52  0  0  0  0  0  0  0  0999 V2000
   -2.3150   20.8150  -28.8250 C   0  0  0  0  0  0  0  0  0  0  0  0
   -3.0520   21.5740  -29.9400 C   0  0  0  0  0  0  0  0  0  0  0  0
   -2.2310   22.6480  -30.5270 N   0  0  0  0  0  0  0  0  0  0  0  0
   -0.9150   22.7660  -29.8900 C   0  0  0  0  0  0  0  0  0  0  0  0
   -0.8770   24.0330  -29.0370 C   0  0  0  0  0  0  0  0  0  0  0  0
   -2.0220   24.8150  -29.3120 O   0  0  0  0  0  0  0  0  0  0  0  0
   -3.0660   24.5400  -28.3910 C   0  0  0  0  0  0  0  0  0  0  0  0
   -4.4150   24.5340  -29.1180 C   0  0  0  0  0  0  0  0  0  0  0  0
   -4.2510   25.0140  -30.4990 N   0  0  0  0  0  0  0  0  0  0  0  0
   -5.5330   25.0130  -31.2200 C   0  0  0  0  0  0  0  0  0  0  0  0
   -5.9610   23.5970  -31.4950 C   0  0  0  0  0  0  0  0  0  0  0  0
   -7.2670   23.1780  -31.2350 C   0  0  0  0  0  0  0  0  0  0  0  0
   -7.6650   21.9200  -31.5550 N   0  0  0  0  0  0  0  0  0  0  0  0
   -6.8240   21.0150  -32.1540 C   0  0  0  0  0  0  0  0  0  0  0  0
   -7.2800   19.7220  -32.5070 C   0  0  0  0  0  0  0  0  0  0  0  0
   -9.1040   19.1990  -32.1020 Br  0  0  0  0  0  0  0  0  0  0  0  0
   -6.4050   18.8170  -33.1620 C   0  0  0  0  0  0  0  0  0  0  0  0
   -6.8480   17.5320  -33.5570 C   0  0  0  0  0  0  0  0  0  0  0  0
   -5.9910   16.6520  -34.2260 C   0  0  0  0  0  0  0  0  0  0  0  0
   -4.6800   17.0270  -34.5020 C   0  0  0  0  0  0  0  0  0  0  0  0
   -4.2130   18.2800  -34.1090 C   0  0  0  0  0  0  0  0  0  0  0  0
   -5.0620   19.1990  -33.4430 C   0  0  0  0  0  0  0  0  0  0  0  0
   -4.6010   20.4830  -33.0720 C   0  0  0  0  0  0  0  0  0  0  0  0
   -2.7720   21.0110  -33.4500 Br  0  0  0  0  0  0  0  0  0  0  0  0
   -5.4830   21.3930  -32.4360 C   0  0  0  0  0  0  0  0  0  0  0  0
   -5.0720   22.6960  -32.0910 C   0  0  0  0  0  0  0  0  0  0  0  0
   -2.6633   21.1737  -27.8452 H   0  0  0  0  0  0  0  0  0  0  0  0
   -2.5215   19.7384  -28.9159 H   0  0  0  0  0  0  0  0  0  0  0  0
   -1.2328   20.9897  -28.9159 H   0  0  0  0  0  0  0  0  0  0  0  0
   -3.3214   20.8616  -30.7337 H   0  0  0  0  0  0  0  0  0  0  0  0
   -3.9442   22.0392  -29.4955 H   0  0  0  0  0  0  0  0  0  0  0  0
   -2.7280   23.5630  -30.4280 H   0  0  0  0  0  0  0  0  0  0  0  0
   -0.7360   21.8882  -29.2518 H   0  0  0  0  0  0  0  0  0  0  0  0
   -0.1352   22.8201  -30.6640 H   0  0  0  0  0  0  0  0  0  0  0  0
   -0.8663   23.7588  -27.9718 H   0  0  0  0  0  0  0  0  0  0  0  0
    0.0292   24.6099  -29.2737 H   0  0  0  0  0  0  0  0  0  0  0  0
   -2.8958   23.5559  -27.9300 H   0  0  0  0  0  0  0  0  0  0  0  0
   -3.0772   25.3180  -27.6135 H   0  0  0  0  0  0  0  0  0  0  0  0
   -4.8140   23.5091  -29.1347 H   0  0  0  0  0  0  0  0  0  0  0  0
   -5.1113   25.1999  -28.5873 H   0  0  0  0  0  0  0  0  0  0  0  0
   -3.6040   24.3520  -30.9890 H   0  0  0  0  0  0  0  0  0  0  0  0
   -6.2973   25.5132  -30.6070 H   0  0  0  0  0  0  0  0  0  0  0  0
   -5.4143   25.5486  -32.1734 H   0  0  0  0  0  0  0  0  0  0  0  0
   -7.9797   23.8730  -30.7669 H   0  0  0  0  0  0  0  0  0  0  0  0
   -8.6580   21.6860  -31.3330 H   0  0  0  0  0  0  0  0  0  0  0  0
   -7.8796   17.2214  -33.3350 H   0  0  0  0  0  0  0  0  0  0  0  0
   -6.3546   15.6608  -34.5347 H   0  0  0  0  0  0  0  0  0  0  0  0
   -4.0106   16.3331  -35.0315 H   0  0  0  0  0  0  0  0  0  0  0  0
   -3.1701   18.5598  -34.3188 H   0  0  0  0  0  0  0  0  0  0  0  0
   -4.0371   23.0093  -32.2932 H   0  0  0  0  0  0  0  0  0  0  0  0
  1  2  1  0
  2  3  1  0
  3  4  1  0
  4  5  1  0
  5  6  1  0
  6  7  1  0
  7  8  1  0
  8  9  1  0
  9 10  1  0
 10 11  1  0
 11 12  2  0
 12 13  1  0
 13 14  2  0
 14 15  1  0
 15 16  1  0
 15 17  2  0
 17 18  1  0
 18 19  2  0
 19 20  1  0
 20 21  2  0
 21 22  1  0
 22 23  2  0
 23 24  1  0
 23 25  1  0
 25 26  2  0
 26 11  1  0
 25 14  1  0
 22 17  1  0
  1 27  1  0
  1 28  1  0
  1 29  1  0
  2 30  1  0
  2 31  1  0
  3 32  1  0
  4 33  1  0
  4 34  1  0
  5 35  1  0
  5 36  1  0
  7 37  1  0
  7 38  1  0
  8 39  1  0
  8 40  1  0
  9 41  1  0
 10 42  1  0
 10 43  1  0
 12 44  1  0
 13 45  1  0
 18 46  1  0
 19 47  1  0
 20 48  1  0
 21 49  1  0
 26 50  1  0
M  CHG  1  13   1
M  END
>  <UniqueID>  (30) 
29

>  <SMILES>  (30) 
CCNCCOCCNCc1c[nH+]c2c(Br)c3ccccc3c(Br)c2c1

>  <Energy>  (30) 
58.04613374957885

>  <Genealogy>  (30) 
CCNCCOCCNCc1c[nH+]c2c(Br)c3ccccc3c(Br)c2c1 (protonated)
CCNCCOCCNCc1c[nH+]c2c(Br)c3ccccc3c(Br)c2c1 (3D coordinates assigned)
CCNCCOCCNCc1c[nH+]c2c(Br)c3ccccc3c(Br)c2c1 (optimized conformer: 58.04613374957885 kcal/mol)

>  <smiles>  (30) 
CCNCCOCCNCc1cnc2c(Br)c3ccccc3c(Br)c2c1

>  <score_type>  (30) 
oracle

>  <origin>  (30) 
adg

>  <m_score__min__energy>  (30) 
-9.2100000000000009

>  <m_primary>  (30) 
energy

$$$$
30:0
     RDKit          3D

 37 39  0  0  0  0  0  0  0  0999 V2000
   -4.2980   16.8870  -34.9640 C   0  0  0  0  0  0  0  0  0  0  0  0
   -5.0600   15.8120  -34.1950 C   0  0  0  0  0  0  0  0  0  0  0  0
   -5.4250   16.2820  -32.8970 O   0  0  0  0  0  0  0  0  0  0  0  0
   -6.2050   17.4190  -32.6280 C   0  0  0  0  0  0  0  0  0  0  0  0
   -7.6120   17.4150  -32.7070 C   0  0  0  0  0  0  0  0  0  0  0  0
   -8.3400   18.5770  -32.4310 C   0  0  0  0  0  0  0  0  0  0  0  0
   -7.6730   19.7600  -32.0720 C   0  0  0  0  0  0  0  0  0  0  0  0
   -8.3590   20.9520  -31.7910 C   0  0  0  0  0  0  0  0  0  0  0  0
   -9.6180   21.0090  -31.8540 O   0  0  0  0  0  0  0  0  0  0  0  0
   -7.6350   22.0930  -31.4410 C   0  0  0  0  0  0  0  0  0  0  0  0
   -6.2340   22.0220  -31.3720 C   0  0  0  0  0  0  0  0  0  0  0  0
   -5.4500   23.1780  -31.0210 N   0  0  0  0  0  0  0  0  0  0  0  0
   -4.0000   23.0610  -30.8200 C   0  0  0  0  0  0  0  0  0  0  0  0
   -3.5030   24.2140  -29.9440 C   0  0  0  0  0  0  0  0  0  0  0  0
   -3.9210   25.4600  -30.4680 O   0  0  0  0  0  0  0  0  0  0  0  0
   -5.3310   25.5520  -30.4150 C   0  0  0  0  0  0  0  0  0  0  0  0
   -5.9810   24.5080  -31.3290 C   0  0  0  0  0  0  0  0  0  0  0  0
   -5.6160   20.8770  -31.6570 O   0  0  0  0  0  0  0  0  0  0  0  0
   -6.2640   19.7670  -31.9950 C   0  0  0  0  0  0  0  0  0  0  0  0
   -5.5440   18.6020  -32.2740 C   0  0  0  0  0  0  0  0  0  0  0  0
   -3.8126   17.5718  -34.2531 H   0  0  0  0  0  0  0  0  0  0  0  0
   -3.5333   16.4127  -35.5967 H   0  0  0  0  0  0  0  0  0  0  0  0
   -4.9987   17.4515  -35.5967 H   0  0  0  0  0  0  0  0  0  0  0  0
   -5.9706   15.5467  -34.7521 H   0  0  0  0  0  0  0  0  0  0  0  0
   -4.4109   14.9311  -34.0822 H   0  0  0  0  0  0  0  0  0  0  0  0
   -8.1410   16.4923  -32.9875 H   0  0  0  0  0  0  0  0  0  0  0  0
   -9.4380   18.5644  -32.4953 H   0  0  0  0  0  0  0  0  0  0  0  0
   -8.1557   23.0368  -31.2218 H   0  0  0  0  0  0  0  0  0  0  0  0
   -3.7759   22.1041  -30.3259 H   0  0  0  0  0  0  0  0  0  0  0  0
   -3.4937   23.1019  -31.7957 H   0  0  0  0  0  0  0  0  0  0  0  0
   -3.9084   24.0958  -28.9283 H   0  0  0  0  0  0  0  0  0  0  0  0
   -2.4034   24.1917  -29.9227 H   0  0  0  0  0  0  0  0  0  0  0  0
   -5.6645   25.3827  -29.3805 H   0  0  0  0  0  0  0  0  0  0  0  0
   -5.6312   26.5538  -30.7560 H   0  0  0  0  0  0  0  0  0  0  0  0
   -7.0696   24.5119  -31.1712 H   0  0  0  0  0  0  0  0  0  0  0  0
   -5.7571   24.7541  -32.3775 H   0  0  0  0  0  0  0  0  0  0  0  0
   -4.4457   18.6143  -32.2149 H   0  0  0  0  0  0  0  0  0  0  0  0
  1  2  1  0
  2  3  1  0
  3  4  1  0
  4  5  2  0
  5  6  1  0
  6  7  2  0
  7  8  1  0
  8  9  2  0
  8 10  1  0
 10 11  2  0
 11 12  1  0
 12 13  1  0
 13 14  1  0
 14 15  1  0
 15 16  1  0
 16 17  1  0
 11 18  1  0
 18 19  1  0
 19 20  2  0
 20  4  1  0
 19  7  1  0
 17 12  1  0
  1 21  1  0
  1 22  1  0
  1 23  1  0
  2 24  1  0
  2 25  1  0
  5 26  1  0
  6 27  1  0
 10 28  1  0
 13 29  1  0
 13 30  1  0
 14 31  1  0
 14 32  1  0
 16 33  1  0
 16 34  1  0
 17 35  1  0
 17 36  1  0
 20 37  1  0
M  END
>  <UniqueID>  (31) 
30

>  <SMILES>  (31) 
CCOc1ccc2c(=O)cc(N3CCOCC3)oc2c1

>  <Energy>  (31) 
45.31027890363509

>  <Genealogy>  (31) 
CCOc1ccc2c(=O)cc(N3CCOCC3)oc2c1 (3D coordinates assigned)
CCOc1ccc2c(=O)cc(N3CCOCC3)oc2c1 (nonaromatic ring conformer: 45.31027890363509 kcal/mol)

>  <smiles>  (31) 
CCOc1ccc2c(=O)cc(N3CCOCC3)oc2c1

>  <score_type>  (31) 
oracle

>  <origin>  (31) 
adg

>  <m_score__min__energy>  (31) 
-7.5700000000000003

>  <m_primary>  (31) 
energy

$$$$
31:0
     RDKit          3D

 48 50  0  0  0  0  0  0  0  0999 V2000
   -8.9720   18.7530  -31.9180 C   0  0  0  0  0  0  0  0  0  0  0  0
   -7.5430   18.2540  -31.7240 C   0  0  0  0  0  0  0  0  0  0  0  0
   -6.8940   17.8910  -33.0650 C   0  0  0  0  0  0  0  0  0  0  0  0
   -6.8620   19.0580  -33.9620 N   0  0  0  0  0  0  0  0  0  0  0  0
   -5.6080   19.8190  -33.8310 C   0  0  0  0  0  0  0  0  0  0  0  0
   -5.6820   20.8340  -32.7160 C   0  0  0  0  0  0  0  0  0  0  0  0
   -6.7970   21.6060  -32.4490 C   0  0  0  0  0  0  0  0  0  0  0  0
   -6.4450   22.4710  -31.4350 C   0  0  0  0  0  0  0  0  0  0  0  0
   -5.1210   22.2070  -31.1320 C   0  0  0  0  0  0  0  0  0  0  0  0
   -4.3310   22.9710  -30.1410 C   0  0  0  0  0  0  0  0  0  0  0  0
   -2.9900   23.2980  -30.3950 C   0  0  0  0  0  0  0  0  0  0  0  0
   -2.2550   24.0410  -29.4650 C   0  0  0  0  0  0  0  0  0  0  0  0
   -2.8530   24.4820  -28.2710 C   0  0  0  0  0  0  0  0  0  0  0  0
   -2.0720   25.2710  -27.2840 C   0  0  0  0  0  0  0  0  0  0  0  0
   -2.5270   25.4110  -25.9580 C   0  0  0  0  0  0  0  0  0  0  0  0
   -1.7890   26.1540  -25.0320 C   0  0  0  0  0  0  0  0  0  0  0  0
   -0.5920   26.7640  -25.4150 C   0  0  0  0  0  0  0  0  0  0  0  0
   -0.1320   26.6320  -26.7260 C   0  0  0  0  0  0  0  0  0  0  0  0
   -0.8650   25.8910  -27.6570 C   0  0  0  0  0  0  0  0  0  0  0  0
   -4.2030   24.1700  -28.0310 C   0  0  0  0  0  0  0  0  0  0  0  0
   -4.9360   23.4260  -28.9610 C   0  0  0  0  0  0  0  0  0  0  0  0
   -4.6610   21.1900  -31.9000 N   0  0  0  0  0  0  0  0  0  0  0  0
   -3.3270   20.5830  -31.8550 C   0  0  0  0  0  0  0  0  0  0  0  0
   -9.4398   18.9164  -30.9359 H   0  0  0  0  0  0  0  0  0  0  0  0
   -8.9570   19.6991  -32.4790 H   0  0  0  0  0  0  0  0  0  0  0  0
   -9.5492   18.0032  -32.4790 H   0  0  0  0  0  0  0  0  0  0  0  0
   -6.9497   19.0443  -31.2408 H   0  0  0  0  0  0  0  0  0  0  0  0
   -7.5722   17.3512  -31.0962 H   0  0  0  0  0  0  0  0  0  0  0  0
   -5.8652   17.5451  -32.8861 H   0  0  0  0  0  0  0  0  0  0  0  0
   -7.4873   17.0962  -33.5407 H   0  0  0  0  0  0  0  0  0  0  0  0
   -7.6540   19.6980  -33.7150 H   0  0  0  0  0  0  0  0  0  0  0  0
   -6.9870   18.7490  -34.9550 H   0  0  0  0  0  0  0  0  0  0  0  0
   -4.7866   19.1183  -33.6206 H   0  0  0  0  0  0  0  0  0  0  0  0
   -5.4356   20.3588  -34.7738 H   0  0  0  0  0  0  0  0  0  0  0  0
   -7.7750   21.5425  -32.9485 H   0  0  0  0  0  0  0  0  0  0  0  0
   -7.0906   23.2241  -30.9596 H   0  0  0  0  0  0  0  0  0  0  0  0
   -2.5143   22.9683  -31.3304 H   0  0  0  0  0  0  0  0  0  0  0  0
   -1.2014   24.2821  -29.6692 H   0  0  0  0  0  0  0  0  0  0  0  0
   -3.4684   24.9329  -25.6496 H   0  0  0  0  0  0  0  0  0  0  0  0
   -2.1518   26.2586  -23.9988 H   0  0  0  0  0  0  0  0  0  0  0  0
   -0.0128   27.3476  -24.6843 H   0  0  0  0  0  0  0  0  0  0  0  0
    0.8104   27.1127  -27.0274 H   0  0  0  0  0  0  0  0  0  0  0  0
   -0.4959   25.7917  -28.6885 H   0  0  0  0  0  0  0  0  0  0  0  0
   -4.6862   24.5138  -27.1046 H   0  0  0  0  0  0  0  0  0  0  0  0
   -5.9938   23.1964  -28.7654 H   0  0  0  0  0  0  0  0  0  0  0  0
   -3.0224   20.4444  -30.8071 H   0  0  0  0  0  0  0  0  0  0  0  0
   -3.3509   19.6071  -32.3620 H   0  0  0  0  0  0  0  0  0  0  0  0
   -2.6070   21.2421  -32.3620 H   0  0  0  0  0  0  0  0  0  0  0  0
  1  2  1  0
  2  3  1  0
  3  4  1  0
  4  5  1  0
  5  6  1  0
  6  7  2  0
  7  8  1  0
  8  9  2  0
  9 10  1  0
 10 11  2  0
 11 12  1  0
 12 13  2  0
 13 14  1  0
 14 15  2  0
 15 16  1  0
 16 17  2  0
 17 18  1  0
 18 19  2  0
 13 20  1  0
 20 21  2  0
  9 22  1  0
 22 23  1  0
 22  6  1  0
 21 10  1  0
 19 14  1  0
  1 24  1  0
  1 25  1  0
  1 26  1  0
  2 27  1  0
  2 28  1  0
  3 29  1  0
  3 30  1  0
  4 31  1  0
  4 32  1  0
  5 33  1  0
  5 34  1  0
  7 35  1  0
  8 36  1  0
 11 37  1  0
 12 38  1  0
 15 39  1  0
 16 40  1  0
 17 41  1  0
 18 42  1  0
 19 43  1  0
 20 44  1  0
 21 45  1  0
 23 46  1  0
 23 47  1  0
 23 48  1  0
M  CHG  1   4   1
M  END
>  <UniqueID>  (32) 
31

>  <SMILES>  (32) 
CCC[NH2+]Cc1ccc(-c2ccc(-c3ccccc3)cc2)n1C

>  <Energy>  (32) 
80.67070217387804

>  <Genealogy>  (32) 
CCC[NH2+]Cc1ccc(-c2ccc(-c3ccccc3)cc2)n1C (protonated)
CCC[NH2+]Cc1ccc(-c2ccc(-c3ccccc3)cc2)n1C (3D coordinates assigned)
CCC[NH2+]Cc1ccc(-c2ccc(-c3ccccc3)cc2)n1C (optimized conformer: 80.67070217387804 kcal/mol)

>  <smiles>  (32) 
CCCNCc1ccc(-c2ccc(-c3ccccc3)cc2)n1C

>  <score_type>  (32) 
oracle

>  <origin>  (32) 
adg

>  <m_score__min__energy>  (32) 
-7.4199999999999999

>  <m_primary>  (32) 
energy

$$$$
32:0
     RDKit          3D

 42 45  0  0  0  0  0  0  0  0999 V2000
   -6.1330   16.3250  -33.6620 C   0  0  0  0  0  0  0  0  0  0  0  0
   -5.9810   16.7150  -32.1890 C   0  0  0  0  0  0  0  0  0  0  0  0
   -6.2250   18.1510  -31.9650 N   0  0  0  0  0  0  0  0  0  0  0  0
   -7.6160   18.4440  -31.5870 C   0  0  0  0  0  0  0  0  0  0  0  0
   -8.1600   19.6630  -32.3570 C   0  0  0  0  0  0  0  0  0  0  0  0
   -7.1540   20.2880  -33.2360 N   0  0  0  0  0  0  0  0  0  0  0  0
   -6.5440   21.4460  -32.6290 C   0  0  0  0  0  0  0  0  0  0  0  0
   -7.1820   22.7000  -32.6450 C   0  0  0  0  0  0  0  0  0  0  0  0
   -6.5900   23.8140  -32.0190 C   0  0  0  0  0  0  0  0  0  0  0  0
   -5.3360   23.7130  -31.3610 C   0  0  0  0  0  0  0  0  0  0  0  0
   -4.7240   22.4570  -31.3700 C   0  0  0  0  0  0  0  0  0  0  0  0
   -3.5410   21.9600  -30.8610 C   0  0  0  0  0  0  0  0  0  0  0  0
   -3.4850   20.6780  -31.1820 O   0  0  0  0  0  0  0  0  0  0  0  0
   -4.5280   20.2880  -31.8570 N   0  0  0  0  0  0  0  0  0  0  0  0
   -5.3060   21.3720  -31.9820 C   0  0  0  0  0  0  0  0  0  0  0  0
   -2.4710   22.6300  -30.0940 C   0  0  0  0  0  0  0  0  0  0  0  0
   -1.3700   21.8310  -29.7130 C   0  0  0  0  0  0  0  0  0  0  0  0
   -0.3060   22.3620  -28.9850 C   0  0  0  0  0  0  0  0  0  0  0  0
   -0.3180   23.7030  -28.6220 C   0  0  0  0  0  0  0  0  0  0  0  0
   -1.3920   24.5100  -28.9860 C   0  0  0  0  0  0  0  0  0  0  0  0
   -2.4750   23.9980  -29.7190 C   0  0  0  0  0  0  0  0  0  0  0  0
   -3.5090   24.9410  -30.0230 N   0  0  0  0  0  0  0  0  0  0  0  0
   -4.7580   24.9090  -30.7160 C   0  0  0  0  0  0  0  0  0  0  0  0
   -5.4040   25.9900  -30.7710 O   0  0  0  0  0  0  0  0  0  0  0  0
   -6.5317   15.3021  -33.7312 H   0  0  0  0  0  0  0  0  0  0  0  0
   -6.8251   17.0225  -34.1564 H   0  0  0  0  0  0  0  0  0  0  0  0
   -5.1514   16.3702  -34.1564 H   0  0  0  0  0  0  0  0  0  0  0  0
   -6.7019   16.1361  -31.5931 H   0  0  0  0  0  0  0  0  0  0  0  0
   -4.9458   16.4974  -31.8873 H   0  0  0  0  0  0  0  0  0  0  0  0
   -5.5830   18.5090  -31.2190 H   0  0  0  0  0  0  0  0  0  0  0  0
   -8.2413   17.5681  -31.8145 H   0  0  0  0  0  0  0  0  0  0  0  0
   -7.6430   18.6722  -30.5113 H   0  0  0  0  0  0  0  0  0  0  0  0
   -9.0098   19.3364  -32.9744 H   0  0  0  0  0  0  0  0  0  0  0  0
   -8.4575   20.4156  -31.6119 H   0  0  0  0  0  0  0  0  0  0  0  0
   -6.4050   19.5850  -33.4390 H   0  0  0  0  0  0  0  0  0  0  0  0
   -7.5930   20.5380  -34.1530 H   0  0  0  0  0  0  0  0  0  0  0  0
   -8.1522   22.8113  -33.1512 H   0  0  0  0  0  0  0  0  0  0  0  0
   -7.1102   24.7830  -32.0403 H   0  0  0  0  0  0  0  0  0  0  0  0
   -1.3518   20.7683  -29.9964 H   0  0  0  0  0  0  0  0  0  0  0  0
    0.5407   21.7208  -28.6988 H   0  0  0  0  0  0  0  0  0  0  0  0
    0.5196   24.1261  -28.0481 H   0  0  0  0  0  0  0  0  0  0  0  0
   -1.3925   25.5704  -28.6936 H   0  0  0  0  0  0  0  0  0  0  0  0
  1  2  1  0
  2  3  1  0
  3  4  1  0
  4  5  1  0
  5  6  1  0
  6  7  1  0
  7  8  2  0
  8  9  1  0
  9 10  2  0
 10 11  1  0
 11 12  2  0
 12 13  1  0
 13 14  1  0
 14 15  2  0
 12 16  1  0
 16 17  2  0
 17 18  1  0
 18 19  2  0
 19 20  1  0
 20 21  2  0
 21 22  1  0
 22 23  1  0
 23 24  2  0
 15  7  1  0
 21 16  1  0
 23 10  1  0
 15 11  1  0
  1 25  1  0
  1 26  1  0
  1 27  1  0
  2 28  1  0
  2 29  1  0
  3 30  1  0
  4 31  1  0
  4 32  1  0
  5 33  1  0
  5 34  1  0
  6 35  1  0
  6 36  1  0
  8 37  1  0
  9 38  1  0
 17 39  1  0
 18 40  1  0
 19 41  1  0
 20 42  1  0
M  CHG  2   6   1  22  -1
M  END
>  <UniqueID>  (33) 
32

>  <SMILES>  (33) 
CCNCC[NH2+]c1ccc2c3c(onc13)-c1ccccc1[N-]C2=O

>  <Energy>  (33) 
99.630071438863

>  <Genealogy>  (33) 
CCNCC[NH2+]c1ccc2c3c(onc13)-c1ccccc1[N-]C2=O (protonated)
CCNCC[NH2+]c1ccc2c3c(onc13)-c1ccccc1[N-]C2=O (3D coordinates assigned)
CCNCC[NH2+]c1ccc2c3c(onc13)-c1ccccc1[N-]C2=O (nonaromatic ring conformer: 99.630071438863 kcal/mol)

>  <smiles>  (33) 
CCNCCNc1ccc2c3c(onc13)-c1ccccc1NC2=O

>  <score_type>  (33) 
oracle

>  <origin>  (33) 
adg

>  <m_score__min__energy>  (33) 
-9.0899999999999999

>  <m_primary>  (33) 
energy

$$$$
