0:0
     RDKit          3D

 56 58  0  0  0  0  0  0  0  0999 V2000
   -6.1090   25.6170  -29.5990 C   0  0  0  0  0  0  0  0  0  0  0  0
   -5.2530   25.2510  -30.8070 C   0  0  0  0  0  0  0  0  0  0  0  0
   -3.8820   25.2800  -30.4580 O   0  0  0  0  0  0  0  0  0  0  0  0
   -3.6280   24.5420  -29.2760 C   0  0  0  0  0  0  0  0  0  0  0  0
   -3.9570   23.0620  -29.4990 C   0  0  0  0  0  0  0  0  0  0  0  0
   -2.8210   22.2530  -29.2540 O   0  0  0  0  0  0  0  0  0  0  0  0
   -2.1150   22.0030  -30.4540 C   0  0  0  0  0  0  0  0  0  0  0  0
   -3.0300   22.3360  -31.6360 C   0  0  0  0  0  0  0  0  0  0  0  0
   -3.2580   21.1330  -32.5600 C   0  0  0  0  0  0  0  0  0  0  0  0
   -4.4920   21.2800  -33.3390 N   0  0  0  0  0  0  0  0  0  0  0  0
   -5.6730   20.5600  -32.9630 C   0  0  0  0  0  0  0  0  0  0  0  0
   -5.7450   19.1750  -33.1830 C   0  0  0  0  0  0  0  0  0  0  0  0
   -6.9380   18.4840  -32.8460 C   0  0  0  0  0  0  0  0  0  0  0  0
   -7.9550   19.1430  -32.1820 N   0  0  0  0  0  0  0  0  0  0  0  0
   -9.0590   18.3680  -31.5710 C   0  0  0  0  0  0  0  0  0  0  0  0
   -7.9530   20.5220  -32.1070 C   0  0  0  0  0  0  0  0  0  0  0  0
   -9.0940   21.2470  -31.6820 C   0  0  0  0  0  0  0  0  0  0  0  0
   -9.0700   22.6410  -31.5950 C   0  0  0  0  0  0  0  0  0  0  0  0
   -7.9180   23.3420  -31.9280 C   0  0  0  0  0  0  0  0  0  0  0  0
   -6.7880   22.6580  -32.3700 C   0  0  0  0  0  0  0  0  0  0  0  0
   -6.7960   21.2520  -32.4780 C   0  0  0  0  0  0  0  0  0  0  0  0
   -7.0730   17.0010  -33.1800 C   0  0  0  0  0  0  0  0  0  0  0  0
   -6.1080   16.5480  -34.2760 C   0  0  0  0  0  0  0  0  0  0  0  0
   -4.6970   16.9600  -33.8930 C   0  0  0  0  0  0  0  0  0  0  0  0
   -4.5860   18.4850  -33.8880 C   0  0  0  0  0  0  0  0  0  0  0  0
   -5.5595   25.3820  -28.6755 H   0  0  0  0  0  0  0  0  0  0  0  0
   -6.3394   26.6923  -29.6251 H   0  0  0  0  0  0  0  0  0  0  0  0
   -7.0456   25.0406  -29.6251 H   0  0  0  0  0  0  0  0  0  0  0  0
   -5.5200   24.2403  -31.1493 H   0  0  0  0  0  0  0  0  0  0  0  0
   -5.4353   25.9789  -31.6113 H   0  0  0  0  0  0  0  0  0  0  0  0
   -2.5665   24.6421  -29.0055 H   0  0  0  0  0  0  0  0  0  0  0  0
   -4.2592   24.9331  -28.4645 H   0  0  0  0  0  0  0  0  0  0  0  0
   -4.7657   22.7651  -28.8150 H   0  0  0  0  0  0  0  0  0  0  0  0
   -4.2702   22.9236  -30.5443 H   0  0  0  0  0  0  0  0  0  0  0  0
   -1.2146   22.6338  -30.4928 H   0  0  0  0  0  0  0  0  0  0  0  0
   -1.8114   20.9467  -30.4990 H   0  0  0  0  0  0  0  0  0  0  0  0
   -4.0026   22.6704  -31.2458 H   0  0  0  0  0  0  0  0  0  0  0  0
   -2.5390   23.1230  -32.2272 H   0  0  0  0  0  0  0  0  0  0  0  0
   -2.4069   21.0470  -33.2515 H   0  0  0  0  0  0  0  0  0  0  0  0
   -3.3487   20.2312  -31.9366 H   0  0  0  0  0  0  0  0  0  0  0  0
   -4.6090   22.0880  -33.9860 H   0  0  0  0  0  0  0  0  0  0  0  0
   -8.9821   18.4220  -30.4750 H   0  0  0  0  0  0  0  0  0  0  0  0
  -10.0235   18.7883  -31.8921 H   0  0  0  0  0  0  0  0  0  0  0  0
   -8.9915   17.3181  -31.8921 H   0  0  0  0  0  0  0  0  0  0  0  0
  -10.0128   20.7036  -31.4165 H   0  0  0  0  0  0  0  0  0  0  0  0
   -9.9660   23.1852  -31.2618 H   0  0  0  0  0  0  0  0  0  0  0  0
   -7.8981   24.4385  -31.8426 H   0  0  0  0  0  0  0  0  0  0  0  0
   -5.8809   23.2198  -32.6373 H   0  0  0  0  0  0  0  0  0  0  0  0
   -6.8705   16.4165  -32.2704 H   0  0  0  0  0  0  0  0  0  0  0  0
   -8.0953   16.8380  -33.5521 H   0  0  0  0  0  0  0  0  0  0  0  0
   -6.1571   15.4542  -34.3817 H   0  0  0  0  0  0  0  0  0  0  0  0
   -6.3853   17.0156  -35.2322 H   0  0  0  0  0  0  0  0  0  0  0  0
   -4.4633   16.5736  -32.8900 H   0  0  0  0  0  0  0  0  0  0  0  0
   -3.9868   16.5466  -34.6243 H   0  0  0  0  0  0  0  0  0  0  0  0
   -3.6521   18.7646  -33.3784 H   0  0  0  0  0  0  0  0  0  0  0  0
   -4.6029   18.8144  -34.9374 H   0  0  0  0  0  0  0  0  0  0  0  0
  1  2  1  0
  2  3  1  0
  3  4  1  0
  4  5  1  0
  5  6  1  0
  6  7  1  0
  7  8  1  0
  8  9  1  0
  9 10  1  0
 10 11  1  0
 11 12  2  0
 12 13  1  0
 13 14  2  0
 14 15  1  0
 14 16  1  0
 16 17  2  0
 17 18  1  0
 18 19  2  0
 19 20  1  0
 20 21  2  0
 13 22  1  0
 22 23  1  0
 23 24  1  0
 24 25  1  0
 21 11  1  0
 25 12  1  0
 21 16  1  0
  1 26  1  0
  1 27  1  0
  1 28  1  0
  2 29  1  0
  2 30  1  0
  4 31  1  0
  4 32  1  0
  5 33  1  0
  5 34  1  0
  7 35  1  0
  7 36  1  0
  8 37  1  0
  8 38  1  0
  9 39  1  0
  9 40  1  0
 10 41  1  0
 15 42  1  0
 15 43  1  0
 15 44  1  0
 17 45  1  0
 18 46  1  0
 19 47  1  0
 20 48  1  0
 22 49  1  0
 22 50  1  0
 23 51  1  0
 23 52  1  0
 24 53  1  0
 24 54  1  0
 25 55  1  0
 25 56  1  0
M  CHG  1  14   1
M  END
>  <UniqueID>  (1) 
1

>  <SMILES>  (1) 
CCOCCOCCCNc1c2c([n+](C)c3ccccc13)CCCC2

>  <Energy>  (1) 
74.93135195572626

>  <Genealogy>  (1) 
CCOCCOCCCNc1c2c([n+](C)c3ccccc13)CCCC2 (3D coordinates assigned)
CCOCCOCCCNc1c2c([n+](C)c3ccccc13)CCCC2 (nonaromatic ring conformer: 74.93135195572626 kcal/mol)

>  <smiles>  (1) 
CCOCCOCCCNc1c2c([n+](C)c3ccccc13)CCCC2

>  <score_type>  (1) 
oracle

>  <origin>  (1) 
adg

>  <m_score__min__energy>  (1) 
-9.7699999999999996

>  <m_primary>  (1) 
energy

$$$$
1:0
     RDKit          3D

 49 51  0  0  0  0  0  0  0  0999 V2000
   -3.7520   23.3450  -28.9190 C   0  0  0  0  0  0  0  0  0  0  0  0
   -3.5210   24.5510  -29.8250 C   0  0  0  0  0  0  0  0  0  0  0  0
   -4.5940   24.6540  -30.8360 N   0  0  0  0  0  0  0  0  0  0  0  0
   -4.8300   23.3440  -31.4840 C   0  0  0  0  0  0  0  0  0  0  0  0
   -6.2000   23.3070  -32.1770 C   0  0  0  0  0  0  0  0  0  0  0  0
   -7.3180   23.4870  -31.2170 N   0  0  0  0  0  0  0  0  0  0  0  0
   -7.9570   22.1940  -30.8810 C   0  0  0  0  0  0  0  0  0  0  0  0
   -8.9620   21.7420  -31.9570 C   0  0  0  0  0  0  0  0  0  0  0  0
   -8.5560   20.4430  -32.6680 C   0  0  0  0  0  0  0  0  0  0  0  0
   -8.2200   19.0710  -31.5040 S   0  0  0  0  0  0  0  0  0  0  0  0
   -7.0280   18.2400  -32.5670 C   0  0  0  0  0  0  0  0  0  0  0  0
   -7.3280   16.9920  -33.0120 N   0  0  0  0  0  0  0  0  0  0  0  0
   -6.4830   16.3010  -33.8220 C   0  0  0  0  0  0  0  0  0  0  0  0
   -6.8370   14.9210  -34.2640 C   0  0  0  0  0  0  0  0  0  0  0  0
   -5.2910   16.8450  -34.1790 N   0  0  0  0  0  0  0  0  0  0  0  0
   -4.9320   18.0850  -33.7590 C   0  0  0  0  0  0  0  0  0  0  0  0
   -3.6990   18.6230  -34.1480 C   0  0  0  0  0  0  0  0  0  0  0  0
   -3.3250   19.8970  -33.7170 C   0  0  0  0  0  0  0  0  0  0  0  0
   -4.1780   20.6400  -32.8970 C   0  0  0  0  0  0  0  0  0  0  0  0
   -5.4100   20.1120  -32.5010 C   0  0  0  0  0  0  0  0  0  0  0  0
   -5.8000   18.8290  -32.9280 C   0  0  0  0  0  0  0  0  0  0  0  0
   -6.9240   24.2330  -29.9940 C   0  0  0  0  0  0  0  0  0  0  0  0
   -5.8310   25.2710  -30.2890 C   0  0  0  0  0  0  0  0  0  0  0  0
   -3.6917   23.6600  -27.8668 H   0  0  0  0  0  0  0  0  0  0  0  0
   -4.7475   22.9218  -29.1186 H   0  0  0  0  0  0  0  0  0  0  0  0
   -2.9833   22.5839  -29.1186 H   0  0  0  0  0  0  0  0  0  0  0  0
   -3.5107   25.4657  -29.2140 H   0  0  0  0  0  0  0  0  0  0  0  0
   -2.5575   24.4279  -30.3412 H   0  0  0  0  0  0  0  0  0  0  0  0
   -4.0440   23.1672  -32.2329 H   0  0  0  0  0  0  0  0  0  0  0  0
   -4.8098   22.5632  -30.7095 H   0  0  0  0  0  0  0  0  0  0  0  0
   -6.2411   24.1132  -32.9242 H   0  0  0  0  0  0  0  0  0  0  0  0
   -6.3142   22.3194  -32.6477 H   0  0  0  0  0  0  0  0  0  0  0  0
   -7.1743   21.4273  -30.7836 H   0  0  0  0  0  0  0  0  0  0  0  0
   -8.5092   22.3261  -29.9389 H   0  0  0  0  0  0  0  0  0  0  0  0
   -9.9391   21.5852  -31.4767 H   0  0  0  0  0  0  0  0  0  0  0  0
   -8.9946   22.5324  -32.7214 H   0  0  0  0  0  0  0  0  0  0  0  0
   -9.3722   20.1409  -33.3408 H   0  0  0  0  0  0  0  0  0  0  0  0
   -7.6256   20.6445  -33.2191 H   0  0  0  0  0  0  0  0  0  0  0  0
   -7.0004   14.2841  -33.3821 H   0  0  0  0  0  0  0  0  0  0  0  0
   -7.7558   14.9538  -34.8679 H   0  0  0  0  0  0  0  0  0  0  0  0
   -6.0159   14.5074  -34.8679 H   0  0  0  0  0  0  0  0  0  0  0  0
   -3.0247   18.0413  -34.7937 H   0  0  0  0  0  0  0  0  0  0  0  0
   -2.3558   20.3172  -34.0239 H   0  0  0  0  0  0  0  0  0  0  0  0
   -3.8789   21.6441  -32.5619 H   0  0  0  0  0  0  0  0  0  0  0  0
   -6.0766   20.7009  -31.8538 H   0  0  0  0  0  0  0  0  0  0  0  0
   -7.8076   24.7502  -29.5918 H   0  0  0  0  0  0  0  0  0  0  0  0
   -6.5242   23.5115  -29.2662 H   0  0  0  0  0  0  0  0  0  0  0  0
   -6.2190   25.9935  -31.0221 H   0  0  0  0  0  0  0  0  0  0  0  0
   -5.5691   25.7604  -29.3393 H   0  0  0  0  0  0  0  0  0  0  0  0
  1  2  1  0
  2  3  1  0
  3  4  1  0
  4  5  1  0
  5  6  1  0
  6  7  1  0
  7  8  1  0
  8  9  1  0
  9 10  1  0
 10 11  1  0
 11 12  2  0
 12 13  1  0
 13 14  1  0
 13 15  2  0
 15 16  1  0
 16 17  2  0
 17 18  1  0
 18 19  2  0
 19 20  1  0
 20 21  2  0
  6 22  1  0
 22 23  1  0
 23  3  1  0
 21 11  1  0
 21 16  1  0
  1 24  1  0
  1 25  1  0
  1 26  1  0
  2 27  1  0
  2 28  1  0
  4 29  1  0
  4 30  1  0
  5 31  1  0
  5 32  1  0
  7 33  1  0
  7 34  1  0
  8 35  1  0
  8 36  1  0
  9 37  1  0
  9 38  1  0
 14 39  1  0
 14 40  1  0
 14 41  1  0
 17 42  1  0
 18 43  1  0
 19 44  1  0
 20 45  1  0
 22 46  1  0
 22 47  1  0
 23 48  1  0
 23 49  1  0
M  END
>  <UniqueID>  (2) 
2

>  <SMILES>  (2) 
CCN1CCN(CCCSc2nc(C)nc3ccccc23)CC1

>  <Energy>  (2) 
58.465603644199156

>  <Genealogy>  (2) 
CCN1CCN(CCCSc2nc(C)nc3ccccc23)CC1 (3D coordinates assigned)
CCN1CCN(CCCSc2nc(C)nc3ccccc23)CC1 (nonaromatic ring conformer: 58.465603644199156 kcal/mol)

>  <smiles>  (2) 
CCN1CCN(CCCSc2nc(C)nc3ccccc23)CC1

>  <score_type>  (2) 
oracle

>  <origin>  (2) 
adg

>  <m_score__min__energy>  (2) 
-8.5700000000000003

>  <m_primary>  (2) 
energy

$$$$
2:0
     RDKit          3D

 50 52  0  0  0  0  0  0  0  0999 V2000
   -1.5370   23.9230  -29.3050 C   0  0  0  0  0  0  0  0  0  0  0  0
   -2.7700   23.4560  -30.0630 C   0  0  0  0  0  0  0  0  0  0  0  0
   -3.4680   24.5730  -30.5580 O   0  0  0  0  0  0  0  0  0  0  0  0
   -4.5610   24.7140  -29.7620 N   0  0  0  0  0  0  0  0  0  0  0  0
   -5.5960   25.4210  -30.5210 C   0  0  0  0  0  0  0  0  0  0  0  0
   -6.9890   24.8750  -30.1700 C   0  0  0  0  0  0  0  0  0  0  0  0
   -7.5380   23.8820  -31.2100 C   0  0  0  0  0  0  0  0  0  0  0  0
   -6.5190   23.5370  -32.3050 C   0  0  0  0  0  0  0  0  0  0  0  0
   -5.5000   22.6250  -31.7860 N   0  0  0  0  0  0  0  0  0  0  0  0
   -5.3880   21.2810  -32.2830 C   0  0  0  0  0  0  0  0  0  0  0  0
   -6.4840   20.4040  -32.2130 C   0  0  0  0  0  0  0  0  0  0  0  0
   -7.6520   20.7610  -31.5090 C   0  0  0  0  0  0  0  0  0  0  0  0
   -8.7300   19.8820  -31.4260 C   0  0  0  0  0  0  0  0  0  0  0  0
   -8.6530   18.6300  -32.0220 C   0  0  0  0  0  0  0  0  0  0  0  0
   -7.5040   18.2500  -32.7150 C   0  0  0  0  0  0  0  0  0  0  0  0
   -6.4050   19.1360  -32.8500 C   0  0  0  0  0  0  0  0  0  0  0  0
   -5.2760   18.7920  -33.5700 N   0  0  0  0  0  0  0  0  0  0  0  0
   -5.3050   17.6260  -34.4790 C   0  0  0  0  0  0  0  0  0  0  0  0
   -4.1280   19.5560  -33.4600 C   0  0  0  0  0  0  0  0  0  0  0  0
   -2.8780   19.1020  -33.9520 C   0  0  0  0  0  0  0  0  0  0  0  0
   -1.7430   19.9100  -33.8880 C   0  0  0  0  0  0  0  0  0  0  0  0
   -1.8180   21.1790  -33.3250 C   0  0  0  0  0  0  0  0  0  0  0  0
   -3.0230   21.6390  -32.8000 C   0  0  0  0  0  0  0  0  0  0  0  0
   -4.1800   20.8330  -32.8400 C   0  0  0  0  0  0  0  0  0  0  0  0
   -1.7231   23.8525  -28.2232 H   0  0  0  0  0  0  0  0  0  0  0  0
   -0.6799   23.2872  -29.5718 H   0  0  0  0  0  0  0  0  0  0  0  0
   -1.3162   24.9671  -29.5718 H   0  0  0  0  0  0  0  0  0  0  0  0
   -2.4632   22.8141  -30.9020 H   0  0  0  0  0  0  0  0  0  0  0  0
   -3.4230   22.8867  -29.3851 H   0  0  0  0  0  0  0  0  0  0  0  0
   -4.2770   25.3150  -28.9540 H   0  0  0  0  0  0  0  0  0  0  0  0
   -5.5553   26.4928  -30.2768 H   0  0  0  0  0  0  0  0  0  0  0  0
   -5.4150   25.2695  -31.5954 H   0  0  0  0  0  0  0  0  0  0  0  0
   -6.9279   24.3634  -29.1981 H   0  0  0  0  0  0  0  0  0  0  0  0
   -7.6769   25.7331  -30.1466 H   0  0  0  0  0  0  0  0  0  0  0  0
   -7.8241   22.9545  -30.6924 H   0  0  0  0  0  0  0  0  0  0  0  0
   -8.3987   24.3605  -31.7000 H   0  0  0  0  0  0  0  0  0  0  0  0
   -7.0401   23.0569  -33.1464 H   0  0  0  0  0  0  0  0  0  0  0  0
   -6.0301   24.4632  -32.6413 H   0  0  0  0  0  0  0  0  0  0  0  0
   -4.8060   22.9730  -31.0870 H   0  0  0  0  0  0  0  0  0  0  0  0
   -7.7131   21.7443  -31.0198 H   0  0  0  0  0  0  0  0  0  0  0  0
   -9.6422   20.1798  -30.8883 H   0  0  0  0  0  0  0  0  0  0  0  0
   -9.5022   17.9349  -31.9471 H   0  0  0  0  0  0  0  0  0  0  0  0
   -7.4493   17.2473  -33.1639 H   0  0  0  0  0  0  0  0  0  0  0  0
   -5.3280   16.6996  -33.8864 H   0  0  0  0  0  0  0  0  0  0  0  0
   -6.2021   17.6779  -35.1134 H   0  0  0  0  0  0  0  0  0  0  0  0
   -4.4064   17.6332  -35.1134 H   0  0  0  0  0  0  0  0  0  0  0  0
   -2.8023   18.0963  -34.3912 H   0  0  0  0  0  0  0  0  0  0  0  0
   -0.7852   19.5420  -34.2843 H   0  0  0  0  0  0  0  0  0  0  0  0
   -0.9247   21.8202  -33.2942 H   0  0  0  0  0  0  0  0  0  0  0  0
   -3.0731   22.6412  -32.3494 H   0  0  0  0  0  0  0  0  0  0  0  0
  1  2  1  0
  2  3  1  0
  3  4  1  0
  4  5  1  0
  5  6  1  0
  6  7  1  0
  7  8  1  0
  8  9  1  0
  9 10  1  0
 10 11  2  0
 11 12  1  0
 12 13  2  0
 13 14  1  0
 14 15  2  0
 15 16  1  0
 16 17  2  0
 17 18  1  0
 17 19  1  0
 19 20  2  0
 20 21  1  0
 21 22  2  0
 22 23  1  0
 23 24  2  0
 24 10  1  0
 16 11  1  0
 24 19  1  0
  1 25  1  0
  1 26  1  0
  1 27  1  0
  2 28  1  0
  2 29  1  0
  4 30  1  0
  5 31  1  0
  5 32  1  0
  6 33  1  0
  6 34  1  0
  7 35  1  0
  7 36  1  0
  8 37  1  0
  8 38  1  0
  9 39  1  0
 12 40  1  0
 13 41  1  0
 14 42  1  0
 15 43  1  0
 18 44  1  0
 18 45  1  0
 18 46  1  0
 20 47  1  0
 21 48  1  0
 22 49  1  0
 23 50  1  0
M  CHG  1  17   1
M  END
>  <UniqueID>  (3) 
3

>  <SMILES>  (3) 
CCONCCCCNc1c2ccccc2[n+](C)c2ccccc12

>  <Energy>  (3) 
62.944753411757596

>  <Genealogy>  (3) 
CCONCCCCNc1c2ccccc2[n+](C)c2ccccc12 (3D coordinates assigned)
CCONCCCCNc1c2ccccc2[n+](C)c2ccccc12 (optimized conformer: 62.944753411757596 kcal/mol)

>  <smiles>  (3) 
CCONCCCCNc1c2ccccc2[n+](C)c2ccccc12

>  <score_type>  (3) 
oracle

>  <origin>  (3) 
adg

>  <m_score__min__energy>  (3) 
-9.8100000000000005

>  <m_primary>  (3) 
energy

$$$$
3:0
     RDKit          3D

 41 42  0  0  0  0  0  0  0  0999 V2000
   -6.1950   24.1600  -31.1800 C   0  0  0  0  0  0  0  0  0  0  0  0
   -5.3530   25.3770  -30.8290 C   0  0  0  0  0  0  0  0  0  0  0  0
   -4.0500   24.9540  -30.4870 O   0  0  0  0  0  0  0  0  0  0  0  0
   -4.0280   24.5510  -29.1330 C   0  0  0  0  0  0  0  0  0  0  0  0
   -3.5040   23.1130  -29.0470 C   0  0  0  0  0  0  0  0  0  0  0  0
   -3.4750   22.4540  -30.3680 N   0  0  0  0  0  0  0  0  0  0  0  0
   -2.1440   22.4310  -31.0050 C   0  0  0  0  0  0  0  0  0  0  0  0
   -1.5650   21.0310  -31.0550 C   0  0  0  0  0  0  0  0  0  0  0  0
   -1.0480   20.4790  -29.8690 C   0  0  0  0  0  0  0  0  0  0  0  0
   -0.4840   19.2020  -29.8580 C   0  0  0  0  0  0  0  0  0  0  0  0
    0.1730   18.5450  -28.3710 Cl  0  0  0  0  0  0  0  0  0  0  0  0
   -0.4550   18.4450  -31.0280 C   0  0  0  0  0  0  0  0  0  0  0  0
   -0.9900   18.9620  -32.2080 C   0  0  0  0  0  0  0  0  0  0  0  0
   -1.5310   20.2560  -32.2460 C   0  0  0  0  0  0  0  0  0  0  0  0
   -2.2870   20.8010  -33.7960 S   0  0  0  0  0  0  0  0  0  0  0  0
   -3.9630   20.3040  -33.3620 C   0  0  0  0  0  0  0  0  0  0  0  0
   -4.7970   21.2320  -32.7260 C   0  0  0  0  0  0  0  0  0  0  0  0
   -6.1050   20.8870  -32.3780 C   0  0  0  0  0  0  0  0  0  0  0  0
   -6.5810   19.6000  -32.6390 C   0  0  0  0  0  0  0  0  0  0  0  0
   -8.2240   19.1660  -32.2000 Cl  0  0  0  0  0  0  0  0  0  0  0  0
   -5.7400   18.6510  -33.2260 C   0  0  0  0  0  0  0  0  0  0  0  0
   -4.4270   18.9900  -33.5770 C   0  0  0  0  0  0  0  0  0  0  0  0
   -3.3850   17.7310  -34.2260 Cl  0  0  0  0  0  0  0  0  0  0  0  0
   -6.5342   23.6698  -30.2555 H   0  0  0  0  0  0  0  0  0  0  0  0
   -7.0685   24.4760  -31.7692 H   0  0  0  0  0  0  0  0  0  0  0  0
   -5.5913   23.4540  -31.7692 H   0  0  0  0  0  0  0  0  0  0  0  0
   -5.3052   26.0540  -31.6947 H   0  0  0  0  0  0  0  0  0  0  0  0
   -5.8055   25.9081  -29.9786 H   0  0  0  0  0  0  0  0  0  0  0  0
   -3.3675   25.2188  -28.5605 H   0  0  0  0  0  0  0  0  0  0  0  0
   -5.0440   24.6012  -28.7145 H   0  0  0  0  0  0  0  0  0  0  0  0
   -2.4835   23.1310  -28.6368 H   0  0  0  0  0  0  0  0  0  0  0  0
   -4.1842   22.5422  -28.3978 H   0  0  0  0  0  0  0  0  0  0  0  0
   -4.1810   22.8690  -31.0190 H   0  0  0  0  0  0  0  0  0  0  0  0
   -2.2345   22.8152  -32.0317 H   0  0  0  0  0  0  0  0  0  0  0  0
   -1.4682   23.0580  -30.4049 H   0  0  0  0  0  0  0  0  0  0  0  0
   -1.0887   21.0618  -28.9370 H   0  0  0  0  0  0  0  0  0  0  0  0
   -0.0099   17.4391  -31.0209 H   0  0  0  0  0  0  0  0  0  0  0  0
   -0.9877   18.3474  -33.1203 H   0  0  0  0  0  0  0  0  0  0  0  0
   -4.4193   22.2398  -32.4989 H   0  0  0  0  0  0  0  0  0  0  0  0
   -6.7603   21.6289  -31.8983 H   0  0  0  0  0  0  0  0  0  0  0  0
   -6.1109   17.6325  -33.4134 H   0  0  0  0  0  0  0  0  0  0  0  0
  1  2  1  0
  2  3  1  0
  3  4  1  0
  4  5  1  0
  5  6  1  0
  6  7  1  0
  7  8  1  0
  8  9  2  0
  9 10  1  0
 10 11  1  0
 10 12  2  0
 12 13  1  0
 13 14  2  0
 14 15  1  0
 15 16  1  0
 16 17  2  0
 17 18  1  0
 18 19  2  0
 19 20  1  0
 19 21  1  0
 21 22  2  0
 22 23  1  0
 14  8  1  0
 22 16  1  0
  1 24  1  0
  1 25  1  0
  1 26  1  0
  2 27  1  0
  2 28  1  0
  4 29  1  0
  4 30  1  0
  5 31  1  0
  5 32  1  0
  6 33  1  0
  7 34  1  0
  7 35  1  0
  9 36  1  0
 12 37  1  0
 13 38  1  0
 17 39  1  0
 18 40  1  0
 21 41  1  0
M  END
>  <UniqueID>  (4) 
4

>  <SMILES>  (4) 
CCOCCNCc1cc(Cl)ccc1Sc1ccc(Cl)cc1Cl

>  <Energy>  (4) 
39.747005578718486

>  <Genealogy>  (4) 
CCOCCNCc1cc(Cl)ccc1Sc1ccc(Cl)cc1Cl (3D coordinates assigned)
CCOCCNCc1cc(Cl)ccc1Sc1ccc(Cl)cc1Cl (optimized conformer: 39.747005578718486 kcal/mol)

>  <smiles>  (4) 
CCOCCNCc1cc(Cl)ccc1Sc1ccc(Cl)cc1Cl

>  <score_type>  (4) 
oracle

>  <origin>  (4) 
adg

>  <m_score__min__energy>  (4) 
-7.7699999999999996

>  <m_primary>  (4) 
energy

$$$$
4:0
     RDKit          3D

 47 49  0  0  0  0  0  0  0  0999 V2000
   -1.5440   26.3960  -25.0500 C   0  0  0  0  0  0  0  0  0  0  0  0
   -1.0530   26.8850  -26.4100 C   0  0  0  0  0  0  0  0  0  0  0  0
   -0.9080   25.7380  -27.3760 C   0  0  0  0  0  0  0  0  0  0  0  0
   -1.9920   25.3720  -28.1140 N   0  0  0  0  0  0  0  0  0  0  0  0
   -1.9370   24.3670  -29.0280 C   0  0  0  0  0  0  0  0  0  0  0  0
   -3.1590   24.0180  -29.8290 C   0  0  0  0  0  0  0  0  0  0  0  0
   -3.8830   25.2280  -30.2390 N   0  0  0  0  0  0  0  0  0  0  0  0
   -5.3230   25.1640  -29.9280 C   0  0  0  0  0  0  0  0  0  0  0  0
   -6.1310   24.8390  -31.1870 C   0  0  0  0  0  0  0  0  0  0  0  0
   -5.4570   23.8730  -31.9980 O   0  0  0  0  0  0  0  0  0  0  0  0
   -5.7960   22.5170  -32.1320 C   0  0  0  0  0  0  0  0  0  0  0  0
   -4.7870   21.6230  -32.5100 C   0  0  0  0  0  0  0  0  0  0  0  0
   -5.0550   20.2600  -32.6610 C   0  0  0  0  0  0  0  0  0  0  0  0
   -6.3480   19.7680  -32.4330 C   0  0  0  0  0  0  0  0  0  0  0  0
   -6.6300   18.4010  -32.5780 C   0  0  0  0  0  0  0  0  0  0  0  0
   -7.9240   17.9240  -32.3470 C   0  0  0  0  0  0  0  0  0  0  0  0
   -8.9420   18.8050  -31.9700 C   0  0  0  0  0  0  0  0  0  0  0  0
   -8.6730   20.1680  -31.8240 C   0  0  0  0  0  0  0  0  0  0  0  0
   -7.3790   20.6610  -32.0560 C   0  0  0  0  0  0  0  0  0  0  0  0
   -7.0990   22.0290  -31.9160 C   0  0  0  0  0  0  0  0  0  0  0  0
   -0.7260   23.6960  -29.2240 C   0  0  0  0  0  0  0  0  0  0  0  0
    0.3620   24.0540  -28.4960 N   0  0  0  0  0  0  0  0  0  0  0  0
    0.3140   25.0580  -27.5800 C   0  0  0  0  0  0  0  0  0  0  0  0
    1.5550   25.3800  -26.7990 C   0  0  0  0  0  0  0  0  0  0  0  0
   -1.0072   26.9306  -24.2525 H   0  0  0  0  0  0  0  0  0  0  0  0
   -2.6231   26.5889  -24.9587 H   0  0  0  0  0  0  0  0  0  0  0  0
   -1.3555   25.3161  -24.9587 H   0  0  0  0  0  0  0  0  0  0  0  0
   -1.7768   27.6073  -26.8153 H   0  0  0  0  0  0  0  0  0  0  0  0
   -0.0689   27.3584  -26.2778 H   0  0  0  0  0  0  0  0  0  0  0  0
   -2.8535   23.4601  -30.7265 H   0  0  0  0  0  0  0  0  0  0  0  0
   -3.8253   23.4062  -29.2031 H   0  0  0  0  0  0  0  0  0  0  0  0
   -3.4690   26.0340  -29.7150 H   0  0  0  0  0  0  0  0  0  0  0  0
   -5.4960   24.3810  -29.1750 H   0  0  0  0  0  0  0  0  0  0  0  0
   -5.6465   26.1415  -29.5409 H   0  0  0  0  0  0  0  0  0  0  0  0
   -7.1114   24.4376  -30.8907 H   0  0  0  0  0  0  0  0  0  0  0  0
   -6.2513   25.7626  -31.7722 H   0  0  0  0  0  0  0  0  0  0  0  0
   -3.7691   21.9989  -32.6906 H   0  0  0  0  0  0  0  0  0  0  0  0
   -4.2503   19.5719  -32.9592 H   0  0  0  0  0  0  0  0  0  0  0  0
   -5.8322   17.7039  -32.8737 H   0  0  0  0  0  0  0  0  0  0  0  0
   -8.1417   16.8519  -32.4623 H   0  0  0  0  0  0  0  0  0  0  0  0
   -9.9576   18.4238  -31.7878 H   0  0  0  0  0  0  0  0  0  0  0  0
   -9.4772   20.8570  -31.5264 H   0  0  0  0  0  0  0  0  0  0  0  0
   -7.9033   22.7251  -31.6355 H   0  0  0  0  0  0  0  0  0  0  0  0
   -0.6557   22.8840  -29.9627 H   0  0  0  0  0  0  0  0  0  0  0  0
    1.3359   25.3231  -25.7225 H   0  0  0  0  0  0  0  0  0  0  0  0
    2.3448   24.6570  -27.0511 H   0  0  0  0  0  0  0  0  0  0  0  0
    1.8937   26.3958  -27.0511 H   0  0  0  0  0  0  0  0  0  0  0  0
  1  2  1  0
  2  3  1  0
  3  4  2  0
  4  5  1  0
  5  6  1  0
  6  7  1  0
  7  8  1  0
  8  9  1  0
  9 10  1  0
 10 11  1  0
 11 12  2  0
 12 13  1  0
 13 14  2  0
 14 15  1  0
 15 16  2  0
 16 17  1  0
 17 18  2  0
 18 19  1  0
 19 20  2  0
  5 21  2  0
 21 22  1  0
 22 23  2  0
 23 24  1  0
 23  3  1  0
 20 11  1  0
 19 14  1  0
  1 25  1  0
  1 26  1  0
  1 27  1  0
  2 28  1  0
  2 29  1  0
  6 30  1  0
  6 31  1  0
  7 32  1  0
  8 33  1  0
  8 34  1  0
  9 35  1  0
  9 36  1  0
 12 37  1  0
 13 38  1  0
 15 39  1  0
 16 40  1  0
 17 41  1  0
 18 42  1  0
 20 43  1  0
 21 44  1  0
 24 45  1  0
 24 46  1  0
 24 47  1  0
M  END
>  <UniqueID>  (5) 
5

>  <SMILES>  (5) 
CCc1nc(CNCCOc2ccc3ccccc3c2)cnc1C

>  <Energy>  (5) 
47.285002721928635

>  <Genealogy>  (5) 
CCc1nc(CNCCOc2ccc3ccccc3c2)cnc1C (3D coordinates assigned)
CCc1nc(CNCCOc2ccc3ccccc3c2)cnc1C (optimized conformer: 47.285002721928635 kcal/mol)

>  <smiles>  (5) 
CCc1nc(CNCCOc2ccc3ccccc3c2)cnc1C

>  <score_type>  (5) 
oracle

>  <origin>  (5) 
adg

>  <m_score__min__energy>  (5) 
-9.2200000000000006

>  <m_primary>  (5) 
energy

$$$$
5:0
     RDKit          3D

 71 73  0  0  0  0  0  0  0  0999 V2000
   -3.8570   24.0200  -27.3050 C   0  0  0  0  0  0  0  0  0  0  0  0
   -4.4340   24.1710  -28.7150 C   0  0  0  0  0  0  0  0  0  0  0  0
   -5.6060   25.0660  -28.7670 N   0  0  0  0  0  0  0  0  0  0  0  0
   -6.1150   25.3710  -30.1210 C   0  0  0  0  0  0  0  0  0  0  0  0
   -6.7370   24.1670  -30.8580 C   0  0  0  0  0  0  0  0  0  0  0  0
   -5.9470   23.7620  -32.1130 C   0  0  0  0  0  0  0  0  0  0  0  0
   -5.0840   22.5200  -31.8840 C   0  0  0  0  0  0  0  0  0  0  0  0
   -4.9960   21.6870  -33.0890 N   0  0  0  0  0  0  0  0  0  0  0  0
   -5.3450   20.2900  -33.0770 C   0  0  0  0  0  0  0  0  0  0  0  0
   -6.6170   19.8980  -32.6130 C   0  0  0  0  0  0  0  0  0  0  0  0
   -7.4540   20.8080  -31.9320 C   0  0  0  0  0  0  0  0  0  0  0  0
   -8.6950   20.4060  -31.4420 C   0  0  0  0  0  0  0  0  0  0  0  0
   -9.1150   19.0920  -31.6060 C   0  0  0  0  0  0  0  0  0  0  0  0
   -8.3020   18.1760  -32.2690 C   0  0  0  0  0  0  0  0  0  0  0  0
   -7.0430   18.5600  -32.7960 C   0  0  0  0  0  0  0  0  0  0  0  0
   -6.2240   17.6590  -33.4460 N   0  0  0  0  0  0  0  0  0  0  0  0
   -6.7830   16.3780  -33.9280 C   0  0  0  0  0  0  0  0  0  0  0  0
   -4.8880   17.9570  -33.6360 C   0  0  0  0  0  0  0  0  0  0  0  0
   -3.9570   16.9460  -33.9660 C   0  0  0  0  0  0  0  0  0  0  0  0
   -2.6160   17.2400  -34.1650 C   0  0  0  0  0  0  0  0  0  0  0  0
   -2.1570   18.5420  -34.0380 C   0  0  0  0  0  0  0  0  0  0  0  0
   -3.0360   19.5870  -33.7090 C   0  0  0  0  0  0  0  0  0  0  0  0
   -2.5650   20.9030  -33.5760 O   0  0  0  0  0  0  0  0  0  0  0  0
   -1.3500   21.3230  -32.9500 C   0  0  0  0  0  0  0  0  0  0  0  0
   -1.2500   20.8050  -31.5130 C   0  0  0  0  0  0  0  0  0  0  0  0
   -1.8660   21.7680  -30.5620 N   0  0  0  0  0  0  0  0  0  0  0  0
   -2.9860   21.1430  -29.8210 C   0  0  0  0  0  0  0  0  0  0  0  0
   -2.5790   20.7540  -28.3980 C   0  0  0  0  0  0  0  0  0  0  0  0
   -0.8590   22.3370  -29.6370 C   0  0  0  0  0  0  0  0  0  0  0  0
   -1.1650   23.8030  -29.3350 C   0  0  0  0  0  0  0  0  0  0  0  0
   -4.4160   19.2970  -33.4810 C   0  0  0  0  0  0  0  0  0  0  0  0
   -4.6428   24.2257  -26.5633 H   0  0  0  0  0  0  0  0  0  0  0  0
   -3.4842   22.9940  -27.1693 H   0  0  0  0  0  0  0  0  0  0  0  0
   -3.0294   24.7318  -27.1693 H   0  0  0  0  0  0  0  0  0  0  0  0
   -3.6518   24.5796  -29.3716 H   0  0  0  0  0  0  0  0  0  0  0  0
   -4.7667   23.1749  -29.0421 H   0  0  0  0  0  0  0  0  0  0  0  0
   -5.3710   25.9570  -28.2710 H   0  0  0  0  0  0  0  0  0  0  0  0
   -6.3840   24.6210  -28.2230 H   0  0  0  0  0  0  0  0  0  0  0  0
   -6.8835   26.1528  -30.0309 H   0  0  0  0  0  0  0  0  0  0  0  0
   -5.2465   25.6875  -30.7172 H   0  0  0  0  0  0  0  0  0  0  0  0
   -6.7653   23.3099  -30.1691 H   0  0  0  0  0  0  0  0  0  0  0  0
   -7.7451   24.4634  -31.1833 H   0  0  0  0  0  0  0  0  0  0  0  0
   -6.6582   23.5529  -32.9257 H   0  0  0  0  0  0  0  0  0  0  0  0
   -5.2750   24.5944  -32.3691 H   0  0  0  0  0  0  0  0  0  0  0  0
   -4.0711   22.8384  -31.5967 H   0  0  0  0  0  0  0  0  0  0  0  0
   -5.5512   21.9213  -31.0882 H   0  0  0  0  0  0  0  0  0  0  0  0
   -4.4980   22.0720  -33.9230 H   0  0  0  0  0  0  0  0  0  0  0  0
   -7.1227   21.8468  -31.7864 H   0  0  0  0  0  0  0  0  0  0  0  0
   -9.3425   21.1296  -30.9250 H   0  0  0  0  0  0  0  0  0  0  0  0
  -10.0915   18.7745  -31.2115 H   0  0  0  0  0  0  0  0  0  0  0  0
   -8.6425   17.1366  -32.3858 H   0  0  0  0  0  0  0  0  0  0  0  0
   -7.0569   15.7504  -33.0671 H   0  0  0  0  0  0  0  0  0  0  0  0
   -7.6772   16.5745  -34.5378 H   0  0  0  0  0  0  0  0  0  0  0  0
   -6.0308   15.8560  -34.5378 H   0  0  0  0  0  0  0  0  0  0  0  0
   -4.3023   15.9065  -34.0669 H   0  0  0  0  0  0  0  0  0  0  0  0
   -1.9126   16.4353  -34.4251 H   0  0  0  0  0  0  0  0  0  0  0  0
   -1.0905   18.7595  -34.1970 H   0  0  0  0  0  0  0  0  0  0  0  0
   -0.4979   20.9372  -33.5289 H   0  0  0  0  0  0  0  0  0  0  0  0
   -1.3390   22.4226  -32.9216 H   0  0  0  0  0  0  0  0  0  0  0  0
   -1.7737   19.8404  -31.4398 H   0  0  0  0  0  0  0  0  0  0  0  0
   -0.1877   20.6837  -31.2544 H   0  0  0  0  0  0  0  0  0  0  0  0
   -3.8214   21.8568  -29.7699 H   0  0  0  0  0  0  0  0  0  0  0  0
   -3.2804   20.2274  -30.3548 H   0  0  0  0  0  0  0  0  0  0  0  0
   -3.1786   21.3271  -27.6755 H   0  0  0  0  0  0  0  0  0  0  0  0
   -2.7535   19.6784  -28.2478 H   0  0  0  0  0  0  0  0  0  0  0  0
   -1.5123   20.9769  -28.2478 H   0  0  0  0  0  0  0  0  0  0  0  0
   -0.8695   21.7656  -28.6971 H   0  0  0  0  0  0  0  0  0  0  0  0
    0.1309   22.2747  -30.1127 H   0  0  0  0  0  0  0  0  0  0  0  0
   -1.1966   23.9542  -28.2459 H   0  0  0  0  0  0  0  0  0  0  0  0
   -0.3802   24.4387  -29.7708 H   0  0  0  0  0  0  0  0  0  0  0  0
   -2.1386   24.0717  -29.7708 H   0  0  0  0  0  0  0  0  0  0  0  0
  1  2  1  0
  2  3  1  0
  3  4  1  0
  4  5  1  0
  5  6  1  0
  6  7  1  0
  7  8  1  0
  8  9  1  0
  9 10  2  0
 10 11  1  0
 11 12  2  0
 12 13  1  0
 13 14  2  0
 14 15  1  0
 15 16  2  0
 16 17  1  0
 16 18  1  0
 18 19  2  0
 19 20  1  0
 20 21  2  0
 21 22  1  0
 22 23  1  0
 23 24  1  0
 24 25  1  0
 25 26  1  0
 26 27  1  0
 27 28  1  0
 26 29  1  0
 29 30  1  0
 22 31  2  0
 31  9  1  0
 15 10  1  0
 31 18  1  0
  1 32  1  0
  1 33  1  0
  1 34  1  0
  2 35  1  0
  2 36  1  0
  3 37  1  0
  3 38  1  0
  4 39  1  0
  4 40  1  0
  5 41  1  0
  5 42  1  0
  6 43  1  0
  6 44  1  0
  7 45  1  0
  7 46  1  0
  8 47  1  0
 11 48  1  0
 12 49  1  0
 13 50  1  0
 14 51  1  0
 17 52  1  0
 17 53  1  0
 17 54  1  0
 19 55  1  0
 20 56  1  0
 21 57  1  0
 24 58  1  0
 24 59  1  0
 25 60  1  0
 25 61  1  0
 27 62  1  0
 27 63  1  0
 28 64  1  0
 28 65  1  0
 28 66  1  0
 29 67  1  0
 29 68  1  0
 30 69  1  0
 30 70  1  0
 30 71  1  0
M  CHG  2   3   1  16   1
M  END
>  <UniqueID>  (6) 
6

>  <SMILES>  (6) 
CC[NH2+]CCCCNc1c2ccccc2[n+](C)c2cccc(OCCN(CC)CC)c12

>  <Energy>  (6) 
96.9916338537677

>  <Genealogy>  (6) 
CC[NH2+]CCCCNc1c2ccccc2[n+](C)c2cccc(OCCN(CC)CC)c12 (protonated)
CC[NH2+]CCCCNc1c2ccccc2[n+](C)c2cccc(OCCN(CC)CC)c12 (3D coordinates assigned)
CC[NH2+]CCCCNc1c2ccccc2[n+](C)c2cccc(OCCN(CC)CC)c12 (optimized conformer: 96.9916338537677 kcal/mol)

>  <smiles>  (6) 
CCNCCCCNc1c2ccccc2[n+](C)c2cccc(OCCN(CC)CC)c12

>  <score_type>  (6) 
oracle

>  <origin>  (6) 
adg

>  <m_score__min__energy>  (6) 
-7.9900000000000002

>  <m_primary>  (6) 
energy

$$$$
6:0
     RDKit          3D

 60 62  0  0  0  0  0  0  0  0999 V2000
   -6.8490   23.9170  -31.6870 C   0  0  0  0  0  0  0  0  0  0  0  0
   -6.8950   23.8050  -30.1660 C   0  0  0  0  0  0  0  0  0  0  0  0
   -5.9560   24.8260  -29.5090 C   0  0  0  0  0  0  0  0  0  0  0  0
   -5.1550   25.6360  -30.5350 C   0  0  0  0  0  0  0  0  0  0  0  0
   -3.8760   24.9770  -30.8320 N   0  0  0  0  0  0  0  0  0  0  0  0
   -3.6480   23.8500  -29.9180 C   0  0  0  0  0  0  0  0  0  0  0  0
   -2.4450   23.0180  -30.3790 C   0  0  0  0  0  0  0  0  0  0  0  0
   -2.8580   21.9280  -31.3750 C   0  0  0  0  0  0  0  0  0  0  0  0
   -4.1130   22.3360  -32.1600 C   0  0  0  0  0  0  0  0  0  0  0  0
   -4.1550   21.7340  -33.5060 N   0  0  0  0  0  0  0  0  0  0  0  0
   -4.5350   20.3280  -33.4680 C   0  0  0  0  0  0  0  0  0  0  0  0
   -5.8810   19.9310  -33.2340 C   0  0  0  0  0  0  0  0  0  0  0  0
   -6.2060   18.5600  -33.1730 C   0  0  0  0  0  0  0  0  0  0  0  0
   -5.2790   17.6020  -33.5120 N   0  0  0  0  0  0  0  0  0  0  0  0
   -5.7220   16.2150  -33.7740 C   0  0  0  0  0  0  0  0  0  0  0  0
   -3.9480   17.9400  -33.6230 C   0  0  0  0  0  0  0  0  0  0  0  0
   -2.9420   16.9430  -33.7120 C   0  0  0  0  0  0  0  0  0  0  0  0
   -1.6020   17.2810  -33.8720 C   0  0  0  0  0  0  0  0  0  0  0  0
   -1.2250   18.6130  -33.9430 C   0  0  0  0  0  0  0  0  0  0  0  0
   -2.1800   19.6180  -33.8220 C   0  0  0  0  0  0  0  0  0  0  0  0
   -3.5520   19.3090  -33.6330 C   0  0  0  0  0  0  0  0  0  0  0  0
   -7.6240   18.1930  -32.7510 C   0  0  0  0  0  0  0  0  0  0  0  0
   -8.1030   19.0960  -31.6060 C   0  0  0  0  0  0  0  0  0  0  0  0
   -7.9090   20.6010  -31.8860 C   0  0  0  0  0  0  0  0  0  0  0  0
   -7.0580   20.8950  -33.1290 C   0  0  0  0  0  0  0  0  0  0  0  0
   -6.4452   24.9002  -31.9702 H   0  0  0  0  0  0  0  0  0  0  0  0
   -6.2035   23.1245  -32.0937 H   0  0  0  0  0  0  0  0  0  0  0  0
   -7.8651   23.8070  -32.0937 H   0  0  0  0  0  0  0  0  0  0  0  0
   -7.9236   23.9900  -29.8229 H   0  0  0  0  0  0  0  0  0  0  0  0
   -6.5682   22.7944  -29.8797 H   0  0  0  0  0  0  0  0  0  0  0  0
   -6.5581   25.5203  -28.9045 H   0  0  0  0  0  0  0  0  0  0  0  0
   -5.2374   24.2680  -28.8907 H   0  0  0  0  0  0  0  0  0  0  0  0
   -5.7401   25.7235  -31.4624 H   0  0  0  0  0  0  0  0  0  0  0  0
   -4.9508   26.6329  -30.1173 H   0  0  0  0  0  0  0  0  0  0  0  0
   -3.1100   25.6720  -30.6700 H   0  0  0  0  0  0  0  0  0  0  0  0
   -3.4537   24.2376  -28.9071 H   0  0  0  0  0  0  0  0  0  0  0  0
   -4.5423   23.2095  -29.9138 H   0  0  0  0  0  0  0  0  0  0  0  0
   -1.7148   23.6841  -30.8619 H   0  0  0  0  0  0  0  0  0  0  0  0
   -2.0081   22.5283  -29.4962 H   0  0  0  0  0  0  0  0  0  0  0  0
   -2.0328   21.7574  -32.0821 H   0  0  0  0  0  0  0  0  0  0  0  0
   -3.0838   21.0105  -30.8117 H   0  0  0  0  0  0  0  0  0  0  0  0
   -5.0017   22.0103  -31.5995 H   0  0  0  0  0  0  0  0  0  0  0  0
   -4.0916   23.4290  -32.2820 H   0  0  0  0  0  0  0  0  0  0  0  0
   -4.8290   22.2640  -34.1000 H   0  0  0  0  0  0  0  0  0  0  0  0
   -3.2570   21.9020  -34.0030 H   0  0  0  0  0  0  0  0  0  0  0  0
   -5.8877   15.6963  -32.8182 H   0  0  0  0  0  0  0  0  0  0  0  0
   -6.6594   16.2320  -34.3493 H   0  0  0  0  0  0  0  0  0  0  0  0
   -4.9483   15.6855  -34.3493 H   0  0  0  0  0  0  0  0  0  0  0  0
   -3.2273   15.8823  -33.6533 H   0  0  0  0  0  0  0  0  0  0  0  0
   -0.8407   16.4902  -33.9423 H   0  0  0  0  0  0  0  0  0  0  0  0
   -0.1679   18.8764  -34.0954 H   0  0  0  0  0  0  0  0  0  0  0  0
   -1.8656   20.6709  -33.8738 H   0  0  0  0  0  0  0  0  0  0  0  0
   -8.2988   18.3131  -33.6114 H   0  0  0  0  0  0  0  0  0  0  0  0
   -7.6293   17.1496  -32.4029 H   0  0  0  0  0  0  0  0  0  0  0  0
   -9.1739   18.9082  -31.4393 H   0  0  0  0  0  0  0  0  0  0  0  0
   -7.4938   18.8501  -30.7238 H   0  0  0  0  0  0  0  0  0  0  0  0
   -8.8995   21.0579  -32.0278 H   0  0  0  0  0  0  0  0  0  0  0  0
   -7.3714   21.0208  -31.0230 H   0  0  0  0  0  0  0  0  0  0  0  0
   -7.6863   20.7927  -34.0261 H   0  0  0  0  0  0  0  0  0  0  0  0
   -6.6630   21.9183  -33.0458 H   0  0  0  0  0  0  0  0  0  0  0  0
  1  2  1  0
  2  3  1  0
  3  4  1  0
  4  5  1  0
  5  6  1  0
  6  7  1  0
  7  8  1  0
  8  9  1  0
  9 10  1  0
 10 11  1  0
 11 12  2  0
 12 13  1  0
 13 14  2  0
 14 15  1  0
 14 16  1  0
 16 17  2  0
 17 18  1  0
 18 19  2  0
 19 20  1  0
 20 21  2  0
 13 22  1  0
 22 23  1  0
 23 24  1  0
 24 25  1  0
 21 11  1  0
 25 12  1  0
 21 16  1  0
  1 26  1  0
  1 27  1  0
  1 28  1  0
  2 29  1  0
  2 30  1  0
  3 31  1  0
  3 32  1  0
  4 33  1  0
  4 34  1  0
  5 35  1  0
  6 36  1  0
  6 37  1  0
  7 38  1  0
  7 39  1  0
  8 40  1  0
  8 41  1  0
  9 42  1  0
  9 43  1  0
 10 44  1  0
 10 45  1  0
 15 46  1  0
 15 47  1  0
 15 48  1  0
 17 49  1  0
 18 50  1  0
 19 51  1  0
 20 52  1  0
 22 53  1  0
 22 54  1  0
 23 55  1  0
 23 56  1  0
 24 57  1  0
 24 58  1  0
 25 59  1  0
 25 60  1  0
M  CHG  2  10   1  14   1
M  END
>  <UniqueID>  (7) 
7

>  <SMILES>  (7) 
CCCCNCCCC[NH2+]c1c2c([n+](C)c3ccccc13)CCCC2

>  <Energy>  (7) 
75.32067350088452

>  <Genealogy>  (7) 
CCCCNCCCC[NH2+]c1c2c([n+](C)c3ccccc13)CCCC2 (protonated)
CCCCNCCCC[NH2+]c1c2c([n+](C)c3ccccc13)CCCC2 (3D coordinates assigned)
CCCCNCCCC[NH2+]c1c2c([n+](C)c3ccccc13)CCCC2 (nonaromatic ring conformer: 75.32067350088452 kcal/mol)

>  <smiles>  (7) 
CCCCNCCCCNc1c2c([n+](C)c3ccccc13)CCCC2

>  <score_type>  (7) 
oracle

>  <origin>  (7) 
adg

>  <m_score__min__energy>  (7) 
-8.4299999999999997

>  <m_primary>  (7) 
energy

$$$$
7:0
     RDKit          3D

 42 44  0  0  0  0  0  0  0  0999 V2000
   -6.6400   24.6830  -30.1060 C   0  0  0  0  0  0  0  0  0  0  0  0
   -5.2200   25.2350  -30.1840 C   0  0  0  0  0  0  0  0  0  0  0  0
   -4.3980   24.4280  -31.0980 N   0  0  0  0  0  0  0  0  0  0  0  0
   -4.0800   23.1180  -30.5130 C   0  0  0  0  0  0  0  0  0  0  0  0
   -3.4800   22.1830  -31.5690 C   0  0  0  0  0  0  0  0  0  0  0  0
   -4.3610   22.0200  -32.7310 N   0  0  0  0  0  0  0  0  0  0  0  0
   -5.1230   20.8180  -32.9680 C   0  0  0  0  0  0  0  0  0  0  0  0
   -6.4990   20.8040  -32.6640 C   0  0  0  0  0  0  0  0  0  0  0  0
   -7.1680   21.9770  -32.2490 C   0  0  0  0  0  0  0  0  0  0  0  0
   -8.4950   21.9560  -31.9780 N   0  0  0  0  0  0  0  0  0  0  0  0
   -9.2250   20.8230  -32.0890 C   0  0  0  0  0  0  0  0  0  0  0  0
   -8.6180   19.6320  -32.4770 C   0  0  0  0  0  0  0  0  0  0  0  0
   -7.2310   19.5960  -32.7610 C   0  0  0  0  0  0  0  0  0  0  0  0
   -6.5460   18.4030  -33.1120 C   0  0  0  0  0  0  0  0  0  0  0  0
   -7.1830   17.1350  -33.1220 C   0  0  0  0  0  0  0  0  0  0  0  0
   -6.4820   15.9800  -33.4580 C   0  0  0  0  0  0  0  0  0  0  0  0
   -5.1350   16.0480  -33.7780 C   0  0  0  0  0  0  0  0  0  0  0  0
   -4.4780   17.2750  -33.7730 C   0  0  0  0  0  0  0  0  0  0  0  0
   -5.1630   18.4760  -33.4570 C   0  0  0  0  0  0  0  0  0  0  0  0
   -4.5090   19.6910  -33.4640 N   0  0  0  0  0  0  0  0  0  0  0  0
   -3.1500   19.8020  -34.0310 C   0  0  0  0  0  0  0  0  0  0  0  0
   -6.9319   24.5695  -29.0515 H   0  0  0  0  0  0  0  0  0  0  0  0
   -7.3314   25.3778  -30.6051 H   0  0  0  0  0  0  0  0  0  0  0  0
   -6.6806   23.7036  -30.6051 H   0  0  0  0  0  0  0  0  0  0  0  0
   -5.2552   26.2717  -30.5501 H   0  0  0  0  0  0  0  0  0  0  0  0
   -4.7713   25.1997  -29.1803 H   0  0  0  0  0  0  0  0  0  0  0  0
   -3.4930   24.9340  -31.2470 H   0  0  0  0  0  0  0  0  0  0  0  0
   -3.3547   23.2536  -29.6972 H   0  0  0  0  0  0  0  0  0  0  0  0
   -5.0075   22.6681  -30.1291 H   0  0  0  0  0  0  0  0  0  0  0  0
   -2.5206   22.6010  -31.9079 H   0  0  0  0  0  0  0  0  0  0  0  0
   -3.3453   21.1941  -31.1065 H   0  0  0  0  0  0  0  0  0  0  0  0
   -4.5380   22.8540  -33.3340 H   0  0  0  0  0  0  0  0  0  0  0  0
   -6.6057   22.9167  -32.1449 H   0  0  0  0  0  0  0  0  0  0  0  0
  -10.3031   20.8427  -31.8717 H   0  0  0  0  0  0  0  0  0  0  0  0
   -9.2184   18.7144  -32.5635 H   0  0  0  0  0  0  0  0  0  0  0  0
   -8.2489   17.0634  -32.8598 H   0  0  0  0  0  0  0  0  0  0  0  0
   -6.9993   15.0093  -33.4696 H   0  0  0  0  0  0  0  0  0  0  0  0
   -4.5847   15.1312  -34.0362 H   0  0  0  0  0  0  0  0  0  0  0  0
   -3.4066   17.3140  -34.0189 H   0  0  0  0  0  0  0  0  0  0  0  0
   -2.4157   19.8620  -33.2142 H   0  0  0  0  0  0  0  0  0  0  0  0
   -2.9379   18.9182  -34.6506 H   0  0  0  0  0  0  0  0  0  0  0  0
   -3.0841   20.7085  -34.6506 H   0  0  0  0  0  0  0  0  0  0  0  0
  1  2  1  0
  2  3  1  0
  3  4  1  0
  4  5  1  0
  5  6  1  0
  6  7  1  0
  7  8  2  0
  8  9  1  0
  9 10  2  0
 10 11  1  0
 11 12  2  0
 12 13  1  0
 13 14  2  0
 14 15  1  0
 15 16  2  0
 16 17  1  0
 17 18  2  0
 18 19  1  0
 19 20  2  0
 20 21  1  0
 20  7  1  0
 13  8  1  0
 19 14  1  0
  1 22  1  0
  1 23  1  0
  1 24  1  0
  2 25  1  0
  2 26  1  0
  3 27  1  0
  4 28  1  0
  4 29  1  0
  5 30  1  0
  5 31  1  0
  6 32  1  0
  9 33  1  0
 11 34  1  0
 12 35  1  0
 15 36  1  0
 16 37  1  0
 17 38  1  0
 18 39  1  0
 21 40  1  0
 21 41  1  0
 21 42  1  0
M  CHG  1  20   1
M  END
>  <UniqueID>  (8) 
8

>  <SMILES>  (8) 
CCNCCNc1c2cnccc2c2ccccc2[n+]1C

>  <Energy>  (8) 
63.22623207511176

>  <Genealogy>  (8) 
CCNCCNc1c2cnccc2c2ccccc2[n+]1C (3D coordinates assigned)
CCNCCNc1c2cnccc2c2ccccc2[n+]1C (optimized conformer: 63.22623207511176 kcal/mol)

>  <smiles>  (8) 
CCNCCNc1c2cnccc2c2ccccc2[n+]1C

>  <score_type>  (8) 
oracle

>  <origin>  (8) 
adg

>  <m_score__min__energy>  (8) 
-7.8600000000000003

>  <m_primary>  (8) 
energy

$$$$
8:0
     RDKit          3D

 82 85  0  0  0  0  0  0  0  0999 V2000
    0.8010   22.5160  -35.8160 C   0  0  0  0  0  0  0  0  0  0  0  0
    0.3810   21.1760  -35.1850 C   0  0  0  0  0  0  0  0  0  0  0  0
    1.4000   20.7010  -34.1360 C   0  0  0  0  0  0  0  0  0  0  0  0
   -1.0030   21.2050  -34.6570 N   0  0  0  0  0  0  0  0  0  0  0  0
   -1.1960   20.5350  -33.3460 C   0  0  0  0  0  0  0  0  0  0  0  0
   -2.1850   19.3560  -33.4200 C   0  0  0  0  0  0  0  0  0  0  0  0
   -3.6460   19.8220  -33.4250 C   0  0  0  0  0  0  0  0  0  0  0  0
   -4.2030   19.7920  -32.0730 N   0  0  0  0  0  0  0  0  0  0  0  0
   -4.9480   20.9110  -31.5710 C   0  0  0  0  0  0  0  0  0  0  0  0
   -6.3360   20.9760  -31.7730 C   0  0  0  0  0  0  0  0  0  0  0  0
   -7.0110   19.9540  -32.4740 C   0  0  0  0  0  0  0  0  0  0  0  0
   -8.3770   20.0470  -32.7250 C   0  0  0  0  0  0  0  0  0  0  0  0
   -9.0880   21.1620  -32.2980 C   0  0  0  0  0  0  0  0  0  0  0  0
   -8.4450   22.1790  -31.5930 C   0  0  0  0  0  0  0  0  0  0  0  0
   -7.0620   22.0940  -31.2830 C   0  0  0  0  0  0  0  0  0  0  0  0
   -6.4200   23.0700  -30.5430 N   0  0  0  0  0  0  0  0  0  0  0  0
   -7.2110   24.0730  -29.7960 C   0  0  0  0  0  0  0  0  0  0  0  0
   -5.0370   23.0870  -30.4730 C   0  0  0  0  0  0  0  0  0  0  0  0
   -4.3300   24.2030  -29.9560 C   0  0  0  0  0  0  0  0  0  0  0  0
   -2.9300   24.1810  -29.8190 C   0  0  0  0  0  0  0  0  0  0  0  0
   -2.2030   25.2650  -29.3060 O   0  0  0  0  0  0  0  0  0  0  0  0
   -0.9490   25.1560  -28.6360 C   0  0  0  0  0  0  0  0  0  0  0  0
   -1.1470   24.3720  -27.3220 C   0  0  0  0  0  0  0  0  0  0  0  0
   -1.4720   25.2110  -26.1220 N   0  0  0  0  0  0  0  0  0  0  0  0
   -2.9490   25.3050  -25.9650 C   0  0  0  0  0  0  0  0  0  0  0  0
   -0.9450   26.5990  -26.3580 C   0  0  0  0  0  0  0  0  0  0  0  0
    0.4910   26.7790  -25.8330 C   0  0  0  0  0  0  0  0  0  0  0  0
    0.5740   26.6020  -24.3480 N   0  0  0  0  0  0  0  0  0  0  0  0
    0.4120   27.9160  -23.6790 C   0  0  0  0  0  0  0  0  0  0  0  0
    1.9180   26.0760  -23.9990 C   0  0  0  0  0  0  0  0  0  0  0  0
   -0.4790   25.6660  -23.8380 C   0  0  0  0  0  0  0  0  0  0  0  0
   -0.8700   24.6050  -24.8860 C   0  0  0  0  0  0  0  0  0  0  0  0
   -2.2250   23.0440  -30.2090 C   0  0  0  0  0  0  0  0  0  0  0  0
   -2.8890   21.9560  -30.7670 C   0  0  0  0  0  0  0  0  0  0  0  0
   -4.2880   21.9770  -30.9400 C   0  0  0  0  0  0  0  0  0  0  0  0
    1.0282   23.2408  -35.0203 H   0  0  0  0  0  0  0  0  0  0  0  0
    1.6945   22.3637  -36.4393 H   0  0  0  0  0  0  0  0  0  0  0  0
   -0.0196   22.9010  -36.4393 H   0  0  0  0  0  0  0  0  0  0  0  0
    0.3792   20.4294  -35.9928 H   0  0  0  0  0  0  0  0  0  0  0  0
    1.0017   20.8867  -33.1276 H   0  0  0  0  0  0  0  0  0  0  0  0
    1.5842   19.6242  -34.2650 H   0  0  0  0  0  0  0  0  0  0  0  0
    2.3431   21.2523  -34.2650 H   0  0  0  0  0  0  0  0  0  0  0  0
   -1.2960   22.2070  -34.5630 H   0  0  0  0  0  0  0  0  0  0  0  0
   -1.6320   20.7950  -35.3860 H   0  0  0  0  0  0  0  0  0  0  0  0
   -0.2235   20.1571  -32.9975 H   0  0  0  0  0  0  0  0  0  0  0  0
   -1.6164   21.2779  -32.6522 H   0  0  0  0  0  0  0  0  0  0  0  0
   -1.9913   18.7890  -34.3425 H   0  0  0  0  0  0  0  0  0  0  0  0
   -2.0334   18.7327  -32.5264 H   0  0  0  0  0  0  0  0  0  0  0  0
   -3.6958   20.8500  -33.8133 H   0  0  0  0  0  0  0  0  0  0  0  0
   -4.2312   19.1440  -34.0636 H   0  0  0  0  0  0  0  0  0  0  0  0
   -4.2140   18.9040  -31.5210 H   0  0  0  0  0  0  0  0  0  0  0  0
   -6.4517   19.0745  -32.8258 H   0  0  0  0  0  0  0  0  0  0  0  0
   -8.8938   19.2376  -33.2615 H   0  0  0  0  0  0  0  0  0  0  0  0
  -10.1629   21.2428  -32.5171 H   0  0  0  0  0  0  0  0  0  0  0  0
   -9.0184   23.0611  -31.2719 H   0  0  0  0  0  0  0  0  0  0  0  0
   -7.0828   23.9104  -28.7157 H   0  0  0  0  0  0  0  0  0  0  0  0
   -6.8639   25.0832  -30.0585 H   0  0  0  0  0  0  0  0  0  0  0  0
   -8.2743   23.9709  -30.0585 H   0  0  0  0  0  0  0  0  0  0  0  0
   -4.8872   25.1029  -29.6565 H   0  0  0  0  0  0  0  0  0  0  0  0
   -0.2327   24.6233  -29.2788 H   0  0  0  0  0  0  0  0  0  0  0  0
   -0.5582   26.1600  -28.4140 H   0  0  0  0  0  0  0  0  0  0  0  0
   -1.9707   23.6586  -27.4719 H   0  0  0  0  0  0  0  0  0  0  0  0
   -0.1825   23.8893  -27.1056 H   0  0  0  0  0  0  0  0  0  0  0  0
   -3.2037   25.3212  -24.8950 H   0  0  0  0  0  0  0  0  0  0  0  0
   -3.3104   26.2280  -26.4420 H   0  0  0  0  0  0  0  0  0  0  0  0
   -3.4245   24.4353  -26.4420 H   0  0  0  0  0  0  0  0  0  0  0  0
   -0.9537   26.8010  -27.4393 H   0  0  0  0  0  0  0  0  0  0  0  0
   -1.5922   27.3008  -25.8115 H   0  0  0  0  0  0  0  0  0  0  0  0
    1.1412   26.0346  -26.3159 H   0  0  0  0  0  0  0  0  0  0  0  0
    0.8127   27.8037  -26.0706 H   0  0  0  0  0  0  0  0  0  0  0  0
    0.4292   27.7766  -22.5880 H   0  0  0  0  0  0  0  0  0  0  0  0
    1.2347   28.5828  -23.9764 H   0  0  0  0  0  0  0  0  0  0  0  0
   -0.5481   28.3630  -23.9764 H   0  0  0  0  0  0  0  0  0  0  0  0
    2.0229   26.0350  -22.9048 H   0  0  0  0  0  0  0  0  0  0  0  0
    2.0361   25.0653  -24.4168 H   0  0  0  0  0  0  0  0  0  0  0  0
    2.6907   26.7381  -24.4168 H   0  0  0  0  0  0  0  0  0  0  0  0
   -0.0957   25.1552  -22.9424 H   0  0  0  0  0  0  0  0  0  0  0  0
   -1.3758   26.2594  -23.6065 H   0  0  0  0  0  0  0  0  0  0  0  0
    0.0312   24.0428  -25.1719 H   0  0  0  0  0  0  0  0  0  0  0  0
   -1.6282   23.9503  -24.4317 H   0  0  0  0  0  0  0  0  0  0  0  0
   -1.1339   23.0063  -30.0745 H   0  0  0  0  0  0  0  0  0  0  0  0
   -2.3160   21.0696  -31.0766 H   0  0  0  0  0  0  0  0  0  0  0  0
  1  2  1  0
  2  3  1  0
  2  4  1  0
  4  5  1  0
  5  6  1  0
  6  7  1  0
  7  8  1  0
  8  9  1  0
  9 10  2  0
 10 11  1  0
 11 12  2  0
 12 13  1  0
 13 14  2  0
 14 15  1  0
 15 16  2  0
 16 17  1  0
 16 18  1  0
 18 19  2  0
 19 20  1  0
 20 21  1  0
 21 22  1  0
 22 23  1  0
 23 24  1  0
 24 25  1  0
 24 26  1  0
 26 27  1  0
 27 28  1  0
 28 29  1  0
 28 30  1  0
 28 31  1  0
 31 32  1  0
 20 33  2  0
 33 34  1  0
 34 35  2  0
 35  9  1  0
 15 10  1  0
 35 18  1  0
 32 24  1  0
  1 36  1  0
  1 37  1  0
  1 38  1  0
  2 39  1  0
  3 40  1  0
  3 41  1  0
  3 42  1  0
  4 43  1  0
  4 44  1  0
  5 45  1  0
  5 46  1  0
  6 47  1  0
  6 48  1  0
  7 49  1  0
  7 50  1  0
  8 51  1  0
 11 52  1  0
 12 53  1  0
 13 54  1  0
 14 55  1  0
 17 56  1  0
 17 57  1  0
 17 58  1  0
 19 59  1  0
 22 60  1  0
 22 61  1  0
 23 62  1  0
 23 63  1  0
 25 64  1  0
 25 65  1  0
 25 66  1  0
 26 67  1  0
 26 68  1  0
 27 69  1  0
 27 70  1  0
 29 71  1  0
 29 72  1  0
 29 73  1  0
 30 74  1  0
 30 75  1  0
 30 76  1  0
 31 77  1  0
 31 78  1  0
 32 79  1  0
 32 80  1  0
 33 81  1  0
 34 82  1  0
M  CHG  4   4   1  16   1  24   1  28   1
M  END
>  <UniqueID>  (9) 
9

>  <SMILES>  (9) 
CC(C)[NH2+]CCCNc1c2ccccc2[n+](C)c2cc(OCC[N+]3(C)CC[N+](C)(C)CC3)ccc12

>  <Energy>  (9) 
133.05153596813818

>  <Genealogy>  (9) 
CC(C)[NH2+]CCCNc1c2ccccc2[n+](C)c2cc(OCC[N+]3(C)CC[N+](C)(C)CC3)ccc12 (protonated)
CC(C)[NH2+]CCCNc1c2ccccc2[n+](C)c2cc(OCC[N+]3(C)CC[N+](C)(C)CC3)ccc12 (3D coordinates assigned)
CC(C)[NH2+]CCCNc1c2ccccc2[n+](C)c2cc(OCC[N+]3(C)CC[N+](C)(C)CC3)ccc12 (nonaromatic ring conformer: 133.05153596813818 kcal/mol)

>  <smiles>  (9) 
CC(C)NCCCNc1c2ccccc2[n+](C)c2cc(OCC[N+]3(C)CC[N+](C)(C)CC3)ccc12

>  <score_type>  (9) 
oracle

>  <origin>  (9) 
adg

>  <m_score__min__energy>  (9) 
-8.1699999999999999

>  <m_primary>  (9) 
energy

$$$$
9:0
     RDKit          3D

 77 80  0  0  0  0  0  0  0  0999 V2000
   -4.1190   24.1350  -27.9750 C   0  0  0  0  0  0  0  0  0  0  0  0
   -3.2910   24.3520  -29.2470 C   0  0  0  0  0  0  0  0  0  0  0  0
   -1.8900   24.8970  -28.9230 C   0  0  0  0  0  0  0  0  0  0  0  0
   -4.0210   25.1750  -30.2350 N   0  0  0  0  0  0  0  0  0  0  0  0
   -4.9910   24.4300  -31.0530 C   0  0  0  0  0  0  0  0  0  0  0  0
   -4.5100   22.9900  -31.2380 C   0  0  0  0  0  0  0  0  0  0  0  0
   -4.8440   22.4990  -32.5760 N   0  0  0  0  0  0  0  0  0  0  0  0
   -5.5430   21.2580  -32.7350 C   0  0  0  0  0  0  0  0  0  0  0  0
   -6.9230   21.2410  -32.4500 C   0  0  0  0  0  0  0  0  0  0  0  0
   -7.6290   22.4400  -32.2020 C   0  0  0  0  0  0  0  0  0  0  0  0
   -8.9970   22.4230  -31.9420 C   0  0  0  0  0  0  0  0  0  0  0  0
   -9.6890   21.2190  -31.9410 C   0  0  0  0  0  0  0  0  0  0  0  0
   -9.0130   20.0240  -32.1810 C   0  0  0  0  0  0  0  0  0  0  0  0
   -7.6140   20.0090  -32.4150 C   0  0  0  0  0  0  0  0  0  0  0  0
   -6.9280   18.8330  -32.6190 N   0  0  0  0  0  0  0  0  0  0  0  0
   -7.5560   17.5430  -32.2520 C   0  0  0  0  0  0  0  0  0  0  0  0
   -5.6580   18.8570  -33.1630 C   0  0  0  0  0  0  0  0  0  0  0  0
   -5.1060   17.6850  -33.7240 C   0  0  0  0  0  0  0  0  0  0  0  0
   -3.8390   17.6770  -34.2690 C   0  0  0  0  0  0  0  0  0  0  0  0
   -3.0680   18.8230  -34.2660 C   0  0  0  0  0  0  0  0  0  0  0  0
   -3.5380   20.0350  -33.7100 C   0  0  0  0  0  0  0  0  0  0  0  0
   -2.7040   21.2330  -33.7380 N   0  0  0  0  0  0  0  0  0  0  0  0
   -1.8090   21.5100  -32.5910 C   0  0  0  0  0  0  0  0  0  0  0  0
   -1.8220   20.3750  -31.5400 C   0  0  0  0  0  0  0  0  0  0  0  0
   -2.4480   20.8230  -30.1840 C   0  0  0  0  0  0  0  0  0  0  0  0
   -1.5450   20.7470  -28.9880 N   0  0  0  0  0  0  0  0  0  0  0  0
   -0.5340   21.8330  -29.0710 C   0  0  0  0  0  0  0  0  0  0  0  0
   -2.3750   20.9940  -27.7560 C   0  0  0  0  0  0  0  0  0  0  0  0
   -2.9880   19.7080  -27.1790 C   0  0  0  0  0  0  0  0  0  0  0  0
   -1.8910   18.7280  -26.7320 C   0  0  0  0  0  0  0  0  0  0  0  0
   -0.5780   18.9250  -27.5060 C   0  0  0  0  0  0  0  0  0  0  0  0
   -0.8520   19.4120  -28.9370 C   0  0  0  0  0  0  0  0  0  0  0  0
   -4.8930   20.0710  -33.1940 C   0  0  0  0  0  0  0  0  0  0  0  0
   -3.4847   24.3012  -27.0918 H   0  0  0  0  0  0  0  0  0  0  0  0
   -4.9609   24.8428  -27.9603 H   0  0  0  0  0  0  0  0  0  0  0  0
   -4.5055   23.1052  -27.9603 H   0  0  0  0  0  0  0  0  0  0  0  0
   -3.1347   23.3718  -29.7211 H   0  0  0  0  0  0  0  0  0  0  0  0
   -1.7596   24.9477  -27.8319 H   0  0  0  0  0  0  0  0  0  0  0  0
   -1.1285   24.2295  -29.3527 H   0  0  0  0  0  0  0  0  0  0  0  0
   -1.7797   25.9036  -29.3527 H   0  0  0  0  0  0  0  0  0  0  0  0
   -4.5410   25.9210  -29.7130 H   0  0  0  0  0  0  0  0  0  0  0  0
   -5.9687   24.4271  -30.5489 H   0  0  0  0  0  0  0  0  0  0  0  0
   -5.0845   24.9124  -32.0372 H   0  0  0  0  0  0  0  0  0  0  0  0
   -3.4190   22.9538  -31.1024 H   0  0  0  0  0  0  0  0  0  0  0  0
   -5.0094   22.3527  -30.4934 H   0  0  0  0  0  0  0  0  0  0  0  0
   -4.7580   23.1300  -33.4050 H   0  0  0  0  0  0  0  0  0  0  0  0
   -7.0908   23.3993  -32.2145 H   0  0  0  0  0  0  0  0  0  0  0  0
   -9.5296   23.3635  -31.7374 H   0  0  0  0  0  0  0  0  0  0  0  0
  -10.7723   21.2084  -31.7505 H   0  0  0  0  0  0  0  0  0  0  0  0
   -9.5733   19.0774  -32.1891 H   0  0  0  0  0  0  0  0  0  0  0  0
   -7.5990   17.4547  -31.1564 H   0  0  0  0  0  0  0  0  0  0  0  0
   -8.5753   17.5012  -32.6635 H   0  0  0  0  0  0  0  0  0  0  0  0
   -6.9602   16.7149  -32.6635 H   0  0  0  0  0  0  0  0  0  0  0  0
   -5.6990   16.7585  -33.7265 H   0  0  0  0  0  0  0  0  0  0  0  0
   -3.4397   16.7514  -34.7092 H   0  0  0  0  0  0  0  0  0  0  0  0
   -2.0612   18.7919  -34.7081 H   0  0  0  0  0  0  0  0  0  0  0  0
   -3.3260   22.0640  -33.8130 H   0  0  0  0  0  0  0  0  0  0  0  0
   -2.0920   21.1700  -34.5820 H   0  0  0  0  0  0  0  0  0  0  0  0
   -0.7821   21.6311  -32.9664 H   0  0  0  0  0  0  0  0  0  0  0  0
   -2.1709   22.4247  -32.0987 H   0  0  0  0  0  0  0  0  0  0  0  0
   -2.4075   19.5329  -31.9376 H   0  0  0  0  0  0  0  0  0  0  0  0
   -0.7781   20.0868  -31.3469 H   0  0  0  0  0  0  0  0  0  0  0  0
   -2.7758   21.8674  -30.2929 H   0  0  0  0  0  0  0  0  0  0  0  0
   -3.2654   20.1143  -29.9851 H   0  0  0  0  0  0  0  0  0  0  0  0
   -0.2451   22.1433  -28.0560 H   0  0  0  0  0  0  0  0  0  0  0  0
    0.3531   21.4678  -29.6092 H   0  0  0  0  0  0  0  0  0  0  0  0
   -0.9617   22.6917  -29.6092 H   0  0  0  0  0  0  0  0  0  0  0  0
   -1.7350   21.4528  -26.9880 H   0  0  0  0  0  0  0  0  0  0  0  0
   -3.2058   21.6544  -28.0451 H   0  0  0  0  0  0  0  0  0  0  0  0
   -3.6152   19.9655  -26.3128 H   0  0  0  0  0  0  0  0  0  0  0  0
   -3.5918   19.2254  -27.9617 H   0  0  0  0  0  0  0  0  0  0  0  0
   -1.6957   18.8813  -25.6604 H   0  0  0  0  0  0  0  0  0  0  0  0
   -2.2498   17.7081  -26.9346 H   0  0  0  0  0  0  0  0  0  0  0  0
    0.0392   19.6709  -26.9839 H   0  0  0  0  0  0  0  0  0  0  0  0
   -0.0530   17.9598  -27.5581 H   0  0  0  0  0  0  0  0  0  0  0  0
    0.1081   19.4963  -29.4672 H   0  0  0  0  0  0  0  0  0  0  0  0
   -1.5222   18.6783  -29.4086 H   0  0  0  0  0  0  0  0  0  0  0  0
  1  2  1  0
  2  3  1  0
  2  4  1  0
  4  5  1  0
  5  6  1  0
  6  7  1  0
  7  8  1  0
  8  9  2  0
  9 10  1  0
 10 11  2  0
 11 12  1  0
 12 13  2  0
 13 14  1  0
 14 15  2  0
 15 16  1  0
 15 17  1  0
 17 18  2  0
 18 19  1  0
 19 20  2  0
 20 21  1  0
 21 22  1  0
 22 23  1  0
 23 24  1  0
 24 25  1  0
 25 26  1  0
 26 27  1  0
 26 28  1  0
 28 29  1  0
 29 30  1  0
 30 31  1  0
 31 32  1  0
 21 33  2  0
 33  8  1  0
 14  9  1  0
 33 17  1  0
 32 26  1  0
  1 34  1  0
  1 35  1  0
  1 36  1  0
  2 37  1  0
  3 38  1  0
  3 39  1  0
  3 40  1  0
  4 41  1  0
  5 42  1  0
  5 43  1  0
  6 44  1  0
  6 45  1  0
  7 46  1  0
 10 47  1  0
 11 48  1  0
 12 49  1  0
 13 50  1  0
 16 51  1  0
 16 52  1  0
 16 53  1  0
 18 54  1  0
 19 55  1  0
 20 56  1  0
 22 57  1  0
 22 58  1  0
 23 59  1  0
 23 60  1  0
 24 61  1  0
 24 62  1  0
 25 63  1  0
 25 64  1  0
 27 65  1  0
 27 66  1  0
 27 67  1  0
 28 68  1  0
 28 69  1  0
 29 70  1  0
 29 71  1  0
 30 72  1  0
 30 73  1  0
 31 74  1  0
 31 75  1  0
 32 76  1  0
 32 77  1  0
M  CHG  3  15   1  22   1  26   1
M  END
>  <UniqueID>  (10) 
10

>  <SMILES>  (10) 
CC(C)NCCNc1c2ccccc2[n+](C)c2cccc([NH2+]CCC[N+]3(C)CCCCC3)c12

>  <Energy>  (10) 
136.47537589447055

>  <Genealogy>  (10) 
CC(C)NCCNc1c2ccccc2[n+](C)c2cccc([NH2+]CCC[N+]3(C)CCCCC3)c12 (protonated)
CC(C)NCCNc1c2ccccc2[n+](C)c2cccc([NH2+]CCC[N+]3(C)CCCCC3)c12 (3D coordinates assigned)
CC(C)NCCNc1c2ccccc2[n+](C)c2cccc([NH2+]CCC[N+]3(C)CCCCC3)c12 (nonaromatic ring conformer: 136.47537589447055 kcal/mol)

>  <smiles>  (10) 
CC(C)NCCNc1c2ccccc2[n+](C)c2cccc(NCCC[N+]3(C)CCCCC3)c12

>  <score_type>  (10) 
oracle

>  <origin>  (10) 
adg

>  <m_score__min__energy>  (10) 
-9.5299999999999994

>  <m_primary>  (10) 
energy

$$$$
10:0
     RDKit          3D

 52 54  0  0  0  0  0  0  0  0999 V2000
   -9.4920   21.2020  -31.9520 C   0  0  0  0  0  0  0  0  0  0  0  0
   -9.1310   19.7670  -31.5880 C   0  0  0  0  0  0  0  0  0  0  0  0
   -7.6790   19.6010  -31.5110 N   0  0  0  0  0  0  0  0  0  0  0  0
   -6.8840   18.9230  -32.5040 C   0  0  0  0  0  0  0  0  0  0  0  0
   -7.1830   17.6080  -32.9080 C   0  0  0  0  0  0  0  0  0  0  0  0
   -6.3530   16.9450  -33.8110 C   0  0  0  0  0  0  0  0  0  0  0  0
   -5.2220   17.5920  -34.3050 C   0  0  0  0  0  0  0  0  0  0  0  0
   -4.9460   18.8640  -33.9200 N   0  0  0  0  0  0  0  0  0  0  0  0
   -5.7410   19.5460  -33.0510 C   0  0  0  0  0  0  0  0  0  0  0  0
   -5.4100   20.9020  -32.7160 N   0  0  0  0  0  0  0  0  0  0  0  0
   -6.4510   21.9350  -32.7260 C   0  0  0  0  0  0  0  0  0  0  0  0
   -6.2470   22.9400  -31.5720 C   0  0  0  0  0  0  0  0  0  0  0  0
   -4.9110   22.8270  -30.9490 N   0  0  0  0  0  0  0  0  0  0  0  0
   -4.5870   24.2360  -29.9670 S   0  0  0  0  0  0  0  0  0  0  0  0
   -5.8750   24.7870  -29.4200 O   0  0  0  0  0  0  0  0  0  0  0  0
   -3.9230   25.2900  -30.8080 O   0  0  0  0  0  0  0  0  0  0  0  0
   -3.4940   23.8030  -28.6070 C   0  0  0  0  0  0  0  0  0  0  0  0
   -2.0310   24.2220  -28.9090 C   0  0  0  0  0  0  0  0  0  0  0  0
   -1.1870   23.0490  -29.4220 C   0  0  0  0  0  0  0  0  0  0  0  0
   -1.1260   21.8980  -28.3960 C   0  0  0  0  0  0  0  0  0  0  0  0
   -2.3980   21.7770  -27.5330 C   0  0  0  0  0  0  0  0  0  0  0  0
   -3.6340   22.2980  -28.2710 C   0  0  0  0  0  0  0  0  0  0  0  0
   -3.8670   22.6760  -31.9730 C   0  0  0  0  0  0  0  0  0  0  0  0
   -4.0000   21.2920  -32.6180 C   0  0  0  0  0  0  0  0  0  0  0  0
   -9.6393   21.7875  -31.0325 H   0  0  0  0  0  0  0  0  0  0  0  0
   -8.6776   21.6463  -32.5431 H   0  0  0  0  0  0  0  0  0  0  0  0
  -10.4197   21.2081  -32.5431 H   0  0  0  0  0  0  0  0  0  0  0  0
   -9.5747   19.5197  -30.6123 H   0  0  0  0  0  0  0  0  0  0  0  0
   -9.5222   19.0961  -32.3670 H   0  0  0  0  0  0  0  0  0  0  0  0
   -7.1980   20.0250  -30.6860 H   0  0  0  0  0  0  0  0  0  0  0  0
   -8.0747   17.1017  -32.5098 H   0  0  0  0  0  0  0  0  0  0  0  0
   -6.5891   15.9194  -34.1309 H   0  0  0  0  0  0  0  0  0  0  0  0
   -4.5531   17.0721  -35.0067 H   0  0  0  0  0  0  0  0  0  0  0  0
   -6.4124   22.4748  -33.6837 H   0  0  0  0  0  0  0  0  0  0  0  0
   -7.4285   21.4475  -32.5964 H   0  0  0  0  0  0  0  0  0  0  0  0
   -6.3662   23.9595  -31.9675 H   0  0  0  0  0  0  0  0  0  0  0  0
   -6.9956   22.7149  -30.7980 H   0  0  0  0  0  0  0  0  0  0  0  0
   -3.7926   24.3660  -27.7104 H   0  0  0  0  0  0  0  0  0  0  0  0
   -2.0396   25.0132  -29.6732 H   0  0  0  0  0  0  0  0  0  0  0  0
   -1.5807   24.5771  -27.9703 H   0  0  0  0  0  0  0  0  0  0  0  0
   -1.6309   22.6717  -30.3551 H   0  0  0  0  0  0  0  0  0  0  0  0
   -0.1625   23.4120  -29.5914 H   0  0  0  0  0  0  0  0  0  0  0  0
   -0.9833   20.9530  -28.9406 H   0  0  0  0  0  0  0  0  0  0  0  0
   -0.2910   22.1158  -27.7138 H   0  0  0  0  0  0  0  0  0  0  0  0
   -2.5555   20.7190  -27.2764 H   0  0  0  0  0  0  0  0  0  0  0  0
   -2.2573   22.3853  -26.6273 H   0  0  0  0  0  0  0  0  0  0  0  0
   -3.7585   21.7319  -29.2059 H   0  0  0  0  0  0  0  0  0  0  0  0
   -4.5097   22.1673  -27.6182 H   0  0  0  0  0  0  0  0  0  0  0  0
   -3.9878   23.4543  -32.7409 H   0  0  0  0  0  0  0  0  0  0  0  0
   -2.8741   22.7775  -31.5105 H   0  0  0  0  0  0  0  0  0  0  0  0
   -3.5615   21.3194  -33.6265 H   0  0  0  0  0  0  0  0  0  0  0  0
   -3.4713   20.5571  -31.9932 H   0  0  0  0  0  0  0  0  0  0  0  0
  1  2  1  0
  2  3  1  0
  3  4  1  0
  4  5  2  0
  5  6  1  0
  6  7  2  0
  7  8  1  0
  8  9  2  0
  9 10  1  0
 10 11  1  0
 11 12  1  0
 12 13  1  0
 13 14  1  0
 14 15  2  0
 14 16  2  0
 14 17  1  0
 17 18  1  0
 18 19  1  0
 19 20  1  0
 20 21  1  0
 21 22  1  0
 13 23  1  0
 23 24  1  0
  9  4  1  0
 24 10  1  0
 22 17  1  0
  1 25  1  0
  1 26  1  0
  1 27  1  0
  2 28  1  0
  2 29  1  0
  3 30  1  0
  5 31  1  0
  6 32  1  0
  7 33  1  0
 11 34  1  0
 11 35  1  0
 12 36  1  0
 12 37  1  0
 17 38  1  0
 18 39  1  0
 18 40  1  0
 19 41  1  0
 19 42  1  0
 20 43  1  0
 20 44  1  0
 21 45  1  0
 21 46  1  0
 22 47  1  0
 22 48  1  0
 23 49  1  0
 23 50  1  0
 24 51  1  0
 24 52  1  0
M  END
>  <UniqueID>  (11) 
11

>  <SMILES>  (11) 
CCNc1cccnc1N1CCN(S(=O)(=O)C2CCCCC2)CC1

>  <Energy>  (11) 
54.5658092102919

>  <Genealogy>  (11) 
CCNc1cccnc1N1CCN(S(=O)(=O)C2CCCCC2)CC1 (3D coordinates assigned)
CCNc1cccnc1N1CCN(S(=O)(=O)C2CCCCC2)CC1 (nonaromatic ring conformer: 54.5658092102919 kcal/mol)

>  <smiles>  (11) 
CCNc1cccnc1N1CCN(S(=O)(=O)C2CCCCC2)CC1

>  <score_type>  (11) 
oracle

>  <origin>  (11) 
adg

>  <m_score__min__energy>  (11) 
-9.0299999999999994

>  <m_primary>  (11) 
energy

$$$$
11:0
     RDKit          3D

 46 48  0  0  0  0  0  0  0  0999 V2000
   -6.1220   17.2850  -31.6210 C   0  0  0  0  0  0  0  0  0  0  0  0
   -6.8930   17.7160  -32.8650 C   0  0  0  0  0  0  0  0  0  0  0  0
   -6.1870   18.8260  -33.5350 N   0  0  0  0  0  0  0  0  0  0  0  0
   -5.8030   18.5650  -34.9360 C   0  0  0  0  0  0  0  0  0  0  0  0
   -6.6370   20.1990  -33.1590 C   0  0  1  0  0  0  0  0  0  0  0  0
   -7.5870   20.2680  -31.9540 C   0  0  2  0  0  0  0  0  0  0  0  0
   -9.0540   19.9440  -32.2780 C   0  0  0  0  0  0  0  0  0  0  0  0
   -9.8520   21.1910  -31.9220 C   0  0  0  0  0  0  0  0  0  0  0  0
   -8.8610   22.3400  -31.9720 C   0  0  0  0  0  0  0  0  0  0  0  0
   -7.5250   21.7280  -31.5480 C   0  0  2  0  0  0  0  0  0  0  0  0
   -6.2950   22.3160  -32.2650 C   0  0  0  0  0  0  0  0  0  0  0  0
   -5.5660   21.1980  -32.9070 N   0  0  1  0  0  0  0  0  0  0  0  0
   -4.4560   20.7180  -32.0440 C   0  0  0  0  0  0  0  0  0  0  0  0
   -3.2030   20.4300  -32.8400 C   0  0  0  0  0  0  0  0  0  0  0  0
   -2.2630   21.4450  -33.0890 C   0  0  0  0  0  0  0  0  0  0  0  0
   -1.1080   21.1710  -33.8280 C   0  0  0  0  0  0  0  0  0  0  0  0
   -0.8810   19.8820  -34.3210 C   0  0  0  0  0  0  0  0  0  0  0  0
    0.2400   19.6170  -35.0370 F   0  0  0  0  0  0  0  0  0  0  0  0
   -1.8070   18.8650  -34.0730 C   0  0  0  0  0  0  0  0  0  0  0  0
   -2.9630   19.1360  -33.3340 C   0  0  0  0  0  0  0  0  0  0  0  0
   -6.6748   17.5940  -30.7216 H   0  0  0  0  0  0  0  0  0  0  0  0
   -6.0059   16.1911  -31.6222 H   0  0  0  0  0  0  0  0  0  0  0  0
   -5.1294   17.7591  -31.6222 H   0  0  0  0  0  0  0  0  0  0  0  0
   -6.9738   16.8648  -33.5570 H   0  0  0  0  0  0  0  0  0  0  0  0
   -7.8979   18.0522  -32.5696 H   0  0  0  0  0  0  0  0  0  0  0  0
   -4.8934   17.9468  -34.9578 H   0  0  0  0  0  0  0  0  0  0  0  0
   -6.6196   18.0340  -35.4472 H   0  0  0  0  0  0  0  0  0  0  0  0
   -5.6098   19.5197  -35.4472 H   0  0  0  0  0  0  0  0  0  0  0  0
   -7.1688   20.4658  -34.0842 H   0  0  0  0  0  0  0  0  0  0  0  0
   -7.2797   19.5320  -31.1964 H   0  0  0  0  0  0  0  0  0  0  0  0
   -9.1662   19.7116  -33.3473 H   0  0  0  0  0  0  0  0  0  0  0  0
   -9.4056   19.0679  -31.7134 H   0  0  0  0  0  0  0  0  0  0  0  0
  -10.6608   21.3499  -32.6504 H   0  0  0  0  0  0  0  0  0  0  0  0
  -10.3228   21.1032  -30.9317 H   0  0  0  0  0  0  0  0  0  0  0  0
   -8.7933   22.7483  -32.9912 H   0  0  0  0  0  0  0  0  0  0  0  0
   -9.1602   23.1729  -31.3187 H   0  0  0  0  0  0  0  0  0  0  0  0
   -7.4016   21.9205  -30.4720 H   0  0  0  0  0  0  0  0  0  0  0  0
   -6.6175   23.0394  -33.0283 H   0  0  0  0  0  0  0  0  0  0  0  0
   -5.6443   22.8359  -31.5465 H   0  0  0  0  0  0  0  0  0  0  0  0
   -5.1770   21.5290  -33.8210 H   0  0  0  0  0  0  0  0  0  0  0  0
   -4.2303   21.4900  -31.2936 H   0  0  0  0  0  0  0  0  0  0  0  0
   -4.7779   19.7808  -31.5665 H   0  0  0  0  0  0  0  0  0  0  0  0
   -2.4368   22.4594  -32.7008 H   0  0  0  0  0  0  0  0  0  0  0  0
   -0.3772   21.9700  -34.0218 H   0  0  0  0  0  0  0  0  0  0  0  0
   -1.6265   17.8510  -34.4592 H   0  0  0  0  0  0  0  0  0  0  0  0
   -3.6882   18.3324  -33.1383 H   0  0  0  0  0  0  0  0  0  0  0  0
  1  2  1  0
  2  3  1  0
  3  4  1  0
  3  5  1  0
  5  6  1  0
  6  7  1  0
  7  8  1  0
  8  9  1  0
  9 10  1  0
 10 11  1  0
 11 12  1  0
 12 13  1  0
 13 14  1  0
 14 15  2  0
 15 16  1  0
 16 17  2  0
 17 18  1  0
 17 19  1  0
 19 20  2  0
 12  5  1  0
 20 14  1  0
 10  6  1  0
  1 21  1  0
  1 22  1  0
  1 23  1  0
  2 24  1  0
  2 25  1  0
  4 26  1  0
  4 27  1  0
  4 28  1  0
  5 29  1  6
  6 30  1  1
  7 31  1  0
  7 32  1  0
  8 33  1  0
  8 34  1  0
  9 35  1  0
  9 36  1  0
 10 37  1  1
 11 38  1  0
 11 39  1  0
 12 40  1  6
 13 41  1  0
 13 42  1  0
 15 43  1  0
 16 44  1  0
 19 45  1  0
 20 46  1  0
M  CHG  1  12   1
M  END
>  <UniqueID>  (12) 
12

>  <SMILES>  (12) 
CCN(C)[C@H]1[C@@H]2CCCC2C[NH+]1Cc1ccc(F)cc1

>  <Energy>  (12) 
70.37931721315121

>  <Genealogy>  (12) 
CCN(C)C1C2CCCC2C[NH+]1Cc1ccc(F)cc1 (protonated)
CCN(C)[C@H]1[C@@H]2CCCC2C[NH+]1Cc1ccc(F)cc1 (chirality)
CCN(C)[C@H]1[C@@H]2CCCC2C[NH+]1Cc1ccc(F)cc1 (3D coordinates assigned)
CCN(C)[C@H]1[C@@H]2CCCC2C[NH+]1Cc1ccc(F)cc1 (nonaromatic ring conformer: 70.37931721315121 kcal/mol)

>  <smiles>  (12) 
CCN(C)C1C2CCCC2CN1Cc1ccc(F)cc1

>  <score_type>  (12) 
oracle

>  <origin>  (12) 
adg

>  <m_score__min__energy>  (12) 
-6.71

>  <m_primary>  (12) 
energy

$$$$
12:0
     RDKit          3D

 82 85  0  0  0  0  0  0  0  0999 V2000
   -6.8780   17.8050  -31.4520 C   0  0  0  0  0  0  0  0  0  0  0  0
   -7.7020   18.0840  -32.7220 C   0  0  0  0  0  0  0  0  0  0  0  0
   -8.1620   19.4810  -32.8250 N   0  0  0  0  0  0  0  0  0  0  0  0
   -9.0100   19.9380  -31.7150 C   0  0  0  0  0  0  0  0  0  0  0  0
   -9.7760   21.2420  -32.0290 C   0  0  0  0  0  0  0  0  0  0  0  0
   -8.9100   22.5030  -31.8480 C   0  0  0  0  0  0  0  0  0  0  0  0
   -7.4510   22.1610  -31.4710 C   0  0  0  0  0  0  0  0  0  0  0  0
   -6.5390   22.0030  -32.6260 N   0  0  0  0  0  0  0  0  0  0  0  0
   -5.1630   21.6820  -32.2560 C   0  0  0  0  0  0  0  0  0  0  0  0
   -4.5140   20.5360  -32.7930 C   0  0  0  0  0  0  0  0  0  0  0  0
   -5.1940   19.5900  -33.5980 C   0  0  0  0  0  0  0  0  0  0  0  0
   -4.5170   18.5560  -34.2280 C   0  0  0  0  0  0  0  0  0  0  0  0
   -3.1500   18.4140  -34.0620 C   0  0  0  0  0  0  0  0  0  0  0  0
   -2.4590   19.2830  -33.2290 C   0  0  0  0  0  0  0  0  0  0  0  0
   -3.1320   20.3200  -32.5170 C   0  0  0  0  0  0  0  0  0  0  0  0
   -2.4670   21.1080  -31.5940 N   0  0  0  0  0  0  0  0  0  0  0  0
   -1.1130   20.7260  -31.1160 C   0  0  0  0  0  0  0  0  0  0  0  0
   -3.0740   22.2430  -31.0830 C   0  0  0  0  0  0  0  0  0  0  0  0
   -2.3690   23.1350  -30.2220 C   0  0  0  0  0  0  0  0  0  0  0  0
   -2.9980   24.2380  -29.6230 C   0  0  0  0  0  0  0  0  0  0  0  0
   -2.3640   25.0630  -28.6770 O   0  0  0  0  0  0  0  0  0  0  0  0
   -2.4590   24.9280  -27.2550 C   0  0  0  0  0  0  0  0  0  0  0  0
   -1.2550   24.1270  -26.6990 C   0  0  0  0  0  0  0  0  0  0  0  0
   -0.5680   24.7190  -25.4980 N   0  0  0  0  0  0  0  0  0  0  0  0
   -0.2980   23.6310  -24.5060 C   0  0  0  0  0  0  0  0  0  0  0  0
   -1.5140   25.7140  -24.9090 C   0  0  0  0  0  0  0  0  0  0  0  0
   -0.9040   26.6180  -23.8140 C   0  0  0  0  0  0  0  0  0  0  0  0
    0.3840   27.2560  -24.1980 N   0  0  0  0  0  0  0  0  0  0  0  0
    0.1730   28.3470  -25.1860 C   0  0  0  0  0  0  0  0  0  0  0  0
    0.9970   27.8650  -22.9820 C   0  0  0  0  0  0  0  0  0  0  0  0
    1.3200   26.2400  -24.7500 C   0  0  0  0  0  0  0  0  0  0  0  0
    0.7100   25.3920  -25.8860 C   0  0  0  0  0  0  0  0  0  0  0  0
   -4.3050   24.5400  -29.9770 C   0  0  0  0  0  0  0  0  0  0  0  0
   -5.0050   23.7280  -30.8650 C   0  0  0  0  0  0  0  0  0  0  0  0
   -4.4250   22.5520  -31.4050 C   0  0  0  0  0  0  0  0  0  0  0  0
   -7.4921   18.0129  -30.5634 H   0  0  0  0  0  0  0  0  0  0  0  0
   -6.5646   16.7506  -31.4425 H   0  0  0  0  0  0  0  0  0  0  0  0
   -5.9885   18.4521  -31.4425 H   0  0  0  0  0  0  0  0  0  0  0  0
   -7.0787   17.8563  -33.5993 H   0  0  0  0  0  0  0  0  0  0  0  0
   -8.5989   17.4490  -32.6738 H   0  0  0  0  0  0  0  0  0  0  0  0
   -8.5850   19.6910  -33.7580 H   0  0  0  0  0  0  0  0  0  0  0  0
   -9.7420   19.1492  -31.4870 H   0  0  0  0  0  0  0  0  0  0  0  0
   -8.3469   20.1466  -30.8625 H   0  0  0  0  0  0  0  0  0  0  0  0
  -10.1247   21.2021  -33.0715 H   0  0  0  0  0  0  0  0  0  0  0  0
  -10.6141   21.3120  -31.3200 H   0  0  0  0  0  0  0  0  0  0  0  0
   -8.9086   23.0699  -32.7907 H   0  0  0  0  0  0  0  0  0  0  0  0
   -9.3413   23.0933  -31.0261 H   0  0  0  0  0  0  0  0  0  0  0  0
   -7.0622   22.9695  -30.8344 H   0  0  0  0  0  0  0  0  0  0  0  0
   -7.4802   21.1872  -30.9602 H   0  0  0  0  0  0  0  0  0  0  0  0
   -6.9570   21.3210  -33.2940 H   0  0  0  0  0  0  0  0  0  0  0  0
   -6.5590   22.8780  -33.1950 H   0  0  0  0  0  0  0  0  0  0  0  0
   -6.2830   19.6770  -33.7266 H   0  0  0  0  0  0  0  0  0  0  0  0
   -5.0686   17.8461  -34.8619 H   0  0  0  0  0  0  0  0  0  0  0  0
   -2.6118   17.6130  -34.5899 H   0  0  0  0  0  0  0  0  0  0  0  0
   -1.3707   19.1699  -33.1156 H   0  0  0  0  0  0  0  0  0  0  0  0
   -1.1000   20.7223  -30.0161 H   0  0  0  0  0  0  0  0  0  0  0  0
   -0.8622   19.7220  -31.4890 H   0  0  0  0  0  0  0  0  0  0  0  0
   -0.3744   21.4508  -31.4890 H   0  0  0  0  0  0  0  0  0  0  0  0
   -1.3027   22.9537  -30.0217 H   0  0  0  0  0  0  0  0  0  0  0  0
   -2.4695   25.9282  -26.7973 H   0  0  0  0  0  0  0  0  0  0  0  0
   -3.3857   24.3873  -27.0123 H   0  0  0  0  0  0  0  0  0  0  0  0
   -1.6162   23.1259  -26.4209 H   0  0  0  0  0  0  0  0  0  0  0  0
   -0.5025   24.1267  -27.5014 H   0  0  0  0  0  0  0  0  0  0  0  0
   -0.3974   24.0315  -23.4864 H   0  0  0  0  0  0  0  0  0  0  0  0
   -1.0208   22.8146  -24.6513 H   0  0  0  0  0  0  0  0  0  0  0  0
    0.7226   23.2473  -24.6513 H   0  0  0  0  0  0  0  0  0  0  0  0
   -1.8809   26.3595  -25.7206 H   0  0  0  0  0  0  0  0  0  0  0  0
   -2.3115   25.1331  -24.4226 H   0  0  0  0  0  0  0  0  0  0  0  0
   -1.6271   27.4135  -23.5809 H   0  0  0  0  0  0  0  0  0  0  0  0
   -0.6910   25.9698  -22.9512 H   0  0  0  0  0  0  0  0  0  0  0  0
   -0.0099   29.2926  -24.6546 H   0  0  0  0  0  0  0  0  0  0  0  0
    1.0682   28.4483  -25.8172 H   0  0  0  0  0  0  0  0  0  0  0  0
   -0.6954   28.1072  -25.8172 H   0  0  0  0  0  0  0  0  0  0  0  0
    0.5479   27.4189  -22.0824 H   0  0  0  0  0  0  0  0  0  0  0  0
    2.0805   27.6754  -22.9835 H   0  0  0  0  0  0  0  0  0  0  0  0
    0.8145   28.9498  -22.9835 H   0  0  0  0  0  0  0  0  0  0  0  0
    2.2066   26.7601  -25.1417 H   0  0  0  0  0  0  0  0  0  0  0  0
    1.5685   25.5504  -23.9298 H   0  0  0  0  0  0  0  0  0  0  0  0
    0.5119   26.0495  -26.7454 H   0  0  0  0  0  0  0  0  0  0  0  0
    1.4350   24.6013  -26.1290 H   0  0  0  0  0  0  0  0  0  0  0  0
   -4.7928   25.4296  -29.5519 H   0  0  0  0  0  0  0  0  0  0  0  0
   -6.0297   24.0044  -31.1539 H   0  0  0  0  0  0  0  0  0  0  0  0
  1  2  1  0
  2  3  1  0
  3  4  1  0
  4  5  1  0
  5  6  1  0
  6  7  1  0
  7  8  1  0
  8  9  1  0
  9 10  2  0
 10 11  1  0
 11 12  2  0
 12 13  1  0
 13 14  2  0
 14 15  1  0
 15 16  2  0
 16 17  1  0
 16 18  1  0
 18 19  2  0
 19 20  1  0
 20 21  1  0
 21 22  1  0
 22 23  1  0
 23 24  1  0
 24 25  1  0
 24 26  1  0
 26 27  1  0
 27 28  1  0
 28 29  1  0
 28 30  1  0
 28 31  1  0
 31 32  1  0
 20 33  2  0
 33 34  1  0
 34 35  2  0
 35  9  1  0
 15 10  1  0
 35 18  1  0
 32 24  1  0
  1 36  1  0
  1 37  1  0
  1 38  1  0
  2 39  1  0
  2 40  1  0
  3 41  1  0
  4 42  1  0
  4 43  1  0
  5 44  1  0
  5 45  1  0
  6 46  1  0
  6 47  1  0
  7 48  1  0
  7 49  1  0
  8 50  1  0
  8 51  1  0
 11 52  1  0
 12 53  1  0
 13 54  1  0
 14 55  1  0
 17 56  1  0
 17 57  1  0
 17 58  1  0
 19 59  1  0
 22 60  1  0
 22 61  1  0
 23 62  1  0
 23 63  1  0
 25 64  1  0
 25 65  1  0
 25 66  1  0
 26 67  1  0
 26 68  1  0
 27 69  1  0
 27 70  1  0
 29 71  1  0
 29 72  1  0
 29 73  1  0
 30 74  1  0
 30 75  1  0
 30 76  1  0
 31 77  1  0
 31 78  1  0
 32 79  1  0
 32 80  1  0
 33 81  1  0
 34 82  1  0
M  CHG  4   8   1  16   1  24   1  28   1
M  END
>  <UniqueID>  (13) 
13

>  <SMILES>  (13) 
CCNCCCC[NH2+]c1c2ccccc2[n+](C)c2cc(OCC[N+]3(C)CC[N+](C)(C)CC3)ccc12

>  <Energy>  (13) 
135.68454324247412

>  <Genealogy>  (13) 
CCNCCCC[NH2+]c1c2ccccc2[n+](C)c2cc(OCC[N+]3(C)CC[N+](C)(C)CC3)ccc12 (protonated)
CCNCCCC[NH2+]c1c2ccccc2[n+](C)c2cc(OCC[N+]3(C)CC[N+](C)(C)CC3)ccc12 (3D coordinates assigned)
CCNCCCC[NH2+]c1c2ccccc2[n+](C)c2cc(OCC[N+]3(C)CC[N+](C)(C)CC3)ccc12 (nonaromatic ring conformer: 135.68454324247412 kcal/mol)

>  <smiles>  (13) 
CCNCCCCNc1c2ccccc2[n+](C)c2cc(OCC[N+]3(C)CC[N+](C)(C)CC3)ccc12

>  <score_type>  (13) 
oracle

>  <origin>  (13) 
adg

>  <m_score__min__energy>  (13) 
-8.4499999999999993

>  <m_primary>  (13) 
energy

$$$$
13:0
     RDKit          3D

 70 72  0  0  0  0  0  0  0  0999 V2000
   -1.0420   22.1560  -30.1420 C   0  0  0  0  0  0  0  0  0  0  0  0
   -1.7800   21.0600  -29.3610 C   0  0  0  0  0  0  0  0  0  0  0  0
   -3.1740   20.8330  -29.9600 C   0  0  0  0  0  0  0  0  0  0  0  0
   -1.8910   21.4160  -27.8650 C   0  0  0  0  0  0  0  0  0  0  0  0
   -2.2410   22.8510  -27.7010 N   0  0  0  0  0  0  0  0  0  0  0  0
   -1.4060   23.5550  -26.7010 C   0  0  0  0  0  0  0  0  0  0  0  0
   -1.7420   25.0460  -26.6410 C   0  0  0  0  0  0  0  0  0  0  0  0
   -0.8740   25.9440  -27.9140 Cl  0  0  0  0  0  0  0  0  0  0  0  0
   -3.6900   23.0660  -27.4810 C   0  0  0  0  0  0  0  0  0  0  0  0
   -4.2920   24.1720  -28.3800 C   0  0  0  0  0  0  0  0  0  0  0  0
   -3.4440   24.4170  -29.6430 C   0  0  0  0  0  0  0  0  0  0  0  0
   -4.2380   24.3550  -30.8860 N   0  0  0  0  0  0  0  0  0  0  0  0
   -5.4110   25.2400  -30.8570 C   0  0  0  0  0  0  0  0  0  0  0  0
   -6.6980   24.4610  -30.5370 C   0  0  0  0  0  0  0  0  0  0  0  0
   -6.6430   22.9790  -30.9570 C   0  0  0  0  0  0  0  0  0  0  0  0
   -6.1680   22.8100  -32.3410 N   0  0  0  0  0  0  0  0  0  0  0  0
   -5.9550   21.4010  -32.6370 C   0  0  0  0  0  0  0  0  0  0  0  0
   -4.6630   20.9200  -32.9750 C   0  0  0  0  0  0  0  0  0  0  0  0
   -3.5670   21.7990  -33.1700 C   0  0  0  0  0  0  0  0  0  0  0  0
   -2.2840   21.3100  -33.4010 C   0  0  0  0  0  0  0  0  0  0  0  0
   -2.0590   19.9420  -33.4400 C   0  0  0  0  0  0  0  0  0  0  0  0
   -3.1220   19.0550  -33.3050 C   0  0  0  0  0  0  0  0  0  0  0  0
   -4.4510   19.5200  -33.1290 C   0  0  0  0  0  0  0  0  0  0  0  0
   -5.5200   18.6450  -33.0950 N   0  0  0  0  0  0  0  0  0  0  0  0
   -5.3400   17.2470  -33.5520 C   0  0  0  0  0  0  0  0  0  0  0  0
   -6.7660   19.0820  -32.6950 C   0  0  0  0  0  0  0  0  0  0  0  0
   -7.8160   18.1660  -32.4240 C   0  0  0  0  0  0  0  0  0  0  0  0
   -9.1000   18.6070  -32.1170 C   0  0  0  0  0  0  0  0  0  0  0  0
   -9.3730   19.9650  -32.0660 C   0  0  0  0  0  0  0  0  0  0  0  0
   -8.3530   20.8910  -32.2670 C   0  0  0  0  0  0  0  0  0  0  0  0
   -7.0250   20.4720  -32.5310 C   0  0  0  0  0  0  0  0  0  0  0  0
   -0.5710   22.8555  -29.4358 H   0  0  0  0  0  0  0  0  0  0  0  0
   -0.2681   21.6973  -30.7750 H   0  0  0  0  0  0  0  0  0  0  0  0
   -1.7581   22.7006  -30.7750 H   0  0  0  0  0  0  0  0  0  0  0  0
   -1.1972   20.1307  -29.4438 H   0  0  0  0  0  0  0  0  0  0  0  0
   -3.9068   20.7137  -29.1484 H   0  0  0  0  0  0  0  0  0  0  0  0
   -3.4517   21.6978  -30.5806 H   0  0  0  0  0  0  0  0  0  0  0  0
   -3.1630   19.9248  -30.5806 H   0  0  0  0  0  0  0  0  0  0  0  0
   -2.6730   20.7965  -27.4016 H   0  0  0  0  0  0  0  0  0  0  0  0
   -0.9226   21.2261  -27.3791 H   0  0  0  0  0  0  0  0  0  0  0  0
   -1.5814   23.1088  -25.7110 H   0  0  0  0  0  0  0  0  0  0  0  0
   -0.3515   23.4502  -26.9962 H   0  0  0  0  0  0  0  0  0  0  0  0
   -2.8250   25.1773  -26.7819 H   0  0  0  0  0  0  0  0  0  0  0  0
   -1.4325   25.4374  -25.6607 H   0  0  0  0  0  0  0  0  0  0  0  0
   -4.2175   22.1232  -27.6880 H   0  0  0  0  0  0  0  0  0  0  0  0
   -3.8145   23.3926  -26.4380 H   0  0  0  0  0  0  0  0  0  0  0  0
   -5.3043   23.8689  -28.6856 H   0  0  0  0  0  0  0  0  0  0  0  0
   -4.3135   25.1062  -27.7997 H   0  0  0  0  0  0  0  0  0  0  0  0
   -2.9836   25.4133  -29.5694 H   0  0  0  0  0  0  0  0  0  0  0  0
   -2.6871   23.6204  -29.6934 H   0  0  0  0  0  0  0  0  0  0  0  0
   -4.5590   23.3750  -31.0620 H   0  0  0  0  0  0  0  0  0  0  0  0
   -5.2586   26.0101  -30.0865 H   0  0  0  0  0  0  0  0  0  0  0  0
   -5.5228   25.6970  -31.8513 H   0  0  0  0  0  0  0  0  0  0  0  0
   -6.8726   24.5087  -29.4520 H   0  0  0  0  0  0  0  0  0  0  0  0
   -7.5100   24.9294  -31.1125 H   0  0  0  0  0  0  0  0  0  0  0  0
   -5.9602   22.4442  -30.2804 H   0  0  0  0  0  0  0  0  0  0  0  0
   -7.6638   22.5734  -30.8985 H   0  0  0  0  0  0  0  0  0  0  0  0
   -5.2960   23.3540  -32.5090 H   0  0  0  0  0  0  0  0  0  0  0  0
   -6.8390   23.2400  -33.0150 H   0  0  0  0  0  0  0  0  0  0  0  0
   -3.7335   22.8859  -33.1382 H   0  0  0  0  0  0  0  0  0  0  0  0
   -1.4483   22.0091  -33.5527 H   0  0  0  0  0  0  0  0  0  0  0  0
   -1.0376   19.5576  -33.5780 H   0  0  0  0  0  0  0  0  0  0  0  0
   -2.9287   17.9725  -33.3353 H   0  0  0  0  0  0  0  0  0  0  0  0
   -5.2546   16.5838  -32.6785 H   0  0  0  0  0  0  0  0  0  0  0  0
   -6.2067   16.9450  -34.1584 H   0  0  0  0  0  0  0  0  0  0  0  0
   -4.4251   17.1744  -34.1584 H   0  0  0  0  0  0  0  0  0  0  0  0
   -7.6108   17.0858  -32.4573 H   0  0  0  0  0  0  0  0  0  0  0  0
   -9.8982   17.8777  -31.9148 H   0  0  0  0  0  0  0  0  0  0  0  0
  -10.3976   20.3118  -31.8663 H   0  0  0  0  0  0  0  0  0  0  0  0
   -8.5816   21.9660  -32.2201 H   0  0  0  0  0  0  0  0  0  0  0  0
  1  2  1  0
  2  3  1  0
  2  4  1  0
  4  5  1  0
  5  6  1  0
  6  7  1  0
  7  8  1  0
  5  9  1  0
  9 10  1  0
 10 11  1  0
 11 12  1  0
 12 13  1  0
 13 14  1  0
 14 15  1  0
 15 16  1  0
 16 17  1  0
 17 18  2  0
 18 19  1  0
 19 20  2  0
 20 21  1  0
 21 22  2  0
 22 23  1  0
 23 24  2  0
 24 25  1  0
 24 26  1  0
 26 27  2  0
 27 28  1  0
 28 29  2  0
 29 30  1  0
 30 31  2  0
 31 17  1  0
 23 18  1  0
 31 26  1  0
  1 32  1  0
  1 33  1  0
  1 34  1  0
  2 35  1  0
  3 36  1  0
  3 37  1  0
  3 38  1  0
  4 39  1  0
  4 40  1  0
  6 41  1  0
  6 42  1  0
  7 43  1  0
  7 44  1  0
  9 45  1  0
  9 46  1  0
 10 47  1  0
 10 48  1  0
 11 49  1  0
 11 50  1  0
 12 51  1  0
 13 52  1  0
 13 53  1  0
 14 54  1  0
 14 55  1  0
 15 56  1  0
 15 57  1  0
 16 58  1  0
 16 59  1  0
 19 60  1  0
 20 61  1  0
 21 62  1  0
 22 63  1  0
 25 64  1  0
 25 65  1  0
 25 66  1  0
 27 67  1  0
 28 68  1  0
 29 69  1  0
 30 70  1  0
M  CHG  2  16   1  24   1
M  END
>  <UniqueID>  (14) 
14

>  <SMILES>  (14) 
CC(C)CN(CCCl)CCCNCCC[NH2+]c1c2ccccc2[n+](C)c2ccccc12

>  <Energy>  (14) 
94.09568014137355

>  <Genealogy>  (14) 
CC(C)CN(CCCl)CCCNCCC[NH2+]c1c2ccccc2[n+](C)c2ccccc12 (protonated)
CC(C)CN(CCCl)CCCNCCC[NH2+]c1c2ccccc2[n+](C)c2ccccc12 (3D coordinates assigned)
CC(C)CN(CCCl)CCCNCCC[NH2+]c1c2ccccc2[n+](C)c2ccccc12 (optimized conformer: 94.09568014137355 kcal/mol)

>  <smiles>  (14) 
CC(C)CN(CCCl)CCCNCCCNc1c2ccccc2[n+](C)c2ccccc12

>  <score_type>  (14) 
oracle

>  <origin>  (14) 
adg

>  <m_score__min__energy>  (14) 
-9.4499999999999993

>  <m_primary>  (14) 
energy

$$$$
14:0
     RDKit          3D

 62 65  0  0  0  0  0  0  0  0999 V2000
   -5.1730   23.5530  -29.5690 C   0  0  0  0  0  0  0  0  0  0  0  0
   -4.7870   24.9230  -30.1150 C   0  0  0  0  0  0  0  0  0  0  0  0
   -3.3850   25.1050  -30.0360 O   0  0  0  0  0  0  0  0  0  0  0  0
   -2.8460   24.4160  -28.9200 C   0  0  2  0  0  0  0  0  0  0  0  0
   -2.2080   25.3570  -28.0870 O   0  0  0  0  0  0  0  0  0  0  0  0
   -1.9000   24.8550  -26.8370 N   0  0  2  0  0  0  0  0  0  0  0  0
   -3.0810   25.2220  -25.9810 C   0  0  0  0  0  0  0  0  0  0  0  0
   -4.4400   24.6320  -26.3920 C   0  0  0  0  0  0  0  0  0  0  0  0
   -0.6660   25.5610  -26.3690 C   0  0  2  0  0  0  0  0  0  0  0  0
    0.2800   25.9870  -27.5180 C   0  0  0  0  0  0  0  0  0  0  0  0
    0.0880   24.6150  -25.4330 C   0  0  0  0  0  0  0  0  0  0  0  0
   -0.3920   23.2220  -25.7750 C   0  0  0  0  0  0  0  0  0  0  0  0
   -1.5770   23.3770  -26.7580 C   0  0  2  0  0  0  0  0  0  0  0  0
   -1.3030   22.6090  -28.1310 C   0  0  2  0  0  0  0  0  0  0  0  0
   -1.7560   23.4540  -29.3690 C   0  0  1  0  0  0  0  0  0  0  0  0
   -2.1100   22.7530  -30.7060 C   0  0  0  0  0  0  0  0  0  0  0  0
   -1.0940   21.7050  -31.1650 C   0  0  0  0  0  0  0  0  0  0  0  0
   -1.4310   20.3150  -30.6140 C   0  0  1  0  0  0  0  0  0  0  0  0
   -0.7390   19.2320  -31.4600 C   0  0  0  0  0  0  0  0  0  0  0  0
   -1.0970   20.2480  -29.1330 C   0  0  0  0  0  0  0  0  0  0  0  0
   -0.1730   19.4260  -28.6070 C   0  0  0  0  0  0  0  0  0  0  0  0
   -0.1380   19.4590  -27.1270 C   0  0  0  0  0  0  0  0  0  0  0  0
   -1.2410   20.4020  -26.8370 C   0  0  0  0  0  0  0  0  0  0  0  0
   -1.7210   20.5130  -25.7180 O   0  0  0  0  0  0  0  0  0  0  0  0
   -1.7860   21.0930  -28.0690 C   0  0  1  0  0  0  0  0  0  0  0  0
   -3.3210   20.8980  -28.0930 C   0  0  0  0  0  0  0  0  0  0  0  0
   -5.1651   23.5810  -28.4694 H   0  0  0  0  0  0  0  0  0  0  0  0
   -6.1807   23.2883  -29.9218 H   0  0  0  0  0  0  0  0  0  0  0  0
   -4.4517   22.8012  -29.9218 H   0  0  0  0  0  0  0  0  0  0  0  0
   -5.1042   24.9977  -31.1656 H   0  0  0  0  0  0  0  0  0  0  0  0
   -5.2836   25.7005  -29.5159 H   0  0  0  0  0  0  0  0  0  0  0  0
   -3.6605   23.8778  -28.4130 H   0  0  0  0  0  0  0  0  0  0  0  0
   -2.8674   24.8852  -24.9558 H   0  0  0  0  0  0  0  0  0  0  0  0
   -3.1923   26.3107  -26.0923 H   0  0  0  0  0  0  0  0  0  0  0  0
   -5.0184   24.3809  -25.4907 H   0  0  0  0  0  0  0  0  0  0  0  0
   -4.9946   25.3704  -26.9897 H   0  0  0  0  0  0  0  0  0  0  0  0
   -4.2793   23.7226  -26.9897 H   0  0  0  0  0  0  0  0  0  0  0  0
   -0.9834   26.4864  -25.8661 H   0  0  0  0  0  0  0  0  0  0  0  0
    1.2059   26.4040  -27.0951 H   0  0  0  0  0  0  0  0  0  0  0  0
    0.5219   25.1109  -28.1377 H   0  0  0  0  0  0  0  0  0  0  0  0
   -0.2156   26.7488  -28.1377 H   0  0  0  0  0  0  0  0  0  0  0  0
    1.1724   24.6972  -25.5985 H   0  0  0  0  0  0  0  0  0  0  0  0
   -0.0995   24.8583  -24.3768 H   0  0  0  0  0  0  0  0  0  0  0  0
    0.4188   22.6494  -26.2489 H   0  0  0  0  0  0  0  0  0  0  0  0
   -0.7035   22.6820  -24.8687 H   0  0  0  0  0  0  0  0  0  0  0  0
   -2.4928   22.8781  -26.4081 H   0  0  0  0  0  0  0  0  0  0  0  0
   -0.2181   22.5118  -28.2845 H   0  0  0  0  0  0  0  0  0  0  0  0
   -0.8320   23.9609  -29.6841 H   0  0  0  0  0  0  0  0  0  0  0  0
   -3.0842   22.2566  -30.5855 H   0  0  0  0  0  0  0  0  0  0  0  0
   -2.1177   23.5378  -31.4767 H   0  0  0  0  0  0  0  0  0  0  0  0
   -1.0954   21.6635  -32.2642 H   0  0  0  0  0  0  0  0  0  0  0  0
   -0.1035   21.9956  -30.7848 H   0  0  0  0  0  0  0  0  0  0  0  0
   -2.5110   20.1220  -30.6932 H   0  0  0  0  0  0  0  0  0  0  0  0
   -0.2671   18.4934  -30.7953 H   0  0  0  0  0  0  0  0  0  0  0  0
   -1.4844   18.7306  -32.0947 H   0  0  0  0  0  0  0  0  0  0  0  0
    0.0292   19.6978  -32.0947 H   0  0  0  0  0  0  0  0  0  0  0  0
    0.4902   18.7927  -29.2145 H   0  0  0  0  0  0  0  0  0  0  0  0
   -0.3326   18.4656  -26.6965 H   0  0  0  0  0  0  0  0  0  0  0  0
    0.8333   19.7548  -26.7038 H   0  0  0  0  0  0  0  0  0  0  0  0
   -3.7007   20.8498  -27.0617 H   0  0  0  0  0  0  0  0  0  0  0  0
   -3.7899   21.7438  -28.6172 H   0  0  0  0  0  0  0  0  0  0  0  0
   -3.5635   19.9618  -28.6172 H   0  0  0  0  0  0  0  0  0  0  0  0
  1  2  1  0
  2  3  1  0
  3  4  1  0
  4  5  1  0
  5  6  1  0
  6  7  1  1
  7  8  1  0
  6  9  1  0
  9 10  1  0
  9 11  1  0
 11 12  1  0
 12 13  1  0
 13 14  1  0
 14 15  1  0
 15 16  1  0
 16 17  1  0
 17 18  1  0
 18 19  1  0
 18 20  1  0
 20 21  2  0
 21 22  1  0
 22 23  1  0
 23 24  2  0
 23 25  1  0
 25 26  1  6
 15  4  1  0
 25 20  1  0
 13  6  1  0
 25 14  1  0
  1 27  1  0
  1 28  1  0
  1 29  1  0
  2 30  1  0
  2 31  1  0
  4 32  1  1
  7 33  1  0
  7 34  1  0
  8 35  1  0
  8 36  1  0
  8 37  1  0
  9 38  1  1
 10 39  1  0
 10 40  1  0
 10 41  1  0
 11 42  1  0
 11 43  1  0
 12 44  1  0
 12 45  1  0
 13 46  1  1
 14 47  1  6
 15 48  1  6
 16 49  1  0
 16 50  1  0
 17 51  1  0
 17 52  1  0
 18 53  1  1
 19 54  1  0
 19 55  1  0
 19 56  1  0
 21 57  1  0
 22 58  1  0
 22 59  1  0
 26 60  1  0
 26 61  1  0
 26 62  1  0
M  CHG  1   6   1
M  END
>  <UniqueID>  (15) 
15

>  <SMILES>  (15) 
CCO[C@@H]1O[N@+]2(CC)C(C)CCC2C2C1CCC(C)C1=CCC(=O)C12C

>  <Energy>  (15) 
118.33043420498346

>  <Genealogy>  (15) 
CCO[C@@H]1O[N@+]2(CC)C(C)CCC2C2C1CCC(C)C1=CCC(=O)C12C (chirality)
CCO[C@@H]1O[N@+]2(CC)C(C)CCC2C2C1CCC(C)C1=CCC(=O)C12C (3D coordinates assigned)
CCO[C@@H]1O[N@+]2(CC)C(C)CCC2C2C1CCC(C)C1=CCC(=O)C12C (nonaromatic ring conformer: 118.33043420498346 kcal/mol)

>  <smiles>  (15) 
CCOC1O[N+]2(CC)C(C)CCC2C2C1CCC(C)C1=CCC(=O)C12C

>  <score_type>  (15) 
oracle

>  <origin>  (15) 
adg

>  <m_score__min__energy>  (15) 
-6.3399999999999999

>  <m_primary>  (15) 
energy

$$$$
15:0
     RDKit          3D

 61 64  0  0  0  0  0  0  0  0999 V2000
    0.6450   24.1820  -36.0910 C   0  0  0  0  0  0  0  0  0  0  0  0
    1.3780   23.0280  -35.4100 C   0  0  0  0  0  0  0  0  0  0  0  0
    0.4130   21.9950  -34.9680 N   0  0  0  0  0  0  0  0  0  0  0  0
   -0.1100   21.2060  -36.1090 C   0  0  0  0  0  0  0  0  0  0  0  0
    0.7040   19.9320  -36.3370 C   0  0  0  0  0  0  0  0  0  0  0  0
    0.9310   21.1760  -33.8410 C   0  0  0  0  0  0  0  0  0  0  0  0
   -0.1240   20.7660  -32.7960 C   0  0  0  0  0  0  0  0  0  0  0  0
   -1.3330   21.4660  -33.0200 O   0  0  0  0  0  0  0  0  0  0  0  0
   -1.9960   21.7230  -31.7940 C   0  0  0  0  0  0  0  0  0  0  0  0
   -3.4090   22.2810  -32.0350 C   0  0  0  0  0  0  0  0  0  0  0  0
   -3.9940   21.8550  -33.3220 N   0  0  0  0  0  0  0  0  0  0  0  0
   -5.0750   20.9070  -33.1420 C   0  0  0  0  0  0  0  0  0  0  0  0
   -4.9250   19.5780  -33.4100 C   0  0  0  0  0  0  0  0  0  0  0  0
   -6.0190   18.6140  -33.2350 C   0  0  0  0  0  0  0  0  0  0  0  0
   -5.6720   17.3940  -33.5400 N   0  0  0  0  0  0  0  0  0  0  0  0
   -6.5230   16.2020  -33.4680 C   0  0  0  0  0  0  0  0  0  0  0  0
   -4.2980   17.4390  -33.9330 C   0  0  0  0  0  0  0  0  0  0  0  0
   -3.4960   16.3580  -34.3240 C   0  0  0  0  0  0  0  0  0  0  0  0
   -2.1650   16.6030  -34.6760 C   0  0  0  0  0  0  0  0  0  0  0  0
   -1.6510   17.9070  -34.6340 C   0  0  0  0  0  0  0  0  0  0  0  0
   -2.4620   18.9810  -34.2380 C   0  0  0  0  0  0  0  0  0  0  0  0
   -3.7980   18.7310  -33.8800 C   0  0  0  0  0  0  0  0  0  0  0  0
   -7.3320   19.0550  -32.7500 C   0  0  0  0  0  0  0  0  0  0  0  0
   -8.2780   18.2400  -32.5720 O   0  0  0  0  0  0  0  0  0  0  0  0
   -7.5110   20.4920  -32.4650 C   0  0  0  0  0  0  0  0  0  0  0  0
   -8.7570   20.9630  -32.0130 C   0  0  0  0  0  0  0  0  0  0  0  0
   -8.9420   22.3140  -31.7310 C   0  0  0  0  0  0  0  0  0  0  0  0
   -7.8910   23.2100  -31.8910 C   0  0  0  0  0  0  0  0  0  0  0  0
   -6.6470   22.7620  -32.3410 C   0  0  0  0  0  0  0  0  0  0  0  0
   -6.4260   21.3960  -32.6440 C   0  0  0  0  0  0  0  0  0  0  0  0
    0.2211   24.8494  -35.3262 H   0  0  0  0  0  0  0  0  0  0  0  0
    1.3511   24.7454  -36.7186 H   0  0  0  0  0  0  0  0  0  0  0  0
   -0.1651   23.7823  -36.7186 H   0  0  0  0  0  0  0  0  0  0  0  0
    2.0888   22.5803  -36.1201 H   0  0  0  0  0  0  0  0  0  0  0  0
    1.9155   23.4145  -34.5315 H   0  0  0  0  0  0  0  0  0  0  0  0
   -1.1543   20.9293  -35.9020 H   0  0  0  0  0  0  0  0  0  0  0  0
   -0.0380   21.8253  -37.0153 H   0  0  0  0  0  0  0  0  0  0  0  0
    0.9825   19.4962  -35.3662 H   0  0  0  0  0  0  0  0  0  0  0  0
    0.1007   19.2081  -36.9044 H   0  0  0  0  0  0  0  0  0  0  0  0
    1.6144   20.1752  -36.9044 H   0  0  0  0  0  0  0  0  0  0  0  0
    1.3711   20.2589  -34.2596 H   0  0  0  0  0  0  0  0  0  0  0  0
    1.6595   21.8074  -33.3113 H   0  0  0  0  0  0  0  0  0  0  0  0
   -0.3107   19.6847  -32.8734 H   0  0  0  0  0  0  0  0  0  0  0  0
    0.2517   21.0119  -31.7918 H   0  0  0  0  0  0  0  0  0  0  0  0
   -2.0724   20.7856  -31.2235 H   0  0  0  0  0  0  0  0  0  0  0  0
   -1.4160   22.4707  -31.2332 H   0  0  0  0  0  0  0  0  0  0  0  0
   -4.0643   21.9349  -31.2221 H   0  0  0  0  0  0  0  0  0  0  0  0
   -3.3258   23.3775  -32.0623 H   0  0  0  0  0  0  0  0  0  0  0  0
   -3.2490   21.4050  -33.9000 H   0  0  0  0  0  0  0  0  0  0  0  0
   -4.2670   22.6670  -33.9010 H   0  0  0  0  0  0  0  0  0  0  0  0
   -6.7062   15.9454  -32.4142 H   0  0  0  0  0  0  0  0  0  0  0  0
   -7.4816   16.4051  -33.9679 H   0  0  0  0  0  0  0  0  0  0  0  0
   -6.0196   15.3614  -33.9679 H   0  0  0  0  0  0  0  0  0  0  0  0
   -3.9054   15.3374  -34.3534 H   0  0  0  0  0  0  0  0  0  0  0  0
   -1.5184   15.7692  -34.9872 H   0  0  0  0  0  0  0  0  0  0  0  0
   -0.6030   18.0893  -34.9139 H   0  0  0  0  0  0  0  0  0  0  0  0
   -2.0583   20.0038  -34.2081 H   0  0  0  0  0  0  0  0  0  0  0  0
   -9.5916   20.2587  -31.8813 H   0  0  0  0  0  0  0  0  0  0  0  0
   -9.9212   22.6729  -31.3811 H   0  0  0  0  0  0  0  0  0  0  0  0
   -8.0398   24.2756  -31.6623 H   0  0  0  0  0  0  0  0  0  0  0  0
   -5.8246   23.4824  -32.4622 H   0  0  0  0  0  0  0  0  0  0  0  0
  1  2  1  0
  2  3  1  0
  3  4  1  0
  4  5  1  0
  3  6  1  0
  6  7  1  0
  7  8  1  0
  8  9  1  0
  9 10  1  0
 10 11  1  0
 11 12  1  0
 12 13  2  0
 13 14  1  0
 14 15  2  0
 15 16  1  0
 15 17  1  0
 17 18  2  0
 18 19  1  0
 19 20  2  0
 20 21  1  0
 21 22  2  0
 14 23  1  0
 23 24  2  0
 23 25  1  0
 25 26  2  0
 26 27  1  0
 27 28  2  0
 28 29  1  0
 29 30  2  0
 30 12  1  0
 22 13  1  0
 30 25  1  0
 22 17  1  0
  1 31  1  0
  1 32  1  0
  1 33  1  0
  2 34  1  0
  2 35  1  0
  4 36  1  0
  4 37  1  0
  5 38  1  0
  5 39  1  0
  5 40  1  0
  6 41  1  0
  6 42  1  0
  7 43  1  0
  7 44  1  0
  9 45  1  0
  9 46  1  0
 10 47  1  0
 10 48  1  0
 11 49  1  0
 11 50  1  0
 16 51  1  0
 16 52  1  0
 16 53  1  0
 18 54  1  0
 19 55  1  0
 20 56  1  0
 21 57  1  0
 26 58  1  0
 27 59  1  0
 28 60  1  0
 29 61  1  0
M  CHG  2  11   1  15   1
M  END
>  <UniqueID>  (16) 
16

>  <SMILES>  (16) 
CCN(CC)CCOCC[NH2+]C1=C2C(=[N+](C)c3ccccc32)C(=O)c2ccccc21

>  <Energy>  (16) 
114.67046945974445

>  <Genealogy>  (16) 
CCN(CC)CCOCC[NH2+]C1=C2C(=[N+](C)c3ccccc32)C(=O)c2ccccc21 (protonated)
CCN(CC)CCOCC[NH2+]C1=C2C(=[N+](C)c3ccccc32)C(=O)c2ccccc21 (3D coordinates assigned)
CCN(CC)CCOCC[NH2+]C1=C2C(=[N+](C)c3ccccc32)C(=O)c2ccccc21 (nonaromatic ring conformer: 114.67046945974445 kcal/mol)

>  <smiles>  (16) 
CCN(CC)CCOCCNC1=C2C(=[N+](C)c3ccccc32)C(=O)c2ccccc21

>  <score_type>  (16) 
oracle

>  <origin>  (16) 
adg

>  <m_score__min__energy>  (16) 
-8.8900000000000006

>  <m_primary>  (16) 
energy

$$$$
16:0
     RDKit          3D

 48 49  0  0  0  0  0  0  0  0999 V2000
   -6.2440   17.6700  -33.0080 C   0  0  0  0  0  0  0  0  0  0  0  0
   -7.1860   18.7820  -32.6240 C   0  0  0  0  0  0  0  0  0  0  0  0
   -8.5700   18.5490  -32.6920 C   0  0  0  0  0  0  0  0  0  0  0  0
   -9.4760   19.5490  -32.3440 C   0  0  0  0  0  0  0  0  0  0  0  0
   -9.0150   20.7920  -31.9180 C   0  0  0  0  0  0  0  0  0  0  0  0
   -7.6420   21.0550  -31.8460 C   0  0  0  0  0  0  0  0  0  0  0  0
   -7.2150   22.3410  -31.3760 N   0  0  0  0  0  0  0  0  0  0  0  0
   -6.8220   23.3690  -32.3450 C   0  0  0  0  0  0  0  0  0  0  0  0
   -6.1390   24.5380  -31.6400 C   0  0  0  0  0  0  0  0  0  0  0  0
   -5.2010   24.0060  -30.6360 N   0  0  0  0  0  0  0  0  0  0  0  0
   -4.2940   25.0680  -30.1570 C   0  0  0  0  0  0  0  0  0  0  0  0
   -2.9940   24.4820  -29.6850 C   0  0  0  0  0  0  0  0  0  0  0  0
   -2.0610   25.2540  -29.3350 O   0  0  0  0  0  0  0  0  0  0  0  0
   -2.8000   23.0600  -29.6810 N   0  0  0  0  0  0  0  0  0  0  0  0
   -1.5370   22.4430  -29.2670 C   0  0  0  0  0  0  0  0  0  0  0  0
   -1.7710   21.5210  -28.0670 C   0  0  0  0  0  0  0  0  0  0  0  0
   -0.9210   21.6600  -30.4310 C   0  0  0  0  0  0  0  0  0  0  0  0
   -5.9270   23.3640  -29.5080 C   0  0  0  0  0  0  0  0  0  0  0  0
   -7.2150   22.6290  -29.9390 C   0  0  0  0  0  0  0  0  0  0  0  0
   -6.7090   20.0600  -32.2310 C   0  0  0  0  0  0  0  0  0  0  0  0
   -5.2250   20.3420  -32.1780 C   0  0  0  0  0  0  0  0  0  0  0  0
   -5.8440   17.1978  -32.0986 H   0  0  0  0  0  0  0  0  0  0  0  0
   -6.7855   16.9197  -33.6029 H   0  0  0  0  0  0  0  0  0  0  0  0
   -5.4149   18.0808  -33.6029 H   0  0  0  0  0  0  0  0  0  0  0  0
   -8.9418   17.5681  -33.0230 H   0  0  0  0  0  0  0  0  0  0  0  0
  -10.5572   19.3561  -32.4059 H   0  0  0  0  0  0  0  0  0  0  0  0
   -9.7357   21.5736  -31.6357 H   0  0  0  0  0  0  0  0  0  0  0  0
   -6.1259   22.9304  -33.0751 H   0  0  0  0  0  0  0  0  0  0  0  0
   -7.7237   23.7397  -32.8544 H   0  0  0  0  0  0  0  0  0  0  0  0
   -5.5887   25.1428  -32.3759 H   0  0  0  0  0  0  0  0  0  0  0  0
   -6.8935   25.1696  -31.1482 H   0  0  0  0  0  0  0  0  0  0  0  0
   -4.0958   25.7716  -30.9790 H   0  0  0  0  0  0  0  0  0  0  0  0
   -4.7732   25.5899  -29.3156 H   0  0  0  0  0  0  0  0  0  0  0  0
   -3.5780   22.4530  -30.0280 H   0  0  0  0  0  0  0  0  0  0  0  0
   -0.8348   23.2362  -28.9706 H   0  0  0  0  0  0  0  0  0  0  0  0
   -1.6271   22.0880  -27.1354 H   0  0  0  0  0  0  0  0  0  0  0  0
   -2.7975   21.1273  -28.1018 H   0  0  0  0  0  0  0  0  0  0  0  0
   -1.0564   20.6854  -28.1018 H   0  0  0  0  0  0  0  0  0  0  0  0
   -0.2864   20.8534  -30.0352 H   0  0  0  0  0  0  0  0  0  0  0  0
   -1.7230   21.2269  -31.0467 H   0  0  0  0  0  0  0  0  0  0  0  0
   -0.3113   22.3376  -31.0467 H   0  0  0  0  0  0  0  0  0  0  0  0
   -5.2543   22.6359  -29.0312 H   0  0  0  0  0  0  0  0  0  0  0  0
   -6.2294   24.1677  -28.8205 H   0  0  0  0  0  0  0  0  0  0  0  0
   -7.2882   21.6816  -29.3848 H   0  0  0  0  0  0  0  0  0  0  0  0
   -8.0737   23.2800  -29.7179 H   0  0  0  0  0  0  0  0  0  0  0  0
   -4.9007   20.4036  -31.1287 H   0  0  0  0  0  0  0  0  0  0  0  0
   -4.6795   19.5314  -32.6834 H   0  0  0  0  0  0  0  0  0  0  0  0
   -5.0148   21.2962  -32.6834 H   0  0  0  0  0  0  0  0  0  0  0  0
  1  2  1  0
  2  3  2  0
  3  4  1  0
  4  5  2  0
  5  6  1  0
  6  7  1  0
  7  8  1  0
  8  9  1  0
  9 10  1  0
 10 11  1  0
 11 12  1  0
 12 13  2  0
 12 14  1  0
 14 15  1  0
 15 16  1  0
 15 17  1  0
 10 18  1  0
 18 19  1  0
  6 20  2  0
 20 21  1  0
 20  2  1  0
 19  7  1  0
  1 22  1  0
  1 23  1  0
  1 24  1  0
  3 25  1  0
  4 26  1  0
  5 27  1  0
  8 28  1  0
  8 29  1  0
  9 30  1  0
  9 31  1  0
 11 32  1  0
 11 33  1  0
 14 34  1  0
 15 35  1  0
 16 36  1  0
 16 37  1  0
 16 38  1  0
 17 39  1  0
 17 40  1  0
 17 41  1  0
 18 42  1  0
 18 43  1  0
 19 44  1  0
 19 45  1  0
 21 46  1  0
 21 47  1  0
 21 48  1  0
M  END
>  <UniqueID>  (17) 
17

>  <SMILES>  (17) 
Cc1cccc(N2CCN(CC(=O)NC(C)C)CC2)c1C

>  <Energy>  (17) 
51.958904402477195

>  <Genealogy>  (17) 
Cc1cccc(N2CCN(CC(=O)NC(C)C)CC2)c1C (3D coordinates assigned)
Cc1cccc(N2CCN(CC(=O)NC(C)C)CC2)c1C (nonaromatic ring conformer: 51.958904402477195 kcal/mol)

>  <smiles>  (17) 
Cc1cccc(N2CCN(CC(=O)NC(C)C)CC2)c1C

>  <score_type>  (17) 
oracle

>  <origin>  (17) 
adg

>  <m_score__min__energy>  (17) 
-8.25

>  <m_primary>  (17) 
energy

$$$$
17:0
     RDKit          3D

 35 36  0  0  0  0  0  0  0  0999 V2000
   -9.5780   21.6340  -31.4820 C   0  0  0  0  0  0  0  0  0  0  0  0
   -8.1210   21.7370  -31.8040 C   0  0  0  0  0  0  0  0  0  0  0  0
   -7.5330   22.9800  -32.0650 C   0  0  0  0  0  0  0  0  0  0  0  0
   -6.2050   23.0460  -32.3460 N   0  0  0  0  0  0  0  0  0  0  0  0
   -5.4300   21.9290  -32.3790 C   0  0  0  0  0  0  0  0  0  0  0  0
   -3.9610   22.0450  -32.7120 C   0  0  0  0  0  0  0  0  0  0  0  0
   -3.1430   22.5680  -31.5930 N   0  0  0  0  0  0  0  0  0  0  0  0
   -1.8150   21.9290  -31.5410 C   0  0  0  0  0  0  0  0  0  0  0  0
   -3.8520   22.4850  -30.2950 C   0  0  0  0  0  0  0  0  0  0  0  0
   -4.2890   23.8770  -29.8130 C   0  0  2  0  0  0  0  0  0  0  0  0
   -5.7460   23.8920  -29.3750 C   0  0  0  0  0  0  0  0  0  0  0  0
   -6.1680   25.2900  -29.7000 C   0  0  0  0  0  0  0  0  0  0  0  0
   -5.2490   25.6670  -30.8460 C   0  0  0  0  0  0  0  0  0  0  0  0
   -4.1170   24.8250  -30.8440 O   0  0  0  0  0  0  0  0  0  0  0  0
   -6.0180   20.6850  -32.1120 C   0  0  0  0  0  0  0  0  0  0  0  0
   -7.3460   20.6200  -31.8310 N   0  0  0  0  0  0  0  0  0  0  0  0
   -9.7125   21.6245  -30.3903 H   0  0  0  0  0  0  0  0  0  0  0  0
  -10.1099   22.4968  -31.9094 H   0  0  0  0  0  0  0  0  0  0  0  0
   -9.9832   20.7050  -31.9094 H   0  0  0  0  0  0  0  0  0  0  0  0
   -8.1411   23.8964  -32.0428 H   0  0  0  0  0  0  0  0  0  0  0  0
   -3.5849   21.0472  -32.9820 H   0  0  0  0  0  0  0  0  0  0  0  0
   -3.8720   22.7617  -33.5417 H   0  0  0  0  0  0  0  0  0  0  0  0
   -1.5178   21.7860  -30.4916 H   0  0  0  0  0  0  0  0  0  0  0  0
   -1.8577   20.9529  -32.0463 H   0  0  0  0  0  0  0  0  0  0  0  0
   -1.0789   22.5715  -32.0463 H   0  0  0  0  0  0  0  0  0  0  0  0
   -4.7422   21.8495  -30.4120 H   0  0  0  0  0  0  0  0  0  0  0  0
   -3.1662   22.0566  -29.5492 H   0  0  0  0  0  0  0  0  0  0  0  0
   -3.6589   24.1333  -28.9485 H   0  0  0  0  0  0  0  0  0  0  0  0
   -6.3383   23.1567  -29.9394 H   0  0  0  0  0  0  0  0  0  0  0  0
   -5.8884   23.6259  -28.3172 H   0  0  0  0  0  0  0  0  0  0  0  0
   -7.2224   25.3221  -30.0119 H   0  0  0  0  0  0  0  0  0  0  0  0
   -6.0945   25.9750  -28.8425 H   0  0  0  0  0  0  0  0  0  0  0  0
   -5.7871   25.5540  -31.7987 H   0  0  0  0  0  0  0  0  0  0  0  0
   -4.9263   26.7117  -30.7259 H   0  0  0  0  0  0  0  0  0  0  0  0
   -5.4095   19.7688  -32.1298 H   0  0  0  0  0  0  0  0  0  0  0  0
  1  2  1  0
  2  3  2  0
  3  4  1  0
  4  5  2  0
  5  6  1  0
  6  7  1  0
  7  8  1  0
  7  9  1  0
  9 10  1  0
 10 11  1  0
 11 12  1  0
 12 13  1  0
 13 14  1  0
  5 15  1  0
 15 16  2  0
 16  2  1  0
 14 10  1  0
  1 17  1  0
  1 18  1  0
  1 19  1  0
  3 20  1  0
  6 21  1  0
  6 22  1  0
  8 23  1  0
  8 24  1  0
  8 25  1  0
  9 26  1  0
  9 27  1  0
 10 28  1  1
 11 29  1  0
 11 30  1  0
 12 31  1  0
 12 32  1  0
 13 33  1  0
 13 34  1  0
 15 35  1  0
M  END
>  <UniqueID>  (18) 
18

>  <SMILES>  (18) 
Cc1cnc(CN(C)C[C@@H]2CCCO2)cn1

>  <Energy>  (18) 
35.83964496911639

>  <Genealogy>  (18) 
Cc1cnc(CN(C)C[C@@H]2CCCO2)cn1 (chirality)
Cc1cnc(CN(C)C[C@@H]2CCCO2)cn1 (3D coordinates assigned)
Cc1cnc(CN(C)C[C@@H]2CCCO2)cn1 (nonaromatic ring conformer: 35.83964496911639 kcal/mol)

>  <smiles>  (18) 
Cc1cnc(CN(C)CC2CCCO2)cn1

>  <score_type>  (18) 
oracle

>  <origin>  (18) 
adg

>  <m_score__min__energy>  (18) 
-6.6699999999999999

>  <m_primary>  (18) 
energy

$$$$
18:0
     RDKit          3D

 59 61  0  0  0  0  0  0  0  0999 V2000
   -6.8190   25.6420  -29.3530 C   0  0  0  0  0  0  0  0  0  0  0  0
   -6.2700   25.1440  -30.4660 C   0  0  0  0  0  0  0  0  0  0  0  0
   -4.8180   25.3760  -30.7880 C   0  0  0  0  0  0  0  0  0  0  0  0
   -4.0210   24.1920  -30.4410 N   0  0  0  0  0  0  0  0  0  0  0  0
   -2.9330   24.5290  -29.5090 C   0  0  0  0  0  0  0  0  0  0  0  0
   -2.9650   23.5930  -28.3010 C   0  0  0  0  0  0  0  0  0  0  0  0
   -3.8740   22.4690  -28.5560 N   0  0  0  0  0  0  0  0  0  0  0  0
   -3.1150   21.2440  -28.8520 C   0  0  0  0  0  0  0  0  0  0  0  0
   -3.4550   20.7280  -30.2650 C   0  0  0  0  0  0  0  0  0  0  0  0
   -4.3300   21.6490  -31.0220 N   0  0  0  0  0  0  0  0  0  0  0  0
   -5.1730   20.9420  -31.9790 C   0  0  0  0  0  0  0  0  0  0  0  0
   -6.5790   21.0760  -31.9220 C   0  0  0  0  0  0  0  0  0  0  0  0
   -7.1890   22.2530  -31.4320 C   0  0  0  0  0  0  0  0  0  0  0  0
   -8.5770   22.3730  -31.4020 C   0  0  0  0  0  0  0  0  0  0  0  0
   -9.3790   21.3320  -31.8580 C   0  0  0  0  0  0  0  0  0  0  0  0
   -8.8000   20.1540  -32.3240 C   0  0  0  0  0  0  0  0  0  0  0  0
   -7.3920   19.9920  -32.3420 C   0  0  0  0  0  0  0  0  0  0  0  0
   -6.8040   18.8060  -32.7270 N   0  0  0  0  0  0  0  0  0  0  0  0
   -7.6020   17.5630  -32.7510 C   0  0  0  0  0  0  0  0  0  0  0  0
   -5.4690   18.7920  -33.0870 C   0  0  0  0  0  0  0  0  0  0  0  0
   -4.8980   17.6780  -33.7530 C   0  0  0  0  0  0  0  0  0  0  0  0
   -3.5510   17.6660  -34.1210 C   0  0  0  0  0  0  0  0  0  0  0  0
   -2.9460   16.4630  -34.7840 C   0  0  0  0  0  0  0  0  0  0  0  0
   -2.7810   18.8140  -33.9440 C   0  0  0  0  0  0  0  0  0  0  0  0
   -3.3230   19.9600  -33.3520 C   0  0  0  0  0  0  0  0  0  0  0  0
   -2.5310   21.2360  -33.5060 C   0  0  0  0  0  0  0  0  0  0  0  0
   -4.6380   19.9120  -32.7990 C   0  0  0  0  0  0  0  0  0  0  0  0
   -7.8821   25.4612  -29.1357 H   0  0  0  0  0  0  0  0  0  0  0  0
   -6.2075   26.2324  -28.6548 H   0  0  0  0  0  0  0  0  0  0  0  0
   -6.8899   24.5549  -31.1579 H   0  0  0  0  0  0  0  0  0  0  0  0
   -4.7135   25.5807  -31.8637 H   0  0  0  0  0  0  0  0  0  0  0  0
   -4.4555   26.2341  -30.2030 H   0  0  0  0  0  0  0  0  0  0  0  0
   -4.6510   23.4990  -29.9710 H   0  0  0  0  0  0  0  0  0  0  0  0
   -1.9670   24.4241  -30.0247 H   0  0  0  0  0  0  0  0  0  0  0  0
   -3.0635   25.5653  -29.1641 H   0  0  0  0  0  0  0  0  0  0  0  0
   -1.9524   23.2064  -28.1137 H   0  0  0  0  0  0  0  0  0  0  0  0
   -3.3215   24.1515  -27.4229 H   0  0  0  0  0  0  0  0  0  0  0  0
   -4.4390   22.2910  -27.6920 H   0  0  0  0  0  0  0  0  0  0  0  0
   -2.0384   21.4623  -28.7954 H   0  0  0  0  0  0  0  0  0  0  0  0
   -3.3837   20.4717  -28.1163 H   0  0  0  0  0  0  0  0  0  0  0  0
   -2.5174   20.5959  -30.8249 H   0  0  0  0  0  0  0  0  0  0  0  0
   -3.9999   19.7798  -30.1465 H   0  0  0  0  0  0  0  0  0  0  0  0
   -4.9210   22.2000  -30.3590 H   0  0  0  0  0  0  0  0  0  0  0  0
   -3.6940   22.3300  -31.4790 H   0  0  0  0  0  0  0  0  0  0  0  0
   -6.5624   23.0819  -31.0710 H   0  0  0  0  0  0  0  0  0  0  0  0
   -9.0397   23.2935  -31.0166 H   0  0  0  0  0  0  0  0  0  0  0  0
  -10.4737   21.4394  -31.8506 H   0  0  0  0  0  0  0  0  0  0  0  0
   -9.4444   19.3380  -32.6831 H   0  0  0  0  0  0  0  0  0  0  0  0
   -7.8092   17.2403  -31.7200 H   0  0  0  0  0  0  0  0  0  0  0  0
   -8.5513   17.7468  -33.2754 H   0  0  0  0  0  0  0  0  0  0  0  0
   -7.0397   16.7764  -33.2754 H   0  0  0  0  0  0  0  0  0  0  0  0
   -5.5282   16.8066  -33.9842 H   0  0  0  0  0  0  0  0  0  0  0  0
   -2.5924   15.7599  -34.0155 H   0  0  0  0  0  0  0  0  0  0  0  0
   -3.7035   15.9702  -35.4112 H   0  0  0  0  0  0  0  0  0  0  0  0
   -2.0987   16.7773  -35.4112 H   0  0  0  0  0  0  0  0  0  0  0  0
   -1.7318   18.8192  -34.2745 H   0  0  0  0  0  0  0  0  0  0  0  0
   -2.2829   21.6358  -32.5117 H   0  0  0  0  0  0  0  0  0  0  0  0
   -1.6034   21.0273  -34.0592 H   0  0  0  0  0  0  0  0  0  0  0  0
   -3.1296   21.9746  -34.0592 H   0  0  0  0  0  0  0  0  0  0  0  0
  1  2  2  0
  2  3  1  0
  3  4  1  0
  4  5  1  0
  5  6  1  0
  6  7  1  0
  7  8  1  0
  8  9  1  0
  9 10  1  0
 10 11  1  0
 11 12  2  0
 12 13  1  0
 13 14  2  0
 14 15  1  0
 15 16  2  0
 16 17  1  0
 17 18  2  0
 18 19  1  0
 18 20  1  0
 20 21  2  0
 21 22  1  0
 22 23  1  0
 22 24  2  0
 24 25  1  0
 25 26  1  0
 25 27  2  0
 27 11  1  0
 17 12  1  0
 27 20  1  0
  1 28  1  0
  1 29  1  0
  2 30  1  0
  3 31  1  0
  3 32  1  0
  4 33  1  0
  5 34  1  0
  5 35  1  0
  6 36  1  0
  6 37  1  0
  7 38  1  0
  8 39  1  0
  8 40  1  0
  9 41  1  0
  9 42  1  0
 10 43  1  0
 10 44  1  0
 13 45  1  0
 14 46  1  0
 15 47  1  0
 16 48  1  0
 19 49  1  0
 19 50  1  0
 19 51  1  0
 21 52  1  0
 23 53  1  0
 23 54  1  0
 23 55  1  0
 24 56  1  0
 26 57  1  0
 26 58  1  0
 26 59  1  0
M  CHG  2  10   1  18   1
M  END
>  <UniqueID>  (19) 
19

>  <SMILES>  (19) 
C=CCNCCNCC[NH2+]c1c2ccccc2[n+](C)c2cc(C)cc(C)c12

>  <Energy>  (19) 
90.86892194280811

>  <Genealogy>  (19) 
C=CCNCCNCC[NH2+]c1c2ccccc2[n+](C)c2cc(C)cc(C)c12 (protonated)
C=CCNCCNCC[NH2+]c1c2ccccc2[n+](C)c2cc(C)cc(C)c12 (3D coordinates assigned)
C=CCNCCNCC[NH2+]c1c2ccccc2[n+](C)c2cc(C)cc(C)c12 (optimized conformer: 90.86892194280811 kcal/mol)

>  <smiles>  (19) 
C=CCNCCNCCNc1c2ccccc2[n+](C)c2cc(C)cc(C)c12

>  <score_type>  (19) 
oracle

>  <origin>  (19) 
adg

>  <m_score__min__energy>  (19) 
-8.0899999999999999

>  <m_primary>  (19) 
energy

$$$$
19:0
     RDKit          3D

 79 82  0  0  0  0  0  0  0  0999 V2000
   -1.2270   21.1530  -33.4820 C   0  0  0  0  0  0  0  0  0  0  0  0
   -1.3350   19.6200  -33.4700 C   0  0  0  0  0  0  0  0  0  0  0  0
   -2.7060   19.0950  -33.2320 N   0  0  0  0  0  0  0  0  0  0  0  0
   -3.0220   17.9670  -34.1470 C   0  0  0  0  0  0  0  0  0  0  0  0
   -4.4940   17.9560  -34.5750 C   0  0  0  0  0  0  0  0  0  0  0  0
   -3.7470   20.1500  -33.3080 C   0  0  0  0  0  0  0  0  0  0  0  0
   -4.0370   20.7060  -31.9830 N   0  0  0  0  0  0  0  0  0  0  0  0
   -5.3360   21.2450  -31.6680 C   0  0  0  0  0  0  0  0  0  0  0  0
   -6.4930   20.4840  -31.9180 C   0  0  0  0  0  0  0  0  0  0  0  0
   -6.4130   19.1080  -32.2210 C   0  0  0  0  0  0  0  0  0  0  0  0
   -7.5670   18.3530  -32.4200 C   0  0  0  0  0  0  0  0  0  0  0  0
   -8.8160   18.9510  -32.3130 C   0  0  0  0  0  0  0  0  0  0  0  0
   -8.9200   20.3130  -32.0360 C   0  0  0  0  0  0  0  0  0  0  0  0
   -7.7640   21.1160  -31.8680 C   0  0  0  0  0  0  0  0  0  0  0  0
   -7.8500   22.4800  -31.6690 N   0  0  0  0  0  0  0  0  0  0  0  0
   -9.1120   23.1910  -31.9670 C   0  0  0  0  0  0  0  0  0  0  0  0
   -6.7510   23.1790  -31.2020 C   0  0  0  0  0  0  0  0  0  0  0  0
   -6.8680   24.5120  -30.7400 C   0  0  0  0  0  0  0  0  0  0  0  0
   -5.7550   25.2190  -30.2990 C   0  0  0  0  0  0  0  0  0  0  0  0
   -4.5140   24.6050  -30.2330 C   0  0  0  0  0  0  0  0  0  0  0  0
   -4.3660   23.2570  -30.5980 C   0  0  0  0  0  0  0  0  0  0  0  0
   -3.1620   22.5680  -30.3660 O   0  0  0  0  0  0  0  0  0  0  0  0
   -2.4720   22.4400  -29.1250 C   0  0  0  0  0  0  0  0  0  0  0  0
   -1.7960   23.7530  -28.6450 C   0  0  0  0  0  0  0  0  0  0  0  0
   -1.3640   23.8420  -27.2050 N   0  0  0  0  0  0  0  0  0  0  0  0
   -1.3050   22.4380  -26.7070 C   0  0  0  0  0  0  0  0  0  0  0  0
   -2.3460   24.5900  -26.3500 C   0  0  0  0  0  0  0  0  0  0  0  0
   -1.9210   26.0520  -26.0870 C   0  0  0  0  0  0  0  0  0  0  0  0
   -0.6070   26.1460  -25.3710 N   0  0  0  0  0  0  0  0  0  0  0  0
   -0.8420   26.1610  -23.9060 C   0  0  0  0  0  0  0  0  0  0  0  0
    0.0520   27.4230  -25.7370 C   0  0  0  0  0  0  0  0  0  0  0  0
    0.3040   25.0060  -25.7100 C   0  0  0  0  0  0  0  0  0  0  0  0
    0.0150   24.4200  -27.1060 C   0  0  0  0  0  0  0  0  0  0  0  0
   -5.4710   22.5590  -31.1630 C   0  0  0  0  0  0  0  0  0  0  0  0
   -1.2007   21.5268  -32.4478 H   0  0  0  0  0  0  0  0  0  0  0  0
   -0.3056   21.4516  -34.0034 H   0  0  0  0  0  0  0  0  0  0  0  0
   -2.0974   21.5778  -34.0034 H   0  0  0  0  0  0  0  0  0  0  0  0
   -0.9888   19.2446  -34.4443 H   0  0  0  0  0  0  0  0  0  0  0  0
   -0.7187   19.2719  -32.6280 H   0  0  0  0  0  0  0  0  0  0  0  0
   -2.7060   18.7270  -32.2490 H   0  0  0  0  0  0  0  0  0  0  0  0
   -2.3936   18.0544  -35.0456 H   0  0  0  0  0  0  0  0  0  0  0  0
   -2.8233   17.0303  -33.6055 H   0  0  0  0  0  0  0  0  0  0  0  0
   -5.1356   17.9512  -33.6815 H   0  0  0  0  0  0  0  0  0  0  0  0
   -4.7080   18.8526  -35.1753 H   0  0  0  0  0  0  0  0  0  0  0  0
   -4.6946   17.0563  -35.1753 H   0  0  0  0  0  0  0  0  0  0  0  0
   -3.3923   20.9571  -33.9659 H   0  0  0  0  0  0  0  0  0  0  0  0
   -4.6689   19.7012  -33.7064 H   0  0  0  0  0  0  0  0  0  0  0  0
   -3.3340   20.5640  -31.2250 H   0  0  0  0  0  0  0  0  0  0  0  0
   -5.4276   18.6257  -32.3010 H   0  0  0  0  0  0  0  0  0  0  0  0
   -7.4888   17.2828  -32.6620 H   0  0  0  0  0  0  0  0  0  0  0  0
   -9.7260   18.3478  -32.4473 H   0  0  0  0  0  0  0  0  0  0  0  0
   -9.9155   20.7723  -31.9463 H   0  0  0  0  0  0  0  0  0  0  0  0
   -9.6070   23.4699  -31.0251 H   0  0  0  0  0  0  0  0  0  0  0  0
   -8.8930   24.0985  -32.5488 H   0  0  0  0  0  0  0  0  0  0  0  0
   -9.7747   22.5335  -32.5488 H   0  0  0  0  0  0  0  0  0  0  0  0
   -7.8556   24.9963  -30.7297 H   0  0  0  0  0  0  0  0  0  0  0  0
   -5.8599   26.2725  -30.0005 H   0  0  0  0  0  0  0  0  0  0  0  0
   -3.6388   25.1777  -29.8923 H   0  0  0  0  0  0  0  0  0  0  0  0
   -3.1935   22.1212  -28.3584 H   0  0  0  0  0  0  0  0  0  0  0  0
   -1.6689   21.7043  -29.2795 H   0  0  0  0  0  0  0  0  0  0  0  0
   -0.9001   23.9049  -29.2649 H   0  0  0  0  0  0  0  0  0  0  0  0
   -2.5810   24.5173  -28.7434 H   0  0  0  0  0  0  0  0  0  0  0  0
   -1.3050   22.4388  -25.6070 H   0  0  0  0  0  0  0  0  0  0  0  0
   -2.1806   21.8819  -27.0733 H   0  0  0  0  0  0  0  0  0  0  0  0
   -0.3859   21.9573  -27.0733 H   0  0  0  0  0  0  0  0  0  0  0  0
   -3.3219   24.5938  -26.8575 H   0  0  0  0  0  0  0  0  0  0  0  0
   -2.3933   24.0793  -25.3769 H   0  0  0  0  0  0  0  0  0  0  0  0
   -1.8357   26.5739  -27.0515 H   0  0  0  0  0  0  0  0  0  0  0  0
   -2.6861   26.5131  -25.4451 H   0  0  0  0  0  0  0  0  0  0  0  0
    0.1218   26.0995  -23.3794 H   0  0  0  0  0  0  0  0  0  0  0  0
   -1.3538   27.0936  -23.6263 H   0  0  0  0  0  0  0  0  0  0  0  0
   -1.4682   25.3010  -23.6263 H   0  0  0  0  0  0  0  0  0  0  0  0
    0.3323   27.9662  -24.8225 H   0  0  0  0  0  0  0  0  0  0  0  0
    0.9544   27.2131  -26.3300 H   0  0  0  0  0  0  0  0  0  0  0  0
   -0.6419   28.0369  -26.3300 H   0  0  0  0  0  0  0  0  0  0  0  0
    1.3435   25.3648  -25.6855 H   0  0  0  0  0  0  0  0  0  0  0  0
    0.1357   24.2098  -24.9699 H   0  0  0  0  0  0  0  0  0  0  0  0
    0.1179   25.2201  -27.8539 H   0  0  0  0  0  0  0  0  0  0  0  0
    0.7345   23.6076  -27.2858 H   0  0  0  0  0  0  0  0  0  0  0  0
  1  2  1  0
  2  3  1  0
  3  4  1  0
  4  5  1  0
  3  6  1  0
  6  7  1  0
  7  8  1  0
  8  9  2  0
  9 10  1  0
 10 11  2  0
 11 12  1  0
 12 13  2  0
 13 14  1  0
 14 15  2  0
 15 16  1  0
 15 17  1  0
 17 18  2  0
 18 19  1  0
 19 20  2  0
 20 21  1  0
 21 22  1  0
 22 23  1  0
 23 24  1  0
 24 25  1  0
 25 26  1  0
 25 27  1  0
 27 28  1  0
 28 29  1  0
 29 30  1  0
 29 31  1  0
 29 32  1  0
 32 33  1  0
 21 34  2  0
 34  8  1  0
 14  9  1  0
 34 17  1  0
 33 25  1  0
  1 35  1  0
  1 36  1  0
  1 37  1  0
  2 38  1  0
  2 39  1  0
  3 40  1  0
  4 41  1  0
  4 42  1  0
  5 43  1  0
  5 44  1  0
  5 45  1  0
  6 46  1  0
  6 47  1  0
  7 48  1  0
 10 49  1  0
 11 50  1  0
 12 51  1  0
 13 52  1  0
 16 53  1  0
 16 54  1  0
 16 55  1  0
 18 56  1  0
 19 57  1  0
 20 58  1  0
 23 59  1  0
 23 60  1  0
 24 61  1  0
 24 62  1  0
 26 63  1  0
 26 64  1  0
 26 65  1  0
 27 66  1  0
 27 67  1  0
 28 68  1  0
 28 69  1  0
 30 70  1  0
 30 71  1  0
 30 72  1  0
 31 73  1  0
 31 74  1  0
 31 75  1  0
 32 76  1  0
 32 77  1  0
 33 78  1  0
 33 79  1  0
M  CHG  4   3   1  15   1  25   1  29   1
M  END
>  <UniqueID>  (20) 
20

>  <SMILES>  (20) 
CC[NH+](CC)CNc1c2ccccc2[n+](C)c2cccc(OCC[N+]3(C)CC[N+](C)(C)CC3)c12

>  <Energy>  (20) 
140.33037829109355

>  <Genealogy>  (20) 
CC[NH+](CC)CNc1c2ccccc2[n+](C)c2cccc(OCC[N+]3(C)CC[N+](C)(C)CC3)c12 (protonated)
CC[NH+](CC)CNc1c2ccccc2[n+](C)c2cccc(OCC[N+]3(C)CC[N+](C)(C)CC3)c12 (3D coordinates assigned)
CC[NH+](CC)CNc1c2ccccc2[n+](C)c2cccc(OCC[N+]3(C)CC[N+](C)(C)CC3)c12 (nonaromatic ring conformer: 140.33037829109355 kcal/mol)

>  <smiles>  (20) 
CCN(CC)CNc1c2ccccc2[n+](C)c2cccc(OCC[N+]3(C)CC[N+](C)(C)CC3)c12

>  <score_type>  (20) 
oracle

>  <origin>  (20) 
adg

>  <m_score__min__energy>  (20) 
-6.9000000000000004

>  <m_primary>  (20) 
energy

$$$$
