0:0
     RDKit          3D

 39 40  0  0  0  0  0  0  0  0999 V2000
   -4.8990   17.3390  -34.7430 C   0  0  0  0  0  0  0  0  0  0  0  0
   -5.8270   18.5450  -34.9380 C   0  0  0  0  0  0  0  0  0  0  0  0
   -6.4820   18.9540  -33.6740 N   0  0  0  0  0  0  0  0  0  0  0  0
   -6.8790   17.7760  -32.8580 C   0  0  0  0  0  0  0  0  0  0  0  0
   -7.6710   18.1820  -31.6110 C   0  0  0  0  0  0  0  0  0  0  0  0
   -5.3870   19.9770  -32.7650 S   0  0  0  0  0  0  0  0  0  0  0  0
   -4.9050   19.2660  -31.5320 O   0  0  0  0  0  0  0  0  0  0  0  0
   -4.1900   20.3190  -33.6100 O   0  0  0  0  0  0  0  0  0  0  0  0
   -6.2330   21.4440  -32.2610 C   0  0  0  0  0  0  0  0  0  0  0  0
   -5.4820   22.5290  -31.7890 C   0  0  0  0  0  0  0  0  0  0  0  0
   -6.1170   23.7010  -31.3430 C   0  0  0  0  0  0  0  0  0  0  0  0
   -5.3090   24.8430  -30.8530 C   0  0  0  0  0  0  0  0  0  0  0  0
   -5.8940   25.8790  -30.4440 O   0  0  0  0  0  0  0  0  0  0  0  0
   -3.8750   24.7900  -30.7790 N   0  0  0  0  0  0  0  0  0  0  0  0
   -3.1820   24.5500  -29.7060 C   0  0  0  0  0  0  0  0  0  0  0  0
   -2.1030   25.2670  -29.3210 N   0  0  0  0  0  0  0  0  0  0  0  0
   -1.5990   24.8100  -28.1430 C   0  0  0  0  0  0  0  0  0  0  0  0
   -2.2820   23.7350  -27.5860 C   0  0  0  0  0  0  0  0  0  0  0  0
   -3.5650   23.3440  -28.6040 S   0  0  0  0  0  0  0  0  0  0  0  0
   -7.5170   23.7860  -31.4040 C   0  0  0  0  0  0  0  0  0  0  0  0
   -8.2690   22.7060  -31.8720 C   0  0  0  0  0  0  0  0  0  0  0  0
   -7.6350   21.5350  -32.2950 C   0  0  0  0  0  0  0  0  0  0  0  0
   -8.3940   20.4970  -32.7260 F   0  0  0  0  0  0  0  0  0  0  0  0
   -4.7576   17.1552  -33.6677 H   0  0  0  0  0  0  0  0  0  0  0  0
   -5.3488   16.4508  -35.2107 H   0  0  0  0  0  0  0  0  0  0  0  0
   -3.9252   17.5463  -35.2107 H   0  0  0  0  0  0  0  0  0  0  0  0
   -5.2352   19.3898  -35.3204 H   0  0  0  0  0  0  0  0  0  0  0  0
   -6.6144   18.2551  -35.6492 H   0  0  0  0  0  0  0  0  0  0  0  0
   -7.3200   19.5410  -33.9050 H   0  0  0  0  0  0  0  0  0  0  0  0
   -7.5026   17.1113  -33.4739 H   0  0  0  0  0  0  0  0  0  0  0  0
   -5.9616   17.2673  -32.5270 H   0  0  0  0  0  0  0  0  0  0  0  0
   -7.1094   17.8941  -30.7101 H   0  0  0  0  0  0  0  0  0  0  0  0
   -7.8264   19.2710  -31.6138 H   0  0  0  0  0  0  0  0  0  0  0  0
   -8.6459   17.6725  -31.6138 H   0  0  0  0  0  0  0  0  0  0  0  0
   -4.3842   22.4628  -31.7673 H   0  0  0  0  0  0  0  0  0  0  0  0
   -0.7152   25.2585  -27.6659 H   0  0  0  0  0  0  0  0  0  0  0  0
   -2.0283   23.2277  -26.6435 H   0  0  0  0  0  0  0  0  0  0  0  0
   -8.0241   24.7074  -31.0817 H   0  0  0  0  0  0  0  0  0  0  0  0
   -9.3661   22.7778  -31.9077 H   0  0  0  0  0  0  0  0  0  0  0  0
  1  2  1  0
  2  3  1  0
  3  4  1  0
  4  5  1  0
  3  6  1  0
  6  7  2  0
  6  8  2  0
  6  9  1  0
  9 10  2  0
 10 11  1  0
 11 12  1  0
 12 13  2  0
 12 14  1  0
 14 15  2  3
 15 16  1  0
 16 17  1  0
 17 18  2  0
 18 19  1  0
 11 20  2  0
 20 21  1  0
 21 22  2  0
 22 23  1  0
 22  9  1  0
 19 15  1  0
  1 24  1  0
  1 25  1  0
  1 26  1  0
  2 27  1  0
  2 28  1  0
  3 29  1  0
  4 30  1  0
  4 31  1  0
  5 32  1  0
  5 33  1  0
  5 34  1  0
 10 35  1  0
 17 36  1  0
 18 37  1  0
 20 38  1  0
 21 39  1  0
M  CHG  2   3   1  16  -1
M  END
>  <UniqueID>  (1) 
1

>  <SMILES>  (1) 
CC[NH+](CC)S(=O)(=O)c1cc(C(=O)N=c2[n-]ccs2)ccc1F

>  <Energy>  (1) 
75.84533713126761

>  <Genealogy>  (1) 
CC[NH+](CC)S(=O)(=O)c1cc(C(=O)N=c2[n-]ccs2)ccc1F (protonated)
CC[NH+](CC)S(=O)(=O)c1cc(C(=O)N=c2[n-]ccs2)ccc1F (3D coordinates assigned)
CC[NH+](CC)S(=O)(=O)c1cc(C(=O)N=c2[n-]ccs2)ccc1F (optimized conformer: 75.84533713126761 kcal/mol)

>  <smiles>  (1) 
CCN(CC)S(=O)(=O)c1cc(C(=O)N=c2[nH]ccs2)ccc1F

>  <score_type>  (1) 
oracle

>  <origin>  (1) 
adg

>  <m_score__min__energy>  (1) 
-9.3599999999999994

>  <m_primary>  (1) 
energy

$$$$
1:0
     RDKit          3D

 71 74  0  0  0  0  0  0  0  0999 V2000
    0.4660   16.1380  -36.6270 C   0  0  0  0  0  0  0  0  0  0  0  0
    0.8990   15.6440  -35.2390 C   0  0  0  0  0  0  0  0  0  0  0  0
    0.2970   16.3930  -34.1060 N   0  0  1  0  0  0  0  0  0  0  0  0
    0.3810   15.6300  -32.8430 C   0  0  0  0  0  0  0  0  0  0  0  0
    0.8790   17.7520  -33.9720 C   0  0  0  0  0  0  0  0  0  0  0  0
   -0.1680   18.8580  -34.1750 C   0  0  0  0  0  0  0  0  0  0  0  0
   -1.2570   18.6980  -33.2120 N   0  0  0  0  0  0  0  0  0  0  0  0
   -2.6320   18.8660  -33.5960 C   0  0  0  0  0  0  0  0  0  0  0  0
   -3.1820   17.9830  -34.5370 C   0  0  0  0  0  0  0  0  0  0  0  0
   -2.3750   16.9560  -35.0530 O   0  0  0  0  0  0  0  0  0  0  0  0
   -2.8650   15.7130  -35.5470 C   0  0  0  0  0  0  0  0  0  0  0  0
   -4.5100   18.1590  -34.9470 C   0  0  0  0  0  0  0  0  0  0  0  0
   -5.2990   19.1570  -34.3810 C   0  0  0  0  0  0  0  0  0  0  0  0
   -4.8150   19.9830  -33.3510 C   0  0  0  0  0  0  0  0  0  0  0  0
   -3.4210   19.9190  -33.0680 C   0  0  0  0  0  0  0  0  0  0  0  0
   -2.8220   20.9640  -32.3530 C   0  0  0  0  0  0  0  0  0  0  0  0
   -3.5700   22.0580  -31.9470 C   0  0  0  0  0  0  0  0  0  0  0  0
   -4.9620   22.0870  -32.1180 C   0  0  0  0  0  0  0  0  0  0  0  0
   -5.6800   23.2170  -31.6920 C   0  0  0  0  0  0  0  0  0  0  0  0
   -4.9800   24.3390  -31.2130 O   0  0  0  0  0  0  0  0  0  0  0  0
   -5.4880   25.2820  -30.2750 C   0  0  0  0  0  0  0  0  0  0  0  0
   -7.0740   23.2030  -31.7520 C   0  0  0  0  0  0  0  0  0  0  0  0
   -7.7750   22.0510  -32.1180 C   0  0  0  0  0  0  0  0  0  0  0  0
   -9.2800   22.0840  -31.9650 C   0  0  0  0  0  0  0  0  0  0  0  0
   -7.0690   20.9010  -32.5870 C   0  0  0  0  0  0  0  0  0  0  0  0
   -7.8080   19.5560  -32.5790 C   0  0  0  0  0  0  0  0  0  0  0  0
   -6.8920   18.3960  -32.4880 N   0  0  0  0  0  0  0  0  0  0  0  0
   -7.2520   17.3580  -33.4740 C   0  0  0  0  0  0  0  0  0  0  0  0
   -6.4490   16.0630  -33.2260 C   0  0  0  0  0  0  0  0  0  0  0  0
   -5.3240   16.3200  -32.4090 O   0  0  0  0  0  0  0  0  0  0  0  0
   -5.7460   16.7070  -31.1100 C   0  0  0  0  0  0  0  0  0  0  0  0
   -6.8240   17.8100  -31.1400 C   0  0  0  0  0  0  0  0  0  0  0  0
   -5.6330   20.9750  -32.7100 C   0  0  0  0  0  0  0  0  0  0  0  0
   -0.2553   16.9609  -36.5148 H   0  0  0  0  0  0  0  0  0  0  0  0
    1.3470   16.4955  -37.1802 H   0  0  0  0  0  0  0  0  0  0  0  0
   -0.0039   15.3115  -37.1802 H   0  0  0  0  0  0  0  0  0  0  0  0
    0.6104   14.5867  -35.1446 H   0  0  0  0  0  0  0  0  0  0  0  0
    1.9862   15.7989  -35.1756 H   0  0  0  0  0  0  0  0  0  0  0  0
   -0.7190   16.4960  -34.3390 H   0  0  0  0  0  0  0  0  0  0  0  0
    0.3049   16.3216  -31.9910 H   0  0  0  0  0  0  0  0  0  0  0  0
   -0.4424   14.9020  -32.7990 H   0  0  0  0  0  0  0  0  0  0  0  0
    1.3431   15.0985  -32.7990 H   0  0  0  0  0  0  0  0  0  0  0  0
    1.3107   17.8541  -32.9654 H   0  0  0  0  0  0  0  0  0  0  0  0
    1.6459   17.8677  -34.7520 H   0  0  0  0  0  0  0  0  0  0  0  0
    0.3061   19.8398  -34.0291 H   0  0  0  0  0  0  0  0  0  0  0  0
   -0.5743   18.7881  -35.1948 H   0  0  0  0  0  0  0  0  0  0  0  0
   -1.0110   18.7780  -32.2000 H   0  0  0  0  0  0  0  0  0  0  0  0
   -3.1230   15.0585  -34.7014 H   0  0  0  0  0  0  0  0  0  0  0  0
   -3.7607   15.8897  -36.1605 H   0  0  0  0  0  0  0  0  0  0  0  0
   -2.0896   15.2310  -36.1605 H   0  0  0  0  0  0  0  0  0  0  0  0
   -4.9329   17.5034  -35.7224 H   0  0  0  0  0  0  0  0  0  0  0  0
   -6.3255   19.3028  -34.7484 H   0  0  0  0  0  0  0  0  0  0  0  0
   -1.7498   20.9161  -32.1119 H   0  0  0  0  0  0  0  0  0  0  0  0
   -3.0638   22.9174  -31.4832 H   0  0  0  0  0  0  0  0  0  0  0  0
   -5.2948   24.9233  -29.2532 H   0  0  0  0  0  0  0  0  0  0  0  0
   -4.9901   26.2516  -30.4235 H   0  0  0  0  0  0  0  0  0  0  0  0
   -6.5716   25.3996  -30.4235 H   0  0  0  0  0  0  0  0  0  0  0  0
   -7.6328   24.1180  -31.5060 H   0  0  0  0  0  0  0  0  0  0  0  0
   -9.5399   22.0897  -30.8961 H   0  0  0  0  0  0  0  0  0  0  0  0
   -9.6774   22.9911  -32.4438 H   0  0  0  0  0  0  0  0  0  0  0  0
   -9.7168   21.1952  -32.4438 H   0  0  0  0  0  0  0  0  0  0  0  0
   -8.4885   19.5345  -31.7150 H   0  0  0  0  0  0  0  0  0  0  0  0
   -8.3526   19.4728  -33.5311 H   0  0  0  0  0  0  0  0  0  0  0  0
   -8.3264   17.1377  -33.3895 H   0  0  0  0  0  0  0  0  0  0  0  0
   -7.0154   17.7317  -34.4811 H   0  0  0  0  0  0  0  0  0  0  0  0
   -7.0965   15.3268  -32.7273 H   0  0  0  0  0  0  0  0  0  0  0  0
   -6.1009   15.6725  -34.1937 H   0  0  0  0  0  0  0  0  0  0  0  0
   -6.1579   15.8258  -30.5964 H   0  0  0  0  0  0  0  0  0  0  0  0
   -4.8700   17.1119  -30.5822 H   0  0  0  0  0  0  0  0  0  0  0  0
   -7.8003   17.3751  -30.8800 H   0  0  0  0  0  0  0  0  0  0  0  0
   -6.5653   18.5940  -30.4131 H   0  0  0  0  0  0  0  0  0  0  0  0
  1  2  1  0
  2  3  1  0
  3  4  1  0
  3  5  1  0
  5  6  1  0
  6  7  1  0
  7  8  1  0
  8  9  2  0
  9 10  1  0
 10 11  1  0
  9 12  1  0
 12 13  2  0
 13 14  1  0
 14 15  2  0
 15 16  1  0
 16 17  2  0
 17 18  1  0
 18 19  2  0
 19 20  1  0
 20 21  1  0
 19 22  1  0
 22 23  2  0
 23 24  1  0
 23 25  1  0
 25 26  1  0
 26 27  1  0
 27 28  1  0
 28 29  1  0
 29 30  1  0
 30 31  1  0
 31 32  1  0
 25 33  2  0
 15  8  1  0
 33 18  1  0
 33 14  1  0
 32 27  1  0
  1 34  1  0
  1 35  1  0
  1 36  1  0
  2 37  1  0
  2 38  1  0
  3 39  1  6
  4 40  1  0
  4 41  1  0
  4 42  1  0
  5 43  1  0
  5 44  1  0
  6 45  1  0
  6 46  1  0
  7 47  1  0
 11 48  1  0
 11 49  1  0
 11 50  1  0
 12 51  1  0
 13 52  1  0
 16 53  1  0
 17 54  1  0
 21 55  1  0
 21 56  1  0
 21 57  1  0
 22 58  1  0
 24 59  1  0
 24 60  1  0
 24 61  1  0
 26 62  1  0
 26 63  1  0
 28 64  1  0
 28 65  1  0
 29 66  1  0
 29 67  1  0
 31 68  1  0
 31 69  1  0
 32 70  1  0
 32 71  1  0
M  CHG  1   3   1
M  END
>  <UniqueID>  (2) 
2

>  <SMILES>  (2) 
CC[N@@H+](C)CCNc1c(OC)ccc2c1ccc1c(OC)cc(C)c(CN3CCOCC3)c12

>  <Energy>  (2) 
120.67696469096691

>  <Genealogy>  (2) 
CC[NH+](C)CCNc1c(OC)ccc2c1ccc1c(OC)cc(C)c(CN3CCOCC3)c12 (protonated)
CC[N@@H+](C)CCNc1c(OC)ccc2c1ccc1c(OC)cc(C)c(CN3CCOCC3)c12 (chirality)
CC[N@@H+](C)CCNc1c(OC)ccc2c1ccc1c(OC)cc(C)c(CN3CCOCC3)c12 (3D coordinates assigned)
CC[N@@H+](C)CCNc1c(OC)ccc2c1ccc1c(OC)cc(C)c(CN3CCOCC3)c12 (nonaromatic ring conformer: 120.67696469096691 kcal/mol)

>  <smiles>  (2) 
CCN(C)CCNc1c(OC)ccc2c1ccc1c(OC)cc(C)c(CN3CCOCC3)c12

>  <score_type>  (2) 
oracle

>  <origin>  (2) 
adg

>  <m_score__min__energy>  (2) 
-7.71

>  <m_primary>  (2) 
energy

$$$$
2:0
     RDKit          3D

 57 60  0  0  0  0  0  0  0  0999 V2000
   -3.7370   23.6090  -28.0230 C   0  0  0  0  0  0  0  0  0  0  0  0
   -3.2770   24.5590  -29.1300 C   0  0  0  0  0  0  0  0  0  0  0  0
   -3.8760   24.2670  -30.4520 N   0  0  0  0  0  0  0  0  0  0  0  0
   -5.0210   25.1350  -30.8250 C   0  0  0  0  0  0  0  0  0  0  0  0
   -6.1590   25.1890  -29.7930 C   0  0  0  0  0  0  0  0  0  0  0  0
   -4.0000   22.8250  -30.7570 C   0  0  0  0  0  0  0  0  0  0  0  0
   -3.3420   22.4750  -32.0950 C   0  0  0  0  0  0  0  0  0  0  0  0
   -4.3460   22.1060  -33.0930 N   0  0  0  0  0  0  0  0  0  0  0  0
   -5.2490   21.0060  -32.8870 C   0  0  0  0  0  0  0  0  0  0  0  0
   -6.5440   21.2490  -32.3970 C   0  0  0  0  0  0  0  0  0  0  0  0
   -6.9970   22.5570  -32.1250 C   0  0  0  0  0  0  0  0  0  0  0  0
   -8.2850   22.7770  -31.6400 C   0  0  0  0  0  0  0  0  0  0  0  0
   -9.1400   21.7010  -31.4260 C   0  0  0  0  0  0  0  0  0  0  0  0
   -8.7190   20.4030  -31.7120 C   0  0  0  0  0  0  0  0  0  0  0  0
   -7.4200   20.1530  -32.2210 C   0  0  0  0  0  0  0  0  0  0  0  0
   -6.9990   18.8820  -32.5410 N   0  0  0  0  0  0  0  0  0  0  0  0
   -7.9940   17.7990  -32.6860 C   0  0  0  0  0  0  0  0  0  0  0  0
   -5.6690   18.6610  -32.8380 C   0  0  0  0  0  0  0  0  0  0  0  0
   -4.8490   19.7220  -33.1520 N   0  0  0  0  0  0  0  0  0  0  0  0
   -3.4890   19.4630  -33.6820 C   0  0  0  0  0  0  0  0  0  0  0  0
   -3.4560   18.1940  -34.5420 C   0  0  0  0  0  0  0  0  0  0  0  0
   -3.9940   17.0500  -33.7390 C   0  0  0  0  0  0  0  0  0  0  0  0
   -3.4070   15.7770  -33.8100 C   0  0  0  0  0  0  0  0  0  0  0  0
   -3.8550   14.7550  -32.9700 C   0  0  0  0  0  0  0  0  0  0  0  0
   -4.8680   15.0060  -32.0430 C   0  0  0  0  0  0  0  0  0  0  0  0
   -5.4640   16.2680  -31.9790 C   0  0  0  0  0  0  0  0  0  0  0  0
   -5.0790   17.2830  -32.8770 C   0  0  0  0  0  0  0  0  0  0  0  0
   -3.5202   24.0568  -27.0420 H   0  0  0  0  0  0  0  0  0  0  0  0
   -4.8192   23.4349  -28.1155 H   0  0  0  0  0  0  0  0  0  0  0  0
   -3.2025   22.6521  -28.1155 H   0  0  0  0  0  0  0  0  0  0  0  0
   -3.5514   25.5849  -28.8434 H   0  0  0  0  0  0  0  0  0  0  0  0
   -2.1897   24.4288  -29.2340 H   0  0  0  0  0  0  0  0  0  0  0  0
   -4.6415   26.1575  -30.9682 H   0  0  0  0  0  0  0  0  0  0  0  0
   -5.4537   24.6978  -31.7369 H   0  0  0  0  0  0  0  0  0  0  0  0
   -5.7350   25.1689  -28.7782 H   0  0  0  0  0  0  0  0  0  0  0  0
   -6.7356   26.1155  -29.9312 H   0  0  0  0  0  0  0  0  0  0  0  0
   -6.8208   24.3212  -29.9312 H   0  0  0  0  0  0  0  0  0  0  0  0
   -3.5130   22.2475  -29.9574 H   0  0  0  0  0  0  0  0  0  0  0  0
   -5.0697   22.5773  -30.8235 H   0  0  0  0  0  0  0  0  0  0  0  0
   -2.7782   23.3472  -32.4575 H   0  0  0  0  0  0  0  0  0  0  0  0
   -2.6698   21.6180  -31.9411 H   0  0  0  0  0  0  0  0  0  0  0  0
   -4.3350   22.5850  -34.0220 H   0  0  0  0  0  0  0  0  0  0  0  0
   -6.3268   23.4121  -32.2975 H   0  0  0  0  0  0  0  0  0  0  0  0
   -8.6252   23.8011  -31.4266 H   0  0  0  0  0  0  0  0  0  0  0  0
  -10.1514   21.8747  -31.0299 H   0  0  0  0  0  0  0  0  0  0  0  0
   -9.4051   19.5605  -31.5401 H   0  0  0  0  0  0  0  0  0  0  0  0
   -8.3097   17.4554  -31.6899 H   0  0  0  0  0  0  0  0  0  0  0  0
   -8.8678   18.1754  -33.2380 H   0  0  0  0  0  0  0  0  0  0  0  0
   -7.5451   16.9601  -33.2380 H   0  0  0  0  0  0  0  0  0  0  0  0
   -3.1751   20.3198  -34.2962 H   0  0  0  0  0  0  0  0  0  0  0  0
   -2.8067   19.3221  -32.8307 H   0  0  0  0  0  0  0  0  0  0  0  0
   -4.0760   18.3395  -35.4389 H   0  0  0  0  0  0  0  0  0  0  0  0
   -2.4221   17.9794  -34.8504 H   0  0  0  0  0  0  0  0  0  0  0  0
   -2.5949   15.5844  -34.5265 H   0  0  0  0  0  0  0  0  0  0  0  0
   -3.4093   13.7517  -33.0390 H   0  0  0  0  0  0  0  0  0  0  0  0
   -5.1978   14.2082  -31.3612 H   0  0  0  0  0  0  0  0  0  0  0  0
   -6.2377   16.4701  -31.2237 H   0  0  0  0  0  0  0  0  0  0  0  0
  1  2  1  0
  2  3  1  0
  3  4  1  0
  4  5  1  0
  3  6  1  0
  6  7  1  0
  7  8  1  0
  8  9  1  0
  9 10  2  0
 10 11  1  0
 11 12  2  0
 12 13  1  0
 13 14  2  0
 14 15  1  0
 15 16  2  0
 16 17  1  0
 16 18  1  0
 18 19  2  0
 19 20  1  0
 20 21  1  0
 21 22  1  0
 22 23  2  0
 23 24  1  0
 24 25  2  0
 25 26  1  0
 26 27  2  0
 19  9  1  0
 27 22  1  0
 15 10  1  0
 27 18  1  0
  1 28  1  0
  1 29  1  0
  1 30  1  0
  2 31  1  0
  2 32  1  0
  4 33  1  0
  4 34  1  0
  5 35  1  0
  5 36  1  0
  5 37  1  0
  6 38  1  0
  6 39  1  0
  7 40  1  0
  7 41  1  0
  8 42  1  0
 11 43  1  0
 12 44  1  0
 13 45  1  0
 14 46  1  0
 17 47  1  0
 17 48  1  0
 17 49  1  0
 20 50  1  0
 20 51  1  0
 21 52  1  0
 21 53  1  0
 23 54  1  0
 24 55  1  0
 25 56  1  0
 26 57  1  0
M  CHG  2  16   1  19   1
M  END
>  <UniqueID>  (3) 
3

>  <SMILES>  (3) 
CCN(CC)CCNc1c2ccccc2[n+](C)c2[n+]1CCc1ccccc1-2

>  <Energy>  (3) 
94.98124822399663

>  <Genealogy>  (3) 
CCN(CC)CCNc1c2ccccc2[n+](C)c2[n+]1CCc1ccccc1-2 (3D coordinates assigned)
CCN(CC)CCNc1c2ccccc2[n+](C)c2[n+]1CCc1ccccc1-2 (nonaromatic ring conformer: 94.98124822399663 kcal/mol)

>  <smiles>  (3) 
CCN(CC)CCNc1c2ccccc2[n+](C)c2[n+]1CCc1ccccc1-2

>  <score_type>  (3) 
oracle

>  <origin>  (3) 
adg

>  <m_score__min__energy>  (3) 
-8.3100000000000005

>  <m_primary>  (3) 
energy

$$$$
3:0
     RDKit          3D

 69 71  0  0  0  0  0  0  0  0999 V2000
    0.9890   24.1770  -36.1890 C   0  0  0  0  0  0  0  0  0  0  0  0
    0.9610   22.6580  -36.0370 C   0  0  0  0  0  0  0  0  0  0  0  0
    0.0350   22.2720  -34.9650 N   0  0  0  0  0  0  0  0  0  0  0  0
    0.0900   20.8280  -34.6840 C   0  0  0  0  0  0  0  0  0  0  0  0
   -1.2860   20.3300  -34.2310 C   0  0  0  0  0  0  0  0  0  0  0  0
   -1.8150   21.1640  -33.0580 C   0  0  0  0  0  0  0  0  0  0  0  0
   -3.2810   21.5550  -33.2590 C   0  0  0  0  0  0  0  0  0  0  0  0
   -4.1210   20.9800  -32.2080 N   0  0  0  0  0  0  0  0  0  0  0  0
   -5.3910   20.3900  -32.5210 C   0  0  0  0  0  0  0  0  0  0  0  0
   -5.4090   19.1280  -33.1340 C   0  0  0  0  0  0  0  0  0  0  0  0
   -4.2610   18.6180  -33.7780 C   0  0  0  0  0  0  0  0  0  0  0  0
   -4.3020   17.3880  -34.4320 C   0  0  0  0  0  0  0  0  0  0  0  0
   -5.4790   16.6520  -34.4580 C   0  0  0  0  0  0  0  0  0  0  0  0
   -6.6150   17.1240  -33.8000 C   0  0  0  0  0  0  0  0  0  0  0  0
   -6.5900   18.3520  -33.0900 C   0  0  0  0  0  0  0  0  0  0  0  0
   -7.6660   18.7860  -32.3450 N   0  0  0  0  0  0  0  0  0  0  0  0
   -8.7290   17.8280  -31.9650 C   0  0  0  0  0  0  0  0  0  0  0  0
   -7.7400   20.1080  -31.9440 C   0  0  0  0  0  0  0  0  0  0  0  0
   -8.9360   20.6360  -31.4030 C   0  0  0  0  0  0  0  0  0  0  0  0
   -9.0210   21.9550  -30.9910 C   0  0  0  0  0  0  0  0  0  0  0  0
   -7.9560   22.8140  -31.1860 C   0  0  0  0  0  0  0  0  0  0  0  0
   -6.7610   22.3750  -31.7810 C   0  0  0  0  0  0  0  0  0  0  0  0
   -5.8490   23.4110  -32.2410 N   0  0  0  0  0  0  0  0  0  0  0  0
   -6.1000   24.6960  -31.5640 C   0  0  0  0  0  0  0  0  0  0  0  0
   -5.5270   24.7260  -30.1360 C   0  0  0  0  0  0  0  0  0  0  0  0
   -3.9990   24.5770  -30.1440 C   0  0  0  0  0  0  0  0  0  0  0  0
   -3.6170   23.1520  -30.2480 N   0  0  0  0  0  0  0  0  0  0  0  0
   -4.2430   22.3760  -29.1650 C   0  0  0  0  0  0  0  0  0  0  0  0
   -2.1530   22.9870  -30.1820 C   0  0  0  0  0  0  0  0  0  0  0  0
   -6.6080   20.9750  -32.0830 C   0  0  0  0  0  0  0  0  0  0  0  0
    0.9976   24.6450  -35.1936 H   0  0  0  0  0  0  0  0  0  0  0  0
    1.8928   24.4736  -36.7415 H   0  0  0  0  0  0  0  0  0  0  0  0
    0.0968   24.5067  -36.7415 H   0  0  0  0  0  0  0  0  0  0  0  0
    0.6308   22.2043  -36.9831 H   0  0  0  0  0  0  0  0  0  0  0  0
    1.9711   22.3043  -35.7830 H   0  0  0  0  0  0  0  0  0  0  0  0
   -0.9400   22.5040  -35.2720 H   0  0  0  0  0  0  0  0  0  0  0  0
    0.3900   20.2906  -35.5957 H   0  0  0  0  0  0  0  0  0  0  0  0
    0.8223   20.6433  -33.8842 H   0  0  0  0  0  0  0  0  0  0  0  0
   -1.9905   20.4056  -35.0724 H   0  0  0  0  0  0  0  0  0  0  0  0
   -1.1888   19.2850  -33.9015 H   0  0  0  0  0  0  0  0  0  0  0  0
   -1.7264   20.5752  -32.1331 H   0  0  0  0  0  0  0  0  0  0  0  0
   -1.2189   22.0864  -32.9959 H   0  0  0  0  0  0  0  0  0  0  0  0
   -3.3689   22.6511  -33.2316 H   0  0  0  0  0  0  0  0  0  0  0  0
   -3.6189   21.1679  -34.2316 H   0  0  0  0  0  0  0  0  0  0  0  0
   -3.9230   21.2450  -31.2160 H   0  0  0  0  0  0  0  0  0  0  0  0
   -3.3256   19.1967  -33.7635 H   0  0  0  0  0  0  0  0  0  0  0  0
   -3.4004   16.9997  -34.9284 H   0  0  0  0  0  0  0  0  0  0  0  0
   -5.5159   15.6947  -34.9986 H   0  0  0  0  0  0  0  0  0  0  0  0
   -7.5437   16.5354  -33.8321 H   0  0  0  0  0  0  0  0  0  0  0  0
   -8.7945   17.7689  -30.8685 H   0  0  0  0  0  0  0  0  0  0  0  0
   -9.6924   18.1688  -32.3721 H   0  0  0  0  0  0  0  0  0  0  0  0
   -8.4898   16.8345  -32.3721 H   0  0  0  0  0  0  0  0  0  0  0  0
   -9.8172   19.9845  -31.3077 H   0  0  0  0  0  0  0  0  0  0  0  0
   -9.9388   22.3203  -30.5071 H   0  0  0  0  0  0  0  0  0  0  0  0
   -8.0457   23.8634  -30.8688 H   0  0  0  0  0  0  0  0  0  0  0  0
   -4.8700   23.1190  -32.0090 H   0  0  0  0  0  0  0  0  0  0  0  0
   -5.8300   23.5550  -33.2650 H   0  0  0  0  0  0  0  0  0  0  0  0
   -5.6327   25.5015  -32.1496 H   0  0  0  0  0  0  0  0  0  0  0  0
   -7.1893   24.8312  -31.4922 H   0  0  0  0  0  0  0  0  0  0  0  0
   -5.7910   25.6840  -29.6642 H   0  0  0  0  0  0  0  0  0  0  0  0
   -5.9547   23.8834  -29.5728 H   0  0  0  0  0  0  0  0  0  0  0  0
   -3.5865   25.1258  -31.0034 H   0  0  0  0  0  0  0  0  0  0  0  0
   -3.5973   24.9849  -29.2047 H   0  0  0  0  0  0  0  0  0  0  0  0
   -3.9199   22.7766  -28.1928 H   0  0  0  0  0  0  0  0  0  0  0  0
   -5.3375   22.4497  -29.2465 H   0  0  0  0  0  0  0  0  0  0  0  0
   -3.9394   21.3219  -29.2465 H   0  0  0  0  0  0  0  0  0  0  0  0
   -1.8351   22.9512  -29.1295 H   0  0  0  0  0  0  0  0  0  0  0  0
   -1.8665   22.0509  -30.6836 H   0  0  0  0  0  0  0  0  0  0  0  0
   -1.6654   23.8359  -30.6836 H   0  0  0  0  0  0  0  0  0  0  0  0
  1  2  1  0
  2  3  1  0
  3  4  1  0
  4  5  1  0
  5  6  1  0
  6  7  1  0
  7  8  1  0
  8  9  1  0
  9 10  2  0
 10 11  1  0
 11 12  2  0
 12 13  1  0
 13 14  2  0
 14 15  1  0
 15 16  2  0
 16 17  1  0
 16 18  1  0
 18 19  2  0
 19 20  1  0
 20 21  2  0
 21 22  1  0
 22 23  1  0
 23 24  1  0
 24 25  1  0
 25 26  1  0
 26 27  1  0
 27 28  1  0
 27 29  1  0
 22 30  2  0
 30  9  1  0
 15 10  1  0
 30 18  1  0
  1 31  1  0
  1 32  1  0
  1 33  1  0
  2 34  1  0
  2 35  1  0
  3 36  1  0
  4 37  1  0
  4 38  1  0
  5 39  1  0
  5 40  1  0
  6 41  1  0
  6 42  1  0
  7 43  1  0
  7 44  1  0
  8 45  1  0
 11 46  1  0
 12 47  1  0
 13 48  1  0
 14 49  1  0
 17 50  1  0
 17 51  1  0
 17 52  1  0
 19 53  1  0
 20 54  1  0
 21 55  1  0
 23 56  1  0
 23 57  1  0
 24 58  1  0
 24 59  1  0
 25 60  1  0
 25 61  1  0
 26 62  1  0
 26 63  1  0
 28 64  1  0
 28 65  1  0
 28 66  1  0
 29 67  1  0
 29 68  1  0
 29 69  1  0
M  CHG  2  16   1  23   1
M  END
>  <UniqueID>  (4) 
4

>  <SMILES>  (4) 
CCNCCCCNc1c2ccccc2[n+](C)c2cccc([NH2+]CCCN(C)C)c12

>  <Energy>  (4) 
96.52859183783647

>  <Genealogy>  (4) 
CCNCCCCNc1c2ccccc2[n+](C)c2cccc([NH2+]CCCN(C)C)c12 (protonated)
CCNCCCCNc1c2ccccc2[n+](C)c2cccc([NH2+]CCCN(C)C)c12 (3D coordinates assigned)
CCNCCCCNc1c2ccccc2[n+](C)c2cccc([NH2+]CCCN(C)C)c12 (optimized conformer: 96.52859183783647 kcal/mol)

>  <smiles>  (4) 
CCNCCCCNc1c2ccccc2[n+](C)c2cccc(NCCCN(C)C)c12

>  <score_type>  (4) 
oracle

>  <origin>  (4) 
adg

>  <m_score__min__energy>  (4) 
-8.1300000000000008

>  <m_primary>  (4) 
energy

$$$$
4:0
     RDKit          3D

 48 50  0  0  0  0  0  0  0  0999 V2000
   -6.4960   25.1820  -29.7030 C   0  0  0  0  0  0  0  0  0  0  0  0
   -5.2480   25.7010  -30.4220 C   0  0  0  0  0  0  0  0  0  0  0  0
   -4.5240   24.6380  -31.1360 N   0  0  0  0  0  0  0  0  0  0  0  0
   -4.6240   23.3410  -30.4530 C   0  0  0  0  0  0  0  0  0  0  0  0
   -4.9410   22.2560  -31.4620 C   0  0  0  0  0  0  0  0  0  0  0  0
   -3.9320   21.5280  -32.1710 C   0  0  0  0  0  0  0  0  0  0  0  0
   -2.5570   21.8020  -31.9950 C   0  0  0  0  0  0  0  0  0  0  0  0
   -1.5890   21.0920  -32.7070 C   0  0  0  0  0  0  0  0  0  0  0  0
   -1.9640   20.1070  -33.6160 C   0  0  0  0  0  0  0  0  0  0  0  0
   -3.3120   19.8170  -33.8210 C   0  0  0  0  0  0  0  0  0  0  0  0
   -4.3120   20.5010  -33.1050 C   0  0  0  0  0  0  0  0  0  0  0  0
   -5.6850   20.2140  -33.3270 C   0  0  0  0  0  0  0  0  0  0  0  0
   -6.1210   19.1740  -34.2130 N   0  0  0  0  0  0  0  0  0  0  0  0
   -5.6710   17.7970  -34.0180 C   0  0  0  0  0  0  0  0  0  0  0  0
   -6.8570   16.9020  -33.6460 C   0  0  0  0  0  0  0  0  0  0  0  0
   -7.2710   17.1350  -32.2440 N   0  0  0  0  0  0  0  0  0  0  0  0
   -8.3390   18.1480  -32.1940 C   0  0  0  0  0  0  0  0  0  0  0  0
   -6.1330   17.5850  -31.4230 C   0  0  0  0  0  0  0  0  0  0  0  0
   -6.6290   20.9910  -32.6640 C   0  0  0  0  0  0  0  0  0  0  0  0
   -7.9330   20.9080  -32.7710 O   0  0  0  0  0  0  0  0  0  0  0  0
   -8.4600   21.8190  -31.9770 C   0  0  0  0  0  0  0  0  0  0  0  0
   -7.4590   22.5220  -31.3220 C   0  0  0  0  0  0  0  0  0  0  0  0
   -6.2770   21.9680  -31.7770 C   0  0  0  0  0  0  0  0  0  0  0  0
   -6.3452   25.2447  -28.6152 H   0  0  0  0  0  0  0  0  0  0  0  0
   -7.3646   25.7935  -29.9886 H   0  0  0  0  0  0  0  0  0  0  0  0
   -6.6749   24.1349  -29.9886 H   0  0  0  0  0  0  0  0  0  0  0  0
   -5.5534   26.4686  -31.1484 H   0  0  0  0  0  0  0  0  0  0  0  0
   -4.5702   26.1116  -29.6591 H   0  0  0  0  0  0  0  0  0  0  0  0
   -3.5160   24.9060  -31.2280 H   0  0  0  0  0  0  0  0  0  0  0  0
   -3.6679   23.1131  -29.9591 H   0  0  0  0  0  0  0  0  0  0  0  0
   -5.4262   23.3856  -29.7017 H   0  0  0  0  0  0  0  0  0  0  0  0
   -2.2455   22.5849  -31.2878 H   0  0  0  0  0  0  0  0  0  0  0  0
   -0.5230   21.3123  -32.5487 H   0  0  0  0  0  0  0  0  0  0  0  0
   -1.1937   19.5552  -34.1748 H   0  0  0  0  0  0  0  0  0  0  0  0
   -3.5973   19.0448  -34.5506 H   0  0  0  0  0  0  0  0  0  0  0  0
   -7.0460   19.3040  -34.6840 H   0  0  0  0  0  0  0  0  0  0  0  0
   -5.2151   17.4282  -34.9487 H   0  0  0  0  0  0  0  0  0  0  0  0
   -4.9324   17.7721  -33.2032 H   0  0  0  0  0  0  0  0  0  0  0  0
   -7.7018   17.1266  -34.3137 H   0  0  0  0  0  0  0  0  0  0  0  0
   -6.5531   15.8504  -33.7541 H   0  0  0  0  0  0  0  0  0  0  0  0
   -8.5793   18.3760  -31.1451 H   0  0  0  0  0  0  0  0  0  0  0  0
   -7.9996   19.0639  -32.6998 H   0  0  0  0  0  0  0  0  0  0  0  0
   -9.2357   17.7607  -32.6998 H   0  0  0  0  0  0  0  0  0  0  0  0
   -6.3872   17.4845  -30.3575 H   0  0  0  0  0  0  0  0  0  0  0  0
   -5.2509   16.9680  -31.6493 H   0  0  0  0  0  0  0  0  0  0  0  0
   -5.9115   18.6384  -31.6493 H   0  0  0  0  0  0  0  0  0  0  0  0
   -9.5384   21.9963  -31.8518 H   0  0  0  0  0  0  0  0  0  0  0  0
   -7.5797   23.3416  -30.5983 H   0  0  0  0  0  0  0  0  0  0  0  0
  1  2  1  0
  2  3  1  0
  3  4  1  0
  4  5  1  0
  5  6  2  0
  6  7  1  0
  7  8  2  0
  8  9  1  0
  9 10  2  0
 10 11  1  0
 11 12  2  0
 12 13  1  0
 13 14  1  0
 14 15  1  0
 15 16  1  0
 16 17  1  0
 16 18  1  0
 12 19  1  0
 19 20  1  0
 20 21  1  0
 21 22  2  0
 22 23  1  0
 23  5  1  0
 11  6  1  0
 23 19  2  0
  1 24  1  0
  1 25  1  0
  1 26  1  0
  2 27  1  0
  2 28  1  0
  3 29  1  0
  4 30  1  0
  4 31  1  0
  7 32  1  0
  8 33  1  0
  9 34  1  0
 10 35  1  0
 13 36  1  0
 14 37  1  0
 14 38  1  0
 15 39  1  0
 15 40  1  0
 17 41  1  0
 17 42  1  0
 17 43  1  0
 18 44  1  0
 18 45  1  0
 18 46  1  0
 21 47  1  0
 22 48  1  0
M  END
>  <UniqueID>  (5) 
5

>  <SMILES>  (5) 
CCNCc1c2ccccc2c(NCCN(C)C)c2occc12

>  <Energy>  (5) 
90.28272053610625

>  <Genealogy>  (5) 
CCNCc1c2ccccc2c(NCCN(C)C)c2occc12 (3D coordinates assigned)
CCNCc1c2ccccc2c(NCCN(C)C)c2occc12 (optimized conformer: 90.28272053610625 kcal/mol)

>  <smiles>  (5) 
CCNCc1c2ccccc2c(NCCN(C)C)c2occc12

>  <score_type>  (5) 
oracle

>  <origin>  (5) 
adg

>  <m_score__min__energy>  (5) 
-8.7799999999999994

>  <m_primary>  (5) 
energy

$$$$
5:0
     RDKit          3D

 55 57  0  0  0  0  0  0  0  0999 V2000
   -6.0850   25.1290  -29.7260 C   0  0  0  0  0  0  0  0  0  0  0  0
   -5.0320   25.2030  -30.8450 C   0  0  0  0  0  0  0  0  0  0  0  0
   -3.8730   24.2990  -30.6460 N   0  0  0  0  0  0  0  0  0  0  0  0
   -3.1730   24.5500  -29.3620 C   0  0  0  0  0  0  0  0  0  0  0  0
   -3.5130   23.4460  -28.3680 C   0  0  0  0  0  0  0  0  0  0  0  0
   -4.2120   22.8770  -30.8560 C   0  0  0  0  0  0  0  0  0  0  0  0
   -3.5840   22.3510  -32.1720 C   0  0  0  0  0  0  0  0  0  0  0  0
   -4.5350   22.1310  -33.2920 N   0  0  0  0  0  0  0  0  0  0  0  0
   -5.5450   21.1060  -33.0530 C   0  0  0  0  0  0  0  0  0  0  0  0
   -6.8100   21.4980  -32.5230 C   0  0  0  0  0  0  0  0  0  0  0  0
   -7.0970   22.8500  -32.1920 C   0  0  0  0  0  0  0  0  0  0  0  0
   -8.3560   23.2350  -31.7420 C   0  0  0  0  0  0  0  0  0  0  0  0
   -9.3610   22.2910  -31.5960 C   0  0  0  0  0  0  0  0  0  0  0  0
   -9.1000   20.9520  -31.8660 C   0  0  0  0  0  0  0  0  0  0  0  0
   -7.8160   20.5230  -32.2980 C   0  0  0  0  0  0  0  0  0  0  0  0
   -7.5450   19.1900  -32.4970 N   0  0  0  0  0  0  0  0  0  0  0  0
   -8.4610   18.1660  -31.9430 C   0  0  0  0  0  0  0  0  0  0  0  0
   -6.4020   18.7990  -33.1640 C   0  0  0  0  0  0  0  0  0  0  0  0
   -6.2930   17.4790  -33.6680 C   0  0  0  0  0  0  0  0  0  0  0  0
   -5.1130   17.0080  -34.2110 C   0  0  0  0  0  0  0  0  0  0  0  0
   -4.0130   17.8370  -34.2880 C   0  0  0  0  0  0  0  0  0  0  0  0
   -4.0840   19.1790  -33.8900 C   0  0  0  0  0  0  0  0  0  0  0  0
   -2.8620   19.9230  -33.9890 N   0  0  0  0  0  0  0  0  0  0  0  0
   -1.8260   19.7950  -32.9670 C   0  0  0  0  0  0  0  0  0  0  0  0
   -5.3190   19.7180  -33.3680 C   0  0  0  0  0  0  0  0  0  0  0  0
   -5.5834   25.1642  -28.7476 H   0  0  0  0  0  0  0  0  0  0  0  0
   -6.7752   25.9809  -29.8151 H   0  0  0  0  0  0  0  0  0  0  0  0
   -6.6493   24.1890  -29.8151 H   0  0  0  0  0  0  0  0  0  0  0  0
   -5.5183   24.9373  -31.7952 H   0  0  0  0  0  0  0  0  0  0  0  0
   -4.6377   26.2299  -30.8424 H   0  0  0  0  0  0  0  0  0  0  0  0
   -2.0867   24.5651  -29.5345 H   0  0  0  0  0  0  0  0  0  0  0  0
   -3.4955   25.5195  -28.9544 H   0  0  0  0  0  0  0  0  0  0  0  0
   -3.3957   23.8269  -27.3427 H   0  0  0  0  0  0  0  0  0  0  0  0
   -4.5527   23.1215  -28.5219 H   0  0  0  0  0  0  0  0  0  0  0  0
   -2.8360   22.5928  -28.5219 H   0  0  0  0  0  0  0  0  0  0  0  0
   -3.8279   22.2860  -30.0115 H   0  0  0  0  0  0  0  0  0  0  0  0
   -5.3057   22.7811  -30.9238 H   0  0  0  0  0  0  0  0  0  0  0  0
   -2.8323   23.0820  -32.5045 H   0  0  0  0  0  0  0  0  0  0  0  0
   -3.1659   21.3621  -31.9326 H   0  0  0  0  0  0  0  0  0  0  0  0
   -5.0040   23.0350  -33.5190 H   0  0  0  0  0  0  0  0  0  0  0  0
   -4.0350   21.9960  -34.1880 H   0  0  0  0  0  0  0  0  0  0  0  0
   -6.3067   23.6084  -32.2938 H   0  0  0  0  0  0  0  0  0  0  0  0
   -8.5544   24.2899  -31.5017 H   0  0  0  0  0  0  0  0  0  0  0  0
  -10.3638   22.6009  -31.2669 H   0  0  0  0  0  0  0  0  0  0  0  0
   -9.9031   20.2105  -31.7428 H   0  0  0  0  0  0  0  0  0  0  0  0
   -8.4291   18.2016  -30.8440 H   0  0  0  0  0  0  0  0  0  0  0  0
   -9.4864   18.3668  -32.2868 H   0  0  0  0  0  0  0  0  0  0  0  0
   -8.1476   17.1692  -32.2868 H   0  0  0  0  0  0  0  0  0  0  0  0
   -7.1682   16.8139  -33.6259 H   0  0  0  0  0  0  0  0  0  0  0  0
   -5.0508   15.9740  -34.5812 H   0  0  0  0  0  0  0  0  0  0  0  0
   -3.0618   17.4370  -34.6691 H   0  0  0  0  0  0  0  0  0  0  0  0
   -2.8430   20.7820  -34.5820 H   0  0  0  0  0  0  0  0  0  0  0  0
   -2.2860   19.8518  -31.9694 H   0  0  0  0  0  0  0  0  0  0  0  0
   -1.3161   18.8270  -33.0810 H   0  0  0  0  0  0  0  0  0  0  0  0
   -1.0958   20.6098  -33.0810 H   0  0  0  0  0  0  0  0  0  0  0  0
  1  2  1  0
  2  3  1  0
  3  4  1  0
  4  5  1  0
  3  6  1  0
  6  7  1  0
  7  8  1  0
  8  9  1  0
  9 10  2  0
 10 11  1  0
 11 12  2  0
 12 13  1  0
 13 14  2  0
 14 15  1  0
 15 16  2  0
 16 17  1  0
 16 18  1  0
 18 19  2  0
 19 20  1  0
 20 21  2  0
 21 22  1  0
 22 23  1  0
 23 24  1  0
 22 25  2  0
 25  9  1  0
 15 10  1  0
 25 18  1  0
  1 26  1  0
  1 27  1  0
  1 28  1  0
  2 29  1  0
  2 30  1  0
  4 31  1  0
  4 32  1  0
  5 33  1  0
  5 34  1  0
  5 35  1  0
  6 36  1  0
  6 37  1  0
  7 38  1  0
  7 39  1  0
  8 40  1  0
  8 41  1  0
 11 42  1  0
 12 43  1  0
 13 44  1  0
 14 45  1  0
 17 46  1  0
 17 47  1  0
 17 48  1  0
 19 49  1  0
 20 50  1  0
 21 51  1  0
 23 52  1  0
 24 53  1  0
 24 54  1  0
 24 55  1  0
M  CHG  2   8   1  16   1
M  END
>  <UniqueID>  (6) 
6

>  <SMILES>  (6) 
CCN(CC)CC[NH2+]c1c2ccccc2[n+](C)c2cccc(NC)c12

>  <Energy>  (6) 
105.65020086231394

>  <Genealogy>  (6) 
CCN(CC)CC[NH2+]c1c2ccccc2[n+](C)c2cccc(NC)c12 (protonated)
CCN(CC)CC[NH2+]c1c2ccccc2[n+](C)c2cccc(NC)c12 (3D coordinates assigned)
CCN(CC)CC[NH2+]c1c2ccccc2[n+](C)c2cccc(NC)c12 (optimized conformer: 105.65020086231394 kcal/mol)

>  <smiles>  (6) 
CCN(CC)CCNc1c2ccccc2[n+](C)c2cccc(NC)c12

>  <score_type>  (6) 
oracle

>  <origin>  (6) 
adg

>  <m_score__min__energy>  (6) 
-8.4800000000000004

>  <m_primary>  (6) 
energy

$$$$
6:0
     RDKit          3D

 62 64  0  0  0  0  0  0  0  0999 V2000
   -6.4190   25.3360  -29.7010 C   0  0  0  0  0  0  0  0  0  0  0  0
   -5.5350   25.9910  -30.7580 C   0  0  0  0  0  0  0  0  0  0  0  0
   -4.2360   25.3080  -30.8340 N   0  0  0  0  0  0  0  0  0  0  0  0
   -4.0090   24.4540  -29.6600 C   0  0  0  0  0  0  0  0  0  0  0  0
   -4.1690   22.9800  -30.0400 C   0  0  0  0  0  0  0  0  0  0  0  0
   -4.5150   22.8320  -31.4540 N   0  0  0  0  0  0  0  0  0  0  0  0
   -4.9880   21.5710  -31.9500 C   0  0  0  0  0  0  0  0  0  0  0  0
   -6.3720   21.3190  -31.9430 C   0  0  0  0  0  0  0  0  0  0  0  0
   -7.2680   22.2320  -31.3430 C   0  0  0  0  0  0  0  0  0  0  0  0
   -8.6430   22.0130  -31.3800 C   0  0  0  0  0  0  0  0  0  0  0  0
   -9.1500   20.8910  -32.0250 C   0  0  0  0  0  0  0  0  0  0  0  0
   -8.2850   19.9710  -32.6150 C   0  0  0  0  0  0  0  0  0  0  0  0
   -6.8770   20.1470  -32.5600 C   0  0  0  0  0  0  0  0  0  0  0  0
   -6.0090   19.2310  -33.1200 N   0  0  0  0  0  0  0  0  0  0  0  0
   -6.5080   17.8970  -33.5260 C   0  0  0  0  0  0  0  0  0  0  0  0
   -4.6710   19.5420  -33.2660 C   0  0  0  0  0  0  0  0  0  0  0  0
   -3.8300   18.7700  -34.1040 C   0  0  0  0  0  0  0  0  0  0  0  0
   -2.4660   19.0180  -34.1810 C   0  0  0  0  0  0  0  0  0  0  0  0
   -1.8950   20.0180  -33.4090 C   0  0  0  0  0  0  0  0  0  0  0  0
   -2.6900   20.8450  -32.5980 C   0  0  0  0  0  0  0  0  0  0  0  0
   -2.0420   21.7580  -31.6910 N   0  0  0  0  0  0  0  0  0  0  0  0
   -1.0030   21.3440  -30.7440 C   0  0  0  0  0  0  0  0  0  0  0  0
   -1.0320   22.1790  -29.4540 C   0  0  0  0  0  0  0  0  0  0  0  0
   -0.8660   23.6930  -29.6720 C   0  0  0  0  0  0  0  0  0  0  0  0
   -0.0640   24.3200  -28.5990 N   0  0  0  0  0  0  0  0  0  0  0  0
   -0.8280   25.3790  -27.9160 C   0  0  0  0  0  0  0  0  0  0  0  0
    0.3530   23.3030  -27.6190 C   0  0  0  0  0  0  0  0  0  0  0  0
   -4.1090   20.6630  -32.5880 C   0  0  0  0  0  0  0  0  0  0  0  0
   -6.0542   25.6063  -28.6991 H   0  0  0  0  0  0  0  0  0  0  0  0
   -7.4548   25.6864  -29.8209 H   0  0  0  0  0  0  0  0  0  0  0  0
   -6.3854   24.2431  -29.8209 H   0  0  0  0  0  0  0  0  0  0  0  0
   -6.0342   25.9303  -31.7363 H   0  0  0  0  0  0  0  0  0  0  0  0
   -5.3695   27.0431  -30.4828 H   0  0  0  0  0  0  0  0  0  0  0  0
   -3.4860   26.0380  -30.8450 H   0  0  0  0  0  0  0  0  0  0  0  0
   -2.9908   24.6227  -29.2793 H   0  0  0  0  0  0  0  0  0  0  0  0
   -4.7466   24.7068  -28.8841 H   0  0  0  0  0  0  0  0  0  0  0  0
   -3.2223   22.4546  -29.8455 H   0  0  0  0  0  0  0  0  0  0  0  0
   -4.9822   22.5511  -29.4360 H   0  0  0  0  0  0  0  0  0  0  0  0
   -4.2120   23.5520  -32.1500 H   0  0  0  0  0  0  0  0  0  0  0  0
   -6.8744   23.1276  -30.8400 H   0  0  0  0  0  0  0  0  0  0  0  0
   -9.3272   22.7275  -30.8991 H   0  0  0  0  0  0  0  0  0  0  0  0
  -10.2370   20.7287  -32.0700 H   0  0  0  0  0  0  0  0  0  0  0  0
   -8.7002   19.0934  -33.1322 H   0  0  0  0  0  0  0  0  0  0  0  0
   -6.7311   17.3004  -32.6292 H   0  0  0  0  0  0  0  0  0  0  0  0
   -7.4230   18.0145  -34.1252 H   0  0  0  0  0  0  0  0  0  0  0  0
   -5.7405   17.3852  -34.1252 H   0  0  0  0  0  0  0  0  0  0  0  0
   -4.2656   17.9585  -34.7053 H   0  0  0  0  0  0  0  0  0  0  0  0
   -1.8369   18.4195  -34.8563 H   0  0  0  0  0  0  0  0  0  0  0  0
   -0.8052   20.1658  -33.4318 H   0  0  0  0  0  0  0  0  0  0  0  0
   -2.5490   22.6500  -31.4950 H   0  0  0  0  0  0  0  0  0  0  0  0
   -1.1594   20.2863  -30.4857 H   0  0  0  0  0  0  0  0  0  0  0  0
   -0.0255   21.4966  -31.2249 H   0  0  0  0  0  0  0  0  0  0  0  0
   -1.9970   22.0072  -28.9548 H   0  0  0  0  0  0  0  0  0  0  0  0
   -0.1723   21.8530  -28.8501 H   0  0  0  0  0  0  0  0  0  0  0  0
   -0.3632   23.8605  -30.6359 H   0  0  0  0  0  0  0  0  0  0  0  0
   -1.8662   24.1506  -29.6617 H   0  0  0  0  0  0  0  0  0  0  0  0
   -0.7369   25.2527  -26.8271 H   0  0  0  0  0  0  0  0  0  0  0  0
   -0.4303   26.3629  -28.2055 H   0  0  0  0  0  0  0  0  0  0  0  0
   -1.8871   25.3119  -28.2055 H   0  0  0  0  0  0  0  0  0  0  0  0
    0.1950   23.6884  -26.6009 H   0  0  0  0  0  0  0  0  0  0  0  0
   -0.2433   22.3898  -27.7620 H   0  0  0  0  0  0  0  0  0  0  0  0
    1.4187   23.0712  -27.7620 H   0  0  0  0  0  0  0  0  0  0  0  0
  1  2  1  0
  2  3  1  0
  3  4  1  0
  4  5  1  0
  5  6  1  0
  6  7  1  0
  7  8  2  0
  8  9  1  0
  9 10  2  0
 10 11  1  0
 11 12  2  0
 12 13  1  0
 13 14  2  0
 14 15  1  0
 14 16  1  0
 16 17  2  0
 17 18  1  0
 18 19  2  0
 19 20  1  0
 20 21  1  0
 21 22  1  0
 22 23  1  0
 23 24  1  0
 24 25  1  0
 25 26  1  0
 25 27  1  0
 20 28  2  0
 28  7  1  0
 13  8  1  0
 28 16  1  0
  1 29  1  0
  1 30  1  0
  1 31  1  0
  2 32  1  0
  2 33  1  0
  3 34  1  0
  4 35  1  0
  4 36  1  0
  5 37  1  0
  5 38  1  0
  6 39  1  0
  9 40  1  0
 10 41  1  0
 11 42  1  0
 12 43  1  0
 15 44  1  0
 15 45  1  0
 15 46  1  0
 17 47  1  0
 18 48  1  0
 19 49  1  0
 21 50  1  0
 22 51  1  0
 22 52  1  0
 23 53  1  0
 23 54  1  0
 24 55  1  0
 24 56  1  0
 26 57  1  0
 26 58  1  0
 26 59  1  0
 27 60  1  0
 27 61  1  0
 27 62  1  0
M  CHG  1  14   1
M  END
>  <UniqueID>  (7) 
7

>  <SMILES>  (7) 
CCNCCNc1c2ccccc2[n+](C)c2cccc(NCCCN(C)C)c12

>  <Energy>  (7) 
87.83552457962718

>  <Genealogy>  (7) 
CCNCCNc1c2ccccc2[n+](C)c2cccc(NCCCN(C)C)c12 (3D coordinates assigned)
CCNCCNc1c2ccccc2[n+](C)c2cccc(NCCCN(C)C)c12 (optimized conformer: 87.83552457962718 kcal/mol)

>  <smiles>  (7) 
CCNCCNc1c2ccccc2[n+](C)c2cccc(NCCCN(C)C)c12

>  <score_type>  (7) 
oracle

>  <origin>  (7) 
adg

>  <m_score__min__energy>  (7) 
-9.2400000000000002

>  <m_primary>  (7) 
energy

$$$$
7:0
     RDKit          3D

 58 60  0  0  0  0  0  0  0  0999 V2000
   -4.0280   24.1660  -27.5260 C   0  0  0  0  0  0  0  0  0  0  0  0
   -2.9650   24.5700  -28.5450 C   0  0  0  0  0  0  0  0  0  0  0  0
   -3.4240   24.2580  -29.9220 N   0  0  0  0  0  0  0  0  0  0  0  0
   -4.8990   24.1250  -29.9740 C   0  0  0  0  0  0  0  0  0  0  0  0
   -5.5350   25.4240  -30.4590 C   0  0  0  0  0  0  0  0  0  0  0  0
   -2.7500   23.0400  -30.4430 C   0  0  0  0  0  0  0  0  0  0  0  0
   -3.7900   22.0690  -31.0210 C   0  0  0  0  0  0  0  0  0  0  0  0
   -3.3660   21.5170  -32.3960 C   0  0  0  0  0  0  0  0  0  0  0  0
   -4.4860   21.5120  -33.3380 N   0  0  0  0  0  0  0  0  0  0  0  0
   -5.6790   20.7450  -33.0860 C   0  0  0  0  0  0  0  0  0  0  0  0
   -6.8200   21.3710  -32.5560 C   0  0  0  0  0  0  0  0  0  0  0  0
   -6.8570   22.7690  -32.3680 C   0  0  0  0  0  0  0  0  0  0  0  0
   -8.0050   23.3890  -31.8800 C   0  0  0  0  0  0  0  0  0  0  0  0
   -9.1340   22.6330  -31.5840 C   0  0  0  0  0  0  0  0  0  0  0  0
   -9.1130   21.2480  -31.7430 C   0  0  0  0  0  0  0  0  0  0  0  0
   -7.9450   20.5830  -32.1970 C   0  0  0  0  0  0  0  0  0  0  0  0
   -7.8800   19.2040  -32.2820 N   0  0  0  0  0  0  0  0  0  0  0  0
   -8.8980   18.3710  -31.6040 C   0  0  0  0  0  0  0  0  0  0  0  0
   -6.8450   18.6040  -32.9790 C   0  0  0  0  0  0  0  0  0  0  0  0
   -6.8740   17.2290  -33.3190 C   0  0  0  0  0  0  0  0  0  0  0  0
   -5.8260   16.6360  -34.0210 C   0  0  0  0  0  0  0  0  0  0  0  0
   -4.7380   17.3990  -34.4530 C   0  0  0  0  0  0  0  0  0  0  0  0
   -3.6640   16.7880  -35.1970 N   0  0  0  0  0  0  0  0  0  0  0  0
   -2.3710   17.1360  -34.6020 C   0  0  0  0  0  0  0  0  0  0  0  0
   -4.6980   18.7640  -34.1420 C   0  0  0  0  0  0  0  0  0  0  0  0
   -5.7270   19.3730  -33.3940 C   0  0  0  0  0  0  0  0  0  0  0  0
   -3.6363   24.3149  -26.5089 H   0  0  0  0  0  0  0  0  0  0  0  0
   -4.9258   24.7856  -27.6675 H   0  0  0  0  0  0  0  0  0  0  0  0
   -4.2877   23.1065  -27.6675 H   0  0  0  0  0  0  0  0  0  0  0  0
   -2.7753   25.6503  -28.4621 H   0  0  0  0  0  0  0  0  0  0  0  0
   -2.0420   24.0077  -28.3402 H   0  0  0  0  0  0  0  0  0  0  0  0
   -5.1651   23.3115  -30.6649 H   0  0  0  0  0  0  0  0  0  0  0  0
   -5.2722   23.9013  -28.9637 H   0  0  0  0  0  0  0  0  0  0  0  0
   -5.8329   26.0324  -29.5923 H   0  0  0  0  0  0  0  0  0  0  0  0
   -4.8087   25.9831  -31.0672 H   0  0  0  0  0  0  0  0  0  0  0  0
   -6.4220   25.1932  -31.0672 H   0  0  0  0  0  0  0  0  0  0  0  0
   -2.0406   23.3264  -31.2334 H   0  0  0  0  0  0  0  0  0  0  0  0
   -2.2131   22.5453  -29.6202 H   0  0  0  0  0  0  0  0  0  0  0  0
   -3.9153   21.2272  -30.3241 H   0  0  0  0  0  0  0  0  0  0  0  0
   -4.7322   22.6210  -31.1533 H   0  0  0  0  0  0  0  0  0  0  0  0
   -2.5602   22.1466  -32.8014 H   0  0  0  0  0  0  0  0  0  0  0  0
   -3.0219   20.4809  -32.2619 H   0  0  0  0  0  0  0  0  0  0  0  0
   -4.4300   22.0960  -34.2000 H   0  0  0  0  0  0  0  0  0  0  0  0
   -5.9711   23.3748  -32.6090 H   0  0  0  0  0  0  0  0  0  0  0  0
   -8.0185   24.4784  -31.7285 H   0  0  0  0  0  0  0  0  0  0  0  0
  -10.0469   23.1294  -31.2231 H   0  0  0  0  0  0  0  0  0  0  0  0
  -10.0153   20.6624  -31.5131 H   0  0  0  0  0  0  0  0  0  0  0  0
   -8.7825   18.4655  -30.5142 H   0  0  0  0  0  0  0  0  0  0  0  0
   -9.9029   18.7092  -31.8969 H   0  0  0  0  0  0  0  0  0  0  0  0
   -8.7653   17.3191  -31.8969 H   0  0  0  0  0  0  0  0  0  0  0  0
   -7.7397   16.6180  -33.0235 H   0  0  0  0  0  0  0  0  0  0  0  0
   -5.8557   15.5578  -34.2369 H   0  0  0  0  0  0  0  0  0  0  0  0
   -3.7690   15.7470  -35.2020 H   0  0  0  0  0  0  0  0  0  0  0  0
   -3.6840   17.1190  -36.1910 H   0  0  0  0  0  0  0  0  0  0  0  0
   -2.4541   17.1136  -33.5054 H   0  0  0  0  0  0  0  0  0  0  0  0
   -1.6107   16.4105  -34.9270 H   0  0  0  0  0  0  0  0  0  0  0  0
   -2.0775   18.1451  -34.9270 H   0  0  0  0  0  0  0  0  0  0  0  0
   -3.8488   19.3720  -34.4873 H   0  0  0  0  0  0  0  0  0  0  0  0
  1  2  1  0
  2  3  1  0
  3  4  1  0
  4  5  1  0
  3  6  1  0
  6  7  1  0
  7  8  1  0
  8  9  1  0
  9 10  1  0
 10 11  2  0
 11 12  1  0
 12 13  2  0
 13 14  1  0
 14 15  2  0
 15 16  1  0
 16 17  2  0
 17 18  1  0
 17 19  1  0
 19 20  2  0
 20 21  1  0
 21 22  2  0
 22 23  1  0
 23 24  1  0
 22 25  1  0
 25 26  2  0
 26 10  1  0
 16 11  1  0
 26 19  1  0
  1 27  1  0
  1 28  1  0
  1 29  1  0
  2 30  1  0
  2 31  1  0
  4 32  1  0
  4 33  1  0
  5 34  1  0
  5 35  1  0
  5 36  1  0
  6 37  1  0
  6 38  1  0
  7 39  1  0
  7 40  1  0
  8 41  1  0
  8 42  1  0
  9 43  1  0
 12 44  1  0
 13 45  1  0
 14 46  1  0
 15 47  1  0
 18 48  1  0
 18 49  1  0
 18 50  1  0
 20 51  1  0
 21 52  1  0
 23 53  1  0
 23 54  1  0
 24 55  1  0
 24 56  1  0
 24 57  1  0
 25 58  1  0
M  CHG  2  17   1  23   1
M  END
>  <UniqueID>  (8) 
8

>  <SMILES>  (8) 
CCN(CC)CCCNc1c2ccccc2[n+](C)c2ccc([NH2+]C)cc12

>  <Energy>  (8) 
78.42966925092905

>  <Genealogy>  (8) 
CCN(CC)CCCNc1c2ccccc2[n+](C)c2ccc([NH2+]C)cc12 (protonated)
CCN(CC)CCCNc1c2ccccc2[n+](C)c2ccc([NH2+]C)cc12 (3D coordinates assigned)
CCN(CC)CCCNc1c2ccccc2[n+](C)c2ccc([NH2+]C)cc12 (optimized conformer: 78.42966925092905 kcal/mol)

>  <smiles>  (8) 
CCN(CC)CCCNc1c2ccccc2[n+](C)c2ccc(NC)cc12

>  <score_type>  (8) 
oracle

>  <origin>  (8) 
adg

>  <m_score__min__energy>  (8) 
-8.5500000000000007

>  <m_primary>  (8) 
energy

$$$$
8:0
     RDKit          3D

 60 62  0  0  0  0  0  0  0  0999 V2000
   -2.8610   25.0950  -26.3860 C   0  0  0  0  0  0  0  0  0  0  0  0
   -2.2730   24.1500  -27.4500 C   0  0  0  0  0  0  0  0  0  0  0  0
   -3.2900   23.4340  -28.2680 N   0  0  0  0  0  0  0  0  0  0  0  0
   -3.4960   22.0180  -27.8660 C   0  0  0  0  0  0  0  0  0  0  0  0
   -2.2690   21.1340  -28.1310 C   0  0  0  0  0  0  0  0  0  0  0  0
   -4.5910   24.1750  -28.2960 C   0  0  0  0  0  0  0  0  0  0  0  0
   -4.9140   24.7270  -29.6900 C   0  0  0  0  0  0  0  0  0  0  0  0
   -3.8950   24.3430  -30.5910 O   0  0  0  0  0  0  0  0  0  0  0  0
   -4.3050   23.2190  -31.3490 C   0  0  0  0  0  0  0  0  0  0  0  0
   -3.1740   22.1750  -31.4350 C   0  0  0  0  0  0  0  0  0  0  0  0
   -3.3310   21.2570  -32.6510 C   0  0  0  0  0  0  0  0  0  0  0  0
   -4.6170   21.4930  -33.3060 N   0  0  0  0  0  0  0  0  0  0  0  0
   -5.7650   20.6710  -33.0310 C   0  0  0  0  0  0  0  0  0  0  0  0
   -6.9580   21.2500  -32.5610 C   0  0  0  0  0  0  0  0  0  0  0  0
   -7.0460   22.6390  -32.3220 C   0  0  0  0  0  0  0  0  0  0  0  0
   -8.2470   23.2180  -31.9250 C   0  0  0  0  0  0  0  0  0  0  0  0
   -9.3770   22.4310  -31.7620 C   0  0  0  0  0  0  0  0  0  0  0  0
   -9.3070   21.0520  -31.9570 C   0  0  0  0  0  0  0  0  0  0  0  0
   -8.0860   20.4240  -32.3140 C   0  0  0  0  0  0  0  0  0  0  0  0
   -7.9820   19.0500  -32.4300 N   0  0  0  0  0  0  0  0  0  0  0  0
   -9.0560   18.1800  -31.8960 C   0  0  0  0  0  0  0  0  0  0  0  0
   -6.8600   18.4870  -33.0110 C   0  0  0  0  0  0  0  0  0  0  0  0
   -6.8180   17.1180  -33.3780 C   0  0  0  0  0  0  0  0  0  0  0  0
   -5.6660   16.5490  -33.9160 C   0  0  0  0  0  0  0  0  0  0  0  0
   -4.5310   17.3260  -34.1170 C   0  0  0  0  0  0  0  0  0  0  0  0
   -3.0820   16.6040  -34.7890 Cl  0  0  0  0  0  0  0  0  0  0  0  0
   -4.5550   18.6840  -33.8050 C   0  0  0  0  0  0  0  0  0  0  0  0
   -5.7160   19.2860  -33.2750 C   0  0  0  0  0  0  0  0  0  0  0  0
   -2.6224   24.7116  -25.3830 H   0  0  0  0  0  0  0  0  0  0  0  0
   -2.4277   26.0988  -26.5075 H   0  0  0  0  0  0  0  0  0  0  0  0
   -3.9529   25.1498  -26.5075 H   0  0  0  0  0  0  0  0  0  0  0  0
   -1.6434   24.7450  -28.1279 H   0  0  0  0  0  0  0  0  0  0  0  0
   -1.7086   23.3783  -26.9061 H   0  0  0  0  0  0  0  0  0  0  0  0
   -2.8980   23.4050  -29.2410 H   0  0  0  0  0  0  0  0  0  0  0  0
   -3.7232   21.9887  -26.7901 H   0  0  0  0  0  0  0  0  0  0  0  0
   -4.3240   21.6213  -28.4718 H   0  0  0  0  0  0  0  0  0  0  0  0
   -1.8307   20.8182  -27.1728 H   0  0  0  0  0  0  0  0  0  0  0  0
   -2.5736   20.2465  -28.7051 H   0  0  0  0  0  0  0  0  0  0  0  0
   -1.5236   21.7039  -28.7051 H   0  0  0  0  0  0  0  0  0  0  0  0
   -5.3956   23.4896  -27.9913 H   0  0  0  0  0  0  0  0  0  0  0  0
   -4.5086   25.0278  -27.6061 H   0  0  0  0  0  0  0  0  0  0  0  0
   -5.8782   24.3223  -30.0313 H   0  0  0  0  0  0  0  0  0  0  0  0
   -4.9744   25.8245  -29.6473 H   0  0  0  0  0  0  0  0  0  0  0  0
   -5.1827   22.7612  -30.8694 H   0  0  0  0  0  0  0  0  0  0  0  0
   -4.5554   23.5524  -32.3669 H   0  0  0  0  0  0  0  0  0  0  0  0
   -2.2105   22.7006  -31.5090 H   0  0  0  0  0  0  0  0  0  0  0  0
   -3.2186   21.5508  -30.5304 H   0  0  0  0  0  0  0  0  0  0  0  0
   -2.5185   21.4587  -33.3646 H   0  0  0  0  0  0  0  0  0  0  0  0
   -3.2886   20.2103  -32.3154 H   0  0  0  0  0  0  0  0  0  0  0  0
   -4.7640   22.4100  -33.7860 H   0  0  0  0  0  0  0  0  0  0  0  0
   -6.1546   23.2704  -32.4512 H   0  0  0  0  0  0  0  0  0  0  0  0
   -8.3003   24.3011  -31.7402 H   0  0  0  0  0  0  0  0  0  0  0  0
  -10.3324   22.8963  -31.4778 H   0  0  0  0  0  0  0  0  0  0  0  0
  -10.2133   20.4412  -31.8320 H   0  0  0  0  0  0  0  0  0  0  0  0
   -9.0313   18.2000  -30.7965 H   0  0  0  0  0  0  0  0  0  0  0  0
  -10.0323   18.5450  -32.2476 H   0  0  0  0  0  0  0  0  0  0  0  0
   -8.9016   17.1492  -32.2476 H   0  0  0  0  0  0  0  0  0  0  0  0
   -7.7122   16.4934  -33.2351 H   0  0  0  0  0  0  0  0  0  0  0  0
   -5.6544   15.4818  -34.1825 H   0  0  0  0  0  0  0  0  0  0  0  0
   -3.6563   19.2952  -33.9743 H   0  0  0  0  0  0  0  0  0  0  0  0
  1  2  1  0
  2  3  1  0
  3  4  1  0
  4  5  1  0
  3  6  1  0
  6  7  1  0
  7  8  1  0
  8  9  1  0
  9 10  1  0
 10 11  1  0
 11 12  1  0
 12 13  1  0
 13 14  2  0
 14 15  1  0
 15 16  2  0
 16 17  1  0
 17 18  2  0
 18 19  1  0
 19 20  2  0
 20 21  1  0
 20 22  1  0
 22 23  2  0
 23 24  1  0
 24 25  2  0
 25 26  1  0
 25 27  1  0
 27 28  2  0
 28 13  1  0
 19 14  1  0
 28 22  1  0
  1 29  1  0
  1 30  1  0
  1 31  1  0
  2 32  1  0
  2 33  1  0
  3 34  1  0
  4 35  1  0
  4 36  1  0
  5 37  1  0
  5 38  1  0
  5 39  1  0
  6 40  1  0
  6 41  1  0
  7 42  1  0
  7 43  1  0
  9 44  1  0
  9 45  1  0
 10 46  1  0
 10 47  1  0
 11 48  1  0
 11 49  1  0
 12 50  1  0
 15 51  1  0
 16 52  1  0
 17 53  1  0
 18 54  1  0
 21 55  1  0
 21 56  1  0
 21 57  1  0
 23 58  1  0
 24 59  1  0
 27 60  1  0
M  CHG  2   3   1  20   1
M  END
>  <UniqueID>  (9) 
9

>  <SMILES>  (9) 
CC[NH+](CC)CCOCCCNc1c2ccccc2[n+](C)c2ccc(Cl)cc12

>  <Energy>  (9) 
91.91315302419247

>  <Genealogy>  (9) 
CC[NH+](CC)CCOCCCNc1c2ccccc2[n+](C)c2ccc(Cl)cc12 (protonated)
CC[NH+](CC)CCOCCCNc1c2ccccc2[n+](C)c2ccc(Cl)cc12 (3D coordinates assigned)
CC[NH+](CC)CCOCCCNc1c2ccccc2[n+](C)c2ccc(Cl)cc12 (optimized conformer: 91.91315302419247 kcal/mol)

>  <smiles>  (9) 
CCN(CC)CCOCCCNc1c2ccccc2[n+](C)c2ccc(Cl)cc12

>  <score_type>  (9) 
oracle

>  <origin>  (9) 
adg

>  <m_score__min__energy>  (9) 
-8.1300000000000008

>  <m_primary>  (9) 
energy

$$$$
9:0
     RDKit          3D

 41 41  0  0  0  0  0  0  0  0999 V2000
   -4.2160   25.6720  -31.6770 H   0  0  0  0  0  0  0  0  0  0  0  0
   -3.9180   25.4030  -30.7680 O   0  0  0  0  0  0  0  0  0  0  0  0
   -5.0770   25.0960  -30.0410 C   0  0  0  0  0  0  0  0  0  0  0  0
   -5.9551   25.1961  -30.6959 H   0  0  0  0  0  0  0  0  0  0  0  0
   -5.1646   25.7891  -29.1913 H   0  0  0  0  0  0  0  0  0  0  0  0
   -4.9980   23.6440  -29.5070 C   0  0  0  0  0  0  0  0  0  0  0  0
   -5.2352   22.9691  -30.3426 H   0  0  0  0  0  0  0  0  0  0  0  0
   -5.7084   23.6075  -28.6680 H   0  0  0  0  0  0  0  0  0  0  0  0
   -3.6760   23.2020  -28.9240 N   0  0  0  0  0  0  0  0  0  0  0  0
   -2.7080   23.0530  -30.0700 C   0  0  0  0  0  0  0  0  0  0  0  0
   -2.6787   24.0065  -30.6178 H   0  0  0  0  0  0  0  0  0  0  0  0
   -1.7423   22.7761  -29.6220 H   0  0  0  0  0  0  0  0  0  0  0  0
   -3.0480   21.9500  -31.0610 C   0  0  0  0  0  0  0  0  0  0  0  0
   -2.5896   20.9630  -30.9007 H   0  0  0  0  0  0  0  0  0  0  0  0
   -3.8660   22.0910  -32.1170 C   0  0  0  0  0  0  0  0  0  0  0  0
   -3.5259   22.7378  -32.9392 H   0  0  0  0  0  0  0  0  0  0  0  0
   -5.1850   21.4460  -32.2600 C   0  0  0  0  0  0  0  0  0  0  0  0
   -5.2500   20.0910  -32.6190 C   0  0  0  0  0  0  0  0  0  0  0  0
   -4.3236   19.5325  -32.8188 H   0  0  0  0  0  0  0  0  0  0  0  0
   -6.4880   19.4470  -32.7240 C   0  0  0  0  0  0  0  0  0  0  0  0
   -6.5335   18.3887  -33.0206 H   0  0  0  0  0  0  0  0  0  0  0  0
   -7.6680   20.1480  -32.4520 C   0  0  0  0  0  0  0  0  0  0  0  0
   -9.2180   19.3390  -32.5820 Cl  0  0  0  0  0  0  0  0  0  0  0  0
   -7.6080   21.4900  -32.0650 C   0  0  0  0  0  0  0  0  0  0  0  0
   -8.5349   22.0393  -31.8435 H   0  0  0  0  0  0  0  0  0  0  0  0
   -6.3730   22.1350  -31.9590 C   0  0  0  0  0  0  0  0  0  0  0  0
   -6.3301   23.1864  -31.6386 H   0  0  0  0  0  0  0  0  0  0  0  0
   -3.1000   24.2960  -28.0620 C   0  0  0  0  0  0  0  0  0  0  0  0
   -3.0970   25.2210  -28.6572 H   0  0  0  0  0  0  0  0  0  0  0  0
   -2.1047   23.9331  -27.7657 H   0  0  0  0  0  0  0  0  0  0  0  0
   -3.8250   24.5960  -26.7430 C   0  0  0  0  0  0  0  0  0  0  0  0
   -3.1746   24.3269  -25.8977 H   0  0  0  0  0  0  0  0  0  0  0  0
   -4.0666   25.6680  -26.6930 H   0  0  0  0  0  0  0  0  0  0  0  0
   -4.7534   24.0082  -26.6930 H   0  0  0  0  0  0  0  0  0  0  0  0
   -3.8130   21.9110  -28.1610 C   0  0  0  0  0  0  0  0  0  0  0  0
   -4.4341   22.1084  -27.2748 H   0  0  0  0  0  0  0  0  0  0  0  0
   -4.2532   21.1938  -28.8694 H   0  0  0  0  0  0  0  0  0  0  0  0
   -2.4990   21.2660  -27.6810 C   0  0  0  0  0  0  0  0  0  0  0  0
   -2.4763   21.2549  -26.5813 H   0  0  0  0  0  0  0  0  0  0  0  0
   -2.4370   20.2350  -28.0595 H   0  0  0  0  0  0  0  0  0  0  0  0
   -1.6454   21.8475  -28.0595 H   0  0  0  0  0  0  0  0  0  0  0  0
  1  2  1  0
  2  3  1  0
  3  4  1  0
  3  5  1  0
  3  6  1  0
  6  7  1  0
  6  8  1  0
  6  9  1  0
  9 10  1  0
 10 11  1  0
 10 12  1  0
 10 13  1  0
 13 14  1  0
 13 15  2  0
 15 16  1  0
 15 17  1  0
 17 18  2  0
 18 19  1  0
 18 20  1  0
 20 21  1  0
 20 22  2  0
 22 23  1  0
 22 24  1  0
 24 25  1  0
 24 26  2  0
 26 27  1  0
  9 28  1  0
 28 29  1  0
 28 30  1  0
 28 31  1  0
 31 32  1  0
 31 33  1  0
 31 34  1  0
  9 35  1  0
 35 36  1  0
 35 37  1  0
 35 38  1  0
 38 39  1  0
 38 40  1  0
 38 41  1  0
 26 17  1  0
M  CHG  1   9   1
M  END
>  <UniqueID>  (10) 
10

>  <SMILES>  (10) 
CC[N+](CC)(C/C=C\c1ccc(Cl)cc1)CCO

>  <Energy>  (10) 
67.36165042089986

>  <Genealogy>  (10) 
CC[N+](CC)(C/C=C\c1ccc(Cl)cc1)CCO (cis-trans isomerization)
CC[N+](CC)(C/C=C\c1ccc(Cl)cc1)CCO (3D coordinates assigned)
CC[N+](CC)(C/C=C\c1ccc(Cl)cc1)CCO (optimized conformer: 67.36165042089986 kcal/mol)

>  <smiles>  (10) 
CC[N+](CC)(CC=Cc1ccc(Cl)cc1)CCO

>  <score_type>  (10) 
oracle

>  <origin>  (10) 
adg

>  <m_score__min__energy>  (10) 
-6.9900000000000002

>  <m_primary>  (10) 
energy

$$$$
10:0
     RDKit          3D

 31 32  0  0  0  0  0  0  0  0999 V2000
   -7.2700   17.8040  -31.5840 C   0  0  0  0  0  0  0  0  0  0  0  0
   -8.4520   18.4270  -31.5880 C   0  0  0  0  0  0  0  0  0  0  0  0
   -8.6420   19.7660  -32.2540 C   0  0  0  0  0  0  0  0  0  0  0  0
   -7.8100   19.9110  -33.4620 N   0  0  0  0  0  0  0  0  0  0  0  0
   -6.5670   20.5900  -33.1670 C   0  0  0  0  0  0  0  0  0  0  0  0
   -6.5900   21.8660  -32.5750 C   0  0  0  0  0  0  0  0  0  0  0  0
   -5.3970   22.5370  -32.2520 C   0  0  0  0  0  0  0  0  0  0  0  0
   -5.3860   23.8090  -31.6590 O   0  0  0  0  0  0  0  0  0  0  0  0
   -6.2990   24.2350  -30.6510 C   0  0  0  0  0  0  0  0  0  0  0  0
   -4.1700   21.9260  -32.5240 C   0  0  0  0  0  0  0  0  0  0  0  0
   -4.1210   20.6550  -33.1080 C   0  0  0  0  0  0  0  0  0  0  0  0
   -2.8960   20.0300  -33.3790 C   0  0  0  0  0  0  0  0  0  0  0  0
   -2.8750   18.7600  -33.9560 C   0  0  0  0  0  0  0  0  0  0  0  0
   -4.0800   18.1240  -34.2590 C   0  0  0  0  0  0  0  0  0  0  0  0
   -5.2630   18.7400  -33.9940 N   0  0  0  0  0  0  0  0  0  0  0  0
   -5.3220   19.9790  -33.4300 C   0  0  0  0  0  0  0  0  0  0  0  0
   -7.1647   16.8274  -31.0889 H   0  0  0  0  0  0  0  0  0  0  0  0
   -6.4022   18.2677  -32.0758 H   0  0  0  0  0  0  0  0  0  0  0  0
   -9.3099   17.9498  -31.0918 H   0  0  0  0  0  0  0  0  0  0  0  0
   -9.6994   19.8737  -32.5373 H   0  0  0  0  0  0  0  0  0  0  0  0
   -8.3373   20.5446  -31.5391 H   0  0  0  0  0  0  0  0  0  0  0  0
   -8.3410   20.4220  -34.2050 H   0  0  0  0  0  0  0  0  0  0  0  0
   -7.6060   18.9590  -33.8460 H   0  0  0  0  0  0  0  0  0  0  0  0
   -7.5562   22.3464  -32.3614 H   0  0  0  0  0  0  0  0  0  0  0  0
   -5.8692   24.0344  -29.6585 H   0  0  0  0  0  0  0  0  0  0  0  0
   -6.4865   25.3136  -30.7582 H   0  0  0  0  0  0  0  0  0  0  0  0
   -7.2460   23.6858  -30.7582 H   0  0  0  0  0  0  0  0  0  0  0  0
   -3.2342   22.4487  -32.2769 H   0  0  0  0  0  0  0  0  0  0  0  0
   -1.9521   20.5404  -33.1370 H   0  0  0  0  0  0  0  0  0  0  0  0
   -1.9169   18.2640  -34.1704 H   0  0  0  0  0  0  0  0  0  0  0  0
   -4.0727   17.1222  -34.7132 H   0  0  0  0  0  0  0  0  0  0  0  0
  1  2  2  0
  2  3  1  0
  3  4  1  0
  4  5  1  0
  5  6  2  0
  6  7  1  0
  7  8  1  0
  8  9  1  0
  7 10  2  0
 10 11  1  0
 11 12  2  0
 12 13  1  0
 13 14  2  0
 14 15  1  0
 15 16  2  0
 16  5  1  0
 16 11  1  0
  1 17  1  0
  1 18  1  0
  2 19  1  0
  3 20  1  0
  3 21  1  0
  4 22  1  0
  4 23  1  0
  6 24  1  0
  9 25  1  0
  9 26  1  0
  9 27  1  0
 10 28  1  0
 12 29  1  0
 13 30  1  0
 14 31  1  0
M  CHG  1   4   1
M  END
>  <UniqueID>  (11) 
11

>  <SMILES>  (11) 
C=CC[NH2+]c1cc(OC)cc2cccnc12

>  <Energy>  (11) 
32.72050065334739

>  <Genealogy>  (11) 
C=CC[NH2+]c1cc(OC)cc2cccnc12 (protonated)
C=CC[NH2+]c1cc(OC)cc2cccnc12 (3D coordinates assigned)
C=CC[NH2+]c1cc(OC)cc2cccnc12 (optimized conformer: 32.72050065334739 kcal/mol)

>  <smiles>  (11) 
C=CCNc1cc(OC)cc2cccnc12

>  <score_type>  (11) 
oracle

>  <origin>  (11) 
adg

>  <m_score__min__energy>  (11) 
-5.5099999999999998

>  <m_primary>  (11) 
energy

$$$$
11:0
     RDKit          3D

 35 37  0  0  0  0  0  0  0  0999 V2000
   -4.2200   22.4190  -31.9900 C   0  0  0  0  0  0  0  0  0  0  0  0
   -5.6360   22.6530  -31.7140 N   0  0  0  0  0  0  0  0  0  0  0  0
   -6.1990   23.6980  -31.0360 C   0  0  0  0  0  0  0  0  0  0  0  0
   -5.4300   24.8590  -30.4490 C   0  0  0  0  0  0  0  0  0  0  0  0
   -5.3770   24.8160  -28.9660 N   0  0  0  0  0  0  0  0  0  0  0  0
   -4.2380   24.0650  -28.3820 C   0  0  0  0  0  0  0  0  0  0  0  0
   -2.9630   24.1120  -29.2410 C   0  0  0  0  0  0  0  0  0  0  0  0
   -1.8860   24.7530  -28.3770 C   0  0  0  0  0  0  0  0  0  0  0  0
   -2.3310   24.5450  -26.9390 C   0  0  0  0  0  0  0  0  0  0  0  0
   -3.8510   24.5330  -26.9710 C   0  0  0  0  0  0  0  0  0  0  0  0
   -7.5790   23.5010  -30.8620 C   0  0  0  0  0  0  0  0  0  0  0  0
   -7.8100   22.2990  -31.4790 C   0  0  0  0  0  0  0  0  0  0  0  0
   -9.0710   21.2300  -31.7340 S   0  0  0  0  0  0  0  0  0  0  0  0
   -8.0610   20.0950  -32.5230 C   0  0  0  0  0  0  0  0  0  0  0  0
   -6.7400   20.5650  -32.5640 C   0  0  0  0  0  0  0  0  0  0  0  0
   -6.6600   21.8180  -31.9630 C   0  0  0  0  0  0  0  0  0  0  0  0
   -3.6715   22.3284  -31.0408 H   0  0  0  0  0  0  0  0  0  0  0  0
   -4.1078   21.4901  -32.5685 H   0  0  0  0  0  0  0  0  0  0  0  0
   -3.8149   23.2624  -32.5685 H   0  0  0  0  0  0  0  0  0  0  0  0
   -4.4019   24.8342  -30.8393 H   0  0  0  0  0  0  0  0  0  0  0  0
   -5.9507   25.7840  -30.7375 H   0  0  0  0  0  0  0  0  0  0  0  0
   -5.3730   25.7800  -28.5580 H   0  0  0  0  0  0  0  0  0  0  0  0
   -6.2560   24.3650  -28.6210 H   0  0  0  0  0  0  0  0  0  0  0  0
   -4.6217   23.0349  -28.3410 H   0  0  0  0  0  0  0  0  0  0  0  0
   -2.6622   23.0945  -29.5314 H   0  0  0  0  0  0  0  0  0  0  0  0
   -3.1260   24.6852  -30.1656 H   0  0  0  0  0  0  0  0  0  0  0  0
   -0.9149   24.2667  -28.5517 H   0  0  0  0  0  0  0  0  0  0  0  0
   -1.7605   25.8203  -28.6117 H   0  0  0  0  0  0  0  0  0  0  0  0
   -1.9488   23.5878  -26.5548 H   0  0  0  0  0  0  0  0  0  0  0  0
   -1.9471   25.3367  -26.2788 H   0  0  0  0  0  0  0  0  0  0  0  0
   -4.2442   23.8368  -26.2156 H   0  0  0  0  0  0  0  0  0  0  0  0
   -4.2678   25.5258  -26.7460 H   0  0  0  0  0  0  0  0  0  0  0  0
   -8.3017   24.1552  -30.3523 H   0  0  0  0  0  0  0  0  0  0  0  0
   -8.3996   19.1344  -32.9385 H   0  0  0  0  0  0  0  0  0  0  0  0
   -5.8914   20.0227  -33.0064 H   0  0  0  0  0  0  0  0  0  0  0  0
  1  2  1  0
  2  3  1  0
  3  4  1  0
  4  5  1  0
  5  6  1  0
  6  7  1  0
  7  8  1  0
  8  9  1  0
  9 10  1  0
  3 11  2  0
 11 12  1  0
 12 13  1  0
 13 14  1  0
 14 15  2  0
 15 16  1  0
 16  2  1  0
 10  6  1  0
 16 12  2  0
  1 17  1  0
  1 18  1  0
  1 19  1  0
  4 20  1  0
  4 21  1  0
  5 22  1  0
  5 23  1  0
  6 24  1  0
  7 25  1  0
  7 26  1  0
  8 27  1  0
  8 28  1  0
  9 29  1  0
  9 30  1  0
 10 31  1  0
 10 32  1  0
 11 33  1  0
 14 34  1  0
 15 35  1  0
M  CHG  1   5   1
M  END
>  <UniqueID>  (12) 
12

>  <SMILES>  (12) 
Cn1c(C[NH2+]C2CCCC2)cc2sccc21

>  <Energy>  (12) 
115.7724102765525

>  <Genealogy>  (12) 
Cn1c(C[NH2+]C2CCCC2)cc2sccc21 (protonated)
Cn1c(C[NH2+]C2CCCC2)cc2sccc21 (3D coordinates assigned)
Cn1c(C[NH2+]C2CCCC2)cc2sccc21 (nonaromatic ring conformer: 115.7724102765525 kcal/mol)

>  <smiles>  (12) 
Cn1c(CNC2CCCC2)cc2sccc21

>  <score_type>  (12) 
oracle

>  <origin>  (12) 
adg

>  <m_score__min__energy>  (12) 
-6.2400000000000002

>  <m_primary>  (12) 
energy

$$$$
12:0
     RDKit          3D

 91 93  0  0  0  0  0  0  0  0999 V2000
   -6.1140   18.4820  -33.8170 C   0  0  0  0  0  0  0  0  0  0  0  0
   -6.6160   18.4080  -32.3790 C   0  0  0  0  0  0  0  0  0  0  0  0
   -8.1500   18.4300  -32.3250 C   0  0  0  0  0  0  0  0  0  0  0  0
   -8.7000   19.7270  -31.7090 C   0  0  0  0  0  0  0  0  0  0  0  0
   -7.9090   20.9710  -32.1500 C   0  0  0  0  0  0  0  0  0  0  0  0
   -8.6250   22.2800  -31.7850 C   0  0  0  0  0  0  0  0  0  0  0  0
   -7.6410   23.4400  -31.5390 C   0  0  0  0  0  0  0  0  0  0  0  0
   -7.1390   23.4870  -30.0880 C   0  0  0  0  0  0  0  0  0  0  0  0
   -6.4850   24.8330  -29.7330 C   0  0  0  0  0  0  0  0  0  0  0  0
   -5.5510   25.3130  -30.8500 C   0  0  0  0  0  0  0  0  0  0  0  0
   -4.3420   24.5540  -30.8760 O   0  0  0  0  0  0  0  0  0  0  0  0
   -4.2400   23.1710  -31.1090 C   0  0  0  0  0  0  0  0  0  0  0  0
   -4.5050   22.6020  -32.3710 C   0  0  0  0  0  0  0  0  0  0  0  0
   -4.3760   21.2240  -32.5670 C   0  0  0  0  0  0  0  0  0  0  0  0
   -3.9780   20.4010  -31.5140 C   0  0  0  0  0  0  0  0  0  0  0  0
   -3.7130   20.9500  -30.2590 C   0  0  0  0  0  0  0  0  0  0  0  0
   -3.8480   22.3320  -30.0440 C   0  0  0  0  0  0  0  0  0  0  0  0
   -3.5420   22.9080  -28.6800 C   0  0  0  0  0  0  0  0  0  0  0  0
   -2.1580   23.5730  -28.6250 C   0  0  0  0  0  0  0  0  0  0  0  0
   -1.0330   22.6940  -29.1940 C   0  0  0  0  0  0  0  0  0  0  0  0
   -0.3450   21.9360  -28.1360 N   0  0  0  0  0  0  0  0  0  0  0  0
   -1.1140   21.9470  -26.8820 C   0  0  0  0  0  0  0  0  0  0  0  0
   -1.3010   20.5250  -26.3340 C   0  0  0  0  0  0  0  0  0  0  0  0
   -1.8970   19.5540  -27.3790 C   0  0  0  0  0  0  0  0  0  0  0  0
   -0.8130   18.6940  -28.0540 C   0  0  0  0  0  0  0  0  0  0  0  0
    0.1120   19.5120  -28.8610 N   0  0  0  0  0  0  0  0  0  0  0  0
    0.9690   18.6790  -29.7250 C   0  0  0  0  0  0  0  0  0  0  0  0
    0.2150   18.2370  -30.9790 C   0  0  0  0  0  0  0  0  0  0  0  0
   -0.3160   19.2100  -31.8780 C   0  0  0  0  0  0  0  0  0  0  0  0
   -0.1380   20.6040  -31.6990 C   0  0  0  0  0  0  0  0  0  0  0  0
   -0.6880   21.5180  -32.6010 C   0  0  0  0  0  0  0  0  0  0  0  0
   -1.4200   21.0680  -33.6990 C   0  0  0  0  0  0  0  0  0  0  0  0
   -1.6000   19.7020  -33.9040 C   0  0  0  0  0  0  0  0  0  0  0  0
   -1.0510   18.7710  -33.0060 C   0  0  0  0  0  0  0  0  0  0  0  0
   -1.2290   17.4100  -33.2270 C   0  0  0  0  0  0  0  0  0  0  0  0
   -0.6670   16.4900  -32.3520 C   0  0  0  0  0  0  0  0  0  0  0  0
    0.0560   16.8920  -31.2650 N   0  0  0  0  0  0  0  0  0  0  0  0
    0.6110   15.8390  -30.3970 C   0  0  0  0  0  0  0  0  0  0  0  0
   -5.0258   18.6424  -33.8177 H   0  0  0  0  0  0  0  0  0  0  0  0
   -6.3461   17.5399  -34.3353 H   0  0  0  0  0  0  0  0  0  0  0  0
   -6.6080   19.3170  -34.3353 H   0  0  0  0  0  0  0  0  0  0  0  0
   -6.2541   17.4761  -31.9201 H   0  0  0  0  0  0  0  0  0  0  0  0
   -6.2355   19.2830  -31.8316 H   0  0  0  0  0  0  0  0  0  0  0  0
   -8.5403   18.3328  -33.3488 H   0  0  0  0  0  0  0  0  0  0  0  0
   -8.4736   17.5942  -31.6872 H   0  0  0  0  0  0  0  0  0  0  0  0
   -9.7485   19.8476  -32.0189 H   0  0  0  0  0  0  0  0  0  0  0  0
   -8.6081   19.6429  -30.6161 H   0  0  0  0  0  0  0  0  0  0  0  0
   -6.9255   20.9571  -31.6576 H   0  0  0  0  0  0  0  0  0  0  0  0
   -7.8120   20.9359  -33.2452 H   0  0  0  0  0  0  0  0  0  0  0  0
   -9.2976   22.5565  -32.6103 H   0  0  0  0  0  0  0  0  0  0  0  0
   -9.1810   22.1087  -30.8514 H   0  0  0  0  0  0  0  0  0  0  0  0
   -6.7763   23.3171  -32.2077 H   0  0  0  0  0  0  0  0  0  0  0  0
   -8.1758   24.3803  -31.7386 H   0  0  0  0  0  0  0  0  0  0  0  0
   -7.9925   23.3212  -29.4142 H   0  0  0  0  0  0  0  0  0  0  0  0
   -6.3747   22.7042  -29.9738 H   0  0  0  0  0  0  0  0  0  0  0  0
   -7.2735   25.5842  -29.5783 H   0  0  0  0  0  0  0  0  0  0  0  0
   -5.8896   24.6979  -28.8180 H   0  0  0  0  0  0  0  0  0  0  0  0
   -6.0634   25.2043  -31.8173 H   0  0  0  0  0  0  0  0  0  0  0  0
   -5.2962   26.3663  -30.6614 H   0  0  0  0  0  0  0  0  0  0  0  0
   -4.8152   23.2463  -33.2068 H   0  0  0  0  0  0  0  0  0  0  0  0
   -4.5889   20.7878  -33.5541 H   0  0  0  0  0  0  0  0  0  0  0  0
   -3.8728   19.3176  -31.6730 H   0  0  0  0  0  0  0  0  0  0  0  0
   -3.3964   20.2967  -29.4326 H   0  0  0  0  0  0  0  0  0  0  0  0
   -4.3060   23.6603  -28.4342 H   0  0  0  0  0  0  0  0  0  0  0  0
   -3.5464   22.0797  -27.9562 H   0  0  0  0  0  0  0  0  0  0  0  0
   -2.1971   24.5071  -29.2047 H   0  0  0  0  0  0  0  0  0  0  0  0
   -1.9257   23.7499  -27.5645 H   0  0  0  0  0  0  0  0  0  0  0  0
   -1.4650   21.9857  -29.9163 H   0  0  0  0  0  0  0  0  0  0  0  0
   -0.2963   23.3517  -29.6784 H   0  0  0  0  0  0  0  0  0  0  0  0
    0.5680   22.4160  -27.9650 H   0  0  0  0  0  0  0  0  0  0  0  0
   -0.5763   22.5512  -26.1365 H   0  0  0  0  0  0  0  0  0  0  0  0
   -2.1064   22.3757  -27.0853 H   0  0  0  0  0  0  0  0  0  0  0  0
   -0.3214   20.1397  -26.0147 H   0  0  0  0  0  0  0  0  0  0  0  0
   -2.0095   20.5840  -25.4946 H   0  0  0  0  0  0  0  0  0  0  0  0
   -2.6154   18.8894  -26.8767 H   0  0  0  0  0  0  0  0  0  0  0  0
   -2.3875   20.1548  -28.1590 H   0  0  0  0  0  0  0  0  0  0  0  0
   -0.2385   18.1701  -27.2759 H   0  0  0  0  0  0  0  0  0  0  0  0
   -1.3123   17.9799  -28.7254 H   0  0  0  0  0  0  0  0  0  0  0  0
    0.7260   20.0530  -28.2070 H   0  0  0  0  0  0  0  0  0  0  0  0
   -0.4240   20.2060  -29.4320 H   0  0  0  0  0  0  0  0  0  0  0  0
    1.8536   19.2609  -30.0232 H   0  0  0  0  0  0  0  0  0  0  0  0
    1.2699   17.7831  -29.1621 H   0  0  0  0  0  0  0  0  0  0  0  0
    0.4407   20.9714  -30.8387 H   0  0  0  0  0  0  0  0  0  0  0  0
   -0.5430   22.5971  -32.4444 H   0  0  0  0  0  0  0  0  0  0  0  0
   -1.8555   21.7918  -34.4036 H   0  0  0  0  0  0  0  0  0  0  0  0
   -2.1749   19.3503  -34.7734 H   0  0  0  0  0  0  0  0  0  0  0  0
   -1.8131   17.0632  -34.0922 H   0  0  0  0  0  0  0  0  0  0  0  0
   -0.8069   15.4149  -32.5380 H   0  0  0  0  0  0  0  0  0  0  0  0
    0.4642   16.1175  -29.3430 H   0  0  0  0  0  0  0  0  0  0  0  0
    0.0971   14.8879  -30.5999 H   0  0  0  0  0  0  0  0  0  0  0  0
    1.6861   15.7254  -30.5999 H   0  0  0  0  0  0  0  0  0  0  0  0
  1  2  1  0
  2  3  1  0
  3  4  1  0
  4  5  1  0
  5  6  1  0
  6  7  1  0
  7  8  1  0
  8  9  1  0
  9 10  1  0
 10 11  1  0
 11 12  1  0
 12 13  2  0
 13 14  1  0
 14 15  2  0
 15 16  1  0
 16 17  2  0
 17 18  1  0
 18 19  1  0
 19 20  1  0
 20 21  1  0
 21 22  1  0
 22 23  1  0
 23 24  1  0
 24 25  1  0
 25 26  1  0
 26 27  1  0
 27 28  1  0
 28 29  1  0
 29 30  2  0
 30 31  1  0
 31 32  2  0
 32 33  1  0
 33 34  2  0
 34 35  1  0
 35 36  2  0
 36 37  1  0
 37 38  1  0
 17 12  1  0
 37 28  2  0
 34 29  1  0
  1 39  1  0
  1 40  1  0
  1 41  1  0
  2 42  1  0
  2 43  1  0
  3 44  1  0
  3 45  1  0
  4 46  1  0
  4 47  1  0
  5 48  1  0
  5 49  1  0
  6 50  1  0
  6 51  1  0
  7 52  1  0
  7 53  1  0
  8 54  1  0
  8 55  1  0
  9 56  1  0
  9 57  1  0
 10 58  1  0
 10 59  1  0
 13 60  1  0
 14 61  1  0
 15 62  1  0
 16 63  1  0
 18 64  1  0
 18 65  1  0
 19 66  1  0
 19 67  1  0
 20 68  1  0
 20 69  1  0
 21 70  1  0
 22 71  1  0
 22 72  1  0
 23 73  1  0
 23 74  1  0
 24 75  1  0
 24 76  1  0
 25 77  1  0
 25 78  1  0
 26 79  1  0
 26 80  1  0
 27 81  1  0
 27 82  1  0
 30 83  1  0
 31 84  1  0
 32 85  1  0
 33 86  1  0
 35 87  1  0
 36 88  1  0
 38 89  1  0
 38 90  1  0
 38 91  1  0
M  CHG  2  26   1  37   1
M  END
>  <UniqueID>  (13) 
13

>  <SMILES>  (13) 
CCCCCCCCCCOc1ccccc1CCCNCCCC[NH2+]Cc1c2ccccc2cc[n+]1C

>  <Energy>  (13) 
79.9553103888202

>  <Genealogy>  (13) 
CCCCCCCCCCOc1ccccc1CCCNCCCC[NH2+]Cc1c2ccccc2cc[n+]1C (protonated)
CCCCCCCCCCOc1ccccc1CCCNCCCC[NH2+]Cc1c2ccccc2cc[n+]1C (3D coordinates assigned)
CCCCCCCCCCOc1ccccc1CCCNCCCC[NH2+]Cc1c2ccccc2cc[n+]1C (optimized conformer: 79.9553103888202 kcal/mol)

>  <smiles>  (13) 
CCCCCCCCCCOc1ccccc1CCCNCCCCNCc1c2ccccc2cc[n+]1C

>  <score_type>  (13) 
oracle

>  <origin>  (13) 
adg

>  <m_score__min__energy>  (13) 
-9.4700000000000006

>  <m_primary>  (13) 
energy

$$$$
13:0
     RDKit          3D

 52 54  0  0  0  0  0  0  0  0999 V2000
   -2.2170   20.7610  -28.6510 C   0  0  0  0  0  0  0  0  0  0  0  0
   -1.2150   21.2570  -29.6920 C   0  0  0  0  0  0  0  0  0  0  0  0
   -1.1480   20.3170  -30.8320 N   0  0  0  0  0  0  0  0  0  0  0  0
    0.0480   19.4630  -30.7130 C   0  0  0  0  0  0  0  0  0  0  0  0
   -1.1470   21.0350  -32.1280 C   0  0  0  0  0  0  0  0  0  0  0  0
   -2.5320   20.9620  -32.7740 C   0  0  0  0  0  0  0  0  0  0  0  0
   -3.4400   20.1800  -31.9360 N   0  0  0  0  0  0  0  0  0  0  0  0
   -4.8010   20.5970  -31.7320 C   0  0  0  0  0  0  0  0  0  0  0  0
   -5.8670   19.7700  -32.1310 C   0  0  0  0  0  0  0  0  0  0  0  0
   -5.6290   18.5420  -32.7840 C   0  0  0  0  0  0  0  0  0  0  0  0
   -6.6890   17.7500  -33.2190 C   0  0  0  0  0  0  0  0  0  0  0  0
   -7.9980   18.1690  -33.0210 C   0  0  0  0  0  0  0  0  0  0  0  0
   -8.2590   19.3680  -32.3580 C   0  0  0  0  0  0  0  0  0  0  0  0
   -7.2030   20.1750  -31.8630 C   0  0  0  0  0  0  0  0  0  0  0  0
   -7.4470   21.3320  -31.1460 N   0  0  0  0  0  0  0  0  0  0  0  0
   -8.8020   21.6000  -30.6130 C   0  0  0  0  0  0  0  0  0  0  0  0
   -6.4210   22.2280  -30.9080 C   0  0  0  0  0  0  0  0  0  0  0  0
   -6.6700   23.5380  -30.4270 C   0  0  0  0  0  0  0  0  0  0  0  0
   -5.6240   24.4170  -30.1530 C   0  0  0  0  0  0  0  0  0  0  0  0
   -4.3020   24.0290  -30.3540 C   0  0  0  0  0  0  0  0  0  0  0  0
   -3.2520   24.9660  -30.0770 N   0  0  0  0  0  0  0  0  0  0  0  0
   -2.3290   24.9130  -28.9810 C   0  0  0  0  0  0  0  0  0  0  0  0
   -2.5820   24.0770  -27.7640 C   0  0  0  0  0  0  0  0  0  0  0  0
   -1.2870   25.6190  -29.0280 O   0  0  0  0  0  0  0  0  0  0  0  0
   -4.0350   22.7710  -30.9070 C   0  0  0  0  0  0  0  0  0  0  0  0
   -5.0770   21.8580  -31.1740 C   0  0  0  0  0  0  0  0  0  0  0  0
   -1.8241   20.9555  -27.6421 H   0  0  0  0  0  0  0  0  0  0  0  0
   -3.1726   21.2901  -28.7806 H   0  0  0  0  0  0  0  0  0  0  0  0
   -2.3757   19.6803  -28.7806 H   0  0  0  0  0  0  0  0  0  0  0  0
   -1.5300   22.2461  -30.0558 H   0  0  0  0  0  0  0  0  0  0  0  0
   -0.2207   21.3246  -29.2264 H   0  0  0  0  0  0  0  0  0  0  0  0
    0.2773   19.2993  -29.6497 H   0  0  0  0  0  0  0  0  0  0  0  0
   -0.1424   18.4954  -31.2003 H   0  0  0  0  0  0  0  0  0  0  0  0
    0.9014   19.9572  -31.2003 H   0  0  0  0  0  0  0  0  0  0  0  0
   -0.8799   22.0887  -31.9594 H   0  0  0  0  0  0  0  0  0  0  0  0
   -0.4131   20.5640  -32.7985 H   0  0  0  0  0  0  0  0  0  0  0  0
   -2.9321   21.9799  -32.8915 H   0  0  0  0  0  0  0  0  0  0  0  0
   -2.4441   20.4769  -33.7573 H   0  0  0  0  0  0  0  0  0  0  0  0
   -3.0260   19.4710  -31.2890 H   0  0  0  0  0  0  0  0  0  0  0  0
   -4.5949   18.2064  -32.9514 H   0  0  0  0  0  0  0  0  0  0  0  0
   -6.4889   16.7914  -33.7200 H   0  0  0  0  0  0  0  0  0  0  0  0
   -8.8321   17.5531  -33.3884 H   0  0  0  0  0  0  0  0  0  0  0  0
   -9.3004   19.6929  -32.2168 H   0  0  0  0  0  0  0  0  0  0  0  0
   -8.7713   21.5939  -29.5134 H   0  0  0  0  0  0  0  0  0  0  0  0
   -9.1465   22.5837  -30.9648 H   0  0  0  0  0  0  0  0  0  0  0  0
   -9.4950   20.8215  -30.9648 H   0  0  0  0  0  0  0  0  0  0  0  0
   -7.7075   23.8666  -30.2672 H   0  0  0  0  0  0  0  0  0  0  0  0
   -5.8446   25.4261  -29.7747 H   0  0  0  0  0  0  0  0  0  0  0  0
   -2.3999   24.6788  -26.8614 H   0  0  0  0  0  0  0  0  0  0  0  0
   -3.6256   23.7293  -27.7685 H   0  0  0  0  0  0  0  0  0  0  0  0
   -1.9063   23.2090  -27.7685 H   0  0  0  0  0  0  0  0  0  0  0  0
   -2.9967   22.4899  -31.1369 H   0  0  0  0  0  0  0  0  0  0  0  0
  1  2  1  0
  2  3  1  0
  3  4  1  0
  3  5  1  0
  5  6  1  0
  6  7  1  0
  7  8  1  0
  8  9  2  0
  9 10  1  0
 10 11  2  0
 11 12  1  0
 12 13  2  0
 13 14  1  0
 14 15  2  0
 15 16  1  0
 15 17  1  0
 17 18  2  0
 18 19  1  0
 19 20  2  0
 20 21  1  0
 21 22  1  0
 22 23  1  0
 22 24  2  0
 20 25  1  0
 25 26  2  0
 26  8  1  0
 14  9  1  0
 26 17  1  0
  1 27  1  0
  1 28  1  0
  1 29  1  0
  2 30  1  0
  2 31  1  0
  4 32  1  0
  4 33  1  0
  4 34  1  0
  5 35  1  0
  5 36  1  0
  6 37  1  0
  6 38  1  0
  7 39  1  0
 10 40  1  0
 11 41  1  0
 12 42  1  0
 13 43  1  0
 16 44  1  0
 16 45  1  0
 16 46  1  0
 18 47  1  0
 19 48  1  0
 23 49  1  0
 23 50  1  0
 23 51  1  0
 25 52  1  0
M  CHG  2  15   1  21  -1
M  END
>  <UniqueID>  (14) 
14

>  <SMILES>  (14) 
CCN(C)CCNc1c2ccccc2[n+](C)c2ccc([N-]C(C)=O)cc12

>  <Energy>  (14) 
79.36432588550385

>  <Genealogy>  (14) 
CCN(C)CCNc1c2ccccc2[n+](C)c2ccc([N-]C(C)=O)cc12 (protonated)
CCN(C)CCNc1c2ccccc2[n+](C)c2ccc([N-]C(C)=O)cc12 (3D coordinates assigned)
CCN(C)CCNc1c2ccccc2[n+](C)c2ccc([N-]C(C)=O)cc12 (optimized conformer: 79.36432588550385 kcal/mol)

>  <smiles>  (14) 
CCN(C)CCNc1c2ccccc2[n+](C)c2ccc(NC(C)=O)cc12

>  <score_type>  (14) 
oracle

>  <origin>  (14) 
adg

>  <m_score__min__energy>  (14) 
-9.5299999999999994

>  <m_primary>  (14) 
energy

$$$$
14:0
     RDKit          3D

 51 54  0  0  0  0  0  0  0  0999 V2000
    0.3250   21.4690  -36.0580 C   0  0  0  0  0  0  0  0  0  0  0  0
    0.0330   21.5200  -34.5510 C   0  0  0  0  0  0  0  0  0  0  0  0
   -1.1610   20.7440  -34.1210 N   0  0  1  0  0  0  0  0  0  0  0  0
   -1.0930   19.3470  -34.5940 C   0  0  0  0  0  0  0  0  0  0  0  0
   -1.4330   20.7700  -32.6600 C   0  0  0  0  0  0  0  0  0  0  0  0
   -2.6170   21.6710  -32.2650 C   0  0  0  0  0  0  0  0  0  0  0  0
   -3.7630   21.4760  -33.1550 N   0  0  0  0  0  0  0  0  0  0  0  0
   -5.1110   21.3940  -32.6670 C   0  0  0  0  0  0  0  0  0  0  0  0
   -5.7100   22.4590  -31.9480 C   0  0  0  0  0  0  0  0  0  0  0  0
   -4.9580   23.5950  -31.5810 C   0  0  0  0  0  0  0  0  0  0  0  0
   -5.5420   24.6330  -30.8590 C   0  0  0  0  0  0  0  0  0  0  0  0
   -6.8720   24.5510  -30.4660 C   0  0  0  0  0  0  0  0  0  0  0  0
   -7.6340   23.4280  -30.7870 C   0  0  0  0  0  0  0  0  0  0  0  0
   -7.0830   22.3610  -31.5380 C   0  0  0  0  0  0  0  0  0  0  0  0
   -7.8280   21.2330  -31.8470 N   0  0  0  0  0  0  0  0  0  0  0  0
   -9.2690   21.1540  -31.5410 C   0  0  0  0  0  0  0  0  0  0  0  0
   -7.1860   20.1690  -32.4270 C   0  0  0  0  0  0  0  0  0  0  0  0
   -7.7240   18.9510  -32.6840 N   0  0  0  0  0  0  0  0  0  0  0  0
   -6.7400   18.2490  -33.2780 C   0  0  0  0  0  0  0  0  0  0  0  0
   -6.8190   16.9370  -33.7430 C   0  0  0  0  0  0  0  0  0  0  0  0
   -5.6840   16.3820  -34.3550 C   0  0  0  0  0  0  0  0  0  0  0  0
   -4.5010   17.1410  -34.4890 C   0  0  0  0  0  0  0  0  0  0  0  0
   -2.9740   16.3780  -35.3440 Br  0  0  0  0  0  0  0  0  0  0  0  0
   -4.4420   18.4610  -34.0050 C   0  0  0  0  0  0  0  0  0  0  0  0
   -5.5850   18.9940  -33.3990 C   0  0  0  0  0  0  0  0  0  0  0  0
   -5.8690   20.2330  -32.8380 C   0  0  0  0  0  0  0  0  0  0  0  0
    1.3971   21.2817  -36.2176 H   0  0  0  0  0  0  0  0  0  0  0  0
   -0.2610   20.6596  -36.5179 H   0  0  0  0  0  0  0  0  0  0  0  0
    0.0480   22.4291  -36.5179 H   0  0  0  0  0  0  0  0  0  0  0  0
    0.9097   21.1222  -34.0188 H   0  0  0  0  0  0  0  0  0  0  0  0
   -0.1788   22.5726  -34.3118 H   0  0  0  0  0  0  0  0  0  0  0  0
   -1.9790   21.1700  -34.6080 H   0  0  0  0  0  0  0  0  0  0  0  0
   -1.0600   18.6682  -33.7290 H   0  0  0  0  0  0  0  0  0  0  0  0
   -1.9813   19.1223  -35.2027 H   0  0  0  0  0  0  0  0  0  0  0  0
   -0.1871   19.2097  -35.2027 H   0  0  0  0  0  0  0  0  0  0  0  0
   -1.6525   19.7440  -32.3297 H   0  0  0  0  0  0  0  0  0  0  0  0
   -0.5378   21.1858  -32.1745 H   0  0  0  0  0  0  0  0  0  0  0  0
   -2.9200   21.4312  -31.2351 H   0  0  0  0  0  0  0  0  0  0  0  0
   -2.2934   22.7193  -32.3453 H   0  0  0  0  0  0  0  0  0  0  0  0
   -3.6010   21.4830  -34.1860 H   0  0  0  0  0  0  0  0  0  0  0  0
   -3.8983   23.6616  -31.8684 H   0  0  0  0  0  0  0  0  0  0  0  0
   -4.9477   25.5214  -30.5989 H   0  0  0  0  0  0  0  0  0  0  0  0
   -7.3265   25.3764  -29.8985 H   0  0  0  0  0  0  0  0  0  0  0  0
   -8.6800   23.3699  -30.4515 H   0  0  0  0  0  0  0  0  0  0  0  0
   -9.4124   21.1461  -30.4504 H   0  0  0  0  0  0  0  0  0  0  0  0
   -9.7837   22.0253  -31.9722 H   0  0  0  0  0  0  0  0  0  0  0  0
   -9.6854   20.2317  -31.9722 H   0  0  0  0  0  0  0  0  0  0  0  0
   -8.6770   18.5900  -32.4610 H   0  0  0  0  0  0  0  0  0  0  0  0
   -7.7448   16.3531  -33.6334 H   0  0  0  0  0  0  0  0  0  0  0  0
   -5.7165   15.3493  -34.7325 H   0  0  0  0  0  0  0  0  0  0  0  0
   -3.5226   19.0574  -34.1004 H   0  0  0  0  0  0  0  0  0  0  0  0
  1  2  1  0
  2  3  1  0
  3  4  1  0
  3  5  1  0
  5  6  1  0
  6  7  1  0
  7  8  1  0
  8  9  2  0
  9 10  1  0
 10 11  2  0
 11 12  1  0
 12 13  2  0
 13 14  1  0
 14 15  2  0
 15 16  1  0
 15 17  1  0
 17 18  1  0
 18 19  1  0
 19 20  2  0
 20 21  1  0
 21 22  2  0
 22 23  1  0
 22 24  1  0
 24 25  2  0
 25 26  1  0
 26  8  1  0
 14  9  1  0
 26 17  2  0
 25 19  1  0
  1 27  1  0
  1 28  1  0
  1 29  1  0
  2 30  1  0
  2 31  1  0
  3 32  1  6
  4 33  1  0
  4 34  1  0
  4 35  1  0
  5 36  1  0
  5 37  1  0
  6 38  1  0
  6 39  1  0
  7 40  1  0
 10 41  1  0
 11 42  1  0
 12 43  1  0
 13 44  1  0
 16 45  1  0
 16 46  1  0
 16 47  1  0
 18 48  1  0
 20 49  1  0
 21 50  1  0
 24 51  1  0
M  CHG  2   3   1  15   1
M  END
>  <UniqueID>  (15) 
15

>  <SMILES>  (15) 
CC[N@@H+](C)CCNc1c2ccccc2[n+](C)c2[nH]c3ccc(Br)cc3c12

>  <Energy>  (15) 
112.29904435151921

>  <Genealogy>  (15) 
CC[NH+](C)CCNc1c2ccccc2[n+](C)c2[nH]c3ccc(Br)cc3c12 (protonated)
CC[N@@H+](C)CCNc1c2ccccc2[n+](C)c2[nH]c3ccc(Br)cc3c12 (chirality)
CC[N@@H+](C)CCNc1c2ccccc2[n+](C)c2[nH]c3ccc(Br)cc3c12 (3D coordinates assigned)
CC[N@@H+](C)CCNc1c2ccccc2[n+](C)c2[nH]c3ccc(Br)cc3c12 (optimized conformer: 112.29904435151921 kcal/mol)

>  <smiles>  (15) 
CCN(C)CCNc1c2ccccc2[n+](C)c2[nH]c3ccc(Br)cc3c12

>  <score_type>  (15) 
oracle

>  <origin>  (15) 
adg

>  <m_score__min__energy>  (15) 
-7.7599999999999998

>  <m_primary>  (15) 
energy

$$$$
15:0
     RDKit          3D

 62 64  0  0  0  0  0  0  0  0999 V2000
   -4.2730   23.8240  -28.4710 C   0  0  0  0  0  0  0  0  0  0  0  0
   -3.2840   24.5540  -29.3760 C   0  0  0  0  0  0  0  0  0  0  0  0
   -3.9900   25.2140  -30.4840 N   0  0  0  0  0  0  0  0  0  0  0  0
   -5.3860   24.7670  -30.5710 C   0  0  0  0  0  0  0  0  0  0  0  0
   -5.5780   23.9220  -31.8330 C   0  0  0  0  0  0  0  0  0  0  0  0
   -4.6910   22.6700  -31.8610 C   0  0  0  0  0  0  0  0  0  0  0  0
   -4.9390   21.8450  -33.0470 N   0  0  0  0  0  0  0  0  0  0  0  0
   -5.2570   20.4480  -32.9380 C   0  0  0  0  0  0  0  0  0  0  0  0
   -6.5450   20.0740  -32.5190 C   0  0  0  0  0  0  0  0  0  0  0  0
   -7.3720   20.9800  -31.8240 C   0  0  0  0  0  0  0  0  0  0  0  0
   -8.6430   20.5970  -31.3960 C   0  0  0  0  0  0  0  0  0  0  0  0
   -9.1010   19.3050  -31.6370 C   0  0  0  0  0  0  0  0  0  0  0  0
   -8.2990   18.3960  -32.3280 C   0  0  0  0  0  0  0  0  0  0  0  0
   -7.0160   18.7700  -32.8010 C   0  0  0  0  0  0  0  0  0  0  0  0
   -6.2320   17.9020  -33.5300 N   0  0  0  0  0  0  0  0  0  0  0  0
   -6.8430   16.7120  -34.1590 C   0  0  0  0  0  0  0  0  0  0  0  0
   -4.8830   18.1570  -33.6810 C   0  0  0  0  0  0  0  0  0  0  0  0
   -4.0040   17.1530  -34.1490 C   0  0  0  0  0  0  0  0  0  0  0  0
   -2.6540   17.4060  -34.3200 C   0  0  0  0  0  0  0  0  0  0  0  0
   -2.1230   18.6390  -33.9870 C   0  0  0  0  0  0  0  0  0  0  0  0
   -2.9390   19.6740  -33.5020 C   0  0  0  0  0  0  0  0  0  0  0  0
   -2.3140   20.8600  -32.9680 N   0  0  0  0  0  0  0  0  0  0  0  0
   -0.8860   21.1880  -33.0790 C   0  0  0  0  0  0  0  0  0  0  0  0
   -0.2510   21.5120  -31.7160 C   0  0  0  0  0  0  0  0  0  0  0  0
   -1.2850   21.7530  -30.6840 N   0  0  0  0  0  0  0  0  0  0  0  0
   -0.7940   22.6780  -29.6490 C   0  0  0  0  0  0  0  0  0  0  0  0
   -1.7010   20.4930  -30.0520 C   0  0  0  0  0  0  0  0  0  0  0  0
   -4.3480   19.4460  -33.3670 C   0  0  0  0  0  0  0  0  0  0  0  0
   -4.0159   24.0138  -27.4185 H   0  0  0  0  0  0  0  0  0  0  0  0
   -5.2913   24.1887  -28.6712 H   0  0  0  0  0  0  0  0  0  0  0  0
   -4.2245   22.7435  -28.6712 H   0  0  0  0  0  0  0  0  0  0  0  0
   -2.7459   25.3116  -28.7873 H   0  0  0  0  0  0  0  0  0  0  0  0
   -2.5752   23.8225  -29.7914 H   0  0  0  0  0  0  0  0  0  0  0  0
   -3.5120   24.9350  -31.3750 H   0  0  0  0  0  0  0  0  0  0  0  0
   -5.6327   24.1631  -29.6853 H   0  0  0  0  0  0  0  0  0  0  0  0
   -6.0480   25.6444  -30.6151 H   0  0  0  0  0  0  0  0  0  0  0  0
   -6.6304   23.6065  -31.8861 H   0  0  0  0  0  0  0  0  0  0  0  0
   -5.2908   24.5462  -32.6920 H   0  0  0  0  0  0  0  0  0  0  0  0
   -3.6363   22.9824  -31.8605 H   0  0  0  0  0  0  0  0  0  0  0  0
   -4.9289   22.0664  -30.9727 H   0  0  0  0  0  0  0  0  0  0  0  0
   -4.5270   22.1830  -33.9460 H   0  0  0  0  0  0  0  0  0  0  0  0
   -7.0114   21.9985  -31.6174 H   0  0  0  0  0  0  0  0  0  0  0  0
   -9.2845   21.3173  -30.8671 H   0  0  0  0  0  0  0  0  0  0  0  0
  -10.0966   19.0001  -31.2822 H   0  0  0  0  0  0  0  0  0  0  0  0
   -8.6673   17.3753  -32.5082 H   0  0  0  0  0  0  0  0  0  0  0  0
   -7.1961   16.0242  -33.3765 H   0  0  0  0  0  0  0  0  0  0  0  0
   -7.6928   17.0233  -34.7843 H   0  0  0  0  0  0  0  0  0  0  0  0
   -6.0948   16.2029  -34.7843 H   0  0  0  0  0  0  0  0  0  0  0  0
   -4.4001   16.1534  -34.3812 H   0  0  0  0  0  0  0  0  0  0  0  0
   -1.9984   16.6205  -34.7238 H   0  0  0  0  0  0  0  0  0  0  0  0
   -1.0430   18.8119  -34.1041 H   0  0  0  0  0  0  0  0  0  0  0  0
   -2.8310   21.3730  -32.2240 H   0  0  0  0  0  0  0  0  0  0  0  0
   -0.3592   20.3282  -33.5187 H   0  0  0  0  0  0  0  0  0  0  0  0
   -0.7957   22.0829  -33.7122 H   0  0  0  0  0  0  0  0  0  0  0  0
    0.3770   20.6649  -31.4029 H   0  0  0  0  0  0  0  0  0  0  0  0
    0.3524   22.4255  -31.8227 H   0  0  0  0  0  0  0  0  0  0  0  0
   -1.0135   22.2644  -28.6536 H   0  0  0  0  0  0  0  0  0  0  0  0
    0.2925   22.8092  -29.7601 H   0  0  0  0  0  0  0  0  0  0  0  0
   -1.2941   23.6514  -29.7601 H   0  0  0  0  0  0  0  0  0  0  0  0
   -1.6650   20.6021  -28.9580 H   0  0  0  0  0  0  0  0  0  0  0  0
   -2.7276   20.2485  -30.3625 H   0  0  0  0  0  0  0  0  0  0  0  0
   -1.0218   19.6853  -30.3625 H   0  0  0  0  0  0  0  0  0  0  0  0
  1  2  1  0
  2  3  1  0
  3  4  1  0
  4  5  1  0
  5  6  1  0
  6  7  1  0
  7  8  1  0
  8  9  2  0
  9 10  1  0
 10 11  2  0
 11 12  1  0
 12 13  2  0
 13 14  1  0
 14 15  2  0
 15 16  1  0
 15 17  1  0
 17 18  2  0
 18 19  1  0
 19 20  2  0
 20 21  1  0
 21 22  1  0
 22 23  1  0
 23 24  1  0
 24 25  1  0
 25 26  1  0
 25 27  1  0
 21 28  2  0
 28  8  1  0
 14  9  1  0
 28 17  1  0
  1 29  1  0
  1 30  1  0
  1 31  1  0
  2 32  1  0
  2 33  1  0
  3 34  1  0
  4 35  1  0
  4 36  1  0
  5 37  1  0
  5 38  1  0
  6 39  1  0
  6 40  1  0
  7 41  1  0
 10 42  1  0
 11 43  1  0
 12 44  1  0
 13 45  1  0
 16 46  1  0
 16 47  1  0
 16 48  1  0
 18 49  1  0
 19 50  1  0
 20 51  1  0
 22 52  1  0
 23 53  1  0
 23 54  1  0
 24 55  1  0
 24 56  1  0
 26 57  1  0
 26 58  1  0
 26 59  1  0
 27 60  1  0
 27 61  1  0
 27 62  1  0
M  CHG  1  15   1
M  END
>  <UniqueID>  (16) 
16

>  <SMILES>  (16) 
CCNCCCNc1c2ccccc2[n+](C)c2cccc(NCCN(C)C)c12

>  <Energy>  (16) 
90.62260714433992

>  <Genealogy>  (16) 
CCNCCCNc1c2ccccc2[n+](C)c2cccc(NCCN(C)C)c12 (3D coordinates assigned)
CCNCCCNc1c2ccccc2[n+](C)c2cccc(NCCN(C)C)c12 (optimized conformer: 90.62260714433992 kcal/mol)

>  <smiles>  (16) 
CCNCCCNc1c2ccccc2[n+](C)c2cccc(NCCN(C)C)c12

>  <score_type>  (16) 
oracle

>  <origin>  (16) 
adg

>  <m_score__min__energy>  (16) 
-8.1199999999999992

>  <m_primary>  (16) 
energy

$$$$
16:0
     RDKit          3D

 46 48  0  0  0  0  0  0  0  0999 V2000
   -6.1330   24.9690  -29.7150 C   0  0  0  0  0  0  0  0  0  0  0  0
   -5.0740   25.1890  -30.7940 C   0  0  0  0  0  0  0  0  0  0  0  0
   -3.9180   24.2750  -30.6350 N   0  0  0  0  0  0  0  0  0  0  0  0
   -3.2980   24.5220  -29.3200 C   0  0  0  0  0  0  0  0  0  0  0  0
   -4.3000   22.8450  -30.7590 C   0  0  0  0  0  0  0  0  0  0  0  0
   -3.6460   22.1850  -31.9840 C   0  0  0  0  0  0  0  0  0  0  0  0
   -4.6120   21.8950  -33.0490 N   0  0  0  0  0  0  0  0  0  0  0  0
   -5.7140   20.9850  -32.8790 C   0  0  0  0  0  0  0  0  0  0  0  0
   -5.5680   19.6260  -33.2120 C   0  0  0  0  0  0  0  0  0  0  0  0
   -4.3980   19.1550  -33.8470 C   0  0  0  0  0  0  0  0  0  0  0  0
   -4.2670   17.8120  -34.1880 C   0  0  0  0  0  0  0  0  0  0  0  0
   -5.2980   16.9200  -33.9190 C   0  0  0  0  0  0  0  0  0  0  0  0
   -6.4600   17.3600  -33.2840 C   0  0  0  0  0  0  0  0  0  0  0  0
   -6.6080   18.7130  -32.8900 C   0  0  0  0  0  0  0  0  0  0  0  0
   -7.7310   19.1550  -32.2150 N   0  0  0  0  0  0  0  0  0  0  0  0
   -8.6600   18.1840  -31.6000 C   0  0  0  0  0  0  0  0  0  0  0  0
   -7.9800   20.5080  -32.1040 C   0  0  0  0  0  0  0  0  0  0  0  0
   -9.2120   20.9770  -31.7130 N   0  0  0  0  0  0  0  0  0  0  0  0
   -9.4770   22.3040  -31.5940 C   0  0  0  0  0  0  0  0  0  0  0  0
   -8.5030   23.2450  -31.9010 C   0  0  0  0  0  0  0  0  0  0  0  0
   -7.2530   22.8170  -32.3320 C   0  0  0  0  0  0  0  0  0  0  0  0
   -6.9640   21.4440  -32.4240 C   0  0  0  0  0  0  0  0  0  0  0  0
   -5.6700   25.0652  -28.7218 H   0  0  0  0  0  0  0  0  0  0  0  0
   -6.9284   25.7211  -29.8231 H   0  0  0  0  0  0  0  0  0  0  0  0
   -6.5630   23.9623  -29.8231 H   0  0  0  0  0  0  0  0  0  0  0  0
   -5.5305   25.0155  -31.7797 H   0  0  0  0  0  0  0  0  0  0  0  0
   -4.7051   26.2211  -30.7012 H   0  0  0  0  0  0  0  0  0  0  0  0
   -4.0030   24.2411  -28.5237 H   0  0  0  0  0  0  0  0  0  0  0  0
   -2.3819   23.9202  -29.2277 H   0  0  0  0  0  0  0  0  0  0  0  0
   -3.0467   25.5889  -29.2277 H   0  0  0  0  0  0  0  0  0  0  0  0
   -3.9793   22.3106  -29.8526 H   0  0  0  0  0  0  0  0  0  0  0  0
   -5.3917   22.7916  -30.8831 H   0  0  0  0  0  0  0  0  0  0  0  0
   -2.8763   22.8631  -32.3811 H   0  0  0  0  0  0  0  0  0  0  0  0
   -3.2126   21.2285  -31.6565 H   0  0  0  0  0  0  0  0  0  0  0  0
   -4.4380   22.3010  -33.9960 H   0  0  0  0  0  0  0  0  0  0  0  0
   -3.5819   19.8566  -34.0744 H   0  0  0  0  0  0  0  0  0  0  0  0
   -3.3454   17.4559  -34.6715 H   0  0  0  0  0  0  0  0  0  0  0  0
   -5.1978   15.8633  -34.2077 H   0  0  0  0  0  0  0  0  0  0  0  0
   -7.2731   16.6460  -33.0864 H   0  0  0  0  0  0  0  0  0  0  0  0
   -8.5921   18.2549  -30.5044 H   0  0  0  0  0  0  0  0  0  0  0  0
   -9.6886   18.4081  -31.9189 H   0  0  0  0  0  0  0  0  0  0  0  0
   -8.3907   17.1663  -31.9189 H   0  0  0  0  0  0  0  0  0  0  0  0
  -10.0150   20.3340  -31.5410 H   0  0  0  0  0  0  0  0  0  0  0  0
  -10.4688   22.6351  -31.2525 H   0  0  0  0  0  0  0  0  0  0  0  0
   -8.7189   24.3192  -31.8039 H   0  0  0  0  0  0  0  0  0  0  0  0
   -6.4852   23.5567  -32.6028 H   0  0  0  0  0  0  0  0  0  0  0  0
  1  2  1  0
  2  3  1  0
  3  4  1  0
  3  5  1  0
  5  6  1  0
  6  7  1  0
  7  8  1  0
  8  9  2  0
  9 10  1  0
 10 11  2  0
 11 12  1  0
 12 13  2  0
 13 14  1  0
 14 15  2  0
 15 16  1  0
 15 17  1  0
 17 18  2  0
 18 19  1  0
 19 20  2  0
 20 21  1  0
 21 22  2  0
 22  8  1  0
 14  9  1  0
 22 17  1  0
  1 23  1  0
  1 24  1  0
  1 25  1  0
  2 26  1  0
  2 27  1  0
  4 28  1  0
  4 29  1  0
  4 30  1  0
  5 31  1  0
  5 32  1  0
  6 33  1  0
  6 34  1  0
  7 35  1  0
 10 36  1  0
 11 37  1  0
 12 38  1  0
 13 39  1  0
 16 40  1  0
 16 41  1  0
 16 42  1  0
 18 43  1  0
 19 44  1  0
 20 45  1  0
 21 46  1  0
M  CHG  2  15   1  18   1
M  END
>  <UniqueID>  (17) 
17

>  <SMILES>  (17) 
CCN(C)CCNc1c2ccccc2[n+](C)c2[nH+]cccc12

>  <Energy>  (17) 
72.14109840729232

>  <Genealogy>  (17) 
CCN(C)CCNc1c2ccccc2[n+](C)c2[nH+]cccc12 (protonated)
CCN(C)CCNc1c2ccccc2[n+](C)c2[nH+]cccc12 (3D coordinates assigned)
CCN(C)CCNc1c2ccccc2[n+](C)c2[nH+]cccc12 (optimized conformer: 72.14109840729232 kcal/mol)

>  <smiles>  (17) 
CCN(C)CCNc1c2ccccc2[n+](C)c2ncccc12

>  <score_type>  (17) 
oracle

>  <origin>  (17) 
adg

>  <m_score__min__energy>  (17) 
-7.5700000000000003

>  <m_primary>  (17) 
energy

$$$$
17:0
     RDKit          3D

 75 78  0  0  0  0  0  0  0  0999 V2000
   -3.4340   24.4770  -27.0500 C   0  0  0  0  0  0  0  0  0  0  0  0
   -2.2170   24.8880  -27.8830 C   0  0  0  0  0  0  0  0  0  0  0  0
   -1.1510   23.8520  -27.7690 N   0  0  0  0  0  0  0  0  0  0  0  0
    0.1600   24.4840  -27.4810 C   0  0  0  0  0  0  0  0  0  0  0  0
    1.2200   23.4440  -27.0980 C   0  0  0  0  0  0  0  0  0  0  0  0
   -1.0960   23.0360  -29.0070 C   0  0  0  0  0  0  0  0  0  0  0  0
   -2.3470   22.1700  -29.2630 C   0  0  0  0  0  0  0  0  0  0  0  0
   -2.6970   22.0130  -30.6880 N   0  0  0  0  0  0  0  0  0  0  0  0
   -4.0500   22.0760  -31.1710 C   0  0  0  0  0  0  0  0  0  0  0  0
   -4.8450   23.1930  -30.8600 C   0  0  0  0  0  0  0  0  0  0  0  0
   -4.2750   24.4280  -30.4930 C   0  0  0  0  0  0  0  0  0  0  0  0
   -5.0860   25.5080  -30.1510 C   0  0  0  0  0  0  0  0  0  0  0  0
   -6.4750   25.3670  -30.1490 C   0  0  0  0  0  0  0  0  0  0  0  0
   -7.0530   24.1450  -30.5100 C   0  0  0  0  0  0  0  0  0  0  0  0
   -6.2420   23.0440  -30.8810 C   0  0  0  0  0  0  0  0  0  0  0  0
   -6.7910   21.8210  -31.1720 N   0  0  0  0  0  0  0  0  0  0  0  0
   -8.0270   21.4280  -30.4700 C   0  0  0  0  0  0  0  0  0  0  0  0
   -6.0510   20.8830  -31.8870 C   0  0  0  0  0  0  0  0  0  0  0  0
   -4.6290   20.9830  -31.8620 C   0  0  0  0  0  0  0  0  0  0  0  0
   -3.8430   20.0110  -32.5350 C   0  0  0  0  0  0  0  0  0  0  0  0
   -2.4170   20.1830  -32.7090 N   0  0  0  0  0  0  0  0  0  0  0  0
   -1.5000   19.3490  -31.9040 C   0  0  0  0  0  0  0  0  0  0  0  0
   -0.3080   20.1010  -31.2970 C   0  0  0  0  0  0  0  0  0  0  0  0
   -1.9600   21.1300  -33.7440 C   0  0  0  0  0  0  0  0  0  0  0  0
   -0.7910   20.5820  -34.5790 C   0  0  0  0  0  0  0  0  0  0  0  0
   -4.4880   18.9150  -33.1440 C   0  0  0  0  0  0  0  0  0  0  0  0
   -3.7420   17.9210  -33.8150 C   0  0  0  0  0  0  0  0  0  0  0  0
   -4.3710   16.8280  -34.4010 C   0  0  0  0  0  0  0  0  0  0  0  0
   -5.7510   16.7060  -34.3510 C   0  0  0  0  0  0  0  0  0  0  0  0
   -6.5120   17.7010  -33.7390 C   0  0  0  0  0  0  0  0  0  0  0  0
   -5.9050   18.8360  -33.1370 C   0  0  0  0  0  0  0  0  0  0  0  0
   -6.6580   19.8760  -32.6270 N   0  0  0  0  0  0  0  0  0  0  0  0
   -8.0460   20.0510  -33.1270 C   0  0  0  0  0  0  0  0  0  0  0  0
   -9.0700   19.1550  -32.3980 C   0  0  0  0  0  0  0  0  0  0  0  0
   -3.1909   24.5591  -25.9804 H   0  0  0  0  0  0  0  0  0  0  0  0
   -4.2802   25.1392  -27.2856 H   0  0  0  0  0  0  0  0  0  0  0  0
   -3.7054   23.4374  -27.2856 H   0  0  0  0  0  0  0  0  0  0  0  0
   -2.5144   24.9910  -28.9370 H   0  0  0  0  0  0  0  0  0  0  0  0
   -1.8304   25.8480  -27.5103 H   0  0  0  0  0  0  0  0  0  0  0  0
    0.4991   25.0252  -28.3766 H   0  0  0  0  0  0  0  0  0  0  0  0
    0.0302   25.1700  -26.6309 H   0  0  0  0  0  0  0  0  0  0  0  0
    1.2886   23.3767  -26.0022 H   0  0  0  0  0  0  0  0  0  0  0  0
    0.9369   22.4635  -27.5085 H   0  0  0  0  0  0  0  0  0  0  0  0
    2.1949   23.7458  -27.5085 H   0  0  0  0  0  0  0  0  0  0  0  0
   -0.9699   23.7173  -29.8614 H   0  0  0  0  0  0  0  0  0  0  0  0
   -0.2547   22.3384  -28.8828 H   0  0  0  0  0  0  0  0  0  0  0  0
   -2.1661   21.1705  -28.8408 H   0  0  0  0  0  0  0  0  0  0  0  0
   -3.1918   22.6894  -28.7870 H   0  0  0  0  0  0  0  0  0  0  0  0
   -1.9650   22.3180  -31.3670 H   0  0  0  0  0  0  0  0  0  0  0  0
   -3.1809   24.5405  -30.4763 H   0  0  0  0  0  0  0  0  0  0  0  0
   -4.6314   26.4729  -29.8822 H   0  0  0  0  0  0  0  0  0  0  0  0
   -7.1142   26.2156  -29.8640 H   0  0  0  0  0  0  0  0  0  0  0  0
   -8.1478   24.0380  -30.5057 H   0  0  0  0  0  0  0  0  0  0  0  0
   -7.8638   21.4799  -29.3834 H   0  0  0  0  0  0  0  0  0  0  0  0
   -8.8417   22.1114  -30.7515 H   0  0  0  0  0  0  0  0  0  0  0  0
   -8.2974   20.3996  -30.7515 H   0  0  0  0  0  0  0  0  0  0  0  0
   -2.0775   18.9027  -31.0810 H   0  0  0  0  0  0  0  0  0  0  0  0
   -1.0762   18.6033  -32.5927 H   0  0  0  0  0  0  0  0  0  0  0  0
   -0.3701   20.0618  -30.1995 H   0  0  0  0  0  0  0  0  0  0  0  0
    0.6295   19.6305  -31.6282 H   0  0  0  0  0  0  0  0  0  0  0  0
   -0.3289   21.1497  -31.6282 H   0  0  0  0  0  0  0  0  0  0  0  0
   -2.8018   21.3471  -34.4180 H   0  0  0  0  0  0  0  0  0  0  0  0
   -1.6042   22.0354  -33.2305 H   0  0  0  0  0  0  0  0  0  0  0  0
   -0.0023   20.2123  -33.9073 H   0  0  0  0  0  0  0  0  0  0  0  0
   -1.1484   19.7576  -35.2135 H   0  0  0  0  0  0  0  0  0  0  0  0
   -0.3860   21.3841  -35.2135 H   0  0  0  0  0  0  0  0  0  0  0  0
   -2.6475   18.0128  -33.8749 H   0  0  0  0  0  0  0  0  0  0  0  0
   -3.7710   16.0569  -34.9064 H   0  0  0  0  0  0  0  0  0  0  0  0
   -6.2438   15.8273  -34.7926 H   0  0  0  0  0  0  0  0  0  0  0  0
   -7.6077   17.6052  -33.7218 H   0  0  0  0  0  0  0  0  0  0  0  0
   -8.3385   21.1021  -32.9871 H   0  0  0  0  0  0  0  0  0  0  0  0
   -8.0516   19.7594  -34.1876 H   0  0  0  0  0  0  0  0  0  0  0  0
   -8.9446   19.2647  -31.3107 H   0  0  0  0  0  0  0  0  0  0  0  0
  -10.0890   19.4568  -32.6819 H   0  0  0  0  0  0  0  0  0  0  0  0
   -8.9061   18.1050  -32.6819 H   0  0  0  0  0  0  0  0  0  0  0  0
  1  2  1  0
  2  3  1  0
  3  4  1  0
  4  5  1  0
  3  6  1  0
  6  7  1  0
  7  8  1  0
  8  9  1  0
  9 10  2  0
 10 11  1  0
 11 12  2  0
 12 13  1  0
 13 14  2  0
 14 15  1  0
 15 16  2  0
 16 17  1  0
 16 18  1  0
 18 19  2  0
 19 20  1  0
 20 21  1  0
 21 22  1  0
 22 23  1  0
 21 24  1  0
 24 25  1  0
 20 26  2  0
 26 27  1  0
 27 28  2  0
 28 29  1  0
 29 30  2  0
 30 31  1  0
 31 32  2  0
 32 33  1  0
 33 34  1  0
 19  9  1  0
 31 26  1  0
 15 10  1  0
 32 18  1  0
  1 35  1  0
  1 36  1  0
  1 37  1  0
  2 38  1  0
  2 39  1  0
  4 40  1  0
  4 41  1  0
  5 42  1  0
  5 43  1  0
  5 44  1  0
  6 45  1  0
  6 46  1  0
  7 47  1  0
  7 48  1  0
  8 49  1  0
 11 50  1  0
 12 51  1  0
 13 52  1  0
 14 53  1  0
 17 54  1  0
 17 55  1  0
 17 56  1  0
 22 57  1  0
 22 58  1  0
 23 59  1  0
 23 60  1  0
 23 61  1  0
 24 62  1  0
 24 63  1  0
 25 64  1  0
 25 65  1  0
 25 66  1  0
 27 67  1  0
 28 68  1  0
 29 69  1  0
 30 70  1  0
 33 71  1  0
 33 72  1  0
 34 73  1  0
 34 74  1  0
 34 75  1  0
M  CHG  2  16   1  32   1
M  END
>  <UniqueID>  (18) 
18

>  <SMILES>  (18) 
CCN(CC)CCNc1c2ccccc2[n+](C)c2c1c(N(CC)CC)c1ccccc1[n+]2CC

>  <Energy>  (18) 
148.71888123305143

>  <Genealogy>  (18) 
CCN(CC)CCNc1c2ccccc2[n+](C)c2c1c(N(CC)CC)c1ccccc1[n+]2CC (3D coordinates assigned)
CCN(CC)CCNc1c2ccccc2[n+](C)c2c1c(N(CC)CC)c1ccccc1[n+]2CC (optimized conformer: 148.71888123305143 kcal/mol)

>  <smiles>  (18) 
CCN(CC)CCNc1c2ccccc2[n+](C)c2c1c(N(CC)CC)c1ccccc1[n+]2CC

>  <score_type>  (18) 
oracle

>  <origin>  (18) 
adg

>  <m_score__min__energy>  (18) 
-7.9299999999999997

>  <m_primary>  (18) 
energy

$$$$
18:0
     RDKit          3D

 38 39  0  0  0  0  0  0  0  0999 V2000
   -2.3500   20.8130  -33.6750 C   0  0  0  0  0  0  0  0  0  0  0  0
   -2.3620   21.4170  -32.3060 C   0  0  0  0  0  0  0  0  0  0  0  0
   -3.2320   22.4070  -31.9710 N   0  0  0  0  0  0  0  0  0  0  0  0
   -3.0760   22.8040  -30.6890 C   0  0  0  0  0  0  0  0  0  0  0  0
   -3.9360   23.8470  -30.0360 C   0  0  0  0  0  0  0  0  0  0  0  0
   -4.7250   24.6030  -31.0190 N   0  0  0  0  0  0  0  0  0  0  0  0
   -6.1530   24.6350  -30.6720 C   0  0  0  0  0  0  0  0  0  0  0  0
   -6.9700   23.8010  -31.6740 C   0  0  0  0  0  0  0  0  0  0  0  0
   -6.1750   22.7390  -32.3190 N   0  0  0  0  0  0  0  0  0  0  0  0
   -6.8660   21.4700  -32.3230 C   0  0  0  0  0  0  0  0  0  0  0  0
   -8.0860   21.3230  -31.6390 C   0  0  0  0  0  0  0  0  0  0  0  0
   -8.7710   20.1040  -31.6630 C   0  0  0  0  0  0  0  0  0  0  0  0
   -8.2420   19.0190  -32.3650 C   0  0  0  0  0  0  0  0  0  0  0  0
   -7.0290   19.1500  -33.0440 C   0  0  0  0  0  0  0  0  0  0  0  0
   -6.3400   20.3670  -33.0270 C   0  0  0  0  0  0  0  0  0  0  0  0
   -5.1620   20.4720  -33.6920 F   0  0  0  0  0  0  0  0  0  0  0  0
   -1.8650   21.9320  -29.9110 S   0  0  0  0  0  0  0  0  0  0  0  0
   -1.5030   21.0240  -31.2790 C   0  0  0  0  0  0  0  0  0  0  0  0
   -0.4810   19.9360  -31.3400 C   0  0  0  0  0  0  0  0  0  0  0  0
   -2.3282   19.7164  -33.5918 H   0  0  0  0  0  0  0  0  0  0  0  0
   -3.2545   21.1215  -34.2198 H   0  0  0  0  0  0  0  0  0  0  0  0
   -1.4585   21.1572  -34.2198 H   0  0  0  0  0  0  0  0  0  0  0  0
   -4.6231   23.3523  -29.3337 H   0  0  0  0  0  0  0  0  0  0  0  0
   -3.2752   24.5544  -29.5136 H   0  0  0  0  0  0  0  0  0  0  0  0
   -4.6110   24.1640  -31.9630 H   0  0  0  0  0  0  0  0  0  0  0  0
   -6.2893   24.2222  -29.6615 H   0  0  0  0  0  0  0  0  0  0  0  0
   -6.5042   25.6769  -30.7067 H   0  0  0  0  0  0  0  0  0  0  0  0
   -7.8107   23.3346  -31.1394 H   0  0  0  0  0  0  0  0  0  0  0  0
   -7.3158   24.4818  -32.4658 H   0  0  0  0  0  0  0  0  0  0  0  0
   -5.2460   22.6520  -31.8450 H   0  0  0  0  0  0  0  0  0  0  0  0
   -5.9820   23.0200  -33.3090 H   0  0  0  0  0  0  0  0  0  0  0  0
   -8.5047   22.1734  -31.0808 H   0  0  0  0  0  0  0  0  0  0  0  0
   -9.7269   19.9999  -31.1287 H   0  0  0  0  0  0  0  0  0  0  0  0
   -8.7813   18.0604  -32.3831 H   0  0  0  0  0  0  0  0  0  0  0  0
   -6.6137   18.2929  -33.5943 H   0  0  0  0  0  0  0  0  0  0  0  0
   -0.2012   19.6381  -30.3187 H   0  0  0  0  0  0  0  0  0  0  0  0
   -0.8993   19.0695  -31.8731 H   0  0  0  0  0  0  0  0  0  0  0  0
    0.4100   20.2993  -31.8731 H   0  0  0  0  0  0  0  0  0  0  0  0
  1  2  1  0
  2  3  1  0
  3  4  2  0
  4  5  1  0
  5  6  1  0
  6  7  1  0
  7  8  1  0
  8  9  1  0
  9 10  1  0
 10 11  2  0
 11 12  1  0
 12 13  2  0
 13 14  1  0
 14 15  2  0
 15 16  1  0
  4 17  1  0
 17 18  1  0
 18 19  1  0
 18  2  2  0
 15 10  1  0
  1 20  1  0
  1 21  1  0
  1 22  1  0
  5 23  1  0
  5 24  1  0
  6 25  1  0
  7 26  1  0
  7 27  1  0
  8 28  1  0
  8 29  1  0
  9 30  1  0
  9 31  1  0
 11 32  1  0
 12 33  1  0
 13 34  1  0
 14 35  1  0
 19 36  1  0
 19 37  1  0
 19 38  1  0
M  CHG  1   9   1
M  END
>  <UniqueID>  (19) 
19

>  <SMILES>  (19) 
Cc1nc(CNCC[NH2+]c2ccccc2F)sc1C

>  <Energy>  (19) 
63.80096933962839

>  <Genealogy>  (19) 
Cc1nc(CNCC[NH2+]c2ccccc2F)sc1C (protonated)
Cc1nc(CNCC[NH2+]c2ccccc2F)sc1C (3D coordinates assigned)
Cc1nc(CNCC[NH2+]c2ccccc2F)sc1C (optimized conformer: 63.80096933962839 kcal/mol)

>  <smiles>  (19) 
Cc1nc(CNCCNc2ccccc2F)sc1C

>  <score_type>  (19) 
oracle

>  <origin>  (19) 
adg

>  <m_score__min__energy>  (19) 
-5.8799999999999999

>  <m_primary>  (19) 
energy

$$$$
19:0
     RDKit          3D

 70 72  0  0  0  0  0  0  0  0999 V2000
   -1.2380   20.0250  -28.7950 C   0  0  0  0  0  0  0  0  0  0  0  0
   -0.4910   19.0840  -29.7350 C   0  0  0  0  0  0  0  0  0  0  0  0
   -0.4780   19.6240  -31.1010 N   0  0  0  0  0  0  0  0  0  0  0  0
    0.8960   19.8010  -31.5930 C   0  0  0  0  0  0  0  0  0  0  0  0
    0.8850   20.0110  -33.1090 C   0  0  0  0  0  0  0  0  0  0  0  0
   -0.4300   19.8860  -33.6110 O   0  0  0  0  0  0  0  0  0  0  0  0
   -0.8740   21.1050  -34.1650 C   0  0  0  0  0  0  0  0  0  0  0  0
   -2.1670   21.5400  -33.4710 C   0  0  0  0  0  0  0  0  0  0  0  0
   -2.5560   20.5830  -32.4170 N   0  0  0  0  0  0  0  0  0  0  0  0
   -3.9930   20.3490  -32.4280 C   0  0  0  0  0  0  0  0  0  0  0  0
   -4.8750   21.3810  -31.9960 C   0  0  0  0  0  0  0  0  0  0  0  0
   -4.3940   22.5760  -31.3980 C   0  0  0  0  0  0  0  0  0  0  0  0
   -5.2590   23.6050  -31.0380 C   0  0  0  0  0  0  0  0  0  0  0  0
   -6.6190   23.4830  -31.2710 C   0  0  0  0  0  0  0  0  0  0  0  0
   -7.1270   22.3160  -31.8320 C   0  0  0  0  0  0  0  0  0  0  0  0
   -6.2780   21.2260  -32.1650 C   0  0  0  0  0  0  0  0  0  0  0  0
   -6.7940   20.0530  -32.6690 N   0  0  0  0  0  0  0  0  0  0  0  0
   -8.2510   19.7920  -32.5830 C   0  0  0  0  0  0  0  0  0  0  0  0
   -5.9580   19.0980  -33.2090 C   0  0  0  0  0  0  0  0  0  0  0  0
   -6.4800   18.0560  -34.0120 C   0  0  0  0  0  0  0  0  0  0  0  0
   -5.6750   17.0240  -34.4640 C   0  0  0  0  0  0  0  0  0  0  0  0
   -4.3420   16.9760  -34.1060 C   0  0  0  0  0  0  0  0  0  0  0  0
   -3.7600   18.0080  -33.3470 C   0  0  0  0  0  0  0  0  0  0  0  0
   -2.4310   17.8810  -32.9010 O   0  0  0  0  0  0  0  0  0  0  0  0
   -1.7020   16.6630  -32.7260 C   0  0  0  0  0  0  0  0  0  0  0  0
   -0.3070   16.7800  -33.3800 C   0  0  0  0  0  0  0  0  0  0  0  0
   -0.2550   16.4580  -34.8400 N   0  0  0  0  0  0  0  0  0  0  0  0
   -1.4410   15.6740  -35.2590 C   0  0  0  0  0  0  0  0  0  0  0  0
   -0.1540   17.6880  -35.6630 C   0  0  0  0  0  0  0  0  0  0  0  0
    0.9540   15.6330  -35.0830 C   0  0  0  0  0  0  0  0  0  0  0  0
   -4.5490   19.1520  -32.9850 C   0  0  0  0  0  0  0  0  0  0  0  0
   -1.0202   19.7507  -27.7523 H   0  0  0  0  0  0  0  0  0  0  0  0
   -0.9128   21.0599  -28.9775 H   0  0  0  0  0  0  0  0  0  0  0  0
   -2.3197   19.9430  -28.9775 H   0  0  0  0  0  0  0  0  0  0  0  0
    0.5443   18.9669  -29.3823 H   0  0  0  0  0  0  0  0  0  0  0  0
   -1.0018   18.1098  -29.7427 H   0  0  0  0  0  0  0  0  0  0  0  0
   -0.9470   18.9260  -31.7250 H   0  0  0  0  0  0  0  0  0  0  0  0
    1.3470   20.6786  -31.1067 H   0  0  0  0  0  0  0  0  0  0  0  0
    1.4833   18.9014  -31.3569 H   0  0  0  0  0  0  0  0  0  0  0  0
    1.2674   21.0164  -33.3390 H   0  0  0  0  0  0  0  0  0  0  0  0
    1.5225   19.2488  -33.5809 H   0  0  0  0  0  0  0  0  0  0  0  0
   -0.1029   21.8760  -34.0202 H   0  0  0  0  0  0  0  0  0  0  0  0
   -1.0621   20.9719  -35.2406 H   0  0  0  0  0  0  0  0  0  0  0  0
   -2.0149   22.5306  -33.0176 H   0  0  0  0  0  0  0  0  0  0  0  0
   -2.9699   21.5758  -34.2220 H   0  0  0  0  0  0  0  0  0  0  0  0
   -2.2270   20.8850  -31.4750 H   0  0  0  0  0  0  0  0  0  0  0  0
   -2.0370   19.6860  -32.5440 H   0  0  0  0  0  0  0  0  0  0  0  0
   -3.3153   22.6906  -31.2156 H   0  0  0  0  0  0  0  0  0  0  0  0
   -4.8621   24.5167  -30.5677 H   0  0  0  0  0  0  0  0  0  0  0  0
   -7.2975   24.3093  -31.0123 H   0  0  0  0  0  0  0  0  0  0  0  0
   -8.2075   22.2351  -32.0217 H   0  0  0  0  0  0  0  0  0  0  0  0
   -8.5521   19.7381  -31.5264 H   0  0  0  0  0  0  0  0  0  0  0  0
   -8.7993   20.6062  -33.0794 H   0  0  0  0  0  0  0  0  0  0  0  0
   -8.4826   18.8381  -33.0794 H   0  0  0  0  0  0  0  0  0  0  0  0
   -7.5462   18.0662  -34.2824 H   0  0  0  0  0  0  0  0  0  0  0  0
   -6.0982   16.2405  -35.1098 H   0  0  0  0  0  0  0  0  0  0  0  0
   -3.7269   16.1193  -34.4185 H   0  0  0  0  0  0  0  0  0  0  0  0
   -1.5841   16.4609  -31.6512 H   0  0  0  0  0  0  0  0  0  0  0  0
   -2.2553   15.8407  -33.2032 H   0  0  0  0  0  0  0  0  0  0  0  0
    0.0445   17.8139  -33.2475 H   0  0  0  0  0  0  0  0  0  0  0  0
    0.3259   16.0312  -32.8812 H   0  0  0  0  0  0  0  0  0  0  0  0
   -1.9790   15.3184  -34.3679 H   0  0  0  0  0  0  0  0  0  0  0  0
   -2.1074   16.3101  -35.8600 H   0  0  0  0  0  0  0  0  0  0  0  0
   -1.1168   14.8116  -35.8600 H   0  0  0  0  0  0  0  0  0  0  0  0
   -0.0819   18.5655  -35.0036 H   0  0  0  0  0  0  0  0  0  0  0  0
    0.7426   17.6318  -36.2978 H   0  0  0  0  0  0  0  0  0  0  0  0
   -1.0477   17.7788  -36.2978 H   0  0  0  0  0  0  0  0  0  0  0  0
    1.3931   15.3334  -34.1200 H   0  0  0  0  0  0  0  0  0  0  0  0
    0.6764   14.7351  -35.6546 H   0  0  0  0  0  0  0  0  0  0  0  0
    1.6889   16.2189  -35.6546 H   0  0  0  0  0  0  0  0  0  0  0  0
  1  2  1  0
  2  3  1  0
  3  4  1  0
  4  5  1  0
  5  6  1  0
  6  7  1  0
  7  8  1  0
  8  9  1  0
  9 10  1  0
 10 11  2  0
 11 12  1  0
 12 13  2  0
 13 14  1  0
 14 15  2  0
 15 16  1  0
 16 17  2  0
 17 18  1  0
 17 19  1  0
 19 20  2  0
 20 21  1  0
 21 22  2  0
 22 23  1  0
 23 24  1  0
 24 25  1  0
 25 26  1  0
 26 27  1  0
 27 28  1  0
 27 29  1  0
 27 30  1  0
 23 31  2  0
 31 10  1  0
 16 11  1  0
 31 19  1  0
  1 32  1  0
  1 33  1  0
  1 34  1  0
  2 35  1  0
  2 36  1  0
  3 37  1  0
  4 38  1  0
  4 39  1  0
  5 40  1  0
  5 41  1  0
  7 42  1  0
  7 43  1  0
  8 44  1  0
  8 45  1  0
  9 46  1  0
  9 47  1  0
 12 48  1  0
 13 49  1  0
 14 50  1  0
 15 51  1  0
 18 52  1  0
 18 53  1  0
 18 54  1  0
 20 55  1  0
 21 56  1  0
 22 57  1  0
 25 58  1  0
 25 59  1  0
 26 60  1  0
 26 61  1  0
 28 62  1  0
 28 63  1  0
 28 64  1  0
 29 65  1  0
 29 66  1  0
 29 67  1  0
 30 68  1  0
 30 69  1  0
 30 70  1  0
M  CHG  3   9   1  17   1  27   1
M  END
>  <UniqueID>  (20) 
20

>  <SMILES>  (20) 
CCNCCOCC[NH2+]c1c2ccccc2[n+](C)c2cccc(OCC[N+](C)(C)C)c12

>  <Energy>  (20) 
103.69940128718906

>  <Genealogy>  (20) 
CCNCCOCC[NH2+]c1c2ccccc2[n+](C)c2cccc(OCC[N+](C)(C)C)c12 (protonated)
CCNCCOCC[NH2+]c1c2ccccc2[n+](C)c2cccc(OCC[N+](C)(C)C)c12 (3D coordinates assigned)
CCNCCOCC[NH2+]c1c2ccccc2[n+](C)c2cccc(OCC[N+](C)(C)C)c12 (optimized conformer: 103.69940128718906 kcal/mol)

>  <smiles>  (20) 
CCNCCOCCNc1c2ccccc2[n+](C)c2cccc(OCC[N+](C)(C)C)c12

>  <score_type>  (20) 
oracle

>  <origin>  (20) 
adg

>  <m_score__min__energy>  (20) 
-7.5700000000000003

>  <m_primary>  (20) 
energy

$$$$
20:0
     RDKit          3D

 83 86  0  0  0  0  0  0  0  0999 V2000
   -2.6820   18.9100  -26.4080 C   0  0  0  0  0  0  0  0  0  0  0  0
   -1.3500   19.0320  -27.1350 C   0  0  0  0  0  0  0  0  0  0  0  0
   -1.4350   20.1010  -28.1500 N   0  0  0  0  0  0  0  0  0  0  0  0
   -2.7850   20.4850  -28.6120 C   0  0  0  0  0  0  0  0  0  0  0  0
   -3.4020   21.6610  -27.8420 C   0  0  0  0  0  0  0  0  0  0  0  0
   -0.3040   20.2370  -29.0920 C   0  0  0  0  0  0  0  0  0  0  0  0
   -0.6610   19.9470  -30.5560 C   0  0  0  0  0  0  0  0  0  0  0  0
   -1.0950   21.1260  -31.1990 O   0  0  0  0  0  0  0  0  0  0  0  0
   -0.7990   21.0580  -32.5760 C   0  0  0  0  0  0  0  0  0  0  0  0
   -2.0930   21.1800  -33.3800 C   0  0  0  0  0  0  0  0  0  0  0  0
   -3.2790   21.5800  -32.4860 C   0  0  0  0  0  0  0  0  0  0  0  0
   -4.5580   21.4890  -33.1970 N   0  0  0  0  0  0  0  0  0  0  0  0
   -5.6450   20.7000  -32.6830 C   0  0  0  0  0  0  0  0  0  0  0  0
   -5.6040   19.3020  -32.8420 C   0  0  0  0  0  0  0  0  0  0  0  0
   -4.4030   18.6530  -33.2060 C   0  0  0  0  0  0  0  0  0  0  0  0
   -4.3750   17.2800  -33.4330 C   0  0  0  0  0  0  0  0  0  0  0  0
   -5.5380   16.5320  -33.3090 C   0  0  0  0  0  0  0  0  0  0  0  0
   -6.7310   17.1460  -32.9290 C   0  0  0  0  0  0  0  0  0  0  0  0
   -6.7830   18.5380  -32.6510 C   0  0  0  0  0  0  0  0  0  0  0  0
   -7.9510   19.1560  -32.2530 N   0  0  0  0  0  0  0  0  0  0  0  0
   -9.1130   18.3380  -31.8360 C   0  0  0  0  0  0  0  0  0  0  0  0
   -8.0250   20.5360  -32.1970 C   0  0  0  0  0  0  0  0  0  0  0  0
   -9.2700   21.1990  -32.1050 C   0  0  0  0  0  0  0  0  0  0  0  0
   -9.3400   22.5790  -31.9650 C   0  0  0  0  0  0  0  0  0  0  0  0
   -8.1790   23.3300  -31.8560 C   0  0  0  0  0  0  0  0  0  0  0  0
   -6.9150   22.7240  -31.9610 C   0  0  0  0  0  0  0  0  0  0  0  0
   -5.7290   23.4730  -31.6000 N   0  0  0  0  0  0  0  0  0  0  0  0
   -5.7270   24.7720  -30.9140 C   0  0  0  0  0  0  0  0  0  0  0  0
   -4.7140   24.8110  -29.7620 C   0  0  0  0  0  0  0  0  0  0  0  0
   -3.4880   23.9310  -30.0520 C   0  0  0  0  0  0  0  0  0  0  0  0
   -2.2530   24.4820  -29.4520 N   0  0  0  0  0  0  0  0  0  0  0  0
   -1.1170   23.5340  -29.5580 C   0  0  0  0  0  0  0  0  0  0  0  0
   -0.0120   23.8490  -28.5320 C   0  0  0  0  0  0  0  0  0  0  0  0
   -0.0640   25.2090  -28.1620 O   0  0  0  0  0  0  0  0  0  0  0  0
   -1.2400   25.4600  -27.4120 C   0  0  0  0  0  0  0  0  0  0  0  0
   -2.5020   24.8320  -28.0400 C   0  0  0  0  0  0  0  0  0  0  0  0
   -6.8430   21.3270  -32.2670 C   0  0  0  0  0  0  0  0  0  0  0  0
   -2.5096   18.9258  -25.3217 H   0  0  0  0  0  0  0  0  0  0  0  0
   -3.3313   19.7524  -26.6885 H   0  0  0  0  0  0  0  0  0  0  0  0
   -3.1675   17.9636  -26.6885 H   0  0  0  0  0  0  0  0  0  0  0  0
   -0.5590   19.2769  -26.4109 H   0  0  0  0  0  0  0  0  0  0  0  0
   -1.1150   18.0776  -27.6289 H   0  0  0  0  0  0  0  0  0  0  0  0
   -2.7199   20.7640  -29.6740 H   0  0  0  0  0  0  0  0  0  0  0  0
   -3.4375   19.6165  -28.4392 H   0  0  0  0  0  0  0  0  0  0  0  0
   -3.3077   21.4812  -26.7609 H   0  0  0  0  0  0  0  0  0  0  0  0
   -2.8749   22.5895  -28.1067 H   0  0  0  0  0  0  0  0  0  0  0  0
   -4.4655   21.7549  -28.1067 H   0  0  0  0  0  0  0  0  0  0  0  0
    0.0753   21.2675  -29.0279 H   0  0  0  0  0  0  0  0  0  0  0  0
    0.4435   19.4862  -28.7961 H   0  0  0  0  0  0  0  0  0  0  0  0
    0.2268   19.5567  -31.0752 H   0  0  0  0  0  0  0  0  0  0  0  0
   -1.4725   19.2050  -30.5853 H   0  0  0  0  0  0  0  0  0  0  0  0
   -0.1200   21.8801  -32.8465 H   0  0  0  0  0  0  0  0  0  0  0  0
   -0.3160   20.0956  -32.8009 H   0  0  0  0  0  0  0  0  0  0  0  0
   -1.9588   21.9453  -34.1586 H   0  0  0  0  0  0  0  0  0  0  0  0
   -2.3142   20.1996  -33.8271 H   0  0  0  0  0  0  0  0  0  0  0  0
   -3.3087   20.9096  -31.6144 H   0  0  0  0  0  0  0  0  0  0  0  0
   -3.1349   22.6263  -32.1785 H   0  0  0  0  0  0  0  0  0  0  0  0
   -4.8090   22.3050  -33.8000 H   0  0  0  0  0  0  0  0  0  0  0  0
   -3.4787   19.2400  -33.3113 H   0  0  0  0  0  0  0  0  0  0  0  0
   -3.4314   16.7876  -33.7106 H   0  0  0  0  0  0  0  0  0  0  0  0
   -5.5183   15.4509  -33.5113 H   0  0  0  0  0  0  0  0  0  0  0  0
   -7.6467   16.5425  -32.8431 H   0  0  0  0  0  0  0  0  0  0  0  0
   -9.1619   18.3036  -30.7376 H   0  0  0  0  0  0  0  0  0  0  0  0
  -10.0371   18.7858  -32.2303 H   0  0  0  0  0  0  0  0  0  0  0  0
   -9.0031   17.3170  -32.2303 H   0  0  0  0  0  0  0  0  0  0  0  0
  -10.1994   20.6119  -32.1450 H   0  0  0  0  0  0  0  0  0  0  0  0
  -10.3199   23.0783  -31.9405 H   0  0  0  0  0  0  0  0  0  0  0  0
   -8.2483   24.4144  -31.6851 H   0  0  0  0  0  0  0  0  0  0  0  0
   -4.8120   22.9780  -31.6070 H   0  0  0  0  0  0  0  0  0  0  0  0
   -5.4695   25.5570  -31.6403 H   0  0  0  0  0  0  0  0  0  0  0  0
   -6.7294   24.9350  -30.4913 H   0  0  0  0  0  0  0  0  0  0  0  0
   -4.3809   25.8490  -29.6154 H   0  0  0  0  0  0  0  0  0  0  0  0
   -5.2077   24.4237  -28.8585 H   0  0  0  0  0  0  0  0  0  0  0  0
   -3.6660   22.9273  -29.6385 H   0  0  0  0  0  0  0  0  0  0  0  0
   -3.3477   23.8943  -31.1424 H   0  0  0  0  0  0  0  0  0  0  0  0
   -1.4871   22.5134  -29.3808 H   0  0  0  0  0  0  0  0  0  0  0  0
   -0.6855   23.6284  -30.5654 H   0  0  0  0  0  0  0  0  0  0  0  0
   -0.1567   23.2237  -27.6387 H   0  0  0  0  0  0  0  0  0  0  0  0
    0.9683   23.6373  -28.9840 H   0  0  0  0  0  0  0  0  0  0  0  0
   -1.1071   25.0442  -26.4023 H   0  0  0  0  0  0  0  0  0  0  0  0
   -1.3904   26.5495  -27.3913 H   0  0  0  0  0  0  0  0  0  0  0  0
   -2.7701   23.9223  -27.4827 H   0  0  0  0  0  0  0  0  0  0  0  0
   -3.3251   25.5602  -27.9922 H   0  0  0  0  0  0  0  0  0  0  0  0
  1  2  1  0
  2  3  1  0
  3  4  1  0
  4  5  1  0
  3  6  1  0
  6  7  1  0
  7  8  1  0
  8  9  1  0
  9 10  1  0
 10 11  1  0
 11 12  1  0
 12 13  1  0
 13 14  2  0
 14 15  1  0
 15 16  2  0
 16 17  1  0
 17 18  2  0
 18 19  1  0
 19 20  2  0
 20 21  1  0
 20 22  1  0
 22 23  2  0
 23 24  1  0
 24 25  2  0
 25 26  1  0
 26 27  1  0
 27 28  1  0
 28 29  1  0
 29 30  1  0
 30 31  1  0
 31 32  1  0
 32 33  1  0
 33 34  1  0
 34 35  1  0
 35 36  1  0
 26 37  2  0
 37 13  1  0
 19 14  1  0
 37 22  1  0
 36 31  1  0
  1 38  1  0
  1 39  1  0
  1 40  1  0
  2 41  1  0
  2 42  1  0
  4 43  1  0
  4 44  1  0
  5 45  1  0
  5 46  1  0
  5 47  1  0
  6 48  1  0
  6 49  1  0
  7 50  1  0
  7 51  1  0
  9 52  1  0
  9 53  1  0
 10 54  1  0
 10 55  1  0
 11 56  1  0
 11 57  1  0
 12 58  1  0
 15 59  1  0
 16 60  1  0
 17 61  1  0
 18 62  1  0
 21 63  1  0
 21 64  1  0
 21 65  1  0
 23 66  1  0
 24 67  1  0
 25 68  1  0
 27 69  1  0
 28 70  1  0
 28 71  1  0
 29 72  1  0
 29 73  1  0
 30 74  1  0
 30 75  1  0
 32 76  1  0
 32 77  1  0
 33 78  1  0
 33 79  1  0
 35 80  1  0
 35 81  1  0
 36 82  1  0
 36 83  1  0
M  CHG  1  20   1
M  END
>  <UniqueID>  (21) 
21

>  <SMILES>  (21) 
CCN(CC)CCOCCCNc1c2ccccc2[n+](C)c2cccc(NCCCN3CCOCC3)c12

>  <Energy>  (21) 
127.04057374330323

>  <Genealogy>  (21) 
CCN(CC)CCOCCCNc1c2ccccc2[n+](C)c2cccc(NCCCN3CCOCC3)c12 (3D coordinates assigned)
CCN(CC)CCOCCCNc1c2ccccc2[n+](C)c2cccc(NCCCN3CCOCC3)c12 (nonaromatic ring conformer: 127.04057374330323 kcal/mol)

>  <smiles>  (21) 
CCN(CC)CCOCCCNc1c2ccccc2[n+](C)c2cccc(NCCCN3CCOCC3)c12

>  <score_type>  (21) 
oracle

>  <origin>  (21) 
adg

>  <m_score__min__energy>  (21) 
-10.109999999999999

>  <m_primary>  (21) 
energy

$$$$
21:0
     RDKit          3D

 73 75  0  0  0  0  0  0  0  0999 V2000
    1.4760   23.9560  -36.0180 C   0  0  0  0  0  0  0  0  0  0  0  0
    0.3240   22.9670  -35.7840 C   0  0  0  0  0  0  0  0  0  0  0  0
    0.6310   21.9100  -34.7900 N   0  0  0  0  0  0  0  0  0  0  0  0
    1.4820   20.8280  -35.3440 C   0  0  0  0  0  0  0  0  0  0  0  0
    2.4260   20.3180  -34.2660 C   0  0  0  0  0  0  0  0  0  0  0  0
   -0.5820   21.4170  -34.1030 C   0  0  0  0  0  0  0  0  0  0  0  0
   -0.9910   20.0300  -34.6160 C   0  0  0  0  0  0  0  0  0  0  0  0
   -2.1230   19.5740  -33.8920 O   0  0  0  0  0  0  0  0  0  0  0  0
   -1.8640   19.5050  -32.5020 C   0  0  0  0  0  0  0  0  0  0  0  0
   -2.8120   20.4150  -31.7100 C   0  0  0  0  0  0  0  0  0  0  0  0
   -3.7010   21.1590  -32.6100 N   0  0  0  0  0  0  0  0  0  0  0  0
   -5.0960   21.3380  -32.3200 C   0  0  0  0  0  0  0  0  0  0  0  0
   -5.4930   22.5200  -31.6470 C   0  0  0  0  0  0  0  0  0  0  0  0
   -4.5400   23.4800  -31.2280 C   0  0  0  0  0  0  0  0  0  0  0  0
   -4.9380   24.6550  -30.5930 C   0  0  0  0  0  0  0  0  0  0  0  0
   -6.2830   24.8890  -30.3380 C   0  0  0  0  0  0  0  0  0  0  0  0
   -7.2390   23.9400  -30.7020 C   0  0  0  0  0  0  0  0  0  0  0  0
   -6.8640   22.7330  -31.3500 C   0  0  0  0  0  0  0  0  0  0  0  0
   -7.7860   21.7530  -31.6360 N   0  0  0  0  0  0  0  0  0  0  0  0
   -9.2340   22.0490  -31.5590 C   0  0  0  0  0  0  0  0  0  0  0  0
   -7.3640   20.4910  -32.0000 C   0  0  0  0  0  0  0  0  0  0  0  0
   -8.2280   19.3840  -31.8550 C   0  0  0  0  0  0  0  0  0  0  0  0
   -7.8720   18.1290  -32.3190 C   0  0  0  0  0  0  0  0  0  0  0  0
   -6.6720   17.9500  -32.9780 C   0  0  0  0  0  0  0  0  0  0  0  0
   -5.7460   19.0030  -33.1140 C   0  0  0  0  0  0  0  0  0  0  0  0
   -4.6420   18.7770  -34.0290 N   0  0  0  0  0  0  0  0  0  0  0  0
   -5.0150   17.8300  -35.0990 C   0  0  0  0  0  0  0  0  0  0  0  0
   -3.9620   16.7230  -35.2960 C   0  0  0  0  0  0  0  0  0  0  0  0
   -3.1680   16.5200  -34.0630 N   0  0  0  0  0  0  0  0  0  0  0  0
   -3.7910   15.4790  -33.2260 C   0  0  0  0  0  0  0  0  0  0  0  0
   -1.7790   16.1290  -34.3730 C   0  0  0  0  0  0  0  0  0  0  0  0
   -6.0410   20.2790  -32.4990 C   0  0  0  0  0  0  0  0  0  0  0  0
    1.8708   24.2950  -35.0489 H   0  0  0  0  0  0  0  0  0  0  0  0
    2.2761   23.4591  -36.5863 H   0  0  0  0  0  0  0  0  0  0  0  0
    1.1060   24.8221  -36.5863 H   0  0  0  0  0  0  0  0  0  0  0  0
   -0.5507   23.5320  -35.4296 H   0  0  0  0  0  0  0  0  0  0  0  0
    0.1395   22.4597  -36.7424 H   0  0  0  0  0  0  0  0  0  0  0  0
    0.8438   20.0024  -35.6921 H   0  0  0  0  0  0  0  0  0  0  0  0
    2.0690   21.2208  -36.1873 H   0  0  0  0  0  0  0  0  0  0  0  0
    2.0069   20.5444  -33.2745 H   0  0  0  0  0  0  0  0  0  0  0  0
    2.5500   19.2302  -34.3719 H   0  0  0  0  0  0  0  0  0  0  0  0
    3.4038   20.8106  -34.3719 H   0  0  0  0  0  0  0  0  0  0  0  0
   -0.3814   21.3544  -33.0233 H   0  0  0  0  0  0  0  0  0  0  0  0
   -1.4047   22.1181  -34.3071 H   0  0  0  0  0  0  0  0  0  0  0  0
   -1.2406   20.0933  -35.6854 H   0  0  0  0  0  0  0  0  0  0  0  0
   -0.1574   19.3261  -34.4756 H   0  0  0  0  0  0  0  0  0  0  0  0
   -1.9988   18.4670  -32.1639 H   0  0  0  0  0  0  0  0  0  0  0  0
   -0.8321   19.8423  -32.3250 H   0  0  0  0  0  0  0  0  0  0  0  0
   -3.4205   19.7980  -31.0325 H   0  0  0  0  0  0  0  0  0  0  0  0
   -2.2093   21.1358  -31.1380 H   0  0  0  0  0  0  0  0  0  0  0  0
   -3.3330   21.5630  -33.5010 H   0  0  0  0  0  0  0  0  0  0  0  0
   -3.4703   23.2956  -31.4063 H   0  0  0  0  0  0  0  0  0  0  0  0
   -4.1851   25.3988  -30.2931 H   0  0  0  0  0  0  0  0  0  0  0  0
   -6.5950   25.8234  -29.8486 H   0  0  0  0  0  0  0  0  0  0  0  0
   -8.3003   24.1297  -30.4836 H   0  0  0  0  0  0  0  0  0  0  0  0
   -9.5399   22.1115  -30.5042 H   0  0  0  0  0  0  0  0  0  0  0  0
   -9.4393   23.0077  -32.0578 H   0  0  0  0  0  0  0  0  0  0  0  0
   -9.7991   21.2478  -32.0578 H   0  0  0  0  0  0  0  0  0  0  0  0
   -9.2027   19.5211  -31.3640 H   0  0  0  0  0  0  0  0  0  0  0  0
   -8.5458   17.2738  -32.1625 H   0  0  0  0  0  0  0  0  0  0  0  0
   -6.4341   16.9649  -33.4057 H   0  0  0  0  0  0  0  0  0  0  0  0
   -3.8110   18.3980  -33.5160 H   0  0  0  0  0  0  0  0  0  0  0  0
   -4.2720   19.6560  -34.4310 H   0  0  0  0  0  0  0  0  0  0  0  0
   -5.9753   17.3617  -34.8374 H   0  0  0  0  0  0  0  0  0  0  0  0
   -5.0861   18.3968  -36.0391 H   0  0  0  0  0  0  0  0  0  0  0  0
   -4.4721   15.7832  -35.5541 H   0  0  0  0  0  0  0  0  0  0  0  0
   -3.2813   17.0270  -36.1049 H   0  0  0  0  0  0  0  0  0  0  0  0
   -3.6435   15.7254  -32.1641 H   0  0  0  0  0  0  0  0  0  0  0  0
   -4.8679   15.4286  -33.4446 H   0  0  0  0  0  0  0  0  0  0  0  0
   -3.3265   14.5061  -33.4446 H   0  0  0  0  0  0  0  0  0  0  0  0
   -1.2242   15.9728  -33.4361 H   0  0  0  0  0  0  0  0  0  0  0  0
   -1.7821   15.1968  -34.9570 H   0  0  0  0  0  0  0  0  0  0  0  0
   -1.2954   16.9259  -34.9570 H   0  0  0  0  0  0  0  0  0  0  0  0
  1  2  1  0
  2  3  1  0
  3  4  1  0
  4  5  1  0
  3  6  1  0
  6  7  1  0
  7  8  1  0
  8  9  1  0
  9 10  1  0
 10 11  1  0
 11 12  1  0
 12 13  2  0
 13 14  1  0
 14 15  2  0
 15 16  1  0
 16 17  2  0
 17 18  1  0
 18 19  2  0
 19 20  1  0
 19 21  1  0
 21 22  2  0
 22 23  1  0
 23 24  2  0
 24 25  1  0
 25 26  1  0
 26 27  1  0
 27 28  1  0
 28 29  1  0
 29 30  1  0
 29 31  1  0
 25 32  2  0
 32 12  1  0
 18 13  1  0
 32 21  1  0
  1 33  1  0
  1 34  1  0
  1 35  1  0
  2 36  1  0
  2 37  1  0
  4 38  1  0
  4 39  1  0
  5 40  1  0
  5 41  1  0
  5 42  1  0
  6 43  1  0
  6 44  1  0
  7 45  1  0
  7 46  1  0
  9 47  1  0
  9 48  1  0
 10 49  1  0
 10 50  1  0
 11 51  1  0
 14 52  1  0
 15 53  1  0
 16 54  1  0
 17 55  1  0
 20 56  1  0
 20 57  1  0
 20 58  1  0
 22 59  1  0
 23 60  1  0
 24 61  1  0
 26 62  1  0
 26 63  1  0
 27 64  1  0
 27 65  1  0
 28 66  1  0
 28 67  1  0
 30 68  1  0
 30 69  1  0
 30 70  1  0
 31 71  1  0
 31 72  1  0
 31 73  1  0
M  CHG  2  19   1  26   1
M  END
>  <UniqueID>  (22) 
22

>  <SMILES>  (22) 
CCN(CC)CCOCCNc1c2ccccc2[n+](C)c2cccc([NH2+]CCN(C)C)c12

>  <Energy>  (22) 
113.6095963631357

>  <Genealogy>  (22) 
CCN(CC)CCOCCNc1c2ccccc2[n+](C)c2cccc([NH2+]CCN(C)C)c12 (protonated)
CCN(CC)CCOCCNc1c2ccccc2[n+](C)c2cccc([NH2+]CCN(C)C)c12 (3D coordinates assigned)
CCN(CC)CCOCCNc1c2ccccc2[n+](C)c2cccc([NH2+]CCN(C)C)c12 (optimized conformer: 113.6095963631357 kcal/mol)

>  <smiles>  (22) 
CCN(CC)CCOCCNc1c2ccccc2[n+](C)c2cccc(NCCN(C)C)c12

>  <score_type>  (22) 
oracle

>  <origin>  (22) 
adg

>  <m_score__min__energy>  (22) 
-8.1500000000000004

>  <m_primary>  (22) 
energy

$$$$
22:0
     RDKit          3D

 37 36  0  0  0  0  0  0  0  0999 V2000
   -9.0060   21.2330  -31.9600 C   0  0  0  0  0  0  0  0  0  0  0  0
   -8.5130   19.9850  -32.7140 C   0  0  0  0  0  0  0  0  0  0  0  0
   -7.0600   19.6600  -32.5410 N   0  0  0  0  0  0  0  0  0  0  0  0
   -6.4630   19.2910  -33.8510 C   0  0  0  0  0  0  0  0  0  0  0  0
   -6.9860   18.4820  -31.6390 C   0  0  0  0  0  0  0  0  0  0  0  0
   -6.3460   20.8310  -31.9380 C   0  0  0  0  0  0  0  0  0  0  0  0
   -5.0370   21.2460  -32.6500 C   0  0  0  0  0  0  0  0  0  0  0  0
   -4.8750   22.7070  -32.5860 N   0  0  0  0  0  0  0  0  0  0  0  0
   -5.9160   23.3290  -31.7560 C   0  0  0  0  0  0  0  0  0  0  0  0
   -5.2900   24.2850  -30.7330 C   0  0  0  0  0  0  0  0  0  0  0  0
   -6.2540   25.3800  -30.2420 C   0  0  0  0  0  0  0  0  0  0  0  0
   -6.0800   25.6740  -28.8180 N   0  0  0  0  0  0  0  0  0  0  0  0
   -8.9368   21.0578  -30.8763 H   0  0  0  0  0  0  0  0  0  0  0  0
   -8.3814   22.0965  -32.2324 H   0  0  0  0  0  0  0  0  0  0  0  0
  -10.0521   21.4366  -32.2324 H   0  0  0  0  0  0  0  0  0  0  0  0
   -9.0977   19.1226  -32.3612 H   0  0  0  0  0  0  0  0  0  0  0  0
   -8.6487   20.2044  -33.7833 H   0  0  0  0  0  0  0  0  0  0  0  0
   -5.5381   18.7193  -33.6844 H   0  0  0  0  0  0  0  0  0  0  0  0
   -7.1767   18.6763  -34.4191 H   0  0  0  0  0  0  0  0  0  0  0  0
   -6.2323   20.2043  -34.4191 H   0  0  0  0  0  0  0  0  0  0  0  0
   -7.0072   18.8197  -30.5923 H   0  0  0  0  0  0  0  0  0  0  0  0
   -7.8444   17.8207  -31.8284 H   0  0  0  0  0  0  0  0  0  0  0  0
   -6.0516   17.9333  -31.8284 H   0  0  0  0  0  0  0  0  0  0  0  0
   -7.0302   21.6921  -31.9560 H   0  0  0  0  0  0  0  0  0  0  0  0
   -6.0549   20.5201  -30.9238 H   0  0  0  0  0  0  0  0  0  0  0  0
   -4.1826   20.7620  -32.1542 H   0  0  0  0  0  0  0  0  0  0  0  0
   -5.0817   20.9319  -33.7032 H   0  0  0  0  0  0  0  0  0  0  0  0
   -4.9760   23.0890  -33.5560 H   0  0  0  0  0  0  0  0  0  0  0  0
   -6.6055   23.8919  -32.4023 H   0  0  0  0  0  0  0  0  0  0  0  0
   -6.4596   22.5389  -31.2172 H   0  0  0  0  0  0  0  0  0  0  0  0
   -4.9602   23.6969  -29.8639 H   0  0  0  0  0  0  0  0  0  0  0  0
   -4.4541   24.7932  -31.2360 H   0  0  0  0  0  0  0  0  0  0  0  0
   -6.0694   26.2986  -30.8183 H   0  0  0  0  0  0  0  0  0  0  0  0
   -7.2813   25.0149  -30.3878 H   0  0  0  0  0  0  0  0  0  0  0  0
   -5.0600   25.6710  -28.5930 H   0  0  0  0  0  0  0  0  0  0  0  0
   -6.4710   26.6170  -28.5890 H   0  0  0  0  0  0  0  0  0  0  0  0
   -6.5460   24.9420  -28.2350 H   0  0  0  0  0  0  0  0  0  0  0  0
  1  2  1  0
  2  3  1  0
  3  4  1  0
  3  5  1  0
  3  6  1  0
  6  7  1  0
  7  8  1  0
  8  9  1  0
  9 10  1  0
 10 11  1  0
 11 12  1  0
  1 13  1  0
  1 14  1  0
  1 15  1  0
  2 16  1  0
  2 17  1  0
  4 18  1  0
  4 19  1  0
  4 20  1  0
  5 21  1  0
  5 22  1  0
  5 23  1  0
  6 24  1  0
  6 25  1  0
  7 26  1  0
  7 27  1  0
  8 28  1  0
  9 29  1  0
  9 30  1  0
 10 31  1  0
 10 32  1  0
 11 33  1  0
 11 34  1  0
 12 35  1  0
 12 36  1  0
 12 37  1  0
M  CHG  2   3   1  12   1
M  END
>  <UniqueID>  (23) 
23

>  <SMILES>  (23) 
CC[N+](C)(C)CCNCCC[NH3+]

>  <Energy>  (23) 
35.339770962533905

>  <Genealogy>  (23) 
CC[N+](C)(C)CCNCCC[NH3+] (protonated)
CC[N+](C)(C)CCNCCC[NH3+] (3D coordinates assigned)
CC[N+](C)(C)CCNCCC[NH3+] (optimized conformer: 35.339770962533905 kcal/mol)

>  <smiles>  (23) 
CC[N+](C)(C)CCNCCCN

>  <score_type>  (23) 
oracle

>  <origin>  (23) 
adg

>  <m_score__min__energy>  (23) 
-3.7599999999999998

>  <m_primary>  (23) 
energy

$$$$
23:0
     RDKit          3D

 59 63  0  0  0  0  0  0  0  0999 V2000
   -4.6110   14.5020  -32.0760 C   0  0  0  0  0  0  0  0  0  0  0  0
   -5.3590   15.2300  -33.1910 C   0  0  0  0  0  0  0  0  0  0  0  0
   -6.0950   16.3960  -32.6610 N   0  0  0  0  0  0  0  0  0  0  0  0
   -5.8090   16.6630  -31.2380 C   0  0  0  0  0  0  0  0  0  0  0  0
   -6.0130   17.5970  -33.5280 C   0  0  0  0  0  0  0  0  0  0  0  0
   -4.9320   18.6350  -33.1390 C   0  0  0  0  0  0  0  0  0  0  0  0
   -5.2110   19.9820  -33.6730 N   0  0  0  0  0  0  0  0  0  0  0  0
   -5.7220   20.8610  -32.6350 C   0  0  0  0  0  0  0  0  0  0  0  0
   -4.8330   21.6330  -31.8400 C   0  0  0  0  0  0  0  0  0  0  0  0
   -5.3710   22.5690  -30.9160 C   0  0  0  0  0  0  0  0  0  0  0  0
   -6.7210   22.8380  -30.8990 N   0  0  0  0  0  0  0  0  0  0  0  0
   -7.2240   24.0840  -30.2860 C   0  0  0  0  0  0  0  0  0  0  0  0
   -7.6010   21.9640  -31.5010 C   0  0  0  0  0  0  0  0  0  0  0  0
   -8.9960   22.0460  -31.2590 C   0  0  0  0  0  0  0  0  0  0  0  0
   -9.8840   21.1610  -31.8620 C   0  0  0  0  0  0  0  0  0  0  0  0
   -9.4100   20.1670  -32.7080 C   0  0  0  0  0  0  0  0  0  0  0  0
   -8.0450   20.0530  -32.9600 C   0  0  0  0  0  0  0  0  0  0  0  0
   -7.1170   20.9510  -32.3750 C   0  0  0  0  0  0  0  0  0  0  0  0
   -4.4010   23.2700  -30.0280 C   0  0  0  0  0  0  0  0  0  0  0  0
   -4.6270   23.7660  -28.7870 N   0  0  0  0  0  0  0  0  0  0  0  0
   -3.4190   24.1470  -28.3270 C   0  0  0  0  0  0  0  0  0  0  0  0
   -3.1240   24.6880  -27.0760 C   0  0  0  0  0  0  0  0  0  0  0  0
   -1.7770   24.9630  -26.7760 C   0  0  0  0  0  0  0  0  0  0  0  0
   -1.3140   25.7100  -25.0800 Br  0  0  0  0  0  0  0  0  0  0  0  0
   -0.7620   24.6790  -27.7190 C   0  0  0  0  0  0  0  0  0  0  0  0
   -1.0850   24.1180  -28.9680 C   0  0  0  0  0  0  0  0  0  0  0  0
   -2.4300   23.8740  -29.2400 C   0  0  0  0  0  0  0  0  0  0  0  0
   -3.0540   23.2960  -30.3220 C   0  0  0  0  0  0  0  0  0  0  0  0
   -2.4850   22.6320  -31.5280 C   0  0  0  0  0  0  0  0  0  0  0  0
   -3.3150   21.3720  -31.8350 C   0  0  0  0  0  0  0  0  0  0  0  0
   -4.9740   14.8553  -31.0996 H   0  0  0  0  0  0  0  0  0  0  0  0
   -4.7866   13.4196  -32.1627 H   0  0  0  0  0  0  0  0  0  0  0  0
   -3.5337   14.7068  -32.1627 H   0  0  0  0  0  0  0  0  0  0  0  0
   -4.6354   15.5737  -33.9448 H   0  0  0  0  0  0  0  0  0  0  0  0
   -6.0823   14.5337  -33.6405 H   0  0  0  0  0  0  0  0  0  0  0  0
   -6.4689   16.0469  -30.6095 H   0  0  0  0  0  0  0  0  0  0  0  0
   -4.7596   16.4140  -31.0219 H   0  0  0  0  0  0  0  0  0  0  0  0
   -5.9854   17.7271  -31.0219 H   0  0  0  0  0  0  0  0  0  0  0  0
   -5.8034   17.2594  -34.5537 H   0  0  0  0  0  0  0  0  0  0  0  0
   -6.9778   18.1134  -33.4159 H   0  0  0  0  0  0  0  0  0  0  0  0
   -4.8824   18.6957  -32.0418 H   0  0  0  0  0  0  0  0  0  0  0  0
   -3.9793   18.2983  -33.5738 H   0  0  0  0  0  0  0  0  0  0  0  0
   -4.3660   20.4010  -34.1180 H   0  0  0  0  0  0  0  0  0  0  0  0
   -5.8910   19.9200  -34.4580 H   0  0  0  0  0  0  0  0  0  0  0  0
   -7.1877   23.9942  -29.1903 H   0  0  0  0  0  0  0  0  0  0  0  0
   -6.5966   24.9291  -30.6056 H   0  0  0  0  0  0  0  0  0  0  0  0
   -8.2623   24.2567  -30.6056 H   0  0  0  0  0  0  0  0  0  0  0  0
   -9.3825   22.8228  -30.5828 H   0  0  0  0  0  0  0  0  0  0  0  0
  -10.9633   21.2487  -31.6684 H   0  0  0  0  0  0  0  0  0  0  0  0
  -10.1150   19.4673  -33.1807 H   0  0  0  0  0  0  0  0  0  0  0  0
   -7.6814   19.2541  -33.6230 H   0  0  0  0  0  0  0  0  0  0  0  0
   -5.5210   23.7780  -28.2480 H   0  0  0  0  0  0  0  0  0  0  0  0
   -3.9204   24.8936  -26.3456 H   0  0  0  0  0  0  0  0  0  0  0  0
    0.2877   24.8984  -27.4740 H   0  0  0  0  0  0  0  0  0  0  0  0
   -0.3032   23.8802  -29.7044 H   0  0  0  0  0  0  0  0  0  0  0  0
   -2.5272   23.3209  -32.3845 H   0  0  0  0  0  0  0  0  0  0  0  0
   -1.4366   22.3548  -31.3439 H   0  0  0  0  0  0  0  0  0  0  0  0
   -3.0220   20.9928  -32.8251 H   0  0  0  0  0  0  0  0  0  0  0  0
   -3.1108   20.6430  -31.0369 H   0  0  0  0  0  0  0  0  0  0  0  0
  1  2  1  0
  2  3  1  0
  3  4  1  0
  3  5  1  0
  5  6  1  0
  6  7  1  0
  7  8  1  0
  8  9  2  0
  9 10  1  0
 10 11  2  0
 11 12  1  0
 11 13  1  0
 13 14  2  0
 14 15  1  0
 15 16  2  0
 16 17  1  0
 17 18  2  0
 10 19  1  0
 19 20  1  0
 20 21  1  0
 21 22  2  0
 22 23  1  0
 23 24  1  0
 23 25  2  0
 25 26  1  0
 26 27  2  0
 27 28  1  0
 28 29  1  0
 29 30  1  0
 18  8  1  0
 28 19  2  0
 30  9  1  0
 18 13  1  0
 27 21  1  0
  1 31  1  0
  1 32  1  0
  1 33  1  0
  2 34  1  0
  2 35  1  0
  4 36  1  0
  4 37  1  0
  4 38  1  0
  5 39  1  0
  5 40  1  0
  6 41  1  0
  6 42  1  0
  7 43  1  0
  7 44  1  0
 12 45  1  0
 12 46  1  0
 12 47  1  0
 14 48  1  0
 15 49  1  0
 16 50  1  0
 17 51  1  0
 20 52  1  0
 22 53  1  0
 25 54  1  0
 26 55  1  0
 29 56  1  0
 29 57  1  0
 30 58  1  0
 30 59  1  0
M  CHG  2   7   1  11   1
M  END
>  <UniqueID>  (24) 
24

>  <SMILES>  (24) 
CCN(C)CC[NH2+]c1c2c([n+](C)c3ccccc13)-c1[nH]c3cc(Br)ccc3c1CC2

>  <Energy>  (24) 
132.75454584813613

>  <Genealogy>  (24) 
CCN(C)CC[NH2+]c1c2c([n+](C)c3ccccc13)-c1[nH]c3cc(Br)ccc3c1CC2 (protonated)
CCN(C)CC[NH2+]c1c2c([n+](C)c3ccccc13)-c1[nH]c3cc(Br)ccc3c1CC2 (3D coordinates assigned)
CCN(C)CC[NH2+]c1c2c([n+](C)c3ccccc13)-c1[nH]c3cc(Br)ccc3c1CC2 (nonaromatic ring conformer: 132.75454584813613 kcal/mol)

>  <smiles>  (24) 
CCN(C)CCNc1c2c([n+](C)c3ccccc13)-c1[nH]c3cc(Br)ccc3c1CC2

>  <score_type>  (24) 
oracle

>  <origin>  (24) 
adg

>  <m_score__min__energy>  (24) 
-9.1099999999999994

>  <m_primary>  (24) 
energy

$$$$
24:0
     RDKit          3D

 70 73  0  0  0  0  0  0  0  0999 V2000
   -1.9170   24.4330  -28.9600 C   0  0  0  0  0  0  0  0  0  0  0  0
   -3.4460   24.4580  -29.1130 C   0  0  0  0  0  0  0  0  0  0  0  0
   -3.9360   24.4500  -30.5150 N   0  0  0  0  0  0  0  0  0  0  0  0
   -5.1160   25.2890  -30.8180 C   0  0  0  0  0  0  0  0  0  0  0  0
   -6.1220   25.2470  -29.6700 C   0  0  0  0  0  0  0  0  0  0  0  0
   -3.9420   23.1220  -31.1670 C   0  0  0  0  0  0  0  0  0  0  0  0
   -5.2340   22.8270  -31.9520 C   0  0  0  0  0  0  0  0  0  0  0  0
   -4.9950   21.9030  -33.0730 N   0  0  0  0  0  0  0  0  0  0  0  0
   -5.3010   20.4860  -33.0490 C   0  0  0  0  0  0  0  0  0  0  0  0
   -6.6080   20.0280  -32.7330 C   0  0  0  0  0  0  0  0  0  0  0  0
   -7.6550   20.9120  -32.3800 C   0  0  0  0  0  0  0  0  0  0  0  0
   -8.8830   20.4340  -31.9270 C   0  0  0  0  0  0  0  0  0  0  0  0
   -9.1050   19.0680  -31.8390 C   0  0  0  0  0  0  0  0  0  0  0  0
   -8.1330   18.1760  -32.2840 C   0  0  0  0  0  0  0  0  0  0  0  0
   -6.9000   18.6400  -32.8120 C   0  0  0  0  0  0  0  0  0  0  0  0
   -6.0160   17.7810  -33.4310 N   0  0  0  0  0  0  0  0  0  0  0  0
   -6.4820   16.4510  -33.8890 C   0  0  0  0  0  0  0  0  0  0  0  0
   -4.7170   18.1800  -33.6750 C   0  0  0  0  0  0  0  0  0  0  0  0
   -3.7480   17.2530  -34.1350 C   0  0  0  0  0  0  0  0  0  0  0  0
   -2.4520   17.6480  -34.4320 C   0  0  0  0  0  0  0  0  0  0  0  0
   -2.0560   18.9530  -34.2030 C   0  0  0  0  0  0  0  0  0  0  0  0
   -2.9510   19.8890  -33.6710 C   0  0  0  0  0  0  0  0  0  0  0  0
   -2.4100   21.1170  -33.1680 N   0  0  0  0  0  0  0  0  0  0  0  0
   -1.1110   21.2070  -32.5000 C   0  0  0  0  0  0  0  0  0  0  0  0
   -1.0870   20.3580  -31.2220 C   0  0  0  0  0  0  0  0  0  0  0  0
   -1.1740   21.2150  -29.9500 C   0  0  0  0  0  0  0  0  0  0  0  0
   -1.5410   20.3800  -28.7980 N   0  0  0  0  0  0  0  0  0  0  0  0
   -2.7510   20.5630  -28.1850 C   0  0  0  0  0  0  0  0  0  0  0  0
   -3.1180   19.7740  -27.0920 C   0  0  0  0  0  0  0  0  0  0  0  0
   -2.2440   18.7870  -26.6370 C   0  0  0  0  0  0  0  0  0  0  0  0
   -1.0220   18.5940  -27.2790 C   0  0  0  0  0  0  0  0  0  0  0  0
   -0.6860   19.4000  -28.3690 C   0  0  0  0  0  0  0  0  0  0  0  0
   -4.3180   19.5340  -33.4540 C   0  0  0  0  0  0  0  0  0  0  0  0
   -1.6554   24.4287  -27.8916 H   0  0  0  0  0  0  0  0  0  0  0  0
   -1.5153   23.5282  -29.4395 H   0  0  0  0  0  0  0  0  0  0  0  0
   -1.4859   25.3242  -29.4395 H   0  0  0  0  0  0  0  0  0  0  0  0
   -3.8546   23.5728  -28.6035 H   0  0  0  0  0  0  0  0  0  0  0  0
   -3.7837   25.4086  -28.6744 H   0  0  0  0  0  0  0  0  0  0  0  0
   -4.7893   26.3279  -30.9731 H   0  0  0  0  0  0  0  0  0  0  0  0
   -5.6009   24.8999  -31.7254 H   0  0  0  0  0  0  0  0  0  0  0  0
   -5.5845   25.2694  -28.7105 H   0  0  0  0  0  0  0  0  0  0  0  0
   -6.7905   26.1180  -29.7363 H   0  0  0  0  0  0  0  0  0  0  0  0
   -6.7156   24.3233  -29.7363 H   0  0  0  0  0  0  0  0  0  0  0  0
   -3.0925   23.0729  -31.8641 H   0  0  0  0  0  0  0  0  0  0  0  0
   -3.8709   22.3696  -30.3677 H   0  0  0  0  0  0  0  0  0  0  0  0
   -5.9698   22.3761  -31.2698 H   0  0  0  0  0  0  0  0  0  0  0  0
   -5.6067   23.7759  -32.3652 H   0  0  0  0  0  0  0  0  0  0  0  0
   -4.6080   22.2930  -33.9630 H   0  0  0  0  0  0  0  0  0  0  0  0
   -7.4965   21.9972  -32.4648 H   0  0  0  0  0  0  0  0  0  0  0  0
   -9.6760   21.1400  -31.6393 H   0  0  0  0  0  0  0  0  0  0  0  0
  -10.0481   18.6895  -31.4180 H   0  0  0  0  0  0  0  0  0  0  0  0
   -8.3237   17.0943  -32.2254 H   0  0  0  0  0  0  0  0  0  0  0  0
   -6.7033   15.8194  -33.0160 H   0  0  0  0  0  0  0  0  0  0  0  0
   -7.3919   16.5701  -34.4955 H   0  0  0  0  0  0  0  0  0  0  0  0
   -5.6967   15.9762  -34.4955 H   0  0  0  0  0  0  0  0  0  0  0  0
   -4.0302   16.1971  -34.2591 H   0  0  0  0  0  0  0  0  0  0  0  0
   -1.7386   16.9226  -34.8501 H   0  0  0  0  0  0  0  0  0  0  0  0
   -1.0267   19.2590  -34.4414 H   0  0  0  0  0  0  0  0  0  0  0  0
   -3.0380   21.9460  -33.1870 H   0  0  0  0  0  0  0  0  0  0  0  0
   -0.3291   20.8473  -33.1850 H   0  0  0  0  0  0  0  0  0  0  0  0
   -0.9313   22.2569  -32.2254 H   0  0  0  0  0  0  0  0  0  0  0  0
   -1.9418   19.6659  -31.2412 H   0  0  0  0  0  0  0  0  0  0  0  0
   -0.1305   19.8153  -31.1969 H   0  0  0  0  0  0  0  0  0  0  0  0
   -0.1975   21.6850  -29.7614 H   0  0  0  0  0  0  0  0  0  0  0  0
   -1.9430   21.9888  -30.0912 H   0  0  0  0  0  0  0  0  0  0  0  0
   -3.4394   21.3368  -28.5556 H   0  0  0  0  0  0  0  0  0  0  0  0
   -4.0869   19.9297  -26.5951 H   0  0  0  0  0  0  0  0  0  0  0  0
   -2.5183   18.1626  -25.7739 H   0  0  0  0  0  0  0  0  0  0  0  0
   -0.3288   17.8143  -26.9305 H   0  0  0  0  0  0  0  0  0  0  0  0
    0.2724   19.2465  -28.8867 H   0  0  0  0  0  0  0  0  0  0  0  0
  1  2  1  0
  2  3  1  0
  3  4  1  0
  4  5  1  0
  3  6  1  0
  6  7  1  0
  7  8  1  0
  8  9  1  0
  9 10  2  0
 10 11  1  0
 11 12  2  0
 12 13  1  0
 13 14  2  0
 14 15  1  0
 15 16  2  0
 16 17  1  0
 16 18  1  0
 18 19  2  0
 19 20  1  0
 20 21  2  0
 21 22  1  0
 22 23  1  0
 23 24  1  0
 24 25  1  0
 25 26  1  0
 26 27  1  0
 27 28  2  0
 28 29  1  0
 29 30  2  0
 30 31  1  0
 31 32  2  0
 22 33  2  0
 33  9  1  0
 15 10  1  0
 33 18  1  0
 32 27  1  0
  1 34  1  0
  1 35  1  0
  1 36  1  0
  2 37  1  0
  2 38  1  0
  4 39  1  0
  4 40  1  0
  5 41  1  0
  5 42  1  0
  5 43  1  0
  6 44  1  0
  6 45  1  0
  7 46  1  0
  7 47  1  0
  8 48  1  0
 11 49  1  0
 12 50  1  0
 13 51  1  0
 14 52  1  0
 17 53  1  0
 17 54  1  0
 17 55  1  0
 19 56  1  0
 20 57  1  0
 21 58  1  0
 23 59  1  0
 24 60  1  0
 24 61  1  0
 25 62  1  0
 25 63  1  0
 26 64  1  0
 26 65  1  0
 28 66  1  0
 29 67  1  0
 30 68  1  0
 31 69  1  0
 32 70  1  0
M  CHG  2  16   1  27   1
M  END
>  <UniqueID>  (25) 
25

>  <SMILES>  (25) 
CCN(CC)CCNc1c2ccccc2[n+](C)c2cccc(NCCC[n+]3ccccc3)c12

>  <Energy>  (25) 
114.54598123433831

>  <Genealogy>  (25) 
CCN(CC)CCNc1c2ccccc2[n+](C)c2cccc(NCCC[n+]3ccccc3)c12 (3D coordinates assigned)
CCN(CC)CCNc1c2ccccc2[n+](C)c2cccc(NCCC[n+]3ccccc3)c12 (optimized conformer: 114.54598123433831 kcal/mol)

>  <smiles>  (25) 
CCN(CC)CCNc1c2ccccc2[n+](C)c2cccc(NCCC[n+]3ccccc3)c12

>  <score_type>  (25) 
oracle

>  <origin>  (25) 
adg

>  <m_score__min__energy>  (25) 
-9.3100000000000005

>  <m_primary>  (25) 
energy

$$$$
25:0
     RDKit          3D

 51 53  0  0  0  0  0  0  0  0999 V2000
   -2.2570   24.4480  -28.6930 C   0  0  0  0  0  0  0  0  0  0  0  0
   -3.7510   24.5560  -28.9800 C   0  0  0  0  0  0  0  0  0  0  0  0
   -3.9800   24.7070  -30.4430 N   0  0  0  0  0  0  0  0  0  0  0  0
   -5.2660   25.3900  -30.7250 C   0  0  0  0  0  0  0  0  0  0  0  0
   -6.1610   25.4350  -29.4860 C   0  0  0  0  0  0  0  0  0  0  0  0
   -3.9340   23.3980  -31.1380 C   0  0  0  0  0  0  0  0  0  0  0  0
   -5.3440   22.8020  -31.3290 C   0  0  0  0  0  0  0  0  0  0  0  0
   -5.6160   22.3860  -32.7210 N   0  0  0  0  0  0  0  0  0  0  0  0
   -5.6180   20.9360  -32.8770 C   0  0  0  0  0  0  0  0  0  0  0  0
   -6.7850   20.1580  -32.6100 C   0  0  0  0  0  0  0  0  0  0  0  0
   -7.9910   20.7310  -32.1240 C   0  0  0  0  0  0  0  0  0  0  0  0
   -9.0950   19.9420  -31.8170 C   0  0  0  0  0  0  0  0  0  0  0  0
   -9.0330   18.5670  -31.9670 C   0  0  0  0  0  0  0  0  0  0  0  0
   -7.8800   17.9740  -32.4650 C   0  0  0  0  0  0  0  0  0  0  0  0
   -6.7540   18.7520  -32.8390 C   0  0  0  0  0  0  0  0  0  0  0  0
   -5.6450   18.1620  -33.4090 N   0  0  0  0  0  0  0  0  0  0  0  0
   -5.7450   16.7970  -33.9760 C   0  0  0  0  0  0  0  0  0  0  0  0
   -4.4560   18.8530  -33.4890 C   0  0  0  0  0  0  0  0  0  0  0  0
   -3.2410   18.1860  -33.7860 C   0  0  0  0  0  0  0  0  0  0  0  0
   -2.0510   18.8860  -33.9470 C   0  0  0  0  0  0  0  0  0  0  0  0
   -2.0330   20.2680  -33.8100 C   0  0  0  0  0  0  0  0  0  0  0  0
   -0.8030   20.9920  -33.9990 C   0  0  0  0  0  0  0  0  0  0  0  0
    0.1870   21.5730  -34.1520 N   0  0  0  0  0  0  0  0  0  0  0  0
   -3.2040   20.9500  -33.4720 C   0  0  0  0  0  0  0  0  0  0  0  0
   -4.4280   20.2590  -33.2710 C   0  0  0  0  0  0  0  0  0  0  0  0
   -2.0925   24.4361  -27.6054 H   0  0  0  0  0  0  0  0  0  0  0  0
   -1.8653   23.5192  -29.1333 H   0  0  0  0  0  0  0  0  0  0  0  0
   -1.7357   25.3108  -29.1333 H   0  0  0  0  0  0  0  0  0  0  0  0
   -4.2567   23.6462  -28.6244 H   0  0  0  0  0  0  0  0  0  0  0  0
   -4.1555   25.4363  -28.4590 H   0  0  0  0  0  0  0  0  0  0  0  0
   -5.0594   26.4191  -31.0541 H   0  0  0  0  0  0  0  0  0  0  0  0
   -5.7914   24.8256  -31.5095 H   0  0  0  0  0  0  0  0  0  0  0  0
   -5.5363   25.4036  -28.5811 H   0  0  0  0  0  0  0  0  0  0  0  0
   -6.7501   26.3639  -29.4928 H   0  0  0  0  0  0  0  0  0  0  0  0
   -6.8404   24.5699  -29.4928 H   0  0  0  0  0  0  0  0  0  0  0  0
   -3.4684   23.5350  -32.1252 H   0  0  0  0  0  0  0  0  0  0  0  0
   -3.3492   22.7020  -30.5187 H   0  0  0  0  0  0  0  0  0  0  0  0
   -5.4435   21.9228  -30.6755 H   0  0  0  0  0  0  0  0  0  0  0  0
   -6.0691   23.5893  -31.0752 H   0  0  0  0  0  0  0  0  0  0  0  0
   -6.5400   22.7700  -33.0200 H   0  0  0  0  0  0  0  0  0  0  0  0
   -4.9740   22.8820  -33.3690 H   0  0  0  0  0  0  0  0  0  0  0  0
   -8.0530   21.8208  -31.9877 H   0  0  0  0  0  0  0  0  0  0  0  0
  -10.0206   20.4124  -31.4537 H   0  0  0  0  0  0  0  0  0  0  0  0
   -9.8969   17.9442  -31.6918 H   0  0  0  0  0  0  0  0  0  0  0  0
   -7.8390   16.8799  -32.5715 H   0  0  0  0  0  0  0  0  0  0  0  0
   -5.7988   16.0633  -33.1582 H   0  0  0  0  0  0  0  0  0  0  0  0
   -6.6510   16.7227  -34.5954 H   0  0  0  0  0  0  0  0  0  0  0  0
   -4.8595   16.5915  -34.5954 H   0  0  0  0  0  0  0  0  0  0  0  0
   -3.2399   17.0911  -33.8913 H   0  0  0  0  0  0  0  0  0  0  0  0
   -1.1228   18.3450  -34.1831 H   0  0  0  0  0  0  0  0  0  0  0  0
   -3.1775   22.0439  -33.3593 H   0  0  0  0  0  0  0  0  0  0  0  0
  1  2  1  0
  2  3  1  0
  3  4  1  0
  4  5  1  0
  3  6  1  0
  6  7  1  0
  7  8  1  0
  8  9  1  0
  9 10  2  0
 10 11  1  0
 11 12  2  0
 12 13  1  0
 13 14  2  0
 14 15  1  0
 15 16  2  0
 16 17  1  0
 16 18  1  0
 18 19  2  0
 19 20  1  0
 20 21  2  0
 21 22  1  0
 22 23  3  0
 21 24  1  0
 24 25  2  0
 25  9  1  0
 15 10  1  0
 25 18  1  0
  1 26  1  0
  1 27  1  0
  1 28  1  0
  2 29  1  0
  2 30  1  0
  4 31  1  0
  4 32  1  0
  5 33  1  0
  5 34  1  0
  5 35  1  0
  6 36  1  0
  6 37  1  0
  7 38  1  0
  7 39  1  0
  8 40  1  0
  8 41  1  0
 11 42  1  0
 12 43  1  0
 13 44  1  0
 14 45  1  0
 17 46  1  0
 17 47  1  0
 17 48  1  0
 19 49  1  0
 20 50  1  0
 24 51  1  0
M  CHG  2   8   1  16   1
M  END
>  <UniqueID>  (26) 
26

>  <SMILES>  (26) 
CCN(CC)CC[NH2+]c1c2ccccc2[n+](C)c2ccc(C#N)cc12

>  <Energy>  (26) 
77.20643527976475

>  <Genealogy>  (26) 
CCN(CC)CC[NH2+]c1c2ccccc2[n+](C)c2ccc(C#N)cc12 (protonated)
CCN(CC)CC[NH2+]c1c2ccccc2[n+](C)c2ccc(C#N)cc12 (3D coordinates assigned)
CCN(CC)CC[NH2+]c1c2ccccc2[n+](C)c2ccc(C#N)cc12 (optimized conformer: 77.20643527976475 kcal/mol)

>  <smiles>  (26) 
CCN(CC)CCNc1c2ccccc2[n+](C)c2ccc(C#N)cc12

>  <score_type>  (26) 
oracle

>  <origin>  (26) 
adg

>  <m_score__min__energy>  (26) 
-8.4000000000000004

>  <m_primary>  (26) 
energy

$$$$
26:0
     RDKit          3D

 61 63  0  0  0  0  0  0  0  0999 V2000
   -0.4790   28.5580  -26.2840 C   0  0  0  0  0  0  0  0  0  0  0  0
   -0.6610   27.9850  -24.8740 C   0  0  0  0  0  0  0  0  0  0  0  0
   -1.4370   26.7160  -24.8750 N   0  0  2  0  0  0  0  0  0  0  0  0
   -0.7760   25.6690  -24.0700 C   0  0  0  0  0  0  0  0  0  0  0  0
   -1.7420   26.2520  -26.2540 C   0  0  0  0  0  0  0  0  0  0  0  0
   -2.9420   25.2920  -26.3690 C   0  0  0  0  0  0  0  0  0  0  0  0
   -2.6070   24.2000  -27.2030 O   0  0  0  0  0  0  0  0  0  0  0  0
   -2.4610   24.6090  -28.5500 C   0  0  0  0  0  0  0  0  0  0  0  0
   -3.6810   24.2190  -29.3930 C   0  0  0  0  0  0  0  0  0  0  0  0
   -3.8680   25.1470  -30.4450 O   0  0  0  0  0  0  0  0  0  0  0  0
   -5.2170   25.1760  -30.8790 C   0  0  0  0  0  0  0  0  0  0  0  0
   -5.8190   23.7680  -30.8710 C   0  0  0  0  0  0  0  0  0  0  0  0
   -5.8610   23.2070  -32.2170 N   0  0  0  0  0  0  0  0  0  0  0  0
   -5.8720   21.7860  -32.4060 C   0  0  0  0  0  0  0  0  0  0  0  0
   -7.0710   21.0670  -32.2780 C   0  0  0  0  0  0  0  0  0  0  0  0
   -8.2850   21.7350  -32.0070 C   0  0  0  0  0  0  0  0  0  0  0  0
   -9.4820   21.0250  -31.9320 C   0  0  0  0  0  0  0  0  0  0  0  0
   -9.4900   19.6480  -32.1380 C   0  0  0  0  0  0  0  0  0  0  0  0
   -8.3000   18.9670  -32.3930 C   0  0  0  0  0  0  0  0  0  0  0  0
   -7.0590   19.6540  -32.4380 C   0  0  0  0  0  0  0  0  0  0  0  0
   -5.8640   18.9890  -32.6480 N   0  0  0  0  0  0  0  0  0  0  0  0
   -5.8040   17.5170  -32.5210 C   0  0  0  0  0  0  0  0  0  0  0  0
   -4.7190   19.7050  -32.9460 C   0  0  0  0  0  0  0  0  0  0  0  0
   -3.5440   19.0700  -33.4260 C   0  0  0  0  0  0  0  0  0  0  0  0
   -2.3800   19.8010  -33.6780 C   0  0  0  0  0  0  0  0  0  0  0  0
   -0.9420   18.9860  -34.2720 Cl  0  0  0  0  0  0  0  0  0  0  0  0
   -2.3620   21.1770  -33.4690 C   0  0  0  0  0  0  0  0  0  0  0  0
   -3.5110   21.8350  -33.0360 C   0  0  0  0  0  0  0  0  0  0  0  0
   -4.7000   21.1170  -32.7920 C   0  0  0  0  0  0  0  0  0  0  0  0
   -0.1467   29.6043  -26.2145 H   0  0  0  0  0  0  0  0  0  0  0  0
    0.2761   27.9686  -26.8247 H   0  0  0  0  0  0  0  0  0  0  0  0
   -1.4359   28.5123  -26.8247 H   0  0  0  0  0  0  0  0  0  0  0  0
    0.3312   27.7923  -24.4399 H   0  0  0  0  0  0  0  0  0  0  0  0
   -1.2230   28.7221  -24.2817 H   0  0  0  0  0  0  0  0  0  0  0  0
   -2.3670   26.9010  -24.4290 H   0  0  0  0  0  0  0  0  0  0  0  0
   -0.9137   25.8871  -23.0007 H   0  0  0  0  0  0  0  0  0  0  0  0
   -1.2205   24.6906  -24.3049 H   0  0  0  0  0  0  0  0  0  0  0  0
    0.2985   25.6495  -24.3049 H   0  0  0  0  0  0  0  0  0  0  0  0
   -1.9526   27.1368  -26.8727 H   0  0  0  0  0  0  0  0  0  0  0  0
   -0.8614   25.6839  -26.5884 H   0  0  0  0  0  0  0  0  0  0  0  0
   -3.2077   24.9190  -25.3689 H   0  0  0  0  0  0  0  0  0  0  0  0
   -3.7965   25.8311  -26.8041 H   0  0  0  0  0  0  0  0  0  0  0  0
   -2.3406   25.7020  -28.5803 H   0  0  0  0  0  0  0  0  0  0  0  0
   -1.5776   24.1051  -28.9691 H   0  0  0  0  0  0  0  0  0  0  0  0
   -3.5234   23.2164  -29.8172 H   0  0  0  0  0  0  0  0  0  0  0  0
   -4.5745   24.2205  -28.7514 H   0  0  0  0  0  0  0  0  0  0  0  0
   -5.7993   25.8214  -30.2049 H   0  0  0  0  0  0  0  0  0  0  0  0
   -5.2495   25.5685  -31.9061 H   0  0  0  0  0  0  0  0  0  0  0  0
   -5.2049   23.1184  -30.2301 H   0  0  0  0  0  0  0  0  0  0  0  0
   -6.8476   23.8301  -30.4862 H   0  0  0  0  0  0  0  0  0  0  0  0
   -5.8340   23.8200  -33.0620 H   0  0  0  0  0  0  0  0  0  0  0  0
   -8.2861   22.8243  -31.8539 H   0  0  0  0  0  0  0  0  0  0  0  0
  -10.4211   21.5529  -31.7099 H   0  0  0  0  0  0  0  0  0  0  0  0
  -10.4398   19.0945  -32.0994 H   0  0  0  0  0  0  0  0  0  0  0  0
   -8.3236   17.8803  -32.5619 H   0  0  0  0  0  0  0  0  0  0  0  0
   -5.7927   17.2410  -31.4562 H   0  0  0  0  0  0  0  0  0  0  0  0
   -6.6847   17.0709  -33.0061 H   0  0  0  0  0  0  0  0  0  0  0  0
   -4.8899   17.1441  -33.0061 H   0  0  0  0  0  0  0  0  0  0  0  0
   -3.5497   17.9843  -33.6026 H   0  0  0  0  0  0  0  0  0  0  0  0
   -1.4378   21.7465  -33.6463 H   0  0  0  0  0  0  0  0  0  0  0  0
   -3.4907   22.9241  -32.8831 H   0  0  0  0  0  0  0  0  0  0  0  0
  1  2  1  0
  2  3  1  0
  3  4  1  0
  3  5  1  0
  5  6  1  0
  6  7  1  0
  7  8  1  0
  8  9  1  0
  9 10  1  0
 10 11  1  0
 11 12  1  0
 12 13  1  0
 13 14  1  0
 14 15  2  0
 15 16  1  0
 16 17  2  0
 17 18  1  0
 18 19  2  0
 19 20  1  0
 20 21  2  0
 21 22  1  0
 21 23  1  0
 23 24  2  0
 24 25  1  0
 25 26  1  0
 25 27  2  0
 27 28  1  0
 28 29  2  0
 29 14  1  0
 20 15  1  0
 29 23  1  0
  1 30  1  0
  1 31  1  0
  1 32  1  0
  2 33  1  0
  2 34  1  0
  3 35  1  1
  4 36  1  0
  4 37  1  0
  4 38  1  0
  5 39  1  0
  5 40  1  0
  6 41  1  0
  6 42  1  0
  8 43  1  0
  8 44  1  0
  9 45  1  0
  9 46  1  0
 11 47  1  0
 11 48  1  0
 12 49  1  0
 12 50  1  0
 13 51  1  0
 16 52  1  0
 17 53  1  0
 18 54  1  0
 19 55  1  0
 22 56  1  0
 22 57  1  0
 22 58  1  0
 24 59  1  0
 27 60  1  0
 28 61  1  0
M  CHG  2   3   1  21   1
M  END
>  <UniqueID>  (27) 
27

>  <SMILES>  (27) 
CC[N@H+](C)CCOCCOCCNc1c2ccccc2[n+](C)c2cc(Cl)ccc12

>  <Energy>  (27) 
92.31601891318851

>  <Genealogy>  (27) 
CC[NH+](C)CCOCCOCCNc1c2ccccc2[n+](C)c2cc(Cl)ccc12 (protonated)
CC[N@H+](C)CCOCCOCCNc1c2ccccc2[n+](C)c2cc(Cl)ccc12 (chirality)
CC[N@H+](C)CCOCCOCCNc1c2ccccc2[n+](C)c2cc(Cl)ccc12 (3D coordinates assigned)
CC[N@H+](C)CCOCCOCCNc1c2ccccc2[n+](C)c2cc(Cl)ccc12 (optimized conformer: 92.31601891318851 kcal/mol)

>  <smiles>  (27) 
CCN(C)CCOCCOCCNc1c2ccccc2[n+](C)c2cc(Cl)ccc12

>  <score_type>  (27) 
oracle

>  <origin>  (27) 
adg

>  <m_score__min__energy>  (27) 
-8.5899999999999999

>  <m_primary>  (27) 
energy

$$$$
27:0
     RDKit          3D

 49 51  0  0  0  0  0  0  0  0999 V2000
   -3.5520   22.3370  -27.8700 C   0  0  0  0  0  0  0  0  0  0  0  0
   -4.2250   23.6700  -28.1810 C   0  0  0  0  0  0  0  0  0  0  0  0
   -5.2220   23.5300  -29.3370 C   0  0  0  0  0  0  0  0  0  0  0  0
   -4.7360   24.2420  -30.5670 C   0  0  0  0  0  0  0  0  0  0  0  0
   -3.8980   25.1780  -30.4580 O   0  0  0  0  0  0  0  0  0  0  0  0
   -5.1660   23.8080  -31.8720 N   0  0  0  0  0  0  0  0  0  0  0  0
   -6.5490   24.1430  -32.2440 C   0  0  0  0  0  0  0  0  0  0  0  0
   -7.4940   23.0530  -31.7120 C   0  0  0  0  0  0  0  0  0  0  0  0
   -6.8990   21.6920  -31.9530 C   0  0  0  0  0  0  0  0  0  0  0  0
   -5.5700   21.4480  -32.2900 C   0  0  0  0  0  0  0  0  0  0  0  0
   -5.3890   20.1210  -32.5500 N   0  0  0  0  0  0  0  0  0  0  0  0
   -4.1930   19.4730  -33.0860 C   0  0  0  0  0  0  0  0  0  0  0  0
   -6.5820   19.5300  -32.2830 C   0  0  0  0  0  0  0  0  0  0  0  0
   -6.9170   18.1710  -32.3580 C   0  0  0  0  0  0  0  0  0  0  0  0
   -8.2390   17.7960  -32.0560 C   0  0  0  0  0  0  0  0  0  0  0  0
   -9.1950   18.7660  -31.6920 C   0  0  0  0  0  0  0  0  0  0  0  0
   -8.8400   20.1240  -31.6240 C   0  0  0  0  0  0  0  0  0  0  0  0
   -7.5210   20.4670  -31.9200 C   0  0  0  0  0  0  0  0  0  0  0  0
   -4.6040   22.5990  -32.5250 C   0  0  2  0  0  0  0  0  0  0  0  0
   -3.1400   22.3130  -32.0960 C   0  0  0  0  0  0  0  0  0  0  0  0
   -3.0890   21.4920  -30.9430 O   0  0  0  0  0  0  0  0  0  0  0  0
   -1.7610   21.1000  -30.6620 C   0  0  0  0  0  0  0  0  0  0  0  0
   -0.9670   22.3210  -30.2200 C   0  0  0  0  0  0  0  0  0  0  0  0
   -3.4855   22.2053  -26.7799 H   0  0  0  0  0  0  0  0  0  0  0  0
   -4.1443   21.5174  -28.3029 H   0  0  0  0  0  0  0  0  0  0  0  0
   -2.5408   22.3270  -28.3029 H   0  0  0  0  0  0  0  0  0  0  0  0
   -4.7601   24.0195  -27.2857 H   0  0  0  0  0  0  0  0  0  0  0  0
   -3.4492   24.3922  -28.4751 H   0  0  0  0  0  0  0  0  0  0  0  0
   -5.3536   22.4629  -29.5693 H   0  0  0  0  0  0  0  0  0  0  0  0
   -6.1763   23.9821  -29.0288 H   0  0  0  0  0  0  0  0  0  0  0  0
   -6.8231   25.1137  -31.8052 H   0  0  0  0  0  0  0  0  0  0  0  0
   -6.6330   24.2025  -33.3392 H   0  0  0  0  0  0  0  0  0  0  0  0
   -7.6457   23.1980  -30.6322 H   0  0  0  0  0  0  0  0  0  0  0  0
   -8.4578   23.1234  -32.2375 H   0  0  0  0  0  0  0  0  0  0  0  0
   -3.5588   19.1294  -32.2555 H   0  0  0  0  0  0  0  0  0  0  0  0
   -4.4881   18.6114  -33.7029 H   0  0  0  0  0  0  0  0  0  0  0  0
   -3.6323   20.1907  -33.7029 H   0  0  0  0  0  0  0  0  0  0  0  0
   -6.1674   17.4188  -32.6449 H   0  0  0  0  0  0  0  0  0  0  0  0
   -8.5293   16.7361  -32.1044 H   0  0  0  0  0  0  0  0  0  0  0  0
  -10.2252   18.4580  -31.4598 H   0  0  0  0  0  0  0  0  0  0  0  0
   -9.5780   20.8910  -31.3465 H   0  0  0  0  0  0  0  0  0  0  0  0
   -4.5162   22.7568  -33.6101 H   0  0  0  0  0  0  0  0  0  0  0  0
   -2.6186   21.8046  -32.9204 H   0  0  0  0  0  0  0  0  0  0  0  0
   -2.6557   23.2718  -31.8592 H   0  0  0  0  0  0  0  0  0  0  0  0
   -1.7604   20.3489  -29.8583 H   0  0  0  0  0  0  0  0  0  0  0  0
   -1.3033   20.6652  -31.5628 H   0  0  0  0  0  0  0  0  0  0  0  0
   -0.9399   22.3627  -29.1211 H   0  0  0  0  0  0  0  0  0  0  0  0
    0.0593   22.2518  -30.6097 H   0  0  0  0  0  0  0  0  0  0  0  0
   -1.4466   23.2310  -30.6097 H   0  0  0  0  0  0  0  0  0  0  0  0
  1  2  1  0
  2  3  1  0
  3  4  1  0
  4  5  2  0
  4  6  1  0
  6  7  1  0
  7  8  1  0
  8  9  1  0
  9 10  2  0
 10 11  1  0
 11 12  1  0
 11 13  1  0
 13 14  2  0
 14 15  1  0
 15 16  2  0
 16 17  1  0
 17 18  2  0
 10 19  1  0
 19 20  1  0
 20 21  1  0
 21 22  1  0
 22 23  1  0
 19  6  1  0
 18  9  1  0
 18 13  1  0
  1 24  1  0
  1 25  1  0
  1 26  1  0
  2 27  1  0
  2 28  1  0
  3 29  1  0
  3 30  1  0
  7 31  1  0
  7 32  1  0
  8 33  1  0
  8 34  1  0
 12 35  1  0
 12 36  1  0
 12 37  1  0
 14 38  1  0
 15 39  1  0
 16 40  1  0
 17 41  1  0
 19 42  1  6
 20 43  1  0
 20 44  1  0
 22 45  1  0
 22 46  1  0
 23 47  1  0
 23 48  1  0
 23 49  1  0
M  END
>  <UniqueID>  (28) 
28

>  <SMILES>  (28) 
CCCC(=O)N1CCc2c(n(C)c3ccccc23)[C@@H]1COCC

>  <Energy>  (28) 
90.41229243498914

>  <Genealogy>  (28) 
CCCC(=O)N1CCc2c(n(C)c3ccccc23)[C@@H]1COCC (chirality)
CCCC(=O)N1CCc2c(n(C)c3ccccc23)[C@@H]1COCC (3D coordinates assigned)
CCCC(=O)N1CCc2c(n(C)c3ccccc23)[C@@H]1COCC (nonaromatic ring conformer: 90.41229243498914 kcal/mol)

>  <smiles>  (28) 
CCCC(=O)N1CCc2c(n(C)c3ccccc23)C1COCC

>  <score_type>  (28) 
oracle

>  <origin>  (28) 
adg

>  <m_score__min__energy>  (28) 
-8.1099999999999994

>  <m_primary>  (28) 
energy

$$$$
