0:0
     RDKit          3D

 24 24  0  0  0  0  0  0  0  0999 V2000
   -8.6350   19.0280  -31.5110 C   0  0  0  0  0  0  0  0  0  0  0  0
   -7.7490   20.1580  -32.0580 C   0  0  1  0  0  0  0  0  0  0  0  0
   -7.6960   20.1300  -33.5230 N   0  0  0  0  0  0  0  0  0  0  0  0
   -8.1820   21.5500  -31.5490 C   0  0  0  0  0  0  0  0  0  0  0  0
   -7.0310   22.5110  -31.3660 C   0  0  0  0  0  0  0  0  0  0  0  0
   -5.7250   22.1320  -31.7140 C   0  0  0  0  0  0  0  0  0  0  0  0
   -4.6600   23.0180  -31.5320 C   0  0  0  0  0  0  0  0  0  0  0  0
   -4.8900   24.2950  -31.0000 C   0  0  0  0  0  0  0  0  0  0  0  0
   -3.8360   25.1870  -30.8130 O   0  0  0  0  0  0  0  0  0  0  0  0
   -6.1890   24.6790  -30.6530 C   0  0  0  0  0  0  0  0  0  0  0  0
   -7.2560   23.7930  -30.8340 C   0  0  0  0  0  0  0  0  0  0  0  0
   -8.6186   19.0489  -30.4113 H   0  0  0  0  0  0  0  0  0  0  0  0
   -9.6671   19.1673  -31.8650 H   0  0  0  0  0  0  0  0  0  0  0  0
   -8.2535   18.0589  -31.8650 H   0  0  0  0  0  0  0  0  0  0  0  0
   -6.7355   19.9765  -31.6709 H   0  0  0  0  0  0  0  0  0  0  0  0
   -7.1830   19.2680  -33.8180 H   0  0  0  0  0  0  0  0  0  0  0  0
   -8.6650   20.0530  -33.9080 H   0  0  0  0  0  0  0  0  0  0  0  0
   -8.8847   21.9832  -32.2760 H   0  0  0  0  0  0  0  0  0  0  0  0
   -8.6410   21.4038  -30.5601 H   0  0  0  0  0  0  0  0  0  0  0  0
   -5.5389   21.1318  -32.1324 H   0  0  0  0  0  0  0  0  0  0  0  0
   -3.6393   22.7133  -31.8065 H   0  0  0  0  0  0  0  0  0  0  0  0
   -3.4060   25.6700  -31.5940 H   0  0  0  0  0  0  0  0  0  0  0  0
   -6.3722   25.6805  -30.2366 H   0  0  0  0  0  0  0  0  0  0  0  0
   -8.2757   24.1005  -30.5589 H   0  0  0  0  0  0  0  0  0  0  0  0
  1  2  1  0
  2  3  1  0
  2  4  1  0
  4  5  1  0
  5  6  2  0
  6  7  1  0
  7  8  2  0
  8  9  1  0
  8 10  1  0
 10 11  2  0
 11  5  1  0
  1 12  1  0
  1 13  1  0
  1 14  1  0
  2 15  1  1
  3 16  1  0
  3 17  1  0
  4 18  1  0
  4 19  1  0
  6 20  1  0
  7 21  1  0
  9 22  1  0
 10 23  1  0
 11 24  1  0
M  END
>  <UniqueID>  (1) 
1

>  <SMILES>  (1) 
C[C@@H](N)Cc1ccc(O)cc1

>  <Energy>  (1) 
17.94366840010426

>  <Genealogy>  (1) 
C[C@@H](N)Cc1ccc(O)cc1 (chirality)
C[C@@H](N)Cc1ccc(O)cc1 (3D coordinates assigned)
C[C@@H](N)Cc1ccc(O)cc1 (optimized conformer: 17.94366840010426 kcal/mol)

>  <smiles>  (1) 
CC(N)Cc1ccc(O)cc1

>  <score_type>  (1) 
oracle

>  <origin>  (1) 
adg

>  <m_score__min__energy>  (1) 
-6.5999999999999996

>  <m_primary>  (1) 
energy

$$$$
1:0
     RDKit          3D

 29 31  0  0  1  0  0  0  0  0999 V2000
   -5.4690   20.9430  -32.9530 C   0  0  0  0  0  0  0  0  0  0  0  0
   -6.8520   21.1630  -32.5010 C   0  0  0  0  0  0  0  0  0  0  0  0
   -7.7480   20.1360  -32.3670 C   0  0  0  0  0  0  0  0  0  0  0  0
   -9.0600   20.3380  -31.9380 C   0  0  0  0  0  0  0  0  0  0  0  0
   -9.4860   21.6180  -31.6350 C   0  0  0  0  0  0  0  0  0  0  0  0
   -8.5880   22.6510  -31.7700 C   0  0  0  0  0  0  0  0  0  0  0  0
   -7.2800   22.4400  -32.1980 C   0  0  0  0  0  0  0  0  0  0  0  0
   -6.4360   23.5830  -32.3020 N   0  0  0  0  0  0  0  0  0  0  0  0
   -5.8450   24.0620  -31.2680 C   0  0  0  0  0  0  0  0  0  0  0  0
   -6.3760   25.0070  -30.4610 N   0  0  0  0  0  0  0  0  0  0  0  0
   -5.5330   25.2960  -29.4820 N   0  0  0  0  0  0  0  0  0  0  0  0
   -4.4350   24.5330  -29.6480 C   0  0  0  0  0  0  0  0  0  0  0  0
   -3.2760   24.4590  -28.8980 C   0  0  0  0  0  0  0  0  0  0  0  0
   -2.3200   23.5560  -29.3440 C   0  0  0  0  0  0  0  0  0  0  0  0
   -2.5170   22.7750  -30.4720 C   0  0  0  0  0  0  0  0  0  0  0  0
   -3.6730   22.8700  -31.1930 N   0  0  0  0  0  0  0  0  0  0  0  0
   -4.5990   23.7370  -30.7710 C   0  0  0  0  0  0  0  0  0  0  0  0
   -4.8098   20.8381  -32.0787 H   0  0  0  0  0  0  0  0  0  0  0  0
   -5.4228   20.0262  -33.5591 H   0  0  0  0  0  0  0  0  0  0  0  0
   -5.1406   21.8002  -33.5591 H   0  0  0  0  0  0  0  0  0  0  0  0
   -7.4209   19.1135  -32.6066 H   0  0  0  0  0  0  0  0  0  0  0  0
   -9.7496   19.4864  -31.8416 H   0  0  0  0  0  0  0  0  0  0  0  0
  -10.5153   21.8051  -31.2951 H   0  0  0  0  0  0  0  0  0  0  0  0
   -8.9130   23.6747  -31.5327 H   0  0  0  0  0  0  0  0  0  0  0  0
   -7.3280   25.4520  -30.5910 H   0  0  0  0  0  0  0  0  0  0  0  0
   -5.7330   26.0030  -28.7350 H   0  0  0  0  0  0  0  0  0  0  0  0
   -3.1205   25.0780  -28.0021 H   0  0  0  0  0  0  0  0  0  0  0  0
   -1.3777   23.4575  -28.7851 H   0  0  0  0  0  0  0  0  0  0  0  0
   -1.7338   22.0711  -30.7899 H   0  0  0  0  0  0  0  0  0  0  0  0
  1  2  1  0
  2  3  2  0
  3  4  1  0
  4  5  2  0
  5  6  1  0
  6  7  2  0
  7  8  1  0
  8  9  2  0
  9 10  1  0
 10 11  1  0
 11 12  1  0
 12 13  2  0
 13 14  1  0
 14 15  2  0
 15 16  1  0
 16 17  2  0
  7  2  1  0
 17  9  1  0
 17 12  1  0
  1 18  1  0
  1 19  1  0
  1 20  1  0
  3 21  1  0
  4 22  1  0
  5 23  1  0
  6 24  1  0
 10 25  1  0
 11 26  1  0
 13 27  1  0
 14 28  1  0
 15 29  1  0
M  END
>  <smiles>  (2) 
Cc1ccccc1N=c1[nH][nH]c2cccnc12

>  <score_type>  (2) 
oracle

>  <origin>  (2) 
adg

>  <m_score__min__energy>  (2) 
-6.9400000000000004

>  <m_primary>  (2) 
energy

$$$$
2:0
     RDKit          3D

 27 29  0  0  0  0  0  0  0  0999 V2000
   -2.8125   21.0504  -27.1298 H   0  0  0  0  0  0  0  0  0  0  0  0
   -3.1840   21.7500  -27.8930 C   0  0  0  0  0  0  0  0  0  0  0  0
   -3.8230   22.8870  -27.5170 N   0  0  0  0  0  0  0  0  0  0  0  0
   -4.2960   23.7790  -28.4290 C   0  0  0  0  0  0  0  0  0  0  0  0
   -4.8090   24.6904  -28.0882 H   0  0  0  0  0  0  0  0  0  0  0  0
   -4.1320   23.5410  -29.8060 C   0  0  0  0  0  0  0  0  0  0  0  0
   -4.6450   24.5040  -30.8090 C   0  0  0  0  0  0  0  0  0  0  0  0
   -4.1680   25.6710  -30.8510 O   0  0  0  0  0  0  0  0  0  0  0  0
   -5.6320   24.0800  -31.7640 N   0  0  0  0  0  0  0  0  0  0  0  0
   -6.2320   22.9270  -31.8520 C   0  0  0  0  0  0  0  0  0  0  0  0
   -7.5900   22.5380  -30.9230 S   0  0  0  0  0  0  0  0  0  0  0  0
   -7.7280   21.0180  -31.6270 C   0  0  0  0  0  0  0  0  0  0  0  0
   -8.6720   20.0260  -31.3750 C   0  0  0  0  0  0  0  0  0  0  0  0
   -9.4613   20.1742  -30.6233 H   0  0  0  0  0  0  0  0  0  0  0  0
   -8.5880   18.8320  -32.1070 C   0  0  0  0  0  0  0  0  0  0  0  0
   -9.3179   18.0285  -31.9292 H   0  0  0  0  0  0  0  0  0  0  0  0
   -7.5730   18.6570  -33.0690 C   0  0  0  0  0  0  0  0  0  0  0  0
   -7.5159   17.7172  -33.6377 H   0  0  0  0  0  0  0  0  0  0  0  0
   -6.6330   19.6750  -33.3070 C   0  0  0  0  0  0  0  0  0  0  0  0
   -5.8415   19.5428  -34.0594 H   0  0  0  0  0  0  0  0  0  0  0  0
   -6.7240   20.8580  -32.5690 C   0  0  0  0  0  0  0  0  0  0  0  0
   -5.8880   21.9210  -32.7020 N   0  0  0  0  0  0  0  0  0  0  0  0
   -5.1150   21.9420  -33.4030 H   0  0  0  0  0  0  0  0  0  0  0  0
   -3.4730   22.3660  -30.2050 C   0  0  0  0  0  0  0  0  0  0  0  0
   -3.3308   22.1527  -31.2747 H   0  0  0  0  0  0  0  0  0  0  0  0
   -2.9980   21.4680  -29.2460 C   0  0  0  0  0  0  0  0  0  0  0  0
   -2.4821   20.5470  -29.5553 H   0  0  0  0  0  0  0  0  0  0  0  0
  1  2  1  0
  2  3  2  0
  3  4  1  0
  4  5  1  0
  4  6  2  0
  6  7  1  0
  7  8  2  0
  7  9  1  0
  9 10  2  0
 10 11  1  0
 11 12  1  0
 12 13  2  0
 13 14  1  0
 13 15  1  0
 15 16  1  0
 15 17  2  0
 17 18  1  0
 17 19  1  0
 19 20  1  0
 19 21  2  0
 21 22  1  0
 22 23  1  0
  6 24  1  0
 24 25  1  0
 24 26  2  0
 26 27  1  0
 26  2  1  0
 22 10  1  0
 21 12  1  0
M  END
>  <UniqueID>  (3) 
2

>  <SMILES>  (3) 
O=C(/N=c1\[nH]c2ccccc2s1)c1cccnc1

>  <Energy>  (3) 
71.36278723044322

>  <Genealogy>  (3) 
O=C(/N=c1\[nH]c2ccccc2s1)c1cccnc1 (cis-trans isomerization)
O=C(/N=c1\[nH]c2ccccc2s1)c1cccnc1 (3D coordinates assigned)
O=C(/N=c1\[nH]c2ccccc2s1)c1cccnc1 (optimized conformer: 71.36278723044322 kcal/mol)

>  <smiles>  (3) 
O=C(N=c1[nH]c2ccccc2s1)c1cccnc1

>  <score_type>  (3) 
oracle

>  <origin>  (3) 
adg

>  <m_score__min__energy>  (3) 
-7.5700000000000003

>  <m_primary>  (3) 
energy

$$$$
3:0
     RDKit          3D

 34 35  0  0  0  0  0  0  0  0999 V2000
   -9.4750   22.2110  -31.9050 C   0  0  0  0  0  0  0  0  0  0  0  0
   -7.9820   22.2640  -31.6840 C   0  0  0  0  0  0  0  0  0  0  0  0
   -7.3890   23.5170  -31.4470 C   0  0  0  0  0  0  0  0  0  0  0  0
   -6.0360   23.6180  -31.1220 C   0  0  0  0  0  0  0  0  0  0  0  0
   -5.3160   25.1900  -30.8290 Cl  0  0  0  0  0  0  0  0  0  0  0  0
   -5.2640   22.4640  -30.9940 C   0  0  0  0  0  0  0  0  0  0  0  0
   -5.8340   21.2110  -31.2190 C   0  0  0  0  0  0  0  0  0  0  0  0
   -7.1800   21.0870  -31.6090 C   0  0  0  0  0  0  0  0  0  0  0  0
   -7.7460   19.6970  -31.8840 C   0  0  0  0  0  0  0  0  0  0  0  0
   -7.3110   19.0730  -33.1700 N   0  0  0  0  0  0  0  0  0  0  0  0
   -7.1050   17.6060  -33.0340 C   0  0  0  0  0  0  0  0  0  0  0  0
   -6.3800   17.0210  -34.2530 C   0  0  0  0  0  0  0  0  0  0  0  0
   -4.9720   17.6240  -34.3980 C   0  0  0  0  0  0  0  0  0  0  0  0
   -4.8580   19.0270  -33.7760 C   0  0  0  0  0  0  0  0  0  0  0  0
   -6.1930   19.7810  -33.8670 C   0  0  0  0  0  0  0  0  0  0  0  0
   -9.9892   22.1927  -30.9327 H   0  0  0  0  0  0  0  0  0  0  0  0
   -9.7935   23.0984  -32.4716 H   0  0  0  0  0  0  0  0  0  0  0  0
   -9.7298   21.3032  -32.4716 H   0  0  0  0  0  0  0  0  0  0  0  0
   -7.9997   24.4291  -31.5188 H   0  0  0  0  0  0  0  0  0  0  0  0
   -4.2029   22.5419  -30.7149 H   0  0  0  0  0  0  0  0  0  0  0  0
   -5.2219   20.3062  -31.0896 H   0  0  0  0  0  0  0  0  0  0  0  0
   -7.4347   19.0348  -31.0627 H   0  0  0  0  0  0  0  0  0  0  0  0
   -8.8362   19.8223  -31.9604 H   0  0  0  0  0  0  0  0  0  0  0  0
   -8.1400   19.1670  -33.8090 H   0  0  0  0  0  0  0  0  0  0  0  0
   -6.5031   17.4122  -32.1339 H   0  0  0  0  0  0  0  0  0  0  0  0
   -8.0919   17.1260  -32.9582 H   0  0  0  0  0  0  0  0  0  0  0  0
   -6.2939   15.9311  -34.1317 H   0  0  0  0  0  0  0  0  0  0  0  0
   -6.9600   17.2633  -35.1557 H   0  0  0  0  0  0  0  0  0  0  0  0
   -4.2516   16.9588  -33.8995 H   0  0  0  0  0  0  0  0  0  0  0  0
   -4.7616   17.7200  -35.4734 H   0  0  0  0  0  0  0  0  0  0  0  0
   -4.5718   18.9292  -32.7184 H   0  0  0  0  0  0  0  0  0  0  0  0
   -4.0968   19.5950  -34.3310 H   0  0  0  0  0  0  0  0  0  0  0  0
   -6.0672   20.7735  -33.4098 H   0  0  0  0  0  0  0  0  0  0  0  0
   -6.4601   19.8511  -34.9318 H   0  0  0  0  0  0  0  0  0  0  0  0
  1  2  1  0
  2  3  2  0
  3  4  1  0
  4  5  1  0
  4  6  2  0
  6  7  1  0
  7  8  2  0
  8  9  1  0
  9 10  1  0
 10 11  1  0
 11 12  1  0
 12 13  1  0
 13 14  1  0
 14 15  1  0
  8  2  1  0
 15 10  1  0
  1 16  1  0
  1 17  1  0
  1 18  1  0
  3 19  1  0
  6 20  1  0
  7 21  1  0
  9 22  1  0
  9 23  1  0
 10 24  1  0
 11 25  1  0
 11 26  1  0
 12 27  1  0
 12 28  1  0
 13 29  1  0
 13 30  1  0
 14 31  1  0
 14 32  1  0
 15 33  1  0
 15 34  1  0
M  CHG  1  10   1
M  END
>  <UniqueID>  (4) 
3

>  <SMILES>  (4) 
Cc1cc(Cl)ccc1C[NH+]1CCCCC1

>  <Energy>  (4) 
48.45644616531577

>  <Genealogy>  (4) 
Cc1cc(Cl)ccc1C[NH+]1CCCCC1 (protonated)
Cc1cc(Cl)ccc1C[NH+]1CCCCC1 (3D coordinates assigned)
Cc1cc(Cl)ccc1C[NH+]1CCCCC1 (nonaromatic ring conformer: 48.45644616531577 kcal/mol)

>  <smiles>  (4) 
Cc1cc(Cl)ccc1CN1CCCCC1

>  <score_type>  (4) 
oracle

>  <origin>  (4) 
adg

>  <m_score__min__energy>  (4) 
-6.4199999999999999

>  <m_primary>  (4) 
energy

$$$$
4:0
     RDKit          3D

 21 22  0  0  0  0  0  0  0  0999 V2000
   -2.4420   24.8690  -29.3070 O   0  0  0  0  0  0  0  0  0  0  0  0
   -3.6180   24.9230  -29.7530 C   0  0  0  0  0  0  0  0  0  0  0  0
   -3.8870   25.6610  -30.8970 O   0  0  0  0  0  0  0  0  0  0  0  0
   -4.7250   24.2220  -29.0340 C   0  0  0  0  0  0  0  0  0  0  0  0
   -6.3000   24.4170  -29.9350 S   0  0  0  0  0  0  0  0  0  0  0  0
   -6.0400   22.9980  -30.9970 C   0  0  0  0  0  0  0  0  0  0  0  0
   -4.9240   22.9200  -31.7690 N   0  0  0  0  0  0  0  0  0  0  0  0
   -4.7130   21.8720  -32.5670 N   0  0  0  0  0  0  0  0  0  0  0  0
   -5.6090   20.8550  -32.6320 C   0  0  0  0  0  0  0  0  0  0  0  0
   -5.3930   19.7560  -33.4690 C   0  0  0  0  0  0  0  0  0  0  0  0
   -6.3360   18.7210  -33.5140 C   0  0  0  0  0  0  0  0  0  0  0  0
   -6.0720   17.3400  -34.5640 Cl  0  0  0  0  0  0  0  0  0  0  0  0
   -7.4910   18.7870  -32.7220 C   0  0  0  0  0  0  0  0  0  0  0  0
   -7.7070   19.8870  -31.8830 C   0  0  0  0  0  0  0  0  0  0  0  0
   -6.7670   20.9210  -31.8360 C   0  0  0  0  0  0  0  0  0  0  0  0
   -6.9560   21.9970  -31.0320 N   0  0  0  0  0  0  0  0  0  0  0  0
   -4.4839   23.1517  -28.9547 H   0  0  0  0  0  0  0  0  0  0  0  0
   -4.8325   24.6629  -28.0320 H   0  0  0  0  0  0  0  0  0  0  0  0
   -4.4863   19.7043  -34.0896 H   0  0  0  0  0  0  0  0  0  0  0  0
   -8.2294   17.9725  -32.7598 H   0  0  0  0  0  0  0  0  0  0  0  0
   -8.6139   19.9376  -31.2625 H   0  0  0  0  0  0  0  0  0  0  0  0
  1  2  2  0
  2  3  1  0
  2  4  1  0
  4  5  1  0
  5  6  1  0
  6  7  2  0
  7  8  1  0
  8  9  2  0
  9 10  1  0
 10 11  2  0
 11 12  1  0
 11 13  1  0
 13 14  2  0
 14 15  1  0
 15 16  2  0
 16  6  1  0
 15  9  1  0
  4 17  1  0
  4 18  1  0
 10 19  1  0
 13 20  1  0
 14 21  1  0
M  CHG  1   3  -1
M  END
>  <UniqueID>  (5) 
4

>  <SMILES>  (5) 
O=C([O-])CSc1nnc2cc(Cl)ccc2n1

>  <Energy>  (5) 
21.001869490058255

>  <Genealogy>  (5) 
O=C([O-])CSc1nnc2cc(Cl)ccc2n1 (protonated)
O=C([O-])CSc1nnc2cc(Cl)ccc2n1 (3D coordinates assigned)
O=C([O-])CSc1nnc2cc(Cl)ccc2n1 (optimized conformer: 21.001869490058255 kcal/mol)

>  <smiles>  (5) 
O=C(O)CSc1nnc2cc(Cl)ccc2n1

>  <score_type>  (5) 
oracle

>  <origin>  (5) 
adg

>  <m_score__min__energy>  (5) 
-9.4299999999999997

>  <m_primary>  (5) 
energy

$$$$
5:0
     RDKit          3D

 35 38  0  0  0  0  0  0  0  0999 V2000
   -1.1780   25.6410  -29.9920 H   0  0  0  0  0  0  0  0  0  0  0  0
   -1.9060   25.2920  -29.3280 N   0  0  0  0  0  0  0  0  0  0  0  0
   -2.9370   24.6130  -29.7200 C   0  0  0  0  0  0  0  0  0  0  0  0
   -3.8950   25.2230  -30.4660 N   0  0  0  0  0  0  0  0  0  0  0  0
   -4.9980   24.5610  -30.9040 C   0  0  0  0  0  0  0  0  0  0  0  0
   -5.7506   25.0919  -31.5055 H   0  0  0  0  0  0  0  0  0  0  0  0
   -5.1840   23.2030  -30.5940 C   0  0  0  0  0  0  0  0  0  0  0  0
   -6.3840   22.4680  -31.0660 C   0  0  0  0  0  0  0  0  0  0  0  0
   -7.6860   23.0110  -30.8690 C   0  0  0  0  0  0  0  0  0  0  0  0
   -7.7996   23.9728  -30.3475 H   0  0  0  0  0  0  0  0  0  0  0  0
   -8.8300   22.3330  -31.3330 C   0  0  0  0  0  0  0  0  0  0  0  0
   -9.8375   22.7534  -31.1984 H   0  0  0  0  0  0  0  0  0  0  0  0
   -8.6360   21.1130  -31.9670 C   0  0  0  0  0  0  0  0  0  0  0  0
   -7.4020   20.5670  -32.1420 C   0  0  0  0  0  0  0  0  0  0  0  0
   -6.2410   21.2220  -31.7290 C   0  0  0  0  0  0  0  0  0  0  0  0
   -5.2475   20.7864  -31.9116 H   0  0  0  0  0  0  0  0  0  0  0  0
   -7.5650   19.4150  -32.8250 N   0  0  0  0  0  0  0  0  0  0  0  0
   -6.5700   18.4710  -33.2540 C   0  0  0  0  0  0  0  0  0  0  0  0
   -6.3370   17.2870  -32.5320 C   0  0  0  0  0  0  0  0  0  0  0  0
   -6.9114   17.0822  -31.6165 H   0  0  0  0  0  0  0  0  0  0  0  0
   -5.3790   16.3690  -32.9720 C   0  0  0  0  0  0  0  0  0  0  0  0
   -5.1948   15.4491  -32.3977 H   0  0  0  0  0  0  0  0  0  0  0  0
   -4.6550   16.6190  -34.1410 C   0  0  0  0  0  0  0  0  0  0  0  0
   -3.8967   15.8991  -34.4826 H   0  0  0  0  0  0  0  0  0  0  0  0
   -4.8940   17.7830  -34.8760 C   0  0  0  0  0  0  0  0  0  0  0  0
   -4.3272   17.9761  -35.7987 H   0  0  0  0  0  0  0  0  0  0  0  0
   -5.8530   18.7030  -34.4400 C   0  0  0  0  0  0  0  0  0  0  0  0
   -6.0468   19.6122  -35.0281 H   0  0  0  0  0  0  0  0  0  0  0  0
   -8.8670   19.2810  -33.0620 N   0  0  0  0  0  0  0  0  0  0  0  0
   -9.5390   20.3030  -32.5420 N   0  0  0  0  0  0  0  0  0  0  0  0
  -10.5730   20.4370  -32.6010 H   0  0  0  0  0  0  0  0  0  0  0  0
   -4.2010   22.5580  -29.8240 C   0  0  0  0  0  0  0  0  0  0  0  0
   -4.3180   21.4949  -29.5667 H   0  0  0  0  0  0  0  0  0  0  0  0
   -3.0770   23.2590  -29.3840 C   0  0  0  0  0  0  0  0  0  0  0  0
   -2.3088   22.7542  -28.7798 H   0  0  0  0  0  0  0  0  0  0  0  0
  1  2  1  0
  2  3  2  0
  3  4  1  0
  4  5  1  0
  5  6  1  0
  5  7  2  0
  7  8  1  0
  8  9  2  0
  9 10  1  0
  9 11  1  0
 11 12  1  0
 11 13  2  0
 13 14  1  0
 14 15  2  0
 15 16  1  0
 14 17  1  0
 17 18  1  0
 18 19  2  0
 19 20  1  0
 19 21  1  0
 21 22  1  0
 21 23  2  0
 23 24  1  0
 23 25  1  0
 25 26  1  0
 25 27  2  0
 27 28  1  0
 17 29  1  0
 29 30  2  0
 30 31  1  0
  7 32  1  0
 32 33  1  0
 32 34  2  0
 34 35  1  0
 34  3  1  0
 15  8  1  0
 27 18  1  0
 30 13  1  0
M  CHG  2   4  -1  30   1
M  END
>  <UniqueID>  (6) 
5

>  <SMILES>  (6) 
[H]/N=c1\ccc(-c2ccc3[nH+]nn(-c4ccccc4)c3c2)c[n-]1

>  <Energy>  (6) 
96.37359288150711

>  <Genealogy>  (6) 
N=c1ccc(-c2ccc3[nH+]nn(-c4ccccc4)c3c2)c[n-]1 (protonated)
[H]/N=c1\ccc(-c2ccc3[nH+]nn(-c4ccccc4)c3c2)c[n-]1 (cis-trans isomerization)
[H]/N=c1\ccc(-c2ccc3[nH+]nn(-c4ccccc4)c3c2)c[n-]1 (3D coordinates assigned)
[H]/N=c1\ccc(-c2ccc3[nH+]nn(-c4ccccc4)c3c2)c[n-]1 (optimized conformer: 96.37359288150711 kcal/mol)

>  <smiles>  (6) 
N=c1ccc(-c2ccc3nnn(-c4ccccc4)c3c2)c[nH]1

>  <score_type>  (6) 
oracle

>  <origin>  (6) 
adg

>  <m_score__min__energy>  (6) 
-11.289999999999999

>  <m_primary>  (6) 
energy

$$$$
6:0
     RDKit          3D

 35 37  0  0  0  0  0  0  0  0999 V2000
   -9.2170   22.6070  -31.9340 C   0  0  0  0  0  0  0  0  0  0  0  0
   -9.7930   21.1960  -31.9780 C   0  0  0  0  0  0  0  0  0  0  0  0
   -8.7000   20.1870  -32.1530 C   0  0  0  0  0  0  0  0  0  0  0  0
   -8.8960   18.8190  -31.9840 C   0  0  0  0  0  0  0  0  0  0  0  0
   -7.4390   18.0520  -32.3200 S   0  0  0  0  0  0  0  0  0  0  0  0
   -6.6290   19.4820  -32.6880 C   0  0  0  0  0  0  0  0  0  0  0  0
   -5.2090   19.6090  -33.0560 C   0  0  0  0  0  0  0  0  0  0  0  0
   -4.4890   18.6940  -33.8080 C   0  0  0  0  0  0  0  0  0  0  0  0
   -3.2490   19.1740  -34.0040 N   0  0  0  0  0  0  0  0  0  0  0  0
   -3.1400   20.3470  -33.4020 N   0  0  0  0  0  0  0  0  0  0  0  0
   -1.9250   21.1580  -33.4110 C   0  0  0  0  0  0  0  0  0  0  0  0
   -4.3190   20.6540  -32.8170 C   0  0  0  0  0  0  0  0  0  0  0  0
   -4.5580   21.8600  -32.0020 C   0  0  0  0  0  0  0  0  0  0  0  0
   -3.7730   22.1130  -30.8660 C   0  0  0  0  0  0  0  0  0  0  0  0
   -3.9910   23.2640  -30.1030 C   0  0  0  0  0  0  0  0  0  0  0  0
   -4.9880   24.1720  -30.4730 C   0  0  0  0  0  0  0  0  0  0  0  0
   -5.1980   25.2870  -29.7310 F   0  0  0  0  0  0  0  0  0  0  0  0
   -5.7670   23.9290  -31.6090 C   0  0  0  0  0  0  0  0  0  0  0  0
   -5.5520   22.7790  -32.3740 C   0  0  0  0  0  0  0  0  0  0  0  0
   -7.4480   20.5480  -32.5440 N   0  0  0  0  0  0  0  0  0  0  0  0
   -9.0898   22.9186  -30.8868 H   0  0  0  0  0  0  0  0  0  0  0  0
   -8.2413   22.6207  -32.4417 H   0  0  0  0  0  0  0  0  0  0  0  0
   -9.9044   23.2996  -32.4417 H   0  0  0  0  0  0  0  0  0  0  0  0
  -10.3254   20.9931  -31.0370 H   0  0  0  0  0  0  0  0  0  0  0  0
  -10.4851   21.1213  -32.8297 H   0  0  0  0  0  0  0  0  0  0  0  0
   -9.8343   18.3291  -31.6848 H   0  0  0  0  0  0  0  0  0  0  0  0
   -4.8700   17.7326  -34.1829 H   0  0  0  0  0  0  0  0  0  0  0  0
   -2.4880   18.7040  -34.5440 H   0  0  0  0  0  0  0  0  0  0  0  0
   -1.6147   21.3651  -32.3762 H   0  0  0  0  0  0  0  0  0  0  0  0
   -1.1241   20.6128  -33.9318 H   0  0  0  0  0  0  0  0  0  0  0  0
   -2.1213   22.1068  -33.9318 H   0  0  0  0  0  0  0  0  0  0  0  0
   -2.9841   21.4036  -30.5754 H   0  0  0  0  0  0  0  0  0  0  0  0
   -3.3774   23.4556  -29.2104 H   0  0  0  0  0  0  0  0  0  0  0  0
   -6.5502   24.6441  -31.9009 H   0  0  0  0  0  0  0  0  0  0  0  0
   -6.1631   22.5936  -33.2696 H   0  0  0  0  0  0  0  0  0  0  0  0
  1  2  1  0
  2  3  1  0
  3  4  2  0
  4  5  1  0
  5  6  1  0
  6  7  1  0
  7  8  1  0
  8  9  2  0
  9 10  1  0
 10 11  1  0
 10 12  1  0
 12 13  1  0
 13 14  2  0
 14 15  1  0
 15 16  2  0
 16 17  1  0
 16 18  1  0
 18 19  2  0
  6 20  2  0
 20  3  1  0
 12  7  2  0
 19 13  1  0
  1 21  1  0
  1 22  1  0
  1 23  1  0
  2 24  1  0
  2 25  1  0
  4 26  1  0
  8 27  1  0
  9 28  1  0
 11 29  1  0
 11 30  1  0
 11 31  1  0
 14 32  1  0
 15 33  1  0
 18 34  1  0
 19 35  1  0
M  CHG  1   9   1
M  END
>  <UniqueID>  (7) 
6

>  <SMILES>  (7) 
CCc1csc(-c2c[nH+]n(C)c2-c2ccc(F)cc2)n1

>  <Energy>  (7) 
99.55546039080619

>  <Genealogy>  (7) 
CCc1csc(-c2c[nH+]n(C)c2-c2ccc(F)cc2)n1 (protonated)
CCc1csc(-c2c[nH+]n(C)c2-c2ccc(F)cc2)n1 (3D coordinates assigned)
CCc1csc(-c2c[nH+]n(C)c2-c2ccc(F)cc2)n1 (optimized conformer: 99.55546039080619 kcal/mol)

>  <smiles>  (7) 
CCc1csc(-c2cnn(C)c2-c2ccc(F)cc2)n1

>  <score_type>  (7) 
oracle

>  <origin>  (7) 
adg

>  <m_score__min__energy>  (7) 
-6.7000000000000002

>  <m_primary>  (7) 
energy

$$$$
7:0
     RDKit          3D

 40 43  0  0  0  0  0  0  0  0999 V2000
   -3.5490   25.2980  -30.5770 O   0  0  0  0  0  0  0  0  0  0  0  0
   -3.6390   24.0400  -30.5600 C   0  0  0  0  0  0  0  0  0  0  0  0
   -2.4760   23.2320  -30.3310 N   0  0  0  0  0  0  0  0  0  0  0  0
   -2.2200   22.3980  -29.1930 C   0  0  0  0  0  0  0  0  0  0  0  0
   -1.2970   22.8330  -28.2170 C   0  0  0  0  0  0  0  0  0  0  0  0
   -1.0460   22.0770  -27.1080 N   0  0  0  0  0  0  0  0  0  0  0  0
   -1.7090   20.9070  -26.9560 C   0  0  0  0  0  0  0  0  0  0  0  0
   -1.6210   20.0060  -25.9230 C   0  0  0  0  0  0  0  0  0  0  0  0
   -2.5360   19.0200  -26.2870 C   0  0  0  0  0  0  0  0  0  0  0  0
   -3.1250   19.3330  -27.4680 N   0  0  0  0  0  0  0  0  0  0  0  0
   -2.6020   20.4830  -27.8540 N   0  0  0  0  0  0  0  0  0  0  0  0
   -2.9010   21.1820  -28.9750 C   0  0  0  0  0  0  0  0  0  0  0  0
   -4.9600   23.3980  -30.7660 C   0  0  0  0  0  0  0  0  0  0  0  0
   -6.1590   23.9940  -30.3020 C   0  0  0  0  0  0  0  0  0  0  0  0
   -6.1850   25.3500  -29.6340 C   0  0  0  0  0  0  0  0  0  0  0  0
   -5.6830   26.3280  -30.4780 F   0  0  0  0  0  0  0  0  0  0  0  0
   -7.4840   25.6730  -29.2930 F   0  0  0  0  0  0  0  0  0  0  0  0
   -7.3620   23.2900  -30.4460 C   0  0  0  0  0  0  0  0  0  0  0  0
   -7.3800   22.0580  -31.0940 C   0  0  0  0  0  0  0  0  0  0  0  0
   -6.2320   21.5110  -31.5880 N   0  0  0  0  0  0  0  0  0  0  0  0
   -6.3100   20.2440  -32.2710 C   0  0  0  0  0  0  0  0  0  0  0  0
   -6.9870   19.1610  -31.6850 C   0  0  0  0  0  0  0  0  0  0  0  0
   -7.0670   17.9340  -32.3500 C   0  0  0  0  0  0  0  0  0  0  0  0
   -6.4760   17.7790  -33.6070 C   0  0  0  0  0  0  0  0  0  0  0  0
   -6.5550   16.5880  -34.2510 F   0  0  0  0  0  0  0  0  0  0  0  0
   -5.8040   18.8520  -34.2010 C   0  0  0  0  0  0  0  0  0  0  0  0
   -5.7220   20.0790  -33.5370 C   0  0  0  0  0  0  0  0  0  0  0  0
   -5.0280   22.1480  -31.4230 C   0  0  0  0  0  0  0  0  0  0  0  0
   -3.9660   21.6000  -31.8310 O   0  0  0  0  0  0  0  0  0  0  0  0
   -0.7744   23.7915  -28.3516 H   0  0  0  0  0  0  0  0  0  0  0  0
   -0.9840   20.0516  -25.0274 H   0  0  0  0  0  0  0  0  0  0  0  0
   -2.7504   18.1152  -25.6993 H   0  0  0  0  0  0  0  0  0  0  0  0
   -3.6499   20.8137  -29.6916 H   0  0  0  0  0  0  0  0  0  0  0  0
   -5.5561   25.3023  -28.7328 H   0  0  0  0  0  0  0  0  0  0  0  0
   -8.2954   23.7123  -30.0456 H   0  0  0  0  0  0  0  0  0  0  0  0
   -8.3318   21.5188  -31.2092 H   0  0  0  0  0  0  0  0  0  0  0  0
   -7.4567   19.2794  -30.6974 H   0  0  0  0  0  0  0  0  0  0  0  0
   -7.5956   17.0896  -31.8835 H   0  0  0  0  0  0  0  0  0  0  0  0
   -5.3400   18.7302  -35.1909 H   0  0  0  0  0  0  0  0  0  0  0  0
   -5.1939   20.9211  -34.0082 H   0  0  0  0  0  0  0  0  0  0  0  0
  1  2  2  0
  2  3  1  0
  3  4  1  0
  4  5  1  0
  5  6  2  0
  6  7  1  0
  7  8  2  0
  8  9  1  0
  9 10  2  0
 10 11  1  0
 11 12  1  0
  2 13  1  0
 13 14  2  0
 14 15  1  0
 15 16  1  0
 15 17  1  0
 14 18  1  0
 18 19  2  0
 19 20  1  0
 20 21  1  0
 21 22  2  0
 22 23  1  0
 23 24  2  0
 24 25  1  0
 24 26  1  0
 26 27  2  0
 20 28  1  0
 28 29  2  0
 12  4  2  0
 28 13  1  0
 11  7  1  0
 27 21  1  0
  5 30  1  0
  8 31  1  0
  9 32  1  0
 12 33  1  0
 15 34  1  0
 18 35  1  0
 19 36  1  0
 22 37  1  0
 23 38  1  0
 26 39  1  0
 27 40  1  0
M  CHG  1   3  -1
M  END
>  <UniqueID>  (8) 
7

>  <SMILES>  (8) 
O=C([N-]c1cnc2ccnn2c1)c1c(C(F)F)ccn(-c2ccc(F)cc2)c1=O

>  <Energy>  (8) 
101.67591393908744

>  <Genealogy>  (8) 
O=C([N-]c1cnc2ccnn2c1)c1c(C(F)F)ccn(-c2ccc(F)cc2)c1=O (protonated)
O=C([N-]c1cnc2ccnn2c1)c1c(C(F)F)ccn(-c2ccc(F)cc2)c1=O (3D coordinates assigned)
O=C([N-]c1cnc2ccnn2c1)c1c(C(F)F)ccn(-c2ccc(F)cc2)c1=O (optimized conformer: 101.67591393908744 kcal/mol)

>  <smiles>  (8) 
O=C(Nc1cnc2ccnn2c1)c1c(C(F)F)ccn(-c2ccc(F)cc2)c1=O

>  <score_type>  (8) 
oracle

>  <origin>  (8) 
adg

>  <m_score__min__energy>  (8) 
-9.6099999999999994

>  <m_primary>  (8) 
energy

$$$$
8:0
     RDKit          3D

 43 45  0  0  0  0  0  0  0  0999 V2000
   -5.2670   25.7790  -30.4620 C   0  0  0  0  0  0  0  0  0  0  0  0
   -3.9360   25.2830  -30.5280 O   0  0  0  0  0  0  0  0  0  0  0  0
   -3.4160   24.2820  -29.6920 C   0  0  0  0  0  0  0  0  0  0  0  0
   -2.6260   24.5850  -28.5650 C   0  0  0  0  0  0  0  0  0  0  0  0
   -2.1020   23.5600  -27.7740 C   0  0  0  0  0  0  0  0  0  0  0  0
   -2.3560   22.2270  -28.0960 C   0  0  0  0  0  0  0  0  0  0  0  0
   -3.1410   21.9130  -29.2070 C   0  0  0  0  0  0  0  0  0  0  0  0
   -3.6820   22.9330  -30.0040 C   0  0  0  0  0  0  0  0  0  0  0  0
   -4.4920   22.6000  -31.1440 N   0  0  0  0  0  0  0  0  0  0  0  0
   -5.9200   22.9340  -31.1460 C   0  0  0  0  0  0  0  0  0  0  0  0
   -6.6650   22.1350  -32.2250 C   0  0  0  0  0  0  0  0  0  0  0  0
   -6.0510   20.8000  -32.3840 N   0  0  0  0  0  0  0  0  0  0  0  0
   -6.9130   19.8570  -33.1430 C   0  0  0  0  0  0  0  0  0  0  0  0
   -6.3620   18.4490  -33.2520 C   0  0  0  0  0  0  0  0  0  0  0  0
   -6.0080   17.9140  -34.5010 C   0  0  0  0  0  0  0  0  0  0  0  0
   -5.5130   16.6100  -34.5780 C   0  0  0  0  0  0  0  0  0  0  0  0
   -5.3870   15.8600  -33.4520 N   0  0  0  0  0  0  0  0  0  0  0  0
   -5.7350   16.3450  -32.2310 C   0  0  0  0  0  0  0  0  0  0  0  0
   -6.2350   17.6430  -32.1090 C   0  0  0  0  0  0  0  0  0  0  0  0
   -4.6810   20.8970  -32.9500 C   0  0  0  0  0  0  0  0  0  0  0  0
   -3.8690   22.0730  -32.3630 C   0  0  0  0  0  0  0  0  0  0  0  0
   -5.5651   25.8901  -29.4090 H   0  0  0  0  0  0  0  0  0  0  0  0
   -5.3191   26.7569  -30.9630 H   0  0  0  0  0  0  0  0  0  0  0  0
   -5.9464   25.0737  -30.9630 H   0  0  0  0  0  0  0  0  0  0  0  0
   -2.4209   25.6344  -28.3069 H   0  0  0  0  0  0  0  0  0  0  0  0
   -1.4876   23.8047  -26.8950 H   0  0  0  0  0  0  0  0  0  0  0  0
   -1.9374   21.4222  -27.4739 H   0  0  0  0  0  0  0  0  0  0  0  0
   -3.3364   20.8602  -29.4588 H   0  0  0  0  0  0  0  0  0  0  0  0
   -6.3476   22.6956  -30.1609 H   0  0  0  0  0  0  0  0  0  0  0  0
   -6.0310   24.0069  -31.3619 H   0  0  0  0  0  0  0  0  0  0  0  0
   -7.7180   22.0181  -31.9290 H   0  0  0  0  0  0  0  0  0  0  0  0
   -6.6024   22.6759  -33.1808 H   0  0  0  0  0  0  0  0  0  0  0  0
   -5.9570   20.3810  -31.4260 H   0  0  0  0  0  0  0  0  0  0  0  0
   -7.8904   19.8053  -32.6411 H   0  0  0  0  0  0  0  0  0  0  0  0
   -6.9760   20.2482  -34.1692 H   0  0  0  0  0  0  0  0  0  0  0  0
   -6.1198   18.5181  -35.4134 H   0  0  0  0  0  0  0  0  0  0  0  0
   -5.2245   16.1893  -35.5526 H   0  0  0  0  0  0  0  0  0  0  0  0
   -5.6225   15.7138  -31.3372 H   0  0  0  0  0  0  0  0  0  0  0  0
   -6.5279   18.0322  -31.1227 H   0  0  0  0  0  0  0  0  0  0  0  0
   -4.1459   19.9600  -32.7363 H   0  0  0  0  0  0  0  0  0  0  0  0
   -4.7825   21.0735  -34.0310 H   0  0  0  0  0  0  0  0  0  0  0  0
   -2.8543   21.7224  -32.1232 H   0  0  0  0  0  0  0  0  0  0  0  0
   -3.8379   22.8788  -33.1112 H   0  0  0  0  0  0  0  0  0  0  0  0
  1  2  1  0
  2  3  1  0
  3  4  2  0
  4  5  1  0
  5  6  2  0
  6  7  1  0
  7  8  2  0
  8  9  1  0
  9 10  1  0
 10 11  1  0
 11 12  1  0
 12 13  1  0
 13 14  1  0
 14 15  2  0
 15 16  1  0
 16 17  2  0
 17 18  1  0
 18 19  2  0
 12 20  1  0
 20 21  1  0
  8  3  1  0
 21  9  1  0
 19 14  1  0
  1 22  1  0
  1 23  1  0
  1 24  1  0
  4 25  1  0
  5 26  1  0
  6 27  1  0
  7 28  1  0
 10 29  1  0
 10 30  1  0
 11 31  1  0
 11 32  1  0
 12 33  1  0
 13 34  1  0
 13 35  1  0
 15 36  1  0
 16 37  1  0
 18 38  1  0
 19 39  1  0
 20 40  1  0
 20 41  1  0
 21 42  1  0
 21 43  1  0
M  CHG  1  12   1
M  END
>  <UniqueID>  (9) 
8

>  <SMILES>  (9) 
COc1ccccc1N1CC[NH+](Cc2ccncc2)CC1

>  <Energy>  (9) 
58.50555893448671

>  <Genealogy>  (9) 
COc1ccccc1N1CC[NH+](Cc2ccncc2)CC1 (protonated)
COc1ccccc1N1CC[NH+](Cc2ccncc2)CC1 (3D coordinates assigned)
COc1ccccc1N1CC[NH+](Cc2ccncc2)CC1 (nonaromatic ring conformer: 58.50555893448671 kcal/mol)

>  <smiles>  (9) 
COc1ccccc1N1CCN(Cc2ccncc2)CC1

>  <score_type>  (9) 
oracle

>  <origin>  (9) 
adg

>  <m_score__min__energy>  (9) 
-6.9500000000000002

>  <m_primary>  (9) 
energy

$$$$
9:0
     RDKit          3D

 40 42  0  0  1  0  0  0  0  0999 V2000
   -3.9160   24.4810  -27.1190 C   0  0  0  0  0  0  0  0  0  0  0  0
   -2.9200   24.4830  -28.1340 O   0  0  0  0  0  0  0  0  0  0  0  0
   -2.9020   23.5420  -29.1530 C   0  0  0  0  0  0  0  0  0  0  0  0
   -2.3940   22.2690  -29.0050 C   0  0  0  0  0  0  0  0  0  0  0  0
   -2.3980   21.3640  -30.0490 C   0  0  0  0  0  0  0  0  0  0  0  0
   -2.9280   21.7640  -31.2670 C   0  0  0  0  0  0  0  0  0  0  0  0
   -2.9620   20.8800  -32.3850 N   0  0  0  0  0  0  0  0  0  0  0  0
   -4.0840   20.3500  -32.7290 C   0  0  0  0  0  0  0  0  0  0  0  0
   -4.0720   19.2060  -33.4970 C   0  0  0  0  0  0  0  0  0  0  0  0
   -5.2590   18.6180  -33.8790 C   0  0  0  0  0  0  0  0  0  0  0  0
   -5.2160   17.3970  -34.7000 C   0  0  0  0  0  0  0  0  0  0  0  0
   -6.4170   19.1680  -33.4980 N   0  0  0  0  0  0  0  0  0  0  0  0
   -6.4440   20.2860  -32.7470 C   0  0  0  0  0  0  0  0  0  0  0  0
   -7.7170   20.8710  -32.3420 C   0  0  0  0  0  0  0  0  0  0  0  0
   -8.9570   20.2300  -32.4160 C   0  0  0  0  0  0  0  0  0  0  0  0
   -9.8470   21.1820  -31.9220 C   0  0  0  0  0  0  0  0  0  0  0  0
   -9.1230   22.3230  -31.5820 C   0  0  0  0  0  0  0  0  0  0  0  0
   -7.8750   22.0780  -31.8530 O   0  0  0  0  0  0  0  0  0  0  0  0
   -5.2760   20.8620  -32.3730 N   0  0  0  0  0  0  0  0  0  0  0  0
   -3.4380   23.0530  -31.4030 C   0  0  0  0  0  0  0  0  0  0  0  0
   -3.4410   23.9630  -30.3730 C   0  0  0  0  0  0  0  0  0  0  0  0
   -3.9510   25.2480  -30.5170 O   0  0  0  0  0  0  0  0  0  0  0  0
   -5.3610   25.3850  -30.4500 C   0  0  0  0  0  0  0  0  0  0  0  0
   -3.4326   24.4820  -26.1309 H   0  0  0  0  0  0  0  0  0  0  0  0
   -4.5447   25.3779  -27.2205 H   0  0  0  0  0  0  0  0  0  0  0  0
   -4.5411   23.5816  -27.2205 H   0  0  0  0  0  0  0  0  0  0  0  0
   -1.9759   21.9668  -28.0335 H   0  0  0  0  0  0  0  0  0  0  0  0
   -1.9907   20.3507  -29.9175 H   0  0  0  0  0  0  0  0  0  0  0  0
   -3.1143   18.7614  -33.8056 H   0  0  0  0  0  0  0  0  0  0  0  0
   -5.1849   16.5148  -34.0437 H   0  0  0  0  0  0  0  0  0  0  0  0
   -6.1131   17.3503  -35.3349 H   0  0  0  0  0  0  0  0  0  0  0  0
   -4.3179   17.4135  -35.3349 H   0  0  0  0  0  0  0  0  0  0  0  0
   -9.1779   19.2151  -32.7782 H   0  0  0  0  0  0  0  0  0  0  0  0
  -10.9347   21.0545  -31.8183 H   0  0  0  0  0  0  0  0  0  0  0  0
   -9.5303   23.2551  -31.1633 H   0  0  0  0  0  0  0  0  0  0  0  0
   -5.3180   21.7160  -31.8000 H   0  0  0  0  0  0  0  0  0  0  0  0
   -3.8556   23.3551  -32.3748 H   0  0  0  0  0  0  0  0  0  0  0  0
   -5.6768   25.4157  -29.3967 H   0  0  0  0  0  0  0  0  0  0  0  0
   -5.6631   26.3167  -30.9506 H   0  0  0  0  0  0  0  0  0  0  0  0
   -5.8368   24.5289  -30.9506 H   0  0  0  0  0  0  0  0  0  0  0  0
  1  2  1  0
  2  3  1  0
  3  4  2  0
  4  5  1  0
  5  6  2  0
  6  7  1  0
  7  8  2  0
  8  9  1  0
  9 10  2  0
 10 11  1  0
 10 12  1  0
 12 13  2  0
 13 14  1  0
 14 15  2  0
 15 16  1  0
 16 17  2  0
 17 18  1  0
 13 19  1  0
  6 20  1  0
 20 21  2  0
 21 22  1  0
 22 23  1  0
 21  3  1  0
 19  8  1  0
 18 14  1  0
  1 24  1  0
  1 25  1  0
  1 26  1  0
  4 27  1  0
  5 28  1  0
  9 29  1  0
 11 30  1  0
 11 31  1  0
 11 32  1  0
 15 33  1  0
 16 34  1  0
 17 35  1  0
 19 36  1  0
 20 37  1  0
 23 38  1  0
 23 39  1  0
 23 40  1  0
M  END
>  <smiles>  (10) 
COc1ccc(N=c2cc(C)nc(-c3ccco3)[nH]2)cc1OC

>  <score_type>  (10) 
oracle

>  <origin>  (10) 
adg

>  <m_score__min__energy>  (10) 
-7.5899999999999999

>  <m_primary>  (10) 
energy

$$$$
10:0
     RDKit          3D

 43 44  0  0  0  0  0  0  0  0999 V2000
   -5.3200   20.8820  -32.6360 C   0  0  0  0  0  0  0  0  0  0  0  0
   -5.5270   22.1460  -31.8550 C   0  0  0  0  0  0  0  0  0  0  0  0
   -6.8160   22.5210  -31.4520 C   0  0  0  0  0  0  0  0  0  0  0  0
   -7.0060   23.6660  -30.6760 C   0  0  0  0  0  0  0  0  0  0  0  0
   -5.9100   24.4520  -30.2860 C   0  0  0  0  0  0  0  0  0  0  0  0
   -6.1280   25.6870  -29.4560 C   0  0  0  0  0  0  0  0  0  0  0  0
   -4.6100   24.0870  -30.6940 C   0  0  0  0  0  0  0  0  0  0  0  0
   -3.4940   24.8840  -30.2700 N   0  0  0  0  0  0  0  0  0  0  0  0
   -2.5330   24.5480  -29.2630 C   0  0  0  0  0  0  0  0  0  0  0  0
   -1.6310   25.3670  -28.9370 O   0  0  0  0  0  0  0  0  0  0  0  0
   -2.6390   23.2310  -28.5390 C   0  0  0  0  0  0  0  0  0  0  0  0
   -2.0870   22.0790  -29.3020 N   0  0  0  0  0  0  0  0  0  0  0  0
   -0.6240   21.9460  -29.0660 C   0  0  0  0  0  0  0  0  0  0  0  0
   -0.1660   20.5940  -28.4780 C   0  0  0  0  0  0  0  0  0  0  0  0
   -0.5600   20.3540  -27.0120 C   0  0  0  0  0  0  0  0  0  0  0  0
   -1.9590   19.7350  -26.8870 C   0  0  0  0  0  0  0  0  0  0  0  0
   -3.0610   20.5760  -27.5370 C   0  0  0  0  0  0  0  0  0  0  0  0
   -2.8480   20.8260  -29.0430 C   0  0  0  0  0  0  0  0  0  0  0  0
   -4.4270   22.9180  -31.4550 C   0  0  0  0  0  0  0  0  0  0  0  0
   -5.1821   20.0402  -31.9414 H   0  0  0  0  0  0  0  0  0  0  0  0
   -6.1994   20.6943  -33.2696 H   0  0  0  0  0  0  0  0  0  0  0  0
   -4.4267   20.9846  -33.2696 H   0  0  0  0  0  0  0  0  0  0  0  0
   -7.6817   21.9105  -31.7484 H   0  0  0  0  0  0  0  0  0  0  0  0
   -8.0218   23.9544  -30.3679 H   0  0  0  0  0  0  0  0  0  0  0  0
   -6.0817   25.4244  -28.3888 H   0  0  0  0  0  0  0  0  0  0  0  0
   -5.3464   26.4261  -29.6861 H   0  0  0  0  0  0  0  0  0  0  0  0
   -7.1154   26.1138  -29.6861 H   0  0  0  0  0  0  0  0  0  0  0  0
   -2.0903   23.3125  -27.5891 H   0  0  0  0  0  0  0  0  0  0  0  0
   -3.7108   23.0326  -28.3910 H   0  0  0  0  0  0  0  0  0  0  0  0
   -2.2110   22.3510  -30.3050 H   0  0  0  0  0  0  0  0  0  0  0  0
   -0.1111   22.0881  -30.0287 H   0  0  0  0  0  0  0  0  0  0  0  0
   -0.3695   22.7052  -28.3118 H   0  0  0  0  0  0  0  0  0  0  0  0
   -0.6082   19.7907  -29.0856 H   0  0  0  0  0  0  0  0  0  0  0  0
    0.9337   20.6063  -28.5017 H   0  0  0  0  0  0  0  0  0  0  0  0
    0.1722   19.6724  -26.5544 H   0  0  0  0  0  0  0  0  0  0  0  0
   -0.5718   21.3272  -26.4995 H   0  0  0  0  0  0  0  0  0  0  0  0
   -1.9462   18.7462  -27.3687 H   0  0  0  0  0  0  0  0  0  0  0  0
   -2.1903   19.6740  -25.8133 H   0  0  0  0  0  0  0  0  0  0  0  0
   -4.0197   20.0530  -27.4047 H   0  0  0  0  0  0  0  0  0  0  0  0
   -3.0455   21.5593  -27.0442 H   0  0  0  0  0  0  0  0  0  0  0  0
   -2.2901   19.9783  -29.4676 H   0  0  0  0  0  0  0  0  0  0  0  0
   -3.8377   20.9285  -29.5120 H   0  0  0  0  0  0  0  0  0  0  0  0
   -3.4110   22.6065  -31.7390 H   0  0  0  0  0  0  0  0  0  0  0  0
  1  2  1  0
  2  3  2  0
  3  4  1  0
  4  5  2  0
  5  6  1  0
  5  7  1  0
  7  8  1  0
  8  9  1  0
  9 10  2  0
  9 11  1  0
 11 12  1  0
 12 13  1  0
 13 14  1  0
 14 15  1  0
 15 16  1  0
 16 17  1  0
 17 18  1  0
  7 19  2  0
 19  2  1  0
 18 12  1  0
  1 20  1  0
  1 21  1  0
  1 22  1  0
  3 23  1  0
  4 24  1  0
  6 25  1  0
  6 26  1  0
  6 27  1  0
 11 28  1  0
 11 29  1  0
 12 30  1  0
 13 31  1  0
 13 32  1  0
 14 33  1  0
 14 34  1  0
 15 35  1  0
 15 36  1  0
 16 37  1  0
 16 38  1  0
 17 39  1  0
 17 40  1  0
 18 41  1  0
 18 42  1  0
 19 43  1  0
M  CHG  2   8  -1  12   1
M  END
>  <UniqueID>  (11) 
9

>  <SMILES>  (11) 
Cc1ccc(C)c([N-]C(=O)C[NH+]2CCCCCC2)c1

>  <Energy>  (11) 
52.0825490206147

>  <Genealogy>  (11) 
Cc1ccc(C)c([N-]C(=O)C[NH+]2CCCCCC2)c1 (protonated)
Cc1ccc(C)c([N-]C(=O)C[NH+]2CCCCCC2)c1 (3D coordinates assigned)
Cc1ccc(C)c([N-]C(=O)C[NH+]2CCCCCC2)c1 (nonaromatic ring conformer: 52.0825490206147 kcal/mol)

>  <smiles>  (11) 
Cc1ccc(C)c(NC(=O)CN2CCCCCC2)c1

>  <score_type>  (11) 
oracle

>  <origin>  (11) 
adg

>  <m_score__min__energy>  (11) 
-5.7699999999999996

>  <m_primary>  (11) 
energy

$$$$
11:0
     RDKit          3D

 39 41  0  0  0  0  0  0  0  0999 V2000
   -3.8740   25.2400  -30.7000 O   0  0  0  0  0  0  0  0  0  0  0  0
   -4.4010   24.3120  -30.0260 C   0  0  0  0  0  0  0  0  0  0  0  0
   -3.8870   24.0010  -28.7190 N   0  0  0  0  0  0  0  0  0  0  0  0
   -2.5600   24.3390  -28.2800 C   0  0  0  0  0  0  0  0  0  0  0  0
   -1.4530   23.8550  -28.9950 C   0  0  0  0  0  0  0  0  0  0  0  0
   -0.1530   24.1880  -28.5990 C   0  0  0  0  0  0  0  0  0  0  0  0
    0.0500   25.0180  -27.4940 C   0  0  0  0  0  0  0  0  0  0  0  0
    1.3110   25.3410  -27.1130 F   0  0  0  0  0  0  0  0  0  0  0  0
   -1.0450   25.5210  -26.7880 C   0  0  0  0  0  0  0  0  0  0  0  0
   -2.3450   25.1900  -27.1800 C   0  0  0  0  0  0  0  0  0  0  0  0
   -5.5760   23.5930  -30.5720 C   0  0  0  0  0  0  0  0  0  0  0  0
   -6.5460   23.0530  -29.7100 C   0  0  0  0  0  0  0  0  0  0  0  0
   -7.6490   22.3740  -30.2290 C   0  0  0  0  0  0  0  0  0  0  0  0
   -7.7800   22.2400  -31.6130 C   0  0  0  0  0  0  0  0  0  0  0  0
   -9.1680   21.3460  -32.3110 S   0  0  0  0  0  0  0  0  0  0  0  0
   -8.6870   19.7310  -31.6040 C   0  0  0  0  0  0  0  0  0  0  0  0
   -7.5120   19.1480  -32.3400 C   0  0  0  0  0  0  0  0  0  0  0  0
   -7.6090   17.8880  -32.9550 C   0  0  0  0  0  0  0  0  0  0  0  0
   -6.5020   17.3340  -33.6050 C   0  0  0  0  0  0  0  0  0  0  0  0
   -5.2930   18.0320  -33.6460 C   0  0  0  0  0  0  0  0  0  0  0  0
   -5.1860   19.2860  -33.0360 C   0  0  0  0  0  0  0  0  0  0  0  0
   -3.5300   20.2360  -33.0870 Br  0  0  0  0  0  0  0  0  0  0  0  0
   -6.2910   19.8420  -32.3830 C   0  0  0  0  0  0  0  0  0  0  0  0
   -6.8490   22.7850  -32.4380 N   0  0  0  0  0  0  0  0  0  0  0  0
   -5.7640   23.4500  -31.9580 C   0  0  0  0  0  0  0  0  0  0  0  0
   -4.5500   23.6110  -28.0120 H   0  0  0  0  0  0  0  0  0  0  0  0
   -1.6087   23.2098  -29.8722 H   0  0  0  0  0  0  0  0  0  0  0  0
    0.7095   23.7960  -29.1581 H   0  0  0  0  0  0  0  0  0  0  0  0
   -0.8839   26.1792  -25.9215 H   0  0  0  0  0  0  0  0  0  0  0  0
   -3.2041   25.5965  -26.6262 H   0  0  0  0  0  0  0  0  0  0  0  0
   -6.4351   23.1662  -28.6215 H   0  0  0  0  0  0  0  0  0  0  0  0
   -8.4074   21.9487  -29.5552 H   0  0  0  0  0  0  0  0  0  0  0  0
   -8.4171   19.8675  -30.5464 H   0  0  0  0  0  0  0  0  0  0  0  0
   -9.5375   19.0399  -31.6990 H   0  0  0  0  0  0  0  0  0  0  0  0
   -8.5597   17.3355  -32.9248 H   0  0  0  0  0  0  0  0  0  0  0  0
   -6.5834   16.3474  -34.0846 H   0  0  0  0  0  0  0  0  0  0  0  0
   -4.4236   17.5948  -34.1588 H   0  0  0  0  0  0  0  0  0  0  0  0
   -6.2037   20.8269  -31.9010 H   0  0  0  0  0  0  0  0  0  0  0  0
   -5.0304   23.8778  -32.6572 H   0  0  0  0  0  0  0  0  0  0  0  0
  1  2  2  0
  2  3  1  0
  3  4  1  0
  4  5  2  0
  5  6  1  0
  6  7  2  0
  7  8  1  0
  7  9  1  0
  9 10  2  0
  2 11  1  0
 11 12  2  0
 12 13  1  0
 13 14  2  0
 14 15  1  0
 15 16  1  0
 16 17  1  0
 17 18  2  0
 18 19  1  0
 19 20  2  0
 20 21  1  0
 21 22  1  0
 21 23  2  0
 14 24  1  0
 24 25  2  0
 10  4  1  0
 25 11  1  0
 23 17  1  0
  3 26  1  0
  5 27  1  0
  6 28  1  0
  9 29  1  0
 10 30  1  0
 12 31  1  0
 13 32  1  0
 16 33  1  0
 16 34  1  0
 18 35  1  0
 19 36  1  0
 20 37  1  0
 23 38  1  0
 25 39  1  0
M  END
>  <UniqueID>  (12) 
10

>  <SMILES>  (12) 
O=C(Nc1ccc(F)cc1)c1ccc(SCc2cccc(Br)c2)nc1

>  <Energy>  (12) 
42.71529405880804

>  <Genealogy>  (12) 
O=C(Nc1ccc(F)cc1)c1ccc(SCc2cccc(Br)c2)nc1 (3D coordinates assigned)
O=C(Nc1ccc(F)cc1)c1ccc(SCc2cccc(Br)c2)nc1 (optimized conformer: 42.71529405880804 kcal/mol)

>  <smiles>  (12) 
O=C(Nc1ccc(F)cc1)c1ccc(SCc2cccc(Br)c2)nc1

>  <score_type>  (12) 
oracle

>  <origin>  (12) 
adg

>  <m_score__min__energy>  (12) 
-9.8800000000000008

>  <m_primary>  (12) 
energy

$$$$
12:0
     RDKit          3D

 84 89  0  0  0  0  0  0  0  0999 V2000
   -4.8109   26.3504  -30.2041 H   0  0  0  0  0  0  0  0  0  0  0  0
   -4.9290   25.3010  -30.5120 C   0  0  0  0  0  0  0  0  0  0  0  0
   -3.8660   24.5010  -30.7920 N   0  0  0  0  0  0  0  0  0  0  0  0
   -4.2540   23.2600  -31.1520 C   0  0  0  0  0  0  0  0  0  0  0  0
   -3.3930   22.3250  -31.4320 N   0  0  0  0  0  0  0  0  0  0  0  0
   -3.3260   21.0050  -30.8770 C   0  0  0  0  0  0  0  0  0  0  0  0
   -3.8510   20.7390  -29.7610 O   0  0  0  0  0  0  0  0  0  0  0  0
   -2.6630   19.9810  -31.6170 N   0  0  0  0  0  0  0  0  0  0  0  0
   -2.7060   19.9050  -33.3480 S   0  0  0  0  0  0  0  0  0  0  0  0
   -3.7140   20.9080  -33.8440 O   0  0  0  0  0  0  0  0  0  0  0  0
   -3.1430   18.5260  -33.7610 O   0  0  0  0  0  0  0  0  0  0  0  0
   -1.0990   20.2410  -34.0210 C   0  0  0  0  0  0  0  0  0  0  0  0
   -0.8170   21.5420  -34.4770 C   0  0  0  0  0  0  0  0  0  0  0  0
   -1.5750   22.3323  -34.3730 H   0  0  0  0  0  0  0  0  0  0  0  0
    0.4180   21.8390  -35.0610 C   0  0  0  0  0  0  0  0  0  0  0  0
    0.6231   22.8573  -35.4228 H   0  0  0  0  0  0  0  0  0  0  0  0
    1.3910   20.8470  -35.1860 C   0  0  0  0  0  0  0  0  0  0  0  0
    2.3604   21.0825  -35.6494 H   0  0  0  0  0  0  0  0  0  0  0  0
    1.1340   19.5560  -34.7230 C   0  0  0  0  0  0  0  0  0  0  0  0
    1.9097   18.7812  -34.8127 H   0  0  0  0  0  0  0  0  0  0  0  0
   -0.1060   19.2350  -34.1430 C   0  0  0  0  0  0  0  0  0  0  0  0
   -0.3550   17.8290  -33.7410 C   0  0  0  0  0  0  0  0  0  0  0  0
   -0.7380   16.8980  -34.7210 C   0  0  0  0  0  0  0  0  0  0  0  0
   -0.8139   17.2113  -35.7727 H   0  0  0  0  0  0  0  0  0  0  0  0
   -1.0230   15.5770  -34.3680 C   0  0  0  0  0  0  0  0  0  0  0  0
   -1.3119   14.8519  -35.1431 H   0  0  0  0  0  0  0  0  0  0  0  0
   -0.9420   15.1750  -33.0340 C   0  0  0  0  0  0  0  0  0  0  0  0
   -1.1688   14.1340  -32.7603 H   0  0  0  0  0  0  0  0  0  0  0  0
   -0.5740   16.0900  -32.0460 C   0  0  0  0  0  0  0  0  0  0  0  0
   -0.5216   15.7678  -30.9955 H   0  0  0  0  0  0  0  0  0  0  0  0
   -0.2700   17.4200  -32.3840 C   0  0  0  0  0  0  0  0  0  0  0  0
    0.1020   18.3730  -31.3120 C   0  0  0  0  0  0  0  0  0  0  0  0
    0.0780   19.7580  -31.5470 C   0  0  0  0  0  0  0  0  0  0  0  0
   -0.0758   20.1366  -32.5683 H   0  0  0  0  0  0  0  0  0  0  0  0
    0.2480   20.6560  -30.4930 C   0  0  0  0  0  0  0  0  0  0  0  0
    0.2125   21.7385  -30.6851 H   0  0  0  0  0  0  0  0  0  0  0  0
    0.4640   20.1850  -29.1890 C   0  0  0  0  0  0  0  0  0  0  0  0
    0.5060   21.1460  -28.0280 C   0  0  0  0  0  0  0  0  0  0  0  0
    1.2812   21.9041  -28.2133 H   0  0  0  0  0  0  0  0  0  0  0  0
    0.7360   20.5854  -27.1099 H   0  0  0  0  0  0  0  0  0  0  0  0
   -0.7960   21.8140  -27.8650 N   0  0  0  0  0  0  0  0  0  0  0  0
   -1.0780   23.1450  -27.8820 C   0  0  0  0  0  0  0  0  0  0  0  0
   -0.1070   24.2470  -28.0990 C   0  0  0  0  0  0  0  0  0  0  0  0
    1.0410   24.0050  -28.5590 O   0  0  0  0  0  0  0  0  0  0  0  0
   -0.4630   25.5550  -27.7470 O   0  0  0  0  0  0  0  0  0  0  0  0
   -0.5940   26.0490  -26.4400 C   0  0  0  0  0  0  0  0  0  0  0  0
   -0.7320   27.4310  -26.2680 C   0  0  0  0  0  0  0  0  0  0  0  0
   -0.7326   28.0934  -27.1462 H   0  0  0  0  0  0  0  0  0  0  0  0
   -0.8690   27.9750  -24.9890 C   0  0  0  0  0  0  0  0  0  0  0  0
   -0.9859   29.0617  -24.8651 H   0  0  0  0  0  0  0  0  0  0  0  0
   -0.8580   27.1430  -23.8660 C   0  0  0  0  0  0  0  0  0  0  0  0
   -0.9796   27.5722  -22.8605 H   0  0  0  0  0  0  0  0  0  0  0  0
   -0.6920   25.7640  -24.0240 C   0  0  0  0  0  0  0  0  0  0  0  0
   -0.6722   25.1087  -23.1407 H   0  0  0  0  0  0  0  0  0  0  0  0
   -0.5510   25.2160  -25.3030 C   0  0  0  0  0  0  0  0  0  0  0  0
   -0.4061   24.1321  -25.4224 H   0  0  0  0  0  0  0  0  0  0  0  0
   -2.4470   23.2980  -27.6670 C   0  0  0  0  0  0  0  0  0  0  0  0
   -3.2590   24.5640  -27.6840 C   0  0  0  0  0  0  0  0  0  0  0  0
   -2.5808   25.4278  -27.6214 H   0  0  0  0  0  0  0  0  0  0  0  0
   -3.8384   24.5976  -28.6184 H   0  0  0  0  0  0  0  0  0  0  0  0
   -4.2290   24.6040  -26.5070 C   0  0  0  0  0  0  0  0  0  0  0  0
   -3.6627   24.5806  -25.5642 H   0  0  0  0  0  0  0  0  0  0  0  0
   -4.8248   25.5275  -26.5541 H   0  0  0  0  0  0  0  0  0  0  0  0
   -4.8988   23.7327  -26.5541 H   0  0  0  0  0  0  0  0  0  0  0  0
   -3.0020   22.0800  -27.5400 N   0  0  0  0  0  0  0  0  0  0  0  0
   -4.0140   21.8610  -27.3860 H   0  0  0  0  0  0  0  0  0  0  0  0
   -1.9910   21.2010  -27.6680 C   0  0  0  0  0  0  0  0  0  0  0  0
   -2.2010   19.7160  -27.5460 C   0  0  0  0  0  0  0  0  0  0  0  0
   -1.2986   19.1937  -27.8966 H   0  0  0  0  0  0  0  0  0  0  0  0
   -3.0694   19.4302  -28.1578 H   0  0  0  0  0  0  0  0  0  0  0  0
   -2.4740   19.3260  -26.0920 C   0  0  0  0  0  0  0  0  0  0  0  0
   -2.5513   20.2389  -25.4832 H   0  0  0  0  0  0  0  0  0  0  0  0
   -1.6458   18.6949  -25.7373 H   0  0  0  0  0  0  0  0  0  0  0  0
   -3.7750   18.5340  -25.9720 C   0  0  0  0  0  0  0  0  0  0  0  0
   -4.0176   18.3863  -24.9093 H   0  0  0  0  0  0  0  0  0  0  0  0
   -4.5890   19.0899  -26.4601 H   0  0  0  0  0  0  0  0  0  0  0  0
   -3.6550   17.5556  -26.4601 H   0  0  0  0  0  0  0  0  0  0  0  0
    0.5850   18.8020  -28.9720 C   0  0  0  0  0  0  0  0  0  0  0  0
    0.8307   18.4253  -27.9682 H   0  0  0  0  0  0  0  0  0  0  0  0
    0.3950   17.9030  -30.0240 C   0  0  0  0  0  0  0  0  0  0  0  0
    0.4756   16.8213  -29.8411 H   0  0  0  0  0  0  0  0  0  0  0  0
   -5.9370   23.1070  -31.1290 S   0  0  0  0  0  0  0  0  0  0  0  0
   -6.1750   24.7000  -30.6420 C   0  0  0  0  0  0  0  0  0  0  0  0
   -7.1469   25.1814  -30.4586 H   0  0  0  0  0  0  0  0  0  0  0  0
  1  2  1  0
  2  3  1  0
  3  4  1  0
  4  5  2  0
  5  6  1  0
  6  7  2  0
  6  8  1  0
  8  9  1  0
  9 10  2  0
  9 11  2  0
  9 12  1  0
 12 13  2  0
 13 14  1  0
 13 15  1  0
 15 16  1  0
 15 17  2  0
 17 18  1  0
 17 19  1  0
 19 20  1  0
 19 21  2  0
 21 22  1  0
 22 23  2  0
 23 24  1  0
 23 25  1  0
 25 26  1  0
 25 27  2  0
 27 28  1  0
 27 29  1  0
 29 30  1  0
 29 31  2  0
 31 32  1  0
 32 33  2  0
 33 34  1  0
 33 35  1  0
 35 36  1  0
 35 37  2  0
 37 38  1  0
 38 39  1  0
 38 40  1  0
 38 41  1  0
 41 42  1  0
 42 43  1  0
 43 44  2  0
 43 45  1  0
 45 46  1  0
 46 47  2  0
 47 48  1  0
 47 49  1  0
 49 50  1  0
 49 51  2  0
 51 52  1  0
 51 53  1  0
 53 54  1  0
 53 55  2  0
 55 56  1  0
 42 57  2  0
 57 58  1  0
 58 59  1  0
 58 60  1  0
 58 61  1  0
 61 62  1  0
 61 63  1  0
 61 64  1  0
 57 65  1  0
 65 66  1  0
 65 67  2  0
 67 68  1  0
 68 69  1  0
 68 70  1  0
 68 71  1  0
 71 72  1  0
 71 73  1  0
 71 74  1  0
 74 75  1  0
 74 76  1  0
 74 77  1  0
 37 78  1  0
 78 79  1  0
 78 80  2  0
 80 81  1  0
  4 82  1  0
 82 83  1  0
 83 84  1  0
 83  2  2  0
 21 12  1  0
 31 22  1  0
 80 32  1  0
 67 41  1  0
 55 46  1  0
M  CHG  3   3  -1   8  -1  65   1
M  END
>  <UniqueID>  (13) 
11

>  <SMILES>  (13) 
CCCc1[nH+]c(CC)c(C(=O)Oc2ccccc2)n1Cc1ccc(-c2ccccc2-c2ccccc2S(=O)(=O)[N-]C(=O)/N=c2/[n-]ccs2)cc1

>  <Energy>  (13) 
166.00905218903875

>  <Genealogy>  (13) 
CCCc1[nH+]c(CC)c(C(=O)Oc2ccccc2)n1Cc1ccc(-c2ccccc2-c2ccccc2S(=O)(=O)[N-]C(=O)N=c2[n-]ccs2)cc1 (protonated)
CCCc1[nH+]c(CC)c(C(=O)Oc2ccccc2)n1Cc1ccc(-c2ccccc2-c2ccccc2S(=O)(=O)[N-]C(=O)/N=c2/[n-]ccs2)cc1 (cis-trans isomerization)
CCCc1[nH+]c(CC)c(C(=O)Oc2ccccc2)n1Cc1ccc(-c2ccccc2-c2ccccc2S(=O)(=O)[N-]C(=O)/N=c2/[n-]ccs2)cc1 (3D coordinates assigned)
CCCc1[nH+]c(CC)c(C(=O)Oc2ccccc2)n1Cc1ccc(-c2ccccc2-c2ccccc2S(=O)(=O)[N-]C(=O)/N=c2/[n-]ccs2)cc1 (optimized conformer: 166.00905218903875 kcal/mol)

>  <smiles>  (13) 
CCCc1nc(CC)c(C(=O)Oc2ccccc2)n1Cc1ccc(-c2ccccc2-c2ccccc2S(=O)(=O)NC(=O)N=c2[nH]ccs2)cc1

>  <score_type>  (13) 
oracle

>  <origin>  (13) 
adg

>  <m_score__min__energy>  (13) 
-12.15

>  <m_primary>  (13) 
energy

$$$$
13:0
     RDKit          3D

 46 48  0  0  0  0  0  0  0  0999 V2000
   -2.0830   25.1500  -29.2760 O   0  0  0  0  0  0  0  0  0  0  0  0
   -3.1540   24.6300  -29.6870 C   0  0  0  0  0  0  0  0  0  0  0  0
   -3.5750   23.2860  -29.1520 C   0  0  0  0  0  0  0  0  0  0  0  0
   -2.8780   22.2010  -29.8570 N   0  0  0  0  0  0  0  0  0  0  0  0
   -3.4670   21.5730  -31.0120 C   0  0  0  0  0  0  0  0  0  0  0  0
   -3.1780   22.0490  -32.3040 C   0  0  0  0  0  0  0  0  0  0  0  0
   -3.7270   21.4230  -33.4270 C   0  0  0  0  0  0  0  0  0  0  0  0
   -4.5660   20.3160  -33.2730 C   0  0  0  0  0  0  0  0  0  0  0  0
   -4.8530   19.8300  -31.9960 C   0  0  0  0  0  0  0  0  0  0  0  0
   -4.3050   20.4510  -30.8690 C   0  0  0  0  0  0  0  0  0  0  0  0
   -1.3430   21.6530  -29.2480 S   0  0  0  0  0  0  0  0  0  0  0  0
   -0.4810   21.2230  -30.4030 O   0  0  0  0  0  0  0  0  0  0  0  0
   -0.6460   22.7580  -28.5050 O   0  0  0  0  0  0  0  0  0  0  0  0
   -1.6000   20.3150  -28.1320 C   0  0  0  0  0  0  0  0  0  0  0  0
   -2.7620   20.2460  -27.3490 C   0  0  0  0  0  0  0  0  0  0  0  0
   -2.9450   19.1800  -26.4640 C   0  0  0  0  0  0  0  0  0  0  0  0
   -1.9740   18.1800  -26.3570 C   0  0  0  0  0  0  0  0  0  0  0  0
   -0.8130   18.2480  -27.1320 C   0  0  0  0  0  0  0  0  0  0  0  0
   -0.6240   19.3150  -28.0160 C   0  0  0  0  0  0  0  0  0  0  0  0
   -3.8990   25.3060  -30.7070 N   0  0  0  0  0  0  0  0  0  0  0  0
   -5.3160   25.6320  -30.6180 C   0  0  0  0  0  0  0  0  0  0  0  0
   -6.1270   24.3920  -30.8570 C   0  0  0  0  0  0  0  0  0  0  0  0
   -6.1610   23.8020  -32.1320 C   0  0  0  0  0  0  0  0  0  0  0  0
   -6.8870   22.6250  -32.3430 C   0  0  0  0  0  0  0  0  0  0  0  0
   -7.5740   22.0260  -31.2840 C   0  0  0  0  0  0  0  0  0  0  0  0
   -8.2760   20.8850  -31.4900 F   0  0  0  0  0  0  0  0  0  0  0  0
   -7.5340   22.6010  -30.0090 C   0  0  0  0  0  0  0  0  0  0  0  0
   -6.8080   23.7760  -29.7940 C   0  0  0  0  0  0  0  0  0  0  0  0
   -3.3335   23.2330  -28.0801 H   0  0  0  0  0  0  0  0  0  0  0  0
   -4.6576   23.1685  -29.3073 H   0  0  0  0  0  0  0  0  0  0  0  0
   -2.5164   22.9185  -32.4313 H   0  0  0  0  0  0  0  0  0  0  0  0
   -3.4982   21.8025  -34.4338 H   0  0  0  0  0  0  0  0  0  0  0  0
   -5.0002   19.8276  -34.1578 H   0  0  0  0  0  0  0  0  0  0  0  0
   -5.5114   18.9570  -31.8760 H   0  0  0  0  0  0  0  0  0  0  0  0
   -4.5300   20.0606  -29.8655 H   0  0  0  0  0  0  0  0  0  0  0  0
   -3.5286   21.0305  -27.4316 H   0  0  0  0  0  0  0  0  0  0  0  0
   -3.8560   19.1276  -25.8497 H   0  0  0  0  0  0  0  0  0  0  0  0
   -2.1237   17.3398  -25.6630 H   0  0  0  0  0  0  0  0  0  0  0  0
   -0.0479   17.4623  -27.0467 H   0  0  0  0  0  0  0  0  0  0  0  0
    0.2925   19.3699  -28.6218 H   0  0  0  0  0  0  0  0  0  0  0  0
   -5.5393   26.0296  -29.6170 H   0  0  0  0  0  0  0  0  0  0  0  0
   -5.5680   26.3885  -31.3758 H   0  0  0  0  0  0  0  0  0  0  0  0
   -5.6153   24.2669  -32.9663 H   0  0  0  0  0  0  0  0  0  0  0  0
   -6.9171   22.1704  -33.3442 H   0  0  0  0  0  0  0  0  0  0  0  0
   -8.0741   22.1282  -29.1755 H   0  0  0  0  0  0  0  0  0  0  0  0
   -6.7698   24.2201  -28.7883 H   0  0  0  0  0  0  0  0  0  0  0  0
  1  2  2  0
  2  3  1  0
  3  4  1  0
  4  5  1  0
  5  6  2  0
  6  7  1  0
  7  8  2  0
  8  9  1  0
  9 10  2  0
  4 11  1  0
 11 12  2  0
 11 13  2  0
 11 14  1  0
 14 15  2  0
 15 16  1  0
 16 17  2  0
 17 18  1  0
 18 19  2  0
  2 20  1  0
 20 21  1  0
 21 22  1  0
 22 23  2  0
 23 24  1  0
 24 25  2  0
 25 26  1  0
 25 27  1  0
 27 28  2  0
 10  5  1  0
 19 14  1  0
 28 22  1  0
  3 29  1  0
  3 30  1  0
  6 31  1  0
  7 32  1  0
  8 33  1  0
  9 34  1  0
 10 35  1  0
 15 36  1  0
 16 37  1  0
 17 38  1  0
 18 39  1  0
 19 40  1  0
 21 41  1  0
 21 42  1  0
 23 43  1  0
 24 44  1  0
 27 45  1  0
 28 46  1  0
M  CHG  1  20  -1
M  END
>  <UniqueID>  (14) 
12

>  <SMILES>  (14) 
O=C(CN(c1ccccc1)S(=O)(=O)c1ccccc1)[N-]Cc1ccc(F)cc1

>  <Energy>  (14) 
50.97473309735766

>  <Genealogy>  (14) 
O=C(CN(c1ccccc1)S(=O)(=O)c1ccccc1)[N-]Cc1ccc(F)cc1 (protonated)
O=C(CN(c1ccccc1)S(=O)(=O)c1ccccc1)[N-]Cc1ccc(F)cc1 (3D coordinates assigned)
O=C(CN(c1ccccc1)S(=O)(=O)c1ccccc1)[N-]Cc1ccc(F)cc1 (optimized conformer: 50.97473309735766 kcal/mol)

>  <smiles>  (14) 
O=C(CN(c1ccccc1)S(=O)(=O)c1ccccc1)NCc1ccc(F)cc1

>  <score_type>  (14) 
oracle

>  <origin>  (14) 
adg

>  <m_score__min__energy>  (14) 
-11.130000000000001

>  <m_primary>  (14) 
energy

$$$$
14:0
     RDKit          3D

 40 42  0  0  0  0  0  0  0  0999 V2000
   -5.3730   26.5090  -30.4760 O   0  0  0  0  0  0  0  0  0  0  0  0
   -4.9140   25.3400  -30.5610 C   0  0  0  0  0  0  0  0  0  0  0  0
   -3.4920   25.1570  -30.4630 N   0  0  0  0  0  0  0  0  0  0  0  0
   -2.7490   24.5720  -29.3480 C   0  0  0  0  0  0  0  0  0  0  0  0
   -2.9800   23.0570  -29.2600 C   0  0  0  0  0  0  0  0  0  0  0  0
   -2.7410   22.4200  -30.5740 N   0  0  0  0  0  0  0  0  0  0  0  0
   -1.2920   22.2760  -30.8240 C   0  0  0  0  0  0  0  0  0  0  0  0
   -1.0250   21.3820  -32.0510 C   0  0  0  0  0  0  0  0  0  0  0  0
   -2.2040   21.1990  -32.8090 O   0  0  0  0  0  0  0  0  0  0  0  0
   -3.1540   20.4730  -32.0470 C   0  0  0  0  0  0  0  0  0  0  0  0
   -3.3920   21.0970  -30.6570 C   0  0  0  0  0  0  0  0  0  0  0  0
   -5.8650   24.2230  -30.7040 C   0  0  0  0  0  0  0  0  0  0  0  0
   -5.7230   23.0910  -31.4830 C   0  0  0  0  0  0  0  0  0  0  0  0
   -6.8800   22.3760  -31.2360 C   0  0  0  0  0  0  0  0  0  0  0  0
   -7.2520   21.0530  -31.7850 C   0  0  0  0  0  0  0  0  0  0  0  0
   -8.4400   20.4320  -31.3600 C   0  0  0  0  0  0  0  0  0  0  0  0
   -8.7980   19.1750  -31.8560 C   0  0  0  0  0  0  0  0  0  0  0  0
   -7.9730   18.5230  -32.7750 C   0  0  0  0  0  0  0  0  0  0  0  0
   -6.7880   19.1260  -33.2010 C   0  0  0  0  0  0  0  0  0  0  0  0
   -5.7460   18.3010  -34.3480 Cl  0  0  0  0  0  0  0  0  0  0  0  0
   -6.4260   20.3860  -32.7110 C   0  0  0  0  0  0  0  0  0  0  0  0
   -7.6280   23.0670  -30.4080 O   0  0  0  0  0  0  0  0  0  0  0  0
   -7.0530   24.1840  -30.0700 N   0  0  0  0  0  0  0  0  0  0  0  0
   -1.6755   24.7633  -29.4927 H   0  0  0  0  0  0  0  0  0  0  0  0
   -3.1031   25.0328  -28.4140 H   0  0  0  0  0  0  0  0  0  0  0  0
   -2.2899   22.6279  -28.5186 H   0  0  0  0  0  0  0  0  0  0  0  0
   -4.0218   22.8725  -28.9590 H   0  0  0  0  0  0  0  0  0  0  0  0
   -0.8581   23.2708  -31.0034 H   0  0  0  0  0  0  0  0  0  0  0  0
   -0.8312   21.8055  -29.9429 H   0  0  0  0  0  0  0  0  0  0  0  0
   -0.2607   21.8574  -32.6833 H   0  0  0  0  0  0  0  0  0  0  0  0
   -0.6771   20.3992  -31.7002 H   0  0  0  0  0  0  0  0  0  0  0  0
   -4.1078   20.4559  -32.5947 H   0  0  0  0  0  0  0  0  0  0  0  0
   -2.7582   19.4578  -31.8960 H   0  0  0  0  0  0  0  0  0  0  0  0
   -4.4732   21.2129  -30.4910 H   0  0  0  0  0  0  0  0  0  0  0  0
   -2.9629   20.4369  -29.8888 H   0  0  0  0  0  0  0  0  0  0  0  0
   -4.8861   22.8219  -32.1443 H   0  0  0  0  0  0  0  0  0  0  0  0
   -9.0916   20.9385  -30.6328 H   0  0  0  0  0  0  0  0  0  0  0  0
   -9.7314   18.6985  -31.5218 H   0  0  0  0  0  0  0  0  0  0  0  0
   -8.2570   17.5338  -33.1635 H   0  0  0  0  0  0  0  0  0  0  0  0
   -5.4921   20.8577  -33.0505 H   0  0  0  0  0  0  0  0  0  0  0  0
  1  2  2  0
  2  3  1  0
  3  4  1  0
  4  5  1  0
  5  6  1  0
  6  7  1  0
  7  8  1  0
  8  9  1  0
  9 10  1  0
 10 11  1  0
  2 12  1  0
 12 13  1  0
 13 14  2  0
 14 15  1  0
 15 16  2  0
 16 17  1  0
 17 18  2  0
 18 19  1  0
 19 20  1  0
 19 21  2  0
 14 22  1  0
 22 23  1  0
 11  6  1  0
 23 12  2  0
 21 15  1  0
  4 24  1  0
  4 25  1  0
  5 26  1  0
  5 27  1  0
  7 28  1  0
  7 29  1  0
  8 30  1  0
  8 31  1  0
 10 32  1  0
 10 33  1  0
 11 34  1  0
 11 35  1  0
 13 36  1  0
 16 37  1  0
 17 38  1  0
 18 39  1  0
 21 40  1  0
M  CHG  1   3  -1
M  END
>  <UniqueID>  (15) 
13

>  <SMILES>  (15) 
O=C([N-]CCN1CCOCC1)c1cc(-c2cccc(Cl)c2)on1

>  <Energy>  (15) 
81.82835558313519

>  <Genealogy>  (15) 
O=C([N-]CCN1CCOCC1)c1cc(-c2cccc(Cl)c2)on1 (protonated)
O=C([N-]CCN1CCOCC1)c1cc(-c2cccc(Cl)c2)on1 (3D coordinates assigned)
O=C([N-]CCN1CCOCC1)c1cc(-c2cccc(Cl)c2)on1 (nonaromatic ring conformer: 81.82835558313519 kcal/mol)

>  <smiles>  (15) 
O=C(NCCN1CCOCC1)c1cc(-c2cccc(Cl)c2)on1

>  <score_type>  (15) 
oracle

>  <origin>  (15) 
adg

>  <m_score__min__energy>  (15) 
-10.34

>  <m_primary>  (15) 
energy

$$$$
15:0
     RDKit          3D

 27 28  0  0  0  0  0  0  0  0999 V2000
   -6.6395   23.3598  -30.5963 H   0  0  0  0  0  0  0  0  0  0  0  0
   -5.6740   23.7510  -30.2430 C   0  0  0  0  0  0  0  0  0  0  0  0
   -5.0560   23.1870  -29.1710 N   0  0  0  0  0  0  0  0  0  0  0  0
   -3.8620   23.6520  -28.7210 C   0  0  0  0  0  0  0  0  0  0  0  0
   -3.3801   23.1867  -27.8485 H   0  0  0  0  0  0  0  0  0  0  0  0
   -3.2480   24.7280  -29.3750 C   0  0  0  0  0  0  0  0  0  0  0  0
   -2.1150   25.1890  -28.9280 N   0  0  0  0  0  0  0  0  0  0  0  0
   -1.5730   25.0160  -27.6070 C   0  0  0  0  0  0  0  0  0  0  0  0
   -1.0580   23.7830  -27.1680 C   0  0  0  0  0  0  0  0  0  0  0  0
   -1.0318   22.9245  -27.8553 H   0  0  0  0  0  0  0  0  0  0  0  0
   -0.5800   23.6440  -25.8640 C   0  0  0  0  0  0  0  0  0  0  0  0
   -0.1668   22.6805  -25.5310 H   0  0  0  0  0  0  0  0  0  0  0  0
   -0.6250   24.7250  -24.9810 C   0  0  0  0  0  0  0  0  0  0  0  0
   -0.2433   24.6102  -23.9558 H   0  0  0  0  0  0  0  0  0  0  0  0
   -1.1550   25.9580  -25.3950 C   0  0  0  0  0  0  0  0  0  0  0  0
   -1.2430   27.0610  -24.4720 N   0  0  0  0  0  0  0  0  0  0  0  0
   -2.2320   27.1830  -24.1490 H   0  0  0  0  0  0  0  0  0  0  0  0
   -0.9440   27.9490  -24.9400 H   0  0  0  0  0  0  0  0  0  0  0  0
   -0.3850   26.8190  -23.3100 C   0  0  0  0  0  0  0  0  0  0  0  0
   -0.9621   26.9818  -22.3878 H   0  0  0  0  0  0  0  0  0  0  0  0
   -0.0180   25.7823  -23.3347 H   0  0  0  0  0  0  0  0  0  0  0  0
    0.4696   27.5111  -23.3347 H   0  0  0  0  0  0  0  0  0  0  0  0
   -1.6470   26.0860  -26.7070 C   0  0  0  0  0  0  0  0  0  0  0  0
   -2.0949   27.0376  -27.0293 H   0  0  0  0  0  0  0  0  0  0  0  0
   -3.8780   25.2960  -30.4410 N   0  0  0  0  0  0  0  0  0  0  0  0
   -5.0720   24.8310  -30.8910 C   0  0  0  0  0  0  0  0  0  0  0  0
   -5.5600   25.3008  -31.7577 H   0  0  0  0  0  0  0  0  0  0  0  0
  1  2  1  0
  2  3  1  0
  3  4  2  0
  4  5  1  0
  4  6  1  0
  6  7  2  0
  7  8  1  0
  8  9  2  0
  9 10  1  0
  9 11  1  0
 11 12  1  0
 11 13  2  0
 13 14  1  0
 13 15  1  0
 15 16  1  0
 16 17  1  0
 16 18  1  0
 16 19  1  0
 19 20  1  0
 19 21  1  0
 19 22  1  0
 15 23  2  0
 23 24  1  0
  6 25  1  0
 25 26  1  0
 26 27  1  0
 26  2  2  0
 23  8  1  0
M  CHG  2  16   1  25  -1
M  END
>  <UniqueID>  (16) 
14

>  <SMILES>  (16) 
C[NH2+]c1cccc(/N=c2/cncc[n-]2)c1

>  <Energy>  (16) 
35.624462352394445

>  <Genealogy>  (16) 
C[NH2+]c1cccc(N=c2cncc[n-]2)c1 (protonated)
C[NH2+]c1cccc(/N=c2/cncc[n-]2)c1 (cis-trans isomerization)
C[NH2+]c1cccc(/N=c2/cncc[n-]2)c1 (3D coordinates assigned)
C[NH2+]c1cccc(/N=c2/cncc[n-]2)c1 (optimized conformer: 35.624462352394445 kcal/mol)

>  <smiles>  (16) 
CNc1cccc(N=c2cncc[nH]2)c1

>  <score_type>  (16) 
oracle

>  <origin>  (16) 
adg

>  <m_score__min__energy>  (16) 
-7.3499999999999996

>  <m_primary>  (16) 
energy

$$$$
16:0
     RDKit          3D

 35 37  0  0  0  0  0  0  0  0999 V2000
   -5.1760   24.5410  -29.0580 C   0  0  0  0  0  0  0  0  0  0  0  0
   -4.4660   23.4470  -28.5610 C   0  0  0  0  0  0  0  0  0  0  0  0
   -3.6360   22.7130  -29.4100 C   0  0  0  0  0  0  0  0  0  0  0  0
   -3.5210   23.0920  -30.7560 C   0  0  0  0  0  0  0  0  0  0  0  0
   -2.6670   22.3000  -31.7030 C   0  0  0  0  0  0  0  0  0  0  0  0
   -3.4350   21.9060  -32.8860 N   0  0  0  0  0  0  0  0  0  0  0  0
   -4.5640   21.0140  -32.8320 C   0  0  0  0  0  0  0  0  0  0  0  0
   -4.4460   19.6440  -33.1220 C   0  0  0  0  0  0  0  0  0  0  0  0
   -5.5330   18.8330  -33.0530 N   0  0  0  0  0  0  0  0  0  0  0  0
   -6.7620   19.2940  -32.7000 C   0  0  0  0  0  0  0  0  0  0  0  0
   -6.9390   20.6670  -32.4240 C   0  0  0  0  0  0  0  0  0  0  0  0
   -5.8240   21.5130  -32.4770 C   0  0  0  0  0  0  0  0  0  0  0  0
   -8.2680   21.2200  -31.9660 C   0  0  0  0  0  0  0  0  0  0  0  0
   -9.4410   20.2990  -32.3190 C   0  0  0  0  0  0  0  0  0  0  0  0
   -9.1270   18.8560  -31.9220 C   0  0  0  0  0  0  0  0  0  0  0  0
   -7.9240   18.3350  -32.7160 C   0  0  0  0  0  0  0  0  0  0  0  0
   -4.2350   24.1550  -31.2190 N   0  0  0  0  0  0  0  0  0  0  0  0
   -5.0480   24.8830  -30.4060 C   0  0  0  0  0  0  0  0  0  0  0  0
   -5.8293   25.1275  -28.3952 H   0  0  0  0  0  0  0  0  0  0  0  0
   -4.5603   23.1637  -27.5023 H   0  0  0  0  0  0  0  0  0  0  0  0
   -3.0775   21.8459  -29.0275 H   0  0  0  0  0  0  0  0  0  0  0  0
   -1.8103   22.9144  -32.0168 H   0  0  0  0  0  0  0  0  0  0  0  0
   -2.3176   21.3921  -31.1895 H   0  0  0  0  0  0  0  0  0  0  0  0
   -3.1560   22.2890  -33.8190 H   0  0  0  0  0  0  0  0  0  0  0  0
   -3.4687   19.2267  -33.4062 H   0  0  0  0  0  0  0  0  0  0  0  0
   -5.9389   22.5804  -32.2374 H   0  0  0  0  0  0  0  0  0  0  0  0
   -8.2382   21.3503  -30.8742 H   0  0  0  0  0  0  0  0  0  0  0  0
   -8.4276   22.1773  -32.4839 H   0  0  0  0  0  0  0  0  0  0  0  0
  -10.3397   20.6351  -31.7811 H   0  0  0  0  0  0  0  0  0  0  0  0
   -9.6115   20.3402  -33.4049 H   0  0  0  0  0  0  0  0  0  0  0  0
   -8.8964   18.8175  -30.8471 H   0  0  0  0  0  0  0  0  0  0  0  0
  -10.0012   18.2260  -32.1430 H   0  0  0  0  0  0  0  0  0  0  0  0
   -7.5990   17.3799  -32.2776 H   0  0  0  0  0  0  0  0  0  0  0  0
   -8.2418   18.2130  -33.7620 H   0  0  0  0  0  0  0  0  0  0  0  0
   -5.6046   25.7412  -30.8107 H   0  0  0  0  0  0  0  0  0  0  0  0
  1  2  2  0
  2  3  1  0
  3  4  2  0
  4  5  1  0
  5  6  1  0
  6  7  1  0
  7  8  2  0
  8  9  1  0
  9 10  2  0
 10 11  1  0
 11 12  2  0
 11 13  1  0
 13 14  1  0
 14 15  1  0
 15 16  1  0
  4 17  1  0
 17 18  2  0
 18  1  1  0
 12  7  1  0
 16 10  1  0
  1 19  1  0
  2 20  1  0
  3 21  1  0
  5 22  1  0
  5 23  1  0
  6 24  1  0
  8 25  1  0
 12 26  1  0
 13 27  1  0
 13 28  1  0
 14 29  1  0
 14 30  1  0
 15 31  1  0
 15 32  1  0
 16 33  1  0
 16 34  1  0
 18 35  1  0
M  END
>  <UniqueID>  (17) 
15

>  <SMILES>  (17) 
c1ccc(CNc2cnc3c(c2)CCCC3)nc1

>  <Energy>  (17) 
35.804165848640515

>  <Genealogy>  (17) 
c1ccc(CNc2cnc3c(c2)CCCC3)nc1 (3D coordinates assigned)
c1ccc(CNc2cnc3c(c2)CCCC3)nc1 (nonaromatic ring conformer: 35.804165848640515 kcal/mol)

>  <smiles>  (17) 
c1ccc(CNc2cnc3c(c2)CCCC3)nc1

>  <score_type>  (17) 
oracle

>  <origin>  (17) 
adg

>  <m_score__min__energy>  (17) 
-7.6399999999999997

>  <m_primary>  (17) 
energy

$$$$
17:0
     RDKit          3D

 32 33  0  0  0  0  0  0  0  0999 V2000
   -5.1740   25.6200  -30.6280 C   0  0  0  0  0  0  0  0  0  0  0  0
   -3.7970   25.2910  -30.4730 O   0  0  0  0  0  0  0  0  0  0  0  0
   -3.2980   24.3860  -29.5240 C   0  0  0  0  0  0  0  0  0  0  0  0
   -3.8700   23.1160  -29.3270 C   0  0  0  0  0  0  0  0  0  0  0  0
   -3.3330   22.2420  -28.3810 C   0  0  0  0  0  0  0  0  0  0  0  0
   -2.2330   22.6270  -27.6140 C   0  0  0  0  0  0  0  0  0  0  0  0
   -1.6640   23.9020  -27.7710 C   0  0  0  0  0  0  0  0  0  0  0  0
   -0.4550   24.2970  -26.9380 C   0  0  0  0  0  0  0  0  0  0  0  0
   -0.5180   25.6480  -26.3280 N   0  0  0  0  0  0  0  0  0  0  0  0
    0.7010   26.0690  -25.6270 C   0  0  0  0  0  0  0  0  0  0  0  0
    0.2890   27.2100  -24.7040 C   0  0  0  0  0  0  0  0  0  0  0  0
   -1.2230   27.0820  -24.5510 C   0  0  0  0  0  0  0  0  0  0  0  0
   -1.6070   25.8550  -25.3670 C   0  0  0  0  0  0  0  0  0  0  0  0
   -2.1920   24.7700  -28.7510 C   0  0  0  0  0  0  0  0  0  0  0  0
   -1.6150   26.0190  -28.9670 O   0  0  0  0  0  0  0  0  0  0  0  0
   -5.6383   25.7309  -29.6370 H   0  0  0  0  0  0  0  0  0  0  0  0
   -5.2649   26.5651  -31.1834 H   0  0  0  0  0  0  0  0  0  0  0  0
   -5.6823   24.8180  -31.1834 H   0  0  0  0  0  0  0  0  0  0  0  0
   -4.7440   22.8107  -29.9210 H   0  0  0  0  0  0  0  0  0  0  0  0
   -3.7784   21.2462  -28.2395 H   0  0  0  0  0  0  0  0  0  0  0  0
   -1.8077   21.9265  -26.8803 H   0  0  0  0  0  0  0  0  0  0  0  0
   -0.3472   23.5625  -26.1262 H   0  0  0  0  0  0  0  0  0  0  0  0
    0.3985   24.3165  -27.6317 H   0  0  0  0  0  0  0  0  0  0  0  0
   -0.6690   26.3250  -27.1160 H   0  0  0  0  0  0  0  0  0  0  0  0
    1.1114   25.2336  -25.0407 H   0  0  0  0  0  0  0  0  0  0  0  0
    1.4803   26.3878  -26.3348 H   0  0  0  0  0  0  0  0  0  0  0  0
    0.7843   27.1123  -23.7267 H   0  0  0  0  0  0  0  0  0  0  0  0
    0.5772   28.1901  -25.1118 H   0  0  0  0  0  0  0  0  0  0  0  0
   -1.4928   26.9416  -23.4939 H   0  0  0  0  0  0  0  0  0  0  0  0
   -1.7480   27.9849  -24.8962 H   0  0  0  0  0  0  0  0  0  0  0  0
   -1.7097   24.9775  -24.7116 H   0  0  0  0  0  0  0  0  0  0  0  0
   -2.5712   25.9973  -25.8770 H   0  0  0  0  0  0  0  0  0  0  0  0
  1  2  1  0
  2  3  1  0
  3  4  2  0
  4  5  1  0
  5  6  2  0
  6  7  1  0
  7  8  1  0
  8  9  1  0
  9 10  1  0
 10 11  1  0
 11 12  1  0
 12 13  1  0
  7 14  2  0
 14 15  1  0
 14  3  1  0
 13  9  1  0
  1 16  1  0
  1 17  1  0
  1 18  1  0
  4 19  1  0
  5 20  1  0
  6 21  1  0
  8 22  1  0
  8 23  1  0
  9 24  1  0
 10 25  1  0
 10 26  1  0
 11 27  1  0
 11 28  1  0
 12 29  1  0
 12 30  1  0
 13 31  1  0
 13 32  1  0
M  CHG  2   9   1  15  -1
M  END
>  <UniqueID>  (18) 
16

>  <SMILES>  (18) 
COc1cccc(C[NH+]2CCCC2)c1[O-]

>  <Energy>  (18) 
38.90019609594401

>  <Genealogy>  (18) 
COc1cccc(C[NH+]2CCCC2)c1[O-] (protonated)
COc1cccc(C[NH+]2CCCC2)c1[O-] (3D coordinates assigned)
COc1cccc(C[NH+]2CCCC2)c1[O-] (nonaromatic ring conformer: 38.90019609594401 kcal/mol)

>  <smiles>  (18) 
COc1cccc(CN2CCCC2)c1O

>  <score_type>  (18) 
oracle

>  <origin>  (18) 
adg

>  <m_score__min__energy>  (18) 
-9.0899999999999999

>  <m_primary>  (18) 
energy

$$$$
18:0
     RDKit          3D

 25 26  0  0  0  0  0  0  0  0999 V2000
   -0.7300   21.4880  -34.0330 C   0  0  0  0  0  0  0  0  0  0  0  0
   -1.5550   20.9120  -33.3710 C   0  0  0  0  0  0  0  0  0  0  0  0
   -2.5610   20.2090  -32.5650 C   0  0  0  0  0  0  0  0  0  0  0  0
   -3.5850   21.1560  -32.0810 N   0  0  0  0  0  0  0  0  0  0  0  0
   -3.1440   22.3190  -31.5090 C   0  0  0  0  0  0  0  0  0  0  0  0
   -4.0320   23.2930  -31.0300 C   0  0  0  0  0  0  0  0  0  0  0  0
   -3.4880   24.5410  -30.4280 C   0  0  0  0  0  0  0  0  0  0  0  0
   -3.8570   25.6740  -30.8350 O   0  0  0  0  0  0  0  0  0  0  0  0
   -2.5540   24.4750  -29.3980 O   0  0  0  0  0  0  0  0  0  0  0  0
   -5.4140   23.0520  -31.1360 C   0  0  0  0  0  0  0  0  0  0  0  0
   -6.2410   23.9120  -30.7220 O   0  0  0  0  0  0  0  0  0  0  0  0
   -5.8760   21.8510  -31.7000 C   0  0  0  0  0  0  0  0  0  0  0  0
   -7.2570   21.5870  -31.8000 C   0  0  0  0  0  0  0  0  0  0  0  0
   -7.7140   20.3870  -32.3450 C   0  0  0  0  0  0  0  0  0  0  0  0
   -9.4370   20.0740  -32.4590 Cl  0  0  0  0  0  0  0  0  0  0  0  0
   -6.8030   19.4350  -32.7930 C   0  0  0  0  0  0  0  0  0  0  0  0
   -5.4310   19.6770  -32.7060 C   0  0  0  0  0  0  0  0  0  0  0  0
   -4.9380   20.8910  -32.1670 C   0  0  0  0  0  0  0  0  0  0  0  0
    0.0235   22.0141  -34.6376 H   0  0  0  0  0  0  0  0  0  0  0  0
   -3.0440   19.4364  -33.1812 H   0  0  0  0  0  0  0  0  0  0  0  0
   -2.0650   19.7460  -31.6992 H   0  0  0  0  0  0  0  0  0  0  0  0
   -2.0615   22.4946  -31.4226 H   0  0  0  0  0  0  0  0  0  0  0  0
   -7.9815   22.3346  -31.4448 H   0  0  0  0  0  0  0  0  0  0  0  0
   -7.1659   18.4874  -33.2177 H   0  0  0  0  0  0  0  0  0  0  0  0
   -4.7224   18.9142  -33.0610 H   0  0  0  0  0  0  0  0  0  0  0  0
  1  2  3  0
  2  3  1  0
  3  4  1  0
  4  5  1  0
  5  6  2  0
  6  7  1  0
  7  8  2  0
  7  9  1  0
  6 10  1  0
 10 11  2  0
 10 12  1  0
 12 13  2  0
 13 14  1  0
 14 15  1  0
 14 16  2  0
 16 17  1  0
 17 18  2  0
 18  4  1  0
 18 12  1  0
  1 19  1  0
  3 20  1  0
  3 21  1  0
  5 22  1  0
 13 23  1  0
 16 24  1  0
 17 25  1  0
M  CHG  1   9  -1
M  END
>  <UniqueID>  (19) 
17

>  <SMILES>  (19) 
C#CCn1cc(C(=O)[O-])c(=O)c2cc(Cl)ccc21

>  <Energy>  (19) 
35.68118485837128

>  <Genealogy>  (19) 
C#CCn1cc(C(=O)[O-])c(=O)c2cc(Cl)ccc21 (protonated)
C#CCn1cc(C(=O)[O-])c(=O)c2cc(Cl)ccc21 (3D coordinates assigned)
C#CCn1cc(C(=O)[O-])c(=O)c2cc(Cl)ccc21 (optimized conformer: 35.68118485837128 kcal/mol)

>  <smiles>  (19) 
C#CCn1cc(C(=O)O)c(=O)c2cc(Cl)ccc21

>  <score_type>  (19) 
oracle

>  <origin>  (19) 
adg

>  <m_score__min__energy>  (19) 
-8.7200000000000006

>  <m_primary>  (19) 
energy

$$$$
19:0
     RDKit          3D

 43 46  0  0  0  0  0  0  0  0999 V2000
   -1.3360   25.7440  -28.9530 N   0  0  0  0  0  0  0  0  0  0  0  0
   -1.5150   24.3520  -29.2020 C   0  0  0  0  0  0  0  0  0  0  0  0
   -0.6370   23.5390  -28.8140 O   0  0  0  0  0  0  0  0  0  0  0  0
   -2.7330   23.8830  -29.8910 C   0  0  0  0  0  0  0  0  0  0  0  0
   -4.2440   24.6070  -29.6860 S   0  0  0  0  0  0  0  0  0  0  0  0
   -5.0680   23.5200  -30.6550 C   0  0  0  0  0  0  0  0  0  0  0  0
   -6.3960   23.5340  -30.9090 N   0  0  0  0  0  0  0  0  0  0  0  0
   -6.9480   22.5980  -31.7340 C   0  0  0  0  0  0  0  0  0  0  0  0
   -6.1220   21.6180  -32.3550 C   0  0  0  0  0  0  0  0  0  0  0  0
   -4.7290   21.5910  -32.0610 C   0  0  0  0  0  0  0  0  0  0  0  0
   -3.8540   20.5910  -32.7020 C   0  0  0  0  0  0  0  0  0  0  0  0
   -4.0100   19.2280  -32.4100 C   0  0  0  0  0  0  0  0  0  0  0  0
   -3.1690   18.2820  -33.0070 C   0  0  0  0  0  0  0  0  0  0  0  0
   -2.1670   18.6950  -33.8900 C   0  0  0  0  0  0  0  0  0  0  0  0
   -2.0020   20.0530  -34.1780 C   0  0  0  0  0  0  0  0  0  0  0  0
   -2.8420   21.0010  -33.5850 C   0  0  0  0  0  0  0  0  0  0  0  0
   -4.2080   22.5660  -31.1760 C   0  0  0  0  0  0  0  0  0  0  0  0
   -2.8740   22.7600  -30.7280 C   0  0  0  0  0  0  0  0  0  0  0  0
   -1.7780   21.8990  -31.0550 N   0  0  0  0  0  0  0  0  0  0  0  0
   -6.7730   20.6010  -33.2800 C   0  0  0  0  0  0  0  0  0  0  0  0
   -7.6660   19.5930  -32.5320 C   0  0  0  0  0  0  0  0  0  0  0  0
   -9.1020   20.0780  -32.2270 C   0  0  0  0  0  0  0  0  0  0  0  0
   -9.1800   21.3720  -31.3920 C   0  0  0  0  0  0  0  0  0  0  0  0
   -8.4450   22.6050  -31.9710 C   0  0  0  0  0  0  0  0  0  0  0  0
   -1.2330   26.4210  -29.7420 H   0  0  0  0  0  0  0  0  0  0  0  0
   -6.9920   24.2670  -30.4610 H   0  0  0  0  0  0  0  0  0  0  0  0
   -4.7943   18.9022  -31.7109 H   0  0  0  0  0  0  0  0  0  0  0  0
   -3.2965   17.2130  -32.7813 H   0  0  0  0  0  0  0  0  0  0  0  0
   -1.5073   17.9502  -34.3590 H   0  0  0  0  0  0  0  0  0  0  0  0
   -1.2113   20.3760  -34.8712 H   0  0  0  0  0  0  0  0  0  0  0  0
   -2.7097   22.0695  -33.8106 H   0  0  0  0  0  0  0  0  0  0  0  0
   -0.8180   22.0940  -30.7010 H   0  0  0  0  0  0  0  0  0  0  0  0
   -1.9320   21.0060  -31.5710 H   0  0  0  0  0  0  0  0  0  0  0  0
   -7.3906   21.1394  -34.0139 H   0  0  0  0  0  0  0  0  0  0  0  0
   -5.9657   20.0308  -33.7628 H   0  0  0  0  0  0  0  0  0  0  0  0
   -7.7383   18.6830  -33.1458 H   0  0  0  0  0  0  0  0  0  0  0  0
   -7.1871   19.4305  -31.5551 H   0  0  0  0  0  0  0  0  0  0  0  0
   -9.6143   20.2561  -33.1840 H   0  0  0  0  0  0  0  0  0  0  0  0
   -9.5753   19.2893  -31.6237 H   0  0  0  0  0  0  0  0  0  0  0  0
  -10.2420   21.6361  -31.2809 H   0  0  0  0  0  0  0  0  0  0  0  0
   -8.6687   21.1425  -30.4455 H   0  0  0  0  0  0  0  0  0  0  0  0
   -8.6233   22.6359  -33.0560 H   0  0  0  0  0  0  0  0  0  0  0  0
   -8.8454   23.4875  -31.4506 H   0  0  0  0  0  0  0  0  0  0  0  0
  1  2  1  0
  2  3  2  0
  2  4  1  0
  4  5  1  0
  5  6  1  0
  6  7  2  0
  7  8  1  0
  8  9  2  0
  9 10  1  0
 10 11  1  0
 11 12  2  0
 12 13  1  0
 13 14  2  0
 14 15  1  0
 15 16  2  0
 10 17  2  0
 17 18  1  0
 18 19  1  0
  9 20  1  0
 20 21  1  0
 21 22  1  0
 22 23  1  0
 23 24  1  0
 18  4  2  0
 17  6  1  0
 24  8  1  0
 16 11  1  0
  1 25  1  0
  7 26  1  0
 12 27  1  0
 13 28  1  0
 14 29  1  0
 15 30  1  0
 16 31  1  0
 19 32  1  0
 19 33  1  0
 20 34  1  0
 20 35  1  0
 21 36  1  0
 21 37  1  0
 22 38  1  0
 22 39  1  0
 23 40  1  0
 23 41  1  0
 24 42  1  0
 24 43  1  0
M  CHG  2   1  -1   7   1
M  END
>  <UniqueID>  (20) 
18

>  <SMILES>  (20) 
[NH-]C(=O)c1sc2[nH+]c3c(c(-c4ccccc4)c2c1N)CCCCC3

>  <Energy>  (20) 
99.39605602278863

>  <Genealogy>  (20) 
[NH-]C(=O)c1sc2[nH+]c3c(c(-c4ccccc4)c2c1N)CCCCC3 (protonated)
[NH-]C(=O)c1sc2[nH+]c3c(c(-c4ccccc4)c2c1N)CCCCC3 (3D coordinates assigned)
[NH-]C(=O)c1sc2[nH+]c3c(c(-c4ccccc4)c2c1N)CCCCC3 (nonaromatic ring conformer: 99.39605602278863 kcal/mol)

>  <smiles>  (20) 
NC(=O)c1sc2nc3c(c(-c4ccccc4)c2c1N)CCCCC3

>  <score_type>  (20) 
oracle

>  <origin>  (20) 
adg

>  <m_score__min__energy>  (20) 
-8.7699999999999996

>  <m_primary>  (20) 
energy

$$$$
20:0
     RDKit          3D

 52 55  0  0  0  0  0  0  0  0999 V2000
   -4.5900   15.4360  -32.8850 C   0  0  0  0  0  0  0  0  0  0  0  0
   -4.8570   16.5100  -33.7800 O   0  0  0  0  0  0  0  0  0  0  0  0
   -5.5650   17.6730  -33.4390 C   0  0  0  0  0  0  0  0  0  0  0  0
   -6.8270   17.6200  -32.8060 C   0  0  0  0  0  0  0  0  0  0  0  0
   -7.4680   18.8180  -32.4940 C   0  0  0  0  0  0  0  0  0  0  0  0
   -6.9130   20.0340  -32.7890 C   0  0  0  0  0  0  0  0  0  0  0  0
   -5.6700   20.1170  -33.4170 C   0  0  0  0  0  0  0  0  0  0  0  0
   -4.9820   18.9250  -33.7420 C   0  0  0  0  0  0  0  0  0  0  0  0
   -3.7190   18.9410  -34.3520 O   0  0  0  0  0  0  0  0  0  0  0  0
   -2.5830   19.6250  -33.8310 C   0  0  0  0  0  0  0  0  0  0  0  0
   -7.7790   21.1740  -32.3340 C   0  0  2  0  0  0  0  0  0  0  0  0
   -7.0580   21.9830  -31.3480 N   0  0  0  0  0  0  0  0  0  0  0  0
   -6.4730   23.2470  -31.6970 C   0  0  0  0  0  0  0  0  0  0  0  0
   -6.8750   23.8730  -32.7150 O   0  0  0  0  0  0  0  0  0  0  0  0
   -5.3760   23.8050  -30.8920 C   0  0  0  0  0  0  0  0  0  0  0  0
   -4.9620   23.3380  -29.6610 C   0  0  0  0  0  0  0  0  0  0  0  0
   -3.9830   24.2350  -29.2910 C   0  0  0  0  0  0  0  0  0  0  0  0
   -3.2160   24.2390  -28.0000 C   0  0  0  0  0  0  0  0  0  0  0  0
   -1.9920   23.4080  -28.0480 N   0  0  0  0  0  0  0  0  0  0  0  0
   -2.1750   22.0210  -27.5680 C   0  0  0  0  0  0  0  0  0  0  0  0
   -2.5740   21.0370  -28.6980 C   0  0  0  0  0  0  0  0  0  0  0  0
   -2.4980   21.6050  -29.9910 O   0  0  0  0  0  0  0  0  0  0  0  0
   -1.2590   22.2520  -30.1560 C   0  0  0  0  0  0  0  0  0  0  0  0
   -1.2060   23.5260  -29.2980 C   0  0  0  0  0  0  0  0  0  0  0  0
   -3.8420   25.1280  -30.2410 O   0  0  0  0  0  0  0  0  0  0  0  0
   -4.6690   24.9030  -31.2210 N   0  0  0  0  0  0  0  0  0  0  0  0
   -9.0220   20.4860  -31.7030 C   0  0  0  0  0  0  0  0  0  0  0  0
   -8.7360   19.0270  -31.8380 C   0  0  0  0  0  0  0  0  0  0  0  0
   -9.4960   18.1090  -31.4350 O   0  0  0  0  0  0  0  0  0  0  0  0
   -4.6786   15.7922  -31.8480 H   0  0  0  0  0  0  0  0  0  0  0  0
   -5.3142   14.6262  -33.0576 H   0  0  0  0  0  0  0  0  0  0  0  0
   -3.5709   15.0596  -33.0576 H   0  0  0  0  0  0  0  0  0  0  0  0
   -7.2939   16.6538  -32.5644 H   0  0  0  0  0  0  0  0  0  0  0  0
   -5.2309   21.0968  -33.6562 H   0  0  0  0  0  0  0  0  0  0  0  0
   -2.6155   19.6054  -32.7317 H   0  0  0  0  0  0  0  0  0  0  0  0
   -1.6649   19.1294  -34.1795 H   0  0  0  0  0  0  0  0  0  0  0  0
   -2.5915   20.6683  -34.1795 H   0  0  0  0  0  0  0  0  0  0  0  0
   -8.0616   21.8562  -33.1493 H   0  0  0  0  0  0  0  0  0  0  0  0
   -6.7440   21.5180  -30.4650 H   0  0  0  0  0  0  0  0  0  0  0  0
   -5.3262   22.4599  -29.1075 H   0  0  0  0  0  0  0  0  0  0  0  0
   -2.9269   25.2747  -27.7680 H   0  0  0  0  0  0  0  0  0  0  0  0
   -3.8723   23.8112  -27.2278 H   0  0  0  0  0  0  0  0  0  0  0  0
   -1.2306   21.6772  -27.1210 H   0  0  0  0  0  0  0  0  0  0  0  0
   -2.9957   22.0316  -26.8357 H   0  0  0  0  0  0  0  0  0  0  0  0
   -1.8996   20.1689  -28.6585 H   0  0  0  0  0  0  0  0  0  0  0  0
   -3.6239   20.7564  -28.5281 H   0  0  0  0  0  0  0  0  0  0  0  0
   -0.4506   21.5726  -29.8477 H   0  0  0  0  0  0  0  0  0  0  0  0
   -1.1362   22.5269  -31.2140 H   0  0  0  0  0  0  0  0  0  0  0  0
   -0.1573   23.7302  -29.0361 H   0  0  0  0  0  0  0  0  0  0  0  0
   -1.6447   24.3429  -29.8898 H   0  0  0  0  0  0  0  0  0  0  0  0
   -9.1291   20.7670  -30.6449 H   0  0  0  0  0  0  0  0  0  0  0  0
   -9.9621   20.7798  -32.1927 H   0  0  0  0  0  0  0  0  0  0  0  0
  1  2  1  0
  2  3  1  0
  3  4  2  0
  4  5  1  0
  5  6  2  0
  6  7  1  0
  7  8  2  0
  8  9  1  0
  9 10  1  0
  6 11  1  0
 11 12  1  0
 12 13  1  0
 13 14  2  0
 13 15  1  0
 15 16  1  0
 16 17  2  0
 17 18  1  0
 18 19  1  0
 19 20  1  0
 20 21  1  0
 21 22  1  0
 22 23  1  0
 23 24  1  0
 17 25  1  0
 25 26  1  0
 11 27  1  0
 27 28  1  0
 28 29  2  0
  8  3  1  0
 26 15  2  0
 28  5  1  0
 24 19  1  0
  1 30  1  0
  1 31  1  0
  1 32  1  0
  4 33  1  0
  7 34  1  0
 10 35  1  0
 10 36  1  0
 10 37  1  0
 11 38  1  6
 12 39  1  0
 16 40  1  0
 18 41  1  0
 18 42  1  0
 20 43  1  0
 20 44  1  0
 21 45  1  0
 21 46  1  0
 23 47  1  0
 23 48  1  0
 24 49  1  0
 24 50  1  0
 27 51  1  0
 27 52  1  0
M  END
>  <UniqueID>  (21) 
19

>  <SMILES>  (21) 
COc1cc2c(cc1OC)[C@H](NC(=O)c1cc(CN3CCOCC3)on1)CC2=O

>  <Energy>  (21) 
108.40746961844395

>  <Genealogy>  (21) 
COc1cc2c(cc1OC)[C@H](NC(=O)c1cc(CN3CCOCC3)on1)CC2=O (chirality)
COc1cc2c(cc1OC)[C@H](NC(=O)c1cc(CN3CCOCC3)on1)CC2=O (3D coordinates assigned)
COc1cc2c(cc1OC)[C@H](NC(=O)c1cc(CN3CCOCC3)on1)CC2=O (nonaromatic ring conformer: 108.40746961844395 kcal/mol)

>  <smiles>  (21) 
COc1cc2c(cc1OC)C(NC(=O)c1cc(CN3CCOCC3)on1)CC2=O

>  <score_type>  (21) 
oracle

>  <origin>  (21) 
adg

>  <m_score__min__energy>  (21) 
-10.31

>  <m_primary>  (21) 
energy

$$$$
21:0
     RDKit          3D

 10 10  0  0  0  0  0  0  0  0999 V2000
   -5.4590   25.5550  -31.2410 O   0  0  0  0  0  0  0  0  0  0  0  0
   -4.7380   24.8610  -30.4760 C   0  0  0  0  0  0  0  0  0  0  0  0
   -3.4900   25.2920  -30.1540 N   0  0  0  0  0  0  0  0  0  0  0  0
   -2.6900   24.5640  -29.3330 C   0  0  0  0  0  0  0  0  0  0  0  0
   -1.1950   25.1050  -28.9620 S   0  0  0  0  0  0  0  0  0  0  0  0
   -3.1330   23.3870  -28.8190 N   0  0  0  0  0  0  0  0  0  0  0  0
   -4.3730   22.9190  -29.1140 C   0  0  0  0  0  0  0  0  0  0  0  0
   -5.2120   23.6510  -29.9560 C   0  0  0  0  0  0  0  0  0  0  0  0
   -6.8180   23.0510  -30.3430 Cl  0  0  0  0  0  0  0  0  0  0  0  0
   -4.7162   21.9638  -28.6898 H   0  0  0  0  0  0  0  0  0  0  0  0
  1  2  2  0
  2  3  1  0
  3  4  1  0
  4  5  2  0
  4  6  1  0
  6  7  1  0
  7  8  2  0
  8  9  1  0
  8  2  1  0
  7 10  1  0
M  CHG  2   3  -1   6  -1
M  END
>  <UniqueID>  (22) 
20

>  <SMILES>  (22) 
O=c1[n-]c(=S)[n-]cc1Cl

>  <Energy>  (22) 
10.234915640505724

>  <Genealogy>  (22) 
O=c1[n-]c(=S)[n-]cc1Cl (protonated)
O=c1[n-]c(=S)[n-]cc1Cl (3D coordinates assigned)
O=c1[n-]c(=S)[n-]cc1Cl (optimized conformer: 10.234915640505724 kcal/mol)

>  <smiles>  (22) 
O=c1[nH]c(=S)[nH]cc1Cl

>  <score_type>  (22) 
oracle

>  <origin>  (22) 
adg

>  <m_score__min__energy>  (22) 
-6.5499999999999998

>  <m_primary>  (22) 
energy

$$$$
22:0
     RDKit          3D

 50 54  0  0  0  0  0  0  0  0999 V2000
  -10.8336   20.7801  -31.8230 H   0  0  0  0  0  0  0  0  0  0  0  0
   -9.8090   21.1620  -31.9430 C   0  0  0  0  0  0  0  0  0  0  0  0
   -9.5200   22.4480  -31.6080 N   0  0  0  0  0  0  0  0  0  0  0  0
   -8.2630   22.9520  -31.7290 C   0  0  0  0  0  0  0  0  0  0  0  0
   -8.0656   24.0015  -31.4653 H   0  0  0  0  0  0  0  0  0  0  0  0
   -7.2190   22.1400  -32.1880 C   0  0  0  0  0  0  0  0  0  0  0  0
   -5.9110   22.7050  -32.3700 N   0  0  0  0  0  0  0  0  0  0  0  0
   -4.8980   22.6710  -31.5430 C   0  0  0  0  0  0  0  0  0  0  0  0
   -4.3620   23.8500  -30.9820 C   0  0  0  0  0  0  0  0  0  0  0  0
   -4.8040   24.8242  -31.2380 H   0  0  0  0  0  0  0  0  0  0  0  0
   -3.2810   23.7930  -30.1090 C   0  0  0  0  0  0  0  0  0  0  0  0
   -2.7740   24.9230  -29.5700 N   0  0  0  0  0  0  0  0  0  0  0  0
   -1.7210   24.8880  -28.7180 C   0  0  0  0  0  0  0  0  0  0  0  0
   -1.2360   26.0880  -28.1870 C   0  0  0  0  0  0  0  0  0  0  0  0
   -1.7096   27.0406  -28.4670 H   0  0  0  0  0  0  0  0  0  0  0  0
   -0.1560   26.0840  -27.3050 C   0  0  0  0  0  0  0  0  0  0  0  0
    0.2192   27.0314  -26.8906 H   0  0  0  0  0  0  0  0  0  0  0  0
    0.4490   24.8780  -26.9480 C   0  0  0  0  0  0  0  0  0  0  0  0
    1.3009   24.8780  -26.2521 H   0  0  0  0  0  0  0  0  0  0  0  0
   -0.0220   23.6710  -27.4700 C   0  0  0  0  0  0  0  0  0  0  0  0
    0.4636   22.7272  -27.1813 H   0  0  0  0  0  0  0  0  0  0  0  0
   -1.1180   23.6490  -28.3670 C   0  0  0  0  0  0  0  0  0  0  0  0
   -1.6020   22.4700  -28.9000 N   0  0  0  0  0  0  0  0  0  0  0  0
   -0.9910   21.2120  -28.5490 C   0  0  0  0  0  0  0  0  0  0  0  0
   -1.4940   20.4590  -27.4800 C   0  0  0  0  0  0  0  0  0  0  0  0
   -2.3612   20.8256  -26.9112 H   0  0  0  0  0  0  0  0  0  0  0  0
   -0.8970   19.2430  -27.1340 C   0  0  0  0  0  0  0  0  0  0  0  0
   -1.3024   18.6510  -26.3002 H   0  0  0  0  0  0  0  0  0  0  0  0
    0.2180   18.7750  -27.8470 C   0  0  0  0  0  0  0  0  0  0  0  0
    0.8340   17.4520  -27.5020 C   0  0  0  0  0  0  0  0  0  0  0  0
    0.8839   17.3448  -26.4084 H   0  0  0  0  0  0  0  0  0  0  0  0
    0.2208   16.6413  -27.9223 H   0  0  0  0  0  0  0  0  0  0  0  0
    1.8492   17.3995  -27.9223 H   0  0  0  0  0  0  0  0  0  0  0  0
    0.7090   19.5230  -28.9290 C   0  0  0  0  0  0  0  0  0  0  0  0
    1.5675   19.1506  -29.5072 H   0  0  0  0  0  0  0  0  0  0  0  0
    0.1120   20.7390  -29.2750 C   0  0  0  0  0  0  0  0  0  0  0  0
    0.5077   21.3253  -30.1174 H   0  0  0  0  0  0  0  0  0  0  0  0
   -2.6700   22.4950  -29.7670 C   0  0  0  0  0  0  0  0  0  0  0  0
   -3.2090   21.3390  -30.3630 C   0  0  0  0  0  0  0  0  0  0  0  0
   -2.7672   20.3575  -30.1360 H   0  0  0  0  0  0  0  0  0  0  0  0
   -4.3080   21.4180  -31.2480 C   0  0  0  0  0  0  0  0  0  0  0  0
   -4.8100   20.3470  -31.8050 N   0  0  0  0  0  0  0  0  0  0  0  0
   -4.3750   19.7250  -33.0530 C   0  0  0  0  0  0  0  0  0  0  0  0
   -3.7580   18.8427  -32.8274 H   0  0  0  0  0  0  0  0  0  0  0  0
   -5.2557   19.4172  -33.6357 H   0  0  0  0  0  0  0  0  0  0  0  0
   -3.7837   20.4467  -33.6357 H   0  0  0  0  0  0  0  0  0  0  0  0
   -7.5090   20.8220  -32.5740 C   0  0  0  0  0  0  0  0  0  0  0  0
   -6.7143   20.1805  -32.9825 H   0  0  0  0  0  0  0  0  0  0  0  0
   -8.8070   20.3260  -32.4390 C   0  0  0  0  0  0  0  0  0  0  0  0
   -9.0377   19.2879  -32.7203 H   0  0  0  0  0  0  0  0  0  0  0  0
  1  2  1  0
  2  3  2  0
  3  4  1  0
  4  5  1  0
  4  6  2  0
  6  7  1  0
  7  8  2  0
  8  9  1  0
  9 10  1  0
  9 11  2  0
 11 12  1  0
 12 13  1  0
 13 14  2  0
 14 15  1  0
 14 16  1  0
 16 17  1  0
 16 18  2  0
 18 19  1  0
 18 20  1  0
 20 21  1  0
 20 22  2  0
 22 23  1  0
 23 24  1  0
 24 25  2  0
 25 26  1  0
 25 27  1  0
 27 28  1  0
 27 29  2  0
 29 30  1  0
 30 31  1  0
 30 32  1  0
 30 33  1  0
 29 34  1  0
 34 35  1  0
 34 36  2  0
 36 37  1  0
 23 38  1  0
 38 39  2  0
 39 40  1  0
 39 41  1  0
 41 42  2  0
 42 43  1  0
 43 44  1  0
 43 45  1  0
 43 46  1  0
  6 47  1  0
 47 48  1  0
 47 49  2  0
 49 50  1  0
 49  2  1  0
 41  8  1  0
 38 11  1  0
 22 13  1  0
 36 24  1  0
M  CHG  1  12  -1
M  END
>  <UniqueID>  (23) 
21

>  <SMILES>  (23) 
C/N=c1\cc2n(-c3ccc(C)cc3)c3ccccc3[n-]c-2c\c1=N/c1cccnc1

>  <Energy>  (23) 
86.50965889849085

>  <Genealogy>  (23) 
CN=c1cc2n(-c3ccc(C)cc3)c3ccccc3[n-]c-2cc1=Nc1cccnc1 (protonated)
C/N=c1\cc2n(-c3ccc(C)cc3)c3ccccc3[n-]c-2c\c1=N/c1cccnc1 (cis-trans isomerization)
C/N=c1\cc2n(-c3ccc(C)cc3)c3ccccc3[n-]c-2c\c1=N/c1cccnc1 (3D coordinates assigned)
C/N=c1\cc2n(-c3ccc(C)cc3)c3ccccc3[n-]c-2c\c1=N/c1cccnc1 (optimized conformer: 86.50965889849085 kcal/mol)

>  <smiles>  (23) 
CN=c1cc2n(-c3ccc(C)cc3)c3ccccc3[nH]c-2cc1=Nc1cccnc1

>  <score_type>  (23) 
oracle

>  <origin>  (23) 
adg

>  <m_score__min__energy>  (23) 
-10.09

>  <m_primary>  (23) 
energy

$$$$
23:0
     RDKit          3D

 48 53  0  0  0  0  0  0  0  0999 V2000
   -2.1190   21.8860  -32.8010 O   0  0  0  0  0  0  0  0  0  0  0  0
   -2.6310   20.9600  -31.7330 S   0  0  0  0  0  0  0  0  0  0  0  0
   -1.9100   19.6460  -31.8540 O   0  0  0  0  0  0  0  0  0  0  0  0
   -2.3260   21.6990  -30.1630 C   0  0  0  0  0  0  0  0  0  0  0  0
   -2.7420   21.0670  -28.9810 C   0  0  0  0  0  0  0  0  0  0  0  0
   -2.5040   21.6710  -27.7410 C   0  0  0  0  0  0  0  0  0  0  0  0
   -1.8520   22.9060  -27.6770 C   0  0  0  0  0  0  0  0  0  0  0  0
   -1.6200   23.4900  -26.4740 F   0  0  0  0  0  0  0  0  0  0  0  0
   -1.4320   23.5360  -28.8510 C   0  0  0  0  0  0  0  0  0  0  0  0
   -1.6670   22.9360  -30.0910 C   0  0  0  0  0  0  0  0  0  0  0  0
   -4.3430   20.6930  -31.9340 N   0  0  0  0  0  0  0  0  0  0  0  0
   -4.7320   19.4030  -32.5320 C   0  0  0  0  0  0  0  0  0  0  0  0
   -6.2160   19.1920  -32.5390 C   0  0  0  0  0  0  0  0  0  0  0  0
   -6.9400   18.0450  -32.8260 C   0  0  0  0  0  0  0  0  0  0  0  0
   -6.4370   16.7090  -33.1970 C   0  0  0  0  0  0  0  0  0  0  0  0
   -6.8630   16.0440  -34.2890 N   0  0  0  0  0  0  0  0  0  0  0  0
   -6.1860   14.9330  -34.3010 O   0  0  0  0  0  0  0  0  0  0  0  0
   -5.3690   14.8940  -33.2760 C   0  0  0  0  0  0  0  0  0  0  0  0
   -4.4340   13.7450  -33.0130 C   0  0  0  0  0  0  0  0  0  0  0  0
   -4.1930   13.3770  -31.5550 C   0  0  0  0  0  0  0  0  0  0  0  0
   -3.1200   14.1180  -32.3430 C   0  0  0  0  0  0  0  0  0  0  0  0
   -5.4870   16.0150  -32.5370 N   0  0  0  0  0  0  0  0  0  0  0  0
   -8.2560   18.3060  -32.6750 N   0  0  0  0  0  0  0  0  0  0  0  0
   -8.3080   19.6060  -32.3150 C   0  0  0  0  0  0  0  0  0  0  0  0
   -7.0820   20.1620  -32.2290 N   0  0  0  0  0  0  0  0  0  0  0  0
   -6.6910   21.4790  -31.8280 C   0  0  0  0  0  0  0  0  0  0  0  0
   -7.6400   22.4870  -31.5910 C   0  0  0  0  0  0  0  0  0  0  0  0
   -7.2300   23.7550  -31.1810 C   0  0  0  0  0  0  0  0  0  0  0  0
   -5.8760   24.0280  -30.9990 C   0  0  0  0  0  0  0  0  0  0  0  0
   -5.3670   25.6240  -30.4770 Cl  0  0  0  0  0  0  0  0  0  0  0  0
   -4.9230   23.0340  -31.2350 C   0  0  0  0  0  0  0  0  0  0  0  0
   -5.3150   21.7460  -31.6650 C   0  0  0  0  0  0  0  0  0  0  0  0
   -3.2558   20.0956  -29.0291 H   0  0  0  0  0  0  0  0  0  0  0  0
   -2.8303   21.1734  -26.8158 H   0  0  0  0  0  0  0  0  0  0  0  0
   -0.9155   24.5058  -28.7993 H   0  0  0  0  0  0  0  0  0  0  0  0
   -1.3345   23.4347  -31.0133 H   0  0  0  0  0  0  0  0  0  0  0  0
   -4.3674   19.3719  -33.5693 H   0  0  0  0  0  0  0  0  0  0  0  0
   -4.2862   18.6053  -31.9197 H   0  0  0  0  0  0  0  0  0  0  0  0
   -4.7280   13.1817  -33.9109 H   0  0  0  0  0  0  0  0  0  0  0  0
   -4.7467   13.8949  -30.7580 H   0  0  0  0  0  0  0  0  0  0  0  0
   -4.2262   12.4449  -30.9718 H   0  0  0  0  0  0  0  0  0  0  0  0
   -2.8986   15.1710  -32.1146 H   0  0  0  0  0  0  0  0  0  0  0  0
   -2.0569   13.9424  -32.5642 H   0  0  0  0  0  0  0  0  0  0  0  0
   -4.9420   16.2910  -31.6950 H   0  0  0  0  0  0  0  0  0  0  0  0
   -9.2430   20.1497  -32.1147 H   0  0  0  0  0  0  0  0  0  0  0  0
   -8.7105   22.2753  -31.7294 H   0  0  0  0  0  0  0  0  0  0  0  0
   -7.9774   24.5417  -31.0008 H   0  0  0  0  0  0  0  0  0  0  0  0
   -3.8562   23.2562  -31.0845 H   0  0  0  0  0  0  0  0  0  0  0  0
  1  2  2  0
  2  3  2  0
  2  4  1  0
  4  5  2  0
  5  6  1  0
  6  7  2  0
  7  8  1  0
  7  9  1  0
  9 10  2  0
  2 11  1  0
 11 12  1  0
 12 13  1  0
 13 14  2  0
 14 15  1  0
 15 16  2  0
 16 17  1  0
 17 18  1  0
 18 19  1  0
 19 20  1  0
 20 21  1  0
 18 22  2  0
 14 23  1  0
 23 24  2  0
 24 25  1  0
 25 26  1  0
 26 27  2  0
 27 28  1  0
 28 29  2  0
 29 30  1  0
 29 31  1  0
 31 32  2  0
 10  4  1  0
 32 11  1  0
 25 13  1  0
 32 26  1  0
 22 15  1  0
 21 19  1  0
  5 33  1  0
  6 34  1  0
  9 35  1  0
 10 36  1  0
 12 37  1  0
 12 38  1  0
 19 39  1  0
 20 40  1  0
 20 41  1  0
 21 42  1  0
 21 43  1  0
 22 44  1  0
 24 45  1  0
 27 46  1  0
 28 47  1  0
 31 48  1  0
M  CHG  1  22   1
M  END
>  <UniqueID>  (24) 
22

>  <SMILES>  (24) 
O=S(=O)(c1ccc(F)cc1)N1Cc2c(-c3noc(C4CC4)[nH+]3)ncn2-c2ccc(Cl)cc21

>  <Energy>  (24) 
394.71653176535966

>  <Genealogy>  (24) 
O=S(=O)(c1ccc(F)cc1)N1Cc2c(-c3noc(C4CC4)[nH+]3)ncn2-c2ccc(Cl)cc21 (protonated)
O=S(=O)(c1ccc(F)cc1)N1Cc2c(-c3noc(C4CC4)[nH+]3)ncn2-c2ccc(Cl)cc21 (3D coordinates assigned)
O=S(=O)(c1ccc(F)cc1)N1Cc2c(-c3noc(C4CC4)[nH+]3)ncn2-c2ccc(Cl)cc21 (nonaromatic ring conformer: 394.71653176535966 kcal/mol)

>  <smiles>  (24) 
O=S(=O)(c1ccc(F)cc1)N1Cc2c(-c3noc(C4CC4)n3)ncn2-c2ccc(Cl)cc21

>  <score_type>  (24) 
oracle

>  <origin>  (24) 
adg

>  <m_score__min__energy>  (24) 
-9.3499999999999996

>  <m_primary>  (24) 
energy

$$$$
24:0
     RDKit          3D

 37 39  0  0  0  0  0  0  0  0999 V2000
   -5.3920   15.6530  -32.9720 C   0  0  0  0  0  0  0  0  0  0  0  0
   -5.8150   17.0500  -33.1540 N   0  0  0  0  0  0  0  0  0  0  0  0
   -5.9480   17.3790  -34.5810 C   0  0  0  0  0  0  0  0  0  0  0  0
   -7.0270   17.3880  -32.3730 C   0  0  0  0  0  0  0  0  0  0  0  0
   -7.3030   18.8760  -32.2810 C   0  0  0  0  0  0  0  0  0  0  0  0
   -8.6020   19.3390  -32.0140 C   0  0  0  0  0  0  0  0  0  0  0  0
   -8.8570   20.7090  -31.9180 C   0  0  0  0  0  0  0  0  0  0  0  0
   -7.8210   21.6290  -32.0990 C   0  0  0  0  0  0  0  0  0  0  0  0
   -6.5090   21.1840  -32.3480 C   0  0  0  0  0  0  0  0  0  0  0  0
   -6.2620   19.8040  -32.4490 C   0  0  0  0  0  0  0  0  0  0  0  0
   -5.4260   22.1400  -32.3400 N   0  0  0  0  0  0  0  0  0  0  0  0
   -4.2010   21.8920  -33.1060 C   0  0  0  0  0  0  0  0  0  0  0  0
   -5.5000   23.2310  -31.3960 C   0  0  0  0  0  0  0  0  0  0  0  0
   -4.3700   23.6440  -30.6670 C   0  0  0  0  0  0  0  0  0  0  0  0
   -4.4980   24.5890  -29.6440 C   0  0  0  0  0  0  0  0  0  0  0  0
   -5.7520   25.1200  -29.3310 C   0  0  0  0  0  0  0  0  0  0  0  0
   -6.8800   24.7220  -30.0530 C   0  0  0  0  0  0  0  0  0  0  0  0
   -6.7540   23.7950  -31.0920 C   0  0  0  0  0  0  0  0  0  0  0  0
   -8.1740   23.3880  -32.1120 S   0  0  0  0  0  0  0  0  0  0  0  0
   -5.3237   15.4276  -31.8975 H   0  0  0  0  0  0  0  0  0  0  0  0
   -6.1276   14.9831  -33.4412 H   0  0  0  0  0  0  0  0  0  0  0  0
   -4.4084   15.5036  -33.4412 H   0  0  0  0  0  0  0  0  0  0  0  0
   -6.3584   18.3941  -34.6865 H   0  0  0  0  0  0  0  0  0  0  0  0
   -4.9599   17.3311  -35.0620 H   0  0  0  0  0  0  0  0  0  0  0  0
   -6.6252   16.6579  -35.0620 H   0  0  0  0  0  0  0  0  0  0  0  0
   -7.8923   16.9040  -32.8495 H   0  0  0  0  0  0  0  0  0  0  0  0
   -6.8557   17.0308  -31.3468 H   0  0  0  0  0  0  0  0  0  0  0  0
   -9.4227   18.6190  -31.8798 H   0  0  0  0  0  0  0  0  0  0  0  0
   -9.8749   21.0642  -31.6996 H   0  0  0  0  0  0  0  0  0  0  0  0
   -5.2434   19.4472  -32.6617 H   0  0  0  0  0  0  0  0  0  0  0  0
   -3.3634   21.7224  -32.4134 H   0  0  0  0  0  0  0  0  0  0  0  0
   -4.3384   21.0034  -33.7397 H   0  0  0  0  0  0  0  0  0  0  0  0
   -3.9820   22.7640  -33.7397 H   0  0  0  0  0  0  0  0  0  0  0  0
   -3.3818   23.2220  -30.9025 H   0  0  0  0  0  0  0  0  0  0  0  0
   -3.6090   24.9152  -29.0842 H   0  0  0  0  0  0  0  0  0  0  0  0
   -5.8512   25.8518  -28.5157 H   0  0  0  0  0  0  0  0  0  0  0  0
   -7.8674   25.1380  -29.8039 H   0  0  0  0  0  0  0  0  0  0  0  0
  1  2  1  0
  2  3  1  0
  2  4  1  0
  4  5  1  0
  5  6  2  0
  6  7  1  0
  7  8  2  0
  8  9  1  0
  9 10  2  0
  9 11  1  0
 11 12  1  0
 11 13  1  0
 13 14  2  0
 14 15  1  0
 15 16  2  0
 16 17  1  0
 17 18  2  0
 18 19  1  0
 10  5  1  0
 18 13  1  0
 19  8  1  0
  1 20  1  0
  1 21  1  0
  1 22  1  0
  3 23  1  0
  3 24  1  0
  3 25  1  0
  4 26  1  0
  4 27  1  0
  6 28  1  0
  7 29  1  0
 10 30  1  0
 12 31  1  0
 12 32  1  0
 12 33  1  0
 14 34  1  0
 15 35  1  0
 16 36  1  0
 17 37  1  0
M  END
>  <UniqueID>  (25) 
23

>  <SMILES>  (25) 
CN(C)Cc1ccc2c(c1)N(C)c1ccccc1S2

>  <Energy>  (25) 
57.05776601812008

>  <Genealogy>  (25) 
CN(C)Cc1ccc2c(c1)N(C)c1ccccc1S2 (3D coordinates assigned)
CN(C)Cc1ccc2c(c1)N(C)c1ccccc1S2 (nonaromatic ring conformer: 57.05776601812008 kcal/mol)

>  <smiles>  (25) 
CN(C)Cc1ccc2c(c1)N(C)c1ccccc1S2

>  <score_type>  (25) 
oracle

>  <origin>  (25) 
adg

>  <m_score__min__energy>  (25) 
-8

>  <m_primary>  (25) 
energy

$$$$
25:0
     RDKit          3D

 30 31  0  0  0  0  0  0  0  0999 V2000
   -4.4700   24.1840  -28.4280 C   0  0  0  0  0  0  0  0  0  0  0  0
   -5.0520   24.6590  -30.0390 S   0  0  0  0  0  0  0  0  0  0  0  0
   -3.9130   25.2290  -30.8380 O   0  0  0  0  0  0  0  0  0  0  0  0
   -6.1170   25.7110  -29.8990 O   0  0  0  0  0  0  0  0  0  0  0  0
   -5.7100   23.2480  -30.8620 C   0  0  0  0  0  0  0  0  0  0  0  0
   -4.8670   22.1970  -31.2400 C   0  0  0  0  0  0  0  0  0  0  0  0
   -5.3900   21.0700  -31.8800 C   0  0  0  0  0  0  0  0  0  0  0  0
   -6.7700   20.9720  -32.1410 C   0  0  0  0  0  0  0  0  0  0  0  0
   -7.3370   19.7850  -32.8300 C   0  0  0  0  0  0  0  0  0  0  0  0
   -8.5890   19.6600  -32.9110 O   0  0  0  0  0  0  0  0  0  0  0  0
   -6.4740   18.7250  -33.4020 C   0  0  0  0  0  0  0  0  0  0  0  0
   -6.0810   18.8070  -34.7510 C   0  0  0  0  0  0  0  0  0  0  0  0
   -5.2490   17.8330  -35.3080 C   0  0  0  0  0  0  0  0  0  0  0  0
   -4.7950   16.7690  -34.5270 C   0  0  0  0  0  0  0  0  0  0  0  0
   -5.1730   16.6770  -33.1860 C   0  0  0  0  0  0  0  0  0  0  0  0
   -6.0060   17.6470  -32.6160 C   0  0  0  0  0  0  0  0  0  0  0  0
   -6.4850   17.4470  -30.9330 Cl  0  0  0  0  0  0  0  0  0  0  0  0
   -7.6080   22.0340  -31.7620 C   0  0  0  0  0  0  0  0  0  0  0  0
   -7.0830   23.1610  -31.1210 C   0  0  0  0  0  0  0  0  0  0  0  0
   -5.0781   24.6803  -27.6574 H   0  0  0  0  0  0  0  0  0  0  0  0
   -4.5537   23.0930  -28.3148 H   0  0  0  0  0  0  0  0  0  0  0  0
   -3.4180   24.4847  -28.3148 H   0  0  0  0  0  0  0  0  0  0  0  0
   -3.7885   22.2581  -31.0326 H   0  0  0  0  0  0  0  0  0  0  0  0
   -4.7181   20.2531  -32.1822 H   0  0  0  0  0  0  0  0  0  0  0  0
   -6.4318   19.6447  -35.3716 H   0  0  0  0  0  0  0  0  0  0  0  0
   -4.9510   17.9047  -36.3644 H   0  0  0  0  0  0  0  0  0  0  0  0
   -4.1397   16.0033  -34.9677 H   0  0  0  0  0  0  0  0  0  0  0  0
   -4.8139   15.8369  -32.5735 H   0  0  0  0  0  0  0  0  0  0  0  0
   -8.6865   21.9788  -31.9712 H   0  0  0  0  0  0  0  0  0  0  0  0
   -7.7510   23.9813  -30.8195 H   0  0  0  0  0  0  0  0  0  0  0  0
  1  2  1  0
  2  3  2  0
  2  4  2  0
  2  5  1  0
  5  6  2  0
  6  7  1  0
  7  8  2  0
  8  9  1  0
  9 10  2  0
  9 11  1  0
 11 12  2  0
 12 13  1  0
 13 14  2  0
 14 15  1  0
 15 16  2  0
 16 17  1  0
  8 18  1  0
 18 19  2  0
 19  5  1  0
 16 11  1  0
  1 20  1  0
  1 21  1  0
  1 22  1  0
  6 23  1  0
  7 24  1  0
 12 25  1  0
 13 26  1  0
 14 27  1  0
 15 28  1  0
 18 29  1  0
 19 30  1  0
M  END
>  <UniqueID>  (26) 
24

>  <SMILES>  (26) 
CS(=O)(=O)c1ccc(C(=O)c2ccccc2Cl)cc1

>  <Energy>  (26) 
36.22125379387342

>  <Genealogy>  (26) 
CS(=O)(=O)c1ccc(C(=O)c2ccccc2Cl)cc1 (3D coordinates assigned)
CS(=O)(=O)c1ccc(C(=O)c2ccccc2Cl)cc1 (optimized conformer: 36.22125379387342 kcal/mol)

>  <smiles>  (26) 
CS(=O)(=O)c1ccc(C(=O)c2ccccc2Cl)cc1

>  <score_type>  (26) 
oracle

>  <origin>  (26) 
adg

>  <m_score__min__energy>  (26) 
-8.5500000000000007

>  <m_primary>  (26) 
energy

$$$$
26:0
     RDKit          3D

 42 44  0  0  0  0  0  0  0  0999 V2000
   -5.9060   19.2990  -33.8330 C   0  0  0  0  0  0  0  0  0  0  0  0
   -4.9870   19.6370  -32.8190 O   0  0  0  0  0  0  0  0  0  0  0  0
   -3.6970   19.9810  -33.2010 C   0  0  0  0  0  0  0  0  0  0  0  0
   -3.2060   21.2560  -32.9990 C   0  0  0  0  0  0  0  0  0  0  0  0
   -1.9150   21.5180  -33.4080 C   0  0  0  0  0  0  0  0  0  0  0  0
   -1.1270   20.5640  -33.9940 C   0  0  0  0  0  0  0  0  0  0  0  0
    0.2480   20.9480  -34.3970 C   0  0  0  0  0  0  0  0  0  0  0  0
    0.3530   21.3500  -35.8290 C   0  0  0  0  0  0  0  0  0  0  0  0
    0.0630   22.7570  -36.0520 N   0  0  0  0  0  0  0  0  0  0  0  0
    0.9920   23.7930  -35.7420 C   0  0  0  0  0  0  0  0  0  0  0  0
    2.1410   23.5400  -35.2460 O   0  0  0  0  0  0  0  0  0  0  0  0
    0.6250   25.2020  -35.9980 C   0  0  0  0  0  0  0  0  0  0  0  0
   -0.2110   25.6420  -36.9370 N   0  0  0  0  0  0  0  0  0  0  0  0
   -0.2790   26.9850  -36.8460 C   0  0  0  0  0  0  0  0  0  0  0  0
   -0.9890   27.9240  -37.5710 C   0  0  0  0  0  0  0  0  0  0  0  0
   -1.8830   27.4910  -38.6940 C   0  0  0  0  0  0  0  0  0  0  0  0
   -0.8570   29.2680  -37.2400 C   0  0  0  0  0  0  0  0  0  0  0  0
   -0.0350   29.6720  -36.2060 C   0  0  0  0  0  0  0  0  0  0  0  0
    0.6740   28.7430  -35.4820 C   0  0  0  0  0  0  0  0  0  0  0  0
    0.5430   27.4060  -35.8100 C   0  0  0  0  0  0  0  0  0  0  0  0
    1.0820   26.2660  -35.3140 N   0  0  0  0  0  0  0  0  0  0  0  0
   -1.6150   19.2880  -34.1980 C   0  0  0  0  0  0  0  0  0  0  0  0
   -2.9130   19.0080  -33.7930 C   0  0  0  0  0  0  0  0  0  0  0  0
   -6.8452   18.9536  -33.3763 H   0  0  0  0  0  0  0  0  0  0  0  0
   -6.1050   20.1828  -34.4570 H   0  0  0  0  0  0  0  0  0  0  0  0
   -5.4849   18.4969  -34.4570 H   0  0  0  0  0  0  0  0  0  0  0  0
   -3.8231   22.0355  -32.5283 H   0  0  0  0  0  0  0  0  0  0  0  0
   -1.5047   22.5276  -33.2583 H   0  0  0  0  0  0  0  0  0  0  0  0
    0.5714   21.7938  -33.7724 H   0  0  0  0  0  0  0  0  0  0  0  0
    0.8866   20.0629  -34.2597 H   0  0  0  0  0  0  0  0  0  0  0  0
    1.3767   21.1449  -36.1754 H   0  0  0  0  0  0  0  0  0  0  0  0
   -0.3964   20.7695  -36.3871 H   0  0  0  0  0  0  0  0  0  0  0  0
   -0.8620   23.0840  -36.4590 H   0  0  0  0  0  0  0  0  0  0  0  0
   -2.8008   27.0465  -38.2815 H   0  0  0  0  0  0  0  0  0  0  0  0
   -2.1436   28.3627  -39.3122 H   0  0  0  0  0  0  0  0  0  0  0  0
   -1.3606   26.7461  -39.3122 H   0  0  0  0  0  0  0  0  0  0  0  0
   -1.4170   30.0228  -37.8116 H   0  0  0  0  0  0  0  0  0  0  0  0
    0.0526   30.7408  -35.9610 H   0  0  0  0  0  0  0  0  0  0  0  0
    1.3322   29.0568  -34.6584 H   0  0  0  0  0  0  0  0  0  0  0  0
    1.7610   26.2820  -34.5020 H   0  0  0  0  0  0  0  0  0  0  0  0
   -0.9914   18.5139  -34.6691 H   0  0  0  0  0  0  0  0  0  0  0  0
   -3.3232   17.9987  -33.9451 H   0  0  0  0  0  0  0  0  0  0  0  0
  1  2  1  0
  2  3  1  0
  3  4  2  0
  4  5  1  0
  5  6  2  0
  6  7  1  0
  7  8  1  0
  8  9  1  0
  9 10  1  0
 10 11  2  0
 10 12  1  0
 12 13  2  0
 13 14  1  0
 14 15  2  0
 15 16  1  0
 15 17  1  0
 17 18  2  0
 18 19  1  0
 19 20  2  0
 20 21  1  0
  6 22  1  0
 22 23  2  0
 23  3  1  0
 21 12  1  0
 20 14  1  0
  1 24  1  0
  1 25  1  0
  1 26  1  0
  4 27  1  0
  5 28  1  0
  7 29  1  0
  7 30  1  0
  8 31  1  0
  8 32  1  0
  9 33  1  0
 16 34  1  0
 16 35  1  0
 16 36  1  0
 17 37  1  0
 18 38  1  0
 19 39  1  0
 21 40  1  0
 22 41  1  0
 23 42  1  0
M  END
>  <smiles>  (27) 
COc1ccc(CCNC(=O)c2nc3c(C)cccc3[nH]2)cc1

>  <score_type>  (27) 
oracle

>  <origin>  (27) 
adg

>  <m_score__min__energy>  (27) 
-8.4399999999999995

>  <m_primary>  (27) 
energy

$$$$
27:0
     RDKit          3D

 25 27  0  0  0  0  0  0  0  0999 V2000
   -7.2160   21.5570  -32.3990 C   0  0  0  0  0  0  0  0  0  0  0  0
   -5.8790   21.3670  -32.7180 C   0  0  0  0  0  0  0  0  0  0  0  0
   -4.9780   22.5480  -31.9310 S   0  0  0  0  0  0  0  0  0  0  0  0
   -6.2790   23.3200  -31.1950 C   0  0  0  0  0  0  0  0  0  0  0  0
   -6.1560   24.4790  -30.2430 C   0  0  2  0  0  0  0  0  0  0  0  0
   -5.2390   25.5740  -30.8230 C   0  0  0  0  0  0  0  0  0  0  0  0
   -3.8640   25.2030  -30.7050 O   0  0  0  0  0  0  0  0  0  0  0  0
   -3.3890   24.5570  -29.5610 C   0  0  0  0  0  0  0  0  0  0  0  0
   -2.0160   24.4670  -29.3070 C   0  0  0  0  0  0  0  0  0  0  0  0
   -1.5630   23.8330  -28.1440 C   0  0  0  0  0  0  0  0  0  0  0  0
   -2.4820   23.2870  -27.2390 C   0  0  0  0  0  0  0  0  0  0  0  0
   -3.8560   23.3640  -27.5010 C   0  0  0  0  0  0  0  0  0  0  0  0
   -4.3070   23.9870  -28.6690 C   0  0  0  0  0  0  0  0  0  0  0  0
   -5.6730   24.0370  -28.9680 O   0  0  0  0  0  0  0  0  0  0  0  0
   -7.4440   22.6420  -31.5420 C   0  0  0  0  0  0  0  0  0  0  0  0
   -8.0224   20.9152  -32.7833 H   0  0  0  0  0  0  0  0  0  0  0  0
   -5.4779   20.5795  -33.3729 H   0  0  0  0  0  0  0  0  0  0  0  0
   -7.1571   24.9126  -30.1025 H   0  0  0  0  0  0  0  0  0  0  0  0
   -5.4822   25.7219  -31.8855 H   0  0  0  0  0  0  0  0  0  0  0  0
   -5.4017   26.5040  -30.2585 H   0  0  0  0  0  0  0  0  0  0  0  0
   -1.2944   24.8933  -30.0194 H   0  0  0  0  0  0  0  0  0  0  0  0
   -0.4842   23.7636  -27.9407 H   0  0  0  0  0  0  0  0  0  0  0  0
   -2.1244   22.7971  -26.3213 H   0  0  0  0  0  0  0  0  0  0  0  0
   -4.5780   22.9357  -26.7902 H   0  0  0  0  0  0  0  0  0  0  0  0
   -8.4424   22.9288  -31.1802 H   0  0  0  0  0  0  0  0  0  0  0  0
  1  2  2  0
  2  3  1  0
  3  4  1  0
  4  5  1  0
  5  6  1  0
  6  7  1  0
  7  8  1  0
  8  9  2  0
  9 10  1  0
 10 11  2  0
 11 12  1  0
 12 13  2  0
 13 14  1  0
  4 15  2  0
 15  1  1  0
 14  5  1  0
 13  8  1  0
  1 16  1  0
  2 17  1  0
  5 18  1  1
  6 19  1  0
  6 20  1  0
  9 21  1  0
 10 22  1  0
 11 23  1  0
 12 24  1  0
 15 25  1  0
M  END
>  <UniqueID>  (28) 
25

>  <SMILES>  (28) 
c1csc([C@@H]2COc3ccccc3O2)c1

>  <Energy>  (28) 
53.963858955924415

>  <Genealogy>  (28) 
c1csc([C@@H]2COc3ccccc3O2)c1 (chirality)
c1csc([C@@H]2COc3ccccc3O2)c1 (3D coordinates assigned)
c1csc([C@@H]2COc3ccccc3O2)c1 (nonaromatic ring conformer: 53.963858955924415 kcal/mol)

>  <smiles>  (28) 
c1csc(C2COc3ccccc3O2)c1

>  <score_type>  (28) 
oracle

>  <origin>  (28) 
adg

>  <m_score__min__energy>  (28) 
-6.0199999999999996

>  <m_primary>  (28) 
energy

$$$$
28:0
     RDKit          3D

 49 52  0  0  0  0  0  0  0  0999 V2000
   -9.5620   21.9060  -30.9410 C   0  0  0  0  0  0  0  0  0  0  0  0
   -8.6560   21.0370  -31.6860 N   0  0  0  0  0  0  0  0  0  0  0  0
   -9.0100   20.0420  -32.5340 C   0  0  0  0  0  0  0  0  0  0  0  0
   -7.8800   19.4390  -33.0760 C   0  0  0  0  0  0  0  0  0  0  0  0
   -6.8100   20.1130  -32.5240 C   0  0  0  0  0  0  0  0  0  0  0  0
   -5.4440   19.9430  -32.7170 C   0  0  0  0  0  0  0  0  0  0  0  0
   -4.5610   20.7900  -32.0150 C   0  0  0  0  0  0  0  0  0  0  0  0
   -3.1480   20.6120  -32.1790 N   0  0  0  0  0  0  0  0  0  0  0  0
   -2.3300   20.1600  -31.0480 C   0  0  0  0  0  0  0  0  0  0  0  0
   -1.1490   21.1150  -30.8300 C   0  0  0  0  0  0  0  0  0  0  0  0
   -0.4450   21.5390  -32.1410 C   0  0  0  0  0  0  0  0  0  0  0  0
   -0.9940   20.8330  -33.3890 C   0  0  0  0  0  0  0  0  0  0  0  0
   -2.5190   20.9680  -33.4590 C   0  0  0  0  0  0  0  0  0  0  0  0
   -5.0720   21.7900  -31.1380 C   0  0  0  0  0  0  0  0  0  0  0  0
   -4.1700   22.6970  -30.4820 N   0  0  0  0  0  0  0  0  0  0  0  0
   -4.1990   24.1200  -30.6650 C   0  0  0  0  0  0  0  0  0  0  0  0
   -5.1640   24.6640  -31.2670 O   0  0  0  0  0  0  0  0  0  0  0  0
   -3.1660   24.9200  -30.0770 N   0  0  0  0  0  0  0  0  0  0  0  0
   -2.2700   24.5190  -29.0300 C   0  0  0  0  0  0  0  0  0  0  0  0
   -2.7320   24.5380  -27.7070 C   0  0  0  0  0  0  0  0  0  0  0  0
   -1.8970   24.1370  -26.6600 C   0  0  0  0  0  0  0  0  0  0  0  0
   -0.5970   23.6990  -26.9280 C   0  0  0  0  0  0  0  0  0  0  0  0
    0.2110   23.3080  -25.9120 F   0  0  0  0  0  0  0  0  0  0  0  0
   -0.1350   23.6530  -28.2470 C   0  0  0  0  0  0  0  0  0  0  0  0
   -0.9680   24.0550  -29.2970 C   0  0  0  0  0  0  0  0  0  0  0  0
   -6.4700   21.9370  -30.9830 C   0  0  0  0  0  0  0  0  0  0  0  0
   -7.3090   21.0730  -31.6870 C   0  0  0  0  0  0  0  0  0  0  0  0
   -9.4076   21.7579  -29.8620 H   0  0  0  0  0  0  0  0  0  0  0  0
   -9.3588   22.9556  -31.1998 H   0  0  0  0  0  0  0  0  0  0  0  0
  -10.6023   21.6593  -31.1998 H   0  0  0  0  0  0  0  0  0  0  0  0
  -10.0461   19.7515  -32.7621 H   0  0  0  0  0  0  0  0  0  0  0  0
   -7.8465   18.6040  -33.7912 H   0  0  0  0  0  0  0  0  0  0  0  0
   -5.0619   19.1689  -33.3987 H   0  0  0  0  0  0  0  0  0  0  0  0
   -2.9493   20.1353  -30.1392 H   0  0  0  0  0  0  0  0  0  0  0  0
   -1.9415   19.1544  -31.2666 H   0  0  0  0  0  0  0  0  0  0  0  0
   -1.5215   22.0196  -30.3271 H   0  0  0  0  0  0  0  0  0  0  0  0
   -0.4056   20.5757  -30.2245 H   0  0  0  0  0  0  0  0  0  0  0  0
   -0.5740   22.6238  -32.2700 H   0  0  0  0  0  0  0  0  0  0  0  0
    0.6127   21.2520  -32.0468 H   0  0  0  0  0  0  0  0  0  0  0  0
   -0.5494   21.2878  -34.2865 H   0  0  0  0  0  0  0  0  0  0  0  0
   -0.7349   19.7653  -33.3349 H   0  0  0  0  0  0  0  0  0  0  0  0
   -2.7752   22.0087  -33.7065 H   0  0  0  0  0  0  0  0  0  0  0  0
   -2.8925   20.2798  -34.2316 H   0  0  0  0  0  0  0  0  0  0  0  0
   -3.4960   22.3140  -29.7820 H   0  0  0  0  0  0  0  0  0  0  0  0
   -3.7581   24.8705  -27.4911 H   0  0  0  0  0  0  0  0  0  0  0  0
   -2.2637   24.1662  -25.6233 H   0  0  0  0  0  0  0  0  0  0  0  0
    0.8850   23.3002  -28.4595 H   0  0  0  0  0  0  0  0  0  0  0  0
   -0.6044   24.0083  -30.3341 H   0  0  0  0  0  0  0  0  0  0  0  0
   -6.8855   22.7133  -30.3237 H   0  0  0  0  0  0  0  0  0  0  0  0
  1  2  1  0
  2  3  1  0
  3  4  2  0
  4  5  1  0
  5  6  2  0
  6  7  1  0
  7  8  1  0
  8  9  1  0
  9 10  1  0
 10 11  1  0
 11 12  1  0
 12 13  1  0
  7 14  2  0
 14 15  1  0
 15 16  1  0
 16 17  2  0
 16 18  1  0
 18 19  1  0
 19 20  2  0
 20 21  1  0
 21 22  2  0
 22 23  1  0
 22 24  1  0
 24 25  2  0
 14 26  1  0
 26 27  2  0
 27  2  1  0
 27  5  1  0
 13  8  1  0
 25 19  1  0
  1 28  1  0
  1 29  1  0
  1 30  1  0
  3 31  1  0
  4 32  1  0
  6 33  1  0
  9 34  1  0
  9 35  1  0
 10 36  1  0
 10 37  1  0
 11 38  1  0
 11 39  1  0
 12 40  1  0
 12 41  1  0
 13 42  1  0
 13 43  1  0
 15 44  1  0
 20 45  1  0
 21 46  1  0
 24 47  1  0
 25 48  1  0
 26 49  1  0
M  CHG  1  18  -1
M  END
>  <UniqueID>  (29) 
26

>  <SMILES>  (29) 
Cn1ccc2cc(N3CCCCC3)c(NC(=O)[N-]c3ccc(F)cc3)cc21

>  <Energy>  (29) 
97.20189884317955

>  <Genealogy>  (29) 
Cn1ccc2cc(N3CCCCC3)c(NC(=O)[N-]c3ccc(F)cc3)cc21 (protonated)
Cn1ccc2cc(N3CCCCC3)c(NC(=O)[N-]c3ccc(F)cc3)cc21 (3D coordinates assigned)
Cn1ccc2cc(N3CCCCC3)c(NC(=O)[N-]c3ccc(F)cc3)cc21 (nonaromatic ring conformer: 97.20189884317955 kcal/mol)

>  <smiles>  (29) 
Cn1ccc2cc(N3CCCCC3)c(NC(=O)Nc3ccc(F)cc3)cc21

>  <score_type>  (29) 
oracle

>  <origin>  (29) 
adg

>  <m_score__min__energy>  (29) 
-9.4499999999999993

>  <m_primary>  (29) 
energy

$$$$
29:0
     RDKit          3D

 53 55  0  0  0  0  0  0  0  0999 V2000
   -5.8680   17.1320  -34.6230 C   0  0  0  0  0  0  0  0  0  0  0  0
   -6.8550   17.2310  -33.4580 C   0  0  0  0  0  0  0  0  0  0  0  0
   -6.1700   17.1730  -32.0790 C   0  0  0  0  0  0  0  0  0  0  0  0
   -5.7440   18.5450  -31.5130 C   0  0  0  0  0  0  0  0  0  0  0  0
   -5.2480   19.5350  -32.5820 C   0  0  0  0  0  0  0  0  0  0  0  0
   -4.8850   20.8820  -32.0090 C   0  0  0  0  0  0  0  0  0  0  0  0
   -3.5810   21.1250  -31.5520 C   0  0  0  0  0  0  0  0  0  0  0  0
   -3.2330   22.3810  -31.0540 C   0  0  0  0  0  0  0  0  0  0  0  0
   -4.1960   23.3980  -31.0170 C   0  0  0  0  0  0  0  0  0  0  0  0
   -3.8770   24.7400  -30.5000 C   0  0  0  0  0  0  0  0  0  0  0  0
   -4.6020   25.7290  -30.7930 O   0  0  0  0  0  0  0  0  0  0  0  0
   -2.7310   24.9170  -29.6620 N   0  0  0  0  0  0  0  0  0  0  0  0
   -2.7050   24.5200  -28.2610 C   0  0  0  0  0  0  0  0  0  0  0  0
   -2.1290   23.1360  -28.1410 C   0  0  0  0  0  0  0  0  0  0  0  0
   -2.9240   22.0750  -27.6710 C   0  0  0  0  0  0  0  0  0  0  0  0
   -2.3900   20.7870  -27.5680 C   0  0  0  0  0  0  0  0  0  0  0  0
   -3.1590   19.7730  -27.0970 F   0  0  0  0  0  0  0  0  0  0  0  0
   -1.0640   20.5460  -27.9350 C   0  0  0  0  0  0  0  0  0  0  0  0
   -0.2700   21.5920  -28.4130 C   0  0  0  0  0  0  0  0  0  0  0  0
   -0.7960   22.8840  -28.5180 C   0  0  0  0  0  0  0  0  0  0  0  0
   -0.0090   23.8870  -28.9850 F   0  0  0  0  0  0  0  0  0  0  0  0
   -5.4550   23.1420  -31.4620 N   0  0  0  0  0  0  0  0  0  0  0  0
   -5.8270   21.9260  -31.9500 C   0  0  0  0  0  0  0  0  0  0  0  0
   -7.1390   21.7110  -32.3900 O   0  0  0  0  0  0  0  0  0  0  0  0
   -8.2910   22.0510  -31.6220 C   0  0  0  0  0  0  0  0  0  0  0  0
   -9.3070   20.9020  -31.6570 C   0  0  0  0  0  0  0  0  0  0  0  0
   -9.0720   19.8550  -32.7350 C   0  0  0  0  0  0  0  0  0  0  0  0
   -8.7480   19.5390  -31.2820 C   0  0  0  0  0  0  0  0  0  0  0  0
   -4.8458   17.0295  -34.2298 H   0  0  0  0  0  0  0  0  0  0  0  0
   -6.1140   16.2540  -35.2383 H   0  0  0  0  0  0  0  0  0  0  0  0
   -5.9347   18.0413  -35.2383 H   0  0  0  0  0  0  0  0  0  0  0  0
   -7.3981   18.1841  -33.5393 H   0  0  0  0  0  0  0  0  0  0  0  0
   -7.5302   16.3652  -33.5256 H   0  0  0  0  0  0  0  0  0  0  0  0
   -6.8703   16.7111  -31.3675 H   0  0  0  0  0  0  0  0  0  0  0  0
   -5.2459   16.5920  -32.2149 H   0  0  0  0  0  0  0  0  0  0  0  0
   -6.6092   18.9923  -31.0018 H   0  0  0  0  0  0  0  0  0  0  0  0
   -4.8995   18.3609  -30.8326 H   0  0  0  0  0  0  0  0  0  0  0  0
   -4.3584   19.1093  -33.0693 H   0  0  0  0  0  0  0  0  0  0  0  0
   -6.0702   19.6900  -33.2961 H   0  0  0  0  0  0  0  0  0  0  0  0
   -2.8299   20.3221  -31.5865 H   0  0  0  0  0  0  0  0  0  0  0  0
   -2.2113   22.5712  -30.6935 H   0  0  0  0  0  0  0  0  0  0  0  0
   -2.0830   25.2263  -27.6916 H   0  0  0  0  0  0  0  0  0  0  0  0
   -3.7292   24.5262  -27.8598 H   0  0  0  0  0  0  0  0  0  0  0  0
   -3.9696   22.2593  -27.3835 H   0  0  0  0  0  0  0  0  0  0  0  0
   -0.6447   19.5328  -27.8478 H   0  0  0  0  0  0  0  0  0  0  0  0
    0.7720   21.3987  -28.7077 H   0  0  0  0  0  0  0  0  0  0  0  0
   -7.9911   22.2397  -30.5806 H   0  0  0  0  0  0  0  0  0  0  0  0
   -8.7538   22.9534  -32.0480 H   0  0  0  0  0  0  0  0  0  0  0  0
  -10.1671   21.5091  -31.3381 H   0  0  0  0  0  0  0  0  0  0  0  0
   -9.9281   19.3691  -33.2260 H   0  0  0  0  0  0  0  0  0  0  0  0
   -8.5122   19.8247  -33.6814 H   0  0  0  0  0  0  0  0  0  0  0  0
   -9.3698   18.8245  -30.7227 H   0  0  0  0  0  0  0  0  0  0  0  0
   -7.8567   19.1853  -30.7430 H   0  0  0  0  0  0  0  0  0  0  0  0
  1  2  1  0
  2  3  1  0
  3  4  1  0
  4  5  1  0
  5  6  1  0
  6  7  2  0
  7  8  1  0
  8  9  2  0
  9 10  1  0
 10 11  2  0
 10 12  1  0
 12 13  1  0
 13 14  1  0
 14 15  2  0
 15 16  1  0
 16 17  1  0
 16 18  2  0
 18 19  1  0
 19 20  2  0
 20 21  1  0
  9 22  1  0
 22 23  2  0
 23 24  1  0
 24 25  1  0
 25 26  1  0
 26 27  1  0
 27 28  1  0
 23  6  1  0
 28 26  1  0
 20 14  1  0
  1 29  1  0
  1 30  1  0
  1 31  1  0
  2 32  1  0
  2 33  1  0
  3 34  1  0
  3 35  1  0
  4 36  1  0
  4 37  1  0
  5 38  1  0
  5 39  1  0
  7 40  1  0
  8 41  1  0
 13 42  1  0
 13 43  1  0
 15 44  1  0
 18 45  1  0
 19 46  1  0
 25 47  1  0
 25 48  1  0
 26 49  1  0
 27 50  1  0
 27 51  1  0
 28 52  1  0
 28 53  1  0
M  CHG  1  12  -1
M  END
>  <UniqueID>  (30) 
27

>  <SMILES>  (30) 
CCCCCc1ccc(C(=O)[N-]Cc2cc(F)ccc2F)nc1OCC1CC1

>  <Energy>  (30) 
305.6731590579396

>  <Genealogy>  (30) 
CCCCCc1ccc(C(=O)[N-]Cc2cc(F)ccc2F)nc1OCC1CC1 (protonated)
CCCCCc1ccc(C(=O)[N-]Cc2cc(F)ccc2F)nc1OCC1CC1 (3D coordinates assigned)
CCCCCc1ccc(C(=O)[N-]Cc2cc(F)ccc2F)nc1OCC1CC1 (nonaromatic ring conformer: 305.6731590579396 kcal/mol)

>  <smiles>  (30) 
CCCCCc1ccc(C(=O)NCc2cc(F)ccc2F)nc1OCC1CC1

>  <score_type>  (30) 
oracle

>  <origin>  (30) 
adg

>  <m_score__min__energy>  (30) 
-10.31

>  <m_primary>  (30) 
energy

$$$$
30:0
     RDKit          3D

 54 57  0  0  0  0  0  0  0  0999 V2000
   -4.0160   20.4540  -32.0280 C   0  0  0  0  0  0  0  0  0  0  0  0
   -5.0100   20.9960  -31.1670 O   0  0  0  0  0  0  0  0  0  0  0  0
   -4.9490   22.3170  -30.7120 C   0  0  0  0  0  0  0  0  0  0  0  0
   -5.8570   23.2640  -31.2340 C   0  0  0  0  0  0  0  0  0  0  0  0
   -6.7990   22.8650  -32.2500 N   0  0  0  0  0  0  0  0  0  0  0  0
   -8.2800   22.0200  -31.9210 S   0  0  0  0  0  0  0  0  0  0  0  0
   -9.4420   22.8730  -32.3460 O   0  0  0  0  0  0  0  0  0  0  0  0
   -8.3770   21.7660  -30.4430 O   0  0  0  0  0  0  0  0  0  0  0  0
   -8.3070   20.5000  -32.7820 N   0  0  0  0  0  0  0  0  0  0  0  0
   -6.9250   20.1000  -33.1330 C   0  0  0  0  0  0  0  0  0  0  0  0
   -6.8400   18.6070  -33.4610 C   0  0  0  0  0  0  0  0  0  0  0  0
   -7.2310   17.7490  -32.2450 C   0  0  0  0  0  0  0  0  0  0  0  0
   -8.1780   18.4840  -31.2790 C   0  0  0  0  0  0  0  0  0  0  0  0
   -9.0770   19.4770  -32.0320 C   0  0  0  0  0  0  0  0  0  0  0  0
   -5.8360   24.5790  -30.7350 C   0  0  0  0  0  0  0  0  0  0  0  0
   -4.9270   24.9470  -29.7420 C   0  0  0  0  0  0  0  0  0  0  0  0
   -4.0160   24.0190  -29.2460 C   0  0  0  0  0  0  0  0  0  0  0  0
   -4.0000   22.7040  -29.7370 C   0  0  0  0  0  0  0  0  0  0  0  0
   -2.9760   21.7670  -29.2210 C   0  0  0  0  0  0  0  0  0  0  0  0
   -3.1610   21.0860  -27.9920 C   0  0  0  0  0  0  0  0  0  0  0  0
   -2.1650   20.2010  -27.5410 C   0  0  0  0  0  0  0  0  0  0  0  0
   -2.3170   19.4510  -26.2480 C   0  0  0  0  0  0  0  0  0  0  0  0
   -1.6040   20.0900  -25.2500 F   0  0  0  0  0  0  0  0  0  0  0  0
   -1.8350   18.1640  -26.4010 F   0  0  0  0  0  0  0  0  0  0  0  0
   -1.0710   20.0330  -28.3290 N   0  0  0  0  0  0  0  0  0  0  0  0
   -0.0330   19.2430  -28.1090 N   0  0  0  0  0  0  0  0  0  0  0  0
    0.7990   19.4040  -29.1660 C   0  0  0  0  0  0  0  0  0  0  0  0
    2.0670   18.6390  -29.3420 C   0  0  0  0  0  0  0  0  0  0  0  0
    0.2630   20.3020  -30.0860 C   0  0  0  0  0  0  0  0  0  0  0  0
   -0.9200   20.6710  -29.4950 C   0  0  0  0  0  0  0  0  0  0  0  0
   -1.8520   21.5330  -29.9630 N   0  0  0  0  0  0  0  0  0  0  0  0
   -3.2086   20.0137  -31.4245 H   0  0  0  0  0  0  0  0  0  0  0  0
   -4.4653   19.6760  -32.6627 H   0  0  0  0  0  0  0  0  0  0  0  0
   -3.6054   21.2531  -32.6627 H   0  0  0  0  0  0  0  0  0  0  0  0
   -6.6290   23.1250  -33.2460 H   0  0  0  0  0  0  0  0  0  0  0  0
   -6.5972   20.6779  -34.0097 H   0  0  0  0  0  0  0  0  0  0  0  0
   -6.2768   20.3010  -32.2673 H   0  0  0  0  0  0  0  0  0  0  0  0
   -7.5232   18.3827  -34.2934 H   0  0  0  0  0  0  0  0  0  0  0  0
   -5.8023   18.3687  -33.7372 H   0  0  0  0  0  0  0  0  0  0  0  0
   -7.7321   16.8378  -32.6037 H   0  0  0  0  0  0  0  0  0  0  0  0
   -6.3088   17.5156  -31.6928 H   0  0  0  0  0  0  0  0  0  0  0  0
   -8.8107   17.7454  -30.7651 H   0  0  0  0  0  0  0  0  0  0  0  0
   -7.5700   19.0447  -30.5537 H   0  0  0  0  0  0  0  0  0  0  0  0
   -9.7006   18.9158  -32.7435 H   0  0  0  0  0  0  0  0  0  0  0  0
   -9.6847   20.0054  -31.2827 H   0  0  0  0  0  0  0  0  0  0  0  0
   -6.5422   25.3237  -31.1309 H   0  0  0  0  0  0  0  0  0  0  0  0
   -4.9306   25.9747  -29.3497 H   0  0  0  0  0  0  0  0  0  0  0  0
   -3.3032   24.3182  -28.4634 H   0  0  0  0  0  0  0  0  0  0  0  0
   -4.0725   21.2476  -27.3979 H   0  0  0  0  0  0  0  0  0  0  0  0
   -3.3815   19.4174  -25.9727 H   0  0  0  0  0  0  0  0  0  0  0  0
    2.4836   18.3877  -28.3554 H   0  0  0  0  0  0  0  0  0  0  0  0
    1.8624   17.7135  -29.9002 H   0  0  0  0  0  0  0  0  0  0  0  0
    2.7903   19.2516  -29.9002 H   0  0  0  0  0  0  0  0  0  0  0  0
    0.6831   20.6332  -31.0472 H   0  0  0  0  0  0  0  0  0  0  0  0
  1  2  1  0
  2  3  1  0
  3  4  2  0
  4  5  1  0
  5  6  1  0
  6  7  2  0
  6  8  2  0
  6  9  1  0
  9 10  1  0
 10 11  1  0
 11 12  1  0
 12 13  1  0
 13 14  1  0
  4 15  1  0
 15 16  2  0
 16 17  1  0
 17 18  2  0
 18 19  1  0
 19 20  1  0
 20 21  2  0
 21 22  1  0
 22 23  1  0
 22 24  1  0
 21 25  1  0
 25 26  1  0
 26 27  2  0
 27 28  1  0
 27 29  1  0
 29 30  2  0
 30 31  1  0
 18  3  1  0
 31 19  2  0
 14  9  1  0
 30 25  1  0
  1 32  1  0
  1 33  1  0
  1 34  1  0
  5 35  1  0
 10 36  1  0
 10 37  1  0
 11 38  1  0
 11 39  1  0
 12 40  1  0
 12 41  1  0
 13 42  1  0
 13 43  1  0
 14 44  1  0
 14 45  1  0
 15 46  1  0
 16 47  1  0
 17 48  1  0
 20 49  1  0
 22 50  1  0
 28 51  1  0
 28 52  1  0
 28 53  1  0
 29 54  1  0
M  END
>  <UniqueID>  (31) 
28

>  <SMILES>  (31) 
COc1c(NS(=O)(=O)N2CCCCC2)cccc1-c1cc(C(F)F)n2nc(C)cc2n1

>  <Energy>  (31) 
108.74270051078861

>  <Genealogy>  (31) 
COc1c(NS(=O)(=O)N2CCCCC2)cccc1-c1cc(C(F)F)n2nc(C)cc2n1 (3D coordinates assigned)
COc1c(NS(=O)(=O)N2CCCCC2)cccc1-c1cc(C(F)F)n2nc(C)cc2n1 (nonaromatic ring conformer: 108.74270051078861 kcal/mol)

>  <smiles>  (31) 
COc1c(NS(=O)(=O)N2CCCCC2)cccc1-c1cc(C(F)F)n2nc(C)cc2n1

>  <score_type>  (31) 
oracle

>  <origin>  (31) 
adg

>  <m_score__min__energy>  (31) 
-9.4900000000000002

>  <m_primary>  (31) 
energy

$$$$
31:0
     RDKit          3D

 43 45  0  0  0  0  0  0  0  0999 V2000
   -5.3850   25.6670  -30.2800 C   0  0  0  0  0  0  0  0  0  0  0  0
   -4.7670   24.7530  -31.1800 O   0  0  0  0  0  0  0  0  0  0  0  0
   -5.3650   23.5740  -31.6480 C   0  0  0  0  0  0  0  0  0  0  0  0
   -6.7540   23.4520  -31.5490 C   0  0  0  0  0  0  0  0  0  0  0  0
   -7.4200   22.2950  -31.9990 C   0  0  0  0  0  0  0  0  0  0  0  0
   -8.8180   22.1750  -31.9000 O   0  0  0  0  0  0  0  0  0  0  0  0
   -9.5070   21.5520  -30.8210 C   0  0  0  0  0  0  0  0  0  0  0  0
   -6.6630   21.2390  -32.5630 C   0  0  0  0  0  0  0  0  0  0  0  0
   -7.2430   20.0460  -33.0440 C   0  0  0  0  0  0  0  0  0  0  0  0
   -8.4880   19.8570  -33.0050 O   0  0  0  0  0  0  0  0  0  0  0  0
   -6.4270   19.0510  -33.5830 C   0  0  0  0  0  0  0  0  0  0  0  0
   -5.0380   19.2480  -33.6340 C   0  0  0  0  0  0  0  0  0  0  0  0
   -4.1210   18.2250  -34.1980 C   0  0  0  0  0  0  0  0  0  0  0  0
   -4.6050   17.0610  -34.8230 C   0  0  0  0  0  0  0  0  0  0  0  0
   -3.7200   16.1090  -35.3360 C   0  0  0  0  0  0  0  0  0  0  0  0
   -2.3250   16.2870  -35.2340 C   0  0  0  0  0  0  0  0  0  0  0  0
   -1.4060   15.2980  -35.7680 N   0  0  0  0  0  0  0  0  0  0  0  0
   -0.0810   15.1080  -35.1660 C   0  0  0  0  0  0  0  0  0  0  0  0
   -1.7860   14.4730  -36.9220 C   0  0  0  0  0  0  0  0  0  0  0  0
   -1.8480   17.4490  -34.5940 C   0  0  0  0  0  0  0  0  0  0  0  0
   -2.7340   18.4000  -34.0810 C   0  0  0  0  0  0  0  0  0  0  0  0
   -4.5240   20.3880  -33.1800 O   0  0  0  0  0  0  0  0  0  0  0  0
   -5.2570   21.3660  -32.6590 C   0  0  0  0  0  0  0  0  0  0  0  0
   -4.6200   22.5220  -32.2060 C   0  0  0  0  0  0  0  0  0  0  0  0
   -5.1770   25.3593  -29.2446 H   0  0  0  0  0  0  0  0  0  0  0  0
   -4.9837   26.6770  -30.4500 H   0  0  0  0  0  0  0  0  0  0  0  0
   -6.4718   25.6708  -30.4500 H   0  0  0  0  0  0  0  0  0  0  0  0
   -7.3381   24.2750  -31.1114 H   0  0  0  0  0  0  0  0  0  0  0  0
   -9.1015   21.9187  -29.8665 H   0  0  0  0  0  0  0  0  0  0  0  0
  -10.5783   21.7942  -30.8814 H   0  0  0  0  0  0  0  0  0  0  0  0
   -9.3736   20.4618  -30.8814 H   0  0  0  0  0  0  0  0  0  0  0  0
   -6.8688   18.1189  -33.9652 H   0  0  0  0  0  0  0  0  0  0  0  0
   -5.6896   16.8990  -34.9085 H   0  0  0  0  0  0  0  0  0  0  0  0
   -4.1172   15.2080  -35.8263 H   0  0  0  0  0  0  0  0  0  0  0  0
   -0.1711   15.1209  -34.0698 H   0  0  0  0  0  0  0  0  0  0  0  0
    0.3331   14.1413  -35.4885 H   0  0  0  0  0  0  0  0  0  0  0  0
    0.5880   15.9194  -35.4885 H   0  0  0  0  0  0  0  0  0  0  0  0
   -2.2218   13.5268  -36.5687 H   0  0  0  0  0  0  0  0  0  0  0  0
   -2.5262   15.0129  -37.5308 H   0  0  0  0  0  0  0  0  0  0  0  0
   -0.8946   14.2614  -37.5308 H   0  0  0  0  0  0  0  0  0  0  0  0
   -0.7640   17.6092  -34.4972 H   0  0  0  0  0  0  0  0  0  0  0  0
   -2.3394   19.2961  -33.5797 H   0  0  0  0  0  0  0  0  0  0  0  0
   -3.5265   22.6101  -32.2865 H   0  0  0  0  0  0  0  0  0  0  0  0
  1  2  1  0
  2  3  1  0
  3  4  2  0
  4  5  1  0
  5  6  1  0
  6  7  1  0
  5  8  2  0
  8  9  1  0
  9 10  2  0
  9 11  1  0
 11 12  2  0
 12 13  1  0
 13 14  2  0
 14 15  1  0
 15 16  2  0
 16 17  1  0
 17 18  1  0
 17 19  1  0
 16 20  1  0
 20 21  2  0
 12 22  1  0
 22 23  1  0
 23 24  2  0
 24  3  1  0
 23  8  1  0
 21 13  1  0
  1 25  1  0
  1 26  1  0
  1 27  1  0
  4 28  1  0
  7 29  1  0
  7 30  1  0
  7 31  1  0
 11 32  1  0
 14 33  1  0
 15 34  1  0
 18 35  1  0
 18 36  1  0
 18 37  1  0
 19 38  1  0
 19 39  1  0
 19 40  1  0
 20 41  1  0
 21 42  1  0
 24 43  1  0
M  END
>  <UniqueID>  (32) 
29

>  <SMILES>  (32) 
COc1cc(OC)c2c(=O)cc(-c3ccc(N(C)C)cc3)oc2c1

>  <Energy>  (32) 
55.96479580866266

>  <Genealogy>  (32) 
COc1cc(OC)c2c(=O)cc(-c3ccc(N(C)C)cc3)oc2c1 (3D coordinates assigned)
COc1cc(OC)c2c(=O)cc(-c3ccc(N(C)C)cc3)oc2c1 (optimized conformer: 55.96479580866266 kcal/mol)

>  <smiles>  (32) 
COc1cc(OC)c2c(=O)cc(-c3ccc(N(C)C)cc3)oc2c1

>  <score_type>  (32) 
oracle

>  <origin>  (32) 
adg

>  <m_score__min__energy>  (32) 
-6.6600000000000001

>  <m_primary>  (32) 
energy

$$$$
32:0
     RDKit          3D

 34 36  0  0  0  0  0  0  0  0999 V2000
   -1.8540   25.0950  -27.6690 C   0  0  0  0  0  0  0  0  0  0  0  0
   -2.3830   25.3450  -28.9670 O   0  0  0  0  0  0  0  0  0  0  0  0
   -3.3430   24.5430  -29.6000 C   0  0  0  0  0  0  0  0  0  0  0  0
   -4.2930   25.0680  -30.4980 C   0  0  0  0  0  0  0  0  0  0  0  0
   -5.2330   24.2260  -31.1010 C   0  0  0  0  0  0  0  0  0  0  0  0
   -5.2480   22.8570  -30.8020 C   0  0  0  0  0  0  0  0  0  0  0  0
   -6.1830   21.9880  -31.4480 N   0  0  0  0  0  0  0  0  0  0  0  0
   -7.4940   22.0590  -31.2370 N   0  0  0  0  0  0  0  0  0  0  0  0
   -8.0900   21.0590  -31.9290 C   0  0  0  0  0  0  0  0  0  0  0  0
   -9.5630   20.8290  -31.9880 C   0  0  0  0  0  0  0  0  0  0  0  0
   -7.1130   20.3580  -32.5980 C   0  0  0  0  0  0  0  0  0  0  0  0
   -7.2070   19.3090  -33.4500 N   0  0  0  0  0  0  0  0  0  0  0  0
   -6.0550   18.8330  -34.0160 C   0  0  0  0  0  0  0  0  0  0  0  0
   -6.1060   17.6950  -34.9820 C   0  0  0  0  0  0  0  0  0  0  0  0
   -4.8550   19.4440  -33.7490 N   0  0  0  0  0  0  0  0  0  0  0  0
   -4.7540   20.5050  -32.8950 C   0  0  0  0  0  0  0  0  0  0  0  0
   -3.0490   21.3450  -32.6870 Br  0  0  0  0  0  0  0  0  0  0  0  0
   -5.9320   20.9550  -32.2870 C   0  0  0  0  0  0  0  0  0  0  0  0
   -4.2900   22.3290  -29.9280 C   0  0  0  0  0  0  0  0  0  0  0  0
   -3.3510   23.1690  -29.3240 C   0  0  0  0  0  0  0  0  0  0  0  0
   -2.5726   25.4346  -26.9085 H   0  0  0  0  0  0  0  0  0  0  0  0
   -1.6741   24.0166  -27.5478 H   0  0  0  0  0  0  0  0  0  0  0  0
   -0.9066   25.6407  -27.5478 H   0  0  0  0  0  0  0  0  0  0  0  0
   -4.2955   26.1442  -30.7258 H   0  0  0  0  0  0  0  0  0  0  0  0
   -5.9629   24.6398  -31.8123 H   0  0  0  0  0  0  0  0  0  0  0  0
   -9.9655   20.7662  -30.9662 H   0  0  0  0  0  0  0  0  0  0  0  0
  -10.0433   21.6630  -32.5206 H   0  0  0  0  0  0  0  0  0  0  0  0
   -9.7662   19.8882  -32.5206 H   0  0  0  0  0  0  0  0  0  0  0  0
   -8.1350   18.8820  -33.6720 H   0  0  0  0  0  0  0  0  0  0  0  0
   -6.1486   16.7455  -34.4282 H   0  0  0  0  0  0  0  0  0  0  0  0
   -7.0007   17.7909  -35.6146 H   0  0  0  0  0  0  0  0  0  0  0  0
   -5.2063   17.7105  -35.6146 H   0  0  0  0  0  0  0  0  0  0  0  0
   -4.2766   21.2497  -29.7163 H   0  0  0  0  0  0  0  0  0  0  0  0
   -2.6120   22.7485  -28.6261 H   0  0  0  0  0  0  0  0  0  0  0  0
  1  2  1  0
  2  3  1  0
  3  4  2  0
  4  5  1  0
  5  6  2  0
  6  7  1  0
  7  8  1  0
  8  9  2  0
  9 10  1  0
  9 11  1  0
 11 12  2  0
 12 13  1  0
 13 14  1  0
 13 15  2  0
 15 16  1  0
 16 17  1  0
 16 18  2  0
  6 19  1  0
 19 20  2  0
 20  3  1  0
 18  7  1  0
 18 11  1  0
  1 21  1  0
  1 22  1  0
  1 23  1  0
  4 24  1  0
  5 25  1  0
 10 26  1  0
 10 27  1  0
 10 28  1  0
 12 29  1  0
 14 30  1  0
 14 31  1  0
 14 32  1  0
 19 33  1  0
 20 34  1  0
M  CHG  1  12   1
M  END
>  <UniqueID>  (33) 
30

>  <SMILES>  (33) 
COc1ccc(-n2nc(C)c3[nH+]c(C)nc(Br)c32)cc1

>  <Energy>  (33) 
84.38598259816543

>  <Genealogy>  (33) 
COc1ccc(-n2nc(C)c3[nH+]c(C)nc(Br)c32)cc1 (protonated)
COc1ccc(-n2nc(C)c3[nH+]c(C)nc(Br)c32)cc1 (3D coordinates assigned)
COc1ccc(-n2nc(C)c3[nH+]c(C)nc(Br)c32)cc1 (optimized conformer: 84.38598259816543 kcal/mol)

>  <smiles>  (33) 
COc1ccc(-n2nc(C)c3nc(C)nc(Br)c32)cc1

>  <score_type>  (33) 
oracle

>  <origin>  (33) 
adg

>  <m_score__min__energy>  (33) 
-7.7000000000000002

>  <m_primary>  (33) 
energy

$$$$
33:0
     RDKit          3D

 23 24  0  0  0  0  0  0  0  0999 V2000
   -9.1130   19.3940  -32.3400 C   0  0  0  0  0  0  0  0  0  0  0  0
   -7.7720   20.0250  -32.5300 C   0  0  0  0  0  0  0  0  0  0  0  0
   -6.8040   19.4030  -33.3190 C   0  0  0  0  0  0  0  0  0  0  0  0
   -5.5700   20.0310  -33.4520 C   0  0  0  0  0  0  0  0  0  0  0  0
   -4.6630   19.4970  -34.1450 O   0  0  0  0  0  0  0  0  0  0  0  0
   -5.3440   21.2190  -32.8290 N   0  0  0  0  0  0  0  0  0  0  0  0
   -6.3280   21.8000  -32.0770 C   0  0  0  0  0  0  0  0  0  0  0  0
   -6.1250   23.0900  -31.3820 C   0  0  0  0  0  0  0  0  0  0  0  0
   -7.1380   23.7060  -30.6220 C   0  0  0  0  0  0  0  0  0  0  0  0
   -6.8750   24.9190  -29.9830 C   0  0  0  0  0  0  0  0  0  0  0  0
   -5.6140   25.5060  -30.0930 C   0  0  0  0  0  0  0  0  0  0  0  0
   -4.6280   24.8640  -30.8400 C   0  0  0  0  0  0  0  0  0  0  0  0
   -4.9000   23.6840  -31.4580 N   0  0  0  0  0  0  0  0  0  0  0  0
   -7.5020   21.1860  -31.9430 O   0  0  0  0  0  0  0  0  0  0  0  0
   -9.3227   19.2953  -31.2647 H   0  0  0  0  0  0  0  0  0  0  0  0
   -9.8841   20.0237  -32.8077 H   0  0  0  0  0  0  0  0  0  0  0  0
   -9.1193   18.3984  -32.8077 H   0  0  0  0  0  0  0  0  0  0  0  0
   -7.0102   18.4458  -33.8203 H   0  0  0  0  0  0  0  0  0  0  0  0
   -4.4010   21.6560  -32.9160 H   0  0  0  0  0  0  0  0  0  0  0  0
   -8.1282   23.2353  -30.5326 H   0  0  0  0  0  0  0  0  0  0  0  0
   -7.6617   25.4119  -29.3929 H   0  0  0  0  0  0  0  0  0  0  0  0
   -5.4007   26.4639  -29.5961 H   0  0  0  0  0  0  0  0  0  0  0  0
   -3.6278   25.3129  -30.9297 H   0  0  0  0  0  0  0  0  0  0  0  0
  1  2  1  0
  2  3  2  0
  3  4  1  0
  4  5  2  0
  4  6  1  0
  6  7  2  0
  7  8  1  0
  8  9  2  0
  9 10  1  0
 10 11  2  0
 11 12  1  0
 12 13  2  0
  7 14  1  0
 14  2  1  0
 13  8  1  0
  1 15  1  0
  1 16  1  0
  1 17  1  0
  3 18  1  0
  6 19  1  0
  9 20  1  0
 10 21  1  0
 11 22  1  0
 12 23  1  0
M  CHG  1   6   1
M  END
>  <UniqueID>  (34) 
31

>  <SMILES>  (34) 
Cc1cc(=O)[nH+]c(-c2ccccn2)o1

>  <Energy>  (34) 
26.637401935621423

>  <Genealogy>  (34) 
Cc1cc(=O)[nH+]c(-c2ccccn2)o1 (protonated)
Cc1cc(=O)[nH+]c(-c2ccccn2)o1 (3D coordinates assigned)
Cc1cc(=O)[nH+]c(-c2ccccn2)o1 (optimized conformer: 26.637401935621423 kcal/mol)

>  <smiles>  (34) 
Cc1cc(=O)nc(-c2ccccn2)o1

>  <score_type>  (34) 
oracle

>  <origin>  (34) 
adg

>  <m_score__min__energy>  (34) 
-4.9100000000000001

>  <m_primary>  (34) 
energy

$$$$
34:0
     RDKit          3D

 62 66  0  0  0  0  0  0  0  0999 V2000
   -6.7560   17.5660  -33.3500 O   0  0  0  0  0  0  0  0  0  0  0  0
   -6.3090   18.6230  -32.8270 C   0  0  0  0  0  0  0  0  0  0  0  0
   -7.1540   19.4180  -31.9800 N   0  0  0  0  0  0  0  0  0  0  0  0
   -8.5360   19.0490  -31.6770 C   0  0  0  0  0  0  0  0  0  0  0  0
   -9.5110   20.0270  -32.3470 C   0  0  0  0  0  0  0  0  0  0  0  0
   -9.2730   21.4840  -31.9160 C   0  0  0  0  0  0  0  0  0  0  0  0
   -8.5260   21.5890  -30.5760 C   0  0  0  0  0  0  0  0  0  0  0  0
   -7.2740   22.3530  -30.7510 N   0  0  0  0  0  0  0  0  0  0  0  0
   -7.1410   23.4050  -29.7190 C   0  0  0  0  0  0  0  0  0  0  0  0
   -6.0300   24.4270  -30.0420 C   0  0  0  0  0  0  0  0  0  0  0  0
   -5.0040   23.8920  -31.0620 C   0  0  0  0  0  0  0  0  0  0  0  0
   -4.0740   22.8500  -30.4170 C   0  0  0  0  0  0  0  0  0  0  0  0
   -4.3040   21.4680  -30.6160 C   0  0  0  0  0  0  0  0  0  0  0  0
   -3.4950   20.5050  -30.0200 C   0  0  0  0  0  0  0  0  0  0  0  0
   -2.4360   20.8810  -29.2040 C   0  0  0  0  0  0  0  0  0  0  0  0
   -2.1790   22.2340  -28.9630 C   0  0  0  0  0  0  0  0  0  0  0  0
   -1.1110   22.5940  -28.1250 C   0  0  0  0  0  0  0  0  0  0  0  0
   -0.8440   23.9360  -27.8600 C   0  0  0  0  0  0  0  0  0  0  0  0
   -1.6420   24.9290  -28.4220 C   0  0  0  0  0  0  0  0  0  0  0  0
   -2.7070   24.5920  -29.2600 C   0  0  0  0  0  0  0  0  0  0  0  0
   -2.9970   23.2370  -29.5570 C   0  0  0  0  0  0  0  0  0  0  0  0
   -5.7290   23.4340  -32.3590 C   0  0  0  0  0  0  0  0  0  0  0  0
   -7.1620   22.9260  -32.1070 C   0  0  0  0  0  0  0  0  0  0  0  0
   -4.9190   19.0300  -33.1000 C   0  0  0  0  0  0  0  0  0  0  0  0
   -3.8120   18.1750  -33.1010 C   0  0  0  0  0  0  0  0  0  0  0  0
   -2.6190   18.8430  -33.3940 C   0  0  0  0  0  0  0  0  0  0  0  0
   -1.3490   18.2670  -33.4700 C   0  0  0  0  0  0  0  0  0  0  0  0
   -0.2490   19.0870  -33.7790 C   0  0  0  0  0  0  0  0  0  0  0  0
   -0.4290   20.4680  -34.0070 C   0  0  0  0  0  0  0  0  0  0  0  0
    0.9510   21.4770  -34.3940 Cl  0  0  0  0  0  0  0  0  0  0  0  0
   -1.7120   21.0350  -33.9270 C   0  0  0  0  0  0  0  0  0  0  0  0
   -2.7830   20.2010  -33.6190 C   0  0  0  0  0  0  0  0  0  0  0  0
   -4.4040   20.6050  -33.4600 S   0  0  0  0  0  0  0  0  0  0  0  0
   -6.8030   20.3300  -31.6120 H   0  0  0  0  0  0  0  0  0  0  0  0
   -8.7295   18.0323  -32.0495 H   0  0  0  0  0  0  0  0  0  0  0  0
   -8.6846   19.0876  -30.5878 H   0  0  0  0  0  0  0  0  0  0  0  0
   -9.3869   19.9571  -33.4377 H   0  0  0  0  0  0  0  0  0  0  0  0
  -10.5291   19.7489  -32.0370 H   0  0  0  0  0  0  0  0  0  0  0  0
   -8.6780   21.9883  -32.6917 H   0  0  0  0  0  0  0  0  0  0  0  0
  -10.2569   21.9587  -31.7874 H   0  0  0  0  0  0  0  0  0  0  0  0
   -9.1654   22.1016  -29.8423 H   0  0  0  0  0  0  0  0  0  0  0  0
   -8.2833   20.5772  -30.2190 H   0  0  0  0  0  0  0  0  0  0  0  0
   -8.0983   23.9409  -29.6388 H   0  0  0  0  0  0  0  0  0  0  0  0
   -6.8689   22.9091  -28.7756 H   0  0  0  0  0  0  0  0  0  0  0  0
   -6.4959   25.3339  -30.4548 H   0  0  0  0  0  0  0  0  0  0  0  0
   -5.4896   24.6354  -29.1068 H   0  0  0  0  0  0  0  0  0  0  0  0
   -4.3252   24.6973  -31.3794 H   0  0  0  0  0  0  0  0  0  0  0  0
   -5.1400   21.1480  -31.2553 H   0  0  0  0  0  0  0  0  0  0  0  0
   -3.6959   19.4380  -30.1966 H   0  0  0  0  0  0  0  0  0  0  0  0
   -1.7972   20.1117  -28.7457 H   0  0  0  0  0  0  0  0  0  0  0  0
   -0.4815   21.8121  -27.6751 H   0  0  0  0  0  0  0  0  0  0  0  0
   -0.0027   24.2107  -27.2068 H   0  0  0  0  0  0  0  0  0  0  0  0
   -1.4320   25.9866  -28.2043 H   0  0  0  0  0  0  0  0  0  0  0  0
   -3.3287   25.3884  -29.6951 H   0  0  0  0  0  0  0  0  0  0  0  0
   -5.7773   24.2868  -33.0521 H   0  0  0  0  0  0  0  0  0  0  0  0
   -5.1534   22.5944  -32.7759 H   0  0  0  0  0  0  0  0  0  0  0  0
   -7.8665   23.7651  -32.2052 H   0  0  0  0  0  0  0  0  0  0  0  0
   -7.3987   22.1453  -32.8449 H   0  0  0  0  0  0  0  0  0  0  0  0
   -3.8731   17.0964  -32.8942 H   0  0  0  0  0  0  0  0  0  0  0  0
   -1.2114   17.1904  -33.2912 H   0  0  0  0  0  0  0  0  0  0  0  0
    0.7580   18.6492  -33.8434 H   0  0  0  0  0  0  0  0  0  0  0  0
   -1.8661   22.1098  -34.1031 H   0  0  0  0  0  0  0  0  0  0  0  0
  1  2  2  0
  2  3  1  0
  3  4  1  0
  4  5  1  0
  5  6  1  0
  6  7  1  0
  7  8  1  0
  8  9  1  0
  9 10  1  0
 10 11  1  0
 11 12  1  0
 12 13  2  0
 13 14  1  0
 14 15  2  0
 15 16  1  0
 16 17  2  0
 17 18  1  0
 18 19  2  0
 19 20  1  0
 20 21  2  0
 11 22  1  0
 22 23  1  0
  2 24  1  0
 24 25  2  0
 25 26  1  0
 26 27  2  0
 27 28  1  0
 28 29  2  0
 29 30  1  0
 29 31  1  0
 31 32  2  0
 32 33  1  0
 23  8  1  0
 33 24  1  0
 21 12  1  0
 32 26  1  0
 21 16  1  0
  3 34  1  0
  4 35  1  0
  4 36  1  0
  5 37  1  0
  5 38  1  0
  6 39  1  0
  6 40  1  0
  7 41  1  0
  7 42  1  0
  9 43  1  0
  9 44  1  0
 10 45  1  0
 10 46  1  0
 11 47  1  0
 13 48  1  0
 14 49  1  0
 15 50  1  0
 17 51  1  0
 18 52  1  0
 19 53  1  0
 20 54  1  0
 22 55  1  0
 22 56  1  0
 23 57  1  0
 23 58  1  0
 25 59  1  0
 27 60  1  0
 28 61  1  0
 31 62  1  0
M  END
>  <UniqueID>  (35) 
32

>  <SMILES>  (35) 
O=C(NCCCCN1CCC(c2cccc3ccccc23)CC1)c1cc2ccc(Cl)cc2s1

>  <Energy>  (35) 
108.315667880345

>  <Genealogy>  (35) 
O=C(NCCCCN1CCC(c2cccc3ccccc23)CC1)c1cc2ccc(Cl)cc2s1 (3D coordinates assigned)
O=C(NCCCCN1CCC(c2cccc3ccccc23)CC1)c1cc2ccc(Cl)cc2s1 (nonaromatic ring conformer: 108.315667880345 kcal/mol)

>  <smiles>  (35) 
O=C(NCCCCN1CCC(c2cccc3ccccc23)CC1)c1cc2ccc(Cl)cc2s1

>  <score_type>  (35) 
oracle

>  <origin>  (35) 
adg

>  <m_score__min__energy>  (35) 
-11.130000000000001

>  <m_primary>  (35) 
energy

$$$$
35:0
     RDKit          3D

 44 45  0  0  0  0  0  0  0  0999 V2000
    2.7700   24.9520  -27.5050 C   0  0  0  0  0  0  0  0  0  0  0  0
    1.3940   24.9020  -27.8700 O   0  0  0  0  0  0  0  0  0  0  0  0
    0.3280   25.2010  -27.0050 C   0  0  0  0  0  0  0  0  0  0  0  0
    0.5390   25.5210  -25.6490 C   0  0  0  0  0  0  0  0  0  0  0  0
   -0.5440   25.7980  -24.8110 C   0  0  0  0  0  0  0  0  0  0  0  0
   -1.8440   25.7560  -25.3100 C   0  0  0  0  0  0  0  0  0  0  0  0
   -2.0690   25.4420  -26.6510 C   0  0  0  0  0  0  0  0  0  0  0  0
   -0.9900   25.1770  -27.5110 C   0  0  0  0  0  0  0  0  0  0  0  0
   -1.2520   24.8120  -28.9470 C   0  0  0  0  0  0  0  0  0  0  0  0
   -2.5700   25.2950  -29.3340 N   0  0  0  0  0  0  0  0  0  0  0  0
   -3.5190   24.5510  -30.1090 C   0  0  0  0  0  0  0  0  0  0  0  0
   -4.2700   25.1720  -30.9070 O   0  0  0  0  0  0  0  0  0  0  0  0
   -3.6830   23.0630  -29.9620 C   0  0  0  0  0  0  0  0  0  0  0  0
   -2.7980   22.3720  -30.8430 O   0  0  0  0  0  0  0  0  0  0  0  0
   -3.1780   21.9210  -32.1130 C   0  0  0  0  0  0  0  0  0  0  0  0
   -2.3430   21.9250  -33.0600 O   0  0  0  0  0  0  0  0  0  0  0  0
   -4.5600   21.4410  -32.3430 C   0  0  0  0  0  0  0  0  0  0  0  0
   -5.6520   22.2540  -32.0140 C   0  0  0  0  0  0  0  0  0  0  0  0
   -6.9560   21.8100  -32.2290 C   0  0  0  0  0  0  0  0  0  0  0  0
   -7.2020   20.5380  -32.7810 C   0  0  0  0  0  0  0  0  0  0  0  0
   -8.5130   20.0890  -33.0140 O   0  0  0  0  0  0  0  0  0  0  0  0
   -9.1700   19.0690  -32.2680 C   0  0  0  0  0  0  0  0  0  0  0  0
   -6.1070   19.7030  -33.1120 C   0  0  0  0  0  0  0  0  0  0  0  0
   -6.3030   18.3860  -33.6740 N   0  0  0  0  0  0  0  0  0  0  0  0
   -6.1060   18.1630  -34.8860 O   0  0  0  0  0  0  0  0  0  0  0  0
   -6.7500   17.3520  -32.8830 O   0  0  0  0  0  0  0  0  0  0  0  0
   -4.7970   20.1700  -32.8910 C   0  0  0  0  0  0  0  0  0  0  0  0
    2.8586   24.9552  -26.4086 H   0  0  0  0  0  0  0  0  0  0  0  0
    3.2896   24.0721  -27.9123 H   0  0  0  0  0  0  0  0  0  0  0  0
    3.2244   25.8672  -27.9123 H   0  0  0  0  0  0  0  0  0  0  0  0
    1.5627   25.5529  -25.2478 H   0  0  0  0  0  0  0  0  0  0  0  0
   -0.3698   26.0499  -23.7545 H   0  0  0  0  0  0  0  0  0  0  0  0
   -2.6943   25.9707  -24.6460 H   0  0  0  0  0  0  0  0  0  0  0  0
   -3.0981   25.4017  -27.0373 H   0  0  0  0  0  0  0  0  0  0  0  0
   -0.4880   25.2749  -29.5890 H   0  0  0  0  0  0  0  0  0  0  0  0
   -1.2119   23.7188  -29.0623 H   0  0  0  0  0  0  0  0  0  0  0  0
   -3.4583   22.7750  -28.9244 H   0  0  0  0  0  0  0  0  0  0  0  0
   -4.7188   22.7930  -30.2153 H   0  0  0  0  0  0  0  0  0  0  0  0
   -5.4794   23.2510  -31.5824 H   0  0  0  0  0  0  0  0  0  0  0  0
   -7.8025   22.4608  -31.9644 H   0  0  0  0  0  0  0  0  0  0  0  0
   -9.0450   19.2631  -31.1925 H   0  0  0  0  0  0  0  0  0  0  0  0
  -10.2413   19.0644  -32.5177 H   0  0  0  0  0  0  0  0  0  0  0  0
   -8.7311   18.0917  -32.5177 H   0  0  0  0  0  0  0  0  0  0  0  0
   -3.9435   19.5272  -33.1525 H   0  0  0  0  0  0  0  0  0  0  0  0
  1  2  1  0
  2  3  1  0
  3  4  2  0
  4  5  1  0
  5  6  2  0
  6  7  1  0
  7  8  2  0
  8  9  1  0
  9 10  1  0
 10 11  1  0
 11 12  2  0
 11 13  1  0
 13 14  1  0
 14 15  1  0
 15 16  2  0
 15 17  1  0
 17 18  2  0
 18 19  1  0
 19 20  2  0
 20 21  1  0
 21 22  1  0
 20 23  1  0
 23 24  1  0
 24 25  2  0
 24 26  1  0
 23 27  2  0
  8  3  1  0
 27 17  1  0
  1 28  1  0
  1 29  1  0
  1 30  1  0
  4 31  1  0
  5 32  1  0
  6 33  1  0
  7 34  1  0
  9 35  1  0
  9 36  1  0
 13 37  1  0
 13 38  1  0
 18 39  1  0
 19 40  1  0
 22 41  1  0
 22 42  1  0
 22 43  1  0
 27 44  1  0
M  CHG  3  10  -1  24   1  26  -1
M  END
>  <UniqueID>  (36) 
33

>  <SMILES>  (36) 
COc1ccccc1C[N-]C(=O)COC(=O)c1ccc(OC)c([N+](=O)[O-])c1

>  <Energy>  (36) 
43.46922132598659

>  <Genealogy>  (36) 
COc1ccccc1C[N-]C(=O)COC(=O)c1ccc(OC)c([N+](=O)[O-])c1 (protonated)
COc1ccccc1C[N-]C(=O)COC(=O)c1ccc(OC)c([N+](=O)[O-])c1 (3D coordinates assigned)
COc1ccccc1C[N-]C(=O)COC(=O)c1ccc(OC)c([N+](=O)[O-])c1 (optimized conformer: 43.46922132598659 kcal/mol)

>  <smiles>  (36) 
COc1ccccc1CNC(=O)COC(=O)c1ccc(OC)c([N+](=O)[O-])c1

>  <score_type>  (36) 
oracle

>  <origin>  (36) 
adg

>  <m_score__min__energy>  (36) 
-10.01

>  <m_primary>  (36) 
energy

$$$$
36:0
     RDKit          3D

 33 34  0  0  0  0  0  0  0  0999 V2000
   -3.8750   25.2960  -30.7990 O   0  0  0  0  0  0  0  0  0  0  0  0
   -4.2990   24.8220  -29.7090 C   0  0  0  0  0  0  0  0  0  0  0  0
   -3.3810   24.4880  -28.6680 N   0  0  0  0  0  0  0  0  0  0  0  0
   -1.8170   23.8230  -28.9870 S   0  0  0  0  0  0  0  0  0  0  0  0
   -0.8610   24.9290  -29.3380 O   0  0  0  0  0  0  0  0  0  0  0  0
   -1.3130   23.1210  -27.7580 O   0  0  0  0  0  0  0  0  0  0  0  0
   -1.9210   22.6700  -30.3030 C   0  0  0  0  0  0  0  0  0  0  0  0
   -3.0730   22.3260  -30.9920 C   0  0  0  0  0  0  0  0  0  0  0  0
   -2.8440   21.3690  -31.9870 C   0  0  0  0  0  0  0  0  0  0  0  0
   -1.5190   20.9600  -32.0750 C   0  0  0  0  0  0  0  0  0  0  0  0
   -0.6290   21.7880  -30.9130 S   0  0  0  0  0  0  0  0  0  0  0  0
   -5.7010   24.6110  -29.5060 N   0  0  0  0  0  0  0  0  0  0  0  0
   -6.7000   24.8460  -30.5460 C   0  0  0  0  0  0  0  0  0  0  0  0
   -6.3410   24.0870  -31.8270 C   0  0  0  0  0  0  0  0  0  0  0  0
   -7.0030   22.7350  -31.8780 C   0  0  0  0  0  0  0  0  0  0  0  0
   -6.2840   21.6020  -32.2960 C   0  0  0  0  0  0  0  0  0  0  0  0
   -6.9050   20.3500  -32.3390 C   0  0  0  0  0  0  0  0  0  0  0  0
   -8.2480   20.2200  -31.9740 C   0  0  0  0  0  0  0  0  0  0  0  0
   -9.0170   18.6440  -31.9960 Cl  0  0  0  0  0  0  0  0  0  0  0  0
   -8.9750   21.3460  -31.5790 C   0  0  0  0  0  0  0  0  0  0  0  0
   -8.3580   22.6000  -31.5330 C   0  0  0  0  0  0  0  0  0  0  0  0
   -4.0617   22.7589  -30.7796 H   0  0  0  0  0  0  0  0  0  0  0  0
   -3.6388   20.9771  -32.6387 H   0  0  0  0  0  0  0  0  0  0  0  0
   -1.1199   20.2201  -32.7844 H   0  0  0  0  0  0  0  0  0  0  0  0
   -6.0130   24.1780  -28.6080 H   0  0  0  0  0  0  0  0  0  0  0  0
   -7.6817   24.5034  -30.1870 H   0  0  0  0  0  0  0  0  0  0  0  0
   -6.7286   25.9225  -30.7704 H   0  0  0  0  0  0  0  0  0  0  0  0
   -6.6693   24.6775  -32.6950 H   0  0  0  0  0  0  0  0  0  0  0  0
   -5.2515   23.9359  -31.8420 H   0  0  0  0  0  0  0  0  0  0  0  0
   -5.2287   21.7006  -32.5904 H   0  0  0  0  0  0  0  0  0  0  0  0
   -6.3355   19.4656  -32.6607 H   0  0  0  0  0  0  0  0  0  0  0  0
  -10.0352   21.2457  -31.3036 H   0  0  0  0  0  0  0  0  0  0  0  0
   -8.9358   23.4840  -31.2255 H   0  0  0  0  0  0  0  0  0  0  0  0
  1  2  2  0
  2  3  1  0
  3  4  1  0
  4  5  2  0
  4  6  2  0
  4  7  1  0
  7  8  2  0
  8  9  1  0
  9 10  2  0
 10 11  1  0
  2 12  1  0
 12 13  1  0
 13 14  1  0
 14 15  1  0
 15 16  2  0
 16 17  1  0
 17 18  2  0
 18 19  1  0
 18 20  1  0
 20 21  2  0
 11  7  1  0
 21 15  1  0
  8 22  1  0
  9 23  1  0
 10 24  1  0
 12 25  1  0
 13 26  1  0
 13 27  1  0
 14 28  1  0
 14 29  1  0
 16 30  1  0
 17 31  1  0
 20 32  1  0
 21 33  1  0
M  CHG  1   3  -1
M  END
>  <UniqueID>  (37) 
34

>  <SMILES>  (37) 
O=C([N-]S(=O)(=O)c1cccs1)NCCc1ccc(Cl)cc1

>  <Energy>  (37) 
52.73482033893997

>  <Genealogy>  (37) 
O=C([N-]S(=O)(=O)c1cccs1)NCCc1ccc(Cl)cc1 (protonated)
O=C([N-]S(=O)(=O)c1cccs1)NCCc1ccc(Cl)cc1 (3D coordinates assigned)
O=C([N-]S(=O)(=O)c1cccs1)NCCc1ccc(Cl)cc1 (optimized conformer: 52.73482033893997 kcal/mol)

>  <smiles>  (37) 
O=C(NCCc1ccc(Cl)cc1)NS(=O)(=O)c1cccs1

>  <score_type>  (37) 
oracle

>  <origin>  (37) 
adg

>  <m_score__min__energy>  (37) 
-10.039999999999999

>  <m_primary>  (37) 
energy

$$$$
37:0
     RDKit          3D

 30 31  0  0  0  0  0  0  0  0999 V2000
   -5.4540   18.6360  -33.6710 C   0  0  0  0  0  0  0  0  0  0  0  0
   -6.8340   18.8430  -33.1880 N   0  0  1  0  0  0  0  0  0  0  0  0
   -7.0500   18.2960  -31.8590 C   0  0  0  0  0  0  0  0  0  0  0  0
   -6.1160   17.8830  -31.1840 O   0  0  0  0  0  0  0  0  0  0  0  0
   -8.4340   18.2530  -31.2740 C   0  0  0  0  0  0  0  0  0  0  0  0
   -9.4610   18.8790  -32.2140 C   0  0  0  0  0  0  0  0  0  0  0  0
   -8.9800   20.5780  -32.6840 S   0  0  0  0  0  0  0  0  0  0  0  0
   -7.2480   20.2700  -33.2640 C   0  0  1  0  0  0  0  0  0  0  0  0
   -6.2890   21.2120  -32.5460 C   0  0  0  0  0  0  0  0  0  0  0  0
   -6.7280   21.9230  -31.4140 C   0  0  0  0  0  0  0  0  0  0  0  0
   -5.8740   22.8120  -30.7570 C   0  0  0  0  0  0  0  0  0  0  0  0
   -4.5610   23.0140  -31.2150 C   0  0  0  0  0  0  0  0  0  0  0  0
   -3.6840   23.9310  -30.5360 N   0  0  0  0  0  0  0  0  0  0  0  0
   -2.7410   23.5110  -29.8360 O   0  0  0  0  0  0  0  0  0  0  0  0
   -3.8720   25.2900  -30.6470 O   0  0  0  0  0  0  0  0  0  0  0  0
   -4.1230   22.3060  -32.3480 C   0  0  0  0  0  0  0  0  0  0  0  0
   -4.9770   21.4170  -33.0070 C   0  0  0  0  0  0  0  0  0  0  0  0
   -4.7759   18.5343  -32.8109 H   0  0  0  0  0  0  0  0  0  0  0  0
   -5.4123   17.7216  -34.2810 H   0  0  0  0  0  0  0  0  0  0  0  0
   -5.1458   19.4980  -34.2810 H   0  0  0  0  0  0  0  0  0  0  0  0
   -7.4380   18.3020  -33.8500 H   0  0  0  0  0  0  0  0  0  0  0  0
   -8.7112   17.2046  -31.0896 H   0  0  0  0  0  0  0  0  0  0  0  0
   -8.4294   18.8288  -30.3367 H   0  0  0  0  0  0  0  0  0  0  0  0
   -9.5374   18.2637  -33.1226 H   0  0  0  0  0  0  0  0  0  0  0  0
  -10.4284   18.9233  -31.6922 H   0  0  0  0  0  0  0  0  0  0  0  0
   -7.2126   20.4951  -34.3401 H   0  0  0  0  0  0  0  0  0  0  0  0
   -7.7532   21.7775  -31.0429 H   0  0  0  0  0  0  0  0  0  0  0  0
   -6.2327   23.3591  -29.8727 H   0  0  0  0  0  0  0  0  0  0  0  0
   -3.0981   22.4531  -32.7195 H   0  0  0  0  0  0  0  0  0  0  0  0
   -4.6193   20.8733  -33.8938 H   0  0  0  0  0  0  0  0  0  0  0  0
  1  2  1  0
  2  3  1  0
  3  4  2  0
  3  5  1  0
  5  6  1  0
  6  7  1  0
  7  8  1  0
  8  9  1  0
  9 10  2  0
 10 11  1  0
 11 12  2  0
 12 13  1  0
 13 14  2  0
 13 15  1  0
 12 16  1  0
 16 17  2  0
  8  2  1  0
 17  9  1  0
  1 18  1  0
  1 19  1  0
  1 20  1  0
  2 21  1  6
  5 22  1  0
  5 23  1  0
  6 24  1  0
  6 25  1  0
  8 26  1  6
 10 27  1  0
 11 28  1  0
 16 29  1  0
 17 30  1  0
M  CHG  3   2   1  13   1  15  -1
M  END
>  <UniqueID>  (38) 
35

>  <SMILES>  (38) 
C[N@H+]1C(=O)CCS[C@H]1c1ccc([N+](=O)[O-])cc1

>  <Energy>  (38) 
39.43694523633188

>  <Genealogy>  (38) 
C[NH+]1C(=O)CCSC1c1ccc([N+](=O)[O-])cc1 (protonated)
C[N@H+]1C(=O)CCS[C@H]1c1ccc([N+](=O)[O-])cc1 (chirality)
C[N@H+]1C(=O)CCS[C@H]1c1ccc([N+](=O)[O-])cc1 (3D coordinates assigned)
C[N@H+]1C(=O)CCS[C@H]1c1ccc([N+](=O)[O-])cc1 (nonaromatic ring conformer: 39.43694523633188 kcal/mol)

>  <smiles>  (38) 
CN1C(=O)CCSC1c1ccc([N+](=O)[O-])cc1

>  <score_type>  (38) 
oracle

>  <origin>  (38) 
adg

>  <m_score__min__energy>  (38) 
-7.4199999999999999

>  <m_primary>  (38) 
energy

$$$$
38:0
     RDKit          3D

 20 20  0  0  0  0  0  0  0  0999 V2000
   -6.2360   19.7480  -33.8730 C   0  0  0  0  0  0  0  0  0  0  0  0
   -6.5980   20.7430  -32.8480 N   0  0  0  0  0  0  0  0  0  0  0  0
   -5.7030   21.7290  -32.5160 C   0  0  0  0  0  0  0  0  0  0  0  0
   -4.4430   21.8150  -33.1230 O   0  0  0  0  0  0  0  0  0  0  0  0
   -6.0400   22.6860  -31.5560 C   0  0  0  0  0  0  0  0  0  0  0  0
   -5.1070   23.7360  -31.2150 C   0  0  0  0  0  0  0  0  0  0  0  0
   -4.3600   24.5770  -30.9430 N   0  0  0  0  0  0  0  0  0  0  0  0
   -7.2890   22.6130  -30.9360 C   0  0  0  0  0  0  0  0  0  0  0  0
   -7.6100   23.4880  -30.0820 O   0  0  0  0  0  0  0  0  0  0  0  0
   -8.1570   21.6060  -31.2560 N   0  0  0  0  0  0  0  0  0  0  0  0
   -9.4840   21.5480  -30.6170 C   0  0  0  0  0  0  0  0  0  0  0  0
   -7.8250   20.6930  -32.2270 C   0  0  0  0  0  0  0  0  0  0  0  0
   -8.6590   19.8000  -32.5510 O   0  0  0  0  0  0  0  0  0  0  0  0
   -5.8993   18.8226  -33.3829 H   0  0  0  0  0  0  0  0  0  0  0  0
   -7.1133   19.5323  -34.5006 H   0  0  0  0  0  0  0  0  0  0  0  0
   -5.4252   20.1464  -34.5006 H   0  0  0  0  0  0  0  0  0  0  0  0
   -4.2620   22.3150  -33.9840 H   0  0  0  0  0  0  0  0  0  0  0  0
   -9.3649   21.5532  -29.5235 H   0  0  0  0  0  0  0  0  0  0  0  0
  -10.0779   22.4210  -30.9253 H   0  0  0  0  0  0  0  0  0  0  0  0
   -9.9995   20.6265  -30.9253 H   0  0  0  0  0  0  0  0  0  0  0  0
  1  2  1  0
  2  3  1  0
  3  4  1  0
  3  5  2  0
  5  6  1  0
  6  7  3  0
  5  8  1  0
  8  9  2  0
  8 10  1  0
 10 11  1  0
 10 12  1  0
 12 13  2  0
 12  2  1  0
  1 14  1  0
  1 15  1  0
  1 16  1  0
  4 17  1  0
 11 18  1  0
 11 19  1  0
 11 20  1  0
M  END
>  <UniqueID>  (39) 
36

>  <SMILES>  (39) 
Cn1c(O)c(C#N)c(=O)n(C)c1=O

>  <Energy>  (39) 
27.488300114425748

>  <Genealogy>  (39) 
Cn1c(O)c(C#N)c(=O)n(C)c1=O (3D coordinates assigned)
Cn1c(O)c(C#N)c(=O)n(C)c1=O (optimized conformer: 27.488300114425748 kcal/mol)

>  <smiles>  (39) 
Cn1c(O)c(C#N)c(=O)n(C)c1=O

>  <score_type>  (39) 
oracle

>  <origin>  (39) 
adg

>  <m_score__min__energy>  (39) 
-4.7599999999999998

>  <m_primary>  (39) 
energy

$$$$
39:0
     RDKit          3D

 61 65  0  0  0  0  0  0  0  0999 V2000
   -3.2770   20.7930  -27.8770 O   0  0  0  0  0  0  0  0  0  0  0  0
   -2.4070   21.6900  -27.6950 C   0  0  0  0  0  0  0  0  0  0  0  0
   -0.9510   21.3240  -27.6440 C   0  0  0  0  0  0  0  0  0  0  0  0
   -0.5500   20.5350  -28.8240 N   0  0  0  0  0  0  0  0  0  0  0  0
   -0.5820   21.0700  -30.0960 C   0  0  0  0  0  0  0  0  0  0  0  0
   -1.1370   22.7560  -30.4220 S   0  0  0  0  0  0  0  0  0  0  0  0
   -2.7770   22.2760  -31.0750 C   0  0  0  0  0  0  0  0  0  0  0  0
   -2.6670   21.1870  -32.1070 C   0  0  0  0  0  0  0  0  0  0  0  0
   -3.2680   19.9360  -31.8870 C   0  0  0  0  0  0  0  0  0  0  0  0
   -3.1400   18.9170  -32.8360 C   0  0  0  0  0  0  0  0  0  0  0  0
   -2.4140   19.1400  -34.0090 C   0  0  0  0  0  0  0  0  0  0  0  0
   -2.2890   18.1490  -34.9280 F   0  0  0  0  0  0  0  0  0  0  0  0
   -1.8120   20.3820  -34.2350 C   0  0  0  0  0  0  0  0  0  0  0  0
   -1.9350   21.4010  -33.2870 C   0  0  0  0  0  0  0  0  0  0  0  0
   -0.1790   20.3240  -31.1660 N   0  0  0  0  0  0  0  0  0  0  0  0
    0.2240   19.0360  -31.0260 C   0  0  0  0  0  0  0  0  0  0  0  0
    0.5840   18.3710  -32.0320 O   0  0  0  0  0  0  0  0  0  0  0  0
    0.2240   18.4720  -29.7570 C   0  0  0  0  0  0  0  0  0  0  0  0
   -0.1580   19.2280  -28.6830 C   0  0  0  0  0  0  0  0  0  0  0  0
   -0.0640   18.4520  -27.4150 C   0  0  0  0  0  0  0  0  0  0  0  0
    0.3260   17.0330  -27.8680 C   0  0  0  0  0  0  0  0  0  0  0  0
    0.6170   17.0950  -29.3790 C   0  0  0  0  0  0  0  0  0  0  0  0
   -2.8080   23.0490  -27.4770 N   0  0  0  0  0  0  0  0  0  0  0  0
   -4.1970   23.4840  -27.5830 C   0  0  0  0  0  0  0  0  0  0  0  0
   -4.5000   23.8860  -28.9900 C   0  0  0  0  0  0  0  0  0  0  0  0
   -5.5460   23.4350  -29.7630 C   0  0  0  0  0  0  0  0  0  0  0  0
   -5.4470   24.0870  -30.9330 N   0  0  0  0  0  0  0  0  0  0  0  0
   -6.3580   23.9840  -32.0690 C   0  0  0  0  0  0  0  0  0  0  0  0
   -7.0480   22.6500  -32.0540 C   0  0  0  0  0  0  0  0  0  0  0  0
   -8.2350   22.4710  -31.3270 C   0  0  0  0  0  0  0  0  0  0  0  0
   -8.8490   21.2170  -31.2790 C   0  0  0  0  0  0  0  0  0  0  0  0
   -8.2770   20.1250  -31.9410 C   0  0  0  0  0  0  0  0  0  0  0  0
   -9.0710   18.5590  -31.8450 Cl  0  0  0  0  0  0  0  0  0  0  0  0
   -7.0800   20.2920  -32.6580 C   0  0  0  0  0  0  0  0  0  0  0  0
   -6.3120   18.9400  -33.4790 Cl  0  0  0  0  0  0  0  0  0  0  0  0
   -6.4730   21.5520  -32.7130 C   0  0  0  0  0  0  0  0  0  0  0  0
   -4.4140   24.9130  -30.8710 N   0  0  0  0  0  0  0  0  0  0  0  0
   -3.8140   24.8100  -29.6930 N   0  0  0  0  0  0  0  0  0  0  0  0
   -0.3518   22.2458  -27.6100 H   0  0  0  0  0  0  0  0  0  0  0  0
   -0.7803   20.7124  -26.7458 H   0  0  0  0  0  0  0  0  0  0  0  0
   -3.4011   21.9174  -30.2432 H   0  0  0  0  0  0  0  0  0  0  0  0
   -3.2276   23.1581  -31.5534 H   0  0  0  0  0  0  0  0  0  0  0  0
   -3.8411   19.7577  -30.9652 H   0  0  0  0  0  0  0  0  0  0  0  0
   -3.6112   17.9389  -32.6590 H   0  0  0  0  0  0  0  0  0  0  0  0
   -1.2416   20.5566  -35.1592 H   0  0  0  0  0  0  0  0  0  0  0  0
   -1.4565   22.3753  -33.4653 H   0  0  0  0  0  0  0  0  0  0  0  0
    0.7065   18.8761  -26.7544 H   0  0  0  0  0  0  0  0  0  0  0  0
   -1.0022   18.4679  -26.8410 H   0  0  0  0  0  0  0  0  0  0  0  0
    1.2228   16.6986  -27.3259 H   0  0  0  0  0  0  0  0  0  0  0  0
   -0.4862   16.3215  -27.6580 H   0  0  0  0  0  0  0  0  0  0  0  0
    1.6847   16.9228  -29.5801 H   0  0  0  0  0  0  0  0  0  0  0  0
    0.0752   16.3258  -29.9490 H   0  0  0  0  0  0  0  0  0  0  0  0
   -2.0770   23.7670  -27.2680 H   0  0  0  0  0  0  0  0  0  0  0  0
   -4.8610   22.6578  -27.2890 H   0  0  0  0  0  0  0  0  0  0  0  0
   -4.3575   24.3457  -26.9184 H   0  0  0  0  0  0  0  0  0  0  0  0
   -6.3070   22.6927  -29.4803 H   0  0  0  0  0  0  0  0  0  0  0  0
   -7.1103   24.7841  -32.0065 H   0  0  0  0  0  0  0  0  0  0  0  0
   -5.7845   24.0837  -33.0023 H   0  0  0  0  0  0  0  0  0  0  0  0
   -8.6837   23.3215  -30.7928 H   0  0  0  0  0  0  0  0  0  0  0  0
   -9.7864   21.0875  -30.7182 H   0  0  0  0  0  0  0  0  0  0  0  0
   -5.5378   21.6829  -33.2772 H   0  0  0  0  0  0  0  0  0  0  0  0
  1  2  2  0
  2  3  1  0
  3  4  1  0
  4  5  1  0
  5  6  1  0
  6  7  1  0
  7  8  1  0
  8  9  2  0
  9 10  1  0
 10 11  2  0
 11 12  1  0
 11 13  1  0
 13 14  2  0
  5 15  2  0
 15 16  1  0
 16 17  2  0
 16 18  1  0
 18 19  2  0
 19 20  1  0
 20 21  1  0
 21 22  1  0
  2 23  1  0
 23 24  1  0
 24 25  1  0
 25 26  2  0
 26 27  1  0
 27 28  1  0
 28 29  1  0
 29 30  2  0
 30 31  1  0
 31 32  2  0
 32 33  1  0
 32 34  1  0
 34 35  1  0
 34 36  2  0
 27 37  1  0
 37 38  2  0
 19  4  1  0
 38 25  1  0
 14  8  1  0
 22 18  1  0
 36 29  1  0
  3 39  1  0
  3 40  1  0
  7 41  1  0
  7 42  1  0
  9 43  1  0
 10 44  1  0
 13 45  1  0
 14 46  1  0
 20 47  1  0
 20 48  1  0
 21 49  1  0
 21 50  1  0
 22 51  1  0
 22 52  1  0
 23 53  1  0
 24 54  1  0
 24 55  1  0
 26 56  1  0
 28 57  1  0
 28 58  1  0
 30 59  1  0
 31 60  1  0
 36 61  1  0
M  END
>  <UniqueID>  (40) 
37

>  <SMILES>  (40) 
O=C(Cn1c(SCc2ccc(F)cc2)nc(=O)c2c1CCC2)NCc1cn(Cc2ccc(Cl)c(Cl)c2)nn1

>  <Energy>  (40) 
96.76380004634063

>  <Genealogy>  (40) 
O=C(Cn1c(SCc2ccc(F)cc2)nc(=O)c2c1CCC2)NCc1cn(Cc2ccc(Cl)c(Cl)c2)nn1 (3D coordinates assigned)
O=C(Cn1c(SCc2ccc(F)cc2)nc(=O)c2c1CCC2)NCc1cn(Cc2ccc(Cl)c(Cl)c2)nn1 (nonaromatic ring conformer: 96.76380004634063 kcal/mol)

>  <smiles>  (40) 
O=C(Cn1c(SCc2ccc(F)cc2)nc(=O)c2c1CCC2)NCc1cn(Cc2ccc(Cl)c(Cl)c2)nn1

>  <score_type>  (40) 
oracle

>  <origin>  (40) 
adg

>  <m_score__min__energy>  (40) 
-12.76

>  <m_primary>  (40) 
energy

$$$$
40:0
     RDKit          3D

 31 32  0  0  0  0  0  0  0  0999 V2000
   -4.2159   19.1551  -34.8997 H   0  0  0  0  0  0  0  0  0  0  0  0
   -4.9800   18.5490  -34.3910 C   0  0  0  0  0  0  0  0  0  0  0  0
   -5.9890   19.1580  -33.7120 N   0  0  0  0  0  0  0  0  0  0  0  0
   -6.9610   18.4470  -33.0730 C   0  0  0  0  0  0  0  0  0  0  0  0
   -7.9070   19.0420  -32.4060 N   0  0  0  0  0  0  0  0  0  0  0  0
   -8.0130   20.4510  -32.1470 C   0  0  0  0  0  0  0  0  0  0  0  0
   -9.4200   21.1910  -31.6100 S   0  0  0  0  0  0  0  0  0  0  0  0
   -8.7490   22.7360  -31.6300 C   0  0  0  0  0  0  0  0  0  0  0  0
   -9.2561   23.6660  -31.3335 H   0  0  0  0  0  0  0  0  0  0  0  0
   -7.4370   22.6270  -32.0890 C   0  0  0  0  0  0  0  0  0  0  0  0
   -6.5130   23.7990  -32.2180 C   0  0  0  0  0  0  0  0  0  0  0  0
   -6.9856   24.6885  -31.7760 H   0  0  0  0  0  0  0  0  0  0  0  0
   -6.3035   23.9845  -33.2818 H   0  0  0  0  0  0  0  0  0  0  0  0
   -5.2340   23.5080  -31.5030 C   0  0  0  0  0  0  0  0  0  0  0  0
   -4.6030   24.4430  -30.9380 O   0  0  0  0  0  0  0  0  0  0  0  0
   -4.7830   22.1860  -31.4190 O   0  0  0  0  0  0  0  0  0  0  0  0
   -3.5070   21.7610  -31.8890 C   0  0  0  0  0  0  0  0  0  0  0  0
   -3.2281   20.8251  -31.3827 H   0  0  0  0  0  0  0  0  0  0  0  0
   -2.7678   22.5456  -31.6699 H   0  0  0  0  0  0  0  0  0  0  0  0
   -3.5440   21.5250  -33.3950 C   0  0  0  0  0  0  0  0  0  0  0  0
   -3.7115   20.4563  -33.5947 H   0  0  0  0  0  0  0  0  0  0  0  0
   -4.3609   22.1133  -33.8384 H   0  0  0  0  0  0  0  0  0  0  0  0
   -2.5863   21.8351  -33.8384 H   0  0  0  0  0  0  0  0  0  0  0  0
   -7.0380   21.3590  -32.3810 N   0  0  0  0  0  0  0  0  0  0  0  0
   -6.0980   21.1350  -32.7750 H   0  0  0  0  0  0  0  0  0  0  0  0
   -6.9170   17.0460  -33.0950 C   0  0  0  0  0  0  0  0  0  0  0  0
   -7.6853   16.4584  -32.5711 H   0  0  0  0  0  0  0  0  0  0  0  0
   -5.8890   16.4030  -33.7880 C   0  0  0  0  0  0  0  0  0  0  0  0
   -5.8484   15.3041  -33.8177 H   0  0  0  0  0  0  0  0  0  0  0  0
   -4.9130   17.1560  -34.4430 C   0  0  0  0  0  0  0  0  0  0  0  0
   -4.1013   16.6577  -34.9932 H   0  0  0  0  0  0  0  0  0  0  0  0
  1  2  1  0
  2  3  1  0
  3  4  1  0
  4  5  2  0
  5  6  1  0
  6  7  1  0
  7  8  1  0
  8  9  1  0
  8 10  2  0
 10 11  1  0
 11 12  1  0
 11 13  1  0
 11 14  1  0
 14 15  2  0
 14 16  1  0
 16 17  1  0
 17 18  1  0
 17 19  1  0
 17 20  1  0
 20 21  1  0
 20 22  1  0
 20 23  1  0
 10 24  1  0
 24 25  1  0
  4 26  1  0
 26 27  1  0
 26 28  2  0
 28 29  1  0
 28 30  1  0
 30 31  1  0
 30  2  2  0
 24  6  2  0
M  CHG  2   3  -1  24   1
M  END
>  <UniqueID>  (41) 
38

>  <SMILES>  (41) 
CCOC(=O)Cc1csc(/N=c2/cccc[n-]2)[nH+]1

>  <Energy>  (41) 
58.417331548099455

>  <Genealogy>  (41) 
CCOC(=O)Cc1csc(N=c2cccc[n-]2)[nH+]1 (protonated)
CCOC(=O)Cc1csc(/N=c2/cccc[n-]2)[nH+]1 (cis-trans isomerization)
CCOC(=O)Cc1csc(/N=c2/cccc[n-]2)[nH+]1 (3D coordinates assigned)
CCOC(=O)Cc1csc(/N=c2/cccc[n-]2)[nH+]1 (optimized conformer: 58.417331548099455 kcal/mol)

>  <smiles>  (41) 
CCOC(=O)Cc1csc(N=c2cccc[nH]2)n1

>  <score_type>  (41) 
oracle

>  <origin>  (41) 
adg

>  <m_score__min__energy>  (41) 
-6.0700000000000003

>  <m_primary>  (41) 
energy

$$$$
41:0
     RDKit          3D

 26 26  0  0  0  0  0  0  0  0999 V2000
   -8.5720   19.6090  -32.1330 C   0  0  0  0  0  0  0  0  0  0  0  0
   -7.1910   19.3150  -32.7080 C   0  0  0  0  0  0  0  0  0  0  0  0
   -6.2720   20.4830  -32.5050 C   0  0  0  0  0  0  0  0  0  0  0  0
   -5.0090   20.5660  -33.0850 C   0  0  0  0  0  0  0  0  0  0  0  0
   -4.3470   22.0580  -32.6840 S   0  0  0  0  0  0  0  0  0  0  0  0
   -5.6480   22.6050  -31.7600 C   0  0  0  0  0  0  0  0  0  0  0  0
   -5.7940   23.9710  -31.1430 C   0  0  1  0  0  0  0  0  0  0  0  0
   -6.8610   23.9870  -30.0460 C   0  0  0  0  0  0  0  0  0  0  0  0
   -4.5070   24.4250  -30.5970 N   0  0  0  0  0  0  0  0  0  0  0  0
   -4.0990   25.7010  -30.8160 O   0  0  0  0  0  0  0  0  0  0  0  0
   -3.5840   23.5170  -29.9810 C   0  0  0  0  0  0  0  0  0  0  0  0
   -2.4010   23.8680  -29.7200 O   0  0  0  0  0  0  0  0  0  0  0  0
   -6.6360   21.6290  -31.7810 C   0  0  0  0  0  0  0  0  0  0  0  0
   -8.5216   19.5983  -31.0342 H   0  0  0  0  0  0  0  0  0  0  0  0
   -8.9084   20.5989  -32.4750 H   0  0  0  0  0  0  0  0  0  0  0  0
   -9.2824   18.8420  -32.4750 H   0  0  0  0  0  0  0  0  0  0  0  0
   -6.7703   18.4327  -32.2035 H   0  0  0  0  0  0  0  0  0  0  0  0
   -7.2902   19.1267  -33.7872 H   0  0  0  0  0  0  0  0  0  0  0  0
   -4.5281   19.7902  -33.6988 H   0  0  0  0  0  0  0  0  0  0  0  0
   -6.1165   24.6595  -31.9379 H   0  0  0  0  0  0  0  0  0  0  0  0
   -6.3733   23.9797  -29.0600 H   0  0  0  0  0  0  0  0  0  0  0  0
   -7.4748   24.8944  -30.1447 H   0  0  0  0  0  0  0  0  0  0  0  0
   -7.5018   23.0984  -30.1447 H   0  0  0  0  0  0  0  0  0  0  0  0
   -3.1120   25.6720  -30.7330 H   0  0  0  0  0  0  0  0  0  0  0  0
   -3.9131   22.4974  -29.7319 H   0  0  0  0  0  0  0  0  0  0  0  0
   -7.6083   21.7430  -31.2794 H   0  0  0  0  0  0  0  0  0  0  0  0
  1  2  1  0
  2  3  1  0
  3  4  2  0
  4  5  1  0
  5  6  1  0
  6  7  1  0
  7  8  1  0
  7  9  1  0
  9 10  1  0
  9 11  1  0
 11 12  2  0
  6 13  2  0
 13  3  1  0
  1 14  1  0
  1 15  1  0
  1 16  1  0
  2 17  1  0
  2 18  1  0
  4 19  1  0
  7 20  1  6
  8 21  1  0
  8 22  1  0
  8 23  1  0
 10 24  1  0
 11 25  1  0
 13 26  1  0
M  END
>  <UniqueID>  (42) 
39

>  <SMILES>  (42) 
CCc1csc([C@@H](C)N(O)C=O)c1

>  <Energy>  (42) 
41.56126609123837

>  <Genealogy>  (42) 
CCc1csc([C@@H](C)N(O)C=O)c1 (chirality)
CCc1csc([C@@H](C)N(O)C=O)c1 (3D coordinates assigned)
CCc1csc([C@@H](C)N(O)C=O)c1 (optimized conformer: 41.56126609123837 kcal/mol)

>  <smiles>  (42) 
CCc1csc(C(C)N(O)C=O)c1

>  <score_type>  (42) 
oracle

>  <origin>  (42) 
adg

>  <m_score__min__energy>  (42) 
-6.3600000000000003

>  <m_primary>  (42) 
energy

$$$$
42:0
     RDKit          3D

 30 32  0  0  0  0  0  0  0  0999 V2000
   -7.5280   23.3920  -32.0040 C   0  0  0  0  0  0  0  0  0  0  0  0
   -6.2640   22.8450  -31.5080 N   0  0  0  0  0  0  0  0  0  0  0  0
   -5.8810   21.5390  -31.4100 C   0  0  0  0  0  0  0  0  0  0  0  0
   -6.6720   20.3840  -31.8850 C   0  0  0  0  0  0  0  0  0  0  0  0
   -7.9840   20.2020  -31.4220 C   0  0  0  0  0  0  0  0  0  0  0  0
   -8.7340   19.0990  -31.8410 C   0  0  0  0  0  0  0  0  0  0  0  0
   -8.1740   18.1610  -32.7120 C   0  0  0  0  0  0  0  0  0  0  0  0
   -6.8610   18.3210  -33.1590 C   0  0  0  0  0  0  0  0  0  0  0  0
   -6.1070   19.4240  -32.7430 C   0  0  0  0  0  0  0  0  0  0  0  0
   -4.6630   21.3790  -30.8260 N   0  0  0  0  0  0  0  0  0  0  0  0
   -4.2750   22.6440  -30.5820 C   0  0  0  0  0  0  0  0  0  0  0  0
   -5.2220   23.5250  -30.9930 C   0  0  0  0  0  0  0  0  0  0  0  0
   -5.0140   24.8920  -30.8340 C   0  0  0  0  0  0  0  0  0  0  0  0
   -5.8570   25.7440  -31.2200 O   0  0  0  0  0  0  0  0  0  0  0  0
   -3.8540   25.2940  -30.2440 N   0  0  0  0  0  0  0  0  0  0  0  0
   -2.9090   24.3940  -29.8250 C   0  0  0  0  0  0  0  0  0  0  0  0
   -1.8610   24.8220  -29.2700 O   0  0  0  0  0  0  0  0  0  0  0  0
   -3.1020   23.0430  -30.0090 N   0  0  0  0  0  0  0  0  0  0  0  0
   -2.1190   22.0600  -29.5380 C   0  0  0  0  0  0  0  0  0  0  0  0
   -8.1671   23.6686  -31.1525 H   0  0  0  0  0  0  0  0  0  0  0  0
   -7.3267   24.2835  -32.6161 H   0  0  0  0  0  0  0  0  0  0  0  0
   -8.0401   22.6350  -32.6161 H   0  0  0  0  0  0  0  0  0  0  0  0
   -8.4247   20.9308  -30.7259 H   0  0  0  0  0  0  0  0  0  0  0  0
   -9.7665   18.9695  -31.4844 H   0  0  0  0  0  0  0  0  0  0  0  0
   -8.7673   17.2968  -33.0454 H   0  0  0  0  0  0  0  0  0  0  0  0
   -6.4184   17.5786  -33.8394 H   0  0  0  0  0  0  0  0  0  0  0  0
   -5.0691   19.5404  -33.0883 H   0  0  0  0  0  0  0  0  0  0  0  0
   -2.1088   22.0498  -28.4381 H   0  0  0  0  0  0  0  0  0  0  0  0
   -2.3909   21.0617  -29.9115 H   0  0  0  0  0  0  0  0  0  0  0  0
   -1.1207   22.3319  -29.9115 H   0  0  0  0  0  0  0  0  0  0  0  0
  1  2  1  0
  2  3  1  0
  3  4  1  0
  4  5  2  0
  5  6  1  0
  6  7  2  0
  7  8  1  0
  8  9  2  0
  3 10  2  0
 10 11  1  0
 11 12  2  0
 12 13  1  0
 13 14  2  0
 13 15  1  0
 15 16  1  0
 16 17  2  0
 16 18  1  0
 18 19  1  0
 12  2  1  0
  9  4  1  0
 18 11  1  0
  1 20  1  0
  1 21  1  0
  1 22  1  0
  5 23  1  0
  6 24  1  0
  7 25  1  0
  8 26  1  0
  9 27  1  0
 19 28  1  0
 19 29  1  0
 19 30  1  0
M  CHG  1  15  -1
M  END
>  <UniqueID>  (43) 
40

>  <SMILES>  (43) 
Cn1c(-c2ccccc2)nc2c1c(=O)[n-]c(=O)n2C

>  <Energy>  (43) 
80.45744664004489

>  <Genealogy>  (43) 
Cn1c(-c2ccccc2)nc2c1c(=O)[n-]c(=O)n2C (protonated)
Cn1c(-c2ccccc2)nc2c1c(=O)[n-]c(=O)n2C (3D coordinates assigned)
Cn1c(-c2ccccc2)nc2c1c(=O)[n-]c(=O)n2C (optimized conformer: 80.45744664004489 kcal/mol)

>  <smiles>  (43) 
Cn1c(-c2ccccc2)nc2c1c(=O)[nH]c(=O)n2C

>  <score_type>  (43) 
oracle

>  <origin>  (43) 
adg

>  <m_score__min__energy>  (43) 
-8.2100000000000009

>  <m_primary>  (43) 
energy

$$$$
43:0
     RDKit          3D

 26 26  0  0  0  0  0  0  0  0999 V2000
   -1.6640   25.6840  -26.9890 C   0  0  0  0  0  0  0  0  0  0  0  0
   -1.2280   25.7280  -28.4490 C   0  0  0  0  0  0  0  0  0  0  0  0
   -2.2970   25.2480  -29.3230 N   0  0  0  0  0  0  0  0  0  0  0  0
   -3.0300   24.0270  -29.1530 C   0  0  0  0  0  0  0  0  0  0  0  0
   -2.5740   23.1520  -28.3700 O   0  0  0  0  0  0  0  0  0  0  0  0
   -4.2990   23.7660  -29.8600 C   0  0  0  0  0  0  0  0  0  0  0  0
   -4.8590   22.4800  -29.8450 C   0  0  0  0  0  0  0  0  0  0  0  0
   -6.0690   22.2250  -30.4970 C   0  0  0  0  0  0  0  0  0  0  0  0
   -6.7450   23.2610  -31.1670 C   0  0  0  0  0  0  0  0  0  0  0  0
   -7.9600   23.0560  -31.8370 O   0  0  0  0  0  0  0  0  0  0  0  0
   -8.8400   21.9630  -31.5910 C   0  0  0  0  0  0  0  0  0  0  0  0
   -6.1940   24.5470  -31.1670 C   0  0  0  0  0  0  0  0  0  0  0  0
   -4.9800   24.8080  -30.5170 C   0  0  0  0  0  0  0  0  0  0  0  0
   -4.4420   26.0950  -30.5310 O   0  0  0  0  0  0  0  0  0  0  0  0
   -0.7806   25.7732  -26.3397 H   0  0  0  0  0  0  0  0  0  0  0  0
   -2.3532   26.5172  -26.7869 H   0  0  0  0  0  0  0  0  0  0  0  0
   -2.1728   24.7299  -26.7869 H   0  0  0  0  0  0  0  0  0  0  0  0
   -0.9782   26.7644  -28.7200 H   0  0  0  0  0  0  0  0  0  0  0  0
   -0.3497   25.0778  -28.5752 H   0  0  0  0  0  0  0  0  0  0  0  0
   -4.3420   21.6658  -29.3161 H   0  0  0  0  0  0  0  0  0  0  0  0
   -6.4941   21.2105  -30.4861 H   0  0  0  0  0  0  0  0  0  0  0  0
   -8.9542   21.8212  -30.5062 H   0  0  0  0  0  0  0  0  0  0  0  0
   -9.8222   22.1752  -32.0384 H   0  0  0  0  0  0  0  0  0  0  0  0
   -8.4231   21.0487  -32.0384 H   0  0  0  0  0  0  0  0  0  0  0  0
   -6.7201   25.3634  -31.6835 H   0  0  0  0  0  0  0  0  0  0  0  0
   -3.8590   26.4350  -29.7740 H   0  0  0  0  0  0  0  0  0  0  0  0
  1  2  1  0
  2  3  1  0
  3  4  1  0
  4  5  2  0
  4  6  1  0
  6  7  2  0
  7  8  1  0
  8  9  2  0
  9 10  1  0
 10 11  1  0
  9 12  1  0
 12 13  2  0
 13 14  1  0
 13  6  1  0
  1 15  1  0
  1 16  1  0
  1 17  1  0
  2 18  1  0
  2 19  1  0
  7 20  1  0
  8 21  1  0
 11 22  1  0
 11 23  1  0
 11 24  1  0
 12 25  1  0
 14 26  1  0
M  CHG  1   3  -1
M  END
>  <UniqueID>  (44) 
41

>  <SMILES>  (44) 
CC[N-]C(=O)c1ccc(OC)cc1O

>  <Energy>  (44) 
25.187537100618588

>  <Genealogy>  (44) 
CC[N-]C(=O)c1ccc(OC)cc1O (protonated)
CC[N-]C(=O)c1ccc(OC)cc1O (3D coordinates assigned)
CC[N-]C(=O)c1ccc(OC)cc1O (optimized conformer: 25.187537100618588 kcal/mol)

>  <smiles>  (44) 
CCNC(=O)c1ccc(OC)cc1O

>  <score_type>  (44) 
oracle

>  <origin>  (44) 
adg

>  <m_score__min__energy>  (44) 
-7.1900000000000004

>  <m_primary>  (44) 
energy

$$$$
44:0
     RDKit          3D

 40 40  0  0  0  0  0  0  0  0999 V2000
   -2.8390   24.6020  -31.5980 H   0  0  0  0  0  0  0  0  0  0  0  0
   -3.4980   24.5430  -30.8330 O   0  0  0  0  0  0  0  0  0  0  0  0
   -4.5460   25.4300  -30.7590 N   0  0  0  0  0  0  0  0  0  0  0  0
   -5.7550   25.0060  -30.5710 C   0  0  0  0  0  0  0  0  0  0  0  0
   -6.4274   25.5657  -29.9042 H   0  0  0  0  0  0  0  0  0  0  0  0
   -6.2450   23.7840  -31.2370 C   0  0  0  0  0  0  0  0  0  0  0  0
   -7.6190   23.5060  -31.2340 C   0  0  0  0  0  0  0  0  0  0  0  0
   -8.3223   24.1988  -30.7489 H   0  0  0  0  0  0  0  0  0  0  0  0
   -8.0890   22.3470  -31.8490 C   0  0  0  0  0  0  0  0  0  0  0  0
   -9.1662   22.1244  -31.8551 H   0  0  0  0  0  0  0  0  0  0  0  0
   -7.1920   21.4710  -32.4560 C   0  0  0  0  0  0  0  0  0  0  0  0
   -7.5565   20.5541  -32.9422 H   0  0  0  0  0  0  0  0  0  0  0  0
   -5.8210   21.7660  -32.4430 C   0  0  0  0  0  0  0  0  0  0  0  0
   -4.8370   20.8020  -33.0500 C   0  0  0  0  0  0  0  0  0  0  0  0
   -4.1303   20.4826  -32.2699 H   0  0  0  0  0  0  0  0  0  0  0  0
   -4.3259   21.3229  -33.8731 H   0  0  0  0  0  0  0  0  0  0  0  0
   -5.5160   19.5540  -33.6400 C   0  0  0  0  0  0  0  0  0  0  0  0
   -5.8730   19.7992  -34.6511 H   0  0  0  0  0  0  0  0  0  0  0  0
   -6.3350   19.2830  -32.9575 H   0  0  0  0  0  0  0  0  0  0  0  0
   -4.5880   18.3250  -33.7370 C   0  0  0  0  0  0  0  0  0  0  0  0
   -3.5903   18.6076  -33.3700 H   0  0  0  0  0  0  0  0  0  0  0  0
   -4.5603   18.0122  -34.7912 H   0  0  0  0  0  0  0  0  0  0  0  0
   -5.0960   17.1300  -32.9110 C   0  0  0  0  0  0  0  0  0  0  0  0
   -4.2432   16.6833  -32.3789 H   0  0  0  0  0  0  0  0  0  0  0  0
   -5.5602   16.4191  -33.6103 H   0  0  0  0  0  0  0  0  0  0  0  0
   -6.1660   17.5270  -31.8780 C   0  0  0  0  0  0  0  0  0  0  0  0
   -5.9134   18.5259  -31.4928 H   0  0  0  0  0  0  0  0  0  0  0  0
   -6.1522   16.7429  -31.1066 H   0  0  0  0  0  0  0  0  0  0  0  0
   -7.6110   17.5740  -32.4160 C   0  0  0  0  0  0  0  0  0  0  0  0
   -8.0414   16.5657  -32.3256 H   0  0  0  0  0  0  0  0  0  0  0  0
   -7.5401   17.9280  -33.4551 H   0  0  0  0  0  0  0  0  0  0  0  0
   -8.5440   18.5570  -31.6910 C   0  0  0  0  0  0  0  0  0  0  0  0
   -7.9276   19.2840  -31.1419 H   0  0  0  0  0  0  0  0  0  0  0  0
   -9.1829   17.9661  -31.0182 H   0  0  0  0  0  0  0  0  0  0  0  0
   -9.4670   19.3210  -32.6400 C   0  0  0  0  0  0  0  0  0  0  0  0
  -10.1844   19.9149  -32.0547 H   0  0  0  0  0  0  0  0  0  0  0  0
   -8.8677   19.9909  -33.2741 H   0  0  0  0  0  0  0  0  0  0  0  0
  -10.0131   18.6071  -33.2741 H   0  0  0  0  0  0  0  0  0  0  0  0
   -5.3820   22.9130  -31.8440 N   0  0  0  0  0  0  0  0  0  0  0  0
   -4.3570   23.1180  -31.8410 H   0  0  0  0  0  0  0  0  0  0  0  0
  1  2  1  0
  2  3  1  0
  3  4  2  0
  4  5  1  0
  4  6  1  0
  6  7  2  0
  7  8  1  0
  7  9  1  0
  9 10  1  0
  9 11  2  0
 11 12  1  0
 11 13  1  0
 13 14  1  0
 14 15  1  0
 14 16  1  0
 14 17  1  0
 17 18  1  0
 17 19  1  0
 17 20  1  0
 20 21  1  0
 20 22  1  0
 20 23  1  0
 23 24  1  0
 23 25  1  0
 23 26  1  0
 26 27  1  0
 26 28  1  0
 26 29  1  0
 29 30  1  0
 29 31  1  0
 29 32  1  0
 32 33  1  0
 32 34  1  0
 32 35  1  0
 35 36  1  0
 35 37  1  0
 35 38  1  0
 13 39  2  0
 39 40  1  0
 39  6  1  0
M  CHG  1  39   1
M  END
>  <UniqueID>  (45) 
42

>  <SMILES>  (45) 
CCCCCCCCc1cccc(/C=N/O)[nH+]1

>  <Energy>  (45) 
22.5416423577104

>  <Genealogy>  (45) 
CCCCCCCCc1cccc(C=NO)[nH+]1 (protonated)
CCCCCCCCc1cccc(/C=N/O)[nH+]1 (cis-trans isomerization)
CCCCCCCCc1cccc(/C=N/O)[nH+]1 (3D coordinates assigned)
CCCCCCCCc1cccc(/C=N/O)[nH+]1 (optimized conformer: 22.5416423577104 kcal/mol)

>  <smiles>  (45) 
CCCCCCCCc1cccc(C=NO)n1

>  <score_type>  (45) 
oracle

>  <origin>  (45) 
adg

>  <m_score__min__energy>  (45) 
-6.2199999999999998

>  <m_primary>  (45) 
energy

$$$$
45:0
     RDKit          3D

 32 34  0  0  0  0  0  0  0  0999 V2000
   -9.8690   21.1260  -31.9960 C   0  0  0  0  0  0  0  0  0  0  0  0
   -8.3920   21.0580  -32.2470 C   0  0  0  0  0  0  0  0  0  0  0  0
   -7.8330   19.9340  -32.9040 C   0  0  0  0  0  0  0  0  0  0  0  0
   -6.4530   19.8730  -33.1730 C   0  0  0  0  0  0  0  0  0  0  0  0
   -5.6650   20.9550  -32.7890 C   0  0  0  0  0  0  0  0  0  0  0  0
   -4.3360   21.0890  -32.9360 N   0  0  0  0  0  0  0  0  0  0  0  0
   -4.0180   22.2900  -32.4020 C   0  0  0  0  0  0  0  0  0  0  0  0
   -5.1600   22.9260  -31.9250 C   0  0  0  0  0  0  0  0  0  0  0  0
   -5.2140   24.2330  -31.1940 C   0  0  0  0  0  0  0  0  0  0  0  0
   -4.3000   24.1960  -30.0080 C   0  0  0  0  0  0  0  0  0  0  0  0
   -4.6450   23.4720  -28.8600 C   0  0  0  0  0  0  0  0  0  0  0  0
   -3.7920   23.4890  -27.7560 C   0  0  0  0  0  0  0  0  0  0  0  0
   -2.6090   24.2320  -27.7960 C   0  0  0  0  0  0  0  0  0  0  0  0
   -1.7660   24.2400  -26.6850 O   0  0  0  0  0  0  0  0  0  0  0  0
   -2.3000   24.9550  -28.9600 C   0  0  0  0  0  0  0  0  0  0  0  0
   -1.2450   25.6380  -29.0290 O   0  0  0  0  0  0  0  0  0  0  0  0
   -3.1470   24.9220  -30.0230 N   0  0  0  0  0  0  0  0  0  0  0  0
   -6.2040   22.0540  -32.1700 C   0  0  0  0  0  0  0  0  0  0  0  0
   -7.5660   22.1440  -31.8840 C   0  0  0  0  0  0  0  0  0  0  0  0
  -10.0567   21.1346  -30.9122 H   0  0  0  0  0  0  0  0  0  0  0  0
  -10.2755   22.0438  -32.4459 H   0  0  0  0  0  0  0  0  0  0  0  0
  -10.3581   20.2494  -32.4459 H   0  0  0  0  0  0  0  0  0  0  0  0
   -8.4842   19.1008  -33.2068 H   0  0  0  0  0  0  0  0  0  0  0  0
   -6.0105   18.9978  -33.6711 H   0  0  0  0  0  0  0  0  0  0  0  0
   -3.6760   20.4000  -33.3620 H   0  0  0  0  0  0  0  0  0  0  0  0
   -3.0007   22.7053  -32.3518 H   0  0  0  0  0  0  0  0  0  0  0  0
   -4.9002   25.0417  -31.8704 H   0  0  0  0  0  0  0  0  0  0  0  0
   -6.2436   24.4117  -30.8504 H   0  0  0  0  0  0  0  0  0  0  0  0
   -5.5808   22.8947  -28.8289 H   0  0  0  0  0  0  0  0  0  0  0  0
   -4.0510   22.9168  -26.8529 H   0  0  0  0  0  0  0  0  0  0  0  0
   -0.9150   24.7890  -26.6610 H   0  0  0  0  0  0  0  0  0  0  0  0
   -7.9840   23.0339  -31.3907 H   0  0  0  0  0  0  0  0  0  0  0  0
  1  2  1  0
  2  3  2  0
  3  4  1  0
  4  5  2  0
  5  6  1  0
  6  7  1  0
  7  8  2  0
  8  9  1  0
  9 10  1  0
 10 11  2  0
 11 12  1  0
 12 13  2  0
 13 14  1  0
 13 15  1  0
 15 16  2  0
 15 17  1  0
  8 18  1  0
 18 19  2  0
 19  2  1  0
 18  5  1  0
 17 10  1  0
  1 20  1  0
  1 21  1  0
  1 22  1  0
  3 23  1  0
  4 24  1  0
  6 25  1  0
  7 26  1  0
  9 27  1  0
  9 28  1  0
 11 29  1  0
 12 30  1  0
 14 31  1  0
 19 32  1  0
M  CHG  1  17  -1
M  END
>  <UniqueID>  (46) 
43

>  <SMILES>  (46) 
Cc1ccc2[nH]cc(Cc3ccc(O)c(=O)[n-]3)c2c1

>  <Energy>  (46) 
64.99040793546523

>  <Genealogy>  (46) 
Cc1ccc2[nH]cc(Cc3ccc(O)c(=O)[n-]3)c2c1 (protonated)
Cc1ccc2[nH]cc(Cc3ccc(O)c(=O)[n-]3)c2c1 (3D coordinates assigned)
Cc1ccc2[nH]cc(Cc3ccc(O)c(=O)[n-]3)c2c1 (optimized conformer: 64.99040793546523 kcal/mol)

>  <smiles>  (46) 
Cc1ccc2[nH]cc(Cc3ccc(O)c(=O)[nH]3)c2c1

>  <score_type>  (46) 
oracle

>  <origin>  (46) 
adg

>  <m_score__min__energy>  (46) 
-8.7799999999999994

>  <m_primary>  (46) 
energy

$$$$
46:0
     RDKit          3D

 54 58  0  0  0  0  0  0  0  0999 V2000
   -2.9560   19.7220  -27.0520 C   0  0  0  0  0  0  0  0  0  0  0  0
   -1.5850   19.8570  -27.6610 C   0  0  0  0  0  0  0  0  0  0  0  0
   -0.5730   18.9700  -27.2620 C   0  0  0  0  0  0  0  0  0  0  0  0
    0.6960   19.0440  -27.8370 C   0  0  0  0  0  0  0  0  0  0  0  0
    0.9500   20.0110  -28.8070 C   0  0  0  0  0  0  0  0  0  0  0  0
   -0.0260   20.8810  -29.1720 N   0  0  0  0  0  0  0  0  0  0  0  0
   -1.2730   20.8500  -28.6230 C   0  0  0  0  0  0  0  0  0  0  0  0
   -2.2570   21.8560  -29.0760 C   0  0  0  0  0  0  0  0  0  0  0  0
   -1.9870   23.2190  -28.9040 C   0  0  0  0  0  0  0  0  0  0  0  0
   -2.9150   24.1780  -29.3130 C   0  0  0  0  0  0  0  0  0  0  0  0
   -4.1300   23.7900  -29.8910 C   0  0  0  0  0  0  0  0  0  0  0  0
   -5.2760   25.0540  -30.3220 Cl  0  0  0  0  0  0  0  0  0  0  0  0
   -4.4250   22.4180  -30.0560 C   0  0  0  0  0  0  0  0  0  0  0  0
   -5.6600   21.9820  -30.6500 N   0  0  0  0  0  0  0  0  0  0  0  0
   -5.7650   20.9230  -31.4510 N   0  0  0  0  0  0  0  0  0  0  0  0
   -7.0730   20.8190  -31.7590 C   0  0  0  0  0  0  0  0  0  0  0  0
   -7.7420   19.8700  -32.5690 C   0  0  0  0  0  0  0  0  0  0  0  0
   -7.0540   18.7840  -33.2700 N   0  0  0  0  0  0  0  0  0  0  0  0
   -7.2520   17.3980  -32.7870 C   0  0  0  0  0  0  0  0  0  0  0  0
   -6.5460   16.3070  -33.6070 C   0  0  0  0  0  0  0  0  0  0  0  0
   -5.2730   16.7470  -34.1840 N   0  0  0  0  0  0  0  0  0  0  0  0
   -4.2390   17.0010  -33.1660 C   0  0  0  0  0  0  0  0  0  0  0  0
   -5.5010   17.8920  -35.0700 C   0  0  0  0  0  0  0  0  0  0  0  0
   -6.0820   19.1070  -34.3350 C   0  0  0  0  0  0  0  0  0  0  0  0
   -9.1570   20.0380  -32.6540 C   0  0  0  0  0  0  0  0  0  0  0  0
   -9.8210   21.0880  -31.9820 C   0  0  0  0  0  0  0  0  0  0  0  0
   -9.1060   22.0040  -31.1980 C   0  0  0  0  0  0  0  0  0  0  0  0
   -7.7340   21.8290  -31.1140 C   0  0  0  0  0  0  0  0  0  0  0  0
   -6.8410   22.5470  -30.4230 N   0  0  0  0  0  0  0  0  0  0  0  0
   -3.4850   21.4610  -29.6320 C   0  0  0  0  0  0  0  0  0  0  0  0
   -2.8724   19.7302  -25.9552 H   0  0  0  0  0  0  0  0  0  0  0  0
   -3.5864   20.5624  -27.3780 H   0  0  0  0  0  0  0  0  0  0  0  0
   -3.4104   18.7748  -27.3780 H   0  0  0  0  0  0  0  0  0  0  0  0
   -0.7815   18.2126  -26.4920 H   0  0  0  0  0  0  0  0  0  0  0  0
    1.4878   18.3459  -27.5276 H   0  0  0  0  0  0  0  0  0  0  0  0
    1.9425   20.0697  -29.2777 H   0  0  0  0  0  0  0  0  0  0  0  0
   -1.0391   23.5356  -28.4444 H   0  0  0  0  0  0  0  0  0  0  0  0
   -2.6902   25.2466  -29.1803 H   0  0  0  0  0  0  0  0  0  0  0  0
   -6.8777   17.3419  -31.7542 H   0  0  0  0  0  0  0  0  0  0  0  0
   -8.3295   17.1963  -32.8784 H   0  0  0  0  0  0  0  0  0  0  0  0
   -6.3523   15.4467  -32.9495 H   0  0  0  0  0  0  0  0  0  0  0  0
   -7.2106   16.0480  -34.4444 H   0  0  0  0  0  0  0  0  0  0  0  0
   -4.6776   16.8933  -32.1630 H   0  0  0  0  0  0  0  0  0  0  0  0
   -3.4194   16.2775  -33.2874 H   0  0  0  0  0  0  0  0  0  0  0  0
   -3.8479   18.0219  -33.2874 H   0  0  0  0  0  0  0  0  0  0  0  0
   -4.5417   18.1816  -35.5238 H   0  0  0  0  0  0  0  0  0  0  0  0
   -6.2348   17.5823  -35.8287 H   0  0  0  0  0  0  0  0  0  0  0  0
   -5.2483   19.6617  -33.8798 H   0  0  0  0  0  0  0  0  0  0  0  0
   -6.6325   19.6891  -35.0887 H   0  0  0  0  0  0  0  0  0  0  0  0
   -9.7453   19.3317  -33.2583 H   0  0  0  0  0  0  0  0  0  0  0  0
  -10.9125   21.1881  -32.0750 H   0  0  0  0  0  0  0  0  0  0  0  0
   -9.6125   22.8266  -30.6719 H   0  0  0  0  0  0  0  0  0  0  0  0
   -7.0220   23.3900  -29.8300 H   0  0  0  0  0  0  0  0  0  0  0  0
   -3.7145   20.3904  -29.7372 H   0  0  0  0  0  0  0  0  0  0  0  0
  1  2  1  0
  2  3  2  0
  3  4  1  0
  4  5  2  0
  5  6  1  0
  6  7  2  0
  7  8  1  0
  8  9  2  0
  9 10  1  0
 10 11  2  0
 11 12  1  0
 11 13  1  0
 13 14  1  0
 14 15  1  0
 15 16  2  0
 16 17  1  0
 17 18  1  0
 18 19  1  0
 19 20  1  0
 20 21  1  0
 21 22  1  0
 21 23  1  0
 23 24  1  0
 17 25  2  0
 25 26  1  0
 26 27  2  0
 27 28  1  0
 28 29  2  0
 13 30  2  0
  7  2  1  0
 30  8  1  0
 29 14  1  0
 28 16  1  0
 24 18  1  0
  1 31  1  0
  1 32  1  0
  1 33  1  0
  3 34  1  0
  4 35  1  0
  5 36  1  0
  9 37  1  0
 10 38  1  0
 19 39  1  0
 19 40  1  0
 20 41  1  0
 20 42  1  0
 22 43  1  0
 22 44  1  0
 22 45  1  0
 23 46  1  0
 23 47  1  0
 24 48  1  0
 24 49  1  0
 25 50  1  0
 26 51  1  0
 27 52  1  0
 29 53  1  0
 30 54  1  0
M  CHG  1  29   1
M  END
>  <UniqueID>  (47) 
44

>  <SMILES>  (47) 
Cc1cccnc1-c1ccc(Cl)c(-n2nc3c(N4CCN(C)CC4)cccc3[nH+]2)c1

>  <Energy>  (47) 
126.77190978914516

>  <Genealogy>  (47) 
Cc1cccnc1-c1ccc(Cl)c(-n2nc3c(N4CCN(C)CC4)cccc3[nH+]2)c1 (protonated)
Cc1cccnc1-c1ccc(Cl)c(-n2nc3c(N4CCN(C)CC4)cccc3[nH+]2)c1 (3D coordinates assigned)
Cc1cccnc1-c1ccc(Cl)c(-n2nc3c(N4CCN(C)CC4)cccc3[nH+]2)c1 (nonaromatic ring conformer: 126.77190978914516 kcal/mol)

>  <smiles>  (47) 
Cc1cccnc1-c1ccc(Cl)c(-n2nc3cccc(N4CCN(C)CC4)c3n2)c1

>  <score_type>  (47) 
oracle

>  <origin>  (47) 
adg

>  <m_score__min__energy>  (47) 
-9.5899999999999999

>  <m_primary>  (47) 
energy

$$$$
47:0
     RDKit          3D

 46 48  0  0  0  0  0  0  0  0999 V2000
   -8.3980   22.7080  -31.4650 C   0  0  0  0  0  0  0  0  0  0  0  0
   -7.0800   22.8310  -31.9890 O   0  0  0  0  0  0  0  0  0  0  0  0
   -6.0080   23.4410  -31.3180 C   0  0  0  0  0  0  0  0  0  0  0  0
   -6.1330   24.7080  -30.7170 C   0  0  0  0  0  0  0  0  0  0  0  0
   -5.0460   25.2970  -30.0700 C   0  0  0  0  0  0  0  0  0  0  0  0
   -3.8120   24.6420  -30.0120 C   0  0  0  0  0  0  0  0  0  0  0  0
   -2.7530   25.2840  -29.3500 O   0  0  0  0  0  0  0  0  0  0  0  0
   -1.9010   24.6790  -28.3760 C   0  0  0  0  0  0  0  0  0  0  0  0
   -1.5520   25.6570  -27.2850 C   0  0  0  0  0  0  0  0  0  0  0  0
   -2.0720   25.4840  -25.9930 C   0  0  0  0  0  0  0  0  0  0  0  0
   -1.7550   26.3940  -24.9780 C   0  0  0  0  0  0  0  0  0  0  0  0
   -0.9240   27.4840  -25.2490 C   0  0  0  0  0  0  0  0  0  0  0  0
   -0.4120   27.6690  -26.5370 C   0  0  0  0  0  0  0  0  0  0  0  0
   -0.7280   26.7630  -27.5540 C   0  0  0  0  0  0  0  0  0  0  0  0
   -3.6770   23.3800  -30.6150 C   0  0  0  0  0  0  0  0  0  0  0  0
   -4.7720   22.7670  -31.2500 C   0  0  0  0  0  0  0  0  0  0  0  0
   -4.5870   21.4210  -31.9100 C   0  0  0  0  0  0  0  0  0  0  0  0
   -5.4430   21.3110  -33.0990 N   0  0  0  0  0  0  0  0  0  0  0  0
   -6.0610   20.0090  -33.1420 C   0  0  0  0  0  0  0  0  0  0  0  0
   -7.2150   19.7430  -32.3820 C   0  0  0  0  0  0  0  0  0  0  0  0
   -7.7950   18.4720  -32.4020 C   0  0  0  0  0  0  0  0  0  0  0  0
   -7.2260   17.4530  -33.1720 C   0  0  0  0  0  0  0  0  0  0  0  0
   -6.0740   17.7040  -33.9210 C   0  0  0  0  0  0  0  0  0  0  0  0
   -5.4890   18.9740  -33.9040 C   0  0  0  0  0  0  0  0  0  0  0  0
   -8.3574   22.7118  -30.3658 H   0  0  0  0  0  0  0  0  0  0  0  0
   -9.0109   23.5528  -31.8122 H   0  0  0  0  0  0  0  0  0  0  0  0
   -8.8440   21.7643  -31.8122 H   0  0  0  0  0  0  0  0  0  0  0  0
   -7.0959   25.2382  -30.7578 H   0  0  0  0  0  0  0  0  0  0  0  0
   -5.1609   26.2855  -29.6014 H   0  0  0  0  0  0  0  0  0  0  0  0
   -2.4174   23.8146  -27.9331 H   0  0  0  0  0  0  0  0  0  0  0  0
   -0.9724   24.3594  -28.8716 H   0  0  0  0  0  0  0  0  0  0  0  0
   -2.7311   24.6301  -25.7773 H   0  0  0  0  0  0  0  0  0  0  0  0
   -2.1606   26.2509  -23.9656 H   0  0  0  0  0  0  0  0  0  0  0  0
   -0.6726   28.1964  -24.4494 H   0  0  0  0  0  0  0  0  0  0  0  0
    0.2403   28.5286  -26.7504 H   0  0  0  0  0  0  0  0  0  0  0  0
   -0.3303   26.9165  -28.5680 H   0  0  0  0  0  0  0  0  0  0  0  0
   -2.7047   22.8661  -30.5901 H   0  0  0  0  0  0  0  0  0  0  0  0
   -3.5348   21.3057  -32.2091 H   0  0  0  0  0  0  0  0  0  0  0  0
   -4.8658   20.6323  -31.1957 H   0  0  0  0  0  0  0  0  0  0  0  0
   -6.1830   22.0510  -33.0740 H   0  0  0  0  0  0  0  0  0  0  0  0
   -4.8680   21.4580  -33.9630 H   0  0  0  0  0  0  0  0  0  0  0  0
   -7.6626   20.5394  -31.7693 H   0  0  0  0  0  0  0  0  0  0  0  0
   -8.7010   18.2727  -31.8109 H   0  0  0  0  0  0  0  0  0  0  0  0
   -7.6855   16.4537  -33.1879 H   0  0  0  0  0  0  0  0  0  0  0  0
   -5.6262   16.9013  -34.5252 H   0  0  0  0  0  0  0  0  0  0  0  0
   -4.5773   19.1646  -34.4892 H   0  0  0  0  0  0  0  0  0  0  0  0
  1  2  1  0
  2  3  1  0
  3  4  2  0
  4  5  1  0
  5  6  2  0
  6  7  1  0
  7  8  1  0
  8  9  1  0
  9 10  2  0
 10 11  1  0
 11 12  2  0
 12 13  1  0
 13 14  2  0
  6 15  1  0
 15 16  2  0
 16 17  1  0
 17 18  1  0
 18 19  1  0
 19 20  2  0
 20 21  1  0
 21 22  2  0
 22 23  1  0
 23 24  2  0
 16  3  1  0
 24 19  1  0
 14  9  1  0
  1 25  1  0
  1 26  1  0
  1 27  1  0
  4 28  1  0
  5 29  1  0
  8 30  1  0
  8 31  1  0
 10 32  1  0
 11 33  1  0
 12 34  1  0
 13 35  1  0
 14 36  1  0
 15 37  1  0
 17 38  1  0
 17 39  1  0
 18 40  1  0
 18 41  1  0
 20 42  1  0
 21 43  1  0
 22 44  1  0
 23 45  1  0
 24 46  1  0
M  CHG  1  18   1
M  END
>  <UniqueID>  (48) 
45

>  <SMILES>  (48) 
COc1ccc(OCc2ccccc2)cc1C[NH2+]c1ccccc1

>  <Energy>  (48) 
47.66996694027439

>  <Genealogy>  (48) 
COc1ccc(OCc2ccccc2)cc1C[NH2+]c1ccccc1 (protonated)
COc1ccc(OCc2ccccc2)cc1C[NH2+]c1ccccc1 (3D coordinates assigned)
COc1ccc(OCc2ccccc2)cc1C[NH2+]c1ccccc1 (optimized conformer: 47.66996694027439 kcal/mol)

>  <smiles>  (48) 
COc1ccc(OCc2ccccc2)cc1CNc1ccccc1

>  <score_type>  (48) 
oracle

>  <origin>  (48) 
adg

>  <m_score__min__energy>  (48) 
-7.9100000000000001

>  <m_primary>  (48) 
energy

$$$$
