0:0
     RDKit          3D

 49 50  0  0  0  0  0  0  0  0999 V2000
   -6.9130   17.9920  -31.8020 C   0  0  0  0  0  0  0  0  0  0  0  0
   -8.1560   18.6820  -32.3540 C   0  0  0  0  0  0  0  0  0  0  0  0
   -8.0630   20.1730  -32.1720 C   0  0  0  0  0  0  0  0  0  0  0  0
   -9.1970   20.9130  -31.8050 C   0  0  0  0  0  0  0  0  0  0  0  0
   -9.1170   22.3010  -31.6620 C   0  0  0  0  0  0  0  0  0  0  0  0
   -7.9090   22.9620  -31.8980 C   0  0  0  0  0  0  0  0  0  0  0  0
   -6.7700   22.2390  -32.2930 C   0  0  0  0  0  0  0  0  0  0  0  0
   -5.5160   22.9180  -32.5160 N   0  0  0  0  0  0  0  0  0  0  0  0
   -4.5400   22.5220  -31.4880 C   0  0  0  0  0  0  0  0  0  0  0  0
   -4.2220   23.6570  -30.5430 C   0  0  0  0  0  0  0  0  0  0  0  0
   -4.4850   24.8410  -30.8910 O   0  0  0  0  0  0  0  0  0  0  0  0
   -3.6360   23.4140  -29.2450 N   0  0  0  0  0  0  0  0  0  0  0  0
   -3.0740   24.5470  -28.4990 C   0  0  0  0  0  0  0  0  0  0  0  0
   -2.3400   24.0720  -27.2400 C   0  0  0  0  0  0  0  0  0  0  0  0
   -1.5320   22.8780  -27.5710 N   0  0  0  0  0  0  0  0  0  0  0  0
   -0.5470   22.5390  -26.4990 C   0  0  0  0  0  0  0  0  0  0  0  0
    0.8790   22.3800  -27.0720 C   0  0  0  0  0  0  0  0  0  0  0  0
   -0.4970   23.6330  -25.4100 C   0  0  0  0  0  0  0  0  0  0  0  0
   -2.4240   21.7260  -27.8860 C   0  0  0  0  0  0  0  0  0  0  0  0
   -3.7530   22.1210  -28.5620 C   0  0  0  0  0  0  0  0  0  0  0  0
   -6.8530   20.8420  -32.4220 C   0  0  0  0  0  0  0  0  0  0  0  0
   -6.9424   18.0083  -30.7025 H   0  0  0  0  0  0  0  0  0  0  0  0
   -6.8860   16.9497  -32.1527 H   0  0  0  0  0  0  0  0  0  0  0  0
   -6.0141   18.5203  -32.1527 H   0  0  0  0  0  0  0  0  0  0  0  0
   -8.2490   18.4544  -33.4262 H   0  0  0  0  0  0  0  0  0  0  0  0
   -9.0366   18.3137  -31.8073 H   0  0  0  0  0  0  0  0  0  0  0  0
  -10.1532   20.3986  -31.6290 H   0  0  0  0  0  0  0  0  0  0  0  0
  -10.0070   22.8742  -31.3630 H   0  0  0  0  0  0  0  0  0  0  0  0
   -7.8489   24.0533  -31.7741 H   0  0  0  0  0  0  0  0  0  0  0  0
   -5.1480   22.6740  -33.4660 H   0  0  0  0  0  0  0  0  0  0  0  0
   -5.6700   23.9540  -32.4800 H   0  0  0  0  0  0  0  0  0  0  0  0
   -4.9543   21.6833  -30.9092 H   0  0  0  0  0  0  0  0  0  0  0  0
   -3.6088   22.2324  -31.9969 H   0  0  0  0  0  0  0  0  0  0  0  0
   -2.3658   25.0863  -29.1453 H   0  0  0  0  0  0  0  0  0  0  0  0
   -3.8995   25.2066  -28.1931 H   0  0  0  0  0  0  0  0  0  0  0  0
   -1.6807   24.8728  -26.8740 H   0  0  0  0  0  0  0  0  0  0  0  0
   -3.0715   23.8189  -26.4584 H   0  0  0  0  0  0  0  0  0  0  0  0
   -0.8856   21.5882  -26.0615 H   0  0  0  0  0  0  0  0  0  0  0  0
    1.5997   22.2996  -26.2449 H   0  0  0  0  0  0  0  0  0  0  0  0
    0.9268   21.4710  -27.6896 H   0  0  0  0  0  0  0  0  0  0  0  0
    1.1258   23.2562  -27.6896 H   0  0  0  0  0  0  0  0  0  0  0  0
   -0.5185   23.1622  -24.4161 H   0  0  0  0  0  0  0  0  0  0  0  0
    0.4288   24.2170  -25.5192 H   0  0  0  0  0  0  0  0  0  0  0  0
   -1.3656   24.2990  -25.5192 H   0  0  0  0  0  0  0  0  0  0  0  0
   -1.8832   21.0453  -28.5600 H   0  0  0  0  0  0  0  0  0  0  0  0
   -2.6852   21.2570  -26.9259 H   0  0  0  0  0  0  0  0  0  0  0  0
   -4.0247   21.3497  -29.2977 H   0  0  0  0  0  0  0  0  0  0  0  0
   -4.5275   22.2056  -27.7855 H   0  0  0  0  0  0  0  0  0  0  0  0
   -5.9637   20.2678  -32.7210 H   0  0  0  0  0  0  0  0  0  0  0  0
  1  2  1  0
  2  3  1  0
  3  4  2  0
  4  5  1  0
  5  6  2  0
  6  7  1  0
  7  8  1  0
  8  9  1  0
  9 10  1  0
 10 11  2  0
 10 12  1  0
 12 13  1  0
 13 14  1  0
 14 15  1  0
 15 16  1  0
 16 17  1  0
 16 18  1  0
 15 19  1  0
 19 20  1  0
  7 21  2  0
 21  3  1  0
 20 12  1  0
  1 22  1  0
  1 23  1  0
  1 24  1  0
  2 25  1  0
  2 26  1  0
  4 27  1  0
  5 28  1  0
  6 29  1  0
  8 30  1  0
  8 31  1  0
  9 32  1  0
  9 33  1  0
 13 34  1  0
 13 35  1  0
 14 36  1  0
 14 37  1  0
 16 38  1  0
 17 39  1  0
 17 40  1  0
 17 41  1  0
 18 42  1  0
 18 43  1  0
 18 44  1  0
 19 45  1  0
 19 46  1  0
 20 47  1  0
 20 48  1  0
 21 49  1  0
M  CHG  1   8   1
M  END
>  <UniqueID>  (1) 
1

>  <SMILES>  (1) 
CCc1cccc([NH2+]CC(=O)N2CCN(C(C)C)CC2)c1

>  <Energy>  (1) 
54.31541251697884

>  <Genealogy>  (1) 
CCc1cccc([NH2+]CC(=O)N2CCN(C(C)C)CC2)c1 (protonated)
CCc1cccc([NH2+]CC(=O)N2CCN(C(C)C)CC2)c1 (3D coordinates assigned)
CCc1cccc([NH2+]CC(=O)N2CCN(C(C)C)CC2)c1 (nonaromatic ring conformer: 54.31541251697884 kcal/mol)

>  <smiles>  (1) 
CCc1cccc(NCC(=O)N2CCN(C(C)C)CC2)c1

>  <score_type>  (1) 
oracle

>  <origin>  (1) 
adg

>  <m_score__min__energy>  (1) 
-7.0599999999999996

>  <m_primary>  (1) 
energy

$$$$
1:0
     RDKit          3D

 81 85  0  0  0  0  0  0  0  0999 V2000
   -1.8550   20.5990  -30.0800 C   0  0  0  0  0  0  0  0  0  0  0  0
   -0.5420   20.3180  -30.8060 C   0  0  0  0  0  0  0  0  0  0  0  0
    0.0430   19.0420  -30.3360 N   0  0  0  0  0  0  0  0  0  0  0  0
    0.5700   19.1640  -28.9570 C   0  0  0  0  0  0  0  0  0  0  0  0
   -0.1210   18.1610  -28.0360 C   0  0  0  0  0  0  0  0  0  0  0  0
    1.0860   18.5590  -31.2710 C   0  0  0  0  0  0  0  0  0  0  0  0
    0.5430   17.3850  -32.0950 C   0  0  0  0  0  0  0  0  0  0  0  0
   -0.8530   17.0870  -31.7290 N   0  0  0  0  0  0  0  0  0  0  0  0
   -1.4890   16.2640  -32.7500 C   0  0  0  0  0  0  0  0  0  0  0  0
   -1.0410   14.9350  -32.9800 C   0  0  0  0  0  0  0  0  0  0  0  0
    0.2100   14.4780  -32.4950 C   0  0  0  0  0  0  0  0  0  0  0  0
    0.6280   13.1690  -32.7130 C   0  0  0  0  0  0  0  0  0  0  0  0
   -0.1850   12.2840  -33.4060 C   0  0  0  0  0  0  0  0  0  0  0  0
   -1.4190   12.7050  -33.8970 C   0  0  0  0  0  0  0  0  0  0  0  0
   -1.8630   14.0390  -33.7170 C   0  0  0  0  0  0  0  0  0  0  0  0
   -3.0950   14.4530  -34.1820 N   0  0  0  0  0  0  0  0  0  0  0  0
   -3.8320   13.6230  -35.1570 C   0  0  0  0  0  0  0  0  0  0  0  0
   -3.5850   15.6920  -33.8200 C   0  0  0  0  0  0  0  0  0  0  0  0
   -4.9700   15.9930  -33.7940 C   0  0  0  0  0  0  0  0  0  0  0  0
   -5.8110   15.0650  -33.9540 O   0  0  0  0  0  0  0  0  0  0  0  0
   -5.4080   17.2650  -33.5090 N   0  0  0  0  0  0  0  0  0  0  0  0
   -6.8600   17.5190  -33.3820 C   0  0  0  0  0  0  0  0  0  0  0  0
   -4.5030   18.3060  -33.4210 C   0  0  0  0  0  0  0  0  0  0  0  0
   -4.9290   19.6440  -33.2760 C   0  0  0  0  0  0  0  0  0  0  0  0
   -4.0280   20.7170  -33.3120 C   0  0  0  0  0  0  0  0  0  0  0  0
   -4.5040   22.0630  -33.1010 N   0  0  0  0  0  0  0  0  0  0  0  0
   -4.8260   22.6000  -31.7770 C   0  0  0  0  0  0  0  0  0  0  0  0
   -3.6020   23.2770  -31.1210 C   0  0  0  0  0  0  0  0  0  0  0  0
   -3.8800   24.5760  -30.4650 N   0  0  0  0  0  0  0  0  0  0  0  0
   -3.6700   24.5500  -29.0080 C   0  0  0  0  0  0  0  0  0  0  0  0
   -5.1980   25.1290  -30.8050 C   0  0  0  0  0  0  0  0  0  0  0  0
   -2.6670   20.4630  -33.5950 C   0  0  0  0  0  0  0  0  0  0  0  0
   -1.7570   21.5230  -33.7990 C   0  0  0  0  0  0  0  0  0  0  0  0
   -0.4450   21.2700  -34.1950 C   0  0  0  0  0  0  0  0  0  0  0  0
   -0.0240   19.9650  -34.4220 C   0  0  0  0  0  0  0  0  0  0  0  0
   -0.9020   18.9020  -34.2190 C   0  0  0  0  0  0  0  0  0  0  0  0
   -2.2160   19.1220  -33.7390 C   0  0  0  0  0  0  0  0  0  0  0  0
   -3.1130   18.0400  -33.4780 C   0  0  0  0  0  0  0  0  0  0  0  0
   -2.6980   16.6850  -33.3700 C   0  0  0  0  0  0  0  0  0  0  0  0
   -1.6881   20.5633  -28.9933 H   0  0  0  0  0  0  0  0  0  0  0  0
   -2.2236   21.5964  -30.3617 H   0  0  0  0  0  0  0  0  0  0  0  0
   -2.5995   19.8399  -30.3617 H   0  0  0  0  0  0  0  0  0  0  0  0
   -0.7322   20.2533  -31.8875 H   0  0  0  0  0  0  0  0  0  0  0  0
    0.1647   21.1342  -30.5954 H   0  0  0  0  0  0  0  0  0  0  0  0
    1.6520   18.9658  -28.9630 H   0  0  0  0  0  0  0  0  0  0  0  0
    0.3759   20.1819  -28.5880 H   0  0  0  0  0  0  0  0  0  0  0  0
    0.0680   18.4353  -26.9876 H   0  0  0  0  0  0  0  0  0  0  0  0
   -1.2040   18.1721  -28.2285 H   0  0  0  0  0  0  0  0  0  0  0  0
    0.2753   17.1531  -28.2285 H   0  0  0  0  0  0  0  0  0  0  0  0
    1.3765   19.3763  -31.9475 H   0  0  0  0  0  0  0  0  0  0  0  0
    1.9619   18.2242  -30.6959 H   0  0  0  0  0  0  0  0  0  0  0  0
    0.5879   17.6435  -33.1633 H   0  0  0  0  0  0  0  0  0  0  0  0
    1.1578   16.4965  -31.8885 H   0  0  0  0  0  0  0  0  0  0  0  0
   -1.4060   17.9580  -31.5710 H   0  0  0  0  0  0  0  0  0  0  0  0
   -0.8030   16.6060  -30.8070 H   0  0  0  0  0  0  0  0  0  0  0  0
    0.8601   15.1686  -31.9379 H   0  0  0  0  0  0  0  0  0  0  0  0
    1.6055   12.8350  -32.3349 H   0  0  0  0  0  0  0  0  0  0  0  0
    0.1454   11.2474  -33.5682 H   0  0  0  0  0  0  0  0  0  0  0  0
   -2.0598   11.9898  -34.4336 H   0  0  0  0  0  0  0  0  0  0  0  0
   -4.4693   12.9052  -34.6198 H   0  0  0  0  0  0  0  0  0  0  0  0
   -4.4593   14.2692  -35.7886 H   0  0  0  0  0  0  0  0  0  0  0  0
   -3.1161   13.0766  -35.7886 H   0  0  0  0  0  0  0  0  0  0  0  0
   -7.1322   17.5666  -32.3173 H   0  0  0  0  0  0  0  0  0  0  0  0
   -7.1089   18.4743  -33.8672 H   0  0  0  0  0  0  0  0  0  0  0  0
   -7.4185   16.7049  -33.8672 H   0  0  0  0  0  0  0  0  0  0  0  0
   -5.9996   19.8506  -33.1305 H   0  0  0  0  0  0  0  0  0  0  0  0
   -4.4280   22.7400  -33.8920 H   0  0  0  0  0  0  0  0  0  0  0  0
   -5.6313   23.3423  -31.8797 H   0  0  0  0  0  0  0  0  0  0  0  0
   -5.1398   21.7636  -31.1351 H   0  0  0  0  0  0  0  0  0  0  0  0
   -3.1992   22.5908  -30.3615 H   0  0  0  0  0  0  0  0  0  0  0  0
   -2.8955   23.4903  -31.9367 H   0  0  0  0  0  0  0  0  0  0  0  0
   -4.6362   24.6696  -28.4961 H   0  0  0  0  0  0  0  0  0  0  0  0
   -3.2188   23.5891  -28.7197 H   0  0  0  0  0  0  0  0  0  0  0  0
   -2.9981   25.3718  -28.7197 H   0  0  0  0  0  0  0  0  0  0  0  0
   -5.7482   25.3599  -29.8809 H   0  0  0  0  0  0  0  0  0  0  0  0
   -5.0688   26.0488  -31.3943 H   0  0  0  0  0  0  0  0  0  0  0  0
   -5.7638   24.3924  -31.3943 H   0  0  0  0  0  0  0  0  0  0  0  0
   -2.0874   22.5606  -33.6436 H   0  0  0  0  0  0  0  0  0  0  0  0
    0.2588   22.1048  -34.3282 H   0  0  0  0  0  0  0  0  0  0  0  0
    1.0038   19.7709  -34.7624 H   0  0  0  0  0  0  0  0  0  0  0  0
   -0.5692   17.8760  -34.4350 H   0  0  0  0  0  0  0  0  0  0  0  0
  1  2  1  0
  2  3  1  0
  3  4  1  0
  4  5  1  0
  3  6  1  0
  6  7  1  0
  7  8  1  0
  8  9  1  0
  9 10  2  0
 10 11  1  0
 11 12  2  0
 12 13  1  0
 13 14  2  0
 14 15  1  0
 15 16  2  0
 16 17  1  0
 16 18  1  0
 18 19  1  0
 19 20  2  0
 19 21  1  0
 21 22  1  0
 21 23  1  0
 23 24  2  0
 24 25  1  0
 25 26  1  0
 26 27  1  0
 27 28  1  0
 28 29  1  0
 29 30  1  0
 29 31  1  0
 25 32  2  0
 32 33  1  0
 33 34  2  0
 34 35  1  0
 35 36  2  0
 36 37  1  0
 37 38  2  0
 38 39  1  0
 39  9  1  0
 15 10  1  0
 39 18  2  0
 38 23  1  0
 37 32  1  0
  1 40  1  0
  1 41  1  0
  1 42  1  0
  2 43  1  0
  2 44  1  0
  4 45  1  0
  4 46  1  0
  5 47  1  0
  5 48  1  0
  5 49  1  0
  6 50  1  0
  6 51  1  0
  7 52  1  0
  7 53  1  0
  8 54  1  0
  8 55  1  0
 11 56  1  0
 12 57  1  0
 13 58  1  0
 14 59  1  0
 17 60  1  0
 17 61  1  0
 17 62  1  0
 22 63  1  0
 22 64  1  0
 22 65  1  0
 24 66  1  0
 26 67  1  0
 27 68  1  0
 27 69  1  0
 28 70  1  0
 28 71  1  0
 30 72  1  0
 30 73  1  0
 30 74  1  0
 31 75  1  0
 31 76  1  0
 31 77  1  0
 33 78  1  0
 34 79  1  0
 35 80  1  0
 36 81  1  0
M  CHG  2   8   1  16   1
M  END
>  <UniqueID>  (2) 
2

>  <SMILES>  (2) 
CCN(CC)CC[NH2+]c1c2ccccc2[n+](C)c2c(=O)n(C)c3cc(NCCN(C)C)c4ccccc4c3c12

>  <Energy>  (2) 
159.9613190566373

>  <Genealogy>  (2) 
CCN(CC)CC[NH2+]c1c2ccccc2[n+](C)c2c(=O)n(C)c3cc(NCCN(C)C)c4ccccc4c3c12 (protonated)
CCN(CC)CC[NH2+]c1c2ccccc2[n+](C)c2c(=O)n(C)c3cc(NCCN(C)C)c4ccccc4c3c12 (3D coordinates assigned)
CCN(CC)CC[NH2+]c1c2ccccc2[n+](C)c2c(=O)n(C)c3cc(NCCN(C)C)c4ccccc4c3c12 (optimized conformer: 159.9613190566373 kcal/mol)

>  <smiles>  (2) 
CCN(CC)CCNc1c2ccccc2[n+](C)c2c(=O)n(C)c3cc(NCCN(C)C)c4ccccc4c3c12

>  <score_type>  (2) 
oracle

>  <origin>  (2) 
adg

>  <m_score__min__energy>  (2) 
-9.9100000000000001

>  <m_primary>  (2) 
energy

$$$$
2:0
     RDKit          3D

 56 58  0  0  0  0  0  0  0  0999 V2000
   -3.4590   18.9300  -26.6550 C   0  0  0  0  0  0  0  0  0  0  0  0
   -2.1510   19.6580  -27.0050 C   0  0  0  0  0  0  0  0  0  0  0  0
   -2.3070   20.6460  -28.1080 N   0  0  0  0  0  0  0  0  0  0  0  0
   -1.0100   20.7900  -28.8350 C   0  0  0  0  0  0  0  0  0  0  0  0
   -1.0660   20.1660  -30.2350 C   0  0  0  0  0  0  0  0  0  0  0  0
   -2.7720   21.9560  -27.5760 C   0  0  0  0  0  0  0  0  0  0  0  0
   -3.7630   22.6800  -28.5070 C   0  0  0  0  0  0  0  0  0  0  0  0
   -3.9030   22.0070  -29.7590 O   0  0  0  0  0  0  0  0  0  0  0  0
   -3.6710   22.6670  -30.9750 C   0  0  0  0  0  0  0  0  0  0  0  0
   -3.8790   23.9090  -31.0630 O   0  0  0  0  0  0  0  0  0  0  0  0
   -3.2730   21.9220  -32.2120 C   0  0  0  0  0  0  0  0  0  0  0  0
   -4.3840   21.7610  -33.1500 N   0  0  0  0  0  0  0  0  0  0  0  0
   -5.5240   20.9240  -32.8500 C   0  0  0  0  0  0  0  0  0  0  0  0
   -5.4720   19.5440  -33.1260 C   0  0  0  0  0  0  0  0  0  0  0  0
   -4.2840   18.9500  -33.6000 C   0  0  0  0  0  0  0  0  0  0  0  0
   -4.2470   17.6060  -33.9560 C   0  0  0  0  0  0  0  0  0  0  0  0
   -5.3890   16.8250  -33.8360 C   0  0  0  0  0  0  0  0  0  0  0  0
   -6.5690   17.3790  -33.3390 C   0  0  0  0  0  0  0  0  0  0  0  0
   -6.6330   18.7440  -32.9480 C   0  0  0  0  0  0  0  0  0  0  0  0
   -7.7850   19.2950  -32.4170 N   0  0  0  0  0  0  0  0  0  0  0  0
   -8.8940   18.4040  -32.0030 C   0  0  0  0  0  0  0  0  0  0  0  0
   -7.8780   20.6630  -32.2310 C   0  0  0  0  0  0  0  0  0  0  0  0
   -9.1090   21.2960  -31.9140 C   0  0  0  0  0  0  0  0  0  0  0  0
   -9.1650   22.6540  -31.6090 C   0  0  0  0  0  0  0  0  0  0  0  0
   -8.0090   23.4230  -31.6310 C   0  0  0  0  0  0  0  0  0  0  0  0
   -6.7990   22.8510  -32.0140 C   0  0  0  0  0  0  0  0  0  0  0  0
   -6.7250   21.4860  -32.3700 C   0  0  0  0  0  0  0  0  0  0  0  0
   -3.5647   18.8712  -25.5617 H   0  0  0  0  0  0  0  0  0  0  0  0
   -4.3109   19.4837  -27.0764 H   0  0  0  0  0  0  0  0  0  0  0  0
   -3.4373   17.9142  -27.0764 H   0  0  0  0  0  0  0  0  0  0  0  0
   -1.7950   20.1876  -26.1090 H   0  0  0  0  0  0  0  0  0  0  0  0
   -1.4344   18.8967  -27.3468 H   0  0  0  0  0  0  0  0  0  0  0  0
   -3.0260   20.2890  -28.7740 H   0  0  0  0  0  0  0  0  0  0  0  0
   -0.7736   21.8599  -28.9319 H   0  0  0  0  0  0  0  0  0  0  0  0
   -0.2357   20.2632  -28.2580 H   0  0  0  0  0  0  0  0  0  0  0  0
   -1.1640   19.0740  -30.1461 H   0  0  0  0  0  0  0  0  0  0  0  0
   -1.9316   20.5685  -30.7815 H   0  0  0  0  0  0  0  0  0  0  0  0
   -0.1425   20.4080  -30.7815 H   0  0  0  0  0  0  0  0  0  0  0  0
   -3.2658   21.7834  -26.6083 H   0  0  0  0  0  0  0  0  0  0  0  0
   -1.8855   22.6006  -27.4827 H   0  0  0  0  0  0  0  0  0  0  0  0
   -4.7458   22.7249  -28.0150 H   0  0  0  0  0  0  0  0  0  0  0  0
   -3.3726   23.6895  -28.7032 H   0  0  0  0  0  0  0  0  0  0  0  0
   -2.4655   22.4759  -32.7131 H   0  0  0  0  0  0  0  0  0  0  0  0
   -2.9448   20.9175  -31.9065 H   0  0  0  0  0  0  0  0  0  0  0  0
   -4.3410   22.2570  -34.0690 H   0  0  0  0  0  0  0  0  0  0  0  0
   -3.3724   19.5591  -33.6896 H   0  0  0  0  0  0  0  0  0  0  0  0
   -3.3137   17.1619  -34.3324 H   0  0  0  0  0  0  0  0  0  0  0  0
   -5.3631   15.7664  -34.1337 H   0  0  0  0  0  0  0  0  0  0  0  0
   -7.4656   16.7483  -33.2481 H   0  0  0  0  0  0  0  0  0  0  0  0
   -8.9425   18.3650  -30.9048 H   0  0  0  0  0  0  0  0  0  0  0  0
   -9.8439   18.7929  -32.3984 H   0  0  0  0  0  0  0  0  0  0  0  0
   -8.7189   17.3926  -32.3984 H   0  0  0  0  0  0  0  0  0  0  0  0
  -10.0355   20.7030  -31.9092 H   0  0  0  0  0  0  0  0  0  0  0  0
  -10.1278   23.1186  -31.3499 H   0  0  0  0  0  0  0  0  0  0  0  0
   -8.0494   24.4846  -31.3457 H   0  0  0  0  0  0  0  0  0  0  0  0
   -5.8896   23.4694  -32.0397 H   0  0  0  0  0  0  0  0  0  0  0  0
  1  2  1  0
  2  3  1  0
  3  4  1  0
  4  5  1  0
  3  6  1  0
  6  7  1  0
  7  8  1  0
  8  9  1  0
  9 10  2  0
  9 11  1  0
 11 12  1  0
 12 13  1  0
 13 14  2  0
 14 15  1  0
 15 16  2  0
 16 17  1  0
 17 18  2  0
 18 19  1  0
 19 20  2  0
 20 21  1  0
 20 22  1  0
 22 23  2  0
 23 24  1  0
 24 25  2  0
 25 26  1  0
 26 27  2  0
 27 13  1  0
 19 14  1  0
 27 22  1  0
  1 28  1  0
  1 29  1  0
  1 30  1  0
  2 31  1  0
  2 32  1  0
  3 33  1  0
  4 34  1  0
  4 35  1  0
  5 36  1  0
  5 37  1  0
  5 38  1  0
  6 39  1  0
  6 40  1  0
  7 41  1  0
  7 42  1  0
 11 43  1  0
 11 44  1  0
 12 45  1  0
 15 46  1  0
 16 47  1  0
 17 48  1  0
 18 49  1  0
 21 50  1  0
 21 51  1  0
 21 52  1  0
 23 53  1  0
 24 54  1  0
 25 55  1  0
 26 56  1  0
M  CHG  2   3   1  20   1
M  END
>  <UniqueID>  (3) 
3

>  <SMILES>  (3) 
CC[NH+](CC)CCOC(=O)CNc1c2ccccc2[n+](C)c2ccccc12

>  <Energy>  (3) 
82.73256875475106

>  <Genealogy>  (3) 
CC[NH+](CC)CCOC(=O)CNc1c2ccccc2[n+](C)c2ccccc12 (protonated)
CC[NH+](CC)CCOC(=O)CNc1c2ccccc2[n+](C)c2ccccc12 (3D coordinates assigned)
CC[NH+](CC)CCOC(=O)CNc1c2ccccc2[n+](C)c2ccccc12 (optimized conformer: 82.73256875475106 kcal/mol)

>  <smiles>  (3) 
CCN(CC)CCOC(=O)CNc1c2ccccc2[n+](C)c2ccccc12

>  <score_type>  (3) 
oracle

>  <origin>  (3) 
adg

>  <m_score__min__energy>  (3) 
-7.5700000000000003

>  <m_primary>  (3) 
energy

$$$$
3:0
     RDKit          3D

 49 51  0  0  0  0  0  0  0  0999 V2000
   -3.8150   17.2940  -34.3450 C   0  0  0  0  0  0  0  0  0  0  0  0
   -3.7710   17.8090  -32.9100 C   0  0  0  0  0  0  0  0  0  0  0  0
   -4.4390   19.1100  -32.8160 N   0  0  0  0  0  0  0  0  0  0  0  0
   -5.8210   19.1970  -32.4300 C   0  0  0  0  0  0  0  0  0  0  0  0
   -6.3550   20.4150  -31.9780 C   0  0  0  0  0  0  0  0  0  0  0  0
   -7.6950   20.4980  -31.5910 C   0  0  0  0  0  0  0  0  0  0  0  0
   -8.5110   19.3650  -31.6520 C   0  0  0  0  0  0  0  0  0  0  0  0
   -7.9880   18.1480  -32.0960 C   0  0  0  0  0  0  0  0  0  0  0  0
   -6.6460   18.0610  -32.4830 C   0  0  0  0  0  0  0  0  0  0  0  0
   -3.5320   20.5590  -33.1410 S   0  0  0  0  0  0  0  0  0  0  0  0
   -4.4080   21.5810  -33.8100 O   0  0  0  0  0  0  0  0  0  0  0  0
   -2.3930   20.2360  -34.0690 O   0  0  0  0  0  0  0  0  0  0  0  0
   -2.9120   21.2110  -31.6280 C   0  0  0  0  0  0  0  0  0  0  0  0
   -2.1270   20.4150  -30.7810 C   0  0  0  0  0  0  0  0  0  0  0  0
   -1.5980   20.9540  -29.6050 C   0  0  0  0  0  0  0  0  0  0  0  0
   -1.8550   22.2840  -29.2630 C   0  0  0  0  0  0  0  0  0  0  0  0
   -2.6600   23.0820  -30.0910 C   0  0  0  0  0  0  0  0  0  0  0  0
   -2.9460   24.4790  -29.7160 C   0  0  0  0  0  0  0  0  0  0  0  0
   -2.3980   24.9620  -28.6910 O   0  0  0  0  0  0  0  0  0  0  0  0
   -3.8520   25.2960  -30.4700 N   0  0  0  0  0  0  0  0  0  0  0  0
   -5.3050   25.1240  -30.5080 C   0  0  0  0  0  0  0  0  0  0  0  0
   -5.7770   24.2800  -29.3370 C   0  0  0  0  0  0  0  0  0  0  0  0
   -7.0710   23.6350  -29.8090 C   0  0  0  0  0  0  0  0  0  0  0  0
   -6.9800   23.5520  -31.3310 C   0  0  0  0  0  0  0  0  0  0  0  0
   -5.7500   24.3560  -31.7480 C   0  0  0  0  0  0  0  0  0  0  0  0
   -3.1690   22.5470  -31.2840 C   0  0  0  0  0  0  0  0  0  0  0  0
   -3.9086   16.1980  -34.3385 H   0  0  0  0  0  0  0  0  0  0  0  0
   -4.6789   17.7327  -34.8657 H   0  0  0  0  0  0  0  0  0  0  0  0
   -2.8892   17.5798  -34.8657 H   0  0  0  0  0  0  0  0  0  0  0  0
   -4.2808   17.0909  -32.2509 H   0  0  0  0  0  0  0  0  0  0  0  0
   -2.7210   17.9228  -32.6026 H   0  0  0  0  0  0  0  0  0  0  0  0
   -5.7149   21.3082  -31.9284 H   0  0  0  0  0  0  0  0  0  0  0  0
   -8.1076   21.4548  -31.2384 H   0  0  0  0  0  0  0  0  0  0  0  0
   -9.5666   19.4316  -31.3500 H   0  0  0  0  0  0  0  0  0  0  0  0
   -8.6318   17.2572  -32.1414 H   0  0  0  0  0  0  0  0  0  0  0  0
   -6.2360   17.1009  -32.8295 H   0  0  0  0  0  0  0  0  0  0  0  0
   -1.9275   19.3654  -31.0426 H   0  0  0  0  0  0  0  0  0  0  0  0
   -0.9771   20.3289  -28.9464 H   0  0  0  0  0  0  0  0  0  0  0  0
   -1.4255   22.7068  -28.3428 H   0  0  0  0  0  0  0  0  0  0  0  0
   -5.7259   26.1401  -30.4906 H   0  0  0  0  0  0  0  0  0  0  0  0
   -5.0303   23.5112  -29.0894 H   0  0  0  0  0  0  0  0  0  0  0  0
   -5.9244   24.8820  -28.4282 H   0  0  0  0  0  0  0  0  0  0  0  0
   -7.1735   22.6280  -29.3784 H   0  0  0  0  0  0  0  0  0  0  0  0
   -7.9472   24.2201  -29.4928 H   0  0  0  0  0  0  0  0  0  0  0  0
   -6.8713   22.5039  -31.6466 H   0  0  0  0  0  0  0  0  0  0  0  0
   -7.8898   23.9529  -31.8016 H   0  0  0  0  0  0  0  0  0  0  0  0
   -4.9499   23.6813  -32.0865 H   0  0  0  0  0  0  0  0  0  0  0  0
   -5.9790   25.0368  -32.5811 H   0  0  0  0  0  0  0  0  0  0  0  0
   -3.7725   23.1780  -31.9530 H   0  0  0  0  0  0  0  0  0  0  0  0
  1  2  1  0
  2  3  1  0
  3  4  1  0
  4  5  2  0
  5  6  1  0
  6  7  2  0
  7  8  1  0
  8  9  2  0
  3 10  1  0
 10 11  2  0
 10 12  2  0
 10 13  1  0
 13 14  2  0
 14 15  1  0
 15 16  2  0
 16 17  1  0
 17 18  1  0
 18 19  2  0
 18 20  1  0
 20 21  1  0
 21 22  1  0
 22 23  1  0
 23 24  1  0
 24 25  1  0
 17 26  2  0
  9  4  1  0
 26 13  1  0
 25 21  1  0
  1 27  1  0
  1 28  1  0
  1 29  1  0
  2 30  1  0
  2 31  1  0
  5 32  1  0
  6 33  1  0
  7 34  1  0
  8 35  1  0
  9 36  1  0
 14 37  1  0
 15 38  1  0
 16 39  1  0
 21 40  1  0
 22 41  1  0
 22 42  1  0
 23 43  1  0
 23 44  1  0
 24 45  1  0
 24 46  1  0
 25 47  1  0
 25 48  1  0
 26 49  1  0
M  CHG  1  20  -1
M  END
>  <UniqueID>  (4) 
4

>  <SMILES>  (4) 
CCN(c1ccccc1)S(=O)(=O)c1cccc(C(=O)[N-]C2CCCC2)c1

>  <Energy>  (4) 
54.76081182066072

>  <Genealogy>  (4) 
CCN(c1ccccc1)S(=O)(=O)c1cccc(C(=O)[N-]C2CCCC2)c1 (protonated)
CCN(c1ccccc1)S(=O)(=O)c1cccc(C(=O)[N-]C2CCCC2)c1 (3D coordinates assigned)
CCN(c1ccccc1)S(=O)(=O)c1cccc(C(=O)[N-]C2CCCC2)c1 (nonaromatic ring conformer: 54.76081182066072 kcal/mol)

>  <smiles>  (4) 
CCN(c1ccccc1)S(=O)(=O)c1cccc(C(=O)NC2CCCC2)c1

>  <score_type>  (4) 
oracle

>  <origin>  (4) 
adg

>  <m_score__min__energy>  (4) 
-10.49

>  <m_primary>  (4) 
energy

$$$$
4:0
     RDKit          3D

 50 52  0  0  0  0  0  0  0  0999 V2000
   -2.7340   18.9960  -26.6290 C   0  0  0  0  0  0  0  0  0  0  0  0
   -1.9480   19.9660  -27.5230 C   0  0  0  0  0  0  0  0  0  0  0  0
   -2.7360   20.5740  -28.6290 N   0  0  1  0  0  0  0  0  0  0  0  0
   -3.2440   21.9080  -28.2500 C   0  0  0  0  0  0  0  0  0  0  0  0
   -2.0240   20.6600  -29.9320 C   0  0  0  0  0  0  0  0  0  0  0  0
   -2.9200   20.4290  -31.1720 C   0  0  0  0  0  0  0  0  0  0  0  0
   -2.5350   21.2870  -32.3890 C   0  0  0  0  0  0  0  0  0  0  0  0
   -3.5740   21.2770  -33.4160 N   0  0  0  0  0  0  0  0  0  0  0  0
   -4.8880   20.7830  -33.1050 C   0  0  0  0  0  0  0  0  0  0  0  0
   -5.2570   19.4780  -33.4760 C   0  0  0  0  0  0  0  0  0  0  0  0
   -4.3500   18.6340  -34.1530 C   0  0  0  0  0  0  0  0  0  0  0  0
   -4.6990   17.3240  -34.4730 C   0  0  0  0  0  0  0  0  0  0  0  0
   -5.9480   16.8300  -34.1160 C   0  0  0  0  0  0  0  0  0  0  0  0
   -6.8690   17.6530  -33.4700 C   0  0  0  0  0  0  0  0  0  0  0  0
   -6.5620   19.0050  -33.1720 C   0  0  0  0  0  0  0  0  0  0  0  0
   -7.4880   19.8510  -32.5890 N   0  0  0  0  0  0  0  0  0  0  0  0
   -8.9160   19.4630  -32.5390 C   0  0  0  0  0  0  0  0  0  0  0  0
   -7.0850   21.0710  -32.0780 C   0  0  0  0  0  0  0  0  0  0  0  0
   -7.9320   21.8470  -31.2430 C   0  0  0  0  0  0  0  0  0  0  0  0
   -7.5280   23.0920  -30.7650 C   0  0  0  0  0  0  0  0  0  0  0  0
   -6.2710   23.5920  -31.0870 C   0  0  0  0  0  0  0  0  0  0  0  0
   -5.7210   25.2970  -30.4250 Br  0  0  0  0  0  0  0  0  0  0  0  0
   -5.4020   22.8360  -31.8710 C   0  0  0  0  0  0  0  0  0  0  0  0
   -5.7860   21.5710  -32.3620 C   0  0  0  0  0  0  0  0  0  0  0  0
   -2.5416   19.2335  -25.5723 H   0  0  0  0  0  0  0  0  0  0  0  0
   -3.8096   19.0953  -26.8371 H   0  0  0  0  0  0  0  0  0  0  0  0
   -2.4139   17.9644  -26.8371 H   0  0  0  0  0  0  0  0  0  0  0  0
   -1.5632   20.7791  -26.8900 H   0  0  0  0  0  0  0  0  0  0  0  0
   -1.1533   19.3729  -27.9991 H   0  0  0  0  0  0  0  0  0  0  0  0
   -3.5830   19.9770  -28.7570 H   0  0  0  0  0  0  0  0  0  0  0  0
   -3.2754   21.9905  -27.1535 H   0  0  0  0  0  0  0  0  0  0  0  0
   -2.5781   22.6832  -28.6571 H   0  0  0  0  0  0  0  0  0  0  0  0
   -4.2568   22.0439  -28.6571 H   0  0  0  0  0  0  0  0  0  0  0  0
   -1.5772   21.6619  -30.0134 H   0  0  0  0  0  0  0  0  0  0  0  0
   -1.2766   19.8529  -29.9327 H   0  0  0  0  0  0  0  0  0  0  0  0
   -2.8478   19.3695  -31.4587 H   0  0  0  0  0  0  0  0  0  0  0  0
   -3.9413   20.7211  -30.8862 H   0  0  0  0  0  0  0  0  0  0  0  0
   -2.3742   22.3231  -32.0565 H   0  0  0  0  0  0  0  0  0  0  0  0
   -1.6195   20.8634  -32.8276 H   0  0  0  0  0  0  0  0  0  0  0  0
   -3.4750   21.9090  -34.2420 H   0  0  0  0  0  0  0  0  0  0  0  0
   -3.3563   19.0153  -34.4309 H   0  0  0  0  0  0  0  0  0  0  0  0
   -3.9857   16.6802  -35.0085 H   0  0  0  0  0  0  0  0  0  0  0  0
   -6.2105   15.7864  -34.3439 H   0  0  0  0  0  0  0  0  0  0  0  0
   -7.8511   17.2467  -33.1864 H   0  0  0  0  0  0  0  0  0  0  0  0
   -9.2358   19.3761  -31.4901 H   0  0  0  0  0  0  0  0  0  0  0  0
   -9.5220   20.2290  -33.0449 H   0  0  0  0  0  0  0  0  0  0  0  0
   -9.0510   18.4956  -33.0449 H   0  0  0  0  0  0  0  0  0  0  0  0
   -8.9240   21.4586  -30.9689 H   0  0  0  0  0  0  0  0  0  0  0  0
   -8.2061   23.6816  -30.1305 H   0  0  0  0  0  0  0  0  0  0  0  0
   -4.4036   23.2310  -32.1100 H   0  0  0  0  0  0  0  0  0  0  0  0
  1  2  1  0
  2  3  1  0
  3  4  1  0
  3  5  1  0
  5  6  1  0
  6  7  1  0
  7  8  1  0
  8  9  1  0
  9 10  2  0
 10 11  1  0
 11 12  2  0
 12 13  1  0
 13 14  2  0
 14 15  1  0
 15 16  2  0
 16 17  1  0
 16 18  1  0
 18 19  2  0
 19 20  1  0
 20 21  2  0
 21 22  1  0
 21 23  1  0
 23 24  2  0
 24  9  1  0
 15 10  1  0
 24 18  1  0
  1 25  1  0
  1 26  1  0
  1 27  1  0
  2 28  1  0
  2 29  1  0
  3 30  1  6
  4 31  1  0
  4 32  1  0
  4 33  1  0
  5 34  1  0
  5 35  1  0
  6 36  1  0
  6 37  1  0
  7 38  1  0
  7 39  1  0
  8 40  1  0
 11 41  1  0
 12 42  1  0
 13 43  1  0
 14 44  1  0
 17 45  1  0
 17 46  1  0
 17 47  1  0
 19 48  1  0
 20 49  1  0
 23 50  1  0
M  CHG  2   3   1  16   1
M  END
>  <UniqueID>  (5) 
5

>  <SMILES>  (5) 
CC[N@@H+](C)CCCNc1c2ccccc2[n+](C)c2ccc(Br)cc12

>  <Energy>  (5) 
78.82381025028526

>  <Genealogy>  (5) 
CC[NH+](C)CCCNc1c2ccccc2[n+](C)c2ccc(Br)cc12 (protonated)
CC[N@@H+](C)CCCNc1c2ccccc2[n+](C)c2ccc(Br)cc12 (chirality)
CC[N@@H+](C)CCCNc1c2ccccc2[n+](C)c2ccc(Br)cc12 (3D coordinates assigned)
CC[N@@H+](C)CCCNc1c2ccccc2[n+](C)c2ccc(Br)cc12 (optimized conformer: 78.82381025028526 kcal/mol)

>  <smiles>  (5) 
CCN(C)CCCNc1c2ccccc2[n+](C)c2ccc(Br)cc12

>  <score_type>  (5) 
oracle

>  <origin>  (5) 
adg

>  <m_score__min__energy>  (5) 
-7.8200000000000003

>  <m_primary>  (5) 
energy

$$$$
5:0
     RDKit          3D

 65 67  0  0  0  0  0  0  0  0999 V2000
   -1.8390   27.5470  -37.6850 C   0  0  0  0  0  0  0  0  0  0  0  0
   -0.8490   26.4060  -37.4660 C   0  0  0  0  0  0  0  0  0  0  0  0
   -0.3960   26.3830  -36.0560 N   0  0  0  0  0  0  0  0  0  0  0  0
   -0.2750   27.7580  -35.5170 C   0  0  0  0  0  0  0  0  0  0  0  0
   -1.1870   27.9360  -34.3070 C   0  0  0  0  0  0  0  0  0  0  0  0
    0.8810   25.6450  -35.9160 C   0  0  0  0  0  0  0  0  0  0  0  0
    0.6560   24.1330  -36.0500 C   0  0  0  0  0  0  0  0  0  0  0  0
    1.6970   23.4210  -35.4070 O   0  0  0  0  0  0  0  0  0  0  0  0
    1.2640   22.1500  -34.9500 C   0  0  0  0  0  0  0  0  0  0  0  0
   -0.0840   21.8250  -35.5850 C   0  0  0  0  0  0  0  0  0  0  0  0
   -0.7750   20.9050  -34.7610 O   0  0  0  0  0  0  0  0  0  0  0  0
   -0.5400   21.1620  -33.3940 C   0  0  0  0  0  0  0  0  0  0  0  0
   -1.8510   21.0390  -32.6140 C   0  0  0  0  0  0  0  0  0  0  0  0
   -3.0200   21.1480  -33.4910 N   0  0  0  0  0  0  0  0  0  0  0  0
   -4.3210   20.6680  -33.1050 C   0  0  0  0  0  0  0  0  0  0  0  0
   -4.7770   19.4120  -33.5410 C   0  0  0  0  0  0  0  0  0  0  0  0
   -3.9250   18.5380  -34.2480 C   0  0  0  0  0  0  0  0  0  0  0  0
   -4.4000   17.3260  -34.7430 C   0  0  0  0  0  0  0  0  0  0  0  0
   -5.7280   16.9680  -34.5490 C   0  0  0  0  0  0  0  0  0  0  0  0
   -6.5820   17.8030  -33.8290 C   0  0  0  0  0  0  0  0  0  0  0  0
   -6.1130   19.0160  -33.2590 C   0  0  0  0  0  0  0  0  0  0  0  0
   -6.9180   19.8040  -32.4590 N   0  0  0  0  0  0  0  0  0  0  0  0
   -8.2000   19.2690  -31.9440 C   0  0  0  0  0  0  0  0  0  0  0  0
   -6.5100   21.0770  -32.1030 C   0  0  0  0  0  0  0  0  0  0  0  0
   -7.3940   21.9990  -31.4900 C   0  0  0  0  0  0  0  0  0  0  0  0
   -6.9580   23.2600  -31.0860 C   0  0  0  0  0  0  0  0  0  0  0  0
   -5.6340   23.6570  -31.2920 C   0  0  0  0  0  0  0  0  0  0  0  0
   -5.1870   24.9580  -30.8620 N   0  0  0  0  0  0  0  0  0  0  0  0
   -6.0080   25.8310  -30.5130 O   0  0  0  0  0  0  0  0  0  0  0  0
   -3.8440   25.2660  -30.8340 O   0  0  0  0  0  0  0  0  0  0  0  0
   -4.7570   22.7780  -31.9410 C   0  0  0  0  0  0  0  0  0  0  0  0
   -5.1840   21.5030  -32.3730 C   0  0  0  0  0  0  0  0  0  0  0  0
   -2.1743   27.9335  -36.7112 H   0  0  0  0  0  0  0  0  0  0  0  0
   -1.3497   28.3535  -38.2508 H   0  0  0  0  0  0  0  0  0  0  0  0
   -2.7064   27.1763  -38.2508 H   0  0  0  0  0  0  0  0  0  0  0  0
   -1.3378   25.4502  -37.7059 H   0  0  0  0  0  0  0  0  0  0  0  0
    0.0226   26.5576  -38.1198 H   0  0  0  0  0  0  0  0  0  0  0  0
    0.7672   27.9388  -35.2153 H   0  0  0  0  0  0  0  0  0  0  0  0
   -0.5720   28.4748  -36.2967 H   0  0  0  0  0  0  0  0  0  0  0  0
   -0.5989   27.8212  -33.3845 H   0  0  0  0  0  0  0  0  0  0  0  0
   -1.6378   28.9391  -34.3320 H   0  0  0  0  0  0  0  0  0  0  0  0
   -1.9819   27.1761  -34.3320 H   0  0  0  0  0  0  0  0  0  0  0  0
    1.5768   25.9767  -36.7008 H   0  0  0  0  0  0  0  0  0  0  0  0
    1.2994   25.8516  -34.9199 H   0  0  0  0  0  0  0  0  0  0  0  0
   -0.3054   23.8670  -35.5864 H   0  0  0  0  0  0  0  0  0  0  0  0
    0.6472   23.8664  -37.1172 H   0  0  0  0  0  0  0  0  0  0  0  0
    2.0004   21.3848  -35.2366 H   0  0  0  0  0  0  0  0  0  0  0  0
    1.1644   22.1638  -33.8546 H   0  0  0  0  0  0  0  0  0  0  0  0
   -0.6759   22.7468  -35.6846 H   0  0  0  0  0  0  0  0  0  0  0  0
    0.0723   21.3851  -36.5810 H   0  0  0  0  0  0  0  0  0  0  0  0
    0.1870   20.4340  -33.0046 H   0  0  0  0  0  0  0  0  0  0  0  0
   -0.1408   22.1804  -33.2778 H   0  0  0  0  0  0  0  0  0  0  0  0
   -1.8745   20.0618  -32.1096 H   0  0  0  0  0  0  0  0  0  0  0  0
   -1.8931   21.8620  -31.8854 H   0  0  0  0  0  0  0  0  0  0  0  0
   -2.8860   21.5080  -34.4630 H   0  0  0  0  0  0  0  0  0  0  0  0
   -2.8734   18.8169  -34.4102 H   0  0  0  0  0  0  0  0  0  0  0  0
   -3.7230   16.6517  -35.2880 H   0  0  0  0  0  0  0  0  0  0  0  0
   -6.1073   16.0228  -34.9646 H   0  0  0  0  0  0  0  0  0  0  0  0
   -7.6364   17.5172  -33.7005 H   0  0  0  0  0  0  0  0  0  0  0  0
   -8.1846   19.2754  -30.8441 H   0  0  0  0  0  0  0  0  0  0  0  0
   -9.0295   19.8960  -32.3028 H   0  0  0  0  0  0  0  0  0  0  0  0
   -8.3377   18.2383  -32.3028 H   0  0  0  0  0  0  0  0  0  0  0  0
   -8.4444   21.7144  -31.3298 H   0  0  0  0  0  0  0  0  0  0  0  0
   -7.6636   23.9498  -30.5999 H   0  0  0  0  0  0  0  0  0  0  0  0
   -3.7161   23.0868  -32.1174 H   0  0  0  0  0  0  0  0  0  0  0  0
  1  2  1  0
  2  3  1  0
  3  4  1  0
  4  5  1  0
  3  6  1  0
  6  7  1  0
  7  8  1  0
  8  9  1  0
  9 10  1  0
 10 11  1  0
 11 12  1  0
 12 13  1  0
 13 14  1  0
 14 15  1  0
 15 16  2  0
 16 17  1  0
 17 18  2  0
 18 19  1  0
 19 20  2  0
 20 21  1  0
 21 22  2  0
 22 23  1  0
 22 24  1  0
 24 25  2  0
 25 26  1  0
 26 27  2  0
 27 28  1  0
 28 29  2  0
 28 30  1  0
 27 31  1  0
 31 32  2  0
 32 15  1  0
 21 16  1  0
 32 24  1  0
  1 33  1  0
  1 34  1  0
  1 35  1  0
  2 36  1  0
  2 37  1  0
  4 38  1  0
  4 39  1  0
  5 40  1  0
  5 41  1  0
  5 42  1  0
  6 43  1  0
  6 44  1  0
  7 45  1  0
  7 46  1  0
  9 47  1  0
  9 48  1  0
 10 49  1  0
 10 50  1  0
 12 51  1  0
 12 52  1  0
 13 53  1  0
 13 54  1  0
 14 55  1  0
 17 56  1  0
 18 57  1  0
 19 58  1  0
 20 59  1  0
 23 60  1  0
 23 61  1  0
 23 62  1  0
 25 63  1  0
 26 64  1  0
 31 65  1  0
M  CHG  3  22   1  28   1  30  -1
M  END
>  <UniqueID>  (6) 
6

>  <SMILES>  (6) 
CCN(CC)CCOCCOCCNc1c2ccccc2[n+](C)c2ccc([N+](=O)[O-])cc12

>  <Energy>  (6) 
86.41488672496112

>  <Genealogy>  (6) 
CCN(CC)CCOCCOCCNc1c2ccccc2[n+](C)c2ccc([N+](=O)[O-])cc12 (3D coordinates assigned)
CCN(CC)CCOCCOCCNc1c2ccccc2[n+](C)c2ccc([N+](=O)[O-])cc12 (optimized conformer: 86.41488672496112 kcal/mol)

>  <smiles>  (6) 
CCN(CC)CCOCCOCCNc1c2ccccc2[n+](C)c2ccc([N+](=O)[O-])cc12

>  <score_type>  (6) 
oracle

>  <origin>  (6) 
adg

>  <m_score__min__energy>  (6) 
-10.42

>  <m_primary>  (6) 
energy

$$$$
6:0
     RDKit          3D

 68 70  0  0  0  0  0  0  0  0999 V2000
   -6.1530   25.1430  -29.7770 C   0  0  0  0  0  0  0  0  0  0  0  0
   -5.0310   25.2520  -30.8220 C   0  0  0  0  0  0  0  0  0  0  0  0
   -3.9010   24.3110  -30.6040 N   0  0  0  0  0  0  0  0  0  0  0  0
   -3.1810   24.5300  -29.3270 C   0  0  0  0  0  0  0  0  0  0  0  0
   -3.6240   23.5400  -28.2480 C   0  0  0  0  0  0  0  0  0  0  0  0
   -4.3110   22.8970  -30.7810 C   0  0  0  0  0  0  0  0  0  0  0  0
   -3.6330   22.2790  -32.0140 C   0  0  0  0  0  0  0  0  0  0  0  0
   -4.5870   22.0310  -33.0940 N   0  0  0  0  0  0  0  0  0  0  0  0
   -5.6410   21.0750  -32.9110 C   0  0  0  0  0  0  0  0  0  0  0  0
   -6.9040   21.4940  -32.4630 C   0  0  0  0  0  0  0  0  0  0  0  0
   -7.1690   22.8600  -32.2300 C   0  0  0  0  0  0  0  0  0  0  0  0
   -8.4350   23.2810  -31.8340 C   0  0  0  0  0  0  0  0  0  0  0  0
   -9.4610   22.3540  -31.6820 C   0  0  0  0  0  0  0  0  0  0  0  0
   -9.2200   20.9980  -31.9030 C   0  0  0  0  0  0  0  0  0  0  0  0
   -7.9300   20.5320  -32.2660 C   0  0  0  0  0  0  0  0  0  0  0  0
   -7.6630   19.1850  -32.4430 N   0  0  0  0  0  0  0  0  0  0  0  0
   -8.6280   18.1680  -31.9680 C   0  0  0  0  0  0  0  0  0  0  0  0
   -6.4790   18.7870  -33.0380 C   0  0  0  0  0  0  0  0  0  0  0  0
   -6.2700   17.4550  -33.4700 C   0  0  0  0  0  0  0  0  0  0  0  0
   -5.0460   17.0500  -33.9970 C   0  0  0  0  0  0  0  0  0  0  0  0
   -3.9870   17.9520  -34.1190 C   0  0  0  0  0  0  0  0  0  0  0  0
   -2.7130   17.4780  -34.6010 N   0  0  0  0  0  0  0  0  0  0  0  0
   -1.4700   17.4770  -33.8250 C   0  0  0  0  0  0  0  0  0  0  0  0
   -1.1370   18.8790  -33.2880 C   0  0  0  0  0  0  0  0  0  0  0  0
   -0.8430   19.8990  -34.4130 C   0  0  0  0  0  0  0  0  0  0  0  0
   -0.4840   21.2950  -33.8740 C   0  0  0  0  0  0  0  0  0  0  0  0
   -0.0720   22.1960  -34.9630 N   0  0  0  0  0  0  0  0  0  0  0  0
    0.5270   21.4570  -36.0770 C   0  0  0  0  0  0  0  0  0  0  0  0
   -4.1960   19.2930  -33.7660 C   0  0  0  0  0  0  0  0  0  0  0  0
   -5.4350   19.7250  -33.2430 C   0  0  0  0  0  0  0  0  0  0  0  0
   -5.7189   25.1852  -28.7672 H   0  0  0  0  0  0  0  0  0  0  0  0
   -6.8584   25.9768  -29.9080 H   0  0  0  0  0  0  0  0  0  0  0  0
   -6.6847   24.1890  -29.9080 H   0  0  0  0  0  0  0  0  0  0  0  0
   -5.4622   25.0493  -31.8134 H   0  0  0  0  0  0  0  0  0  0  0  0
   -4.6173   26.2676  -30.7364 H   0  0  0  0  0  0  0  0  0  0  0  0
   -2.1018   24.4075  -29.5012 H   0  0  0  0  0  0  0  0  0  0  0  0
   -3.4117   25.5461  -28.9743 H   0  0  0  0  0  0  0  0  0  0  0  0
   -3.4314   23.9704  -27.2542 H   0  0  0  0  0  0  0  0  0  0  0  0
   -4.6994   23.3358  -28.3570 H   0  0  0  0  0  0  0  0  0  0  0  0
   -3.0597   22.6021  -28.3570 H   0  0  0  0  0  0  0  0  0  0  0  0
   -4.0235   22.3242  -29.8870 H   0  0  0  0  0  0  0  0  0  0  0  0
   -5.4009   22.8628  -30.9255 H   0  0  0  0  0  0  0  0  0  0  0  0
   -2.8570   22.9692  -32.3765 H   0  0  0  0  0  0  0  0  0  0  0  0
   -3.1974   21.3140  -31.7157 H   0  0  0  0  0  0  0  0  0  0  0  0
   -4.3360   22.2900  -34.0750 H   0  0  0  0  0  0  0  0  0  0  0  0
   -6.3663   23.6003  -32.3628 H   0  0  0  0  0  0  0  0  0  0  0  0
   -8.6244   24.3473  -31.6411 H   0  0  0  0  0  0  0  0  0  0  0  0
  -10.4655   22.6914  -31.3866 H   0  0  0  0  0  0  0  0  0  0  0  0
  -10.0441   20.2776  -31.7940 H   0  0  0  0  0  0  0  0  0  0  0  0
   -8.6380   18.1575  -30.8681 H   0  0  0  0  0  0  0  0  0  0  0  0
   -9.6331   18.4136  -32.3415 H   0  0  0  0  0  0  0  0  0  0  0  0
   -8.3300   17.1772  -32.3415 H   0  0  0  0  0  0  0  0  0  0  0  0
   -7.0898   16.7262  -33.3879 H   0  0  0  0  0  0  0  0  0  0  0  0
   -4.9120   16.0074  -34.3209 H   0  0  0  0  0  0  0  0  0  0  0  0
   -2.6610   17.1030  -35.5760 H   0  0  0  0  0  0  0  0  0  0  0  0
   -1.5797   16.7863  -32.9760 H   0  0  0  0  0  0  0  0  0  0  0  0
   -0.6513   17.1586  -34.4870 H   0  0  0  0  0  0  0  0  0  0  0  0
   -1.9925   19.2420  -32.6996 H   0  0  0  0  0  0  0  0  0  0  0  0
   -0.2275   18.7910  -32.6755 H   0  0  0  0  0  0  0  0  0  0  0  0
    0.0002   19.5266  -35.0134 H   0  0  0  0  0  0  0  0  0  0  0  0
   -1.7584   20.0017  -35.0142 H   0  0  0  0  0  0  0  0  0  0  0  0
   -1.3630   21.7215  -33.3685 H   0  0  0  0  0  0  0  0  0  0  0  0
    0.3555   21.1917  -33.1707 H   0  0  0  0  0  0  0  0  0  0  0  0
   -0.9270   22.6770  -35.3290 H   0  0  0  0  0  0  0  0  0  0  0  0
    1.1735   20.6593  -35.6824 H   0  0  0  0  0  0  0  0  0  0  0  0
   -0.2691   21.0128  -36.6926 H   0  0  0  0  0  0  0  0  0  0  0  0
    1.1264   22.1439  -36.6926 H   0  0  0  0  0  0  0  0  0  0  0  0
   -3.3816   20.0205  -33.8986 H   0  0  0  0  0  0  0  0  0  0  0  0
  1  2  1  0
  2  3  1  0
  3  4  1  0
  4  5  1  0
  3  6  1  0
  6  7  1  0
  7  8  1  0
  8  9  1  0
  9 10  2  0
 10 11  1  0
 11 12  2  0
 12 13  1  0
 13 14  2  0
 14 15  1  0
 15 16  2  0
 16 17  1  0
 16 18  1  0
 18 19  2  0
 19 20  1  0
 20 21  2  0
 21 22  1  0
 22 23  1  0
 23 24  1  0
 24 25  1  0
 25 26  1  0
 26 27  1  0
 27 28  1  0
 21 29  1  0
 29 30  2  0
 30  9  1  0
 15 10  1  0
 30 18  1  0
  1 31  1  0
  1 32  1  0
  1 33  1  0
  2 34  1  0
  2 35  1  0
  4 36  1  0
  4 37  1  0
  5 38  1  0
  5 39  1  0
  5 40  1  0
  6 41  1  0
  6 42  1  0
  7 43  1  0
  7 44  1  0
  8 45  1  0
 11 46  1  0
 12 47  1  0
 13 48  1  0
 14 49  1  0
 17 50  1  0
 17 51  1  0
 17 52  1  0
 19 53  1  0
 20 54  1  0
 22 55  1  0
 23 56  1  0
 23 57  1  0
 24 58  1  0
 24 59  1  0
 25 60  1  0
 25 61  1  0
 26 62  1  0
 26 63  1  0
 27 64  1  0
 28 65  1  0
 28 66  1  0
 28 67  1  0
 29 68  1  0
M  CHG  1  16   1
M  END
>  <UniqueID>  (7) 
7

>  <SMILES>  (7) 
CCN(CC)CCNc1c2ccccc2[n+](C)c2ccc(NCCCCNC)cc12

>  <Energy>  (7) 
90.65500751909101

>  <Genealogy>  (7) 
CCN(CC)CCNc1c2ccccc2[n+](C)c2ccc(NCCCCNC)cc12 (3D coordinates assigned)
CCN(CC)CCNc1c2ccccc2[n+](C)c2ccc(NCCCCNC)cc12 (optimized conformer: 90.65500751909101 kcal/mol)

>  <smiles>  (7) 
CCN(CC)CCNc1c2ccccc2[n+](C)c2ccc(NCCCCNC)cc12

>  <score_type>  (7) 
oracle

>  <origin>  (7) 
adg

>  <m_score__min__energy>  (7) 
-9.7699999999999996

>  <m_primary>  (7) 
energy

$$$$
7:0
     RDKit          3D

 66 68  0  0  0  0  0  0  0  0999 V2000
   -4.1820   24.0550  -27.7310 C   0  0  0  0  0  0  0  0  0  0  0  0
   -3.8370   22.7370  -28.4400 C   0  0  0  0  0  0  0  0  0  0  0  0
   -2.9250   22.9010  -29.5940 N   0  0  0  0  0  0  0  0  0  0  0  0
   -1.8520   23.8840  -29.3180 C   0  0  0  0  0  0  0  0  0  0  0  0
   -0.5370   23.1870  -28.9820 C   0  0  0  0  0  0  0  0  0  0  0  0
   -2.4200   21.6080  -30.1180 C   0  0  0  0  0  0  0  0  0  0  0  0
   -3.5820   20.7020  -30.5570 C   0  0  0  0  0  0  0  0  0  0  0  0
   -4.2400   21.2000  -31.7770 N   0  0  0  0  0  0  0  0  0  0  0  0
   -3.5050   21.1460  -33.0560 C   0  0  0  0  0  0  0  0  0  0  0  0
   -2.6890   19.8580  -33.1890 C   0  0  0  0  0  0  0  0  0  0  0  0
   -1.4860   20.0140  -34.1320 C   0  0  0  0  0  0  0  0  0  0  0  0
   -0.7290   21.2590  -33.8700 N   0  0  0  0  0  0  0  0  0  0  0  0
    0.2310   21.5380  -34.9520 C   0  0  0  0  0  0  0  0  0  0  0  0
   -0.0020   21.1430  -32.5950 C   0  0  0  0  0  0  0  0  0  0  0  0
   -5.3470   22.1170  -31.6220 C   0  0  0  0  0  0  0  0  0  0  0  0
   -5.0930   23.4090  -31.2400 N   0  0  0  0  0  0  0  0  0  0  0  0
   -6.0880   24.2660  -30.8590 C   0  0  0  0  0  0  0  0  0  0  0  0
   -5.7660   25.6730  -30.4690 C   0  0  0  0  0  0  0  0  0  0  0  0
   -7.3790   23.8460  -30.8430 N   0  0  0  0  0  0  0  0  0  0  0  0
   -7.6640   22.5790  -31.2170 C   0  0  0  0  0  0  0  0  0  0  0  0
   -9.1870   21.8910  -31.2480 S   0  0  0  0  0  0  0  0  0  0  0  0
   -8.6510   20.4090  -31.8440 C   0  0  0  0  0  0  0  0  0  0  0  0
   -7.2680   20.4490  -32.0360 C   0  0  0  0  0  0  0  0  0  0  0  0
   -6.6130   19.3750  -32.7970 C   0  0  0  0  0  0  0  0  0  0  0  0
   -6.6460   18.0510  -32.3260 C   0  0  0  0  0  0  0  0  0  0  0  0
   -6.1910   17.0050  -33.1350 C   0  0  0  0  0  0  0  0  0  0  0  0
   -5.7470   17.2670  -34.4350 C   0  0  0  0  0  0  0  0  0  0  0  0
   -5.7540   18.5760  -34.9250 C   0  0  0  0  0  0  0  0  0  0  0  0
   -6.1840   19.6280  -34.1090 C   0  0  0  0  0  0  0  0  0  0  0  0
   -6.6950   21.6860  -31.6470 C   0  0  0  0  0  0  0  0  0  0  0  0
   -4.1431   23.9065  -26.6418 H   0  0  0  0  0  0  0  0  0  0  0  0
   -3.4561   24.8287  -28.0217 H   0  0  0  0  0  0  0  0  0  0  0  0
   -5.1939   24.3738  -28.0217 H   0  0  0  0  0  0  0  0  0  0  0  0
   -3.3577   22.0664  -27.7116 H   0  0  0  0  0  0  0  0  0  0  0  0
   -4.7797   22.3276  -28.8320 H   0  0  0  0  0  0  0  0  0  0  0  0
   -1.7064   24.5151  -30.2071 H   0  0  0  0  0  0  0  0  0  0  0  0
   -2.1531   24.4942  -28.4537 H   0  0  0  0  0  0  0  0  0  0  0  0
   -0.4228   23.1265  -27.8896 H   0  0  0  0  0  0  0  0  0  0  0  0
   -0.5407   22.1725  -29.4071 H   0  0  0  0  0  0  0  0  0  0  0  0
    0.3005   23.7596  -29.4071 H   0  0  0  0  0  0  0  0  0  0  0  0
   -1.7669   21.8001  -30.9821 H   0  0  0  0  0  0  0  0  0  0  0  0
   -1.8607   21.0995  -29.3189 H   0  0  0  0  0  0  0  0  0  0  0  0
   -3.1911   19.6923  -30.7513 H   0  0  0  0  0  0  0  0  0  0  0  0
   -4.3283   20.6913  -29.7489 H   0  0  0  0  0  0  0  0  0  0  0  0
   -4.2273   21.1970  -33.8841 H   0  0  0  0  0  0  0  0  0  0  0  0
   -2.8082   21.9967  -33.0860 H   0  0  0  0  0  0  0  0  0  0  0  0
   -2.3208   19.5701  -32.1932 H   0  0  0  0  0  0  0  0  0  0  0  0
   -3.3490   19.0887  -33.6163 H   0  0  0  0  0  0  0  0  0  0  0  0
   -0.8135   19.1546  -33.9937 H   0  0  0  0  0  0  0  0  0  0  0  0
   -1.8680   20.0611  -35.1625 H   0  0  0  0  0  0  0  0  0  0  0  0
    1.2014   21.8200  -34.5175 H   0  0  0  0  0  0  0  0  0  0  0  0
    0.3549   20.6387  -35.5732 H   0  0  0  0  0  0  0  0  0  0  0  0
   -0.1464   22.3636  -35.5732 H   0  0  0  0  0  0  0  0  0  0  0  0
   -0.7078   21.2556  -31.7589 H   0  0  0  0  0  0  0  0  0  0  0  0
    0.4810   20.1564  -32.5368 H   0  0  0  0  0  0  0  0  0  0  0  0
    0.7640   21.9303  -32.5368 H   0  0  0  0  0  0  0  0  0  0  0  0
   -4.1090   23.7490  -31.1780 H   0  0  0  0  0  0  0  0  0  0  0  0
   -5.7474   25.7543  -29.3722 H   0  0  0  0  0  0  0  0  0  0  0  0
   -4.7813   25.9495  -30.8739 H   0  0  0  0  0  0  0  0  0  0  0  0
   -6.5324   26.3503  -30.8739 H   0  0  0  0  0  0  0  0  0  0  0  0
   -9.2936   19.5405  -32.0508 H   0  0  0  0  0  0  0  0  0  0  0  0
   -7.0309   17.8370  -31.3180 H   0  0  0  0  0  0  0  0  0  0  0  0
   -6.1823   15.9752  -32.7485 H   0  0  0  0  0  0  0  0  0  0  0  0
   -5.3924   16.4431  -35.0717 H   0  0  0  0  0  0  0  0  0  0  0  0
   -5.4210   18.7793  -35.9535 H   0  0  0  0  0  0  0  0  0  0  0  0
   -6.1858   20.6572  -34.4973 H   0  0  0  0  0  0  0  0  0  0  0  0
  1  2  1  0
  2  3  1  0
  3  4  1  0
  4  5  1  0
  3  6  1  0
  6  7  1  0
  7  8  1  0
  8  9  1  0
  9 10  1  0
 10 11  1  0
 11 12  1  0
 12 13  1  0
 12 14  1  0
  8 15  1  0
 15 16  2  0
 16 17  1  0
 17 18  1  0
 17 19  2  0
 19 20  1  0
 20 21  1  0
 21 22  1  0
 22 23  2  0
 23 24  1  0
 24 25  2  0
 25 26  1  0
 26 27  2  0
 27 28  1  0
 28 29  2  0
 23 30  1  0
 30 15  1  0
 30 20  2  0
 29 24  1  0
  1 31  1  0
  1 32  1  0
  1 33  1  0
  2 34  1  0
  2 35  1  0
  4 36  1  0
  4 37  1  0
  5 38  1  0
  5 39  1  0
  5 40  1  0
  6 41  1  0
  6 42  1  0
  7 43  1  0
  7 44  1  0
  9 45  1  0
  9 46  1  0
 10 47  1  0
 10 48  1  0
 11 49  1  0
 11 50  1  0
 13 51  1  0
 13 52  1  0
 13 53  1  0
 14 54  1  0
 14 55  1  0
 14 56  1  0
 16 57  1  0
 18 58  1  0
 18 59  1  0
 18 60  1  0
 22 61  1  0
 25 62  1  0
 26 63  1  0
 27 64  1  0
 28 65  1  0
 29 66  1  0
M  CHG  1  16   1
M  END
>  <UniqueID>  (8) 
8

>  <SMILES>  (8) 
CCN(CC)CCN(CCCN(C)C)c1[nH+]c(C)nc2scc(-c3ccccc3)c12

>  <Energy>  (8) 
107.74703320714855

>  <Genealogy>  (8) 
CCN(CC)CCN(CCCN(C)C)c1[nH+]c(C)nc2scc(-c3ccccc3)c12 (protonated)
CCN(CC)CCN(CCCN(C)C)c1[nH+]c(C)nc2scc(-c3ccccc3)c12 (3D coordinates assigned)
CCN(CC)CCN(CCCN(C)C)c1[nH+]c(C)nc2scc(-c3ccccc3)c12 (optimized conformer: 107.74703320714855 kcal/mol)

>  <smiles>  (8) 
CCN(CC)CCN(CCCN(C)C)c1nc(C)nc2scc(-c3ccccc3)c12

>  <score_type>  (8) 
oracle

>  <origin>  (8) 
adg

>  <m_score__min__energy>  (8) 
-7.5199999999999996

>  <m_primary>  (8) 
energy

$$$$
8:0
     RDKit          3D

 59 62  0  0  0  0  0  0  0  0999 V2000
   -2.8810   21.3770  -29.1990 C   0  0  0  0  0  0  0  0  0  0  0  0
   -3.9330   21.7590  -30.1360 N   0  0  0  0  0  0  0  0  0  0  0  0
   -4.3890   21.0160  -31.1730 C   0  0  0  0  0  0  0  0  0  0  0  0
   -5.4280   21.6800  -31.8180 C   0  0  0  0  0  0  0  0  0  0  0  0
   -6.2340   21.1720  -32.9860 C   0  0  0  0  0  0  0  0  0  0  0  0
   -6.3300   19.6890  -32.9870 N   0  0  1  0  0  0  0  0  0  0  0  0
   -7.6960   19.2850  -32.5710 C   0  0  0  0  0  0  0  0  0  0  0  0
   -7.7940   17.8080  -32.1600 C   0  0  0  0  0  0  0  0  0  0  0  0
   -6.4310   17.1240  -31.9560 C   0  0  0  0  0  0  0  0  0  0  0  0
   -5.6840   16.8630  -33.2100 N   0  0  0  0  0  0  0  0  0  0  0  0
   -4.2090   16.7330  -33.1090 C   0  0  0  0  0  0  0  0  0  0  0  0
   -3.4660   17.2770  -34.3440 C   0  0  0  0  0  0  0  0  0  0  0  0
   -1.9710   17.5420  -34.0930 C   0  0  0  0  0  0  0  0  0  0  0  0
   -1.7180   18.8870  -33.4620 C   0  0  0  0  0  0  0  0  0  0  0  0
   -2.2210   20.0550  -34.0620 C   0  0  0  0  0  0  0  0  0  0  0  0
   -2.0200   21.2990  -33.4560 C   0  0  0  0  0  0  0  0  0  0  0  0
   -1.3160   21.3870  -32.2520 C   0  0  0  0  0  0  0  0  0  0  0  0
   -0.8100   20.2320  -31.6520 C   0  0  0  0  0  0  0  0  0  0  0  0
   -1.0070   18.9850  -32.2540 C   0  0  0  0  0  0  0  0  0  0  0  0
   -6.1440   17.6060  -34.4070 C   0  0  0  0  0  0  0  0  0  0  0  0
   -6.0130   19.1410  -34.3350 C   0  0  0  0  0  0  0  0  0  0  0  0
   -5.6020   22.8670  -31.1290 C   0  0  0  0  0  0  0  0  0  0  0  0
   -6.5040   23.9150  -31.3180 C   0  0  0  0  0  0  0  0  0  0  0  0
   -6.4480   24.9990  -30.4240 C   0  0  0  0  0  0  0  0  0  0  0  0
   -5.5060   25.0130  -29.3730 C   0  0  0  0  0  0  0  0  0  0  0  0
   -4.6080   23.9430  -29.2070 C   0  0  0  0  0  0  0  0  0  0  0  0
   -4.6810   22.8790  -30.1100 C   0  0  0  0  0  0  0  0  0  0  0  0
   -3.2425   21.5083  -28.1684 H   0  0  0  0  0  0  0  0  0  0  0  0
   -2.6104   20.3232  -29.3612 H   0  0  0  0  0  0  0  0  0  0  0  0
   -1.9973   22.0116  -29.3612 H   0  0  0  0  0  0  0  0  0  0  0  0
   -3.9951   20.0308  -31.4631 H   0  0  0  0  0  0  0  0  0  0  0  0
   -7.2481   21.5944  -32.9294 H   0  0  0  0  0  0  0  0  0  0  0  0
   -5.7275   21.4824  -33.9118 H   0  0  0  0  0  0  0  0  0  0  0  0
   -5.6500   19.3310  -32.2790 H   0  0  0  0  0  0  0  0  0  0  0  0
   -7.9985   19.9064  -31.7152 H   0  0  0  0  0  0  0  0  0  0  0  0
   -8.3562   19.4261  -33.4395 H   0  0  0  0  0  0  0  0  0  0  0  0
   -8.3559   17.7480  -31.2163 H   0  0  0  0  0  0  0  0  0  0  0  0
   -8.2948   17.2804  -32.9851 H   0  0  0  0  0  0  0  0  0  0  0  0
   -5.8135   17.7712  -31.3158 H   0  0  0  0  0  0  0  0  0  0  0  0
   -6.6362   16.1431  -31.5024 H   0  0  0  0  0  0  0  0  0  0  0  0
   -3.8688   17.2894  -32.2231 H   0  0  0  0  0  0  0  0  0  0  0  0
   -3.9796   15.6597  -33.0360 H   0  0  0  0  0  0  0  0  0  0  0  0
   -3.5577   16.5421  -35.1573 H   0  0  0  0  0  0  0  0  0  0  0  0
   -3.9273   18.2422  -34.6002 H   0  0  0  0  0  0  0  0  0  0  0  0
   -1.5823   16.7603  -33.4237 H   0  0  0  0  0  0  0  0  0  0  0  0
   -1.4627   17.5311  -35.0685 H   0  0  0  0  0  0  0  0  0  0  0  0
   -2.7741   19.9899  -35.0106 H   0  0  0  0  0  0  0  0  0  0  0  0
   -2.4167   22.2100  -33.9278 H   0  0  0  0  0  0  0  0  0  0  0  0
   -1.1604   22.3667  -31.7766 H   0  0  0  0  0  0  0  0  0  0  0  0
   -0.2557   20.3030  -30.7045 H   0  0  0  0  0  0  0  0  0  0  0  0
   -0.6039   18.0778  -31.7801 H   0  0  0  0  0  0  0  0  0  0  0  0
   -5.5550   17.2569  -35.2680 H   0  0  0  0  0  0  0  0  0  0  0  0
   -7.2216   17.4015  -34.4900 H   0  0  0  0  0  0  0  0  0  0  0  0
   -4.9796   19.4171  -34.5916 H   0  0  0  0  0  0  0  0  0  0  0  0
   -6.7394   19.5670  -35.0427 H   0  0  0  0  0  0  0  0  0  0  0  0
   -7.2351   23.8938  -32.1396 H   0  0  0  0  0  0  0  0  0  0  0  0
   -7.1437   25.8425  -30.5447 H   0  0  0  0  0  0  0  0  0  0  0  0
   -5.4739   25.8661  -28.6793 H   0  0  0  0  0  0  0  0  0  0  0  0
   -3.8705   23.9438  -28.3909 H   0  0  0  0  0  0  0  0  0  0  0  0
  1  2  1  0
  2  3  1  0
  3  4  2  0
  4  5  1  0
  5  6  1  0
  6  7  1  0
  7  8  1  0
  8  9  1  0
  9 10  1  0
 10 11  1  0
 11 12  1  0
 12 13  1  0
 13 14  1  0
 14 15  2  0
 15 16  1  0
 16 17  2  0
 17 18  1  0
 18 19  2  0
 10 20  1  0
 20 21  1  0
  4 22  1  0
 22 23  2  0
 23 24  1  0
 24 25  2  0
 25 26  1  0
 26 27  2  0
 27  2  1  0
 21  6  1  0
 27 22  1  0
 19 14  1  0
  1 28  1  0
  1 29  1  0
  1 30  1  0
  3 31  1  0
  5 32  1  0
  5 33  1  0
  6 34  1  1
  7 35  1  0
  7 36  1  0
  8 37  1  0
  8 38  1  0
  9 39  1  0
  9 40  1  0
 11 41  1  0
 11 42  1  0
 12 43  1  0
 12 44  1  0
 13 45  1  0
 13 46  1  0
 15 47  1  0
 16 48  1  0
 17 49  1  0
 18 50  1  0
 19 51  1  0
 20 52  1  0
 20 53  1  0
 21 54  1  0
 21 55  1  0
 23 56  1  0
 24 57  1  0
 25 58  1  0
 26 59  1  0
M  CHG  1   6   1
M  END
>  <UniqueID>  (9) 
9

>  <SMILES>  (9) 
Cn1cc(C[N@H+]2CCCN(CCCc3ccccc3)CC2)c2ccccc21

>  <Energy>  (9) 
109.1155194698269

>  <Genealogy>  (9) 
Cn1cc(C[NH+]2CCCN(CCCc3ccccc3)CC2)c2ccccc21 (protonated)
Cn1cc(C[N@H+]2CCCN(CCCc3ccccc3)CC2)c2ccccc21 (chirality)
Cn1cc(C[N@H+]2CCCN(CCCc3ccccc3)CC2)c2ccccc21 (3D coordinates assigned)
Cn1cc(C[N@H+]2CCCN(CCCc3ccccc3)CC2)c2ccccc21 (nonaromatic ring conformer: 109.1155194698269 kcal/mol)

>  <smiles>  (9) 
Cn1cc(CN2CCCN(CCCc3ccccc3)CC2)c2ccccc21

>  <score_type>  (9) 
oracle

>  <origin>  (9) 
adg

>  <m_score__min__energy>  (9) 
-5.9100000000000001

>  <m_primary>  (9) 
energy

$$$$
9:0
     RDKit          3D

 57 59  0  0  0  0  0  0  0  0999 V2000
   -1.1530   17.6990  -34.3750 C   0  0  0  0  0  0  0  0  0  0  0  0
   -2.5510   17.1550  -34.0980 C   0  0  0  0  0  0  0  0  0  0  0  0
   -3.5230   18.2650  -33.9590 N   0  0  0  0  0  0  0  0  0  0  0  0
   -4.6340   18.0970  -34.9160 C   0  0  0  0  0  0  0  0  0  0  0  0
   -2.8730   19.5800  -34.1660 C   0  0  0  0  0  0  0  0  0  0  0  0
   -2.7840   20.3720  -32.8440 C   0  0  0  0  0  0  0  0  0  0  0  0
   -3.4790   19.7000  -31.7240 N   0  0  0  0  0  0  0  0  0  0  0  0
   -4.7350   20.3550  -31.3670 C   0  0  0  0  0  0  0  0  0  0  0  0
   -5.9710   19.7530  -31.7230 C   0  0  0  0  0  0  0  0  0  0  0  0
   -6.0480   18.3850  -32.0820 C   0  0  0  0  0  0  0  0  0  0  0  0
   -7.2460   17.8150  -32.4990 C   0  0  0  0  0  0  0  0  0  0  0  0
   -8.3930   18.5900  -32.5800 C   0  0  0  0  0  0  0  0  0  0  0  0
   -8.3560   19.9320  -32.2130 C   0  0  0  0  0  0  0  0  0  0  0  0
   -7.1590   20.5350  -31.7380 C   0  0  0  0  0  0  0  0  0  0  0  0
   -7.1260   21.8620  -31.3560 N   0  0  0  0  0  0  0  0  0  0  0  0
   -8.3930   22.6160  -31.2020 C   0  0  0  0  0  0  0  0  0  0  0  0
   -5.9250   22.4670  -31.0470 C   0  0  0  0  0  0  0  0  0  0  0  0
   -5.8210   23.8730  -30.9230 C   0  0  0  0  0  0  0  0  0  0  0  0
   -4.6620   24.4720  -30.4330 C   0  0  0  0  0  0  0  0  0  0  0  0
   -4.5830   25.8960  -30.3070 N   0  0  0  0  0  0  0  0  0  0  0  0
   -3.6070   23.6730  -30.0070 C   0  0  0  0  0  0  0  0  0  0  0  0
   -3.6470   22.2810  -30.1760 C   0  0  0  0  0  0  0  0  0  0  0  0
   -2.6670   21.4900  -29.4730 N   0  0  0  0  0  0  0  0  0  0  0  0
   -1.2730   21.4760  -29.9200 C   0  0  0  0  0  0  0  0  0  0  0  0
   -2.9730   20.9690  -28.1390 C   0  0  0  0  0  0  0  0  0  0  0  0
   -4.7530   21.6850  -30.8580 C   0  0  0  0  0  0  0  0  0  0  0  0
   -0.6415   17.8980  -33.4217 H   0  0  0  0  0  0  0  0  0  0  0  0
   -0.5790   16.9586  -34.9515 H   0  0  0  0  0  0  0  0  0  0  0  0
   -1.2304   18.6326  -34.9515 H   0  0  0  0  0  0  0  0  0  0  0  0
   -2.8588   16.5069  -34.9318 H   0  0  0  0  0  0  0  0  0  0  0  0
   -2.5296   16.5819  -33.1593 H   0  0  0  0  0  0  0  0  0  0  0  0
   -5.5749   17.9547  -34.3642 H   0  0  0  0  0  0  0  0  0  0  0  0
   -4.7118   18.9936  -35.5485 H   0  0  0  0  0  0  0  0  0  0  0  0
   -4.4433   17.2175  -35.5485 H   0  0  0  0  0  0  0  0  0  0  0  0
   -1.8577   19.4208  -34.5581 H   0  0  0  0  0  0  0  0  0  0  0  0
   -3.4775   20.1593  -34.8795 H   0  0  0  0  0  0  0  0  0  0  0  0
   -1.7236   20.4927  -32.5776 H   0  0  0  0  0  0  0  0  0  0  0  0
   -3.2777   21.3416  -33.0055 H   0  0  0  0  0  0  0  0  0  0  0  0
   -2.7940   19.6590  -30.9490 H   0  0  0  0  0  0  0  0  0  0  0  0
   -3.6570   18.7000  -31.9640 H   0  0  0  0  0  0  0  0  0  0  0  0
   -5.1431   17.7617  -32.0300 H   0  0  0  0  0  0  0  0  0  0  0  0
   -7.2837   16.7483  -32.7648 H   0  0  0  0  0  0  0  0  0  0  0  0
   -9.3336   18.1434  -32.9349 H   0  0  0  0  0  0  0  0  0  0  0  0
   -9.2706   20.5380  -32.2919 H   0  0  0  0  0  0  0  0  0  0  0  0
   -8.6138   22.7474  -30.1324 H   0  0  0  0  0  0  0  0  0  0  0  0
   -8.2934   23.6019  -31.6796 H   0  0  0  0  0  0  0  0  0  0  0  0
   -9.2120   22.0582  -31.6796 H   0  0  0  0  0  0  0  0  0  0  0  0
   -6.6712   24.5051  -31.2190 H   0  0  0  0  0  0  0  0  0  0  0  0
   -3.8640   26.4410  -30.8310 H   0  0  0  0  0  0  0  0  0  0  0  0
   -5.2390   26.4140  -29.6790 H   0  0  0  0  0  0  0  0  0  0  0  0
   -2.7306   24.1379  -29.5318 H   0  0  0  0  0  0  0  0  0  0  0  0
   -0.6072   21.4693  -29.0444 H   0  0  0  0  0  0  0  0  0  0  0  0
   -1.0912   20.5760  -30.5257 H   0  0  0  0  0  0  0  0  0  0  0  0
   -1.0732   22.3722  -30.5257 H   0  0  0  0  0  0  0  0  0  0  0  0
   -2.5712   21.6531  -27.3771 H   0  0  0  0  0  0  0  0  0  0  0  0
   -4.0633   20.8861  -28.0189 H   0  0  0  0  0  0  0  0  0  0  0  0
   -2.5144   19.9764  -28.0189 H   0  0  0  0  0  0  0  0  0  0  0  0
  1  2  1  0
  2  3  1  0
  3  4  1  0
  3  5  1  0
  5  6  1  0
  6  7  1  0
  7  8  1  0
  8  9  2  0
  9 10  1  0
 10 11  2  0
 11 12  1  0
 12 13  2  0
 13 14  1  0
 14 15  2  0
 15 16  1  0
 15 17  1  0
 17 18  2  0
 18 19  1  0
 19 20  1  0
 19 21  2  0
 21 22  1  0
 22 23  1  0
 23 24  1  0
 23 25  1  0
 22 26  2  0
 26  8  1  0
 14  9  1  0
 26 17  1  0
  1 27  1  0
  1 28  1  0
  1 29  1  0
  2 30  1  0
  2 31  1  0
  4 32  1  0
  4 33  1  0
  4 34  1  0
  5 35  1  0
  5 36  1  0
  6 37  1  0
  6 38  1  0
  7 39  1  0
  7 40  1  0
 10 41  1  0
 11 42  1  0
 12 43  1  0
 13 44  1  0
 16 45  1  0
 16 46  1  0
 16 47  1  0
 18 48  1  0
 20 49  1  0
 20 50  1  0
 21 51  1  0
 24 52  1  0
 24 53  1  0
 24 54  1  0
 25 55  1  0
 25 56  1  0
 25 57  1  0
M  CHG  2   7   1  15   1
M  END
>  <UniqueID>  (10) 
10

>  <SMILES>  (10) 
CCN(C)CC[NH2+]c1c2ccccc2[n+](C)c2cc(N)cc(N(C)C)c12

>  <Energy>  (10) 
95.7414670668748

>  <Genealogy>  (10) 
CCN(C)CC[NH2+]c1c2ccccc2[n+](C)c2cc(N)cc(N(C)C)c12 (protonated)
CCN(C)CC[NH2+]c1c2ccccc2[n+](C)c2cc(N)cc(N(C)C)c12 (3D coordinates assigned)
CCN(C)CC[NH2+]c1c2ccccc2[n+](C)c2cc(N)cc(N(C)C)c12 (optimized conformer: 95.7414670668748 kcal/mol)

>  <smiles>  (10) 
CCN(C)CCNc1c2ccccc2[n+](C)c2cc(N)cc(N(C)C)c12

>  <score_type>  (10) 
oracle

>  <origin>  (10) 
adg

>  <m_score__min__energy>  (10) 
-6.1500000000000004

>  <m_primary>  (10) 
energy

$$$$
10:0
     RDKit          3D

 57 59  0  0  0  0  0  0  0  0999 V2000
   -6.0570   25.2670  -29.8760 C   0  0  0  0  0  0  0  0  0  0  0  0
   -5.7200   24.4810  -31.1400 C   0  0  0  0  0  0  0  0  0  0  0  0
   -4.3660   24.0720  -31.1160 O   0  0  0  0  0  0  0  0  0  0  0  0
   -4.2510   22.6680  -31.2490 C   0  0  0  0  0  0  0  0  0  0  0  0
   -4.0010   22.3220  -32.7170 C   0  0  0  0  0  0  0  0  0  0  0  0
   -4.5070   20.9770  -33.0200 N   0  0  0  0  0  0  0  0  0  0  0  0
   -5.7700   20.5470  -32.7440 C   0  0  0  0  0  0  0  0  0  0  0  0
   -6.8580   21.2980  -32.2810 C   0  0  0  0  0  0  0  0  0  0  0  0
   -8.0700   20.6330  -32.0260 C   0  0  0  0  0  0  0  0  0  0  0  0
   -8.1810   19.2340  -32.2100 C   0  0  0  0  0  0  0  0  0  0  0  0
   -9.4890   18.5450  -31.9630 C   0  0  0  0  0  0  0  0  0  0  0  0
   -7.0740   18.5000  -32.6810 C   0  0  0  0  0  0  0  0  0  0  0  0
   -5.8880   19.1900  -32.9310 C   0  0  0  0  0  0  0  0  0  0  0  0
   -4.6550   18.7470  -33.3320 C   0  0  0  0  0  0  0  0  0  0  0  0
   -4.2210   17.4580  -33.6060 C   0  0  0  0  0  0  0  0  0  0  0  0
   -2.8800   17.2970  -33.9550 C   0  0  0  0  0  0  0  0  0  0  0  0
   -2.0460   18.3770  -34.0300 N   0  0  0  0  0  0  0  0  0  0  0  0
   -2.4600   19.6630  -33.7690 C   0  0  0  0  0  0  0  0  0  0  0  0
   -1.4590   20.7790  -33.9980 C   0  0  0  0  0  0  0  0  0  0  0  0
   -0.0880   20.2760  -34.2630 N   0  0  0  0  0  0  0  0  0  0  0  0
    0.8190   20.5690  -33.1200 C   0  0  0  0  0  0  0  0  0  0  0  0
    1.1810   19.3050  -32.3330 C   0  0  0  0  0  0  0  0  0  0  0  0
    0.6740   18.1660  -32.9700 O   0  0  0  0  0  0  0  0  0  0  0  0
    0.4350   20.8590  -35.5300 C   0  0  0  0  0  0  0  0  0  0  0  0
    0.6290   19.7680  -36.5880 C   0  0  0  0  0  0  0  0  0  0  0  0
    0.2760   18.5160  -36.0650 O   0  0  0  0  0  0  0  0  0  0  0  0
   -3.8180   19.8500  -33.3860 C   0  0  0  0  0  0  0  0  0  0  0  0
   -5.7995   24.6664  -28.9912 H   0  0  0  0  0  0  0  0  0  0  0  0
   -5.4817   26.2045  -29.8629 H   0  0  0  0  0  0  0  0  0  0  0  0
   -7.1327   25.4967  -29.8629 H   0  0  0  0  0  0  0  0  0  0  0  0
   -6.3666   23.5930  -31.1986 H   0  0  0  0  0  0  0  0  0  0  0  0
   -5.8844   25.1246  -32.0168 H   0  0  0  0  0  0  0  0  0  0  0  0
   -3.4104   22.3080  -30.6376 H   0  0  0  0  0  0  0  0  0  0  0  0
   -5.1797   22.1868  -30.9084 H   0  0  0  0  0  0  0  0  0  0  0  0
   -4.5163   23.0552  -33.3549 H   0  0  0  0  0  0  0  0  0  0  0  0
   -2.9183   22.3475  -32.9099 H   0  0  0  0  0  0  0  0  0  0  0  0
   -6.7662   22.3824  -32.1207 H   0  0  0  0  0  0  0  0  0  0  0  0
   -8.9423   21.2066  -31.6794 H   0  0  0  0  0  0  0  0  0  0  0  0
   -9.6578   18.4561  -30.8797 H   0  0  0  0  0  0  0  0  0  0  0  0
  -10.3032   19.1313  -32.4140 H   0  0  0  0  0  0  0  0  0  0  0  0
   -9.4660   17.5420  -32.4140 H   0  0  0  0  0  0  0  0  0  0  0  0
   -7.1433   17.4147  -32.8466 H   0  0  0  0  0  0  0  0  0  0  0  0
   -4.9057   16.5989  -33.5504 H   0  0  0  0  0  0  0  0  0  0  0  0
   -2.4903   16.2915  -34.1718 H   0  0  0  0  0  0  0  0  0  0  0  0
   -1.0580   18.1980  -34.3210 H   0  0  0  0  0  0  0  0  0  0  0  0
   -1.7881   21.3745  -34.8623 H   0  0  0  0  0  0  0  0  0  0  0  0
   -1.4188   21.3819  -33.0788 H   0  0  0  0  0  0  0  0  0  0  0  0
    1.7432   21.0223  -33.5077 H   0  0  0  0  0  0  0  0  0  0  0  0
    0.2942   21.2541  -32.4380 H   0  0  0  0  0  0  0  0  0  0  0  0
    2.2758   19.2234  -32.2637 H   0  0  0  0  0  0  0  0  0  0  0  0
    0.7404   19.3748  -31.3275 H   0  0  0  0  0  0  0  0  0  0  0  0
    0.7880   18.3210  -33.9440 H   0  0  0  0  0  0  0  0  0  0  0  0
   -0.2806   21.6045  -35.9070 H   0  0  0  0  0  0  0  0  0  0  0  0
    1.4072   21.3320  -35.3271 H   0  0  0  0  0  0  0  0  0  0  0  0
   -0.0056   19.9897  -37.4587 H   0  0  0  0  0  0  0  0  0  0  0  0
    1.6867   19.7451  -36.8892 H   0  0  0  0  0  0  0  0  0  0  0  0
    0.6830   18.4600  -35.1610 H   0  0  0  0  0  0  0  0  0  0  0  0
  1  2  1  0
  2  3  1  0
  3  4  1  0
  4  5  1  0
  5  6  1  0
  6  7  1  0
  7  8  2  0
  8  9  1  0
  9 10  2  0
 10 11  1  0
 10 12  1  0
 12 13  2  0
 13 14  1  0
 14 15  2  0
 15 16  1  0
 16 17  2  0
 17 18  1  0
 18 19  1  0
 19 20  1  0
 20 21  1  0
 21 22  1  0
 22 23  1  0
 20 24  1  0
 24 25  1  0
 25 26  1  0
 18 27  2  0
 27  6  1  0
 13  7  1  0
 27 14  1  0
  1 28  1  0
  1 29  1  0
  1 30  1  0
  2 31  1  0
  2 32  1  0
  4 33  1  0
  4 34  1  0
  5 35  1  0
  5 36  1  0
  8 37  1  0
  9 38  1  0
 11 39  1  0
 11 40  1  0
 11 41  1  0
 12 42  1  0
 15 43  1  0
 16 44  1  0
 17 45  1  0
 19 46  1  0
 19 47  1  0
 21 48  1  0
 21 49  1  0
 22 50  1  0
 22 51  1  0
 23 52  1  0
 24 53  1  0
 24 54  1  0
 25 55  1  0
 25 56  1  0
 26 57  1  0
M  CHG  1  17   1
M  END
>  <UniqueID>  (11) 
11

>  <SMILES>  (11) 
CCOCCn1c2ccc(C)cc2c2cc[nH+]c(CN(CCO)CCO)c21

>  <Energy>  (11) 
103.53963327470196

>  <Genealogy>  (11) 
CCOCCn1c2ccc(C)cc2c2cc[nH+]c(CN(CCO)CCO)c21 (protonated)
CCOCCn1c2ccc(C)cc2c2cc[nH+]c(CN(CCO)CCO)c21 (3D coordinates assigned)
CCOCCn1c2ccc(C)cc2c2cc[nH+]c(CN(CCO)CCO)c21 (optimized conformer: 103.53963327470196 kcal/mol)

>  <smiles>  (11) 
CCOCCn1c2ccc(C)cc2c2ccnc(CN(CCO)CCO)c21

>  <score_type>  (11) 
oracle

>  <origin>  (11) 
adg

>  <m_score__min__energy>  (11) 
-7.0899999999999999

>  <m_primary>  (11) 
energy

$$$$
11:0
     RDKit          3D

 58 61  0  0  0  0  0  0  0  0999 V2000
   -8.8070   19.2650  -32.6540 C   0  0  0  0  0  0  0  0  0  0  0  0
   -7.9150   18.7690  -31.5100 C   0  0  0  0  0  0  0  0  0  0  0  0
   -6.5810   18.2980  -31.9690 N   0  0  0  0  0  0  0  0  0  0  0  0
   -6.1220   17.0490  -31.3020 C   0  0  0  0  0  0  0  0  0  0  0  0
   -5.1170   16.2300  -32.1200 C   0  0  0  0  0  0  0  0  0  0  0  0
   -6.4440   18.1870  -33.4200 C   0  0  0  0  0  0  0  0  0  0  0  0
   -7.0170   17.2670  -33.9870 O   0  0  0  0  0  0  0  0  0  0  0  0
   -5.5920   19.1060  -34.2860 C   0  0  0  0  0  0  0  0  0  0  0  0
   -4.5950   19.8230  -33.4660 N   0  0  0  0  0  0  0  0  0  0  0  0
   -3.2890   19.3900  -33.4050 C   0  0  0  0  0  0  0  0  0  0  0  0
   -2.9360   18.3850  -34.0840 O   0  0  0  0  0  0  0  0  0  0  0  0
   -2.3630   20.0390  -32.6130 N   0  0  0  0  0  0  0  0  0  0  0  0
   -0.9590   19.5750  -32.5920 C   0  0  0  0  0  0  0  0  0  0  0  0
   -0.1960   20.1460  -33.7600 C   0  0  0  0  0  0  0  0  0  0  0  0
   -0.5090   21.4220  -34.2570 C   0  0  0  0  0  0  0  0  0  0  0  0
    0.2230   21.9650  -35.3170 C   0  0  0  0  0  0  0  0  0  0  0  0
    1.2740   21.2420  -35.8860 C   0  0  0  0  0  0  0  0  0  0  0  0
    1.5940   19.9730  -35.3970 C   0  0  0  0  0  0  0  0  0  0  0  0
    0.8640   19.4260  -34.3370 C   0  0  0  0  0  0  0  0  0  0  0  0
   -2.7290   21.1400  -31.8750 C   0  0  0  0  0  0  0  0  0  0  0  0
   -1.8810   21.7440  -31.1630 O   0  0  0  0  0  0  0  0  0  0  0  0
   -4.0500   21.5910  -31.9230 C   0  0  0  0  0  0  0  0  0  0  0  0
   -4.6280   22.6900  -31.2510 C   0  0  0  0  0  0  0  0  0  0  0  0
   -5.9660   22.8800  -31.6010 C   0  0  0  0  0  0  0  0  0  0  0  0
   -6.4560   21.6710  -32.6660 S   0  0  0  0  0  0  0  0  0  0  0  0
   -4.9470   20.9160  -32.7310 C   0  0  0  0  0  0  0  0  0  0  0  0
   -6.8510   23.9410  -31.0220 C   0  0  0  0  0  0  0  0  0  0  0  0
   -6.0110   25.0820  -30.4300 C   0  0  0  0  0  0  0  0  0  0  0  0
   -4.8900   24.5300  -29.5350 C   0  0  0  0  0  0  0  0  0  0  0  0
   -3.9090   23.6500  -30.3320 C   0  0  0  0  0  0  0  0  0  0  0  0
   -9.6967   19.7597  -32.2372 H   0  0  0  0  0  0  0  0  0  0  0  0
   -8.2457   19.9805  -33.2728 H   0  0  0  0  0  0  0  0  0  0  0  0
   -9.1186   18.4106  -33.2728 H   0  0  0  0  0  0  0  0  0  0  0  0
   -7.7683   19.5945  -30.7980 H   0  0  0  0  0  0  0  0  0  0  0  0
   -8.4236   17.9101  -31.0478 H   0  0  0  0  0  0  0  0  0  0  0  0
   -5.9020   19.0450  -31.6860 H   0  0  0  0  0  0  0  0  0  0  0  0
   -5.6481   17.3222  -30.3476 H   0  0  0  0  0  0  0  0  0  0  0  0
   -7.0121   16.4161  -31.1714 H   0  0  0  0  0  0  0  0  0  0  0  0
   -4.4476   15.6845  -31.4386 H   0  0  0  0  0  0  0  0  0  0  0  0
   -5.6585   15.5127  -32.7542 H   0  0  0  0  0  0  0  0  0  0  0  0
   -4.5237   16.9051  -32.7542 H   0  0  0  0  0  0  0  0  0  0  0  0
   -5.0698   18.5047  -35.0447 H   0  0  0  0  0  0  0  0  0  0  0  0
   -6.2488   19.8447  -34.7686 H   0  0  0  0  0  0  0  0  0  0  0  0
   -0.4840   19.9014  -31.6551 H   0  0  0  0  0  0  0  0  0  0  0  0
   -0.9463   18.4773  -32.6616 H   0  0  0  0  0  0  0  0  0  0  0  0
   -1.3338   21.9965  -33.8101 H   0  0  0  0  0  0  0  0  0  0  0  0
   -0.0291   22.9634  -35.7037 H   0  0  0  0  0  0  0  0  0  0  0  0
    1.8497   21.6717  -36.7190 H   0  0  0  0  0  0  0  0  0  0  0  0
    2.4210   19.4035  -35.8462 H   0  0  0  0  0  0  0  0  0  0  0  0
    1.1207   18.4276  -33.9531 H   0  0  0  0  0  0  0  0  0  0  0  0
   -7.4994   24.3430  -31.8145 H   0  0  0  0  0  0  0  0  0  0  0  0
   -7.4599   23.4965  -30.2210 H   0  0  0  0  0  0  0  0  0  0  0  0
   -5.5640   25.6632  -31.2500 H   0  0  0  0  0  0  0  0  0  0  0  0
   -6.6661   25.7207  -29.8193 H   0  0  0  0  0  0  0  0  0  0  0  0
   -4.3368   25.3729  -29.0951 H   0  0  0  0  0  0  0  0  0  0  0  0
   -5.3496   23.9097  -28.7514 H   0  0  0  0  0  0  0  0  0  0  0  0
   -3.2589   24.3001  -30.9359 H   0  0  0  0  0  0  0  0  0  0  0  0
   -3.3230   23.0580  -29.6136 H   0  0  0  0  0  0  0  0  0  0  0  0
  1  2  1  0
  2  3  1  0
  3  4  1  0
  4  5  1  0
  3  6  1  0
  6  7  2  0
  6  8  1  0
  8  9  1  0
  9 10  1  0
 10 11  2  0
 10 12  1  0
 12 13  1  0
 13 14  1  0
 14 15  2  0
 15 16  1  0
 16 17  2  0
 17 18  1  0
 18 19  2  0
 12 20  1  0
 20 21  2  0
 20 22  1  0
 22 23  1  0
 23 24  2  0
 24 25  1  0
 25 26  1  0
 24 27  1  0
 27 28  1  0
 28 29  1  0
 29 30  1  0
 26  9  1  0
 19 14  1  0
 26 22  2  0
 30 23  1  0
  1 31  1  0
  1 32  1  0
  1 33  1  0
  2 34  1  0
  2 35  1  0
  3 36  1  0
  4 37  1  0
  4 38  1  0
  5 39  1  0
  5 40  1  0
  5 41  1  0
  8 42  1  0
  8 43  1  0
 13 44  1  0
 13 45  1  0
 15 46  1  0
 16 47  1  0
 17 48  1  0
 18 49  1  0
 19 50  1  0
 27 51  1  0
 27 52  1  0
 28 53  1  0
 28 54  1  0
 29 55  1  0
 29 56  1  0
 30 57  1  0
 30 58  1  0
M  CHG  1   3   1
M  END
>  <UniqueID>  (12) 
12

>  <SMILES>  (12) 
CC[NH+](CC)C(=O)Cn1c(=O)n(Cc2ccccc2)c(=O)c2c3c(sc21)CCCC3

>  <Energy>  (12) 
104.50211641549194

>  <Genealogy>  (12) 
CC[NH+](CC)C(=O)Cn1c(=O)n(Cc2ccccc2)c(=O)c2c3c(sc21)CCCC3 (protonated)
CC[NH+](CC)C(=O)Cn1c(=O)n(Cc2ccccc2)c(=O)c2c3c(sc21)CCCC3 (3D coordinates assigned)
CC[NH+](CC)C(=O)Cn1c(=O)n(Cc2ccccc2)c(=O)c2c3c(sc21)CCCC3 (nonaromatic ring conformer: 104.50211641549194 kcal/mol)

>  <smiles>  (12) 
CCN(CC)C(=O)Cn1c(=O)n(Cc2ccccc2)c(=O)c2c3c(sc21)CCCC3

>  <score_type>  (12) 
oracle

>  <origin>  (12) 
adg

>  <m_score__min__energy>  (12) 
-8.0399999999999991

>  <m_primary>  (12) 
energy

$$$$
12:0
     RDKit          3D

 54 56  0  0  0  0  0  0  0  0999 V2000
   -0.0950   18.0640  -31.2960 C   0  0  0  0  0  0  0  0  0  0  0  0
    0.0290   19.5640  -31.0600 C   0  0  0  0  0  0  0  0  0  0  0  0
   -0.3130   20.3040  -32.2780 N   0  0  0  0  0  0  0  0  0  0  0  0
    0.4460   20.3640  -33.3890 C   0  0  0  0  0  0  0  0  0  0  0  0
   -0.2500   21.0550  -34.3560 C   0  0  0  0  0  0  0  0  0  0  0  0
   -1.4430   21.4160  -33.8530 N   0  0  0  0  0  0  0  0  0  0  0  0
   -1.4620   20.9570  -32.5830 C   0  0  0  0  0  0  0  0  0  0  0  0
   -2.6570   21.0800  -31.6610 C   0  0  0  0  0  0  0  0  0  0  0  0
   -3.8030   21.8210  -32.2480 N   0  0  0  0  0  0  0  0  0  0  0  0
   -4.8020   22.2520  -31.2410 C   0  0  0  0  0  0  0  0  0  0  0  0
   -5.3600   23.6340  -31.6010 C   0  0  0  0  0  0  0  0  0  0  0  0
   -4.6780   24.7110  -30.8510 N   0  0  0  0  0  0  0  0  0  0  0  0
   -5.6520   25.6160  -30.2150 C   0  0  0  0  0  0  0  0  0  0  0  0
   -3.8000   24.1350  -29.8200 C   0  0  0  0  0  0  0  0  0  0  0  0
   -4.4340   21.1630  -33.4180 C   0  0  0  0  0  0  0  0  0  0  0  0
   -5.0520   19.8210  -33.0700 C   0  0  0  0  0  0  0  0  0  0  0  0
   -4.2340   18.6780  -33.1250 C   0  0  0  0  0  0  0  0  0  0  0  0
   -4.7460   17.4150  -32.8400 C   0  0  0  0  0  0  0  0  0  0  0  0
   -6.0850   17.2620  -32.4890 C   0  0  0  0  0  0  0  0  0  0  0  0
   -6.9250   18.3800  -32.4080 C   0  0  0  0  0  0  0  0  0  0  0  0
   -8.2710   18.2190  -32.0440 C   0  0  0  0  0  0  0  0  0  0  0  0
   -9.1130   19.3270  -31.9510 C   0  0  0  0  0  0  0  0  0  0  0  0
   -8.6200   20.6050  -32.2150 C   0  0  0  0  0  0  0  0  0  0  0  0
   -7.2830   20.7820  -32.5790 C   0  0  0  0  0  0  0  0  0  0  0  0
   -6.4140   19.6770  -32.6890 C   0  0  0  0  0  0  0  0  0  0  0  0
   -0.1381   17.5429  -30.3282 H   0  0  0  0  0  0  0  0  0  0  0  0
   -1.0133   17.8570  -31.8651 H   0  0  0  0  0  0  0  0  0  0  0  0
    0.7769   17.7090  -31.8651 H   0  0  0  0  0  0  0  0  0  0  0  0
   -0.6550   19.8612  -30.2515 H   0  0  0  0  0  0  0  0  0  0  0  0
    1.0676   19.7963  -30.7818 H   0  0  0  0  0  0  0  0  0  0  0  0
    1.4518   19.9338  -33.5045 H   0  0  0  0  0  0  0  0  0  0  0  0
    0.1107   21.2750  -35.3716 H   0  0  0  0  0  0  0  0  0  0  0  0
   -2.1950   21.9260  -34.3650 H   0  0  0  0  0  0  0  0  0  0  0  0
   -2.9978   20.0671  -31.4004 H   0  0  0  0  0  0  0  0  0  0  0  0
   -2.3233   21.6550  -30.7846 H   0  0  0  0  0  0  0  0  0  0  0  0
   -5.6262   21.5241  -31.2132 H   0  0  0  0  0  0  0  0  0  0  0  0
   -4.3152   22.3086  -30.2562 H   0  0  0  0  0  0  0  0  0  0  0  0
   -5.2196   23.8057  -32.6784 H   0  0  0  0  0  0  0  0  0  0  0  0
   -6.4271   23.6532  -31.3349 H   0  0  0  0  0  0  0  0  0  0  0  0
   -5.5665   25.5365  -29.1212 H   0  0  0  0  0  0  0  0  0  0  0  0
   -5.4469   26.6514  -30.5246 H   0  0  0  0  0  0  0  0  0  0  0  0
   -6.6696   25.3355  -30.5246 H   0  0  0  0  0  0  0  0  0  0  0  0
   -4.1888   24.3900  -28.8231 H   0  0  0  0  0  0  0  0  0  0  0  0
   -3.7701   23.0412  -29.9331 H   0  0  0  0  0  0  0  0  0  0  0  0
   -2.7848   24.5432  -29.9331 H   0  0  0  0  0  0  0  0  0  0  0  0
   -5.2220   21.8225  -33.8106 H   0  0  0  0  0  0  0  0  0  0  0  0
   -3.6461   20.9834  -34.1643 H   0  0  0  0  0  0  0  0  0  0  0  0
   -3.1735   18.7836  -33.3974 H   0  0  0  0  0  0  0  0  0  0  0  0
   -4.0897   16.5338  -32.8923 H   0  0  0  0  0  0  0  0  0  0  0  0
   -6.4843   16.2597  -32.2746 H   0  0  0  0  0  0  0  0  0  0  0  0
   -8.6638   17.2138  -31.8310 H   0  0  0  0  0  0  0  0  0  0  0  0
  -10.1677   19.1929  -31.6690 H   0  0  0  0  0  0  0  0  0  0  0  0
   -9.2865   21.4765  -32.1363 H   0  0  0  0  0  0  0  0  0  0  0  0
   -6.9040   21.7945  -32.7820 H   0  0  0  0  0  0  0  0  0  0  0  0
  1  2  1  0
  2  3  1  0
  3  4  1  0
  4  5  2  0
  5  6  1  0
  6  7  2  0
  7  8  1  0
  8  9  1  0
  9 10  1  0
 10 11  1  0
 11 12  1  0
 12 13  1  0
 12 14  1  0
  9 15  1  0
 15 16  1  0
 16 17  2  0
 17 18  1  0
 18 19  2  0
 19 20  1  0
 20 21  2  0
 21 22  1  0
 22 23  2  0
 23 24  1  0
 24 25  2  0
  7  3  1  0
 25 16  1  0
 25 20  1  0
  1 26  1  0
  1 27  1  0
  1 28  1  0
  2 29  1  0
  2 30  1  0
  4 31  1  0
  5 32  1  0
  6 33  1  0
  8 34  1  0
  8 35  1  0
 10 36  1  0
 10 37  1  0
 11 38  1  0
 11 39  1  0
 13 40  1  0
 13 41  1  0
 13 42  1  0
 14 43  1  0
 14 44  1  0
 14 45  1  0
 15 46  1  0
 15 47  1  0
 17 48  1  0
 18 49  1  0
 19 50  1  0
 21 51  1  0
 22 52  1  0
 23 53  1  0
 24 54  1  0
M  CHG  1   6   1
M  END
>  <UniqueID>  (13) 
13

>  <SMILES>  (13) 
CCn1cc[nH+]c1CN(CCN(C)C)Cc1cccc2ccccc12

>  <Energy>  (13) 
90.75220234615824

>  <Genealogy>  (13) 
CCn1cc[nH+]c1CN(CCN(C)C)Cc1cccc2ccccc12 (protonated)
CCn1cc[nH+]c1CN(CCN(C)C)Cc1cccc2ccccc12 (3D coordinates assigned)
CCn1cc[nH+]c1CN(CCN(C)C)Cc1cccc2ccccc12 (optimized conformer: 90.75220234615824 kcal/mol)

>  <smiles>  (13) 
CCn1ccnc1CN(CCN(C)C)Cc1cccc2ccccc12

>  <score_type>  (13) 
oracle

>  <origin>  (13) 
adg

>  <m_score__min__energy>  (13) 
-7.75

>  <m_primary>  (13) 
energy

$$$$
13:0
     RDKit          3D

 71 73  0  0  0  0  0  0  0  0999 V2000
   -3.3280   17.2230  -34.1000 C   0  0  0  0  0  0  0  0  0  0  0  0
   -2.6400   18.5880  -34.1370 C   0  0  0  0  0  0  0  0  0  0  0  0
   -1.9830   18.8970  -32.8460 N   0  0  0  0  0  0  0  0  0  0  0  0
   -1.2470   17.7190  -32.3430 C   0  0  0  0  0  0  0  0  0  0  0  0
   -1.0680   20.0550  -32.9940 C   0  0  0  0  0  0  0  0  0  0  0  0
   -1.6720   21.1490  -33.8890 C   0  0  0  0  0  0  0  0  0  0  0  0
   -3.0990   21.5450  -33.4350 C   0  0  0  0  0  0  0  0  0  0  0  0
   -3.4000   21.3520  -31.9900 N   0  0  0  0  0  0  0  0  0  0  0  0
   -4.7930   21.5090  -31.5920 C   0  0  0  0  0  0  0  0  0  0  0  0
   -5.6930   20.4230  -31.7520 C   0  0  0  0  0  0  0  0  0  0  0  0
   -5.2310   19.1090  -32.0060 C   0  0  0  0  0  0  0  0  0  0  0  0
   -6.1200   18.0440  -32.1190 C   0  0  0  0  0  0  0  0  0  0  0  0
   -7.4830   18.2570  -31.9740 C   0  0  0  0  0  0  0  0  0  0  0  0
   -7.9670   19.5400  -31.7330 C   0  0  0  0  0  0  0  0  0  0  0  0
   -7.0890   20.6520  -31.6480 C   0  0  0  0  0  0  0  0  0  0  0  0
   -7.5660   21.9310  -31.4720 N   0  0  0  0  0  0  0  0  0  0  0  0
   -8.9920   22.2270  -31.7410 C   0  0  0  0  0  0  0  0  0  0  0  0
   -6.7150   22.9360  -31.0550 C   0  0  0  0  0  0  0  0  0  0  0  0
   -7.2300   24.1600  -30.5660 C   0  0  0  0  0  0  0  0  0  0  0  0
   -6.3910   25.1910  -30.1770 C   0  0  0  0  0  0  0  0  0  0  0  0
   -5.0190   25.0240  -30.2130 C   0  0  0  0  0  0  0  0  0  0  0  0
   -4.4500   23.8100  -30.6320 C   0  0  0  0  0  0  0  0  0  0  0  0
   -3.0610   23.6190  -30.5330 O   0  0  0  0  0  0  0  0  0  0  0  0
   -2.3170   23.3400  -29.3470 C   0  0  0  0  0  0  0  0  0  0  0  0
   -1.2600   22.2660  -29.6130 C   0  0  0  0  0  0  0  0  0  0  0  0
   -1.9220   20.9480  -29.7670 N   0  0  0  0  0  0  0  0  0  0  0  0
   -0.9720   19.8150  -29.6980 C   0  0  0  0  0  0  0  0  0  0  0  0
    0.3660   20.1700  -29.0330 C   0  0  0  0  0  0  0  0  0  0  0  0
   -3.0910   20.7660  -28.8790 C   0  0  0  0  0  0  0  0  0  0  0  0
   -2.6820   20.1070  -27.5650 C   0  0  0  0  0  0  0  0  0  0  0  0
   -5.2980   22.7510  -31.0960 C   0  0  0  0  0  0  0  0  0  0  0  0
   -3.4817   16.9181  -33.0543 H   0  0  0  0  0  0  0  0  0  0  0  0
   -4.3007   17.2887  -34.6095 H   0  0  0  0  0  0  0  0  0  0  0  0
   -2.6966   16.4802  -34.6095 H   0  0  0  0  0  0  0  0  0  0  0  0
   -1.8810   18.5848  -34.9332 H   0  0  0  0  0  0  0  0  0  0  0  0
   -3.4040   19.3557  -34.3293 H   0  0  0  0  0  0  0  0  0  0  0  0
   -1.2514   17.7261  -31.2430 H   0  0  0  0  0  0  0  0  0  0  0  0
   -1.7325   16.8010  -32.7057 H   0  0  0  0  0  0  0  0  0  0  0  0
   -0.2091   17.7528  -32.7057 H   0  0  0  0  0  0  0  0  0  0  0  0
   -0.8671   20.4794  -31.9993 H   0  0  0  0  0  0  0  0  0  0  0  0
   -0.1406   19.6997  -33.4669 H   0  0  0  0  0  0  0  0  0  0  0  0
   -1.0262   22.0385  -33.8480 H   0  0  0  0  0  0  0  0  0  0  0  0
   -1.7379   20.7533  -34.9132 H   0  0  0  0  0  0  0  0  0  0  0  0
   -3.2438   22.6098  -33.6698 H   0  0  0  0  0  0  0  0  0  0  0  0
   -3.7801   20.8694  -33.9731 H   0  0  0  0  0  0  0  0  0  0  0  0
   -3.0250   20.4370  -31.6530 H   0  0  0  0  0  0  0  0  0  0  0  0
   -2.8140   22.0170  -31.4340 H   0  0  0  0  0  0  0  0  0  0  0  0
   -4.1518   18.9268  -32.1158 H   0  0  0  0  0  0  0  0  0  0  0  0
   -5.7411   17.0318  -32.3236 H   0  0  0  0  0  0  0  0  0  0  0  0
   -8.1823   17.4112  -32.0495 H   0  0  0  0  0  0  0  0  0  0  0  0
   -9.0487   19.6946  -31.6063 H   0  0  0  0  0  0  0  0  0  0  0  0
   -9.5295   22.3386  -30.7878 H   0  0  0  0  0  0  0  0  0  0  0  0
   -9.0703   23.1605  -32.3175 H   0  0  0  0  0  0  0  0  0  0  0  0
   -9.4354   21.4017  -32.3175 H   0  0  0  0  0  0  0  0  0  0  0  0
   -8.3192   24.2954  -30.4933 H   0  0  0  0  0  0  0  0  0  0  0  0
   -6.8179   26.1465  -29.8381 H   0  0  0  0  0  0  0  0  0  0  0  0
   -4.3637   25.8536  -29.9092 H   0  0  0  0  0  0  0  0  0  0  0  0
   -1.8194   24.2605  -29.0078 H   0  0  0  0  0  0  0  0  0  0  0  0
   -3.0079   22.9730  -28.5737 H   0  0  0  0  0  0  0  0  0  0  0  0
   -0.7122   22.5111  -30.5349 H   0  0  0  0  0  0  0  0  0  0  0  0
   -0.5568   22.2265  -28.7680 H   0  0  0  0  0  0  0  0  0  0  0  0
   -1.4410   19.0032  -29.1226 H   0  0  0  0  0  0  0  0  0  0  0  0
   -0.7477   19.5204  -30.7338 H   0  0  0  0  0  0  0  0  0  0  0  0
    0.2514   20.1396  -27.9394 H   0  0  0  0  0  0  0  0  0  0  0  0
    1.1328   19.4442  -29.3416 H   0  0  0  0  0  0  0  0  0  0  0  0
    0.6722   21.1805  -29.3416 H   0  0  0  0  0  0  0  0  0  0  0  0
   -3.5368   21.7486  -28.6652 H   0  0  0  0  0  0  0  0  0  0  0  0
   -3.8184   20.1150  -29.3861 H   0  0  0  0  0  0  0  0  0  0  0  0
   -3.0547   20.7075  -26.7221 H   0  0  0  0  0  0  0  0  0  0  0  0
   -3.1113   19.0956  -27.5128 H   0  0  0  0  0  0  0  0  0  0  0  0
   -1.5851   20.0428  -27.5128 H   0  0  0  0  0  0  0  0  0  0  0  0
  1  2  1  0
  2  3  1  0
  3  4  1  0
  3  5  1  0
  5  6  1  0
  6  7  1  0
  7  8  1  0
  8  9  1  0
  9 10  2  0
 10 11  1  0
 11 12  2  0
 12 13  1  0
 13 14  2  0
 14 15  1  0
 15 16  2  0
 16 17  1  0
 16 18  1  0
 18 19  2  0
 19 20  1  0
 20 21  2  0
 21 22  1  0
 22 23  1  0
 23 24  1  0
 24 25  1  0
 25 26  1  0
 26 27  1  0
 27 28  1  0
 26 29  1  0
 29 30  1  0
 22 31  2  0
 31  9  1  0
 15 10  1  0
 31 18  1  0
  1 32  1  0
  1 33  1  0
  1 34  1  0
  2 35  1  0
  2 36  1  0
  4 37  1  0
  4 38  1  0
  4 39  1  0
  5 40  1  0
  5 41  1  0
  6 42  1  0
  6 43  1  0
  7 44  1  0
  7 45  1  0
  8 46  1  0
  8 47  1  0
 11 48  1  0
 12 49  1  0
 13 50  1  0
 14 51  1  0
 17 52  1  0
 17 53  1  0
 17 54  1  0
 19 55  1  0
 20 56  1  0
 21 57  1  0
 24 58  1  0
 24 59  1  0
 25 60  1  0
 25 61  1  0
 27 62  1  0
 27 63  1  0
 28 64  1  0
 28 65  1  0
 28 66  1  0
 29 67  1  0
 29 68  1  0
 30 69  1  0
 30 70  1  0
 30 71  1  0
M  CHG  2   8   1  16   1
M  END
>  <UniqueID>  (14) 
14

>  <SMILES>  (14) 
CCN(C)CCC[NH2+]c1c2ccccc2[n+](C)c2cccc(OCCN(CC)CC)c12

>  <Energy>  (14) 
108.20953387278226

>  <Genealogy>  (14) 
CCN(C)CCC[NH2+]c1c2ccccc2[n+](C)c2cccc(OCCN(CC)CC)c12 (protonated)
CCN(C)CCC[NH2+]c1c2ccccc2[n+](C)c2cccc(OCCN(CC)CC)c12 (3D coordinates assigned)
CCN(C)CCC[NH2+]c1c2ccccc2[n+](C)c2cccc(OCCN(CC)CC)c12 (optimized conformer: 108.20953387278226 kcal/mol)

>  <smiles>  (14) 
CCN(C)CCCNc1c2ccccc2[n+](C)c2cccc(OCCN(CC)CC)c12

>  <score_type>  (14) 
oracle

>  <origin>  (14) 
adg

>  <m_score__min__energy>  (14) 
-7.4000000000000004

>  <m_primary>  (14) 
energy

$$$$
14:0
     RDKit          3D

 70 72  0  0  0  0  0  0  0  0999 V2000
   -2.6150   23.0810  -30.0460 C   0  0  0  0  0  0  0  0  0  0  0  0
   -3.3470   24.4020  -29.8360 C   0  0  0  0  0  0  0  0  0  0  0  0
   -4.6120   24.4060  -30.6120 N   0  0  0  0  0  0  0  0  0  0  0  0
   -5.3320   25.7000  -30.5140 C   0  0  0  0  0  0  0  0  0  0  0  0
   -6.3990   25.6650  -29.4210 C   0  0  0  0  0  0  0  0  0  0  0  0
   -5.4980   23.2810  -30.2240 C   0  0  0  0  0  0  0  0  0  0  0  0
   -6.6020   23.0680  -31.2740 C   0  0  0  0  0  0  0  0  0  0  0  0
   -6.0390   22.5940  -32.5440 N   0  0  0  0  0  0  0  0  0  0  0  0
   -5.7820   21.2000  -32.7570 C   0  0  0  0  0  0  0  0  0  0  0  0
   -6.7750   20.1990  -32.6030 C   0  0  0  0  0  0  0  0  0  0  0  0
   -8.0840   20.5330  -32.2100 C   0  0  0  0  0  0  0  0  0  0  0  0
   -9.0510   19.5420  -32.0480 C   0  0  0  0  0  0  0  0  0  0  0  0
   -8.7310   18.2040  -32.2710 C   0  0  0  0  0  0  0  0  0  0  0  0
   -7.4370   17.8400  -32.6520 C   0  0  0  0  0  0  0  0  0  0  0  0
   -6.4300   18.8170  -32.8150 C   0  0  0  0  0  0  0  0  0  0  0  0
   -5.1280   18.4670  -33.1400 N   0  0  0  0  0  0  0  0  0  0  0  0
   -4.7210   17.0690  -33.3530 C   0  0  0  0  0  0  0  0  0  0  0  0
   -4.1950   19.4600  -33.2420 C   0  0  0  0  0  0  0  0  0  0  0  0
   -2.9210   19.3140  -33.5230 O   0  0  0  0  0  0  0  0  0  0  0  0
   -2.3840   20.5230  -33.5520 C   0  0  0  0  0  0  0  0  0  0  0  0
   -0.9860   20.7930  -33.8980 C   0  0  0  0  0  0  0  0  0  0  0  0
   -0.3360   21.5650  -33.1470 O   0  0  0  0  0  0  0  0  0  0  0  0
   -0.3460   20.2060  -35.0600 N   0  0  0  0  0  0  0  0  0  0  0  0
   -0.0280   21.0850  -36.1960 C   0  0  0  0  0  0  0  0  0  0  0  0
    0.2350   22.5150  -35.7130 C   0  0  0  0  0  0  0  0  0  0  0  0
    1.5110   22.5870  -34.9890 N   0  0  0  0  0  0  0  0  0  0  0  0
    2.6050   22.0250  -35.7880 C   0  0  0  0  0  0  0  0  0  0  0  0
    0.2450   18.8460  -35.0560 C   0  0  0  0  0  0  0  0  0  0  0  0
    1.0290   18.5800  -33.7660 C   0  0  0  0  0  0  0  0  0  0  0  0
    1.0880   18.5720  -36.3140 C   0  0  0  0  0  0  0  0  0  0  0  0
   -3.3410   21.4960  -33.2900 C   0  0  0  0  0  0  0  0  0  0  0  0
   -4.4990   20.7800  -33.0750 C   0  0  0  0  0  0  0  0  0  0  0  0
   -2.3697   22.6384  -29.0693 H   0  0  0  0  0  0  0  0  0  0  0  0
   -3.2592   22.3905  -30.6101 H   0  0  0  0  0  0  0  0  0  0  0  0
   -1.6880   23.2611  -30.6101 H   0  0  0  0  0  0  0  0  0  0  0  0
   -3.5742   24.5274  -28.7671 H   0  0  0  0  0  0  0  0  0  0  0  0
   -2.7083   25.2291  -30.1793 H   0  0  0  0  0  0  0  0  0  0  0  0
   -4.6083   26.4952  -30.2818 H   0  0  0  0  0  0  0  0  0  0  0  0
   -5.8293   25.8923  -31.4761 H   0  0  0  0  0  0  0  0  0  0  0  0
   -5.9135   25.6809  -28.4340 H   0  0  0  0  0  0  0  0  0  0  0  0
   -7.0553   26.5421  -29.5210 H   0  0  0  0  0  0  0  0  0  0  0  0
   -6.9964   24.7468  -29.5210 H   0  0  0  0  0  0  0  0  0  0  0  0
   -4.8986   22.3625  -30.1395 H   0  0  0  0  0  0  0  0  0  0  0  0
   -5.9700   23.5203  -29.2596 H   0  0  0  0  0  0  0  0  0  0  0  0
   -7.3170   22.3218  -30.8972 H   0  0  0  0  0  0  0  0  0  0  0  0
   -7.1050   24.0299  -31.4522 H   0  0  0  0  0  0  0  0  0  0  0  0
   -6.1740   23.1750  -33.4000 H   0  0  0  0  0  0  0  0  0  0  0  0
   -8.3468   21.5857  -32.0289 H   0  0  0  0  0  0  0  0  0  0  0  0
  -10.0713   19.8174  -31.7428 H   0  0  0  0  0  0  0  0  0  0  0  0
   -9.5022   17.4296  -32.1462 H   0  0  0  0  0  0  0  0  0  0  0  0
   -7.1997   16.7803  -32.8271 H   0  0  0  0  0  0  0  0  0  0  0  0
   -4.5776   16.5765  -32.3799 H   0  0  0  0  0  0  0  0  0  0  0  0
   -5.5029   16.5417  -33.9192 H   0  0  0  0  0  0  0  0  0  0  0  0
   -3.7782   17.0438  -33.9192 H   0  0  0  0  0  0  0  0  0  0  0  0
    0.8689   20.7052  -36.7072 H   0  0  0  0  0  0  0  0  0  0  0  0
   -0.8836   21.0954  -36.8872 H   0  0  0  0  0  0  0  0  0  0  0  0
    0.2730   23.1891  -36.5814 H   0  0  0  0  0  0  0  0  0  0  0  0
   -0.5766   22.8162  -35.0343 H   0  0  0  0  0  0  0  0  0  0  0  0
    1.4220   21.9930  -34.1290 H   0  0  0  0  0  0  0  0  0  0  0  0
    3.3810   21.6263  -35.1181 H   0  0  0  0  0  0  0  0  0  0  0  0
    2.2168   21.2147  -36.4226 H   0  0  0  0  0  0  0  0  0  0  0  0
    3.0376   22.8125  -36.4226 H   0  0  0  0  0  0  0  0  0  0  0  0
   -0.5904   18.1309  -35.0831 H   0  0  0  0  0  0  0  0  0  0  0  0
    0.3900   18.7968  -32.8973 H   0  0  0  0  0  0  0  0  0  0  0  0
    1.3412   17.5256  -33.7375 H   0  0  0  0  0  0  0  0  0  0  0  0
    1.9184   19.2267  -33.7375 H   0  0  0  0  0  0  0  0  0  0  0  0
    2.0951   18.2447  -36.0164 H   0  0  0  0  0  0  0  0  0  0  0  0
    0.6081   17.7836  -36.9124 H   0  0  0  0  0  0  0  0  0  0  0  0
    1.1634   19.4919  -36.9124 H   0  0  0  0  0  0  0  0  0  0  0  0
   -3.2055   22.5872  -33.2609 H   0  0  0  0  0  0  0  0  0  0  0  0
  1  2  1  0
  2  3  1  0
  3  4  1  0
  4  5  1  0
  3  6  1  0
  6  7  1  0
  7  8  1  0
  8  9  1  0
  9 10  2  0
 10 11  1  0
 11 12  2  0
 12 13  1  0
 13 14  2  0
 14 15  1  0
 15 16  2  0
 16 17  1  0
 16 18  1  0
 18 19  1  0
 19 20  1  0
 20 21  1  0
 21 22  2  0
 21 23  1  0
 23 24  1  0
 24 25  1  0
 25 26  1  0
 26 27  1  0
 23 28  1  0
 28 29  1  0
 28 30  1  0
 20 31  2  0
 31 32  1  0
 32  9  1  0
 15 10  1  0
 32 18  2  0
  1 33  1  0
  1 34  1  0
  1 35  1  0
  2 36  1  0
  2 37  1  0
  4 38  1  0
  4 39  1  0
  5 40  1  0
  5 41  1  0
  5 42  1  0
  6 43  1  0
  6 44  1  0
  7 45  1  0
  7 46  1  0
  8 47  1  0
 11 48  1  0
 12 49  1  0
 13 50  1  0
 14 51  1  0
 17 52  1  0
 17 53  1  0
 17 54  1  0
 24 55  1  0
 24 56  1  0
 25 57  1  0
 25 58  1  0
 26 59  1  0
 27 60  1  0
 27 61  1  0
 27 62  1  0
 28 63  1  0
 29 64  1  0
 29 65  1  0
 29 66  1  0
 30 67  1  0
 30 68  1  0
 30 69  1  0
 31 70  1  0
M  CHG  1  16   1
M  END
>  <UniqueID>  (15) 
15

>  <SMILES>  (15) 
CCN(CC)CCNc1c2ccccc2[n+](C)c2oc(C(=O)N(CCNC)C(C)C)cc12

>  <Energy>  (15) 
118.91482970807695

>  <Genealogy>  (15) 
CCN(CC)CCNc1c2ccccc2[n+](C)c2oc(C(=O)N(CCNC)C(C)C)cc12 (3D coordinates assigned)
CCN(CC)CCNc1c2ccccc2[n+](C)c2oc(C(=O)N(CCNC)C(C)C)cc12 (optimized conformer: 118.91482970807695 kcal/mol)

>  <smiles>  (15) 
CCN(CC)CCNc1c2ccccc2[n+](C)c2oc(C(=O)N(CCNC)C(C)C)cc12

>  <score_type>  (15) 
oracle

>  <origin>  (15) 
adg

>  <m_score__min__energy>  (15) 
-8.4900000000000002

>  <m_primary>  (15) 
energy

$$$$
15:0
     RDKit          3D

 59 61  0  0  0  0  0  0  0  0999 V2000
   -3.6500   23.8140  -27.8230 C   0  0  0  0  0  0  0  0  0  0  0  0
   -3.9380   22.3060  -27.8470 C   0  0  0  0  0  0  0  0  0  0  0  0
   -2.7860   21.4930  -28.3200 N   0  0  0  0  0  0  0  0  0  0  0  0
   -2.1500   20.8200  -27.1560 C   0  0  0  0  0  0  0  0  0  0  0  0
   -2.7750   19.4600  -26.8180 C   0  0  0  0  0  0  0  0  0  0  0  0
   -1.8280   22.2600  -29.1700 C   0  0  0  0  0  0  0  0  0  0  0  0
   -1.6720   21.7410  -30.6090 C   0  0  0  0  0  0  0  0  0  0  0  0
   -2.2320   20.4420  -30.6850 O   0  0  0  0  0  0  0  0  0  0  0  0
   -2.8340   20.2090  -31.9450 C   0  0  0  0  0  0  0  0  0  0  0  0
   -2.8350   21.4960  -32.7740 C   0  0  0  0  0  0  0  0  0  0  0  0
   -4.1150   21.6810  -33.4570 N   0  0  0  0  0  0  0  0  0  0  0  0
   -5.3450   21.4350  -32.7590 C   0  0  0  0  0  0  0  0  0  0  0  0
   -6.0110   20.2080  -32.9140 C   0  0  0  0  0  0  0  0  0  0  0  0
   -5.5080   19.2170  -33.7840 C   0  0  0  0  0  0  0  0  0  0  0  0
   -6.1260   17.9730  -33.8790 C   0  0  0  0  0  0  0  0  0  0  0  0
   -7.2460   17.6930  -33.1050 C   0  0  0  0  0  0  0  0  0  0  0  0
   -7.7800   18.6680  -32.2630 C   0  0  0  0  0  0  0  0  0  0  0  0
   -7.2010   19.9600  -32.1790 C   0  0  0  0  0  0  0  0  0  0  0  0
   -7.7540   20.9590  -31.3980 N   0  0  0  0  0  0  0  0  0  0  0  0
   -9.1270   20.8060  -30.8630 C   0  0  0  0  0  0  0  0  0  0  0  0
   -7.0370   22.1140  -31.1400 C   0  0  0  0  0  0  0  0  0  0  0  0
   -7.4520   23.0480  -30.1560 C   0  0  0  0  0  0  0  0  0  0  0  0
   -6.7440   24.2290  -29.9390 C   0  0  0  0  0  0  0  0  0  0  0  0
   -5.5980   24.5130  -30.6790 C   0  0  0  0  0  0  0  0  0  0  0  0
   -4.8810   25.7300  -30.4550 N   0  0  0  0  0  0  0  0  0  0  0  0
   -5.1440   23.5920  -31.6260 C   0  0  0  0  0  0  0  0  0  0  0  0
   -5.8390   22.3840  -31.8520 C   0  0  0  0  0  0  0  0  0  0  0  0
   -3.5843   24.1582  -26.7803 H   0  0  0  0  0  0  0  0  0  0  0  0
   -2.6975   24.0136  -28.3358 H   0  0  0  0  0  0  0  0  0  0  0  0
   -4.4619   24.3506  -28.3358 H   0  0  0  0  0  0  0  0  0  0  0  0
   -4.1970   21.9840  -26.8276 H   0  0  0  0  0  0  0  0  0  0  0  0
   -4.7632   22.1439  -28.5560 H   0  0  0  0  0  0  0  0  0  0  0  0
   -3.1800   20.7330  -28.9250 H   0  0  0  0  0  0  0  0  0  0  0  0
   -1.0844   20.6668  -27.3820 H   0  0  0  0  0  0  0  0  0  0  0  0
   -2.3021   21.4717  -26.2830 H   0  0  0  0  0  0  0  0  0  0  0  0
   -2.8290   19.3426  -25.7256 H   0  0  0  0  0  0  0  0  0  0  0  0
   -3.7881   19.4063  -27.2430 H   0  0  0  0  0  0  0  0  0  0  0  0
   -2.1560   18.6562  -27.2430 H   0  0  0  0  0  0  0  0  0  0  0  0
   -2.1758   23.3024  -29.2196 H   0  0  0  0  0  0  0  0  0  0  0  0
   -0.8416   22.1491  -28.6960 H   0  0  0  0  0  0  0  0  0  0  0  0
   -2.1978   22.4123  -31.3039 H   0  0  0  0  0  0  0  0  0  0  0  0
   -0.6071   21.7073  -30.8826 H   0  0  0  0  0  0  0  0  0  0  0  0
   -2.2685   19.4320  -32.4802 H   0  0  0  0  0  0  0  0  0  0  0  0
   -3.8720   19.8785  -31.7923 H   0  0  0  0  0  0  0  0  0  0  0  0
   -2.6562   22.3528  -32.1077 H   0  0  0  0  0  0  0  0  0  0  0  0
   -2.0414   21.4239  -33.5323 H   0  0  0  0  0  0  0  0  0  0  0  0
   -4.1560   22.0900  -34.4180 H   0  0  0  0  0  0  0  0  0  0  0  0
   -4.6177   19.4299  -34.3939 H   0  0  0  0  0  0  0  0  0  0  0  0
   -5.7280   17.2120  -34.5664 H   0  0  0  0  0  0  0  0  0  0  0  0
   -7.7130   16.6984  -33.1568 H   0  0  0  0  0  0  0  0  0  0  0  0
   -8.6648   18.4311  -31.6540 H   0  0  0  0  0  0  0  0  0  0  0  0
   -9.0946   20.8096  -29.7635 H   0  0  0  0  0  0  0  0  0  0  0  0
   -9.7524   21.6400  -31.2141 H   0  0  0  0  0  0  0  0  0  0  0  0
   -9.5535   19.8548  -31.2141 H   0  0  0  0  0  0  0  0  0  0  0  0
   -8.3480   22.8366  -29.5539 H   0  0  0  0  0  0  0  0  0  0  0  0
   -7.0927   24.9423  -29.1777 H   0  0  0  0  0  0  0  0  0  0  0  0
   -4.6330   26.0360  -29.4880 H   0  0  0  0  0  0  0  0  0  0  0  0
   -4.5810   26.3300  -31.2560 H   0  0  0  0  0  0  0  0  0  0  0  0
   -4.2334   23.8107  -32.2030 H   0  0  0  0  0  0  0  0  0  0  0  0
  1  2  1  0
  2  3  1  0
  3  4  1  0
  4  5  1  0
  3  6  1  0
  6  7  1  0
  7  8  1  0
  8  9  1  0
  9 10  1  0
 10 11  1  0
 11 12  1  0
 12 13  2  0
 13 14  1  0
 14 15  2  0
 15 16  1  0
 16 17  2  0
 17 18  1  0
 18 19  2  0
 19 20  1  0
 19 21  1  0
 21 22  2  0
 22 23  1  0
 23 24  2  0
 24 25  1  0
 24 26  1  0
 26 27  2  0
 27 12  1  0
 18 13  1  0
 27 21  1  0
  1 28  1  0
  1 29  1  0
  1 30  1  0
  2 31  1  0
  2 32  1  0
  3 33  1  0
  4 34  1  0
  4 35  1  0
  5 36  1  0
  5 37  1  0
  5 38  1  0
  6 39  1  0
  6 40  1  0
  7 41  1  0
  7 42  1  0
  9 43  1  0
  9 44  1  0
 10 45  1  0
 10 46  1  0
 11 47  1  0
 14 48  1  0
 15 49  1  0
 16 50  1  0
 17 51  1  0
 20 52  1  0
 20 53  1  0
 20 54  1  0
 22 55  1  0
 23 56  1  0
 25 57  1  0
 25 58  1  0
 26 59  1  0
M  CHG  2   3   1  19   1
M  END
>  <UniqueID>  (16) 
16

>  <SMILES>  (16) 
CC[NH+](CC)CCOCCNc1c2ccccc2[n+](C)c2ccc(N)cc12

>  <Energy>  (16) 
88.71147694956174

>  <Genealogy>  (16) 
CC[NH+](CC)CCOCCNc1c2ccccc2[n+](C)c2ccc(N)cc12 (protonated)
CC[NH+](CC)CCOCCNc1c2ccccc2[n+](C)c2ccc(N)cc12 (3D coordinates assigned)
CC[NH+](CC)CCOCCNc1c2ccccc2[n+](C)c2ccc(N)cc12 (optimized conformer: 88.71147694956174 kcal/mol)

>  <smiles>  (16) 
CCN(CC)CCOCCNc1c2ccccc2[n+](C)c2ccc(N)cc12

>  <score_type>  (16) 
oracle

>  <origin>  (16) 
adg

>  <m_score__min__energy>  (16) 
-7.4699999999999998

>  <m_primary>  (16) 
energy

$$$$
16:0
     RDKit          3D

 60 62  0  0  0  0  0  0  0  0999 V2000
   -3.1150   19.1100  -26.7120 C   0  0  0  0  0  0  0  0  0  0  0  0
   -2.2750   20.3710  -26.9950 C   0  0  0  0  0  0  0  0  0  0  0  0
   -2.7240   21.1960  -28.1560 N   0  0  0  0  0  0  0  0  0  0  0  0
   -3.8600   22.1030  -27.8330 C   0  0  0  0  0  0  0  0  0  0  0  0
   -3.4500   23.5790  -27.7460 C   0  0  0  0  0  0  0  0  0  0  0  0
   -1.5980   21.8480  -28.8820 C   0  0  0  0  0  0  0  0  0  0  0  0
   -1.7410   21.8800  -30.4100 C   0  0  0  0  0  0  0  0  0  0  0  0
   -3.0140   21.3670  -30.7550 O   0  0  0  0  0  0  0  0  0  0  0  0
   -2.9190   20.4050  -31.7890 C   0  0  0  0  0  0  0  0  0  0  0  0
   -2.7760   21.0640  -33.1670 C   0  0  0  0  0  0  0  0  0  0  0  0
   -4.0260   21.7110  -33.5610 N   0  0  0  0  0  0  0  0  0  0  0  0
   -5.2630   21.4440  -32.8780 C   0  0  0  0  0  0  0  0  0  0  0  0
   -5.7840   22.3670  -31.9560 C   0  0  0  0  0  0  0  0  0  0  0  0
   -5.0440   23.5000  -31.5600 C   0  0  0  0  0  0  0  0  0  0  0  0
   -5.5740   24.4110  -30.6480 C   0  0  0  0  0  0  0  0  0  0  0  0
   -6.8390   24.2020  -30.1090 C   0  0  0  0  0  0  0  0  0  0  0  0
   -7.5850   23.0880  -30.4840 C   0  0  0  0  0  0  0  0  0  0  0  0
   -7.0770   22.1520  -31.4170 C   0  0  0  0  0  0  0  0  0  0  0  0
   -7.8120   21.0510  -31.8010 N   0  0  0  0  0  0  0  0  0  0  0  0
   -9.2830   21.1070  -31.6910 C   0  0  0  0  0  0  0  0  0  0  0  0
   -7.1900   20.0000  -32.4530 C   0  0  0  0  0  0  0  0  0  0  0  0
   -7.7440   18.6770  -32.5100 C   0  0  0  0  0  0  0  0  0  0  0  0
   -8.8130   18.1760  -31.5690 C   0  0  0  0  0  0  0  0  0  0  0  0
   -7.1830   17.7300  -33.3830 C   0  0  0  0  0  0  0  0  0  0  0  0
   -6.0340   18.0210  -34.1050 C   0  0  0  0  0  0  0  0  0  0  0  0
   -5.3940   19.2420  -33.9340 C   0  0  0  0  0  0  0  0  0  0  0  0
   -5.9400   20.2290  -33.0900 C   0  0  0  0  0  0  0  0  0  0  0  0
   -3.2093   18.9685  -25.6252 H   0  0  0  0  0  0  0  0  0  0  0  0
   -4.1151   19.2287  -27.1544 H   0  0  0  0  0  0  0  0  0  0  0  0
   -2.6201   18.2329  -27.1544 H   0  0  0  0  0  0  0  0  0  0  0  0
   -2.3037   21.0057  -26.0971 H   0  0  0  0  0  0  0  0  0  0  0  0
   -1.2678   20.0112  -27.2520 H   0  0  0  0  0  0  0  0  0  0  0  0
   -3.1050   20.4990  -28.8420 H   0  0  0  0  0  0  0  0  0  0  0  0
   -4.6246   21.9983  -28.6169 H   0  0  0  0  0  0  0  0  0  0  0  0
   -4.2400   21.8107  -26.8430 H   0  0  0  0  0  0  0  0  0  0  0  0
   -3.3678   23.8751  -26.6898 H   0  0  0  0  0  0  0  0  0  0  0  0
   -2.4788   23.7197  -28.2429 H   0  0  0  0  0  0  0  0  0  0  0  0
   -4.2095   24.2004  -28.2429 H   0  0  0  0  0  0  0  0  0  0  0  0
   -1.5177   22.8855  -28.5253 H   0  0  0  0  0  0  0  0  0  0  0  0
   -0.7048   21.2419  -28.6702 H   0  0  0  0  0  0  0  0  0  0  0  0
   -1.6490   22.9156  -30.7692 H   0  0  0  0  0  0  0  0  0  0  0  0
   -0.9517   21.2705  -30.8742 H   0  0  0  0  0  0  0  0  0  0  0  0
   -2.0401   19.7697  -31.6049 H   0  0  0  0  0  0  0  0  0  0  0  0
   -3.8437   19.8092  -31.7886 H   0  0  0  0  0  0  0  0  0  0  0  0
   -1.9762   21.8181  -33.1257 H   0  0  0  0  0  0  0  0  0  0  0  0
   -2.5302   20.2881  -33.9069 H   0  0  0  0  0  0  0  0  0  0  0  0
   -4.0000   22.4650  -34.2840 H   0  0  0  0  0  0  0  0  0  0  0  0
   -4.0389   23.6665  -31.9748 H   0  0  0  0  0  0  0  0  0  0  0  0
   -4.9911   25.2964  -30.3542 H   0  0  0  0  0  0  0  0  0  0  0  0
   -7.2514   24.9192  -29.3841 H   0  0  0  0  0  0  0  0  0  0  0  0
   -8.5834   22.9328  -30.0492 H   0  0  0  0  0  0  0  0  0  0  0  0
   -9.5712   21.1180  -30.6295 H   0  0  0  0  0  0  0  0  0  0  0  0
   -9.6528   22.0199  -32.1808 H   0  0  0  0  0  0  0  0  0  0  0  0
   -9.7212   20.2249  -32.1808 H   0  0  0  0  0  0  0  0  0  0  0  0
   -8.4873   18.3286  -30.5295 H   0  0  0  0  0  0  0  0  0  0  0  0
   -9.7464   18.7304  -31.7460 H   0  0  0  0  0  0  0  0  0  0  0  0
   -8.9841   17.1039  -31.7460 H   0  0  0  0  0  0  0  0  0  0  0  0
   -7.6604   16.7454  -33.4957 H   0  0  0  0  0  0  0  0  0  0  0  0
   -5.6294   17.2835  -34.8139 H   0  0  0  0  0  0  0  0  0  0  0  0
   -4.4504   19.4404  -34.4635 H   0  0  0  0  0  0  0  0  0  0  0  0
  1  2  1  0
  2  3  1  0
  3  4  1  0
  4  5  1  0
  3  6  1  0
  6  7  1  0
  7  8  1  0
  8  9  1  0
  9 10  1  0
 10 11  1  0
 11 12  1  0
 12 13  2  0
 13 14  1  0
 14 15  2  0
 15 16  1  0
 16 17  2  0
 17 18  1  0
 18 19  2  0
 19 20  1  0
 19 21  1  0
 21 22  2  0
 22 23  1  0
 22 24  1  0
 24 25  2  0
 25 26  1  0
 26 27  2  0
 27 12  1  0
 18 13  1  0
 27 21  1  0
  1 28  1  0
  1 29  1  0
  1 30  1  0
  2 31  1  0
  2 32  1  0
  3 33  1  0
  4 34  1  0
  4 35  1  0
  5 36  1  0
  5 37  1  0
  5 38  1  0
  6 39  1  0
  6 40  1  0
  7 41  1  0
  7 42  1  0
  9 43  1  0
  9 44  1  0
 10 45  1  0
 10 46  1  0
 11 47  1  0
 14 48  1  0
 15 49  1  0
 16 50  1  0
 17 51  1  0
 20 52  1  0
 20 53  1  0
 20 54  1  0
 23 55  1  0
 23 56  1  0
 23 57  1  0
 24 58  1  0
 25 59  1  0
 26 60  1  0
M  CHG  2   3   1  19   1
M  END
>  <UniqueID>  (17) 
17

>  <SMILES>  (17) 
CC[NH+](CC)CCOCCNc1c2ccccc2[n+](C)c2c(C)cccc12

>  <Energy>  (17) 
103.94575445231081

>  <Genealogy>  (17) 
CC[NH+](CC)CCOCCNc1c2ccccc2[n+](C)c2c(C)cccc12 (protonated)
CC[NH+](CC)CCOCCNc1c2ccccc2[n+](C)c2c(C)cccc12 (3D coordinates assigned)
CC[NH+](CC)CCOCCNc1c2ccccc2[n+](C)c2c(C)cccc12 (optimized conformer: 103.94575445231081 kcal/mol)

>  <smiles>  (17) 
CCN(CC)CCOCCNc1c2ccccc2[n+](C)c2c(C)cccc12

>  <score_type>  (17) 
oracle

>  <origin>  (17) 
adg

>  <m_score__min__energy>  (17) 
-7.9000000000000004

>  <m_primary>  (17) 
energy

$$$$
17:0
     RDKit          3D

 56 58  0  0  0  0  0  0  0  0999 V2000
   -5.2215   23.4624  -29.8571 H   0  0  0  0  0  0  0  0  0  0  0  0
   -2.4790   19.7160  -32.3750 C   0  0  0  0  0  0  0  0  0  0  0  0
   -4.3710   23.8600  -29.2840 C   0  0  0  0  0  0  0  0  0  0  0  0
   -3.3870   19.8490  -33.3520 C   0  0  0  0  0  0  0  0  0  0  0  0
   -4.9403   23.2562  -27.3534 H   0  0  0  0  0  0  0  0  0  0  0  0
   -2.7260   21.4410  -30.6050 C   0  0  0  0  0  0  0  0  0  0  0  0
   -3.2256   22.3919  -30.8420 H   0  0  0  0  0  0  0  0  0  0  0  0
   -4.8370   20.0180  -33.0890 C   0  0  0  0  0  0  0  0  0  0  0  0
   -5.6940   18.9240  -33.2840 C   0  0  0  0  0  0  0  0  0  0  0  0
   -5.2811   17.9648  -33.6298 H   0  0  0  0  0  0  0  0  0  0  0  0
   -7.0660   19.0390  -33.0440 C   0  0  0  0  0  0  0  0  0  0  0  0
   -7.7266   18.1765  -33.2161 H   0  0  0  0  0  0  0  0  0  0  0  0
   -7.6030   20.2490  -32.5850 C   0  0  0  0  0  0  0  0  0  0  0  0
   -8.9800   20.3750  -32.3400 C   0  0  0  0  0  0  0  0  0  0  0  0
   -9.6490   19.5193  -32.5139 H   0  0  0  0  0  0  0  0  0  0  0  0
   -9.5030   21.5870  -31.8750 C   0  0  0  0  0  0  0  0  0  0  0  0
  -10.5826   21.6820  -31.6868 H   0  0  0  0  0  0  0  0  0  0  0  0
   -8.6580   22.6770  -31.6490 C   0  0  0  0  0  0  0  0  0  0  0  0
   -9.0737   23.6262  -31.2799 H   0  0  0  0  0  0  0  0  0  0  0  0
   -7.2850   22.5640  -31.8910 C   0  0  0  0  0  0  0  0  0  0  0  0
   -6.6241   23.4250  -31.7121 H   0  0  0  0  0  0  0  0  0  0  0  0
   -6.7470   21.3540  -32.3620 C   0  0  0  0  0  0  0  0  0  0  0  0
   -5.3710   21.2290  -32.6080 C   0  0  0  0  0  0  0  0  0  0  0  0
   -4.7041   22.0841  -32.4236 H   0  0  0  0  0  0  0  0  0  0  0  0
   -0.6150   21.4250  -31.8530 C   0  0  0  0  0  0  0  0  0  0  0  0
   -0.1070   21.6292  -30.8989 H   0  0  0  0  0  0  0  0  0  0  0  0
   -0.0320   20.6914  -32.4291 H   0  0  0  0  0  0  0  0  0  0  0  0
   -0.7021   22.3580  -32.4291 H   0  0  0  0  0  0  0  0  0  0  0  0
   -2.9260   20.8850  -29.2140 C   0  0  0  0  0  0  0  0  0  0  0  0
   -2.5482   19.8524  -29.1809 H   0  0  0  0  0  0  0  0  0  0  0  0
   -3.9998   20.9085  -28.9767 H   0  0  0  0  0  0  0  0  0  0  0  0
   -2.1800   21.7230  -28.1820 C   0  0  0  0  0  0  0  0  0  0  0  0
   -0.9210   21.2930  -27.7070 C   0  0  0  0  0  0  0  0  0  0  0  0
   -0.3930   20.0790  -28.1750 O   0  0  0  0  0  0  0  0  0  0  0  0
   -0.7690   18.7840  -27.7100 C   0  0  0  0  0  0  0  0  0  0  0  0
    0.1216   18.1401  -27.6625 H   0  0  0  0  0  0  0  0  0  0  0  0
   -1.5043   18.3484  -28.4025 H   0  0  0  0  0  0  0  0  0  0  0  0
   -1.3410   18.8860  -26.4280 O   0  0  0  0  0  0  0  0  0  0  0  0
   -2.7350   18.7020  -26.5250 C   0  0  0  0  0  0  0  0  0  0  0  0
   -3.1684   18.6448  -25.5156 H   0  0  0  0  0  0  0  0  0  0  0  0
   -3.1798   19.5492  -27.0676 H   0  0  0  0  0  0  0  0  0  0  0  0
   -2.9447   17.7684  -27.0676 H   0  0  0  0  0  0  0  0  0  0  0  0
   -0.2260   22.0870  -26.7770 C   0  0  0  0  0  0  0  0  0  0  0  0
    0.7654   21.7689  -26.4220 H   0  0  0  0  0  0  0  0  0  0  0  0
   -0.7810   23.2710  -26.3020 C   0  0  0  0  0  0  0  0  0  0  0  0
   -0.2240   23.8837  -25.5779 H   0  0  0  0  0  0  0  0  0  0  0  0
   -2.0330   23.6840  -26.7360 C   0  0  0  0  0  0  0  0  0  0  0  0
   -2.4650   24.6176  -26.3464 H   0  0  0  0  0  0  0  0  0  0  0  0
   -2.7530   22.9190  -27.6690 C   0  0  0  0  0  0  0  0  0  0  0  0
   -1.9880   20.8730  -31.5820 C   0  0  0  0  0  0  0  0  0  0  0  0
   -3.0412   19.8321  -34.3961 H   0  0  0  0  0  0  0  0  0  0  0  0
   -4.1150   23.3540  -28.0740 C   0  0  0  0  0  0  0  0  0  0  0  0
   -2.0830   18.7143  -32.1521 H   0  0  0  0  0  0  0  0  0  0  0  0
   -3.5560   24.9280  -29.8740 C   0  0  0  0  0  0  0  0  0  0  0  0
   -3.9770   25.5540  -30.8770 O   0  0  0  0  0  0  0  0  0  0  0  0
   -2.3230   25.2740  -29.3260 O   0  0  0  0  0  0  0  0  0  0  0  0
  1  2  1  0
  2  3  2  0
  3  4  1  0
  4  5  1  0
  4  6  2  0
  6  7  1  0
  6  8  1  0
  8  9  2  0
  9 10  1  0
  9 11  1  0
 11 12  1  0
 11 13  2  0
 13 14  1  0
 14 15  1  0
 14 16  2  0
 16 17  1  0
 16 18  1  0
 18 19  1  0
 18 20  2  0
 20 21  1  0
 20 22  1  0
 22 23  2  0
 23 24  1  0
  3 25  1  0
 25 26  1  0
 25 27  1  0
 25 28  1  0
  2 29  1  0
 29 30  1  0
 29 31  1  0
 29 32  1  0
 32 33  2  0
 33 34  1  0
 34 35  1  0
 35 36  1  0
 35 37  1  0
 35 38  1  0
 38 39  1  0
 39 40  1  0
 39 41  1  0
 39 42  1  0
 33 43  1  0
 43 44  1  0
 43 45  2  0
 45 46  1  0
 45 47  1  0
 47 48  1  0
 47 49  2  0
 49 50  1  0
 50 51  1  0
 50 52  2  0
 52 53  1  0
 52 54  1  0
 54 55  2  0
 54 56  1  0
 23  8  1  0
 49 32  1  0
 22 13  1  0
M  CHG  1  56  -1
M  END
>  <UniqueID>  (18) 
18

>  <SMILES>  (18) 
COCOc1cccc(/C=C/C(=O)[O-])c1CC=C(C)/C=C/c1ccc2ccccc2c1

>  <Energy>  (18) 
72.26477312870358

>  <Genealogy>  (18) 
COCOc1cccc(C=CC(=O)[O-])c1CC=C(C)C=Cc1ccc2ccccc2c1 (protonated)
COCOc1cccc(/C=C/C(=O)[O-])c1CC=C(C)/C=C/c1ccc2ccccc2c1 (cis-trans isomerization)
COCOc1cccc(/C=C/C(=O)[O-])c1CC=C(C)/C=C/c1ccc2ccccc2c1 (3D coordinates assigned)
COCOc1cccc(/C=C/C(=O)[O-])c1CC=C(C)/C=C/c1ccc2ccccc2c1 (optimized conformer: 72.26477312870358 kcal/mol)

>  <smiles>  (18) 
COCOc1cccc(C=CC(=O)O)c1CC=C(C)C=Cc1ccc2ccccc2c1

>  <score_type>  (18) 
oracle

>  <origin>  (18) 
adg

>  <m_score__min__energy>  (18) 
-12.59

>  <m_primary>  (18) 
energy

$$$$
18:0
     RDKit          3D

 44 45  0  0  0  0  0  0  0  0999 V2000
   -2.5480   19.1760  -26.1210 C   0  0  0  0  0  0  0  0  0  0  0  0
   -3.1030   19.6790  -27.4640 C   0  0  0  0  0  0  0  0  0  0  0  0
   -2.4970   20.9410  -27.9760 N   0  0  0  0  0  0  0  0  0  0  0  0
   -1.0280   21.0200  -27.7580 C   0  0  0  0  0  0  0  0  0  0  0  0
   -0.2450   19.9860  -28.5760 C   0  0  0  0  0  0  0  0  0  0  0  0
   -3.2510   22.1590  -27.5680 C   0  0  0  0  0  0  0  0  0  0  0  0
   -2.6750   23.4590  -28.0770 C   0  0  0  0  0  0  0  0  0  0  0  0
   -1.7260   24.2330  -27.4370 C   0  0  0  0  0  0  0  0  0  0  0  0
   -1.5830   25.3640  -28.2140 C   0  0  0  0  0  0  0  0  0  0  0  0
   -0.6920   26.5180  -27.9060 C   0  0  0  0  0  0  0  0  0  0  0  0
   -2.3670   25.2980  -29.2640 O   0  0  0  0  0  0  0  0  0  0  0  0
   -3.0280   24.1630  -29.2240 C   0  0  0  0  0  0  0  0  0  0  0  0
   -4.0030   23.7650  -30.2560 C   0  0  0  0  0  0  0  0  0  0  0  0
   -5.1300   24.5660  -30.4990 C   0  0  0  0  0  0  0  0  0  0  0  0
   -6.0660   24.1910  -31.4640 C   0  0  0  0  0  0  0  0  0  0  0  0
   -5.8910   23.0100  -32.1890 C   0  0  0  0  0  0  0  0  0  0  0  0
   -4.7920   22.1880  -31.9330 C   0  0  0  0  0  0  0  0  0  0  0  0
   -3.8420   22.5520  -30.9560 C   0  0  0  0  0  0  0  0  0  0  0  0
   -2.7310   21.7440  -30.6660 O   0  0  0  0  0  0  0  0  0  0  0  0
   -1.7750   21.3070  -31.6280 C   0  0  0  0  0  0  0  0  0  0  0  0
   -3.0868   19.6643  -25.2956 H   0  0  0  0  0  0  0  0  0  0  0  0
   -2.6832   18.0864  -26.0533 H   0  0  0  0  0  0  0  0  0  0  0  0
   -1.4770   19.4174  -26.0533 H   0  0  0  0  0  0  0  0  0  0  0  0
   -2.9357   18.8934  -28.2155 H   0  0  0  0  0  0  0  0  0  0  0  0
   -4.1651   19.9039  -27.2869 H   0  0  0  0  0  0  0  0  0  0  0  0
   -2.6290   20.8870  -29.0170 H   0  0  0  0  0  0  0  0  0  0  0  0
   -0.6848   22.0254  -28.0431 H   0  0  0  0  0  0  0  0  0  0  0  0
   -0.8411   20.8088  -26.6948 H   0  0  0  0  0  0  0  0  0  0  0  0
    0.2762   19.2977  -27.8944 H   0  0  0  0  0  0  0  0  0  0  0  0
   -0.9408   19.4171  -29.2102 H   0  0  0  0  0  0  0  0  0  0  0  0
    0.4913   20.5015  -29.2102 H   0  0  0  0  0  0  0  0  0  0  0  0
   -4.2794   22.0682  -27.9475 H   0  0  0  0  0  0  0  0  0  0  0  0
   -3.1966   22.2043  -26.4703 H   0  0  0  0  0  0  0  0  0  0  0  0
   -1.1953   23.9967  -26.5029 H   0  0  0  0  0  0  0  0  0  0  0  0
   -0.6038   26.6323  -26.8155 H   0  0  0  0  0  0  0  0  0  0  0  0
    0.3037   26.3379  -28.3376 H   0  0  0  0  0  0  0  0  0  0  0  0
   -1.1182   27.4357  -28.3376 H   0  0  0  0  0  0  0  0  0  0  0  0
   -5.2761   25.4936  -29.9261 H   0  0  0  0  0  0  0  0  0  0  0  0
   -6.9433   24.8268  -31.6540 H   0  0  0  0  0  0  0  0  0  0  0  0
   -6.6200   22.7272  -32.9627 H   0  0  0  0  0  0  0  0  0  0  0  0
   -4.6663   21.2515  -32.4962 H   0  0  0  0  0  0  0  0  0  0  0  0
   -0.8922   20.9035  -31.1105 H   0  0  0  0  0  0  0  0  0  0  0  0
   -2.2208   20.5232  -32.2581 H   0  0  0  0  0  0  0  0  0  0  0  0
   -1.4740   22.1569  -32.2581 H   0  0  0  0  0  0  0  0  0  0  0  0
  1  2  1  0
  2  3  1  0
  3  4  1  0
  4  5  1  0
  3  6  1  0
  6  7  1  0
  7  8  1  0
  8  9  2  0
  9 10  1  0
  9 11  1  0
 11 12  1  0
 12 13  1  0
 13 14  2  0
 14 15  1  0
 15 16  2  0
 16 17  1  0
 17 18  2  0
 18 19  1  0
 19 20  1  0
 12  7  2  0
 18 13  1  0
  1 21  1  0
  1 22  1  0
  1 23  1  0
  2 24  1  0
  2 25  1  0
  3 26  1  0
  4 27  1  0
  4 28  1  0
  5 29  1  0
  5 30  1  0
  5 31  1  0
  6 32  1  0
  6 33  1  0
  8 34  1  0
 10 35  1  0
 10 36  1  0
 10 37  1  0
 14 38  1  0
 15 39  1  0
 16 40  1  0
 17 41  1  0
 20 42  1  0
 20 43  1  0
 20 44  1  0
M  CHG  1   3   1
M  END
>  <UniqueID>  (19) 
19

>  <SMILES>  (19) 
CC[NH+](CC)Cc1cc(C)oc1-c1ccccc1OC

>  <Energy>  (19) 
78.41381949437397

>  <Genealogy>  (19) 
CC[NH+](CC)Cc1cc(C)oc1-c1ccccc1OC (protonated)
CC[NH+](CC)Cc1cc(C)oc1-c1ccccc1OC (3D coordinates assigned)
CC[NH+](CC)Cc1cc(C)oc1-c1ccccc1OC (optimized conformer: 78.41381949437397 kcal/mol)

>  <smiles>  (19) 
CCN(CC)Cc1cc(C)oc1-c1ccccc1OC

>  <score_type>  (19) 
oracle

>  <origin>  (19) 
adg

>  <m_score__min__energy>  (19) 
-6.1900000000000004

>  <m_primary>  (19) 
energy

$$$$
19:0
     RDKit          3D

 72 75  0  0  0  0  0  0  0  0999 V2000
   -4.0380   23.6830  -28.6490 C   0  0  0  0  0  0  0  0  0  0  0  0
   -3.5030   24.3670  -29.9010 C   0  0  0  0  0  0  0  0  0  0  0  0
   -4.6270   24.6720  -30.8160 N   0  0  0  0  0  0  0  0  0  0  0  0
   -5.5000   25.7750  -30.3630 C   0  0  0  0  0  0  0  0  0  0  0  0
   -6.7740   25.2280  -29.7240 C   0  0  0  0  0  0  0  0  0  0  0  0
   -5.3660   23.4730  -31.2790 C   0  0  0  0  0  0  0  0  0  0  0  0
   -4.4880   22.2850  -31.7330 C   0  0  0  0  0  0  0  0  0  0  0  0
   -4.9130   21.7260  -33.0170 N   0  0  0  0  0  0  0  0  0  0  0  0
   -5.2900   20.3420  -33.1140 C   0  0  0  0  0  0  0  0  0  0  0  0
   -6.5810   19.9340  -32.7410 C   0  0  0  0  0  0  0  0  0  0  0  0
   -7.5250   20.8690  -32.2660 C   0  0  0  0  0  0  0  0  0  0  0  0
   -8.7820   20.4540  -31.8330 C   0  0  0  0  0  0  0  0  0  0  0  0
   -9.1170   19.1050  -31.8610 C   0  0  0  0  0  0  0  0  0  0  0  0
   -8.2110   18.1670  -32.3540 C   0  0  0  0  0  0  0  0  0  0  0  0
   -6.9390   18.5640  -32.8420 C   0  0  0  0  0  0  0  0  0  0  0  0
   -6.0550   17.6540  -33.3930 N   0  0  0  0  0  0  0  0  0  0  0  0
   -6.5240   16.3020  -33.7710 C   0  0  0  0  0  0  0  0  0  0  0  0
   -4.7400   18.0180  -33.6180 C   0  0  0  0  0  0  0  0  0  0  0  0
   -3.7440   17.0590  -33.9220 C   0  0  0  0  0  0  0  0  0  0  0  0
   -2.4280   17.4360  -34.1810 C   0  0  0  0  0  0  0  0  0  0  0  0
   -2.0530   18.7860  -34.1400 C   0  0  0  0  0  0  0  0  0  0  0  0
   -0.6970   19.2110  -34.3930 N   0  0  0  0  0  0  0  0  0  0  0  0
   -0.2690   20.6070  -34.5040 C   0  0  0  0  0  0  0  0  0  0  0  0
    0.1860   21.1400  -33.1360 C   0  0  0  0  0  0  0  0  0  0  0  0
   -0.6270   20.5680  -32.0390 N   0  0  0  0  0  0  0  0  0  0  0  0
    0.2140   19.8000  -31.0810 C   0  0  0  0  0  0  0  0  0  0  0  0
   -0.4050   19.7320  -29.6800 C   0  0  0  0  0  0  0  0  0  0  0  0
   -0.5570   21.1390  -29.0790 C   0  0  0  0  0  0  0  0  0  0  0  0
   -0.8150   22.2130  -30.1510 C   0  0  0  0  0  0  0  0  0  0  0  0
   -1.4750   21.6080  -31.3960 C   0  0  0  0  0  0  0  0  0  0  0  0
   -3.0160   19.7450  -33.8050 C   0  0  0  0  0  0  0  0  0  0  0  0
   -4.3490   19.3780  -33.5220 C   0  0  0  0  0  0  0  0  0  0  0  0
   -3.6417   24.1896  -27.7567 H   0  0  0  0  0  0  0  0  0  0  0  0
   -5.1367   23.7361  -28.6432 H   0  0  0  0  0  0  0  0  0  0  0  0
   -3.7218   22.6294  -28.6432 H   0  0  0  0  0  0  0  0  0  0  0  0
   -2.9954   25.3014  -29.6197 H   0  0  0  0  0  0  0  0  0  0  0  0
   -2.7895   23.6997  -30.4067 H   0  0  0  0  0  0  0  0  0  0  0  0
   -4.9583   26.3839  -29.6242 H   0  0  0  0  0  0  0  0  0  0  0  0
   -5.7763   26.3875  -31.2339 H   0  0  0  0  0  0  0  0  0  0  0  0
   -6.6811   25.2679  -28.6287 H   0  0  0  0  0  0  0  0  0  0  0  0
   -7.6338   25.8363  -30.0415 H   0  0  0  0  0  0  0  0  0  0  0  0
   -6.9251   24.1857  -30.0415 H   0  0  0  0  0  0  0  0  0  0  0  0
   -6.0030   23.1270  -30.4517 H   0  0  0  0  0  0  0  0  0  0  0  0
   -5.9291   23.7901  -32.1692 H   0  0  0  0  0  0  0  0  0  0  0  0
   -3.4483   22.6317  -31.8271 H   0  0  0  0  0  0  0  0  0  0  0  0
   -4.5859   21.4920  -30.9770 H   0  0  0  0  0  0  0  0  0  0  0  0
   -4.5610   22.1770  -33.8890 H   0  0  0  0  0  0  0  0  0  0  0  0
   -7.2653   21.9375  -32.2374 H   0  0  0  0  0  0  0  0  0  0  0  0
   -9.5100   21.1938  -31.4687 H   0  0  0  0  0  0  0  0  0  0  0  0
  -10.1002   18.7766  -31.4929 H   0  0  0  0  0  0  0  0  0  0  0  0
   -8.4866   17.1021  -32.3649 H   0  0  0  0  0  0  0  0  0  0  0  0
   -6.7270   15.7168  -32.8619 H   0  0  0  0  0  0  0  0  0  0  0  0
   -7.4453   16.3865  -34.3660 H   0  0  0  0  0  0  0  0  0  0  0  0
   -5.7482   15.7978  -34.3660 H   0  0  0  0  0  0  0  0  0  0  0  0
   -4.0149   15.9934  -33.9544 H   0  0  0  0  0  0  0  0  0  0  0  0
   -1.6773   16.6682  -34.4196 H   0  0  0  0  0  0  0  0  0  0  0  0
    0.0370   18.4800  -34.5350 H   0  0  0  0  0  0  0  0  0  0  0  0
    0.5675   20.6739  -35.2152 H   0  0  0  0  0  0  0  0  0  0  0  0
   -1.1165   21.2123  -34.8581 H   0  0  0  0  0  0  0  0  0  0  0  0
    1.2407   20.8699  -32.9789 H   0  0  0  0  0  0  0  0  0  0  0  0
    0.0592   22.2326  -33.1292 H   0  0  0  0  0  0  0  0  0  0  0  0
    0.3372   18.7756  -31.4623 H   0  0  0  0  0  0  0  0  0  0  0  0
    1.1804   20.3183  -30.9946 H   0  0  0  0  0  0  0  0  0  0  0  0
   -1.3962   19.2597  -29.7467 H   0  0  0  0  0  0  0  0  0  0  0  0
    0.2585   19.1420  -29.0306 H   0  0  0  0  0  0  0  0  0  0  0  0
   -1.4025   21.1326  -28.3754 H   0  0  0  0  0  0  0  0  0  0  0  0
    0.3873   21.3907  -28.5741 H   0  0  0  0  0  0  0  0  0  0  0  0
   -1.4779   22.9849  -29.7330 H   0  0  0  0  0  0  0  0  0  0  0  0
    0.1508   22.6488  -30.4463 H   0  0  0  0  0  0  0  0  0  0  0  0
   -2.4317   21.1516  -31.1021 H   0  0  0  0  0  0  0  0  0  0  0  0
   -1.6221   22.4186  -32.1250 H   0  0  0  0  0  0  0  0  0  0  0  0
   -2.7281   20.8058  -33.7615 H   0  0  0  0  0  0  0  0  0  0  0  0
  1  2  1  0
  2  3  1  0
  3  4  1  0
  4  5  1  0
  3  6  1  0
  6  7  1  0
  7  8  1  0
  8  9  1  0
  9 10  2  0
 10 11  1  0
 11 12  2  0
 12 13  1  0
 13 14  2  0
 14 15  1  0
 15 16  2  0
 16 17  1  0
 16 18  1  0
 18 19  2  0
 19 20  1  0
 20 21  2  0
 21 22  1  0
 22 23  1  0
 23 24  1  0
 24 25  1  0
 25 26  1  0
 26 27  1  0
 27 28  1  0
 28 29  1  0
 29 30  1  0
 21 31  1  0
 31 32  2  0
 32  9  1  0
 15 10  1  0
 32 18  1  0
 30 25  1  0
  1 33  1  0
  1 34  1  0
  1 35  1  0
  2 36  1  0
  2 37  1  0
  4 38  1  0
  4 39  1  0
  5 40  1  0
  5 41  1  0
  5 42  1  0
  6 43  1  0
  6 44  1  0
  7 45  1  0
  7 46  1  0
  8 47  1  0
 11 48  1  0
 12 49  1  0
 13 50  1  0
 14 51  1  0
 17 52  1  0
 17 53  1  0
 17 54  1  0
 19 55  1  0
 20 56  1  0
 22 57  1  0
 23 58  1  0
 23 59  1  0
 24 60  1  0
 24 61  1  0
 26 62  1  0
 26 63  1  0
 27 64  1  0
 27 65  1  0
 28 66  1  0
 28 67  1  0
 29 68  1  0
 29 69  1  0
 30 70  1  0
 30 71  1  0
 31 72  1  0
M  CHG  1  16   1
M  END
>  <UniqueID>  (20) 
20

>  <SMILES>  (20) 
CCN(CC)CCNc1c2ccccc2[n+](C)c2ccc(NCCN3CCCCC3)cc12

>  <Energy>  (20) 
107.99493106829942

>  <Genealogy>  (20) 
CCN(CC)CCNc1c2ccccc2[n+](C)c2ccc(NCCN3CCCCC3)cc12 (3D coordinates assigned)
CCN(CC)CCNc1c2ccccc2[n+](C)c2ccc(NCCN3CCCCC3)cc12 (nonaromatic ring conformer: 107.99493106829942 kcal/mol)

>  <smiles>  (20) 
CCN(CC)CCNc1c2ccccc2[n+](C)c2ccc(NCCN3CCCCC3)cc12

>  <score_type>  (20) 
oracle

>  <origin>  (20) 
adg

>  <m_score__min__energy>  (20) 
-9.3699999999999992

>  <m_primary>  (20) 
energy

$$$$
20:0
     RDKit          3D

 50 52  0  0  0  0  0  0  0  0999 V2000
   -7.2110   24.2240  -30.5800 C   0  0  0  0  0  0  0  0  0  0  0  0
   -6.1710   25.2280  -30.0730 C   0  0  0  0  0  0  0  0  0  0  0  0
   -5.3890   24.6990  -28.9390 N   0  0  0  0  0  0  0  0  0  0  0  0
   -4.4220   23.6570  -29.3390 C   0  0  0  0  0  0  0  0  0  0  0  0
   -4.0970   23.7120  -30.8450 C   0  0  0  0  0  0  0  0  0  0  0  0
   -3.7830   22.3230  -31.4180 C   0  0  0  0  0  0  0  0  0  0  0  0
   -4.5710   22.0460  -32.6210 N   0  0  0  0  0  0  0  0  0  0  0  0
   -5.0300   20.7220  -32.9560 C   0  0  0  0  0  0  0  0  0  0  0  0
   -4.1270   19.7730  -33.4740 C   0  0  0  0  0  0  0  0  0  0  0  0
   -2.7770   20.1130  -33.7140 C   0  0  0  0  0  0  0  0  0  0  0  0
   -1.8660   19.1550  -34.1490 C   0  0  0  0  0  0  0  0  0  0  0  0
   -2.2740   17.8400  -34.3320 C   0  0  0  0  0  0  0  0  0  0  0  0
   -3.6030   17.4820  -34.1150 C   0  0  0  0  0  0  0  0  0  0  0  0
   -4.5700   18.4460  -33.7230 C   0  0  0  0  0  0  0  0  0  0  0  0
   -5.9020   18.1150  -33.5610 N   0  0  0  0  0  0  0  0  0  0  0  0
   -6.4100   16.8230  -34.0790 C   0  0  0  0  0  0  0  0  0  0  0  0
   -6.7710   19.0070  -32.9610 C   0  0  0  0  0  0  0  0  0  0  0  0
   -8.0820   18.6270  -32.5750 C   0  0  0  0  0  0  0  0  0  0  0  0
   -8.9840   19.5590  -32.0640 C   0  0  0  0  0  0  0  0  0  0  0  0
   -8.6070   20.8920  -31.9080 C   0  0  0  0  0  0  0  0  0  0  0  0
   -9.6030   21.9090  -31.4290 C   0  0  0  0  0  0  0  0  0  0  0  0
   -7.3090   21.2840  -32.2480 C   0  0  0  0  0  0  0  0  0  0  0  0
   -6.3640   20.3440  -32.7120 C   0  0  0  0  0  0  0  0  0  0  0  0
   -7.7069   23.7453  -29.7227 H   0  0  0  0  0  0  0  0  0  0  0  0
   -7.9603   24.7491  -31.1907 H   0  0  0  0  0  0  0  0  0  0  0  0
   -6.7127   23.4567  -31.1907 H   0  0  0  0  0  0  0  0  0  0  0  0
   -5.4821   25.4697  -30.8958 H   0  0  0  0  0  0  0  0  0  0  0  0
   -6.7084   26.1220  -29.7236 H   0  0  0  0  0  0  0  0  0  0  0  0
   -4.8720   25.4840  -28.4750 H   0  0  0  0  0  0  0  0  0  0  0  0
   -6.0480   24.3110  -28.2230 H   0  0  0  0  0  0  0  0  0  0  0  0
   -3.4914   23.8001  -28.7702 H   0  0  0  0  0  0  0  0  0  0  0  0
   -4.8741   22.6770  -29.1265 H   0  0  0  0  0  0  0  0  0  0  0  0
   -4.9630   24.1291  -31.3799 H   0  0  0  0  0  0  0  0  0  0  0  0
   -3.2055   24.3427  -30.9768 H   0  0  0  0  0  0  0  0  0  0  0  0
   -2.7139   22.2750  -31.6725 H   0  0  0  0  0  0  0  0  0  0  0  0
   -4.0396   21.5708  -30.6575 H   0  0  0  0  0  0  0  0  0  0  0  0
   -4.6120   22.7870  -33.3560 H   0  0  0  0  0  0  0  0  0  0  0  0
   -2.4415   21.1484  -33.5550 H   0  0  0  0  0  0  0  0  0  0  0  0
   -0.8222   19.4394  -34.3480 H   0  0  0  0  0  0  0  0  0  0  0  0
   -1.5458   17.0790  -34.6492 H   0  0  0  0  0  0  0  0  0  0  0  0
   -3.9089   16.4340  -34.2497 H   0  0  0  0  0  0  0  0  0  0  0  0
   -6.6684   16.1659  -33.2355 H   0  0  0  0  0  0  0  0  0  0  0  0
   -7.3052   17.0006  -34.6930 H   0  0  0  0  0  0  0  0  0  0  0  0
   -5.6335   16.3433  -34.6930 H   0  0  0  0  0  0  0  0  0  0  0  0
   -8.3928   17.5771  -32.6809 H   0  0  0  0  0  0  0  0  0  0  0  0
   -9.9986   19.2409  -31.7824 H   0  0  0  0  0  0  0  0  0  0  0  0
   -9.6147   21.9210  -30.3291 H   0  0  0  0  0  0  0  0  0  0  0  0
   -9.3202   22.9039  -31.8035 H   0  0  0  0  0  0  0  0  0  0  0  0
  -10.6035   21.6470  -31.8035 H   0  0  0  0  0  0  0  0  0  0  0  0
   -7.0198   22.3410  -32.1525 H   0  0  0  0  0  0  0  0  0  0  0  0
  1  2  1  0
  2  3  1  0
  3  4  1  0
  4  5  1  0
  5  6  1  0
  6  7  1  0
  7  8  1  0
  8  9  2  0
  9 10  1  0
 10 11  2  0
 11 12  1  0
 12 13  2  0
 13 14  1  0
 14 15  2  0
 15 16  1  0
 15 17  1  0
 17 18  2  0
 18 19  1  0
 19 20  2  0
 20 21  1  0
 20 22  1  0
 22 23  2  0
 23  8  1  0
 14  9  1  0
 23 17  1  0
  1 24  1  0
  1 25  1  0
  1 26  1  0
  2 27  1  0
  2 28  1  0
  3 29  1  0
  3 30  1  0
  4 31  1  0
  4 32  1  0
  5 33  1  0
  5 34  1  0
  6 35  1  0
  6 36  1  0
  7 37  1  0
 10 38  1  0
 11 39  1  0
 12 40  1  0
 13 41  1  0
 16 42  1  0
 16 43  1  0
 16 44  1  0
 18 45  1  0
 19 46  1  0
 21 47  1  0
 21 48  1  0
 21 49  1  0
 22 50  1  0
M  CHG  2   3   1  15   1
M  END
>  <UniqueID>  (21) 
21

>  <SMILES>  (21) 
CC[NH2+]CCCNc1c2ccccc2[n+](C)c2ccc(C)cc12

>  <Energy>  (21) 
71.44063192086905

>  <Genealogy>  (21) 
CC[NH2+]CCCNc1c2ccccc2[n+](C)c2ccc(C)cc12 (protonated)
CC[NH2+]CCCNc1c2ccccc2[n+](C)c2ccc(C)cc12 (3D coordinates assigned)
CC[NH2+]CCCNc1c2ccccc2[n+](C)c2ccc(C)cc12 (optimized conformer: 71.44063192086905 kcal/mol)

>  <smiles>  (21) 
CCNCCCNc1c2ccccc2[n+](C)c2ccc(C)cc12

>  <score_type>  (21) 
oracle

>  <origin>  (21) 
adg

>  <m_score__min__energy>  (21) 
-7.7999999999999998

>  <m_primary>  (21) 
energy

$$$$
21:0
     RDKit          3D

 59 61  0  0  0  0  0  0  0  0999 V2000
   -5.7050   17.7570  -32.3090 C   0  0  0  0  0  0  0  0  0  0  0  0
   -5.2210   18.7690  -33.2620 N   0  0  0  0  0  0  0  0  0  0  0  0
   -4.9750   18.1370  -34.5700 C   0  0  0  0  0  0  0  0  0  0  0  0
   -3.9890   19.4070  -32.7510 C   0  0  0  0  0  0  0  0  0  0  0  0
   -4.3280   20.6700  -31.9250 C   0  0  0  0  0  0  0  0  0  0  0  0
   -4.4860   21.9340  -32.7890 C   0  0  0  0  0  0  0  0  0  0  0  0
   -5.6670   22.8270  -32.3440 C   0  0  1  0  0  0  0  0  0  0  0  0
   -6.9150   22.0020  -32.1050 C   0  0  0  0  0  0  0  0  0  0  0  0
   -7.1990   20.8980  -32.9350 C   0  0  0  0  0  0  0  0  0  0  0  0
   -8.3450   20.1270  -32.7210 C   0  0  0  0  0  0  0  0  0  0  0  0
   -9.2190   20.4470  -31.6770 C   0  0  0  0  0  0  0  0  0  0  0  0
   -8.9470   21.5380  -30.8440 C   0  0  0  0  0  0  0  0  0  0  0  0
   -7.8030   22.3140  -31.0550 C   0  0  0  0  0  0  0  0  0  0  0  0
   -5.3330   23.5970  -31.1420 N   0  0  0  0  0  0  0  0  0  0  0  0
   -4.7690   23.1120  -30.0190 C   0  0  0  0  0  0  0  0  0  0  0  0
   -4.6470   24.1780  -29.1540 C   0  0  0  0  0  0  0  0  0  0  0  0
   -4.1360   24.1500  -27.7370 C   0  0  0  0  0  0  0  0  0  0  0  0
   -2.7740   23.5790  -27.6140 N   0  0  0  0  0  0  0  0  0  0  0  0
   -2.7420   22.1020  -27.4760 C   0  0  0  0  0  0  0  0  0  0  0  0
   -2.2200   21.4160  -28.7490 C   0  0  0  0  0  0  0  0  0  0  0  0
   -0.8490   21.8670  -29.0940 N   0  0  0  0  0  0  0  0  0  0  0  0
   -0.5890   21.6550  -30.5270 C   0  0  0  0  0  0  0  0  0  0  0  0
   -0.5580   23.2660  -28.6930 C   0  0  0  0  0  0  0  0  0  0  0  0
   -1.8280   24.1230  -28.6150 C   0  0  0  0  0  0  0  0  0  0  0  0
   -5.1170   25.2720  -29.7880 N   0  0  0  0  0  0  0  0  0  0  0  0
   -5.5260   24.9000  -30.9890 N   0  0  0  0  0  0  0  0  0  0  0  0
   -5.5359   18.1107  -31.2812 H   0  0  0  0  0  0  0  0  0  0  0  0
   -6.7807   17.5895  -32.4668 H   0  0  0  0  0  0  0  0  0  0  0  0
   -5.1602   16.8145  -32.4668 H   0  0  0  0  0  0  0  0  0  0  0  0
   -4.5798   17.1217  -34.4181 H   0  0  0  0  0  0  0  0  0  0  0  0
   -5.9177   18.0829  -35.1342 H   0  0  0  0  0  0  0  0  0  0  0  0
   -4.2438   18.7345  -35.1342 H   0  0  0  0  0  0  0  0  0  0  0  0
   -3.4506   18.6917  -32.1120 H   0  0  0  0  0  0  0  0  0  0  0  0
   -3.3632   19.7019  -33.6062 H   0  0  0  0  0  0  0  0  0  0  0  0
   -5.2713   20.4936  -31.3874 H   0  0  0  0  0  0  0  0  0  0  0  0
   -3.4879   20.8466  -31.2372 H   0  0  0  0  0  0  0  0  0  0  0  0
   -3.5583   22.5215  -32.7234 H   0  0  0  0  0  0  0  0  0  0  0  0
   -4.6922   21.6050  -33.8182 H   0  0  0  0  0  0  0  0  0  0  0  0
   -5.8662   23.5349  -33.1621 H   0  0  0  0  0  0  0  0  0  0  0  0
   -6.5139   20.6418  -33.7566 H   0  0  0  0  0  0  0  0  0  0  0  0
   -8.5596   19.2682  -33.3739 H   0  0  0  0  0  0  0  0  0  0  0  0
  -10.1213   19.8403  -31.5105 H   0  0  0  0  0  0  0  0  0  0  0  0
   -9.6344   21.7857  -30.0217 H   0  0  0  0  0  0  0  0  0  0  0  0
   -7.5948   23.1719  -30.3988 H   0  0  0  0  0  0  0  0  0  0  0  0
   -4.4659   22.0716  -29.8299 H   0  0  0  0  0  0  0  0  0  0  0  0
   -4.1182   25.1804  -27.3523 H   0  0  0  0  0  0  0  0  0  0  0  0
   -4.8130   23.5026  -27.1603 H   0  0  0  0  0  0  0  0  0  0  0  0
   -2.0840   21.8380  -26.6350 H   0  0  0  0  0  0  0  0  0  0  0  0
   -3.7708   21.7547  -27.3003 H   0  0  0  0  0  0  0  0  0  0  0  0
   -2.2071   20.3280  -28.5877 H   0  0  0  0  0  0  0  0  0  0  0  0
   -2.8881   21.6839  -29.5808 H   0  0  0  0  0  0  0  0  0  0  0  0
    0.2584   20.9641  -30.6476 H   0  0  0  0  0  0  0  0  0  0  0  0
   -1.4831   21.2252  -31.0022 H   0  0  0  0  0  0  0  0  0  0  0  0
   -0.3480   22.6173  -31.0022 H   0  0  0  0  0  0  0  0  0  0  0  0
   -0.0749   23.2580  -27.7048 H   0  0  0  0  0  0  0  0  0  0  0  0
    0.0998   23.7062  -29.4569 H   0  0  0  0  0  0  0  0  0  0  0  0
   -1.5527   25.1490  -28.3296 H   0  0  0  0  0  0  0  0  0  0  0  0
   -2.3172   24.1155  -29.6002 H   0  0  0  0  0  0  0  0  0  0  0  0
   -5.1630   26.2470  -29.4220 H   0  0  0  0  0  0  0  0  0  0  0  0
  1  2  1  0
  2  3  1  0
  2  4  1  0
  4  5  1  0
  5  6  1  0
  6  7  1  0
  7  8  1  0
  8  9  2  0
  9 10  1  0
 10 11  2  0
 11 12  1  0
 12 13  2  0
  7 14  1  0
 14 15  1  0
 15 16  2  0
 16 17  1  0
 17 18  1  0
 18 19  1  0
 19 20  1  0
 20 21  1  0
 21 22  1  0
 21 23  1  0
 23 24  1  0
 16 25  1  0
 25 26  2  0
 13  8  1  0
 26 14  1  0
 24 18  1  0
  1 27  1  0
  1 28  1  0
  1 29  1  0
  3 30  1  0
  3 31  1  0
  3 32  1  0
  4 33  1  0
  4 34  1  0
  5 35  1  0
  5 36  1  0
  6 37  1  0
  6 38  1  0
  7 39  1  6
  9 40  1  0
 10 41  1  0
 11 42  1  0
 12 43  1  0
 13 44  1  0
 15 45  1  0
 17 46  1  0
 17 47  1  0
 19 48  1  0
 19 49  1  0
 20 50  1  0
 20 51  1  0
 22 52  1  0
 22 53  1  0
 22 54  1  0
 23 55  1  0
 23 56  1  0
 24 57  1  0
 24 58  1  0
 25 59  1  0
M  CHG  1  25   1
M  END
>  <UniqueID>  (22) 
22

>  <SMILES>  (22) 
CN(C)CCC[C@@H](c1ccccc1)n1cc(CN2CCN(C)CC2)[nH+]n1

>  <Energy>  (22) 
105.34678122208337

>  <Genealogy>  (22) 
CN(C)CCCC(c1ccccc1)n1cc(CN2CCN(C)CC2)[nH+]n1 (protonated)
CN(C)CCC[C@@H](c1ccccc1)n1cc(CN2CCN(C)CC2)[nH+]n1 (chirality)
CN(C)CCC[C@@H](c1ccccc1)n1cc(CN2CCN(C)CC2)[nH+]n1 (3D coordinates assigned)
CN(C)CCC[C@@H](c1ccccc1)n1cc(CN2CCN(C)CC2)[nH+]n1 (nonaromatic ring conformer: 105.34678122208337 kcal/mol)

>  <smiles>  (22) 
CN(C)CCCC(c1ccccc1)n1cc(CN2CCN(C)CC2)nn1

>  <score_type>  (22) 
oracle

>  <origin>  (22) 
adg

>  <m_score__min__energy>  (22) 
-7.8200000000000003

>  <m_primary>  (22) 
energy

$$$$
22:0
     RDKit          3D

 42 44  0  0  0  0  0  0  0  0999 V2000
   -3.7540   20.9940  -30.9830 C   0  0  0  0  0  0  0  0  0  0  0  0
   -3.4420   21.4230  -32.4120 C   0  0  0  0  0  0  0  0  0  0  0  0
   -4.6480   21.9030  -33.0850 N   0  0  0  0  0  0  0  0  0  0  0  0
   -5.9460   21.5610  -32.5810 C   0  0  0  0  0  0  0  0  0  0  0  0
   -6.7660   22.5650  -32.0180 C   0  0  0  0  0  0  0  0  0  0  0  0
   -6.2880   23.9930  -31.8950 C   0  0  0  0  0  0  0  0  0  0  0  0
   -6.3400   24.4560  -30.4360 C   0  0  0  0  0  0  0  0  0  0  0  0
   -5.0620   24.0990  -29.7240 C   0  0  0  0  0  0  0  0  0  0  0  0
   -3.8890   24.8340  -29.9680 C   0  0  0  0  0  0  0  0  0  0  0  0
   -2.7110   24.5260  -29.2820 C   0  0  0  0  0  0  0  0  0  0  0  0
   -2.6970   23.4920  -28.3410 C   0  0  0  0  0  0  0  0  0  0  0  0
   -3.8640   22.7670  -28.0830 C   0  0  0  0  0  0  0  0  0  0  0  0
   -5.0440   23.0720  -28.7670 C   0  0  0  0  0  0  0  0  0  0  0  0
   -8.0340   22.2270  -31.5210 C   0  0  0  0  0  0  0  0  0  0  0  0
   -8.5020   20.9170  -31.5940 C   0  0  0  0  0  0  0  0  0  0  0  0
   -7.7010   19.9090  -32.1460 C   0  0  0  0  0  0  0  0  0  0  0  0
   -8.1690   18.5880  -32.2030 C   0  0  0  0  0  0  0  0  0  0  0  0
   -7.3630   17.5780  -32.7310 C   0  0  0  0  0  0  0  0  0  0  0  0
   -6.0840   17.8760  -33.2000 C   0  0  0  0  0  0  0  0  0  0  0  0
   -5.6040   19.1870  -33.1510 C   0  0  0  0  0  0  0  0  0  0  0  0
   -6.4070   20.2240  -32.6360 C   0  0  0  0  0  0  0  0  0  0  0  0
   -3.2572   21.6771  -30.2783 H   0  0  0  0  0  0  0  0  0  0  0  0
   -4.8413   21.0259  -30.8197 H   0  0  0  0  0  0  0  0  0  0  0  0
   -3.3886   19.9694  -30.8197 H   0  0  0  0  0  0  0  0  0  0  0  0
   -2.6951   22.2303  -32.3913 H   0  0  0  0  0  0  0  0  0  0  0  0
   -3.0522   20.5548  -32.9636 H   0  0  0  0  0  0  0  0  0  0  0  0
   -4.5850   22.3530  -34.0260 H   0  0  0  0  0  0  0  0  0  0  0  0
   -5.2520   24.0599  -32.2586 H   0  0  0  0  0  0  0  0  0  0  0  0
   -6.9449   24.6394  -32.4954 H   0  0  0  0  0  0  0  0  0  0  0  0
   -6.4780   25.5469  -30.4070 H   0  0  0  0  0  0  0  0  0  0  0  0
   -7.1798   23.9542  -29.9330 H   0  0  0  0  0  0  0  0  0  0  0  0
   -3.8982   25.6541  -30.7011 H   0  0  0  0  0  0  0  0  0  0  0  0
   -1.7932   25.0981  -29.4827 H   0  0  0  0  0  0  0  0  0  0  0  0
   -1.7682   23.2491  -27.8040 H   0  0  0  0  0  0  0  0  0  0  0  0
   -3.8536   21.9553  -27.3406 H   0  0  0  0  0  0  0  0  0  0  0  0
   -5.9624   22.5050  -28.5546 H   0  0  0  0  0  0  0  0  0  0  0  0
   -8.6658   23.0055  -31.0685 H   0  0  0  0  0  0  0  0  0  0  0  0
   -9.5058   20.6728  -31.2162 H   0  0  0  0  0  0  0  0  0  0  0  0
   -9.1754   18.3469  -31.8301 H   0  0  0  0  0  0  0  0  0  0  0  0
   -7.7376   16.5448  -32.7772 H   0  0  0  0  0  0  0  0  0  0  0  0
   -5.4506   17.0756  -33.6101 H   0  0  0  0  0  0  0  0  0  0  0  0
   -4.5914   19.4115  -33.5173 H   0  0  0  0  0  0  0  0  0  0  0  0
  1  2  1  0
  2  3  1  0
  3  4  1  0
  4  5  2  0
  5  6  1  0
  6  7  1  0
  7  8  1  0
  8  9  2  0
  9 10  1  0
 10 11  2  0
 11 12  1  0
 12 13  2  0
  5 14  1  0
 14 15  2  0
 15 16  1  0
 16 17  2  0
 17 18  1  0
 18 19  2  0
 19 20  1  0
 20 21  2  0
 21  4  1  0
 13  8  1  0
 21 16  1  0
  1 22  1  0
  1 23  1  0
  1 24  1  0
  2 25  1  0
  2 26  1  0
  3 27  1  0
  6 28  1  0
  6 29  1  0
  7 30  1  0
  7 31  1  0
  9 32  1  0
 10 33  1  0
 11 34  1  0
 12 35  1  0
 13 36  1  0
 14 37  1  0
 15 38  1  0
 17 39  1  0
 18 40  1  0
 19 41  1  0
 20 42  1  0
M  END
>  <UniqueID>  (23) 
23

>  <SMILES>  (23) 
CCNc1c(CCc2ccccc2)ccc2ccccc12

>  <Energy>  (23) 
47.62302533890759

>  <Genealogy>  (23) 
CCNc1c(CCc2ccccc2)ccc2ccccc12 (3D coordinates assigned)
CCNc1c(CCc2ccccc2)ccc2ccccc12 (optimized conformer: 47.62302533890759 kcal/mol)

>  <smiles>  (23) 
CCNc1c(CCc2ccccc2)ccc2ccccc12

>  <score_type>  (23) 
oracle

>  <origin>  (23) 
adg

>  <m_score__min__energy>  (23) 
-8.3200000000000003

>  <m_primary>  (23) 
energy

$$$$
23:0
     RDKit          3D

 58 61  0  0  0  0  0  0  0  0999 V2000
   -0.0420   22.9930  -27.2800 C   0  0  0  0  0  0  0  0  0  0  0  0
   -1.4440   22.6740  -26.7370 C   0  0  0  0  0  0  0  0  0  0  0  0
   -2.5130   22.5850  -27.7650 N   0  0  0  0  0  0  0  0  0  0  0  0
   -3.1890   21.2720  -27.8410 C   0  0  0  0  0  0  0  0  0  0  0  0
   -2.3260   20.1050  -27.3540 C   0  0  0  0  0  0  0  0  0  0  0  0
   -3.4270   23.7420  -27.8830 C   0  0  0  0  0  0  0  0  0  0  0  0
   -2.7680   24.8830  -28.6660 C   0  0  0  0  0  0  0  0  0  0  0  0
   -3.1000   24.7970  -30.0870 N   0  0  0  0  0  0  0  0  0  0  0  0
   -3.4910   23.5580  -30.7010 C   0  0  0  0  0  0  0  0  0  0  0  0
   -4.8370   23.3180  -31.0270 C   0  0  0  0  0  0  0  0  0  0  0  0
   -5.1890   22.1340  -31.7200 C   0  0  0  0  0  0  0  0  0  0  0  0
   -4.1880   21.2910  -32.1740 N   0  0  0  0  0  0  0  0  0  0  0  0
   -4.4480   20.3370  -33.2700 C   0  0  0  0  0  0  0  0  0  0  0  0
   -2.9110   21.3980  -31.6560 C   0  0  0  0  0  0  0  0  0  0  0  0
   -1.9490   20.3700  -31.8240 C   0  0  0  0  0  0  0  0  0  0  0  0
   -0.6420   20.5160  -31.3460 C   0  0  0  0  0  0  0  0  0  0  0  0
    0.3140   19.4680  -31.5320 N   0  0  0  0  0  0  0  0  0  0  0  0
   -0.2760   21.6860  -30.6800 C   0  0  0  0  0  0  0  0  0  0  0  0
   -1.2130   22.6940  -30.4670 C   0  0  0  0  0  0  0  0  0  0  0  0
   -2.5370   22.5550  -30.9290 C   0  0  0  0  0  0  0  0  0  0  0  0
   -6.6600   21.8220  -31.8660 C   0  0  0  0  0  0  0  0  0  0  0  0
   -7.0950   20.7510  -32.5870 N   0  0  0  0  0  0  0  0  0  0  0  0
   -8.4080   20.4270  -32.7130 C   0  0  0  0  0  0  0  0  0  0  0  0
   -9.3770   21.1930  -32.0710 C   0  0  0  0  0  0  0  0  0  0  0  0
   -8.9790   22.2790  -31.2940 C   0  0  0  0  0  0  0  0  0  0  0  0
   -7.6200   22.6060  -31.1860 C   0  0  0  0  0  0  0  0  0  0  0  0
   -7.1910   23.6880  -30.2400 C   0  0  0  0  0  0  0  0  0  0  0  0
   -5.9020   24.3490  -30.7150 C   0  0  0  0  0  0  0  0  0  0  0  0
    0.6497   23.1504  -26.4393 H   0  0  0  0  0  0  0  0  0  0  0  0
    0.3131   22.1527  -27.8946 H   0  0  0  0  0  0  0  0  0  0  0  0
   -0.0854   23.9042  -27.8946 H   0  0  0  0  0  0  0  0  0  0  0  0
   -1.3946   21.7085  -26.2123 H   0  0  0  0  0  0  0  0  0  0  0  0
   -1.7176   23.5148  -26.0826 H   0  0  0  0  0  0  0  0  0  0  0  0
   -4.0978   21.3133  -27.2226 H   0  0  0  0  0  0  0  0  0  0  0  0
   -3.4107   21.0862  -28.9023 H   0  0  0  0  0  0  0  0  0  0  0  0
   -2.3155   20.0908  -26.2541 H   0  0  0  0  0  0  0  0  0  0  0  0
   -2.7434   19.1589  -27.7290 H   0  0  0  0  0  0  0  0  0  0  0  0
   -1.2991   20.2269  -27.7290 H   0  0  0  0  0  0  0  0  0  0  0  0
   -4.3412   23.4266  -28.4073 H   0  0  0  0  0  0  0  0  0  0  0  0
   -3.6684   24.1033  -26.8724 H   0  0  0  0  0  0  0  0  0  0  0  0
   -3.1247   25.8452  -28.2699 H   0  0  0  0  0  0  0  0  0  0  0  0
   -1.6767   24.8035  -28.5535 H   0  0  0  0  0  0  0  0  0  0  0  0
   -3.1120   25.6700  -30.6610 H   0  0  0  0  0  0  0  0  0  0  0  0
   -4.7151   19.3571  -32.8475 H   0  0  0  0  0  0  0  0  0  0  0  0
   -5.2779   20.7077  -33.8896 H   0  0  0  0  0  0  0  0  0  0  0  0
   -3.5448   20.2353  -33.8896 H   0  0  0  0  0  0  0  0  0  0  0  0
   -2.2352   19.4412  -32.3392 H   0  0  0  0  0  0  0  0  0  0  0  0
    1.2520   19.6660  -31.9440 H   0  0  0  0  0  0  0  0  0  0  0  0
    0.0910   18.4850  -31.2580 H   0  0  0  0  0  0  0  0  0  0  0  0
    0.7563   21.8127  -30.3219 H   0  0  0  0  0  0  0  0  0  0  0  0
   -0.9164   23.6085  -29.9324 H   0  0  0  0  0  0  0  0  0  0  0  0
   -8.7053   19.5603  -33.3216 H   0  0  0  0  0  0  0  0  0  0  0  0
  -10.4433   20.9441  -32.1758 H   0  0  0  0  0  0  0  0  0  0  0  0
   -9.7323   22.8807  -30.7645 H   0  0  0  0  0  0  0  0  0  0  0  0
   -7.9839   24.4480  -30.1793 H   0  0  0  0  0  0  0  0  0  0  0  0
   -7.0114   23.2390  -29.2520 H   0  0  0  0  0  0  0  0  0  0  0  0
   -6.1124   24.9329  -31.6232 H   0  0  0  0  0  0  0  0  0  0  0  0
   -5.5293   25.0005  -29.9109 H   0  0  0  0  0  0  0  0  0  0  0  0
  1  2  1  0
  2  3  1  0
  3  4  1  0
  4  5  1  0
  3  6  1  0
  6  7  1  0
  7  8  1  0
  8  9  1  0
  9 10  2  0
 10 11  1  0
 11 12  2  0
 12 13  1  0
 12 14  1  0
 14 15  2  0
 15 16  1  0
 16 17  1  0
 16 18  2  0
 18 19  1  0
 19 20  2  0
 11 21  1  0
 21 22  2  0
 22 23  1  0
 23 24  2  0
 24 25  1  0
 25 26  2  0
 26 27  1  0
 27 28  1  0
 20  9  1  0
 26 21  1  0
 28 10  1  0
 20 14  1  0
  1 29  1  0
  1 30  1  0
  1 31  1  0
  2 32  1  0
  2 33  1  0
  4 34  1  0
  4 35  1  0
  5 36  1  0
  5 37  1  0
  5 38  1  0
  6 39  1  0
  6 40  1  0
  7 41  1  0
  7 42  1  0
  8 43  1  0
 13 44  1  0
 13 45  1  0
 13 46  1  0
 15 47  1  0
 17 48  1  0
 17 49  1  0
 18 50  1  0
 19 51  1  0
 23 52  1  0
 24 53  1  0
 25 54  1  0
 27 55  1  0
 27 56  1  0
 28 57  1  0
 28 58  1  0
M  CHG  1  12   1
M  END
>  <UniqueID>  (24) 
24

>  <SMILES>  (24) 
CCN(CC)CCNc1c2c([n+](C)c3cc(N)ccc13)-c1ncccc1CC2

>  <Energy>  (24) 
95.15269675822273

>  <Genealogy>  (24) 
CCN(CC)CCNc1c2c([n+](C)c3cc(N)ccc13)-c1ncccc1CC2 (3D coordinates assigned)
CCN(CC)CCNc1c2c([n+](C)c3cc(N)ccc13)-c1ncccc1CC2 (nonaromatic ring conformer: 95.15269675822273 kcal/mol)

>  <smiles>  (24) 
CCN(CC)CCNc1c2c([n+](C)c3cc(N)ccc13)-c1ncccc1CC2

>  <score_type>  (24) 
oracle

>  <origin>  (24) 
adg

>  <m_score__min__energy>  (24) 
-7.4699999999999998

>  <m_primary>  (24) 
energy

$$$$
24:0
     RDKit          3D

 56 57  0  0  0  0  0  0  0  0999 V2000
   -4.8200   19.9750  -32.0670 C   0  0  0  0  0  0  0  0  0  0  0  0
   -5.4110   20.1240  -33.4720 C   0  0  0  0  0  0  0  0  0  0  0  0
   -6.5210   19.1670  -33.7310 N   0  0  0  0  0  0  0  0  0  0  0  0
   -6.0900   18.0010  -34.5600 C   0  0  0  0  0  0  0  0  0  0  0  0
   -6.4830   16.6590  -33.9270 C   0  0  0  0  0  0  0  0  0  0  0  0
   -7.1670   18.7310  -32.4630 C   0  0  0  0  0  0  0  0  0  0  0  0
   -8.4170   19.5470  -32.0680 C   0  0  0  0  0  0  0  0  0  0  0  0
   -8.3560   20.8260  -32.6650 O   0  0  0  0  0  0  0  0  0  0  0  0
   -8.2700   21.8190  -31.6650 C   0  0  0  0  0  0  0  0  0  0  0  0
   -7.0080   22.6520  -31.8860 C   0  0  0  0  0  0  0  0  0  0  0  0
   -6.7750   23.6420  -30.7320 C   0  0  0  0  0  0  0  0  0  0  0  0
   -6.1070   24.9400  -31.2050 C   0  0  0  0  0  0  0  0  0  0  0  0
   -4.6410   24.8170  -31.1620 N   0  0  0  0  0  0  0  0  0  0  0  0
   -4.1470   24.6590  -29.7840 C   0  0  0  0  0  0  0  0  0  0  0  0
   -2.8030   23.9540  -29.7340 C   0  0  0  0  0  0  0  0  0  0  0  0
   -2.6560   22.7500  -30.4510 C   0  0  0  0  0  0  0  0  0  0  0  0
   -1.4580   22.0370  -30.4160 C   0  0  0  0  0  0  0  0  0  0  0  0
   -0.3840   22.5040  -29.6610 C   0  0  0  0  0  0  0  0  0  0  0  0
   -0.4990   23.6940  -28.9370 C   0  0  0  0  0  0  0  0  0  0  0  0
    0.5580   24.1370  -28.2040 N   0  0  0  0  0  0  0  0  0  0  0  0
    0.5040   25.2860  -27.4840 C   0  0  0  0  0  0  0  0  0  0  0  0
   -0.6590   26.0510  -27.4800 C   0  0  0  0  0  0  0  0  0  0  0  0
   -1.7660   25.6290  -28.2180 C   0  0  0  0  0  0  0  0  0  0  0  0
   -1.7100   24.4350  -28.9650 C   0  0  0  0  0  0  0  0  0  0  0  0
   -5.6011   20.1719  -31.3179 H   0  0  0  0  0  0  0  0  0  0  0  0
   -4.4368   18.9521  -31.9370 H   0  0  0  0  0  0  0  0  0  0  0  0
   -3.9977   20.6939  -31.9370 H   0  0  0  0  0  0  0  0  0  0  0  0
   -5.7954   21.1484  -33.5856 H   0  0  0  0  0  0  0  0  0  0  0  0
   -4.6102   19.9085  -34.1946 H   0  0  0  0  0  0  0  0  0  0  0  0
   -7.2700   19.6960  -34.2410 H   0  0  0  0  0  0  0  0  0  0  0  0
   -6.5629   18.0770  -35.5502 H   0  0  0  0  0  0  0  0  0  0  0  0
   -4.9929   18.0290  -34.6354 H   0  0  0  0  0  0  0  0  0  0  0  0
   -6.4567   16.7489  -32.8310 H   0  0  0  0  0  0  0  0  0  0  0  0
   -7.4989   16.3856  -34.2482 H   0  0  0  0  0  0  0  0  0  0  0  0
   -5.7750   15.8808  -34.2482 H   0  0  0  0  0  0  0  0  0  0  0  0
   -7.4649   17.6779  -32.5735 H   0  0  0  0  0  0  0  0  0  0  0  0
   -6.4264   18.8868  -31.6647 H   0  0  0  0  0  0  0  0  0  0  0  0
   -9.3204   19.0238  -32.4147 H   0  0  0  0  0  0  0  0  0  0  0  0
   -8.4516   19.6557  -30.9739 H   0  0  0  0  0  0  0  0  0  0  0  0
   -9.1543   22.4710  -31.7179 H   0  0  0  0  0  0  0  0  0  0  0  0
   -8.2271   21.3415  -30.6750 H   0  0  0  0  0  0  0  0  0  0  0  0
   -6.1425   21.9769  -31.9577 H   0  0  0  0  0  0  0  0  0  0  0  0
   -7.1339   23.2285  -32.8143 H   0  0  0  0  0  0  0  0  0  0  0  0
   -7.7452   23.8890  -30.2763 H   0  0  0  0  0  0  0  0  0  0  0  0
   -6.1017   23.1616  -30.0069 H   0  0  0  0  0  0  0  0  0  0  0  0
   -6.4213   25.1522  -32.2376 H   0  0  0  0  0  0  0  0  0  0  0  0
   -6.4127   25.7586  -30.5368 H   0  0  0  0  0  0  0  0  0  0  0  0
   -4.2140   25.6750  -31.5790 H   0  0  0  0  0  0  0  0  0  0  0  0
   -4.0418   25.6549  -29.3290 H   0  0  0  0  0  0  0  0  0  0  0  0
   -4.8727   24.0422  -29.2337 H   0  0  0  0  0  0  0  0  0  0  0  0
   -3.4978   22.3672  -31.0466 H   0  0  0  0  0  0  0  0  0  0  0  0
   -1.3605   21.1018  -30.9869 H   0  0  0  0  0  0  0  0  0  0  0  0
    0.5568   21.9346  -29.6347 H   0  0  0  0  0  0  0  0  0  0  0  0
    1.3793   25.6129  -26.9035 H   0  0  0  0  0  0  0  0  0  0  0  0
   -0.7053   26.9834  -26.8982 H   0  0  0  0  0  0  0  0  0  0  0  0
   -2.6866   26.2311  -28.2166 H   0  0  0  0  0  0  0  0  0  0  0  0
  1  2  1  0
  2  3  1  0
  3  4  1  0
  4  5  1  0
  3  6  1  0
  6  7  1  0
  7  8  1  0
  8  9  1  0
  9 10  1  0
 10 11  1  0
 11 12  1  0
 12 13  1  0
 13 14  1  0
 14 15  1  0
 15 16  2  0
 16 17  1  0
 17 18  2  0
 18 19  1  0
 19 20  2  0
 20 21  1  0
 21 22  2  0
 22 23  1  0
 23 24  2  0
 24 15  1  0
 24 19  1  0
  1 25  1  0
  1 26  1  0
  1 27  1  0
  2 28  1  0
  2 29  1  0
  3 30  1  0
  4 31  1  0
  4 32  1  0
  5 33  1  0
  5 34  1  0
  5 35  1  0
  6 36  1  0
  6 37  1  0
  7 38  1  0
  7 39  1  0
  9 40  1  0
  9 41  1  0
 10 42  1  0
 10 43  1  0
 11 44  1  0
 11 45  1  0
 12 46  1  0
 12 47  1  0
 13 48  1  0
 14 49  1  0
 14 50  1  0
 16 51  1  0
 17 52  1  0
 18 53  1  0
 21 54  1  0
 22 55  1  0
 23 56  1  0
M  CHG  1   3   1
M  END
>  <UniqueID>  (25) 
25

>  <SMILES>  (25) 
CC[NH+](CC)CCOCCCCNCc1cccc2ncccc12

>  <Energy>  (25) 
58.73882070910198

>  <Genealogy>  (25) 
CC[NH+](CC)CCOCCCCNCc1cccc2ncccc12 (protonated)
CC[NH+](CC)CCOCCCCNCc1cccc2ncccc12 (3D coordinates assigned)
CC[NH+](CC)CCOCCCCNCc1cccc2ncccc12 (optimized conformer: 58.73882070910198 kcal/mol)

>  <smiles>  (25) 
CCN(CC)CCOCCCCNCc1cccc2ncccc12

>  <score_type>  (25) 
oracle

>  <origin>  (25) 
adg

>  <m_score__min__energy>  (25) 
-7.8099999999999996

>  <m_primary>  (25) 
energy

$$$$
25:0
     RDKit          3D

 55 58  0  0  0  0  0  0  0  0999 V2000
   -6.1830   25.3680  -29.7210 C   0  0  0  0  0  0  0  0  0  0  0  0
   -4.9370   25.0320  -30.5410 C   0  0  0  0  0  0  0  0  0  0  0  0
   -3.8430   24.5090  -29.6920 N   0  0  0  0  0  0  0  0  0  0  0  0
   -4.3040   24.1670  -28.3290 C   0  0  0  0  0  0  0  0  0  0  0  0
   -3.2030   24.4690  -27.3220 C   0  0  0  0  0  0  0  0  0  0  0  0
   -2.9820   23.4690  -30.3170 C   0  0  0  0  0  0  0  0  0  0  0  0
   -3.7210   22.2800  -30.9720 C   0  0  0  0  0  0  0  0  0  0  0  0
   -3.1890   21.9120  -32.3610 C   0  0  0  0  0  0  0  0  0  0  0  0
   -4.3000   21.7960  -33.3040 N   0  0  0  0  0  0  0  0  0  0  0  0
   -5.4420   20.9690  -33.0290 C   0  0  0  0  0  0  0  0  0  0  0  0
   -6.6630   21.5100  -32.5660 C   0  0  0  0  0  0  0  0  0  0  0  0
   -6.7940   22.8930  -32.3320 C   0  0  0  0  0  0  0  0  0  0  0  0
   -8.0100   23.4290  -31.9130 C   0  0  0  0  0  0  0  0  0  0  0  0
   -9.1150   22.6030  -31.7340 C   0  0  0  0  0  0  0  0  0  0  0  0
   -9.0100   21.2270  -31.9380 C   0  0  0  0  0  0  0  0  0  0  0  0
   -7.7810   20.6380  -32.3210 C   0  0  0  0  0  0  0  0  0  0  0  0
   -7.6460   19.2650  -32.4800 N   0  0  0  0  0  0  0  0  0  0  0  0
   -8.6690   18.3190  -32.0010 C   0  0  0  0  0  0  0  0  0  0  0  0
   -6.4890   18.7950  -33.0450 C   0  0  0  0  0  0  0  0  0  0  0  0
   -5.4040   19.6060  -33.2890 C   0  0  0  0  0  0  0  0  0  0  0  0
   -4.4050   18.9260  -33.8120 O   0  0  0  0  0  0  0  0  0  0  0  0
   -4.8130   17.6830  -33.9380 C   0  0  0  0  0  0  0  0  0  0  0  0
   -4.0920   16.6190  -34.4760 C   0  0  0  0  0  0  0  0  0  0  0  0
   -4.7330   15.3740  -34.5880 C   0  0  0  0  0  0  0  0  0  0  0  0
   -6.0740   15.2220  -34.1750 C   0  0  0  0  0  0  0  0  0  0  0  0
   -6.7830   16.3080  -33.6300 C   0  0  0  0  0  0  0  0  0  0  0  0
   -6.1130   17.5290  -33.4900 C   0  0  0  0  0  0  0  0  0  0  0  0
   -5.9448   25.3038  -28.6490 H   0  0  0  0  0  0  0  0  0  0  0  0
   -6.5165   26.3882  -29.9620 H   0  0  0  0  0  0  0  0  0  0  0  0
   -6.9842   24.6538  -29.9620 H   0  0  0  0  0  0  0  0  0  0  0  0
   -5.1993   24.2718  -31.2916 H   0  0  0  0  0  0  0  0  0  0  0  0
   -4.5844   25.9570  -31.0206 H   0  0  0  0  0  0  0  0  0  0  0  0
   -5.1959   24.7628  -28.0848 H   0  0  0  0  0  0  0  0  0  0  0  0
   -4.5512   23.0960  -28.2870 H   0  0  0  0  0  0  0  0  0  0  0  0
   -3.5994   24.3603  -26.3017 H   0  0  0  0  0  0  0  0  0  0  0  0
   -2.3694   23.7663  -27.4683 H   0  0  0  0  0  0  0  0  0  0  0  0
   -2.8446   25.4986  -27.4683 H   0  0  0  0  0  0  0  0  0  0  0  0
   -2.3752   23.9571  -31.0939 H   0  0  0  0  0  0  0  0  0  0  0  0
   -2.3958   23.0357  -29.4932 H   0  0  0  0  0  0  0  0  0  0  0  0
   -3.6162   21.4028  -30.3167 H   0  0  0  0  0  0  0  0  0  0  0  0
   -4.7698   22.5857  -31.1008 H   0  0  0  0  0  0  0  0  0  0  0  0
   -2.4977   22.6950  -32.7061 H   0  0  0  0  0  0  0  0  0  0  0  0
   -2.6606   20.9490  -32.3033 H   0  0  0  0  0  0  0  0  0  0  0  0
   -4.2800   22.3630  -34.1790 H   0  0  0  0  0  0  0  0  0  0  0  0
   -5.9287   23.5556  -32.4814 H   0  0  0  0  0  0  0  0  0  0  0  0
   -8.0965   24.5090  -31.7231 H   0  0  0  0  0  0  0  0  0  0  0  0
  -10.0783   23.0380  -31.4294 H   0  0  0  0  0  0  0  0  0  0  0  0
   -9.8958   20.5898  -31.7991 H   0  0  0  0  0  0  0  0  0  0  0  0
   -8.6760   18.3125  -30.9010 H   0  0  0  0  0  0  0  0  0  0  0  0
   -9.6571   18.6285  -32.3722 H   0  0  0  0  0  0  0  0  0  0  0  0
   -8.4376   17.3097  -32.3722 H   0  0  0  0  0  0  0  0  0  0  0  0
   -3.0502   16.7502  -34.8038 H   0  0  0  0  0  0  0  0  0  0  0  0
   -4.1867   14.5127  -34.9999 H   0  0  0  0  0  0  0  0  0  0  0  0
   -6.5693   14.2455  -34.2802 H   0  0  0  0  0  0  0  0  0  0  0  0
   -7.8337   16.2007  -33.3227 H   0  0  0  0  0  0  0  0  0  0  0  0
  1  2  1  0
  2  3  1  0
  3  4  1  0
  4  5  1  0
  3  6  1  0
  6  7  1  0
  7  8  1  0
  8  9  1  0
  9 10  1  0
 10 11  2  0
 11 12  1  0
 12 13  2  0
 13 14  1  0
 14 15  2  0
 15 16  1  0
 16 17  2  0
 17 18  1  0
 17 19  1  0
 19 20  2  0
 20 21  1  0
 21 22  1  0
 22 23  2  0
 23 24  1  0
 24 25  2  0
 25 26  1  0
 26 27  2  0
 20 10  1  0
 27 22  1  0
 16 11  1  0
 27 19  1  0
  1 28  1  0
  1 29  1  0
  1 30  1  0
  2 31  1  0
  2 32  1  0
  4 33  1  0
  4 34  1  0
  5 35  1  0
  5 36  1  0
  5 37  1  0
  6 38  1  0
  6 39  1  0
  7 40  1  0
  7 41  1  0
  8 42  1  0
  8 43  1  0
  9 44  1  0
 12 45  1  0
 13 46  1  0
 14 47  1  0
 15 48  1  0
 18 49  1  0
 18 50  1  0
 18 51  1  0
 23 52  1  0
 24 53  1  0
 25 54  1  0
 26 55  1  0
M  CHG  1  17   1
M  END
>  <UniqueID>  (26) 
26

>  <SMILES>  (26) 
CCN(CC)CCCNc1c2ccccc2[n+](C)c2c1oc1ccccc12

>  <Energy>  (26) 
118.98270306396421

>  <Genealogy>  (26) 
CCN(CC)CCCNc1c2ccccc2[n+](C)c2c1oc1ccccc12 (3D coordinates assigned)
CCN(CC)CCCNc1c2ccccc2[n+](C)c2c1oc1ccccc12 (optimized conformer: 118.98270306396421 kcal/mol)

>  <smiles>  (26) 
CCN(CC)CCCNc1c2ccccc2[n+](C)c2c1oc1ccccc12

>  <score_type>  (26) 
oracle

>  <origin>  (26) 
adg

>  <m_score__min__energy>  (26) 
-9.0999999999999996

>  <m_primary>  (26) 
energy

$$$$
26:0
     RDKit          3D

 37 37  0  0  0  0  0  0  0  0999 V2000
   -9.5000   21.5780  -31.8920 C   0  0  0  0  0  0  0  0  0  0  0  0
   -8.7350   20.3890  -31.3140 C   0  0  0  0  0  0  0  0  0  0  0  0
   -8.5350   19.2570  -32.3350 C   0  0  0  0  0  0  0  0  0  0  0  0
   -7.0690   18.8130  -32.4460 C   0  0  0  0  0  0  0  0  0  0  0  0
   -6.4650   19.2420  -33.7950 C   0  0  0  0  0  0  0  0  0  0  0  0
   -5.2660   20.0850  -33.6330 N   0  0  0  0  0  0  0  0  0  0  0  0
   -5.0690   20.5150  -32.2370 C   0  0  0  0  0  0  0  0  0  0  0  0
   -4.2740   21.8380  -32.1690 C   0  0  1  0  0  0  0  0  0  0  0  0
   -3.8920   22.2860  -33.4470 O   0  0  0  0  0  0  0  0  0  0  0  0
   -5.0570   22.9150  -31.4410 C   0  0  0  0  0  0  0  0  0  0  0  0
   -4.3880   23.8400  -30.6190 C   0  0  0  0  0  0  0  0  0  0  0  0
   -5.1040   24.8310  -29.9390 C   0  0  0  0  0  0  0  0  0  0  0  0
   -6.4920   24.9060  -30.0690 C   0  0  0  0  0  0  0  0  0  0  0  0
   -7.1690   23.9910  -30.8790 C   0  0  0  0  0  0  0  0  0  0  0  0
   -6.4580   22.9990  -31.5600 C   0  0  0  0  0  0  0  0  0  0  0  0
   -9.8960   22.1935  -31.0708 H   0  0  0  0  0  0  0  0  0  0  0  0
   -8.8222   22.1844  -32.5107 H   0  0  0  0  0  0  0  0  0  0  0  0
  -10.3328   21.2124  -32.5107 H   0  0  0  0  0  0  0  0  0  0  0  0
   -7.7474   20.7367  -30.9766 H   0  0  0  0  0  0  0  0  0  0  0  0
   -9.3306   19.9841  -30.4825 H   0  0  0  0  0  0  0  0  0  0  0  0
   -9.1422   18.3932  -32.0265 H   0  0  0  0  0  0  0  0  0  0  0  0
   -8.8426   19.6387  -33.3197 H   0  0  0  0  0  0  0  0  0  0  0  0
   -6.4910   19.2722  -31.6305 H   0  0  0  0  0  0  0  0  0  0  0  0
   -7.0281   17.7160  -32.3760 H   0  0  0  0  0  0  0  0  0  0  0  0
   -6.1885   18.3401  -34.3608 H   0  0  0  0  0  0  0  0  0  0  0  0
   -7.2225   19.8361  -34.3271 H   0  0  0  0  0  0  0  0  0  0  0  0
   -4.4190   19.5710  -33.9720 H   0  0  0  0  0  0  0  0  0  0  0  0
   -5.3920   20.9340  -34.2330 H   0  0  0  0  0  0  0  0  0  0  0  0
   -6.0514   20.6616  -31.7643 H   0  0  0  0  0  0  0  0  0  0  0  0
   -4.4980   19.7369  -31.7092 H   0  0  0  0  0  0  0  0  0  0  0  0
   -3.3569   21.6305  -31.5981 H   0  0  0  0  0  0  0  0  0  0  0  0
   -4.6170   22.8630  -33.8020 H   0  0  0  0  0  0  0  0  0  0  0  0
   -3.2948   23.7837  -30.5102 H   0  0  0  0  0  0  0  0  0  0  0  0
   -4.5725   25.5523  -29.3009 H   0  0  0  0  0  0  0  0  0  0  0  0
   -7.0529   25.6860  -29.5333 H   0  0  0  0  0  0  0  0  0  0  0  0
   -8.2626   24.0513  -30.9809 H   0  0  0  0  0  0  0  0  0  0  0  0
   -6.9964   22.2787  -32.1935 H   0  0  0  0  0  0  0  0  0  0  0  0
  1  2  1  0
  2  3  1  0
  3  4  1  0
  4  5  1  0
  5  6  1  0
  6  7  1  0
  7  8  1  0
  8  9  1  0
  8 10  1  0
 10 11  2  0
 11 12  1  0
 12 13  2  0
 13 14  1  0
 14 15  2  0
 15 10  1  0
  1 16  1  0
  1 17  1  0
  1 18  1  0
  2 19  1  0
  2 20  1  0
  3 21  1  0
  3 22  1  0
  4 23  1  0
  4 24  1  0
  5 25  1  0
  5 26  1  0
  6 27  1  0
  6 28  1  0
  7 29  1  0
  7 30  1  0
  8 31  1  1
  9 32  1  0
 11 33  1  0
 12 34  1  0
 13 35  1  0
 14 36  1  0
 15 37  1  0
M  CHG  1   6   1
M  END
>  <UniqueID>  (27) 
27

>  <SMILES>  (27) 
CCCCC[NH2+]C[C@@H](O)c1ccccc1

>  <Energy>  (27) 
27.674050686234203

>  <Genealogy>  (27) 
CCCCC[NH2+]CC(O)c1ccccc1 (protonated)
CCCCC[NH2+]C[C@@H](O)c1ccccc1 (chirality)
CCCCC[NH2+]C[C@@H](O)c1ccccc1 (3D coordinates assigned)
CCCCC[NH2+]C[C@@H](O)c1ccccc1 (optimized conformer: 27.674050686234203 kcal/mol)

>  <smiles>  (27) 
CCCCCNCC(O)c1ccccc1

>  <score_type>  (27) 
oracle

>  <origin>  (27) 
adg

>  <m_score__min__energy>  (27) 
-5.8200000000000003

>  <m_primary>  (27) 
energy

$$$$
27:0
     RDKit          3D

 46 47  0  0  0  0  0  0  0  0999 V2000
   -2.3500   19.2120  -26.5080 C   0  0  0  0  0  0  0  0  0  0  0  0
   -0.9600   19.3800  -27.1000 C   0  0  0  0  0  0  0  0  0  0  0  0
   -0.5640   20.7460  -27.0090 O   0  0  0  0  0  0  0  0  0  0  0  0
   -1.1450   21.7910  -27.7430 C   0  0  0  0  0  0  0  0  0  0  0  0
   -0.7390   22.1100  -29.0540 C   0  0  0  0  0  0  0  0  0  0  0  0
   -1.3600   23.1490  -29.7520 C   0  0  0  0  0  0  0  0  0  0  0  0
   -2.3870   23.8960  -29.1460 C   0  0  0  0  0  0  0  0  0  0  0  0
   -3.1040   24.9190  -29.8520 N   0  0  0  0  0  0  0  0  0  0  0  0
   -4.4570   24.8550  -30.3190 C   0  0  0  0  0  0  0  0  0  0  0  0
   -4.8910   25.6880  -31.1600 O   0  0  0  0  0  0  0  0  0  0  0  0
   -5.3740   23.8040  -29.7820 C   0  0  0  0  0  0  0  0  0  0  0  0
   -5.5740   22.7480  -30.8080 N   0  0  0  0  0  0  0  0  0  0  0  0
   -4.3290   22.4860  -31.5640 C   0  0  0  0  0  0  0  0  0  0  0  0
   -3.7780   21.1010  -31.2290 C   0  0  0  0  0  0  0  0  0  0  0  0
   -6.6770   23.0890  -31.7360 C   0  0  0  0  0  0  0  0  0  0  0  0
   -7.5780   21.9040  -31.9790 C   0  0  0  0  0  0  0  0  0  0  0  0
   -8.9600   21.9950  -31.7440 C   0  0  0  0  0  0  0  0  0  0  0  0
   -9.7860   20.8860  -31.9590 C   0  0  0  0  0  0  0  0  0  0  0  0
   -9.2400   19.6830  -32.4160 C   0  0  0  0  0  0  0  0  0  0  0  0
   -7.8660   19.5870  -32.6550 C   0  0  0  0  0  0  0  0  0  0  0  0
   -7.0360   20.6920  -32.4360 C   0  0  0  0  0  0  0  0  0  0  0  0
   -2.7940   23.5710  -27.8480 C   0  0  0  0  0  0  0  0  0  0  0  0
   -2.1720   22.5320  -27.1490 C   0  0  0  0  0  0  0  0  0  0  0  0
   -2.2843   19.2199  -25.4100 H   0  0  0  0  0  0  0  0  0  0  0  0
   -2.9935   20.0389  -26.8428 H   0  0  0  0  0  0  0  0  0  0  0  0
   -2.7780   18.2556  -26.8428 H   0  0  0  0  0  0  0  0  0  0  0  0
   -0.2469   18.7542  -26.5434 H   0  0  0  0  0  0  0  0  0  0  0  0
   -0.9730   19.0728  -28.1561 H   0  0  0  0  0  0  0  0  0  0  0  0
    0.0710   21.5382  -29.5304 H   0  0  0  0  0  0  0  0  0  0  0  0
   -1.0448   23.3839  -30.7793 H   0  0  0  0  0  0  0  0  0  0  0  0
   -4.9315   23.3583  -28.8789 H   0  0  0  0  0  0  0  0  0  0  0  0
   -6.3437   24.2581  -29.5302 H   0  0  0  0  0  0  0  0  0  0  0  0
   -4.5425   22.5392  -32.6418 H   0  0  0  0  0  0  0  0  0  0  0  0
   -3.5799   23.2423  -31.2868 H   0  0  0  0  0  0  0  0  0  0  0  0
   -3.7298   20.9799  -30.1367 H   0  0  0  0  0  0  0  0  0  0  0  0
   -4.4383   20.3309  -31.6545 H   0  0  0  0  0  0  0  0  0  0  0  0
   -2.7692   20.9949  -31.6545 H   0  0  0  0  0  0  0  0  0  0  0  0
   -7.2706   23.9067  -31.3013 H   0  0  0  0  0  0  0  0  0  0  0  0
   -6.2386   23.3935  -32.6978 H   0  0  0  0  0  0  0  0  0  0  0  0
   -9.3945   22.9414  -31.3897 H   0  0  0  0  0  0  0  0  0  0  0  0
  -10.8667   20.9610  -31.7681 H   0  0  0  0  0  0  0  0  0  0  0  0
   -9.8908   18.8129  -32.5874 H   0  0  0  0  0  0  0  0  0  0  0  0
   -7.4365   18.6409  -33.0160 H   0  0  0  0  0  0  0  0  0  0  0  0
   -5.9550   20.6109  -32.6225 H   0  0  0  0  0  0  0  0  0  0  0  0
   -3.6093   24.1369  -27.3736 H   0  0  0  0  0  0  0  0  0  0  0  0
   -2.4928   22.2954  -26.1238 H   0  0  0  0  0  0  0  0  0  0  0  0
  1  2  1  0
  2  3  1  0
  3  4  1  0
  4  5  2  0
  5  6  1  0
  6  7  2  0
  7  8  1  0
  8  9  1  0
  9 10  2  0
  9 11  1  0
 11 12  1  0
 12 13  1  0
 13 14  1  0
 12 15  1  0
 15 16  1  0
 16 17  2  0
 17 18  1  0
 18 19  2  0
 19 20  1  0
 20 21  2  0
  7 22  1  0
 22 23  2  0
 23  4  1  0
 21 16  1  0
  1 24  1  0
  1 25  1  0
  1 26  1  0
  2 27  1  0
  2 28  1  0
  5 29  1  0
  6 30  1  0
 11 31  1  0
 11 32  1  0
 13 33  1  0
 13 34  1  0
 14 35  1  0
 14 36  1  0
 14 37  1  0
 15 38  1  0
 15 39  1  0
 17 40  1  0
 18 41  1  0
 19 42  1  0
 20 43  1  0
 21 44  1  0
 22 45  1  0
 23 46  1  0
M  CHG  1   8  -1
M  END
>  <UniqueID>  (28) 
28

>  <SMILES>  (28) 
CCOc1ccc([N-]C(=O)CN(CC)Cc2ccccc2)cc1

>  <Energy>  (28) 
42.4734316080432

>  <Genealogy>  (28) 
CCOc1ccc([N-]C(=O)CN(CC)Cc2ccccc2)cc1 (protonated)
CCOc1ccc([N-]C(=O)CN(CC)Cc2ccccc2)cc1 (3D coordinates assigned)
CCOc1ccc([N-]C(=O)CN(CC)Cc2ccccc2)cc1 (optimized conformer: 42.4734316080432 kcal/mol)

>  <smiles>  (28) 
CCOc1ccc(NC(=O)CN(CC)Cc2ccccc2)cc1

>  <score_type>  (28) 
oracle

>  <origin>  (28) 
adg

>  <m_score__min__energy>  (28) 
-9.0099999999999998

>  <m_primary>  (28) 
energy

$$$$
28:0
     RDKit          3D

 41 42  0  0  0  0  0  0  0  0999 V2000
    0.2970   21.9990  -35.3870 C   0  0  0  0  0  0  0  0  0  0  0  0
   -0.4300   20.6640  -35.2300 C   0  0  0  0  0  0  0  0  0  0  0  0
   -1.5060   20.7660  -34.2330 N   0  0  0  0  0  0  0  0  0  0  0  0
   -0.9500   21.0280  -32.8980 C   0  0  0  0  0  0  0  0  0  0  0  0
   -1.8760   20.4800  -31.8050 C   0  0  0  0  0  0  0  0  0  0  0  0
   -3.0570   21.3960  -31.5980 C   0  0  0  0  0  0  0  0  0  0  0  0
   -3.1110   22.2080  -30.4530 C   0  0  0  0  0  0  0  0  0  0  0  0
   -4.1830   23.0800  -30.2510 C   0  0  0  0  0  0  0  0  0  0  0  0
   -4.2470   24.1720  -28.6860 Br  0  0  0  0  0  0  0  0  0  0  0  0
   -5.2070   23.1560  -31.1970 C   0  0  0  0  0  0  0  0  0  0  0  0
   -5.1580   22.3660  -32.3480 C   0  0  0  0  0  0  0  0  0  0  0  0
   -4.0830   21.4810  -32.5640 C   0  0  0  0  0  0  0  0  0  0  0  0
   -3.9960   20.6800  -33.7170 O   0  0  0  0  0  0  0  0  0  0  0  0
   -4.3880   19.3100  -33.8060 C   0  0  0  0  0  0  0  0  0  0  0  0
   -5.6790   19.0750  -33.0690 C   0  0  0  0  0  0  0  0  0  0  0  0
   -5.7530   18.1190  -32.0430 C   0  0  0  0  0  0  0  0  0  0  0  0
   -6.9540   17.9140  -31.3570 C   0  0  0  0  0  0  0  0  0  0  0  0
   -8.0850   18.6660  -31.6830 C   0  0  0  0  0  0  0  0  0  0  0  0
   -8.0160   19.6290  -32.6950 C   0  0  0  0  0  0  0  0  0  0  0  0
   -9.1130   20.3620  -33.0070 F   0  0  0  0  0  0  0  0  0  0  0  0
   -6.8170   19.8380  -33.3830 C   0  0  0  0  0  0  0  0  0  0  0  0
    0.5224   22.4129  -34.3931 H   0  0  0  0  0  0  0  0  0  0  0  0
    1.2347   21.8430  -35.9405 H   0  0  0  0  0  0  0  0  0  0  0  0
   -0.3428   22.7021  -35.9405 H   0  0  0  0  0  0  0  0  0  0  0  0
   -0.8630   20.3737  -36.1986 H   0  0  0  0  0  0  0  0  0  0  0  0
    0.2932   19.9081  -34.8901 H   0  0  0  0  0  0  0  0  0  0  0  0
   -2.1480   21.5500  -34.4980 H   0  0  0  0  0  0  0  0  0  0  0  0
   -2.0430   19.8670  -34.2130 H   0  0  0  0  0  0  0  0  0  0  0  0
    0.0331   20.5416  -32.8150 H   0  0  0  0  0  0  0  0  0  0  0  0
   -0.8518   22.1154  -32.7642 H   0  0  0  0  0  0  0  0  0  0  0  0
   -2.2385   19.4854  -32.1040 H   0  0  0  0  0  0  0  0  0  0  0  0
   -1.3110   20.4131  -30.8636 H   0  0  0  0  0  0  0  0  0  0  0  0
   -2.3022   22.1566  -29.7093 H   0  0  0  0  0  0  0  0  0  0  0  0
   -6.0539   23.8392  -31.0357 H   0  0  0  0  0  0  0  0  0  0  0  0
   -5.9653   22.4354  -33.0919 H   0  0  0  0  0  0  0  0  0  0  0  0
   -4.5227   19.0414  -34.8642 H   0  0  0  0  0  0  0  0  0  0  0  0
   -3.6034   18.6882  -33.3502 H   0  0  0  0  0  0  0  0  0  0  0  0
   -4.8630   17.5294  -31.7781 H   0  0  0  0  0  0  0  0  0  0  0  0
   -7.0083   17.1589  -30.5589 H   0  0  0  0  0  0  0  0  0  0  0  0
   -9.0296   18.5009  -31.1440 H   0  0  0  0  0  0  0  0  0  0  0  0
   -6.7640   20.6020  -34.1726 H   0  0  0  0  0  0  0  0  0  0  0  0
  1  2  1  0
  2  3  1  0
  3  4  1  0
  4  5  1  0
  5  6  1  0
  6  7  2  0
  7  8  1  0
  8  9  1  0
  8 10  2  0
 10 11  1  0
 11 12  2  0
 12 13  1  0
 13 14  1  0
 14 15  1  0
 15 16  2  0
 16 17  1  0
 17 18  2  0
 18 19  1  0
 19 20  1  0
 19 21  2  0
 12  6  1  0
 21 15  1  0
  1 22  1  0
  1 23  1  0
  1 24  1  0
  2 25  1  0
  2 26  1  0
  3 27  1  0
  3 28  1  0
  4 29  1  0
  4 30  1  0
  5 31  1  0
  5 32  1  0
  7 33  1  0
 10 34  1  0
 11 35  1  0
 14 36  1  0
 14 37  1  0
 16 38  1  0
 17 39  1  0
 18 40  1  0
 21 41  1  0
M  CHG  1   3   1
M  END
>  <UniqueID>  (29) 
29

>  <SMILES>  (29) 
CC[NH2+]CCc1cc(Br)ccc1OCc1cccc(F)c1

>  <Energy>  (29) 
34.34572074288046

>  <Genealogy>  (29) 
CC[NH2+]CCc1cc(Br)ccc1OCc1cccc(F)c1 (protonated)
CC[NH2+]CCc1cc(Br)ccc1OCc1cccc(F)c1 (3D coordinates assigned)
CC[NH2+]CCc1cc(Br)ccc1OCc1cccc(F)c1 (optimized conformer: 34.34572074288046 kcal/mol)

>  <smiles>  (29) 
CCNCCc1cc(Br)ccc1OCc1cccc(F)c1

>  <score_type>  (29) 
oracle

>  <origin>  (29) 
adg

>  <m_score__min__energy>  (29) 
-6.6900000000000004

>  <m_primary>  (29) 
energy

$$$$
29:0
     RDKit          3D

 70 73  0  0  0  0  0  0  0  0999 V2000
   -3.3690   18.5590  -25.9960 C   0  0  0  0  0  0  0  0  0  0  0  0
   -2.0130   18.3130  -26.6580 C   0  0  0  0  0  0  0  0  0  0  0  0
   -1.2970   19.6150  -27.0480 C   0  0  0  0  0  0  0  0  0  0  0  0
   -2.1790   20.8560  -26.8610 C   0  0  0  0  0  0  0  0  0  0  0  0
   -2.2300   21.6300  -28.1080 N   0  0  0  0  0  0  0  0  0  0  0  0
   -1.9790   22.9750  -28.0830 C   0  0  0  0  0  0  0  0  0  0  0  0
   -1.9840   23.7280  -29.2710 C   0  0  0  0  0  0  0  0  0  0  0  0
   -1.7440   25.1090  -29.2950 O   0  0  0  0  0  0  0  0  0  0  0  0
   -1.1740   25.8440  -28.2170 C   0  0  0  0  0  0  0  0  0  0  0  0
   -2.2330   23.0730  -30.4780 C   0  0  0  0  0  0  0  0  0  0  0  0
   -2.4530   21.6920  -30.5000 C   0  0  0  0  0  0  0  0  0  0  0  0
   -2.7050   20.9960  -31.7790 C   0  0  0  0  0  0  0  0  0  0  0  0
   -1.5800   20.5140  -32.4570 C   0  0  0  0  0  0  0  0  0  0  0  0
   -1.7170   19.6420  -33.5250 C   0  0  0  0  0  0  0  0  0  0  0  0
   -2.9780   19.2140  -33.9210 C   0  0  0  0  0  0  0  0  0  0  0  0
   -4.1500   19.7100  -33.3000 C   0  0  0  0  0  0  0  0  0  0  0  0
   -4.0170   20.6590  -32.2430 C   0  0  0  0  0  0  0  0  0  0  0  0
   -5.2060   21.2510  -31.7260 C   0  0  0  0  0  0  0  0  0  0  0  0
   -5.2290   22.6220  -31.2210 N   0  0  0  0  0  0  0  0  0  0  0  0
   -5.5370   22.7020  -29.7760 C   0  0  0  0  0  0  0  0  0  0  0  0
   -5.0110   23.9940  -29.1260 C   0  0  0  0  0  0  0  0  0  0  0  0
   -4.5550   24.9470  -30.1450 N   0  0  0  0  0  0  0  0  0  0  0  0
   -5.6560   25.8220  -30.5610 C   0  0  0  0  0  0  0  0  0  0  0  0
   -6.8570   25.6150  -29.6460 C   0  0  0  0  0  0  0  0  0  0  0  0
   -6.4160   20.5350  -31.8900 C   0  0  0  0  0  0  0  0  0  0  0  0
   -7.5410   20.7790  -31.0710 C   0  0  0  0  0  0  0  0  0  0  0  0
   -8.7260   20.0700  -31.2530 C   0  0  0  0  0  0  0  0  0  0  0  0
   -8.8060   19.0860  -32.2310 C   0  0  0  0  0  0  0  0  0  0  0  0
   -7.7010   18.8060  -33.0340 C   0  0  0  0  0  0  0  0  0  0  0  0
   -6.4920   19.5290  -32.8890 C   0  0  0  0  0  0  0  0  0  0  0  0
   -5.4010   19.2820  -33.6950 N   0  0  0  0  0  0  0  0  0  0  0  0
   -5.5700   18.5370  -34.9630 C   0  0  0  0  0  0  0  0  0  0  0  0
   -2.4660   20.9870  -29.2900 C   0  0  0  0  0  0  0  0  0  0  0  0
   -3.2524   18.5378  -24.9024 H   0  0  0  0  0  0  0  0  0  0  0  0
   -3.7548   19.5418  -26.3046 H   0  0  0  0  0  0  0  0  0  0  0  0
   -4.0754   17.7744  -26.3046 H   0  0  0  0  0  0  0  0  0  0  0  0
   -1.3744   17.7574  -25.9555 H   0  0  0  0  0  0  0  0  0  0  0  0
   -2.1935   17.7442  -27.5821 H   0  0  0  0  0  0  0  0  0  0  0  0
   -0.3993   19.7239  -26.4216 H   0  0  0  0  0  0  0  0  0  0  0  0
   -1.0427   19.5466  -28.1160 H   0  0  0  0  0  0  0  0  0  0  0  0
   -3.1965   20.5414  -26.5860 H   0  0  0  0  0  0  0  0  0  0  0  0
   -1.7537   21.4838  -26.0641 H   0  0  0  0  0  0  0  0  0  0  0  0
   -1.7712   23.4723  -27.1241 H   0  0  0  0  0  0  0  0  0  0  0  0
   -1.5084   25.4128  -27.2619 H   0  0  0  0  0  0  0  0  0  0  0  0
   -0.0769   25.7931  -28.2781 H   0  0  0  0  0  0  0  0  0  0  0  0
   -1.4963   26.8939  -28.2781 H   0  0  0  0  0  0  0  0  0  0  0  0
   -2.2563   23.6458  -31.4168 H   0  0  0  0  0  0  0  0  0  0  0  0
   -0.5758   20.8308  -32.1387 H   0  0  0  0  0  0  0  0  0  0  0  0
   -0.8244   19.2874  -34.0611 H   0  0  0  0  0  0  0  0  0  0  0  0
   -3.0677   18.4762  -34.7319 H   0  0  0  0  0  0  0  0  0  0  0  0
   -5.8980   23.2050  -31.7650 H   0  0  0  0  0  0  0  0  0  0  0  0
   -4.3140   23.1040  -31.3460 H   0  0  0  0  0  0  0  0  0  0  0  0
   -6.6286   22.6623  -29.6464 H   0  0  0  0  0  0  0  0  0  0  0  0
   -5.0371   21.8553  -29.2829 H   0  0  0  0  0  0  0  0  0  0  0  0
   -5.8180   24.4551  -28.5376 H   0  0  0  0  0  0  0  0  0  0  0  0
   -4.1593   23.7391  -28.4782 H   0  0  0  0  0  0  0  0  0  0  0  0
   -3.8100   25.5470  -29.7180 H   0  0  0  0  0  0  0  0  0  0  0  0
   -5.3300   26.8710  -30.5033 H   0  0  0  0  0  0  0  0  0  0  0  0
   -5.9419   25.5779  -31.5948 H   0  0  0  0  0  0  0  0  0  0  0  0
   -6.5323   25.6710  -28.5965 H   0  0  0  0  0  0  0  0  0  0  0  0
   -7.6053   26.3974  -29.8405 H   0  0  0  0  0  0  0  0  0  0  0  0
   -7.3002   24.6272  -29.8405 H   0  0  0  0  0  0  0  0  0  0  0  0
   -7.4802   21.5395  -30.2786 H   0  0  0  0  0  0  0  0  0  0  0  0
   -9.5997   20.2893  -30.6217 H   0  0  0  0  0  0  0  0  0  0  0  0
   -9.7428   18.5269  -32.3719 H   0  0  0  0  0  0  0  0  0  0  0  0
   -7.7694   18.0114  -33.7916 H   0  0  0  0  0  0  0  0  0  0  0  0
   -5.8084   17.4862  -34.7419 H   0  0  0  0  0  0  0  0  0  0  0  0
   -6.3895   18.9843  -35.5447 H   0  0  0  0  0  0  0  0  0  0  0  0
   -4.6377   18.5869  -35.5447 H   0  0  0  0  0  0  0  0  0  0  0  0
   -2.6681   19.9057  -29.2914 H   0  0  0  0  0  0  0  0  0  0  0  0
  1  2  1  0
  2  3  1  0
  3  4  1  0
  4  5  1  0
  5  6  2  0
  6  7  1  0
  7  8  1  0
  8  9  1  0
  7 10  2  0
 10 11  1  0
 11 12  1  0
 12 13  2  0
 13 14  1  0
 14 15  2  0
 15 16  1  0
 16 17  2  0
 17 18  1  0
 18 19  1  0
 19 20  1  0
 20 21  1  0
 21 22  1  0
 22 23  1  0
 23 24  1  0
 18 25  2  0
 25 26  1  0
 26 27  2  0
 27 28  1  0
 28 29  2  0
 29 30  1  0
 30 31  2  0
 31 32  1  0
 11 33  2  0
 33  5  1  0
 17 12  1  0
 30 25  1  0
 31 16  1  0
  1 34  1  0
  1 35  1  0
  1 36  1  0
  2 37  1  0
  2 38  1  0
  3 39  1  0
  3 40  1  0
  4 41  1  0
  4 42  1  0
  6 43  1  0
  9 44  1  0
  9 45  1  0
  9 46  1  0
 10 47  1  0
 13 48  1  0
 14 49  1  0
 15 50  1  0
 19 51  1  0
 19 52  1  0
 20 53  1  0
 20 54  1  0
 21 55  1  0
 21 56  1  0
 22 57  1  0
 23 58  1  0
 23 59  1  0
 24 60  1  0
 24 61  1  0
 24 62  1  0
 26 63  1  0
 27 64  1  0
 28 65  1  0
 29 66  1  0
 32 67  1  0
 32 68  1  0
 32 69  1  0
 33 70  1  0
M  CHG  3   5   1  19   1  31   1
M  END
>  <UniqueID>  (30) 
30

>  <SMILES>  (30) 
CCCC[n+]1cc(OC)cc(-c2cccc3c2c([NH2+]CCNCC)c2ccccc2[n+]3C)c1

>  <Energy>  (30) 
104.80268901934524

>  <Genealogy>  (30) 
CCCC[n+]1cc(OC)cc(-c2cccc3c2c([NH2+]CCNCC)c2ccccc2[n+]3C)c1 (protonated)
CCCC[n+]1cc(OC)cc(-c2cccc3c2c([NH2+]CCNCC)c2ccccc2[n+]3C)c1 (3D coordinates assigned)
CCCC[n+]1cc(OC)cc(-c2cccc3c2c([NH2+]CCNCC)c2ccccc2[n+]3C)c1 (optimized conformer: 104.80268901934524 kcal/mol)

>  <smiles>  (30) 
CCCC[n+]1cc(OC)cc(-c2cccc3c2c(NCCNCC)c2ccccc2[n+]3C)c1

>  <score_type>  (30) 
oracle

>  <origin>  (30) 
adg

>  <m_score__min__energy>  (30) 
-7.9299999999999997

>  <m_primary>  (30) 
energy

$$$$
30:0
     RDKit          3D

 71 73  0  0  0  0  0  0  0  0999 V2000
   -1.5030   28.2870  -35.0480 C   0  0  0  0  0  0  0  0  0  0  0  0
   -0.1140   27.6560  -35.0960 C   0  0  0  0  0  0  0  0  0  0  0  0
   -0.0330   26.6330  -36.1600 N   0  0  0  0  0  0  0  0  0  0  0  0
   -1.1270   26.6910  -37.1520 C   0  0  0  0  0  0  0  0  0  0  0  0
   -0.8080   27.5710  -38.3620 C   0  0  0  0  0  0  0  0  0  0  0  0
    1.3080   26.2960  -36.7110 C   0  0  0  0  0  0  0  0  0  0  0  0
    1.9520   24.9930  -36.1940 C   0  0  0  0  0  0  0  0  0  0  0  0
    1.3890   23.8640  -36.8240 O   0  0  0  0  0  0  0  0  0  0  0  0
    0.2750   23.3840  -36.0930 C   0  0  0  0  0  0  0  0  0  0  0  0
    0.5990   22.0210  -35.4740 C   0  0  0  0  0  0  0  0  0  0  0  0
    0.0850   21.9170  -34.1580 O   0  0  0  0  0  0  0  0  0  0  0  0
   -0.7750   20.8020  -34.0210 C   0  0  0  0  0  0  0  0  0  0  0  0
   -1.8100   21.0570  -32.9180 C   0  0  0  0  0  0  0  0  0  0  0  0
   -3.1120   21.4270  -33.4830 N   0  0  0  0  0  0  0  0  0  0  0  0
   -4.3440   20.8320  -33.0300 C   0  0  0  0  0  0  0  0  0  0  0  0
   -5.3600   21.6480  -32.5010 C   0  0  0  0  0  0  0  0  0  0  0  0
   -5.1700   23.0410  -32.3660 C   0  0  0  0  0  0  0  0  0  0  0  0
   -6.1980   23.8590  -31.9060 C   0  0  0  0  0  0  0  0  0  0  0  0
   -7.4340   23.3090  -31.5830 C   0  0  0  0  0  0  0  0  0  0  0  0
   -7.6430   21.9350  -31.7010 C   0  0  0  0  0  0  0  0  0  0  0  0
   -6.6040   21.0700  -32.1330 C   0  0  0  0  0  0  0  0  0  0  0  0
   -6.7900   19.7040  -32.2310 N   0  0  0  0  0  0  0  0  0  0  0  0
   -7.9720   19.0720  -31.6000 C   0  0  0  0  0  0  0  0  0  0  0  0
   -5.8540   18.9210  -32.8830 C   0  0  0  0  0  0  0  0  0  0  0  0
   -6.1330   17.5800  -33.2530 C   0  0  0  0  0  0  0  0  0  0  0  0
   -5.1530   16.7560  -33.8380 C   0  0  0  0  0  0  0  0  0  0  0  0
   -5.4650   15.3980  -34.2370 N   0  0  0  0  0  0  0  0  0  0  0  0
   -4.3950   14.4630  -34.6100 C   0  0  0  0  0  0  0  0  0  0  0  0
   -6.8530   14.9280  -34.2410 C   0  0  0  0  0  0  0  0  0  0  0  0
   -3.8680   17.2810  -34.0320 C   0  0  0  0  0  0  0  0  0  0  0  0
   -3.5890   18.6090  -33.7250 C   0  0  0  0  0  0  0  0  0  0  0  0
   -4.5880   19.4590  -33.2170 C   0  0  0  0  0  0  0  0  0  0  0  0
   -1.8070   28.4251  -33.9999 H   0  0  0  0  0  0  0  0  0  0  0  0
   -1.4800   29.2630  -35.5548 H   0  0  0  0  0  0  0  0  0  0  0  0
   -2.2230   27.6276  -35.5548 H   0  0  0  0  0  0  0  0  0  0  0  0
    0.6309   28.4408  -35.2942 H   0  0  0  0  0  0  0  0  0  0  0  0
    0.0843   27.1716  -34.1285 H   0  0  0  0  0  0  0  0  0  0  0  0
   -1.3288   25.6699  -37.5077 H   0  0  0  0  0  0  0  0  0  0  0  0
   -1.9971   27.1371  -36.6481 H   0  0  0  0  0  0  0  0  0  0  0  0
   -0.4520   28.5531  -38.0174 H   0  0  0  0  0  0  0  0  0  0  0  0
   -0.0269   27.0902  -38.9693 H   0  0  0  0  0  0  0  0  0  0  0  0
   -1.7157   27.7024  -38.9693 H   0  0  0  0  0  0  0  0  0  0  0  0
    1.2097   26.2107  -37.8033 H   0  0  0  0  0  0  0  0  0  0  0  0
    1.9741   27.1050  -36.3765 H   0  0  0  0  0  0  0  0  0  0  0  0
    3.0319   25.0190  -36.4015 H   0  0  0  0  0  0  0  0  0  0  0  0
    1.7680   24.9176  -35.1121 H   0  0  0  0  0  0  0  0  0  0  0  0
    0.0300   24.0979  -35.2928 H   0  0  0  0  0  0  0  0  0  0  0  0
   -0.5824   23.2756  -36.7735 H   0  0  0  0  0  0  0  0  0  0  0  0
    0.1539   21.2303  -36.0959 H   0  0  0  0  0  0  0  0  0  0  0  0
    1.6926   21.9119  -35.4287 H   0  0  0  0  0  0  0  0  0  0  0  0
   -1.2963   20.6272  -34.9737 H   0  0  0  0  0  0  0  0  0  0  0  0
   -0.1755   19.9202  -33.7507 H   0  0  0  0  0  0  0  0  0  0  0  0
   -1.9268   20.1424  -32.3180 H   0  0  0  0  0  0  0  0  0  0  0  0
   -1.4536   21.8896  -32.2937 H   0  0  0  0  0  0  0  0  0  0  0  0
   -3.1280   22.0050  -34.3530 H   0  0  0  0  0  0  0  0  0  0  0  0
   -4.1981   23.4848  -32.6275 H   0  0  0  0  0  0  0  0  0  0  0  0
   -6.0328   24.9411  -31.7979 H   0  0  0  0  0  0  0  0  0  0  0  0
   -8.2492   23.9596  -31.2334 H   0  0  0  0  0  0  0  0  0  0  0  0
   -8.6294   21.5149  -31.4552 H   0  0  0  0  0  0  0  0  0  0  0  0
   -7.8750   19.1239  -30.5055 H   0  0  0  0  0  0  0  0  0  0  0  0
   -8.8828   19.6035  -31.9130 H   0  0  0  0  0  0  0  0  0  0  0  0
   -8.0358   18.0194  -31.9130 H   0  0  0  0  0  0  0  0  0  0  0  0
   -7.1403   17.1740  -33.0784 H   0  0  0  0  0  0  0  0  0  0  0  0
   -3.9297   14.0564  -33.7000 H   0  0  0  0  0  0  0  0  0  0  0  0
   -4.8181   13.6400  -35.2047 H   0  0  0  0  0  0  0  0  0  0  0  0
   -3.6361   14.9926  -35.2047 H   0  0  0  0  0  0  0  0  0  0  0  0
   -7.2030   14.8095  -33.2049 H   0  0  0  0  0  0  0  0  0  0  0  0
   -7.4870   15.6616  -34.7605 H   0  0  0  0  0  0  0  0  0  0  0  0
   -6.9109   13.9602  -34.7605 H   0  0  0  0  0  0  0  0  0  0  0  0
   -3.0714   16.6360  -34.4313 H   0  0  0  0  0  0  0  0  0  0  0  0
   -2.5728   18.9998  -33.8818 H   0  0  0  0  0  0  0  0  0  0  0  0
  1  2  1  0
  2  3  1  0
  3  4  1  0
  4  5  1  0
  3  6  1  0
  6  7  1  0
  7  8  1  0
  8  9  1  0
  9 10  1  0
 10 11  1  0
 11 12  1  0
 12 13  1  0
 13 14  1  0
 14 15  1  0
 15 16  2  0
 16 17  1  0
 17 18  2  0
 18 19  1  0
 19 20  2  0
 20 21  1  0
 21 22  2  0
 22 23  1  0
 22 24  1  0
 24 25  2  0
 25 26  1  0
 26 27  1  0
 27 28  1  0
 27 29  1  0
 26 30  2  0
 30 31  1  0
 31 32  2  0
 32 15  1  0
 21 16  1  0
 32 24  1  0
  1 33  1  0
  1 34  1  0
  1 35  1  0
  2 36  1  0
  2 37  1  0
  4 38  1  0
  4 39  1  0
  5 40  1  0
  5 41  1  0
  5 42  1  0
  6 43  1  0
  6 44  1  0
  7 45  1  0
  7 46  1  0
  9 47  1  0
  9 48  1  0
 10 49  1  0
 10 50  1  0
 12 51  1  0
 12 52  1  0
 13 53  1  0
 13 54  1  0
 14 55  1  0
 17 56  1  0
 18 57  1  0
 19 58  1  0
 20 59  1  0
 23 60  1  0
 23 61  1  0
 23 62  1  0
 25 63  1  0
 28 64  1  0
 28 65  1  0
 28 66  1  0
 29 67  1  0
 29 68  1  0
 29 69  1  0
 30 70  1  0
 31 71  1  0
M  CHG  1  22   1
M  END
>  <UniqueID>  (31) 
31

>  <SMILES>  (31) 
CCN(CC)CCOCCOCCNc1c2ccccc2[n+](C)c2cc(N(C)C)ccc12

>  <Energy>  (31) 
106.74308785600344

>  <Genealogy>  (31) 
CCN(CC)CCOCCOCCNc1c2ccccc2[n+](C)c2cc(N(C)C)ccc12 (3D coordinates assigned)
CCN(CC)CCOCCOCCNc1c2ccccc2[n+](C)c2cc(N(C)C)ccc12 (optimized conformer: 106.74308785600344 kcal/mol)

>  <smiles>  (31) 
CCN(CC)CCOCCOCCNc1c2ccccc2[n+](C)c2cc(N(C)C)ccc12

>  <score_type>  (31) 
oracle

>  <origin>  (31) 
adg

>  <m_score__min__energy>  (31) 
-9.5199999999999996

>  <m_primary>  (31) 
energy

$$$$
31:0
     RDKit          3D

 43 45  0  0  0  0  0  0  0  0999 V2000
   -1.7730   20.4990  -31.3000 C   0  0  0  0  0  0  0  0  0  0  0  0
   -1.7100   21.5410  -32.4260 C   0  0  0  0  0  0  0  0  0  0  0  0
   -2.0760   20.9650  -33.7500 N   0  0  1  0  0  0  0  0  0  0  0  0
   -0.8700   20.8080  -34.5950 C   0  0  0  0  0  0  0  0  0  0  0  0
   -2.7790   19.6630  -33.5430 C   0  0  0  0  0  0  0  0  0  0  0  0
   -4.3130   19.6800  -33.7800 C   0  0  0  0  0  0  0  0  0  0  0  0
   -4.9740   20.9390  -33.3760 N   0  0  0  0  0  0  0  0  0  0  0  0
   -5.4730   20.9620  -31.9880 C   0  0  2  0  0  0  0  0  0  0  0  0
   -6.8760   20.3940  -32.0020 C   0  0  0  0  0  0  0  0  0  0  0  0
   -7.0760   19.0050  -32.0800 C   0  0  0  0  0  0  0  0  0  0  0  0
   -8.3650   18.4880  -32.2470 C   0  0  0  0  0  0  0  0  0  0  0  0
   -9.4590   19.3530  -32.3610 C   0  0  0  0  0  0  0  0  0  0  0  0
   -9.2700   20.7370  -32.3000 C   0  0  0  0  0  0  0  0  0  0  0  0
   -7.9860   21.2600  -32.1090 C   0  0  0  0  0  0  0  0  0  0  0  0
   -7.8130   22.6450  -31.9940 O   0  0  0  0  0  0  0  0  0  0  0  0
   -6.6050   23.1910  -31.5510 C   0  0  0  0  0  0  0  0  0  0  0  0
   -6.5520   24.5010  -31.1840 N   0  0  0  0  0  0  0  0  0  0  0  0
   -5.4210   25.0510  -30.6600 C   0  0  0  0  0  0  0  0  0  0  0  0
   -4.2840   24.2630  -30.4640 C   0  0  0  0  0  0  0  0  0  0  0  0
   -4.3050   22.9200  -30.8490 C   0  0  0  0  0  0  0  0  0  0  0  0
   -5.4610   22.3770  -31.4300 C   0  0  0  0  0  0  0  0  0  0  0  0
   -1.7421   21.0093  -30.3260 H   0  0  0  0  0  0  0  0  0  0  0  0
   -2.7075   19.9248  -31.3837 H   0  0  0  0  0  0  0  0  0  0  0  0
   -0.9145   19.8164  -31.3837 H   0  0  0  0  0  0  0  0  0  0  0  0
   -2.4074   22.3586  -32.1909 H   0  0  0  0  0  0  0  0  0  0  0  0
   -0.6735   21.9036  -32.4915 H   0  0  0  0  0  0  0  0  0  0  0  0
   -2.7310   21.6330  -34.2220 H   0  0  0  0  0  0  0  0  0  0  0  0
    0.0154   20.6927  -33.9525 H   0  0  0  0  0  0  0  0  0  0  0  0
   -0.9807   19.9167  -35.2301 H   0  0  0  0  0  0  0  0  0  0  0  0
   -0.7489   21.6980  -35.2301 H   0  0  0  0  0  0  0  0  0  0  0  0
   -2.3388   18.9280  -34.2329 H   0  0  0  0  0  0  0  0  0  0  0  0
   -2.6430   19.4150  -32.4800 H   0  0  0  0  0  0  0  0  0  0  0  0
   -4.4982   19.5218  -34.8527 H   0  0  0  0  0  0  0  0  0  0  0  0
   -4.7390   18.8834  -33.1523 H   0  0  0  0  0  0  0  0  0  0  0  0
   -4.4000   21.7910  -33.5680 H   0  0  0  0  0  0  0  0  0  0  0  0
   -4.8239   20.3591  -31.3360 H   0  0  0  0  0  0  0  0  0  0  0  0
   -6.2163   18.3224  -32.0095 H   0  0  0  0  0  0  0  0  0  0  0  0
   -8.5189   17.3996  -32.2888 H   0  0  0  0  0  0  0  0  0  0  0  0
  -10.4704   18.9430  -32.4990 H   0  0  0  0  0  0  0  0  0  0  0  0
  -10.1304   21.4147  -32.4021 H   0  0  0  0  0  0  0  0  0  0  0  0
   -5.4030   26.1174  -30.3908 H   0  0  0  0  0  0  0  0  0  0  0  0
   -3.3802   24.6961  -30.0106 H   0  0  0  0  0  0  0  0  0  0  0  0
   -3.4166   22.2894  -30.6968 H   0  0  0  0  0  0  0  0  0  0  0  0
  1  2  1  0
  2  3  1  0
  3  4  1  0
  3  5  1  0
  5  6  1  0
  6  7  1  0
  7  8  1  0
  8  9  1  0
  9 10  2  0
 10 11  1  0
 11 12  2  0
 12 13  1  0
 13 14  2  0
 14 15  1  0
 15 16  1  0
 16 17  2  0
 17 18  1  0
 18 19  2  0
 19 20  1  0
 20 21  2  0
 21  8  1  0
 14  9  1  0
 21 16  1  0
  1 22  1  0
  1 23  1  0
  1 24  1  0
  2 25  1  0
  2 26  1  0
  3 27  1  6
  4 28  1  0
  4 29  1  0
  4 30  1  0
  5 31  1  0
  5 32  1  0
  6 33  1  0
  6 34  1  0
  7 35  1  0
  8 36  1  1
 10 37  1  0
 11 38  1  0
 12 39  1  0
 13 40  1  0
 18 41  1  0
 19 42  1  0
 20 43  1  0
M  CHG  1   3   1
M  END
>  <UniqueID>  (32) 
32

>  <SMILES>  (32) 
CC[N@@H+](C)CCN[C@@H]1c2ccccc2Oc2ncccc21

>  <Energy>  (32) 
57.21069964923371

>  <Genealogy>  (32) 
CC[NH+](C)CCNC1c2ccccc2Oc2ncccc21 (protonated)
CC[N@@H+](C)CCN[C@@H]1c2ccccc2Oc2ncccc21 (chirality)
CC[N@@H+](C)CCN[C@@H]1c2ccccc2Oc2ncccc21 (3D coordinates assigned)
CC[N@@H+](C)CCN[C@@H]1c2ccccc2Oc2ncccc21 (nonaromatic ring conformer: 57.21069964923371 kcal/mol)

>  <smiles>  (32) 
CCN(C)CCNC1c2ccccc2Oc2ncccc21

>  <score_type>  (32) 
oracle

>  <origin>  (32) 
adg

>  <m_score__min__energy>  (32) 
-6.5

>  <m_primary>  (32) 
energy

$$$$
32:0
     RDKit          3D

 43 46  0  0  0  0  0  0  0  0999 V2000
    0.0000   27.1640  -27.2060 O   0  0  0  0  0  0  0  0  0  0  0  0
   -0.8620   26.3510  -27.6300 C   0  0  0  0  0  0  0  0  0  0  0  0
   -1.2390   26.3990  -28.9680 O   0  0  0  0  0  0  0  0  0  0  0  0
   -1.5170   25.4330  -26.6820 C   0  0  0  0  0  0  0  0  0  0  0  0
   -1.9010   24.1770  -26.9540 C   0  0  0  0  0  0  0  0  0  0  0  0
   -1.9960   23.5800  -28.2980 C   0  0  0  0  0  0  0  0  0  0  0  0
   -1.1470   22.6330  -28.8500 C   0  0  0  0  0  0  0  0  0  0  0  0
   -1.6600   22.2870  -30.0390 N   0  0  0  0  0  0  0  0  0  0  0  0
   -2.7660   23.0200  -30.1910 C   0  0  0  0  0  0  0  0  0  0  0  0
   -3.0330   23.8150  -29.1350 N   0  0  0  0  0  0  0  0  0  0  0  0
   -3.5670   22.9090  -31.4020 C   0  0  0  0  0  0  0  0  0  0  0  0
   -4.5330   23.6970  -31.5900 O   0  0  0  0  0  0  0  0  0  0  0  0
   -3.2260   21.8830  -32.3670 N   0  0  0  0  0  0  0  0  0  0  0  0
   -4.1750   21.6110  -33.4650 C   0  0  0  0  0  0  0  0  0  0  0  0
   -5.1460   20.5200  -33.0890 C   0  0  0  0  0  0  0  0  0  0  0  0
   -4.7710   19.1550  -33.2050 C   0  0  0  0  0  0  0  0  0  0  0  0
   -5.6720   18.1330  -32.8540 C   0  0  0  0  0  0  0  0  0  0  0  0
   -6.9340   18.5060  -32.4040 C   0  0  0  0  0  0  0  0  0  0  0  0
   -7.3040   19.8070  -32.3000 C   0  0  0  0  0  0  0  0  0  0  0  0
   -6.4440   20.8470  -32.6370 C   0  0  0  0  0  0  0  0  0  0  0  0
   -8.6020   19.8800  -31.8340 O   0  0  0  0  0  0  0  0  0  0  0  0
   -9.0760   18.5410  -31.6290 C   0  0  0  0  0  0  0  0  0  0  0  0
   -7.9790   17.6960  -32.0050 O   0  0  0  0  0  0  0  0  0  0  0  0
   -2.1750   20.8800  -32.0140 C   0  0  1  0  0  0  0  0  0  0  0  0
   -1.5070   20.2570  -33.2550 C   0  0  0  0  0  0  0  0  0  0  0  0
   -1.0810   21.2580  -34.1370 O   0  0  0  0  0  0  0  0  0  0  0  0
   -1.0710   21.4690  -31.0890 C   0  0  0  0  0  0  0  0  0  0  0  0
   -1.7071   25.8092  -25.6659 H   0  0  0  0  0  0  0  0  0  0  0  0
   -2.1681   23.5372  -26.1000 H   0  0  0  0  0  0  0  0  0  0  0  0
   -0.2251   22.2394  -28.3970 H   0  0  0  0  0  0  0  0  0  0  0  0
   -4.7368   22.5297  -33.6895 H   0  0  0  0  0  0  0  0  0  0  0  0
   -3.6039   21.2808  -34.3452 H   0  0  0  0  0  0  0  0  0  0  0  0
   -3.7674   18.8946  -33.5725 H   0  0  0  0  0  0  0  0  0  0  0  0
   -5.3875   17.0734  -32.9329 H   0  0  0  0  0  0  0  0  0  0  0  0
   -6.7658   21.8956  -32.5538 H   0  0  0  0  0  0  0  0  0  0  0  0
   -9.3417   18.3825  -30.5734 H   0  0  0  0  0  0  0  0  0  0  0  0
   -9.9809   18.3289  -32.2173 H   0  0  0  0  0  0  0  0  0  0  0  0
   -2.7129   20.0914  -31.4675 H   0  0  0  0  0  0  0  0  0  0  0  0
   -0.6389   19.6605  -32.9378 H   0  0  0  0  0  0  0  0  0  0  0  0
   -2.2390   19.6172  -33.7696 H   0  0  0  0  0  0  0  0  0  0  0  0
   -1.8900   21.5600  -34.6240 H   0  0  0  0  0  0  0  0  0  0  0  0
   -0.5069   20.6438  -30.6299 H   0  0  0  0  0  0  0  0  0  0  0  0
   -0.4025   22.0990  -31.6942 H   0  0  0  0  0  0  0  0  0  0  0  0
  1  2  2  0
  2  3  1  0
  2  4  1  0
  4  5  2  3
  5  6  1  0
  6  7  2  0
  7  8  1  0
  8  9  1  0
  9 10  2  0
  9 11  1  0
 11 12  2  0
 11 13  1  0
 13 14  1  0
 14 15  1  0
 15 16  2  0
 16 17  1  0
 17 18  2  0
 18 19  1  0
 19 20  2  0
 19 21  1  0
 21 22  1  0
 22 23  1  0
 13 24  1  0
 24 25  1  0
 25 26  1  0
 24 27  1  0
 10  6  1  0
 20 15  1  0
 27  8  1  0
 23 18  1  0
  4 28  1  0
  5 29  1  0
  7 30  1  0
 14 31  1  0
 14 32  1  0
 16 33  1  0
 17 34  1  0
 20 35  1  0
 22 36  1  0
 22 37  1  0
 24 38  1  1
 25 39  1  0
 25 40  1  0
 26 41  1  0
 27 42  1  0
 27 43  1  0
M  CHG  1   3  -1
M  END
>  <UniqueID>  (33) 
33

>  <SMILES>  (33) 
O=C([O-])C=Cc1cn2c(n1)C(=O)N(Cc1ccc3c(c1)OCO3)[C@@H](CO)C2

>  <Energy>  (33) 
112.85320704393693

>  <Genealogy>  (33) 
O=C([O-])C=Cc1cn2c(n1)C(=O)N(Cc1ccc3c(c1)OCO3)C(CO)C2 (protonated)
O=C([O-])C=Cc1cn2c(n1)C(=O)N(Cc1ccc3c(c1)OCO3)[C@@H](CO)C2 (chirality)
O=C([O-])C=Cc1cn2c(n1)C(=O)N(Cc1ccc3c(c1)OCO3)[C@@H](CO)C2 (3D coordinates assigned)
O=C([O-])C=Cc1cn2c(n1)C(=O)N(Cc1ccc3c(c1)OCO3)[C@@H](CO)C2 (nonaromatic ring conformer: 112.85320704393693 kcal/mol)

>  <smiles>  (33) 
O=C(O)C=Cc1cn2c(n1)C(=O)N(Cc1ccc3c(c1)OCO3)C(CO)C2

>  <score_type>  (33) 
oracle

>  <origin>  (33) 
adg

>  <m_score__min__energy>  (33) 
-9.2599999999999998

>  <m_primary>  (33) 
energy

$$$$
33:0
     RDKit          3D

 49 51  0  0  0  0  0  0  0  0999 V2000
   -8.6410   19.2110  -31.6010 C   0  0  0  0  0  0  0  0  0  0  0  0
   -8.6370   20.4620  -32.4740 C   0  0  0  0  0  0  0  0  0  0  0  0
   -7.5870   21.3970  -32.0380 N   0  0  0  0  0  0  0  0  0  0  0  0
   -7.9760   22.5310  -31.1840 C   0  0  0  0  0  0  0  0  0  0  0  0
   -7.1630   23.7750  -31.5360 C   0  0  0  0  0  0  0  0  0  0  0  0
   -5.7370   23.4540  -31.4470 N   0  0  0  0  0  0  0  0  0  0  0  0
   -4.8980   24.2050  -30.5470 C   0  0  0  0  0  0  0  0  0  0  0  0
   -4.4060   25.3020  -30.9260 O   0  0  0  0  0  0  0  0  0  0  0  0
   -4.6010   23.7240  -29.1490 C   0  0  0  0  0  0  0  0  0  0  0  0
   -3.3390   24.3130  -28.6480 N   0  0  0  0  0  0  0  0  0  0  0  0
   -2.1650   23.8590  -29.4370 C   0  0  0  0  0  0  0  0  0  0  0  0
   -1.8330   22.3560  -29.2990 C   0  0  0  0  0  0  0  0  0  0  0  0
   -0.8550   21.9760  -28.1580 C   0  0  0  0  0  0  0  0  0  0  0  0
   -1.2450   22.4820  -26.7580 C   0  0  0  0  0  0  0  0  0  0  0  0
   -1.7720   23.9340  -26.7140 C   0  0  0  0  0  0  0  0  0  0  0  0
   -3.2230   24.1450  -27.1850 C   0  0  0  0  0  0  0  0  0  0  0  0
   -5.2740   22.2730  -32.1340 C   0  0  0  0  0  0  0  0  0  0  0  0
   -3.9400   22.1610  -32.5610 C   0  0  0  0  0  0  0  0  0  0  0  0
   -3.4950   20.9990  -33.1910 C   0  0  0  0  0  0  0  0  0  0  0  0
   -4.3790   19.9480  -33.4220 C   0  0  0  0  0  0  0  0  0  0  0  0
   -5.7180   20.0600  -33.0420 C   0  0  0  0  0  0  0  0  0  0  0  0
   -6.1900   21.2290  -32.4060 C   0  0  0  0  0  0  0  0  0  0  0  0
   -8.6401   19.5038  -30.5407 H   0  0  0  0  0  0  0  0  0  0  0  0
   -9.5411   18.6164  -31.8164 H   0  0  0  0  0  0  0  0  0  0  0  0
   -7.7448   18.6107  -31.8164 H   0  0  0  0  0  0  0  0  0  0  0  0
   -8.4517   20.1726  -33.5189 H   0  0  0  0  0  0  0  0  0  0  0  0
   -9.6138   20.9597  -32.3835 H   0  0  0  0  0  0  0  0  0  0  0  0
   -9.0449   22.7444  -31.3317 H   0  0  0  0  0  0  0  0  0  0  0  0
   -7.7814   22.2665  -30.1342 H   0  0  0  0  0  0  0  0  0  0  0  0
   -7.4054   24.0964  -32.5597 H   0  0  0  0  0  0  0  0  0  0  0  0
   -7.4053   24.5876  -30.8353 H   0  0  0  0  0  0  0  0  0  0  0  0
   -5.4257   24.0185  -28.4834 H   0  0  0  0  0  0  0  0  0  0  0  0
   -4.4964   22.6291  -29.1674 H   0  0  0  0  0  0  0  0  0  0  0  0
   -2.3639   24.0694  -30.4982 H   0  0  0  0  0  0  0  0  0  0  0  0
   -1.2962   24.4055  -29.0414 H   0  0  0  0  0  0  0  0  0  0  0  0
   -2.7766   21.8178  -29.1261 H   0  0  0  0  0  0  0  0  0  0  0  0
   -1.3203   22.0796  -30.2321 H   0  0  0  0  0  0  0  0  0  0  0  0
   -0.7918   20.8786  -28.1167 H   0  0  0  0  0  0  0  0  0  0  0  0
    0.0996   22.4651  -28.4018 H   0  0  0  0  0  0  0  0  0  0  0  0
   -2.0306   21.8213  -26.3625 H   0  0  0  0  0  0  0  0  0  0  0  0
   -0.3231   22.4703  -26.1580 H   0  0  0  0  0  0  0  0  0  0  0  0
   -1.7024   24.2850  -25.6738 H   0  0  0  0  0  0  0  0  0  0  0  0
   -1.1473   24.4957  -27.4241 H   0  0  0  0  0  0  0  0  0  0  0  0
   -3.8191   23.2707  -26.8847 H   0  0  0  0  0  0  0  0  0  0  0  0
   -3.5876   25.0721  -26.7186 H   0  0  0  0  0  0  0  0  0  0  0  0
   -3.2421   22.9953  -32.3973 H   0  0  0  0  0  0  0  0  0  0  0  0
   -2.4446   20.9126  -33.5058 H   0  0  0  0  0  0  0  0  0  0  0  0
   -4.0214   19.0268  -33.9053 H   0  0  0  0  0  0  0  0  0  0  0  0
   -6.4117   19.2296  -33.2400 H   0  0  0  0  0  0  0  0  0  0  0  0
  1  2  1  0
  2  3  1  0
  3  4  1  0
  4  5  1  0
  5  6  1  0
  6  7  1  0
  7  8  2  0
  7  9  1  0
  9 10  1  0
 10 11  1  0
 11 12  1  0
 12 13  1  0
 13 14  1  0
 14 15  1  0
 15 16  1  0
  6 17  1  0
 17 18  2  0
 18 19  1  0
 19 20  2  0
 20 21  1  0
 21 22  2  0
 22  3  1  0
 16 10  1  0
 22 17  1  0
  1 23  1  0
  1 24  1  0
  1 25  1  0
  2 26  1  0
  2 27  1  0
  4 28  1  0
  4 29  1  0
  5 30  1  0
  5 31  1  0
  9 32  1  0
  9 33  1  0
 11 34  1  0
 11 35  1  0
 12 36  1  0
 12 37  1  0
 13 38  1  0
 13 39  1  0
 14 40  1  0
 14 41  1  0
 15 42  1  0
 15 43  1  0
 16 44  1  0
 16 45  1  0
 18 46  1  0
 19 47  1  0
 20 48  1  0
 21 49  1  0
M  END
>  <UniqueID>  (34) 
34

>  <SMILES>  (34) 
CCN1CCN(C(=O)CN2CCCCCC2)c2ccccc21

>  <Energy>  (34) 
66.53775563988613

>  <Genealogy>  (34) 
CCN1CCN(C(=O)CN2CCCCCC2)c2ccccc21 (3D coordinates assigned)
CCN1CCN(C(=O)CN2CCCCCC2)c2ccccc21 (nonaromatic ring conformer: 66.53775563988613 kcal/mol)

>  <smiles>  (34) 
CCN1CCN(C(=O)CN2CCCCCC2)c2ccccc21

>  <score_type>  (34) 
oracle

>  <origin>  (34) 
adg

>  <m_score__min__energy>  (34) 
-6.3099999999999996

>  <m_primary>  (34) 
energy

$$$$
34:0
     RDKit          3D

 46 49  0  0  0  0  0  0  0  0999 V2000
   -1.7780   15.2600  -34.1430 C   0  0  0  0  0  0  0  0  0  0  0  0
   -2.8250   15.5720  -35.2130 C   0  0  0  0  0  0  0  0  0  0  0  0
   -3.2800   16.9800  -35.1530 N   0  0  0  0  0  0  0  0  0  0  0  0
   -2.2660   17.8910  -34.5920 C   0  0  0  0  0  0  0  0  0  0  0  0
   -2.8900   19.0290  -33.8310 C   0  0  0  0  0  0  0  0  0  0  0  0
   -2.1240   20.1300  -33.4200 C   0  0  0  0  0  0  0  0  0  0  0  0
   -2.7380   21.1610  -32.7060 C   0  0  0  0  0  0  0  0  0  0  0  0
   -4.1020   21.0930  -32.4180 C   0  0  0  0  0  0  0  0  0  0  0  0
   -4.8420   19.9860  -32.8550 C   0  0  0  0  0  0  0  0  0  0  0  0
   -6.2870   19.8730  -32.5690 C   0  0  0  0  0  0  0  0  0  0  0  0
   -6.9870   18.6550  -32.6030 C   0  0  0  0  0  0  0  0  0  0  0  0
   -6.4110   17.3070  -32.7730 C   0  0  0  0  0  0  0  0  0  0  0  0
   -6.6920   16.5510  -33.9240 C   0  0  0  0  0  0  0  0  0  0  0  0
   -6.1210   15.2860  -34.0920 C   0  0  0  0  0  0  0  0  0  0  0  0
   -5.2800   14.7590  -33.1080 C   0  0  0  0  0  0  0  0  0  0  0  0
   -4.5220   13.0210  -33.3310 Br  0  0  0  0  0  0  0  0  0  0  0  0
   -4.9900   15.5090  -31.9640 C   0  0  0  0  0  0  0  0  0  0  0  0
   -5.5450   16.7820  -31.8010 C   0  0  0  0  0  0  0  0  0  0  0  0
   -8.6330   18.9490  -32.3470 S   0  0  0  0  0  0  0  0  0  0  0  0
   -8.4740   20.6090  -32.1910 C   0  0  0  0  0  0  0  0  0  0  0  0
   -9.4820   21.5460  -31.9760 C   0  0  0  0  0  0  0  0  0  0  0  0
   -9.1290   22.9010  -31.9220 C   0  0  0  0  0  0  0  0  0  0  0  0
   -7.7890   23.2930  -32.0930 C   0  0  0  0  0  0  0  0  0  0  0  0
   -6.7880   22.3320  -32.3110 C   0  0  0  0  0  0  0  0  0  0  0  0
   -7.1410   20.9730  -32.3420 C   0  0  0  0  0  0  0  0  0  0  0  0
   -4.2160   18.9850  -33.5310 N   0  0  0  0  0  0  0  0  0  0  0  0
   -2.2224   15.3924  -33.1455 H   0  0  0  0  0  0  0  0  0  0  0  0
   -1.4357   14.2208  -34.2569 H   0  0  0  0  0  0  0  0  0  0  0  0
   -0.9227   15.9423  -34.2569 H   0  0  0  0  0  0  0  0  0  0  0  0
   -2.3867   15.3827  -36.2040 H   0  0  0  0  0  0  0  0  0  0  0  0
   -3.6969   14.9261  -35.0324 H   0  0  0  0  0  0  0  0  0  0  0  0
   -3.4750   17.2990  -36.1300 H   0  0  0  0  0  0  0  0  0  0  0  0
   -4.1780   17.0740  -34.6200 H   0  0  0  0  0  0  0  0  0  0  0  0
   -1.6159   17.3225  -33.9108 H   0  0  0  0  0  0  0  0  0  0  0  0
   -1.6914   18.3161  -35.4282 H   0  0  0  0  0  0  0  0  0  0  0  0
   -1.0512   20.1806  -33.6576 H   0  0  0  0  0  0  0  0  0  0  0  0
   -2.1471   22.0262  -32.3708 H   0  0  0  0  0  0  0  0  0  0  0  0
   -4.5914   21.9004  -31.8535 H   0  0  0  0  0  0  0  0  0  0  0  0
   -7.3635   16.9560  -34.6953 H   0  0  0  0  0  0  0  0  0  0  0  0
   -6.3342   14.7041  -35.0008 H   0  0  0  0  0  0  0  0  0  0  0  0
   -4.3244   15.0970  -31.1913 H   0  0  0  0  0  0  0  0  0  0  0  0
   -5.3018   17.3748  -30.9069 H   0  0  0  0  0  0  0  0  0  0  0  0
  -10.5284   21.2303  -31.8518 H   0  0  0  0  0  0  0  0  0  0  0  0
   -9.9035   23.6618  -31.7450 H   0  0  0  0  0  0  0  0  0  0  0  0
   -7.5231   24.3597  -32.0557 H   0  0  0  0  0  0  0  0  0  0  0  0
   -5.7418   22.6397  -32.4555 H   0  0  0  0  0  0  0  0  0  0  0  0
  1  2  1  0
  2  3  1  0
  3  4  1  0
  4  5  1  0
  5  6  2  0
  6  7  1  0
  7  8  2  0
  8  9  1  0
  9 10  1  0
 10 11  2  0
 11 12  1  0
 12 13  2  0
 13 14  1  0
 14 15  2  0
 15 16  1  0
 15 17  1  0
 17 18  2  0
 11 19  1  0
 19 20  1  0
 20 21  2  0
 21 22  1  0
 22 23  2  0
 23 24  1  0
 24 25  2  0
  9 26  2  0
 26  5  1  0
 25 10  1  0
 18 12  1  0
 25 20  1  0
  1 27  1  0
  1 28  1  0
  1 29  1  0
  2 30  1  0
  2 31  1  0
  3 32  1  0
  3 33  1  0
  4 34  1  0
  4 35  1  0
  6 36  1  0
  7 37  1  0
  8 38  1  0
 13 39  1  0
 14 40  1  0
 17 41  1  0
 18 42  1  0
 21 43  1  0
 22 44  1  0
 23 45  1  0
 24 46  1  0
M  CHG  1   3   1
M  END
>  <UniqueID>  (35) 
35

>  <SMILES>  (35) 
CC[NH2+]Cc1cccc(-c2c(-c3ccc(Br)cc3)sc3ccccc23)n1

>  <Energy>  (35) 
88.48973687154415

>  <Genealogy>  (35) 
CC[NH2+]Cc1cccc(-c2c(-c3ccc(Br)cc3)sc3ccccc23)n1 (protonated)
CC[NH2+]Cc1cccc(-c2c(-c3ccc(Br)cc3)sc3ccccc23)n1 (3D coordinates assigned)
CC[NH2+]Cc1cccc(-c2c(-c3ccc(Br)cc3)sc3ccccc23)n1 (optimized conformer: 88.48973687154415 kcal/mol)

>  <smiles>  (35) 
CCNCc1cccc(-c2c(-c3ccc(Br)cc3)sc3ccccc23)n1

>  <score_type>  (35) 
oracle

>  <origin>  (35) 
adg

>  <m_score__min__energy>  (35) 
-8.2300000000000004

>  <m_primary>  (35) 
energy

$$$$
35:0
     RDKit          3D

 34 33  0  0  0  0  0  0  0  0999 V2000
   -6.2190   16.7590  -33.1490 C   0  0  0  0  0  0  0  0  0  0  0  0
   -6.1130   17.4390  -34.5130 C   0  0  0  0  0  0  0  0  0  0  0  0
   -6.4620   18.8660  -34.4160 N   0  0  0  0  0  0  0  0  0  0  0  0
   -5.3750   19.6690  -33.8260 C   0  0  0  0  0  0  0  0  0  0  0  0
   -5.7790   20.3100  -32.4860 C   0  0  0  0  0  0  0  0  0  0  0  0
   -7.0420   21.1650  -32.6410 C   0  0  0  0  0  0  0  0  0  0  0  0
   -8.2500   20.3300  -32.4460 N   0  0  0  0  0  0  0  0  0  0  0  0
   -9.3940   21.1460  -31.9770 C   0  0  0  0  0  0  0  0  0  0  0  0
   -9.0080   22.6230  -31.9340 C   0  0  0  0  0  0  0  0  0  0  0  0
   -7.9830   19.2050  -31.5210 C   0  0  0  0  0  0  0  0  0  0  0  0
   -9.1080   18.1780  -31.5990 C   0  0  0  0  0  0  0  0  0  0  0  0
   -6.1018   17.5107  -32.3545 H   0  0  0  0  0  0  0  0  0  0  0  0
   -7.2032   16.2767  -33.0552 H   0  0  0  0  0  0  0  0  0  0  0  0
   -5.4283   16.0000  -33.0552 H   0  0  0  0  0  0  0  0  0  0  0  0
   -5.0816   17.3447  -34.8835 H   0  0  0  0  0  0  0  0  0  0  0  0
   -6.8153   16.9512  -35.2049 H   0  0  0  0  0  0  0  0  0  0  0  0
   -6.6420   19.2340  -35.3800 H   0  0  0  0  0  0  0  0  0  0  0  0
   -7.3380   18.9820  -33.8550 H   0  0  0  0  0  0  0  0  0  0  0  0
   -4.5055   19.0167  -33.6575 H   0  0  0  0  0  0  0  0  0  0  0  0
   -5.1393   20.4818  -34.5288 H   0  0  0  0  0  0  0  0  0  0  0  0
   -5.9717   19.5146  -31.7510 H   0  0  0  0  0  0  0  0  0  0  0  0
   -4.9576   20.9587  -32.1476 H   0  0  0  0  0  0  0  0  0  0  0  0
   -7.0309   21.9694  -31.8908 H   0  0  0  0  0  0  0  0  0  0  0  0
   -7.0624   21.5964  -33.6527 H   0  0  0  0  0  0  0  0  0  0  0  0
  -10.2417   21.0122  -32.6651 H   0  0  0  0  0  0  0  0  0  0  0  0
   -9.6757   20.8198  -30.9650 H   0  0  0  0  0  0  0  0  0  0  0  0
   -8.9227   22.9494  -30.8870 H   0  0  0  0  0  0  0  0  0  0  0  0
   -8.0427   22.7646  -32.4420 H   0  0  0  0  0  0  0  0  0  0  0  0
   -9.7806   23.2188  -32.4420 H   0  0  0  0  0  0  0  0  0  0  0  0
   -7.0331   18.7246  -31.7984 H   0  0  0  0  0  0  0  0  0  0  0  0
   -7.9228   19.5929  -30.4934 H   0  0  0  0  0  0  0  0  0  0  0  0
   -9.4176   17.8954  -30.5820 H   0  0  0  0  0  0  0  0  0  0  0  0
   -9.9644   18.6123  -32.1356 H   0  0  0  0  0  0  0  0  0  0  0  0
   -8.7533   17.2857  -32.1356 H   0  0  0  0  0  0  0  0  0  0  0  0
  1  2  1  0
  2  3  1  0
  3  4  1  0
  4  5  1  0
  5  6  1  0
  6  7  1  0
  7  8  1  0
  8  9  1  0
  7 10  1  0
 10 11  1  0
  1 12  1  0
  1 13  1  0
  1 14  1  0
  2 15  1  0
  2 16  1  0
  3 17  1  0
  3 18  1  0
  4 19  1  0
  4 20  1  0
  5 21  1  0
  5 22  1  0
  6 23  1  0
  6 24  1  0
  8 25  1  0
  8 26  1  0
  9 27  1  0
  9 28  1  0
  9 29  1  0
 10 30  1  0
 10 31  1  0
 11 32  1  0
 11 33  1  0
 11 34  1  0
M  CHG  1   3   1
M  END
>  <UniqueID>  (36) 
36

>  <SMILES>  (36) 
CC[NH2+]CCCN(CC)CC

>  <Energy>  (36) 
21.89020248761708

>  <Genealogy>  (36) 
CC[NH2+]CCCN(CC)CC (protonated)
CC[NH2+]CCCN(CC)CC (3D coordinates assigned)
CC[NH2+]CCCN(CC)CC (optimized conformer: 21.89020248761708 kcal/mol)

>  <smiles>  (36) 
CCNCCCN(CC)CC

>  <score_type>  (36) 
oracle

>  <origin>  (36) 
adg

>  <m_score__min__energy>  (36) 
-3.3199999999999998

>  <m_primary>  (36) 
energy

$$$$
