0:0
     RDKit          3D

 52 55  0  0  0  0  0  0  0  0999 V2000
   -7.4010   22.5990  -30.7080 C   0  0  0  0  0  0  0  0  0  0  0  0
   -6.1660   23.2280  -30.4370 O   0  0  0  0  0  0  0  0  0  0  0  0
   -6.0320   24.4140  -31.2010 C   0  0  0  0  0  0  0  0  0  0  0  0
   -5.3190   25.4890  -30.3830 C   0  0  0  0  0  0  0  0  0  0  0  0
   -3.8750   25.2870  -30.4680 N   0  0  0  0  0  0  0  0  0  0  0  0
   -3.1800   24.2280  -29.8030 C   0  0  0  0  0  0  0  0  0  0  0  0
   -3.0520   24.2820  -28.5520 O   0  0  0  0  0  0  0  0  0  0  0  0
   -2.6430   23.0640  -30.5420 C   0  0  0  0  0  0  0  0  0  0  0  0
   -3.3540   22.5020  -31.6180 C   0  0  0  0  0  0  0  0  0  0  0  0
   -2.8530   21.3850  -32.2910 C   0  0  0  0  0  0  0  0  0  0  0  0
   -1.6590   20.7870  -31.8800 C   0  0  0  0  0  0  0  0  0  0  0  0
   -1.1650   19.6530  -32.6000 N   0  0  0  0  0  0  0  0  0  0  0  0
   -1.9750   18.5760  -33.0860 C   0  0  0  0  0  0  0  0  0  0  0  0
   -1.7680   17.3930  -32.6960 O   0  0  0  0  0  0  0  0  0  0  0  0
   -3.1240   18.8680  -34.0030 C   0  0  0  0  0  0  0  0  0  0  0  0
   -4.2930   18.0420  -33.6660 N   0  0  0  0  0  0  0  0  0  0  0  0
   -5.5190   18.6500  -33.2070 C   0  0  0  0  0  0  0  0  0  0  0  0
   -5.9820   19.8560  -33.7600 C   0  0  0  0  0  0  0  0  0  0  0  0
   -7.2470   20.3490  -33.4200 C   0  0  0  0  0  0  0  0  0  0  0  0
   -8.0670   19.6310  -32.5440 C   0  0  0  0  0  0  0  0  0  0  0  0
   -7.6190   18.4280  -31.9920 C   0  0  0  0  0  0  0  0  0  0  0  0
   -6.3450   17.9430  -32.3140 C   0  0  0  0  0  0  0  0  0  0  0  0
   -5.7250   16.4480  -31.5350 S   0  0  0  0  0  0  0  0  0  0  0  0
   -5.0760   15.7860  -33.0740 C   0  0  0  0  0  0  0  0  0  0  0  0
   -5.2480   14.4310  -33.3820 C   0  0  0  0  0  0  0  0  0  0  0  0
   -4.6410   13.8960  -34.5220 C   0  0  0  0  0  0  0  0  0  0  0  0
   -3.8680   14.7100  -35.3550 C   0  0  0  0  0  0  0  0  0  0  0  0
   -3.7150   16.0690  -35.0620 C   0  0  0  0  0  0  0  0  0  0  0  0
   -4.3200   16.6180  -33.9190 C   0  0  0  0  0  0  0  0  0  0  0  0
   -0.9460   21.3410  -30.8030 C   0  0  0  0  0  0  0  0  0  0  0  0
   -1.4380   22.4660  -30.1370 C   0  0  0  0  0  0  0  0  0  0  0  0
   -7.8990   22.3454  -29.7605 H   0  0  0  0  0  0  0  0  0  0  0  0
   -8.0406   23.2812  -31.2873 H   0  0  0  0  0  0  0  0  0  0  0  0
   -7.2254   21.6805  -31.2873 H   0  0  0  0  0  0  0  0  0  0  0  0
   -5.4467   24.1986  -32.1071 H   0  0  0  0  0  0  0  0  0  0  0  0
   -7.0323   24.7778  -31.4785 H   0  0  0  0  0  0  0  0  0  0  0  0
   -5.5744   26.4822  -30.7808 H   0  0  0  0  0  0  0  0  0  0  0  0
   -5.6376   25.4221  -29.3323 H   0  0  0  0  0  0  0  0  0  0  0  0
   -4.3108   22.9450  -31.9315 H   0  0  0  0  0  0  0  0  0  0  0  0
   -3.4024   20.9734  -33.1505 H   0  0  0  0  0  0  0  0  0  0  0  0
   -3.3959   19.9299  -33.9114 H   0  0  0  0  0  0  0  0  0  0  0  0
   -2.8168   18.6352  -35.0333 H   0  0  0  0  0  0  0  0  0  0  0  0
   -5.3474   20.4151  -34.4633 H   0  0  0  0  0  0  0  0  0  0  0  0
   -7.5966   21.3026  -33.8425 H   0  0  0  0  0  0  0  0  0  0  0  0
   -9.0662   20.0138  -32.2890 H   0  0  0  0  0  0  0  0  0  0  0  0
   -8.2661   17.8625  -31.3054 H   0  0  0  0  0  0  0  0  0  0  0  0
   -5.8586   13.7898  -32.7293 H   0  0  0  0  0  0  0  0  0  0  0  0
   -4.7721   12.8311  -34.7643 H   0  0  0  0  0  0  0  0  0  0  0  0
   -3.3793   14.2811  -36.2423 H   0  0  0  0  0  0  0  0  0  0  0  0
   -3.1192   16.7099  -35.7285 H   0  0  0  0  0  0  0  0  0  0  0  0
    0.0034   20.8868  -30.4832 H   0  0  0  0  0  0  0  0  0  0  0  0
   -0.8777   22.8868  -29.2891 H   0  0  0  0  0  0  0  0  0  0  0  0
  1  2  1  0
  2  3  1  0
  3  4  1  0
  4  5  1  0
  5  6  1  0
  6  7  2  0
  6  8  1  0
  8  9  2  0
  9 10  1  0
 10 11  2  0
 11 12  1  0
 12 13  1  0
 13 14  2  0
 13 15  1  0
 15 16  1  0
 16 17  1  0
 17 18  2  0
 18 19  1  0
 19 20  2  0
 20 21  1  0
 21 22  2  0
 22 23  1  0
 23 24  1  0
 24 25  2  0
 25 26  1  0
 26 27  2  0
 27 28  1  0
 28 29  2  0
 11 30  1  0
 30 31  2  0
 31  8  1  0
 29 16  1  0
 22 17  1  0
 29 24  1  0
  1 32  1  0
  1 33  1  0
  1 34  1  0
  3 35  1  0
  3 36  1  0
  4 37  1  0
  4 38  1  0
  9 39  1  0
 10 40  1  0
 15 41  1  0
 15 42  1  0
 18 43  1  0
 19 44  1  0
 20 45  1  0
 21 46  1  0
 25 47  1  0
 26 48  1  0
 27 49  1  0
 28 50  1  0
 30 51  1  0
 31 52  1  0
M  CHG  2   5  -1  12  -1
M  END
>  <UniqueID>  (1) 
1

>  <SMILES>  (1) 
COCC[N-]C(=O)c1ccc([N-]C(=O)CN2c3ccccc3Sc3ccccc32)cc1

>  <Energy>  (1) 
81.68452966936817

>  <Genealogy>  (1) 
COCC[N-]C(=O)c1ccc([N-]C(=O)CN2c3ccccc3Sc3ccccc32)cc1 (protonated)
COCC[N-]C(=O)c1ccc([N-]C(=O)CN2c3ccccc3Sc3ccccc32)cc1 (3D coordinates assigned)
COCC[N-]C(=O)c1ccc([N-]C(=O)CN2c3ccccc3Sc3ccccc32)cc1 (nonaromatic ring conformer: 81.68452966936817 kcal/mol)

>  <smiles>  (1) 
COCCNC(=O)c1ccc(NC(=O)CN2c3ccccc3Sc3ccccc32)cc1

>  <score_type>  (1) 
oracle

>  <origin>  (1) 
adg

>  <m_score__min__energy>  (1) 
-10.82

>  <m_primary>  (1) 
energy

$$$$
1:0
     RDKit          3D

 29 30  0  0  0  0  0  0  0  0999 V2000
   -8.9282   21.4217  -29.7918 H   0  0  0  0  0  0  0  0  0  0  0  0
   -8.8130   21.4630  -30.8850 C   0  0  0  0  0  0  0  0  0  0  0  0
   -8.3650   22.7300  -31.5030 C   0  0  0  0  0  0  0  0  0  0  0  0
   -9.1210   23.2720  -32.3540 O   0  0  0  0  0  0  0  0  0  0  0  0
   -7.0860   23.3930  -31.1540 C   0  0  0  0  0  0  0  0  0  0  0  0
   -7.0720   24.6110  -30.4510 C   0  0  0  0  0  0  0  0  0  0  0  0
   -8.0201   25.0735  -30.1391 H   0  0  0  0  0  0  0  0  0  0  0  0
   -5.8620   25.2360  -30.1470 C   0  0  0  0  0  0  0  0  0  0  0  0
   -5.8600   26.1828  -29.5870 H   0  0  0  0  0  0  0  0  0  0  0  0
   -4.6530   24.6640  -30.5510 C   0  0  0  0  0  0  0  0  0  0  0  0
   -3.4560   25.2990  -30.2400 O   0  0  0  0  0  0  0  0  0  0  0  0
   -4.6440   23.4610  -31.2690 C   0  0  0  0  0  0  0  0  0  0  0  0
   -3.4070   22.9230  -31.6600 O   0  0  0  0  0  0  0  0  0  0  0  0
   -3.2470   21.6920  -32.3560 C   0  0  0  0  0  0  0  0  0  0  0  0
   -3.1404   20.8719  -31.6307 H   0  0  0  0  0  0  0  0  0  0  0  0
   -4.1291   21.5106  -32.9876 H   0  0  0  0  0  0  0  0  0  0  0  0
   -2.3478   21.7421  -32.9876 H   0  0  0  0  0  0  0  0  0  0  0  0
   -5.8670   22.8310  -31.5740 C   0  0  0  0  0  0  0  0  0  0  0  0
   -5.8683   21.8912  -32.1457 H   0  0  0  0  0  0  0  0  0  0  0  0
   -9.0840   20.3650  -31.6000 C   0  0  0  0  0  0  0  0  0  0  0  0
  -10.1331   20.0557  -31.7169 H   0  0  0  0  0  0  0  0  0  0  0  0
   -8.0310   19.5540  -32.2370 C   0  0  0  0  0  0  0  0  0  0  0  0
   -6.8940   20.0770  -33.3660 S   0  0  0  0  0  0  0  0  0  0  0  0
   -6.1280   18.5930  -33.5590 C   0  0  0  0  0  0  0  0  0  0  0  0
   -5.2741   18.3899  -34.2221 H   0  0  0  0  0  0  0  0  0  0  0  0
   -6.7580   17.6680  -32.7380 C   0  0  0  0  0  0  0  0  0  0  0  0
   -6.4507   16.6138  -32.6733 H   0  0  0  0  0  0  0  0  0  0  0  0
   -7.8210   18.2020  -32.0000 C   0  0  0  0  0  0  0  0  0  0  0  0
   -8.4297   17.6092  -31.3014 H   0  0  0  0  0  0  0  0  0  0  0  0
  1  2  1  0
  2  3  1  0
  3  4  2  0
  3  5  1  0
  5  6  2  0
  6  7  1  0
  6  8  1  0
  8  9  1  0
  8 10  2  0
 10 11  1  0
 10 12  1  0
 12 13  1  0
 13 14  1  0
 14 15  1  0
 14 16  1  0
 14 17  1  0
 12 18  2  0
 18 19  1  0
  2 20  2  0
 20 21  1  0
 20 22  1  0
 22 23  1  0
 23 24  1  0
 24 25  1  0
 24 26  2  0
 26 27  1  0
 26 28  1  0
 28 29  1  0
 18  5  1  0
 28 22  2  0
M  CHG  1  11  -1
M  END
>  <UniqueID>  (2) 
2

>  <SMILES>  (2) 
COc1cc(C(=O)/C=C/c2cccs2)ccc1[O-]

>  <Energy>  (2) 
59.11370152001878

>  <Genealogy>  (2) 
COc1cc(C(=O)C=Cc2cccs2)ccc1[O-] (protonated)
COc1cc(C(=O)/C=C/c2cccs2)ccc1[O-] (cis-trans isomerization)
COc1cc(C(=O)/C=C/c2cccs2)ccc1[O-] (3D coordinates assigned)
COc1cc(C(=O)/C=C/c2cccs2)ccc1[O-] (optimized conformer: 59.11370152001878 kcal/mol)

>  <smiles>  (2) 
COc1cc(C(=O)C=Cc2cccs2)ccc1O

>  <score_type>  (2) 
oracle

>  <origin>  (2) 
adg

>  <m_score__min__energy>  (2) 
-10.73

>  <m_primary>  (2) 
energy

$$$$
2:0
     RDKit          3D

 58 59  0  0  0  0  0  0  0  0999 V2000
   -9.2460   21.9370  -31.5850 C   0  0  0  0  0  0  0  0  0  0  0  0
   -8.2990   20.7700  -31.8200 C   0  0  0  0  0  0  0  0  0  0  0  0
   -7.2810   21.1640  -32.7370 O   0  0  0  0  0  0  0  0  0  0  0  0
   -5.9580   21.4720  -32.3860 C   0  0  0  0  0  0  0  0  0  0  0  0
   -5.6610   22.4600  -31.4300 C   0  0  0  0  0  0  0  0  0  0  0  0
   -4.3330   22.8060  -31.1420 C   0  0  0  0  0  0  0  0  0  0  0  0
   -4.0440   23.8570  -30.1380 C   0  0  0  0  0  0  0  0  0  0  0  0
   -4.0470   25.0680  -30.4910 O   0  0  0  0  0  0  0  0  0  0  0  0
   -3.7450   23.5180  -28.7770 N   0  0  0  0  0  0  0  0  0  0  0  0
   -3.6060   24.5500  -27.7490 C   0  0  0  0  0  0  0  0  0  0  0  0
   -2.1640   24.6490  -27.2370 C   0  0  0  0  0  0  0  0  0  0  0  0
   -1.2050   24.9720  -28.3540 C   0  0  0  0  0  0  0  0  0  0  0  0
   -1.6100   25.6720  -29.3200 O   0  0  0  0  0  0  0  0  0  0  0  0
    0.1520   24.5000  -28.3700 N   0  0  0  0  0  0  0  0  0  0  0  0
    0.6210   23.1960  -27.9050 C   0  0  0  0  0  0  0  0  0  0  0  0
   -0.4940   22.1850  -27.9170 C   0  0  0  0  0  0  0  0  0  0  0  0
   -0.8810   21.5400  -26.7330 C   0  0  0  0  0  0  0  0  0  0  0  0
   -1.9080   20.5950  -26.7570 C   0  0  0  0  0  0  0  0  0  0  0  0
   -2.5460   20.3090  -27.9640 C   0  0  0  0  0  0  0  0  0  0  0  0
   -2.1700   20.9510  -29.1040 N   0  0  0  0  0  0  0  0  0  0  0  0
   -1.1730   21.8750  -29.1060 C   0  0  0  0  0  0  0  0  0  0  0  0
   -3.2920   22.1380  -31.8050 C   0  0  0  0  0  0  0  0  0  0  0  0
   -3.5710   21.1350  -32.7500 C   0  0  0  0  0  0  0  0  0  0  0  0
   -2.5570   20.4390  -33.4330 O   0  0  0  0  0  0  0  0  0  0  0  0
   -1.1620   20.4920  -33.1390 C   0  0  0  0  0  0  0  0  0  0  0  0
   -0.4030   21.2100  -34.2490 C   0  0  0  0  0  0  0  0  0  0  0  0
   -4.9020   20.7960  -33.0310 C   0  0  0  0  0  0  0  0  0  0  0  0
   -5.1370   19.7860  -33.9780 O   0  0  0  0  0  0  0  0  0  0  0  0
   -5.2360   18.3950  -33.6710 C   0  0  0  0  0  0  0  0  0  0  0  0
   -6.6340   18.0510  -33.1680 C   0  0  0  0  0  0  0  0  0  0  0  0
   -9.3733   22.0939  -30.5037 H   0  0  0  0  0  0  0  0  0  0  0  0
   -8.8273   22.8464  -32.0407 H   0  0  0  0  0  0  0  0  0  0  0  0
  -10.2222   21.7146  -32.0407 H   0  0  0  0  0  0  0  0  0  0  0  0
   -7.8388   20.4729  -30.8661 H   0  0  0  0  0  0  0  0  0  0  0  0
   -8.8595   19.9198  -32.2360 H   0  0  0  0  0  0  0  0  0  0  0  0
   -6.4812   22.9679  -30.9014 H   0  0  0  0  0  0  0  0  0  0  0  0
   -3.5770   22.5160  -28.5260 H   0  0  0  0  0  0  0  0  0  0  0  0
   -3.9003   25.5202  -28.1756 H   0  0  0  0  0  0  0  0  0  0  0  0
   -4.2532   24.2797  -26.9016 H   0  0  0  0  0  0  0  0  0  0  0  0
   -2.1078   25.4418  -26.4765 H   0  0  0  0  0  0  0  0  0  0  0  0
   -1.8812   23.6763  -26.8083 H   0  0  0  0  0  0  0  0  0  0  0  0
    1.4289   22.8481  -28.5654 H   0  0  0  0  0  0  0  0  0  0  0  0
    0.9855   23.3029  -26.8727 H   0  0  0  0  0  0  0  0  0  0  0  0
   -0.3752   21.7789  -25.7858 H   0  0  0  0  0  0  0  0  0  0  0  0
   -2.2113   20.0808  -25.8331 H   0  0  0  0  0  0  0  0  0  0  0  0
   -3.3543   19.5635  -27.9947 H   0  0  0  0  0  0  0  0  0  0  0  0
   -0.8972   22.3816  -30.0426 H   0  0  0  0  0  0  0  0  0  0  0  0
   -2.2474   22.4017  -31.5831 H   0  0  0  0  0  0  0  0  0  0  0  0
   -1.0130   21.0319  -32.1923 H   0  0  0  0  0  0  0  0  0  0  0  0
   -0.7791   19.4641  -33.0572 H   0  0  0  0  0  0  0  0  0  0  0  0
    0.3282   21.9017  -33.8052 H   0  0  0  0  0  0  0  0  0  0  0  0
    0.1225   20.4708  -34.8714 H   0  0  0  0  0  0  0  0  0  0  0  0
   -1.1120   21.7757  -34.8714 H   0  0  0  0  0  0  0  0  0  0  0  0
   -5.0245   17.8094  -34.5778 H   0  0  0  0  0  0  0  0  0  0  0  0
   -4.5078   18.1547  -32.8823 H   0  0  0  0  0  0  0  0  0  0  0  0
   -6.6380   18.0500  -32.0680 H   0  0  0  0  0  0  0  0  0  0  0  0
   -7.3508   18.7996  -33.5366 H   0  0  0  0  0  0  0  0  0  0  0  0
   -6.9216   17.0553  -33.5366 H   0  0  0  0  0  0  0  0  0  0  0  0
  1  2  1  0
  2  3  1  0
  3  4  1  0
  4  5  2  0
  5  6  1  0
  6  7  1  0
  7  8  2  0
  7  9  1  0
  9 10  1  0
 10 11  1  0
 11 12  1  0
 12 13  2  0
 12 14  1  0
 14 15  1  0
 15 16  1  0
 16 17  2  0
 17 18  1  0
 18 19  2  0
 19 20  1  0
 20 21  2  0
  6 22  2  0
 22 23  1  0
 23 24  1  0
 24 25  1  0
 25 26  1  0
 23 27  2  0
 27 28  1  0
 28 29  1  0
 29 30  1  0
 27  4  1  0
 21 16  1  0
  1 31  1  0
  1 32  1  0
  1 33  1  0
  2 34  1  0
  2 35  1  0
  5 36  1  0
  9 37  1  0
 10 38  1  0
 10 39  1  0
 11 40  1  0
 11 41  1  0
 15 42  1  0
 15 43  1  0
 17 44  1  0
 18 45  1  0
 19 46  1  0
 21 47  1  0
 22 48  1  0
 25 49  1  0
 25 50  1  0
 26 51  1  0
 26 52  1  0
 26 53  1  0
 29 54  1  0
 29 55  1  0
 30 56  1  0
 30 57  1  0
 30 58  1  0
M  CHG  1  14  -1
M  END
>  <UniqueID>  (3) 
3

>  <SMILES>  (3) 
CCOc1cc(C(=O)NCCC(=O)[N-]Cc2cccnc2)cc(OCC)c1OCC

>  <Energy>  (3) 
50.666475828324415

>  <Genealogy>  (3) 
CCOc1cc(C(=O)NCCC(=O)[N-]Cc2cccnc2)cc(OCC)c1OCC (protonated)
CCOc1cc(C(=O)NCCC(=O)[N-]Cc2cccnc2)cc(OCC)c1OCC (3D coordinates assigned)
CCOc1cc(C(=O)NCCC(=O)[N-]Cc2cccnc2)cc(OCC)c1OCC (optimized conformer: 50.666475828324415 kcal/mol)

>  <smiles>  (3) 
CCOc1cc(C(=O)NCCC(=O)NCc2cccnc2)cc(OCC)c1OCC

>  <score_type>  (3) 
oracle

>  <origin>  (3) 
adg

>  <m_score__min__energy>  (3) 
-9.3200000000000003

>  <m_primary>  (3) 
energy

$$$$
3:0
     RDKit          3D

 38 41  0  0  0  0  0  0  0  0999 V2000
   -1.1220   25.3820  -28.3460 C   0  0  0  0  0  0  0  0  0  0  0  0
   -2.0960   25.2990  -29.3430 O   0  0  0  0  0  0  0  0  0  0  0  0
   -3.2140   24.4950  -29.3350 C   0  0  0  0  0  0  0  0  0  0  0  0
   -3.4460   23.5000  -28.4070 C   0  0  0  0  0  0  0  0  0  0  0  0
   -4.5970   22.7180  -28.4480 C   0  0  0  0  0  0  0  0  0  0  0  0
   -5.5140   22.9600  -29.4490 C   0  0  0  0  0  0  0  0  0  0  0  0
   -5.3080   23.9590  -30.4020 C   0  0  0  0  0  0  0  0  0  0  0  0
   -6.3500   24.1310  -31.4240 C   0  0  0  0  0  0  0  0  0  0  0  0
   -7.0320   22.9330  -31.8060 N   0  0  0  0  0  0  0  0  0  0  0  0
   -8.3710   22.8860  -31.6260 C   0  0  0  0  0  0  0  0  0  0  0  0
   -9.1030   21.7950  -31.9580 N   0  0  0  0  0  0  0  0  0  0  0  0
   -8.5040   20.6940  -32.4920 C   0  0  0  0  0  0  0  0  0  0  0  0
   -9.1940   19.6380  -32.8150 N   0  0  0  0  0  0  0  0  0  0  0  0
   -7.1310   20.7050  -32.6910 C   0  0  0  0  0  0  0  0  0  0  0  0
   -6.2460   19.7650  -33.2030 C   0  0  0  0  0  0  0  0  0  0  0  0
   -6.4040   18.4810  -33.6980 C   0  0  0  0  0  0  0  0  0  0  0  0
   -5.3090   17.8270  -34.1250 N   0  0  0  0  0  0  0  0  0  0  0  0
   -4.0840   18.3770  -34.0860 C   0  0  0  0  0  0  0  0  0  0  0  0
   -3.9070   19.6550  -33.5950 C   0  0  0  0  0  0  0  0  0  0  0  0
   -5.0080   20.3680  -33.1440 C   0  0  0  0  0  0  0  0  0  0  0  0
   -5.1490   21.6070  -32.6220 N   0  0  0  0  0  0  0  0  0  0  0  0
   -6.4420   21.8460  -32.3330 C   0  0  0  0  0  0  0  0  0  0  0  0
   -4.1550   24.7130  -30.3270 C   0  0  0  0  0  0  0  0  0  0  0  0
   -1.6041   25.3409  -27.3581 H   0  0  0  0  0  0  0  0  0  0  0  0
   -0.4210   24.5403  -28.4472 H   0  0  0  0  0  0  0  0  0  0  0  0
   -0.5736   26.3301  -28.4472 H   0  0  0  0  0  0  0  0  0  0  0  0
   -2.7033   23.3205  -27.6157 H   0  0  0  0  0  0  0  0  0  0  0  0
   -4.7703   21.9284  -27.7020 H   0  0  0  0  0  0  0  0  0  0  0  0
   -6.4292   22.3517  -29.4977 H   0  0  0  0  0  0  0  0  0  0  0  0
   -7.0967   24.8378  -31.0331 H   0  0  0  0  0  0  0  0  0  0  0  0
   -5.8353   24.4905  -32.3272 H   0  0  0  0  0  0  0  0  0  0  0  0
   -8.8821   23.7604  -31.1968 H   0  0  0  0  0  0  0  0  0  0  0  0
   -9.2650   19.4020  -33.8310 H   0  0  0  0  0  0  0  0  0  0  0  0
   -7.3969   18.0095  -33.7407 H   0  0  0  0  0  0  0  0  0  0  0  0
   -3.2165   17.8054  -34.4476 H   0  0  0  0  0  0  0  0  0  0  0  0
   -2.9031   20.1033  -33.5618 H   0  0  0  0  0  0  0  0  0  0  0  0
   -4.3480   22.2580  -32.4790 H   0  0  0  0  0  0  0  0  0  0  0  0
   -3.9796   25.5040  -31.0710 H   0  0  0  0  0  0  0  0  0  0  0  0
  1  2  1  0
  2  3  1  0
  3  4  2  0
  4  5  1  0
  5  6  2  0
  6  7  1  0
  7  8  1  0
  8  9  1  0
  9 10  1  0
 10 11  2  0
 11 12  1  0
 12 13  2  3
 12 14  1  0
 14 15  1  0
 15 16  2  0
 16 17  1  0
 17 18  2  0
 18 19  1  0
 19 20  2  0
 20 21  1  0
 21 22  1  0
  7 23  2  0
 23  3  1  0
 22  9  1  0
 22 14  2  0
 20 15  1  0
  1 24  1  0
  1 25  1  0
  1 26  1  0
  4 27  1  0
  5 28  1  0
  6 29  1  0
  8 30  1  0
  8 31  1  0
 10 32  1  0
 13 33  1  0
 16 34  1  0
 18 35  1  0
 19 36  1  0
 21 37  1  0
 23 38  1  0
M  END
>  <smiles>  (4) 
COc1cccc(Cn2cnc(=N)c3c4cnccc4[nH]c32)c1

>  <score_type>  (4) 
oracle

>  <origin>  (4) 
adg

>  <m_score__min__energy>  (4) 
-8.5299999999999994

>  <m_primary>  (4) 
energy

$$$$
4:0
     RDKit          3D

 57 61  0  0  0  0  0  0  0  0999 V2000
   -1.8458   22.1156  -28.7797 H   0  0  0  0  0  0  0  0  0  0  0  0
   -1.6660   21.5790  -29.7230 C   0  0  0  0  0  0  0  0  0  0  0  0
   -1.9830   22.1650  -30.9080 N   0  0  0  0  0  0  0  0  0  0  0  0
   -1.7790   21.5320  -32.0960 C   0  0  0  0  0  0  0  0  0  0  0  0
   -2.0467   22.0329  -33.0380 H   0  0  0  0  0  0  0  0  0  0  0  0
   -1.2280   20.2420  -32.1210 C   0  0  0  0  0  0  0  0  0  0  0  0
   -0.9720   19.5350  -33.4250 C   0  0  0  0  0  0  0  0  0  0  0  0
   -0.6759   18.4954  -33.2213 H   0  0  0  0  0  0  0  0  0  0  0  0
   -0.1682   20.0592  -33.9626 H   0  0  0  0  0  0  0  0  0  0  0  0
   -2.1760   19.5390  -34.2530 N   0  0  0  0  0  0  0  0  0  0  0  0
   -3.1120   18.6320  -34.2190 C   0  0  0  0  0  0  0  0  0  0  0  0
   -2.8880   17.4010  -34.7540 N   0  0  0  0  0  0  0  0  0  0  0  0
   -3.8250   16.4200  -34.7430 C   0  0  0  0  0  0  0  0  0  0  0  0
   -3.5964   15.4406  -35.1885 H   0  0  0  0  0  0  0  0  0  0  0  0
   -5.0770   16.6460  -34.1700 C   0  0  0  0  0  0  0  0  0  0  0  0
   -6.2470   15.3280  -34.1880 Cl  0  0  0  0  0  0  0  0  0  0  0  0
   -5.3580   17.9060  -33.6020 C   0  0  0  0  0  0  0  0  0  0  0  0
   -6.6020   18.1820  -33.0080 C   0  0  0  0  0  0  0  0  0  0  0  0
   -7.3811   17.4057  -32.9898 H   0  0  0  0  0  0  0  0  0  0  0  0
   -6.8580   19.4320  -32.4410 C   0  0  0  0  0  0  0  0  0  0  0  0
   -7.8362   19.6298  -31.9785 H   0  0  0  0  0  0  0  0  0  0  0  0
   -5.8810   20.4380  -32.4550 C   0  0  0  0  0  0  0  0  0  0  0  0
   -6.1540   21.7600  -31.8340 C   0  0  0  0  0  0  0  0  0  0  0  0
   -7.4730   22.2270  -31.6960 C   0  0  0  0  0  0  0  0  0  0  0  0
   -8.3120   21.6064  -32.0438 H   0  0  0  0  0  0  0  0  0  0  0  0
   -7.7240   23.4740  -31.1200 C   0  0  0  0  0  0  0  0  0  0  0  0
   -8.7589   23.8340  -31.0227 H   0  0  0  0  0  0  0  0  0  0  0  0
   -6.6670   24.2660  -30.6670 C   0  0  0  0  0  0  0  0  0  0  0  0
   -6.8727   25.2506  -30.2217 H   0  0  0  0  0  0  0  0  0  0  0  0
   -5.3430   23.8120  -30.7770 C   0  0  0  0  0  0  0  0  0  0  0  0
   -4.2250   24.6590  -30.3010 C   0  0  0  0  0  0  0  0  0  0  0  0
   -3.8670   25.6470  -30.9980 O   0  0  0  0  0  0  0  0  0  0  0  0
   -3.5320   24.3770  -29.0700 N   0  0  0  0  0  0  0  0  0  0  0  0
   -2.1000   24.6910  -28.9700 C   0  0  0  0  0  0  0  0  0  0  0  0
   -1.5791   24.2702  -29.8427 H   0  0  0  0  0  0  0  0  0  0  0  0
   -1.9858   25.7846  -28.9386 H   0  0  0  0  0  0  0  0  0  0  0  0
   -1.4890   24.1040  -27.6930 C   0  0  0  0  0  0  0  0  0  0  0  0
   -1.5115   23.0063  -27.7598 H   0  0  0  0  0  0  0  0  0  0  0  0
   -0.4568   24.4743  -27.6068 H   0  0  0  0  0  0  0  0  0  0  0  0
   -2.2600   24.5420  -26.4360 C   0  0  0  0  0  0  0  0  0  0  0  0
   -2.0583   23.8155  -25.6351 H   0  0  0  0  0  0  0  0  0  0  0  0
   -1.9122   25.5548  -26.1844 H   0  0  0  0  0  0  0  0  0  0  0  0
   -3.7870   24.6300  -26.6390 C   0  0  0  0  0  0  0  0  0  0  0  0
   -4.2846   24.1938  -25.7603 H   0  0  0  0  0  0  0  0  0  0  0  0
   -4.0448   25.6917  -26.7669 H   0  0  0  0  0  0  0  0  0  0  0  0
   -4.2600   23.8850  -27.8900 C   0  0  0  0  0  0  0  0  0  0  0  0
   -4.0705   22.8084  -27.7671 H   0  0  0  0  0  0  0  0  0  0  0  0
   -5.3371   24.0590  -28.0300 H   0  0  0  0  0  0  0  0  0  0  0  0
   -5.0930   22.5650  -31.3750 C   0  0  0  0  0  0  0  0  0  0  0  0
   -4.0566   22.2134  -31.4859 H   0  0  0  0  0  0  0  0  0  0  0  0
   -4.6390   20.1750  -33.0540 C   0  0  0  0  0  0  0  0  0  0  0  0
   -3.8707   20.9619  -33.0769 H   0  0  0  0  0  0  0  0  0  0  0  0
   -4.3620   18.9160  -33.6270 C   0  0  0  0  0  0  0  0  0  0  0  0
   -0.8920   19.6280  -30.9060 C   0  0  0  0  0  0  0  0  0  0  0  0
   -0.4544   18.6188  -30.9021 H   0  0  0  0  0  0  0  0  0  0  0  0
   -1.1130   20.2980  -29.7010 C   0  0  0  0  0  0  0  0  0  0  0  0
   -0.8539   19.8210  -28.7443 H   0  0  0  0  0  0  0  0  0  0  0  0
  1  2  1  0
  2  3  2  0
  3  4  1  0
  4  5  1  0
  4  6  2  0
  6  7  1  0
  7  8  1  0
  7  9  1  0
  7 10  1  0
 10 11  2  0
 11 12  1  0
 12 13  1  0
 13 14  1  0
 13 15  2  0
 15 16  1  0
 15 17  1  0
 17 18  2  0
 18 19  1  0
 18 20  1  0
 20 21  1  0
 20 22  2  0
 22 23  1  0
 23 24  2  0
 24 25  1  0
 24 26  1  0
 26 27  1  0
 26 28  2  0
 28 29  1  0
 28 30  1  0
 30 31  1  0
 31 32  2  0
 31 33  1  0
 33 34  1  0
 34 35  1  0
 34 36  1  0
 34 37  1  0
 37 38  1  0
 37 39  1  0
 37 40  1  0
 40 41  1  0
 40 42  1  0
 40 43  1  0
 43 44  1  0
 43 45  1  0
 43 46  1  0
 46 47  1  0
 46 48  1  0
 30 49  2  0
 49 50  1  0
 22 51  1  0
 51 52  1  0
 51 53  2  0
  6 54  1  0
 54 55  1  0
 54 56  2  0
 56 57  1  0
 56  2  1  0
 53 11  1  0
 53 17  1  0
 49 23  1  0
 46 33  1  0
M  CHG  1  12  -1
M  END
>  <UniqueID>  (5) 
4

>  <SMILES>  (5) 
O=C(c1cccc(-c2ccc3c(Cl)c[n-]/c(=N\Cc4cccnc4)c3c2)c1)N1CCCCC1

>  <Energy>  (5) 
79.79090177384278

>  <Genealogy>  (5) 
O=C(c1cccc(-c2ccc3c(Cl)c[n-]c(=NCc4cccnc4)c3c2)c1)N1CCCCC1 (protonated)
O=C(c1cccc(-c2ccc3c(Cl)c[n-]/c(=N\Cc4cccnc4)c3c2)c1)N1CCCCC1 (cis-trans isomerization)
O=C(c1cccc(-c2ccc3c(Cl)c[n-]/c(=N\Cc4cccnc4)c3c2)c1)N1CCCCC1 (3D coordinates assigned)
O=C(c1cccc(-c2ccc3c(Cl)c[n-]/c(=N\Cc4cccnc4)c3c2)c1)N1CCCCC1 (nonaromatic ring conformer: 79.79090177384278 kcal/mol)

>  <smiles>  (5) 
O=C(c1cccc(-c2ccc3c(Cl)c[nH]c(=NCc4cccnc4)c3c2)c1)N1CCCCC1

>  <score_type>  (5) 
oracle

>  <origin>  (5) 
adg

>  <m_score__min__energy>  (5) 
-11.98

>  <m_primary>  (5) 
energy

$$$$
5:0
     RDKit          3D

 46 48  0  0  0  0  0  0  0  0999 V2000
   -5.3550   26.7700  -31.5920 H   0  0  0  0  0  0  0  0  0  0  0  0
   -5.4600   26.0720  -30.8200 N   0  0  0  0  0  0  0  0  0  0  0  0
   -4.6070   25.1150  -30.6560 C   0  0  0  0  0  0  0  0  0  0  0  0
   -4.8070   23.9210  -31.2680 N   0  0  0  0  0  0  0  0  0  0  0  0
   -3.9160   22.9110  -31.0990 C   0  0  0  0  0  0  0  0  0  0  0  0
   -4.1180   21.6020  -31.8100 C   0  0  0  0  0  0  0  0  0  0  0  0
   -3.2640   21.4262  -32.4806 H   0  0  0  0  0  0  0  0  0  0  0  0
   -4.1957   20.8102  -31.0504 H   0  0  0  0  0  0  0  0  0  0  0  0
   -5.3660   21.5940  -32.6110 N   0  0  0  0  0  0  0  0  0  0  0  0
   -5.3390   22.4310  -33.2430 H   0  0  0  0  0  0  0  0  0  0  0  0
   -6.5580   21.7550  -31.7300 C   0  0  0  0  0  0  0  0  0  0  0  0
   -6.2387   22.2123  -30.7819 H   0  0  0  0  0  0  0  0  0  0  0  0
   -7.2840   22.3918  -32.2567 H   0  0  0  0  0  0  0  0  0  0  0  0
   -7.2400   20.4130  -31.4270 C   0  0  0  0  0  0  0  0  0  0  0  0
   -6.5132   19.7411  -30.9471 H   0  0  0  0  0  0  0  0  0  0  0  0
   -8.0947   20.5987  -30.7599 H   0  0  0  0  0  0  0  0  0  0  0  0
   -7.7410   19.7770  -32.6660 N   0  0  0  0  0  0  0  0  0  0  0  0
   -7.9320   18.3330  -32.4580 C   0  0  0  0  0  0  0  0  0  0  0  0
   -7.9604   18.1185  -31.3795 H   0  0  0  0  0  0  0  0  0  0  0  0
   -8.8796   18.0182  -32.9195 H   0  0  0  0  0  0  0  0  0  0  0  0
   -7.0988   17.7827  -32.9195 H   0  0  0  0  0  0  0  0  0  0  0  0
   -6.8930   20.0450  -33.8550 C   0  0  0  0  0  0  0  0  0  0  0  0
   -6.8912   19.1521  -34.4974 H   0  0  0  0  0  0  0  0  0  0  0  0
   -7.3133   20.9152  -34.3805 H   0  0  0  0  0  0  0  0  0  0  0  0
   -5.4430   20.3810  -33.4700 C   0  0  0  0  0  0  0  0  0  0  0  0
   -5.0135   19.5291  -32.9224 H   0  0  0  0  0  0  0  0  0  0  0  0
   -4.8813   20.5806  -34.3945 H   0  0  0  0  0  0  0  0  0  0  0  0
   -2.8190   23.1010  -30.3220 N   0  0  0  0  0  0  0  0  0  0  0  0
   -2.6170   24.2900  -29.6980 C   0  0  0  0  0  0  0  0  0  0  0  0
   -1.5470   24.4540  -28.9760 N   0  0  0  0  0  0  0  0  0  0  0  0
   -1.2210   23.7790  -27.7480 C   0  0  0  0  0  0  0  0  0  0  0  0
   -0.6050   24.5090  -26.7250 C   0  0  0  0  0  0  0  0  0  0  0  0
   -0.3995   25.5805  -26.8655 H   0  0  0  0  0  0  0  0  0  0  0  0
   -0.2500   23.8860  -25.5280 C   0  0  0  0  0  0  0  0  0  0  0  0
    0.2200   24.4707  -24.7235 H   0  0  0  0  0  0  0  0  0  0  0  0
   -0.4900   22.5220  -25.3490 C   0  0  0  0  0  0  0  0  0  0  0  0
   -0.2180   22.0399  -24.3984 H   0  0  0  0  0  0  0  0  0  0  0  0
   -1.0740   21.7640  -26.3700 C   0  0  0  0  0  0  0  0  0  0  0  0
   -1.2800   20.3950  -26.1480 O   0  0  0  0  0  0  0  0  0  0  0  0
   -2.3380   19.6360  -26.7250 C   0  0  0  0  0  0  0  0  0  0  0  0
   -2.9518   19.1957  -25.9254 H   0  0  0  0  0  0  0  0  0  0  0  0
   -2.9632   20.2928  -27.3476 H   0  0  0  0  0  0  0  0  0  0  0  0
   -1.9162   18.8333  -27.3476 H   0  0  0  0  0  0  0  0  0  0  0  0
   -1.4300   22.3970  -27.5780 C   0  0  0  0  0  0  0  0  0  0  0  0
   -1.8741   21.8073  -28.3935 H   0  0  0  0  0  0  0  0  0  0  0  0
   -3.5120   25.2980  -29.8760 N   0  0  0  0  0  0  0  0  0  0  0  0
  1  2  1  0
  2  3  2  0
  3  4  1  0
  4  5  2  0
  5  6  1  0
  6  7  1  0
  6  8  1  0
  6  9  1  0
  9 10  1  0
  9 11  1  0
 11 12  1  0
 11 13  1  0
 11 14  1  0
 14 15  1  0
 14 16  1  0
 14 17  1  0
 17 18  1  0
 18 19  1  0
 18 20  1  0
 18 21  1  0
 17 22  1  0
 22 23  1  0
 22 24  1  0
 22 25  1  0
 25 26  1  0
 25 27  1  0
  5 28  1  0
 28 29  1  0
 29 30  2  0
 30 31  1  0
 31 32  2  0
 32 33  1  0
 32 34  1  0
 34 35  1  0
 34 36  2  0
 36 37  1  0
 36 38  1  0
 38 39  1  0
 39 40  1  0
 40 41  1  0
 40 42  1  0
 40 43  1  0
 38 44  2  0
 44 45  1  0
 29 46  1  0
 46  3  1  0
 25  9  1  0
 44 31  1  0
M  CHG  3   9   1  28  -1  46  -1
M  END
>  <UniqueID>  (6) 
5

>  <SMILES>  (6) 
[H]/N=c1/nc(C[NH+]2CCN(C)CC2)[n-]/c(=N/c2cccc(OC)c2)[n-]1

>  <Energy>  (6) 
65.15465658078364

>  <Genealogy>  (6) 
COc1cccc(N=c2[n-]c(C[NH+]3CCN(C)CC3)nc(=N)[n-]2)c1 (protonated)
[H]/N=c1/nc(C[NH+]2CCN(C)CC2)[n-]/c(=N/c2cccc(OC)c2)[n-]1 (cis-trans isomerization)
[H]/N=c1/nc(C[NH+]2CCN(C)CC2)[n-]/c(=N/c2cccc(OC)c2)[n-]1 (3D coordinates assigned)
[H]/N=c1/nc(C[NH+]2CCN(C)CC2)[n-]/c(=N/c2cccc(OC)c2)[n-]1 (nonaromatic ring conformer: 65.15465658078364 kcal/mol)

>  <smiles>  (6) 
COc1cccc(N=c2[nH]c(CN3CCN(C)CC3)nc(=N)[nH]2)c1

>  <score_type>  (6) 
oracle

>  <origin>  (6) 
adg

>  <m_score__min__energy>  (6) 
-8.6600000000000001

>  <m_primary>  (6) 
energy

$$$$
6:0
     RDKit          3D

 33 35  0  0  0  0  0  0  0  0999 V2000
   -6.0960   25.6250  -28.9960 N   0  0  0  0  0  0  0  0  0  0  0  0
   -6.3670   24.6970  -30.0900 C   0  0  0  0  0  0  0  0  0  0  0  0
   -5.1040   24.3510  -30.8280 C   0  0  0  0  0  0  0  0  0  0  0  0
   -4.1600   25.1880  -30.8290 O   0  0  0  0  0  0  0  0  0  0  0  0
   -4.9530   23.1240  -31.5640 N   0  0  0  0  0  0  0  0  0  0  0  0
   -3.7640   22.6230  -31.9740 C   0  0  0  0  0  0  0  0  0  0  0  0
   -3.9470   21.4400  -32.6820 C   0  0  0  0  0  0  0  0  0  0  0  0
   -2.8800   20.6230  -33.2980 C   0  0  0  0  0  0  0  0  0  0  0  0
   -3.1030   19.2610  -33.5660 C   0  0  0  0  0  0  0  0  0  0  0  0
   -2.0940   18.4790  -34.1360 C   0  0  0  0  0  0  0  0  0  0  0  0
   -0.8520   19.0460  -34.4350 C   0  0  0  0  0  0  0  0  0  0  0  0
    0.4140   18.0620  -35.1480 Cl  0  0  0  0  0  0  0  0  0  0  0  0
   -0.6160   20.3950  -34.1560 C   0  0  0  0  0  0  0  0  0  0  0  0
   -1.6220   21.1800  -33.5870 C   0  0  0  0  0  0  0  0  0  0  0  0
   -5.3130   21.2070  -32.6700 C   0  0  0  0  0  0  0  0  0  0  0  0
   -6.0620   20.1260  -33.1410 C   0  0  0  0  0  0  0  0  0  0  0  0
   -7.4480   20.1330  -32.9160 C   0  0  0  0  0  0  0  0  0  0  0  0
   -8.0520   21.1930  -32.2080 C   0  0  0  0  0  0  0  0  0  0  0  0
   -9.7800   21.1700  -31.9120 Cl  0  0  0  0  0  0  0  0  0  0  0  0
   -7.2730   22.2570  -31.7200 C   0  0  0  0  0  0  0  0  0  0  0  0
   -5.8970   22.2470  -31.9800 C   0  0  0  0  0  0  0  0  0  0  0  0
   -5.1210   25.9900  -29.1130 H   0  0  0  0  0  0  0  0  0  0  0  0
   -6.1060   25.0790  -28.1050 H   0  0  0  0  0  0  0  0  0  0  0  0
   -6.8078   23.7764  -29.6800 H   0  0  0  0  0  0  0  0  0  0  0  0
   -7.0633   25.1776  -30.7930 H   0  0  0  0  0  0  0  0  0  0  0  0
   -2.7872   23.0878  -31.7745 H   0  0  0  0  0  0  0  0  0  0  0  0
   -4.0764   18.8083  -33.3260 H   0  0  0  0  0  0  0  0  0  0  0  0
   -2.2779   17.4157  -34.3495 H   0  0  0  0  0  0  0  0  0  0  0  0
    0.3638   20.8396  -34.3849 H   0  0  0  0  0  0  0  0  0  0  0  0
   -1.4287   22.2397  -33.3639 H   0  0  0  0  0  0  0  0  0  0  0  0
   -5.5796   19.2928  -33.6731 H   0  0  0  0  0  0  0  0  0  0  0  0
   -8.0670   19.3062  -33.2945 H   0  0  0  0  0  0  0  0  0  0  0  0
   -7.7329   23.0766  -31.1484 H   0  0  0  0  0  0  0  0  0  0  0  0
  1  2  1  0
  2  3  1  0
  3  4  2  0
  3  5  1  0
  5  6  1  0
  6  7  2  0
  7  8  1  0
  8  9  2  0
  9 10  1  0
 10 11  2  0
 11 12  1  0
 11 13  1  0
 13 14  2  0
  7 15  1  0
 15 16  2  0
 16 17  1  0
 17 18  2  0
 18 19  1  0
 18 20  1  0
 20 21  2  0
 21  5  1  0
 14  8  1  0
 21 15  1  0
  1 22  1  0
  1 23  1  0
  2 24  1  0
  2 25  1  0
  6 26  1  0
  9 27  1  0
 10 28  1  0
 13 29  1  0
 14 30  1  0
 16 31  1  0
 17 32  1  0
 20 33  1  0
M  END
>  <UniqueID>  (7) 
6

>  <SMILES>  (7) 
NCC(=O)n1cc(-c2ccc(Cl)cc2)c2ccc(Cl)cc21

>  <Energy>  (7) 
76.7903169985496

>  <Genealogy>  (7) 
NCC(=O)n1cc(-c2ccc(Cl)cc2)c2ccc(Cl)cc21 (3D coordinates assigned)
NCC(=O)n1cc(-c2ccc(Cl)cc2)c2ccc(Cl)cc21 (optimized conformer: 76.7903169985496 kcal/mol)

>  <smiles>  (7) 
NCC(=O)n1cc(-c2ccc(Cl)cc2)c2ccc(Cl)cc21

>  <score_type>  (7) 
oracle

>  <origin>  (7) 
adg

>  <m_score__min__energy>  (7) 
-8.75

>  <m_primary>  (7) 
energy

$$$$
7:0
     RDKit          3D

 28 30  0  0  0  0  0  0  0  0999 V2000
   -4.1290   17.4200  -35.6980 N   0  0  0  0  0  0  0  0  0  0  0  0
   -4.9240   17.6880  -34.9000 C   0  0  0  0  0  0  0  0  0  0  0  0
   -5.9120   18.0210  -33.9080 C   0  0  0  0  0  0  0  0  0  0  0  0
   -6.6970   17.0140  -33.3380 C   0  0  0  0  0  0  0  0  0  0  0  0
   -7.6530   17.3370  -32.3720 C   0  0  0  0  0  0  0  0  0  0  0  0
   -7.8320   18.6650  -31.9750 C   0  0  0  0  0  0  0  0  0  0  0  0
   -7.0570   19.6920  -32.5480 C   0  0  0  0  0  0  0  0  0  0  0  0
   -7.2240   21.1100  -32.1350 C   0  0  0  0  0  0  0  0  0  0  0  0
   -8.4600   21.7720  -32.2390 C   0  0  0  0  0  0  0  0  0  0  0  0
   -8.5610   23.1060  -31.8420 C   0  0  0  0  0  0  0  0  0  0  0  0
   -7.4400   23.7760  -31.3510 C   0  0  0  0  0  0  0  0  0  0  0  0
   -6.2160   23.0980  -31.2670 C   0  0  0  0  0  0  0  0  0  0  0  0
   -5.0070   23.7710  -30.7620 C   0  0  0  0  0  0  0  0  0  0  0  0
   -4.1140   23.2550  -29.8460 C   0  0  0  0  0  0  0  0  0  0  0  0
   -3.1680   24.2460  -29.7010 C   0  0  0  0  0  0  0  0  0  0  0  0
   -3.4880   25.2900  -30.4890 N   0  0  0  0  0  0  0  0  0  0  0  0
   -4.6070   25.0020  -31.1360 N   0  0  0  0  0  0  0  0  0  0  0  0
   -6.1450   21.7960  -31.6600 N   0  0  0  0  0  0  0  0  0  0  0  0
   -6.0880   19.3540  -33.5130 C   0  0  0  0  0  0  0  0  0  0  0  0
   -6.5618   15.9679  -33.6501 H   0  0  0  0  0  0  0  0  0  0  0  0
   -8.2672   16.5431  -31.9221 H   0  0  0  0  0  0  0  0  0  0  0  0
   -8.5833   18.9098  -31.2098 H   0  0  0  0  0  0  0  0  0  0  0  0
   -9.3410   21.2423  -32.6305 H   0  0  0  0  0  0  0  0  0  0  0  0
   -9.5254   23.6298  -31.9162 H   0  0  0  0  0  0  0  0  0  0  0  0
   -7.5160   24.8262  -31.0328 H   0  0  0  0  0  0  0  0  0  0  0  0
   -4.1492   22.2760  -29.3457 H   0  0  0  0  0  0  0  0  0  0  0  0
   -2.2878   24.1927  -29.0435 H   0  0  0  0  0  0  0  0  0  0  0  0
   -5.4647   20.1425  -33.9599 H   0  0  0  0  0  0  0  0  0  0  0  0
  1  2  3  0
  2  3  1  0
  3  4  2  0
  4  5  1  0
  5  6  2  0
  6  7  1  0
  7  8  1  0
  8  9  2  0
  9 10  1  0
 10 11  2  0
 11 12  1  0
 12 13  1  0
 13 14  1  0
 14 15  2  0
 15 16  1  0
 16 17  1  0
 12 18  2  0
  7 19  2  0
 19  3  1  0
 18  8  1  0
 17 13  2  0
  4 20  1  0
  5 21  1  0
  6 22  1  0
  9 23  1  0
 10 24  1  0
 11 25  1  0
 14 26  1  0
 15 27  1  0
 19 28  1  0
M  CHG  1  16  -1
M  END
>  <UniqueID>  (8) 
7

>  <SMILES>  (8) 
N#Cc1cccc(-c2cccc(-c3cc[n-]n3)n2)c1

>  <Energy>  (8) 
63.543734771693885

>  <Genealogy>  (8) 
N#Cc1cccc(-c2cccc(-c3cc[n-]n3)n2)c1 (protonated)
N#Cc1cccc(-c2cccc(-c3cc[n-]n3)n2)c1 (3D coordinates assigned)
N#Cc1cccc(-c2cccc(-c3cc[n-]n3)n2)c1 (optimized conformer: 63.543734771693885 kcal/mol)

>  <smiles>  (8) 
N#Cc1cccc(-c2cccc(-c3cc[nH]n3)n2)c1

>  <score_type>  (8) 
oracle

>  <origin>  (8) 
adg

>  <m_score__min__energy>  (8) 
-9.9600000000000009

>  <m_primary>  (8) 
energy

$$$$
8:0
     RDKit          3D

 35 36  0  0  0  0  0  0  0  0999 V2000
   -5.0310   21.1610  -33.2980 N   0  0  0  0  0  0  0  0  0  0  0  0
   -6.0630   21.5290  -32.3850 C   0  0  0  0  0  0  0  0  0  0  0  0
   -7.1030   20.8200  -32.3220 O   0  0  0  0  0  0  0  0  0  0  0  0
   -5.9120   22.7310  -31.5240 C   0  0  0  0  0  0  0  0  0  0  0  0
   -4.6290   23.1720  -31.1480 C   0  0  0  0  0  0  0  0  0  0  0  0
   -4.4650   24.3140  -30.3500 C   0  0  0  0  0  0  0  0  0  0  0  0
   -3.1610   24.7510  -29.9390 N   0  0  0  0  0  0  0  0  0  0  0  0
   -2.1940   23.9640  -29.1470 C   0  0  0  0  0  0  0  0  0  0  0  0
   -1.0520   24.9030  -28.7740 C   0  0  0  0  0  0  0  0  0  0  0  0
   -1.1830   26.3090  -28.9780 N   0  0  0  0  0  0  0  0  0  0  0  0
   -0.0190   24.4650  -28.1960 O   0  0  0  0  0  0  0  0  0  0  0  0
   -2.9070   23.4210  -27.8830 C   0  0  0  0  0  0  0  0  0  0  0  0
   -2.0010   22.4740  -27.0740 C   0  0  0  0  0  0  0  0  0  0  0  0
   -1.5070   21.3610  -27.8980 N   0  0  0  0  0  0  0  0  0  0  0  0
   -0.7570   21.8530  -29.0610 C   0  0  0  0  0  0  0  0  0  0  0  0
   -1.6340   22.7530  -29.9480 C   0  0  0  0  0  0  0  0  0  0  0  0
   -5.5930   24.9970  -29.8840 C   0  0  0  0  0  0  0  0  0  0  0  0
   -6.8710   24.5710  -30.2470 C   0  0  0  0  0  0  0  0  0  0  0  0
   -7.0380   23.4500  -31.0650 C   0  0  0  0  0  0  0  0  0  0  0  0
   -8.2980   23.0720  -31.3970 F   0  0  0  0  0  0  0  0  0  0  0  0
   -4.6080   21.8650  -33.9430 H   0  0  0  0  0  0  0  0  0  0  0  0
   -3.7431   22.6135  -31.4845 H   0  0  0  0  0  0  0  0  0  0  0  0
   -2.8430   25.6730  -30.3170 H   0  0  0  0  0  0  0  0  0  0  0  0
   -0.8370   26.7590  -29.8530 H   0  0  0  0  0  0  0  0  0  0  0  0
   -3.1943   24.2696  -27.2447 H   0  0  0  0  0  0  0  0  0  0  0  0
   -3.7905   22.8520  -28.2082 H   0  0  0  0  0  0  0  0  0  0  0  0
   -1.1413   23.0434  -26.6910 H   0  0  0  0  0  0  0  0  0  0  0  0
   -2.5937   22.0535  -26.2482 H   0  0  0  0  0  0  0  0  0  0  0  0
   -2.3260   20.7980  -28.2320 H   0  0  0  0  0  0  0  0  0  0  0  0
    0.1106   22.4310  -28.7101 H   0  0  0  0  0  0  0  0  0  0  0  0
   -0.4312   20.9877  -29.6569 H   0  0  0  0  0  0  0  0  0  0  0  0
   -1.0293   23.1274  -30.7872 H   0  0  0  0  0  0  0  0  0  0  0  0
   -2.4828   22.1573  -30.3149 H   0  0  0  0  0  0  0  0  0  0  0  0
   -5.4722   25.8727  -29.2293 H   0  0  0  0  0  0  0  0  0  0  0  0
   -7.7530   25.1210  -29.8871 H   0  0  0  0  0  0  0  0  0  0  0  0
  1  2  1  0
  2  3  2  0
  2  4  1  0
  4  5  2  0
  5  6  1  0
  6  7  1  0
  7  8  1  0
  8  9  1  0
  9 10  1  0
  9 11  2  0
  8 12  1  0
 12 13  1  0
 13 14  1  0
 14 15  1  0
 15 16  1  0
  6 17  2  0
 17 18  1  0
 18 19  2  0
 19 20  1  0
 19  4  1  0
 16  8  1  0
  1 21  1  0
  5 22  1  0
  7 23  1  0
 10 24  1  0
 12 25  1  0
 12 26  1  0
 13 27  1  0
 13 28  1  0
 14 29  1  0
 15 30  1  0
 15 31  1  0
 16 32  1  0
 16 33  1  0
 17 34  1  0
 18 35  1  0
M  CHG  2   1  -1  10  -1
M  END
>  <UniqueID>  (9) 
8

>  <SMILES>  (9) 
[NH-]C(=O)c1cc(NC2(C([NH-])=O)CCNCC2)ccc1F

>  <Energy>  (9) 
43.49346509668204

>  <Genealogy>  (9) 
[NH-]C(=O)c1cc(NC2(C([NH-])=O)CCNCC2)ccc1F (protonated)
[NH-]C(=O)c1cc(NC2(C([NH-])=O)CCNCC2)ccc1F (3D coordinates assigned)
[NH-]C(=O)c1cc(NC2(C([NH-])=O)CCNCC2)ccc1F (nonaromatic ring conformer: 43.49346509668204 kcal/mol)

>  <smiles>  (9) 
NC(=O)c1cc(NC2(C(N)=O)CCNCC2)ccc1F

>  <score_type>  (9) 
oracle

>  <origin>  (9) 
adg

>  <m_score__min__energy>  (9) 
-11.449999999999999

>  <m_primary>  (9) 
energy

$$$$
9:0
     RDKit          3D

 51 54  0  0  0  0  0  0  0  0999 V2000
   -0.4150   23.2450  -29.2950 O   0  0  0  0  0  0  0  0  0  0  0  0
   -1.6770   23.8590  -28.7560 S   0  0  0  0  0  0  0  0  0  0  0  0
   -2.1380   24.9230  -29.7120 O   0  0  0  0  0  0  0  0  0  0  0  0
   -2.9340   22.6030  -28.6120 C   0  0  0  0  0  0  0  0  0  0  0  0
   -4.2300   23.0920  -29.1860 C   0  0  0  0  0  0  0  0  0  0  0  0
   -5.0210   23.9890  -28.5600 N   0  0  0  0  0  0  0  0  0  0  0  0
   -6.0290   24.2300  -29.3820 N   0  0  0  0  0  0  0  0  0  0  0  0
   -5.8460   23.5020  -30.4990 C   0  0  0  0  0  0  0  0  0  0  0  0
   -6.8270   23.4520  -31.6370 C   0  0  0  0  0  0  0  0  0  0  0  0
   -8.1030   22.2380  -31.3400 S   0  0  0  0  0  0  0  0  0  0  0  0
   -8.3400   22.1030  -29.8630 O   0  0  0  0  0  0  0  0  0  0  0  0
   -9.3790   22.6950  -31.9880 O   0  0  0  0  0  0  0  0  0  0  0  0
   -7.6400   20.6810  -32.0180 C   0  0  0  0  0  0  0  0  0  0  0  0
   -6.8060   20.6130  -33.1430 C   0  0  0  0  0  0  0  0  0  0  0  0
   -6.4670   19.3720  -33.6920 C   0  0  0  0  0  0  0  0  0  0  0  0
   -6.9670   18.1940  -33.1260 C   0  0  0  0  0  0  0  0  0  0  0  0
   -6.5120   16.5040  -33.8870 Br  0  0  0  0  0  0  0  0  0  0  0  0
   -7.8020   18.2600  -32.0060 C   0  0  0  0  0  0  0  0  0  0  0  0
   -8.1380   19.4980  -31.4530 C   0  0  0  0  0  0  0  0  0  0  0  0
   -4.7110   22.7770  -30.4080 N   0  0  0  0  0  0  0  0  0  0  0  0
   -4.1840   21.8310  -31.3470 C   0  0  0  0  0  0  0  0  0  0  0  0
   -3.6510   22.2720  -32.5660 C   0  0  0  0  0  0  0  0  0  0  0  0
   -3.1320   21.3500  -33.4820 C   0  0  0  0  0  0  0  0  0  0  0  0
   -3.1450   19.9850  -33.1820 C   0  0  0  0  0  0  0  0  0  0  0  0
   -3.6790   19.5400  -31.9680 C   0  0  0  0  0  0  0  0  0  0  0  0
   -4.1970   20.4600  -31.0510 C   0  0  0  0  0  0  0  0  0  0  0  0
   -1.3490   24.5640  -27.1760 C   0  0  0  0  0  0  0  0  0  0  0  0
   -0.7940   23.7870  -26.1470 C   0  0  0  0  0  0  0  0  0  0  0  0
   -0.5310   24.3610  -24.8990 C   0  0  0  0  0  0  0  0  0  0  0  0
   -0.8030   25.7160  -24.6770 C   0  0  0  0  0  0  0  0  0  0  0  0
   -0.4660   26.4360  -23.1150 Cl  0  0  0  0  0  0  0  0  0  0  0  0
   -1.3440   26.4940  -25.7050 C   0  0  0  0  0  0  0  0  0  0  0  0
   -1.6170   25.9200  -26.9510 C   0  0  0  0  0  0  0  0  0  0  0  0
   -2.6122   21.7039  -29.1579 H   0  0  0  0  0  0  0  0  0  0  0  0
   -3.0818   22.3666  -27.5479 H   0  0  0  0  0  0  0  0  0  0  0  0
   -6.8290   24.8630  -29.1660 H   0  0  0  0  0  0  0  0  0  0  0  0
   -7.2935   24.4416  -31.7519 H   0  0  0  0  0  0  0  0  0  0  0  0
   -6.2845   23.1694  -32.5512 H   0  0  0  0  0  0  0  0  0  0  0  0
   -6.4175   21.5376  -33.5948 H   0  0  0  0  0  0  0  0  0  0  0  0
   -5.8063   19.3220  -34.5701 H   0  0  0  0  0  0  0  0  0  0  0  0
   -8.1951   17.3348  -31.5595 H   0  0  0  0  0  0  0  0  0  0  0  0
   -8.7950   19.5451  -30.5720 H   0  0  0  0  0  0  0  0  0  0  0  0
   -3.6406   23.3460  -32.8034 H   0  0  0  0  0  0  0  0  0  0  0  0
   -2.7140   21.6994  -34.4376 H   0  0  0  0  0  0  0  0  0  0  0  0
   -2.7351   19.2602  -33.9008 H   0  0  0  0  0  0  0  0  0  0  0  0
   -3.6915   18.4652  -31.7344 H   0  0  0  0  0  0  0  0  0  0  0  0
   -4.6152   20.1081  -30.0964 H   0  0  0  0  0  0  0  0  0  0  0  0
   -0.5657   22.7254  -26.3224 H   0  0  0  0  0  0  0  0  0  0  0  0
   -0.1094   23.7462  -24.0901 H   0  0  0  0  0  0  0  0  0  0  0  0
   -1.5554   27.5598  -25.5336 H   0  0  0  0  0  0  0  0  0  0  0  0
   -2.0435   26.5356  -27.7567 H   0  0  0  0  0  0  0  0  0  0  0  0
  1  2  2  0
  2  3  2  0
  2  4  1  0
  4  5  1  0
  5  6  2  0
  6  7  1  0
  7  8  2  0
  8  9  1  0
  9 10  1  0
 10 11  2  0
 10 12  2  0
 10 13  1  0
 13 14  2  0
 14 15  1  0
 15 16  2  0
 16 17  1  0
 16 18  1  0
 18 19  2  0
  8 20  1  0
 20 21  1  0
 21 22  2  0
 22 23  1  0
 23 24  2  0
 24 25  1  0
 25 26  2  0
  2 27  1  0
 27 28  2  0
 28 29  1  0
 29 30  2  0
 30 31  1  0
 30 32  1  0
 32 33  2  0
 20  5  1  0
 26 21  1  0
 33 27  1  0
 19 13  1  0
  4 34  1  0
  4 35  1  0
  7 36  1  0
  9 37  1  0
  9 38  1  0
 14 39  1  0
 15 40  1  0
 18 41  1  0
 19 42  1  0
 22 43  1  0
 23 44  1  0
 24 45  1  0
 25 46  1  0
 26 47  1  0
 28 48  1  0
 29 49  1  0
 32 50  1  0
 33 51  1  0
M  CHG  1   7   1
M  END
>  <UniqueID>  (10) 
9

>  <SMILES>  (10) 
O=S(=O)(Cc1n[nH+]c(CS(=O)(=O)c2ccc(Br)cc2)n1-c1ccccc1)c1ccc(Cl)cc1

>  <Energy>  (10) 
84.66295423712228

>  <Genealogy>  (10) 
O=S(=O)(Cc1n[nH+]c(CS(=O)(=O)c2ccc(Br)cc2)n1-c1ccccc1)c1ccc(Cl)cc1 (protonated)
O=S(=O)(Cc1n[nH+]c(CS(=O)(=O)c2ccc(Br)cc2)n1-c1ccccc1)c1ccc(Cl)cc1 (3D coordinates assigned)
O=S(=O)(Cc1n[nH+]c(CS(=O)(=O)c2ccc(Br)cc2)n1-c1ccccc1)c1ccc(Cl)cc1 (optimized conformer: 84.66295423712228 kcal/mol)

>  <smiles>  (10) 
O=S(=O)(Cc1nnc(CS(=O)(=O)c2ccc(Br)cc2)n1-c1ccccc1)c1ccc(Cl)cc1

>  <score_type>  (10) 
oracle

>  <origin>  (10) 
adg

>  <m_score__min__energy>  (10) 
-11.210000000000001

>  <m_primary>  (10) 
energy

$$$$
10:0
     RDKit          3D

 66 70  0  0  0  0  0  0  0  0999 V2000
   -2.5094   20.2950  -33.4597 H   0  0  0  0  0  0  0  0  0  0  0  0
   -2.4690   20.9150  -32.5520 C   0  0  0  0  0  0  0  0  0  0  0  0
   -1.3540   20.9300  -31.8160 C   0  0  0  0  0  0  0  0  0  0  0  0
    0.0240   19.9630  -32.3310 S   0  0  0  0  0  0  0  0  0  0  0  0
   -0.4230   18.5520  -32.5930 O   0  0  0  0  0  0  0  0  0  0  0  0
    1.0760   19.9310  -31.2580 O   0  0  0  0  0  0  0  0  0  0  0  0
    0.7000   20.6700  -33.7920 C   0  0  0  0  0  0  0  0  0  0  0  0
   -0.0590   21.5570  -34.5700 C   0  0  0  0  0  0  0  0  0  0  0  0
   -1.0926   21.7957  -34.2789 H   0  0  0  0  0  0  0  0  0  0  0  0
    0.4950   22.1380  -35.7140 C   0  0  0  0  0  0  0  0  0  0  0  0
   -0.1041   22.8311  -36.3228 H   0  0  0  0  0  0  0  0  0  0  0  0
    1.8090   21.8400  -36.0860 C   0  0  0  0  0  0  0  0  0  0  0  0
    2.2425   22.2958  -36.9884 H   0  0  0  0  0  0  0  0  0  0  0  0
    2.5720   20.9620  -35.3100 C   0  0  0  0  0  0  0  0  0  0  0  0
    3.6063   20.7280  -35.6022 H   0  0  0  0  0  0  0  0  0  0  0  0
    2.0220   20.3810  -34.1630 C   0  0  0  0  0  0  0  0  0  0  0  0
    2.6269   19.6962  -33.5505 H   0  0  0  0  0  0  0  0  0  0  0  0
   -1.1920   21.9090  -30.6860 C   0  0  0  0  0  0  0  0  0  0  0  0
   -0.4850   21.4916  -29.9540 H   0  0  0  0  0  0  0  0  0  0  0  0
   -0.8191   22.8539  -31.1080 H   0  0  0  0  0  0  0  0  0  0  0  0
   -2.5280   22.2020  -29.9750 C   0  0  1  0  0  0  0  0  0  0  0  0
   -2.8620   21.3084  -29.4273 H   0  0  0  0  0  0  0  0  0  0  0  0
   -2.3270   23.3230  -28.9660 C   0  0  0  0  0  0  0  0  0  0  0  0
   -3.1840   23.4580  -27.8560 C   0  0  0  0  0  0  0  0  0  0  0  0
   -4.0154   22.7511  -27.7180 H   0  0  0  0  0  0  0  0  0  0  0  0
   -2.9840   24.4850  -26.9290 C   0  0  0  0  0  0  0  0  0  0  0  0
   -3.6564   24.5822  -26.0639 H   0  0  0  0  0  0  0  0  0  0  0  0
   -1.9320   25.3880  -27.0990 C   0  0  0  0  0  0  0  0  0  0  0  0
   -1.7784   26.1973  -26.3700 H   0  0  0  0  0  0  0  0  0  0  0  0
   -1.0750   25.2630  -28.1950 C   0  0  0  0  0  0  0  0  0  0  0  0
   -0.2433   25.9711  -28.3249 H   0  0  0  0  0  0  0  0  0  0  0  0
   -1.2720   24.2400  -29.1270 C   0  0  0  0  0  0  0  0  0  0  0  0
   -0.5980   24.1513  -29.9918 H   0  0  0  0  0  0  0  0  0  0  0  0
   -3.5870   22.5130  -30.9600 N   0  0  0  0  0  0  0  0  0  0  0  0
   -4.7080   23.3530  -30.6080 C   0  0  0  0  0  0  0  0  0  0  0  0
   -4.6160   24.7460  -30.7680 C   0  0  0  0  0  0  0  0  0  0  0  0
   -3.6963   25.1910  -31.1757 H   0  0  0  0  0  0  0  0  0  0  0  0
   -5.6890   25.5690  -30.4110 C   0  0  0  0  0  0  0  0  0  0  0  0
   -5.6114   26.6588  -30.5384 H   0  0  0  0  0  0  0  0  0  0  0  0
   -6.8590   25.0090  -29.8930 C   0  0  0  0  0  0  0  0  0  0  0  0
   -7.6999   25.6580  -29.6072 H   0  0  0  0  0  0  0  0  0  0  0  0
   -6.9610   23.6240  -29.7380 C   0  0  0  0  0  0  0  0  0  0  0  0
   -7.8836   23.1836  -29.3319 H   0  0  0  0  0  0  0  0  0  0  0  0
   -5.8930   22.7970  -30.0980 C   0  0  0  0  0  0  0  0  0  0  0  0
   -5.9808   21.7067  -29.9815 H   0  0  0  0  0  0  0  0  0  0  0  0
   -3.6530   21.7200  -32.1660 C   0  0  0  0  0  0  0  0  0  0  0  0
   -4.7430   21.7430  -32.8860 N   0  0  0  0  0  0  0  0  0  0  0  0
   -5.8350   20.8100  -32.8820 C   0  0  0  0  0  0  0  0  0  0  0  0
   -5.6280   19.4390  -33.1050 C   0  0  0  0  0  0  0  0  0  0  0  0
   -4.6162   19.0666  -33.3229 H   0  0  0  0  0  0  0  0  0  0  0  0
   -6.7090   18.5390  -33.0510 C   0  0  0  0  0  0  0  0  0  0  0  0
   -6.5610   17.1690  -33.3180 O   0  0  0  0  0  0  0  0  0  0  0  0
   -5.5880   16.6220  -34.2050 C   0  0  0  0  0  0  0  0  0  0  0  0
   -4.7753   16.1651  -33.6212 H   0  0  0  0  0  0  0  0  0  0  0  0
   -6.0591   15.8565  -34.8391 H   0  0  0  0  0  0  0  0  0  0  0  0
   -5.1788   17.4223  -34.8391 H   0  0  0  0  0  0  0  0  0  0  0  0
   -7.9800   19.0160  -32.7140 C   0  0  0  0  0  0  0  0  0  0  0  0
   -8.8283   18.3168  -32.6741 H   0  0  0  0  0  0  0  0  0  0  0  0
   -8.1880   20.3690  -32.4270 C   0  0  0  0  0  0  0  0  0  0  0  0
   -9.4770   20.7800  -32.0540 O   0  0  0  0  0  0  0  0  0  0  0  0
   -9.7540   21.8940  -31.2100 C   0  0  0  0  0  0  0  0  0  0  0  0
   -9.6770   21.5845  -30.1572 H   0  0  0  0  0  0  0  0  0  0  0  0
   -9.0278   22.6955  -31.4106 H   0  0  0  0  0  0  0  0  0  0  0  0
  -10.7710   22.2620  -31.4106 H   0  0  0  0  0  0  0  0  0  0  0  0
   -7.1040   21.2640  -32.5110 C   0  0  0  0  0  0  0  0  0  0  0  0
   -7.2571   22.3291  -32.2828 H   0  0  0  0  0  0  0  0  0  0  0  0
  1  2  1  0
  2  3  2  0
  3  4  1  0
  4  5  2  0
  4  6  2  0
  4  7  1  0
  7  8  2  0
  8  9  1  0
  8 10  1  0
 10 11  1  0
 10 12  2  0
 12 13  1  0
 12 14  1  0
 14 15  1  0
 14 16  2  0
 16 17  1  0
  3 18  1  0
 18 19  1  0
 18 20  1  0
 18 21  1  0
 21 22  1  1
 21 23  1  0
 23 24  2  0
 24 25  1  0
 24 26  1  0
 26 27  1  0
 26 28  2  0
 28 29  1  0
 28 30  1  0
 30 31  1  0
 30 32  2  0
 32 33  1  0
 21 34  1  0
 34 35  1  0
 35 36  2  0
 36 37  1  0
 36 38  1  0
 38 39  1  0
 38 40  2  0
 40 41  1  0
 40 42  1  0
 42 43  1  0
 42 44  2  0
 44 45  1  0
 34 46  1  0
 46 47  2  0
 47 48  1  0
 48 49  2  0
 49 50  1  0
 49 51  1  0
 51 52  1  0
 52 53  1  0
 53 54  1  0
 53 55  1  0
 53 56  1  0
 51 57  2  0
 57 58  1  0
 57 59  1  0
 59 60  1  0
 60 61  1  0
 61 62  1  0
 61 63  1  0
 61 64  1  0
 59 65  2  0
 65 66  1  0
 46  2  1  0
 65 48  1  0
 16  7  1  0
 32 23  1  0
 44 35  1  0
M  END
>  <UniqueID>  (11) 
10

>  <SMILES>  (11) 
COc1cc(/N=C2\C=C(S(=O)(=O)c3ccccc3)C[C@@H](c3ccccc3)N2c2ccccc2)cc(OC)c1

>  <Energy>  (11) 
86.88861579153294

>  <Genealogy>  (11) 
COc1cc(N=C2C=C(S(=O)(=O)c3ccccc3)C[C@@H](c3ccccc3)N2c2ccccc2)cc(OC)c1 (chirality)
COc1cc(/N=C2\C=C(S(=O)(=O)c3ccccc3)C[C@@H](c3ccccc3)N2c2ccccc2)cc(OC)c1 (cis-trans isomerization)
COc1cc(/N=C2\C=C(S(=O)(=O)c3ccccc3)C[C@@H](c3ccccc3)N2c2ccccc2)cc(OC)c1 (3D coordinates assigned)
COc1cc(/N=C2\C=C(S(=O)(=O)c3ccccc3)C[C@@H](c3ccccc3)N2c2ccccc2)cc(OC)c1 (nonaromatic ring conformer: 86.88861579153294 kcal/mol)

>  <smiles>  (11) 
COc1cc(N=C2C=C(S(=O)(=O)c3ccccc3)CC(c3ccccc3)N2c2ccccc2)cc(OC)c1

>  <score_type>  (11) 
oracle

>  <origin>  (11) 
adg

>  <m_score__min__energy>  (11) 
-10.789999999999999

>  <m_primary>  (11) 
energy

$$$$
11:0
     RDKit          3D

 38 40  0  0  0  0  0  0  0  0999 V2000
   -5.7200   26.0650  -30.1010 C   0  0  0  0  0  0  0  0  0  0  0  0
   -4.9470   25.1120  -30.7980 O   0  0  0  0  0  0  0  0  0  0  0  0
   -5.5150   23.8180  -30.6770 C   0  0  1  0  0  0  0  0  0  0  0  0
   -7.0290   23.9080  -30.8970 C   0  0  0  0  0  0  0  0  0  0  0  0
   -7.6370   22.5160  -31.0350 C   0  0  0  0  0  0  0  0  0  0  0  0
   -7.0860   21.8190  -32.2940 C   0  0  2  0  0  0  0  0  0  0  0  0
   -7.6330   20.4110  -32.4310 C   0  0  0  0  0  0  0  0  0  0  0  0
   -8.6920   20.1240  -31.8840 O   0  0  0  0  0  0  0  0  0  0  0  0
   -7.0090   19.4810  -33.3630 N   0  0  2  0  0  0  0  0  0  0  0  0
   -7.5650   18.1090  -33.2760 C   0  0  0  0  0  0  0  0  0  0  0  0
   -7.2800   17.4270  -31.9170 C   0  0  0  0  0  0  0  0  0  0  0  0
   -6.0920   18.0470  -31.1690 C   0  0  0  0  0  0  0  0  0  0  0  0
   -4.9980   18.4980  -32.1340 C   0  0  0  0  0  0  0  0  0  0  0  0
   -5.5250   19.4480  -33.2520 C   0  0  2  0  0  0  0  0  0  0  0  0
   -4.9380   20.8270  -33.0980 C   0  0  0  0  0  0  0  0  0  0  0  0
   -3.8250   21.0810  -33.6340 O   0  0  0  0  0  0  0  0  0  0  0  0
   -5.6130   21.8180  -32.2990 N   0  0  0  0  0  0  0  0  0  0  0  0
   -4.8730   22.9070  -31.6920 C   0  0  0  0  0  0  0  0  0  0  0  0
   -3.6400   23.0450  -31.9210 O   0  0  0  0  0  0  0  0  0  0  0  0
   -5.5982   25.9148  -29.0181 H   0  0  0  0  0  0  0  0  0  0  0  0
   -5.3846   27.0773  -30.3708 H   0  0  0  0  0  0  0  0  0  0  0  0
   -6.7797   25.9457  -30.3708 H   0  0  0  0  0  0  0  0  0  0  0  0
   -5.3350   23.4094  -29.6717 H   0  0  0  0  0  0  0  0  0  0  0  0
   -7.4889   24.4195  -30.0386 H   0  0  0  0  0  0  0  0  0  0  0  0
   -7.2192   24.4706  -31.8229 H   0  0  0  0  0  0  0  0  0  0  0  0
   -7.3822   21.9182  -30.1474 H   0  0  0  0  0  0  0  0  0  0  0  0
   -8.7295   22.6079  -31.1238 H   0  0  0  0  0  0  0  0  0  0  0  0
   -7.4263   22.3946  -33.1674 H   0  0  0  0  0  0  0  0  0  0  0  0
   -7.2420   19.8380  -34.3210 H   0  0  0  0  0  0  0  0  0  0  0  0
   -8.6542   18.1623  -33.4200 H   0  0  0  0  0  0  0  0  0  0  0  0
   -7.0770   17.5059  -34.0558 H   0  0  0  0  0  0  0  0  0  0  0  0
   -8.1763   17.5166  -31.2857 H   0  0  0  0  0  0  0  0  0  0  0  0
   -7.0250   16.3772  -32.1242 H   0  0  0  0  0  0  0  0  0  0  0  0
   -6.4448   18.9174  -30.5964 H   0  0  0  0  0  0  0  0  0  0  0  0
   -5.6689   17.2837  -30.4994 H   0  0  0  0  0  0  0  0  0  0  0  0
   -4.2220   19.0272  -31.5615 H   0  0  0  0  0  0  0  0  0  0  0  0
   -4.6027   17.5976  -32.6269 H   0  0  0  0  0  0  0  0  0  0  0  0
   -5.1794   19.0271  -34.2077 H   0  0  0  0  0  0  0  0  0  0  0  0
  1  2  1  0
  2  3  1  0
  3  4  1  0
  4  5  1  0
  5  6  1  0
  6  7  1  0
  7  8  2  0
  7  9  1  0
  9 10  1  0
 10 11  1  0
 11 12  1  0
 12 13  1  0
 13 14  1  0
 14 15  1  0
 15 16  2  0
 15 17  1  0
 17 18  1  0
 18 19  2  0
 18  3  1  0
 17  6  1  0
 14  9  1  0
  1 20  1  0
  1 21  1  0
  1 22  1  0
  3 23  1  1
  4 24  1  0
  4 25  1  0
  5 26  1  0
  5 27  1  0
  6 28  1  6
  9 29  1  6
 10 30  1  0
 10 31  1  0
 11 32  1  0
 11 33  1  0
 12 34  1  0
 12 35  1  0
 13 36  1  0
 13 37  1  0
 14 38  1  6
M  CHG  1   9   1
M  END
>  <UniqueID>  (12) 
11

>  <SMILES>  (12) 
CO[C@H]1CC[C@@H]2C(=O)[NH+]3CCCCC3C(=O)N2C1=O

>  <Energy>  (12) 
58.52845160954367

>  <Genealogy>  (12) 
COC1CCC2C(=O)[NH+]3CCCCC3C(=O)N2C1=O (protonated)
CO[C@H]1CC[C@@H]2C(=O)[NH+]3CCCCC3C(=O)N2C1=O (chirality)
CO[C@H]1CC[C@@H]2C(=O)[NH+]3CCCCC3C(=O)N2C1=O (3D coordinates assigned)
CO[C@H]1CC[C@@H]2C(=O)[NH+]3CCCCC3C(=O)N2C1=O (nonaromatic ring conformer: 58.52845160954367 kcal/mol)

>  <smiles>  (12) 
COC1CCC2C(=O)N3CCCCC3C(=O)N2C1=O

>  <score_type>  (12) 
oracle

>  <origin>  (12) 
adg

>  <m_score__min__energy>  (12) 
-7.2699999999999996

>  <m_primary>  (12) 
energy

$$$$
12:0
     RDKit          3D

 48 52  0  0  0  0  0  0  0  0999 V2000
   -9.8670   21.2860  -32.1020 C   0  0  0  0  0  0  0  0  0  0  0  0
   -8.9120   20.5410  -31.3520 O   0  0  0  0  0  0  0  0  0  0  0  0
   -8.0200   19.6030  -31.9020 C   0  0  0  0  0  0  0  0  0  0  0  0
   -8.4310   18.2990  -32.2280 C   0  0  0  0  0  0  0  0  0  0  0  0
   -7.5280   17.3810  -32.7560 C   0  0  0  0  0  0  0  0  0  0  0  0
   -6.1950   17.7480  -32.9810 C   0  0  0  0  0  0  0  0  0  0  0  0
   -5.3000   16.8330  -33.5360 C   0  0  0  0  0  0  0  0  0  0  0  0
   -3.9760   17.2110  -33.7830 C   0  0  0  0  0  0  0  0  0  0  0  0
   -3.5340   18.4670  -33.4400 N   0  0  0  0  0  0  0  0  0  0  0  0
   -4.4160   19.3900  -32.9390 C   0  0  0  0  0  0  0  0  0  0  0  0
   -5.7590   19.0530  -32.6680 C   0  0  0  0  0  0  0  0  0  0  0  0
   -6.6800   19.9850  -32.1170 C   0  0  0  0  0  0  0  0  0  0  0  0
   -6.2600   21.3540  -31.7340 C   0  0  0  0  0  0  0  0  0  0  0  0
   -6.8840   22.4700  -32.3070 C   0  0  0  0  0  0  0  0  0  0  0  0
   -6.4850   23.7610  -31.9480 C   0  0  0  0  0  0  0  0  0  0  0  0
   -5.4510   23.9550  -31.0140 C   0  0  0  0  0  0  0  0  0  0  0  0
   -5.0380   25.2830  -30.6410 N   0  0  0  0  0  0  0  0  0  0  0  0
   -3.8740   25.6740  -30.8640 O   0  0  0  0  0  0  0  0  0  0  0  0
   -5.9220   26.1450  -30.0320 O   0  0  0  0  0  0  0  0  0  0  0  0
   -4.8250   22.8300  -30.4500 C   0  0  0  0  0  0  0  0  0  0  0  0
   -5.2250   21.5400  -30.8080 C   0  0  0  0  0  0  0  0  0  0  0  0
   -2.1400   18.8150  -33.6700 C   0  0  0  0  0  0  0  0  0  0  0  0
   -1.4950   19.8480  -32.9520 C   0  0  0  0  0  0  0  0  0  0  0  0
   -0.1570   20.1610  -33.2070 C   0  0  0  0  0  0  0  0  0  0  0  0
    0.5630   19.4460  -34.1640 C   0  0  0  0  0  0  0  0  0  0  0  0
   -0.0450   18.3960  -34.8540 C   0  0  0  0  0  0  0  0  0  0  0  0
   -1.3820   18.0610  -34.5940 C   0  0  0  0  0  0  0  0  0  0  0  0
   -2.0340   16.9170  -35.3190 C   0  0  0  0  0  0  0  0  0  0  0  0
   -3.0280   16.2100  -34.3970 C   0  0  0  0  0  0  0  0  0  0  0  0
  -10.5433   21.8136  -31.4133 H   0  0  0  0  0  0  0  0  0  0  0  0
   -9.3451   22.0180  -32.7359 H   0  0  0  0  0  0  0  0  0  0  0  0
  -10.4500   20.6017  -32.7359 H   0  0  0  0  0  0  0  0  0  0  0  0
   -9.4771   18.0010  -32.0641 H   0  0  0  0  0  0  0  0  0  0  0  0
   -7.8629   16.3616  -32.9980 H   0  0  0  0  0  0  0  0  0  0  0  0
   -5.6355   15.8141  -33.7794 H   0  0  0  0  0  0  0  0  0  0  0  0
   -4.0688   20.4154  -32.7442 H   0  0  0  0  0  0  0  0  0  0  0  0
   -7.6905   22.3300  -33.0418 H   0  0  0  0  0  0  0  0  0  0  0  0
   -6.9834   24.6316  -32.3993 H   0  0  0  0  0  0  0  0  0  0  0  0
   -4.0131   22.9663  -29.7204 H   0  0  0  0  0  0  0  0  0  0  0  0
   -4.7257   20.6675  -30.3614 H   0  0  0  0  0  0  0  0  0  0  0  0
   -2.0506   20.4098  -32.1867 H   0  0  0  0  0  0  0  0  0  0  0  0
    0.3305   20.9750  -32.6504 H   0  0  0  0  0  0  0  0  0  0  0  0
    1.6099   19.7096  -34.3749 H   0  0  0  0  0  0  0  0  0  0  0  0
    0.5262   17.8294  -35.6041 H   0  0  0  0  0  0  0  0  0  0  0  0
   -2.5662   17.3014  -36.2016 H   0  0  0  0  0  0  0  0  0  0  0  0
   -1.2601   16.2006  -35.6317 H   0  0  0  0  0  0  0  0  0  0  0  0
   -3.6033   15.4750  -34.9790 H   0  0  0  0  0  0  0  0  0  0  0  0
   -2.4730   15.7033  -33.5937 H   0  0  0  0  0  0  0  0  0  0  0  0
  1  2  1  0
  2  3  1  0
  3  4  2  0
  4  5  1  0
  5  6  2  0
  6  7  1  0
  7  8  2  0
  8  9  1  0
  9 10  2  0
 10 11  1  0
 11 12  2  0
 12 13  1  0
 13 14  2  0
 14 15  1  0
 15 16  2  0
 16 17  1  0
 17 18  2  0
 17 19  1  0
 16 20  1  0
 20 21  2  0
  9 22  1  0
 22 23  2  0
 23 24  1  0
 24 25  2  0
 25 26  1  0
 26 27  2  0
 27 28  1  0
 28 29  1  0
 12  3  1  0
 21 13  1  0
 27 22  1  0
 11  6  1  0
 29  8  1  0
  1 30  1  0
  1 31  1  0
  1 32  1  0
  4 33  1  0
  5 34  1  0
  7 35  1  0
 10 36  1  0
 14 37  1  0
 15 38  1  0
 20 39  1  0
 21 40  1  0
 23 41  1  0
 24 42  1  0
 25 43  1  0
 26 44  1  0
 28 45  1  0
 28 46  1  0
 29 47  1  0
 29 48  1  0
M  CHG  3   9   1  17   1  19  -1
M  END
>  <UniqueID>  (13) 
12

>  <SMILES>  (13) 
COc1ccc2cc3[n+](cc2c1-c1ccc([N+](=O)[O-])cc1)-c1ccccc1CC3

>  <Energy>  (13) 
74.92182898046306

>  <Genealogy>  (13) 
COc1ccc2cc3[n+](cc2c1-c1ccc([N+](=O)[O-])cc1)-c1ccccc1CC3 (3D coordinates assigned)
COc1ccc2cc3[n+](cc2c1-c1ccc([N+](=O)[O-])cc1)-c1ccccc1CC3 (nonaromatic ring conformer: 74.92182898046306 kcal/mol)

>  <smiles>  (13) 
COc1ccc2cc3[n+](cc2c1-c1ccc([N+](=O)[O-])cc1)-c1ccccc1CC3

>  <score_type>  (13) 
oracle

>  <origin>  (13) 
adg

>  <m_score__min__energy>  (13) 
-9.4299999999999997

>  <m_primary>  (13) 
energy

$$$$
13:0
     RDKit          3D

 53 56  0  0  0  0  0  0  0  0999 V2000
   -1.9350   24.9830  -28.2190 C   0  0  0  0  0  0  0  0  0  0  0  0
   -2.7500   25.2950  -29.3430 O   0  0  0  0  0  0  0  0  0  0  0  0
   -3.7700   24.4680  -29.8370 C   0  0  0  0  0  0  0  0  0  0  0  0
   -5.0680   24.9430  -30.0980 C   0  0  0  0  0  0  0  0  0  0  0  0
   -6.0500   24.0790  -30.5920 C   0  0  0  0  0  0  0  0  0  0  0  0
   -5.7550   22.7250  -30.8330 C   0  0  0  0  0  0  0  0  0  0  0  0
   -6.7780   21.7870  -31.3530 C   0  0  0  0  0  0  0  0  0  0  0  0
   -6.5450   20.5110  -31.7310 N   0  0  0  0  0  0  0  0  0  0  0  0
   -7.7440   20.0540  -32.1310 C   0  0  0  0  0  0  0  0  0  0  0  0
   -8.0000   18.6650  -32.6590 C   0  0  0  0  0  0  0  0  0  0  0  0
   -6.7920   18.0040  -33.1980 N   0  0  0  0  0  0  0  0  0  0  0  0
   -6.1140   18.7960  -34.2430 C   0  0  0  0  0  0  0  0  0  0  0  0
   -5.0330   17.9710  -34.9770 C   0  0  0  0  0  0  0  0  0  0  0  0
   -4.5660   16.8210  -34.1770 N   0  0  0  0  0  0  0  0  0  0  0  0
   -3.7860   17.2440  -32.9930 C   0  0  0  0  0  0  0  0  0  0  0  0
   -2.9990   18.4870  -33.3090 C   0  0  0  0  0  0  0  0  0  0  0  0
   -3.4200   19.7300  -32.8090 C   0  0  0  0  0  0  0  0  0  0  0  0
   -2.7010   20.8900  -33.1110 C   0  0  0  0  0  0  0  0  0  0  0  0
   -1.5590   20.8190  -33.9130 C   0  0  0  0  0  0  0  0  0  0  0  0
   -1.1350   19.5860  -34.4160 C   0  0  0  0  0  0  0  0  0  0  0  0
   -1.8500   18.4230  -34.1170 C   0  0  0  0  0  0  0  0  0  0  0  0
   -5.6770   15.8980  -33.8350 C   0  0  0  0  0  0  0  0  0  0  0  0
   -7.0260   16.6170  -33.6300 C   0  0  0  0  0  0  0  0  0  0  0  0
   -8.6720   21.0600  -31.9810 C   0  0  0  0  0  0  0  0  0  0  0  0
   -8.0470   22.1100  -31.5010 O   0  0  0  0  0  0  0  0  0  0  0  0
   -4.4580   22.2570  -30.5680 C   0  0  0  0  0  0  0  0  0  0  0  0
   -3.4770   23.1210  -30.0760 C   0  0  0  0  0  0  0  0  0  0  0  0
   -2.4900   25.1955  -27.2934 H   0  0  0  0  0  0  0  0  0  0  0  0
   -1.6636   23.9174  -28.2474 H   0  0  0  0  0  0  0  0  0  0  0  0
   -1.0214   25.5950  -28.2474 H   0  0  0  0  0  0  0  0  0  0  0  0
   -5.3117   25.9995  -29.9125 H   0  0  0  0  0  0  0  0  0  0  0  0
   -7.0615   24.4612  -30.7938 H   0  0  0  0  0  0  0  0  0  0  0  0
   -5.6480   19.9790  -31.7220 H   0  0  0  0  0  0  0  0  0  0  0  0
   -8.3967   18.0489  -31.8386 H   0  0  0  0  0  0  0  0  0  0  0  0
   -8.7124   18.7628  -33.4914 H   0  0  0  0  0  0  0  0  0  0  0  0
   -6.8621   19.1342  -34.9751 H   0  0  0  0  0  0  0  0  0  0  0  0
   -5.6209   19.6514  -33.7580 H   0  0  0  0  0  0  0  0  0  0  0  0
   -5.4544   17.5969  -35.9217 H   0  0  0  0  0  0  0  0  0  0  0  0
   -4.1701   18.6297  -35.1548 H   0  0  0  0  0  0  0  0  0  0  0  0
   -4.4734   17.4507  -32.1595 H   0  0  0  0  0  0  0  0  0  0  0  0
   -3.0904   16.4389  -32.7138 H   0  0  0  0  0  0  0  0  0  0  0  0
   -4.3186   19.7909  -32.1775 H   0  0  0  0  0  0  0  0  0  0  0  0
   -3.0350   21.8610  -32.7164 H   0  0  0  0  0  0  0  0  0  0  0  0
   -0.9941   21.7330  -34.1483 H   0  0  0  0  0  0  0  0  0  0  0  0
   -0.2367   19.5308  -35.0485 H   0  0  0  0  0  0  0  0  0  0  0  0
   -1.5129   17.4545  -34.5150 H   0  0  0  0  0  0  0  0  0  0  0  0
   -5.7900   15.1698  -34.6517 H   0  0  0  0  0  0  0  0  0  0  0  0
   -5.4173   15.4145  -32.8817 H   0  0  0  0  0  0  0  0  0  0  0  0
   -7.5861   16.6191  -34.5768 H   0  0  0  0  0  0  0  0  0  0  0  0
   -7.6047   16.0892  -32.8577 H   0  0  0  0  0  0  0  0  0  0  0  0
   -9.7437   20.9956  -32.2202 H   0  0  0  0  0  0  0  0  0  0  0  0
   -4.2122   21.2003  -30.7495 H   0  0  0  0  0  0  0  0  0  0  0  0
   -2.4653   22.7391  -29.8747 H   0  0  0  0  0  0  0  0  0  0  0  0
  1  2  1  0
  2  3  1  0
  3  4  2  0
  4  5  1  0
  5  6  2  0
  6  7  1  0
  7  8  2  0
  8  9  1  0
  9 10  1  0
 10 11  1  0
 11 12  1  0
 12 13  1  0
 13 14  1  0
 14 15  1  0
 15 16  1  0
 16 17  2  0
 17 18  1  0
 18 19  2  0
 19 20  1  0
 20 21  2  0
 14 22  1  0
 22 23  1  0
  9 24  2  0
 24 25  1  0
  6 26  1  0
 26 27  2  0
 27  3  1  0
 25  7  1  0
 23 11  1  0
 21 16  1  0
  1 28  1  0
  1 29  1  0
  1 30  1  0
  4 31  1  0
  5 32  1  0
  8 33  1  0
 10 34  1  0
 10 35  1  0
 12 36  1  0
 12 37  1  0
 13 38  1  0
 13 39  1  0
 15 40  1  0
 15 41  1  0
 17 42  1  0
 18 43  1  0
 19 44  1  0
 20 45  1  0
 21 46  1  0
 22 47  1  0
 22 48  1  0
 23 49  1  0
 23 50  1  0
 24 51  1  0
 26 52  1  0
 27 53  1  0
M  CHG  1   8   1
M  END
>  <UniqueID>  (14) 
13

>  <SMILES>  (14) 
COc1ccc(-c2[nH+]c(CN3CCN(Cc4ccccc4)CC3)co2)cc1

>  <Energy>  (14) 
99.98687311877485

>  <Genealogy>  (14) 
COc1ccc(-c2[nH+]c(CN3CCN(Cc4ccccc4)CC3)co2)cc1 (protonated)
COc1ccc(-c2[nH+]c(CN3CCN(Cc4ccccc4)CC3)co2)cc1 (3D coordinates assigned)
COc1ccc(-c2[nH+]c(CN3CCN(Cc4ccccc4)CC3)co2)cc1 (nonaromatic ring conformer: 99.98687311877485 kcal/mol)

>  <smiles>  (14) 
COc1ccc(-c2nc(CN3CCN(Cc4ccccc4)CC3)co2)cc1

>  <score_type>  (14) 
oracle

>  <origin>  (14) 
adg

>  <m_score__min__energy>  (14) 
-7.8300000000000001

>  <m_primary>  (14) 
energy

$$$$
14:0
     RDKit          3D

 46 48  0  0  0  0  0  0  0  0999 V2000
   -4.6230   16.2380  -33.1260 C   0  0  0  0  0  0  0  0  0  0  0  0
   -6.0740   15.9010  -33.4730 C   0  0  0  0  0  0  0  0  0  0  0  0
   -6.8390   17.1190  -33.8130 N   0  0  0  0  0  0  0  0  0  0  0  0
   -5.9800   18.1380  -34.4740 C   0  0  0  0  0  0  0  0  0  0  0  0
   -6.4310   19.5780  -34.1980 C   0  0  0  0  0  0  0  0  0  0  0  0
   -6.4640   19.8180  -32.7510 N   0  0  0  0  0  0  0  0  0  0  0  0
   -6.1970   21.1320  -32.2060 C   0  0  0  0  0  0  0  0  0  0  0  0
   -7.1100   22.1830  -32.3840 C   0  0  0  0  0  0  0  0  0  0  0  0
   -6.8420   23.4530  -31.8660 C   0  0  0  0  0  0  0  0  0  0  0  0
   -5.6580   23.7050  -31.1530 C   0  0  0  0  0  0  0  0  0  0  0  0
   -5.4280   25.0150  -30.5960 N   0  0  0  0  0  0  0  0  0  0  0  0
   -6.2500   25.5120  -29.8010 O   0  0  0  0  0  0  0  0  0  0  0  0
   -4.2390   25.6730  -30.8110 O   0  0  0  0  0  0  0  0  0  0  0  0
   -4.7310   22.6530  -30.9760 C   0  0  0  0  0  0  0  0  0  0  0  0
   -3.4720   22.8730  -30.3310 N   0  0  0  0  0  0  0  0  0  0  0  0
   -2.2250   22.3420  -30.8490 C   0  0  0  0  0  0  0  0  0  0  0  0
   -1.1640   22.7470  -29.8340 C   0  0  0  0  0  0  0  0  0  0  0  0
   -1.9240   23.0890  -28.5530 C   0  0  0  0  0  0  0  0  0  0  0  0
   -3.3520   23.4010  -28.9830 C   0  0  0  0  0  0  0  0  0  0  0  0
   -5.0110   21.3800  -31.4970 C   0  0  0  0  0  0  0  0  0  0  0  0
   -6.8410   18.7080  -31.8630 C   0  0  0  0  0  0  0  0  0  0  0  0
   -7.6000   17.6270  -32.6440 C   0  0  0  0  0  0  0  0  0  0  0  0
   -4.5043   16.2656  -32.0328 H   0  0  0  0  0  0  0  0  0  0  0  0
   -3.9574   15.4705  -33.5478 H   0  0  0  0  0  0  0  0  0  0  0  0
   -4.3637   17.2203  -33.5478 H   0  0  0  0  0  0  0  0  0  0  0  0
   -6.0873   15.2168  -34.3342 H   0  0  0  0  0  0  0  0  0  0  0  0
   -6.5414   15.4296  -32.5959 H   0  0  0  0  0  0  0  0  0  0  0  0
   -4.9498   18.0178  -34.1077 H   0  0  0  0  0  0  0  0  0  0  0  0
   -6.0539   17.9742  -35.5592 H   0  0  0  0  0  0  0  0  0  0  0  0
   -5.7255   20.2785  -34.6687 H   0  0  0  0  0  0  0  0  0  0  0  0
   -7.4373   19.7305  -34.6152 H   0  0  0  0  0  0  0  0  0  0  0  0
   -8.0447   22.0055  -32.9361 H   0  0  0  0  0  0  0  0  0  0  0  0
   -7.5674   24.2657  -32.0185 H   0  0  0  0  0  0  0  0  0  0  0  0
   -2.2785   21.2466  -30.9344 H   0  0  0  0  0  0  0  0  0  0  0  0
   -2.0003   22.7287  -31.8540 H   0  0  0  0  0  0  0  0  0  0  0  0
   -0.4669   21.9150  -29.6555 H   0  0  0  0  0  0  0  0  0  0  0  0
   -0.5663   23.5989  -30.1904 H   0  0  0  0  0  0  0  0  0  0  0  0
   -1.9113   22.2339  -27.8611 H   0  0  0  0  0  0  0  0  0  0  0  0
   -1.4661   23.9401  -28.0277 H   0  0  0  0  0  0  0  0  0  0  0  0
   -4.0722   22.9103  -28.3117 H   0  0  0  0  0  0  0  0  0  0  0  0
   -3.5646   24.4796  -28.9453 H   0  0  0  0  0  0  0  0  0  0  0  0
   -4.2893   20.5634  -31.3473 H   0  0  0  0  0  0  0  0  0  0  0  0
   -5.9316   18.2683  -31.4275 H   0  0  0  0  0  0  0  0  0  0  0  0
   -7.4941   19.0958  -31.0674 H   0  0  0  0  0  0  0  0  0  0  0  0
   -7.8074   16.7851  -31.9671 H   0  0  0  0  0  0  0  0  0  0  0  0
   -8.5258   18.0829  -33.0249 H   0  0  0  0  0  0  0  0  0  0  0  0
  1  2  1  0
  2  3  1  0
  3  4  1  0
  4  5  1  0
  5  6  1  0
  6  7  1  0
  7  8  2  0
  8  9  1  0
  9 10  2  0
 10 11  1  0
 11 12  2  0
 11 13  1  0
 10 14  1  0
 14 15  1  0
 15 16  1  0
 16 17  1  0
 17 18  1  0
 18 19  1  0
 14 20  2  0
  6 21  1  0
 21 22  1  0
 22  3  1  0
 20  7  1  0
 19 15  1  0
  1 23  1  0
  1 24  1  0
  1 25  1  0
  2 26  1  0
  2 27  1  0
  4 28  1  0
  4 29  1  0
  5 30  1  0
  5 31  1  0
  8 32  1  0
  9 33  1  0
 16 34  1  0
 16 35  1  0
 17 36  1  0
 17 37  1  0
 18 38  1  0
 18 39  1  0
 19 40  1  0
 19 41  1  0
 20 42  1  0
 21 43  1  0
 21 44  1  0
 22 45  1  0
 22 46  1  0
M  CHG  2  11   1  13  -1
M  END
>  <UniqueID>  (15) 
14

>  <SMILES>  (15) 
CCN1CCN(c2ccc([N+](=O)[O-])c(N3CCCC3)c2)CC1

>  <Energy>  (15) 
63.78743017108961

>  <Genealogy>  (15) 
CCN1CCN(c2ccc([N+](=O)[O-])c(N3CCCC3)c2)CC1 (3D coordinates assigned)
CCN1CCN(c2ccc([N+](=O)[O-])c(N3CCCC3)c2)CC1 (nonaromatic ring conformer: 63.78743017108961 kcal/mol)

>  <smiles>  (15) 
CCN1CCN(c2ccc([N+](=O)[O-])c(N3CCCC3)c2)CC1

>  <score_type>  (15) 
oracle

>  <origin>  (15) 
adg

>  <m_score__min__energy>  (15) 
-8.0299999999999994

>  <m_primary>  (15) 
energy

$$$$
15:0
     RDKit          3D

 43 44  0  0  0  0  0  0  0  0999 V2000
   -2.9720   21.9350  -32.3650 C   0  0  0  0  0  0  0  0  0  0  0  0
   -2.8910   22.3790  -30.9630 N   0  0  2  0  0  0  0  0  0  0  0  0
   -1.6050   21.9850  -30.3310 C   0  0  0  0  0  0  0  0  0  0  0  0
   -0.8380   23.1700  -29.7150 C   0  0  0  0  0  0  0  0  0  0  0  0
   -1.7130   24.2490  -29.3820 O   0  0  0  0  0  0  0  0  0  0  0  0
   -1.7430   24.9280  -28.1530 C   0  0  0  0  0  0  0  0  0  0  0  0
   -0.7660   25.8720  -27.7760 C   0  0  0  0  0  0  0  0  0  0  0  0
   -0.8500   26.5150  -26.5370 C   0  0  0  0  0  0  0  0  0  0  0  0
   -1.9040   26.2270  -25.6670 C   0  0  0  0  0  0  0  0  0  0  0  0
   -2.8790   25.2980  -26.0360 C   0  0  0  0  0  0  0  0  0  0  0  0
   -2.8000   24.6530  -27.2750 C   0  0  0  0  0  0  0  0  0  0  0  0
   -4.0640   21.9160  -30.1740 C   0  0  0  0  0  0  0  0  0  0  0  0
   -5.4150   22.4220  -30.6830 C   0  0  0  0  0  0  0  0  0  0  0  0
   -6.3100   21.4640  -31.2040 C   0  0  0  0  0  0  0  0  0  0  0  0
   -7.5600   21.8350  -31.6940 C   0  0  0  0  0  0  0  0  0  0  0  0
   -7.9540   23.1690  -31.6620 C   0  0  0  0  0  0  0  0  0  0  0  0
   -7.1040   24.1350  -31.1270 C   0  0  0  0  0  0  0  0  0  0  0  0
   -5.8360   23.7870  -30.6200 C   0  0  0  0  0  0  0  0  0  0  0  0
   -5.0070   24.9120  -30.0360 C   0  0  0  0  0  0  0  0  0  0  0  0
   -3.8030   25.1230  -30.8350 N   0  0  0  0  0  0  0  0  0  0  0  0
   -3.1693   20.8533  -32.3962 H   0  0  0  0  0  0  0  0  0  0  0  0
   -3.7871   22.4712  -32.8729 H   0  0  0  0  0  0  0  0  0  0  0  0
   -2.0200   22.1489  -32.8729 H   0  0  0  0  0  0  0  0  0  0  0  0
   -2.9470   23.4250  -30.9680 H   0  0  0  0  0  0  0  0  0  0  0  0
   -1.8165   21.2552  -29.5356 H   0  0  0  0  0  0  0  0  0  0  0  0
   -0.9693   21.5635  -31.1236 H   0  0  0  0  0  0  0  0  0  0  0  0
   -0.3286   22.8290  -28.8016 H   0  0  0  0  0  0  0  0  0  0  0  0
   -0.1128   23.5330  -30.4582 H   0  0  0  0  0  0  0  0  0  0  0  0
    0.0650   26.1035  -28.4586 H   0  0  0  0  0  0  0  0  0  0  0  0
   -0.0841   27.2494  -26.2469 H   0  0  0  0  0  0  0  0  0  0  0  0
   -1.9660   26.7318  -24.6916 H   0  0  0  0  0  0  0  0  0  0  0  0
   -3.7103   25.0730  -25.3516 H   0  0  0  0  0  0  0  0  0  0  0  0
   -3.5730   23.9249  -27.5620 H   0  0  0  0  0  0  0  0  0  0  0  0
   -4.0794   20.8163  -30.1957 H   0  0  0  0  0  0  0  0  0  0  0  0
   -3.9394   22.3264  -29.1611 H   0  0  0  0  0  0  0  0  0  0  0  0
   -6.0153   20.4044  -31.2236 H   0  0  0  0  0  0  0  0  0  0  0  0
   -8.2366   21.0722  -32.1068 H   0  0  0  0  0  0  0  0  0  0  0  0
   -8.9372   23.4614  -32.0593 H   0  0  0  0  0  0  0  0  0  0  0  0
   -7.4279   25.1859  -31.1000 H   0  0  0  0  0  0  0  0  0  0  0  0
   -5.6037   25.8360  -30.0283 H   0  0  0  0  0  0  0  0  0  0  0  0
   -4.7130   24.6442  -29.0104 H   0  0  0  0  0  0  0  0  0  0  0  0
   -4.0430   25.7480  -31.6380 H   0  0  0  0  0  0  0  0  0  0  0  0
   -3.1160   25.6460  -30.2460 H   0  0  0  0  0  0  0  0  0  0  0  0
  1  2  1  0
  2  3  1  0
  3  4  1  0
  4  5  1  0
  5  6  1  0
  6  7  2  0
  7  8  1  0
  8  9  2  0
  9 10  1  0
 10 11  2  0
  2 12  1  0
 12 13  1  0
 13 14  2  0
 14 15  1  0
 15 16  2  0
 16 17  1  0
 17 18  2  0
 18 19  1  0
 19 20  1  0
 11  6  1  0
 18 13  1  0
  1 21  1  0
  1 22  1  0
  1 23  1  0
  2 24  1  6
  3 25  1  0
  3 26  1  0
  4 27  1  0
  4 28  1  0
  7 29  1  0
  8 30  1  0
  9 31  1  0
 10 32  1  0
 11 33  1  0
 12 34  1  0
 12 35  1  0
 14 36  1  0
 15 37  1  0
 16 38  1  0
 17 39  1  0
 19 40  1  0
 19 41  1  0
 20 42  1  0
 20 43  1  0
M  CHG  1   2   1
M  END
>  <UniqueID>  (16) 
15

>  <SMILES>  (16) 
C[N@H+](CCOc1ccccc1)Cc1ccccc1CN

>  <Energy>  (16) 
50.03106332735034

>  <Genealogy>  (16) 
C[NH+](CCOc1ccccc1)Cc1ccccc1CN (protonated)
C[N@H+](CCOc1ccccc1)Cc1ccccc1CN (chirality)
C[N@H+](CCOc1ccccc1)Cc1ccccc1CN (3D coordinates assigned)
C[N@H+](CCOc1ccccc1)Cc1ccccc1CN (optimized conformer: 50.03106332735034 kcal/mol)

>  <smiles>  (16) 
CN(CCOc1ccccc1)Cc1ccccc1CN

>  <score_type>  (16) 
oracle

>  <origin>  (16) 
adg

>  <m_score__min__energy>  (16) 
-6.4400000000000004

>  <m_primary>  (16) 
energy

$$$$
16:0
     RDKit          3D

 44 46  0  0  0  0  0  0  0  0999 V2000
   -8.7900   22.0710  -32.0100 C   0  0  0  0  0  0  0  0  0  0  0  0
   -8.3470   20.6500  -32.1920 C   0  0  0  0  0  0  0  0  0  0  0  0
   -9.0630   19.6030  -31.5940 C   0  0  0  0  0  0  0  0  0  0  0  0
   -8.6740   18.2770  -31.8000 C   0  0  0  0  0  0  0  0  0  0  0  0
   -7.5710   17.9870  -32.6070 C   0  0  0  0  0  0  0  0  0  0  0  0
   -6.8430   19.0230  -33.2150 C   0  0  0  0  0  0  0  0  0  0  0  0
   -5.6770   18.7050  -34.0740 C   0  0  0  0  0  0  0  0  0  0  0  0
   -5.7130   17.6860  -34.8130 O   0  0  0  0  0  0  0  0  0  0  0  0
   -4.5190   19.5510  -34.1320 N   0  0  0  0  0  0  0  0  0  0  0  0
   -3.7720   20.0420  -33.0090 C   0  0  0  0  0  0  0  0  0  0  0  0
   -4.4510   20.3370  -31.8220 C   0  0  0  0  0  0  0  0  0  0  0  0
   -3.7540   20.8210  -30.7110 C   0  0  0  0  0  0  0  0  0  0  0  0
   -2.3650   21.0240  -30.7710 C   0  0  0  0  0  0  0  0  0  0  0  0
   -1.6410   21.5350  -29.5820 C   0  0  0  0  0  0  0  0  0  0  0  0
   -0.5860   20.9550  -29.2090 O   0  0  0  0  0  0  0  0  0  0  0  0
   -2.1260   22.6770  -28.8510 N   0  0  0  0  0  0  0  0  0  0  0  0
   -1.4580   23.2030  -27.6920 C   0  0  0  0  0  0  0  0  0  0  0  0
   -1.0160   22.3210  -26.6910 C   0  0  0  0  0  0  0  0  0  0  0  0
   -0.2880   22.7930  -25.5990 C   0  0  0  0  0  0  0  0  0  0  0  0
    0.0210   24.1480  -25.4990 C   0  0  0  0  0  0  0  0  0  0  0  0
   -0.4020   25.0370  -26.4890 C   0  0  0  0  0  0  0  0  0  0  0  0
   -1.1500   24.5840  -27.5930 C   0  0  0  0  0  0  0  0  0  0  0  0
   -1.6210   25.5710  -28.5960 C   0  0  0  0  0  0  0  0  0  0  0  0
   -2.5700   25.2830  -29.3720 O   0  0  0  0  0  0  0  0  0  0  0  0
   -1.0050   26.8110  -28.7250 O   0  0  0  0  0  0  0  0  0  0  0  0
   -1.6920   20.7630  -31.9780 C   0  0  0  0  0  0  0  0  0  0  0  0
   -2.3910   20.2810  -33.0890 C   0  0  0  0  0  0  0  0  0  0  0  0
   -7.2530   20.3530  -33.0210 C   0  0  0  0  0  0  0  0  0  0  0  0
   -8.8609   22.2983  -30.9361 H   0  0  0  0  0  0  0  0  0  0  0  0
   -8.0596   22.7459  -32.4802 H   0  0  0  0  0  0  0  0  0  0  0  0
   -9.7745   22.2112  -32.4802 H   0  0  0  0  0  0  0  0  0  0  0  0
   -9.9340   19.8265  -30.9605 H   0  0  0  0  0  0  0  0  0  0  0  0
   -9.2373   17.4597  -31.3259 H   0  0  0  0  0  0  0  0  0  0  0  0
   -7.2709   16.9409  -32.7672 H   0  0  0  0  0  0  0  0  0  0  0  0
   -5.5391   20.1873  -31.7625 H   0  0  0  0  0  0  0  0  0  0  0  0
   -4.2979   21.0449  -29.7815 H   0  0  0  0  0  0  0  0  0  0  0  0
   -2.9880   23.1700  -29.1730 H   0  0  0  0  0  0  0  0  0  0  0  0
   -1.2464   21.2483  -26.7695 H   0  0  0  0  0  0  0  0  0  0  0  0
    0.0426   22.0948  -24.8159 H   0  0  0  0  0  0  0  0  0  0  0  0
    0.5988   24.5177  -24.6391 H   0  0  0  0  0  0  0  0  0  0  0  0
   -0.1480   26.1040  -26.4057 H   0  0  0  0  0  0  0  0  0  0  0  0
   -0.6085   20.9392  -32.0485 H   0  0  0  0  0  0  0  0  0  0  0  0
   -1.8560   20.0881  -34.0306 H   0  0  0  0  0  0  0  0  0  0  0  0
   -6.7122   21.1688  -33.5230 H   0  0  0  0  0  0  0  0  0  0  0  0
  1  2  1  0
  2  3  2  0
  3  4  1  0
  4  5  2  0
  5  6  1  0
  6  7  1  0
  7  8  2  0
  7  9  1  0
  9 10  1  0
 10 11  2  0
 11 12  1  0
 12 13  2  0
 13 14  1  0
 14 15  2  0
 14 16  1  0
 16 17  1  0
 17 18  2  0
 18 19  1  0
 19 20  2  0
 20 21  1  0
 21 22  2  0
 22 23  1  0
 23 24  2  0
 23 25  1  0
 13 26  1  0
 26 27  2  0
  6 28  2  0
 28  2  1  0
 27 10  1  0
 22 17  1  0
  1 29  1  0
  1 30  1  0
  1 31  1  0
  3 32  1  0
  4 33  1  0
  5 34  1  0
 11 35  1  0
 12 36  1  0
 16 37  1  0
 18 38  1  0
 19 39  1  0
 20 40  1  0
 21 41  1  0
 26 42  1  0
 27 43  1  0
 28 44  1  0
M  CHG  2   9  -1  25  -1
M  END
>  <UniqueID>  (17) 
16

>  <SMILES>  (17) 
Cc1cccc(C(=O)[N-]c2ccc(C(=O)Nc3ccccc3C(=O)[O-])cc2)c1

>  <Energy>  (17) 
63.538561438839096

>  <Genealogy>  (17) 
Cc1cccc(C(=O)[N-]c2ccc(C(=O)Nc3ccccc3C(=O)[O-])cc2)c1 (protonated)
Cc1cccc(C(=O)[N-]c2ccc(C(=O)Nc3ccccc3C(=O)[O-])cc2)c1 (3D coordinates assigned)
Cc1cccc(C(=O)[N-]c2ccc(C(=O)Nc3ccccc3C(=O)[O-])cc2)c1 (optimized conformer: 63.538561438839096 kcal/mol)

>  <smiles>  (17) 
Cc1cccc(C(=O)Nc2ccc(C(=O)Nc3ccccc3C(=O)O)cc2)c1

>  <score_type>  (17) 
oracle

>  <origin>  (17) 
adg

>  <m_score__min__energy>  (17) 
-10.81

>  <m_primary>  (17) 
energy

$$$$
17:0
     RDKit          3D

 38 39  0  0  0  0  0  0  0  0999 V2000
   -3.7430   23.8620  -27.5000 C   0  0  0  0  0  0  0  0  0  0  0  0
   -4.6270   24.3720  -28.6310 C   0  0  0  0  0  0  0  0  0  0  0  0
   -4.2860   23.7030  -29.8860 N   0  0  0  0  0  0  0  0  0  0  0  0
   -3.2210   22.9150  -30.1150 C   0  0  0  0  0  0  0  0  0  0  0  0
   -3.1860   22.5060  -31.3970 N   0  0  0  0  0  0  0  0  0  0  0  0
   -4.2340   23.0430  -32.0070 N   0  0  0  0  0  0  0  0  0  0  0  0
   -4.8890   23.7830  -31.0900 C   0  0  0  0  0  0  0  0  0  0  0  0
   -6.1530   24.5420  -31.3810 C   0  0  0  0  0  0  0  0  0  0  0  0
   -6.8470   23.9270  -32.5160 N   0  0  0  0  0  0  0  0  0  0  0  0
   -7.8880   22.9910  -32.0720 C   0  0  0  0  0  0  0  0  0  0  0  0
   -7.2450   21.6940  -31.5510 C   0  0  0  0  0  0  0  0  0  0  0  0
   -6.0140   21.3290  -32.2770 N   0  0  0  0  0  0  0  0  0  0  0  0
   -6.0880   20.0010  -32.8470 C   0  0  0  0  0  0  0  0  0  0  0  0
   -7.2090   19.1880  -32.5990 C   0  0  0  0  0  0  0  0  0  0  0  0
   -7.2590   17.8800  -33.0900 C   0  0  0  0  0  0  0  0  0  0  0  0
   -6.1930   17.3710  -33.8350 C   0  0  0  0  0  0  0  0  0  0  0  0
   -5.0780   18.1700  -34.0970 C   0  0  0  0  0  0  0  0  0  0  0  0
   -5.0220   19.4810  -33.6120 C   0  0  0  0  0  0  0  0  0  0  0  0
   -3.9210   20.2300  -33.8670 F   0  0  0  0  0  0  0  0  0  0  0  0
   -4.1972   24.1240  -26.5330 H   0  0  0  0  0  0  0  0  0  0  0  0
   -3.6456   22.7689  -27.5752 H   0  0  0  0  0  0  0  0  0  0  0  0
   -2.7479   24.3248  -27.5752 H   0  0  0  0  0  0  0  0  0  0  0  0
   -5.6804   24.1698  -28.3871 H   0  0  0  0  0  0  0  0  0  0  0  0
   -4.4672   25.4540  -28.7486 H   0  0  0  0  0  0  0  0  0  0  0  0
   -2.4756   22.6404  -29.3541 H   0  0  0  0  0  0  0  0  0  0  0  0
   -6.8061   24.5180  -30.4962 H   0  0  0  0  0  0  0  0  0  0  0  0
   -5.9039   25.5847  -31.6273 H   0  0  0  0  0  0  0  0  0  0  0  0
   -6.1470   23.3890  -33.0790 H   0  0  0  0  0  0  0  0  0  0  0  0
   -8.4751   23.4554  -31.2660 H   0  0  0  0  0  0  0  0  0  0  0  0
   -8.5436   22.7517  -32.9222 H   0  0  0  0  0  0  0  0  0  0  0  0
   -6.9981   21.8278  -30.4875 H   0  0  0  0  0  0  0  0  0  0  0  0
   -7.9709   20.8820  -31.7050 H   0  0  0  0  0  0  0  0  0  0  0  0
   -5.1900   21.4210  -31.6390 H   0  0  0  0  0  0  0  0  0  0  0  0
   -5.8730   22.0150  -33.0550 H   0  0  0  0  0  0  0  0  0  0  0  0
   -8.0523   19.5844  -32.0145 H   0  0  0  0  0  0  0  0  0  0  0  0
   -8.1389   17.2511  -32.8893 H   0  0  0  0  0  0  0  0  0  0  0  0
   -6.2317   16.3397  -34.2158 H   0  0  0  0  0  0  0  0  0  0  0  0
   -4.2412   17.7673  -34.6865 H   0  0  0  0  0  0  0  0  0  0  0  0
  1  2  1  0
  2  3  1  0
  3  4  1  0
  4  5  2  0
  5  6  1  0
  6  7  2  0
  7  8  1  0
  8  9  1  0
  9 10  1  0
 10 11  1  0
 11 12  1  0
 12 13  1  0
 13 14  2  0
 14 15  1  0
 15 16  2  0
 16 17  1  0
 17 18  2  0
 18 19  1  0
  7  3  1  0
 18 13  1  0
  1 20  1  0
  1 21  1  0
  1 22  1  0
  2 23  1  0
  2 24  1  0
  4 25  1  0
  8 26  1  0
  8 27  1  0
  9 28  1  0
 10 29  1  0
 10 30  1  0
 11 31  1  0
 11 32  1  0
 12 33  1  0
 12 34  1  0
 14 35  1  0
 15 36  1  0
 16 37  1  0
 17 38  1  0
M  CHG  1  12   1
M  END
>  <UniqueID>  (18) 
17

>  <SMILES>  (18) 
CCn1cnnc1CNCC[NH2+]c1ccccc1F

>  <Energy>  (18) 
65.59363619520641

>  <Genealogy>  (18) 
CCn1cnnc1CNCC[NH2+]c1ccccc1F (protonated)
CCn1cnnc1CNCC[NH2+]c1ccccc1F (3D coordinates assigned)
CCn1cnnc1CNCC[NH2+]c1ccccc1F (optimized conformer: 65.59363619520641 kcal/mol)

>  <smiles>  (18) 
CCn1cnnc1CNCCNc1ccccc1F

>  <score_type>  (18) 
oracle

>  <origin>  (18) 
adg

>  <m_score__min__energy>  (18) 
-5.6600000000000001

>  <m_primary>  (18) 
energy

$$$$
18:0
     RDKit          3D

 45 49  0  0  0  0  0  0  0  0999 V2000
   -2.2320   21.5700  -31.1490 O   0  0  0  0  0  0  0  0  0  0  0  0
   -2.7670   22.6330  -30.7320 C   0  0  0  0  0  0  0  0  0  0  0  0
   -2.1010   23.3290  -29.7510 C   0  0  0  0  0  0  0  0  0  0  0  0
   -0.8970   22.9240  -29.2150 C   0  0  0  0  0  0  0  0  0  0  0  0
   -0.3090   23.6970  -28.2320 C   0  0  0  0  0  0  0  0  0  0  0  0
   -0.8550   24.8600  -27.7490 C   0  0  0  0  0  0  0  0  0  0  0  0
   -0.2380   25.6780  -26.7120 C   0  0  0  0  0  0  0  0  0  0  0  0
    0.1450   26.9870  -26.9030 C   0  0  0  0  0  0  0  0  0  0  0  0
    0.7330   27.7220  -25.8680 C   0  0  0  0  0  0  0  0  0  0  0  0
    0.9380   27.1410  -24.6260 C   0  0  0  0  0  0  0  0  0  0  0  0
    0.5530   25.8180  -24.4220 C   0  0  0  0  0  0  0  0  0  0  0  0
   -0.0230   25.1230  -25.4670 C   0  0  0  0  0  0  0  0  0  0  0  0
   -0.5010   23.4570  -25.1900 Cl  0  0  0  0  0  0  0  0  0  0  0  0
   -2.0470   25.2300  -28.3040 N   0  0  0  0  0  0  0  0  0  0  0  0
   -2.6440   24.5000  -29.2600 C   0  0  0  0  0  0  0  0  0  0  0  0
   -3.8260   24.9280  -29.7650 N   0  0  0  0  0  0  0  0  0  0  0  0
   -4.4940   24.2650  -30.7220 C   0  0  0  0  0  0  0  0  0  0  0  0
   -5.6540   24.4570  -31.3860 N   0  0  0  0  0  0  0  0  0  0  0  0
   -5.8200   23.4550  -32.2440 N   0  0  0  0  0  0  0  0  0  0  0  0
   -4.8100   22.6070  -32.1720 N   0  0  0  0  0  0  0  0  0  0  0  0
   -4.5640   21.3840  -32.9080 C   0  0  0  0  0  0  0  0  0  0  0  0
   -5.2080   20.1820  -32.2220 C   0  0  0  0  0  0  0  0  0  0  0  0
   -6.6730   20.3020  -32.1870 C   0  0  0  0  0  0  0  0  0  0  0  0
   -7.2110   21.1620  -31.2250 C   0  0  0  0  0  0  0  0  0  0  0  0
   -8.5860   21.3190  -31.1410 C   0  0  0  0  0  0  0  0  0  0  0  0
   -9.4360   20.6470  -31.9840 C   0  0  0  0  0  0  0  0  0  0  0  0
   -8.9190   19.7830  -32.9510 C   0  0  0  0  0  0  0  0  0  0  0  0
   -7.5300   19.6410  -33.0170 C   0  0  0  0  0  0  0  0  0  0  0  0
   -3.9740   23.0910  -31.2300 C   0  0  0  0  0  0  0  0  0  0  0  0
   -0.4123   22.0004  -29.5642 H   0  0  0  0  0  0  0  0  0  0  0  0
    0.6510   23.3613  -27.8129 H   0  0  0  0  0  0  0  0  0  0  0  0
   -0.0136   27.4611  -27.8828 H   0  0  0  0  0  0  0  0  0  0  0  0
    1.0341   28.7658  -26.0404 H   0  0  0  0  0  0  0  0  0  0  0  0
    1.3994   27.7182  -23.8111 H   0  0  0  0  0  0  0  0  0  0  0  0
    0.7052   25.3352  -23.4454 H   0  0  0  0  0  0  0  0  0  0  0  0
   -4.2450   25.8020  -29.4080 H   0  0  0  0  0  0  0  0  0  0  0  0
   -4.9826   21.4851  -33.9202 H   0  0  0  0  0  0  0  0  0  0  0  0
   -3.4774   21.2177  -32.9497 H   0  0  0  0  0  0  0  0  0  0  0  0
   -4.9373   19.2690  -32.7725 H   0  0  0  0  0  0  0  0  0  0  0  0
   -4.8406   20.1384  -31.1861 H   0  0  0  0  0  0  0  0  0  0  0  0
   -6.5481   21.7103  -30.5395 H   0  0  0  0  0  0  0  0  0  0  0  0
   -9.0049   21.9967  -30.3825 H   0  0  0  0  0  0  0  0  0  0  0  0
  -10.5233   20.7892  -31.8976 H   0  0  0  0  0  0  0  0  0  0  0  0
   -9.5810   19.2336  -33.6365 H   0  0  0  0  0  0  0  0  0  0  0  0
   -7.1080   18.9640  -33.7743 H   0  0  0  0  0  0  0  0  0  0  0  0
  1  2  2  0
  2  3  1  0
  3  4  2  0
  4  5  1  0
  5  6  2  0
  6  7  1  0
  7  8  2  0
  8  9  1  0
  9 10  2  0
 10 11  1  0
 11 12  2  0
 12 13  1  0
  6 14  1  0
 14 15  2  0
 15 16  1  0
 16 17  1  0
 17 18  1  0
 18 19  2  0
 19 20  1  0
 20 21  1  0
 21 22  1  0
 22 23  1  0
 23 24  2  0
 24 25  1  0
 25 26  2  0
 26 27  1  0
 27 28  2  0
 20 29  1  0
 29  2  1  0
 15  3  1  0
 29 17  2  0
 12  7  1  0
 28 23  1  0
  4 30  1  0
  5 31  1  0
  8 32  1  0
  9 33  1  0
 10 34  1  0
 11 35  1  0
 16 36  1  0
 21 37  1  0
 21 38  1  0
 22 39  1  0
 22 40  1  0
 24 41  1  0
 25 42  1  0
 26 43  1  0
 27 44  1  0
 28 45  1  0
M  END
>  <smiles>  (19) 
O=c1c2ccc(-c3ccccc3Cl)nc2[nH]c2nnn(CCc3ccccc3)c12

>  <score_type>  (19) 
oracle

>  <origin>  (19) 
adg

>  <m_score__min__energy>  (19) 
-9.9499999999999993

>  <m_primary>  (19) 
energy

$$$$
19:0
     RDKit          3D

 32 34  0  0  0  0  0  0  0  0999 V2000
   -5.9090   25.9480  -30.1540 O   0  0  0  0  0  0  0  0  0  0  0  0
   -5.2190   25.0800  -30.7280 N   0  0  0  0  0  0  0  0  0  0  0  0
   -3.8660   25.2920  -30.8480 O   0  0  0  0  0  0  0  0  0  0  0  0
   -5.8370   23.8750  -31.2270 C   0  0  0  0  0  0  0  0  0  0  0  0
   -7.2420   23.7980  -31.3680 C   0  0  0  0  0  0  0  0  0  0  0  0
   -7.8550   22.6340  -31.8600 C   0  0  0  0  0  0  0  0  0  0  0  0
   -7.0850   21.5190  -32.2220 C   0  0  0  0  0  0  0  0  0  0  0  0
   -5.6960   21.5800  -32.0800 C   0  0  0  0  0  0  0  0  0  0  0  0
   -4.7800   20.5660  -32.4150 C   0  0  0  0  0  0  0  0  0  0  0  0
   -5.1570   19.2860  -32.9380 N   0  0  0  0  0  0  0  0  0  0  0  0
   -6.3340   18.6150  -32.3800 C   0  0  0  0  0  0  0  0  0  0  0  0
   -6.6480   17.3390  -33.1660 C   0  0  0  0  0  0  0  0  0  0  0  0
   -6.4800   17.5840  -34.6040 N   0  0  0  0  0  0  0  0  0  0  0  0
   -5.0750   17.8510  -34.9710 C   0  0  0  0  0  0  0  0  0  0  0  0
   -4.2730   18.5910  -33.8770 C   0  0  0  0  0  0  0  0  0  0  0  0
   -3.4510   20.9280  -32.2150 C   0  0  0  0  0  0  0  0  0  0  0  0
   -3.4200   22.5010  -31.6070 S   0  0  0  0  0  0  0  0  0  0  0  0
   -5.0890   22.7380  -31.5980 C   0  0  0  0  0  0  0  0  0  0  0  0
   -7.8633   24.6616  -31.0885 H   0  0  0  0  0  0  0  0  0  0  0  0
   -8.9496   22.5965  -31.9624 H   0  0  0  0  0  0  0  0  0  0  0  0
   -7.5670   20.6103  -32.6118 H   0  0  0  0  0  0  0  0  0  0  0  0
   -6.1376   18.3538  -31.3297 H   0  0  0  0  0  0  0  0  0  0  0  0
   -7.1960   19.2950  -32.4474 H   0  0  0  0  0  0  0  0  0  0  0  0
   -5.9634   16.5381  -32.8500 H   0  0  0  0  0  0  0  0  0  0  0  0
   -7.6876   17.0386  -32.9687 H   0  0  0  0  0  0  0  0  0  0  0  0
   -6.8110   16.7410  -35.1300 H   0  0  0  0  0  0  0  0  0  0  0  0
   -7.0770   18.3960  -34.8910 H   0  0  0  0  0  0  0  0  0  0  0  0
   -4.5806   16.8892  -35.1723 H   0  0  0  0  0  0  0  0  0  0  0  0
   -5.0942   18.5081  -35.8530 H   0  0  0  0  0  0  0  0  0  0  0  0
   -3.6670   17.8596  -33.3222 H   0  0  0  0  0  0  0  0  0  0  0  0
   -3.6334   19.3402  -34.3664 H   0  0  0  0  0  0  0  0  0  0  0  0
   -2.5729   20.2974  -32.4183 H   0  0  0  0  0  0  0  0  0  0  0  0
  1  2  2  0
  2  3  1  0
  2  4  1  0
  4  5  2  0
  5  6  1  0
  6  7  2  0
  7  8  1  0
  8  9  1  0
  9 10  1  0
 10 11  1  0
 11 12  1  0
 12 13  1  0
 13 14  1  0
 14 15  1  0
  9 16  2  0
 16 17  1  0
 17 18  1  0
 18  4  1  0
 18  8  2  0
 15 10  1  0
  5 19  1  0
  6 20  1  0
  7 21  1  0
 11 22  1  0
 11 23  1  0
 12 24  1  0
 12 25  1  0
 13 26  1  0
 13 27  1  0
 14 28  1  0
 14 29  1  0
 15 30  1  0
 15 31  1  0
 16 32  1  0
M  CHG  3   2   1   3  -1  13   1
M  END
>  <UniqueID>  (20) 
18

>  <SMILES>  (20) 
O=[N+]([O-])c1cccc2c(N3CC[NH2+]CC3)csc12

>  <Energy>  (20) 
76.46433542640682

>  <Genealogy>  (20) 
O=[N+]([O-])c1cccc2c(N3CC[NH2+]CC3)csc12 (protonated)
O=[N+]([O-])c1cccc2c(N3CC[NH2+]CC3)csc12 (3D coordinates assigned)
O=[N+]([O-])c1cccc2c(N3CC[NH2+]CC3)csc12 (nonaromatic ring conformer: 76.46433542640682 kcal/mol)

>  <smiles>  (20) 
O=[N+]([O-])c1cccc2c(N3CCNCC3)csc12

>  <score_type>  (20) 
oracle

>  <origin>  (20) 
adg

>  <m_score__min__energy>  (20) 
-7.3399999999999999

>  <m_primary>  (20) 
energy

$$$$
20:0
     RDKit          3D

 40 42  0  0  0  0  0  0  0  0999 V2000
   -4.0258   16.4998  -35.3632 H   0  0  0  0  0  0  0  0  0  0  0  0
   -4.7070   17.1520  -34.7970 C   0  0  0  0  0  0  0  0  0  0  0  0
   -5.9530   16.8670  -34.5010 O   0  0  0  0  0  0  0  0  0  0  0  0
   -6.4720   17.8640  -33.8230 C   0  0  0  0  0  0  0  0  0  0  0  0
   -7.5038   17.9038  -33.4438 H   0  0  0  0  0  0  0  0  0  0  0  0
   -5.5210   18.8590  -33.6580 C   0  0  0  0  0  0  0  0  0  0  0  0
   -5.6880   20.1550  -32.9450 C   0  0  0  0  0  0  0  0  0  0  0  0
   -4.6930   21.1490  -33.0170 C   0  0  0  0  0  0  0  0  0  0  0  0
   -3.7826   20.9659  -33.6066 H   0  0  0  0  0  0  0  0  0  0  0  0
   -4.8500   22.3660  -32.3470 C   0  0  0  0  0  0  0  0  0  0  0  0
   -4.0650   23.1333  -32.4179 H   0  0  0  0  0  0  0  0  0  0  0  0
   -6.0010   22.6160  -31.5850 C   0  0  0  0  0  0  0  0  0  0  0  0
   -6.1480   23.9020  -30.8660 C   0  0  0  0  0  0  0  0  0  0  0  0
   -7.2450   24.5210  -30.9260 O   0  0  0  0  0  0  0  0  0  0  0  0
   -5.0720   24.4560  -30.0100 C   0  0  0  0  0  0  0  0  0  0  0  0
   -5.4550   25.1050  -28.7910 N   0  0  0  0  0  0  0  0  0  0  0  0
   -6.4580   25.1570  -28.5100 H   0  0  0  0  0  0  0  0  0  0  0  0
   -4.7440   25.5640  -28.1780 H   0  0  0  0  0  0  0  0  0  0  0  0
   -3.8050   24.4160  -30.3450 N   0  0  0  0  0  0  0  0  0  0  0  0
   -3.5150   24.9220  -31.2140 H   0  0  0  0  0  0  0  0  0  0  0  0
   -2.7420   23.7010  -29.6170 C   0  0  0  0  0  0  0  0  0  0  0  0
   -1.9601   24.4367  -29.3776 H   0  0  0  0  0  0  0  0  0  0  0  0
   -2.1900   22.5570  -30.4730 C   0  0  0  0  0  0  0  0  0  0  0  0
   -2.5098   22.6748  -31.5189 H   0  0  0  0  0  0  0  0  0  0  0  0
   -1.0901   22.5453  -30.4651 H   0  0  0  0  0  0  0  0  0  0  0  0
   -2.7610   21.2770  -29.8890 C   0  0  0  0  0  0  0  0  0  0  0  0
   -3.7182   21.0266  -30.3697 H   0  0  0  0  0  0  0  0  0  0  0  0
   -2.0932   20.4175  -30.0481 H   0  0  0  0  0  0  0  0  0  0  0  0
   -2.9660   21.5720  -28.4170 C   0  0  0  0  0  0  0  0  0  0  0  0
   -3.7942   20.9690  -28.0164 H   0  0  0  0  0  0  0  0  0  0  0  0
   -2.0725   21.3257  -27.8245 H   0  0  0  0  0  0  0  0  0  0  0  0
   -3.3020   23.0540  -28.3390 C   0  0  0  0  0  0  0  0  0  0  0  0
   -4.3920   23.1937  -28.2895 H   0  0  0  0  0  0  0  0  0  0  0  0
   -2.8657   23.5122  -27.4392 H   0  0  0  0  0  0  0  0  0  0  0  0
   -6.9990   21.6330  -31.5190 C   0  0  0  0  0  0  0  0  0  0  0  0
   -7.9125   21.8217  -30.9359 H   0  0  0  0  0  0  0  0  0  0  0  0
   -6.8430   20.4150  -32.1880 C   0  0  0  0  0  0  0  0  0  0  0  0
   -7.6328   19.6523  -32.1210 H   0  0  0  0  0  0  0  0  0  0  0  0
   -4.3800   18.3930  -34.2910 C   0  0  0  0  0  0  0  0  0  0  0  0
   -3.4112   18.9075  -34.3733 H   0  0  0  0  0  0  0  0  0  0  0  0
  1  2  1  0
  2  3  1  0
  3  4  1  0
  4  5  1  0
  4  6  2  0
  6  7  1  0
  7  8  2  0
  8  9  1  0
  8 10  1  0
 10 11  1  0
 10 12  2  0
 12 13  1  0
 13 14  2  0
 13 15  1  0
 15 16  1  0
 16 17  1  0
 16 18  1  0
 15 19  2  0
 19 20  1  0
 19 21  1  0
 21 22  1  0
 21 23  1  0
 23 24  1  0
 23 25  1  0
 23 26  1  0
 26 27  1  0
 26 28  1  0
 26 29  1  0
 29 30  1  0
 29 31  1  0
 29 32  1  0
 32 33  1  0
 32 34  1  0
 12 35  1  0
 35 36  1  0
 35 37  2  0
 37 38  1  0
  6 39  1  0
 39 40  1  0
 39  2  2  0
 37  7  1  0
 32 21  1  0
M  CHG  1  19   1
M  END
>  <UniqueID>  (21) 
19

>  <SMILES>  (21) 
N/C(=[NH+]/C1CCCC1)C(=O)c1ccc(-c2ccoc2)cc1

>  <Energy>  (21) 
77.73199091253471

>  <Genealogy>  (21) 
NC(=[NH+]C1CCCC1)C(=O)c1ccc(-c2ccoc2)cc1 (protonated)
N/C(=[NH+]/C1CCCC1)C(=O)c1ccc(-c2ccoc2)cc1 (cis-trans isomerization)
N/C(=[NH+]/C1CCCC1)C(=O)c1ccc(-c2ccoc2)cc1 (3D coordinates assigned)
N/C(=[NH+]/C1CCCC1)C(=O)c1ccc(-c2ccoc2)cc1 (nonaromatic ring conformer: 77.73199091253471 kcal/mol)

>  <smiles>  (21) 
NC(=NC1CCCC1)C(=O)c1ccc(-c2ccoc2)cc1

>  <score_type>  (21) 
oracle

>  <origin>  (21) 
adg

>  <m_score__min__energy>  (21) 
-7.5199999999999996

>  <m_primary>  (21) 
energy

$$$$
21:0
     RDKit          3D

 36 37  0  0  0  0  0  0  0  0999 V2000
   -7.1940   16.9790  -33.2140 C   0  0  0  0  0  0  0  0  0  0  0  0
   -6.9820   18.3110  -32.4870 C   0  0  0  0  0  0  0  0  0  0  0  0
   -5.6940   18.9990  -32.9760 C   0  0  0  0  0  0  0  0  0  0  0  0
   -5.4370   20.2780  -32.1640 C   0  0  0  0  0  0  0  0  0  0  0  0
   -6.6790   21.0380  -31.9440 N   0  0  0  0  0  0  0  0  0  0  0  0
   -6.7840   21.9320  -30.8190 C   0  0  0  0  0  0  0  0  0  0  0  0
   -7.8480   21.9550  -30.1430 O   0  0  0  0  0  0  0  0  0  0  0  0
   -5.6630   22.8130  -30.4270 C   0  0  0  0  0  0  0  0  0  0  0  0
   -4.5350   22.2900  -29.7760 C   0  0  0  0  0  0  0  0  0  0  0  0
   -3.4740   23.1260  -29.4180 C   0  0  0  0  0  0  0  0  0  0  0  0
   -3.5140   24.4940  -29.7130 C   0  0  0  0  0  0  0  0  0  0  0  0
   -2.4240   25.2900  -29.3290 O   0  0  0  0  0  0  0  0  0  0  0  0
   -1.4470   24.9160  -28.3610 C   0  0  0  0  0  0  0  0  0  0  0  0
   -0.8500   26.0470  -27.8330 F   0  0  0  0  0  0  0  0  0  0  0  0
   -0.4800   24.1410  -28.9710 F   0  0  0  0  0  0  0  0  0  0  0  0
   -4.6380   25.0180  -30.3800 C   0  0  0  0  0  0  0  0  0  0  0  0
   -5.6990   24.1810  -30.7390 C   0  0  0  0  0  0  0  0  0  0  0  0
   -7.8650   20.7240  -32.7490 C   0  0  0  0  0  0  0  0  0  0  0  0
   -8.2240   19.2320  -32.6350 C   0  0  0  0  0  0  0  0  0  0  0  0
   -7.3221   16.1743  -32.4751 H   0  0  0  0  0  0  0  0  0  0  0  0
   -8.0930   17.0444  -33.8444 H   0  0  0  0  0  0  0  0  0  0  0  0
   -6.3191   16.7621  -33.8444 H   0  0  0  0  0  0  0  0  0  0  0  0
   -6.8591   18.1049  -31.4135 H   0  0  0  0  0  0  0  0  0  0  0  0
   -4.8444   18.3117  -32.8506 H   0  0  0  0  0  0  0  0  0  0  0  0
   -5.8082   19.2636  -34.0376 H   0  0  0  0  0  0  0  0  0  0  0  0
   -5.0096   20.0020  -31.1887 H   0  0  0  0  0  0  0  0  0  0  0  0
   -4.7408   20.9126  -32.7320 H   0  0  0  0  0  0  0  0  0  0  0  0
   -4.4858   21.2154  -29.5462 H   0  0  0  0  0  0  0  0  0  0  0  0
   -2.5996   22.7055  -28.8998 H   0  0  0  0  0  0  0  0  0  0  0  0
   -1.9342   24.3495  -27.5537 H   0  0  0  0  0  0  0  0  0  0  0  0
   -4.6816   26.0907  -30.6197 H   0  0  0  0  0  0  0  0  0  0  0  0
   -6.5679   24.5975  -31.2696 H   0  0  0  0  0  0  0  0  0  0  0  0
   -8.7129   21.3271  -32.3923 H   0  0  0  0  0  0  0  0  0  0  0  0
   -7.6471   20.9545  -33.8023 H   0  0  0  0  0  0  0  0  0  0  0  0
   -8.8679   19.0941  -31.7539 H   0  0  0  0  0  0  0  0  0  0  0  0
   -8.7319   18.9468  -33.5681 H   0  0  0  0  0  0  0  0  0  0  0  0
  1  2  1  0
  2  3  1  0
  3  4  1  0
  4  5  1  0
  5  6  1  0
  6  7  2  0
  6  8  1  0
  8  9  2  0
  9 10  1  0
 10 11  2  0
 11 12  1  0
 12 13  1  0
 13 14  1  0
 13 15  1  0
 11 16  1  0
 16 17  2  0
  5 18  1  0
 18 19  1  0
 19  2  1  0
 17  8  1  0
  1 20  1  0
  1 21  1  0
  1 22  1  0
  2 23  1  0
  3 24  1  0
  3 25  1  0
  4 26  1  0
  4 27  1  0
  9 28  1  0
 10 29  1  0
 13 30  1  0
 16 31  1  0
 17 32  1  0
 18 33  1  0
 18 34  1  0
 19 35  1  0
 19 36  1  0
M  END
>  <UniqueID>  (22) 
20

>  <SMILES>  (22) 
CC1CCN(C(=O)c2ccc(OC(F)F)cc2)CC1

>  <Energy>  (22) 
40.10407463165287

>  <Genealogy>  (22) 
CC1CCN(C(=O)c2ccc(OC(F)F)cc2)CC1 (3D coordinates assigned)
CC1CCN(C(=O)c2ccc(OC(F)F)cc2)CC1 (nonaromatic ring conformer: 40.10407463165287 kcal/mol)

>  <smiles>  (22) 
CC1CCN(C(=O)c2ccc(OC(F)F)cc2)CC1

>  <score_type>  (22) 
oracle

>  <origin>  (22) 
adg

>  <m_score__min__energy>  (22) 
-6.6799999999999997

>  <m_primary>  (22) 
energy

$$$$
22:0
     RDKit          3D

 40 42  0  0  0  0  0  0  0  0999 V2000
   -2.8470   20.0300  -27.4350 C   0  0  0  0  0  0  0  0  0  0  0  0
   -1.9790   21.2090  -27.8610 C   0  0  0  0  0  0  0  0  0  0  0  0
   -2.4930   21.8010  -29.1090 N   0  0  0  0  0  0  0  0  0  0  0  0
   -2.0320   21.2700  -30.3660 C   0  0  0  0  0  0  0  0  0  0  0  0
   -1.1210   20.4010  -30.4120 O   0  0  0  0  0  0  0  0  0  0  0  0
   -2.6010   21.7450  -31.5770 N   0  0  0  0  0  0  0  0  0  0  0  0
   -3.8060   22.5620  -31.5770 C   0  0  1  0  0  0  0  0  0  0  0  0
   -5.0200   21.6870  -31.8090 C   0  0  0  0  0  0  0  0  0  0  0  0
   -4.8550   20.3000  -32.0730 C   0  0  0  0  0  0  0  0  0  0  0  0
   -5.9710   19.4740  -32.3010 C   0  0  0  0  0  0  0  0  0  0  0  0
   -7.2310   20.0580  -32.2580 C   0  0  0  0  0  0  0  0  0  0  0  0
   -7.4010   21.3800  -32.0060 C   0  0  0  0  0  0  0  0  0  0  0  0
   -6.3270   22.2330  -31.7760 C   0  0  0  0  0  0  0  0  0  0  0  0
   -8.7500   21.6820  -32.0240 O   0  0  0  0  0  0  0  0  0  0  0  0
   -9.4700   20.4740  -32.3050 C   0  0  0  0  0  0  0  0  0  0  0  0
   -8.4620   19.4630  -32.4470 O   0  0  0  0  0  0  0  0  0  0  0  0
   -3.9560   23.3620  -30.2950 C   0  0  0  0  0  0  0  0  0  0  0  0
   -4.7430   24.6180  -30.3950 C   0  0  0  0  0  0  0  0  0  0  0  0
   -4.2110   25.6750  -30.8330 O   0  0  0  0  0  0  0  0  0  0  0  0
   -6.1020   24.6040  -30.0620 O   0  0  0  0  0  0  0  0  0  0  0  0
   -6.7310   25.6640  -29.3520 C   0  0  0  0  0  0  0  0  0  0  0  0
   -3.4550   22.8960  -29.1120 C   0  0  0  0  0  0  0  0  0  0  0  0
   -3.8590   23.5450  -27.8020 C   0  0  0  0  0  0  0  0  0  0  0  0
   -2.8839   19.9798  -26.3368 H   0  0  0  0  0  0  0  0  0  0  0  0
   -3.8649   20.1623  -27.8305 H   0  0  0  0  0  0  0  0  0  0  0  0
   -2.4184   19.0973  -27.8305 H   0  0  0  0  0  0  0  0  0  0  0  0
   -1.9881   21.9710  -27.0678 H   0  0  0  0  0  0  0  0  0  0  0  0
   -0.9523   20.8530  -28.0314 H   0  0  0  0  0  0  0  0  0  0  0  0
   -3.7196   23.2892  -32.3978 H   0  0  0  0  0  0  0  0  0  0  0  0
   -3.8438   19.8678  -32.0993 H   0  0  0  0  0  0  0  0  0  0  0  0
   -5.8498   18.4002  -32.5067 H   0  0  0  0  0  0  0  0  0  0  0  0
   -6.4878   23.3023  -31.5740 H   0  0  0  0  0  0  0  0  0  0  0  0
  -10.1499   20.2278  -31.4760 H   0  0  0  0  0  0  0  0  0  0  0  0
  -10.0923   20.5654  -33.2074 H   0  0  0  0  0  0  0  0  0  0  0  0
   -6.6290   25.4921  -28.2703 H   0  0  0  0  0  0  0  0  0  0  0  0
   -6.2528   26.6182  -29.6183 H   0  0  0  0  0  0  0  0  0  0  0  0
   -7.7976   25.7015  -29.6183 H   0  0  0  0  0  0  0  0  0  0  0  0
   -3.4833   22.9415  -26.9626 H   0  0  0  0  0  0  0  0  0  0  0  0
   -3.4309   24.5568  -27.7467 H   0  0  0  0  0  0  0  0  0  0  0  0
   -4.9558   23.6075  -27.7467 H   0  0  0  0  0  0  0  0  0  0  0  0
  1  2  1  0
  2  3  1  0
  3  4  1  0
  4  5  2  0
  4  6  1  0
  6  7  1  0
  7  8  1  0
  8  9  2  0
  9 10  1  0
 10 11  2  0
 11 12  1  0
 12 13  2  0
 12 14  1  0
 14 15  1  0
 15 16  1  0
  7 17  1  0
 17 18  1  0
 18 19  2  0
 18 20  1  0
 20 21  1  0
 17 22  2  0
 22 23  1  0
 22  3  1  0
 13  8  1  0
 16 11  1  0
  1 24  1  0
  1 25  1  0
  1 26  1  0
  2 27  1  0
  2 28  1  0
  7 29  1  6
  9 30  1  0
 10 31  1  0
 13 32  1  0
 15 33  1  0
 15 34  1  0
 21 35  1  0
 21 36  1  0
 21 37  1  0
 23 38  1  0
 23 39  1  0
 23 40  1  0
M  CHG  1   6  -1
M  END
>  <UniqueID>  (23) 
21

>  <SMILES>  (23) 
CCN1C(=O)[N-][C@@H](c2ccc3c(c2)OCO3)C(C(=O)OC)=C1C

>  <Energy>  (23) 
73.83093843915881

>  <Genealogy>  (23) 
CCN1C(=O)[N-]C(c2ccc3c(c2)OCO3)C(C(=O)OC)=C1C (protonated)
CCN1C(=O)[N-][C@@H](c2ccc3c(c2)OCO3)C(C(=O)OC)=C1C (chirality)
CCN1C(=O)[N-][C@@H](c2ccc3c(c2)OCO3)C(C(=O)OC)=C1C (3D coordinates assigned)
CCN1C(=O)[N-][C@@H](c2ccc3c(c2)OCO3)C(C(=O)OC)=C1C (nonaromatic ring conformer: 73.83093843915881 kcal/mol)

>  <smiles>  (23) 
CCN1C(=O)NC(c2ccc3c(c2)OCO3)C(C(=O)OC)=C1C

>  <score_type>  (23) 
oracle

>  <origin>  (23) 
adg

>  <m_score__min__energy>  (23) 
-7.2699999999999996

>  <m_primary>  (23) 
energy

$$$$
23:0
     RDKit          3D

 47 51  0  0  0  0  0  0  0  0999 V2000
   -3.6080   25.3030  -30.4570 O   0  0  0  0  0  0  0  0  0  0  0  0
   -3.6260   24.0920  -30.1120 C   0  0  0  0  0  0  0  0  0  0  0  0
   -2.5970   23.5930  -29.1800 C   0  0  0  0  0  0  0  0  0  0  0  0
   -1.7040   22.5470  -29.4080 C   0  0  0  0  0  0  0  0  0  0  0  0
   -0.9180   22.3600  -28.3190 N   0  0  0  0  0  0  0  0  0  0  0  0
   -1.2850   23.2630  -27.4230 N   0  0  0  0  0  0  0  0  0  0  0  0
   -0.7470   23.4540  -26.1950 C   0  0  0  0  0  0  0  0  0  0  0  0
   -1.2490   24.5050  -25.4150 C   0  0  0  0  0  0  0  0  0  0  0  0
   -2.2830   25.3090  -25.9380 C   0  0  0  0  0  0  0  0  0  0  0  0
   -2.7900   25.0570  -27.1830 N   0  0  0  0  0  0  0  0  0  0  0  0
   -2.2820   24.0190  -27.9010 C   0  0  0  0  0  0  0  0  0  0  0  0
   -4.6310   23.2180  -30.6510 N   0  0  0  0  0  0  0  0  0  0  0  0
   -6.0490   23.5350  -30.4400 C   0  0  0  0  0  0  0  0  0  0  0  0
   -6.8720   23.2140  -31.6940 C   0  0  0  0  0  0  0  0  0  0  0  0
   -6.5730   21.8120  -32.2910 C   0  0  0  0  0  0  0  0  0  0  0  0
   -7.7840   20.9740  -32.3650 N   0  0  0  0  0  0  0  0  0  0  0  0
   -8.9920   21.4510  -32.1170 N   0  0  0  0  0  0  0  0  0  0  0  0
   -9.8510   20.4310  -32.3120 C   0  0  0  0  0  0  0  0  0  0  0  0
   -9.2260   19.2940  -32.6880 N   0  0  0  0  0  0  0  0  0  0  0  0
   -7.9300   19.6690  -32.7050 C   0  0  0  0  0  0  0  0  0  0  0  0
   -6.8500   18.7400  -33.0770 C   0  0  0  0  0  0  0  0  0  0  0  0
   -6.6300   17.5700  -32.3380 C   0  0  0  0  0  0  0  0  0  0  0  0
   -5.6120   16.6950  -32.7260 C   0  0  0  0  0  0  0  0  0  0  0  0
   -4.8620   16.9630  -33.8320 N   0  0  0  0  0  0  0  0  0  0  0  0
   -5.0800   18.0720  -34.5890 C   0  0  0  0  0  0  0  0  0  0  0  0
   -6.0900   18.9730  -34.2350 C   0  0  0  0  0  0  0  0  0  0  0  0
   -5.4150   21.0700  -31.5950 C   0  0  0  0  0  0  0  0  0  0  0  0
   -4.2230   22.0090  -31.3790 C   0  0  0  0  0  0  0  0  0  0  0  0
   -1.6455   21.9592  -30.3359 H   0  0  0  0  0  0  0  0  0  0  0  0
    0.0586   22.8048  -25.8214 H   0  0  0  0  0  0  0  0  0  0  0  0
   -0.8431   24.6995  -24.4113 H   0  0  0  0  0  0  0  0  0  0  0  0
   -2.6834   26.1423  -25.3420 H   0  0  0  0  0  0  0  0  0  0  0  0
   -3.5430   25.6710  -27.5640 H   0  0  0  0  0  0  0  0  0  0  0  0
   -6.4298   22.9401  -29.5968 H   0  0  0  0  0  0  0  0  0  0  0  0
   -6.1414   24.6095  -30.2235 H   0  0  0  0  0  0  0  0  0  0  0  0
   -7.9391   23.2597  -31.4309 H   0  0  0  0  0  0  0  0  0  0  0  0
   -6.5979   23.9557  -32.4587 H   0  0  0  0  0  0  0  0  0  0  0  0
   -6.2297   22.0040  -33.3183 H   0  0  0  0  0  0  0  0  0  0  0  0
  -10.9398   20.5150  -32.1797 H   0  0  0  0  0  0  0  0  0  0  0  0
   -7.2530   17.3424  -31.4605 H   0  0  0  0  0  0  0  0  0  0  0  0
   -5.4153   15.7871  -32.1370 H   0  0  0  0  0  0  0  0  0  0  0  0
   -4.4622   18.2603  -35.4794 H   0  0  0  0  0  0  0  0  0  0  0  0
   -6.2874   19.8572  -34.8588 H   0  0  0  0  0  0  0  0  0  0  0  0
   -5.7604   20.6947  -30.6204 H   0  0  0  0  0  0  0  0  0  0  0  0
   -5.0955   20.2337  -32.2342 H   0  0  0  0  0  0  0  0  0  0  0  0
   -3.4510   21.4827  -30.7984 H   0  0  0  0  0  0  0  0  0  0  0  0
   -3.8292   22.3076  -32.3617 H   0  0  0  0  0  0  0  0  0  0  0  0
  1  2  2  0
  2  3  1  0
  3  4  1  0
  4  5  2  0
  5  6  1  0
  6  7  1  0
  7  8  2  0
  8  9  1  0
  9 10  2  0
 10 11  1  0
  2 12  1  0
 12 13  1  0
 13 14  1  0
 14 15  1  0
 15 16  1  0
 16 17  1  0
 17 18  2  0
 18 19  1  0
 19 20  2  0
 20 21  1  0
 21 22  2  0
 22 23  1  0
 23 24  2  0
 24 25  1  0
 25 26  2  0
 15 27  1  0
 27 28  1  0
 11  3  2  0
 28 12  1  0
 11  6  1  0
 20 16  1  0
 26 21  1  0
  4 29  1  0
  7 30  1  0
  8 31  1  0
  9 32  1  0
 10 33  1  0
 13 34  1  0
 13 35  1  0
 14 36  1  0
 14 37  1  0
 15 38  1  0
 18 39  1  0
 22 40  1  0
 23 41  1  0
 25 42  1  0
 26 43  1  0
 27 44  1  0
 27 45  1  0
 28 46  1  0
 28 47  1  0
M  CHG  1  10   1
M  END
>  <UniqueID>  (24) 
22

>  <SMILES>  (24) 
O=C(c1cnn2ccc[nH+]c12)N1CCC(n2ncnc2-c2ccncc2)CC1

>  <Energy>  (24) 
138.0033835440261

>  <Genealogy>  (24) 
O=C(c1cnn2ccc[nH+]c12)N1CCC(n2ncnc2-c2ccncc2)CC1 (protonated)
O=C(c1cnn2ccc[nH+]c12)N1CCC(n2ncnc2-c2ccncc2)CC1 (3D coordinates assigned)
O=C(c1cnn2ccc[nH+]c12)N1CCC(n2ncnc2-c2ccncc2)CC1 (nonaromatic ring conformer: 138.0033835440261 kcal/mol)

>  <smiles>  (24) 
O=C(c1cnn2cccnc12)N1CCC(n2ncnc2-c2ccncc2)CC1

>  <score_type>  (24) 
oracle

>  <origin>  (24) 
adg

>  <m_score__min__energy>  (24) 
-9.1600000000000001

>  <m_primary>  (24) 
energy

$$$$
24:0
     RDKit          3D

 41 43  0  0  0  0  0  0  0  0999 V2000
   -1.0450   21.1350  -26.6880 C   0  0  0  0  0  0  0  0  0  0  0  0
   -0.7490   21.9210  -27.9380 C   0  0  0  0  0  0  0  0  0  0  0  0
   -1.9280   22.1320  -28.7820 C   0  0  0  0  0  0  0  0  0  0  0  0
   -2.4410   23.2570  -29.3870 C   0  0  0  0  0  0  0  0  0  0  0  0
   -3.5630   23.1160  -30.1110 C   0  0  0  0  0  0  0  0  0  0  0  0
   -4.2620   24.1250  -30.8150 C   0  0  0  0  0  0  0  0  0  0  0  0
   -3.8730   25.3150  -30.8270 O   0  0  0  0  0  0  0  0  0  0  0  0
   -5.3730   23.8100  -31.4910 N   0  0  0  0  0  0  0  0  0  0  0  0
   -5.9150   22.5820  -31.5740 C   0  0  0  0  0  0  0  0  0  0  0  0
   -7.1430   22.3440  -32.3460 C   0  0  0  0  0  0  0  0  0  0  0  0
   -8.0000   21.3410  -31.7710 N   0  0  0  0  0  0  0  0  0  0  0  0
   -9.1400   21.9070  -31.0850 C   0  0  0  0  0  0  0  0  0  0  0  0
   -8.3750   20.3110  -32.7100 C   0  0  0  0  0  0  0  0  0  0  0  0
   -7.2990   19.2880  -32.7660 C   0  0  0  0  0  0  0  0  0  0  0  0
   -7.1790   18.2770  -31.8240 C   0  0  0  0  0  0  0  0  0  0  0  0
   -6.1320   17.3600  -31.9620 C   0  0  0  0  0  0  0  0  0  0  0  0
   -5.2360   17.4650  -33.0210 C   0  0  0  0  0  0  0  0  0  0  0  0
   -5.3510   18.4730  -33.9650 C   0  0  0  0  0  0  0  0  0  0  0  0
   -6.3940   19.3770  -33.8180 C   0  0  0  0  0  0  0  0  0  0  0  0
   -5.2520   21.6030  -30.9000 N   0  0  0  0  0  0  0  0  0  0  0  0
   -4.1180   21.8800  -30.2000 C   0  0  0  0  0  0  0  0  0  0  0  0
   -3.1050   20.8010  -29.2680 S   0  0  0  0  0  0  0  0  0  0  0  0
   -0.8137   21.7492  -25.8053 H   0  0  0  0  0  0  0  0  0  0  0  0
   -2.1093   20.8574  -26.6728 H   0  0  0  0  0  0  0  0  0  0  0  0
   -0.4282   20.2243  -26.6728 H   0  0  0  0  0  0  0  0  0  0  0  0
   -0.3480   22.9029  -27.6464 H   0  0  0  0  0  0  0  0  0  0  0  0
   -0.0266   21.3369  -28.5271 H   0  0  0  0  0  0  0  0  0  0  0  0
   -1.9498   24.2356  -29.2812 H   0  0  0  0  0  0  0  0  0  0  0  0
   -7.7044   23.2881  -32.4061 H   0  0  0  0  0  0  0  0  0  0  0  0
   -6.8353   21.9762  -33.3360 H   0  0  0  0  0  0  0  0  0  0  0  0
   -8.9884   21.8317  -29.9981 H   0  0  0  0  0  0  0  0  0  0  0  0
   -9.2501   22.9644  -31.3675 H   0  0  0  0  0  0  0  0  0  0  0  0
  -10.0489   21.3555  -31.3675 H   0  0  0  0  0  0  0  0  0  0  0  0
   -9.3142   19.8401  -32.3843 H   0  0  0  0  0  0  0  0  0  0  0  0
   -8.5178   20.7531  -33.7071 H   0  0  0  0  0  0  0  0  0  0  0  0
   -7.8902   18.1983  -30.9885 H   0  0  0  0  0  0  0  0  0  0  0  0
   -6.0161   16.5494  -31.2274 H   0  0  0  0  0  0  0  0  0  0  0  0
   -4.4197   16.7331  -33.1109 H   0  0  0  0  0  0  0  0  0  0  0  0
   -4.6409   18.5539  -34.8012 H   0  0  0  0  0  0  0  0  0  0  0  0
   -6.5078   20.1864  -34.5542 H   0  0  0  0  0  0  0  0  0  0  0  0
   -5.6090   20.6440  -30.9200 H   0  0  0  0  0  0  0  0  0  0  0  0
  1  2  1  0
  2  3  1  0
  3  4  2  0
  4  5  1  0
  5  6  1  0
  6  7  2  0
  6  8  1  0
  8  9  2  0
  9 10  1  0
 10 11  1  0
 11 12  1  0
 11 13  1  0
 13 14  1  0
 14 15  2  0
 15 16  1  0
 16 17  2  0
 17 18  1  0
 18 19  2  0
  9 20  1  0
 20 21  1  0
 21 22  1  0
 22  3  1  0
 21  5  2  0
 19 14  1  0
  1 23  1  0
  1 24  1  0
  1 25  1  0
  2 26  1  0
  2 27  1  0
  4 28  1  0
 10 29  1  0
 10 30  1  0
 12 31  1  0
 12 32  1  0
 12 33  1  0
 13 34  1  0
 13 35  1  0
 15 36  1  0
 16 37  1  0
 17 38  1  0
 18 39  1  0
 19 40  1  0
 20 41  1  0
M  END
>  <smiles>  (25) 
CCc1cc2c(=O)nc(CN(C)Cc3ccccc3)[nH]c2s1

>  <score_type>  (25) 
oracle

>  <origin>  (25) 
adg

>  <m_score__min__energy>  (25) 
-7.9800000000000004

>  <m_primary>  (25) 
energy

$$$$
25:0
     RDKit          3D

 33 34  0  0  0  0  0  0  0  0999 V2000
    0.2800   24.2840  -28.6470 O   0  0  0  0  0  0  0  0  0  0  0  0
   -0.8530   24.6270  -29.0740 C   0  0  0  0  0  0  0  0  0  0  0  0
   -1.7550   23.5880  -29.6700 C   0  0  0  0  0  0  0  0  0  0  0  0
   -3.1450   23.9550  -29.4320 N   0  0  0  0  0  0  0  0  0  0  0  0
   -4.0440   24.4540  -30.4290 C   0  0  0  0  0  0  0  0  0  0  0  0
   -3.9060   25.6390  -30.8320 O   0  0  0  0  0  0  0  0  0  0  0  0
   -5.1450   23.6310  -30.9740 C   0  0  0  0  0  0  0  0  0  0  0  0
   -4.8490   22.5240  -31.7870 C   0  0  0  0  0  0  0  0  0  0  0  0
   -5.8750   21.7310  -32.3080 C   0  0  0  0  0  0  0  0  0  0  0  0
   -7.2080   22.0420  -32.0300 C   0  0  0  0  0  0  0  0  0  0  0  0
   -7.5170   23.1480  -31.2370 C   0  0  0  0  0  0  0  0  0  0  0  0
   -6.4950   23.9500  -30.7110 C   0  0  0  0  0  0  0  0  0  0  0  0
   -6.9440   25.3200  -29.7010 Cl  0  0  0  0  0  0  0  0  0  0  0  0
   -1.2270   26.0100  -29.0110 N   0  0  0  0  0  0  0  0  0  0  0  0
   -0.8360   26.9470  -27.9590 C   0  0  0  0  0  0  0  0  0  0  0  0
   -0.6760   26.2400  -26.6400 C   0  0  0  0  0  0  0  0  0  0  0  0
    0.5610   26.2320  -25.9780 C   0  0  0  0  0  0  0  0  0  0  0  0
    0.6930   25.5820  -24.7500 C   0  0  0  0  0  0  0  0  0  0  0  0
   -0.4190   24.9530  -24.1870 C   0  0  0  0  0  0  0  0  0  0  0  0
   -1.6160   24.9800  -24.8300 N   0  0  0  0  0  0  0  0  0  0  0  0
   -1.7700   25.6070  -26.0270 C   0  0  0  0  0  0  0  0  0  0  0  0
   -1.5735   23.5229  -30.7530 H   0  0  0  0  0  0  0  0  0  0  0  0
   -1.5488   22.6133  -29.2037 H   0  0  0  0  0  0  0  0  0  0  0  0
   -3.8011   22.2795  -32.0153 H   0  0  0  0  0  0  0  0  0  0  0  0
   -5.6328   20.8618  -32.9371 H   0  0  0  0  0  0  0  0  0  0  0  0
   -8.0149   21.4146  -32.4365 H   0  0  0  0  0  0  0  0  0  0  0  0
   -8.5682   23.3916  -31.0236 H   0  0  0  0  0  0  0  0  0  0  0  0
    0.1197   27.4176  -28.2333 H   0  0  0  0  0  0  0  0  0  0  0  0
   -1.6241   27.7074  -27.8560 H   0  0  0  0  0  0  0  0  0  0  0  0
    1.4278   26.7386  -26.4274 H   0  0  0  0  0  0  0  0  0  0  0  0
    1.6629   25.5655  -24.2313 H   0  0  0  0  0  0  0  0  0  0  0  0
   -0.3261   24.4346  -23.2213 H   0  0  0  0  0  0  0  0  0  0  0  0
   -2.7548   25.6185  -26.5169 H   0  0  0  0  0  0  0  0  0  0  0  0
  1  2  2  0
  2  3  1  0
  3  4  1  0
  4  5  1  0
  5  6  2  0
  5  7  1  0
  7  8  2  0
  8  9  1  0
  9 10  2  0
 10 11  1  0
 11 12  2  0
 12 13  1  0
  2 14  1  0
 14 15  1  0
 15 16  1  0
 16 17  2  0
 17 18  1  0
 18 19  2  0
 19 20  1  0
 20 21  2  0
 12  7  1  0
 21 16  1  0
  3 22  1  0
  3 23  1  0
  8 24  1  0
  9 25  1  0
 10 26  1  0
 11 27  1  0
 15 28  1  0
 15 29  1  0
 17 30  1  0
 18 31  1  0
 19 32  1  0
 21 33  1  0
M  CHG  2   4  -1  14  -1
M  END
>  <UniqueID>  (26) 
23

>  <SMILES>  (26) 
O=C(C[N-]C(=O)c1ccccc1Cl)[N-]Cc1cccnc1

>  <Energy>  (26) 
35.26502025882339

>  <Genealogy>  (26) 
O=C(C[N-]C(=O)c1ccccc1Cl)[N-]Cc1cccnc1 (protonated)
O=C(C[N-]C(=O)c1ccccc1Cl)[N-]Cc1cccnc1 (3D coordinates assigned)
O=C(C[N-]C(=O)c1ccccc1Cl)[N-]Cc1cccnc1 (optimized conformer: 35.26502025882339 kcal/mol)

>  <smiles>  (26) 
O=C(CNC(=O)c1ccccc1Cl)NCc1cccnc1

>  <score_type>  (26) 
oracle

>  <origin>  (26) 
adg

>  <m_score__min__energy>  (26) 
-10.48

>  <m_primary>  (26) 
energy

$$$$
26:0
     RDKit          3D

 47 51  0  0  0  0  0  0  0  0999 V2000
   -4.4770   23.0600  -32.2460 O   0  0  0  0  0  0  0  0  0  0  0  0
   -4.2200   21.8270  -32.1670 C   0  0  0  0  0  0  0  0  0  0  0  0
   -4.7430   20.8760  -33.2070 C   0  0  0  0  0  0  0  0  0  0  0  0
   -5.9620   20.1860  -32.7470 N   0  0  0  0  0  0  0  0  0  0  0  0
   -5.9900   18.7170  -32.8300 C   0  0  0  0  0  0  0  0  0  0  0  0
   -6.8760   18.1280  -31.7360 C   0  0  0  0  0  0  0  0  0  0  0  0
   -8.2930   18.6890  -31.8510 C   0  0  0  0  0  0  0  0  0  0  0  0
   -8.2870   20.1940  -31.8700 C   0  0  0  0  0  0  0  0  0  0  0  0
   -9.4450   20.8860  -31.4830 C   0  0  0  0  0  0  0  0  0  0  0  0
   -9.4790   22.2800  -31.5100 C   0  0  0  0  0  0  0  0  0  0  0  0
   -8.3600   22.9960  -31.9320 C   0  0  0  0  0  0  0  0  0  0  0  0
   -7.2060   22.3220  -32.3390 C   0  0  0  0  0  0  0  0  0  0  0  0
   -7.1540   20.9100  -32.3310 C   0  0  0  0  0  0  0  0  0  0  0  0
   -3.3630   21.3290  -31.1280 N   0  0  0  0  0  0  0  0  0  0  0  0
   -2.9730   22.0850  -29.9690 C   0  0  0  0  0  0  0  0  0  0  0  0
   -3.1100   21.4980  -28.6830 C   0  0  0  0  0  0  0  0  0  0  0  0
   -2.7650   22.2150  -27.5220 C   0  0  0  0  0  0  0  0  0  0  0  0
   -2.3000   23.5160  -27.6820 C   0  0  0  0  0  0  0  0  0  0  0  0
   -1.9270   24.3840  -26.7240 N   0  0  0  0  0  0  0  0  0  0  0  0
   -1.5920   25.4800  -27.4550 C   0  0  0  0  0  0  0  0  0  0  0  0
   -1.1110   26.7250  -26.8520 C   0  0  0  0  0  0  0  0  0  0  0  0
   -1.2390   27.0840  -25.5270 C   0  0  0  0  0  0  0  0  0  0  0  0
   -0.6460   28.3240  -25.4210 C   0  0  0  0  0  0  0  0  0  0  0  0
   -0.1930   28.6420  -26.6850 C   0  0  0  0  0  0  0  0  0  0  0  0
   -0.4850   27.6690  -27.5180 O   0  0  0  0  0  0  0  0  0  0  0  0
   -1.7440   25.3130  -28.7590 O   0  0  0  0  0  0  0  0  0  0  0  0
   -2.1850   24.0920  -28.9090 C   0  0  0  0  0  0  0  0  0  0  0  0
   -2.5130   23.4200  -30.0810 C   0  0  0  0  0  0  0  0  0  0  0  0
   -4.9759   21.4404  -34.1220 H   0  0  0  0  0  0  0  0  0  0  0  0
   -3.9700   20.1174  -33.3996 H   0  0  0  0  0  0  0  0  0  0  0  0
   -6.3845   18.4190  -33.8126 H   0  0  0  0  0  0  0  0  0  0  0  0
   -4.9663   18.3373  -32.6965 H   0  0  0  0  0  0  0  0  0  0  0  0
   -6.9079   17.0337  -31.8431 H   0  0  0  0  0  0  0  0  0  0  0  0
   -6.4610   18.3952  -30.7530 H   0  0  0  0  0  0  0  0  0  0  0  0
   -8.7494   18.3210  -32.7818 H   0  0  0  0  0  0  0  0  0  0  0  0
   -8.8698   18.3557  -30.9756 H   0  0  0  0  0  0  0  0  0  0  0  0
  -10.3326   20.3246  -31.1559 H   0  0  0  0  0  0  0  0  0  0  0  0
  -10.3886   22.8143  -31.1984 H   0  0  0  0  0  0  0  0  0  0  0  0
   -8.3857   24.0956  -31.9446 H   0  0  0  0  0  0  0  0  0  0  0  0
   -6.3282   22.8968  -32.6693 H   0  0  0  0  0  0  0  0  0  0  0  0
   -2.9420   20.3820  -31.2610 H   0  0  0  0  0  0  0  0  0  0  0  0
   -3.4906   20.4699  -28.5932 H   0  0  0  0  0  0  0  0  0  0  0  0
   -2.8597   21.7626  -26.5238 H   0  0  0  0  0  0  0  0  0  0  0  0
   -1.7145   26.5029  -24.7231 H   0  0  0  0  0  0  0  0  0  0  0  0
   -0.5528   28.9364  -24.5120 H   0  0  0  0  0  0  0  0  0  0  0  0
    0.3330   29.5698  -26.9544 H   0  0  0  0  0  0  0  0  0  0  0  0
   -2.4185   23.9085  -31.0621 H   0  0  0  0  0  0  0  0  0  0  0  0
  1  2  2  0
  2  3  1  0
  3  4  1  0
  4  5  1  0
  5  6  1  0
  6  7  1  0
  7  8  1  0
  8  9  2  0
  9 10  1  0
 10 11  2  0
 11 12  1  0
 12 13  2  0
  2 14  1  0
 14 15  1  0
 15 16  2  0
 16 17  1  0
 17 18  2  0
 18 19  1  0
 19 20  2  0
 20 21  1  0
 21 22  2  0
 22 23  1  0
 23 24  2  0
 24 25  1  0
 20 26  1  0
 26 27  1  0
 27 28  2  0
 13  4  1  0
 28 15  1  0
 13  8  1  0
 27 18  1  0
 25 21  1  0
  3 29  1  0
  3 30  1  0
  5 31  1  0
  5 32  1  0
  6 33  1  0
  6 34  1  0
  7 35  1  0
  7 36  1  0
  9 37  1  0
 10 38  1  0
 11 39  1  0
 12 40  1  0
 14 41  1  0
 16 42  1  0
 17 43  1  0
 22 44  1  0
 23 45  1  0
 24 46  1  0
 28 47  1  0
M  END
>  <UniqueID>  (27) 
24

>  <SMILES>  (27) 
O=C(CN1CCCc2ccccc21)Nc1ccc2nc(-c3ccco3)oc2c1

>  <Energy>  (27) 
118.7526734410497

>  <Genealogy>  (27) 
O=C(CN1CCCc2ccccc21)Nc1ccc2nc(-c3ccco3)oc2c1 (3D coordinates assigned)
O=C(CN1CCCc2ccccc21)Nc1ccc2nc(-c3ccco3)oc2c1 (nonaromatic ring conformer: 118.7526734410497 kcal/mol)

>  <smiles>  (27) 
O=C(CN1CCCc2ccccc21)Nc1ccc2nc(-c3ccco3)oc2c1

>  <score_type>  (27) 
oracle

>  <origin>  (27) 
adg

>  <m_score__min__energy>  (27) 
-9.4900000000000002

>  <m_primary>  (27) 
energy

$$$$
27:0
     RDKit          3D

 49 52  0  0  0  0  0  0  0  0999 V2000
   -4.2050   23.9400  -30.8470 C   0  0  0  0  0  0  0  0  0  0  0  0
   -5.5070   23.2590  -30.9190 N   0  0  0  0  0  0  0  0  0  0  0  0
   -6.2800   23.7500  -32.0810 C   0  0  0  0  0  0  0  0  0  0  0  0
   -7.7400   23.2550  -32.0410 C   0  0  0  0  0  0  0  0  0  0  0  0
   -7.8790   22.1580  -31.0640 N   0  0  0  0  0  0  0  0  0  0  0  0
   -9.2230   21.5440  -31.1140 C   0  0  0  0  0  0  0  0  0  0  0  0
   -9.3910   20.6960  -32.3820 C   0  0  0  0  0  0  0  0  0  0  0  0
   -8.1610   19.9630  -32.6730 N   0  0  0  0  0  0  0  0  0  0  0  0
   -7.0260   20.5340  -33.0450 N   0  0  0  0  0  0  0  0  0  0  0  0
   -6.1020   19.5490  -33.0870 C   0  0  0  0  0  0  0  0  0  0  0  0
   -4.6740   19.8170  -33.3580 C   0  0  0  0  0  0  0  0  0  0  0  0
   -3.8560   18.8460  -33.9610 C   0  0  0  0  0  0  0  0  0  0  0  0
   -2.5000   19.1050  -34.1830 C   0  0  0  0  0  0  0  0  0  0  0  0
   -1.9460   20.3260  -33.7890 C   0  0  0  0  0  0  0  0  0  0  0  0
   -2.7470   21.2870  -33.1670 C   0  0  0  0  0  0  0  0  0  0  0  0
   -4.1040   21.0330  -32.9440 C   0  0  0  0  0  0  0  0  0  0  0  0
   -6.6340   18.3490  -32.7360 N   0  0  0  0  0  0  0  0  0  0  0  0
   -6.0310   17.0460  -32.7350 C   0  0  0  0  0  0  0  0  0  0  0  0
   -5.5230   16.4510  -31.6330 N   0  0  0  0  0  0  0  0  0  0  0  0
   -4.9870   15.2320  -31.9040 C   0  0  0  0  0  0  0  0  0  0  0  0
   -5.0570   14.8480  -33.2390 C   0  0  0  0  0  0  0  0  0  0  0  0
   -5.8130   16.0850  -34.0990 S   0  0  0  0  0  0  0  0  0  0  0  0
   -7.9190   18.6560  -32.4740 C   0  0  0  0  0  0  0  0  0  0  0  0
   -8.7900   17.8240  -32.1030 O   0  0  0  0  0  0  0  0  0  0  0  0
   -7.5760   22.6490  -29.7030 C   0  0  0  0  0  0  0  0  0  0  0  0
   -6.2670   23.4640  -29.6730 C   0  0  0  0  0  0  0  0  0  0  0  0
   -3.9255   24.0862  -29.7932 H   0  0  0  0  0  0  0  0  0  0  0  0
   -3.4417   23.3256  -31.3470 H   0  0  0  0  0  0  0  0  0  0  0  0
   -4.2743   24.9174  -31.3470 H   0  0  0  0  0  0  0  0  0  0  0  0
   -6.2756   24.8500  -32.0738 H   0  0  0  0  0  0  0  0  0  0  0  0
   -5.8097   23.3615  -32.9964 H   0  0  0  0  0  0  0  0  0  0  0  0
   -8.3980   24.0869  -31.7494 H   0  0  0  0  0  0  0  0  0  0  0  0
   -8.0215   22.8857  -33.0382 H   0  0  0  0  0  0  0  0  0  0  0  0
   -9.3588   20.9023  -30.2310 H   0  0  0  0  0  0  0  0  0  0  0  0
   -9.9756   22.3462  -31.1255 H   0  0  0  0  0  0  0  0  0  0  0  0
  -10.2126   19.9800  -32.2326 H   0  0  0  0  0  0  0  0  0  0  0  0
   -9.6177   21.3614  -33.2281 H   0  0  0  0  0  0  0  0  0  0  0  0
   -4.2845   17.8779  -34.2596 H   0  0  0  0  0  0  0  0  0  0  0  0
   -1.8683   18.3465  -34.6685 H   0  0  0  0  0  0  0  0  0  0  0  0
   -0.8801   20.5303  -33.9684 H   0  0  0  0  0  0  0  0  0  0  0  0
   -2.3092   22.2457  -32.8519 H   0  0  0  0  0  0  0  0  0  0  0  0
   -4.7276   21.7879  -32.4427 H   0  0  0  0  0  0  0  0  0  0  0  0
   -5.5130   16.8810  -30.6820 H   0  0  0  0  0  0  0  0  0  0  0  0
   -4.5331   14.5982  -31.1279 H   0  0  0  0  0  0  0  0  0  0  0  0
   -4.6842   13.9025  -33.6599 H   0  0  0  0  0  0  0  0  0  0  0  0
   -8.4031   23.2889  -29.3618 H   0  0  0  0  0  0  0  0  0  0  0  0
   -7.4550   21.7784  -29.0416 H   0  0  0  0  0  0  0  0  0  0  0  0
   -6.5072   24.5321  -29.5662 H   0  0  0  0  0  0  0  0  0  0  0  0
   -5.6561   23.1277  -28.8223 H   0  0  0  0  0  0  0  0  0  0  0  0
  1  2  1  0
  2  3  1  0
  3  4  1  0
  4  5  1  0
  5  6  1  0
  6  7  1  0
  7  8  1  0
  8  9  1  0
  9 10  2  0
 10 11  1  0
 11 12  2  0
 12 13  1  0
 13 14  2  0
 14 15  1  0
 15 16  2  0
 10 17  1  0
 17 18  1  0
 18 19  2  0
 19 20  1  0
 20 21  2  0
 21 22  1  0
 17 23  1  0
 23 24  2  0
  5 25  1  0
 25 26  1  0
 26  2  1  0
 23  8  1  0
 16 11  1  0
 22 18  1  0
  1 27  1  0
  1 28  1  0
  1 29  1  0
  3 30  1  0
  3 31  1  0
  4 32  1  0
  4 33  1  0
  6 34  1  0
  6 35  1  0
  7 36  1  0
  7 37  1  0
 12 38  1  0
 13 39  1  0
 14 40  1  0
 15 41  1  0
 16 42  1  0
 19 43  1  0
 20 44  1  0
 21 45  1  0
 25 46  1  0
 25 47  1  0
 26 48  1  0
 26 49  1  0
M  CHG  1  19   1
M  END
>  <UniqueID>  (28) 
25

>  <SMILES>  (28) 
CN1CCN(CCn2nc(-c3ccccc3)n(-c3[nH+]ccs3)c2=O)CC1

>  <Energy>  (28) 
131.15454039447215

>  <Genealogy>  (28) 
CN1CCN(CCn2nc(-c3ccccc3)n(-c3[nH+]ccs3)c2=O)CC1 (protonated)
CN1CCN(CCn2nc(-c3ccccc3)n(-c3[nH+]ccs3)c2=O)CC1 (3D coordinates assigned)
CN1CCN(CCn2nc(-c3ccccc3)n(-c3[nH+]ccs3)c2=O)CC1 (nonaromatic ring conformer: 131.15454039447215 kcal/mol)

>  <smiles>  (28) 
CN1CCN(CCn2nc(-c3ccccc3)n(-c3nccs3)c2=O)CC1

>  <score_type>  (28) 
oracle

>  <origin>  (28) 
adg

>  <m_score__min__energy>  (28) 
-8.0600000000000005

>  <m_primary>  (28) 
energy

$$$$
28:0
     RDKit          3D

 48 50  0  0  0  0  0  0  0  0999 V2000
   -3.4900   18.5930  -25.9510 C   0  0  0  0  0  0  0  0  0  0  0  0
   -2.3960   18.5700  -26.7180 C   0  0  0  0  0  0  0  0  0  0  0  0
   -1.5150   19.7860  -26.8910 C   0  0  0  0  0  0  0  0  0  0  0  0
   -1.9200   20.6520  -28.0190 N   0  0  0  0  0  0  0  0  0  0  0  0
   -3.1310   21.4460  -27.7270 C   0  0  0  0  0  0  0  0  0  0  0  0
   -3.3490   22.5660  -28.7690 C   0  0  0  0  0  0  0  0  0  0  0  0
   -2.6980   22.2650  -30.0650 N   0  0  0  0  0  0  0  0  0  0  0  0
   -3.3340   21.0990  -30.7360 C   0  0  0  0  0  0  0  0  0  0  0  0
   -4.1050   21.5120  -32.0030 C   0  0  0  0  0  0  0  0  0  0  0  0
   -5.4340   22.0410  -31.6440 N   0  0  0  0  0  0  0  0  0  0  0  0
   -5.5500   23.4130  -31.2080 C   0  0  0  0  0  0  0  0  0  0  0  0
   -4.5440   24.1750  -31.1890 O   0  0  0  0  0  0  0  0  0  0  0  0
   -6.8710   23.9370  -30.7360 C   0  0  0  0  0  0  0  0  0  0  0  0
   -7.9880   23.4140  -31.6350 C   0  0  0  0  0  0  0  0  0  0  0  0
   -7.9100   21.9170  -31.7900 C   0  0  0  0  0  0  0  0  0  0  0  0
   -9.0910   21.1830  -31.9870 C   0  0  0  0  0  0  0  0  0  0  0  0
   -9.0380   19.8070  -32.1990 C   0  0  0  0  0  0  0  0  0  0  0  0
   -7.8090   19.1530  -32.2310 C   0  0  0  0  0  0  0  0  0  0  0  0
   -6.6240   19.8710  -32.0540 C   0  0  0  0  0  0  0  0  0  0  0  0
   -6.6520   21.2660  -31.8330 C   0  0  0  0  0  0  0  0  0  0  0  0
   -1.2270   22.0920  -29.9010 C   0  0  0  0  0  0  0  0  0  0  0  0
   -0.8290   21.4900  -28.5380 C   0  0  0  0  0  0  0  0  0  0  0  0
   -4.1084   17.6892  -25.8477 H   0  0  0  0  0  0  0  0  0  0  0  0
   -3.7722   19.5158  -25.4229 H   0  0  0  0  0  0  0  0  0  0  0  0
   -2.1287   17.6387  -27.2388 H   0  0  0  0  0  0  0  0  0  0  0  0
   -1.5542   20.3789  -25.9653 H   0  0  0  0  0  0  0  0  0  0  0  0
   -0.5005   19.4220  -27.1106 H   0  0  0  0  0  0  0  0  0  0  0  0
   -4.0049   20.7780  -27.7344 H   0  0  0  0  0  0  0  0  0  0  0  0
   -3.0012   21.9170  -26.7414 H   0  0  0  0  0  0  0  0  0  0  0  0
   -4.4294   22.6878  -28.9361 H   0  0  0  0  0  0  0  0  0  0  0  0
   -2.8966   23.4867  -28.3719 H   0  0  0  0  0  0  0  0  0  0  0  0
   -2.8510   23.1100  -30.6670 H   0  0  0  0  0  0  0  0  0  0  0  0
   -2.5504   20.3796  -31.0159 H   0  0  0  0  0  0  0  0  0  0  0  0
   -4.0517   20.6522  -30.0323 H   0  0  0  0  0  0  0  0  0  0  0  0
   -3.5372   22.2887  -32.5362 H   0  0  0  0  0  0  0  0  0  0  0  0
   -4.2333   20.6297  -32.6473 H   0  0  0  0  0  0  0  0  0  0  0  0
   -7.0478   23.6033  -29.7029 H   0  0  0  0  0  0  0  0  0  0  0  0
   -6.8595   25.0363  -30.7746 H   0  0  0  0  0  0  0  0  0  0  0  0
   -8.9590   23.6782  -31.1907 H   0  0  0  0  0  0  0  0  0  0  0  0
   -7.8774   23.8723  -32.6288 H   0  0  0  0  0  0  0  0  0  0  0  0
  -10.0633   21.6973  -31.9738 H   0  0  0  0  0  0  0  0  0  0  0  0
   -9.9678   19.2367  -32.3412 H   0  0  0  0  0  0  0  0  0  0  0  0
   -7.7712   18.0662  -32.3964 H   0  0  0  0  0  0  0  0  0  0  0  0
   -5.6587   19.3446  -32.0871 H   0  0  0  0  0  0  0  0  0  0  0  0
   -0.8636   21.4246  -30.6963 H   0  0  0  0  0  0  0  0  0  0  0  0
   -0.7740   23.0928  -29.9586 H   0  0  0  0  0  0  0  0  0  0  0  0
    0.0749   20.8754  -28.6615 H   0  0  0  0  0  0  0  0  0  0  0  0
   -0.6319   22.3061  -27.8272 H   0  0  0  0  0  0  0  0  0  0  0  0
  1  2  2  0
  2  3  1  0
  3  4  1  0
  4  5  1  0
  5  6  1  0
  6  7  1  0
  7  8  1  0
  8  9  1  0
  9 10  1  0
 10 11  1  0
 11 12  2  0
 11 13  1  0
 13 14  1  0
 14 15  1  0
 15 16  2  0
 16 17  1  0
 17 18  2  0
 18 19  1  0
 19 20  2  0
  7 21  1  0
 21 22  1  0
 22  4  1  0
 20 10  1  0
 20 15  1  0
  1 23  1  0
  1 24  1  0
  2 25  1  0
  3 26  1  0
  3 27  1  0
  5 28  1  0
  5 29  1  0
  6 30  1  0
  6 31  1  0
  7 32  1  0
  8 33  1  0
  8 34  1  0
  9 35  1  0
  9 36  1  0
 13 37  1  0
 13 38  1  0
 14 39  1  0
 14 40  1  0
 16 41  1  0
 17 42  1  0
 18 43  1  0
 19 44  1  0
 21 45  1  0
 21 46  1  0
 22 47  1  0
 22 48  1  0
M  CHG  1   7   1
M  END
>  <UniqueID>  (29) 
26

>  <SMILES>  (29) 
C=CCN1CC[NH+](CCN2C(=O)CCc3ccccc32)CC1

>  <Energy>  (29) 
63.51024437717341

>  <Genealogy>  (29) 
C=CCN1CC[NH+](CCN2C(=O)CCc3ccccc32)CC1 (protonated)
C=CCN1CC[NH+](CCN2C(=O)CCc3ccccc32)CC1 (3D coordinates assigned)
C=CCN1CC[NH+](CCN2C(=O)CCc3ccccc32)CC1 (nonaromatic ring conformer: 63.51024437717341 kcal/mol)

>  <smiles>  (29) 
C=CCN1CCN(CCN2C(=O)CCc3ccccc32)CC1

>  <score_type>  (29) 
oracle

>  <origin>  (29) 
adg

>  <m_score__min__energy>  (29) 
-7.1299999999999999

>  <m_primary>  (29) 
energy

$$$$
29:0
     RDKit          3D

 24 25  0  0  0  0  0  0  0  0999 V2000
   -4.6388   24.2171  -28.9805 H   0  0  0  0  0  0  0  0  0  0  0  0
   -4.8230   24.7410  -29.9300 C   0  0  0  0  0  0  0  0  0  0  0  0
   -3.8590   25.2940  -30.5250 O   0  0  0  0  0  0  0  0  0  0  0  0
   -6.1890   24.7800  -30.4760 C   0  0  0  0  0  0  0  0  0  0  0  0
   -6.9696   25.3174  -29.9176 H   0  0  0  0  0  0  0  0  0  0  0  0
   -6.5140   24.1820  -31.6320 C   0  0  0  0  0  0  0  0  0  0  0  0
   -6.2893   24.7206  -32.5644 H   0  0  0  0  0  0  0  0  0  0  0  0
   -7.1560   22.8440  -31.7470 C   0  0  0  0  0  0  0  0  0  0  0  0
   -8.5470   22.6400  -31.6270 C   0  0  0  0  0  0  0  0  0  0  0  0
   -9.2085   23.4983  -31.4377 H   0  0  0  0  0  0  0  0  0  0  0  0
   -9.0930   21.3600  -31.7460 C   0  0  0  0  0  0  0  0  0  0  0  0
  -10.1797   21.2183  -31.6506 H   0  0  0  0  0  0  0  0  0  0  0  0
   -8.2660   20.2560  -31.9860 C   0  0  0  0  0  0  0  0  0  0  0  0
   -8.8100   18.9670  -32.1060 C   0  0  0  0  0  0  0  0  0  0  0  0
   -9.8957   18.8175  -32.0112 H   0  0  0  0  0  0  0  0  0  0  0  0
   -7.9720   17.8730  -32.3460 C   0  0  0  0  0  0  0  0  0  0  0  0
   -8.4004   16.8641  -32.4390 H   0  0  0  0  0  0  0  0  0  0  0  0
   -6.5920   18.0580  -32.4680 C   0  0  0  0  0  0  0  0  0  0  0  0
   -5.9376   17.1944  -32.6575 H   0  0  0  0  0  0  0  0  0  0  0  0
   -6.0410   19.3370  -32.3500 C   0  0  0  0  0  0  0  0  0  0  0  0
   -4.9542   19.4770  -32.4462 H   0  0  0  0  0  0  0  0  0  0  0  0
   -6.8710   20.4440  -32.1090 C   0  0  0  0  0  0  0  0  0  0  0  0
   -6.3290   21.7320  -31.9900 C   0  0  0  0  0  0  0  0  0  0  0  0
   -5.2427   21.8748  -32.0880 H   0  0  0  0  0  0  0  0  0  0  0  0
  1  2  1  0
  2  3  2  0
  2  4  1  0
  4  5  1  0
  4  6  2  0
  6  7  1  0
  6  8  1  0
  8  9  2  0
  9 10  1  0
  9 11  1  0
 11 12  1  0
 11 13  2  0
 13 14  1  0
 14 15  1  0
 14 16  2  0
 16 17  1  0
 16 18  1  0
 18 19  1  0
 18 20  2  0
 20 21  1  0
 20 22  1  0
 22 23  2  0
 23 24  1  0
 23  8  1  0
 22 13  1  0
M  END
>  <UniqueID>  (30) 
27

>  <SMILES>  (30) 
O=C/C=C/c1ccc2ccccc2c1

>  <Energy>  (30) 
29.206017905478895

>  <Genealogy>  (30) 
O=C/C=C/c1ccc2ccccc2c1 (cis-trans isomerization)
O=C/C=C/c1ccc2ccccc2c1 (3D coordinates assigned)
O=C/C=C/c1ccc2ccccc2c1 (optimized conformer: 29.206017905478895 kcal/mol)

>  <smiles>  (30) 
O=CC=Cc1ccc2ccccc2c1

>  <score_type>  (30) 
oracle

>  <origin>  (30) 
adg

>  <m_score__min__energy>  (30) 
-7.54

>  <m_primary>  (30) 
energy

$$$$
30:0
     RDKit          3D

 53 54  0  0  0  0  0  0  0  0999 V2000
   -9.4320   19.1220  -32.2900 C   0  0  0  0  0  0  0  0  0  0  0  0
   -9.3060   20.4160  -32.5840 C   0  0  0  0  0  0  0  0  0  0  0  0
   -8.7700   21.4230  -31.6370 C   0  0  0  0  0  0  0  0  0  0  0  0
   -9.3720   21.5480  -30.4490 C   0  0  0  0  0  0  0  0  0  0  0  0
   -7.6270   22.3510  -32.0070 C   0  0  0  0  0  0  0  0  0  0  0  0
   -6.2490   21.9190  -31.4420 C   0  0  0  0  0  0  0  0  0  0  0  0
   -5.2840   21.1930  -32.4430 C   0  0  1  0  0  0  0  0  0  0  0  0
   -3.7970   21.4860  -32.0650 C   0  0  1  0  0  0  0  0  0  0  0  0
   -3.4210   21.0800  -30.6270 C   0  0  0  0  0  0  0  0  0  0  0  0
   -2.8480   20.8920  -33.0820 C   0  0  0  0  0  0  0  0  0  0  0  0
   -1.7620   21.4170  -33.2730 O   0  0  0  0  0  0  0  0  0  0  0  0
   -3.2270   19.6720  -33.8730 C   0  0  0  0  0  0  0  0  0  0  0  0
   -4.2670   18.8490  -33.0880 C   0  0  2  0  0  0  0  0  0  0  0  0
   -4.4510   17.3530  -33.5750 C   0  0  0  0  0  0  0  0  0  0  0  0
   -3.2480   16.5020  -33.0830 C   0  0  0  0  0  0  0  0  0  0  0  0
   -4.4900   17.2250  -35.1190 C   0  0  0  0  0  0  0  0  0  0  0  0
   -5.7520   16.7310  -32.9720 C   0  0  0  0  0  0  0  0  0  0  0  0
   -6.1470   17.3640  -31.6320 C   0  0  0  0  0  0  0  0  0  0  0  0
   -6.3800   18.8950  -31.6960 C   0  0  0  0  0  0  0  0  0  0  0  0
   -5.5990   19.6580  -32.8220 C   0  0  1  0  0  0  0  0  0  0  0  0
   -6.4840   19.7030  -34.1050 C   0  0  0  0  0  0  0  0  0  0  0  0
   -9.8375   18.4250  -33.0381 H   0  0  0  0  0  0  0  0  0  0  0  0
   -9.1305   18.7512  -31.2993 H   0  0  0  0  0  0  0  0  0  0  0  0
   -9.6165   20.7551  -33.5833 H   0  0  0  0  0  0  0  0  0  0  0  0
   -9.0027   22.2844  -29.7201 H   0  0  0  0  0  0  0  0  0  0  0  0
  -10.2363   20.9144  -30.2010 H   0  0  0  0  0  0  0  0  0  0  0  0
   -7.5539   22.3878  -33.1039 H   0  0  0  0  0  0  0  0  0  0  0  0
   -7.8581   23.3301  -31.5621 H   0  0  0  0  0  0  0  0  0  0  0  0
   -5.7374   22.8226  -31.0791 H   0  0  0  0  0  0  0  0  0  0  0  0
   -6.4719   21.1782  -30.6600 H   0  0  0  0  0  0  0  0  0  0  0  0
   -5.4982   21.6501  -33.4203 H   0  0  0  0  0  0  0  0  0  0  0  0
   -3.6925   22.5808  -32.0895 H   0  0  0  0  0  0  0  0  0  0  0  0
   -3.9892   21.6935  -29.9123 H   0  0  0  0  0  0  0  0  0  0  0  0
   -3.6617   20.0180  -30.4710 H   0  0  0  0  0  0  0  0  0  0  0  0
   -2.3437   21.2386  -30.4710 H   0  0  0  0  0  0  0  0  0  0  0  0
   -3.6565   19.9801  -34.8377 H   0  0  0  0  0  0  0  0  0  0  0  0
   -2.3316   19.0575  -34.0479 H   0  0  0  0  0  0  0  0  0  0  0  0
   -3.8304   18.6932  -32.0905 H   0  0  0  0  0  0  0  0  0  0  0  0
   -3.2322   16.4908  -31.9832 H   0  0  0  0  0  0  0  0  0  0  0  0
   -3.3487   15.4731  -33.4587 H   0  0  0  0  0  0  0  0  0  0  0  0
   -2.3113   16.9395  -33.4587 H   0  0  0  0  0  0  0  0  0  0  0  0
   -4.8004   16.2064  -35.3947 H   0  0  0  0  0  0  0  0  0  0  0  0
   -5.2078   17.9507  -35.5291 H   0  0  0  0  0  0  0  0  0  0  0  0
   -3.4895   17.4271  -35.5291 H   0  0  0  0  0  0  0  0  0  0  0  0
   -6.5755   16.8776  -33.6864 H   0  0  0  0  0  0  0  0  0  0  0  0
   -5.5555   15.6642  -32.7895 H   0  0  0  0  0  0  0  0  0  0  0  0
   -7.0764   16.8879  -31.2864 H   0  0  0  0  0  0  0  0  0  0  0  0
   -5.3034   17.2014  -30.9450 H   0  0  0  0  0  0  0  0  0  0  0  0
   -7.4548   19.0664  -31.8553 H   0  0  0  0  0  0  0  0  0  0  0  0
   -5.9992   19.2951  -30.7447 H   0  0  0  0  0  0  0  0  0  0  0  0
   -7.5443   19.7569  -33.8173 H   0  0  0  0  0  0  0  0  0  0  0  0
   -6.2204   20.5889  -34.7014 H   0  0  0  0  0  0  0  0  0  0  0  0
   -6.3116   18.7949  -34.7014 H   0  0  0  0  0  0  0  0  0  0  0  0
  1  2  2  0
  2  3  1  0
  3  4  2  0
  3  5  1  0
  5  6  1  0
  6  7  1  0
  7  8  1  0
  8  9  1  0
  8 10  1  0
 10 11  2  0
 10 12  1  0
 12 13  1  0
 13 14  1  0
 14 15  1  0
 14 16  1  0
 14 17  1  0
 17 18  1  0
 18 19  1  0
 19 20  1  0
 20 21  1  6
 20  7  1  0
 20 13  1  0
  1 22  1  0
  1 23  1  0
  2 24  1  0
  4 25  1  0
  4 26  1  0
  5 27  1  0
  5 28  1  0
  6 29  1  0
  6 30  1  0
  7 31  1  6
  8 32  1  1
  9 33  1  0
  9 34  1  0
  9 35  1  0
 12 36  1  0
 12 37  1  0
 13 38  1  1
 15 39  1  0
 15 40  1  0
 15 41  1  0
 16 42  1  0
 16 43  1  0
 16 44  1  0
 17 45  1  0
 17 46  1  0
 18 47  1  0
 18 48  1  0
 19 49  1  0
 19 50  1  0
 21 51  1  0
 21 52  1  0
 21 53  1  0
M  END
>  <UniqueID>  (31) 
28

>  <SMILES>  (31) 
C=CC(=C)CC[C@H]1[C@@H](C)C(=O)CC2C(C)(C)CCCC21C

>  <Energy>  (31) 
81.70024355136627

>  <Genealogy>  (31) 
C=CC(=C)CC[C@H]1[C@@H](C)C(=O)CC2C(C)(C)CCCC21C (chirality)
C=CC(=C)CC[C@H]1[C@@H](C)C(=O)CC2C(C)(C)CCCC21C (3D coordinates assigned)
C=CC(=C)CC[C@H]1[C@@H](C)C(=O)CC2C(C)(C)CCCC21C (nonaromatic ring conformer: 81.70024355136627 kcal/mol)

>  <smiles>  (31) 
C=CC(=C)CCC1C(C)C(=O)CC2C(C)(C)CCCC12C

>  <score_type>  (31) 
oracle

>  <origin>  (31) 
adg

>  <m_score__min__energy>  (31) 
-8.1899999999999995

>  <m_primary>  (31) 
energy

$$$$
31:0
     RDKit          3D

 63 67  0  0  0  0  0  0  0  0999 V2000
    0.1367   27.1359  -25.1340 H   0  0  0  0  0  0  0  0  0  0  0  0
   -0.4270   26.3120  -25.5960 C   0  0  0  0  0  0  0  0  0  0  0  0
   -1.8150   26.4000  -25.7220 C   0  0  0  0  0  0  0  0  0  0  0  0
   -2.3435   27.2955  -25.3631 H   0  0  0  0  0  0  0  0  0  0  0  0
   -2.5340   25.3510  -26.3040 C   0  0  0  0  0  0  0  0  0  0  0  0
   -3.6271   25.4257  -26.4023 H   0  0  0  0  0  0  0  0  0  0  0  0
   -1.8680   24.2020  -26.7640 C   0  0  0  0  0  0  0  0  0  0  0  0
   -2.6510   23.0690  -27.3910 C   0  0  0  0  0  0  0  0  0  0  0  0
   -3.6897   23.1273  -27.0336 H   0  0  0  0  0  0  0  0  0  0  0  0
   -2.1518   22.1350  -27.0935 H   0  0  0  0  0  0  0  0  0  0  0  0
   -2.6670   23.0940  -28.9360 C   0  0  1  0  0  0  0  0  0  0  0  0
   -3.6497   22.7169  -29.2555 H   0  0  0  0  0  0  0  0  0  0  0  0
   -2.5340   24.5010  -29.4630 C   0  0  0  0  0  0  0  0  0  0  0  0
   -1.5270   25.1880  -29.1410 O   0  0  0  0  0  0  0  0  0  0  0  0
   -3.4820   24.9980  -30.4200 N   0  0  0  0  0  0  0  0  0  0  0  0
   -4.8440   24.5740  -30.5940 C   0  0  0  0  0  0  0  0  0  0  0  0
   -5.9080   25.2790  -30.0040 C   0  0  0  0  0  0  0  0  0  0  0  0
   -5.6982   26.1699  -29.3938 H   0  0  0  0  0  0  0  0  0  0  0  0
   -7.2270   24.8610  -30.1840 C   0  0  0  0  0  0  0  0  0  0  0  0
   -8.0490   25.4289  -29.7238 H   0  0  0  0  0  0  0  0  0  0  0  0
   -7.5080   23.7260  -30.9450 C   0  0  0  0  0  0  0  0  0  0  0  0
   -8.5512   23.4118  -31.0965 H   0  0  0  0  0  0  0  0  0  0  0  0
   -6.4650   22.9850  -31.5170 C   0  0  0  0  0  0  0  0  0  0  0  0
   -6.7440   21.8320  -32.2660 C   0  0  0  0  0  0  0  0  0  0  0  0
   -7.7863   21.5116  -32.4106 H   0  0  0  0  0  0  0  0  0  0  0  0
   -5.7030   21.0890  -32.8290 C   0  0  0  0  0  0  0  0  0  0  0  0
   -5.9284   20.1891  -33.4201 H   0  0  0  0  0  0  0  0  0  0  0  0
   -4.3780   21.4860  -32.6430 C   0  0  0  0  0  0  0  0  0  0  0  0
   -3.5620   20.8962  -33.0860 H   0  0  0  0  0  0  0  0  0  0  0  0
   -4.0840   22.6300  -31.8960 C   0  0  0  0  0  0  0  0  0  0  0  0
   -3.0364   22.9312  -31.7483 H   0  0  0  0  0  0  0  0  0  0  0  0
   -5.1190   23.4000  -31.3310 C   0  0  0  0  0  0  0  0  0  0  0  0
   -1.6460   22.1600  -29.5370 C   0  0  0  0  0  0  0  0  0  0  0  0
   -0.4790   21.8150  -28.9500 N   0  0  0  0  0  0  0  0  0  0  0  0
    0.1580   21.0300  -29.8050 N   0  0  0  0  0  0  0  0  0  0  0  0
   -0.6440   20.9400  -30.8830 C   0  0  0  0  0  0  0  0  0  0  0  0
   -0.3720   20.2520  -31.9470 N   0  0  0  0  0  0  0  0  0  0  0  0
   -1.2200   19.1810  -32.4590 C   0  0  0  0  0  0  0  0  0  0  0  0
   -0.8967   18.2222  -32.0274 H   0  0  0  0  0  0  0  0  0  0  0  0
   -2.2647   19.3820  -32.1794 H   0  0  0  0  0  0  0  0  0  0  0  0
   -1.1120   19.1130  -33.9790 C   0  0  0  0  0  0  0  0  0  0  0  0
   -1.8541   19.7915  -34.4249 H   0  0  0  0  0  0  0  0  0  0  0  0
   -0.0961   19.4122  -34.2762 H   0  0  0  0  0  0  0  0  0  0  0  0
   -1.4230   17.4060  -34.5720 S   0  0  0  0  0  0  0  0  0  0  0  0
   -2.4780   16.8580  -33.1800 C   0  0  0  0  0  0  0  0  0  0  0  0
   -2.3625   15.7721  -33.0482 H   0  0  0  0  0  0  0  0  0  0  0  0
   -2.1637   17.3947  -32.2727 H   0  0  0  0  0  0  0  0  0  0  0  0
   -3.9300   17.1700  -33.4400 C   0  0  0  0  0  0  0  0  0  0  0  0
   -4.2710   18.1570  -34.3820 C   0  0  0  0  0  0  0  0  0  0  0  0
   -3.4771   18.6913  -34.9245 H   0  0  0  0  0  0  0  0  0  0  0  0
   -5.6100   18.4640  -34.6340 C   0  0  0  0  0  0  0  0  0  0  0  0
   -5.8676   19.2415  -35.3682 H   0  0  0  0  0  0  0  0  0  0  0  0
   -6.6220   17.7830  -33.9530 C   0  0  0  0  0  0  0  0  0  0  0  0
   -7.6766   18.0197  -34.1573 H   0  0  0  0  0  0  0  0  0  0  0  0
   -6.2970   16.8020  -33.0130 C   0  0  0  0  0  0  0  0  0  0  0  0
   -7.0963   16.2719  -32.4743 H   0  0  0  0  0  0  0  0  0  0  0  0
   -4.9560   16.4920  -32.7550 C   0  0  0  0  0  0  0  0  0  0  0  0
   -4.6680   15.5300  -31.8430 F   0  0  0  0  0  0  0  0  0  0  0  0
   -1.7430   21.6330  -30.7350 O   0  0  0  0  0  0  0  0  0  0  0  0
   -0.4700   24.1260  -26.6370 C   0  0  0  0  0  0  0  0  0  0  0  0
    0.0637   23.2338  -26.9963 H   0  0  0  0  0  0  0  0  0  0  0  0
    0.2460   25.1770  -26.0570 C   0  0  0  0  0  0  0  0  0  0  0  0
    1.3400   25.1108  -25.9633 H   0  0  0  0  0  0  0  0  0  0  0  0
  1  2  1  0
  2  3  2  0
  3  4  1  0
  3  5  1  0
  5  6  1  0
  5  7  2  0
  7  8  1  0
  8  9  1  0
  8 10  1  0
  8 11  1  0
 11 12  1  6
 11 13  1  0
 13 14  2  0
 13 15  1  0
 15 16  1  0
 16 17  2  0
 17 18  1  0
 17 19  1  0
 19 20  1  0
 19 21  2  0
 21 22  1  0
 21 23  1  0
 23 24  2  0
 24 25  1  0
 24 26  1  0
 26 27  1  0
 26 28  2  0
 28 29  1  0
 28 30  1  0
 30 31  1  0
 30 32  2  0
 11 33  1  0
 33 34  2  0
 34 35  1  0
 35 36  1  0
 36 37  2  0
 37 38  1  0
 38 39  1  0
 38 40  1  0
 38 41  1  0
 41 42  1  0
 41 43  1  0
 41 44  1  0
 44 45  1  0
 45 46  1  0
 45 47  1  0
 45 48  1  0
 48 49  2  0
 49 50  1  0
 49 51  1  0
 51 52  1  0
 51 53  2  0
 53 54  1  0
 53 55  1  0
 55 56  1  0
 55 57  2  0
 57 58  1  0
 36 59  1  0
  7 60  1  0
 60 61  1  0
 60 62  2  0
 62 63  1  0
 62  2  1  0
 32 16  1  0
 59 33  1  0
 32 23  1  0
 57 48  1  0
M  CHG  2  15  -1  35  -1
M  END
>  <UniqueID>  (32) 
29

>  <SMILES>  (32) 
O=C([N-]c1cccc2ccccc12)[C@H](Cc1ccccc1)c1n[n-]/c(=N\CCSCc2ccccc2F)o1

>  <Energy>  (32) 
100.1374927500314

>  <Genealogy>  (32) 
O=C([N-]c1cccc2ccccc12)C(Cc1ccccc1)c1n[n-]c(=NCCSCc2ccccc2F)o1 (protonated)
O=C([N-]c1cccc2ccccc12)[C@H](Cc1ccccc1)c1n[n-]c(=NCCSCc2ccccc2F)o1 (chirality)
O=C([N-]c1cccc2ccccc12)[C@H](Cc1ccccc1)c1n[n-]/c(=N\CCSCc2ccccc2F)o1 (cis-trans isomerization)
O=C([N-]c1cccc2ccccc12)[C@H](Cc1ccccc1)c1n[n-]/c(=N\CCSCc2ccccc2F)o1 (3D coordinates assigned)
O=C([N-]c1cccc2ccccc12)[C@H](Cc1ccccc1)c1n[n-]/c(=N\CCSCc2ccccc2F)o1 (optimized conformer: 100.1374927500314 kcal/mol)

>  <smiles>  (32) 
O=C(Nc1cccc2ccccc12)C(Cc1ccccc1)c1n[nH]c(=NCCSCc2ccccc2F)o1

>  <score_type>  (32) 
oracle

>  <origin>  (32) 
adg

>  <m_score__min__energy>  (32) 
-12.42

>  <m_primary>  (32) 
energy

$$$$
32:0
     RDKit          3D

 46 49  0  0  0  0  0  0  0  0999 V2000
   -3.3110   18.5610  -25.9640 C   0  0  0  0  0  0  0  0  0  0  0  0
   -2.6440   19.0300  -27.1180 O   0  0  0  0  0  0  0  0  0  0  0  0
   -1.2820   18.6430  -27.0960 C   0  0  0  0  0  0  0  0  0  0  0  0
   -0.3760   19.8330  -27.4220 C   0  0  0  0  0  0  0  0  0  0  0  0
   -1.0000   21.1130  -26.9550 C   0  0  0  0  0  0  0  0  0  0  0  0
   -1.2460   21.2840  -25.7330 O   0  0  0  0  0  0  0  0  0  0  0  0
   -1.3620   22.1220  -27.8960 N   0  0  0  0  0  0  0  0  0  0  0  0
   -1.2310   22.3620  -29.3450 C   0  0  0  0  0  0  0  0  0  0  0  0
   -1.9720   23.6660  -29.3550 C   0  0  0  0  0  0  0  0  0  0  0  0
   -3.2910   23.6150  -30.0790 C   0  0  0  0  0  0  0  0  0  0  0  0
   -4.0600   22.5180  -30.2160 N   0  0  0  0  0  0  0  0  0  0  0  0
   -5.1030   22.9750  -30.9330 C   0  0  0  0  0  0  0  0  0  0  0  0
   -6.2650   22.1680  -31.3400 C   0  0  0  0  0  0  0  0  0  0  0  0
   -7.5980   22.5310  -31.1680 C   0  0  0  0  0  0  0  0  0  0  0  0
   -8.4140   21.5520  -31.6270 N   0  0  0  0  0  0  0  0  0  0  0  0
   -9.8730   21.5840  -31.6490 C   0  0  0  0  0  0  0  0  0  0  0  0
   -7.6130   20.5820  -32.1090 C   0  0  0  0  0  0  0  0  0  0  0  0
   -7.9940   19.3810  -32.7160 C   0  0  0  0  0  0  0  0  0  0  0  0
   -6.9790   18.5240  -33.1800 C   0  0  0  0  0  0  0  0  0  0  0  0
   -5.6230   18.8880  -33.0500 C   0  0  0  0  0  0  0  0  0  0  0  0
   -5.2640   20.1020  -32.4390 C   0  0  0  0  0  0  0  0  0  0  0  0
   -6.2890   20.9240  -31.9540 C   0  0  0  0  0  0  0  0  0  0  0  0
   -4.9830   24.2930  -31.1950 N   0  0  0  0  0  0  0  0  0  0  0  0
   -3.8510   24.6480  -30.6600 O   0  0  0  0  0  0  0  0  0  0  0  0
   -2.0730   23.4140  -27.8820 C   0  0  0  0  0  0  0  0  0  0  0  0
   -2.7912   18.9265  -25.0661 H   0  0  0  0  0  0  0  0  0  0  0  0
   -4.3471   18.9304  -25.9638 H   0  0  0  0  0  0  0  0  0  0  0  0
   -3.3139   17.4610  -25.9638 H   0  0  0  0  0  0  0  0  0  0  0  0
   -1.0311   18.2617  -26.0952 H   0  0  0  0  0  0  0  0  0  0  0  0
   -1.1244   17.8607  -27.8531 H   0  0  0  0  0  0  0  0  0  0  0  0
    0.5930   19.6984  -26.9190 H   0  0  0  0  0  0  0  0  0  0  0  0
   -0.2346   19.8837  -28.5117 H   0  0  0  0  0  0  0  0  0  0  0  0
   -0.1839   22.4657  -29.6657 H   0  0  0  0  0  0  0  0  0  0  0  0
   -1.5946   21.5728  -30.0195 H   0  0  0  0  0  0  0  0  0  0  0  0
   -1.5823   24.5951  -29.7965 H   0  0  0  0  0  0  0  0  0  0  0  0
   -3.9020   21.5700  -29.8100 H   0  0  0  0  0  0  0  0  0  0  0  0
   -7.9396   23.4772  -30.7231 H   0  0  0  0  0  0  0  0  0  0  0  0
  -10.2552   21.5924  -30.6176 H   0  0  0  0  0  0  0  0  0  0  0  0
  -10.2120   22.4898  -32.1730 H   0  0  0  0  0  0  0  0  0  0  0  0
  -10.2514   20.6939  -32.1730 H   0  0  0  0  0  0  0  0  0  0  0  0
   -9.0554   19.1143  -32.8274 H   0  0  0  0  0  0  0  0  0  0  0  0
   -7.2450   17.5642  -33.6470 H   0  0  0  0  0  0  0  0  0  0  0  0
   -4.8393   18.2162  -33.4300 H   0  0  0  0  0  0  0  0  0  0  0  0
   -4.2087   20.3978  -32.3445 H   0  0  0  0  0  0  0  0  0  0  0  0
   -1.5544   24.1777  -27.2839 H   0  0  0  0  0  0  0  0  0  0  0  0
   -3.0798   23.4273  -27.4391 H   0  0  0  0  0  0  0  0  0  0  0  0
  1  2  1  0
  2  3  1  0
  3  4  1  0
  4  5  1  0
  5  6  2  0
  5  7  1  0
  7  8  1  0
  8  9  1  0
  9 10  1  0
 10 11  2  0
 11 12  1  0
 12 13  1  0
 13 14  2  0
 14 15  1  0
 15 16  1  0
 15 17  1  0
 17 18  2  0
 18 19  1  0
 19 20  2  0
 20 21  1  0
 21 22  2  0
 12 23  2  0
 23 24  1  0
  9 25  1  0
 25  7  1  0
 24 10  1  0
 22 13  1  0
 22 17  1  0
  1 26  1  0
  1 27  1  0
  1 28  1  0
  3 29  1  0
  3 30  1  0
  4 31  1  0
  4 32  1  0
  8 33  1  0
  8 34  1  0
  9 35  1  0
 11 36  1  0
 14 37  1  0
 16 38  1  0
 16 39  1  0
 16 40  1  0
 18 41  1  0
 19 42  1  0
 20 43  1  0
 21 44  1  0
 25 45  1  0
 25 46  1  0
M  CHG  1  11   1
M  END
>  <UniqueID>  (33) 
30

>  <SMILES>  (33) 
COCCC(=O)N1CC(c2[nH+]c(-c3cn(C)c4ccccc34)no2)C1

>  <Energy>  (33) 
161.49699468800245

>  <Genealogy>  (33) 
COCCC(=O)N1CC(c2[nH+]c(-c3cn(C)c4ccccc34)no2)C1 (protonated)
COCCC(=O)N1CC(c2[nH+]c(-c3cn(C)c4ccccc34)no2)C1 (3D coordinates assigned)
COCCC(=O)N1CC(c2[nH+]c(-c3cn(C)c4ccccc34)no2)C1 (nonaromatic ring conformer: 161.49699468800245 kcal/mol)

>  <smiles>  (33) 
COCCC(=O)N1CC(c2nc(-c3cn(C)c4ccccc34)no2)C1

>  <score_type>  (33) 
oracle

>  <origin>  (33) 
adg

>  <m_score__min__energy>  (33) 
-7.5599999999999996

>  <m_primary>  (33) 
energy

$$$$
33:0
     RDKit          3D

 39 40  0  0  0  0  0  0  0  0999 V2000
   -2.8630   19.8500  -27.1170 C   0  0  0  0  0  0  0  0  0  0  0  0
   -2.1030   20.6680  -28.0020 O   0  0  0  0  0  0  0  0  0  0  0  0
   -2.6140   21.7820  -28.6850 C   0  0  0  0  0  0  0  0  0  0  0  0
   -2.6110   21.8740  -30.0890 C   0  0  0  0  0  0  0  0  0  0  0  0
   -3.1120   23.0150  -30.7230 C   0  0  0  0  0  0  0  0  0  0  0  0
   -3.5980   24.0970  -29.9620 C   0  0  0  0  0  0  0  0  0  0  0  0
   -4.0460   25.3000  -30.5330 O   0  0  0  0  0  0  0  0  0  0  0  0
   -5.3570   25.8550  -30.4060 C   0  0  0  0  0  0  0  0  0  0  0  0
   -6.4290   24.7620  -30.3950 C   0  0  0  0  0  0  0  0  0  0  0  0
   -6.3620   23.9260  -31.5920 N   0  0  0  0  0  0  0  0  0  0  0  0
   -6.3050   22.4940  -31.5220 C   0  0  0  0  0  0  0  0  0  0  0  0
   -6.0760   21.9230  -30.4200 O   0  0  0  0  0  0  0  0  0  0  0  0
   -6.5240   21.6620  -32.7500 C   0  0  0  0  0  0  0  0  0  0  0  0
   -7.1000   20.3050  -32.4030 C   0  0  0  0  0  0  0  0  0  0  0  0
   -8.4250   20.1870  -31.9240 C   0  0  0  0  0  0  0  0  0  0  0  0
   -9.4640   21.5860  -31.6670 Cl  0  0  0  0  0  0  0  0  0  0  0  0
   -8.9500   18.9220  -31.6540 C   0  0  0  0  0  0  0  0  0  0  0  0
   -8.1940   17.8110  -31.8410 N   0  0  0  0  0  0  0  0  0  0  0  0
   -6.9130   17.8860  -32.2820 C   0  0  0  0  0  0  0  0  0  0  0  0
   -6.3330   19.1270  -32.5610 C   0  0  0  0  0  0  0  0  0  0  0  0
   -4.6610   19.1460  -33.1110 Cl  0  0  0  0  0  0  0  0  0  0  0  0
   -3.6270   23.9840  -28.5670 C   0  0  0  0  0  0  0  0  0  0  0  0
   -3.1430   22.8360  -27.9350 C   0  0  0  0  0  0  0  0  0  0  0  0
   -2.6201   20.1114  -26.0765 H   0  0  0  0  0  0  0  0  0  0  0  0
   -3.9358   20.0148  -27.2956 H   0  0  0  0  0  0  0  0  0  0  0  0
   -2.6198   18.7922  -27.2956 H   0  0  0  0  0  0  0  0  0  0  0  0
   -2.2125   21.0440  -30.6909 H   0  0  0  0  0  0  0  0  0  0  0  0
   -3.1269   23.0684  -31.8216 H   0  0  0  0  0  0  0  0  0  0  0  0
   -5.4155   26.4228  -29.4657 H   0  0  0  0  0  0  0  0  0  0  0  0
   -5.5402   26.5102  -31.2704 H   0  0  0  0  0  0  0  0  0  0  0  0
   -6.2819   24.1275  -29.5085 H   0  0  0  0  0  0  0  0  0  0  0  0
   -7.4149   25.2493  -30.3723 H   0  0  0  0  0  0  0  0  0  0  0  0
   -6.5010   24.3840  -32.5200 H   0  0  0  0  0  0  0  0  0  0  0  0
   -7.2226   22.1870  -33.4181 H   0  0  0  0  0  0  0  0  0  0  0  0
   -5.5523   21.5098  -33.2427 H   0  0  0  0  0  0  0  0  0  0  0  0
   -9.9826   18.8254  -31.2875 H   0  0  0  0  0  0  0  0  0  0  0  0
   -6.3276   16.9651  -32.4208 H   0  0  0  0  0  0  0  0  0  0  0  0
   -4.0350   24.8074  -27.9624 H   0  0  0  0  0  0  0  0  0  0  0  0
   -3.1785   22.7610  -26.8381 H   0  0  0  0  0  0  0  0  0  0  0  0
  1  2  1  0
  2  3  1  0
  3  4  2  0
  4  5  1  0
  5  6  2  0
  6  7  1  0
  7  8  1  0
  8  9  1  0
  9 10  1  0
 10 11  1  0
 11 12  2  0
 11 13  1  0
 13 14  1  0
 14 15  2  0
 15 16  1  0
 15 17  1  0
 17 18  2  0
 18 19  1  0
 19 20  2  0
 20 21  1  0
  6 22  1  0
 22 23  2  0
 23  3  1  0
 20 14  1  0
  1 24  1  0
  1 25  1  0
  1 26  1  0
  4 27  1  0
  5 28  1  0
  8 29  1  0
  8 30  1  0
  9 31  1  0
  9 32  1  0
 10 33  1  0
 13 34  1  0
 13 35  1  0
 17 36  1  0
 19 37  1  0
 22 38  1  0
 23 39  1  0
M  END
>  <UniqueID>  (34) 
31

>  <SMILES>  (34) 
COc1ccc(OCCNC(=O)Cc2c(Cl)cncc2Cl)cc1

>  <Energy>  (34) 
34.04149779782073

>  <Genealogy>  (34) 
COc1ccc(OCCNC(=O)Cc2c(Cl)cncc2Cl)cc1 (3D coordinates assigned)
COc1ccc(OCCNC(=O)Cc2c(Cl)cncc2Cl)cc1 (optimized conformer: 34.04149779782073 kcal/mol)

>  <smiles>  (34) 
COc1ccc(OCCNC(=O)Cc2c(Cl)cncc2Cl)cc1

>  <score_type>  (34) 
oracle

>  <origin>  (34) 
adg

>  <m_score__min__energy>  (34) 
-7.8099999999999996

>  <m_primary>  (34) 
energy

$$$$
34:0
     RDKit          3D

 31 32  0  0  0  0  0  0  0  0999 V2000
   -3.8620   25.3180  -30.5820 O   0  0  0  0  0  0  0  0  0  0  0  0
   -4.7350   24.4080  -30.6220 C   0  0  0  0  0  0  0  0  0  0  0  0
   -5.3870   23.9510  -29.3590 C   0  0  0  0  0  0  0  0  0  0  0  0
   -4.1900   23.9540  -27.9800 S   0  0  0  0  0  0  0  0  0  0  0  0
   -3.2610   22.5420  -28.5850 C   0  0  0  0  0  0  0  0  0  0  0  0
   -3.0190   21.4900  -27.7590 N   0  0  0  0  0  0  0  0  0  0  0  0
   -2.3110   20.4130  -28.1910 C   0  0  0  0  0  0  0  0  0  0  0  0
   -1.8230   20.3800  -29.4960 C   0  0  0  0  0  0  0  0  0  0  0  0
   -2.0850   21.4650  -30.3310 C   0  0  0  0  0  0  0  0  0  0  0  0
   -2.8000   22.5230  -29.8650 N   0  0  0  0  0  0  0  0  0  0  0  0
   -5.0790   23.7990  -31.8340 O   0  0  0  0  0  0  0  0  0  0  0  0
   -6.4030   23.3720  -32.1460 C   0  0  0  0  0  0  0  0  0  0  0  0
   -6.4390   21.8740  -32.3380 C   0  0  0  0  0  0  0  0  0  0  0  0
   -5.2760   21.1780  -32.7220 C   0  0  0  0  0  0  0  0  0  0  0  0
   -4.1150   21.8380  -32.9600 F   0  0  0  0  0  0  0  0  0  0  0  0
   -5.3010   19.7870  -32.8630 C   0  0  0  0  0  0  0  0  0  0  0  0
   -6.4770   19.0770  -32.6200 C   0  0  0  0  0  0  0  0  0  0  0  0
   -7.6350   19.7540  -32.2350 C   0  0  0  0  0  0  0  0  0  0  0  0
   -7.6250   21.1460  -32.0880 C   0  0  0  0  0  0  0  0  0  0  0  0
   -9.1070   21.9400  -31.5690 Cl  0  0  0  0  0  0  0  0  0  0  0  0
   -6.2195   24.6279  -29.1165 H   0  0  0  0  0  0  0  0  0  0  0  0
   -5.7594   22.9260  -29.5030 H   0  0  0  0  0  0  0  0  0  0  0  0
   -2.1235   19.5686  -27.5114 H   0  0  0  0  0  0  0  0  0  0  0  0
   -1.2444   19.5176  -29.8587 H   0  0  0  0  0  0  0  0  0  0  0  0
   -1.7134   21.4650  -31.3663 H   0  0  0  0  0  0  0  0  0  0  0  0
   -2.9970   23.3270  -30.5000 H   0  0  0  0  0  0  0  0  0  0  0  0
   -7.0772   23.6486  -31.3220 H   0  0  0  0  0  0  0  0  0  0  0  0
   -6.7263   23.8601  -33.0773 H   0  0  0  0  0  0  0  0  0  0  0  0
   -4.3899   19.2506  -33.1667 H   0  0  0  0  0  0  0  0  0  0  0  0
   -6.4915   17.9828  -32.7319 H   0  0  0  0  0  0  0  0  0  0  0  0
   -8.5607   19.1907  -32.0460 H   0  0  0  0  0  0  0  0  0  0  0  0
  1  2  2  0
  2  3  1  0
  3  4  1  0
  4  5  1  0
  5  6  2  0
  6  7  1  0
  7  8  2  0
  8  9  1  0
  9 10  2  0
  2 11  1  0
 11 12  1  0
 12 13  1  0
 13 14  2  0
 14 15  1  0
 14 16  1  0
 16 17  2  0
 17 18  1  0
 18 19  2  0
 19 20  1  0
 10  5  1  0
 19 13  1  0
  3 21  1  0
  3 22  1  0
  7 23  1  0
  8 24  1  0
  9 25  1  0
 10 26  1  0
 12 27  1  0
 12 28  1  0
 16 29  1  0
 17 30  1  0
 18 31  1  0
M  CHG  1  10   1
M  END
>  <UniqueID>  (35) 
32

>  <SMILES>  (35) 
O=C(CSc1nccc[nH+]1)OCc1c(F)cccc1Cl

>  <Energy>  (35) 
24.090476076051697

>  <Genealogy>  (35) 
O=C(CSc1nccc[nH+]1)OCc1c(F)cccc1Cl (protonated)
O=C(CSc1nccc[nH+]1)OCc1c(F)cccc1Cl (3D coordinates assigned)
O=C(CSc1nccc[nH+]1)OCc1c(F)cccc1Cl (optimized conformer: 24.090476076051697 kcal/mol)

>  <smiles>  (35) 
O=C(CSc1ncccn1)OCc1c(F)cccc1Cl

>  <score_type>  (35) 
oracle

>  <origin>  (35) 
adg

>  <m_score__min__energy>  (35) 
-6.46

>  <m_primary>  (35) 
energy

$$$$
35:0
     RDKit          3D

 40 42  0  0  0  0  0  0  0  0999 V2000
   -5.6394   25.3538  -28.8022 H   0  0  0  0  0  0  0  0  0  0  0  0
   -5.2930   24.5000  -29.4030 C   0  0  0  0  0  0  0  0  0  0  0  0
   -4.0120   24.1300  -29.2930 C   0  0  0  0  0  0  0  0  0  0  0  0
   -3.2193   24.8469  -29.5531 H   0  0  0  0  0  0  0  0  0  0  0  0
   -3.6360   22.7570  -28.8220 C   0  0  0  0  0  0  0  0  0  0  0  0
   -4.5465   22.2091  -28.5377 H   0  0  0  0  0  0  0  0  0  0  0  0
   -2.9643   22.8478  -27.9556 H   0  0  0  0  0  0  0  0  0  0  0  0
   -2.9430   22.0240  -29.8880 N   0  0  0  0  0  0  0  0  0  0  0  0
   -3.5890   21.7640  -31.1470 C   0  0  0  0  0  0  0  0  0  0  0  0
   -4.0930   20.5610  -31.5000 N   0  0  0  0  0  0  0  0  0  0  0  0
   -4.5670   20.7680  -32.7160 N   0  0  0  0  0  0  0  0  0  0  0  0
   -5.1370   19.7300  -33.5650 C   0  0  0  0  0  0  0  0  0  0  0  0
   -5.2764   20.1249  -34.5822 H   0  0  0  0  0  0  0  0  0  0  0  0
   -4.4550   18.8675  -33.5946 H   0  0  0  0  0  0  0  0  0  0  0  0
   -6.4640   19.2970  -33.0110 C   0  0  0  0  0  0  0  0  0  0  0  0
   -6.5470   18.1890  -32.1520 C   0  0  0  0  0  0  0  0  0  0  0  0
   -5.6428   17.6073  -31.9193 H   0  0  0  0  0  0  0  0  0  0  0  0
   -7.7750   17.8220  -31.5910 C   0  0  0  0  0  0  0  0  0  0  0  0
   -7.8355   16.9493  -30.9241 H   0  0  0  0  0  0  0  0  0  0  0  0
   -8.9250   18.5630  -31.8770 C   0  0  0  0  0  0  0  0  0  0  0  0
   -9.8909   18.2712  -31.4389 H   0  0  0  0  0  0  0  0  0  0  0  0
   -8.8470   19.6750  -32.7200 C   0  0  0  0  0  0  0  0  0  0  0  0
   -9.7519   20.2600  -32.9412 H   0  0  0  0  0  0  0  0  0  0  0  0
   -7.6220   20.0460  -33.2830 C   0  0  0  0  0  0  0  0  0  0  0  0
   -7.5644   20.9261  -33.9403 H   0  0  0  0  0  0  0  0  0  0  0  0
   -4.3500   22.0160  -33.0950 N   0  0  0  0  0  0  0  0  0  0  0  0
   -4.6080   22.4190  -34.0220 H   0  0  0  0  0  0  0  0  0  0  0  0
   -3.7380   22.6790  -32.1290 N   0  0  0  0  0  0  0  0  0  0  0  0
   -1.5390   21.6430  -29.7120 C   0  0  0  0  0  0  0  0  0  0  0  0
   -1.3079   21.5803  -28.6384 H   0  0  0  0  0  0  0  0  0  0  0  0
   -1.3628   20.6646  -30.1828 H   0  0  0  0  0  0  0  0  0  0  0  0
   -0.8924   22.3982  -30.1828 H   0  0  0  0  0  0  0  0  0  0  0  0
   -6.2700   23.8270  -30.2860 C   0  0  0  0  0  0  0  0  0  0  0  0
   -6.4930   24.1350  -31.6300 C   0  0  0  0  0  0  0  0  0  0  0  0
   -5.9800   24.9187  -32.2067 H   0  0  0  0  0  0  0  0  0  0  0  0
   -7.6810   23.1000  -32.2120 S   0  0  0  0  0  0  0  0  0  0  0  0
   -7.9310   22.2570  -30.7830 C   0  0  0  0  0  0  0  0  0  0  0  0
   -8.6473   21.4354  -30.6348 H   0  0  0  0  0  0  0  0  0  0  0  0
   -7.0780   22.7760  -29.8220 C   0  0  0  0  0  0  0  0  0  0  0  0
   -7.0374   22.3990  -28.7894 H   0  0  0  0  0  0  0  0  0  0  0  0
  1  2  1  0
  2  3  2  0
  3  4  1  0
  3  5  1  0
  5  6  1  0
  5  7  1  0
  5  8  1  0
  8  9  1  0
  9 10  2  0
 10 11  1  0
 11 12  1  0
 12 13  1  0
 12 14  1  0
 12 15  1  0
 15 16  2  0
 16 17  1  0
 16 18  1  0
 18 19  1  0
 18 20  2  0
 20 21  1  0
 20 22  1  0
 22 23  1  0
 22 24  2  0
 24 25  1  0
 11 26  1  0
 26 27  1  0
 26 28  2  0
  8 29  1  0
 29 30  1  0
 29 31  1  0
 29 32  1  0
  2 33  1  0
 33 34  2  0
 34 35  1  0
 34 36  1  0
 36 37  1  0
 37 38  1  0
 37 39  2  0
 39 40  1  0
 28  9  1  0
 39 33  1  0
 24 15  1  0
M  CHG  1  26   1
M  END
>  <UniqueID>  (36) 
33

>  <SMILES>  (36) 
CN(C/C=C/c1ccsc1)c1n[nH+]n(Cc2ccccc2)n1

>  <Energy>  (36) 
100.43969803605515

>  <Genealogy>  (36) 
CN(CC=Cc1ccsc1)c1n[nH+]n(Cc2ccccc2)n1 (protonated)
CN(C/C=C/c1ccsc1)c1n[nH+]n(Cc2ccccc2)n1 (cis-trans isomerization)
CN(C/C=C/c1ccsc1)c1n[nH+]n(Cc2ccccc2)n1 (3D coordinates assigned)
CN(C/C=C/c1ccsc1)c1n[nH+]n(Cc2ccccc2)n1 (optimized conformer: 100.43969803605515 kcal/mol)

>  <smiles>  (36) 
CN(CC=Cc1ccsc1)c1nnn(Cc2ccccc2)n1

>  <score_type>  (36) 
oracle

>  <origin>  (36) 
adg

>  <m_score__min__energy>  (36) 
-7.9699999999999998

>  <m_primary>  (36) 
energy

$$$$
36:0
     RDKit          3D

 39 41  0  0  0  0  0  0  0  0999 V2000
   -2.1060   24.8880  -27.8750 C   0  0  0  0  0  0  0  0  0  0  0  0
   -2.3250   24.9810  -29.2800 O   0  0  0  0  0  0  0  0  0  0  0  0
   -2.7420   23.9140  -30.0930 C   0  0  0  0  0  0  0  0  0  0  0  0
   -1.9760   22.7420  -30.2370 C   0  0  0  0  0  0  0  0  0  0  0  0
   -2.4210   21.6950  -31.0570 C   0  0  0  0  0  0  0  0  0  0  0  0
   -1.6750   20.5610  -31.1900 N   0  0  0  0  0  0  0  0  0  0  0  0
   -2.0860   19.5260  -31.9690 C   0  0  0  0  0  0  0  0  0  0  0  0
   -3.2910   19.6030  -32.6640 C   0  0  0  0  0  0  0  0  0  0  0  0
   -4.0800   20.7600  -32.5700 C   0  0  0  0  0  0  0  0  0  0  0  0
   -5.3080   20.8570  -33.2460 O   0  0  0  0  0  0  0  0  0  0  0  0
   -6.5750   20.7510  -32.6550 C   0  0  0  0  0  0  0  0  0  0  0  0
   -7.2640   21.9250  -32.3300 C   0  0  0  0  0  0  0  0  0  0  0  0
   -8.5360   21.8610  -31.7520 C   0  0  0  0  0  0  0  0  0  0  0  0
   -9.1330   20.6220  -31.5060 C   0  0  0  0  0  0  0  0  0  0  0  0
   -8.4630   19.4380  -31.8440 C   0  0  0  0  0  0  0  0  0  0  0  0
   -9.0800   18.1700  -31.6060 N   0  0  0  0  0  0  0  0  0  0  0  0
   -7.1880   19.5050  -32.4240 C   0  0  0  0  0  0  0  0  0  0  0  0
   -3.6510   21.8160  -31.7440 C   0  0  0  0  0  0  0  0  0  0  0  0
   -4.4110   22.9890  -31.5990 C   0  0  0  0  0  0  0  0  0  0  0  0
   -3.9620   24.0370  -30.7760 C   0  0  0  0  0  0  0  0  0  0  0  0
   -4.6980   25.2220  -30.6080 O   0  0  0  0  0  0  0  0  0  0  0  0
   -5.9760   25.2980  -29.9840 C   0  0  0  0  0  0  0  0  0  0  0  0
   -2.9908   25.2638  -27.3403 H   0  0  0  0  0  0  0  0  0  0  0  0
   -1.9301   23.8375  -27.6001 H   0  0  0  0  0  0  0  0  0  0  0  0
   -1.2280   25.4909  -27.6001 H   0  0  0  0  0  0  0  0  0  0  0  0
   -1.0198   22.6465  -29.7016 H   0  0  0  0  0  0  0  0  0  0  0  0
   -0.7660   20.4670  -30.6820 H   0  0  0  0  0  0  0  0  0  0  0  0
   -1.4639   18.6226  -32.0512 H   0  0  0  0  0  0  0  0  0  0  0  0
   -3.6235   18.7584  -33.2854 H   0  0  0  0  0  0  0  0  0  0  0  0
   -6.8027   22.9033  -32.5302 H   0  0  0  0  0  0  0  0  0  0  0  0
   -9.0674   22.7880  -31.4906 H   0  0  0  0  0  0  0  0  0  0  0  0
  -10.1311   20.5755  -31.0460 H   0  0  0  0  0  0  0  0  0  0  0  0
   -9.7530   18.0440  -30.8170 H   0  0  0  0  0  0  0  0  0  0  0  0
   -8.8710   17.3500  -32.2180 H   0  0  0  0  0  0  0  0  0  0  0  0
   -6.6637   18.5783  -32.7001 H   0  0  0  0  0  0  0  0  0  0  0  0
   -5.3666   23.0884  -32.1346 H   0  0  0  0  0  0  0  0  0  0  0  0
   -5.8514   25.2906  -28.8911 H   0  0  0  0  0  0  0  0  0  0  0  0
   -6.4785   26.2276  -30.2895 H   0  0  0  0  0  0  0  0  0  0  0  0
   -6.5851   24.4345  -30.2895 H   0  0  0  0  0  0  0  0  0  0  0  0
  1  2  1  0
  2  3  1  0
  3  4  2  0
  4  5  1  0
  5  6  2  0
  6  7  1  0
  7  8  2  0
  8  9  1  0
  9 10  1  0
 10 11  1  0
 11 12  2  0
 12 13  1  0
 13 14  2  0
 14 15  1  0
 15 16  1  0
 15 17  2  0
  9 18  2  0
 18 19  1  0
 19 20  2  0
 20 21  1  0
 21 22  1  0
 20  3  1  0
 18  5  1  0
 17 11  1  0
  1 23  1  0
  1 24  1  0
  1 25  1  0
  4 26  1  0
  6 27  1  0
  7 28  1  0
  8 29  1  0
 12 30  1  0
 13 31  1  0
 14 32  1  0
 16 33  1  0
 16 34  1  0
 17 35  1  0
 19 36  1  0
 22 37  1  0
 22 38  1  0
 22 39  1  0
M  CHG  1   6   1
M  END
>  <UniqueID>  (37) 
34

>  <SMILES>  (37) 
COc1cc2[nH+]ccc(Oc3cccc(N)c3)c2cc1OC

>  <Energy>  (37) 
49.73306351732463

>  <Genealogy>  (37) 
COc1cc2[nH+]ccc(Oc3cccc(N)c3)c2cc1OC (protonated)
COc1cc2[nH+]ccc(Oc3cccc(N)c3)c2cc1OC (3D coordinates assigned)
COc1cc2[nH+]ccc(Oc3cccc(N)c3)c2cc1OC (optimized conformer: 49.73306351732463 kcal/mol)

>  <smiles>  (37) 
COc1cc2nccc(Oc3cccc(N)c3)c2cc1OC

>  <score_type>  (37) 
oracle

>  <origin>  (37) 
adg

>  <m_score__min__energy>  (37) 
-6.54

>  <m_primary>  (37) 
energy

$$$$
37:0
     RDKit          3D

 28 29  0  0  0  0  0  0  0  0999 V2000
   -6.4528   25.0636  -28.9363 H   0  0  0  0  0  0  0  0  0  0  0  0
   -6.0130   24.7640  -29.8990 C   0  0  0  0  0  0  0  0  0  0  0  0
   -4.5400   24.8200  -30.0180 C   0  0  0  0  0  0  0  0  0  0  0  0
   -4.0450   25.6440  -30.8320 O   0  0  0  0  0  0  0  0  0  0  0  0
   -3.6370   24.0050  -29.1630 C   0  0  0  0  0  0  0  0  0  0  0  0
   -4.0760   22.7740  -28.6440 C   0  0  0  0  0  0  0  0  0  0  0  0
   -5.0960   22.4239  -28.8608 H   0  0  0  0  0  0  0  0  0  0  0  0
   -3.2290   21.9920  -27.8560 C   0  0  0  0  0  0  0  0  0  0  0  0
   -3.5865   21.0320  -27.4553 H   0  0  0  0  0  0  0  0  0  0  0  0
   -1.9270   22.4230  -27.5730 C   0  0  0  0  0  0  0  0  0  0  0  0
   -1.0310   21.6000  -26.6960 C   0  0  0  0  0  0  0  0  0  0  0  0
   -1.2586   21.8090  -25.6403 H   0  0  0  0  0  0  0  0  0  0  0  0
   -1.1962   20.5322  -26.9022 H   0  0  0  0  0  0  0  0  0  0  0  0
    0.0189   21.8551  -26.9022 H   0  0  0  0  0  0  0  0  0  0  0  0
   -1.4930   23.6650  -28.0580 C   0  0  0  0  0  0  0  0  0  0  0  0
   -0.4831   24.0247  -27.8116 H   0  0  0  0  0  0  0  0  0  0  0  0
   -2.3350   24.4500  -28.8530 C   0  0  0  0  0  0  0  0  0  0  0  0
   -1.8610   25.6630  -29.3430 O   0  0  0  0  0  0  0  0  0  0  0  0
   -6.8580   24.3780  -30.8680 C   0  0  0  0  0  0  0  0  0  0  0  0
   -7.5308   25.1414  -31.2859 H   0  0  0  0  0  0  0  0  0  0  0  0
   -6.9570   23.0140  -31.4170 C   0  0  0  0  0  0  0  0  0  0  0  0
   -8.3900   22.1470  -31.5430 S   0  0  0  0  0  0  0  0  0  0  0  0
   -7.7310   20.8000  -32.3030 C   0  0  0  0  0  0  0  0  0  0  0  0
   -8.2803   19.8947  -32.6008 H   0  0  0  0  0  0  0  0  0  0  0  0
   -6.3740   21.0270  -32.4900 C   0  0  0  0  0  0  0  0  0  0  0  0
   -5.7026   20.3001  -32.9705 H   0  0  0  0  0  0  0  0  0  0  0  0
   -5.9410   22.2690  -32.0090 C   0  0  0  0  0  0  0  0  0  0  0  0
   -4.9019   22.6206  -32.0908 H   0  0  0  0  0  0  0  0  0  0  0  0
  1  2  1  0
  2  3  1  0
  3  4  2  0
  3  5  1  0
  5  6  2  0
  6  7  1  0
  6  8  1  0
  8  9  1  0
  8 10  2  0
 10 11  1  0
 11 12  1  0
 11 13  1  0
 11 14  1  0
 10 15  1  0
 15 16  1  0
 15 17  2  0
 17 18  1  0
  2 19  2  0
 19 20  1  0
 19 21  1  0
 21 22  1  0
 22 23  1  0
 23 24  1  0
 23 25  2  0
 25 26  1  0
 25 27  1  0
 27 28  1  0
 17  5  1  0
 27 21  2  0
M  CHG  1  18  -1
M  END
>  <UniqueID>  (38) 
35

>  <SMILES>  (38) 
Cc1ccc(C(=O)/C=C\c2cccs2)c([O-])c1

>  <Energy>  (38) 
63.677552608842774

>  <Genealogy>  (38) 
Cc1ccc(C(=O)C=Cc2cccs2)c([O-])c1 (protonated)
Cc1ccc(C(=O)/C=C\c2cccs2)c([O-])c1 (cis-trans isomerization)
Cc1ccc(C(=O)/C=C\c2cccs2)c([O-])c1 (3D coordinates assigned)
Cc1ccc(C(=O)/C=C\c2cccs2)c([O-])c1 (optimized conformer: 63.677552608842774 kcal/mol)

>  <smiles>  (38) 
Cc1ccc(C(=O)C=Cc2cccs2)c(O)c1

>  <score_type>  (38) 
oracle

>  <origin>  (38) 
adg

>  <m_score__min__energy>  (38) 
-10.81

>  <m_primary>  (38) 
energy

$$$$
38:0
     RDKit          3D

 39 42  0  0  0  0  0  0  0  0999 V2000
    1.8028   19.0428  -28.7512 H   0  0  0  0  0  0  0  0  0  0  0  0
    0.8020   19.4180  -28.4910 C   0  0  0  0  0  0  0  0  0  0  0  0
    0.2870   20.5550  -29.0300 N   0  0  0  0  0  0  0  0  0  0  0  0
   -0.9550   20.8280  -28.5690 C   0  0  0  0  0  0  0  0  0  0  0  0
   -1.7500   22.0030  -29.0000 C   0  0  0  0  0  0  0  0  0  0  0  0
   -1.3220   23.3070  -28.7150 C   0  0  0  0  0  0  0  0  0  0  0  0
   -0.4079   23.4635  -28.1235 H   0  0  0  0  0  0  0  0  0  0  0  0
   -2.0500   24.4160  -29.1780 C   0  0  0  0  0  0  0  0  0  0  0  0
   -1.6100   25.7340  -28.9680 O   0  0  0  0  0  0  0  0  0  0  0  0
   -0.8650   26.1690  -27.8340 C   0  0  0  0  0  0  0  0  0  0  0  0
   -1.3861   25.8648  -26.9143 H   0  0  0  0  0  0  0  0  0  0  0  0
    0.1360   25.7134  -27.8561 H   0  0  0  0  0  0  0  0  0  0  0  0
   -0.7698   27.2646  -27.8561 H   0  0  0  0  0  0  0  0  0  0  0  0
   -3.2460   24.2120  -29.8810 C   0  0  0  0  0  0  0  0  0  0  0  0
   -3.8830   25.2850  -30.4180 N   0  0  0  0  0  0  0  0  0  0  0  0
   -5.0090   25.1590  -31.1590 C   0  0  0  0  0  0  0  0  0  0  0  0
   -5.4655   26.0490  -31.6166 H   0  0  0  0  0  0  0  0  0  0  0  0
   -5.5930   23.9060  -31.3450 C   0  0  0  0  0  0  0  0  0  0  0  0
   -6.8260   23.8240  -32.0970 C   0  0  0  0  0  0  0  0  0  0  0  0
   -7.8130   23.7590  -32.6980 N   0  0  0  0  0  0  0  0  0  0  0  0
   -5.0310   22.7670  -30.7300 C   0  0  0  0  0  0  0  0  0  0  0  0
   -5.7380   21.6620  -30.7590 N   0  0  0  0  0  0  0  0  0  0  0  0
   -5.8550   20.6650  -31.7840 C   0  0  0  0  0  0  0  0  0  0  0  0
   -7.0160   19.8780  -31.8930 C   0  0  0  0  0  0  0  0  0  0  0  0
   -7.8357   20.0069  -31.1708 H   0  0  0  0  0  0  0  0  0  0  0  0
   -7.1310   18.9330  -32.9160 C   0  0  0  0  0  0  0  0  0  0  0  0
   -8.0302   18.3031  -32.9843 H   0  0  0  0  0  0  0  0  0  0  0  0
   -6.1030   18.7880  -33.8530 C   0  0  0  0  0  0  0  0  0  0  0  0
   -6.2160   17.8720  -34.8460 F   0  0  0  0  0  0  0  0  0  0  0  0
   -4.9660   19.5980  -33.7740 C   0  0  0  0  0  0  0  0  0  0  0  0
   -4.1636   19.4921  -34.5190 H   0  0  0  0  0  0  0  0  0  0  0  0
   -4.8470   20.5430  -32.7490 C   0  0  0  0  0  0  0  0  0  0  0  0
   -3.7400   21.3270  -32.6830 F   0  0  0  0  0  0  0  0  0  0  0  0
   -3.7630   22.9060  -30.0770 C   0  0  0  0  0  0  0  0  0  0  0  0
   -2.9470   21.8140  -29.7100 C   0  0  0  0  0  0  0  0  0  0  0  0
   -3.2549   20.7946  -29.9857 H   0  0  0  0  0  0  0  0  0  0  0  0
   -1.4500   19.6480  -27.4700 S   0  0  0  0  0  0  0  0  0  0  0  0
   -0.0260   18.7650  -27.5890 C   0  0  0  0  0  0  0  0  0  0  0  0
    0.2081   17.8358  -27.0488 H   0  0  0  0  0  0  0  0  0  0  0  0
  1  2  1  0
  2  3  1  0
  3  4  2  0
  4  5  1  0
  5  6  2  0
  6  7  1  0
  6  8  1  0
  8  9  1  0
  9 10  1  0
 10 11  1  0
 10 12  1  0
 10 13  1  0
  8 14  2  0
 14 15  1  0
 15 16  1  0
 16 17  1  0
 16 18  2  0
 18 19  1  0
 19 20  3  0
 18 21  1  0
 21 22  2  0
 22 23  1  0
 23 24  2  0
 24 25  1  0
 24 26  1  0
 26 27  1  0
 26 28  2  0
 28 29  1  0
 28 30  1  0
 30 31  1  0
 30 32  2  0
 32 33  1  0
 21 34  1  0
 34 35  2  0
 35 36  1  0
  4 37  1  0
 37 38  1  0
 38 39  1  0
 38  2  2  0
 35  5  1  0
 34 14  1  0
 32 23  1  0
M  CHG  1  15  -1
M  END
>  <UniqueID>  (39) 
36

>  <SMILES>  (39) 
COc1cc(-c2nccs2)cc2/c(=N\c3ccc(F)cc3F)c(C#N)c[n-]c12

>  <Energy>  (39) 
98.28483708547128

>  <Genealogy>  (39) 
COc1cc(-c2nccs2)cc2c(=Nc3ccc(F)cc3F)c(C#N)c[n-]c12 (protonated)
COc1cc(-c2nccs2)cc2/c(=N\c3ccc(F)cc3F)c(C#N)c[n-]c12 (cis-trans isomerization)
COc1cc(-c2nccs2)cc2/c(=N\c3ccc(F)cc3F)c(C#N)c[n-]c12 (3D coordinates assigned)
COc1cc(-c2nccs2)cc2/c(=N\c3ccc(F)cc3F)c(C#N)c[n-]c12 (optimized conformer: 98.28483708547128 kcal/mol)

>  <smiles>  (39) 
COc1cc(-c2nccs2)cc2c(=Nc3ccc(F)cc3F)c(C#N)c[nH]c12

>  <score_type>  (39) 
oracle

>  <origin>  (39) 
adg

>  <m_score__min__energy>  (39) 
-10.449999999999999

>  <m_primary>  (39) 
energy

$$$$
39:0
     RDKit          3D

 17 17  0  0  0  0  0  0  0  0999 V2000
   -6.4890   25.6550  -29.3900 S   0  0  0  0  0  0  0  0  0  0  0  0
   -5.6480   24.7280  -30.4040 C   0  0  0  0  0  0  0  0  0  0  0  0
   -4.9850   23.9930  -31.2040 N   0  0  0  0  0  0  0  0  0  0  0  0
   -5.5880   23.4210  -32.4020 C   0  0  0  0  0  0  0  0  0  0  0  0
   -6.7550   22.5400  -32.0420 C   0  0  0  0  0  0  0  0  0  0  0  0
   -8.0410   23.0890  -31.9120 C   0  0  0  0  0  0  0  0  0  0  0  0
   -9.1320   22.2650  -31.6130 C   0  0  0  0  0  0  0  0  0  0  0  0
   -8.9470   20.8890  -31.4510 C   0  0  0  0  0  0  0  0  0  0  0  0
   -7.6720   20.3340  -31.5920 C   0  0  0  0  0  0  0  0  0  0  0  0
   -6.5790   21.1540  -31.8920 C   0  0  0  0  0  0  0  0  0  0  0  0
   -5.9377   24.2350  -33.0540 H   0  0  0  0  0  0  0  0  0  0  0  0
   -4.8331   22.8129  -32.9220 H   0  0  0  0  0  0  0  0  0  0  0  0
   -8.1913   24.1705  -32.0456 H   0  0  0  0  0  0  0  0  0  0  0  0
  -10.1363   22.7007  -31.5054 H   0  0  0  0  0  0  0  0  0  0  0  0
   -9.8048   20.2430  -31.2126 H   0  0  0  0  0  0  0  0  0  0  0  0
   -7.5278   19.2507  -31.4669 H   0  0  0  0  0  0  0  0  0  0  0  0
   -5.5786   20.7124  -32.0108 H   0  0  0  0  0  0  0  0  0  0  0  0
  1  2  2  0
  2  3  2  0
  3  4  1  0
  4  5  1  0
  5  6  2  0
  6  7  1  0
  7  8  2  0
  8  9  1  0
  9 10  2  0
 10  5  1  0
  4 11  1  0
  4 12  1  0
  6 13  1  0
  7 14  1  0
  8 15  1  0
  9 16  1  0
 10 17  1  0
M  END
>  <UniqueID>  (40) 
37

>  <SMILES>  (40) 
S=C=NCc1ccccc1

>  <Energy>  (40) 
13.23710841018218

>  <Genealogy>  (40) 
S=C=NCc1ccccc1 (3D coordinates assigned)
S=C=NCc1ccccc1 (optimized conformer: 13.23710841018218 kcal/mol)

>  <smiles>  (40) 
S=C=NCc1ccccc1

>  <score_type>  (40) 
oracle

>  <origin>  (40) 
adg

>  <m_score__min__energy>  (40) 
-4.8899999999999997

>  <m_primary>  (40) 
energy

$$$$
40:0
     RDKit          3D

 30 31  0  0  0  0  0  0  0  0999 V2000
   -1.3630   21.2960  -30.5390 C   0  0  0  0  0  0  0  0  0  0  0  0
   -1.7540   22.6920  -30.1560 C   0  0  0  0  0  0  0  0  0  0  0  0
   -0.9140   23.3940  -29.3490 N   0  0  0  0  0  0  0  0  0  0  0  0
   -1.2070   24.6520  -28.9410 C   0  0  0  0  0  0  0  0  0  0  0  0
   -0.4050   25.2770  -28.2010 O   0  0  0  0  0  0  0  0  0  0  0  0
   -2.3650   25.2380  -29.3310 N   0  0  0  0  0  0  0  0  0  0  0  0
   -3.2470   24.5900  -30.1320 C   0  0  0  0  0  0  0  0  0  0  0  0
   -4.3060   25.1800  -30.4740 O   0  0  0  0  0  0  0  0  0  0  0  0
   -2.9680   23.2810  -30.5780 C   0  0  0  0  0  0  0  0  0  0  0  0
   -4.0810   22.4230  -31.6720 S   0  0  0  0  0  0  0  0  0  0  0  0
   -5.2190   23.3380  -32.0240 O   0  0  0  0  0  0  0  0  0  0  0  0
   -3.3920   22.0300  -32.9500 O   0  0  0  0  0  0  0  0  0  0  0  0
   -4.7190   20.9960  -30.9050 N   0  0  0  0  0  0  0  0  0  0  0  0
   -5.1980   20.0260  -31.8940 C   0  0  0  0  0  0  0  0  0  0  0  0
   -6.6990   20.0660  -32.0060 C   0  0  0  0  0  0  0  0  0  0  0  0
   -7.3960   21.2750  -31.8360 C   0  0  0  0  0  0  0  0  0  0  0  0
   -8.7860   21.3120  -31.9730 C   0  0  0  0  0  0  0  0  0  0  0  0
   -9.4930   20.1430  -32.2610 C   0  0  0  0  0  0  0  0  0  0  0  0
   -8.8120   18.9310  -32.4060 C   0  0  0  0  0  0  0  0  0  0  0  0
   -7.4210   18.8900  -32.2700 C   0  0  0  0  0  0  0  0  0  0  0  0
   -1.1959   20.6996  -29.6300 H   0  0  0  0  0  0  0  0  0  0  0  0
   -2.1680   20.8399  -31.1340 H   0  0  0  0  0  0  0  0  0  0  0  0
   -0.4382   21.3244  -31.1340 H   0  0  0  0  0  0  0  0  0  0  0  0
   -4.7577   20.2638  -32.8736 H   0  0  0  0  0  0  0  0  0  0  0  0
   -4.8974   19.0184  -31.5708 H   0  0  0  0  0  0  0  0  0  0  0  0
   -6.8448   22.1957  -31.5941 H   0  0  0  0  0  0  0  0  0  0  0  0
   -9.3243   22.2639  -31.8537 H   0  0  0  0  0  0  0  0  0  0  0  0
  -10.5867   20.1758  -32.3739 H   0  0  0  0  0  0  0  0  0  0  0  0
   -9.3704   18.0094  -32.6271 H   0  0  0  0  0  0  0  0  0  0  0  0
   -6.8893   17.9323  -32.3702 H   0  0  0  0  0  0  0  0  0  0  0  0
  1  2  1  0
  2  3  1  0
  3  4  1  0
  4  5  2  0
  4  6  1  0
  6  7  1  0
  7  8  2  0
  7  9  1  0
  9 10  1  0
 10 11  2  0
 10 12  2  0
 10 13  1  0
 13 14  1  0
 14 15  1  0
 15 16  2  0
 16 17  1  0
 17 18  2  0
 18 19  1  0
 19 20  2  0
  9  2  2  0
 20 15  1  0
  1 21  1  0
  1 22  1  0
  1 23  1  0
 14 24  1  0
 14 25  1  0
 16 26  1  0
 17 27  1  0
 18 28  1  0
 19 29  1  0
 20 30  1  0
M  CHG  3   3  -1   6  -1  13  -1
M  END
>  <UniqueID>  (41) 
38

>  <SMILES>  (41) 
Cc1[n-]c(=O)[n-]c(=O)c1S(=O)(=O)[N-]Cc1ccccc1

>  <Energy>  (41) 
30.080224019732565

>  <Genealogy>  (41) 
Cc1[n-]c(=O)[n-]c(=O)c1S(=O)(=O)[N-]Cc1ccccc1 (protonated)
Cc1[n-]c(=O)[n-]c(=O)c1S(=O)(=O)[N-]Cc1ccccc1 (3D coordinates assigned)
Cc1[n-]c(=O)[n-]c(=O)c1S(=O)(=O)[N-]Cc1ccccc1 (optimized conformer: 30.080224019732565 kcal/mol)

>  <smiles>  (41) 
Cc1[nH]c(=O)[nH]c(=O)c1S(=O)(=O)NCc1ccccc1

>  <score_type>  (41) 
oracle

>  <origin>  (41) 
adg

>  <m_score__min__energy>  (41) 
-10.16

>  <m_primary>  (41) 
energy

$$$$
41:0
     RDKit          3D

 31 33  0  0  0  0  0  0  0  0999 V2000
   -8.2627   24.6513  -30.3988 H   0  0  0  0  0  0  0  0  0  0  0  0
   -7.1850   24.4600  -30.5080 C   0  0  0  0  0  0  0  0  0  0  0  0
   -5.9470   25.4990  -30.0320 S   0  0  0  0  0  0  0  0  0  0  0  0
   -4.7440   24.4570  -30.5520 C   0  0  0  0  0  0  0  0  0  0  0  0
   -3.4740   24.7150  -30.4640 N   0  0  0  0  0  0  0  0  0  0  0  0
   -2.4840   23.7880  -29.9190 C   0  0  0  0  0  0  0  0  0  0  0  0
   -1.8007   23.4759  -30.7226 H   0  0  0  0  0  0  0  0  0  0  0  0
   -3.0082   22.9149  -29.5033 H   0  0  0  0  0  0  0  0  0  0  0  0
   -1.6920   24.4410  -28.8250 C   0  0  0  0  0  0  0  0  0  0  0  0
   -0.4230   24.8670  -28.9750 N   0  0  0  0  0  0  0  0  0  0  0  0
   -0.0710   25.4420  -27.8330 N   0  0  0  0  0  0  0  0  0  0  0  0
   -1.1300   25.3630  -27.0050 C   0  0  0  0  0  0  0  0  0  0  0  0
   -1.1503   25.7640  -25.9809 H   0  0  0  0  0  0  0  0  0  0  0  0
   -2.1590   24.7300  -27.5940 N   0  0  0  0  0  0  0  0  0  0  0  0
   -3.5040   24.5420  -27.0620 C   0  0  0  0  0  0  0  0  0  0  0  0
   -3.4675   24.5471  -25.9626 H   0  0  0  0  0  0  0  0  0  0  0  0
   -4.1538   25.3581  -27.4111 H   0  0  0  0  0  0  0  0  0  0  0  0
   -3.9051   23.5791  -27.4111 H   0  0  0  0  0  0  0  0  0  0  0  0
   -5.2480   23.3220  -31.0870 N   0  0  0  0  0  0  0  0  0  0  0  0
   -6.6100   23.3120  -31.0660 C   0  0  0  0  0  0  0  0  0  0  0  0
   -7.3810   22.1690  -31.6200 C   0  0  0  0  0  0  0  0  0  0  0  0
   -6.7480   21.1220  -32.3200 C   0  0  0  0  0  0  0  0  0  0  0  0
   -5.6577   21.1428  -32.4646 H   0  0  0  0  0  0  0  0  0  0  0  0
   -7.4960   20.0570  -32.8320 C   0  0  0  0  0  0  0  0  0  0  0  0
   -6.9920   19.2432  -33.3740 H   0  0  0  0  0  0  0  0  0  0  0  0
   -8.8810   20.0240  -32.6570 C   0  0  0  0  0  0  0  0  0  0  0  0
   -9.4671   19.1849  -33.0601 H   0  0  0  0  0  0  0  0  0  0  0  0
   -9.5210   21.0570  -31.9700 C   0  0  0  0  0  0  0  0  0  0  0  0
  -10.6122   21.0313  -31.8335 H   0  0  0  0  0  0  0  0  0  0  0  0
   -8.7790   22.1240  -31.4550 C   0  0  0  0  0  0  0  0  0  0  0  0
   -9.2912   22.9350  -30.9165 H   0  0  0  0  0  0  0  0  0  0  0  0
  1  2  1  0
  2  3  1  0
  3  4  1  0
  4  5  2  0
  5  6  1  0
  6  7  1  0
  6  8  1  0
  6  9  1  0
  9 10  2  0
 10 11  1  0
 11 12  2  0
 12 13  1  0
 12 14  1  0
 14 15  1  0
 15 16  1  0
 15 17  1  0
 15 18  1  0
  4 19  1  0
 19 20  1  0
 20 21  1  0
 21 22  2  0
 22 23  1  0
 22 24  1  0
 24 25  1  0
 24 26  2  0
 26 27  1  0
 26 28  1  0
 28 29  1  0
 28 30  2  0
 30 31  1  0
 20  2  2  0
 30 21  1  0
 14  9  1  0
M  CHG  1  19  -1
M  END
>  <UniqueID>  (42) 
39

>  <SMILES>  (42) 
Cn1cnnc1C/N=c1\[n-]c(-c2ccccc2)cs1

>  <Energy>  (42) 
97.05608651915165

>  <Genealogy>  (42) 
Cn1cnnc1CN=c1[n-]c(-c2ccccc2)cs1 (protonated)
Cn1cnnc1C/N=c1\[n-]c(-c2ccccc2)cs1 (cis-trans isomerization)
Cn1cnnc1C/N=c1\[n-]c(-c2ccccc2)cs1 (3D coordinates assigned)
Cn1cnnc1C/N=c1\[n-]c(-c2ccccc2)cs1 (optimized conformer: 97.05608651915165 kcal/mol)

>  <smiles>  (42) 
Cn1cnnc1CN=c1[nH]c(-c2ccccc2)cs1

>  <score_type>  (42) 
oracle

>  <origin>  (42) 
adg

>  <m_score__min__energy>  (42) 
-8.8900000000000006

>  <m_primary>  (42) 
energy

$$$$
42:0
     RDKit          3D

 59 63  0  0  1  0  0  0  0  0999 V2000
   -2.4910   21.7630  -32.0710 C   0  0  0  0  0  0  0  0  0  0  0  0
   -1.1580   21.5530  -32.3200 C   0  0  0  0  0  0  0  0  0  0  0  0
   -0.7120   20.7180  -33.3370 C   0  0  0  0  0  0  0  0  0  0  0  0
    0.6740   20.5210  -33.5690 N   0  0  0  0  0  0  0  0  0  0  0  0
    1.4770   21.2600  -34.4910 C   0  0  0  0  0  0  0  0  0  0  0  0
    2.4510   20.4200  -35.2860 C   0  0  0  0  0  0  0  0  0  0  0  0
    3.1300   19.3490  -34.5010 C   0  0  0  0  0  0  0  0  0  0  0  0
    2.8080   19.4110  -33.0250 C   0  0  0  0  0  0  0  0  0  0  0  0
    1.3350   19.4730  -32.7900 C   0  0  0  0  0  0  0  0  0  0  0  0
   -1.6970   20.1090  -34.0900 C   0  0  0  0  0  0  0  0  0  0  0  0
   -3.0540   20.3210  -33.8400 C   0  0  0  0  0  0  0  0  0  0  0  0
   -3.4760   21.1530  -32.8260 C   0  0  0  0  0  0  0  0  0  0  0  0
   -4.8850   21.3950  -32.5380 C   0  0  0  0  0  0  0  0  0  0  0  0
   -5.2720   22.6530  -32.2400 N   0  0  0  0  0  0  0  0  0  0  0  0
   -6.5520   22.9510  -31.9620 C   0  0  0  0  0  0  0  0  0  0  0  0
   -6.8220   24.1880  -31.6880 N   0  0  0  0  0  0  0  0  0  0  0  0
   -6.2270   24.8170  -30.5140 C   0  0  1  0  0  0  0  0  0  0  0  0
   -5.6490   23.7290  -29.6380 C   0  0  0  0  0  0  0  0  0  0  0  0
   -4.1650   23.9940  -29.5280 C   0  0  0  0  0  0  0  0  0  0  0  0
   -3.8570   24.8190  -30.6620 N   0  0  0  0  0  0  0  0  0  0  0  0
   -5.0220   25.6580  -30.8470 C   0  0  0  0  0  0  0  0  0  0  0  0
   -7.5200   21.9690  -31.9730 C   0  0  0  0  0  0  0  0  0  0  0  0
   -7.1260   20.6840  -32.2770 C   0  0  0  0  0  0  0  0  0  0  0  0
   -5.8280   20.4540  -32.5460 N   0  0  0  0  0  0  0  0  0  0  0  0
   -8.1160   19.5590  -32.3120 C   0  0  0  0  0  0  0  0  0  0  0  0
   -9.4470   20.1800  -32.7010 C   0  0  0  0  0  0  0  0  0  0  0  0
   -9.8240   21.1450  -31.5920 C   0  0  0  0  0  0  0  0  0  0  0  0
   -8.9090   22.3540  -31.6610 C   0  0  0  0  0  0  0  0  0  0  0  0
   -2.7836   22.4338  -31.2497 H   0  0  0  0  0  0  0  0  0  0  0  0
   -0.4148   22.0648  -31.6910 H   0  0  0  0  0  0  0  0  0  0  0  0
    0.8067   21.7708  -35.1980 H   0  0  0  0  0  0  0  0  0  0  0  0
    2.0810   21.9571  -33.8917 H   0  0  0  0  0  0  0  0  0  0  0  0
    1.9004   19.9444  -36.1110 H   0  0  0  0  0  0  0  0  0  0  0  0
    3.2414   21.1021  -35.6324 H   0  0  0  0  0  0  0  0  0  0  0  0
    2.8094   18.3713  -34.8899 H   0  0  0  0  0  0  0  0  0  0  0  0
    4.2147   19.4957  -34.6098 H   0  0  0  0  0  0  0  0  0  0  0  0
    3.2113   18.5137  -32.5329 H   0  0  0  0  0  0  0  0  0  0  0  0
    3.2631   20.3223  -32.6098 H   0  0  0  0  0  0  0  0  0  0  0  0
    0.8954   18.5027  -33.0642 H   0  0  0  0  0  0  0  0  0  0  0  0
    1.1817   19.7081  -31.7264 H   0  0  0  0  0  0  0  0  0  0  0  0
   -1.4036   19.4375  -34.9104 H   0  0  0  0  0  0  0  0  0  0  0  0
   -3.8024   19.8129  -34.4659 H   0  0  0  0  0  0  0  0  0  0  0  0
   -7.0212   25.4250  -30.0562 H   0  0  0  0  0  0  0  0  0  0  0  0
   -6.1134   23.7596  -28.6413 H   0  0  0  0  0  0  0  0  0  0  0  0
   -5.8400   22.7348  -30.0683 H   0  0  0  0  0  0  0  0  0  0  0  0
   -3.9335   24.5210  -28.5906 H   0  0  0  0  0  0  0  0  0  0  0  0
   -3.5761   23.0650  -29.5170 H   0  0  0  0  0  0  0  0  0  0  0  0
   -3.7660   24.1830  -31.5040 H   0  0  0  0  0  0  0  0  0  0  0  0
   -4.9714   26.5282  -30.1760 H   0  0  0  0  0  0  0  0  0  0  0  0
   -5.0770   26.0316  -31.8802 H   0  0  0  0  0  0  0  0  0  0  0  0
   -5.5730   19.4680  -32.7700 H   0  0  0  0  0  0  0  0  0  0  0  0
   -7.8135   18.8075  -33.0561 H   0  0  0  0  0  0  0  0  0  0  0  0
   -8.1796   19.0496  -31.3391 H   0  0  0  0  0  0  0  0  0  0  0  0
   -9.3485   20.7194  -33.6546 H   0  0  0  0  0  0  0  0  0  0  0  0
  -10.2193   19.4074  -32.8301 H   0  0  0  0  0  0  0  0  0  0  0  0
  -10.8687   21.4647  -31.7199 H   0  0  0  0  0  0  0  0  0  0  0  0
   -9.7162   20.6510  -30.6151 H   0  0  0  0  0  0  0  0  0  0  0  0
   -9.2751   23.0340  -32.4443 H   0  0  0  0  0  0  0  0  0  0  0  0
   -8.9160   22.8462  -30.6773 H   0  0  0  0  0  0  0  0  0  0  0  0
  1  2  2  0
  2  3  1  0
  3  4  1  0
  4  5  1  0
  5  6  1  0
  6  7  1  0
  7  8  1  0
  8  9  1  0
  3 10  2  0
 10 11  1  0
 11 12  2  0
 12 13  1  0
 13 14  2  0
 14 15  1  0
 15 16  2  0
 16 17  1  0
 17 18  1  0
 18 19  1  0
 19 20  1  0
 20 21  1  0
 15 22  1  0
 22 23  2  0
 23 24  1  0
 23 25  1  0
 25 26  1  0
 26 27  1  0
 27 28  1  0
 12  1  1  0
 24 13  1  0
  9  4  1  0
 21 17  1  0
 28 22  1  0
  1 29  1  0
  2 30  1  0
  5 31  1  0
  5 32  1  0
  6 33  1  0
  6 34  1  0
  7 35  1  0
  7 36  1  0
  8 37  1  0
  8 38  1  0
  9 39  1  0
  9 40  1  0
 10 41  1  0
 11 42  1  0
 17 43  1  1
 18 44  1  0
 18 45  1  0
 19 46  1  0
 19 47  1  0
 20 48  1  0
 21 49  1  0
 21 50  1  0
 24 51  1  0
 25 52  1  0
 25 53  1  0
 26 54  1  0
 26 55  1  0
 27 56  1  0
 27 57  1  0
 28 58  1  0
 28 59  1  0
M  END
>  <smiles>  (43) 
c1cc(N2CCCCC2)ccc1-c1nc(=NC2CCNC2)c2c([nH]1)CCCC2

>  <score_type>  (43) 
oracle

>  <origin>  (43) 
adg

>  <m_score__min__energy>  (43) 
-9.5

>  <m_primary>  (43) 
energy

$$$$
43:0
     RDKit          3D

 60 63  0  0  0  0  0  0  0  0999 V2000
   -1.3750   25.5250  -29.1180 N   0  0  0  0  0  0  0  0  0  0  0  0
   -2.8840   24.6890  -29.2450 S   0  0  0  0  0  0  0  0  0  0  0  0
   -3.6530   25.2760  -30.3950 O   0  0  0  0  0  0  0  0  0  0  0  0
   -3.6580   24.8820  -27.9710 O   0  0  0  0  0  0  0  0  0  0  0  0
   -2.6070   22.9630  -29.5140 C   0  0  0  0  0  0  0  0  0  0  0  0
   -1.4220   22.3820  -29.0360 C   0  0  0  0  0  0  0  0  0  0  0  0
   -1.1590   21.0270  -29.2500 C   0  0  0  0  0  0  0  0  0  0  0  0
   -2.0780   20.2360  -29.9410 C   0  0  0  0  0  0  0  0  0  0  0  0
   -3.2660   20.7970  -30.4120 C   0  0  0  0  0  0  0  0  0  0  0  0
   -3.5450   22.1560  -30.2000 C   0  0  0  0  0  0  0  0  0  0  0  0
   -4.7910   22.6900  -30.6720 N   0  0  0  0  0  0  0  0  0  0  0  0
   -5.6780   23.4190  -29.7640 C   0  0  0  0  0  0  0  0  0  0  0  0
   -7.1060   22.8430  -29.8220 C   0  0  0  0  0  0  0  0  0  0  0  0
   -7.5190   22.3560  -31.1690 N   0  0  0  0  0  0  0  0  0  0  0  0
   -7.6620   20.8830  -31.2190 C   0  0  0  0  0  0  0  0  0  0  0  0
   -8.6310   20.4790  -32.3400 C   0  0  0  0  0  0  0  0  0  0  0  0
   -8.9530   18.9760  -32.3350 C   0  0  0  0  0  0  0  0  0  0  0  0
   -7.7860   18.1150  -32.8350 C   0  0  0  0  0  0  0  0  0  0  0  0
   -6.8160   18.9560  -33.5420 N   0  0  0  0  0  0  0  0  0  0  0  0
   -5.5060   17.9760  -34.1250 S   0  0  0  0  0  0  0  0  0  0  0  0
   -5.5740   16.6080  -33.5060 O   0  0  0  0  0  0  0  0  0  0  0  0
   -5.6100   17.8380  -35.6180 O   0  0  0  0  0  0  0  0  0  0  0  0
   -3.9700   18.7270  -33.7280 C   0  0  0  0  0  0  0  0  0  0  0  0
   -2.8170   18.0400  -33.3610 C   0  0  0  0  0  0  0  0  0  0  0  0
   -1.7390   18.9020  -33.1420 C   0  0  0  0  0  0  0  0  0  0  0  0
   -0.4460   18.5280  -32.7650 C   0  0  0  0  0  0  0  0  0  0  0  0
    0.5240   19.5300  -32.5910 C   0  0  0  0  0  0  0  0  0  0  0  0
    0.1960   20.8850  -32.7940 C   0  0  0  0  0  0  0  0  0  0  0  0
   -1.1050   21.2500  -33.1740 C   0  0  0  0  0  0  0  0  0  0  0  0
   -2.0500   20.2400  -33.3390 C   0  0  0  0  0  0  0  0  0  0  0  0
   -3.6620   20.3880  -33.7920 S   0  0  0  0  0  0  0  0  0  0  0  0
   -6.6650   22.8660  -32.2630 C   0  0  0  0  0  0  0  0  0  0  0  0
   -5.2000   22.4570  -32.0600 C   0  0  0  0  0  0  0  0  0  0  0  0
   -1.2350   26.0410  -30.0150 H   0  0  0  0  0  0  0  0  0  0  0  0
   -0.6944   22.9989  -28.4883 H   0  0  0  0  0  0  0  0  0  0  0  0
   -0.2260   20.5826  -28.8733 H   0  0  0  0  0  0  0  0  0  0  0  0
   -1.8661   19.1706  -30.1144 H   0  0  0  0  0  0  0  0  0  0  0  0
   -3.9891   20.1693  -30.9534 H   0  0  0  0  0  0  0  0  0  0  0  0
   -5.2945   23.3319  -28.7367 H   0  0  0  0  0  0  0  0  0  0  0  0
   -5.7089   24.4750  -30.0704 H   0  0  0  0  0  0  0  0  0  0  0  0
   -7.1658   21.9999  -29.1180 H   0  0  0  0  0  0  0  0  0  0  0  0
   -7.7876   23.6667  -29.5632 H   0  0  0  0  0  0  0  0  0  0  0  0
   -6.6781   20.4292  -31.4088 H   0  0  0  0  0  0  0  0  0  0  0  0
   -8.0609   20.5295  -30.2567 H   0  0  0  0  0  0  0  0  0  0  0  0
   -9.5687   21.0399  -32.2133 H   0  0  0  0  0  0  0  0  0  0  0  0
   -8.1439   20.7105  -33.2987 H   0  0  0  0  0  0  0  0  0  0  0  0
   -9.1977   18.6727  -31.3064 H   0  0  0  0  0  0  0  0  0  0  0  0
   -9.7986   18.8168  -33.0202 H   0  0  0  0  0  0  0  0  0  0  0  0
   -7.2944   17.6326  -31.9773 H   0  0  0  0  0  0  0  0  0  0  0  0
   -8.1698   17.3468  -33.5224 H   0  0  0  0  0  0  0  0  0  0  0  0
   -7.2880   19.3600  -34.3830 H   0  0  0  0  0  0  0  0  0  0  0  0
   -2.7606   16.9465  -33.2556 H   0  0  0  0  0  0  0  0  0  0  0  0
   -0.1924   17.4693  -32.6075 H   0  0  0  0  0  0  0  0  0  0  0  0
    1.5467   19.2543  -32.2942 H   0  0  0  0  0  0  0  0  0  0  0  0
    0.9632   21.6607  -32.6540 H   0  0  0  0  0  0  0  0  0  0  0  0
   -1.3710   22.3048  -33.3370 H   0  0  0  0  0  0  0  0  0  0  0  0
   -7.0230   22.4556  -33.2187 H   0  0  0  0  0  0  0  0  0  0  0  0
   -6.7227   23.9645  -32.2667 H   0  0  0  0  0  0  0  0  0  0  0  0
   -5.0860   21.3889  -32.2968 H   0  0  0  0  0  0  0  0  0  0  0  0
   -4.5658   23.0619  -32.7247 H   0  0  0  0  0  0  0  0  0  0  0  0
  1  2  1  0
  2  3  2  0
  2  4  2  0
  2  5  1  0
  5  6  2  0
  6  7  1  0
  7  8  2  0
  8  9  1  0
  9 10  2  0
 10 11  1  0
 11 12  1  0
 12 13  1  0
 13 14  1  0
 14 15  1  0
 15 16  1  0
 16 17  1  0
 17 18  1  0
 18 19  1  0
 19 20  1  0
 20 21  2  0
 20 22  2  0
 20 23  1  0
 23 24  2  0
 24 25  1  0
 25 26  2  0
 26 27  1  0
 27 28  2  0
 28 29  1  0
 29 30  2  0
 30 31  1  0
 14 32  1  0
 32 33  1  0
 10  5  1  0
 33 11  1  0
 31 23  1  0
 30 25  1  0
  1 34  1  0
  6 35  1  0
  7 36  1  0
  8 37  1  0
  9 38  1  0
 12 39  1  0
 12 40  1  0
 13 41  1  0
 13 42  1  0
 15 43  1  0
 15 44  1  0
 16 45  1  0
 16 46  1  0
 17 47  1  0
 17 48  1  0
 18 49  1  0
 18 50  1  0
 19 51  1  0
 24 52  1  0
 26 53  1  0
 27 54  1  0
 28 55  1  0
 29 56  1  0
 32 57  1  0
 32 58  1  0
 33 59  1  0
 33 60  1  0
M  CHG  1   1  -1
M  END
>  <UniqueID>  (44) 
40

>  <SMILES>  (44) 
[NH-]S(=O)(=O)c1ccccc1N1CCN(CCCCNS(=O)(=O)c2cc3ccccc3s2)CC1

>  <Energy>  (44) 
100.28297202951815

>  <Genealogy>  (44) 
[NH-]S(=O)(=O)c1ccccc1N1CCN(CCCCNS(=O)(=O)c2cc3ccccc3s2)CC1 (protonated)
[NH-]S(=O)(=O)c1ccccc1N1CCN(CCCCNS(=O)(=O)c2cc3ccccc3s2)CC1 (3D coordinates assigned)
[NH-]S(=O)(=O)c1ccccc1N1CCN(CCCCNS(=O)(=O)c2cc3ccccc3s2)CC1 (nonaromatic ring conformer: 100.28297202951815 kcal/mol)

>  <smiles>  (44) 
NS(=O)(=O)c1ccccc1N1CCN(CCCCNS(=O)(=O)c2cc3ccccc3s2)CC1

>  <score_type>  (44) 
oracle

>  <origin>  (44) 
adg

>  <m_score__min__energy>  (44) 
-13.300000000000001

>  <m_primary>  (44) 
energy

$$$$
44:0
     RDKit          3D

 24 26  0  0  0  0  0  0  0  0999 V2000
   -6.9180   17.1110  -33.1430 C   0  0  0  0  0  0  0  0  0  0  0  0
   -6.1120   17.3860  -34.2360 C   0  0  0  0  0  0  0  0  0  0  0  0
   -5.7350   19.0210  -34.2030 S   0  0  0  0  0  0  0  0  0  0  0  0
   -6.5890   19.4040  -32.8000 C   0  0  0  0  0  0  0  0  0  0  0  0
   -6.6750   20.7550  -32.1850 C   0  0  0  0  0  0  0  0  0  0  0  0
   -7.9170   21.3770  -31.9640 C   0  0  0  0  0  0  0  0  0  0  0  0
   -7.9670   22.6120  -31.4010 N   0  0  0  0  0  0  0  0  0  0  0  0
   -6.8370   23.2700  -31.0410 C   0  0  0  0  0  0  0  0  0  0  0  0
   -6.9100   24.5410  -30.4620 C   0  0  0  0  0  0  0  0  0  0  0  0
   -5.7360   25.2080  -30.0950 C   0  0  0  0  0  0  0  0  0  0  0  0
   -4.4910   24.6070  -30.3060 C   0  0  0  0  0  0  0  0  0  0  0  0
   -4.4120   23.3350  -30.8840 C   0  0  0  0  0  0  0  0  0  0  0  0
   -5.5860   22.6590  -31.2560 C   0  0  0  0  0  0  0  0  0  0  0  0
   -5.5340   21.4200  -31.8210 N   0  0  0  0  0  0  0  0  0  0  0  0
   -7.1870   18.2280  -32.3410 C   0  0  0  0  0  0  0  0  0  0  0  0
   -7.3110   16.1070  -32.9248 H   0  0  0  0  0  0  0  0  0  0  0  0
   -5.7780   16.6604  -34.9922 H   0  0  0  0  0  0  0  0  0  0  0  0
   -8.8476   20.8634  -32.2471 H   0  0  0  0  0  0  0  0  0  0  0  0
   -7.8884   25.0154  -30.2955 H   0  0  0  0  0  0  0  0  0  0  0  0
   -5.7925   26.2076  -29.6394 H   0  0  0  0  0  0  0  0  0  0  0  0
   -3.5709   25.1358  -30.0167 H   0  0  0  0  0  0  0  0  0  0  0  0
   -3.4311   22.8646  -31.0470 H   0  0  0  0  0  0  0  0  0  0  0  0
   -4.6010   20.9760  -31.9760 H   0  0  0  0  0  0  0  0  0  0  0  0
   -7.8101   18.1831  -31.4356 H   0  0  0  0  0  0  0  0  0  0  0  0
  1  2  2  0
  2  3  1  0
  3  4  1  0
  4  5  1  0
  5  6  2  0
  6  7  1  0
  7  8  2  0
  8  9  1  0
  9 10  2  0
 10 11  1  0
 11 12  2  0
 12 13  1  0
 13 14  2  0
  4 15  2  0
 15  1  1  0
 14  5  1  0
 13  8  1  0
  1 16  1  0
  2 17  1  0
  6 18  1  0
  9 19  1  0
 10 20  1  0
 11 21  1  0
 12 22  1  0
 14 23  1  0
 15 24  1  0
M  CHG  1  14   1
M  END
>  <UniqueID>  (45) 
41

>  <SMILES>  (45) 
c1csc(-c2cnc3ccccc3[nH+]2)c1

>  <Energy>  (45) 
58.57862099273965

>  <Genealogy>  (45) 
c1csc(-c2cnc3ccccc3[nH+]2)c1 (protonated)
c1csc(-c2cnc3ccccc3[nH+]2)c1 (3D coordinates assigned)
c1csc(-c2cnc3ccccc3[nH+]2)c1 (optimized conformer: 58.57862099273965 kcal/mol)

>  <smiles>  (45) 
c1csc(-c2cnc3ccccc3n2)c1

>  <score_type>  (45) 
oracle

>  <origin>  (45) 
adg

>  <m_score__min__energy>  (45) 
-5.5899999999999999

>  <m_primary>  (45) 
energy

$$$$
45:0
     RDKit          3D

 45 47  0  0  0  0  0  0  0  0999 V2000
    0.2690   23.9100  -36.0950 C   0  0  0  0  0  0  0  0  0  0  0  0
    0.2400   22.7120  -35.3260 O   0  0  0  0  0  0  0  0  0  0  0  0
    1.3510   21.8850  -35.1000 C   0  0  0  0  0  0  0  0  0  0  0  0
    2.6080   22.1490  -35.6780 C   0  0  0  0  0  0  0  0  0  0  0  0
    3.6830   21.2870  -35.4510 C   0  0  0  0  0  0  0  0  0  0  0  0
    3.5180   20.1570  -34.6470 C   0  0  0  0  0  0  0  0  0  0  0  0
    2.2780   19.8890  -34.0650 C   0  0  0  0  0  0  0  0  0  0  0  0
    1.1940   20.7500  -34.2820 C   0  0  0  0  0  0  0  0  0  0  0  0
   -0.0790   20.4650  -33.6820 N   0  0  0  0  0  0  0  0  0  0  0  0
   -0.9760   19.4900  -34.3100 C   0  0  0  0  0  0  0  0  0  0  0  0
   -2.3920   19.6080  -33.7310 C   0  0  0  0  0  0  0  0  0  0  0  0
   -2.6970   21.0220  -33.4420 N   0  0  0  0  0  0  0  0  0  0  0  0
   -4.1040   21.2100  -33.1540 C   0  0  0  0  0  0  0  0  0  0  0  0
   -4.5950   22.5440  -32.3270 S   0  0  0  0  0  0  0  0  0  0  0  0
   -5.0850   20.2830  -33.6540 N   0  0  0  0  0  0  0  0  0  0  0  0
   -6.2650   19.9060  -32.9290 C   0  0  0  0  0  0  0  0  0  0  0  0
   -7.2770   20.8560  -32.7130 C   0  0  0  0  0  0  0  0  0  0  0  0
   -8.4530   20.4960  -32.0430 C   0  0  0  0  0  0  0  0  0  0  0  0
   -8.6330   19.1820  -31.6020 C   0  0  0  0  0  0  0  0  0  0  0  0
   -7.6380   18.2280  -31.8230 C   0  0  0  0  0  0  0  0  0  0  0  0
   -6.4590   18.5840  -32.4880 C   0  0  0  0  0  0  0  0  0  0  0  0
   -1.8710   21.5360  -32.3240 C   0  0  0  0  0  0  0  0  0  0  0  0
   -0.4120   21.0280  -32.3680 C   0  0  0  0  0  0  0  0  0  0  0  0
    0.2900   24.7784  -35.4202 H   0  0  0  0  0  0  0  0  0  0  0  0
    1.1676   23.9168  -36.7294 H   0  0  0  0  0  0  0  0  0  0  0  0
   -0.6282   23.9603  -36.7294 H   0  0  0  0  0  0  0  0  0  0  0  0
    2.7436   23.0383  -36.3111 H   0  0  0  0  0  0  0  0  0  0  0  0
    4.6617   21.4985  -35.9064 H   0  0  0  0  0  0  0  0  0  0  0  0
    4.3656   19.4780  -34.4724 H   0  0  0  0  0  0  0  0  0  0  0  0
    2.1511   18.9977  -33.4330 H   0  0  0  0  0  0  0  0  0  0  0  0
   -1.0117   19.6770  -35.3934 H   0  0  0  0  0  0  0  0  0  0  0  0
   -0.5946   18.4776  -34.1110 H   0  0  0  0  0  0  0  0  0  0  0  0
   -3.1183   19.2193  -34.4600 H   0  0  0  0  0  0  0  0  0  0  0  0
   -2.4536   19.0254  -32.8000 H   0  0  0  0  0  0  0  0  0  0  0  0
   -2.4570   21.5850  -34.2950 H   0  0  0  0  0  0  0  0  0  0  0  0
   -4.9680   19.9070  -34.6200 H   0  0  0  0  0  0  0  0  0  0  0  0
   -7.1452   21.8875  -33.0718 H   0  0  0  0  0  0  0  0  0  0  0  0
   -9.2356   21.2480  -31.8637 H   0  0  0  0  0  0  0  0  0  0  0  0
   -9.5593   18.8993  -31.0804 H   0  0  0  0  0  0  0  0  0  0  0  0
   -7.7809   17.1947  -31.4739 H   0  0  0  0  0  0  0  0  0  0  0  0
   -5.6809   17.8272  -32.6666 H   0  0  0  0  0  0  0  0  0  0  0  0
   -1.8612   22.6349  -32.3718 H   0  0  0  0  0  0  0  0  0  0  0  0
   -2.3189   21.1697  -31.3885 H   0  0  0  0  0  0  0  0  0  0  0  0
    0.2658   21.8682  -32.1567 H   0  0  0  0  0  0  0  0  0  0  0  0
   -0.2991   20.2354  -31.6137 H   0  0  0  0  0  0  0  0  0  0  0  0
  1  2  1  0
  2  3  1  0
  3  4  2  0
  4  5  1  0
  5  6  2  0
  6  7  1  0
  7  8  2  0
  8  9  1  0
  9 10  1  0
 10 11  1  0
 11 12  1  0
 12 13  1  0
 13 14  2  0
 13 15  1  0
 15 16  1  0
 16 17  2  0
 17 18  1  0
 18 19  2  0
 19 20  1  0
 20 21  2  0
 12 22  1  0
 22 23  1  0
  8  3  1  0
 23  9  1  0
 21 16  1  0
  1 24  1  0
  1 25  1  0
  1 26  1  0
  4 27  1  0
  5 28  1  0
  6 29  1  0
  7 30  1  0
 10 31  1  0
 10 32  1  0
 11 33  1  0
 11 34  1  0
 12 35  1  0
 15 36  1  0
 17 37  1  0
 18 38  1  0
 19 39  1  0
 20 40  1  0
 21 41  1  0
 22 42  1  0
 22 43  1  0
 23 44  1  0
 23 45  1  0
M  CHG  1  12   1
M  END
>  <UniqueID>  (46) 
42

>  <SMILES>  (46) 
COc1ccccc1N1CC[NH+](C(=S)Nc2ccccc2)CC1

>  <Energy>  (46) 
63.74816068634828

>  <Genealogy>  (46) 
COc1ccccc1N1CC[NH+](C(=S)Nc2ccccc2)CC1 (protonated)
COc1ccccc1N1CC[NH+](C(=S)Nc2ccccc2)CC1 (3D coordinates assigned)
COc1ccccc1N1CC[NH+](C(=S)Nc2ccccc2)CC1 (nonaromatic ring conformer: 63.74816068634828 kcal/mol)

>  <smiles>  (46) 
COc1ccccc1N1CCN(C(=S)Nc2ccccc2)CC1

>  <score_type>  (46) 
oracle

>  <origin>  (46) 
adg

>  <m_score__min__energy>  (46) 
-6.7400000000000002

>  <m_primary>  (46) 
energy

$$$$
46:0
     RDKit          3D

 61 66  0  0  0  0  0  0  0  0999 V2000
   -6.2979   26.4164  -30.3883 H   0  0  0  0  0  0  0  0  0  0  0  0
   -6.0910   25.3360  -30.3930 C   0  0  0  0  0  0  0  0  0  0  0  0
   -7.1490   24.4230  -30.4390 C   0  0  0  0  0  0  0  0  0  0  0  0
   -8.1870   24.7857  -30.4697 H   0  0  0  0  0  0  0  0  0  0  0  0
   -6.8880   23.0470  -30.4460 C   0  0  0  0  0  0  0  0  0  0  0  0
   -8.2150   21.9010  -30.5070 Cl  0  0  0  0  0  0  0  0  0  0  0  0
   -5.5680   22.5860  -30.4050 C   0  0  0  0  0  0  0  0  0  0  0  0
   -5.3635   21.5052  -30.4104 H   0  0  0  0  0  0  0  0  0  0  0  0
   -4.5040   23.5000  -30.3570 C   0  0  0  0  0  0  0  0  0  0  0  0
   -3.1430   23.0250  -30.3130 N   0  0  0  0  0  0  0  0  0  0  0  0
   -2.6950   22.1480  -31.2720 C   0  0  0  0  0  0  0  0  0  0  0  0
   -3.5240   21.6240  -32.2820 C   0  0  0  0  0  0  0  0  0  0  0  0
   -4.5723   21.9517  -32.3427 H   0  0  0  0  0  0  0  0  0  0  0  0
   -3.0400   20.6920  -33.2130 C   0  0  0  0  0  0  0  0  0  0  0  0
   -3.9490   19.9640  -33.8100 N   0  0  0  0  0  0  0  0  0  0  0  0
   -5.0660   19.2140  -33.2360 C   0  0  0  0  0  0  0  0  0  0  0  0
   -4.5064   18.6976  -32.4422 H   0  0  0  0  0  0  0  0  0  0  0  0
   -6.4160   19.9140  -33.2800 C   0  0  0  0  0  0  0  0  0  0  0  0
   -7.1654   19.7127  -32.5004 H   0  0  0  0  0  0  0  0  0  0  0  0
   -6.7472   20.9618  -33.3281 H   0  0  0  0  0  0  0  0  0  0  0  0
   -6.0830   18.8470  -34.3050 C   0  0  0  0  0  0  0  0  0  0  0  0
   -6.5912   17.8721  -34.2686 H   0  0  0  0  0  0  0  0  0  0  0  0
   -6.0731   18.8013  -35.4040 H   0  0  0  0  0  0  0  0  0  0  0  0
   -1.6300   20.4490  -33.2900 C   0  0  0  0  0  0  0  0  0  0  0  0
   -1.0070   20.0000  -34.3490 N   0  0  0  0  0  0  0  0  0  0  0  0
    0.1610   20.5090  -35.0070 C   0  0  0  0  0  0  0  0  0  0  0  0
    1.1470   19.6470  -35.5150 C   0  0  0  0  0  0  0  0  0  0  0  0
    1.0457   18.5598  -35.3817 H   0  0  0  0  0  0  0  0  0  0  0  0
    2.2560   20.1650  -36.1890 C   0  0  0  0  0  0  0  0  0  0  0  0
    3.0341   19.4847  -36.5655 H   0  0  0  0  0  0  0  0  0  0  0  0
    2.3830   21.5540  -36.3890 C   0  0  0  0  0  0  0  0  0  0  0  0
    3.4880   22.1130  -37.0500 O   0  0  0  0  0  0  0  0  0  0  0  0
    4.7550   22.3500  -36.4460 C   0  0  0  0  0  0  0  0  0  0  0  0
    4.6488   22.3301  -35.3513 H   0  0  0  0  0  0  0  0  0  0  0  0
    5.4628   21.5687  -36.7600 H   0  0  0  0  0  0  0  0  0  0  0  0
    5.1325   23.3343  -36.7600 H   0  0  0  0  0  0  0  0  0  0  0  0
    1.3730   22.4080  -35.9150 C   0  0  0  0  0  0  0  0  0  0  0  0
    1.4890   24.1430  -36.1590 Cl  0  0  0  0  0  0  0  0  0  0  0  0
    0.2630   21.8840  -35.2440 C   0  0  0  0  0  0  0  0  0  0  0  0
   -0.5355   22.5580  -34.9002 H   0  0  0  0  0  0  0  0  0  0  0  0
   -0.8150   20.8350  -32.2180 C   0  0  0  0  0  0  0  0  0  0  0  0
    0.2231   20.4744  -32.1689 H   0  0  0  0  0  0  0  0  0  0  0  0
   -1.3010   21.6700  -31.2120 C   0  0  0  0  0  0  0  0  0  0  0  0
   -0.4980   22.0990  -30.2070 N   0  0  0  0  0  0  0  0  0  0  0  0
    0.4930   21.7630  -30.1660 H   0  0  0  0  0  0  0  0  0  0  0  0
   -0.9540   22.9640  -29.2620 C   0  0  0  0  0  0  0  0  0  0  0  0
   -0.0920   23.3880  -28.2390 C   0  0  0  0  0  0  0  0  0  0  0  0
    0.9408   23.0110  -28.2057 H   0  0  0  0  0  0  0  0  0  0  0  0
   -0.5320   24.2820  -27.2650 C   0  0  0  0  0  0  0  0  0  0  0  0
    0.1553   24.6007  -26.4674 H   0  0  0  0  0  0  0  0  0  0  0  0
   -1.8370   24.7770  -27.2920 C   0  0  0  0  0  0  0  0  0  0  0  0
   -2.2240   25.6800  -26.2900 O   0  0  0  0  0  0  0  0  0  0  0  0
   -1.4230   26.0300  -25.1660 C   0  0  0  0  0  0  0  0  0  0  0  0
   -1.9669   25.7923  -24.2399 H   0  0  0  0  0  0  0  0  0  0  0  0
   -0.4820   25.4610  -25.1949 H   0  0  0  0  0  0  0  0  0  0  0  0
   -1.2013   27.1070  -25.1949 H   0  0  0  0  0  0  0  0  0  0  0  0
   -2.7120   24.3600  -28.3120 C   0  0  0  0  0  0  0  0  0  0  0  0
   -3.7406   24.7493  -28.3344 H   0  0  0  0  0  0  0  0  0  0  0  0
   -2.2910   23.4470  -29.3110 C   0  0  0  0  0  0  0  0  0  0  0  0
   -4.7700   24.8780  -30.3530 C   0  0  0  0  0  0  0  0  0  0  0  0
   -3.9392   25.5982  -30.3184 H   0  0  0  0  0  0  0  0  0  0  0  0
  1  2  1  0
  2  3  2  0
  3  4  1  0
  3  5  1  0
  5  6  1  0
  5  7  2  0
  7  8  1  0
  7  9  1  0
  9 10  1  0
 10 11  1  0
 11 12  2  0
 12 13  1  0
 12 14  1  0
 14 15  2  0
 15 16  1  0
 16 17  1  0
 16 18  1  0
 18 19  1  0
 18 20  1  0
 18 21  1  0
 21 22  1  0
 21 23  1  0
 14 24  1  0
 24 25  2  0
 25 26  1  0
 26 27  2  0
 27 28  1  0
 27 29  1  0
 29 30  1  0
 29 31  2  0
 31 32  1  0
 32 33  1  0
 33 34  1  0
 33 35  1  0
 33 36  1  0
 31 37  1  0
 37 38  1  0
 37 39  2  0
 39 40  1  0
 24 41  1  0
 41 42  1  0
 41 43  2  0
 43 44  1  0
 44 45  1  0
 44 46  1  0
 46 47  2  0
 47 48  1  0
 47 49  1  0
 49 50  1  0
 49 51  2  0
 51 52  1  0
 52 53  1  0
 53 54  1  0
 53 55  1  0
 53 56  1  0
 51 57  1  0
 57 58  1  0
 57 59  2  0
  9 60  2  0
 60 61  1  0
 60  2  1  0
 59 10  1  0
 43 11  1  0
 59 46  1  0
 21 16  1  0
 39 26  1  0
M  END
>  <UniqueID>  (47) 
43

>  <SMILES>  (47) 
COc1ccc2[nH]c3cc(=N/c4ccc(OC)c(Cl)c4)/c(=N\C4CC4)cc-3n(-c3cccc(Cl)c3)c2c1

>  <Energy>  (47) 
380.00643814123447

>  <Genealogy>  (47) 
COc1ccc2[nH]c3cc(=N/c4ccc(OC)c(Cl)c4)/c(=N\C4CC4)cc-3n(-c3cccc(Cl)c3)c2c1 (cis-trans isomerization)
COc1ccc2[nH]c3cc(=N/c4ccc(OC)c(Cl)c4)/c(=N\C4CC4)cc-3n(-c3cccc(Cl)c3)c2c1 (3D coordinates assigned)
COc1ccc2[nH]c3cc(=N/c4ccc(OC)c(Cl)c4)/c(=N\C4CC4)cc-3n(-c3cccc(Cl)c3)c2c1 (nonaromatic ring conformer: 380.00643814123447 kcal/mol)

>  <smiles>  (47) 
COc1ccc2[nH]c3cc(=Nc4ccc(OC)c(Cl)c4)c(=NC4CC4)cc-3n(-c3cccc(Cl)c3)c2c1

>  <score_type>  (47) 
oracle

>  <origin>  (47) 
adg

>  <m_score__min__energy>  (47) 
-10.74

>  <m_primary>  (47) 
energy

$$$$
47:0
     RDKit          3D

 23 23  0  0  0  0  0  0  0  0999 V2000
   -2.7020   22.2270  -31.2410 C   0  0  0  0  0  0  0  0  0  0  0  0
   -3.8130   23.0490  -31.5800 O   0  0  0  0  0  0  0  0  0  0  0  0
   -5.1390   22.5970  -31.6820 C   0  0  0  0  0  0  0  0  0  0  0  0
   -5.5010   21.5490  -32.5540 C   0  0  0  0  0  0  0  0  0  0  0  0
   -6.8290   21.1280  -32.6420 C   0  0  0  0  0  0  0  0  0  0  0  0
   -7.8120   21.7440  -31.8690 C   0  0  0  0  0  0  0  0  0  0  0  0
   -7.4710   22.7830  -31.0020 C   0  0  0  0  0  0  0  0  0  0  0  0
   -6.1360   23.2110  -30.8920 C   0  0  0  0  0  0  0  0  0  0  0  0
   -5.8020   24.3560  -29.9660 C   0  0  0  0  0  0  0  0  0  0  0  0
   -5.2580   25.5570  -30.7400 C   0  0  0  0  0  0  0  0  0  0  0  0
   -3.8640   25.6230  -30.6110 O   0  0  0  0  0  0  0  0  0  0  0  0
   -2.6143   22.1621  -30.1464 H   0  0  0  0  0  0  0  0  0  0  0  0
   -2.8506   21.2197  -31.6573 H   0  0  0  0  0  0  0  0  0  0  0  0
   -1.7822   22.6637  -31.6573 H   0  0  0  0  0  0  0  0  0  0  0  0
   -4.7313   21.0600  -33.1691 H   0  0  0  0  0  0  0  0  0  0  0  0
   -7.1005   20.3080  -33.3231 H   0  0  0  0  0  0  0  0  0  0  0  0
   -8.8577   21.4107  -31.9425 H   0  0  0  0  0  0  0  0  0  0  0  0
   -8.2521   23.2707  -30.4003 H   0  0  0  0  0  0  0  0  0  0  0  0
   -6.7125   24.6590  -29.4283 H   0  0  0  0  0  0  0  0  0  0  0  0
   -5.0278   24.0178  -29.2615 H   0  0  0  0  0  0  0  0  0  0  0  0
   -5.5203   25.4535  -31.8032 H   0  0  0  0  0  0  0  0  0  0  0  0
   -5.7008   26.4779  -30.3327 H   0  0  0  0  0  0  0  0  0  0  0  0
   -3.4980   24.9310  -31.2210 H   0  0  0  0  0  0  0  0  0  0  0  0
  1  2  1  0
  2  3  1  0
  3  4  2  0
  4  5  1  0
  5  6  2  0
  6  7  1  0
  7  8  2  0
  8  9  1  0
  9 10  1  0
 10 11  1  0
  8  3  1  0
  1 12  1  0
  1 13  1  0
  1 14  1  0
  4 15  1  0
  5 16  1  0
  6 17  1  0
  7 18  1  0
  9 19  1  0
  9 20  1  0
 10 21  1  0
 10 22  1  0
 11 23  1  0
M  END
>  <UniqueID>  (48) 
44

>  <SMILES>  (48) 
COc1ccccc1CCO

>  <Energy>  (48) 
18.02745308041408

>  <Genealogy>  (48) 
COc1ccccc1CCO (3D coordinates assigned)
COc1ccccc1CCO (optimized conformer: 18.02745308041408 kcal/mol)

>  <smiles>  (48) 
COc1ccccc1CCO

>  <score_type>  (48) 
oracle

>  <origin>  (48) 
adg

>  <m_score__min__energy>  (48) 
-5.5300000000000002

>  <m_primary>  (48) 
energy

$$$$
48:0
     RDKit          3D

 44 46  0  0  0  0  0  0  0  0999 V2000
   -9.4820   21.5280  -30.6450 C   0  0  0  0  0  0  0  0  0  0  0  0
   -8.9900   21.4330  -32.0300 N   0  0  0  0  0  0  0  0  0  0  0  0
   -9.3960   20.1780  -32.6950 C   0  0  0  0  0  0  0  0  0  0  0  0
   -8.6160   18.9550  -32.1870 C   0  0  0  0  0  0  0  0  0  0  0  0
   -7.0900   19.1520  -32.2780 C   0  0  0  0  0  0  0  0  0  0  0  0
   -6.6900   20.4960  -31.6310 C   0  0  0  0  0  0  0  0  0  0  0  0
   -7.5370   21.6790  -32.1350 C   0  0  0  0  0  0  0  0  0  0  0  0
   -6.4380   18.0660  -31.5290 N   0  0  0  0  0  0  0  0  0  0  0  0
   -5.8240   16.9590  -32.1920 C   0  0  0  0  0  0  0  0  0  0  0  0
   -5.3620   15.8350  -31.4260 N   0  0  0  0  0  0  0  0  0  0  0  0
   -4.9560   14.5780  -31.9950 C   0  0  0  0  0  0  0  0  0  0  0  0
   -4.2340   13.6690  -31.2160 C   0  0  0  0  0  0  0  0  0  0  0  0
   -3.8620   12.4350  -31.7470 C   0  0  0  0  0  0  0  0  0  0  0  0
   -4.2240   12.1140  -33.0560 C   0  0  0  0  0  0  0  0  0  0  0  0
   -4.9350   13.0000  -33.8160 N   0  0  0  0  0  0  0  0  0  0  0  0
   -5.3530   12.6220  -35.1670 C   0  0  0  0  0  0  0  0  0  0  0  0
   -5.3230   14.2060  -33.3000 C   0  0  0  0  0  0  0  0  0  0  0  0
   -5.6270   17.0120  -33.4700 N   0  0  0  0  0  0  0  0  0  0  0  0
   -6.0350   18.1400  -34.2480 C   0  0  0  0  0  0  0  0  0  0  0  0
   -5.7260   18.1680  -35.6430 N   0  0  0  0  0  0  0  0  0  0  0  0
   -6.6710   19.1360  -33.6970 N   0  0  0  0  0  0  0  0  0  0  0  0
   -8.6469   21.3668  -29.9474 H   0  0  0  0  0  0  0  0  0  0  0  0
   -9.9130   22.5260  -30.4766 H   0  0  0  0  0  0  0  0  0  0  0  0
  -10.2535   20.7622  -30.4766 H   0  0  0  0  0  0  0  0  0  0  0  0
  -10.4677   20.0130  -32.5098 H   0  0  0  0  0  0  0  0  0  0  0  0
   -9.1790   20.2867  -33.7679 H   0  0  0  0  0  0  0  0  0  0  0  0
   -8.8869   18.7748  -31.1362 H   0  0  0  0  0  0  0  0  0  0  0  0
   -8.8822   18.0990  -32.8244 H   0  0  0  0  0  0  0  0  0  0  0  0
   -6.8167   20.4126  -30.5415 H   0  0  0  0  0  0  0  0  0  0  0  0
   -5.6444   20.6972  -31.9072 H   0  0  0  0  0  0  0  0  0  0  0  0
   -7.2877   22.5685  -31.5378 H   0  0  0  0  0  0  0  0  0  0  0  0
   -7.3030   21.8218  -33.2003 H   0  0  0  0  0  0  0  0  0  0  0  0
   -6.5590   18.0200  -30.4920 H   0  0  0  0  0  0  0  0  0  0  0  0
   -5.2440   15.9680  -30.3970 H   0  0  0  0  0  0  0  0  0  0  0  0
   -3.9591   13.9278  -30.1828 H   0  0  0  0  0  0  0  0  0  0  0  0
   -3.2879   11.7201  -31.1393 H   0  0  0  0  0  0  0  0  0  0  0  0
   -3.9350   11.1407  -33.4793 H   0  0  0  0  0  0  0  0  0  0  0  0
   -6.1676   11.8853  -35.1061 H   0  0  0  0  0  0  0  0  0  0  0  0
   -5.7052   13.5145  -35.7050 H   0  0  0  0  0  0  0  0  0  0  0  0
   -4.5003   12.1822  -35.7050 H   0  0  0  0  0  0  0  0  0  0  0  0
   -5.9279   14.8912  -33.9120 H   0  0  0  0  0  0  0  0  0  0  0  0
   -6.0060   18.9760  -36.2420 H   0  0  0  0  0  0  0  0  0  0  0  0
   -5.2150   17.3700  -36.0820 H   0  0  0  0  0  0  0  0  0  0  0  0
   -6.9560   19.9330  -34.3090 H   0  0  0  0  0  0  0  0  0  0  0  0
  1  2  1  0
  2  3  1  0
  3  4  1  0
  4  5  1  0
  5  6  1  0
  6  7  1  0
  5  8  1  0
  8  9  1  0
  9 10  1  0
 10 11  1  0
 11 12  2  0
 12 13  1  0
 13 14  2  0
 14 15  1  0
 15 16  1  0
 15 17  2  0
  9 18  2  0
 18 19  1  0
 19 20  1  0
 19 21  2  0
  7  2  1  0
 17 11  1  0
 21  5  1  0
  1 22  1  0
  1 23  1  0
  1 24  1  0
  3 25  1  0
  3 26  1  0
  4 27  1  0
  4 28  1  0
  6 29  1  0
  6 30  1  0
  7 31  1  0
  7 32  1  0
  8 33  1  0
 10 34  1  0
 12 35  1  0
 13 36  1  0
 14 37  1  0
 16 38  1  0
 16 39  1  0
 16 40  1  0
 17 41  1  0
 20 42  1  0
 20 43  1  0
 21 44  1  0
M  CHG  2  15   1  21   1
M  END
>  <UniqueID>  (49) 
45

>  <SMILES>  (49) 
CN1CCC2(CC1)NC(Nc1ccc[n+](C)c1)=NC(N)=[NH+]2

>  <Energy>  (49) 
48.675729979042195

>  <Genealogy>  (49) 
CN1CCC2(CC1)NC(Nc1ccc[n+](C)c1)=NC(N)=[NH+]2 (protonated)
CN1CCC2(CC1)NC(Nc1ccc[n+](C)c1)=NC(N)=[NH+]2 (3D coordinates assigned)
CN1CCC2(CC1)NC(Nc1ccc[n+](C)c1)=NC(N)=[NH+]2 (nonaromatic ring conformer: 48.675729979042195 kcal/mol)

>  <smiles>  (49) 
CN1CCC2(CC1)N=C(N)N=C(Nc1ccc[n+](C)c1)N2

>  <score_type>  (49) 
oracle

>  <origin>  (49) 
adg

>  <m_score__min__energy>  (49) 
-6.1399999999999997

>  <m_primary>  (49) 
energy

$$$$
