0:0
     RDKit          3D

 47 46  0  0  0  0  0  0  0  0999 V2000
   -8.7970   21.8620  -31.4200 C   0  0  0  0  0  0  0  0  0  0  0  0
   -7.9100   22.9840  -31.9900 C   0  0  0  0  0  0  0  0  0  0  0  0
   -6.6290   23.2210  -31.2540 N   0  0  0  0  0  0  0  0  0  0  0  0
   -6.7840   22.8350  -29.8260 C   0  0  0  0  0  0  0  0  0  0  0  0
   -5.5900   22.3290  -31.8340 C   0  0  0  0  0  0  0  0  0  0  0  0
   -6.1720   24.6480  -31.3020 C   0  0  0  0  0  0  0  0  0  0  0  0
   -5.2700   25.1200  -30.1380 C   0  0  0  0  0  0  0  0  0  0  0  0
   -3.8640   25.1110  -30.5240 N   0  0  0  0  0  0  0  0  0  0  0  0
   -2.8440   24.5420  -29.6960 C   0  0  0  0  0  0  0  0  0  0  0  0
   -1.9160   25.2680  -29.2450 O   0  0  0  0  0  0  0  0  0  0  0  0
   -2.8590   23.0630  -29.3820 C   0  0  0  0  0  0  0  0  0  0  0  0
   -2.8470   22.7310  -27.9160 N   0  0  0  0  0  0  0  0  0  0  0  0
   -3.8640   23.6230  -27.2930 C   0  0  0  0  0  0  0  0  0  0  0  0
   -3.2620   21.2950  -27.7640 C   0  0  0  0  0  0  0  0  0  0  0  0
   -2.2210   20.3510  -27.1470 C   0  0  0  0  0  0  0  0  0  0  0  0
   -1.4650   22.9860  -27.3730 C   0  0  0  0  0  0  0  0  0  0  0  0
   -1.3130   24.1610  -26.3870 C   0  0  0  0  0  0  0  0  0  0  0  0
   -8.7701   21.8960  -30.3209 H   0  0  0  0  0  0  0  0  0  0  0  0
   -9.8319   22.0012  -31.7660 H   0  0  0  0  0  0  0  0  0  0  0  0
   -8.4227   20.8872  -31.7660 H   0  0  0  0  0  0  0  0  0  0  0  0
   -7.6619   22.7261  -33.0302 H   0  0  0  0  0  0  0  0  0  0  0  0
   -8.4929   23.9119  -31.8937 H   0  0  0  0  0  0  0  0  0  0  0  0
   -6.4512   23.6638  -29.1839 H   0  0  0  0  0  0  0  0  0  0  0  0
   -7.8412   22.6125  -29.6190 H   0  0  0  0  0  0  0  0  0  0  0  0
   -6.1743   21.9432  -29.6190 H   0  0  0  0  0  0  0  0  0  0  0  0
   -5.0269   21.8456  -31.0220 H   0  0  0  0  0  0  0  0  0  0  0  0
   -6.0723   21.5593  -32.4545 H   0  0  0  0  0  0  0  0  0  0  0  0
   -4.9022   22.9223  -32.4545 H   0  0  0  0  0  0  0  0  0  0  0  0
   -5.6117   24.7888  -32.2381 H   0  0  0  0  0  0  0  0  0  0  0  0
   -7.0885   25.2514  -31.2250 H   0  0  0  0  0  0  0  0  0  0  0  0
   -5.5575   26.1429  -29.8532 H   0  0  0  0  0  0  0  0  0  0  0  0
   -5.4035   24.4300  -29.2918 H   0  0  0  0  0  0  0  0  0  0  0  0
   -3.7676   22.6282  -29.8242 H   0  0  0  0  0  0  0  0  0  0  0  0
   -1.9312   22.6473  -29.8019 H   0  0  0  0  0  0  0  0  0  0  0  0
   -3.7882   23.5565  -26.1976 H   0  0  0  0  0  0  0  0  0  0  0  0
   -3.6852   24.6609  -27.6106 H   0  0  0  0  0  0  0  0  0  0  0  0
   -4.8697   23.3104  -27.6106 H   0  0  0  0  0  0  0  0  0  0  0  0
   -4.1577   21.2701  -27.1259 H   0  0  0  0  0  0  0  0  0  0  0  0
   -3.4249   20.9255  -28.7872 H   0  0  0  0  0  0  0  0  0  0  0  0
   -2.2812   20.4055  -26.0500 H   0  0  0  0  0  0  0  0  0  0  0  0
   -2.4212   19.3201  -27.4744 H   0  0  0  0  0  0  0  0  0  0  0  0
   -1.2145   20.6508  -27.4744 H   0  0  0  0  0  0  0  0  0  0  0  0
   -1.1367   22.0725  -26.8556 H   0  0  0  0  0  0  0  0  0  0  0  0
   -0.8581   23.2630  -28.2476 H   0  0  0  0  0  0  0  0  0  0  0  0
   -1.3620   23.7826  -25.3553 H   0  0  0  0  0  0  0  0  0  0  0  0
   -0.3436   24.6542  -26.5510 H   0  0  0  0  0  0  0  0  0  0  0  0
   -2.1250   24.8847  -26.5510 H   0  0  0  0  0  0  0  0  0  0  0  0
  1  2  1  0
  2  3  1  0
  3  4  1  0
  3  5  1  0
  3  6  1  0
  6  7  1  0
  7  8  1  0
  8  9  1  0
  9 10  2  0
  9 11  1  0
 11 12  1  0
 12 13  1  0
 12 14  1  0
 14 15  1  0
 12 16  1  0
 16 17  1  0
  1 18  1  0
  1 19  1  0
  1 20  1  0
  2 21  1  0
  2 22  1  0
  4 23  1  0
  4 24  1  0
  4 25  1  0
  5 26  1  0
  5 27  1  0
  5 28  1  0
  6 29  1  0
  6 30  1  0
  7 31  1  0
  7 32  1  0
 11 33  1  0
 11 34  1  0
 13 35  1  0
 13 36  1  0
 13 37  1  0
 14 38  1  0
 14 39  1  0
 15 40  1  0
 15 41  1  0
 15 42  1  0
 16 43  1  0
 16 44  1  0
 17 45  1  0
 17 46  1  0
 17 47  1  0
M  CHG  3   3   1   8  -1  12   1
M  END
>  <UniqueID>  (1) 
1

>  <SMILES>  (1) 
CC[N+](C)(C)CC[N-]C(=O)C[N+](C)(CC)CC

>  <Energy>  (1) 
63.13274432185345

>  <Genealogy>  (1) 
CC[N+](C)(C)CC[N-]C(=O)C[N+](C)(CC)CC (protonated)
CC[N+](C)(C)CC[N-]C(=O)C[N+](C)(CC)CC (3D coordinates assigned)
CC[N+](C)(C)CC[N-]C(=O)C[N+](C)(CC)CC (optimized conformer: 63.13274432185345 kcal/mol)

>  <smiles>  (1) 
CC[N+](C)(C)CCNC(=O)C[N+](C)(CC)CC

>  <score_type>  (1) 
oracle

>  <origin>  (1) 
adg

>  <m_score__min__energy>  (1) 
-5.25

>  <m_primary>  (1) 
energy

$$$$
1:0
     RDKit          3D

 85 85  0  0  0  0  0  0  0  0999 V2000
   -1.1950   26.6580  -24.4730 C   0  0  0  0  0  0  0  0  0  0  0  0
   -1.2520   25.3080  -25.1940 C   0  0  0  0  0  0  0  0  0  0  0  0
   -2.2300   25.3130  -26.3800 C   0  0  0  0  0  0  0  0  0  0  0  0
   -1.5130   25.3090  -27.7540 C   0  0  0  0  0  0  0  0  0  0  0  0
   -2.0760   24.2620  -28.7340 C   0  0  0  0  0  0  0  0  0  0  0  0
   -3.5990   24.0340  -28.5990 C   0  0  0  0  0  0  0  0  0  0  0  0
   -3.9800   22.7390  -27.8570 C   0  0  0  0  0  0  0  0  0  0  0  0
   -3.0700   21.5550  -28.2190 C   0  0  0  0  0  0  0  0  0  0  0  0
   -2.0840   21.1880  -27.0970 C   0  0  0  0  0  0  0  0  0  0  0  0
   -1.8690   19.6800  -26.9320 C   0  0  0  0  0  0  0  0  0  0  0  0
   -1.2520   19.1510  -28.0920 O   0  0  0  0  0  0  0  0  0  0  0  0
    0.0640   19.6500  -28.2560 C   0  0  0  0  0  0  0  0  0  0  0  0
    0.3930   19.9440  -29.7330 C   0  0  0  0  0  0  0  0  0  0  0  0
   -0.7770   20.6020  -30.4790 C   0  0  0  0  0  0  0  0  0  0  0  0
   -0.9280   20.0190  -31.8900 C   0  0  0  0  0  0  0  0  0  0  0  0
   -1.2040   21.1300  -32.9140 C   0  0  0  0  0  0  0  0  0  0  0  0
   -2.6800   21.1800  -33.3240 C   0  0  0  0  0  0  0  0  0  0  0  0
   -3.5240   21.0770  -32.1910 O   0  0  0  0  0  0  0  0  0  0  0  0
   -3.6240   22.3240  -31.5320 C   0  0  0  0  0  0  0  0  0  0  0  0
   -4.9410   22.9950  -31.9130 C   0  0  2  0  0  0  0  0  0  0  0  0
   -5.0340   24.2480  -31.2750 O   0  0  0  0  0  0  0  0  0  0  0  0
   -6.2590   24.2540  -30.6090 C   0  0  0  0  0  0  0  0  0  0  0  0
   -6.9740   22.9750  -30.9820 C   0  0  1  0  0  0  0  0  0  0  0  0
   -8.1360   23.1950  -31.9670 C   0  0  0  0  0  0  0  0  0  0  0  0
   -9.4860   21.9870  -31.6880 S   0  0  0  0  0  0  0  0  0  0  0  0
   -8.4310   20.5660  -31.2200 C   0  0  0  0  0  0  0  0  0  0  0  0
   -8.3610   19.5240  -32.3410 C   0  0  0  0  0  0  0  0  0  0  0  0
   -6.9700   18.8820  -32.4500 C   0  0  0  0  0  0  0  0  0  0  0  0
   -6.0700   19.7330  -33.2430 N   0  0  0  0  0  0  0  0  0  0  0  0
   -5.1190   18.9300  -34.0230 C   0  0  0  0  0  0  0  0  0  0  0  0
   -5.8010   17.6730  -34.5480 C   0  0  0  0  0  0  0  0  0  0  0  0
   -6.0160   22.1530  -31.5710 O   0  0  0  0  0  0  0  0  0  0  0  0
   -1.2019   26.4934  -23.3854 H   0  0  0  0  0  0  0  0  0  0  0  0
   -0.2737   27.1872  -24.7579 H   0  0  0  0  0  0  0  0  0  0  0  0
   -2.0684   27.2630  -24.7579 H   0  0  0  0  0  0  0  0  0  0  0  0
   -0.2463   25.0652  -25.5675 H   0  0  0  0  0  0  0  0  0  0  0  0
   -1.6078   24.5588  -24.4715 H   0  0  0  0  0  0  0  0  0  0  0  0
   -2.8664   24.4182  -26.3137 H   0  0  0  0  0  0  0  0  0  0  0  0
   -2.8188   26.2401  -26.3180 H   0  0  0  0  0  0  0  0  0  0  0  0
   -1.6221   26.3053  -28.2073 H   0  0  0  0  0  0  0  0  0  0  0  0
   -0.4600   25.0493  -27.5704 H   0  0  0  0  0  0  0  0  0  0  0  0
   -1.8657   24.5992  -29.7597 H   0  0  0  0  0  0  0  0  0  0  0  0
   -1.5873   23.3058  -28.4956 H   0  0  0  0  0  0  0  0  0  0  0  0
   -4.0280   24.8852  -28.0499 H   0  0  0  0  0  0  0  0  0  0  0  0
   -3.9967   23.9419  -29.6204 H   0  0  0  0  0  0  0  0  0  0  0  0
   -3.9072   22.9199  -26.7744 H   0  0  0  0  0  0  0  0  0  0  0  0
   -5.0040   22.4737  -28.1587 H   0  0  0  0  0  0  0  0  0  0  0  0
   -3.7017   20.6796  -28.4304 H   0  0  0  0  0  0  0  0  0  0  0  0
   -2.4748   21.8539  -29.0945 H   0  0  0  0  0  0  0  0  0  0  0  0
   -1.1134   21.6542  -27.3219 H   0  0  0  0  0  0  0  0  0  0  0  0
   -2.5189   21.5547  -26.1555 H   0  0  0  0  0  0  0  0  0  0  0  0
   -1.2239   19.4969  -26.0601 H   0  0  0  0  0  0  0  0  0  0  0  0
   -2.8424   19.1896  -26.7841 H   0  0  0  0  0  0  0  0  0  0  0  0
    0.1650   20.5805  -27.6781 H   0  0  0  0  0  0  0  0  0  0  0  0
    0.7648   18.8806  -27.8996 H   0  0  0  0  0  0  0  0  0  0  0  0
    1.2606   20.6190  -29.7731 H   0  0  0  0  0  0  0  0  0  0  0  0
    0.6036   18.9830  -30.2251 H   0  0  0  0  0  0  0  0  0  0  0  0
   -1.7060   20.4272  -29.9164 H   0  0  0  0  0  0  0  0  0  0  0  0
   -0.5753   21.6799  -30.5653 H   0  0  0  0  0  0  0  0  0  0  0  0
    0.0004   19.4973  -32.1657 H   0  0  0  0  0  0  0  0  0  0  0  0
   -1.7766   19.3191  -31.8927 H   0  0  0  0  0  0  0  0  0  0  0  0
   -0.9254   22.0978  -32.4716 H   0  0  0  0  0  0  0  0  0  0  0  0
   -0.6086   20.9176  -33.8142 H   0  0  0  0  0  0  0  0  0  0  0  0
   -2.8793   22.1330  -33.8359 H   0  0  0  0  0  0  0  0  0  0  0  0
   -2.8871   20.3327  -33.9942 H   0  0  0  0  0  0  0  0  0  0  0  0
   -3.5934   22.1673  -30.4436 H   0  0  0  0  0  0  0  0  0  0  0  0
   -2.7837   22.9669  -31.8330 H   0  0  0  0  0  0  0  0  0  0  0  0
   -4.9791   23.1657  -32.9990 H   0  0  0  0  0  0  0  0  0  0  0  0
   -6.0972   24.2925  -29.5217 H   0  0  0  0  0  0  0  0  0  0  0  0
   -6.8553   25.1333  -30.8939 H   0  0  0  0  0  0  0  0  0  0  0  0
   -7.4225   22.5341  -30.0795 H   0  0  0  0  0  0  0  0  0  0  0  0
   -8.5322   24.2122  -31.8318 H   0  0  0  0  0  0  0  0  0  0  0  0
   -7.7542   23.0578  -32.9894 H   0  0  0  0  0  0  0  0  0  0  0  0
   -7.4152   20.9302  -31.0068 H   0  0  0  0  0  0  0  0  0  0  0  0
   -8.8706   20.0880  -30.3321 H   0  0  0  0  0  0  0  0  0  0  0  0
   -9.1004   18.7352  -32.1382 H   0  0  0  0  0  0  0  0  0  0  0  0
   -8.5723   20.0357  -33.2915 H   0  0  0  0  0  0  0  0  0  0  0  0
   -6.5508   18.7533  -31.4412 H   0  0  0  0  0  0  0  0  0  0  0  0
   -7.0669   17.9060  -32.9481 H   0  0  0  0  0  0  0  0  0  0  0  0
   -5.5140   20.3120  -32.5700 H   0  0  0  0  0  0  0  0  0  0  0  0
   -4.7506   19.5253  -34.8715 H   0  0  0  0  0  0  0  0  0  0  0  0
   -4.2782   18.6394  -33.3760 H   0  0  0  0  0  0  0  0  0  0  0  0
   -6.1356   17.0563  -33.7008 H   0  0  0  0  0  0  0  0  0  0  0  0
   -6.6694   17.9558  -35.1611 H   0  0  0  0  0  0  0  0  0  0  0  0
   -5.0905   17.0992  -35.1611 H   0  0  0  0  0  0  0  0  0  0  0  0
  1  2  1  0
  2  3  1  0
  3  4  1  0
  4  5  1  0
  5  6  1  0
  6  7  1  0
  7  8  1  0
  8  9  1  0
  9 10  1  0
 10 11  1  0
 11 12  1  0
 12 13  1  0
 13 14  1  0
 14 15  1  0
 15 16  1  0
 16 17  1  0
 17 18  1  0
 18 19  1  0
 19 20  1  0
 20 21  1  0
 21 22  1  0
 22 23  1  0
 23 24  1  0
 24 25  1  0
 25 26  1  0
 26 27  1  0
 27 28  1  0
 28 29  1  0
 29 30  1  0
 30 31  1  0
 23 32  1  0
 32 20  1  0
  1 33  1  0
  1 34  1  0
  1 35  1  0
  2 36  1  0
  2 37  1  0
  3 38  1  0
  3 39  1  0
  4 40  1  0
  4 41  1  0
  5 42  1  0
  5 43  1  0
  6 44  1  0
  6 45  1  0
  7 46  1  0
  7 47  1  0
  8 48  1  0
  8 49  1  0
  9 50  1  0
  9 51  1  0
 10 52  1  0
 10 53  1  0
 12 54  1  0
 12 55  1  0
 13 56  1  0
 13 57  1  0
 14 58  1  0
 14 59  1  0
 15 60  1  0
 15 61  1  0
 16 62  1  0
 16 63  1  0
 17 64  1  0
 17 65  1  0
 19 66  1  0
 19 67  1  0
 20 68  1  6
 22 69  1  0
 22 70  1  0
 23 71  1  1
 24 72  1  0
 24 73  1  0
 26 74  1  0
 26 75  1  0
 27 76  1  0
 27 77  1  0
 28 78  1  0
 28 79  1  0
 29 80  1  0
 30 81  1  0
 30 82  1  0
 31 83  1  0
 31 84  1  0
 31 85  1  0
M  END
>  <UniqueID>  (2) 
2

>  <SMILES>  (2) 
CCCCCCCCCCOCCCCCCOC[C@@H]1OC[C@@H](CSCCCNCC)O1

>  <Energy>  (2) 
52.411920449009315

>  <Genealogy>  (2) 
CCCCCCCCCCOCCCCCCOC[C@@H]1OC[C@@H](CSCCCNCC)O1 (chirality)
CCCCCCCCCCOCCCCCCOC[C@@H]1OC[C@@H](CSCCCNCC)O1 (3D coordinates assigned)
CCCCCCCCCCOCCCCCCOC[C@@H]1OC[C@@H](CSCCCNCC)O1 (nonaromatic ring conformer: 52.411920449009315 kcal/mol)

>  <smiles>  (2) 
CCCCCCCCCCOCCCCCCOCC1OCC(CSCCCNCC)O1

>  <score_type>  (2) 
oracle

>  <origin>  (2) 
adg

>  <m_score__min__energy>  (2) 
-7.9199999999999999

>  <m_primary>  (2) 
energy

$$$$
2:0
     RDKit          3D

 79 82  0  0  0  0  0  0  0  0999 V2000
   -6.8040   16.6770  -33.8100 C   0  0  0  0  0  0  0  0  0  0  0  0
   -5.5680   16.9910  -33.0750 N   0  0  0  0  0  0  0  0  0  0  0  0
   -5.3470   16.0410  -31.9670 C   0  0  0  0  0  0  0  0  0  0  0  0
   -4.3960   17.1340  -33.9680 C   0  0  0  0  0  0  0  0  0  0  0  0
   -4.2380   18.5440  -34.5710 C   0  0  0  0  0  0  0  0  0  0  0  0
   -3.7960   19.5650  -33.5010 C   0  0  0  0  0  0  0  0  0  0  0  0
   -4.4790   19.3740  -32.2020 N   0  0  0  0  0  0  0  0  0  0  0  0
   -5.1690   20.5740  -31.7320 C   0  0  0  0  0  0  0  0  0  0  0  0
   -6.5820   20.7020  -31.8910 C   0  0  0  0  0  0  0  0  0  0  0  0
   -7.3830   19.7310  -32.5560 C   0  0  0  0  0  0  0  0  0  0  0  0
   -8.7510   19.9240  -32.7380 C   0  0  0  0  0  0  0  0  0  0  0  0
   -9.3590   21.0810  -32.2750 C   0  0  0  0  0  0  0  0  0  0  0  0
   -8.6100   22.0310  -31.5890 C   0  0  0  0  0  0  0  0  0  0  0  0
   -7.2250   21.8420  -31.3470 C   0  0  0  0  0  0  0  0  0  0  0  0
   -6.5090   22.7420  -30.5980 N   0  0  0  0  0  0  0  0  0  0  0  0
   -7.2220   23.7240  -29.7450 C   0  0  0  0  0  0  0  0  0  0  0  0
   -5.1310   22.7050  -30.6160 C   0  0  0  0  0  0  0  0  0  0  0  0
   -4.3850   23.8030  -30.1170 C   0  0  0  0  0  0  0  0  0  0  0  0
   -3.0000   23.7670  -30.0670 C   0  0  0  0  0  0  0  0  0  0  0  0
   -2.3190   24.8810  -29.5580 O   0  0  0  0  0  0  0  0  0  0  0  0
   -1.2020   24.8130  -28.6750 C   0  0  0  0  0  0  0  0  0  0  0  0
   -1.6510   24.8740  -27.1970 C   0  0  0  0  0  0  0  0  0  0  0  0
   -0.5940   25.1450  -26.1600 N   0  0  0  0  0  0  0  0  0  0  0  0
    0.2340   23.9040  -26.0840 C   0  0  0  0  0  0  0  0  0  0  0  0
   -1.1800   25.3870  -24.7980 C   0  0  0  0  0  0  0  0  0  0  0  0
   -1.2640   26.8860  -24.4390 C   0  0  0  0  0  0  0  0  0  0  0  0
    0.0790   27.5500  -24.4260 N   0  0  0  0  0  0  0  0  0  0  0  0
    0.6600   27.4610  -23.0640 C   0  0  0  0  0  0  0  0  0  0  0  0
   -0.0960   28.9880  -24.7540 C   0  0  0  0  0  0  0  0  0  0  0  0
    1.0300   26.9260  -25.4040 C   0  0  0  0  0  0  0  0  0  0  0  0
    0.3030   26.2670  -26.5940 C   0  0  0  0  0  0  0  0  0  0  0  0
   -2.3470   22.6260  -30.5200 C   0  0  0  0  0  0  0  0  0  0  0  0
   -3.0830   21.5630  -31.0310 C   0  0  0  0  0  0  0  0  0  0  0  0
   -4.4620   21.6040  -31.1290 N   0  0  0  0  0  0  0  0  0  0  0  0
   -7.6138   16.4713  -33.0946 H   0  0  0  0  0  0  0  0  0  0  0  0
   -7.0821   17.5330  -34.4424 H   0  0  0  0  0  0  0  0  0  0  0  0
   -6.6398   15.7920  -34.4424 H   0  0  0  0  0  0  0  0  0  0  0  0
   -5.4685   16.5632  -31.0065 H   0  0  0  0  0  0  0  0  0  0  0  0
   -6.0787   15.2224  -32.0344 H   0  0  0  0  0  0  0  0  0  0  0  0
   -4.3291   15.6294  -32.0344 H   0  0  0  0  0  0  0  0  0  0  0  0
   -3.4897   16.9011  -33.3898 H   0  0  0  0  0  0  0  0  0  0  0  0
   -4.5497   16.4424  -34.8095 H   0  0  0  0  0  0  0  0  0  0  0  0
   -3.4809   18.5100  -35.3683 H   0  0  0  0  0  0  0  0  0  0  0  0
   -5.2118   18.8612  -34.9724 H   0  0  0  0  0  0  0  0  0  0  0  0
   -2.7119   19.4625  -33.3454 H   0  0  0  0  0  0  0  0  0  0  0  0
   -4.0652   20.5656  -33.8701 H   0  0  0  0  0  0  0  0  0  0  0  0
   -5.1460   18.5760  -32.2690 H   0  0  0  0  0  0  0  0  0  0  0  0
   -3.8010   18.9900  -31.5130 H   0  0  0  0  0  0  0  0  0  0  0  0
   -6.9131   18.8108  -32.9334 H   0  0  0  0  0  0  0  0  0  0  0  0
   -9.3500   19.1566  -33.2502 H   0  0  0  0  0  0  0  0  0  0  0  0
  -10.4322   21.2472  -32.4500 H   0  0  0  0  0  0  0  0  0  0  0  0
   -9.1009   22.9465  -31.2271 H   0  0  0  0  0  0  0  0  0  0  0  0
   -7.0478   23.4841  -28.6857 H   0  0  0  0  0  0  0  0  0  0  0  0
   -6.8467   24.7357  -29.9584 H   0  0  0  0  0  0  0  0  0  0  0  0
   -8.3002   23.6803  -29.9584 H   0  0  0  0  0  0  0  0  0  0  0  0
   -4.9150   24.6996  -29.7632 H   0  0  0  0  0  0  0  0  0  0  0  0
   -0.6653   23.8685  -28.8479 H   0  0  0  0  0  0  0  0  0  0  0  0
   -0.5477   25.6742  -28.8753 H   0  0  0  0  0  0  0  0  0  0  0  0
   -2.4054   25.6703  -27.1144 H   0  0  0  0  0  0  0  0  0  0  0  0
   -2.0111   23.8594  -26.9715 H   0  0  0  0  0  0  0  0  0  0  0  0
    0.4080   23.6433  -25.0296 H   0  0  0  0  0  0  0  0  0  0  0  0
   -0.2952   23.0790  -26.5832 H   0  0  0  0  0  0  0  0  0  0  0  0
    1.1990   24.0759  -26.5832 H   0  0  0  0  0  0  0  0  0  0  0  0
   -2.1943   24.9622  -24.7716 H   0  0  0  0  0  0  0  0  0  0  0  0
   -0.5167   24.9077  -24.0629 H   0  0  0  0  0  0  0  0  0  0  0  0
   -1.8999   27.3911  -25.1809 H   0  0  0  0  0  0  0  0  0  0  0  0
   -1.6845   26.9635  -23.4255 H   0  0  0  0  0  0  0  0  0  0  0  0
   -0.1376   27.5832  -22.3164 H   0  0  0  0  0  0  0  0  0  0  0  0
    1.1382   26.4791  -22.9328 H   0  0  0  0  0  0  0  0  0  0  0  0
    1.4102   28.2547  -22.9328 H   0  0  0  0  0  0  0  0  0  0  0  0
   -0.1669   29.5703  -23.8235 H   0  0  0  0  0  0  0  0  0  0  0  0
    0.7662   29.3378  -25.3407 H   0  0  0  0  0  0  0  0  0  0  0  0
   -1.0169   29.1208  -25.3407 H   0  0  0  0  0  0  0  0  0  0  0  0
    1.7026   27.7064  -25.7895 H   0  0  0  0  0  0  0  0  0  0  0  0
    1.5867   26.1390  -24.8742 H   0  0  0  0  0  0  0  0  0  0  0  0
   -0.3046   27.0291  -27.1039 H   0  0  0  0  0  0  0  0  0  0  0  0
    1.0666   25.8480  -27.2659 H   0  0  0  0  0  0  0  0  0  0  0  0
   -1.2497   22.5645  -30.4741 H   0  0  0  0  0  0  0  0  0  0  0  0
   -2.5517   20.6607  -31.3681 H   0  0  0  0  0  0  0  0  0  0  0  0
  1  2  1  0
  2  3  1  0
  2  4  1  0
  4  5  1  0
  5  6  1  0
  6  7  1  0
  7  8  1  0
  8  9  2  0
  9 10  1  0
 10 11  2  0
 11 12  1  0
 12 13  2  0
 13 14  1  0
 14 15  2  0
 15 16  1  0
 15 17  1  0
 17 18  2  0
 18 19  1  0
 19 20  1  0
 20 21  1  0
 21 22  1  0
 22 23  1  0
 23 24  1  0
 23 25  1  0
 25 26  1  0
 26 27  1  0
 27 28  1  0
 27 29  1  0
 27 30  1  0
 30 31  1  0
 19 32  2  0
 32 33  1  0
 33 34  2  0
 34  8  1  0
 14  9  1  0
 34 17  1  0
 31 23  1  0
  1 35  1  0
  1 36  1  0
  1 37  1  0
  3 38  1  0
  3 39  1  0
  3 40  1  0
  4 41  1  0
  4 42  1  0
  5 43  1  0
  5 44  1  0
  6 45  1  0
  6 46  1  0
  7 47  1  0
  7 48  1  0
 10 49  1  0
 11 50  1  0
 12 51  1  0
 13 52  1  0
 16 53  1  0
 16 54  1  0
 16 55  1  0
 18 56  1  0
 21 57  1  0
 21 58  1  0
 22 59  1  0
 22 60  1  0
 24 61  1  0
 24 62  1  0
 24 63  1  0
 25 64  1  0
 25 65  1  0
 26 66  1  0
 26 67  1  0
 28 68  1  0
 28 69  1  0
 28 70  1  0
 29 71  1  0
 29 72  1  0
 29 73  1  0
 30 74  1  0
 30 75  1  0
 31 76  1  0
 31 77  1  0
 32 78  1  0
 33 79  1  0
M  CHG  5   7   1  15   1  23   1  27   1  34   1
M  END
>  <UniqueID>  (3) 
3

>  <SMILES>  (3) 
CN(C)CCC[NH2+]c1c2ccccc2[n+](C)c2cc(OCC[N+]3(C)CC[N+](C)(C)CC3)cc[n+]12

>  <Energy>  (3) 
142.618816212267

>  <Genealogy>  (3) 
CN(C)CCC[NH2+]c1c2ccccc2[n+](C)c2cc(OCC[N+]3(C)CC[N+](C)(C)CC3)cc[n+]12 (protonated)
CN(C)CCC[NH2+]c1c2ccccc2[n+](C)c2cc(OCC[N+]3(C)CC[N+](C)(C)CC3)cc[n+]12 (3D coordinates assigned)
CN(C)CCC[NH2+]c1c2ccccc2[n+](C)c2cc(OCC[N+]3(C)CC[N+](C)(C)CC3)cc[n+]12 (nonaromatic ring conformer: 142.618816212267 kcal/mol)

>  <smiles>  (3) 
CN(C)CCCNc1c2ccccc2[n+](C)c2cc(OCC[N+]3(C)CC[N+](C)(C)CC3)cc[n+]12

>  <score_type>  (3) 
oracle

>  <origin>  (3) 
adg

>  <m_score__min__energy>  (3) 
-6.6100000000000003

>  <m_primary>  (3) 
energy

$$$$
3:0
     RDKit          3D

 66 68  0  0  0  0  0  0  0  0999 V2000
   -1.5380   27.2810  -38.7780 C   0  0  0  0  0  0  0  0  0  0  0  0
   -1.9700   27.8780  -37.4300 C   0  0  0  0  0  0  0  0  0  0  0  0
   -1.1960   27.3930  -36.2560 N   0  0  2  0  0  0  0  0  0  0  0  0
   -1.5870   28.1050  -35.0230 C   0  0  0  0  0  0  0  0  0  0  0  0
    0.2790   27.4400  -36.4230 C   0  0  0  0  0  0  0  0  0  0  0  0
    0.9990   26.2110  -35.8420 C   0  0  0  0  0  0  0  0  0  0  0  0
    0.2540   25.0450  -36.1240 O   0  0  0  0  0  0  0  0  0  0  0  0
    1.1040   23.9190  -36.1130 C   0  0  0  0  0  0  0  0  0  0  0  0
    0.2630   22.6620  -35.9250 C   0  0  0  0  0  0  0  0  0  0  0  0
    0.4940   22.1480  -34.6350 O   0  0  0  0  0  0  0  0  0  0  0  0
   -0.6250   21.4680  -34.2660 N   0  0  0  0  0  0  0  0  0  0  0  0
   -0.5030   20.0900  -34.7570 C   0  0  0  0  0  0  0  0  0  0  0  0
   -0.7710   21.5260  -32.7950 C   0  0  0  0  0  0  0  0  0  0  0  0
   -2.1910   21.2080  -32.2740 C   0  0  0  0  0  0  0  0  0  0  0  0
   -3.1960   21.3050  -33.3340 N   0  0  0  0  0  0  0  0  0  0  0  0
   -4.5240   20.7970  -33.1350 C   0  0  0  0  0  0  0  0  0  0  0  0
   -4.8430   19.4910  -33.5460 C   0  0  0  0  0  0  0  0  0  0  0  0
   -3.8740   18.6700  -34.1610 C   0  0  0  0  0  0  0  0  0  0  0  0
   -4.2060   17.3960  -34.6140 C   0  0  0  0  0  0  0  0  0  0  0  0
   -5.5050   16.9240  -34.4730 C   0  0  0  0  0  0  0  0  0  0  0  0
   -6.4740   17.7090  -33.8500 C   0  0  0  0  0  0  0  0  0  0  0  0
   -6.1580   18.9940  -33.3390 C   0  0  0  0  0  0  0  0  0  0  0  0
   -7.0920   19.7610  -32.6670 N   0  0  0  0  0  0  0  0  0  0  0  0
   -8.3530   19.1460  -32.1960 C   0  0  0  0  0  0  0  0  0  0  0  0
   -6.8370   21.0970  -32.4150 C   0  0  0  0  0  0  0  0  0  0  0  0
   -7.8570   21.9810  -31.9780 C   0  0  0  0  0  0  0  0  0  0  0  0
   -7.5780   23.3160  -31.6860 C   0  0  0  0  0  0  0  0  0  0  0  0
   -6.2880   23.8090  -31.8400 C   0  0  0  0  0  0  0  0  0  0  0  0
   -5.2760   22.9800  -32.3160 C   0  0  0  0  0  0  0  0  0  0  0  0
   -5.5330   21.6250  -32.6150 C   0  0  0  0  0  0  0  0  0  0  0  0
   -0.9014   26.4013  -38.6023 H   0  0  0  0  0  0  0  0  0  0  0  0
   -2.4293   26.9806  -39.3485 H   0  0  0  0  0  0  0  0  0  0  0  0
   -0.9740   28.0336  -39.3485 H   0  0  0  0  0  0  0  0  0  0  0  0
   -1.8559   28.9706  -37.4874 H   0  0  0  0  0  0  0  0  0  0  0  0
   -3.0100   27.5580  -37.2688 H   0  0  0  0  0  0  0  0  0  0  0  0
   -1.4650   26.3910  -36.1120 H   0  0  0  0  0  0  0  0  0  0  0  0
   -1.2672   27.5227  -34.1463 H   0  0  0  0  0  0  0  0  0  0  0  0
   -1.1053   29.0937  -35.0021 H   0  0  0  0  0  0  0  0  0  0  0  0
   -2.6798   28.2290  -35.0021 H   0  0  0  0  0  0  0  0  0  0  0  0
    0.5065   27.5018  -37.4974 H   0  0  0  0  0  0  0  0  0  0  0  0
    0.6406   28.3196  -35.8702 H   0  0  0  0  0  0  0  0  0  0  0  0
    1.9980   26.1248  -36.2943 H   0  0  0  0  0  0  0  0  0  0  0  0
    1.0954   26.3268  -34.7524 H   0  0  0  0  0  0  0  0  0  0  0  0
    1.6483   23.8589  -37.0670 H   0  0  0  0  0  0  0  0  0  0  0  0
    1.8270   24.0082  -35.2888 H   0  0  0  0  0  0  0  0  0  0  0  0
   -0.8026   22.9102  -36.0383 H   0  0  0  0  0  0  0  0  0  0  0  0
    0.5398   21.9118  -36.6804 H   0  0  0  0  0  0  0  0  0  0  0  0
   -0.4419   19.4003  -33.9023 H   0  0  0  0  0  0  0  0  0  0  0  0
   -1.3825   19.8394  -35.3683 H   0  0  0  0  0  0  0  0  0  0  0  0
    0.4068   19.9978  -35.3683 H   0  0  0  0  0  0  0  0  0  0  0  0
   -0.0731   20.8000  -32.3525 H   0  0  0  0  0  0  0  0  0  0  0  0
   -0.5580   22.5647  -32.5023 H   0  0  0  0  0  0  0  0  0  0  0  0
   -2.2001   20.1858  -31.8678 H   0  0  0  0  0  0  0  0  0  0  0  0
   -2.4423   21.9456  -31.4976 H   0  0  0  0  0  0  0  0  0  0  0  0
   -2.9010   21.5270  -34.3130 H   0  0  0  0  0  0  0  0  0  0  0  0
   -2.8456   19.0404  -34.2838 H   0  0  0  0  0  0  0  0  0  0  0  0
   -3.4391   16.7627  -35.0839 H   0  0  0  0  0  0  0  0  0  0  0  0
   -5.7700   15.9269  -34.8545 H   0  0  0  0  0  0  0  0  0  0  0  0
   -7.5005   17.3257  -33.7531 H   0  0  0  0  0  0  0  0  0  0  0  0
   -8.3688   19.1383  -31.0961 H   0  0  0  0  0  0  0  0  0  0  0  0
   -9.2075   19.7285  -32.5709 H   0  0  0  0  0  0  0  0  0  0  0  0
   -8.4201   18.1140  -32.5709 H   0  0  0  0  0  0  0  0  0  0  0  0
   -8.8856   21.6071  -31.8676 H   0  0  0  0  0  0  0  0  0  0  0  0
   -8.3808   23.9800  -31.3331 H   0  0  0  0  0  0  0  0  0  0  0  0
   -6.0661   24.8559  -31.5854 H   0  0  0  0  0  0  0  0  0  0  0  0
   -4.2640   23.3860  -32.4608 H   0  0  0  0  0  0  0  0  0  0  0  0
  1  2  1  0
  2  3  1  0
  3  4  1  0
  3  5  1  0
  5  6  1  0
  6  7  1  0
  7  8  1  0
  8  9  1  0
  9 10  1  0
 10 11  1  0
 11 12  1  0
 11 13  1  0
 13 14  1  0
 14 15  1  0
 15 16  1  0
 16 17  2  0
 17 18  1  0
 18 19  2  0
 19 20  1  0
 20 21  2  0
 21 22  1  0
 22 23  2  0
 23 24  1  0
 23 25  1  0
 25 26  2  0
 26 27  1  0
 27 28  2  0
 28 29  1  0
 29 30  2  0
 30 16  1  0
 22 17  1  0
 30 25  1  0
  1 31  1  0
  1 32  1  0
  1 33  1  0
  2 34  1  0
  2 35  1  0
  3 36  1  1
  4 37  1  0
  4 38  1  0
  4 39  1  0
  5 40  1  0
  5 41  1  0
  6 42  1  0
  6 43  1  0
  8 44  1  0
  8 45  1  0
  9 46  1  0
  9 47  1  0
 12 48  1  0
 12 49  1  0
 12 50  1  0
 13 51  1  0
 13 52  1  0
 14 53  1  0
 14 54  1  0
 15 55  1  0
 18 56  1  0
 19 57  1  0
 20 58  1  0
 21 59  1  0
 24 60  1  0
 24 61  1  0
 24 62  1  0
 26 63  1  0
 27 64  1  0
 28 65  1  0
 29 66  1  0
M  CHG  2   3   1  23   1
M  END
>  <UniqueID>  (4) 
4

>  <SMILES>  (4) 
CC[N@H+](C)CCOCCON(C)CCNc1c2ccccc2[n+](C)c2ccccc12

>  <Energy>  (4) 
88.88093730884783

>  <Genealogy>  (4) 
CC[NH+](C)CCOCCON(C)CCNc1c2ccccc2[n+](C)c2ccccc12 (protonated)
CC[N@H+](C)CCOCCON(C)CCNc1c2ccccc2[n+](C)c2ccccc12 (chirality)
CC[N@H+](C)CCOCCON(C)CCNc1c2ccccc2[n+](C)c2ccccc12 (3D coordinates assigned)
CC[N@H+](C)CCOCCON(C)CCNc1c2ccccc2[n+](C)c2ccccc12 (optimized conformer: 88.88093730884783 kcal/mol)

>  <smiles>  (4) 
CCN(C)CCOCCON(C)CCNc1c2ccccc2[n+](C)c2ccccc12

>  <score_type>  (4) 
oracle

>  <origin>  (4) 
adg

>  <m_score__min__energy>  (4) 
-9.0199999999999996

>  <m_primary>  (4) 
energy

$$$$
4:0
     RDKit          3D

 47 49  0  0  0  0  0  0  0  0999 V2000
   -4.1740   24.6750  -26.7140 C   0  0  0  0  0  0  0  0  0  0  0  0
   -2.6750   24.8660  -26.9220 C   0  0  0  0  0  0  0  0  0  0  0  0
   -2.3660   24.9780  -28.3120 O   0  0  0  0  0  0  0  0  0  0  0  0
   -2.3870   23.9270  -29.2450 C   0  0  0  0  0  0  0  0  0  0  0  0
   -1.6420   22.7450  -29.0670 C   0  0  0  0  0  0  0  0  0  0  0  0
   -1.6910   21.7280  -30.0210 C   0  0  0  0  0  0  0  0  0  0  0  0
   -2.4930   21.8650  -31.1610 C   0  0  0  0  0  0  0  0  0  0  0  0
   -2.5140   20.7840  -32.2080 C   0  0  0  0  0  0  0  0  0  0  0  0
   -3.4990   21.0900  -33.2460 N   0  0  0  0  0  0  0  0  0  0  0  0
   -4.9030   20.7920  -33.1160 C   0  0  0  0  0  0  0  0  0  0  0  0
   -5.4850   19.6660  -33.7260 C   0  0  0  0  0  0  0  0  0  0  0  0
   -6.8150   19.4120  -33.5840 N   0  0  0  0  0  0  0  0  0  0  0  0
   -7.6260   20.2300  -32.8530 C   0  0  0  0  0  0  0  0  0  0  0  0
   -8.9950   19.9480  -32.7200 C   0  0  0  0  0  0  0  0  0  0  0  0
   -9.8160   20.7930  -31.9690 C   0  0  0  0  0  0  0  0  0  0  0  0
   -9.2810   21.9230  -31.3470 C   0  0  0  0  0  0  0  0  0  0  0  0
   -7.9190   22.2160  -31.4710 C   0  0  0  0  0  0  0  0  0  0  0  0
   -7.0850   21.3730  -32.2230 C   0  0  0  0  0  0  0  0  0  0  0  0
   -5.7210   21.6450  -32.3620 C   0  0  0  0  0  0  0  0  0  0  0  0
   -3.2210   23.0470  -31.3530 C   0  0  0  0  0  0  0  0  0  0  0  0
   -3.1720   24.0830  -30.3990 C   0  0  0  0  0  0  0  0  0  0  0  0
   -3.8920   25.2810  -30.5510 O   0  0  0  0  0  0  0  0  0  0  0  0
   -5.3050   25.4290  -30.4170 C   0  0  0  0  0  0  0  0  0  0  0  0
   -5.9180   24.2040  -29.7470 C   0  0  0  0  0  0  0  0  0  0  0  0
   -4.3940   24.6470  -25.6366 H   0  0  0  0  0  0  0  0  0  0  0  0
   -4.7180   25.5111  -27.1777 H   0  0  0  0  0  0  0  0  0  0  0  0
   -4.4910   23.7292  -27.1777 H   0  0  0  0  0  0  0  0  0  0  0  0
   -2.3532   25.7827  -26.4060 H   0  0  0  0  0  0  0  0  0  0  0  0
   -2.1480   23.9913  -26.5130 H   0  0  0  0  0  0  0  0  0  0  0  0
   -1.0173   22.6228  -28.1698 H   0  0  0  0  0  0  0  0  0  0  0  0
   -1.0966   20.8137  -29.8770 H   0  0  0  0  0  0  0  0  0  0  0  0
   -1.5175   20.7063  -32.6672 H   0  0  0  0  0  0  0  0  0  0  0  0
   -2.7881   19.8324  -31.7291 H   0  0  0  0  0  0  0  0  0  0  0  0
   -3.1750   21.5510  -34.1280 H   0  0  0  0  0  0  0  0  0  0  0  0
   -4.8603   18.9850  -34.3227 H   0  0  0  0  0  0  0  0  0  0  0  0
   -7.2100   18.5650  -34.0520 H   0  0  0  0  0  0  0  0  0  0  0  0
   -9.4222   19.0597  -33.2082 H   0  0  0  0  0  0  0  0  0  0  0  0
  -10.8878   20.5673  -31.8673 H   0  0  0  0  0  0  0  0  0  0  0  0
   -9.9328   22.5848  -30.7577 H   0  0  0  0  0  0  0  0  0  0  0  0
   -7.5011   23.1069  -30.9794 H   0  0  0  0  0  0  0  0  0  0  0  0
   -5.2875   22.5324  -31.8776 H   0  0  0  0  0  0  0  0  0  0  0  0
   -3.8364   23.1672  -32.2568 H   0  0  0  0  0  0  0  0  0  0  0  0
   -5.5178   26.3184  -29.8058 H   0  0  0  0  0  0  0  0  0  0  0  0
   -5.7441   25.5386  -31.4196 H   0  0  0  0  0  0  0  0  0  0  0  0
   -5.8615   24.3169  -28.6543 H   0  0  0  0  0  0  0  0  0  0  0  0
   -6.9706   24.1076  -30.0517 H   0  0  0  0  0  0  0  0  0  0  0  0
   -5.3642   23.3038  -30.0517 H   0  0  0  0  0  0  0  0  0  0  0  0
  1  2  1  0
  2  3  1  0
  3  4  1  0
  4  5  2  0
  5  6  1  0
  6  7  2  0
  7  8  1  0
  8  9  1  0
  9 10  1  0
 10 11  2  0
 11 12  1  0
 12 13  2  0
 13 14  1  0
 14 15  2  0
 15 16  1  0
 16 17  2  0
 17 18  1  0
 18 19  2  0
  7 20  1  0
 20 21  2  0
 21 22  1  0
 22 23  1  0
 23 24  1  0
 21  4  1  0
 19 10  1  0
 18 13  1  0
  1 25  1  0
  1 26  1  0
  1 27  1  0
  2 28  1  0
  2 29  1  0
  5 30  1  0
  6 31  1  0
  8 32  1  0
  8 33  1  0
  9 34  1  0
 11 35  1  0
 12 36  1  0
 14 37  1  0
 15 38  1  0
 16 39  1  0
 17 40  1  0
 19 41  1  0
 20 42  1  0
 23 43  1  0
 23 44  1  0
 24 45  1  0
 24 46  1  0
 24 47  1  0
M  CHG  1  12   1
M  END
>  <UniqueID>  (5) 
5

>  <SMILES>  (5) 
CCOc1ccc(CNc2c[nH+]c3ccccc3c2)cc1OCC

>  <Energy>  (5) 
47.46750109879102

>  <Genealogy>  (5) 
CCOc1ccc(CNc2c[nH+]c3ccccc3c2)cc1OCC (protonated)
CCOc1ccc(CNc2c[nH+]c3ccccc3c2)cc1OCC (3D coordinates assigned)
CCOc1ccc(CNc2c[nH+]c3ccccc3c2)cc1OCC (optimized conformer: 47.46750109879102 kcal/mol)

>  <smiles>  (5) 
CCOc1ccc(CNc2cnc3ccccc3c2)cc1OCC

>  <score_type>  (5) 
oracle

>  <origin>  (5) 
adg

>  <m_score__min__energy>  (5) 
-8.5399999999999991

>  <m_primary>  (5) 
energy

$$$$
5:0
     RDKit          3D

 66 68  0  0  0  0  0  0  0  0999 V2000
   -2.6950   19.9360  -27.1670 C   0  0  0  0  0  0  0  0  0  0  0  0
   -3.1100   21.1220  -28.0340 C   0  0  0  0  0  0  0  0  0  0  0  0
   -2.0030   22.0970  -28.1500 N   0  0  0  0  0  0  0  0  0  0  0  0
   -0.8370   21.7180  -27.3310 C   0  0  0  0  0  0  0  0  0  0  0  0
   -2.4370   23.4910  -27.8970 C   0  0  0  0  0  0  0  0  0  0  0  0
   -1.9820   24.5000  -28.9660 C   0  0  0  0  0  0  0  0  0  0  0  0
   -3.1160   24.9200  -29.6970 O   0  0  0  0  0  0  0  0  0  0  0  0
   -4.2930   24.3200  -29.1870 C   0  0  0  0  0  0  0  0  0  0  0  0
   -5.5560   24.9690  -29.7720 C   0  0  0  0  0  0  0  0  0  0  0  0
   -6.5950   24.0190  -29.9290 O   0  0  0  0  0  0  0  0  0  0  0  0
   -7.2060   24.1260  -31.2020 C   0  0  0  0  0  0  0  0  0  0  0  0
   -6.3860   23.3720  -32.2540 C   0  0  0  0  0  0  0  0  0  0  0  0
   -5.4880   22.4080  -31.6200 N   0  0  0  0  0  0  0  0  0  0  0  0
   -5.3720   21.0640  -32.1140 C   0  0  0  0  0  0  0  0  0  0  0  0
   -6.5110   20.2440  -32.1310 C   0  0  0  0  0  0  0  0  0  0  0  0
   -7.6740   20.6010  -31.4140 C   0  0  0  0  0  0  0  0  0  0  0  0
   -8.7870   19.7630  -31.4000 C   0  0  0  0  0  0  0  0  0  0  0  0
   -8.7560   18.5560  -32.0900 C   0  0  0  0  0  0  0  0  0  0  0  0
   -7.6270   18.1950  -32.8230 C   0  0  0  0  0  0  0  0  0  0  0  0
   -6.4970   19.0500  -32.8910 C   0  0  0  0  0  0  0  0  0  0  0  0
   -5.4070   18.7530  -33.6840 N   0  0  0  0  0  0  0  0  0  0  0  0
   -5.5290   17.7280  -34.7460 C   0  0  0  0  0  0  0  0  0  0  0  0
   -4.2110   19.4250  -33.4950 C   0  0  0  0  0  0  0  0  0  0  0  0
   -3.0130   18.9680  -34.0990 C   0  0  0  0  0  0  0  0  0  0  0  0
   -1.8100   19.6550  -33.9450 C   0  0  0  0  0  0  0  0  0  0  0  0
   -0.5580   19.1420  -34.5970 C   0  0  0  0  0  0  0  0  0  0  0  0
   -1.7530   20.7550  -33.0930 C   0  0  0  0  0  0  0  0  0  0  0  0
   -2.8920   21.2050  -32.4120 C   0  0  0  0  0  0  0  0  0  0  0  0
   -2.6760   22.2640  -31.3570 C   0  0  0  0  0  0  0  0  0  0  0  0
   -4.1580   20.5890  -32.6700 C   0  0  0  0  0  0  0  0  0  0  0  0
   -2.7899   20.2071  -26.1052 H   0  0  0  0  0  0  0  0  0  0  0  0
   -3.3458   19.0765  -27.3856 H   0  0  0  0  0  0  0  0  0  0  0  0
   -1.6503   19.6698  -27.3856 H   0  0  0  0  0  0  0  0  0  0  0  0
   -3.3787   20.7595  -29.0372 H   0  0  0  0  0  0  0  0  0  0  0  0
   -3.9717   21.6191  -27.5647 H   0  0  0  0  0  0  0  0  0  0  0  0
   -1.0949   21.8018  -26.2649 H   0  0  0  0  0  0  0  0  0  0  0  0
   -0.5507   20.6806  -27.5585 H   0  0  0  0  0  0  0  0  0  0  0  0
    0.0045   22.3889  -27.5585 H   0  0  0  0  0  0  0  0  0  0  0  0
   -3.5360   23.5071  -27.8537 H   0  0  0  0  0  0  0  0  0  0  0  0
   -1.9672   23.8004  -26.9517 H   0  0  0  0  0  0  0  0  0  0  0  0
   -1.5109   25.3676  -28.4808 H   0  0  0  0  0  0  0  0  0  0  0  0
   -1.2510   24.0306  -29.6408 H   0  0  0  0  0  0  0  0  0  0  0  0
   -4.2891   23.2505  -29.4443 H   0  0  0  0  0  0  0  0  0  0  0  0
   -4.3068   24.4610  -28.0962 H   0  0  0  0  0  0  0  0  0  0  0  0
   -5.8973   25.7650  -29.0938 H   0  0  0  0  0  0  0  0  0  0  0  0
   -5.3090   25.3814  -30.7614 H   0  0  0  0  0  0  0  0  0  0  0  0
   -8.2178   23.6969  -31.1555 H   0  0  0  0  0  0  0  0  0  0  0  0
   -7.2579   25.1879  -31.4844 H   0  0  0  0  0  0  0  0  0  0  0  0
   -7.0702   22.8373  -32.9292 H   0  0  0  0  0  0  0  0  0  0  0  0
   -5.7820   24.0986  -32.8172 H   0  0  0  0  0  0  0  0  0  0  0  0
   -5.0300   22.6610  -30.7160 H   0  0  0  0  0  0  0  0  0  0  0  0
   -7.7015   21.5512  -30.8604 H   0  0  0  0  0  0  0  0  0  0  0  0
   -9.6896   20.0559  -30.8436 H   0  0  0  0  0  0  0  0  0  0  0  0
   -9.6259   17.8836  -32.0571 H   0  0  0  0  0  0  0  0  0  0  0  0
   -7.6119   17.2332  -33.3566 H   0  0  0  0  0  0  0  0  0  0  0  0
   -5.6471   16.7358  -34.2861 H   0  0  0  0  0  0  0  0  0  0  0  0
   -6.4071   17.9496  -35.3703 H   0  0  0  0  0  0  0  0  0  0  0  0
   -4.6234   17.7373  -35.3703 H   0  0  0  0  0  0  0  0  0  0  0  0
   -3.0331   18.0493  -34.7037 H   0  0  0  0  0  0  0  0  0  0  0  0
    0.1642   18.8461  -33.8219 H   0  0  0  0  0  0  0  0  0  0  0  0
   -0.8012   18.2710  -35.2233 H   0  0  0  0  0  0  0  0  0  0  0  0
   -0.1201   19.9332  -35.2233 H   0  0  0  0  0  0  0  0  0  0  0  0
   -0.7967   21.2801  -32.9520 H   0  0  0  0  0  0  0  0  0  0  0  0
   -2.7683   21.8113  -30.3587 H   0  0  0  0  0  0  0  0  0  0  0  0
   -1.6711   22.6965  -31.4719 H   0  0  0  0  0  0  0  0  0  0  0  0
   -3.4312   23.0555  -31.4719 H   0  0  0  0  0  0  0  0  0  0  0  0
  1  2  1  0
  2  3  1  0
  3  4  1  0
  3  5  1  0
  5  6  1  0
  6  7  1  0
  7  8  1  0
  8  9  1  0
  9 10  1  0
 10 11  1  0
 11 12  1  0
 12 13  1  0
 13 14  1  0
 14 15  2  0
 15 16  1  0
 16 17  2  0
 17 18  1  0
 18 19  2  0
 19 20  1  0
 20 21  2  0
 21 22  1  0
 21 23  1  0
 23 24  2  0
 24 25  1  0
 25 26  1  0
 25 27  2  0
 27 28  1  0
 28 29  1  0
 28 30  2  0
 30 14  1  0
 20 15  1  0
 30 23  1  0
  1 31  1  0
  1 32  1  0
  1 33  1  0
  2 34  1  0
  2 35  1  0
  4 36  1  0
  4 37  1  0
  4 38  1  0
  5 39  1  0
  5 40  1  0
  6 41  1  0
  6 42  1  0
  8 43  1  0
  8 44  1  0
  9 45  1  0
  9 46  1  0
 11 47  1  0
 11 48  1  0
 12 49  1  0
 12 50  1  0
 13 51  1  0
 16 52  1  0
 17 53  1  0
 18 54  1  0
 19 55  1  0
 22 56  1  0
 22 57  1  0
 22 58  1  0
 24 59  1  0
 26 60  1  0
 26 61  1  0
 26 62  1  0
 27 63  1  0
 29 64  1  0
 29 65  1  0
 29 66  1  0
M  CHG  1  21   1
M  END
>  <UniqueID>  (6) 
6

>  <SMILES>  (6) 
CCN(C)CCOCCOCCNc1c2ccccc2[n+](C)c2cc(C)cc(C)c12

>  <Energy>  (6) 
101.79456532114195

>  <Genealogy>  (6) 
CCN(C)CCOCCOCCNc1c2ccccc2[n+](C)c2cc(C)cc(C)c12 (3D coordinates assigned)
CCN(C)CCOCCOCCNc1c2ccccc2[n+](C)c2cc(C)cc(C)c12 (optimized conformer: 101.79456532114195 kcal/mol)

>  <smiles>  (6) 
CCN(C)CCOCCOCCNc1c2ccccc2[n+](C)c2cc(C)cc(C)c12

>  <score_type>  (6) 
oracle

>  <origin>  (6) 
adg

>  <m_score__min__energy>  (6) 
-9.5899999999999999

>  <m_primary>  (6) 
energy

$$$$
6:0
     RDKit          3D

 48 49  0  0  0  0  0  0  0  0999 V2000
   -5.7720   17.9050  -34.5090 C   0  0  0  0  0  0  0  0  0  0  0  0
   -5.8200   19.2580  -33.7920 C   0  0  0  0  0  0  0  0  0  0  0  0
   -7.1610   19.5320  -33.2010 N   0  0  1  0  0  0  0  0  0  0  0  0
   -7.5110   18.5060  -32.1950 C   0  0  0  0  0  0  0  0  0  0  0  0
   -7.2990   20.9080  -32.6260 C   0  0  1  0  0  0  0  0  0  0  0  0
   -8.5790   21.0890  -31.7470 C   0  0  0  0  0  0  0  0  0  0  0  0
   -8.5420   22.3090  -31.0300 O   0  0  0  0  0  0  0  0  0  0  0  0
   -8.3600   23.4190  -31.8910 C   0  0  0  0  0  0  0  0  0  0  0  0
   -6.9070   23.6430  -32.3780 C   0  0  0  0  0  0  0  0  0  0  0  0
   -5.8740   22.8130  -31.7040 N   0  0  0  0  0  0  0  0  0  0  0  0
   -5.7080   23.1750  -30.2790 C   0  0  0  0  0  0  0  0  0  0  0  0
   -4.4520   23.9790  -30.0660 C   0  0  0  0  0  0  0  0  0  0  0  0
   -4.2580   25.0110  -30.7660 O   0  0  0  0  0  0  0  0  0  0  0  0
   -3.4590   23.5730  -29.1030 N   0  0  0  0  0  0  0  0  0  0  0  0
   -2.4710   24.5530  -28.6390 C   0  0  0  0  0  0  0  0  0  0  0  0
   -1.9380   24.1470  -27.2610 C   0  0  0  0  0  0  0  0  0  0  0  0
   -1.4750   22.8100  -27.2760 O   0  0  0  0  0  0  0  0  0  0  0  0
   -2.5610   21.9350  -27.5080 C   0  0  0  0  0  0  0  0  0  0  0  0
   -3.1480   22.1520  -28.9060 C   0  0  0  0  0  0  0  0  0  0  0  0
   -6.0070   21.3430  -31.8670 C   0  0  0  0  0  0  0  0  0  0  0  0
   -5.7433   17.0961  -33.7641 H   0  0  0  0  0  0  0  0  0  0  0  0
   -6.6667   17.7919  -35.1389 H   0  0  0  0  0  0  0  0  0  0  0  0
   -4.8715   17.8556  -35.1389 H   0  0  0  0  0  0  0  0  0  0  0  0
   -5.0705   19.2596  -32.9869 H   0  0  0  0  0  0  0  0  0  0  0  0
   -5.6101   20.0424  -34.5341 H   0  0  0  0  0  0  0  0  0  0  0  0
   -7.8860   19.4440  -33.9530 H   0  0  0  0  0  0  0  0  0  0  0  0
   -7.3700   18.9193  -31.1854 H   0  0  0  0  0  0  0  0  0  0  0  0
   -8.5617   18.2078  -32.3257 H   0  0  0  0  0  0  0  0  0  0  0  0
   -6.8616   17.6278  -32.3257 H   0  0  0  0  0  0  0  0  0  0  0  0
   -7.4298   21.5842  -33.4837 H   0  0  0  0  0  0  0  0  0  0  0  0
   -9.4651   21.0831  -32.3988 H   0  0  0  0  0  0  0  0  0  0  0  0
   -8.6230   20.2619  -31.0231 H   0  0  0  0  0  0  0  0  0  0  0  0
   -8.9968   23.2717  -32.7758 H   0  0  0  0  0  0  0  0  0  0  0  0
   -8.6259   24.3094  -31.3024 H   0  0  0  0  0  0  0  0  0  0  0  0
   -6.8718   23.4206  -33.4547 H   0  0  0  0  0  0  0  0  0  0  0  0
   -6.6631   24.6876  -32.1345 H   0  0  0  0  0  0  0  0  0  0  0  0
   -6.5747   23.7706  -29.9564 H   0  0  0  0  0  0  0  0  0  0  0  0
   -5.6340   22.2490  -29.6898 H   0  0  0  0  0  0  0  0  0  0  0  0
   -1.6365   24.5957  -29.3543 H   0  0  0  0  0  0  0  0  0  0  0  0
   -2.9493   25.5408  -28.5647 H   0  0  0  0  0  0  0  0  0  0  0  0
   -1.1075   24.8133  -26.9848 H   0  0  0  0  0  0  0  0  0  0  0  0
   -2.7545   24.2295  -26.5285 H   0  0  0  0  0  0  0  0  0  0  0  0
   -2.2111   20.8957  -27.4215 H   0  0  0  0  0  0  0  0  0  0  0  0
   -3.3433   22.1400  -26.7624 H   0  0  0  0  0  0  0  0  0  0  0  0
   -2.4169   21.8305  -29.6624 H   0  0  0  0  0  0  0  0  0  0  0  0
   -4.0711   21.5623  -29.0064 H   0  0  0  0  0  0  0  0  0  0  0  0
   -5.1350   20.9760  -32.4281 H   0  0  0  0  0  0  0  0  0  0  0  0
   -6.0689   20.9129  -30.8565 H   0  0  0  0  0  0  0  0  0  0  0  0
  1  2  1  0
  2  3  1  0
  3  4  1  0
  3  5  1  0
  5  6  1  0
  6  7  1  0
  7  8  1  0
  8  9  1  0
  9 10  1  0
 10 11  1  0
 11 12  1  0
 12 13  2  0
 12 14  1  0
 14 15  1  0
 15 16  1  0
 16 17  1  0
 17 18  1  0
 18 19  1  0
 10 20  1  0
 20  5  1  0
 19 14  1  0
  1 21  1  0
  1 22  1  0
  1 23  1  0
  2 24  1  0
  2 25  1  0
  3 26  1  6
  4 27  1  0
  4 28  1  0
  4 29  1  0
  5 30  1  6
  6 31  1  0
  6 32  1  0
  8 33  1  0
  8 34  1  0
  9 35  1  0
  9 36  1  0
 11 37  1  0
 11 38  1  0
 15 39  1  0
 15 40  1  0
 16 41  1  0
 16 42  1  0
 18 43  1  0
 18 44  1  0
 19 45  1  0
 19 46  1  0
 20 47  1  0
 20 48  1  0
M  CHG  1   3   1
M  END
>  <UniqueID>  (7) 
7

>  <SMILES>  (7) 
CC[N@@H+](C)[C@H]1COCCN(CC(=O)N2CCOCC2)C1

>  <Energy>  (7) 
74.06930506111992

>  <Genealogy>  (7) 
CC[NH+](C)C1COCCN(CC(=O)N2CCOCC2)C1 (protonated)
CC[N@@H+](C)[C@H]1COCCN(CC(=O)N2CCOCC2)C1 (chirality)
CC[N@@H+](C)[C@H]1COCCN(CC(=O)N2CCOCC2)C1 (3D coordinates assigned)
CC[N@@H+](C)[C@H]1COCCN(CC(=O)N2CCOCC2)C1 (nonaromatic ring conformer: 74.06930506111992 kcal/mol)

>  <smiles>  (7) 
CCN(C)C1COCCN(CC(=O)N2CCOCC2)C1

>  <score_type>  (7) 
oracle

>  <origin>  (7) 
adg

>  <m_score__min__energy>  (7) 
-4.5499999999999998

>  <m_primary>  (7) 
energy

$$$$
7:0
     RDKit          3D

 47 49  0  0  0  0  0  0  0  0999 V2000
   -6.0820   24.9930  -29.7340 C   0  0  0  0  0  0  0  0  0  0  0  0
   -5.0770   25.2950  -30.8490 C   0  0  0  0  0  0  0  0  0  0  0  0
   -3.8600   24.4710  -30.7550 N   0  0  0  0  0  0  0  0  0  0  0  0
   -4.1660   23.0370  -30.6910 C   0  0  0  0  0  0  0  0  0  0  0  0
   -3.4970   22.3120  -31.8590 C   0  0  0  0  0  0  0  0  0  0  0  0
   -4.4460   22.1070  -32.9530 N   0  0  0  0  0  0  0  0  0  0  0  0
   -5.5000   21.1350  -32.8640 C   0  0  0  0  0  0  0  0  0  0  0  0
   -6.7940   21.5210  -32.4760 C   0  0  0  0  0  0  0  0  0  0  0  0
   -7.1180   22.8830  -32.2970 C   0  0  0  0  0  0  0  0  0  0  0  0
   -8.4120   23.2670  -31.9520 C   0  0  0  0  0  0  0  0  0  0  0  0
   -9.4060   22.3060  -31.8010 C   0  0  0  0  0  0  0  0  0  0  0  0
   -9.1100   20.9560  -31.9810 C   0  0  0  0  0  0  0  0  0  0  0  0
   -7.7950   20.5290  -32.2970 C   0  0  0  0  0  0  0  0  0  0  0  0
   -7.4800   19.1920  -32.4530 N   0  0  0  0  0  0  0  0  0  0  0  0
   -8.4210   18.1510  -31.9810 C   0  0  0  0  0  0  0  0  0  0  0  0
   -6.2770   18.8280  -33.0300 C   0  0  0  0  0  0  0  0  0  0  0  0
   -6.0280   17.5010  -33.4650 C   0  0  0  0  0  0  0  0  0  0  0  0
   -4.7800   17.1280  -33.9950 C   0  0  0  0  0  0  0  0  0  0  0  0
   -4.5000   15.8200  -34.4210 O   0  0  0  0  0  0  0  0  0  0  0  0
   -3.3900   15.4550  -35.2350 C   0  0  0  0  0  0  0  0  0  0  0  0
   -3.7750   18.0840  -34.1110 C   0  0  0  0  0  0  0  0  0  0  0  0
   -4.0070   19.4040  -33.7350 C   0  0  0  0  0  0  0  0  0  0  0  0
   -5.2550   19.7960  -33.2110 C   0  0  0  0  0  0  0  0  0  0  0  0
   -5.5994   25.1380  -28.7562 H   0  0  0  0  0  0  0  0  0  0  0  0
   -6.9428   25.6722  -29.8224 H   0  0  0  0  0  0  0  0  0  0  0  0
   -6.4258   23.9519  -29.8224 H   0  0  0  0  0  0  0  0  0  0  0  0
   -5.5587   25.1020  -31.8189 H   0  0  0  0  0  0  0  0  0  0  0  0
   -4.7744   26.3477  -30.7477 H   0  0  0  0  0  0  0  0  0  0  0  0
   -3.2530   24.6550  -31.5890 H   0  0  0  0  0  0  0  0  0  0  0  0
   -3.7905   22.6255  -29.7425 H   0  0  0  0  0  0  0  0  0  0  0  0
   -5.2551   22.8950  -30.7513 H   0  0  0  0  0  0  0  0  0  0  0  0
   -2.6522   22.9156  -32.2223 H   0  0  0  0  0  0  0  0  0  0  0  0
   -3.1431   21.3308  -31.5097 H   0  0  0  0  0  0  0  0  0  0  0  0
   -4.3220   22.6400  -33.8430 H   0  0  0  0  0  0  0  0  0  0  0  0
   -6.3405   23.6495  -32.4313 H   0  0  0  0  0  0  0  0  0  0  0  0
   -8.6476   24.3305  -31.7990 H   0  0  0  0  0  0  0  0  0  0  0  0
  -10.4293   22.6125  -31.5386 H   0  0  0  0  0  0  0  0  0  0  0  0
   -9.9103   20.2086  -31.8761 H   0  0  0  0  0  0  0  0  0  0  0  0
   -8.4323   18.1385  -30.8811 H   0  0  0  0  0  0  0  0  0  0  0  0
   -9.4312   18.3728  -32.3556 H   0  0  0  0  0  0  0  0  0  0  0  0
   -8.0986   17.1683  -32.3556 H   0  0  0  0  0  0  0  0  0  0  0  0
   -6.8269   16.7489  -33.3862 H   0  0  0  0  0  0  0  0  0  0  0  0
   -2.5411   15.1758  -34.5936 H   0  0  0  0  0  0  0  0  0  0  0  0
   -3.6663   14.6004  -35.8701 H   0  0  0  0  0  0  0  0  0  0  0  0
   -3.1052   16.3068  -35.8701 H   0  0  0  0  0  0  0  0  0  0  0  0
   -2.7891   17.7939  -34.5031 H   0  0  0  0  0  0  0  0  0  0  0  0
   -3.2066   20.1500  -33.8483 H   0  0  0  0  0  0  0  0  0  0  0  0
  1  2  1  0
  2  3  1  0
  3  4  1  0
  4  5  1  0
  5  6  1  0
  6  7  1  0
  7  8  2  0
  8  9  1  0
  9 10  2  0
 10 11  1  0
 11 12  2  0
 12 13  1  0
 13 14  2  0
 14 15  1  0
 14 16  1  0
 16 17  2  0
 17 18  1  0
 18 19  1  0
 19 20  1  0
 18 21  2  0
 21 22  1  0
 22 23  2  0
 23  7  1  0
 13  8  1  0
 23 16  1  0
  1 24  1  0
  1 25  1  0
  1 26  1  0
  2 27  1  0
  2 28  1  0
  3 29  1  0
  4 30  1  0
  4 31  1  0
  5 32  1  0
  5 33  1  0
  6 34  1  0
  9 35  1  0
 10 36  1  0
 11 37  1  0
 12 38  1  0
 15 39  1  0
 15 40  1  0
 15 41  1  0
 17 42  1  0
 20 43  1  0
 20 44  1  0
 20 45  1  0
 21 46  1  0
 22 47  1  0
M  CHG  1  14   1
M  END
>  <UniqueID>  (8) 
8

>  <SMILES>  (8) 
CCNCCNc1c2ccccc2[n+](C)c2cc(OC)ccc12

>  <Energy>  (8) 
69.34094532737134

>  <Genealogy>  (8) 
CCNCCNc1c2ccccc2[n+](C)c2cc(OC)ccc12 (3D coordinates assigned)
CCNCCNc1c2ccccc2[n+](C)c2cc(OC)ccc12 (optimized conformer: 69.34094532737134 kcal/mol)

>  <smiles>  (8) 
CCNCCNc1c2ccccc2[n+](C)c2cc(OC)ccc12

>  <score_type>  (8) 
oracle

>  <origin>  (8) 
adg

>  <m_score__min__energy>  (8) 
-8.3000000000000007

>  <m_primary>  (8) 
energy

$$$$
8:0
     RDKit          3D

 39 41  0  0  0  0  0  0  0  0999 V2000
   -8.7520   18.5560  -31.2790 C   0  0  0  0  0  0  0  0  0  0  0  0
   -9.1600   19.5120  -32.4040 C   0  0  0  0  0  0  0  0  0  0  0  0
   -8.1030   19.6650  -33.4170 N   0  0  0  0  0  0  0  0  0  0  0  0
   -6.9230   20.2880  -32.8640 C   0  0  0  0  0  0  0  0  0  0  0  0
   -5.7870   19.5170  -32.5660 C   0  0  0  0  0  0  0  0  0  0  0  0
   -4.6400   20.1200  -32.0440 C   0  0  0  0  0  0  0  0  0  0  0  0
   -4.6120   21.5020  -31.8090 C   0  0  0  0  0  0  0  0  0  0  0  0
   -5.7310   22.2820  -32.1230 C   0  0  0  0  0  0  0  0  0  0  0  0
   -6.8870   21.6750  -32.6390 C   0  0  0  0  0  0  0  0  0  0  0  0
   -5.6720   23.7570  -31.8810 C   0  0  0  0  0  0  0  0  0  0  0  0
   -5.6160   24.0120  -30.4460 N   0  0  0  0  0  0  0  0  0  0  0  0
   -4.5220   23.6380  -29.5830 C   0  0  0  0  0  0  0  0  0  0  0  0
   -4.5040   24.1790  -28.2850 C   0  0  0  0  0  0  0  0  0  0  0  0
   -3.4670   23.8890  -27.3990 C   0  0  0  0  0  0  0  0  0  0  0  0
   -2.4310   23.0500  -27.7900 C   0  0  0  0  0  0  0  0  0  0  0  0
   -2.4280   22.4910  -29.0680 C   0  0  0  0  0  0  0  0  0  0  0  0
   -3.4640   22.7660  -29.9840 C   0  0  0  0  0  0  0  0  0  0  0  0
   -3.4320   22.1280  -31.2820 N   0  0  0  0  0  0  0  0  0  0  0  0
   -2.1600   21.9270  -31.9810 C   0  0  0  0  0  0  0  0  0  0  0  0
   -8.9533   19.0277  -30.3059 H   0  0  0  0  0  0  0  0  0  0  0  0
   -9.3309   17.6243  -31.3616 H   0  0  0  0  0  0  0  0  0  0  0  0
   -7.6788   18.3294  -31.3616 H   0  0  0  0  0  0  0  0  0  0  0  0
  -10.0638   19.1187  -32.8923 H   0  0  0  0  0  0  0  0  0  0  0  0
   -9.3432   20.5000  -31.9565 H   0  0  0  0  0  0  0  0  0  0  0  0
   -8.4690   20.2660  -34.1920 H   0  0  0  0  0  0  0  0  0  0  0  0
   -7.8700   18.7340  -33.8360 H   0  0  0  0  0  0  0  0  0  0  0  0
   -5.8008   18.4317  -32.7448 H   0  0  0  0  0  0  0  0  0  0  0  0
   -3.7549   19.5078  -31.8163 H   0  0  0  0  0  0  0  0  0  0  0  0
   -7.7704   22.2889  -32.8687 H   0  0  0  0  0  0  0  0  0  0  0  0
   -4.7743   24.1720  -32.3625 H   0  0  0  0  0  0  0  0  0  0  0  0
   -6.5684   24.2342  -32.3037 H   0  0  0  0  0  0  0  0  0  0  0  0
   -6.4050   24.5640  -30.0390 H   0  0  0  0  0  0  0  0  0  0  0  0
   -5.3211   24.8416  -27.9635 H   0  0  0  0  0  0  0  0  0  0  0  0
   -3.4692   24.3251  -26.3892 H   0  0  0  0  0  0  0  0  0  0  0  0
   -1.6119   22.8262  -27.0908 H   0  0  0  0  0  0  0  0  0  0  0  0
   -1.6045   21.8253  -29.3658 H   0  0  0  0  0  0  0  0  0  0  0  0
   -1.3530   21.7995  -31.2444 H   0  0  0  0  0  0  0  0  0  0  0  0
   -2.2262   21.0282  -32.6117 H   0  0  0  0  0  0  0  0  0  0  0  0
   -1.9458   22.8024  -32.6117 H   0  0  0  0  0  0  0  0  0  0  0  0
  1  2  1  0
  2  3  1  0
  3  4  1  0
  4  5  2  0
  5  6  1  0
  6  7  2  0
  7  8  1  0
  8  9  2  0
  8 10  1  0
 10 11  1  0
 11 12  1  0
 12 13  2  0
 13 14  1  0
 14 15  2  0
 15 16  1  0
 16 17  2  0
 17 18  1  0
 18 19  1  0
  9  4  1  0
 17 12  1  0
 18  7  1  0
  1 20  1  0
  1 21  1  0
  1 22  1  0
  2 23  1  0
  2 24  1  0
  3 25  1  0
  3 26  1  0
  5 27  1  0
  6 28  1  0
  9 29  1  0
 10 30  1  0
 10 31  1  0
 11 32  1  0
 13 33  1  0
 14 34  1  0
 15 35  1  0
 16 36  1  0
 19 37  1  0
 19 38  1  0
 19 39  1  0
M  CHG  1   3   1
M  END
>  <UniqueID>  (9) 
9

>  <SMILES>  (9) 
CC[NH2+]c1ccc2c(c1)CNc1ccccc1N2C

>  <Energy>  (9) 
53.471688904453245

>  <Genealogy>  (9) 
CC[NH2+]c1ccc2c(c1)CNc1ccccc1N2C (protonated)
CC[NH2+]c1ccc2c(c1)CNc1ccccc1N2C (3D coordinates assigned)
CC[NH2+]c1ccc2c(c1)CNc1ccccc1N2C (nonaromatic ring conformer: 53.471688904453245 kcal/mol)

>  <smiles>  (9) 
CCNc1ccc2c(c1)CNc1ccccc1N2C

>  <score_type>  (9) 
oracle

>  <origin>  (9) 
adg

>  <m_score__min__energy>  (9) 
-6.5800000000000001

>  <m_primary>  (9) 
energy

$$$$
9:0
     RDKit          3D

 70 72  0  0  0  0  0  0  0  0999 V2000
   -6.0880   25.6490  -29.7490 C   0  0  0  0  0  0  0  0  0  0  0  0
   -4.8350   25.3630  -30.5730 C   0  0  0  0  0  0  0  0  0  0  0  0
   -4.9410   24.0350  -31.2150 N   0  0  0  0  0  0  0  0  0  0  0  0
   -6.2150   23.9210  -31.9500 C   0  0  0  0  0  0  0  0  0  0  0  0
   -4.8040   22.9390  -30.2270 C   0  0  0  0  0  0  0  0  0  0  0  0
   -4.0950   21.7320  -30.8510 C   0  0  0  0  0  0  0  0  0  0  0  0
   -4.3750   21.6330  -32.2850 N   0  0  0  0  0  0  0  0  0  0  0  0
   -4.8420   20.3880  -32.8210 C   0  0  0  0  0  0  0  0  0  0  0  0
   -6.1980   20.0590  -32.6650 C   0  0  0  0  0  0  0  0  0  0  0  0
   -7.1530   21.0540  -32.3670 C   0  0  0  0  0  0  0  0  0  0  0  0
   -8.5040   20.7330  -32.2560 C   0  0  0  0  0  0  0  0  0  0  0  0
   -8.9250   19.4220  -32.4470 C   0  0  0  0  0  0  0  0  0  0  0  0
   -7.9930   18.4190  -32.7170 C   0  0  0  0  0  0  0  0  0  0  0  0
   -6.6070   18.7110  -32.7930 C   0  0  0  0  0  0  0  0  0  0  0  0
   -5.6610   17.7230  -32.9640 N   0  0  0  0  0  0  0  0  0  0  0  0
   -6.0210   16.3070  -32.7220 C   0  0  0  0  0  0  0  0  0  0  0  0
   -4.3740   18.0580  -33.3500 C   0  0  0  0  0  0  0  0  0  0  0  0
   -3.4640   17.0630  -33.7830 C   0  0  0  0  0  0  0  0  0  0  0  0
   -2.1700   17.3870  -34.1650 C   0  0  0  0  0  0  0  0  0  0  0  0
   -1.7670   18.7090  -34.2070 C   0  0  0  0  0  0  0  0  0  0  0  0
   -2.6410   19.7500  -33.8510 C   0  0  0  0  0  0  0  0  0  0  0  0
   -2.2370   21.0970  -34.2100 N   0  0  0  0  0  0  0  0  0  0  0  0
   -1.0520   21.5270  -33.4420 C   0  0  0  0  0  0  0  0  0  0  0  0
   -1.0780   21.0060  -31.9930 C   0  0  0  0  0  0  0  0  0  0  0  0
    0.2620   20.3450  -31.5820 C   0  0  0  0  0  0  0  0  0  0  0  0
    0.1610   19.3330  -30.4850 N   0  0  0  0  0  0  0  0  0  0  0  0
   -0.1370   17.9830  -31.0240 C   0  0  0  0  0  0  0  0  0  0  0  0
   -0.8710   19.7140  -29.4920 C   0  0  0  0  0  0  0  0  0  0  0  0
    1.4730   19.2790  -29.7930 C   0  0  0  0  0  0  0  0  0  0  0  0
   -3.9420   19.4230  -33.3350 C   0  0  0  0  0  0  0  0  0  0  0  0
   -5.8432   25.5931  -28.6780 H   0  0  0  0  0  0  0  0  0  0  0  0
   -6.4619   26.6556  -29.9876 H   0  0  0  0  0  0  0  0  0  0  0  0
   -6.8617   24.9043  -29.9876 H   0  0  0  0  0  0  0  0  0  0  0  0
   -4.7261   26.1347  -31.3493 H   0  0  0  0  0  0  0  0  0  0  0  0
   -3.9577   25.3731  -29.9095 H   0  0  0  0  0  0  0  0  0  0  0  0
   -7.0463   23.8466  -31.2335 H   0  0  0  0  0  0  0  0  0  0  0  0
   -6.3544   24.8103  -32.5823 H   0  0  0  0  0  0  0  0  0  0  0  0
   -6.1943   23.0211  -32.5823 H   0  0  0  0  0  0  0  0  0  0  0  0
   -4.2175   23.2981  -29.3685 H   0  0  0  0  0  0  0  0  0  0  0  0
   -5.8079   22.6295  -29.9009 H   0  0  0  0  0  0  0  0  0  0  0  0
   -3.0100   21.8385  -30.7043 H   0  0  0  0  0  0  0  0  0  0  0  0
   -4.4663   20.8198  -30.3610 H   0  0  0  0  0  0  0  0  0  0  0  0
   -4.5620   22.5030  -32.8340 H   0  0  0  0  0  0  0  0  0  0  0  0
   -6.8272   22.0944  -32.2207 H   0  0  0  0  0  0  0  0  0  0  0  0
   -9.2377   21.5170  -32.0172 H   0  0  0  0  0  0  0  0  0  0  0  0
   -9.9951   19.1747  -32.3852 H   0  0  0  0  0  0  0  0  0  0  0  0
   -8.3384   17.3864  -32.8732 H   0  0  0  0  0  0  0  0  0  0  0  0
   -6.0684   16.1207  -31.6389 H   0  0  0  0  0  0  0  0  0  0  0  0
   -7.0015   16.0956  -33.1737 H   0  0  0  0  0  0  0  0  0  0  0  0
   -5.2606   15.6530  -33.1737 H   0  0  0  0  0  0  0  0  0  0  0  0
   -3.7894   16.0128  -33.8172 H   0  0  0  0  0  0  0  0  0  0  0  0
   -1.4624   16.5894  -34.4353 H   0  0  0  0  0  0  0  0  0  0  0  0
   -0.7421   18.9505  -34.5253 H   0  0  0  0  0  0  0  0  0  0  0  0
   -2.0010   21.1010  -35.2310 H   0  0  0  0  0  0  0  0  0  0  0  0
   -3.0230   21.7720  -34.1150 H   0  0  0  0  0  0  0  0  0  0  0  0
   -0.1490   21.1442  -33.9400 H   0  0  0  0  0  0  0  0  0  0  0  0
   -1.0534   22.6264  -33.4059 H   0  0  0  0  0  0  0  0  0  0  0  0
   -1.2780   21.8504  -31.3169 H   0  0  0  0  0  0  0  0  0  0  0  0
   -1.8657   20.2413  -31.9243 H   0  0  0  0  0  0  0  0  0  0  0  0
    0.6816   19.8462  -32.4680 H   0  0  0  0  0  0  0  0  0  0  0  0
    0.8964   21.1553  -31.1934 H   0  0  0  0  0  0  0  0  0  0  0  0
   -0.2918   17.2816  -30.1909 H   0  0  0  0  0  0  0  0  0  0  0  0
   -1.0471   18.0269  -31.6403 H   0  0  0  0  0  0  0  0  0  0  0  0
    0.7070   17.6397  -31.6403 H   0  0  0  0  0  0  0  0  0  0  0  0
   -0.4744   19.5676  -28.4765 H   0  0  0  0  0  0  0  0  0  0  0  0
   -1.1412   20.7712  -29.6312 H   0  0  0  0  0  0  0  0  0  0  0  0
   -1.7633   19.0860  -29.6312 H   0  0  0  0  0  0  0  0  0  0  0  0
    1.3140   19.2855  -28.7046 H   0  0  0  0  0  0  0  0  0  0  0  0
    2.0017   18.3583  -30.0808 H   0  0  0  0  0  0  0  0  0  0  0  0
    2.0756   20.1531  -30.0808 H   0  0  0  0  0  0  0  0  0  0  0  0
  1  2  1  0
  2  3  1  0
  3  4  1  0
  3  5  1  0
  5  6  1  0
  6  7  1  0
  7  8  1  0
  8  9  2  0
  9 10  1  0
 10 11  2  0
 11 12  1  0
 12 13  2  0
 13 14  1  0
 14 15  2  0
 15 16  1  0
 15 17  1  0
 17 18  2  0
 18 19  1  0
 19 20  2  0
 20 21  1  0
 21 22  1  0
 22 23  1  0
 23 24  1  0
 24 25  1  0
 25 26  1  0
 26 27  1  0
 26 28  1  0
 26 29  1  0
 21 30  2  0
 30  8  1  0
 14  9  1  0
 30 17  1  0
  1 31  1  0
  1 32  1  0
  1 33  1  0
  2 34  1  0
  2 35  1  0
  4 36  1  0
  4 37  1  0
  4 38  1  0
  5 39  1  0
  5 40  1  0
  6 41  1  0
  6 42  1  0
  7 43  1  0
 10 44  1  0
 11 45  1  0
 12 46  1  0
 13 47  1  0
 16 48  1  0
 16 49  1  0
 16 50  1  0
 18 51  1  0
 19 52  1  0
 20 53  1  0
 22 54  1  0
 22 55  1  0
 23 56  1  0
 23 57  1  0
 24 58  1  0
 24 59  1  0
 25 60  1  0
 25 61  1  0
 27 62  1  0
 27 63  1  0
 27 64  1  0
 28 65  1  0
 28 66  1  0
 28 67  1  0
 29 68  1  0
 29 69  1  0
 29 70  1  0
M  CHG  3  15   1  22   1  26   1
M  END
>  <UniqueID>  (10) 
10

>  <SMILES>  (10) 
CCN(C)CCNc1c2ccccc2[n+](C)c2cccc([NH2+]CCC[N+](C)(C)C)c12

>  <Energy>  (10) 
109.5776890432515

>  <Genealogy>  (10) 
CCN(C)CCNc1c2ccccc2[n+](C)c2cccc([NH2+]CCC[N+](C)(C)C)c12 (protonated)
CCN(C)CCNc1c2ccccc2[n+](C)c2cccc([NH2+]CCC[N+](C)(C)C)c12 (3D coordinates assigned)
CCN(C)CCNc1c2ccccc2[n+](C)c2cccc([NH2+]CCC[N+](C)(C)C)c12 (optimized conformer: 109.5776890432515 kcal/mol)

>  <smiles>  (10) 
CCN(C)CCNc1c2ccccc2[n+](C)c2cccc(NCCC[N+](C)(C)C)c12

>  <score_type>  (10) 
oracle

>  <origin>  (10) 
adg

>  <m_score__min__energy>  (10) 
-6.8300000000000001

>  <m_primary>  (10) 
energy

$$$$
10:0
     RDKit          3D

 44 44  0  0  0  0  0  0  0  0999 V2000
   -6.6700   24.5020  -30.6570 C   0  0  0  0  0  0  0  0  0  0  0  0
   -5.9780   23.8300  -31.8370 C   0  0  0  0  0  0  0  0  0  0  0  0
   -4.6460   23.4580  -31.4920 O   0  0  0  0  0  0  0  0  0  0  0  0
   -3.9370   24.0320  -30.4310 C   0  0  0  0  0  0  0  0  0  0  0  0
   -3.5940   25.2450  -30.4640 O   0  0  0  0  0  0  0  0  0  0  0  0
   -3.6110   23.1990  -29.2300 C   0  0  0  0  0  0  0  0  0  0  0  0
   -2.1940   22.6150  -29.3140 C   0  0  0  0  0  0  0  0  0  0  0  0
   -1.6200   22.6160  -30.7400 C   0  0  0  0  0  0  0  0  0  0  0  0
   -2.3300   21.6670  -31.5970 N   0  0  0  0  0  0  0  0  0  0  0  0
   -1.6530   20.7970  -32.5140 C   0  0  0  0  0  0  0  0  0  0  0  0
   -0.4020   20.8680  -32.6550 O   0  0  0  0  0  0  0  0  0  0  0  0
   -2.4300   19.7950  -33.3060 C   0  0  0  0  0  0  0  0  0  0  0  0
   -3.7040   19.5970  -32.7030 O   0  0  0  0  0  0  0  0  0  0  0  0
   -4.7880   20.4520  -32.9250 C   0  0  0  0  0  0  0  0  0  0  0  0
   -4.5900   21.6100  -33.3820 O   0  0  0  0  0  0  0  0  0  0  0  0
   -6.1640   19.9700  -32.6490 C   0  0  0  0  0  0  0  0  0  0  0  0
   -7.0610   20.8380  -31.9970 C   0  0  0  0  0  0  0  0  0  0  0  0
   -8.3650   20.4290  -31.6990 C   0  0  0  0  0  0  0  0  0  0  0  0
   -9.4840   21.5440  -30.8490 S   0  0  0  0  0  0  0  0  0  0  0  0
   -9.1600   22.9310  -31.9820 C   0  0  0  0  0  0  0  0  0  0  0  0
   -8.7910   19.1470  -32.0490 C   0  0  0  0  0  0  0  0  0  0  0  0
   -7.9200   18.2770  -32.7050 C   0  0  0  0  0  0  0  0  0  0  0  0
   -6.6120   18.6740  -33.0120 C   0  0  0  0  0  0  0  0  0  0  0  0
   -5.6070   17.5250  -33.8910 Cl  0  0  0  0  0  0  0  0  0  0  0  0
   -6.2604   24.1043  -29.7167 H   0  0  0  0  0  0  0  0  0  0  0  0
   -6.4988   25.5877  -30.7013 H   0  0  0  0  0  0  0  0  0  0  0  0
   -7.7502   24.2990  -30.7013 H   0  0  0  0  0  0  0  0  0  0  0  0
   -6.5423   22.9299  -32.1223 H   0  0  0  0  0  0  0  0  0  0  0  0
   -5.9418   24.5388  -32.6775 H   0  0  0  0  0  0  0  0  0  0  0  0
   -3.6855   23.8265  -28.3296 H   0  0  0  0  0  0  0  0  0  0  0  0
   -4.3251   22.3634  -29.1872 H   0  0  0  0  0  0  0  0  0  0  0  0
   -1.5314   23.2123  -28.6704 H   0  0  0  0  0  0  0  0  0  0  0  0
   -2.2537   21.5663  -28.9873 H   0  0  0  0  0  0  0  0  0  0  0  0
   -1.7175   23.6258  -31.1652 H   0  0  0  0  0  0  0  0  0  0  0  0
   -0.5628   22.3164  -30.6899 H   0  0  0  0  0  0  0  0  0  0  0  0
   -3.3750   21.6550  -31.5630 H   0  0  0  0  0  0  0  0  0  0  0  0
   -2.5642   20.1644  -34.3334 H   0  0  0  0  0  0  0  0  0  0  0  0
   -1.8827   18.8411  -33.3274 H   0  0  0  0  0  0  0  0  0  0  0  0
   -6.7321   21.8501  -31.7186 H   0  0  0  0  0  0  0  0  0  0  0  0
   -8.9479   23.8391  -31.3986 H   0  0  0  0  0  0  0  0  0  0  0  0
   -8.2936   22.6918  -32.6161 H   0  0  0  0  0  0  0  0  0  0  0  0
  -10.0428   23.1004  -32.6161 H   0  0  0  0  0  0  0  0  0  0  0  0
   -9.8139   18.8224  -31.8075 H   0  0  0  0  0  0  0  0  0  0  0  0
   -8.2634   17.2699  -32.9839 H   0  0  0  0  0  0  0  0  0  0  0  0
  1  2  1  0
  2  3  1  0
  3  4  1  0
  4  5  2  0
  4  6  1  0
  6  7  1  0
  7  8  1  0
  8  9  1  0
  9 10  1  0
 10 11  2  0
 10 12  1  0
 12 13  1  0
 13 14  1  0
 14 15  2  0
 14 16  1  0
 16 17  2  0
 17 18  1  0
 18 19  1  0
 19 20  1  0
 18 21  2  0
 21 22  1  0
 22 23  2  0
 23 24  1  0
 23 16  1  0
  1 25  1  0
  1 26  1  0
  1 27  1  0
  2 28  1  0
  2 29  1  0
  6 30  1  0
  6 31  1  0
  7 32  1  0
  7 33  1  0
  8 34  1  0
  8 35  1  0
  9 36  1  0
 12 37  1  0
 12 38  1  0
 17 39  1  0
 20 40  1  0
 20 41  1  0
 20 42  1  0
 21 43  1  0
 22 44  1  0
M  END
>  <UniqueID>  (11) 
11

>  <SMILES>  (11) 
CCOC(=O)CCCNC(=O)COC(=O)c1cc(SC)ccc1Cl

>  <Energy>  (11) 
26.65426092961737

>  <Genealogy>  (11) 
CCOC(=O)CCCNC(=O)COC(=O)c1cc(SC)ccc1Cl (3D coordinates assigned)
CCOC(=O)CCCNC(=O)COC(=O)c1cc(SC)ccc1Cl (optimized conformer: 26.65426092961737 kcal/mol)

>  <smiles>  (11) 
CCOC(=O)CCCNC(=O)COC(=O)c1cc(SC)ccc1Cl

>  <score_type>  (11) 
oracle

>  <origin>  (11) 
adg

>  <m_score__min__energy>  (11) 
-7.9400000000000004

>  <m_primary>  (11) 
energy

$$$$
11:0
     RDKit          3D

 45 48  0  0  0  0  0  0  0  0999 V2000
   -0.8710   24.7560  -28.6670 C   0  0  0  0  0  0  0  0  0  0  0  0
   -2.0710   24.1420  -29.3140 C   0  0  0  0  0  0  0  0  0  0  0  0
   -2.1360   22.7630  -29.5190 C   0  0  0  0  0  0  0  0  0  0  0  0
   -3.2790   22.2080  -30.0920 C   0  0  0  0  0  0  0  0  0  0  0  0
   -4.3640   23.0250  -30.4450 C   0  0  0  0  0  0  0  0  0  0  0  0
   -5.5910   22.4100  -31.0000 C   0  0  0  0  0  0  0  0  0  0  0  0
   -6.7590   22.3030  -30.3170 N   0  0  0  0  0  0  0  0  0  0  0  0
   -7.5430   21.5750  -31.1400 C   0  0  0  0  0  0  0  0  0  0  0  0
   -8.8520   21.1760  -30.8760 C   0  0  0  0  0  0  0  0  0  0  0  0
   -9.5010   20.3870  -31.8410 C   0  0  0  0  0  0  0  0  0  0  0  0
   -8.8350   20.0200  -33.0270 C   0  0  0  0  0  0  0  0  0  0  0  0
   -7.5160   20.4500  -33.2400 C   0  0  0  0  0  0  0  0  0  0  0  0
   -6.9320   21.2140  -32.2820 N   0  0  0  0  0  0  0  0  0  0  0  0
   -5.7050   21.7480  -32.2150 C   0  0  0  0  0  0  0  0  0  0  0  0
   -4.6520   21.4850  -33.1480 N   0  0  0  0  0  0  0  0  0  0  0  0
   -3.8290   20.2900  -33.0140 C   0  0  0  0  0  0  0  0  0  0  0  0
   -4.6950   19.0640  -33.1170 C   0  0  0  0  0  0  0  0  0  0  0  0
   -5.2750   18.5140  -31.9610 C   0  0  0  0  0  0  0  0  0  0  0  0
   -6.1410   17.4210  -32.0600 C   0  0  0  0  0  0  0  0  0  0  0  0
   -6.4350   16.8710  -33.3110 C   0  0  0  0  0  0  0  0  0  0  0  0
   -5.8630   17.4140  -34.4650 C   0  0  0  0  0  0  0  0  0  0  0  0
   -5.0010   18.5100  -34.3710 C   0  0  0  0  0  0  0  0  0  0  0  0
   -4.2590   24.4190  -30.2240 C   0  0  0  0  0  0  0  0  0  0  0  0
   -5.3670   25.3700  -30.5660 C   0  0  0  0  0  0  0  0  0  0  0  0
   -3.1230   24.9260  -29.6670 N   0  0  0  0  0  0  0  0  0  0  0  0
   -0.9762   24.7022  -27.5734 H   0  0  0  0  0  0  0  0  0  0  0  0
    0.0321   24.2092  -28.9758 H   0  0  0  0  0  0  0  0  0  0  0  0
   -0.7861   25.8083  -28.9758 H   0  0  0  0  0  0  0  0  0  0  0  0
   -1.2919   22.1193  -29.2307 H   0  0  0  0  0  0  0  0  0  0  0  0
   -3.3308   21.1235  -30.2685 H   0  0  0  0  0  0  0  0  0  0  0  0
   -9.3594   21.4684  -29.9449 H   0  0  0  0  0  0  0  0  0  0  0  0
  -10.5352   20.0540  -31.6693 H   0  0  0  0  0  0  0  0  0  0  0  0
   -9.3447   19.4013  -33.7802 H   0  0  0  0  0  0  0  0  0  0  0  0
   -6.9718   20.1761  -34.1559 H   0  0  0  0  0  0  0  0  0  0  0  0
   -4.2620   22.2840  -33.6940 H   0  0  0  0  0  0  0  0  0  0  0  0
   -3.0751   20.2735  -33.8148 H   0  0  0  0  0  0  0  0  0  0  0  0
   -3.3276   20.3008  -32.0350 H   0  0  0  0  0  0  0  0  0  0  0  0
   -5.0468   18.9450  -30.9750 H   0  0  0  0  0  0  0  0  0  0  0  0
   -6.5916   16.9932  -31.1523 H   0  0  0  0  0  0  0  0  0  0  0  0
   -7.1165   16.0109  -33.3873 H   0  0  0  0  0  0  0  0  0  0  0  0
   -6.0917   16.9780  -35.4487 H   0  0  0  0  0  0  0  0  0  0  0  0
   -4.5605   18.9404  -35.2824 H   0  0  0  0  0  0  0  0  0  0  0  0
   -5.8174   25.7566  -29.6399 H   0  0  0  0  0  0  0  0  0  0  0  0
   -4.9632   26.2070  -31.1545 H   0  0  0  0  0  0  0  0  0  0  0  0
   -6.1331   24.8440  -31.1545 H   0  0  0  0  0  0  0  0  0  0  0  0
  1  2  1  0
  2  3  2  0
  3  4  1  0
  4  5  2  0
  5  6  1  0
  6  7  1  0
  7  8  2  0
  8  9  1  0
  9 10  2  0
 10 11  1  0
 11 12  2  0
 12 13  1  0
 13 14  1  0
 14 15  1  0
 15 16  1  0
 16 17  1  0
 17 18  2  0
 18 19  1  0
 19 20  2  0
 20 21  1  0
 21 22  2  0
  5 23  1  0
 23 24  1  0
 23 25  2  0
 25  2  1  0
 14  6  2  0
 22 17  1  0
 13  8  1  0
  1 26  1  0
  1 27  1  0
  1 28  1  0
  3 29  1  0
  4 30  1  0
  9 31  1  0
 10 32  1  0
 11 33  1  0
 12 34  1  0
 15 35  1  0
 16 36  1  0
 16 37  1  0
 18 38  1  0
 19 39  1  0
 20 40  1  0
 21 41  1  0
 22 42  1  0
 24 43  1  0
 24 44  1  0
 24 45  1  0
M  END
>  <UniqueID>  (12) 
12

>  <SMILES>  (12) 
Cc1ccc(-c2nc3ccccn3c2NCc2ccccc2)c(C)n1

>  <Energy>  (12) 
88.62825744950264

>  <Genealogy>  (12) 
Cc1ccc(-c2nc3ccccn3c2NCc2ccccc2)c(C)n1 (3D coordinates assigned)
Cc1ccc(-c2nc3ccccn3c2NCc2ccccc2)c(C)n1 (optimized conformer: 88.62825744950264 kcal/mol)

>  <smiles>  (12) 
Cc1ccc(-c2nc3ccccn3c2NCc2ccccc2)c(C)n1

>  <score_type>  (12) 
oracle

>  <origin>  (12) 
adg

>  <m_score__min__energy>  (12) 
-8.8100000000000005

>  <m_primary>  (12) 
energy

$$$$
12:0
     RDKit          3D

 72 75  0  0  0  0  0  0  0  0999 V2000
    0.2910   14.0370  -36.4240 C   0  0  0  0  0  0  0  0  0  0  0  0
   -0.4610   12.7670  -36.0610 C   0  0  0  0  0  0  0  0  0  0  0  0
   -1.8510   13.0550  -35.9320 O   0  0  0  0  0  0  0  0  0  0  0  0
   -2.3660   14.2330  -35.3700 C   0  0  0  0  0  0  0  0  0  0  0  0
   -2.9650   15.1710  -36.2200 C   0  0  0  0  0  0  0  0  0  0  0  0
   -3.5060   16.3530  -35.7060 C   0  0  0  0  0  0  0  0  0  0  0  0
   -3.4580   16.6090  -34.3280 C   0  0  0  0  0  0  0  0  0  0  0  0
   -4.0510   17.8480  -33.7740 C   0  0  0  0  0  0  0  0  0  0  0  0
   -5.4100   17.8360  -33.4670 C   0  0  0  0  0  0  0  0  0  0  0  0
   -6.0280   18.9630  -32.9340 C   0  0  0  0  0  0  0  0  0  0  0  0
   -7.5010   18.9200  -32.5900 C   0  0  0  0  0  0  0  0  0  0  0  0
   -8.1930   20.1230  -33.0780 N   0  0  0  0  0  0  0  0  0  0  0  0
   -9.4730   20.3160  -32.3690 C   0  0  0  0  0  0  0  0  0  0  0  0
   -9.2870   21.1070  -31.0600 C   0  0  0  0  0  0  0  0  0  0  0  0
   -8.2330   22.1900  -31.1520 C   0  0  0  0  0  0  0  0  0  0  0  0
   -7.6220   22.6770  -29.9850 C   0  0  0  0  0  0  0  0  0  0  0  0
   -6.7080   23.7350  -30.0750 C   0  0  0  0  0  0  0  0  0  0  0  0
   -6.4170   24.2990  -31.3190 C   0  0  0  0  0  0  0  0  0  0  0  0
   -7.0450   23.7930  -32.4600 C   0  0  0  0  0  0  0  0  0  0  0  0
   -7.9330   22.7690  -32.3520 N   0  0  0  0  0  0  0  0  0  0  0  0
   -5.2550   20.1120  -32.6930 C   0  0  0  0  0  0  0  0  0  0  0  0
   -5.8140   21.1270  -32.1870 O   0  0  0  0  0  0  0  0  0  0  0  0
   -3.9110   20.1400  -33.0000 N   0  0  0  0  0  0  0  0  0  0  0  0
   -3.1640   21.3940  -32.7260 C   0  0  0  0  0  0  0  0  0  0  0  0
   -2.4140   21.3120  -31.3870 C   0  0  0  0  0  0  0  0  0  0  0  0
   -2.4100   22.6310  -30.7180 N   0  0  0  0  0  0  0  0  0  0  0  0
   -1.2760   22.7680  -29.7870 C   0  0  0  0  0  0  0  0  0  0  0  0
   -1.2420   24.2060  -29.2280 C   0  0  0  0  0  0  0  0  0  0  0  0
   -2.4450   24.9170  -29.4730 O   0  0  0  0  0  0  0  0  0  0  0  0
   -3.5600   24.1300  -29.1010 C   0  0  0  0  0  0  0  0  0  0  0  0
   -3.6760   22.8830  -29.9990 C   0  0  0  0  0  0  0  0  0  0  0  0
   -3.2990   19.0300  -33.5620 C   0  0  0  0  0  0  0  0  0  0  0  0
   -1.8180   19.0340  -33.9000 C   0  0  0  0  0  0  0  0  0  0  0  0
   -2.8400   15.6830  -33.4740 C   0  0  0  0  0  0  0  0  0  0  0  0
   -2.3040   14.4990  -33.9870 C   0  0  0  0  0  0  0  0  0  0  0  0
    0.5986   14.5565  -35.5045 H   0  0  0  0  0  0  0  0  0  0  0  0
    1.1821   13.7792  -37.0151 H   0  0  0  0  0  0  0  0  0  0  0  0
   -0.3635   14.6944  -37.0151 H   0  0  0  0  0  0  0  0  0  0  0  0
   -0.3145   12.0161  -36.8514 H   0  0  0  0  0  0  0  0  0  0  0  0
   -0.0787   12.3761  -35.1065 H   0  0  0  0  0  0  0  0  0  0  0  0
   -3.0102   14.9759  -37.3016 H   0  0  0  0  0  0  0  0  0  0  0  0
   -3.9705   17.0841  -36.3840 H   0  0  0  0  0  0  0  0  0  0  0  0
   -6.0007   16.9259  -33.6479 H   0  0  0  0  0  0  0  0  0  0  0  0
   -7.9530   18.0316  -33.0553 H   0  0  0  0  0  0  0  0  0  0  0  0
   -7.6036   18.8770  -31.4956 H   0  0  0  0  0  0  0  0  0  0  0  0
   -7.5910   20.9650  -32.9110 H   0  0  0  0  0  0  0  0  0  0  0  0
   -8.3530   20.0280  -34.1080 H   0  0  0  0  0  0  0  0  0  0  0  0
  -10.1633   20.8680  -33.0238 H   0  0  0  0  0  0  0  0  0  0  0  0
   -9.8770   19.3247  -32.1156 H   0  0  0  0  0  0  0  0  0  0  0  0
  -10.2465   21.5767  -30.7979 H   0  0  0  0  0  0  0  0  0  0  0  0
   -8.9493   20.3917  -30.2955 H   0  0  0  0  0  0  0  0  0  0  0  0
   -7.8592   22.2312  -29.0078 H   0  0  0  0  0  0  0  0  0  0  0  0
   -6.2205   24.1207  -29.1675 H   0  0  0  0  0  0  0  0  0  0  0  0
   -5.7023   25.1313  -31.3996 H   0  0  0  0  0  0  0  0  0  0  0  0
   -6.8207   24.2237  -33.4470 H   0  0  0  0  0  0  0  0  0  0  0  0
   -2.4376   21.5630  -33.5345 H   0  0  0  0  0  0  0  0  0  0  0  0
   -3.8839   22.2240  -32.6721 H   0  0  0  0  0  0  0  0  0  0  0  0
   -2.9116   20.5772  -30.7370 H   0  0  0  0  0  0  0  0  0  0  0  0
   -1.3751   21.0049  -31.5776 H   0  0  0  0  0  0  0  0  0  0  0  0
   -1.3937   22.0547  -28.9579 H   0  0  0  0  0  0  0  0  0  0  0  0
   -0.3364   22.5586  -30.3193 H   0  0  0  0  0  0  0  0  0  0  0  0
   -1.0769   24.1575  -28.1415 H   0  0  0  0  0  0  0  0  0  0  0  0
   -0.4290   24.7422  -29.7393 H   0  0  0  0  0  0  0  0  0  0  0  0
   -3.4429   23.8110  -28.0548 H   0  0  0  0  0  0  0  0  0  0  0  0
   -4.4718   24.7340  -29.2183 H   0  0  0  0  0  0  0  0  0  0  0  0
   -3.9150   22.0100  -29.3738 H   0  0  0  0  0  0  0  0  0  0  0  0
   -4.4717   23.0555  -30.7386 H   0  0  0  0  0  0  0  0  0  0  0  0
   -1.2298   19.0356  -32.9705 H   0  0  0  0  0  0  0  0  0  0  0  0
   -1.5735   18.1365  -34.4871 H   0  0  0  0  0  0  0  0  0  0  0  0
   -1.5783   19.9328  -34.4871 H   0  0  0  0  0  0  0  0  0  0  0  0
   -2.7772   15.8901  -32.3955 H   0  0  0  0  0  0  0  0  0  0  0  0
   -1.8321   13.7721  -33.3095 H   0  0  0  0  0  0  0  0  0  0  0  0
  1  2  1  0
  2  3  1  0
  3  4  1  0
  4  5  2  0
  5  6  1  0
  6  7  2  0
  7  8  1  0
  8  9  1  0
  9 10  2  0
 10 11  1  0
 11 12  1  0
 12 13  1  0
 13 14  1  0
 14 15  1  0
 15 16  2  0
 16 17  1  0
 17 18  2  0
 18 19  1  0
 19 20  2  0
 10 21  1  0
 21 22  2  0
 21 23  1  0
 23 24  1  0
 24 25  1  0
 25 26  1  0
 26 27  1  0
 27 28  1  0
 28 29  1  0
 29 30  1  0
 30 31  1  0
 23 32  1  0
 32 33  1  0
  7 34  1  0
 34 35  2  0
 35  4  1  0
 32  8  2  0
 20 15  1  0
 31 26  1  0
  1 36  1  0
  1 37  1  0
  1 38  1  0
  2 39  1  0
  2 40  1  0
  5 41  1  0
  6 42  1  0
  9 43  1  0
 11 44  1  0
 11 45  1  0
 12 46  1  0
 12 47  1  0
 13 48  1  0
 13 49  1  0
 14 50  1  0
 14 51  1  0
 16 52  1  0
 17 53  1  0
 18 54  1  0
 19 55  1  0
 24 56  1  0
 24 57  1  0
 25 58  1  0
 25 59  1  0
 27 60  1  0
 27 61  1  0
 28 62  1  0
 28 63  1  0
 30 64  1  0
 30 65  1  0
 31 66  1  0
 31 67  1  0
 33 68  1  0
 33 69  1  0
 33 70  1  0
 34 71  1  0
 35 72  1  0
M  CHG  1  12   1
M  END
>  <UniqueID>  (13) 
13

>  <SMILES>  (13) 
CCOc1ccc(-c2cc(C[NH2+]CCc3ccccn3)c(=O)n(CCN3CCOCC3)c2C)cc1

>  <Energy>  (13) 
94.97347179021567

>  <Genealogy>  (13) 
CCOc1ccc(-c2cc(C[NH2+]CCc3ccccn3)c(=O)n(CCN3CCOCC3)c2C)cc1 (protonated)
CCOc1ccc(-c2cc(C[NH2+]CCc3ccccn3)c(=O)n(CCN3CCOCC3)c2C)cc1 (3D coordinates assigned)
CCOc1ccc(-c2cc(C[NH2+]CCc3ccccn3)c(=O)n(CCN3CCOCC3)c2C)cc1 (nonaromatic ring conformer: 94.97347179021567 kcal/mol)

>  <smiles>  (13) 
CCOc1ccc(-c2cc(CNCCc3ccccn3)c(=O)n(CCN3CCOCC3)c2C)cc1

>  <score_type>  (13) 
oracle

>  <origin>  (13) 
adg

>  <m_score__min__energy>  (13) 
-9.3800000000000008

>  <m_primary>  (13) 
energy

$$$$
13:0
     RDKit          3D

 60 62  0  0  0  0  0  0  0  0999 V2000
   -2.7220   19.7330  -27.2210 C   0  0  0  0  0  0  0  0  0  0  0  0
   -1.7230   20.4800  -28.1010 C   0  0  0  0  0  0  0  0  0  0  0  0
   -2.1900   20.5190  -29.5690 C   0  0  0  0  0  0  0  0  0  0  0  0
   -1.9100   21.8320  -30.2130 N   0  0  0  0  0  0  0  0  0  0  0  0
   -1.6390   22.8680  -29.1770 C   0  0  0  0  0  0  0  0  0  0  0  0
   -2.8050   23.8660  -29.0150 C   0  0  0  0  0  0  0  0  0  0  0  0
   -3.7950   23.4300  -27.9320 C   0  0  0  0  0  0  0  0  0  0  0  0
   -3.0650   22.2430  -31.0580 C   0  0  0  0  0  0  0  0  0  0  0  0
   -3.0550   21.5700  -32.4430 C   0  0  0  0  0  0  0  0  0  0  0  0
   -4.3250   21.7690  -33.1450 N   0  0  0  0  0  0  0  0  0  0  0  0
   -5.4530   20.9380  -32.8320 C   0  0  0  0  0  0  0  0  0  0  0  0
   -5.4070   19.5720  -33.1600 C   0  0  0  0  0  0  0  0  0  0  0  0
   -4.2260   18.9960  -33.6810 C   0  0  0  0  0  0  0  0  0  0  0  0
   -4.1950   17.6590  -34.0660 C   0  0  0  0  0  0  0  0  0  0  0  0
   -5.3370   16.8770  -33.9520 C   0  0  0  0  0  0  0  0  0  0  0  0
   -6.5080   17.4180  -33.4240 C   0  0  0  0  0  0  0  0  0  0  0  0
   -6.5580   18.7660  -32.9800 C   0  0  0  0  0  0  0  0  0  0  0  0
   -7.6970   19.3030  -32.4130 N   0  0  0  0  0  0  0  0  0  0  0  0
   -8.7960   18.4090  -31.9780 C   0  0  0  0  0  0  0  0  0  0  0  0
   -7.7990   20.6680  -32.2120 C   0  0  0  0  0  0  0  0  0  0  0  0
   -9.0390   21.2730  -31.8990 C   0  0  0  0  0  0  0  0  0  0  0  0
   -9.1270   22.6310  -31.6190 C   0  0  0  0  0  0  0  0  0  0  0  0
   -7.9880   23.4220  -31.6250 C   0  0  0  0  0  0  0  0  0  0  0  0
   -6.7380   22.8760  -31.9650 C   0  0  0  0  0  0  0  0  0  0  0  0
   -5.5770   23.6680  -31.9090 O   0  0  0  0  0  0  0  0  0  0  0  0
   -5.3850   24.7710  -31.0290 C   0  0  0  0  0  0  0  0  0  0  0  0
   -6.6500   21.5030  -32.3370 C   0  0  0  0  0  0  0  0  0  0  0  0
   -2.4832   19.9116  -26.1622 H   0  0  0  0  0  0  0  0  0  0  0  0
   -3.7392   20.0939  -27.4334 H   0  0  0  0  0  0  0  0  0  0  0  0
   -2.6635   18.6553  -27.4334 H   0  0  0  0  0  0  0  0  0  0  0  0
   -1.6195   21.5105  -27.7304 H   0  0  0  0  0  0  0  0  0  0  0  0
   -0.7590   19.9521  -28.0572 H   0  0  0  0  0  0  0  0  0  0  0  0
   -1.6654   19.7307  -30.1288 H   0  0  0  0  0  0  0  0  0  0  0  0
   -3.2786   20.3617  -29.5816 H   0  0  0  0  0  0  0  0  0  0  0  0
   -1.0680   21.7280  -30.8260 H   0  0  0  0  0  0  0  0  0  0  0  0
   -1.4687   22.3660  -28.2132 H   0  0  0  0  0  0  0  0  0  0  0  0
   -0.7554   23.4382  -29.4998 H   0  0  0  0  0  0  0  0  0  0  0  0
   -2.3940   24.8496  -28.7436 H   0  0  0  0  0  0  0  0  0  0  0  0
   -3.3479   23.9080  -29.9708 H   0  0  0  0  0  0  0  0  0  0  0  0
   -3.3606   23.6213  -26.9397 H   0  0  0  0  0  0  0  0  0  0  0  0
   -4.7299   23.9997  -28.0390 H   0  0  0  0  0  0  0  0  0  0  0  0
   -4.0059   22.3557  -28.0390 H   0  0  0  0  0  0  0  0  0  0  0  0
   -3.9958   21.9688  -30.5398 H   0  0  0  0  0  0  0  0  0  0  0  0
   -2.9928   23.3293  -31.2151 H   0  0  0  0  0  0  0  0  0  0  0  0
   -2.2422   22.0025  -33.0449 H   0  0  0  0  0  0  0  0  0  0  0  0
   -2.9044   20.4896  -32.3010 H   0  0  0  0  0  0  0  0  0  0  0  0
   -4.4800   22.6080  -33.7500 H   0  0  0  0  0  0  0  0  0  0  0  0
   -3.3204   19.6120  -33.7834 H   0  0  0  0  0  0  0  0  0  0  0  0
   -3.2660   17.2216  -34.4606 H   0  0  0  0  0  0  0  0  0  0  0  0
   -5.3173   15.8271  -34.2795 H   0  0  0  0  0  0  0  0  0  0  0  0
   -7.4084   16.7904  -33.3500 H   0  0  0  0  0  0  0  0  0  0  0  0
   -8.8318   18.3799  -30.8790 H   0  0  0  0  0  0  0  0  0  0  0  0
   -9.7528   18.7885  -32.3661 H   0  0  0  0  0  0  0  0  0  0  0  0
   -8.6192   17.3950  -32.3661 H   0  0  0  0  0  0  0  0  0  0  0  0
   -9.9501   20.6570  -31.8769 H   0  0  0  0  0  0  0  0  0  0  0  0
  -10.1047   23.0808  -31.3915 H   0  0  0  0  0  0  0  0  0  0  0  0
   -8.0634   24.4872  -31.3611 H   0  0  0  0  0  0  0  0  0  0  0  0
   -5.4455   24.4236  -29.9870 H   0  0  0  0  0  0  0  0  0  0  0  0
   -4.3958   25.2167  -31.2101 H   0  0  0  0  0  0  0  0  0  0  0  0
   -6.1654   25.5247  -31.2101 H   0  0  0  0  0  0  0  0  0  0  0  0
  1  2  1  0
  2  3  1  0
  3  4  1  0
  4  5  1  0
  5  6  1  0
  6  7  1  0
  4  8  1  0
  8  9  1  0
  9 10  1  0
 10 11  1  0
 11 12  2  0
 12 13  1  0
 13 14  2  0
 14 15  1  0
 15 16  2  0
 16 17  1  0
 17 18  2  0
 18 19  1  0
 18 20  1  0
 20 21  2  0
 21 22  1  0
 22 23  2  0
 23 24  1  0
 24 25  1  0
 25 26  1  0
 24 27  2  0
 27 11  1  0
 17 12  1  0
 27 20  1  0
  1 28  1  0
  1 29  1  0
  1 30  1  0
  2 31  1  0
  2 32  1  0
  3 33  1  0
  3 34  1  0
  4 35  1  0
  5 36  1  0
  5 37  1  0
  6 38  1  0
  6 39  1  0
  7 40  1  0
  7 41  1  0
  7 42  1  0
  8 43  1  0
  8 44  1  0
  9 45  1  0
  9 46  1  0
 10 47  1  0
 13 48  1  0
 14 49  1  0
 15 50  1  0
 16 51  1  0
 19 52  1  0
 19 53  1  0
 19 54  1  0
 21 55  1  0
 22 56  1  0
 23 57  1  0
 26 58  1  0
 26 59  1  0
 26 60  1  0
M  CHG  2   4   1  18   1
M  END
>  <UniqueID>  (14) 
14

>  <SMILES>  (14) 
CCC[NH+](CCC)CCNc1c2ccccc2[n+](C)c2cccc(OC)c12

>  <Energy>  (14) 
86.72268408150998

>  <Genealogy>  (14) 
CCC[NH+](CCC)CCNc1c2ccccc2[n+](C)c2cccc(OC)c12 (protonated)
CCC[NH+](CCC)CCNc1c2ccccc2[n+](C)c2cccc(OC)c12 (3D coordinates assigned)
CCC[NH+](CCC)CCNc1c2ccccc2[n+](C)c2cccc(OC)c12 (optimized conformer: 86.72268408150998 kcal/mol)

>  <smiles>  (14) 
CCCN(CCC)CCNc1c2ccccc2[n+](C)c2cccc(OC)c12

>  <score_type>  (14) 
oracle

>  <origin>  (14) 
adg

>  <m_score__min__energy>  (14) 
-6.9699999999999998

>  <m_primary>  (14) 
energy

$$$$
14:0
     RDKit          3D

 58 60  0  0  0  0  0  0  0  0999 V2000
   -1.1050   20.2910  -30.3060 C   0  0  0  0  0  0  0  0  0  0  0  0
   -2.4070   20.9820  -29.9180 C   0  0  0  0  0  0  0  0  0  0  0  0
   -2.3860   22.3750  -30.3800 N   0  0  0  0  0  0  0  0  0  0  0  0
   -1.3680   23.1810  -29.6860 C   0  0  0  0  0  0  0  0  0  0  0  0
   -1.9610   24.4500  -29.0420 C   0  0  0  0  0  0  0  0  0  0  0  0
   -3.2350   24.1600  -28.2330 C   0  0  0  0  0  0  0  0  0  0  0  0
   -4.5130   24.2680  -29.0770 C   0  0  0  0  0  0  0  0  0  0  0  0
   -4.1880   24.7640  -30.4240 N   0  0  0  0  0  0  0  0  0  0  0  0
   -5.3910   25.0680  -31.2180 C   0  0  0  0  0  0  0  0  0  0  0  0
   -5.9050   23.8390  -31.9830 C   0  0  0  0  0  0  0  0  0  0  0  0
   -5.0360   22.6920  -31.7300 N   0  0  0  0  0  0  0  0  0  0  0  0
   -5.3140   21.4180  -32.3310 C   0  0  0  0  0  0  0  0  0  0  0  0
   -4.3030   20.7350  -33.0020 C   0  0  0  0  0  0  0  0  0  0  0  0
   -4.5200   19.4930  -33.5380 C   0  0  0  0  0  0  0  0  0  0  0  0
   -5.7390   18.8670  -33.4530 N   0  0  0  0  0  0  0  0  0  0  0  0
   -5.9270   17.5280  -34.0450 C   0  0  0  0  0  0  0  0  0  0  0  0
   -6.7840   19.5130  -32.8120 C   0  0  0  0  0  0  0  0  0  0  0  0
   -8.0650   18.9200  -32.6960 C   0  0  0  0  0  0  0  0  0  0  0  0
   -9.1150   19.5940  -32.0700 C   0  0  0  0  0  0  0  0  0  0  0  0
   -8.9220   20.8710  -31.5540 C   0  0  0  0  0  0  0  0  0  0  0  0
   -7.6730   21.4820  -31.6450 C   0  0  0  0  0  0  0  0  0  0  0  0
   -6.5880   20.8140  -32.2490 C   0  0  0  0  0  0  0  0  0  0  0  0
   -3.2810   18.9560  -34.1710 C   0  0  0  0  0  0  0  0  0  0  0  0
   -2.2140   20.0330  -33.9170 C   0  0  0  0  0  0  0  0  0  0  0  0
   -2.9050   21.1980  -33.1920 C   0  0  0  0  0  0  0  0  0  0  0  0
   -0.5586   20.0010  -29.3964 H   0  0  0  0  0  0  0  0  0  0  0  0
   -1.3294   19.3933  -30.9008 H   0  0  0  0  0  0  0  0  0  0  0  0
   -0.4873   20.9800  -30.9008 H   0  0  0  0  0  0  0  0  0  0  0  0
   -3.2531   20.4553  -30.3836 H   0  0  0  0  0  0  0  0  0  0  0  0
   -2.5166   20.9634  -28.8236 H   0  0  0  0  0  0  0  0  0  0  0  0
   -3.3300   22.8030  -30.2270 H   0  0  0  0  0  0  0  0  0  0  0  0
   -0.9083   22.5667  -28.8977 H   0  0  0  0  0  0  0  0  0  0  0  0
   -0.6262   23.4996  -30.4332 H   0  0  0  0  0  0  0  0  0  0  0  0
   -1.2088   24.8888  -28.3700 H   0  0  0  0  0  0  0  0  0  0  0  0
   -2.2311   25.1414  -29.8538 H   0  0  0  0  0  0  0  0  0  0  0  0
   -3.1681   23.1405  -27.8254 H   0  0  0  0  0  0  0  0  0  0  0  0
   -3.3000   24.9148  -27.4355 H   0  0  0  0  0  0  0  0  0  0  0  0
   -4.9809   23.2758  -29.1576 H   0  0  0  0  0  0  0  0  0  0  0  0
   -5.2069   24.9703  -28.5920 H   0  0  0  0  0  0  0  0  0  0  0  0
   -3.6100   24.0480  -30.9260 H   0  0  0  0  0  0  0  0  0  0  0  0
   -6.1829   25.4210  -30.5410 H   0  0  0  0  0  0  0  0  0  0  0  0
   -5.1236   25.8386  -31.9560 H   0  0  0  0  0  0  0  0  0  0  0  0
   -6.9260   23.6029  -31.6487 H   0  0  0  0  0  0  0  0  0  0  0  0
   -5.9063   24.0596  -33.0606 H   0  0  0  0  0  0  0  0  0  0  0  0
   -4.4880   22.6990  -30.8410 H   0  0  0  0  0  0  0  0  0  0  0  0
   -6.0315   16.7835  -33.2420 H   0  0  0  0  0  0  0  0  0  0  0  0
   -6.8342   17.5262  -34.6671 H   0  0  0  0  0  0  0  0  0  0  0  0
   -5.0554   17.2765  -34.6671 H   0  0  0  0  0  0  0  0  0  0  0  0
   -8.2350   17.9133  -33.1053 H   0  0  0  0  0  0  0  0  0  0  0  0
  -10.1003   19.1125  -31.9844 H   0  0  0  0  0  0  0  0  0  0  0  0
   -9.7577   21.4002  -31.0727 H   0  0  0  0  0  0  0  0  0  0  0  0
   -7.5320   22.4956  -31.2416 H   0  0  0  0  0  0  0  0  0  0  0  0
   -2.9890   18.0033  -33.7050 H   0  0  0  0  0  0  0  0  0  0  0  0
   -3.4172   18.7501  -35.2429 H   0  0  0  0  0  0  0  0  0  0  0  0
   -1.4082   19.6241  -33.2898 H   0  0  0  0  0  0  0  0  0  0  0  0
   -1.7696   20.3723  -34.8643 H   0  0  0  0  0  0  0  0  0  0  0  0
   -2.4241   21.3934  -32.2222 H   0  0  0  0  0  0  0  0  0  0  0  0
   -2.8475   22.1389  -33.7589 H   0  0  0  0  0  0  0  0  0  0  0  0
  1  2  1  0
  2  3  1  0
  3  4  1  0
  4  5  1  0
  5  6  1  0
  6  7  1  0
  7  8  1  0
  8  9  1  0
  9 10  1  0
 10 11  1  0
 11 12  1  0
 12 13  2  0
 13 14  1  0
 14 15  2  0
 15 16  1  0
 15 17  1  0
 17 18  2  0
 18 19  1  0
 19 20  2  0
 20 21  1  0
 21 22  2  0
 14 23  1  0
 23 24  1  0
 24 25  1  0
 22 12  1  0
 25 13  1  0
 22 17  1  0
  1 26  1  0
  1 27  1  0
  1 28  1  0
  2 29  1  0
  2 30  1  0
  3 31  1  0
  4 32  1  0
  4 33  1  0
  5 34  1  0
  5 35  1  0
  6 36  1  0
  6 37  1  0
  7 38  1  0
  7 39  1  0
  8 40  1  0
  9 41  1  0
  9 42  1  0
 10 43  1  0
 10 44  1  0
 11 45  1  0
 16 46  1  0
 16 47  1  0
 16 48  1  0
 18 49  1  0
 19 50  1  0
 20 51  1  0
 21 52  1  0
 23 53  1  0
 23 54  1  0
 24 55  1  0
 24 56  1  0
 25 57  1  0
 25 58  1  0
M  CHG  1  15   1
M  END
>  <UniqueID>  (15) 
15

>  <SMILES>  (15) 
CCNCCCCNCCNc1c2c([n+](C)c3ccccc13)CCC2

>  <Energy>  (15) 
71.81218015502795

>  <Genealogy>  (15) 
CCNCCCCNCCNc1c2c([n+](C)c3ccccc13)CCC2 (3D coordinates assigned)
CCNCCCCNCCNc1c2c([n+](C)c3ccccc13)CCC2 (nonaromatic ring conformer: 71.81218015502795 kcal/mol)

>  <smiles>  (15) 
CCNCCCCNCCNc1c2c([n+](C)c3ccccc13)CCC2

>  <score_type>  (15) 
oracle

>  <origin>  (15) 
adg

>  <m_score__min__energy>  (15) 
-8.7799999999999994

>  <m_primary>  (15) 
energy

$$$$
15:0
     RDKit          3D

 34 35  0  0  0  0  0  0  0  0999 V2000
   -6.9350   17.7530  -32.0380 C   0  0  0  0  0  0  0  0  0  0  0  0
   -8.0430   18.7490  -31.6720 C   0  0  0  0  0  0  0  0  0  0  0  0
   -8.3430   19.7140  -32.7660 N   0  0  0  0  0  0  0  0  0  0  0  0
   -7.1410   20.1220  -33.5240 C   0  0  0  0  0  0  0  0  0  0  0  0
   -6.2010   21.0310  -32.7040 C   0  0  0  0  0  0  0  0  0  0  0  0
   -6.9070   22.1130  -31.9310 N   0  0  0  0  0  0  0  0  0  0  0  0
   -6.8010   21.9230  -30.4610 C   0  0  0  0  0  0  0  0  0  0  0  0
   -6.8550   23.3020  -29.8090 C   0  0  0  0  0  0  0  0  0  0  0  0
   -6.5150   24.2830  -30.9170 C   0  0  0  0  0  0  0  0  0  0  0  0
   -6.2310   23.4170  -32.1370 C   0  0  0  0  0  0  0  0  0  0  0  0
   -8.3380   22.2330  -32.3430 C   0  0  0  0  0  0  0  0  0  0  0  0
   -9.1070   20.8920  -32.2640 C   0  0  0  0  0  0  0  0  0  0  0  0
   -6.4862   17.3496  -31.1183 H   0  0  0  0  0  0  0  0  0  0  0  0
   -7.3626   16.9297  -32.6290 H   0  0  0  0  0  0  0  0  0  0  0  0
   -6.1618   18.2656  -32.6290 H   0  0  0  0  0  0  0  0  0  0  0  0
   -8.9588   18.1852  -31.4411 H   0  0  0  0  0  0  0  0  0  0  0  0
   -7.6899   19.3308  -30.8078 H   0  0  0  0  0  0  0  0  0  0  0  0
   -8.9680   19.2160  -33.4440 H   0  0  0  0  0  0  0  0  0  0  0  0
   -6.5876   19.2184  -33.8195 H   0  0  0  0  0  0  0  0  0  0  0  0
   -7.4787   20.6961  -34.3994 H   0  0  0  0  0  0  0  0  0  0  0  0
   -5.6488   20.4018  -31.9905 H   0  0  0  0  0  0  0  0  0  0  0  0
   -5.5424   21.5368  -33.4254 H   0  0  0  0  0  0  0  0  0  0  0  0
   -7.6378   21.3059  -30.1018 H   0  0  0  0  0  0  0  0  0  0  0  0
   -5.8604   21.4130  -30.2056 H   0  0  0  0  0  0  0  0  0  0  0  0
   -7.8616   23.5018  -29.4131 H   0  0  0  0  0  0  0  0  0  0  0  0
   -6.1579   23.3826  -28.9619 H   0  0  0  0  0  0  0  0  0  0  0  0
   -7.3626   24.9570  -31.1102 H   0  0  0  0  0  0  0  0  0  0  0  0
   -5.6583   24.9213  -30.6551 H   0  0  0  0  0  0  0  0  0  0  0  0
   -6.6238   23.9039  -33.0418 H   0  0  0  0  0  0  0  0  0  0  0  0
   -5.1478   23.2738  -32.2643 H   0  0  0  0  0  0  0  0  0  0  0  0
   -8.8329   22.9598  -31.6820 H   0  0  0  0  0  0  0  0  0  0  0  0
   -8.3507   22.5570  -33.3941 H   0  0  0  0  0  0  0  0  0  0  0  0
   -9.3710   20.7081  -31.2121 H   0  0  0  0  0  0  0  0  0  0  0  0
   -9.9876   20.9960  -32.9149 H   0  0  0  0  0  0  0  0  0  0  0  0
  1  2  1  0
  2  3  1  0
  3  4  1  0
  4  5  1  0
  5  6  1  0
  6  7  1  0
  7  8  1  0
  8  9  1  0
  9 10  1  0
  6 11  1  0
 11 12  1  0
 12  3  1  0
 10  6  1  0
  1 13  1  0
  1 14  1  0
  1 15  1  0
  2 16  1  0
  2 17  1  0
  3 18  1  0
  4 19  1  0
  4 20  1  0
  5 21  1  0
  5 22  1  0
  7 23  1  0
  7 24  1  0
  8 25  1  0
  8 26  1  0
  9 27  1  0
  9 28  1  0
 10 29  1  0
 10 30  1  0
 11 31  1  0
 11 32  1  0
 12 33  1  0
 12 34  1  0
M  CHG  2   3   1   6   1
M  END
>  <UniqueID>  (16) 
16

>  <SMILES>  (16) 
CC[NH+]1CC[N+]2(CCCC2)CC1

>  <Energy>  (16) 
56.79366952621243

>  <Genealogy>  (16) 
CC[NH+]1CC[N+]2(CCCC2)CC1 (protonated)
CC[NH+]1CC[N+]2(CCCC2)CC1 (3D coordinates assigned)
CC[NH+]1CC[N+]2(CCCC2)CC1 (nonaromatic ring conformer: 56.79366952621243 kcal/mol)

>  <smiles>  (16) 
CC[N+]1CC[N+]2(CCCC2)CC1

>  <score_type>  (16) 
oracle

>  <origin>  (16) 
adg

>  <m_score__min__energy>  (16) 
-4.0099999999999998

>  <m_primary>  (16) 
energy

$$$$
16:0
     RDKit          3D

 43 44  0  0  0  0  0  0  0  0999 V2000
   -6.1290   17.4410  -31.4160 C   0  0  0  0  0  0  0  0  0  0  0  0
   -6.1900   17.0230  -32.8930 C   0  0  0  0  0  0  0  0  0  0  0  0
   -5.1650   17.6660  -33.7540 N   0  0  2  0  0  0  0  0  0  0  0  0
   -5.7650   18.2550  -34.9680 C   0  0  0  0  0  0  0  0  0  0  0  0
   -4.0540   16.7360  -34.0790 C   0  0  0  0  0  0  0  0  0  0  0  0
   -2.7260   17.1570  -33.4260 C   0  0  0  0  0  0  0  0  0  0  0  0
   -2.8940   18.3730  -32.7200 O   0  0  0  0  0  0  0  0  0  0  0  0
   -2.1690   19.4280  -33.3240 C   0  0  0  0  0  0  0  0  0  0  0  0
   -3.1220   20.5440  -33.7600 C   0  0  0  0  0  0  0  0  0  0  0  0
   -4.3800   20.4220  -33.0950 O   0  0  0  0  0  0  0  0  0  0  0  0
   -5.0680   21.4610  -32.4420 C   0  0  0  0  0  0  0  0  0  0  0  0
   -4.4140   22.6010  -31.9440 C   0  0  0  0  0  0  0  0  0  0  0  0
   -5.1590   23.5980  -31.3090 C   0  0  0  0  0  0  0  0  0  0  0  0
   -4.5830   24.6220  -30.8590 O   0  0  0  0  0  0  0  0  0  0  0  0
   -6.4750   23.4750  -31.1750 O   0  0  0  0  0  0  0  0  0  0  0  0
   -7.1440   22.4200  -31.6290 C   0  0  0  0  0  0  0  0  0  0  0  0
   -8.5310   22.3520  -31.4550 C   0  0  0  0  0  0  0  0  0  0  0  0
   -9.2450   21.2480  -31.9280 C   0  0  0  0  0  0  0  0  0  0  0  0
   -8.5770   20.2050  -32.5760 C   0  0  0  0  0  0  0  0  0  0  0  0
   -7.1910   20.2600  -32.7560 C   0  0  0  0  0  0  0  0  0  0  0  0
   -6.4620   21.3670  -32.2840 C   0  0  0  0  0  0  0  0  0  0  0  0
   -6.2584   16.5541  -30.7783 H   0  0  0  0  0  0  0  0  0  0  0  0
   -5.1537   17.9044  -31.2061 H   0  0  0  0  0  0  0  0  0  0  0  0
   -6.9312   18.1638  -31.2061 H   0  0  0  0  0  0  0  0  0  0  0  0
   -6.0517   15.9331  -32.9484 H   0  0  0  0  0  0  0  0  0  0  0  0
   -7.1694   17.3500  -33.2722 H   0  0  0  0  0  0  0  0  0  0  0  0
   -4.7740   18.4570  -33.1880 H   0  0  0  0  0  0  0  0  0  0  0  0
   -6.5224   18.9985  -34.6790 H   0  0  0  0  0  0  0  0  0  0  0  0
   -4.9806   18.7435  -35.5647 H   0  0  0  0  0  0  0  0  0  0  0  0
   -6.2390   17.4617  -35.5647 H   0  0  0  0  0  0  0  0  0  0  0  0
   -4.3197   15.7300  -33.7221 H   0  0  0  0  0  0  0  0  0  0  0  0
   -3.9113   16.7525  -35.1696 H   0  0  0  0  0  0  0  0  0  0  0  0
   -2.3997   16.3728  -32.7271 H   0  0  0  0  0  0  0  0  0  0  0  0
   -1.9682   17.2984  -34.2107 H   0  0  0  0  0  0  0  0  0  0  0  0
   -1.4443   19.8310  -32.6012 H   0  0  0  0  0  0  0  0  0  0  0  0
   -1.6422   19.0405  -34.2085 H   0  0  0  0  0  0  0  0  0  0  0  0
   -2.6752   21.5180  -33.5115 H   0  0  0  0  0  0  0  0  0  0  0  0
   -3.2863   20.4651  -34.8448 H   0  0  0  0  0  0  0  0  0  0  0  0
   -3.3246   22.7074  -32.0532 H   0  0  0  0  0  0  0  0  0  0  0  0
   -9.0605   23.1699  -30.9445 H   0  0  0  0  0  0  0  0  0  0  0  0
  -10.3352   21.1995  -31.7901 H   0  0  0  0  0  0  0  0  0  0  0  0
   -9.1435   19.3376  -32.9458 H   0  0  0  0  0  0  0  0  0  0  0  0
   -6.6703   19.4368  -33.2672 H   0  0  0  0  0  0  0  0  0  0  0  0
  1  2  1  0
  2  3  1  0
  3  4  1  0
  3  5  1  0
  5  6  1  0
  6  7  1  0
  7  8  1  0
  8  9  1  0
  9 10  1  0
 10 11  1  0
 11 12  2  0
 12 13  1  0
 13 14  2  0
 13 15  1  0
 15 16  1  0
 16 17  2  0
 17 18  1  0
 18 19  2  0
 19 20  1  0
 20 21  2  0
 21 11  1  0
 21 16  1  0
  1 22  1  0
  1 23  1  0
  1 24  1  0
  2 25  1  0
  2 26  1  0
  3 27  1  1
  4 28  1  0
  4 29  1  0
  4 30  1  0
  5 31  1  0
  5 32  1  0
  6 33  1  0
  6 34  1  0
  8 35  1  0
  8 36  1  0
  9 37  1  0
  9 38  1  0
 12 39  1  0
 17 40  1  0
 18 41  1  0
 19 42  1  0
 20 43  1  0
M  CHG  1   3   1
M  END
>  <UniqueID>  (17) 
17

>  <SMILES>  (17) 
CC[N@H+](C)CCOCCOc1cc(=O)oc2ccccc12

>  <Energy>  (17) 
50.687262141512626

>  <Genealogy>  (17) 
CC[NH+](C)CCOCCOc1cc(=O)oc2ccccc12 (protonated)
CC[N@H+](C)CCOCCOc1cc(=O)oc2ccccc12 (chirality)
CC[N@H+](C)CCOCCOc1cc(=O)oc2ccccc12 (3D coordinates assigned)
CC[N@H+](C)CCOCCOc1cc(=O)oc2ccccc12 (optimized conformer: 50.687262141512626 kcal/mol)

>  <smiles>  (17) 
CCN(C)CCOCCOc1cc(=O)oc2ccccc12

>  <score_type>  (17) 
oracle

>  <origin>  (17) 
adg

>  <m_score__min__energy>  (17) 
-5.7300000000000004

>  <m_primary>  (17) 
energy

$$$$
17:0
     RDKit          3D

 69 72  0  0  0  0  0  0  0  0999 V2000
   -1.4869   18.9295  -35.6218 H   0  0  0  0  0  0  0  0  0  0  0  0
   -1.3400   18.8030  -34.5390 C   0  0  0  0  0  0  0  0  0  0  0  0
   -2.3990   19.0460  -33.7430 C   0  0  0  0  0  0  0  0  0  0  0  0
   -3.1990   17.9690  -33.2630 N   0  0  0  0  0  0  0  0  0  0  0  0
   -3.0750   16.9630  -33.5190 H   0  0  0  0  0  0  0  0  0  0  0  0
   -4.3930   18.6020  -32.8200 C   0  0  0  0  0  0  0  0  0  0  0  0
   -4.3060   19.9720  -32.9560 C   0  0  0  0  0  0  0  0  0  0  0  0
   -5.4460   20.7820  -32.7330 C   0  0  0  0  0  0  0  0  0  0  0  0
   -5.3830   22.2270  -32.8360 N   0  0  0  0  0  0  0  0  0  0  0  0
   -6.1850   22.5950  -33.3780 H   0  0  0  0  0  0  0  0  0  0  0  0
   -4.5700   22.5200  -33.4190 H   0  0  0  0  0  0  0  0  0  0  0  0
   -5.3130   22.8380  -31.4990 C   0  0  0  0  0  0  0  0  0  0  0  0
   -6.0108   23.6874  -31.4575 H   0  0  0  0  0  0  0  0  0  0  0  0
   -5.5818   22.0727  -30.7560 H   0  0  0  0  0  0  0  0  0  0  0  0
   -3.9000   23.3390  -31.1820 C   0  0  0  0  0  0  0  0  0  0  0  0
   -3.3863   22.6016  -30.5477 H   0  0  0  0  0  0  0  0  0  0  0  0
   -3.3462   23.4738  -32.1228 H   0  0  0  0  0  0  0  0  0  0  0  0
   -3.9680   24.6380  -30.4680 N   0  0  0  0  0  0  0  0  0  0  0  0
   -5.2440   25.3470  -30.7180 C   0  0  0  0  0  0  0  0  0  0  0  0
   -5.0216   26.3737  -31.0443 H   0  0  0  0  0  0  0  0  0  0  0  0
   -5.7939   24.7930  -31.4930 H   0  0  0  0  0  0  0  0  0  0  0  0
   -6.1230   25.4060  -29.4660 C   0  0  0  0  0  0  0  0  0  0  0  0
   -5.4873   25.3633  -28.5693 H   0  0  0  0  0  0  0  0  0  0  0  0
   -6.6965   26.3447  -29.4645 H   0  0  0  0  0  0  0  0  0  0  0  0
   -6.8168   24.5524  -29.4645 H   0  0  0  0  0  0  0  0  0  0  0  0
   -3.5790   24.5300  -29.0390 C   0  0  0  0  0  0  0  0  0  0  0  0
   -4.2352   25.1885  -28.4510 H   0  0  0  0  0  0  0  0  0  0  0  0
   -3.6823   23.4711  -28.7597 H   0  0  0  0  0  0  0  0  0  0  0  0
   -2.1220   24.9240  -28.7580 C   0  0  0  0  0  0  0  0  0  0  0  0
   -1.9573   24.9685  -27.6713 H   0  0  0  0  0  0  0  0  0  0  0  0
   -1.4480   24.1759  -29.2007 H   0  0  0  0  0  0  0  0  0  0  0  0
   -1.9169   25.9099  -29.2007 H   0  0  0  0  0  0  0  0  0  0  0  0
   -6.6820   20.1120  -32.4660 C   0  0  0  0  0  0  0  0  0  0  0  0
   -7.9140   20.8120  -32.4030 C   0  0  0  0  0  0  0  0  0  0  0  0
   -7.9270   21.8986  -32.5738 H   0  0  0  0  0  0  0  0  0  0  0  0
   -9.1070   20.1490  -32.1290 C   0  0  0  0  0  0  0  0  0  0  0  0
  -10.0484   20.7153  -32.0733 H   0  0  0  0  0  0  0  0  0  0  0  0
   -9.1130   18.7770  -31.9260 C   0  0  0  0  0  0  0  0  0  0  0  0
  -10.0566   18.2620  -31.6929 H   0  0  0  0  0  0  0  0  0  0  0  0
   -7.9300   18.0490  -32.0160 C   0  0  0  0  0  0  0  0  0  0  0  0
   -7.9550   16.9585  -31.8742 H   0  0  0  0  0  0  0  0  0  0  0  0
   -6.6940   18.6870  -32.2870 C   0  0  0  0  0  0  0  0  0  0  0  0
   -5.5270   17.9570  -32.4140 N   0  0  0  0  0  0  0  0  0  0  0  0
   -5.4910   16.5020  -32.1640 C   0  0  0  0  0  0  0  0  0  0  0  0
   -5.4864   16.3163  -31.0798 H   0  0  0  0  0  0  0  0  0  0  0  0
   -6.3778   16.0308  -32.6130 H   0  0  0  0  0  0  0  0  0  0  0  0
   -4.5820   16.0752  -32.6130 H   0  0  0  0  0  0  0  0  0  0  0  0
   -3.0030   20.3330  -33.4810 N   0  0  0  0  0  0  0  0  0  0  0  0
   -2.2270   21.5270  -33.0960 C   0  0  0  0  0  0  0  0  0  0  0  0
   -1.8793   22.0336  -34.0084 H   0  0  0  0  0  0  0  0  0  0  0  0
   -2.8829   22.1807  -32.5023 H   0  0  0  0  0  0  0  0  0  0  0  0
   -1.0070   21.1690  -32.2320 C   0  0  0  0  0  0  0  0  0  0  0  0
   -0.6772   20.1500  -32.4828 H   0  0  0  0  0  0  0  0  0  0  0  0
   -0.2100   21.8985  -32.4384 H   0  0  0  0  0  0  0  0  0  0  0  0
   -1.3380   21.2300  -30.7630 C   0  0  0  0  0  0  0  0  0  0  0  0
   -0.4780   21.8970  -29.8720 C   0  0  0  0  0  0  0  0  0  0  0  0
    0.4217   22.4026  -30.2527 H   0  0  0  0  0  0  0  0  0  0  0  0
   -0.7640   21.9190  -28.5030 C   0  0  0  0  0  0  0  0  0  0  0  0
   -0.0952   22.4520  -27.8112 H   0  0  0  0  0  0  0  0  0  0  0  0
   -1.8980   21.2650  -28.0120 C   0  0  0  0  0  0  0  0  0  0  0  0
   -2.1184   21.2816  -26.9344 H   0  0  0  0  0  0  0  0  0  0  0  0
   -2.7520   20.5900  -28.8890 C   0  0  0  0  0  0  0  0  0  0  0  0
   -3.6417   20.0727  -28.5006 H   0  0  0  0  0  0  0  0  0  0  0  0
   -2.4760   20.5720  -30.2600 C   0  0  0  0  0  0  0  0  0  0  0  0
   -3.1509   20.0415  -30.9478 H   0  0  0  0  0  0  0  0  0  0  0  0
    0.0190   18.3760  -34.0800 C   0  0  0  0  0  0  0  0  0  0  0  0
    0.0485   18.3667  -32.9804 H   0  0  0  0  0  0  0  0  0  0  0  0
    0.2344   17.3669  -34.4611 H   0  0  0  0  0  0  0  0  0  0  0  0
    0.7729   19.0806  -34.4611 H   0  0  0  0  0  0  0  0  0  0  0  0
  1  2  1  0
  2  3  2  0
  3  4  1  0
  4  5  1  0
  4  6  1  0
  6  7  2  0
  7  8  1  0
  8  9  1  0
  9 10  1  0
  9 11  1  0
  9 12  1  0
 12 13  1  0
 12 14  1  0
 12 15  1  0
 15 16  1  0
 15 17  1  0
 15 18  1  0
 18 19  1  0
 19 20  1  0
 19 21  1  0
 19 22  1  0
 22 23  1  0
 22 24  1  0
 22 25  1  0
 18 26  1  0
 26 27  1  0
 26 28  1  0
 26 29  1  0
 29 30  1  0
 29 31  1  0
 29 32  1  0
  8 33  2  0
 33 34  1  0
 34 35  1  0
 34 36  2  0
 36 37  1  0
 36 38  1  0
 38 39  1  0
 38 40  2  0
 40 41  1  0
 40 42  1  0
 42 43  2  0
 43 44  1  0
 44 45  1  0
 44 46  1  0
 44 47  1  0
  7 48  1  0
 48 49  1  0
 49 50  1  0
 49 51  1  0
 49 52  1  0
 52 53  1  0
 52 54  1  0
 52 55  1  0
 55 56  2  0
 56 57  1  0
 56 58  1  0
 58 59  1  0
 58 60  2  0
 60 61  1  0
 60 62  1  0
 62 63  1  0
 62 64  2  0
 64 65  1  0
  2 66  1  0
 66 67  1  0
 66 68  1  0
 66 69  1  0
 48  3  1  0
 64 55  1  0
 43  6  1  0
 42 33  1  0
M  CHG  2   9   1  43   1
M  END
>  <UniqueID>  (18) 
18

>  <SMILES>  (18) 
C/C=C1/Nc2c(c([NH2+]CCN(CC)CC)c3ccccc3[n+]2C)N1CCc1ccccc1

>  <Energy>  (18) 
123.61041868341094

>  <Genealogy>  (18) 
CC=C1Nc2c(c([NH2+]CCN(CC)CC)c3ccccc3[n+]2C)N1CCc1ccccc1 (protonated)
C/C=C1/Nc2c(c([NH2+]CCN(CC)CC)c3ccccc3[n+]2C)N1CCc1ccccc1 (cis-trans isomerization)
C/C=C1/Nc2c(c([NH2+]CCN(CC)CC)c3ccccc3[n+]2C)N1CCc1ccccc1 (3D coordinates assigned)
C/C=C1/Nc2c(c([NH2+]CCN(CC)CC)c3ccccc3[n+]2C)N1CCc1ccccc1 (nonaromatic ring conformer: 123.61041868341094 kcal/mol)

>  <smiles>  (18) 
CC=C1Nc2c(c(NCCN(CC)CC)c3ccccc3[n+]2C)N1CCc1ccccc1

>  <score_type>  (18) 
oracle

>  <origin>  (18) 
adg

>  <m_score__min__energy>  (18) 
-8.1300000000000008

>  <m_primary>  (18) 
energy

$$$$
18:0
     RDKit          3D

 71 75  0  0  0  0  0  0  0  0999 V2000
    0.6870   17.0800  -31.2720 C   0  0  0  0  0  0  0  0  0  0  0  0
    0.6790   15.9960  -32.3500 C   0  0  0  0  0  0  0  0  0  0  0  0
    1.9710   15.9110  -33.0810 N   0  0  0  0  0  0  0  0  0  0  0  0
    2.1340   14.6150  -33.8030 C   0  0  0  0  0  0  0  0  0  0  0  0
    0.8910   14.2280  -34.6150 C   0  0  0  0  0  0  0  0  0  0  0  0
    3.1340   16.2350  -32.2050 C   0  0  0  0  0  0  0  0  0  0  0  0
    4.2290   17.1680  -32.8010 C   0  0  0  0  0  0  0  0  0  0  0  0
    3.7730   18.6030  -33.1090 C   0  0  0  0  0  0  0  0  0  0  0  0
    2.8170   18.6060  -34.1680 O   0  0  0  0  0  0  0  0  0  0  0  0
    1.4790   19.0190  -34.0850 C   0  0  0  0  0  0  0  0  0  0  0  0
    1.0780   20.1300  -33.3200 C   0  0  0  0  0  0  0  0  0  0  0  0
   -0.2810   20.4190  -33.1550 C   0  0  0  0  0  0  0  0  0  0  0  0
   -0.7010   21.4420  -32.2810 C   0  0  0  0  0  0  0  0  0  0  0  0
   -2.0670   21.6280  -32.1020 C   0  0  0  0  0  0  0  0  0  0  0  0
   -2.9710   20.8490  -32.7810 C   0  0  0  0  0  0  0  0  0  0  0  0
   -2.5920   19.8550  -33.6200 N   0  0  0  0  0  0  0  0  0  0  0  0
   -1.2580   19.6310  -33.8290 C   0  0  0  0  0  0  0  0  0  0  0  0
   -0.8490   18.5910  -34.6690 C   0  0  0  0  0  0  0  0  0  0  0  0
    0.5190   18.2800  -34.7990 C   0  0  0  0  0  0  0  0  0  0  0  0
    0.9660   17.2180  -35.6020 O   0  0  0  0  0  0  0  0  0  0  0  0
    1.0420   17.2510  -37.0220 C   0  0  0  0  0  0  0  0  0  0  0  0
   -4.2850   21.1660  -32.2810 C   0  0  0  0  0  0  0  0  0  0  0  0
   -5.5010   20.5650  -32.5890 C   0  0  0  0  0  0  0  0  0  0  0  0
   -6.6550   20.9760  -31.8850 C   0  0  0  0  0  0  0  0  0  0  0  0
   -6.5350   21.9830  -30.8900 C   0  0  0  0  0  0  0  0  0  0  0  0
   -5.2670   22.5370  -30.6110 C   0  0  0  0  0  0  0  0  0  0  0  0
   -5.1270   23.4030  -29.7020 O   0  0  0  0  0  0  0  0  0  0  0  0
   -4.1880   22.1150  -31.3240 N   0  0  0  0  0  0  0  0  0  0  0  0
   -2.7890   22.5210  -31.1380 C   0  0  0  0  0  0  0  0  0  0  0  0
   -7.7480   22.3720  -30.0830 C   0  0  0  0  0  0  0  0  0  0  0  0
   -8.9290   22.2940  -30.8780 O   0  0  0  0  0  0  0  0  0  0  0  0
   -9.1230   21.2760  -31.8170 C   0  0  0  0  0  0  0  0  0  0  0  0
  -10.2530   21.1460  -32.3530 O   0  0  0  0  0  0  0  0  0  0  0  0
   -8.0040   20.3030  -32.1410 C   0  0  1  0  0  0  0  0  0  0  0  0
   -8.0880   19.9600  -33.5090 O   0  0  0  0  0  0  0  0  0  0  0  0
   -8.1600   19.0510  -31.2300 C   0  0  0  0  0  0  0  0  0  0  0  0
   -7.2480   17.8810  -31.6170 C   0  0  0  0  0  0  0  0  0  0  0  0
    0.6835   16.6087  -30.2781 H   0  0  0  0  0  0  0  0  0  0  0  0
    1.5897   17.6990  -31.3811 H   0  0  0  0  0  0  0  0  0  0  0  0
   -0.2065   17.7123  -31.3811 H   0  0  0  0  0  0  0  0  0  0  0  0
    0.4791   15.0253  -31.8728 H   0  0  0  0  0  0  0  0  0  0  0  0
   -0.1018   16.2560  -33.0799 H   0  0  0  0  0  0  0  0  0  0  0  0
    1.9620   16.6860  -33.7870 H   0  0  0  0  0  0  0  0  0  0  0  0
    2.9898   14.6997  -34.4888 H   0  0  0  0  0  0  0  0  0  0  0  0
    2.2937   13.8319  -33.0472 H   0  0  0  0  0  0  0  0  0  0  0  0
    0.0699   13.9724  -33.9291 H   0  0  0  0  0  0  0  0  0  0  0  0
    0.5890   15.0746  -35.2490 H   0  0  0  0  0  0  0  0  0  0  0  0
    1.1230   13.3596  -35.2490 H   0  0  0  0  0  0  0  0  0  0  0  0
    2.7420   16.7199  -31.2988 H   0  0  0  0  0  0  0  0  0  0  0  0
    3.6399   15.2733  -32.0341 H   0  0  0  0  0  0  0  0  0  0  0  0
    5.0582   17.2223  -32.0803 H   0  0  0  0  0  0  0  0  0  0  0  0
    4.5128   16.7252  -33.7671 H   0  0  0  0  0  0  0  0  0  0  0  0
    3.3169   19.0393  -32.2081 H   0  0  0  0  0  0  0  0  0  0  0  0
    4.6469   19.1962  -33.4163 H   0  0  0  0  0  0  0  0  0  0  0  0
    1.8360   20.7738  -32.8499 H   0  0  0  0  0  0  0  0  0  0  0  0
    0.0303   22.0743  -31.7562 H   0  0  0  0  0  0  0  0  0  0  0  0
   -1.5980   18.0134  -35.2305 H   0  0  0  0  0  0  0  0  0  0  0  0
    2.0113   17.6719  -37.3276 H   0  0  0  0  0  0  0  0  0  0  0  0
    0.9445   16.2295  -37.4183 H   0  0  0  0  0  0  0  0  0  0  0  0
    0.2290   17.8772  -37.4183 H   0  0  0  0  0  0  0  0  0  0  0  0
   -5.5629   19.7867  -33.3638 H   0  0  0  0  0  0  0  0  0  0  0  0
   -2.6446   23.5814  -31.3924 H   0  0  0  0  0  0  0  0  0  0  0  0
   -2.4367   22.4257  -30.1003 H   0  0  0  0  0  0  0  0  0  0  0  0
   -7.8446   21.6903  -29.2251 H   0  0  0  0  0  0  0  0  0  0  0  0
   -7.6238   23.4082  -29.7353 H   0  0  0  0  0  0  0  0  0  0  0  0
   -9.0360   20.0460  -33.8010 H   0  0  0  0  0  0  0  0  0  0  0  0
   -7.9264   19.3443  -30.1959 H   0  0  0  0  0  0  0  0  0  0  0  0
   -9.1957   18.6994  -31.3467 H   0  0  0  0  0  0  0  0  0  0  0  0
   -6.8689   17.3947  -30.7061 H   0  0  0  0  0  0  0  0  0  0  0  0
   -7.8187   17.1523  -32.2113 H   0  0  0  0  0  0  0  0  0  0  0  0
   -6.4020   18.2566  -32.2113 H   0  0  0  0  0  0  0  0  0  0  0  0
  1  2  1  0
  2  3  1  0
  3  4  1  0
  4  5  1  0
  3  6  1  0
  6  7  1  0
  7  8  1  0
  8  9  1  0
  9 10  1  0
 10 11  2  0
 11 12  1  0
 12 13  2  0
 13 14  1  0
 14 15  2  0
 15 16  1  0
 16 17  2  0
 17 18  1  0
 18 19  2  0
 19 20  1  0
 20 21  1  0
 15 22  1  0
 22 23  2  0
 23 24  1  0
 24 25  2  0
 25 26  1  0
 26 27  2  0
 26 28  1  0
 28 29  1  0
 25 30  1  0
 30 31  1  0
 31 32  1  0
 32 33  2  0
 32 34  1  0
 34 35  1  6
 34 36  1  0
 36 37  1  0
 19 10  1  0
 28 22  1  0
 17 12  1  0
 34 24  1  0
 29 14  1  0
  1 38  1  0
  1 39  1  0
  1 40  1  0
  2 41  1  0
  2 42  1  0
  3 43  1  0
  4 44  1  0
  4 45  1  0
  5 46  1  0
  5 47  1  0
  5 48  1  0
  6 49  1  0
  6 50  1  0
  7 51  1  0
  7 52  1  0
  8 53  1  0
  8 54  1  0
 11 55  1  0
 13 56  1  0
 18 57  1  0
 21 58  1  0
 21 59  1  0
 21 60  1  0
 23 61  1  0
 29 62  1  0
 29 63  1  0
 30 64  1  0
 30 65  1  0
 35 66  1  0
 36 67  1  0
 36 68  1  0
 37 69  1  0
 37 70  1  0
 37 71  1  0
M  CHG  1   3   1
M  END
>  <UniqueID>  (19) 
19

>  <SMILES>  (19) 
CC[NH+](CC)CCCOc1cc2cc3c(nc2cc1OC)-c1cc2c(c(=O)n1C3)COC(=O)[C@]2(O)CC

>  <Energy>  (19) 
120.02140080886026

>  <Genealogy>  (19) 
CC[NH+](CC)CCCOc1cc2cc3c(nc2cc1OC)-c1cc2c(c(=O)n1C3)COC(=O)C2(O)CC (protonated)
CC[NH+](CC)CCCOc1cc2cc3c(nc2cc1OC)-c1cc2c(c(=O)n1C3)COC(=O)[C@]2(O)CC (chirality)
CC[NH+](CC)CCCOc1cc2cc3c(nc2cc1OC)-c1cc2c(c(=O)n1C3)COC(=O)[C@]2(O)CC (3D coordinates assigned)
CC[NH+](CC)CCCOc1cc2cc3c(nc2cc1OC)-c1cc2c(c(=O)n1C3)COC(=O)[C@]2(O)CC (nonaromatic ring conformer: 120.02140080886026 kcal/mol)

>  <smiles>  (19) 
CCN(CC)CCCOc1cc2cc3c(nc2cc1OC)-c1cc2c(c(=O)n1C3)COC(=O)C2(O)CC

>  <score_type>  (19) 
oracle

>  <origin>  (19) 
adg

>  <m_score__min__energy>  (19) 
-8.2100000000000009

>  <m_primary>  (19) 
energy

$$$$
