0:0
     RDKit          3D

 34 36  0  0  0  0  0  0  0  0999 V2000
   -5.7410   26.0610  -30.1150 C   0  0  0  0  0  0  0  0  0  0  0  0
   -4.9050   24.8190  -30.2150 C   0  0  0  0  0  0  0  0  0  0  0  0
   -3.6220   24.8560  -29.7600 N   0  0  0  0  0  0  0  0  0  0  0  0
   -2.8120   23.7690  -29.8230 C   0  0  0  0  0  0  0  0  0  0  0  0
   -1.4960   23.8300  -29.3490 C   0  0  0  0  0  0  0  0  0  0  0  0
   -0.6750   22.6990  -29.4290 C   0  0  0  0  0  0  0  0  0  0  0  0
   -1.1670   21.5110  -29.9820 C   0  0  0  0  0  0  0  0  0  0  0  0
   -2.4820   21.4450  -30.4560 C   0  0  0  0  0  0  0  0  0  0  0  0
   -3.3060   22.5740  -30.3760 C   0  0  0  0  0  0  0  0  0  0  0  0
   -4.5850   22.5300  -30.8260 N   0  0  0  0  0  0  0  0  0  0  0  0
   -5.4120   23.6100  -30.7460 C   0  0  0  0  0  0  0  0  0  0  0  0
   -6.8170   23.4980  -31.2880 C   0  0  0  0  0  0  0  0  0  0  0  0
   -6.8320   22.7850  -32.5670 N   0  0  0  0  0  0  0  0  0  0  0  0
   -6.8270   21.3480  -32.6940 C   0  0  0  0  0  0  0  0  0  0  0  0
   -5.6560   20.7030  -33.1230 C   0  0  0  0  0  0  0  0  0  0  0  0
   -5.6160   19.3100  -33.2490 C   0  0  0  0  0  0  0  0  0  0  0  0
   -6.7470   18.5480  -32.9480 C   0  0  0  0  0  0  0  0  0  0  0  0
   -6.6970   16.8020  -33.1050 Cl  0  0  0  0  0  0  0  0  0  0  0  0
   -7.9200   19.1790  -32.5210 C   0  0  0  0  0  0  0  0  0  0  0  0
   -7.9630   20.5700  -32.3940 C   0  0  0  0  0  0  0  0  0  0  0  0
   -5.9067   26.3072  -29.0558 H   0  0  0  0  0  0  0  0  0  0  0  0
   -5.2195   26.8947  -30.6080 H   0  0  0  0  0  0  0  0  0  0  0  0
   -6.7097   25.8917  -30.6080 H   0  0  0  0  0  0  0  0  0  0  0  0
   -1.1085   24.7636  -28.9152 H   0  0  0  0  0  0  0  0  0  0  0  0
    0.3590   22.7440  -29.0565 H   0  0  0  0  0  0  0  0  0  0  0  0
   -0.5173   20.6256  -30.0443 H   0  0  0  0  0  0  0  0  0  0  0  0
   -2.8666   20.5101  -30.8896 H   0  0  0  0  0  0  0  0  0  0  0  0
   -7.4390   22.9510  -30.5642 H   0  0  0  0  0  0  0  0  0  0  0  0
   -7.2123   24.5120  -31.4480 H   0  0  0  0  0  0  0  0  0  0  0  0
   -6.8410   23.3630  -33.4380 H   0  0  0  0  0  0  0  0  0  0  0  0
   -4.7622   21.2979  -33.3621 H   0  0  0  0  0  0  0  0  0  0  0  0
   -4.6932   18.8148  -33.5853 H   0  0  0  0  0  0  0  0  0  0  0  0
   -8.8110   18.5788  -32.2845 H   0  0  0  0  0  0  0  0  0  0  0  0
   -8.8886   21.0603  -32.0580 H   0  0  0  0  0  0  0  0  0  0  0  0
  1  2  1  0
  2  3  2  0
  3  4  1  0
  4  5  2  0
  5  6  1  0
  6  7  2  0
  7  8  1  0
  8  9  2  0
  9 10  1  0
 10 11  2  0
 11 12  1  0
 12 13  1  0
 13 14  1  0
 14 15  2  0
 15 16  1  0
 16 17  2  0
 17 18  1  0
 17 19  1  0
 19 20  2  0
 11  2  1  0
 20 14  1  0
  9  4  1  0
  1 21  1  0
  1 22  1  0
  1 23  1  0
  5 24  1  0
  6 25  1  0
  7 26  1  0
  8 27  1  0
 12 28  1  0
 12 29  1  0
 13 30  1  0
 15 31  1  0
 16 32  1  0
 19 33  1  0
 20 34  1  0
M  END
>  <UniqueID>  (1) 
1

>  <SMILES>  (1) 
Cc1nc2ccccc2nc1CNc1ccc(Cl)cc1

>  <Energy>  (1) 
39.28179509296023

>  <Genealogy>  (1) 
Cc1nc2ccccc2nc1CNc1ccc(Cl)cc1 (3D coordinates assigned)
Cc1nc2ccccc2nc1CNc1ccc(Cl)cc1 (optimized conformer: 39.28179509296023 kcal/mol)

>  <smiles>  (1) 
Cc1nc2ccccc2nc1CNc1ccc(Cl)cc1

>  <score_type>  (1) 
oracle

>  <origin>  (1) 
adg

>  <m_score__min__energy>  (1) 
-7.9100000000000001

>  <m_primary>  (1) 
energy

$$$$
1:0
     RDKit          3D

 52 54  0  0  0  0  0  0  0  0999 V2000
   -3.4670   23.8590  -28.4530 C   0  0  0  0  0  0  0  0  0  0  0  0
   -2.8890   24.5420  -29.6940 C   0  0  0  0  0  0  0  0  0  0  0  0
   -3.9130   25.2900  -30.4390 N   0  0  0  0  0  0  0  0  0  0  0  0
   -5.2660   24.7010  -30.3230 C   0  0  1  0  0  0  0  0  0  0  0  0
   -6.2460   25.6910  -29.6760 C   0  0  0  0  0  0  0  0  0  0  0  0
   -5.7700   24.2990  -31.7200 C   0  0  0  0  0  0  0  0  0  0  0  0
   -5.9190   22.8050  -31.8370 C   0  0  0  0  0  0  0  0  0  0  0  0
   -4.9100   21.8630  -32.0640 C   0  0  0  0  0  0  0  0  0  0  0  0
   -3.4370   22.1530  -32.1350 C   0  0  0  0  0  0  0  0  0  0  0  0
   -5.4470   20.6230  -32.2130 N   0  0  0  0  0  0  0  0  0  0  0  0
   -4.7300   19.3850  -32.5350 C   0  0  0  0  0  0  0  0  0  0  0  0
   -5.0210   18.9670  -33.9770 C   0  0  0  0  0  0  0  0  0  0  0  0
   -5.2760   17.4860  -34.0580 C   0  0  0  0  0  0  0  0  0  0  0  0
   -4.2080   16.5770  -33.9780 C   0  0  0  0  0  0  0  0  0  0  0  0
   -4.4500   15.2010  -34.0190 C   0  0  0  0  0  0  0  0  0  0  0  0
   -5.7580   14.7240  -34.1310 C   0  0  0  0  0  0  0  0  0  0  0  0
   -6.8270   15.6220  -34.1980 C   0  0  0  0  0  0  0  0  0  0  0  0
   -6.5900   16.9990  -34.1570 C   0  0  0  0  0  0  0  0  0  0  0  0
   -6.7860   20.7810  -32.1250 C   0  0  0  0  0  0  0  0  0  0  0  0
   -7.7790   19.8080  -32.2790 C   0  0  0  0  0  0  0  0  0  0  0  0
   -9.1220   20.2120  -32.1830 C   0  0  0  0  0  0  0  0  0  0  0  0
   -9.4470   21.5640  -31.9490 C   0  0  0  0  0  0  0  0  0  0  0  0
   -8.4320   22.5260  -31.8060 C   0  0  0  0  0  0  0  0  0  0  0  0
   -7.1060   22.0970  -31.8960 C   0  0  0  0  0  0  0  0  0  0  0  0
   -3.0621   24.3375  -27.5491 H   0  0  0  0  0  0  0  0  0  0  0  0
   -4.5628   23.9544  -28.4588 H   0  0  0  0  0  0  0  0  0  0  0  0
   -3.1917   22.7940  -28.4588 H   0  0  0  0  0  0  0  0  0  0  0  0
   -2.0984   25.2392  -29.3797 H   0  0  0  0  0  0  0  0  0  0  0  0
   -2.4899   23.7602  -30.3570 H   0  0  0  0  0  0  0  0  0  0  0  0
   -3.8880   26.2980  -30.1540 H   0  0  0  0  0  0  0  0  0  0  0  0
   -5.2073   23.8110  -29.6792 H   0  0  0  0  0  0  0  0  0  0  0  0
   -6.1726   25.6169  -28.5810 H   0  0  0  0  0  0  0  0  0  0  0  0
   -5.9953   26.7144  -29.9918 H   0  0  0  0  0  0  0  0  0  0  0  0
   -7.2719   25.4507  -29.9918 H   0  0  0  0  0  0  0  0  0  0  0  0
   -6.7469   24.7719  -31.8986 H   0  0  0  0  0  0  0  0  0  0  0  0
   -5.0340   24.6347  -32.4654 H   0  0  0  0  0  0  0  0  0  0  0  0
   -3.0296   22.2332  -31.1164 H   0  0  0  0  0  0  0  0  0  0  0  0
   -2.9282   21.3378  -32.6703 H   0  0  0  0  0  0  0  0  0  0  0  0
   -3.2752   23.1002  -32.6703 H   0  0  0  0  0  0  0  0  0  0  0  0
   -3.6490   19.5494  -32.4153 H   0  0  0  0  0  0  0  0  0  0  0  0
   -5.0658   18.5881  -31.8552 H   0  0  0  0  0  0  0  0  0  0  0  0
   -5.9089   19.5070  -34.3377 H   0  0  0  0  0  0  0  0  0  0  0  0
   -4.1480   19.2111  -34.6000 H   0  0  0  0  0  0  0  0  0  0  0  0
   -3.1774   16.9495  -33.8827 H   0  0  0  0  0  0  0  0  0  0  0  0
   -3.6098   14.4933  -33.9630 H   0  0  0  0  0  0  0  0  0  0  0  0
   -5.9469   13.6409  -34.1665 H   0  0  0  0  0  0  0  0  0  0  0  0
   -7.8567   15.2444  -34.2831 H   0  0  0  0  0  0  0  0  0  0  0  0
   -7.4342   17.7028  -34.2024 H   0  0  0  0  0  0  0  0  0  0  0  0
   -7.5166   18.7569  -32.4697 H   0  0  0  0  0  0  0  0  0  0  0  0
   -9.9251   19.4681  -32.2912 H   0  0  0  0  0  0  0  0  0  0  0  0
  -10.5018   21.8680  -31.8779 H   0  0  0  0  0  0  0  0  0  0  0  0
   -8.6747   23.5841  -31.6287 H   0  0  0  0  0  0  0  0  0  0  0  0
  1  2  1  0
  2  3  1  0
  3  4  1  0
  4  5  1  0
  4  6  1  0
  6  7  1  0
  7  8  2  0
  8  9  1  0
  8 10  1  0
 10 11  1  0
 11 12  1  0
 12 13  1  0
 13 14  2  0
 14 15  1  0
 15 16  2  0
 16 17  1  0
 17 18  2  0
 10 19  1  0
 19 20  2  0
 20 21  1  0
 21 22  2  0
 22 23  1  0
 23 24  2  0
 24  7  1  0
 18 13  1  0
 24 19  1  0
  1 25  1  0
  1 26  1  0
  1 27  1  0
  2 28  1  0
  2 29  1  0
  3 30  1  0
  4 31  1  1
  5 32  1  0
  5 33  1  0
  5 34  1  0
  6 35  1  0
  6 36  1  0
  9 37  1  0
  9 38  1  0
  9 39  1  0
 11 40  1  0
 11 41  1  0
 12 42  1  0
 12 43  1  0
 14 44  1  0
 15 45  1  0
 16 46  1  0
 17 47  1  0
 18 48  1  0
 20 49  1  0
 21 50  1  0
 22 51  1  0
 23 52  1  0
M  END
>  <UniqueID>  (2) 
2

>  <SMILES>  (2) 
CCN[C@@H](C)Cc1c(C)n(CCc2ccccc2)c2ccccc12

>  <Energy>  (2) 
77.73764509820168

>  <Genealogy>  (2) 
CCN[C@@H](C)Cc1c(C)n(CCc2ccccc2)c2ccccc12 (chirality)
CCN[C@@H](C)Cc1c(C)n(CCc2ccccc2)c2ccccc12 (3D coordinates assigned)
CCN[C@@H](C)Cc1c(C)n(CCc2ccccc2)c2ccccc12 (optimized conformer: 77.73764509820168 kcal/mol)

>  <smiles>  (2) 
CCNC(C)Cc1c(C)n(CCc2ccccc2)c2ccccc12

>  <score_type>  (2) 
oracle

>  <origin>  (2) 
adg

>  <m_score__min__energy>  (2) 
-9.3499999999999996

>  <m_primary>  (2) 
energy

$$$$
2:0
     RDKit          3D

 48 50  0  0  0  0  0  0  0  0999 V2000
   -6.1070   25.2540  -29.3580 C   0  0  0  0  0  0  0  0  0  0  0  0
   -5.6600   25.5710  -30.7860 C   0  0  0  0  0  0  0  0  0  0  0  0
   -5.2810   24.3550  -31.5310 N   0  0  0  0  0  0  0  0  0  0  0  0
   -4.3290   23.4990  -30.8060 C   0  0  0  0  0  0  0  0  0  0  0  0
   -4.1870   22.1090  -31.4500 C   0  0  0  0  0  0  0  0  0  0  0  0
   -4.9560   22.0340  -32.7050 N   0  0  0  0  0  0  0  0  0  0  0  0
   -5.3430   20.6610  -32.9980 C   0  0  0  0  0  0  0  0  0  0  0  0
   -4.3640   19.7390  -33.4680 C   0  0  0  0  0  0  0  0  0  0  0  0
   -3.0540   20.1560  -33.8220 C   0  0  0  0  0  0  0  0  0  0  0  0
   -2.0820   19.2390  -34.2090 C   0  0  0  0  0  0  0  0  0  0  0  0
   -2.3780   17.8860  -34.2470 C   0  0  0  0  0  0  0  0  0  0  0  0
   -1.0230   16.6260  -34.7260 Br  0  0  0  0  0  0  0  0  0  0  0  0
   -3.6620   17.4470  -33.9370 C   0  0  0  0  0  0  0  0  0  0  0  0
   -4.6920   18.3620  -33.5900 C   0  0  0  0  0  0  0  0  0  0  0  0
   -5.9770   17.9290  -33.3470 N   0  0  0  0  0  0  0  0  0  0  0  0
   -6.3810   16.5620  -33.7570 C   0  0  0  0  0  0  0  0  0  0  0  0
   -6.9040   18.7770  -32.7780 C   0  0  0  0  0  0  0  0  0  0  0  0
   -8.1090   18.2660  -32.2400 C   0  0  0  0  0  0  0  0  0  0  0  0
   -9.1030   19.1080  -31.7700 C   0  0  0  0  0  0  0  0  0  0  0  0
   -8.9450   20.4790  -31.8510 C   0  0  0  0  0  0  0  0  0  0  0  0
   -7.7510   21.0400  -32.3400 C   0  0  0  0  0  0  0  0  0  0  0  0
   -7.6630   22.4320  -32.5080 O   0  0  0  0  0  0  0  0  0  0  0  0
   -8.5750   23.3920  -31.9800 C   0  0  0  0  0  0  0  0  0  0  0  0
   -6.6610   20.1820  -32.7070 C   0  0  0  0  0  0  0  0  0  0  0  0
   -5.4244   25.7381  -28.6441 H   0  0  0  0  0  0  0  0  0  0  0  0
   -7.1286   25.6306  -29.2015 H   0  0  0  0  0  0  0  0  0  0  0  0
   -6.0895   24.1653  -29.2015 H   0  0  0  0  0  0  0  0  0  0  0  0
   -6.4869   26.0677  -31.3146 H   0  0  0  0  0  0  0  0  0  0  0  0
   -4.7756   26.2224  -30.7277 H   0  0  0  0  0  0  0  0  0  0  0  0
   -6.1160   23.7930  -31.8200 H   0  0  0  0  0  0  0  0  0  0  0  0
   -3.3443   23.9894  -30.8019 H   0  0  0  0  0  0  0  0  0  0  0  0
   -4.7121   23.3593  -29.7844 H   0  0  0  0  0  0  0  0  0  0  0  0
   -3.1254   21.9178  -31.6653 H   0  0  0  0  0  0  0  0  0  0  0  0
   -4.5772   21.3545  -30.7511 H   0  0  0  0  0  0  0  0  0  0  0  0
   -5.7950   22.6510  -32.6440 H   0  0  0  0  0  0  0  0  0  0  0  0
   -4.4390   22.4570  -33.5050 H   0  0  0  0  0  0  0  0  0  0  0  0
   -2.8023   21.2263  -33.7896 H   0  0  0  0  0  0  0  0  0  0  0  0
   -1.0764   19.5888  -34.4854 H   0  0  0  0  0  0  0  0  0  0  0  0
   -3.8837   16.3698  -33.9612 H   0  0  0  0  0  0  0  0  0  0  0  0
   -6.5621   15.9492  -32.8617 H   0  0  0  0  0  0  0  0  0  0  0  0
   -7.3016   16.6161  -34.3567 H   0  0  0  0  0  0  0  0  0  0  0  0
   -5.5789   16.1070  -34.3567 H   0  0  0  0  0  0  0  0  0  0  0  0
   -8.2593   17.1773  -32.1942 H   0  0  0  0  0  0  0  0  0  0  0  0
  -10.0192   18.6855  -31.3318 H   0  0  0  0  0  0  0  0  0  0  0  0
   -9.7633   21.1398  -31.5290 H   0  0  0  0  0  0  0  0  0  0  0  0
   -8.5450   23.3604  -30.8809 H   0  0  0  0  0  0  0  0  0  0  0  0
   -8.2907   24.3968  -32.3259 H   0  0  0  0  0  0  0  0  0  0  0  0
   -9.5930   23.1596  -32.3259 H   0  0  0  0  0  0  0  0  0  0  0  0
  1  2  1  0
  2  3  1  0
  3  4  1  0
  4  5  1  0
  5  6  1  0
  6  7  1  0
  7  8  2  0
  8  9  1  0
  9 10  2  0
 10 11  1  0
 11 12  1  0
 11 13  2  0
 13 14  1  0
 14 15  2  0
 15 16  1  0
 15 17  1  0
 17 18  2  0
 18 19  1  0
 19 20  2  0
 20 21  1  0
 21 22  1  0
 22 23  1  0
 21 24  2  0
 24  7  1  0
 14  8  1  0
 24 17  1  0
  1 25  1  0
  1 26  1  0
  1 27  1  0
  2 28  1  0
  2 29  1  0
  3 30  1  0
  4 31  1  0
  4 32  1  0
  5 33  1  0
  5 34  1  0
  6 35  1  0
  6 36  1  0
  9 37  1  0
 10 38  1  0
 13 39  1  0
 16 40  1  0
 16 41  1  0
 16 42  1  0
 18 43  1  0
 19 44  1  0
 20 45  1  0
 23 46  1  0
 23 47  1  0
 23 48  1  0
M  CHG  2   6   1  15   1
M  END
>  <UniqueID>  (3) 
3

>  <SMILES>  (3) 
CCNCC[NH2+]c1c2ccc(Br)cc2[n+](C)c2cccc(OC)c12

>  <Energy>  (3) 
82.44209955550703

>  <Genealogy>  (3) 
CCNCC[NH2+]c1c2ccc(Br)cc2[n+](C)c2cccc(OC)c12 (protonated)
CCNCC[NH2+]c1c2ccc(Br)cc2[n+](C)c2cccc(OC)c12 (3D coordinates assigned)
CCNCC[NH2+]c1c2ccc(Br)cc2[n+](C)c2cccc(OC)c12 (optimized conformer: 82.44209955550703 kcal/mol)

>  <smiles>  (3) 
CCNCCNc1c2ccc(Br)cc2[n+](C)c2cccc(OC)c12

>  <score_type>  (3) 
oracle

>  <origin>  (3) 
adg

>  <m_score__min__energy>  (3) 
-6.8499999999999996

>  <m_primary>  (3) 
energy

$$$$
3:0
     RDKit          3D

 63 65  0  0  0  0  0  0  0  0999 V2000
   -3.1010   21.2940  -29.1900 C   0  0  0  0  0  0  0  0  0  0  0  0
   -1.9980   21.4660  -30.2440 C   0  0  0  0  0  0  0  0  0  0  0  0
   -0.7820   20.6090  -29.8550 C   0  0  0  0  0  0  0  0  0  0  0  0
   -1.6170   22.8880  -30.3360 N   0  0  0  0  0  0  0  0  0  0  0  0
   -1.2840   23.4560  -29.0190 C   0  0  0  0  0  0  0  0  0  0  0  0
   -2.1110   24.7230  -28.7650 C   0  0  0  0  0  0  0  0  0  0  0  0
   -3.5850   24.5370  -29.1400 C   0  0  0  0  0  0  0  0  0  0  0  0
   -3.8190   25.0840  -30.4220 O   0  0  0  0  0  0  0  0  0  0  0  0
   -5.1200   25.6390  -30.5050 C   0  0  0  0  0  0  0  0  0  0  0  0
   -6.1430   24.6290  -31.0550 C   0  0  0  0  0  0  0  0  0  0  0  0
   -5.5980   23.1980  -31.1500 C   0  0  0  0  0  0  0  0  0  0  0  0
   -5.8070   22.6320  -32.4860 N   0  0  0  0  0  0  0  0  0  0  0  0
   -5.6570   21.2240  -32.7430 C   0  0  0  0  0  0  0  0  0  0  0  0
   -6.7500   20.3580  -32.5570 C   0  0  0  0  0  0  0  0  0  0  0  0
   -6.6040   18.9760  -32.8490 C   0  0  0  0  0  0  0  0  0  0  0  0
   -5.4280   18.5090  -33.4080 N   0  0  0  0  0  0  0  0  0  0  0  0
   -5.3530   17.1250  -33.9310 C   0  0  0  0  0  0  0  0  0  0  0  0
   -4.3080   19.3170  -33.4510 C   0  0  0  0  0  0  0  0  0  0  0  0
   -3.0290   18.8030  -33.7940 C   0  0  0  0  0  0  0  0  0  0  0  0
   -1.9060   19.6280  -33.8270 C   0  0  0  0  0  0  0  0  0  0  0  0
   -2.0170   20.9730  -33.5020 C   0  0  0  0  0  0  0  0  0  0  0  0
   -3.2530   21.5030  -33.1410 C   0  0  0  0  0  0  0  0  0  0  0  0
   -4.4100   20.6940  -33.1230 C   0  0  0  0  0  0  0  0  0  0  0  0
   -7.7730   18.0260  -32.6030 C   0  0  0  0  0  0  0  0  0  0  0  0
   -8.8150   18.5730  -31.6330 C   0  0  0  0  0  0  0  0  0  0  0  0
   -9.2270   19.9700  -32.0660 C   0  0  0  0  0  0  0  0  0  0  0  0
   -8.0360   20.9170  -31.9650 C   0  0  0  0  0  0  0  0  0  0  0  0
   -2.6609   21.3626  -28.1842 H   0  0  0  0  0  0  0  0  0  0  0  0
   -3.8545   22.0855  -29.3153 H   0  0  0  0  0  0  0  0  0  0  0  0
   -3.5778   20.3107  -29.3153 H   0  0  0  0  0  0  0  0  0  0  0  0
   -2.3682   21.1361  -31.2259 H   0  0  0  0  0  0  0  0  0  0  0  0
   -0.7065   20.5558  -28.7589 H   0  0  0  0  0  0  0  0  0  0  0  0
   -0.9022   19.5949  -30.2639 H   0  0  0  0  0  0  0  0  0  0  0  0
    0.1326   21.0632  -30.2639 H   0  0  0  0  0  0  0  0  0  0  0  0
   -2.4170   23.4480  -30.7150 H   0  0  0  0  0  0  0  0  0  0  0  0
   -1.5051   22.7147  -28.2370 H   0  0  0  0  0  0  0  0  0  0  0  0
   -0.2150   23.7147  -28.9991 H   0  0  0  0  0  0  0  0  0  0  0  0
   -2.0468   24.9798  -27.6973 H   0  0  0  0  0  0  0  0  0  0  0  0
   -1.7009   25.5259  -29.3953 H   0  0  0  0  0  0  0  0  0  0  0  0
   -3.8281   23.4642  -29.1494 H   0  0  0  0  0  0  0  0  0  0  0  0
   -4.2182   25.0507  -28.4017 H   0  0  0  0  0  0  0  0  0  0  0  0
   -5.4367   25.9538  -29.4997 H   0  0  0  0  0  0  0  0  0  0  0  0
   -5.0814   26.4943  -31.1957 H   0  0  0  0  0  0  0  0  0  0  0  0
   -7.0198   24.6245  -30.3908 H   0  0  0  0  0  0  0  0  0  0  0  0
   -6.3961   24.9479  -32.0769 H   0  0  0  0  0  0  0  0  0  0  0  0
   -4.5200   23.2107  -30.9317 H   0  0  0  0  0  0  0  0  0  0  0  0
   -6.1372   22.5739  -30.4221 H   0  0  0  0  0  0  0  0  0  0  0  0
   -5.8880   23.2870  -33.2960 H   0  0  0  0  0  0  0  0  0  0  0  0
   -5.3146   16.4169  -33.0901 H   0  0  0  0  0  0  0  0  0  0  0  0
   -6.2412   16.9166  -34.5456 H   0  0  0  0  0  0  0  0  0  0  0  0
   -4.4475   17.0138  -34.5456 H   0  0  0  0  0  0  0  0  0  0  0  0
   -2.9230   17.7356  -34.0377 H   0  0  0  0  0  0  0  0  0  0  0  0
   -0.9284   19.2118  -34.1116 H   0  0  0  0  0  0  0  0  0  0  0  0
   -1.1281   21.6204  -33.5297 H   0  0  0  0  0  0  0  0  0  0  0  0
   -3.3290   22.5655  -32.8664 H   0  0  0  0  0  0  0  0  0  0  0  0
   -8.2662   17.8259  -33.5657 H   0  0  0  0  0  0  0  0  0  0  0  0
   -7.3565   17.1157  -32.1470 H   0  0  0  0  0  0  0  0  0  0  0  0
   -9.6963   17.9147  -31.6321 H   0  0  0  0  0  0  0  0  0  0  0  0
   -8.3870   18.6145  -30.6206 H   0  0  0  0  0  0  0  0  0  0  0  0
   -9.5815   19.9396  -33.1069 H   0  0  0  0  0  0  0  0  0  0  0  0
  -10.0326   20.3299  -31.4092 H   0  0  0  0  0  0  0  0  0  0  0  0
   -8.2867   21.8464  -32.4973 H   0  0  0  0  0  0  0  0  0  0  0  0
   -7.8488   21.0806  -30.8935 H   0  0  0  0  0  0  0  0  0  0  0  0
  1  2  1  0
  2  3  1  0
  2  4  1  0
  4  5  1  0
  5  6  1  0
  6  7  1  0
  7  8  1  0
  8  9  1  0
  9 10  1  0
 10 11  1  0
 11 12  1  0
 12 13  1  0
 13 14  2  0
 14 15  1  0
 15 16  2  0
 16 17  1  0
 16 18  1  0
 18 19  2  0
 19 20  1  0
 20 21  2  0
 21 22  1  0
 22 23  2  0
 15 24  1  0
 24 25  1  0
 25 26  1  0
 26 27  1  0
 23 13  1  0
 27 14  1  0
 23 18  1  0
  1 28  1  0
  1 29  1  0
  1 30  1  0
  2 31  1  0
  3 32  1  0
  3 33  1  0
  3 34  1  0
  4 35  1  0
  5 36  1  0
  5 37  1  0
  6 38  1  0
  6 39  1  0
  7 40  1  0
  7 41  1  0
  9 42  1  0
  9 43  1  0
 10 44  1  0
 10 45  1  0
 11 46  1  0
 11 47  1  0
 12 48  1  0
 17 49  1  0
 17 50  1  0
 17 51  1  0
 19 52  1  0
 20 53  1  0
 21 54  1  0
 22 55  1  0
 24 56  1  0
 24 57  1  0
 25 58  1  0
 25 59  1  0
 26 60  1  0
 26 61  1  0
 27 62  1  0
 27 63  1  0
M  CHG  1  16   1
M  END
>  <UniqueID>  (4) 
4

>  <SMILES>  (4) 
CC(C)NCCCOCCCNc1c2c([n+](C)c3ccccc13)CCCC2

>  <Energy>  (4) 
74.53000090308791

>  <Genealogy>  (4) 
CC(C)NCCCOCCCNc1c2c([n+](C)c3ccccc13)CCCC2 (3D coordinates assigned)
CC(C)NCCCOCCCNc1c2c([n+](C)c3ccccc13)CCCC2 (nonaromatic ring conformer: 74.53000090308791 kcal/mol)

>  <smiles>  (4) 
CC(C)NCCCOCCCNc1c2c([n+](C)c3ccccc13)CCCC2

>  <score_type>  (4) 
oracle

>  <origin>  (4) 
adg

>  <m_score__min__energy>  (4) 
-9.6500000000000004

>  <m_primary>  (4) 
energy

$$$$
4:0
     RDKit          3D

 55 57  0  0  0  0  0  0  0  0999 V2000
   -6.2080   25.1520  -29.4120 C   0  0  0  0  0  0  0  0  0  0  0  0
   -5.2430   25.6490  -30.4870 C   0  0  0  0  0  0  0  0  0  0  0  0
   -4.3700   24.5560  -30.9370 N   0  0  0  0  0  0  0  0  0  0  0  0
   -4.0640   23.6300  -29.8370 C   0  0  0  0  0  0  0  0  0  0  0  0
   -3.9510   22.2030  -30.3740 C   0  0  0  0  0  0  0  0  0  0  0  0
   -4.2100   22.1620  -31.8130 N   0  0  0  0  0  0  0  0  0  0  0  0
   -5.1700   21.2440  -32.3600 C   0  0  0  0  0  0  0  0  0  0  0  0
   -6.5400   21.4950  -32.1770 C   0  0  0  0  0  0  0  0  0  0  0  0
   -6.9910   22.7560  -31.7300 C   0  0  0  0  0  0  0  0  0  0  0  0
   -8.3520   23.0190  -31.5990 C   0  0  0  0  0  0  0  0  0  0  0  0
   -9.2830   22.0380  -31.9190 C   0  0  0  0  0  0  0  0  0  0  0  0
   -8.8590   20.7780  -32.3430 C   0  0  0  0  0  0  0  0  0  0  0  0
   -7.4780   20.4680  -32.4460 C   0  0  0  0  0  0  0  0  0  0  0  0
   -7.0370   19.2040  -32.7820 N   0  0  0  0  0  0  0  0  0  0  0  0
   -7.9690   18.0570  -32.7080 C   0  0  0  0  0  0  0  0  0  0  0  0
   -5.7210   19.0100  -33.1660 C   0  0  0  0  0  0  0  0  0  0  0  0
   -5.3000   17.7890  -33.7430 C   0  0  0  0  0  0  0  0  0  0  0  0
   -3.9720   17.5750  -34.0890 C   0  0  0  0  0  0  0  0  0  0  0  0
   -3.0380   18.5880  -33.9360 C   0  0  0  0  0  0  0  0  0  0  0  0
   -3.4140   19.8410  -33.4340 C   0  0  0  0  0  0  0  0  0  0  0  0
   -2.4760   20.9300  -33.5280 N   0  0  0  0  0  0  0  0  0  0  0  0
   -1.3610   21.1200  -32.6010 C   0  0  0  0  0  0  0  0  0  0  0  0
   -0.0600   21.3710  -33.3610 C   0  0  0  0  0  0  0  0  0  0  0  0
   -0.3500   21.9600  -34.6120 O   0  0  0  0  0  0  0  0  0  0  0  0
    0.2040   21.1710  -35.6390 C   0  0  0  0  0  0  0  0  0  0  0  0
   -4.7570   20.0480  -32.9930 C   0  0  0  0  0  0  0  0  0  0  0  0
   -5.7908   25.3669  -28.4171 H   0  0  0  0  0  0  0  0  0  0  0  0
   -7.1752   25.6641  -29.5224 H   0  0  0  0  0  0  0  0  0  0  0  0
   -6.3528   24.0672  -29.5224 H   0  0  0  0  0  0  0  0  0  0  0  0
   -5.8192   26.0287  -31.3437 H   0  0  0  0  0  0  0  0  0  0  0  0
   -4.6207   26.4515  -30.0643 H   0  0  0  0  0  0  0  0  0  0  0  0
   -3.4640   24.9810  -31.2510 H   0  0  0  0  0  0  0  0  0  0  0  0
   -3.1113   23.9205  -29.3701 H   0  0  0  0  0  0  0  0  0  0  0  0
   -4.8719   23.6735  -29.0918 H   0  0  0  0  0  0  0  0  0  0  0  0
   -2.9363   21.8251  -30.1803 H   0  0  0  0  0  0  0  0  0  0  0  0
   -4.6991   21.5771  -29.8655 H   0  0  0  0  0  0  0  0  0  0  0  0
   -3.9260   22.9870  -32.3890 H   0  0  0  0  0  0  0  0  0  0  0  0
   -6.2593   23.5391  -31.4826 H   0  0  0  0  0  0  0  0  0  0  0  0
   -8.6903   24.0030  -31.2423 H   0  0  0  0  0  0  0  0  0  0  0  0
  -10.3582   22.2556  -31.8377 H   0  0  0  0  0  0  0  0  0  0  0  0
   -9.6065   20.0135  -32.6013 H   0  0  0  0  0  0  0  0  0  0  0  0
   -8.1672   17.8130  -31.6539 H   0  0  0  0  0  0  0  0  0  0  0  0
   -8.9133   18.3190  -33.2076 H   0  0  0  0  0  0  0  0  0  0  0  0
   -7.5192   17.1863  -33.2076 H   0  0  0  0  0  0  0  0  0  0  0  0
   -6.0387   16.9936  -33.9211 H   0  0  0  0  0  0  0  0  0  0  0  0
   -3.6601   16.5977  -34.4861 H   0  0  0  0  0  0  0  0  0  0  0  0
   -1.9889   18.4059  -34.2121 H   0  0  0  0  0  0  0  0  0  0  0  0
   -2.5120   21.5430  -34.3720 H   0  0  0  0  0  0  0  0  0  0  0  0
   -1.5731   21.9840  -31.9541 H   0  0  0  0  0  0  0  0  0  0  0  0
   -1.2458   20.2081  -31.9967 H   0  0  0  0  0  0  0  0  0  0  0  0
    0.5808   22.0480  -32.7770 H   0  0  0  0  0  0  0  0  0  0  0  0
    0.4622   20.4157  -33.5184 H   0  0  0  0  0  0  0  0  0  0  0  0
    0.7827   20.3468  -35.1965 H   0  0  0  0  0  0  0  0  0  0  0  0
   -0.6041   20.7589  -36.2612 H   0  0  0  0  0  0  0  0  0  0  0  0
    0.8660   21.7911  -36.2612 H   0  0  0  0  0  0  0  0  0  0  0  0
  1  2  1  0
  2  3  1  0
  3  4  1  0
  4  5  1  0
  5  6  1  0
  6  7  1  0
  7  8  2  0
  8  9  1  0
  9 10  2  0
 10 11  1  0
 11 12  2  0
 12 13  1  0
 13 14  2  0
 14 15  1  0
 14 16  1  0
 16 17  2  0
 17 18  1  0
 18 19  2  0
 19 20  1  0
 20 21  1  0
 21 22  1  0
 22 23  1  0
 23 24  1  0
 24 25  1  0
 20 26  2  0
 26  7  1  0
 13  8  1  0
 26 16  1  0
  1 27  1  0
  1 28  1  0
  1 29  1  0
  2 30  1  0
  2 31  1  0
  3 32  1  0
  4 33  1  0
  4 34  1  0
  5 35  1  0
  5 36  1  0
  6 37  1  0
  9 38  1  0
 10 39  1  0
 11 40  1  0
 12 41  1  0
 15 42  1  0
 15 43  1  0
 15 44  1  0
 17 45  1  0
 18 46  1  0
 19 47  1  0
 21 48  1  0
 22 49  1  0
 22 50  1  0
 23 51  1  0
 23 52  1  0
 25 53  1  0
 25 54  1  0
 25 55  1  0
M  CHG  1  14   1
M  END
>  <UniqueID>  (5) 
5

>  <SMILES>  (5) 
CCNCCNc1c2ccccc2[n+](C)c2cccc(NCCOC)c12

>  <Energy>  (5) 
83.77577164095992

>  <Genealogy>  (5) 
CCNCCNc1c2ccccc2[n+](C)c2cccc(NCCOC)c12 (3D coordinates assigned)
CCNCCNc1c2ccccc2[n+](C)c2cccc(NCCOC)c12 (optimized conformer: 83.77577164095992 kcal/mol)

>  <smiles>  (5) 
CCNCCNc1c2ccccc2[n+](C)c2cccc(NCCOC)c12

>  <score_type>  (5) 
oracle

>  <origin>  (5) 
adg

>  <m_score__min__energy>  (5) 
-8.5099999999999998

>  <m_primary>  (5) 
energy

$$$$
5:0
     RDKit          3D

 17 16  0  0  0  0  0  0  0  0999 V2000
    1.5570   30.0150  -23.6720 C   0  0  0  0  0  0  0  0  0  0  0  0
    2.0500   28.9960  -22.6450 C   0  0  0  0  0  0  0  0  0  0  0  0
    1.0380   27.9550  -22.4050 N   0  0  0  0  0  0  0  0  0  0  0  0
    0.5220   27.3870  -23.6720 C   0  0  0  0  0  0  0  0  0  0  0  0
   -0.8650   26.7550  -23.5100 C   0  0  0  0  0  0  0  0  0  0  0  0
   -1.5960   26.1880  -25.2150 Br  0  0  0  0  0  0  0  0  0  0  0  0
    1.1352   30.8867  -23.1503 H   0  0  0  0  0  0  0  0  0  0  0  0
    2.3990   30.3370  -24.3024 H   0  0  0  0  0  0  0  0  0  0  0  0
    0.7820   29.5547  -24.3024 H   0  0  0  0  0  0  0  0  0  0  0  0
    2.9697   28.5235  -23.0204 H   0  0  0  0  0  0  0  0  0  0  0  0
    2.2441   29.5201  -21.6976 H   0  0  0  0  0  0  0  0  0  0  0  0
    1.4820   27.1860  -21.8500 H   0  0  0  0  0  0  0  0  0  0  0  0
    0.2630   28.3540  -21.8240 H   0  0  0  0  0  0  0  0  0  0  0  0
    0.4579   28.1918  -24.4191 H   0  0  0  0  0  0  0  0  0  0  0  0
    1.2154   26.5944  -23.9899 H   0  0  0  0  0  0  0  0  0  0  0  0
   -0.7834   25.8802  -22.8481 H   0  0  0  0  0  0  0  0  0  0  0  0
   -1.5393   27.5110  -23.0813 H   0  0  0  0  0  0  0  0  0  0  0  0
  1  2  1  0
  2  3  1  0
  3  4  1  0
  4  5  1  0
  5  6  1  0
  1  7  1  0
  1  8  1  0
  1  9  1  0
  2 10  1  0
  2 11  1  0
  3 12  1  0
  3 13  1  0
  4 14  1  0
  4 15  1  0
  5 16  1  0
  5 17  1  0
M  CHG  1   3   1
M  END
>  <UniqueID>  (6) 
6

>  <SMILES>  (6) 
CC[NH2+]CCBr

>  <Energy>  (6) 
10.186921207411363

>  <Genealogy>  (6) 
CC[NH2+]CCBr (protonated)
CC[NH2+]CCBr (3D coordinates assigned)
CC[NH2+]CCBr (optimized conformer: 10.186921207411363 kcal/mol)

>  <smiles>  (6) 
CCNCCBr

>  <score_type>  (6) 
oracle

>  <origin>  (6) 
adg

>  <m_score__min__energy>  (6) 
-3.3599999999999999

>  <m_primary>  (6) 
energy

$$$$
6:0
     RDKit          3D

 82 85  0  0  0  0  0  0  0  0999 V2000
   -6.1360   25.5980  -29.7680 C   0  0  0  0  0  0  0  0  0  0  0  0
   -4.7790   25.0260  -30.2370 C   0  0  0  0  0  0  0  0  0  0  0  0
   -3.9620   24.5110  -29.0520 C   0  0  0  0  0  0  0  0  0  0  0  0
   -4.9600   23.9350  -31.2170 N   0  0  0  0  0  0  0  0  0  0  0  0
   -6.1100   24.1620  -32.0870 C   0  0  0  0  0  0  0  0  0  0  0  0
   -7.1860   23.1020  -31.8200 C   0  0  0  0  0  0  0  0  0  0  0  0
   -6.7460   21.7040  -32.3270 C   0  0  0  0  0  0  0  0  0  0  0  0
   -5.8240   21.0310  -31.3780 N   0  0  0  0  0  0  0  0  0  0  0  0
   -4.9500   20.0750  -32.0500 C   0  0  0  0  0  0  0  0  0  0  0  0
   -5.5220   18.8720  -32.5580 C   0  0  0  0  0  0  0  0  0  0  0  0
   -6.7910   18.4210  -32.1300 C   0  0  0  0  0  0  0  0  0  0  0  0
   -7.4220   17.3310  -32.7200 C   0  0  0  0  0  0  0  0  0  0  0  0
   -6.8410   16.7250  -33.8150 C   0  0  0  0  0  0  0  0  0  0  0  0
   -5.5750   17.1130  -34.2400 C   0  0  0  0  0  0  0  0  0  0  0  0
   -4.8510   18.1610  -33.5900 C   0  0  0  0  0  0  0  0  0  0  0  0
   -3.5820   18.5140  -33.9800 N   0  0  0  0  0  0  0  0  0  0  0  0
   -2.8370   17.6050  -34.8890 C   0  0  0  0  0  0  0  0  0  0  0  0
   -2.9650   19.6240  -33.4180 C   0  0  0  0  0  0  0  0  0  0  0  0
   -1.7110   20.0820  -33.8920 C   0  0  0  0  0  0  0  0  0  0  0  0
   -0.9300   20.9850  -33.1740 C   0  0  0  0  0  0  0  0  0  0  0  0
   -1.4250   21.4890  -31.9950 C   0  0  0  0  0  0  0  0  0  0  0  0
   -2.7610   21.2530  -31.5890 C   0  0  0  0  0  0  0  0  0  0  0  0
   -3.2480   21.8580  -30.4220 O   0  0  0  0  0  0  0  0  0  0  0  0
   -3.1180   21.3580  -29.0800 C   0  0  0  0  0  0  0  0  0  0  0  0
   -1.8670   21.9690  -28.4470 C   0  0  0  0  0  0  0  0  0  0  0  0
   -0.9810   21.0360  -27.6470 N   0  0  0  0  0  0  0  0  0  0  0  0
   -1.1690   21.2210  -26.1850 C   0  0  0  0  0  0  0  0  0  0  0  0
    0.4730   21.2680  -27.9670 C   0  0  0  0  0  0  0  0  0  0  0  0
    1.3110   19.9810  -27.8360 C   0  0  0  0  0  0  0  0  0  0  0  0
    0.9170   18.9690  -28.8800 N   0  0  0  0  0  0  0  0  0  0  0  0
    1.6550   19.2590  -30.1580 C   0  0  0  0  0  0  0  0  0  0  0  0
    1.3080   17.5970  -28.3860 C   0  0  0  0  0  0  0  0  0  0  0  0
   -0.5690   19.0310  -29.1430 C   0  0  0  0  0  0  0  0  0  0  0  0
   -1.3620   19.6030  -27.9480 C   0  0  0  0  0  0  0  0  0  0  0  0
   -3.5730   20.3440  -32.3390 C   0  0  0  0  0  0  0  0  0  0  0  0
   -6.1679   25.6115  -28.6685 H   0  0  0  0  0  0  0  0  0  0  0  0
   -6.2541   26.6225  -30.1508 H   0  0  0  0  0  0  0  0  0  0  0  0
   -6.9518   24.9672  -30.1508 H   0  0  0  0  0  0  0  0  0  0  0  0
   -4.2346   25.8496  -30.7222 H   0  0  0  0  0  0  0  0  0  0  0  0
   -4.4461   24.8162  -28.1126 H   0  0  0  0  0  0  0  0  0  0  0  0
   -3.9049   23.4133  -29.0954 H   0  0  0  0  0  0  0  0  0  0  0  0
   -2.9471   24.9329  -29.0954 H   0  0  0  0  0  0  0  0  0  0  0  0
   -5.0740   23.0250  -30.7110 H   0  0  0  0  0  0  0  0  0  0  0  0
   -6.5255   25.1610  -31.8887 H   0  0  0  0  0  0  0  0  0  0  0  0
   -5.7882   24.0939  -33.1367 H   0  0  0  0  0  0  0  0  0  0  0  0
   -7.3725   23.0470  -30.7373 H   0  0  0  0  0  0  0  0  0  0  0  0
   -8.0986   23.3933  -32.3607 H   0  0  0  0  0  0  0  0  0  0  0  0
   -7.6400   21.0767  -32.4582 H   0  0  0  0  0  0  0  0  0  0  0  0
   -6.2118   21.8413  -33.2787 H   0  0  0  0  0  0  0  0  0  0  0  0
   -6.3530   20.5440  -30.6260 H   0  0  0  0  0  0  0  0  0  0  0  0
   -5.3510   21.7790  -30.8520 H   0  0  0  0  0  0  0  0  0  0  0  0
   -7.2946   18.9476  -31.3059 H   0  0  0  0  0  0  0  0  0  0  0  0
   -8.3746   16.9558  -32.3178 H   0  0  0  0  0  0  0  0  0  0  0  0
   -7.3810   15.9323  -34.3536 H   0  0  0  0  0  0  0  0  0  0  0  0
   -5.1183   16.6000  -35.0992 H   0  0  0  0  0  0  0  0  0  0  0  0
   -2.2510   16.8899  -34.2930 H   0  0  0  0  0  0  0  0  0  0  0  0
   -3.5489   17.0567  -35.5235 H   0  0  0  0  0  0  0  0  0  0  0  0
   -2.1596   18.1954  -35.5235 H   0  0  0  0  0  0  0  0  0  0  0  0
   -1.3414   19.7121  -34.8598 H   0  0  0  0  0  0  0  0  0  0  0  0
    0.0611   21.2880  -33.5426 H   0  0  0  0  0  0  0  0  0  0  0  0
   -0.7670   22.0907  -31.3507 H   0  0  0  0  0  0  0  0  0  0  0  0
   -4.0047   21.6392  -28.4929 H   0  0  0  0  0  0  0  0  0  0  0  0
   -3.0321   20.2615  -29.0957 H   0  0  0  0  0  0  0  0  0  0  0  0
   -1.2570   22.3932  -29.2581 H   0  0  0  0  0  0  0  0  0  0  0  0
   -2.2421   22.7039  -27.7196 H   0  0  0  0  0  0  0  0  0  0  0  0
   -0.4879   20.5508  -25.6400 H   0  0  0  0  0  0  0  0  0  0  0  0
   -0.9492   22.2648  -25.9162 H   0  0  0  0  0  0  0  0  0  0  0  0
   -2.2091   20.9844  -25.9162 H   0  0  0  0  0  0  0  0  0  0  0  0
    0.5536   21.6395  -28.9992 H   0  0  0  0  0  0  0  0  0  0  0  0
    0.8646   22.0006  -27.2459 H   0  0  0  0  0  0  0  0  0  0  0  0
    2.3749   20.2307  -27.9611 H   0  0  0  0  0  0  0  0  0  0  0  0
    1.1304   19.5460  -26.8419 H   0  0  0  0  0  0  0  0  0  0  0  0
    2.6551   19.6520  -29.9228 H   0  0  0  0  0  0  0  0  0  0  0  0
    1.7533   18.3326  -30.7430 H   0  0  0  0  0  0  0  0  0  0  0  0
    1.0963   20.0045  -30.7430 H   0  0  0  0  0  0  0  0  0  0  0  0
    1.3100   17.5901  -27.2860 H   0  0  0  0  0  0  0  0  0  0  0  0
    0.5857   16.8544  -28.7560 H   0  0  0  0  0  0  0  0  0  0  0  0
    2.3132   17.3468  -28.7560 H   0  0  0  0  0  0  0  0  0  0  0  0
   -0.7447   19.6706  -30.0205 H   0  0  0  0  0  0  0  0  0  0  0  0
   -0.9197   18.0023  -29.3128 H   0  0  0  0  0  0  0  0  0  0  0  0
   -2.4359   19.5632  -28.1830 H   0  0  0  0  0  0  0  0  0  0  0  0
   -1.1251   18.9958  -27.0619 H   0  0  0  0  0  0  0  0  0  0  0  0
  1  2  1  0
  2  3  1  0
  2  4  1  0
  4  5  1  0
  5  6  1  0
  6  7  1  0
  7  8  1  0
  8  9  1  0
  9 10  2  0
 10 11  1  0
 11 12  2  0
 12 13  1  0
 13 14  2  0
 14 15  1  0
 15 16  2  0
 16 17  1  0
 16 18  1  0
 18 19  2  0
 19 20  1  0
 20 21  2  0
 21 22  1  0
 22 23  1  0
 23 24  1  0
 24 25  1  0
 25 26  1  0
 26 27  1  0
 26 28  1  0
 28 29  1  0
 29 30  1  0
 30 31  1  0
 30 32  1  0
 30 33  1  0
 33 34  1  0
 22 35  2  0
 35  9  1  0
 15 10  1  0
 35 18  1  0
 34 26  1  0
  1 36  1  0
  1 37  1  0
  1 38  1  0
  2 39  1  0
  3 40  1  0
  3 41  1  0
  3 42  1  0
  4 43  1  0
  5 44  1  0
  5 45  1  0
  6 46  1  0
  6 47  1  0
  7 48  1  0
  7 49  1  0
  8 50  1  0
  8 51  1  0
 11 52  1  0
 12 53  1  0
 13 54  1  0
 14 55  1  0
 17 56  1  0
 17 57  1  0
 17 58  1  0
 19 59  1  0
 20 60  1  0
 21 61  1  0
 24 62  1  0
 24 63  1  0
 25 64  1  0
 25 65  1  0
 27 66  1  0
 27 67  1  0
 27 68  1  0
 28 69  1  0
 28 70  1  0
 29 71  1  0
 29 72  1  0
 31 73  1  0
 31 74  1  0
 31 75  1  0
 32 76  1  0
 32 77  1  0
 32 78  1  0
 33 79  1  0
 33 80  1  0
 34 81  1  0
 34 82  1  0
M  CHG  4   8   1  16   1  26   1  30   1
M  END
>  <UniqueID>  (7) 
7

>  <SMILES>  (7) 
CC(C)NCCC[NH2+]c1c2ccccc2[n+](C)c2cccc(OCC[N+]3(C)CC[N+](C)(C)CC3)c12

>  <Energy>  (7) 
177.27076631914292

>  <Genealogy>  (7) 
CC(C)NCCC[NH2+]c1c2ccccc2[n+](C)c2cccc(OCC[N+]3(C)CC[N+](C)(C)CC3)c12 (protonated)
CC(C)NCCC[NH2+]c1c2ccccc2[n+](C)c2cccc(OCC[N+]3(C)CC[N+](C)(C)CC3)c12 (3D coordinates assigned)
CC(C)NCCC[NH2+]c1c2ccccc2[n+](C)c2cccc(OCC[N+]3(C)CC[N+](C)(C)CC3)c12 (nonaromatic ring conformer: 177.27076631914292 kcal/mol)

>  <smiles>  (7) 
CC(C)NCCCNc1c2ccccc2[n+](C)c2cccc(OCC[N+]3(C)CC[N+](C)(C)CC3)c12

>  <score_type>  (7) 
oracle

>  <origin>  (7) 
adg

>  <m_score__min__energy>  (7) 
-7.8499999999999996

>  <m_primary>  (7) 
energy

$$$$
7:0
     RDKit          3D

 71 75  0  0  0  0  0  0  0  0999 V2000
    0.5670   22.3070  -27.2530 C   0  0  0  0  0  0  0  0  0  0  0  0
    1.3720   23.6050  -27.2560 C   0  0  0  0  0  0  0  0  0  0  0  0
    0.7510   24.6300  -28.1100 N   0  0  0  0  0  0  0  0  0  0  0  0
   -0.1150   25.5870  -27.3970 C   0  0  0  0  0  0  0  0  0  0  0  0
   -1.5890   25.6010  -27.8590 C   0  0  0  0  0  0  0  0  0  0  0  0
   -2.2250   24.2090  -27.9680 C   0  0  0  0  0  0  0  0  0  0  0  0
   -1.7500   23.5290  -29.1180 O   0  0  0  0  0  0  0  0  0  0  0  0
   -2.7570   23.4150  -30.1060 C   0  0  0  0  0  0  0  0  0  0  0  0
   -3.9870   24.2340  -29.7220 C   0  0  0  0  0  0  0  0  0  0  0  0
   -4.3550   25.0600  -30.8100 O   0  0  0  0  0  0  0  0  0  0  0  0
   -5.7560   25.0330  -31.0150 C   0  0  0  0  0  0  0  0  0  0  0  0
   -6.2840   23.5970  -31.1210 C   0  0  0  0  0  0  0  0  0  0  0  0
   -6.0310   23.0390  -32.4490 N   0  0  0  0  0  0  0  0  0  0  0  0
   -5.8890   21.6250  -32.6590 C   0  0  0  0  0  0  0  0  0  0  0  0
   -4.6650   21.0810  -33.0510 C   0  0  0  0  0  0  0  0  0  0  0  0
   -4.5450   19.7340  -33.3240 C   0  0  0  0  0  0  0  0  0  0  0  0
   -5.6280   18.8930  -33.3400 N   0  0  0  0  0  0  0  0  0  0  0  0
   -5.5310   17.5720  -33.9800 C   0  0  0  0  0  0  0  0  0  0  0  0
   -6.8240   19.3550  -32.8120 C   0  0  0  0  0  0  0  0  0  0  0  0
   -7.9120   18.4840  -32.5670 C   0  0  0  0  0  0  0  0  0  0  0  0
   -9.1200   18.9690  -32.0640 C   0  0  0  0  0  0  0  0  0  0  0  0
   -9.2720   20.3220  -31.7820 C   0  0  0  0  0  0  0  0  0  0  0  0
   -8.2120   21.2040  -31.9850 C   0  0  0  0  0  0  0  0  0  0  0  0
   -6.9790   20.7420  -32.4890 C   0  0  0  0  0  0  0  0  0  0  0  0
   -3.1550   19.5240  -33.7370 C   0  0  0  0  0  0  0  0  0  0  0  0
   -2.4810   18.3500  -33.8850 N   0  0  0  0  0  0  0  0  0  0  0  0
   -1.1550   18.3680  -34.2160 C   0  0  0  0  0  0  0  0  0  0  0  0
   -0.4560   17.1670  -34.4140 C   0  0  0  0  0  0  0  0  0  0  0  0
    0.9010   17.1890  -34.7500 C   0  0  0  0  0  0  0  0  0  0  0  0
    1.5710   18.4070  -34.8890 C   0  0  0  0  0  0  0  0  0  0  0  0
    0.8950   19.6120  -34.6860 C   0  0  0  0  0  0  0  0  0  0  0  0
   -0.4700   19.6060  -34.3470 C   0  0  0  0  0  0  0  0  0  0  0  0
   -1.1840   20.7930  -34.0960 C   0  0  0  0  0  0  0  0  0  0  0  0
   -0.6170   21.9190  -34.1440 O   0  0  0  0  0  0  0  0  0  0  0  0
   -2.5040   20.7060  -33.7840 N   0  0  0  0  0  0  0  0  0  0  0  0
   -3.3780   21.7950  -33.3540 C   0  0  0  0  0  0  0  0  0  0  0  0
    0.3748   21.9971  -26.2152 H   0  0  0  0  0  0  0  0  0  0  0  0
   -0.3901   22.4679  -27.7708 H   0  0  0  0  0  0  0  0  0  0  0  0
    1.1365   21.5212  -27.7708 H   0  0  0  0  0  0  0  0  0  0  0  0
    1.4336   23.9884  -26.2268 H   0  0  0  0  0  0  0  0  0  0  0  0
    2.3729   23.3862  -27.6564 H   0  0  0  0  0  0  0  0  0  0  0  0
    0.2060   24.1610  -28.8680 H   0  0  0  0  0  0  0  0  0  0  0  0
   -0.0950   25.3339  -26.3267 H   0  0  0  0  0  0  0  0  0  0  0  0
    0.2860   26.5876  -27.6159 H   0  0  0  0  0  0  0  0  0  0  0  0
   -2.1718   26.1914  -27.1366 H   0  0  0  0  0  0  0  0  0  0  0  0
   -1.6003   26.0347  -28.8698 H   0  0  0  0  0  0  0  0  0  0  0  0
   -1.9699   23.6244  -27.0718 H   0  0  0  0  0  0  0  0  0  0  0  0
   -3.3158   24.3244  -28.0510 H   0  0  0  0  0  0  0  0  0  0  0  0
   -2.3642   23.7822  -31.0656 H   0  0  0  0  0  0  0  0  0  0  0  0
   -3.0493   22.3580  -30.1918 H   0  0  0  0  0  0  0  0  0  0  0  0
   -4.8182   23.5564  -29.4771 H   0  0  0  0  0  0  0  0  0  0  0  0
   -3.7563   24.8581  -28.8461 H   0  0  0  0  0  0  0  0  0  0  0  0
   -6.2502   25.5334  -30.1692 H   0  0  0  0  0  0  0  0  0  0  0  0
   -5.9752   25.5506  -31.9605 H   0  0  0  0  0  0  0  0  0  0  0  0
   -5.7812   22.9730  -30.3675 H   0  0  0  0  0  0  0  0  0  0  0  0
   -7.3704   23.6110  -30.9494 H   0  0  0  0  0  0  0  0  0  0  0  0
   -6.1050   23.6610  -33.2860 H   0  0  0  0  0  0  0  0  0  0  0  0
   -5.4738   16.7928  -33.2057 H   0  0  0  0  0  0  0  0  0  0  0  0
   -6.4191   17.4020  -34.6064 H   0  0  0  0  0  0  0  0  0  0  0  0
   -4.6276   17.5335  -34.6064 H   0  0  0  0  0  0  0  0  0  0  0  0
   -7.8040   17.4094  -32.7760 H   0  0  0  0  0  0  0  0  0  0  0  0
   -9.9569   18.2768  -31.8896 H   0  0  0  0  0  0  0  0  0  0  0  0
  -10.2318   20.6975  -31.3975 H   0  0  0  0  0  0  0  0  0  0  0  0
   -8.3387   22.2710  -31.7497 H   0  0  0  0  0  0  0  0  0  0  0  0
   -2.9480   17.4360  -33.7060 H   0  0  0  0  0  0  0  0  0  0  0  0
   -0.9778   16.2049  -34.3044 H   0  0  0  0  0  0  0  0  0  0  0  0
    1.4428   16.2444  -34.9054 H   0  0  0  0  0  0  0  0  0  0  0  0
    2.6371   18.4169  -35.1599 H   0  0  0  0  0  0  0  0  0  0  0  0
    1.4307   20.5669  -34.7914 H   0  0  0  0  0  0  0  0  0  0  0  0
   -2.9799   22.2937  -32.4580 H   0  0  0  0  0  0  0  0  0  0  0  0
   -3.4857   22.5923  -34.1042 H   0  0  0  0  0  0  0  0  0  0  0  0
  1  2  1  0
  2  3  1  0
  3  4  1  0
  4  5  1  0
  5  6  1  0
  6  7  1  0
  7  8  1  0
  8  9  1  0
  9 10  1  0
 10 11  1  0
 11 12  1  0
 12 13  1  0
 13 14  1  0
 14 15  2  0
 15 16  1  0
 16 17  2  0
 17 18  1  0
 17 19  1  0
 19 20  2  0
 20 21  1  0
 21 22  2  0
 22 23  1  0
 23 24  2  0
 16 25  1  0
 25 26  2  0
 26 27  1  0
 27 28  2  0
 28 29  1  0
 29 30  2  0
 30 31  1  0
 31 32  2  0
 32 33  1  0
 33 34  2  0
 33 35  1  0
 35 36  1  0
 24 14  1  0
 35 25  1  0
 36 15  1  0
 24 19  1  0
 32 27  1  0
  1 37  1  0
  1 38  1  0
  1 39  1  0
  2 40  1  0
  2 41  1  0
  3 42  1  0
  4 43  1  0
  4 44  1  0
  5 45  1  0
  5 46  1  0
  6 47  1  0
  6 48  1  0
  8 49  1  0
  8 50  1  0
  9 51  1  0
  9 52  1  0
 11 53  1  0
 11 54  1  0
 12 55  1  0
 12 56  1  0
 13 57  1  0
 18 58  1  0
 18 59  1  0
 18 60  1  0
 20 61  1  0
 21 62  1  0
 22 63  1  0
 23 64  1  0
 26 65  1  0
 28 66  1  0
 29 67  1  0
 30 68  1  0
 31 69  1  0
 36 70  1  0
 36 71  1  0
M  CHG  2  17   1  26   1
M  END
>  <UniqueID>  (8) 
8

>  <SMILES>  (8) 
CCNCCCOCCOCCNc1c2c([n+](C)c3ccccc13)-c1[nH+]c3ccccc3c(=O)n1C2

>  <Energy>  (8) 
124.7642685504589

>  <Genealogy>  (8) 
CCNCCCOCCOCCNc1c2c([n+](C)c3ccccc13)-c1[nH+]c3ccccc3c(=O)n1C2 (protonated)
CCNCCCOCCOCCNc1c2c([n+](C)c3ccccc13)-c1[nH+]c3ccccc3c(=O)n1C2 (3D coordinates assigned)
CCNCCCOCCOCCNc1c2c([n+](C)c3ccccc13)-c1[nH+]c3ccccc3c(=O)n1C2 (nonaromatic ring conformer: 124.7642685504589 kcal/mol)

>  <smiles>  (8) 
CCNCCCOCCOCCNc1c2c([n+](C)c3ccccc13)-c1nc3ccccc3c(=O)n1C2

>  <score_type>  (8) 
oracle

>  <origin>  (8) 
adg

>  <m_score__min__energy>  (8) 
-9.6099999999999994

>  <m_primary>  (8) 
energy

$$$$
8:0
     RDKit          3D

 67 70  0  0  0  0  0  0  0  0999 V2000
   -3.6510   14.9330  -34.8150 C   0  0  0  0  0  0  0  0  0  0  0  0
   -3.4630   16.4310  -35.1140 C   0  0  0  0  0  0  0  0  0  0  0  0
   -4.0490   17.3760  -34.1170 N   0  0  0  0  0  0  0  0  0  0  0  0
   -5.3990   17.9030  -34.4520 C   0  0  0  0  0  0  0  0  0  0  0  0
   -6.5200   17.0780  -33.8080 C   0  0  0  0  0  0  0  0  0  0  0  0
   -3.1110   18.4510  -33.7010 C   0  0  0  0  0  0  0  0  0  0  0  0
   -3.7660   19.8240  -33.4670 C   0  0  0  0  0  0  0  0  0  0  0  0
   -4.3360   19.9050  -32.1190 N   0  0  0  0  0  0  0  0  0  0  0  0
   -5.0770   21.0540  -31.6680 C   0  0  0  0  0  0  0  0  0  0  0  0
   -6.4790   21.0770  -31.7550 C   0  0  0  0  0  0  0  0  0  0  0  0
   -7.1860   20.0230  -32.3740 C   0  0  0  0  0  0  0  0  0  0  0  0
   -8.5780   20.0090  -32.3840 C   0  0  0  0  0  0  0  0  0  0  0  0
   -9.2880   21.0410  -31.7830 C   0  0  0  0  0  0  0  0  0  0  0  0
   -8.6120   22.1170  -31.2090 C   0  0  0  0  0  0  0  0  0  0  0  0
   -7.1940   22.1850  -31.2280 C   0  0  0  0  0  0  0  0  0  0  0  0
   -6.5120   23.2880  -30.7470 N   0  0  0  0  0  0  0  0  0  0  0  0
   -7.2430   24.5470  -30.4760 C   0  0  0  0  0  0  0  0  0  0  0  0
   -5.1420   23.2320  -30.5640 C   0  0  0  0  0  0  0  0  0  0  0  0
   -4.4400   24.2420  -29.8560 C   0  0  0  0  0  0  0  0  0  0  0  0
   -3.0400   24.2080  -29.7300 C   0  0  0  0  0  0  0  0  0  0  0  0
   -2.3180   25.2000  -29.0500 O   0  0  0  0  0  0  0  0  0  0  0  0
   -1.4610   24.9590  -27.9370 C   0  0  0  0  0  0  0  0  0  0  0  0
   -2.2290   25.2020  -26.6410 C   0  0  0  0  0  0  0  0  0  0  0  0
   -1.4470   26.0510  -25.7340 N   0  0  0  0  0  0  0  0  0  0  0  0
   -1.1530   25.6070  -24.4730 C   0  0  0  0  0  0  0  0  0  0  0  0
   -0.4340   26.4140  -23.5870 C   0  0  0  0  0  0  0  0  0  0  0  0
   -0.0260   27.6830  -23.9940 C   0  0  0  0  0  0  0  0  0  0  0  0
   -0.3410   28.1320  -25.2760 C   0  0  0  0  0  0  0  0  0  0  0  0
   -1.0610   27.3010  -26.1370 C   0  0  0  0  0  0  0  0  0  0  0  0
   -2.3300   23.1550  -30.2980 C   0  0  0  0  0  0  0  0  0  0  0  0
   -2.9960   22.1250  -30.9540 C   0  0  0  0  0  0  0  0  0  0  0  0
   -4.4010   22.1320  -31.0730 C   0  0  0  0  0  0  0  0  0  0  0  0
   -3.6707   14.7760  -33.7264 H   0  0  0  0  0  0  0  0  0  0  0  0
   -4.5995   14.5880  -35.2524 H   0  0  0  0  0  0  0  0  0  0  0  0
   -2.8172   14.3643  -35.2524 H   0  0  0  0  0  0  0  0  0  0  0  0
   -2.3826   16.6297  -35.1716 H   0  0  0  0  0  0  0  0  0  0  0  0
   -4.0053   16.6164  -36.0529 H   0  0  0  0  0  0  0  0  0  0  0  0
   -4.1730   16.8100  -33.2440 H   0  0  0  0  0  0  0  0  0  0  0  0
   -5.4728   18.9406  -34.0945 H   0  0  0  0  0  0  0  0  0  0  0  0
   -5.5223   17.8455  -35.5436 H   0  0  0  0  0  0  0  0  0  0  0  0
   -6.4373   17.1389  -32.7128 H   0  0  0  0  0  0  0  0  0  0  0  0
   -7.4958   17.4751  -34.1246 H   0  0  0  0  0  0  0  0  0  0  0  0
   -6.4310   16.0283  -34.1246 H   0  0  0  0  0  0  0  0  0  0  0  0
   -2.6265   18.1388  -32.7641 H   0  0  0  0  0  0  0  0  0  0  0  0
   -2.4031   18.5832  -34.5325 H   0  0  0  0  0  0  0  0  0  0  0  0
   -3.0066   20.6109  -33.5855 H   0  0  0  0  0  0  0  0  0  0  0  0
   -4.5744   19.9590  -34.2007 H   0  0  0  0  0  0  0  0  0  0  0  0
   -4.2700   19.0720  -31.4910 H   0  0  0  0  0  0  0  0  0  0  0  0
   -6.6305   19.2037  -32.8538 H   0  0  0  0  0  0  0  0  0  0  0  0
   -9.1160   19.1805  -32.8679 H   0  0  0  0  0  0  0  0  0  0  0  0
  -10.3873   21.0091  -31.7599 H   0  0  0  0  0  0  0  0  0  0  0  0
   -9.1864   22.9259  -30.7340 H   0  0  0  0  0  0  0  0  0  0  0  0
   -7.3287   24.6946  -29.3893 H   0  0  0  0  0  0  0  0  0  0  0  0
   -6.6949   25.3918  -30.9187 H   0  0  0  0  0  0  0  0  0  0  0  0
   -8.2484   24.4898  -30.9187 H   0  0  0  0  0  0  0  0  0  0  0  0
   -5.0025   25.0681  -29.3965 H   0  0  0  0  0  0  0  0  0  0  0  0
   -1.1086   23.9173  -27.9645 H   0  0  0  0  0  0  0  0  0  0  0  0
   -0.5982   25.6396  -27.9848 H   0  0  0  0  0  0  0  0  0  0  0  0
   -3.1819   25.7004  -26.8724 H   0  0  0  0  0  0  0  0  0  0  0  0
   -2.4171   24.2352  -26.1512 H   0  0  0  0  0  0  0  0  0  0  0  0
   -1.4851   24.6078  -24.1547 H   0  0  0  0  0  0  0  0  0  0  0  0
   -0.1922   26.0508  -22.5772 H   0  0  0  0  0  0  0  0  0  0  0  0
    0.5420   28.3275  -23.3070 H   0  0  0  0  0  0  0  0  0  0  0  0
   -0.0250   29.1325  -25.6064 H   0  0  0  0  0  0  0  0  0  0  0  0
   -1.3198   27.6535  -27.1463 H   0  0  0  0  0  0  0  0  0  0  0  0
   -1.2324   23.1368  -30.2277 H   0  0  0  0  0  0  0  0  0  0  0  0
   -2.4189   21.2939  -31.3857 H   0  0  0  0  0  0  0  0  0  0  0  0
  1  2  1  0
  2  3  1  0
  3  4  1  0
  4  5  1  0
  3  6  1  0
  6  7  1  0
  7  8  1  0
  8  9  1  0
  9 10  2  0
 10 11  1  0
 11 12  2  0
 12 13  1  0
 13 14  2  0
 14 15  1  0
 15 16  2  0
 16 17  1  0
 16 18  1  0
 18 19  2  0
 19 20  1  0
 20 21  1  0
 21 22  1  0
 22 23  1  0
 23 24  1  0
 24 25  2  0
 25 26  1  0
 26 27  2  0
 27 28  1  0
 28 29  2  0
 20 30  2  0
 30 31  1  0
 31 32  2  0
 32  9  1  0
 15 10  1  0
 32 18  1  0
 29 24  1  0
  1 33  1  0
  1 34  1  0
  1 35  1  0
  2 36  1  0
  2 37  1  0
  3 38  1  0
  4 39  1  0
  4 40  1  0
  5 41  1  0
  5 42  1  0
  5 43  1  0
  6 44  1  0
  6 45  1  0
  7 46  1  0
  7 47  1  0
  8 48  1  0
 11 49  1  0
 12 50  1  0
 13 51  1  0
 14 52  1  0
 17 53  1  0
 17 54  1  0
 17 55  1  0
 19 56  1  0
 22 57  1  0
 22 58  1  0
 23 59  1  0
 23 60  1  0
 25 61  1  0
 26 62  1  0
 27 63  1  0
 28 64  1  0
 29 65  1  0
 30 66  1  0
 31 67  1  0
M  CHG  3   3   1  16   1  24   1
M  END
>  <UniqueID>  (9) 
9

>  <SMILES>  (9) 
CC[NH+](CC)CCNc1c2ccccc2[n+](C)c2cc(OCC[n+]3ccccc3)ccc12

>  <Energy>  (9) 
100.77132483660402

>  <Genealogy>  (9) 
CC[NH+](CC)CCNc1c2ccccc2[n+](C)c2cc(OCC[n+]3ccccc3)ccc12 (protonated)
CC[NH+](CC)CCNc1c2ccccc2[n+](C)c2cc(OCC[n+]3ccccc3)ccc12 (3D coordinates assigned)
CC[NH+](CC)CCNc1c2ccccc2[n+](C)c2cc(OCC[n+]3ccccc3)ccc12 (optimized conformer: 100.77132483660402 kcal/mol)

>  <smiles>  (9) 
CCN(CC)CCNc1c2ccccc2[n+](C)c2cc(OCC[n+]3ccccc3)ccc12

>  <score_type>  (9) 
oracle

>  <origin>  (9) 
adg

>  <m_score__min__energy>  (9) 
-7.1200000000000001

>  <m_primary>  (9) 
energy

$$$$
9:0
     RDKit          3D

 48 49  0  0  0  0  0  0  0  0999 V2000
   -2.6010   20.7170  -33.7900 C   0  0  0  0  0  0  0  0  0  0  0  0
   -2.9600   19.3230  -33.2870 C   0  0  0  0  0  0  0  0  0  0  0  0
   -3.9200   18.7260  -34.1420 O   0  0  0  0  0  0  0  0  0  0  0  0
   -3.7110   17.3300  -34.2550 C   0  0  0  0  0  0  0  0  0  0  0  0
   -4.9830   16.5730  -33.8580 C   0  0  0  0  0  0  0  0  0  0  0  0
   -6.2310   17.2150  -34.4890 C   0  0  0  0  0  0  0  0  0  0  0  0
   -6.5150   18.5470  -33.9250 N   0  0  0  0  0  0  0  0  0  0  0  0
   -7.1310   18.4600  -32.5870 C   0  0  0  0  0  0  0  0  0  0  0  0
   -8.0420   19.6710  -32.2960 C   0  0  2  0  0  0  0  0  0  0  0  0
   -8.7520   20.0190  -33.4580 O   0  0  0  0  0  0  0  0  0  0  0  0
   -7.2380   20.8650  -31.8310 C   0  0  0  0  0  0  0  0  0  0  0  0
   -7.8730   22.0930  -31.5910 C   0  0  0  0  0  0  0  0  0  0  0  0
   -7.1470   23.1910  -31.1250 C   0  0  0  0  0  0  0  0  0  0  0  0
   -5.7650   23.0850  -30.8810 C   0  0  0  0  0  0  0  0  0  0  0  0
   -5.0080   24.1800  -30.4020 C   0  0  0  0  0  0  0  0  0  0  0  0
   -5.7520   25.7510  -30.0860 Cl  0  0  0  0  0  0  0  0  0  0  0  0
   -3.6290   24.0370  -30.1650 C   0  0  0  0  0  0  0  0  0  0  0  0
   -2.9090   25.1450  -29.6870 O   0  0  0  0  0  0  0  0  0  0  0  0
   -1.9970   25.1060  -28.5940 C   0  0  0  0  0  0  0  0  0  0  0  0
   -3.0070   22.7980  -30.4080 C   0  0  0  0  0  0  0  0  0  0  0  0
   -3.7480   21.7150  -30.8790 C   0  0  0  0  0  0  0  0  0  0  0  0
   -5.1210   21.8440  -31.1180 C   0  0  0  0  0  0  0  0  0  0  0  0
   -5.8600   20.7480  -31.5880 C   0  0  0  0  0  0  0  0  0  0  0  0
   -2.4294   21.3835  -32.9319 H   0  0  0  0  0  0  0  0  0  0  0  0
   -1.6876   20.6626  -34.4005 H   0  0  0  0  0  0  0  0  0  0  0  0
   -3.4271   21.1105  -34.4005 H   0  0  0  0  0  0  0  0  0  0  0  0
   -2.0539   18.6996  -33.2667 H   0  0  0  0  0  0  0  0  0  0  0  0
   -3.3826   19.4046  -32.2747 H   0  0  0  0  0  0  0  0  0  0  0  0
   -3.4510   17.0841  -35.2952 H   0  0  0  0  0  0  0  0  0  0  0  0
   -2.8914   17.0333  -33.5841 H   0  0  0  0  0  0  0  0  0  0  0  0
   -4.9027   15.5311  -34.2014 H   0  0  0  0  0  0  0  0  0  0  0  0
   -5.0856   16.6132  -32.7635 H   0  0  0  0  0  0  0  0  0  0  0  0
   -6.0687   17.3158  -35.5723 H   0  0  0  0  0  0  0  0  0  0  0  0
   -7.0919   16.5653  -34.2730 H   0  0  0  0  0  0  0  0  0  0  0  0
   -5.6380   19.1180  -33.8830 H   0  0  0  0  0  0  0  0  0  0  0  0
   -7.1840   19.0290  -34.5690 H   0  0  0  0  0  0  0  0  0  0  0  0
   -7.7322   17.5405  -32.5308 H   0  0  0  0  0  0  0  0  0  0  0  0
   -6.3245   18.4512  -31.8391 H   0  0  0  0  0  0  0  0  0  0  0  0
   -8.7398   19.3857  -31.4950 H   0  0  0  0  0  0  0  0  0  0  0  0
   -9.1870   19.1900  -33.7910 H   0  0  0  0  0  0  0  0  0  0  0  0
   -8.9535   22.1917  -31.7718 H   0  0  0  0  0  0  0  0  0  0  0  0
   -7.6600   24.1476  -30.9470 H   0  0  0  0  0  0  0  0  0  0  0  0
   -2.5575   25.1300  -27.6478 H   0  0  0  0  0  0  0  0  0  0  0  0
   -1.4029   24.1816  -28.6450 H   0  0  0  0  0  0  0  0  0  0  0  0
   -1.3262   25.9763  -28.6450 H   0  0  0  0  0  0  0  0  0  0  0  0
   -1.9284   22.6833  -30.2250 H   0  0  0  0  0  0  0  0  0  0  0  0
   -3.2498   20.7519  -31.0642 H   0  0  0  0  0  0  0  0  0  0  0  0
   -5.3549   19.7875  -31.7679 H   0  0  0  0  0  0  0  0  0  0  0  0
  1  2  1  0
  2  3  1  0
  3  4  1  0
  4  5  1  0
  5  6  1  0
  6  7  1  0
  7  8  1  0
  8  9  1  0
  9 10  1  0
  9 11  1  0
 11 12  2  0
 12 13  1  0
 13 14  2  0
 14 15  1  0
 15 16  1  0
 15 17  2  0
 17 18  1  0
 18 19  1  0
 17 20  1  0
 20 21  2  0
 21 22  1  0
 22 23  2  0
 23 11  1  0
 22 14  1  0
  1 24  1  0
  1 25  1  0
  1 26  1  0
  2 27  1  0
  2 28  1  0
  4 29  1  0
  4 30  1  0
  5 31  1  0
  5 32  1  0
  6 33  1  0
  6 34  1  0
  7 35  1  0
  7 36  1  0
  8 37  1  0
  8 38  1  0
  9 39  1  1
 10 40  1  0
 12 41  1  0
 13 42  1  0
 19 43  1  0
 19 44  1  0
 19 45  1  0
 20 46  1  0
 21 47  1  0
 23 48  1  0
M  CHG  1   7   1
M  END
>  <UniqueID>  (10) 
10

>  <SMILES>  (10) 
CCOCCC[NH2+]C[C@H](O)c1ccc2c(Cl)c(OC)ccc2c1

>  <Energy>  (10) 
48.78845594223067

>  <Genealogy>  (10) 
CCOCCC[NH2+]CC(O)c1ccc2c(Cl)c(OC)ccc2c1 (protonated)
CCOCCC[NH2+]C[C@H](O)c1ccc2c(Cl)c(OC)ccc2c1 (chirality)
CCOCCC[NH2+]C[C@H](O)c1ccc2c(Cl)c(OC)ccc2c1 (3D coordinates assigned)
CCOCCC[NH2+]C[C@H](O)c1ccc2c(Cl)c(OC)ccc2c1 (optimized conformer: 48.78845594223067 kcal/mol)

>  <smiles>  (10) 
CCOCCCNCC(O)c1ccc2c(Cl)c(OC)ccc2c1

>  <score_type>  (10) 
oracle

>  <origin>  (10) 
adg

>  <m_score__min__energy>  (10) 
-7.3200000000000003

>  <m_primary>  (10) 
energy

$$$$
10:0
     RDKit          3D

 52 56  0  0  0  0  0  0  0  0999 V2000
    1.4690   24.8610  -24.9000 C   0  0  0  0  0  0  0  0  0  0  0  0
    0.5040   25.8670  -24.4690 N   0  0  0  0  0  0  0  0  0  0  0  0
    0.6420   26.7200  -23.4340 C   0  0  0  0  0  0  0  0  0  0  0  0
   -0.4190   27.5470  -23.3370 N   0  0  0  0  0  0  0  0  0  0  0  0
   -1.2450   27.2120  -24.3170 N   0  0  0  0  0  0  0  0  0  0  0  0
   -0.6970   26.1880  -24.9970 C   0  0  0  0  0  0  0  0  0  0  0  0
   -1.3330   25.5440  -26.1670 C   0  0  0  0  0  0  0  0  0  0  0  0
   -0.6670   25.5220  -27.4020 C   0  0  0  0  0  0  0  0  0  0  0  0
   -1.2550   24.9130  -28.5120 C   0  0  0  0  0  0  0  0  0  0  0  0
   -2.5250   24.3310  -28.4080 C   0  0  0  0  0  0  0  0  0  0  0  0
   -3.1050   23.6540  -29.5340 N   0  0  0  0  0  0  0  0  0  0  0  0
   -2.5250   22.6880  -30.2960 C   0  0  0  0  0  0  0  0  0  0  0  0
   -1.1340   22.1460  -30.0900 C   0  0  0  0  0  0  0  0  0  0  0  0
   -1.1040   21.1510  -28.9980 N   0  0  0  0  0  0  0  0  0  0  0  0
   -0.1320   21.5190  -27.9380 C   0  0  0  0  0  0  0  0  0  0  0  0
   -0.8140   21.8320  -26.5960 C   0  0  0  0  0  0  0  0  0  0  0  0
   -1.6120   20.7580  -26.1240 O   0  0  0  0  0  0  0  0  0  0  0  0
   -2.3670   20.1120  -27.1420 C   0  0  0  0  0  0  0  0  0  0  0  0
   -2.4570   20.8850  -28.4680 C   0  0  0  0  0  0  0  0  0  0  0  0
   -3.3720   22.3010  -31.3330 C   0  0  0  0  0  0  0  0  0  0  0  0
   -4.4980   23.0800  -31.1870 C   0  0  0  0  0  0  0  0  0  0  0  0
   -5.6610   23.1300  -31.9500 C   0  0  0  0  0  0  0  0  0  0  0  0
   -6.6580   24.0450  -31.5680 C   0  0  0  0  0  0  0  0  0  0  0  0
   -6.4720   24.8790  -30.4430 C   0  0  0  0  0  0  0  0  0  0  0  0
   -5.2860   24.8060  -29.6910 C   0  0  0  0  0  0  0  0  0  0  0  0
   -4.3080   23.8910  -30.0960 C   0  0  0  0  0  0  0  0  0  0  0  0
   -3.2040   24.3740  -27.1840 C   0  0  0  0  0  0  0  0  0  0  0  0
   -2.6150   24.9810  -26.0720 C   0  0  0  0  0  0  0  0  0  0  0  0
    1.9236   24.3871  -24.0175 H   0  0  0  0  0  0  0  0  0  0  0  0
    0.9573   24.0970  -25.5037 H   0  0  0  0  0  0  0  0  0  0  0  0
    2.2536   25.3405  -25.5037 H   0  0  0  0  0  0  0  0  0  0  0  0
    1.5081   26.7390  -22.7562 H   0  0  0  0  0  0  0  0  0  0  0  0
   -2.1640   27.6720  -24.5000 H   0  0  0  0  0  0  0  0  0  0  0  0
    0.3251   25.9878  -27.4960 H   0  0  0  0  0  0  0  0  0  0  0  0
   -0.7189   24.8900  -29.4722 H   0  0  0  0  0  0  0  0  0  0  0  0
   -0.7939   21.6678  -31.0204 H   0  0  0  0  0  0  0  0  0  0  0  0
   -0.4717   22.9812  -29.8183 H   0  0  0  0  0  0  0  0  0  0  0  0
    0.5651   20.6807  -27.7923 H   0  0  0  0  0  0  0  0  0  0  0  0
    0.3920   22.4286  -28.2665 H   0  0  0  0  0  0  0  0  0  0  0  0
   -0.0368   22.0481  -25.8482 H   0  0  0  0  0  0  0  0  0  0  0  0
   -1.4777   22.6949  -26.7538 H   0  0  0  0  0  0  0  0  0  0  0  0
   -1.9018   19.1363  -27.3458 H   0  0  0  0  0  0  0  0  0  0  0  0
   -3.3956   20.0317  -26.7604 H   0  0  0  0  0  0  0  0  0  0  0  0
   -3.0223   20.2879  -29.1987 H   0  0  0  0  0  0  0  0  0  0  0  0
   -2.9669   21.8433  -28.2902 H   0  0  0  0  0  0  0  0  0  0  0  0
   -3.1820   21.5379  -32.1021 H   0  0  0  0  0  0  0  0  0  0  0  0
   -5.7958   22.4750  -32.8234 H   0  0  0  0  0  0  0  0  0  0  0  0
   -7.5895   24.1119  -32.1493 H   0  0  0  0  0  0  0  0  0  0  0  0
   -7.2599   25.5899  -30.1535 H   0  0  0  0  0  0  0  0  0  0  0  0
   -5.1319   25.4484  -28.8115 H   0  0  0  0  0  0  0  0  0  0  0  0
   -4.2057   23.9278  -27.0977 H   0  0  0  0  0  0  0  0  0  0  0  0
   -3.1591   25.0178  -25.1167 H   0  0  0  0  0  0  0  0  0  0  0  0
  1  2  1  0
  2  3  1  0
  3  4  2  0
  4  5  1  0
  5  6  2  0
  6  7  1  0
  7  8  2  0
  8  9  1  0
  9 10  2  0
 10 11  1  0
 11 12  1  0
 12 13  1  0
 13 14  1  0
 14 15  1  0
 15 16  1  0
 16 17  1  0
 17 18  1  0
 18 19  1  0
 12 20  2  0
 20 21  1  0
 21 22  2  0
 22 23  1  0
 23 24  2  0
 24 25  1  0
 25 26  2  0
 10 27  1  0
 27 28  2  0
  6  2  1  0
 28  7  1  0
 26 11  1  0
 19 14  1  0
 26 21  1  0
  1 29  1  0
  1 30  1  0
  1 31  1  0
  3 32  1  0
  5 33  1  0
  8 34  1  0
  9 35  1  0
 13 36  1  0
 13 37  1  0
 15 38  1  0
 15 39  1  0
 16 40  1  0
 16 41  1  0
 18 42  1  0
 18 43  1  0
 19 44  1  0
 19 45  1  0
 20 46  1  0
 22 47  1  0
 23 48  1  0
 24 49  1  0
 25 50  1  0
 27 51  1  0
 28 52  1  0
M  CHG  1   5   1
M  END
>  <UniqueID>  (11) 
11

>  <SMILES>  (11) 
Cn1cn[nH+]c1-c1ccc(-n2c(CN3CCOCC3)cc3ccccc32)cc1

>  <Energy>  (11) 
148.00996611867336

>  <Genealogy>  (11) 
Cn1cn[nH+]c1-c1ccc(-n2c(CN3CCOCC3)cc3ccccc32)cc1 (protonated)
Cn1cn[nH+]c1-c1ccc(-n2c(CN3CCOCC3)cc3ccccc32)cc1 (3D coordinates assigned)
Cn1cn[nH+]c1-c1ccc(-n2c(CN3CCOCC3)cc3ccccc32)cc1 (nonaromatic ring conformer: 148.00996611867336 kcal/mol)

>  <smiles>  (11) 
Cn1cnnc1-c1ccc(-n2c(CN3CCOCC3)cc3ccccc32)cc1

>  <score_type>  (11) 
oracle

>  <origin>  (11) 
adg

>  <m_score__min__energy>  (11) 
-8.4299999999999997

>  <m_primary>  (11) 
energy

$$$$
11:0
     RDKit          3D

 53 55  0  0  0  0  0  0  0  0999 V2000
   -1.6770   25.7000  -26.5180 C   0  0  0  0  0  0  0  0  0  0  0  0
   -0.7730   26.1160  -27.6720 C   0  0  0  0  0  0  0  0  0  0  0  0
   -1.3240   25.6380  -28.9500 N   0  0  0  0  0  0  0  0  0  0  0  0
   -1.2130   24.1760  -29.1020 C   0  0  0  0  0  0  0  0  0  0  0  0
   -2.5900   23.4980  -29.1930 C   0  0  0  0  0  0  0  0  0  0  0  0
   -3.7180   24.5280  -29.1670 C   0  0  0  0  0  0  0  0  0  0  0  0
   -3.8880   25.0560  -30.4650 O   0  0  0  0  0  0  0  0  0  0  0  0
   -5.2030   24.8200  -30.9380 C   0  0  0  0  0  0  0  0  0  0  0  0
   -5.4860   23.3170  -30.9810 C   0  0  0  0  0  0  0  0  0  0  0  0
   -5.7270   22.8700  -32.3520 N   0  0  0  0  0  0  0  0  0  0  0  0
   -5.8310   21.4660  -32.6420 C   0  0  0  0  0  0  0  0  0  0  0  0
   -7.0540   20.7950  -32.4680 C   0  0  0  0  0  0  0  0  0  0  0  0
   -8.1960   21.4790  -31.9980 C   0  0  0  0  0  0  0  0  0  0  0  0
   -9.3910   20.8000  -31.7770 C   0  0  0  0  0  0  0  0  0  0  0  0
   -9.4690   19.4320  -32.0110 C   0  0  0  0  0  0  0  0  0  0  0  0
   -8.3610   18.7400  -32.4990 C   0  0  0  0  0  0  0  0  0  0  0  0
   -7.1410   19.4110  -32.7760 C   0  0  0  0  0  0  0  0  0  0  0  0
   -6.0530   18.7490  -33.3170 N   0  0  0  0  0  0  0  0  0  0  0  0
   -6.2250   17.4010  -33.9040 C   0  0  0  0  0  0  0  0  0  0  0  0
   -4.8120   19.3580  -33.3340 C   0  0  0  0  0  0  0  0  0  0  0  0
   -3.6290   18.6340  -33.6290 C   0  0  0  0  0  0  0  0  0  0  0  0
   -2.3890   19.2680  -33.6800 C   0  0  0  0  0  0  0  0  0  0  0  0
   -2.2890   20.6330  -33.4250 C   0  0  0  0  0  0  0  0  0  0  0  0
   -0.7240   21.4230  -33.4910 Cl  0  0  0  0  0  0  0  0  0  0  0  0
   -3.4290   21.3630  -33.0940 C   0  0  0  0  0  0  0  0  0  0  0  0
   -4.6930   20.7400  -33.0300 C   0  0  0  0  0  0  0  0  0  0  0  0
   -1.1810   25.9282  -25.5630 H   0  0  0  0  0  0  0  0  0  0  0  0
   -2.6267   26.2516  -26.5790 H   0  0  0  0  0  0  0  0  0  0  0  0
   -1.8758   24.6198  -26.5790 H   0  0  0  0  0  0  0  0  0  0  0  0
   -0.6979   27.2131  -27.6969 H   0  0  0  0  0  0  0  0  0  0  0  0
    0.2231   25.6735  -27.5238 H   0  0  0  0  0  0  0  0  0  0  0  0
   -0.8260   26.1130  -29.7390 H   0  0  0  0  0  0  0  0  0  0  0  0
   -0.6482   23.9567  -30.0201 H   0  0  0  0  0  0  0  0  0  0  0  0
   -0.6989   23.7810  -28.2134 H   0  0  0  0  0  0  0  0  0  0  0  0
   -2.6472   22.9274  -30.1317 H   0  0  0  0  0  0  0  0  0  0  0  0
   -2.7074   22.8321  -28.3254 H   0  0  0  0  0  0  0  0  0  0  0  0
   -4.6508   24.0453  -28.8401 H   0  0  0  0  0  0  0  0  0  0  0  0
   -3.4659   25.3377  -28.4664 H   0  0  0  0  0  0  0  0  0  0  0  0
   -5.9243   25.3066  -30.2650 H   0  0  0  0  0  0  0  0  0  0  0  0
   -5.2994   25.2331  -31.9529 H   0  0  0  0  0  0  0  0  0  0  0  0
   -4.6198   22.7757  -30.5728 H   0  0  0  0  0  0  0  0  0  0  0  0
   -6.3851   23.1116  -30.3814 H   0  0  0  0  0  0  0  0  0  0  0  0
   -5.4430   23.5040  -33.1320 H   0  0  0  0  0  0  0  0  0  0  0  0
   -8.1410   22.5604  -31.8043 H   0  0  0  0  0  0  0  0  0  0  0  0
  -10.2748   21.3468  -31.4167 H   0  0  0  0  0  0  0  0  0  0  0  0
  -10.4072   18.8939  -31.8107 H   0  0  0  0  0  0  0  0  0  0  0  0
   -8.4335   17.6561  -32.6722 H   0  0  0  0  0  0  0  0  0  0  0  0
   -6.3197   16.6592  -33.0973 H   0  0  0  0  0  0  0  0  0  0  0  0
   -7.1325   17.3847  -34.5254 H   0  0  0  0  0  0  0  0  0  0  0  0
   -5.3507   17.1574  -34.5254 H   0  0  0  0  0  0  0  0  0  0  0  0
   -3.6911   17.5527  -33.8210 H   0  0  0  0  0  0  0  0  0  0  0  0
   -1.4863   18.6880  -33.9225 H   0  0  0  0  0  0  0  0  0  0  0  0
   -3.3421   22.4385  -32.8800 H   0  0  0  0  0  0  0  0  0  0  0  0
  1  2  1  0
  2  3  1  0
  3  4  1  0
  4  5  1  0
  5  6  1  0
  6  7  1  0
  7  8  1  0
  8  9  1  0
  9 10  1  0
 10 11  1  0
 11 12  2  0
 12 13  1  0
 13 14  2  0
 14 15  1  0
 15 16  2  0
 16 17  1  0
 17 18  2  0
 18 19  1  0
 18 20  1  0
 20 21  2  0
 21 22  1  0
 22 23  2  0
 23 24  1  0
 23 25  1  0
 25 26  2  0
 26 11  1  0
 17 12  1  0
 26 20  1  0
  1 27  1  0
  1 28  1  0
  1 29  1  0
  2 30  1  0
  2 31  1  0
  3 32  1  0
  4 33  1  0
  4 34  1  0
  5 35  1  0
  5 36  1  0
  6 37  1  0
  6 38  1  0
  8 39  1  0
  8 40  1  0
  9 41  1  0
  9 42  1  0
 10 43  1  0
 13 44  1  0
 14 45  1  0
 15 46  1  0
 16 47  1  0
 19 48  1  0
 19 49  1  0
 19 50  1  0
 21 51  1  0
 22 52  1  0
 25 53  1  0
M  CHG  1  18   1
M  END
>  <UniqueID>  (12) 
12

>  <SMILES>  (12) 
CCNCCCOCCNc1c2ccccc2[n+](C)c2ccc(Cl)cc12

>  <Energy>  (12) 
73.85064572301403

>  <Genealogy>  (12) 
CCNCCCOCCNc1c2ccccc2[n+](C)c2ccc(Cl)cc12 (3D coordinates assigned)
CCNCCCOCCNc1c2ccccc2[n+](C)c2ccc(Cl)cc12 (optimized conformer: 73.85064572301403 kcal/mol)

>  <smiles>  (12) 
CCNCCCOCCNc1c2ccccc2[n+](C)c2ccc(Cl)cc12

>  <score_type>  (12) 
oracle

>  <origin>  (12) 
adg

>  <m_score__min__energy>  (12) 
-9.2699999999999996

>  <m_primary>  (12) 
energy

$$$$
12:0
     RDKit          3D

 54 58  0  0  0  0  0  0  0  0999 V2000
   -5.9640   18.4890  -34.5680 C   0  0  0  0  0  0  0  0  0  0  0  0
   -6.2730   18.2030  -33.1650 N   0  0  0  0  0  0  0  0  0  0  0  0
   -7.2860   18.6990  -32.4190 C   0  0  0  0  0  0  0  0  0  0  0  0
   -8.4470   19.9600  -32.9610 S   0  0  0  0  0  0  0  0  0  0  0  0
   -9.0310   20.4300  -31.2880 C   0  0  0  0  0  0  0  0  0  0  0  0
   -9.5020   21.8890  -31.2460 C   0  0  0  0  0  0  0  0  0  0  0  0
   -8.4190   22.9210  -31.6290 C   0  0  0  0  0  0  0  0  0  0  0  0
   -7.0050   22.5570  -31.3540 N   0  0  0  0  0  0  0  0  0  0  0  0
   -6.5390   22.7990  -29.9880 C   0  0  0  0  0  0  0  0  0  0  0  0
   -5.0180   22.7800  -30.0290 C   0  0  2  0  0  0  0  0  0  0  0  0
   -4.3230   24.0430  -30.5170 C   0  0  0  0  0  0  0  0  0  0  0  0
   -4.6490   22.9220  -31.4980 C   0  0  1  0  0  0  0  0  0  0  0  0
   -3.5340   22.0270  -31.9640 C   0  0  0  0  0  0  0  0  0  0  0  0
   -3.7220   21.2010  -33.0830 C   0  0  0  0  0  0  0  0  0  0  0  0
   -2.6960   20.3540  -33.5130 C   0  0  0  0  0  0  0  0  0  0  0  0
   -1.4840   20.3130  -32.8170 C   0  0  0  0  0  0  0  0  0  0  0  0
   -1.2990   21.1130  -31.6870 C   0  0  0  0  0  0  0  0  0  0  0  0
   -2.3230   21.9630  -31.2560 C   0  0  0  0  0  0  0  0  0  0  0  0
   -5.9550   23.0000  -32.2780 C   0  0  0  0  0  0  0  0  0  0  0  0
   -7.3560   18.1010  -31.2120 N   0  0  0  0  0  0  0  0  0  0  0  0
   -6.3660   17.2230  -31.1780 N   0  0  0  0  0  0  0  0  0  0  0  0
   -5.7060   17.2860  -32.3510 C   0  0  0  0  0  0  0  0  0  0  0  0
   -4.5560   16.4210  -32.6910 C   0  0  0  0  0  0  0  0  0  0  0  0
   -4.5940   15.0380  -32.4500 C   0  0  0  0  0  0  0  0  0  0  0  0
   -3.4880   14.2510  -32.7820 C   0  0  0  0  0  0  0  0  0  0  0  0
   -2.3900   14.8200  -33.3450 N   0  0  0  0  0  0  0  0  0  0  0  0
   -2.3360   16.1530  -33.6120 C   0  0  0  0  0  0  0  0  0  0  0  0
   -3.4180   16.9770  -33.2940 C   0  0  0  0  0  0  0  0  0  0  0  0
   -5.1577   19.2353  -34.6211 H   0  0  0  0  0  0  0  0  0  0  0  0
   -5.6411   17.5641  -35.0682 H   0  0  0  0  0  0  0  0  0  0  0  0
   -6.8612   18.8824  -35.0682 H   0  0  0  0  0  0  0  0  0  0  0  0
   -9.8688   19.7757  -31.0050 H   0  0  0  0  0  0  0  0  0  0  0  0
   -8.1919   20.3180  -30.5856 H   0  0  0  0  0  0  0  0  0  0  0  0
  -10.3442   21.9988  -31.9451 H   0  0  0  0  0  0  0  0  0  0  0  0
   -9.7801   22.0988  -30.2026 H   0  0  0  0  0  0  0  0  0  0  0  0
   -8.5081   23.1084  -32.7092 H   0  0  0  0  0  0  0  0  0  0  0  0
   -8.6174   23.7912  -30.9860 H   0  0  0  0  0  0  0  0  0  0  0  0
   -6.8955   23.7778  -29.6347 H   0  0  0  0  0  0  0  0  0  0  0  0
   -6.9236   22.0321  -29.2995 H   0  0  0  0  0  0  0  0  0  0  0  0
   -4.8112   22.1357  -29.1618 H   0  0  0  0  0  0  0  0  0  0  0  0
   -4.8762   24.9927  -30.5631 H   0  0  0  0  0  0  0  0  0  0  0  0
   -3.4108   24.5885  -30.2336 H   0  0  0  0  0  0  0  0  0  0  0  0
   -4.6798   21.2200  -33.6236 H   0  0  0  0  0  0  0  0  0  0  0  0
   -2.8424   19.7194  -34.3995 H   0  0  0  0  0  0  0  0  0  0  0  0
   -0.6756   19.6503  -33.1596 H   0  0  0  0  0  0  0  0  0  0  0  0
   -0.3478   21.0746  -31.1359 H   0  0  0  0  0  0  0  0  0  0  0  0
   -2.1791   22.5835  -30.3592 H   0  0  0  0  0  0  0  0  0  0  0  0
   -6.1441   24.0333  -32.6044 H   0  0  0  0  0  0  0  0  0  0  0  0
   -5.9227   22.3733  -33.1815 H   0  0  0  0  0  0  0  0  0  0  0  0
   -6.1560   16.5990  -30.3670 H   0  0  0  0  0  0  0  0  0  0  0  0
   -5.4876   14.5777  -32.0033 H   0  0  0  0  0  0  0  0  0  0  0  0
   -3.5063   13.1686  -32.5871 H   0  0  0  0  0  0  0  0  0  0  0  0
   -1.4379   16.5829  -34.0795 H   0  0  0  0  0  0  0  0  0  0  0  0
   -3.3781   18.0539  -33.5147 H   0  0  0  0  0  0  0  0  0  0  0  0
  1  2  1  0
  2  3  1  0
  3  4  1  0
  4  5  1  0
  5  6  1  0
  6  7  1  0
  7  8  1  0
  8  9  1  0
  9 10  1  0
 10 11  1  0
 11 12  1  0
 12 13  1  6
 13 14  2  0
 14 15  1  0
 15 16  2  0
 16 17  1  0
 17 18  2  0
 12 19  1  0
  3 20  2  0
 20 21  1  0
 21 22  2  0
 22 23  1  0
 23 24  2  0
 24 25  1  0
 25 26  2  0
 26 27  1  0
 27 28  2  0
 22  2  1  0
 28 23  1  0
 19  8  1  0
 12 10  1  0
 18 13  1  0
  1 29  1  0
  1 30  1  0
  1 31  1  0
  5 32  1  0
  5 33  1  0
  6 34  1  0
  6 35  1  0
  7 36  1  0
  7 37  1  0
  9 38  1  0
  9 39  1  0
 10 40  1  1
 11 41  1  0
 11 42  1  0
 14 43  1  0
 15 44  1  0
 16 45  1  0
 17 46  1  0
 18 47  1  0
 19 48  1  0
 19 49  1  0
 21 50  1  0
 24 51  1  0
 25 52  1  0
 27 53  1  0
 28 54  1  0
M  CHG  1  21   1
M  END
>  <UniqueID>  (13) 
13

>  <SMILES>  (13) 
Cn1c(SCCCN2C[C@@H]3C[C@]3(c3ccccc3)C2)n[nH+]c1-c1ccncc1

>  <Energy>  (13) 
374.32630518273953

>  <Genealogy>  (13) 
Cn1c(SCCCN2CC3CC3(c3ccccc3)C2)n[nH+]c1-c1ccncc1 (protonated)
Cn1c(SCCCN2C[C@@H]3C[C@]3(c3ccccc3)C2)n[nH+]c1-c1ccncc1 (chirality)
Cn1c(SCCCN2C[C@@H]3C[C@]3(c3ccccc3)C2)n[nH+]c1-c1ccncc1 (3D coordinates assigned)
Cn1c(SCCCN2C[C@@H]3C[C@]3(c3ccccc3)C2)n[nH+]c1-c1ccncc1 (nonaromatic ring conformer: 374.32630518273953 kcal/mol)

>  <smiles>  (13) 
Cn1c(SCCCN2CC3CC3(c3ccccc3)C2)nnc1-c1ccncc1

>  <score_type>  (13) 
oracle

>  <origin>  (13) 
adg

>  <m_score__min__energy>  (13) 
-9.3300000000000001

>  <m_primary>  (13) 
energy

$$$$
13:0
     RDKit          3D

 46 49  0  0  0  0  0  0  0  0999 V2000
   -0.6880   23.9220  -25.7850 C   0  0  0  0  0  0  0  0  0  0  0  0
   -1.1720   24.1260  -27.1900 C   0  0  0  0  0  0  0  0  0  0  0  0
   -1.7900   23.1870  -27.9860 C   0  0  0  0  0  0  0  0  0  0  0  0
   -2.0550   23.8200  -29.1580 C   0  0  0  0  0  0  0  0  0  0  0  0
   -1.6330   25.0980  -29.1080 N   0  0  0  0  0  0  0  0  0  0  0  0
   -1.0860   25.2730  -27.9100 N   0  0  0  0  0  0  0  0  0  0  0  0
   -0.5200   26.5420  -27.4650 C   0  0  0  0  0  0  0  0  0  0  0  0
   -2.7850   23.1320  -30.2810 C   0  0  2  0  0  0  0  0  0  0  0  0
   -4.2500   23.5430  -30.4190 C   0  0  0  0  0  0  0  0  0  0  0  0
   -4.7870   24.5550  -29.5910 C   0  0  0  0  0  0  0  0  0  0  0  0
   -6.1190   24.9480  -29.7110 C   0  0  0  0  0  0  0  0  0  0  0  0
   -6.9440   24.3410  -30.6520 C   0  0  0  0  0  0  0  0  0  0  0  0
   -6.4490   23.3210  -31.4640 C   0  0  0  0  0  0  0  0  0  0  0  0
   -5.1130   22.8820  -31.3390 C   0  0  0  0  0  0  0  0  0  0  0  0
   -4.6010   21.7720  -32.2350 C   0  0  0  0  0  0  0  0  0  0  0  0
   -5.6340   21.2580  -33.0760 O   0  0  0  0  0  0  0  0  0  0  0  0
   -6.5520   20.2690  -32.6930 C   0  0  0  0  0  0  0  0  0  0  0  0
   -6.1190   18.9370  -32.6600 C   0  0  0  0  0  0  0  0  0  0  0  0
   -6.9970   17.9140  -32.2890 C   0  0  0  0  0  0  0  0  0  0  0  0
   -8.3170   18.2170  -31.9430 C   0  0  0  0  0  0  0  0  0  0  0  0
   -8.7600   19.5430  -31.9730 C   0  0  0  0  0  0  0  0  0  0  0  0
   -7.8850   20.5680  -32.3450 C   0  0  0  0  0  0  0  0  0  0  0  0
   -2.6530   21.7090  -30.1810 O   0  0  0  0  0  0  0  0  0  0  0  0
   -3.0170   21.1900  -28.8990 C   0  0  0  0  0  0  0  0  0  0  0  0
   -2.2100   21.8090  -27.7840 C   0  0  0  0  0  0  0  0  0  0  0  0
   -1.9780   21.1900  -26.7110 O   0  0  0  0  0  0  0  0  0  0  0  0
   -1.4649   24.2494  -25.0784 H   0  0  0  0  0  0  0  0  0  0  0  0
   -0.4709   22.8558  -25.6231 H   0  0  0  0  0  0  0  0  0  0  0  0
    0.2267   24.5111  -25.6231 H   0  0  0  0  0  0  0  0  0  0  0  0
   -0.5066   26.5720  -26.3655 H   0  0  0  0  0  0  0  0  0  0  0  0
    0.5069   26.6395  -27.8470 H   0  0  0  0  0  0  0  0  0  0  0  0
   -1.1336   27.3712  -27.8470 H   0  0  0  0  0  0  0  0  0  0  0  0
   -2.2977   23.4731  -31.2063 H   0  0  0  0  0  0  0  0  0  0  0  0
   -4.1444   25.0394  -28.8411 H   0  0  0  0  0  0  0  0  0  0  0  0
   -6.5185   25.7398  -29.0602 H   0  0  0  0  0  0  0  0  0  0  0  0
   -7.9896   24.6664  -30.7560 H   0  0  0  0  0  0  0  0  0  0  0  0
   -7.1073   22.8529  -32.2107 H   0  0  0  0  0  0  0  0  0  0  0  0
   -3.7907   22.1669  -32.8654 H   0  0  0  0  0  0  0  0  0  0  0  0
   -4.2377   20.9535  -31.5962 H   0  0  0  0  0  0  0  0  0  0  0  0
   -5.0802   18.6941  -32.9281 H   0  0  0  0  0  0  0  0  0  0  0  0
   -6.6490   16.8707  -32.2694 H   0  0  0  0  0  0  0  0  0  0  0  0
   -9.0069   17.4128  -31.6473 H   0  0  0  0  0  0  0  0  0  0  0  0
   -9.7997   19.7802  -31.7032 H   0  0  0  0  0  0  0  0  0  0  0  0
   -8.2374   21.6098  -32.3662 H   0  0  0  0  0  0  0  0  0  0  0  0
   -4.0828   21.3973  -28.7224 H   0  0  0  0  0  0  0  0  0  0  0  0
   -2.8150   20.1087  -28.9024 H   0  0  0  0  0  0  0  0  0  0  0  0
  1  2  1  0
  2  3  2  0
  3  4  1  0
  4  5  2  0
  5  6  1  0
  6  7  1  0
  4  8  1  0
  8  9  1  0
  9 10  2  0
 10 11  1  0
 11 12  2  0
 12 13  1  0
 13 14  2  0
 14 15  1  0
 15 16  1  0
 16 17  1  0
 17 18  2  0
 18 19  1  0
 19 20  2  0
 20 21  1  0
 21 22  2  0
  8 23  1  0
 23 24  1  0
 24 25  1  0
 25 26  2  0
  6  2  1  0
 14  9  1  0
 22 17  1  0
 25  3  1  0
  1 27  1  0
  1 28  1  0
  1 29  1  0
  7 30  1  0
  7 31  1  0
  7 32  1  0
  8 33  1  6
 10 34  1  0
 11 35  1  0
 12 36  1  0
 13 37  1  0
 15 38  1  0
 15 39  1  0
 18 40  1  0
 19 41  1  0
 20 42  1  0
 21 43  1  0
 22 44  1  0
 24 45  1  0
 24 46  1  0
M  END
>  <UniqueID>  (14) 
14

>  <SMILES>  (14) 
Cc1c2c(nn1C)[C@H](c1ccccc1COc1ccccc1)OCC2=O

>  <Energy>  (14) 
96.24316679266153

>  <Genealogy>  (14) 
Cc1c2c(nn1C)[C@H](c1ccccc1COc1ccccc1)OCC2=O (chirality)
Cc1c2c(nn1C)[C@H](c1ccccc1COc1ccccc1)OCC2=O (3D coordinates assigned)
Cc1c2c(nn1C)[C@H](c1ccccc1COc1ccccc1)OCC2=O (nonaromatic ring conformer: 96.24316679266153 kcal/mol)

>  <smiles>  (14) 
Cc1c2c(nn1C)C(c1ccccc1COc1ccccc1)OCC2=O

>  <score_type>  (14) 
oracle

>  <origin>  (14) 
adg

>  <m_score__min__energy>  (14) 
-9.0500000000000007

>  <m_primary>  (14) 
energy

$$$$
14:0
     RDKit          3D

 46 47  0  0  0  0  0  0  0  0999 V2000
   -2.8280   21.0100  -29.6730 C   0  0  0  0  0  0  0  0  0  0  0  0
   -1.8980   21.8330  -30.5570 C   0  0  0  0  0  0  0  0  0  0  0  0
   -2.2270   23.2080  -30.4740 O   0  0  0  0  0  0  0  0  0  0  0  0
   -2.5880   23.5730  -29.1540 C   0  0  0  0  0  0  0  0  0  0  0  0
   -3.7930   24.5160  -29.1740 C   0  0  0  0  0  0  0  0  0  0  0  0
   -3.9530   25.0760  -30.4630 O   0  0  0  0  0  0  0  0  0  0  0  0
   -5.3230   25.2450  -30.7660 C   0  0  0  0  0  0  0  0  0  0  0  0
   -5.7720   24.1620  -31.7460 C   0  0  0  0  0  0  0  0  0  0  0  0
   -4.9490   22.9580  -31.6080 N   0  0  0  0  0  0  0  0  0  0  0  0
   -5.2940   21.7000  -32.2180 C   0  0  0  0  0  0  0  0  0  0  0  0
   -4.3340   21.0050  -32.9520 C   0  0  0  0  0  0  0  0  0  0  0  0
   -4.6600   19.8010  -33.5650 C   0  0  0  0  0  0  0  0  0  0  0  0
   -5.9140   19.2660  -33.4640 N   0  0  0  0  0  0  0  0  0  0  0  0
   -6.1530   17.9810  -34.1520 C   0  0  0  0  0  0  0  0  0  0  0  0
   -4.9080   17.5370  -34.9150 C   0  0  0  0  0  0  0  0  0  0  0  0
   -6.9010   19.9380  -32.7640 C   0  0  0  0  0  0  0  0  0  0  0  0
   -8.2240   19.4390  -32.6690 C   0  0  0  0  0  0  0  0  0  0  0  0
   -9.1940   20.1150  -31.9310 C   0  0  0  0  0  0  0  0  0  0  0  0
   -8.8780   21.2980  -31.2710 C   0  0  0  0  0  0  0  0  0  0  0  0
   -7.5900   21.8230  -31.3570 C   0  0  0  0  0  0  0  0  0  0  0  0
   -6.5960   21.1700  -32.1130 C   0  0  0  0  0  0  0  0  0  0  0  0
   -2.6013   21.2106  -28.6155 H   0  0  0  0  0  0  0  0  0  0  0  0
   -3.8721   21.2853  -29.8828 H   0  0  0  0  0  0  0  0  0  0  0  0
   -2.6817   19.9402  -29.8828 H   0  0  0  0  0  0  0  0  0  0  0  0
   -0.8595   21.6881  -30.2245 H   0  0  0  0  0  0  0  0  0  0  0  0
   -2.0107   21.5014  -31.5997 H   0  0  0  0  0  0  0  0  0  0  0  0
   -2.8453   22.6676  -28.5847 H   0  0  0  0  0  0  0  0  0  0  0  0
   -1.7390   24.0876  -28.6804 H   0  0  0  0  0  0  0  0  0  0  0  0
   -4.6996   23.9530  -28.9072 H   0  0  0  0  0  0  0  0  0  0  0  0
   -3.6272   25.3261  -28.4485 H   0  0  0  0  0  0  0  0  0  0  0  0
   -5.9139   25.1689  -29.8413 H   0  0  0  0  0  0  0  0  0  0  0  0
   -5.4755   26.2343  -31.2220 H   0  0  0  0  0  0  0  0  0  0  0  0
   -6.8222   23.9055  -31.5429 H   0  0  0  0  0  0  0  0  0  0  0  0
   -5.6617   24.5475  -32.7703 H   0  0  0  0  0  0  0  0  0  0  0  0
   -4.0610   23.0310  -31.0650 H   0  0  0  0  0  0  0  0  0  0  0  0
   -3.3158   21.4106  -33.0463 H   0  0  0  0  0  0  0  0  0  0  0  0
   -3.8923   19.2669  -34.1441 H   0  0  0  0  0  0  0  0  0  0  0  0
   -6.4116   17.2149  -33.4062 H   0  0  0  0  0  0  0  0  0  0  0  0
   -6.9782   18.1115  -34.8676 H   0  0  0  0  0  0  0  0  0  0  0  0
   -4.1205   17.2562  -34.2001 H   0  0  0  0  0  0  0  0  0  0  0  0
   -5.1548   16.6715  -35.5474 H   0  0  0  0  0  0  0  0  0  0  0  0
   -4.5514   18.3634  -35.5474 H   0  0  0  0  0  0  0  0  0  0  0  0
   -8.4892   18.5046  -33.1852 H   0  0  0  0  0  0  0  0  0  0  0  0
  -10.2152   19.7107  -31.8701 H   0  0  0  0  0  0  0  0  0  0  0  0
   -9.6456   21.8197  -30.6806 H   0  0  0  0  0  0  0  0  0  0  0  0
   -7.3466   22.7569  -30.8292 H   0  0  0  0  0  0  0  0  0  0  0  0
  1  2  1  0
  2  3  1  0
  3  4  1  0
  4  5  1  0
  5  6  1  0
  6  7  1  0
  7  8  1  0
  8  9  1  0
  9 10  1  0
 10 11  2  0
 11 12  1  0
 12 13  2  0
 13 14  1  0
 14 15  1  0
 13 16  1  0
 16 17  2  0
 17 18  1  0
 18 19  2  0
 19 20  1  0
 20 21  2  0
 21 10  1  0
 21 16  1  0
  1 22  1  0
  1 23  1  0
  1 24  1  0
  2 25  1  0
  2 26  1  0
  4 27  1  0
  4 28  1  0
  5 29  1  0
  5 30  1  0
  7 31  1  0
  7 32  1  0
  8 33  1  0
  8 34  1  0
  9 35  1  0
 11 36  1  0
 12 37  1  0
 14 38  1  0
 14 39  1  0
 15 40  1  0
 15 41  1  0
 15 42  1  0
 17 43  1  0
 18 44  1  0
 19 45  1  0
 20 46  1  0
M  CHG  1  13   1
M  END
>  <UniqueID>  (15) 
15

>  <SMILES>  (15) 
CCOCCOCCNc1cc[n+](CC)c2ccccc12

>  <Energy>  (15) 
53.300836741242364

>  <Genealogy>  (15) 
CCOCCOCCNc1cc[n+](CC)c2ccccc12 (3D coordinates assigned)
CCOCCOCCNc1cc[n+](CC)c2ccccc12 (optimized conformer: 53.300836741242364 kcal/mol)

>  <smiles>  (15) 
CCOCCOCCNc1cc[n+](CC)c2ccccc12

>  <score_type>  (15) 
oracle

>  <origin>  (15) 
adg

>  <m_score__min__energy>  (15) 
-7.8099999999999996

>  <m_primary>  (15) 
energy

$$$$
15:0
     RDKit          3D

 62 64  0  0  0  0  0  0  0  0999 V2000
    1.7970   24.9920  -35.7960 C   0  0  0  0  0  0  0  0  0  0  0  0
    0.4500   24.3320  -36.1010 C   0  0  0  0  0  0  0  0  0  0  0  0
    0.2870   23.0410  -35.4120 N   0  0  0  0  0  0  0  0  0  0  0  0
    1.0770   21.9510  -36.0200 C   0  0  0  0  0  0  0  0  0  0  0  0
    0.2520   20.6640  -36.2200 C   0  0  0  0  0  0  0  0  0  0  0  0
   -0.2290   20.0660  -34.8920 C   0  0  0  0  0  0  0  0  0  0  0  0
   -1.2890   20.9190  -34.3210 N   0  0  0  0  0  0  0  0  0  0  0  0
   -0.9770   21.3990  -32.9650 C   0  0  0  0  0  0  0  0  0  0  0  0
   -2.1180   21.1100  -31.9780 C   0  0  0  0  0  0  0  0  0  0  0  0
   -3.4080   21.8570  -32.3480 C   0  0  0  0  0  0  0  0  0  0  0  0
   -4.0700   21.2210  -33.5000 N   0  0  0  0  0  0  0  0  0  0  0  0
   -5.2680   20.5060  -33.0840 C   0  0  0  0  0  0  0  0  0  0  0  0
   -6.3890   21.2360  -32.5910 C   0  0  0  0  0  0  0  0  0  0  0  0
   -6.3200   22.6320  -32.3420 C   0  0  0  0  0  0  0  0  0  0  0  0
   -7.4360   23.3490  -31.9200 C   0  0  0  0  0  0  0  0  0  0  0  0
   -8.6510   22.7040  -31.7500 C   0  0  0  0  0  0  0  0  0  0  0  0
   -8.7470   21.3320  -31.9630 C   0  0  0  0  0  0  0  0  0  0  0  0
   -7.6140   20.5620  -32.3400 C   0  0  0  0  0  0  0  0  0  0  0  0
   -7.7000   19.1940  -32.4880 N   0  0  0  0  0  0  0  0  0  0  0  0
   -8.8790   18.4700  -31.9550 C   0  0  0  0  0  0  0  0  0  0  0  0
   -6.6720   18.4900  -33.0790 C   0  0  0  0  0  0  0  0  0  0  0  0
   -6.8730   17.1600  -33.5200 C   0  0  0  0  0  0  0  0  0  0  0  0
   -5.8250   16.3960  -34.0080 C   0  0  0  0  0  0  0  0  0  0  0  0
   -4.5440   16.9170  -34.0400 C   0  0  0  0  0  0  0  0  0  0  0  0
   -4.2960   18.2440  -33.6500 C   0  0  0  0  0  0  0  0  0  0  0  0
   -2.9710   18.7090  -33.5890 O   0  0  0  0  0  0  0  0  0  0  0  0
   -1.8430   17.9500  -33.1650 C   0  0  0  0  0  0  0  0  0  0  0  0
   -5.3920   19.0910  -33.2720 C   0  0  0  0  0  0  0  0  0  0  0  0
    1.9341   25.0592  -34.7066 H   0  0  0  0  0  0  0  0  0  0  0  0
    2.6076   24.3890  -36.2311 H   0  0  0  0  0  0  0  0  0  0  0  0
    1.8173   26.0021  -36.2311 H   0  0  0  0  0  0  0  0  0  0  0  0
   -0.3554   25.0083  -35.7787 H   0  0  0  0  0  0  0  0  0  0  0  0
    0.4082   24.1413  -37.1835 H   0  0  0  0  0  0  0  0  0  0  0  0
   -0.7300   22.8040  -35.3480 H   0  0  0  0  0  0  0  0  0  0  0  0
    1.4478   22.2880  -36.9993 H   0  0  0  0  0  0  0  0  0  0  0  0
    1.9036   21.7147  -35.3338 H   0  0  0  0  0  0  0  0  0  0  0  0
   -0.6256   20.8996  -36.8399 H   0  0  0  0  0  0  0  0  0  0  0  0
    0.9013   19.9214  -36.7068 H   0  0  0  0  0  0  0  0  0  0  0  0
   -0.6270   19.0558  -35.0681 H   0  0  0  0  0  0  0  0  0  0  0  0
    0.6150   20.0114  -34.1886 H   0  0  0  0  0  0  0  0  0  0  0  0
   -1.3960   21.7630  -34.9330 H   0  0  0  0  0  0  0  0  0  0  0  0
   -0.0648   20.8964  -32.6110 H   0  0  0  0  0  0  0  0  0  0  0  0
   -0.8361   22.4889  -33.0133 H   0  0  0  0  0  0  0  0  0  0  0  0
   -2.3219   20.0291  -31.9788 H   0  0  0  0  0  0  0  0  0  0  0  0
   -1.8003   21.4566  -30.9835 H   0  0  0  0  0  0  0  0  0  0  0  0
   -4.0920   21.8435  -31.4866 H   0  0  0  0  0  0  0  0  0  0  0  0
   -3.1506   22.8921  -32.6171 H   0  0  0  0  0  0  0  0  0  0  0  0
   -4.3030   21.9440  -34.2180 H   0  0  0  0  0  0  0  0  0  0  0  0
   -3.4200   20.6010  -34.0280 H   0  0  0  0  0  0  0  0  0  0  0  0
   -5.3647   23.1580  -32.4856 H   0  0  0  0  0  0  0  0  0  0  0  0
   -7.3536   24.4278  -31.7214 H   0  0  0  0  0  0  0  0  0  0  0  0
   -9.5398   23.2768  -31.4466 H   0  0  0  0  0  0  0  0  0  0  0  0
   -9.7196   20.8338  -31.8369 H   0  0  0  0  0  0  0  0  0  0  0  0
   -8.8529   18.4860  -30.8554 H   0  0  0  0  0  0  0  0  0  0  0  0
   -9.7994   18.9588  -32.3071 H   0  0  0  0  0  0  0  0  0  0  0  0
   -8.8594   17.4280  -32.3071 H   0  0  0  0  0  0  0  0  0  0  0  0
   -7.8819   16.7240  -33.4744 H   0  0  0  0  0  0  0  0  0  0  0  0
   -6.0119   15.3743  -34.3703 H   0  0  0  0  0  0  0  0  0  0  0  0
   -3.7088   16.2844  -34.3750 H   0  0  0  0  0  0  0  0  0  0  0  0
   -1.8088   17.9270  -32.0658 H   0  0  0  0  0  0  0  0  0  0  0  0
   -1.9259   16.9232  -33.5509 H   0  0  0  0  0  0  0  0  0  0  0  0
   -0.9231   18.4136  -33.5509 H   0  0  0  0  0  0  0  0  0  0  0  0
  1  2  1  0
  2  3  1  0
  3  4  1  0
  4  5  1  0
  5  6  1  0
  6  7  1  0
  7  8  1  0
  8  9  1  0
  9 10  1  0
 10 11  1  0
 11 12  1  0
 12 13  2  0
 13 14  1  0
 14 15  2  0
 15 16  1  0
 16 17  2  0
 17 18  1  0
 18 19  2  0
 19 20  1  0
 19 21  1  0
 21 22  2  0
 22 23  1  0
 23 24  2  0
 24 25  1  0
 25 26  1  0
 26 27  1  0
 25 28  2  0
 28 12  1  0
 18 13  1  0
 28 21  1  0
  1 29  1  0
  1 30  1  0
  1 31  1  0
  2 32  1  0
  2 33  1  0
  3 34  1  0
  4 35  1  0
  4 36  1  0
  5 37  1  0
  5 38  1  0
  6 39  1  0
  6 40  1  0
  7 41  1  0
  8 42  1  0
  8 43  1  0
  9 44  1  0
  9 45  1  0
 10 46  1  0
 10 47  1  0
 11 48  1  0
 11 49  1  0
 14 50  1  0
 15 51  1  0
 16 52  1  0
 17 53  1  0
 20 54  1  0
 20 55  1  0
 20 56  1  0
 22 57  1  0
 23 58  1  0
 24 59  1  0
 27 60  1  0
 27 61  1  0
 27 62  1  0
M  CHG  2  11   1  19   1
M  END
>  <UniqueID>  (16) 
16

>  <SMILES>  (16) 
CCNCCCNCCC[NH2+]c1c2ccccc2[n+](C)c2cccc(OC)c12

>  <Energy>  (16) 
91.75746367171637

>  <Genealogy>  (16) 
CCNCCCNCCC[NH2+]c1c2ccccc2[n+](C)c2cccc(OC)c12 (protonated)
CCNCCCNCCC[NH2+]c1c2ccccc2[n+](C)c2cccc(OC)c12 (3D coordinates assigned)
CCNCCCNCCC[NH2+]c1c2ccccc2[n+](C)c2cccc(OC)c12 (optimized conformer: 91.75746367171637 kcal/mol)

>  <smiles>  (16) 
CCNCCCNCCCNc1c2ccccc2[n+](C)c2cccc(OC)c12

>  <score_type>  (16) 
oracle

>  <origin>  (16) 
adg

>  <m_score__min__energy>  (16) 
-7.96

>  <m_primary>  (16) 
energy

$$$$
16:0
     RDKit          3D

 72 75  0  0  0  0  0  0  0  0999 V2000
   -0.8920   21.5220  -27.4520 C   0  0  0  0  0  0  0  0  0  0  0  0
   -1.6350   20.7700  -28.4820 N   0  0  0  0  0  0  0  0  0  0  0  0
   -2.7440   20.0430  -27.8450 C   0  0  0  0  0  0  0  0  0  0  0  0
   -0.7490   19.8200  -29.1910 C   0  0  0  0  0  0  0  0  0  0  0  0
   -0.7590   20.0760  -30.7020 C   0  0  0  0  0  0  0  0  0  0  0  0
   -2.0940   20.5480  -31.1140 N   0  0  0  0  0  0  0  0  0  0  0  0
   -2.1050   21.1400  -32.4620 C   0  0  0  0  0  0  0  0  0  0  0  0
   -3.5130   21.5830  -32.8720 C   0  0  0  0  0  0  0  0  0  0  0  0
   -4.4930   21.2340  -31.8450 N   0  0  0  0  0  0  0  0  0  0  0  0
   -5.7130   20.5600  -32.1900 C   0  0  0  0  0  0  0  0  0  0  0  0
   -5.6740   19.1980  -32.5380 C   0  0  0  0  0  0  0  0  0  0  0  0
   -4.4480   18.5520  -32.8170 C   0  0  0  0  0  0  0  0  0  0  0  0
   -4.4190   17.2100  -33.1920 C   0  0  0  0  0  0  0  0  0  0  0  0
   -5.6050   16.4940  -33.3060 C   0  0  0  0  0  0  0  0  0  0  0  0
   -6.8240   17.1070  -33.0190 C   0  0  0  0  0  0  0  0  0  0  0  0
   -6.8810   18.4600  -32.5950 C   0  0  0  0  0  0  0  0  0  0  0  0
   -8.0710   19.0580  -32.2320 N   0  0  0  0  0  0  0  0  0  0  0  0
   -9.2580   18.2200  -31.9470 C   0  0  0  0  0  0  0  0  0  0  0  0
   -8.1480   20.4340  -32.1260 C   0  0  0  0  0  0  0  0  0  0  0  0
   -9.4000   21.0900  -32.0390 C   0  0  0  0  0  0  0  0  0  0  0  0
   -9.4830   22.4690  -31.9180 C   0  0  0  0  0  0  0  0  0  0  0  0
   -8.3360   23.2440  -31.9300 C   0  0  0  0  0  0  0  0  0  0  0  0
   -7.0680   22.6550  -32.0560 C   0  0  0  0  0  0  0  0  0  0  0  0
   -5.9250   23.5100  -32.2750 N   0  0  0  0  0  0  0  0  0  0  0  0
   -5.5120   24.5480  -31.3240 C   0  0  0  0  0  0  0  0  0  0  0  0
   -5.5590   24.0630  -29.8600 C   0  0  0  0  0  0  0  0  0  0  0  0
   -4.3880   23.2740  -29.4110 N   0  0  0  0  0  0  0  0  0  0  0  0
   -4.2230   23.1250  -27.9520 C   0  0  0  0  0  0  0  0  0  0  0  0
   -3.1880   24.1100  -27.3620 C   0  0  0  0  0  0  0  0  0  0  0  0
   -2.5800   24.9240  -28.3440 O   0  0  0  0  0  0  0  0  0  0  0  0
   -2.0290   24.1100  -29.3550 C   0  0  0  0  0  0  0  0  0  0  0  0
   -3.1400   23.4500  -30.1830 C   0  0  0  0  0  0  0  0  0  0  0  0
   -6.9610   21.2270  -32.1210 C   0  0  0  0  0  0  0  0  0  0  0  0
   -1.2161   21.1940  -26.4533 H   0  0  0  0  0  0  0  0  0  0  0  0
    0.1858   21.3350  -27.5675 H   0  0  0  0  0  0  0  0  0  0  0  0
   -1.0920   22.5975  -27.5675 H   0  0  0  0  0  0  0  0  0  0  0  0
   -2.6448   20.1080  -26.7514 H   0  0  0  0  0  0  0  0  0  0  0  0
   -3.7006   20.4898  -28.1536 H   0  0  0  0  0  0  0  0  0  0  0  0
   -2.7158   18.9876  -28.1536 H   0  0  0  0  0  0  0  0  0  0  0  0
    0.2777   19.9370  -28.8139 H   0  0  0  0  0  0  0  0  0  0  0  0
   -1.1151   18.7990  -29.0080 H   0  0  0  0  0  0  0  0  0  0  0  0
   -0.0078   20.8407  -30.9489 H   0  0  0  0  0  0  0  0  0  0  0  0
   -0.5214   19.1423  -31.2327 H   0  0  0  0  0  0  0  0  0  0  0  0
   -2.4010   21.2920  -30.4450 H   0  0  0  0  0  0  0  0  0  0  0  0
   -1.4382   22.0148  -32.4732 H   0  0  0  0  0  0  0  0  0  0  0  0
   -1.7631   20.3762  -33.1760 H   0  0  0  0  0  0  0  0  0  0  0  0
   -3.5185   22.6732  -33.0185 H   0  0  0  0  0  0  0  0  0  0  0  0
   -3.7846   21.0669  -33.8047 H   0  0  0  0  0  0  0  0  0  0  0  0
   -4.4020   21.6610  -30.8960 H   0  0  0  0  0  0  0  0  0  0  0  0
   -3.5063   19.1148  -32.7372 H   0  0  0  0  0  0  0  0  0  0  0  0
   -3.4573   16.7173  -33.3978 H   0  0  0  0  0  0  0  0  0  0  0  0
   -5.5818   15.4411  -33.6235 H   0  0  0  0  0  0  0  0  0  0  0  0
   -7.7564   16.5326  -33.1229 H   0  0  0  0  0  0  0  0  0  0  0  0
   -9.3889   18.1276  -30.8587 H   0  0  0  0  0  0  0  0  0  0  0  0
  -10.1515   18.6886  -32.3853 H   0  0  0  0  0  0  0  0  0  0  0  0
   -9.1155   17.2212  -32.3853 H   0  0  0  0  0  0  0  0  0  0  0  0
  -10.3243   20.4944  -32.0680 H   0  0  0  0  0  0  0  0  0  0  0  0
  -10.4665   22.9501  -31.8118 H   0  0  0  0  0  0  0  0  0  0  0  0
   -8.4194   24.3371  -31.8395 H   0  0  0  0  0  0  0  0  0  0  0  0
   -5.5930   23.5930  -33.2580 H   0  0  0  0  0  0  0  0  0  0  0  0
   -4.4823   24.8537  -31.5611 H   0  0  0  0  0  0  0  0  0  0  0  0
   -6.2163   25.3875  -31.4200 H   0  0  0  0  0  0  0  0  0  0  0  0
   -5.6395   24.9484  -29.2122 H   0  0  0  0  0  0  0  0  0  0  0  0
   -6.4228   23.3851  -29.7943 H   0  0  0  0  0  0  0  0  0  0  0  0
   -5.1945   23.3047  -27.4684 H   0  0  0  0  0  0  0  0  0  0  0  0
   -3.8551   22.1057  -27.7629 H   0  0  0  0  0  0  0  0  0  0  0  0
   -3.6968   24.7592  -26.6342 H   0  0  0  0  0  0  0  0  0  0  0  0
   -2.3937   23.5113  -26.8923 H   0  0  0  0  0  0  0  0  0  0  0  0
   -1.4041   24.7282  -30.0163 H   0  0  0  0  0  0  0  0  0  0  0  0
   -1.4221   23.3224  -28.8845 H   0  0  0  0  0  0  0  0  0  0  0  0
   -3.3518   24.0823  -31.0579 H   0  0  0  0  0  0  0  0  0  0  0  0
   -2.7874   22.4522  -30.4832 H   0  0  0  0  0  0  0  0  0  0  0  0
  1  2  1  0
  2  3  1  0
  2  4  1  0
  4  5  1  0
  5  6  1  0
  6  7  1  0
  7  8  1  0
  8  9  1  0
  9 10  1  0
 10 11  2  0
 11 12  1  0
 12 13  2  0
 13 14  1  0
 14 15  2  0
 15 16  1  0
 16 17  2  0
 17 18  1  0
 17 19  1  0
 19 20  2  0
 20 21  1  0
 21 22  2  0
 22 23  1  0
 23 24  1  0
 24 25  1  0
 25 26  1  0
 26 27  1  0
 27 28  1  0
 28 29  1  0
 29 30  1  0
 30 31  1  0
 31 32  1  0
 23 33  2  0
 33 10  1  0
 16 11  1  0
 33 19  1  0
 32 27  1  0
  1 34  1  0
  1 35  1  0
  1 36  1  0
  3 37  1  0
  3 38  1  0
  3 39  1  0
  4 40  1  0
  4 41  1  0
  5 42  1  0
  5 43  1  0
  6 44  1  0
  7 45  1  0
  7 46  1  0
  8 47  1  0
  8 48  1  0
  9 49  1  0
 12 50  1  0
 13 51  1  0
 14 52  1  0
 15 53  1  0
 18 54  1  0
 18 55  1  0
 18 56  1  0
 20 57  1  0
 21 58  1  0
 22 59  1  0
 24 60  1  0
 25 61  1  0
 25 62  1  0
 26 63  1  0
 26 64  1  0
 28 65  1  0
 28 66  1  0
 29 67  1  0
 29 68  1  0
 31 69  1  0
 31 70  1  0
 32 71  1  0
 32 72  1  0
M  CHG  1  17   1
M  END
>  <UniqueID>  (17) 
17

>  <SMILES>  (17) 
CN(C)CCNCCNc1c2ccccc2[n+](C)c2cccc(NCCN3CCOCC3)c12

>  <Energy>  (17) 
120.6776555801373

>  <Genealogy>  (17) 
CN(C)CCNCCNc1c2ccccc2[n+](C)c2cccc(NCCN3CCOCC3)c12 (3D coordinates assigned)
CN(C)CCNCCNc1c2ccccc2[n+](C)c2cccc(NCCN3CCOCC3)c12 (nonaromatic ring conformer: 120.6776555801373 kcal/mol)

>  <smiles>  (17) 
CN(C)CCNCCNc1c2ccccc2[n+](C)c2cccc(NCCN3CCOCC3)c12

>  <score_type>  (17) 
oracle

>  <origin>  (17) 
adg

>  <m_score__min__energy>  (17) 
-9.2799999999999994

>  <m_primary>  (17) 
energy

$$$$
17:0
     RDKit          3D

 55 58  0  0  0  0  0  0  0  0999 V2000
   -1.3980   20.4080  -30.2450 C   0  0  0  0  0  0  0  0  0  0  0  0
   -0.9320   21.7380  -30.8360 C   0  0  0  0  0  0  0  0  0  0  0  0
   -1.4940   22.8720  -30.0880 N   0  0  0  0  0  0  0  0  0  0  0  0
   -0.5330   23.3560  -29.0840 C   0  0  0  0  0  0  0  0  0  0  0  0
   -0.8570   24.7930  -28.6440 C   0  0  0  0  0  0  0  0  0  0  0  0
   -2.1680   25.1630  -29.0300 O   0  0  0  0  0  0  0  0  0  0  0  0
   -3.1260   24.5580  -28.1860 C   0  0  0  0  0  0  0  0  0  0  0  0
   -4.1540   23.8220  -29.0460 C   0  0  0  0  0  0  0  0  0  0  0  0
   -3.8730   23.9960  -30.4790 N   0  0  0  0  0  0  0  0  0  0  0  0
   -4.9900   24.6070  -31.2180 C   0  0  0  0  0  0  0  0  0  0  0  0
   -6.0650   23.5880  -31.4990 C   0  0  0  0  0  0  0  0  0  0  0  0
   -7.3690   23.7820  -31.0570 C   0  0  0  0  0  0  0  0  0  0  0  0
   -8.0890   22.6130  -31.1840 C   0  0  0  0  0  0  0  0  0  0  0  0
   -7.2420   21.6560  -31.7060 C   0  0  0  0  0  0  0  0  0  0  0  0
   -7.4540   20.3020  -31.9320 C   0  0  0  0  0  0  0  0  0  0  0  0
   -8.7060   19.7110  -31.6800 C   0  0  0  0  0  0  0  0  0  0  0  0
   -8.9110   18.3590  -31.9310 C   0  0  0  0  0  0  0  0  0  0  0  0
   -7.8800   17.5870  -32.4490 C   0  0  0  0  0  0  0  0  0  0  0  0
   -6.6300   18.1510  -32.7050 C   0  0  0  0  0  0  0  0  0  0  0  0
   -6.3620   19.5230  -32.4230 C   0  0  0  0  0  0  0  0  0  0  0  0
   -5.1150   20.1130  -32.6620 N   0  0  0  0  0  0  0  0  0  0  0  0
   -4.0250   19.3490  -33.0300 C   0  0  0  0  0  0  0  0  0  0  0  0
   -2.8200   19.9300  -33.4220 C   0  0  0  0  0  0  0  0  0  0  0  0
   -2.7040   21.3060  -33.4530 C   0  0  0  0  0  0  0  0  0  0  0  0
   -3.7570   22.0900  -33.0110 C   0  0  0  0  0  0  0  0  0  0  0  0
   -4.9350   21.4910  -32.5260 C   0  0  0  0  0  0  0  0  0  0  0  0
   -5.9650   22.2650  -31.9590 C   0  0  0  0  0  0  0  0  0  0  0  0
   -1.3772   20.4674  -29.1468 H   0  0  0  0  0  0  0  0  0  0  0  0
   -2.4237   20.1966  -30.5814 H   0  0  0  0  0  0  0  0  0  0  0  0
   -0.7285   19.6026  -30.5814 H   0  0  0  0  0  0  0  0  0  0  0  0
    0.1660   21.7864  -30.7916 H   0  0  0  0  0  0  0  0  0  0  0  0
   -1.2784   21.7992  -31.8783 H   0  0  0  0  0  0  0  0  0  0  0  0
   -2.3710   22.5630  -29.6070 H   0  0  0  0  0  0  0  0  0  0  0  0
   -1.7180   23.6480  -30.7560 H   0  0  0  0  0  0  0  0  0  0  0  0
   -0.5706   22.6956  -28.2051 H   0  0  0  0  0  0  0  0  0  0  0  0
    0.4706   23.3499  -29.5344 H   0  0  0  0  0  0  0  0  0  0  0  0
   -0.7726   24.8608  -27.5493 H   0  0  0  0  0  0  0  0  0  0  0  0
   -0.1447   25.4755  -29.1307 H   0  0  0  0  0  0  0  0  0  0  0  0
   -2.6272   23.8432  -27.5150 H   0  0  0  0  0  0  0  0  0  0  0  0
   -3.6293   25.3284  -27.5834 H   0  0  0  0  0  0  0  0  0  0  0  0
   -4.1235   22.7498  -28.8023 H   0  0  0  0  0  0  0  0  0  0  0  0
   -5.1487   24.2407  -28.8334 H   0  0  0  0  0  0  0  0  0  0  0  0
   -3.0580   24.6490  -30.5560 H   0  0  0  0  0  0  0  0  0  0  0  0
   -5.4157   25.4245  -30.6176 H   0  0  0  0  0  0  0  0  0  0  0  0
   -4.6107   24.9935  -32.1755 H   0  0  0  0  0  0  0  0  0  0  0  0
   -7.7676   24.7289  -30.6638 H   0  0  0  0  0  0  0  0  0  0  0  0
   -9.1465   22.4690  -30.9177 H   0  0  0  0  0  0  0  0  0  0  0  0
   -9.5285   20.3232  -31.2815 H   0  0  0  0  0  0  0  0  0  0  0  0
   -9.8888   17.9016  -31.7194 H   0  0  0  0  0  0  0  0  0  0  0  0
   -8.0503   16.5208  -32.6595 H   0  0  0  0  0  0  0  0  0  0  0  0
   -5.8341   17.5241  -33.1335 H   0  0  0  0  0  0  0  0  0  0  0  0
   -4.1100   18.2524  -33.0133 H   0  0  0  0  0  0  0  0  0  0  0  0
   -1.9665   19.2963  -33.7050 H   0  0  0  0  0  0  0  0  0  0  0  0
   -1.7820   21.7759  -33.8260 H   0  0  0  0  0  0  0  0  0  0  0  0
   -3.6723   23.1864  -33.0391 H   0  0  0  0  0  0  0  0  0  0  0  0
  1  2  1  0
  2  3  1  0
  3  4  1  0
  4  5  1  0
  5  6  1  0
  6  7  1  0
  7  8  1  0
  8  9  1  0
  9 10  1  0
 10 11  1  0
 11 12  2  0
 12 13  1  0
 13 14  2  0
 14 15  1  0
 15 16  2  0
 16 17  1  0
 17 18  2  0
 18 19  1  0
 19 20  2  0
 20 21  1  0
 21 22  1  0
 22 23  2  0
 23 24  1  0
 24 25  2  0
 25 26  1  0
 26 27  2  0
 27 11  1  0
 27 14  1  0
 20 15  1  0
 26 21  1  0
  1 28  1  0
  1 29  1  0
  1 30  1  0
  2 31  1  0
  2 32  1  0
  3 33  1  0
  3 34  1  0
  4 35  1  0
  4 36  1  0
  5 37  1  0
  5 38  1  0
  7 39  1  0
  7 40  1  0
  8 41  1  0
  8 42  1  0
  9 43  1  0
 10 44  1  0
 10 45  1  0
 12 46  1  0
 13 47  1  0
 16 48  1  0
 17 49  1  0
 18 50  1  0
 19 51  1  0
 22 52  1  0
 23 53  1  0
 24 54  1  0
 25 55  1  0
M  CHG  1   3   1
M  END
>  <UniqueID>  (18) 
18

>  <SMILES>  (18) 
CC[NH2+]CCOCCNCc1ccc2c3ccccc3n3ccccc3c1-2

>  <Energy>  (18) 
107.65004217872067

>  <Genealogy>  (18) 
CC[NH2+]CCOCCNCc1ccc2c3ccccc3n3ccccc3c1-2 (protonated)
CC[NH2+]CCOCCNCc1ccc2c3ccccc3n3ccccc3c1-2 (3D coordinates assigned)
CC[NH2+]CCOCCNCc1ccc2c3ccccc3n3ccccc3c1-2 (optimized conformer: 107.65004217872067 kcal/mol)

>  <smiles>  (18) 
CCNCCOCCNCc1ccc2c3ccccc3n3ccccc3c1-2

>  <score_type>  (18) 
oracle

>  <origin>  (18) 
adg

>  <m_score__min__energy>  (18) 
-9.8800000000000008

>  <m_primary>  (18) 
energy

$$$$
18:0
     RDKit          3D

 54 56  0  0  0  0  0  0  0  0999 V2000
   -6.1420   25.7790  -29.6890 C   0  0  0  0  0  0  0  0  0  0  0  0
   -4.9550   25.6200  -30.6300 C   0  0  0  0  0  0  0  0  0  0  0  0
   -4.7050   24.1810  -30.8840 N   0  0  0  0  0  0  0  0  0  0  0  0
   -3.3930   23.7930  -30.3320 C   0  0  0  0  0  0  0  0  0  0  0  0
   -5.7640   23.3200  -30.3120 C   0  0  0  0  0  0  0  0  0  0  0  0
   -6.7310   22.7900  -31.3910 C   0  0  0  0  0  0  0  0  0  0  0  0
   -6.0830   22.5460  -32.6980 N   0  0  0  0  0  0  0  0  0  0  0  0
   -5.7580   21.1380  -32.8990 C   0  0  0  0  0  0  0  0  0  0  0  0
   -6.7860   20.1620  -32.8440 C   0  0  0  0  0  0  0  0  0  0  0  0
   -6.4830   18.8000  -33.0520 C   0  0  0  0  0  0  0  0  0  0  0  0
   -5.2080   18.4040  -33.4020 N   0  0  0  0  0  0  0  0  0  0  0  0
   -4.9720   17.0080  -33.8500 C   0  0  0  0  0  0  0  0  0  0  0  0
   -4.8550   16.0530  -32.6600 C   0  0  0  0  0  0  0  0  0  0  0  0
   -4.1650   19.3150  -33.3620 C   0  0  0  0  0  0  0  0  0  0  0  0
   -2.8160   18.9040  -33.5500 C   0  0  0  0  0  0  0  0  0  0  0  0
   -1.7700   19.8180  -33.5450 C   0  0  0  0  0  0  0  0  0  0  0  0
   -2.0270   21.1640  -33.3530 C   0  0  0  0  0  0  0  0  0  0  0  0
   -3.3290   21.6050  -33.1490 C   0  0  0  0  0  0  0  0  0  0  0  0
   -4.4220   20.7010  -33.1280 C   0  0  0  0  0  0  0  0  0  0  0  0
   -7.6470   17.8180  -32.9270 C   0  0  0  0  0  0  0  0  0  0  0  0
   -8.4980   18.1400  -31.6940 C   0  0  0  0  0  0  0  0  0  0  0  0
   -8.9300   19.6180  -31.6160 C   0  0  0  0  0  0  0  0  0  0  0  0
   -8.2580   20.5170  -32.6610 C   0  0  0  0  0  0  0  0  0  0  0  0
   -5.7927   25.7322  -28.6470 H   0  0  0  0  0  0  0  0  0  0  0  0
   -6.6261   26.7500  -29.8702 H   0  0  0  0  0  0  0  0  0  0  0  0
   -6.8645   24.9696  -29.8702 H   0  0  0  0  0  0  0  0  0  0  0  0
   -5.1731   26.1264  -31.5818 H   0  0  0  0  0  0  0  0  0  0  0  0
   -4.0627   26.0677  -30.1681 H   0  0  0  0  0  0  0  0  0  0  0  0
   -3.4390   23.8066  -29.2330 H   0  0  0  0  0  0  0  0  0  0  0  0
   -3.1356   22.7803  -30.6757 H   0  0  0  0  0  0  0  0  0  0  0  0
   -2.6262   24.5028  -30.6757 H   0  0  0  0  0  0  0  0  0  0  0  0
   -5.2910   22.4637  -29.8089 H   0  0  0  0  0  0  0  0  0  0  0  0
   -6.3477   23.9277  -29.6049 H   0  0  0  0  0  0  0  0  0  0  0  0
   -7.1640   21.8434  -31.0353 H   0  0  0  0  0  0  0  0  0  0  0  0
   -7.4946   23.5658  -31.5492 H   0  0  0  0  0  0  0  0  0  0  0  0
   -5.2770   23.1880  -32.8360 H   0  0  0  0  0  0  0  0  0  0  0  0
   -6.7250   22.8550  -33.4620 H   0  0  0  0  0  0  0  0  0  0  0  0
   -5.8121   16.6886  -34.4842 H   0  0  0  0  0  0  0  0  0  0  0  0
   -4.0266   16.9794  -34.4117 H   0  0  0  0  0  0  0  0  0  0  0  0
   -4.9250   16.6247  -31.7228 H   0  0  0  0  0  0  0  0  0  0  0  0
   -5.6694   15.3147  -32.7009 H   0  0  0  0  0  0  0  0  0  0  0  0
   -3.8865   15.5332  -32.7009 H   0  0  0  0  0  0  0  0  0  0  0  0
   -2.5961   17.8371  -33.7029 H   0  0  0  0  0  0  0  0  0  0  0  0
   -0.7366   19.4715  -33.6938 H   0  0  0  0  0  0  0  0  0  0  0  0
   -1.1982   21.8872  -33.3619 H   0  0  0  0  0  0  0  0  0  0  0  0
   -3.5162   22.6787  -33.0005 H   0  0  0  0  0  0  0  0  0  0  0  0
   -8.2754   17.8865  -33.8272 H   0  0  0  0  0  0  0  0  0  0  0  0
   -7.2415   16.8010  -32.8208 H   0  0  0  0  0  0  0  0  0  0  0  0
   -9.4019   17.5137  -31.7212 H   0  0  0  0  0  0  0  0  0  0  0  0
   -7.8770   17.9365  -30.8092 H   0  0  0  0  0  0  0  0  0  0  0  0
  -10.0188   19.6690  -31.7638 H   0  0  0  0  0  0  0  0  0  0  0  0
   -8.6205   19.9898  -30.6281 H   0  0  0  0  0  0  0  0  0  0  0  0
   -8.7769   20.3952  -33.6233 H   0  0  0  0  0  0  0  0  0  0  0  0
   -8.3198   21.5577  -32.3102 H   0  0  0  0  0  0  0  0  0  0  0  0
  1  2  1  0
  2  3  1  0
  3  4  1  0
  3  5  1  0
  5  6  1  0
  6  7  1  0
  7  8  1  0
  8  9  2  0
  9 10  1  0
 10 11  2  0
 11 12  1  0
 12 13  1  0
 11 14  1  0
 14 15  2  0
 15 16  1  0
 16 17  2  0
 17 18  1  0
 18 19  2  0
 10 20  1  0
 20 21  1  0
 21 22  1  0
 22 23  1  0
 19  8  1  0
 23  9  1  0
 19 14  1  0
  1 24  1  0
  1 25  1  0
  1 26  1  0
  2 27  1  0
  2 28  1  0
  4 29  1  0
  4 30  1  0
  4 31  1  0
  5 32  1  0
  5 33  1  0
  6 34  1  0
  6 35  1  0
  7 36  1  0
  7 37  1  0
 12 38  1  0
 12 39  1  0
 13 40  1  0
 13 41  1  0
 13 42  1  0
 15 43  1  0
 16 44  1  0
 17 45  1  0
 18 46  1  0
 20 47  1  0
 20 48  1  0
 21 49  1  0
 21 50  1  0
 22 51  1  0
 22 52  1  0
 23 53  1  0
 23 54  1  0
M  CHG  2   7   1  11   1
M  END
>  <UniqueID>  (19) 
19

>  <SMILES>  (19) 
CCN(C)CC[NH2+]c1c2c([n+](CC)c3ccccc13)CCCC2

>  <Energy>  (19) 
80.6432158937749

>  <Genealogy>  (19) 
CCN(C)CC[NH2+]c1c2c([n+](CC)c3ccccc13)CCCC2 (protonated)
CCN(C)CC[NH2+]c1c2c([n+](CC)c3ccccc13)CCCC2 (3D coordinates assigned)
CCN(C)CC[NH2+]c1c2c([n+](CC)c3ccccc13)CCCC2 (nonaromatic ring conformer: 80.6432158937749 kcal/mol)

>  <smiles>  (19) 
CCN(C)CCNc1c2c([n+](CC)c3ccccc13)CCCC2

>  <score_type>  (19) 
oracle

>  <origin>  (19) 
adg

>  <m_score__min__energy>  (19) 
-7.7199999999999998

>  <m_primary>  (19) 
energy

$$$$
19:0
     RDKit          3D

 53 54  0  0  0  0  0  0  0  0999 V2000
   -6.4940   26.0320  -28.9600 C   0  0  0  0  0  0  0  0  0  0  0  0
   -6.8930   25.1760  -30.1590 C   0  0  0  0  0  0  0  0  0  0  0  0
   -6.1270   23.9190  -30.1780 N   0  0  0  0  0  0  0  0  0  0  0  0
   -4.8510   23.8410  -29.4490 C   0  0  0  0  0  0  0  0  0  0  0  0
   -3.8550   24.8630  -29.9350 C   0  0  0  0  0  0  0  0  0  0  0  0
   -4.1830   25.6440  -30.8660 O   0  0  0  0  0  0  0  0  0  0  0  0
   -2.5010   24.9260  -29.4530 N   0  0  0  0  0  0  0  0  0  0  0  0
   -1.9760   25.3000  -28.1350 C   0  0  0  0  0  0  0  0  0  0  0  0
   -0.4880   24.9610  -27.9740 C   0  0  0  0  0  0  0  0  0  0  0  0
   -2.8370   24.7280  -27.0030 C   0  0  0  0  0  0  0  0  0  0  0  0
   -6.7920   22.6990  -30.5580 C   0  0  0  0  0  0  0  0  0  0  0  0
   -7.9350   22.4430  -30.0890 O   0  0  0  0  0  0  0  0  0  0  0  0
   -6.1530   21.7370  -31.4820 C   0  0  0  0  0  0  0  0  0  0  0  0
   -5.0260   22.1140  -32.2310 C   0  0  0  0  0  0  0  0  0  0  0  0
   -4.4110   21.1990  -33.0890 C   0  0  0  0  0  0  0  0  0  0  0  0
   -4.9040   19.8960  -33.1940 C   0  0  0  0  0  0  0  0  0  0  0  0
   -6.0250   19.5050  -32.4510 C   0  0  0  0  0  0  0  0  0  0  0  0
   -6.6070   17.8410  -32.5340 S   0  0  0  0  0  0  0  0  0  0  0  0
   -5.8810   17.0260  -31.4980 O   0  0  0  0  0  0  0  0  0  0  0  0
   -8.0700   17.8200  -32.1840 O   0  0  0  0  0  0  0  0  0  0  0  0
   -6.3790   17.0990  -34.1030 N   0  0  0  0  0  0  0  0  0  0  0  0
   -5.0250   17.2940  -34.6580 C   0  0  0  0  0  0  0  0  0  0  0  0
   -4.0630   16.1600  -34.2780 C   0  0  0  0  0  0  0  0  0  0  0  0
   -4.6110   14.9050  -34.6150 O   0  0  0  0  0  0  0  0  0  0  0  0
   -5.7640   14.6830  -33.8320 C   0  0  0  0  0  0  0  0  0  0  0  0
   -6.8600   15.7050  -34.1700 C   0  0  0  0  0  0  0  0  0  0  0  0
   -6.6420   20.4250  -31.5920 C   0  0  0  0  0  0  0  0  0  0  0  0
   -6.7423   25.4992  -28.0302 H   0  0  0  0  0  0  0  0  0  0  0  0
   -5.4120   26.2274  -28.9928 H   0  0  0  0  0  0  0  0  0  0  0  0
   -7.0401   26.9863  -28.9928 H   0  0  0  0  0  0  0  0  0  0  0  0
   -7.9664   24.9440  -30.0960 H   0  0  0  0  0  0  0  0  0  0  0  0
   -6.6774   25.7358  -31.0810 H   0  0  0  0  0  0  0  0  0  0  0  0
   -5.0427   24.0135  -28.3797 H   0  0  0  0  0  0  0  0  0  0  0  0
   -4.4230   22.8427  -29.6226 H   0  0  0  0  0  0  0  0  0  0  0  0
   -2.0407   26.3958  -28.0641 H   0  0  0  0  0  0  0  0  0  0  0  0
   -0.2386   24.9042  -26.9042 H   0  0  0  0  0  0  0  0  0  0  0  0
   -0.2789   23.9922  -28.4512 H   0  0  0  0  0  0  0  0  0  0  0  0
    0.1201   25.7436  -28.4512 H   0  0  0  0  0  0  0  0  0  0  0  0
   -2.4050   25.0150  -26.0329 H   0  0  0  0  0  0  0  0  0  0  0  0
   -3.8589   25.1274  -27.0819 H   0  0  0  0  0  0  0  0  0  0  0  0
   -2.8649   23.6312  -27.0819 H   0  0  0  0  0  0  0  0  0  0  0  0
   -4.6258   23.1347  -32.1415 H   0  0  0  0  0  0  0  0  0  0  0  0
   -3.5371   21.5050  -33.6829 H   0  0  0  0  0  0  0  0  0  0  0  0
   -4.4103   19.1751  -33.8622 H   0  0  0  0  0  0  0  0  0  0  0  0
   -5.0972   17.3423  -35.7546 H   0  0  0  0  0  0  0  0  0  0  0  0
   -4.6232   18.2273  -34.2367 H   0  0  0  0  0  0  0  0  0  0  0  0
   -3.1141   16.2959  -34.8176 H   0  0  0  0  0  0  0  0  0  0  0  0
   -3.8932   16.1906  -33.1916 H   0  0  0  0  0  0  0  0  0  0  0  0
   -6.1434   13.6694  -34.0286 H   0  0  0  0  0  0  0  0  0  0  0  0
   -5.4954   14.7930  -32.7710 H   0  0  0  0  0  0  0  0  0  0  0  0
   -7.2239   15.5068  -35.1890 H   0  0  0  0  0  0  0  0  0  0  0  0
   -7.6602   15.5933  -33.4235 H   0  0  0  0  0  0  0  0  0  0  0  0
   -7.5160   20.1169  -30.9994 H   0  0  0  0  0  0  0  0  0  0  0  0
  1  2  1  0
  2  3  1  0
  3  4  1  0
  4  5  1  0
  5  6  2  0
  5  7  1  0
  7  8  1  0
  8  9  1  0
  8 10  1  0
  3 11  1  0
 11 12  2  0
 11 13  1  0
 13 14  2  0
 14 15  1  0
 15 16  2  0
 16 17  1  0
 17 18  1  0
 18 19  2  0
 18 20  2  0
 18 21  1  0
 21 22  1  0
 22 23  1  0
 23 24  1  0
 24 25  1  0
 25 26  1  0
 17 27  2  0
 27 13  1  0
 26 21  1  0
  1 28  1  0
  1 29  1  0
  1 30  1  0
  2 31  1  0
  2 32  1  0
  4 33  1  0
  4 34  1  0
  8 35  1  0
  9 36  1  0
  9 37  1  0
  9 38  1  0
 10 39  1  0
 10 40  1  0
 10 41  1  0
 14 42  1  0
 15 43  1  0
 16 44  1  0
 22 45  1  0
 22 46  1  0
 23 47  1  0
 23 48  1  0
 25 49  1  0
 25 50  1  0
 26 51  1  0
 26 52  1  0
 27 53  1  0
M  CHG  1   7  -1
M  END
>  <UniqueID>  (20) 
20

>  <SMILES>  (20) 
CCN(CC(=O)[N-]C(C)C)C(=O)c1cccc(S(=O)(=O)N2CCOCC2)c1

>  <Energy>  (20) 
54.210751642854525

>  <Genealogy>  (20) 
CCN(CC(=O)[N-]C(C)C)C(=O)c1cccc(S(=O)(=O)N2CCOCC2)c1 (protonated)
CCN(CC(=O)[N-]C(C)C)C(=O)c1cccc(S(=O)(=O)N2CCOCC2)c1 (3D coordinates assigned)
CCN(CC(=O)[N-]C(C)C)C(=O)c1cccc(S(=O)(=O)N2CCOCC2)c1 (nonaromatic ring conformer: 54.210751642854525 kcal/mol)

>  <smiles>  (20) 
CCN(CC(=O)NC(C)C)C(=O)c1cccc(S(=O)(=O)N2CCOCC2)c1

>  <score_type>  (20) 
oracle

>  <origin>  (20) 
adg

>  <m_score__min__energy>  (20) 
-11.550000000000001

>  <m_primary>  (20) 
energy

$$$$
20:0
     RDKit          3D

 79 83  0  0  0  0  0  0  0  0999 V2000
   -1.5870   21.0000  -33.7340 C   0  0  0  0  0  0  0  0  0  0  0  0
   -1.6070   19.4810  -33.8440 C   0  0  0  0  0  0  0  0  0  0  0  0
   -2.8420   18.9510  -33.2510 N   0  0  0  0  0  0  0  0  0  0  0  0
   -3.7960   18.5280  -34.2840 C   0  0  0  0  0  0  0  0  0  0  0  0
   -5.2200   18.4080  -33.7050 C   0  0  0  0  0  0  0  0  0  0  0  0
   -5.2380   18.6260  -32.2480 N   0  0  0  0  0  0  0  0  0  0  0  0
   -5.6100   19.9530  -31.7600 C   0  0  0  0  0  0  0  0  0  0  0  0
   -6.9600   20.4000  -31.8760 C   0  0  0  0  0  0  0  0  0  0  0  0
   -7.9340   19.6050  -32.5250 C   0  0  0  0  0  0  0  0  0  0  0  0
   -9.2420   20.0550  -32.6760 C   0  0  0  0  0  0  0  0  0  0  0  0
   -9.6130   21.3100  -32.2060 C   0  0  0  0  0  0  0  0  0  0  0  0
   -8.6820   22.1180  -31.5560 C   0  0  0  0  0  0  0  0  0  0  0  0
   -7.3500   21.6810  -31.3490 C   0  0  0  0  0  0  0  0  0  0  0  0
   -6.4340   22.4710  -30.6740 N   0  0  0  0  0  0  0  0  0  0  0  0
   -6.8540   23.6270  -29.8660 C   0  0  0  0  0  0  0  0  0  0  0  0
   -5.1180   22.1020  -30.7250 C   0  0  0  0  0  0  0  0  0  0  0  0
   -4.7010   20.8780  -31.2120 C   0  0  0  0  0  0  0  0  0  0  0  0
   -3.3950   20.7580  -31.0840 O   0  0  0  0  0  0  0  0  0  0  0  0
   -2.9410   21.8650  -30.5490 C   0  0  0  0  0  0  0  0  0  0  0  0
   -1.6150   22.1670  -30.2570 C   0  0  0  0  0  0  0  0  0  0  0  0
   -1.3310   23.4300  -29.7100 C   0  0  0  0  0  0  0  0  0  0  0  0
   -2.3590   24.3750  -29.4990 C   0  0  0  0  0  0  0  0  0  0  0  0
   -2.0060   25.6210  -28.9620 O   0  0  0  0  0  0  0  0  0  0  0  0
   -0.9740   25.8320  -28.0030 C   0  0  0  0  0  0  0  0  0  0  0  0
   -1.5610   26.1040  -26.6010 C   0  0  0  0  0  0  0  0  0  0  0  0
   -0.6950   25.7260  -25.4300 N   0  0  0  0  0  0  0  0  0  0  0  0
   -0.8720   24.2840  -25.1030 C   0  0  0  0  0  0  0  0  0  0  0  0
    0.7420   25.9290  -25.8180 C   0  0  0  0  0  0  0  0  0  0  0  0
    1.2370   27.3530  -25.5070 C   0  0  0  0  0  0  0  0  0  0  0  0
    1.2260   27.6380  -24.0360 N   0  0  0  0  0  0  0  0  0  0  0  0
    2.5490   27.2950  -23.4570 C   0  0  0  0  0  0  0  0  0  0  0  0
    1.0000   29.0910  -23.8310 C   0  0  0  0  0  0  0  0  0  0  0  0
    0.1660   26.8550  -23.3230 C   0  0  0  0  0  0  0  0  0  0  0  0
   -1.0500   26.5570  -24.2260 C   0  0  0  0  0  0  0  0  0  0  0  0
   -3.6980   24.0460  -29.8250 C   0  0  0  0  0  0  0  0  0  0  0  0
   -3.9630   22.7590  -30.3100 C   0  0  0  0  0  0  0  0  0  0  0  0
   -1.5832   21.2908  -32.6731 H   0  0  0  0  0  0  0  0  0  0  0  0
   -0.6836   21.3913  -34.2247 H   0  0  0  0  0  0  0  0  0  0  0  0
   -2.4798   21.4150  -34.2247 H   0  0  0  0  0  0  0  0  0  0  0  0
   -1.5586   19.1918  -34.9042 H   0  0  0  0  0  0  0  0  0  0  0  0
   -0.7414   19.0683  -33.3051 H   0  0  0  0  0  0  0  0  0  0  0  0
   -3.2950   19.7250  -32.7100 H   0  0  0  0  0  0  0  0  0  0  0  0
   -3.7992   19.2699  -35.0962 H   0  0  0  0  0  0  0  0  0  0  0  0
   -3.4877   17.5426  -34.6635 H   0  0  0  0  0  0  0  0  0  0  0  0
   -5.8643   19.1591  -34.1855 H   0  0  0  0  0  0  0  0  0  0  0  0
   -5.5851   17.3894  -33.9030 H   0  0  0  0  0  0  0  0  0  0  0  0
   -4.2610   18.4440  -31.9180 H   0  0  0  0  0  0  0  0  0  0  0  0
   -5.8660   17.9150  -31.8000 H   0  0  0  0  0  0  0  0  0  0  0  0
   -7.6529   18.6161  -32.9162 H   0  0  0  0  0  0  0  0  0  0  0  0
   -9.9870   19.4141  -33.1701 H   0  0  0  0  0  0  0  0  0  0  0  0
  -10.6441   21.6660  -32.3476 H   0  0  0  0  0  0  0  0  0  0  0  0
   -8.9864   23.1123  -31.1974 H   0  0  0  0  0  0  0  0  0  0  0  0
   -6.7642   23.3798  -28.7979 H   0  0  0  0  0  0  0  0  0  0  0  0
   -6.2117   24.4893  -30.0981 H   0  0  0  0  0  0  0  0  0  0  0  0
   -7.9000   23.8759  -30.0981 H   0  0  0  0  0  0  0  0  0  0  0  0
   -0.8128   21.4391  -30.4485 H   0  0  0  0  0  0  0  0  0  0  0  0
   -0.2950   23.6857  -29.4429 H   0  0  0  0  0  0  0  0  0  0  0  0
   -0.3377   24.9359  -27.9578 H   0  0  0  0  0  0  0  0  0  0  0  0
   -0.3869   26.7098  -28.3109 H   0  0  0  0  0  0  0  0  0  0  0  0
   -1.7704   27.1815  -26.5288 H   0  0  0  0  0  0  0  0  0  0  0  0
   -2.4510   25.4619  -26.5265 H   0  0  0  0  0  0  0  0  0  0  0  0
   -0.8878   24.1550  -24.0107 H   0  0  0  0  0  0  0  0  0  0  0  0
   -1.8209   23.9254  -25.5284 H   0  0  0  0  0  0  0  0  0  0  0  0
   -0.0380   23.7065  -25.5284 H   0  0  0  0  0  0  0  0  0  0  0  0
    1.3628   25.2100  -25.2634 H   0  0  0  0  0  0  0  0  0  0  0  0
    0.8215   25.7755  -26.9043 H   0  0  0  0  0  0  0  0  0  0  0  0
    2.2649   27.4625  -25.8831 H   0  0  0  0  0  0  0  0  0  0  0  0
    0.5579   28.0655  -25.9980 H   0  0  0  0  0  0  0  0  0  0  0  0
    2.4842   27.3118  -22.3590 H   0  0  0  0  0  0  0  0  0  0  0  0
    2.8462   26.2901  -23.7914 H   0  0  0  0  0  0  0  0  0  0  0  0
    3.2970   28.0289  -23.7914 H   0  0  0  0  0  0  0  0  0  0  0  0
    0.9662   29.3083  -22.7532 H   0  0  0  0  0  0  0  0  0  0  0  0
    1.8207   29.6586  -24.2940 H   0  0  0  0  0  0  0  0  0  0  0  0
    0.0457   29.3826  -24.2940 H   0  0  0  0  0  0  0  0  0  0  0  0
    0.5978   25.9014  -22.9852 H   0  0  0  0  0  0  0  0  0  0  0  0
   -0.1856   27.4601  -22.4743 H   0  0  0  0  0  0  0  0  0  0  0  0
   -1.8021   26.0146  -23.6344 H   0  0  0  0  0  0  0  0  0  0  0  0
   -1.4343   27.5207  -24.5914 H   0  0  0  0  0  0  0  0  0  0  0  0
   -4.5070   24.7809  -29.7007 H   0  0  0  0  0  0  0  0  0  0  0  0
  1  2  1  0
  2  3  1  0
  3  4  1  0
  4  5  1  0
  5  6  1  0
  6  7  1  0
  7  8  2  0
  8  9  1  0
  9 10  2  0
 10 11  1  0
 11 12  2  0
 12 13  1  0
 13 14  2  0
 14 15  1  0
 14 16  1  0
 16 17  2  0
 17 18  1  0
 18 19  1  0
 19 20  2  0
 20 21  1  0
 21 22  2  0
 22 23  1  0
 23 24  1  0
 24 25  1  0
 25 26  1  0
 26 27  1  0
 26 28  1  0
 28 29  1  0
 29 30  1  0
 30 31  1  0
 30 32  1  0
 30 33  1  0
 33 34  1  0
 22 35  1  0
 35 36  2  0
 17  7  1  0
 36 19  1  0
 13  8  1  0
 36 16  1  0
 34 26  1  0
  1 37  1  0
  1 38  1  0
  1 39  1  0
  2 40  1  0
  2 41  1  0
  3 42  1  0
  4 43  1  0
  4 44  1  0
  5 45  1  0
  5 46  1  0
  6 47  1  0
  6 48  1  0
  9 49  1  0
 10 50  1  0
 11 51  1  0
 12 52  1  0
 15 53  1  0
 15 54  1  0
 15 55  1  0
 20 56  1  0
 21 57  1  0
 24 58  1  0
 24 59  1  0
 25 60  1  0
 25 61  1  0
 27 62  1  0
 27 63  1  0
 27 64  1  0
 28 65  1  0
 28 66  1  0
 29 67  1  0
 29 68  1  0
 31 69  1  0
 31 70  1  0
 31 71  1  0
 32 72  1  0
 32 73  1  0
 32 74  1  0
 33 75  1  0
 33 76  1  0
 34 77  1  0
 34 78  1  0
 35 79  1  0
M  CHG  4   6   1  14   1  26   1  30   1
M  END
>  <UniqueID>  (21) 
21

>  <SMILES>  (21) 
CCNCC[NH2+]c1c2ccccc2[n+](C)c2c1oc1ccc(OCC[N+]3(C)CC[N+](C)(C)CC3)cc12

>  <Energy>  (21) 
173.0395029057328

>  <Genealogy>  (21) 
CCNCC[NH2+]c1c2ccccc2[n+](C)c2c1oc1ccc(OCC[N+]3(C)CC[N+](C)(C)CC3)cc12 (protonated)
CCNCC[NH2+]c1c2ccccc2[n+](C)c2c1oc1ccc(OCC[N+]3(C)CC[N+](C)(C)CC3)cc12 (3D coordinates assigned)
CCNCC[NH2+]c1c2ccccc2[n+](C)c2c1oc1ccc(OCC[N+]3(C)CC[N+](C)(C)CC3)cc12 (nonaromatic ring conformer: 173.0395029057328 kcal/mol)

>  <smiles>  (21) 
CCNCCNc1c2ccccc2[n+](C)c2c1oc1ccc(OCC[N+]3(C)CC[N+](C)(C)CC3)cc12

>  <score_type>  (21) 
oracle

>  <origin>  (21) 
adg

>  <m_score__min__energy>  (21) 
-8.4100000000000001

>  <m_primary>  (21) 
energy

$$$$
21:0
     RDKit          3D

 56 58  0  0  0  0  0  0  0  0999 V2000
   -2.8490   23.6550  -29.3220 C   0  0  0  0  0  0  0  0  0  0  0  0
   -3.7950   23.8770  -30.5070 C   0  0  0  0  0  0  0  0  0  0  0  0
   -4.1280   25.2980  -30.7030 N   0  0  0  0  0  0  0  0  0  0  0  0
   -5.5810   25.5310  -30.7730 C   0  0  0  0  0  0  0  0  0  0  0  0
   -6.3500   24.5160  -29.9060 C   0  0  0  0  0  0  0  0  0  0  0  0
   -7.2730   23.6220  -30.7610 C   0  0  0  0  0  0  0  0  0  0  0  0
   -6.5090   22.4560  -31.3990 C   0  0  0  0  0  0  0  0  0  0  0  0
   -7.4040   21.7110  -32.2010 O   0  0  0  0  0  0  0  0  0  0  0  0
   -8.4310   21.1680  -31.4000 C   0  0  0  0  0  0  0  0  0  0  0  0
   -9.0560   19.9820  -32.1340 C   0  0  0  0  0  0  0  0  0  0  0  0
   -8.0220   18.8780  -32.4160 C   0  0  0  0  0  0  0  0  0  0  0  0
   -7.1190   19.3000  -33.4860 N   0  0  0  0  0  0  0  0  0  0  0  0
   -5.8190   18.6980  -33.6180 C   0  0  0  0  0  0  0  0  0  0  0  0
   -4.6240   19.4490  -33.5420 C   0  0  0  0  0  0  0  0  0  0  0  0
   -4.6510   20.8180  -33.1980 C   0  0  0  0  0  0  0  0  0  0  0  0
   -3.4680   21.5510  -33.0960 C   0  0  0  0  0  0  0  0  0  0  0  0
   -2.2390   20.9310  -33.3010 C   0  0  0  0  0  0  0  0  0  0  0  0
   -2.1780   19.5710  -33.6240 C   0  0  0  0  0  0  0  0  0  0  0  0
   -3.3620   18.8000  -33.7720 C   0  0  0  0  0  0  0  0  0  0  0  0
   -3.3180   17.4490  -34.1010 N   0  0  0  0  0  0  0  0  0  0  0  0
   -2.0470   16.7920  -34.4800 C   0  0  0  0  0  0  0  0  0  0  0  0
   -4.4840   16.7140  -34.0530 C   0  0  0  0  0  0  0  0  0  0  0  0
   -4.6060   15.3160  -34.2270 C   0  0  0  0  0  0  0  0  0  0  0  0
   -5.9240   14.8660  -34.1620 C   0  0  0  0  0  0  0  0  0  0  0  0
   -6.9390   16.1820  -33.8780 S   0  0  0  0  0  0  0  0  0  0  0  0
   -5.7070   17.3280  -33.8270 C   0  0  0  0  0  0  0  0  0  0  0  0
   -3.4034   23.7851  -28.3809 H   0  0  0  0  0  0  0  0  0  0  0  0
   -2.4375   22.6359  -29.3673 H   0  0  0  0  0  0  0  0  0  0  0  0
   -2.0271   24.3847  -29.3673 H   0  0  0  0  0  0  0  0  0  0  0  0
   -3.3120   23.4985  -31.4199 H   0  0  0  0  0  0  0  0  0  0  0  0
   -4.7311   23.3403  -30.2931 H   0  0  0  0  0  0  0  0  0  0  0  0
   -3.6940   25.6380  -31.5950 H   0  0  0  0  0  0  0  0  0  0  0  0
   -5.7991   26.5476  -30.4140 H   0  0  0  0  0  0  0  0  0  0  0  0
   -5.9032   25.4114  -31.8179 H   0  0  0  0  0  0  0  0  0  0  0  0
   -5.6266   23.8787  -29.3763 H   0  0  0  0  0  0  0  0  0  0  0  0
   -6.9756   25.0754  -29.1949 H   0  0  0  0  0  0  0  0  0  0  0  0
   -8.0693   23.2167  -30.1194 H   0  0  0  0  0  0  0  0  0  0  0  0
   -7.6909   24.2390  -31.5701 H   0  0  0  0  0  0  0  0  0  0  0  0
   -5.6911   22.8466  -32.0223 H   0  0  0  0  0  0  0  0  0  0  0  0
   -6.0850   21.8123  -30.6143 H   0  0  0  0  0  0  0  0  0  0  0  0
   -8.0116   20.8295  -30.4411 H   0  0  0  0  0  0  0  0  0  0  0  0
   -9.1975   21.9331  -31.2072 H   0  0  0  0  0  0  0  0  0  0  0  0
   -9.8632   19.5645  -31.5142 H   0  0  0  0  0  0  0  0  0  0  0  0
   -9.4449   20.3418  -33.0980 H   0  0  0  0  0  0  0  0  0  0  0  0
   -7.4395   18.6828  -31.5035 H   0  0  0  0  0  0  0  0  0  0  0  0
   -8.5468   17.9625  -32.7265 H   0  0  0  0  0  0  0  0  0  0  0  0
   -7.2300   20.2780  -33.8210 H   0  0  0  0  0  0  0  0  0  0  0  0
   -5.6152   21.3123  -33.0083 H   0  0  0  0  0  0  0  0  0  0  0  0
   -3.5070   22.6230  -32.8526 H   0  0  0  0  0  0  0  0  0  0  0  0
   -1.3104   21.5134  -33.2086 H   0  0  0  0  0  0  0  0  0  0  0  0
   -1.1982   19.0914  -33.7655 H   0  0  0  0  0  0  0  0  0  0  0  0
   -1.4962   16.5073  -33.5714 H   0  0  0  0  0  0  0  0  0  0  0  0
   -2.2625   15.8924  -35.0751 H   0  0  0  0  0  0  0  0  0  0  0  0
   -1.4377   17.4881  -35.0751 H   0  0  0  0  0  0  0  0  0  0  0  0
   -3.7470   14.6502  -34.3967 H   0  0  0  0  0  0  0  0  0  0  0  0
   -6.2490   13.8215  -34.2773 H   0  0  0  0  0  0  0  0  0  0  0  0
  1  2  1  0
  2  3  1  0
  3  4  1  0
  4  5  1  0
  5  6  1  0
  6  7  1  0
  7  8  1  0
  8  9  1  0
  9 10  1  0
 10 11  1  0
 11 12  1  0
 12 13  1  0
 13 14  2  0
 14 15  1  0
 15 16  2  0
 16 17  1  0
 17 18  2  0
 18 19  1  0
 19 20  2  0
 20 21  1  0
 20 22  1  0
 22 23  1  0
 23 24  2  0
 24 25  1  0
 25 26  1  0
 26 13  1  0
 19 14  1  0
 26 22  2  0
  1 27  1  0
  1 28  1  0
  1 29  1  0
  2 30  1  0
  2 31  1  0
  3 32  1  0
  4 33  1  0
  4 34  1  0
  5 35  1  0
  5 36  1  0
  6 37  1  0
  6 38  1  0
  7 39  1  0
  7 40  1  0
  9 41  1  0
  9 42  1  0
 10 43  1  0
 10 44  1  0
 11 45  1  0
 11 46  1  0
 12 47  1  0
 15 48  1  0
 16 49  1  0
 17 50  1  0
 18 51  1  0
 21 52  1  0
 21 53  1  0
 21 54  1  0
 23 55  1  0
 24 56  1  0
M  CHG  1  20   1
M  END
>  <UniqueID>  (22) 
22

>  <SMILES>  (22) 
CCNCCCCOCCCNc1c2ccccc2[n+](C)c2ccsc12

>  <Energy>  (22) 
95.04696086622684

>  <Genealogy>  (22) 
CCNCCCCOCCCNc1c2ccccc2[n+](C)c2ccsc12 (3D coordinates assigned)
CCNCCCCOCCCNc1c2ccccc2[n+](C)c2ccsc12 (optimized conformer: 95.04696086622684 kcal/mol)

>  <smiles>  (22) 
CCNCCCCOCCCNc1c2ccccc2[n+](C)c2ccsc12

>  <score_type>  (22) 
oracle

>  <origin>  (22) 
adg

>  <m_score__min__energy>  (22) 
-8.4499999999999993

>  <m_primary>  (22) 
energy

$$$$
22:0
     RDKit          3D

 50 52  0  0  0  0  0  0  0  0999 V2000
   -5.7470   26.2730  -30.1800 C   0  0  0  0  0  0  0  0  0  0  0  0
   -6.6370   25.0970  -29.7890 C   0  0  0  0  0  0  0  0  0  0  0  0
   -5.8320   23.9520  -29.3680 N   0  0  0  0  0  0  0  0  0  0  0  0
   -4.6650   23.5230  -30.0830 C   0  0  0  0  0  0  0  0  0  0  0  0
   -4.2560   24.1720  -31.0830 O   0  0  0  0  0  0  0  0  0  0  0  0
   -3.8980   22.3170  -29.6250 C   0  0  0  0  0  0  0  0  0  0  0  0
   -3.8730   21.2670  -30.6530 N   0  0  0  0  0  0  0  0  0  0  0  0
   -2.8050   21.4980  -31.6400 C   0  0  0  0  0  0  0  0  0  0  0  0
   -3.1640   20.8910  -33.0040 C   0  0  0  0  0  0  0  0  0  0  0  0
   -4.4960   21.3060  -33.4570 N   0  0  0  0  0  0  0  0  0  0  0  0
   -5.6900   20.5770  -33.1210 C   0  0  0  0  0  0  0  0  0  0  0  0
   -6.8000   21.2530  -32.5880 C   0  0  0  0  0  0  0  0  0  0  0  0
   -6.8220   22.6620  -32.5080 C   0  0  0  0  0  0  0  0  0  0  0  0
   -7.9480   23.3290  -32.0320 C   0  0  0  0  0  0  0  0  0  0  0  0
   -9.0610   22.6090  -31.6170 C   0  0  0  0  0  0  0  0  0  0  0  0
   -9.0520   21.2150  -31.6600 C   0  0  0  0  0  0  0  0  0  0  0  0
   -7.9130   20.5060  -32.1190 C   0  0  0  0  0  0  0  0  0  0  0  0
   -7.8720   19.1240  -32.1280 N   0  0  0  0  0  0  0  0  0  0  0  0
   -8.8720   18.3490  -31.3610 C   0  0  0  0  0  0  0  0  0  0  0  0
   -6.8890   18.4700  -32.8470 C   0  0  0  0  0  0  0  0  0  0  0  0
   -6.9740   17.0820  -33.1320 C   0  0  0  0  0  0  0  0  0  0  0  0
   -5.9720   16.4330  -33.8550 C   0  0  0  0  0  0  0  0  0  0  0  0
   -6.1170   14.5640  -34.2210 Br  0  0  0  0  0  0  0  0  0  0  0  0
   -4.8810   17.1500  -34.3340 C   0  0  0  0  0  0  0  0  0  0  0  0
   -4.7860   18.5180  -34.0960 C   0  0  0  0  0  0  0  0  0  0  0  0
   -5.7730   19.1920  -33.3460 C   0  0  0  0  0  0  0  0  0  0  0  0
   -5.3727   26.7675  -29.2715 H   0  0  0  0  0  0  0  0  0  0  0  0
   -4.8971   25.9077  -30.7752 H   0  0  0  0  0  0  0  0  0  0  0  0
   -6.3295   26.9917  -30.7752 H   0  0  0  0  0  0  0  0  0  0  0  0
   -7.2922   25.4012  -28.9595 H   0  0  0  0  0  0  0  0  0  0  0  0
   -7.2361   24.8033  -30.6635 H   0  0  0  0  0  0  0  0  0  0  0  0
   -6.0860   23.4630  -28.4810 H   0  0  0  0  0  0  0  0  0  0  0  0
   -2.8647   22.6171  -29.3966 H   0  0  0  0  0  0  0  0  0  0  0  0
   -4.3968   21.9116  -28.7323 H   0  0  0  0  0  0  0  0  0  0  0  0
   -3.6730   20.3680  -30.1560 H   0  0  0  0  0  0  0  0  0  0  0  0
   -2.6549   22.5813  -31.7584 H   0  0  0  0  0  0  0  0  0  0  0  0
   -1.8862   21.0148  -31.2763 H   0  0  0  0  0  0  0  0  0  0  0  0
   -2.4193   21.2173  -33.7449 H   0  0  0  0  0  0  0  0  0  0  0  0
   -3.1670   19.7961  -32.8983 H   0  0  0  0  0  0  0  0  0  0  0  0
   -4.5860   22.2020  -33.9870 H   0  0  0  0  0  0  0  0  0  0  0  0
   -5.9408   23.2391  -32.8249 H   0  0  0  0  0  0  0  0  0  0  0  0
   -7.9560   24.4279  -31.9846 H   0  0  0  0  0  0  0  0  0  0  0  0
   -9.9528   23.1402  -31.2531 H   0  0  0  0  0  0  0  0  0  0  0  0
   -9.9419   20.6572  -31.3329 H   0  0  0  0  0  0  0  0  0  0  0  0
   -8.6949   18.4863  -30.2841 H   0  0  0  0  0  0  0  0  0  0  0  0
   -9.8825   18.7022  -31.6143 H   0  0  0  0  0  0  0  0  0  0  0  0
   -8.7821   17.2823  -31.6143 H   0  0  0  0  0  0  0  0  0  0  0  0
   -7.8433   16.5088  -32.7774 H   0  0  0  0  0  0  0  0  0  0  0  0
   -4.0920   16.6352  -34.9018 H   0  0  0  0  0  0  0  0  0  0  0  0
   -3.9306   19.0809  -34.4977 H   0  0  0  0  0  0  0  0  0  0  0  0
  1  2  1  0
  2  3  1  0
  3  4  1  0
  4  5  2  0
  4  6  1  0
  6  7  1  0
  7  8  1  0
  8  9  1  0
  9 10  1  0
 10 11  1  0
 11 12  2  0
 12 13  1  0
 13 14  2  0
 14 15  1  0
 15 16  2  0
 16 17  1  0
 17 18  2  0
 18 19  1  0
 18 20  1  0
 20 21  2  0
 21 22  1  0
 22 23  1  0
 22 24  2  0
 24 25  1  0
 25 26  2  0
 26 11  1  0
 17 12  1  0
 26 20  1  0
  1 27  1  0
  1 28  1  0
  1 29  1  0
  2 30  1  0
  2 31  1  0
  3 32  1  0
  6 33  1  0
  6 34  1  0
  7 35  1  0
  8 36  1  0
  8 37  1  0
  9 38  1  0
  9 39  1  0
 10 40  1  0
 13 41  1  0
 14 42  1  0
 15 43  1  0
 16 44  1  0
 19 45  1  0
 19 46  1  0
 19 47  1  0
 21 48  1  0
 24 49  1  0
 25 50  1  0
M  CHG  1  18   1
M  END
>  <UniqueID>  (23) 
23

>  <SMILES>  (23) 
CCNC(=O)CNCCNc1c2ccccc2[n+](C)c2cc(Br)ccc12

>  <Energy>  (23) 
65.53227772177546

>  <Genealogy>  (23) 
CCNC(=O)CNCCNc1c2ccccc2[n+](C)c2cc(Br)ccc12 (3D coordinates assigned)
CCNC(=O)CNCCNc1c2ccccc2[n+](C)c2cc(Br)ccc12 (optimized conformer: 65.53227772177546 kcal/mol)

>  <smiles>  (23) 
CCNC(=O)CNCCNc1c2ccccc2[n+](C)c2cc(Br)ccc12

>  <score_type>  (23) 
oracle

>  <origin>  (23) 
adg

>  <m_score__min__energy>  (23) 
-9.1199999999999992

>  <m_primary>  (23) 
energy

$$$$
23:0
     RDKit          3D

 55 58  0  0  0  0  0  0  0  0999 V2000
   -2.8910   21.2870  -29.1880 C   0  0  0  0  0  0  0  0  0  0  0  0
   -3.1370   22.7360  -28.7650 C   0  0  0  0  0  0  0  0  0  0  0  0
   -2.4950   23.7410  -29.7320 C   0  0  0  0  0  0  0  0  0  0  0  0
   -3.5050   24.5270  -30.4570 N   0  0  0  0  0  0  0  0  0  0  0  0
   -4.7670   24.6920  -29.7080 C   0  0  0  0  0  0  0  0  0  0  0  0
   -5.8540   25.3010  -30.6030 C   0  0  0  0  0  0  0  0  0  0  0  0
   -7.0280   24.3370  -30.8230 C   0  0  0  0  0  0  0  0  0  0  0  0
   -6.7300   23.3530  -31.9600 C   0  0  0  0  0  0  0  0  0  0  0  0
   -5.5980   22.4860  -31.6210 N   0  0  0  0  0  0  0  0  0  0  0  0
   -5.5710   21.1000  -31.9950 C   0  0  0  0  0  0  0  0  0  0  0  0
   -4.3920   20.5380  -32.4640 C   0  0  0  0  0  0  0  0  0  0  0  0
   -4.3630   19.2550  -32.9810 C   0  0  0  0  0  0  0  0  0  0  0  0
   -5.4720   18.4490  -33.0060 N   0  0  0  0  0  0  0  0  0  0  0  0
   -5.3550   17.0530  -33.4600 C   0  0  0  0  0  0  0  0  0  0  0  0
   -6.6840   18.9820  -32.5900 C   0  0  0  0  0  0  0  0  0  0  0  0
   -7.8970   18.2610  -32.7160 C   0  0  0  0  0  0  0  0  0  0  0  0
   -9.0980   18.7870  -32.2420 C   0  0  0  0  0  0  0  0  0  0  0  0
   -9.1250   20.0360  -31.6290 C   0  0  0  0  0  0  0  0  0  0  0  0
   -7.9600   20.7900  -31.5210 C   0  0  0  0  0  0  0  0  0  0  0  0
   -6.7410   20.3050  -32.0330 C   0  0  0  0  0  0  0  0  0  0  0  0
   -3.0120   19.0300  -33.5280 C   0  0  0  0  0  0  0  0  0  0  0  0
   -2.5380   17.9800  -34.2460 N   0  0  0  0  0  0  0  0  0  0  0  0
   -1.2610   18.0120  -34.7300 C   0  0  0  0  0  0  0  0  0  0  0  0
   -0.4420   19.1400  -34.5130 C   0  0  0  0  0  0  0  0  0  0  0  0
   -0.9450   20.2400  -33.8020 C   0  0  0  0  0  0  0  0  0  0  0  0
   -2.2450   20.1570  -33.3170 C   0  0  0  0  0  0  0  0  0  0  0  0
   -3.0690   21.1450  -32.6400 C   0  0  0  0  0  0  0  0  0  0  0  0
   -2.7150   22.3040  -32.2980 O   0  0  0  0  0  0  0  0  0  0  0  0
   -2.7840   20.6568  -28.2928 H   0  0  0  0  0  0  0  0  0  0  0  0
   -3.7415   20.9307  -29.7877 H   0  0  0  0  0  0  0  0  0  0  0  0
   -1.9706   21.2313  -29.7877 H   0  0  0  0  0  0  0  0  0  0  0  0
   -4.2216   22.9168  -28.7352 H   0  0  0  0  0  0  0  0  0  0  0  0
   -2.6789   22.8806  -27.7754 H   0  0  0  0  0  0  0  0  0  0  0  0
   -1.8549   24.4274  -29.1582 H   0  0  0  0  0  0  0  0  0  0  0  0
   -1.9082   23.1757  -30.4710 H   0  0  0  0  0  0  0  0  0  0  0  0
   -3.7200   24.0150  -31.3460 H   0  0  0  0  0  0  0  0  0  0  0  0
   -5.1045   23.7087  -29.3484 H   0  0  0  0  0  0  0  0  0  0  0  0
   -4.5882   25.3684  -28.8592 H   0  0  0  0  0  0  0  0  0  0  0  0
   -6.2323   26.2179  -30.1275 H   0  0  0  0  0  0  0  0  0  0  0  0
   -5.4041   25.5162  -31.5835 H   0  0  0  0  0  0  0  0  0  0  0  0
   -7.2068   23.7716  -29.8965 H   0  0  0  0  0  0  0  0  0  0  0  0
   -7.9165   24.9257  -31.0950 H   0  0  0  0  0  0  0  0  0  0  0  0
   -7.6190   22.7304  -32.1391 H   0  0  0  0  0  0  0  0  0  0  0  0
   -6.4736   23.9274  -32.8624 H   0  0  0  0  0  0  0  0  0  0  0  0
   -4.7170   22.9280  -31.2720 H   0  0  0  0  0  0  0  0  0  0  0  0
   -5.2992   16.3868  -32.5865 H   0  0  0  0  0  0  0  0  0  0  0  0
   -6.2342   16.7897  -34.0663 H   0  0  0  0  0  0  0  0  0  0  0  0
   -4.4442   16.9397  -34.0663 H   0  0  0  0  0  0  0  0  0  0  0  0
   -7.8912   17.2709  -33.1952 H   0  0  0  0  0  0  0  0  0  0  0  0
  -10.0290   18.2118  -32.3531 H   0  0  0  0  0  0  0  0  0  0  0  0
  -10.0709   20.4290  -31.2281 H   0  0  0  0  0  0  0  0  0  0  0  0
   -7.9918   21.7743  -31.0310 H   0  0  0  0  0  0  0  0  0  0  0  0
   -0.8685   17.1523  -35.2929 H   0  0  0  0  0  0  0  0  0  0  0  0
    0.5876   19.1571  -34.9000 H   0  0  0  0  0  0  0  0  0  0  0  0
   -0.3315   21.1375  -33.6341 H   0  0  0  0  0  0  0  0  0  0  0  0
  1  2  1  0
  2  3  1  0
  3  4  1  0
  4  5  1  0
  5  6  1  0
  6  7  1  0
  7  8  1  0
  8  9  1  0
  9 10  1  0
 10 11  2  0
 11 12  1  0
 12 13  2  0
 13 14  1  0
 13 15  1  0
 15 16  2  0
 16 17  1  0
 17 18  2  0
 18 19  1  0
 19 20  2  0
 12 21  1  0
 21 22  2  0
 22 23  1  0
 23 24  2  0
 24 25  1  0
 25 26  2  0
 26 27  1  0
 27 28  2  0
 20 10  1  0
 26 21  1  0
 27 11  1  0
 20 15  1  0
  1 29  1  0
  1 30  1  0
  1 31  1  0
  2 32  1  0
  2 33  1  0
  3 34  1  0
  3 35  1  0
  4 36  1  0
  5 37  1  0
  5 38  1  0
  6 39  1  0
  6 40  1  0
  7 41  1  0
  7 42  1  0
  8 43  1  0
  8 44  1  0
  9 45  1  0
 14 46  1  0
 14 47  1  0
 14 48  1  0
 16 49  1  0
 17 50  1  0
 18 51  1  0
 19 52  1  0
 23 53  1  0
 24 54  1  0
 25 55  1  0
M  CHG  1  13   1
M  END
>  <UniqueID>  (24) 
24

>  <SMILES>  (24) 
CCCNCCCCNc1c2c([n+](C)c3ccccc13)-c1ncccc1C2=O

>  <Energy>  (24) 
102.02308816962126

>  <Genealogy>  (24) 
CCCNCCCCNc1c2c([n+](C)c3ccccc13)-c1ncccc1C2=O (3D coordinates assigned)
CCCNCCCCNc1c2c([n+](C)c3ccccc13)-c1ncccc1C2=O (nonaromatic ring conformer: 102.02308816962126 kcal/mol)

>  <smiles>  (24) 
CCCNCCCCNc1c2c([n+](C)c3ccccc13)-c1ncccc1C2=O

>  <score_type>  (24) 
oracle

>  <origin>  (24) 
adg

>  <m_score__min__energy>  (24) 
-9.4600000000000009

>  <m_primary>  (24) 
energy

$$$$
24:0
     RDKit          3D

 73 75  0  0  0  0  0  0  0  0999 V2000
   -0.0930   22.7500  -24.3910 C   0  0  0  0  0  0  0  0  0  0  0  0
   -0.5290   24.2160  -24.2930 C   0  0  0  0  0  0  0  0  0  0  0  0
   -0.6310   24.8820  -25.6180 N   0  0  0  0  0  0  0  0  0  0  0  0
   -0.9450   26.3360  -25.5400 C   0  0  0  0  0  0  0  0  0  0  0  0
   -0.8550   26.9370  -24.1280 C   0  0  0  0  0  0  0  0  0  0  0  0
    0.5940   24.6400  -26.4150 C   0  0  0  0  0  0  0  0  0  0  0  0
    0.3550   24.9570  -27.8350 N   0  0  0  0  0  0  0  0  0  0  0  0
    0.1410   23.7500  -28.6500 C   0  0  0  0  0  0  0  0  0  0  0  0
   -1.3010   23.2130  -28.5250 C   0  0  0  0  0  0  0  0  0  0  0  0
   -2.1700   24.0830  -27.8140 O   0  0  0  0  0  0  0  0  0  0  0  0
   -3.4570   24.2200  -28.4030 C   0  0  0  0  0  0  0  0  0  0  0  0
   -3.5030   23.9230  -29.9130 C   0  0  0  0  0  0  0  0  0  0  0  0
   -3.8790   25.0770  -30.6410 O   0  0  0  0  0  0  0  0  0  0  0  0
   -5.2800   25.1390  -30.8500 C   0  0  0  0  0  0  0  0  0  0  0  0
   -5.9280   23.7490  -31.0050 C   0  0  0  0  0  0  0  0  0  0  0  0
   -5.7210   23.1870  -32.3420 N   0  0  0  0  0  0  0  0  0  0  0  0
   -5.6750   21.7700  -32.5840 C   0  0  0  0  0  0  0  0  0  0  0  0
   -6.8490   21.0040  -32.4780 C   0  0  0  0  0  0  0  0  0  0  0  0
   -6.8380   19.6630  -32.9090 C   0  0  0  0  0  0  0  0  0  0  0  0
   -5.7190   19.1330  -33.5160 N   0  0  0  0  0  0  0  0  0  0  0  0
   -5.8140   17.8550  -34.2490 C   0  0  0  0  0  0  0  0  0  0  0  0
   -4.5130   19.8020  -33.4380 C   0  0  0  0  0  0  0  0  0  0  0  0
   -3.2910   19.1850  -33.8060 C   0  0  0  0  0  0  0  0  0  0  0  0
   -2.0840   19.8770  -33.7240 C   0  0  0  0  0  0  0  0  0  0  0  0
   -2.0560   21.1850  -33.2550 C   0  0  0  0  0  0  0  0  0  0  0  0
   -3.2380   21.8130  -32.8670 C   0  0  0  0  0  0  0  0  0  0  0  0
   -4.4750   21.1420  -32.9640 C   0  0  0  0  0  0  0  0  0  0  0  0
   -8.1080   18.8560  -32.7110 C   0  0  0  0  0  0  0  0  0  0  0  0
   -8.7500   19.2140  -31.3700 C   0  0  0  0  0  0  0  0  0  0  0  0
   -9.0950   20.7080  -31.2680 C   0  0  0  0  0  0  0  0  0  0  0  0
   -8.1700   21.6400  -32.0800 C   0  0  0  0  0  0  0  0  0  0  0  0
    0.0302   22.3357  -23.3795 H   0  0  0  0  0  0  0  0  0  0  0  0
   -0.8590   22.1750  -24.9319 H   0  0  0  0  0  0  0  0  0  0  0  0
    0.8627   22.6871  -24.9319 H   0  0  0  0  0  0  0  0  0  0  0  0
   -1.5133   24.2569  -23.8035 H   0  0  0  0  0  0  0  0  0  0  0  0
    0.2398   24.7497  -23.7150 H   0  0  0  0  0  0  0  0  0  0  0  0
   -1.4250   24.4340  -26.1360 H   0  0  0  0  0  0  0  0  0  0  0  0
   -0.2375   26.8747  -26.1875 H   0  0  0  0  0  0  0  0  0  0  0  0
   -1.9922   26.4455  -25.8585 H   0  0  0  0  0  0  0  0  0  0  0  0
   -0.9746   26.1382  -23.3812 H   0  0  0  0  0  0  0  0  0  0  0  0
    0.1252   27.4184  -23.9962 H   0  0  0  0  0  0  0  0  0  0  0  0
   -1.6512   27.6844  -23.9962 H   0  0  0  0  0  0  0  0  0  0  0  0
    1.4061   25.2763  -26.0334 H   0  0  0  0  0  0  0  0  0  0  0  0
    0.8720   23.5792  -26.3284 H   0  0  0  0  0  0  0  0  0  0  0  0
    1.1690   25.4980  -28.2120 H   0  0  0  0  0  0  0  0  0  0  0  0
    0.3384   23.9943  -29.7042 H   0  0  0  0  0  0  0  0  0  0  0  0
    0.8257   22.9698  -28.2861 H   0  0  0  0  0  0  0  0  0  0  0  0
   -1.7068   23.0662  -29.5368 H   0  0  0  0  0  0  0  0  0  0  0  0
   -1.2480   22.2729  -27.9563 H   0  0  0  0  0  0  0  0  0  0  0  0
   -4.1429   23.5259  -27.8953 H   0  0  0  0  0  0  0  0  0  0  0  0
   -3.7454   25.2747  -28.2827 H   0  0  0  0  0  0  0  0  0  0  0  0
   -2.5075   23.5947  -30.2465 H   0  0  0  0  0  0  0  0  0  0  0  0
   -4.2472   23.1336  -30.0945 H   0  0  0  0  0  0  0  0  0  0  0  0
   -5.7406   25.6465  -29.9896 H   0  0  0  0  0  0  0  0  0  0  0  0
   -5.4487   25.6871  -31.7887 H   0  0  0  0  0  0  0  0  0  0  0  0
   -5.4869   23.0679  -30.2624 H   0  0  0  0  0  0  0  0  0  0  0  0
   -7.0112   23.8627  -30.8509 H   0  0  0  0  0  0  0  0  0  0  0  0
   -5.5880   23.8400  -33.1470 H   0  0  0  0  0  0  0  0  0  0  0  0
   -5.8758   17.0241  -33.5308 H   0  0  0  0  0  0  0  0  0  0  0  0
   -6.7142   17.8609  -34.8812 H   0  0  0  0  0  0  0  0  0  0  0  0
   -4.9228   17.7278  -34.8812 H   0  0  0  0  0  0  0  0  0  0  0  0
   -3.2954   18.1441  -34.1617 H   0  0  0  0  0  0  0  0  0  0  0  0
   -1.1492   19.3857  -34.0319 H   0  0  0  0  0  0  0  0  0  0  0  0
   -1.0999   21.7251  -33.1900 H   0  0  0  0  0  0  0  0  0  0  0  0
   -3.2060   22.8426  -32.4811 H   0  0  0  0  0  0  0  0  0  0  0  0
   -8.8134   19.0811  -33.5245 H   0  0  0  0  0  0  0  0  0  0  0  0
   -7.8603   17.7843  -32.7186 H   0  0  0  0  0  0  0  0  0  0  0  0
   -9.6741   18.6289  -31.2530 H   0  0  0  0  0  0  0  0  0  0  0  0
   -8.0239   18.9818  -30.5770 H   0  0  0  0  0  0  0  0  0  0  0  0
  -10.1246   20.8474  -31.6292 H   0  0  0  0  0  0  0  0  0  0  0  0
   -8.9660   20.9855  -30.2114 H   0  0  0  0  0  0  0  0  0  0  0  0
   -8.6994   21.9405  -32.9962 H   0  0  0  0  0  0  0  0  0  0  0  0
   -7.9294   22.4948  -31.4308 H   0  0  0  0  0  0  0  0  0  0  0  0
  1  2  1  0
  2  3  1  0
  3  4  1  0
  4  5  1  0
  3  6  1  0
  6  7  1  0
  7  8  1  0
  8  9  1  0
  9 10  1  0
 10 11  1  0
 11 12  1  0
 12 13  1  0
 13 14  1  0
 14 15  1  0
 15 16  1  0
 16 17  1  0
 17 18  2  0
 18 19  1  0
 19 20  2  0
 20 21  1  0
 20 22  1  0
 22 23  2  0
 23 24  1  0
 24 25  2  0
 25 26  1  0
 26 27  2  0
 19 28  1  0
 28 29  1  0
 29 30  1  0
 30 31  1  0
 27 17  1  0
 31 18  1  0
 27 22  1  0
  1 32  1  0
  1 33  1  0
  1 34  1  0
  2 35  1  0
  2 36  1  0
  3 37  1  0
  4 38  1  0
  4 39  1  0
  5 40  1  0
  5 41  1  0
  5 42  1  0
  6 43  1  0
  6 44  1  0
  7 45  1  0
  8 46  1  0
  8 47  1  0
  9 48  1  0
  9 49  1  0
 11 50  1  0
 11 51  1  0
 12 52  1  0
 12 53  1  0
 14 54  1  0
 14 55  1  0
 15 56  1  0
 15 57  1  0
 16 58  1  0
 21 59  1  0
 21 60  1  0
 21 61  1  0
 23 62  1  0
 24 63  1  0
 25 64  1  0
 26 65  1  0
 28 66  1  0
 28 67  1  0
 29 68  1  0
 29 69  1  0
 30 70  1  0
 30 71  1  0
 31 72  1  0
 31 73  1  0
M  CHG  2   3   1  20   1
M  END
>  <UniqueID>  (25) 
25

>  <SMILES>  (25) 
CC[NH+](CC)CNCCOCCOCCNc1c2c([n+](C)c3ccccc13)CCCC2

>  <Energy>  (25) 
103.31835059521816

>  <Genealogy>  (25) 
CC[NH+](CC)CNCCOCCOCCNc1c2c([n+](C)c3ccccc13)CCCC2 (protonated)
CC[NH+](CC)CNCCOCCOCCNc1c2c([n+](C)c3ccccc13)CCCC2 (3D coordinates assigned)
CC[NH+](CC)CNCCOCCOCCNc1c2c([n+](C)c3ccccc13)CCCC2 (nonaromatic ring conformer: 103.31835059521816 kcal/mol)

>  <smiles>  (25) 
CCN(CC)CNCCOCCOCCNc1c2c([n+](C)c3ccccc13)CCCC2

>  <score_type>  (25) 
oracle

>  <origin>  (25) 
adg

>  <m_score__min__energy>  (25) 
-10.08

>  <m_primary>  (25) 
energy

$$$$
25:0
     RDKit          3D

 44 46  0  0  0  0  0  0  0  0999 V2000
   -0.3900   21.2270  -31.6790 C   0  0  0  0  0  0  0  0  0  0  0  0
   -0.1980   21.1460  -33.1890 C   0  0  0  0  0  0  0  0  0  0  0  0
   -1.4680   20.7820  -33.8320 N   0  0  0  0  0  0  0  0  0  0  0  0
   -2.5610   20.6250  -32.8600 C   0  0  0  0  0  0  0  0  0  0  0  0
   -3.9390   20.9410  -33.4680 C   0  0  0  0  0  0  0  0  0  0  0  0
   -4.3710   22.2790  -33.0760 N   0  0  0  0  0  0  0  0  0  0  0  0
   -4.5810   22.6300  -31.7020 C   0  0  0  0  0  0  0  0  0  0  0  0
   -3.6860   23.2150  -30.9480 O   0  0  0  0  0  0  0  0  0  0  0  0
   -4.2560   23.4370  -29.7840 C   0  0  0  0  0  0  0  0  0  0  0  0
   -3.5730   24.0940  -28.6520 C   0  0  0  0  0  0  0  0  0  0  0  0
   -4.2290   24.2670  -27.4190 C   0  0  0  0  0  0  0  0  0  0  0  0
   -3.5740   24.8920  -26.3530 C   0  0  0  0  0  0  0  0  0  0  0  0
   -2.2630   25.3470  -26.5060 C   0  0  0  0  0  0  0  0  0  0  0  0
   -1.6030   25.1810  -27.7260 C   0  0  0  0  0  0  0  0  0  0  0  0
   -2.2530   24.5560  -28.7960 C   0  0  0  0  0  0  0  0  0  0  0  0
   -5.5360   23.0000  -29.7380 N   0  0  0  0  0  0  0  0  0  0  0  0
   -5.7380   22.4730  -30.9630 C   0  0  0  0  0  0  0  0  0  0  0  0
   -7.0070   21.8390  -31.3730 C   0  0  0  0  0  0  0  0  0  0  0  0
   -8.2170   22.5340  -31.2070 C   0  0  0  0  0  0  0  0  0  0  0  0
   -9.4280   21.9380  -31.5710 C   0  0  0  0  0  0  0  0  0  0  0  0
   -9.4420   20.6400  -32.0900 C   0  0  0  0  0  0  0  0  0  0  0  0
   -8.2460   19.9340  -32.2370 C   0  0  0  0  0  0  0  0  0  0  0  0
   -7.0330   20.5250  -31.8740 C   0  0  0  0  0  0  0  0  0  0  0  0
    0.5104   20.8472  -31.1740 H   0  0  0  0  0  0  0  0  0  0  0  0
   -0.5604   22.2737  -31.3867 H   0  0  0  0  0  0  0  0  0  0  0  0
   -1.2586   20.6186  -31.3867 H   0  0  0  0  0  0  0  0  0  0  0  0
    0.1365   22.1230  -33.5678 H   0  0  0  0  0  0  0  0  0  0  0  0
    0.5585   20.3813  -33.4190 H   0  0  0  0  0  0  0  0  0  0  0  0
   -1.7260   21.5210  -34.5280 H   0  0  0  0  0  0  0  0  0  0  0  0
   -2.5648   19.5863  -32.4979 H   0  0  0  0  0  0  0  0  0  0  0  0
   -2.3853   21.3378  -32.0408 H   0  0  0  0  0  0  0  0  0  0  0  0
   -3.8725   20.8879  -34.5647 H   0  0  0  0  0  0  0  0  0  0  0  0
   -4.6699   20.2065  -33.0987 H   0  0  0  0  0  0  0  0  0  0  0  0
   -4.5140   22.9920  -33.8250 H   0  0  0  0  0  0  0  0  0  0  0  0
   -5.2615   23.9091  -27.2931 H   0  0  0  0  0  0  0  0  0  0  0  0
   -4.0927   25.0253  -25.3922 H   0  0  0  0  0  0  0  0  0  0  0  0
   -1.7494   25.8365  -25.6654 H   0  0  0  0  0  0  0  0  0  0  0  0
   -0.5709   25.5421  -27.8457 H   0  0  0  0  0  0  0  0  0  0  0  0
   -1.7288   24.4256  -29.7542 H   0  0  0  0  0  0  0  0  0  0  0  0
   -8.2112   23.5514  -30.7888 H   0  0  0  0  0  0  0  0  0  0  0  0
  -10.3710   22.4910  -31.4489 H   0  0  0  0  0  0  0  0  0  0  0  0
  -10.3949   20.1748  -32.3826 H   0  0  0  0  0  0  0  0  0  0  0  0
   -8.2589   18.9104  -32.6395 H   0  0  0  0  0  0  0  0  0  0  0  0
   -6.0949   19.9605  -31.9805 H   0  0  0  0  0  0  0  0  0  0  0  0
  1  2  1  0
  2  3  1  0
  3  4  1  0
  4  5  1  0
  5  6  1  0
  6  7  1  0
  7  8  1  0
  8  9  1  0
  9 10  1  0
 10 11  2  0
 11 12  1  0
 12 13  2  0
 13 14  1  0
 14 15  2  0
  9 16  2  0
 16 17  1  0
 17 18  1  0
 18 19  2  0
 19 20  1  0
 20 21  2  0
 21 22  1  0
 22 23  2  0
 17  7  2  0
 23 18  1  0
 15 10  1  0
  1 24  1  0
  1 25  1  0
  1 26  1  0
  2 27  1  0
  2 28  1  0
  3 29  1  0
  4 30  1  0
  4 31  1  0
  5 32  1  0
  5 33  1  0
  6 34  1  0
 11 35  1  0
 12 36  1  0
 13 37  1  0
 14 38  1  0
 15 39  1  0
 19 40  1  0
 20 41  1  0
 21 42  1  0
 22 43  1  0
 23 44  1  0
M  END
>  <UniqueID>  (26) 
26

>  <SMILES>  (26) 
CCNCCNc1oc(-c2ccccc2)nc1-c1ccccc1

>  <Energy>  (26) 
74.40897366708994

>  <Genealogy>  (26) 
CCNCCNc1oc(-c2ccccc2)nc1-c1ccccc1 (3D coordinates assigned)
CCNCCNc1oc(-c2ccccc2)nc1-c1ccccc1 (optimized conformer: 74.40897366708994 kcal/mol)

>  <smiles>  (26) 
CCNCCNc1oc(-c2ccccc2)nc1-c1ccccc1

>  <score_type>  (26) 
oracle

>  <origin>  (26) 
adg

>  <m_score__min__energy>  (26) 
-8.2899999999999991

>  <m_primary>  (26) 
energy

$$$$
