0:0
     RDKit          3D

 33 34  0  0  0  0  0  0  0  0999 V2000
   -4.5630   19.6890  -33.2320 C   0  0  0  0  0  0  0  0  0  0  0  0
   -5.5570   20.6880  -33.4350 O   0  0  0  0  0  0  0  0  0  0  0  0
   -6.1000   21.4870  -32.4180 C   0  0  0  0  0  0  0  0  0  0  0  0
   -5.4780   22.6770  -31.9890 C   0  0  0  0  0  0  0  0  0  0  0  0
   -6.0320   23.4340  -30.9440 C   0  0  0  0  0  0  0  0  0  0  0  0
   -5.2570   24.9260  -30.4000 S   0  0  0  0  0  0  0  0  0  0  0  0
   -5.7580   26.0880  -31.2120 O   0  0  0  0  0  0  0  0  0  0  0  0
   -5.6740   25.1590  -28.9760 O   0  0  0  0  0  0  0  0  0  0  0  0
   -3.5090   24.8910  -30.4520 N   0  0  0  0  0  0  0  0  0  0  0  0
   -2.8170   23.8270  -29.6990 C   0  0  0  0  0  0  0  0  0  0  0  0
   -3.4240   23.5670  -28.3170 C   0  0  0  0  0  0  0  0  0  0  0  0
   -3.5230   22.0520  -28.1680 C   0  0  0  0  0  0  0  0  0  0  0  0
   -2.6750   21.4510  -29.2810 C   0  0  0  0  0  0  0  0  0  0  0  0
   -2.6780   22.4750  -30.4030 C   0  0  0  0  0  0  0  0  0  0  0  0
   -7.2380   23.0270  -30.3620 C   0  0  0  0  0  0  0  0  0  0  0  0
   -7.8640   21.8540  -30.7870 C   0  0  0  0  0  0  0  0  0  0  0  0
   -7.2970   21.0820  -31.8070 C   0  0  0  0  0  0  0  0  0  0  0  0
   -8.1000   19.6040  -32.3120 Cl  0  0  0  0  0  0  0  0  0  0  0  0
   -4.4113   19.5366  -32.1532 H   0  0  0  0  0  0  0  0  0  0  0  0
   -4.8915   18.7458  -33.6930 H   0  0  0  0  0  0  0  0  0  0  0  0
   -3.6182   20.0128  -33.6930 H   0  0  0  0  0  0  0  0  0  0  0  0
   -4.5517   23.0152  -32.4765 H   0  0  0  0  0  0  0  0  0  0  0  0
   -1.8093   24.2591  -29.6107 H   0  0  0  0  0  0  0  0  0  0  0  0
   -2.7763   23.9849  -27.5323 H   0  0  0  0  0  0  0  0  0  0  0  0
   -4.4110   24.0426  -28.2191 H   0  0  0  0  0  0  0  0  0  0  0  0
   -3.1370   21.7408  -27.1861 H   0  0  0  0  0  0  0  0  0  0  0  0
   -4.5673   21.7132  -28.2368 H   0  0  0  0  0  0  0  0  0  0  0  0
   -1.6487   21.2735  -28.9272 H   0  0  0  0  0  0  0  0  0  0  0  0
   -3.0744   20.4824  -29.6160 H   0  0  0  0  0  0  0  0  0  0  0  0
   -1.7375   22.4293  -30.9717 H   0  0  0  0  0  0  0  0  0  0  0  0
   -3.4891   22.2976  -31.1246 H   0  0  0  0  0  0  0  0  0  0  0  0
   -7.6945   23.6340  -29.5663 H   0  0  0  0  0  0  0  0  0  0  0  0
   -8.8067   21.5353  -30.3182 H   0  0  0  0  0  0  0  0  0  0  0  0
  1  2  1  0
  2  3  1  0
  3  4  2  0
  4  5  1  0
  5  6  1  0
  6  7  2  0
  6  8  2  0
  6  9  1  0
  9 10  1  0
 10 11  1  0
 11 12  1  0
 12 13  1  0
 13 14  1  0
  5 15  2  0
 15 16  1  0
 16 17  2  0
 17 18  1  0
 17  3  1  0
 14 10  1  0
  1 19  1  0
  1 20  1  0
  1 21  1  0
  4 22  1  0
 10 23  1  0
 11 24  1  0
 11 25  1  0
 12 26  1  0
 12 27  1  0
 13 28  1  0
 13 29  1  0
 14 30  1  0
 14 31  1  0
 15 32  1  0
 16 33  1  0
M  CHG  1   9  -1
M  END
>  <UniqueID>  (1) 
1

>  <SMILES>  (1) 
COc1cc(S(=O)(=O)[N-]C2CCCC2)ccc1Cl

>  <Energy>  (1) 
38.58386339453279

>  <Genealogy>  (1) 
COc1cc(S(=O)(=O)[N-]C2CCCC2)ccc1Cl (protonated)
COc1cc(S(=O)(=O)[N-]C2CCCC2)ccc1Cl (3D coordinates assigned)
COc1cc(S(=O)(=O)[N-]C2CCCC2)ccc1Cl (nonaromatic ring conformer: 38.58386339453279 kcal/mol)

>  <smiles>  (1) 
COc1cc(S(=O)(=O)NC2CCCC2)ccc1Cl

>  <score_type>  (1) 
oracle

>  <origin>  (1) 
adg

>  <m_score__min__energy>  (1) 
-8.3300000000000001

>  <m_primary>  (1) 
energy

$$$$
1:0
     RDKit          3D

 44 47  0  0  0  0  0  0  0  0999 V2000
   -6.2507   26.2295  -31.0287 H   0  0  0  0  0  0  0  0  0  0  0  0
   -5.8050   25.2340  -30.8860 C   0  0  0  0  0  0  0  0  0  0  0  0
   -4.5130   25.1040  -30.8570 N   0  0  0  0  0  0  0  0  0  0  0  0
   -3.8490   23.9290  -30.3030 C   0  0  0  0  0  0  0  0  0  0  0  0
   -4.6057   23.2445  -29.8921 H   0  0  0  0  0  0  0  0  0  0  0  0
   -3.2822   23.4281  -31.1017 H   0  0  0  0  0  0  0  0  0  0  0  0
   -2.9040   24.3320  -29.2140 C   0  0  0  0  0  0  0  0  0  0  0  0
   -2.0220   25.2970  -29.3280 O   0  0  0  0  0  0  0  0  0  0  0  0
   -1.3760   25.4090  -28.1890 C   0  0  0  0  0  0  0  0  0  0  0  0
   -0.5730   26.1324  -27.9843 H   0  0  0  0  0  0  0  0  0  0  0  0
   -1.8590   24.4800  -27.2880 C   0  0  0  0  0  0  0  0  0  0  0  0
   -1.5215   24.3265  -26.2524 H   0  0  0  0  0  0  0  0  0  0  0  0
   -2.8490   23.7840  -27.9480 C   0  0  0  0  0  0  0  0  0  0  0  0
   -3.4654   22.9645  -27.5498 H   0  0  0  0  0  0  0  0  0  0  0  0
   -6.6730   24.0640  -30.7300 C   0  0  0  0  0  0  0  0  0  0  0  0
   -6.8330   23.3880  -29.5750 N   0  0  0  0  0  0  0  0  0  0  0  0
   -7.6750   22.3960  -29.8280 N   0  0  0  0  0  0  0  0  0  0  0  0
   -8.0580   22.4310  -31.0950 N   0  0  0  0  0  0  0  0  0  0  0  0
   -8.9250   21.4410  -31.7220 C   0  0  0  0  0  0  0  0  0  0  0  0
   -9.6071   21.0229  -30.9670 H   0  0  0  0  0  0  0  0  0  0  0  0
   -9.5065   21.9230  -32.5217 H   0  0  0  0  0  0  0  0  0  0  0  0
   -8.0950   20.3350  -32.3110 C   0  0  0  0  0  0  0  0  0  0  0  0
   -6.9580   20.6330  -33.0750 C   0  0  0  0  0  0  0  0  0  0  0  0
   -6.6915   21.6817  -33.2730 H   0  0  0  0  0  0  0  0  0  0  0  0
   -6.1620   19.6060  -33.5860 C   0  0  0  0  0  0  0  0  0  0  0  0
   -5.2768   19.8519  -34.1910 H   0  0  0  0  0  0  0  0  0  0  0  0
   -6.4820   18.2600  -33.3340 C   0  0  0  0  0  0  0  0  0  0  0  0
   -5.6360   17.1660  -33.8750 C   0  0  0  0  0  0  0  0  0  0  0  0
   -5.9860   15.8190  -33.6640 C   0  0  0  0  0  0  0  0  0  0  0  0
   -6.8934   15.5731  -33.0930 H   0  0  0  0  0  0  0  0  0  0  0  0
   -5.1870   14.7910  -34.1760 C   0  0  0  0  0  0  0  0  0  0  0  0
   -5.4684   13.7411  -34.0071 H   0  0  0  0  0  0  0  0  0  0  0  0
   -4.0330   15.0950  -34.9010 C   0  0  0  0  0  0  0  0  0  0  0  0
   -3.4062   14.2851  -35.3026 H   0  0  0  0  0  0  0  0  0  0  0  0
   -3.6750   16.4270  -35.1160 C   0  0  0  0  0  0  0  0  0  0  0  0
   -2.7652   16.6653  -35.6865 H   0  0  0  0  0  0  0  0  0  0  0  0
   -4.4700   17.4590  -34.6080 C   0  0  0  0  0  0  0  0  0  0  0  0
   -4.1827   18.5065  -34.7821 H   0  0  0  0  0  0  0  0  0  0  0  0
   -7.6150   17.9660  -32.5530 C   0  0  0  0  0  0  0  0  0  0  0  0
   -7.8771   16.9184  -32.3438 H   0  0  0  0  0  0  0  0  0  0  0  0
   -8.4100   18.9960  -32.0410 C   0  0  0  0  0  0  0  0  0  0  0  0
   -9.2873   18.7543  -31.4230 H   0  0  0  0  0  0  0  0  0  0  0  0
   -7.4420   23.4600  -31.7020 C   0  0  0  0  0  0  0  0  0  0  0  0
   -7.5327   23.7586  -32.7568 H   0  0  0  0  0  0  0  0  0  0  0  0
  1  2  1  0
  2  3  2  0
  3  4  1  0
  4  5  1  0
  4  6  1  0
  4  7  1  0
  7  8  1  0
  8  9  1  0
  9 10  1  0
  9 11  2  0
 11 12  1  0
 11 13  1  0
 13 14  1  0
  2 15  1  0
 15 16  1  0
 16 17  2  0
 17 18  1  0
 18 19  1  0
 19 20  1  0
 19 21  1  0
 19 22  1  0
 22 23  2  0
 23 24  1  0
 23 25  1  0
 25 26  1  0
 25 27  2  0
 27 28  1  0
 28 29  2  0
 29 30  1  0
 29 31  1  0
 31 32  1  0
 31 33  2  0
 33 34  1  0
 33 35  1  0
 35 36  1  0
 35 37  2  0
 37 38  1  0
 27 39  1  0
 39 40  1  0
 39 41  2  0
 41 42  1  0
 18 43  1  0
 43 44  1  0
 13  7  2  0
 43 15  2  0
 41 22  1  0
 37 28  1  0
M  END
>  <UniqueID>  (2) 
2

>  <SMILES>  (2) 
C(=N/Cc1ccco1)\c1cn(Cc2ccc(-c3ccccc3)cc2)nn1

>  <Energy>  (2) 
108.70347608937666

>  <Genealogy>  (2) 
C(=N/Cc1ccco1)\c1cn(Cc2ccc(-c3ccccc3)cc2)nn1 (cis-trans isomerization)
C(=N/Cc1ccco1)\c1cn(Cc2ccc(-c3ccccc3)cc2)nn1 (3D coordinates assigned)
C(=N/Cc1ccco1)\c1cn(Cc2ccc(-c3ccccc3)cc2)nn1 (optimized conformer: 108.70347608937666 kcal/mol)

>  <smiles>  (2) 
C(=NCc1ccco1)c1cn(Cc2ccc(-c3ccccc3)cc2)nn1

>  <score_type>  (2) 
oracle

>  <origin>  (2) 
adg

>  <m_score__min__energy>  (2) 
-10.25

>  <m_primary>  (2) 
energy

$$$$
2:0
     RDKit          3D

 58 61  0  0  0  0  0  0  0  0999 V2000
   -8.9280   23.0530  -31.9810 C   0  0  0  0  0  0  0  0  0  0  0  0
   -8.2890   21.9130  -31.1820 C   0  0  0  0  0  0  0  0  0  0  0  0
   -8.7870   20.5520  -31.6790 C   0  0  0  0  0  0  0  0  0  0  0  0
   -6.7830   21.9910  -31.2680 C   0  0  0  0  0  0  0  0  0  0  0  0
   -6.0790   23.0070  -30.6070 C   0  0  0  0  0  0  0  0  0  0  0  0
   -4.6840   23.0800  -30.7140 C   0  0  0  0  0  0  0  0  0  0  0  0
   -3.9820   24.1750  -30.0180 C   0  0  0  0  0  0  0  0  0  0  0  0
   -3.8580   25.2960  -30.5820 O   0  0  0  0  0  0  0  0  0  0  0  0
   -3.4330   23.9580  -28.7110 N   0  0  0  0  0  0  0  0  0  0  0  0
   -2.4990   24.9040  -28.0840 C   0  0  0  0  0  0  0  0  0  0  0  0
   -1.1980   25.0450  -28.9150 C   0  0  0  0  0  0  0  0  0  0  0  0
    0.0200   24.3660  -28.2630 C   0  0  0  0  0  0  0  0  0  0  0  0
   -0.3220   23.0660  -27.6460 N   0  0  0  0  0  0  0  0  0  0  0  0
   -0.6500   22.0120  -28.6340 C   0  0  0  0  0  0  0  0  0  0  0  0
   -1.2350   20.7930  -27.9690 C   0  0  0  0  0  0  0  0  0  0  0  0
   -2.6100   20.7350  -27.6900 C   0  0  0  0  0  0  0  0  0  0  0  0
   -3.1520   19.6090  -27.0630 C   0  0  0  0  0  0  0  0  0  0  0  0
   -2.3290   18.5370  -26.7100 C   0  0  0  0  0  0  0  0  0  0  0  0
   -0.9590   18.5890  -26.9820 C   0  0  0  0  0  0  0  0  0  0  0  0
   -0.4110   19.7130  -27.6090 C   0  0  0  0  0  0  0  0  0  0  0  0
   -1.3500   23.1840  -26.5760 C   0  0  0  0  0  0  0  0  0  0  0  0
   -2.1890   24.4800  -26.6380 C   0  0  0  0  0  0  0  0  0  0  0  0
   -3.9960   22.1030  -31.4720 C   0  0  0  0  0  0  0  0  0  0  0  0
   -2.5890   22.0720  -31.5750 C   0  0  0  0  0  0  0  0  0  0  0  0
   -1.9570   21.0790  -32.3290 C   0  0  0  0  0  0  0  0  0  0  0  0
   -2.7120   20.1060  -32.9850 C   0  0  0  0  0  0  0  0  0  0  0  0
   -4.1050   20.1130  -32.8820 C   0  0  0  0  0  0  0  0  0  0  0  0
   -4.7490   21.0980  -32.1250 C   0  0  0  0  0  0  0  0  0  0  0  0
   -6.1020   21.0750  -32.0070 N   0  0  0  0  0  0  0  0  0  0  0  0
   -9.3455   23.7978  -31.2874 H   0  0  0  0  0  0  0  0  0  0  0  0
   -8.1652   23.5291  -32.6147 H   0  0  0  0  0  0  0  0  0  0  0  0
   -9.7322   22.6508  -32.6147 H   0  0  0  0  0  0  0  0  0  0  0  0
   -8.5863   22.0209  -30.1285 H   0  0  0  0  0  0  0  0  0  0  0  0
   -9.0218   19.9103  -30.8169 H   0  0  0  0  0  0  0  0  0  0  0  0
   -9.6918   20.6929  -32.2884 H   0  0  0  0  0  0  0  0  0  0  0  0
   -8.0049   20.0756  -32.2884 H   0  0  0  0  0  0  0  0  0  0  0  0
   -6.6228   23.7484  -30.0032 H   0  0  0  0  0  0  0  0  0  0  0  0
   -3.6890   23.0760  -28.2130 H   0  0  0  0  0  0  0  0  0  0  0  0
   -2.9824   25.8917  -28.0569 H   0  0  0  0  0  0  0  0  0  0  0  0
   -1.3639   24.5898  -29.9026 H   0  0  0  0  0  0  0  0  0  0  0  0
   -0.9722   26.1193  -28.9852 H   0  0  0  0  0  0  0  0  0  0  0  0
    0.7867   24.2002  -29.0341 H   0  0  0  0  0  0  0  0  0  0  0  0
    0.3867   25.0293  -27.4658 H   0  0  0  0  0  0  0  0  0  0  0  0
   -1.3800   22.4114  -29.3534 H   0  0  0  0  0  0  0  0  0  0  0  0
    0.2792   21.7148  -29.1422 H   0  0  0  0  0  0  0  0  0  0  0  0
   -3.2620   21.5771  -27.9653 H   0  0  0  0  0  0  0  0  0  0  0  0
   -4.2298   19.5672  -26.8470 H   0  0  0  0  0  0  0  0  0  0  0  0
   -2.7590   17.6521  -26.2181 H   0  0  0  0  0  0  0  0  0  0  0  0
   -0.3110   17.7451  -26.7027 H   0  0  0  0  0  0  0  0  0  0  0  0
    0.6677   19.7516  -27.8208 H   0  0  0  0  0  0  0  0  0  0  0  0
   -2.0342   22.3268  -26.6600 H   0  0  0  0  0  0  0  0  0  0  0  0
   -0.8070   23.2067  -25.6197 H   0  0  0  0  0  0  0  0  0  0  0  0
   -3.1377   24.3134  -26.1067 H   0  0  0  0  0  0  0  0  0  0  0  0
   -1.6029   25.2840  -26.1690 H   0  0  0  0  0  0  0  0  0  0  0  0
   -1.9860   22.8337  -31.0590 H   0  0  0  0  0  0  0  0  0  0  0  0
   -0.8598   21.0646  -32.4055 H   0  0  0  0  0  0  0  0  0  0  0  0
   -2.2095   19.3324  -33.5841 H   0  0  0  0  0  0  0  0  0  0  0  0
   -4.6972   19.3423  -33.3972 H   0  0  0  0  0  0  0  0  0  0  0  0
  1  2  1  0
  2  3  1  0
  2  4  1  0
  4  5  2  0
  5  6  1  0
  6  7  1  0
  7  8  2  0
  7  9  1  0
  9 10  1  0
 10 11  1  0
 11 12  1  0
 12 13  1  0
 13 14  1  0
 14 15  1  0
 15 16  2  0
 16 17  1  0
 17 18  2  0
 18 19  1  0
 19 20  2  0
 13 21  1  0
 21 22  1  0
  6 23  2  0
 23 24  1  0
 24 25  2  0
 25 26  1  0
 26 27  2  0
 27 28  1  0
 28 29  2  0
 29  4  1  0
 22 10  1  0
 28 23  1  0
 20 15  1  0
  1 30  1  0
  1 31  1  0
  1 32  1  0
  2 33  1  0
  3 34  1  0
  3 35  1  0
  3 36  1  0
  5 37  1  0
  9 38  1  0
 10 39  1  0
 11 40  1  0
 11 41  1  0
 12 42  1  0
 12 43  1  0
 14 44  1  0
 14 45  1  0
 16 46  1  0
 17 47  1  0
 18 48  1  0
 19 49  1  0
 20 50  1  0
 21 51  1  0
 21 52  1  0
 22 53  1  0
 22 54  1  0
 24 55  1  0
 25 56  1  0
 26 57  1  0
 27 58  1  0
M  END
>  <UniqueID>  (3) 
3

>  <SMILES>  (3) 
CC(C)c1cc(C(=O)NC2CCN(Cc3ccccc3)CC2)c2ccccc2n1

>  <Energy>  (3) 
73.86809980365982

>  <Genealogy>  (3) 
CC(C)c1cc(C(=O)NC2CCN(Cc3ccccc3)CC2)c2ccccc2n1 (3D coordinates assigned)
CC(C)c1cc(C(=O)NC2CCN(Cc3ccccc3)CC2)c2ccccc2n1 (nonaromatic ring conformer: 73.86809980365982 kcal/mol)

>  <smiles>  (3) 
CC(C)c1cc(C(=O)NC2CCN(Cc3ccccc3)CC2)c2ccccc2n1

>  <score_type>  (3) 
oracle

>  <origin>  (3) 
adg

>  <m_score__min__energy>  (3) 
-9.7899999999999991

>  <m_primary>  (3) 
energy

$$$$
3:0
     RDKit          3D

 47 49  0  0  0  0  0  0  0  0999 V2000
   -6.5500   17.5230  -33.8640 C   0  0  0  0  0  0  0  0  0  0  0  0
   -5.1050   17.9280  -33.8500 C   0  0  0  0  0  0  0  0  0  0  0  0
   -4.1020   16.9740  -34.0790 C   0  0  0  0  0  0  0  0  0  0  0  0
   -2.7610   17.3580  -34.1030 C   0  0  0  0  0  0  0  0  0  0  0  0
   -2.4080   18.6970  -33.9120 C   0  0  0  0  0  0  0  0  0  0  0  0
   -3.4020   19.6710  -33.7000 C   0  0  0  0  0  0  0  0  0  0  0  0
   -3.0740   21.0600  -33.5100 N   0  0  0  0  0  0  0  0  0  0  0  0
   -3.4710   21.8220  -32.3230 C   0  0  0  0  0  0  0  0  0  0  0  0
   -4.7180   22.6710  -32.6120 C   0  0  0  0  0  0  0  0  0  0  0  0
   -5.6100   23.0660  -31.3850 C   0  0  0  0  0  0  0  0  0  0  0  0
   -6.8390   22.1230  -31.4690 C   0  0  0  0  0  0  0  0  0  0  0  0
   -8.1450   22.6660  -31.5530 C   0  0  0  0  0  0  0  0  0  0  0  0
   -9.2650   21.8410  -31.6910 C   0  0  0  0  0  0  0  0  0  0  0  0
   -9.1080   20.4590  -31.7830 C   0  0  0  0  0  0  0  0  0  0  0  0
   -7.8310   19.9010  -31.7560 C   0  0  0  0  0  0  0  0  0  0  0  0
   -6.7070   20.7200  -31.6190 C   0  0  0  0  0  0  0  0  0  0  0  0
   -4.8440   22.8540  -30.0360 C   0  0  0  0  0  0  0  0  0  0  0  0
   -3.8960   24.0050  -29.6190 C   0  0  0  0  0  0  0  0  0  0  0  0
   -3.9680   25.1320  -30.4670 O   0  0  0  0  0  0  0  0  0  0  0  0
   -5.3080   25.5390  -30.5970 C   0  0  0  0  0  0  0  0  0  0  0  0
   -6.0980   24.5570  -31.4750 C   0  0  0  0  0  0  0  0  0  0  0  0
   -4.7500   19.2750  -33.6770 C   0  0  0  0  0  0  0  0  0  0  0  0
   -6.9124   17.4214  -32.8304 H   0  0  0  0  0  0  0  0  0  0  0  0
   -7.1408   18.2902  -34.3859 H   0  0  0  0  0  0  0  0  0  0  0  0
   -6.6560   16.5605  -34.3859 H   0  0  0  0  0  0  0  0  0  0  0  0
   -4.3737   15.9203  -34.2401 H   0  0  0  0  0  0  0  0  0  0  0  0
   -1.9783   16.6040  -34.2729 H   0  0  0  0  0  0  0  0  0  0  0  0
   -1.3481   18.9911  -33.9274 H   0  0  0  0  0  0  0  0  0  0  0  0
   -2.5280   21.5440  -34.2610 H   0  0  0  0  0  0  0  0  0  0  0  0
   -3.6927   21.1229  -31.5031 H   0  0  0  0  0  0  0  0  0  0  0  0
   -2.6454   22.4923  -32.0418 H   0  0  0  0  0  0  0  0  0  0  0  0
   -4.3817   23.6022  -33.0912 H   0  0  0  0  0  0  0  0  0  0  0  0
   -5.3593   22.0329  -33.2377 H   0  0  0  0  0  0  0  0  0  0  0  0
   -8.2801   23.7568  -31.5088 H   0  0  0  0  0  0  0  0  0  0  0  0
  -10.2716   22.2830  -31.7270 H   0  0  0  0  0  0  0  0  0  0  0  0
   -9.9908   19.8095  -31.8768 H   0  0  0  0  0  0  0  0  0  0  0  0
   -7.7074   18.8114  -31.8429 H   0  0  0  0  0  0  0  0  0  0  0  0
   -5.7040   20.2685  -31.6277 H   0  0  0  0  0  0  0  0  0  0  0  0
   -5.5910   22.7248  -29.2389 H   0  0  0  0  0  0  0  0  0  0  0  0
   -4.2015   21.9743  -30.1889 H   0  0  0  0  0  0  0  0  0  0  0  0
   -4.1595   24.3202  -28.5986 H   0  0  0  0  0  0  0  0  0  0  0  0
   -2.8689   23.6168  -29.6848 H   0  0  0  0  0  0  0  0  0  0  0  0
   -5.7696   25.5814  -29.5995 H   0  0  0  0  0  0  0  0  0  0  0  0
   -5.3289   26.5303  -31.0733 H   0  0  0  0  0  0  0  0  0  0  0  0
   -7.1533   24.5925  -31.1665 H   0  0  0  0  0  0  0  0  0  0  0  0
   -5.9439   24.8746  -32.5168 H   0  0  0  0  0  0  0  0  0  0  0  0
   -5.5358   20.0289  -33.5217 H   0  0  0  0  0  0  0  0  0  0  0  0
  1  2  1  0
  2  3  2  0
  3  4  1  0
  4  5  2  0
  5  6  1  0
  6  7  1  0
  7  8  1  0
  8  9  1  0
  9 10  1  0
 10 11  1  0
 11 12  2  0
 12 13  1  0
 13 14  2  0
 14 15  1  0
 15 16  2  0
 10 17  1  0
 17 18  1  0
 18 19  1  0
 19 20  1  0
 20 21  1  0
  6 22  2  0
 22  2  1  0
 21 10  1  0
 16 11  1  0
  1 23  1  0
  1 24  1  0
  1 25  1  0
  3 26  1  0
  4 27  1  0
  5 28  1  0
  7 29  1  0
  8 30  1  0
  8 31  1  0
  9 32  1  0
  9 33  1  0
 12 34  1  0
 13 35  1  0
 14 36  1  0
 15 37  1  0
 16 38  1  0
 17 39  1  0
 17 40  1  0
 18 41  1  0
 18 42  1  0
 20 43  1  0
 20 44  1  0
 21 45  1  0
 21 46  1  0
 22 47  1  0
M  END
>  <UniqueID>  (4) 
4

>  <SMILES>  (4) 
Cc1cccc(NCCC2(c3ccccc3)CCOCC2)c1

>  <Energy>  (4) 
64.95708170523454

>  <Genealogy>  (4) 
Cc1cccc(NCCC2(c3ccccc3)CCOCC2)c1 (3D coordinates assigned)
Cc1cccc(NCCC2(c3ccccc3)CCOCC2)c1 (nonaromatic ring conformer: 64.95708170523454 kcal/mol)

>  <smiles>  (4) 
Cc1cccc(NCCC2(c3ccccc3)CCOCC2)c1

>  <score_type>  (4) 
oracle

>  <origin>  (4) 
adg

>  <m_score__min__energy>  (4) 
-9.3300000000000001

>  <m_primary>  (4) 
energy

$$$$
4:0
     RDKit          3D

 32 34  0  0  0  0  0  0  0  0999 V2000
   -0.4910   27.1540  -27.5460 C   0  0  0  0  0  0  0  0  0  0  0  0
   -1.3040   25.9280  -27.7870 C   0  0  0  0  0  0  0  0  0  0  0  0
   -1.5060   24.8890  -26.9090 C   0  0  0  0  0  0  0  0  0  0  0  0
   -2.3210   23.9850  -27.4860 N   0  0  0  0  0  0  0  0  0  0  0  0
   -2.5740   24.5220  -28.6990 C   0  0  0  0  0  0  0  0  0  0  0  0
   -3.4690   23.8870  -29.7120 C   0  0  0  0  0  0  0  0  0  0  0  0
   -3.7150   24.8300  -30.8090 N   0  0  0  0  0  0  0  0  0  0  0  0
   -5.1110   25.2860  -30.8140 C   0  0  0  0  0  0  0  0  0  0  0  0
   -6.0300   24.1510  -31.1510 C   0  0  0  0  0  0  0  0  0  0  0  0
   -7.3820   24.1400  -30.8200 C   0  0  0  0  0  0  0  0  0  0  0  0
   -8.0250   22.6780  -31.3450 S   0  0  0  0  0  0  0  0  0  0  0  0
   -6.5620   22.1250  -31.9660 C   0  0  0  0  0  0  0  0  0  0  0  0
   -6.3520   20.8270  -32.6190 C   0  0  0  0  0  0  0  0  0  0  0  0
   -7.2730   19.7900  -32.7050 C   0  0  0  0  0  0  0  0  0  0  0  0
   -6.7810   18.6720  -33.3900 C   0  0  0  0  0  0  0  0  0  0  0  0
   -5.4770   18.8240  -33.8440 C   0  0  0  0  0  0  0  0  0  0  0  0
   -4.9360   20.3510  -33.3910 S   0  0  0  0  0  0  0  0  0  0  0  0
   -5.5790   23.0320  -31.7820 N   0  0  0  0  0  0  0  0  0  0  0  0
   -1.9790   25.6810  -28.8810 O   0  0  0  0  0  0  0  0  0  0  0  0
   -0.3837   27.3158  -26.4633 H   0  0  0  0  0  0  0  0  0  0  0  0
    0.5038   27.0291  -27.9984 H   0  0  0  0  0  0  0  0  0  0  0  0
   -0.9932   28.0218  -27.9984 H   0  0  0  0  0  0  0  0  0  0  0  0
   -1.0731   24.8093  -25.9009 H   0  0  0  0  0  0  0  0  0  0  0  0
   -2.9882   22.9807  -30.1088 H   0  0  0  0  0  0  0  0  0  0  0  0
   -4.4250   23.6186  -29.2387 H   0  0  0  0  0  0  0  0  0  0  0  0
   -3.1110   25.6720  -30.6470 H   0  0  0  0  0  0  0  0  0  0  0  0
   -5.3681   25.6773  -29.8186 H   0  0  0  0  0  0  0  0  0  0  0  0
   -5.2259   26.0753  -31.5715 H   0  0  0  0  0  0  0  0  0  0  0  0
   -7.9310   24.9434  -30.3071 H   0  0  0  0  0  0  0  0  0  0  0  0
   -8.2856   19.8420  -32.2784 H   0  0  0  0  0  0  0  0  0  0  0  0
   -7.3720   17.7587  -33.5533 H   0  0  0  0  0  0  0  0  0  0  0  0
   -4.8978   18.0747  -34.4035 H   0  0  0  0  0  0  0  0  0  0  0  0
  1  2  1  0
  2  3  2  0
  3  4  1  0
  4  5  2  0
  5  6  1  0
  6  7  1  0
  7  8  1  0
  8  9  1  0
  9 10  2  0
 10 11  1  0
 11 12  1  0
 12 13  1  0
 13 14  2  0
 14 15  1  0
 15 16  2  0
 16 17  1  0
 12 18  2  0
  5 19  1  0
 19  2  1  0
 18  9  1  0
 17 13  1  0
  1 20  1  0
  1 21  1  0
  1 22  1  0
  3 23  1  0
  6 24  1  0
  6 25  1  0
  7 26  1  0
  8 27  1  0
  8 28  1  0
 10 29  1  0
 14 30  1  0
 15 31  1  0
 16 32  1  0
M  END
>  <UniqueID>  (5) 
5

>  <SMILES>  (5) 
Cc1cnc(CNCc2csc(-c3cccs3)n2)o1

>  <Energy>  (5) 
113.56020076481167

>  <Genealogy>  (5) 
Cc1cnc(CNCc2csc(-c3cccs3)n2)o1 (3D coordinates assigned)
Cc1cnc(CNCc2csc(-c3cccs3)n2)o1 (optimized conformer: 113.56020076481167 kcal/mol)

>  <smiles>  (5) 
Cc1cnc(CNCc2csc(-c3cccs3)n2)o1

>  <score_type>  (5) 
oracle

>  <origin>  (5) 
adg

>  <m_score__min__energy>  (5) 
-7.8099999999999996

>  <m_primary>  (5) 
energy

$$$$
5:0
     RDKit          3D

 32 34  0  0  0  0  0  0  0  0999 V2000
   -4.4980   24.4870  -29.8950 C   0  0  0  0  0  0  0  0  0  0  0  0
   -5.7400   25.0970  -29.7100 C   0  0  0  0  0  0  0  0  0  0  0  0
   -6.8410   24.6890  -30.4690 C   0  0  0  0  0  0  0  0  0  0  0  0
   -6.7110   23.6690  -31.4200 C   0  0  0  0  0  0  0  0  0  0  0  0
   -7.8460   23.3000  -32.1590 O   0  0  0  0  0  0  0  0  0  0  0  0
   -8.8200   22.3380  -31.7520 C   0  0  0  0  0  0  0  0  0  0  0  0
   -8.3730   20.9430  -32.1000 C   0  0  0  0  0  0  0  0  0  0  0  0
   -9.0720   19.8410  -31.5890 C   0  0  0  0  0  0  0  0  0  0  0  0
   -8.6580   18.5490  -31.9120 C   0  0  0  0  0  0  0  0  0  0  0  0
   -7.5450   18.3600  -32.7370 C   0  0  0  0  0  0  0  0  0  0  0  0
   -7.1080   17.0710  -33.0800 C   0  0  0  0  0  0  0  0  0  0  0  0
   -5.9930   16.9080  -33.9060 C   0  0  0  0  0  0  0  0  0  0  0  0
   -5.3080   18.0250  -34.3920 C   0  0  0  0  0  0  0  0  0  0  0  0
   -5.7360   19.3130  -34.0560 C   0  0  0  0  0  0  0  0  0  0  0  0
   -6.8550   19.4920  -33.2280 C   0  0  0  0  0  0  0  0  0  0  0  0
   -7.2800   20.7460  -32.8950 N   0  0  0  0  0  0  0  0  0  0  0  0
   -5.4540   23.0540  -31.5990 C   0  0  0  0  0  0  0  0  0  0  0  0
   -4.3550   23.4660  -30.8380 C   0  0  0  0  0  0  0  0  0  0  0  0
   -3.6321   24.8101  -29.2985 H   0  0  0  0  0  0  0  0  0  0  0  0
   -5.8525   25.8996  -28.9662 H   0  0  0  0  0  0  0  0  0  0  0  0
   -7.8172   25.1730  -30.3180 H   0  0  0  0  0  0  0  0  0  0  0  0
   -8.9643   22.4093  -30.6638 H   0  0  0  0  0  0  0  0  0  0  0  0
   -9.7630   22.5472  -32.2783 H   0  0  0  0  0  0  0  0  0  0  0  0
   -9.9437   19.9945  -30.9358 H   0  0  0  0  0  0  0  0  0  0  0  0
   -9.2060   17.6802  -31.5185 H   0  0  0  0  0  0  0  0  0  0  0  0
   -7.6434   16.1891  -32.6985 H   0  0  0  0  0  0  0  0  0  0  0  0
   -5.6531   15.8969  -34.1747 H   0  0  0  0  0  0  0  0  0  0  0  0
   -4.4298   17.8905  -35.0406 H   0  0  0  0  0  0  0  0  0  0  0  0
   -5.1939   20.1889  -34.4419 H   0  0  0  0  0  0  0  0  0  0  0  0
   -6.7590   21.5760  -33.2610 H   0  0  0  0  0  0  0  0  0  0  0  0
   -5.3378   22.2484  -32.3389 H   0  0  0  0  0  0  0  0  0  0  0  0
   -3.3762   22.9852  -30.9823 H   0  0  0  0  0  0  0  0  0  0  0  0
  1  2  2  0
  2  3  1  0
  3  4  2  0
  4  5  1  0
  5  6  1  0
  6  7  1  0
  7  8  2  0
  8  9  1  0
  9 10  2  0
 10 11  1  0
 11 12  2  0
 12 13  1  0
 13 14  2  0
 14 15  1  0
 15 16  2  0
  4 17  1  0
 17 18  2  0
 18  1  1  0
 16  7  1  0
 15 10  1  0
  1 19  1  0
  2 20  1  0
  3 21  1  0
  6 22  1  0
  6 23  1  0
  8 24  1  0
  9 25  1  0
 11 26  1  0
 12 27  1  0
 13 28  1  0
 14 29  1  0
 16 30  1  0
 17 31  1  0
 18 32  1  0
M  CHG  1  16   1
M  END
>  <UniqueID>  (6) 
6

>  <SMILES>  (6) 
c1ccc(OCc2ccc3ccccc3[nH+]2)cc1

>  <Energy>  (6) 
37.4010790282707

>  <Genealogy>  (6) 
c1ccc(OCc2ccc3ccccc3[nH+]2)cc1 (protonated)
c1ccc(OCc2ccc3ccccc3[nH+]2)cc1 (3D coordinates assigned)
c1ccc(OCc2ccc3ccccc3[nH+]2)cc1 (optimized conformer: 37.4010790282707 kcal/mol)

>  <smiles>  (6) 
c1ccc(OCc2ccc3ccccc3n2)cc1

>  <score_type>  (6) 
oracle

>  <origin>  (6) 
adg

>  <m_score__min__energy>  (6) 
-6.7699999999999996

>  <m_primary>  (6) 
energy

$$$$
6:0
     RDKit          3D

 29 30  0  0  1  0  0  0  0  0999 V2000
   -4.5140   18.2340  -34.2770 C   0  0  0  0  0  0  0  0  0  0  0  0
   -5.5630   19.1840  -34.3990 O   0  0  0  0  0  0  0  0  0  0  0  0
   -6.5510   19.3030  -33.4330 C   0  0  0  0  0  0  0  0  0  0  0  0
   -6.8780   20.5120  -32.8360 C   0  0  0  0  0  0  0  0  0  0  0  0
   -7.8610   20.6270  -31.8730 C   0  0  0  0  0  0  0  0  0  0  0  0
   -8.2790   22.1460  -31.1140 S   0  0  0  0  0  0  0  0  0  0  0  0
   -9.5300   21.8310  -30.2830 O   0  0  0  0  0  0  0  0  0  0  0  0
   -8.7890   23.1730  -32.0660 O   0  0  0  0  0  0  0  0  0  0  0  0
   -7.1610   22.6810  -29.9560 N   0  0  0  0  0  0  0  0  0  0  0  0
   -6.2140   23.5000  -30.1790 C   0  0  0  0  0  0  0  0  0  0  0  0
   -6.4670   24.8420  -30.2950 C   0  0  0  0  0  0  0  0  0  0  0  0
   -5.5020   25.7950  -30.5340 C   0  0  0  0  0  0  0  0  0  0  0  0
   -4.2230   25.3350  -30.6590 N   0  0  0  0  0  0  0  0  0  0  0  0
   -3.9410   24.0130  -30.5480 C   0  0  0  0  0  0  0  0  0  0  0  0
   -4.9300   23.1040  -30.3100 N   0  0  0  0  0  0  0  0  0  0  0  0
   -8.5120   19.4330  -31.5370 C   0  0  0  0  0  0  0  0  0  0  0  0
   -8.1870   18.2320  -32.1300 C   0  0  0  0  0  0  0  0  0  0  0  0
   -7.2140   18.1490  -33.0750 C   0  0  0  0  0  0  0  0  0  0  0  0
   -6.9450   16.9350  -33.6160 F   0  0  0  0  0  0  0  0  0  0  0  0
   -4.3092   18.0486  -33.2123 H   0  0  0  0  0  0  0  0  0  0  0  0
   -4.8131   17.2932  -34.7621 H   0  0  0  0  0  0  0  0  0  0  0  0
   -3.6073   18.6246  -34.7621 H   0  0  0  0  0  0  0  0  0  0  0  0
   -6.3317   21.4162  -33.1424 H   0  0  0  0  0  0  0  0  0  0  0  0
   -7.5086   25.1798  -30.1904 H   0  0  0  0  0  0  0  0  0  0  0  0
   -5.7475   26.8639  -30.6191 H   0  0  0  0  0  0  0  0  0  0  0  0
   -3.5020   26.0530  -30.8380 H   0  0  0  0  0  0  0  0  0  0  0  0
   -2.9012   23.6693  -30.6512 H   0  0  0  0  0  0  0  0  0  0  0  0
   -9.3067   19.4546  -30.7768 H   0  0  0  0  0  0  0  0  0  0  0  0
   -8.7268   17.3211  -31.8319 H   0  0  0  0  0  0  0  0  0  0  0  0
  1  2  1  0
  2  3  1  0
  3  4  2  0
  4  5  1  0
  5  6  1  0
  6  7  2  0
  6  8  2  0
  6  9  1  0
  9 10  2  0
 10 11  1  0
 11 12  2  0
 12 13  1  0
 13 14  1  0
 14 15  2  0
  5 16  2  0
 16 17  1  0
 17 18  2  0
 18 19  1  0
 18  3  1  0
 15 10  1  0
  1 20  1  0
  1 21  1  0
  1 22  1  0
  4 23  1  0
 11 24  1  0
 12 25  1  0
 13 26  1  0
 14 27  1  0
 16 28  1  0
 17 29  1  0
M  END
>  <smiles>  (7) 
COc1cc(S(=O)(=O)N=c2cc[nH]cn2)ccc1F

>  <score_type>  (7) 
oracle

>  <origin>  (7) 
adg

>  <m_score__min__energy>  (7) 
-7.1200000000000001

>  <m_primary>  (7) 
energy

$$$$
7:0
     RDKit          3D

 51 53  0  0  0  0  0  0  0  0999 V2000
   -4.6320   13.3760  -31.1410 C   0  0  0  0  0  0  0  0  0  0  0  0
   -4.5330   13.7640  -32.6130 C   0  0  0  0  0  0  0  0  0  0  0  0
   -5.1190   15.1330  -32.8450 C   0  0  0  0  0  0  0  0  0  0  0  0
   -5.3620   15.9920  -31.7630 C   0  0  0  0  0  0  0  0  0  0  0  0
   -5.8850   17.2720  -31.9770 C   0  0  0  0  0  0  0  0  0  0  0  0
   -6.1840   17.7120  -33.2770 C   0  0  0  0  0  0  0  0  0  0  0  0
   -6.7360   19.0720  -33.4850 C   0  0  0  0  0  0  0  0  0  0  0  0
   -6.4870   19.6700  -34.5670 O   0  0  0  0  0  0  0  0  0  0  0  0
   -7.5890   19.7590  -32.4320 C   0  0  0  0  0  0  0  0  0  0  0  0
   -6.9370   20.9290  -31.7840 N   0  0  0  0  0  0  0  0  0  0  0  0
   -5.7750   21.4360  -32.5480 C   0  0  0  0  0  0  0  0  0  0  0  0
   -5.0090   22.5170  -31.7490 C   0  0  0  0  0  0  0  0  0  0  0  0
   -5.8250   23.0700  -30.6500 N   0  0  0  0  0  0  0  0  0  0  0  0
   -5.0960   24.5330  -30.0300 S   0  0  0  0  0  0  0  0  0  0  0  0
   -6.1330   25.3310  -29.2900 O   0  0  0  0  0  0  0  0  0  0  0  0
   -4.6000   25.3670  -31.1790 O   0  0  0  0  0  0  0  0  0  0  0  0
   -3.7490   24.1790  -28.9450 C   0  0  0  0  0  0  0  0  0  0  0  0
   -3.8270   24.5140  -27.5840 C   0  0  0  0  0  0  0  0  0  0  0  0
   -2.7640   24.2200  -26.7250 C   0  0  0  0  0  0  0  0  0  0  0  0
   -1.6170   23.5900  -27.2190 C   0  0  0  0  0  0  0  0  0  0  0  0
   -0.5900   23.3030  -26.3840 F   0  0  0  0  0  0  0  0  0  0  0  0
   -1.5350   23.2520  -28.5740 C   0  0  0  0  0  0  0  0  0  0  0  0
   -2.5950   23.5490  -29.4360 C   0  0  0  0  0  0  0  0  0  0  0  0
   -7.1980   23.3350  -31.1040 C   0  0  0  0  0  0  0  0  0  0  0  0
   -7.9040   22.0110  -31.4660 C   0  0  0  0  0  0  0  0  0  0  0  0
   -5.9160   16.8580  -34.3640 C   0  0  0  0  0  0  0  0  0  0  0  0
   -5.3830   15.5830  -34.1490 C   0  0  0  0  0  0  0  0  0  0  0  0
   -4.4084   14.2524  -30.5150 H   0  0  0  0  0  0  0  0  0  0  0  0
   -5.6498   13.0200  -30.9233 H   0  0  0  0  0  0  0  0  0  0  0  0
   -3.9092   12.5759  -30.9233 H   0  0  0  0  0  0  0  0  0  0  0  0
   -3.4752   13.7684  -32.9146 H   0  0  0  0  0  0  0  0  0  0  0  0
   -5.0976   13.0325  -33.2097 H   0  0  0  0  0  0  0  0  0  0  0  0
   -5.1398   15.6570  -30.7391 H   0  0  0  0  0  0  0  0  0  0  0  0
   -6.0634   17.9389  -31.1206 H   0  0  0  0  0  0  0  0  0  0  0  0
   -8.5171   20.1036  -32.9115 H   0  0  0  0  0  0  0  0  0  0  0  0
   -7.7674   19.0183  -31.6386 H   0  0  0  0  0  0  0  0  0  0  0  0
   -6.5690   20.5750  -30.8660 H   0  0  0  0  0  0  0  0  0  0  0  0
   -5.0943   20.5992  -32.7633 H   0  0  0  0  0  0  0  0  0  0  0  0
   -6.1419   21.8874  -33.4816 H   0  0  0  0  0  0  0  0  0  0  0  0
   -4.0988   22.0678  -31.3250 H   0  0  0  0  0  0  0  0  0  0  0  0
   -4.7618   23.3387  -32.4372 H   0  0  0  0  0  0  0  0  0  0  0  0
   -4.7275   25.0095  -27.1921 H   0  0  0  0  0  0  0  0  0  0  0  0
   -2.8297   24.4844  -25.6593 H   0  0  0  0  0  0  0  0  0  0  0  0
   -0.6353   22.7519  -28.9618 H   0  0  0  0  0  0  0  0  0  0  0  0
   -2.5243   23.2881  -30.5023 H   0  0  0  0  0  0  0  0  0  0  0  0
   -7.7563   23.8365  -30.2998 H   0  0  0  0  0  0  0  0  0  0  0  0
   -7.1636   23.9790  -31.9951 H   0  0  0  0  0  0  0  0  0  0  0  0
   -8.5223   21.6943  -30.6131 H   0  0  0  0  0  0  0  0  0  0  0  0
   -8.5183   22.1892  -32.3609 H   0  0  0  0  0  0  0  0  0  0  0  0
   -6.1273   17.1960  -35.3892 H   0  0  0  0  0  0  0  0  0  0  0  0
   -5.1692   14.9284  -35.0067 H   0  0  0  0  0  0  0  0  0  0  0  0
  1  2  1  0
  2  3  1  0
  3  4  2  0
  4  5  1  0
  5  6  2  0
  6  7  1  0
  7  8  2  0
  7  9  1  0
  9 10  1  0
 10 11  1  0
 11 12  1  0
 12 13  1  0
 13 14  1  0
 14 15  2  0
 14 16  2  0
 14 17  1  0
 17 18  2  0
 18 19  1  0
 19 20  2  0
 20 21  1  0
 20 22  1  0
 22 23  2  0
 13 24  1  0
 24 25  1  0
  6 26  1  0
 26 27  2  0
 27  3  1  0
 25 10  1  0
 23 17  1  0
  1 28  1  0
  1 29  1  0
  1 30  1  0
  2 31  1  0
  2 32  1  0
  4 33  1  0
  5 34  1  0
  9 35  1  0
  9 36  1  0
 10 37  1  0
 11 38  1  0
 11 39  1  0
 12 40  1  0
 12 41  1  0
 18 42  1  0
 19 43  1  0
 22 44  1  0
 23 45  1  0
 24 46  1  0
 24 47  1  0
 25 48  1  0
 25 49  1  0
 26 50  1  0
 27 51  1  0
M  CHG  1  10   1
M  END
>  <UniqueID>  (8) 
7

>  <SMILES>  (8) 
CCc1ccc(C(=O)C[NH+]2CCN(S(=O)(=O)c3ccc(F)cc3)CC2)cc1

>  <Energy>  (8) 
63.448504106369896

>  <Genealogy>  (8) 
CCc1ccc(C(=O)C[NH+]2CCN(S(=O)(=O)c3ccc(F)cc3)CC2)cc1 (protonated)
CCc1ccc(C(=O)C[NH+]2CCN(S(=O)(=O)c3ccc(F)cc3)CC2)cc1 (3D coordinates assigned)
CCc1ccc(C(=O)C[NH+]2CCN(S(=O)(=O)c3ccc(F)cc3)CC2)cc1 (nonaromatic ring conformer: 63.448504106369896 kcal/mol)

>  <smiles>  (8) 
CCc1ccc(C(=O)CN2CCN(S(=O)(=O)c3ccc(F)cc3)CC2)cc1

>  <score_type>  (8) 
oracle

>  <origin>  (8) 
adg

>  <m_score__min__energy>  (8) 
-9.2100000000000009

>  <m_primary>  (8) 
energy

$$$$
8:0
     RDKit          3D

 47 50  0  0  0  0  0  0  0  0999 V2000
   -2.0900   23.3850  -27.9460 C   0  0  0  0  0  0  0  0  0  0  0  0
   -1.1790   23.4950  -29.1640 C   0  0  0  0  0  0  0  0  0  0  0  0
   -1.4880   22.4410  -30.1290 N   0  0  0  0  0  0  0  0  0  0  0  0
   -0.7660   21.3130  -30.3420 C   0  0  0  0  0  0  0  0  0  0  0  0
   -1.3290   20.4800  -31.2530 N   0  0  0  0  0  0  0  0  0  0  0  0
   -2.4570   21.1320  -31.6010 C   0  0  0  0  0  0  0  0  0  0  0  0
   -2.5620   22.3020  -30.9310 C   0  0  0  0  0  0  0  0  0  0  0  0
   -3.6640   23.1260  -31.1240 C   0  0  0  0  0  0  0  0  0  0  0  0
   -3.7690   24.2130  -30.4950 O   0  0  0  0  0  0  0  0  0  0  0  0
   -4.6340   22.7210  -32.0140 N   0  0  0  0  0  0  0  0  0  0  0  0
   -5.8030   23.5850  -32.2760 C   0  0  0  0  0  0  0  0  0  0  0  0
   -7.0780   22.8740  -31.9030 C   0  0  0  0  0  0  0  0  0  0  0  0
   -8.3210   23.3860  -32.3140 C   0  0  0  0  0  0  0  0  0  0  0  0
   -9.5030   22.7100  -31.9950 C   0  0  0  0  0  0  0  0  0  0  0  0
   -9.4530   21.5170  -31.2690 C   0  0  0  0  0  0  0  0  0  0  0  0
   -8.2210   20.9980  -30.8610 C   0  0  0  0  0  0  0  0  0  0  0  0
   -7.0380   21.6720  -31.1770 C   0  0  0  0  0  0  0  0  0  0  0  0
   -4.4980   21.5200  -32.6940 C   0  0  0  0  0  0  0  0  0  0  0  0
   -5.3920   21.1580  -33.5100 O   0  0  0  0  0  0  0  0  0  0  0  0
   -3.3990   20.7120  -32.4890 N   0  0  0  0  0  0  0  0  0  0  0  0
   -3.2650   19.4120  -33.1700 C   0  0  0  0  0  0  0  0  0  0  0  0
   -4.5680   18.6580  -33.1210 C   0  0  0  0  0  0  0  0  0  0  0  0
   -5.3250   18.6280  -31.9380 C   0  0  0  0  0  0  0  0  0  0  0  0
   -6.5510   17.9570  -31.9010 C   0  0  0  0  0  0  0  0  0  0  0  0
   -7.0330   17.3150  -33.0440 C   0  0  0  0  0  0  0  0  0  0  0  0
   -6.2880   17.3430  -34.2270 C   0  0  0  0  0  0  0  0  0  0  0  0
   -5.0620   18.0140  -34.2690 C   0  0  0  0  0  0  0  0  0  0  0  0
   -1.4867   23.4578  -27.0291 H   0  0  0  0  0  0  0  0  0  0  0  0
   -2.8279   24.2006  -27.9652 H   0  0  0  0  0  0  0  0  0  0  0  0
   -2.6126   22.4172  -27.9652 H   0  0  0  0  0  0  0  0  0  0  0  0
   -1.3264   24.4760  -29.6393 H   0  0  0  0  0  0  0  0  0  0  0  0
   -0.1339   23.3855  -28.8387 H   0  0  0  0  0  0  0  0  0  0  0  0
    0.1815   21.0951  -29.8275 H   0  0  0  0  0  0  0  0  0  0  0  0
   -5.7139   24.5053  -31.6801 H   0  0  0  0  0  0  0  0  0  0  0  0
   -5.8321   23.8292  -33.3482 H   0  0  0  0  0  0  0  0  0  0  0  0
   -8.3642   24.3227  -32.8892 H   0  0  0  0  0  0  0  0  0  0  0  0
  -10.4729   23.1177  -32.3159 H   0  0  0  0  0  0  0  0  0  0  0  0
  -10.3834   20.9863  -31.0186 H   0  0  0  0  0  0  0  0  0  0  0  0
   -8.1824   20.0582  -30.2907 H   0  0  0  0  0  0  0  0  0  0  0  0
   -6.0705   21.2590  -30.8555 H   0  0  0  0  0  0  0  0  0  0  0  0
   -2.9825   19.5799  -34.2197 H   0  0  0  0  0  0  0  0  0  0  0  0
   -2.4903   18.8200  -32.6607 H   0  0  0  0  0  0  0  0  0  0  0  0
   -4.9513   19.1350  -31.0362 H   0  0  0  0  0  0  0  0  0  0  0  0
   -7.1369   17.9346  -30.9703 H   0  0  0  0  0  0  0  0  0  0  0  0
   -7.9979   16.7878  -33.0136 H   0  0  0  0  0  0  0  0  0  0  0  0
   -6.6673   16.8360  -35.1265 H   0  0  0  0  0  0  0  0  0  0  0  0
   -4.4820   18.0381  -35.2034 H   0  0  0  0  0  0  0  0  0  0  0  0
  1  2  1  0
  2  3  1  0
  3  4  1  0
  4  5  2  0
  5  6  1  0
  6  7  2  0
  7  8  1  0
  8  9  2  0
  8 10  1  0
 10 11  1  0
 11 12  1  0
 12 13  2  0
 13 14  1  0
 14 15  2  0
 15 16  1  0
 16 17  2  0
 10 18  1  0
 18 19  2  0
 18 20  1  0
 20 21  1  0
 21 22  1  0
 22 23  2  0
 23 24  1  0
 24 25  2  0
 25 26  1  0
 26 27  2  0
  7  3  1  0
 17 12  1  0
 27 22  1  0
 20  6  1  0
  1 28  1  0
  1 29  1  0
  1 30  1  0
  2 31  1  0
  2 32  1  0
  4 33  1  0
 11 34  1  0
 11 35  1  0
 13 36  1  0
 14 37  1  0
 15 38  1  0
 16 39  1  0
 17 40  1  0
 21 41  1  0
 21 42  1  0
 23 43  1  0
 24 44  1  0
 25 45  1  0
 26 46  1  0
 27 47  1  0
M  END
>  <UniqueID>  (9) 
8

>  <SMILES>  (9) 
CCn1cnc2c1c(=O)n(Cc1ccccc1)c(=O)n2Cc1ccccc1

>  <Energy>  (9) 
92.46187632766616

>  <Genealogy>  (9) 
CCn1cnc2c1c(=O)n(Cc1ccccc1)c(=O)n2Cc1ccccc1 (3D coordinates assigned)
CCn1cnc2c1c(=O)n(Cc1ccccc1)c(=O)n2Cc1ccccc1 (optimized conformer: 92.46187632766616 kcal/mol)

>  <smiles>  (9) 
CCn1cnc2c1c(=O)n(Cc1ccccc1)c(=O)n2Cc1ccccc1

>  <score_type>  (9) 
oracle

>  <origin>  (9) 
adg

>  <m_score__min__energy>  (9) 
-8.3300000000000001

>  <m_primary>  (9) 
energy

$$$$
9:0
     RDKit          3D

 27 28  0  0  0  0  0  0  0  0999 V2000
   -6.4660   25.6670  -29.3450 C   0  0  0  0  0  0  0  0  0  0  0  0
   -5.5400   24.5320  -29.4050 N   0  0  0  0  0  0  0  0  0  0  0  0
   -4.5850   24.2890  -28.3200 C   0  0  0  0  0  0  0  0  0  0  0  0
   -5.5610   23.6390  -30.5350 C   0  0  0  0  0  0  0  0  0  0  0  0
   -6.0490   22.3440  -30.5420 C   0  0  0  0  0  0  0  0  0  0  0  0
   -5.8510   21.9180  -31.8440 C   0  0  0  0  0  0  0  0  0  0  0  0
   -6.2020   20.5860  -32.3990 C   0  0  0  0  0  0  0  0  0  0  0  0
   -5.4210   20.0040  -33.4160 C   0  0  0  0  0  0  0  0  0  0  0  0
   -5.7550   18.7500  -33.9360 C   0  0  0  0  0  0  0  0  0  0  0  0
   -6.8690   18.0620  -33.4500 C   0  0  0  0  0  0  0  0  0  0  0  0
   -7.1880   16.8460  -33.9580 F   0  0  0  0  0  0  0  0  0  0  0  0
   -7.6540   18.6290  -32.4420 C   0  0  0  0  0  0  0  0  0  0  0  0
   -8.7340   17.9610  -31.9660 F   0  0  0  0  0  0  0  0  0  0  0  0
   -7.3240   19.8840  -31.9180 C   0  0  0  0  0  0  0  0  0  0  0  0
   -5.2770   22.9190  -32.5430 N   0  0  0  0  0  0  0  0  0  0  0  0
   -5.0950   23.9670  -31.7560 N   0  0  0  0  0  0  0  0  0  0  0  0
   -6.6708   25.9180  -28.2938 H   0  0  0  0  0  0  0  0  0  0  0  0
   -6.0151   26.5351  -29.8481 H   0  0  0  0  0  0  0  0  0  0  0  0
   -7.4069   25.3995  -29.8481 H   0  0  0  0  0  0  0  0  0  0  0  0
   -5.0901   24.4175  -27.3513 H   0  0  0  0  0  0  0  0  0  0  0  0
   -4.1956   23.2631  -28.3972 H   0  0  0  0  0  0  0  0  0  0  0  0
   -3.7526   25.0040  -28.3972 H   0  0  0  0  0  0  0  0  0  0  0  0
   -6.4919   21.7828  -29.7060 H   0  0  0  0  0  0  0  0  0  0  0  0
   -4.5421   20.5397  -33.8039 H   0  0  0  0  0  0  0  0  0  0  0  0
   -5.1385   18.3039  -34.7303 H   0  0  0  0  0  0  0  0  0  0  0  0
   -7.9454   20.3252  -31.1248 H   0  0  0  0  0  0  0  0  0  0  0  0
   -4.9840   22.8990  -33.5440 H   0  0  0  0  0  0  0  0  0  0  0  0
  1  2  1  0
  2  3  1  0
  2  4  1  0
  4  5  1  0
  5  6  2  0
  6  7  1  0
  7  8  2  0
  8  9  1  0
  9 10  2  0
 10 11  1  0
 10 12  1  0
 12 13  1  0
 12 14  2  0
  6 15  1  0
 15 16  1  0
 16  4  2  0
 14  7  1  0
  1 17  1  0
  1 18  1  0
  1 19  1  0
  3 20  1  0
  3 21  1  0
  3 22  1  0
  5 23  1  0
  8 24  1  0
  9 25  1  0
 14 26  1  0
 15 27  1  0
M  END
>  <UniqueID>  (10) 
9

>  <SMILES>  (10) 
CN(C)c1cc(-c2ccc(F)c(F)c2)[nH]n1

>  <Energy>  (10) 
56.952069092568465

>  <Genealogy>  (10) 
CN(C)c1cc(-c2ccc(F)c(F)c2)[nH]n1 (3D coordinates assigned)
CN(C)c1cc(-c2ccc(F)c(F)c2)[nH]n1 (optimized conformer: 56.952069092568465 kcal/mol)

>  <smiles>  (10) 
CN(C)c1cc(-c2ccc(F)c(F)c2)[nH]n1

>  <score_type>  (10) 
oracle

>  <origin>  (10) 
adg

>  <m_score__min__energy>  (10) 
-6

>  <m_primary>  (10) 
energy

$$$$
10:0
     RDKit          3D

 43 44  0  0  0  0  0  0  0  0999 V2000
   -5.6280   25.5840  -30.6040 C   0  0  0  0  0  0  0  0  0  0  0  0
   -4.4840   24.7730  -30.8450 O   0  0  0  0  0  0  0  0  0  0  0  0
   -4.0110   23.7800  -29.9710 C   0  0  0  0  0  0  0  0  0  0  0  0
   -4.0030   23.9700  -28.5740 C   0  0  0  0  0  0  0  0  0  0  0  0
   -3.5310   22.9660  -27.7250 C   0  0  0  0  0  0  0  0  0  0  0  0
   -3.0640   21.7630  -28.2560 C   0  0  0  0  0  0  0  0  0  0  0  0
   -3.0640   21.5620  -29.6360 C   0  0  0  0  0  0  0  0  0  0  0  0
   -3.5270   22.5650  -30.5040 C   0  0  0  0  0  0  0  0  0  0  0  0
   -3.5360   22.3020  -31.9930 C   0  0  0  0  0  0  0  0  0  0  0  0
   -4.8460   22.6490  -32.5710 N   0  0  0  0  0  0  0  0  0  0  0  0
   -5.8660   21.6190  -32.3010 C   0  0  0  0  0  0  0  0  0  0  0  0
   -7.3020   22.1750  -32.1810 C   0  0  0  0  0  0  0  0  0  0  0  0
   -8.3770   21.0830  -32.0190 C   0  0  0  0  0  0  0  0  0  0  0  0
   -8.2170   20.0020  -32.9960 N   0  0  0  0  0  0  0  0  0  0  0  0
   -7.2530   18.9430  -32.8440 C   0  0  0  0  0  0  0  0  0  0  0  0
   -6.3620   18.5950  -33.8810 C   0  0  0  0  0  0  0  0  0  0  0  0
   -5.4390   17.5600  -33.7000 C   0  0  0  0  0  0  0  0  0  0  0  0
   -5.3920   16.8640  -32.4910 C   0  0  0  0  0  0  0  0  0  0  0  0
   -6.2710   17.1980  -31.4590 C   0  0  0  0  0  0  0  0  0  0  0  0
   -7.1970   18.2310  -31.6340 C   0  0  0  0  0  0  0  0  0  0  0  0
   -5.7795   25.6914  -29.5198 H   0  0  0  0  0  0  0  0  0  0  0  0
   -5.4750   26.5765  -31.0529 H   0  0  0  0  0  0  0  0  0  0  0  0
   -6.5139   25.1111  -31.0529 H   0  0  0  0  0  0  0  0  0  0  0  0
   -4.3711   24.9157  -28.1495 H   0  0  0  0  0  0  0  0  0  0  0  0
   -3.5275   23.1240  -26.6364 H   0  0  0  0  0  0  0  0  0  0  0  0
   -2.6956   20.9726  -27.5855 H   0  0  0  0  0  0  0  0  0  0  0  0
   -2.6984   20.6100  -30.0484 H   0  0  0  0  0  0  0  0  0  0  0  0
   -2.7559   22.9113  -32.4728 H   0  0  0  0  0  0  0  0  0  0  0  0
   -3.3429   21.2330  -32.1663 H   0  0  0  0  0  0  0  0  0  0  0  0
   -4.7570   22.8250  -33.5970 H   0  0  0  0  0  0  0  0  0  0  0  0
   -5.1740   23.5410  -32.1290 H   0  0  0  0  0  0  0  0  0  0  0  0
   -5.8455   20.8878  -33.1225 H   0  0  0  0  0  0  0  0  0  0  0  0
   -5.6158   21.1697  -31.3286 H   0  0  0  0  0  0  0  0  0  0  0  0
   -7.3456   22.8381  -31.3044 H   0  0  0  0  0  0  0  0  0  0  0  0
   -7.5211   22.7053  -33.1195 H   0  0  0  0  0  0  0  0  0  0  0  0
   -8.3027   20.6597  -31.0064 H   0  0  0  0  0  0  0  0  0  0  0  0
   -9.3598   21.5479  -32.1864 H   0  0  0  0  0  0  0  0  0  0  0  0
   -8.8270   19.9900  -33.8450 H   0  0  0  0  0  0  0  0  0  0  0  0
   -6.3934   19.1400  -34.8360 H   0  0  0  0  0  0  0  0  0  0  0  0
   -4.7478   17.2935  -34.5131 H   0  0  0  0  0  0  0  0  0  0  0  0
   -4.6626   16.0525  -32.3514 H   0  0  0  0  0  0  0  0  0  0  0  0
   -6.2350   16.6479  -30.5071 H   0  0  0  0  0  0  0  0  0  0  0  0
   -7.8875   18.4884  -30.8174 H   0  0  0  0  0  0  0  0  0  0  0  0
  1  2  1  0
  2  3  1  0
  3  4  2  0
  4  5  1  0
  5  6  2  0
  6  7  1  0
  7  8  2  0
  8  9  1  0
  9 10  1  0
 10 11  1  0
 11 12  1  0
 12 13  1  0
 13 14  1  0
 14 15  1  0
 15 16  2  0
 16 17  1  0
 17 18  2  0
 18 19  1  0
 19 20  2  0
  8  3  1  0
 20 15  1  0
  1 21  1  0
  1 22  1  0
  1 23  1  0
  4 24  1  0
  5 25  1  0
  6 26  1  0
  7 27  1  0
  9 28  1  0
  9 29  1  0
 10 30  1  0
 10 31  1  0
 11 32  1  0
 11 33  1  0
 12 34  1  0
 12 35  1  0
 13 36  1  0
 13 37  1  0
 14 38  1  0
 16 39  1  0
 17 40  1  0
 18 41  1  0
 19 42  1  0
 20 43  1  0
M  CHG  1  10   1
M  END
>  <UniqueID>  (11) 
10

>  <SMILES>  (11) 
COc1ccccc1C[NH2+]CCCNc1ccccc1

>  <Energy>  (11) 
40.21600967498457

>  <Genealogy>  (11) 
COc1ccccc1C[NH2+]CCCNc1ccccc1 (protonated)
COc1ccccc1C[NH2+]CCCNc1ccccc1 (3D coordinates assigned)
COc1ccccc1C[NH2+]CCCNc1ccccc1 (optimized conformer: 40.21600967498457 kcal/mol)

>  <smiles>  (11) 
COc1ccccc1CNCCCNc1ccccc1

>  <score_type>  (11) 
oracle

>  <origin>  (11) 
adg

>  <m_score__min__energy>  (11) 
-6.46

>  <m_primary>  (11) 
energy

$$$$
11:0
     RDKit          3D

 30 31  0  0  0  0  0  0  0  0999 V2000
   -8.9792   21.6308  -30.2035 H   0  0  0  0  0  0  0  0  0  0  0  0
   -8.9850   21.6620  -31.3030 C   0  0  0  0  0  0  0  0  0  0  0  0
   -8.7760   22.9700  -31.9630 C   0  0  0  0  0  0  0  0  0  0  0  0
   -9.6512   23.6188  -32.1149 H   0  0  0  0  0  0  0  0  0  0  0  0
   -7.5820   23.4110  -32.3870 C   0  0  0  0  0  0  0  0  0  0  0  0
   -7.4504   23.5563  -33.4694 H   0  0  0  0  0  0  0  0  0  0  0  0
   -6.4290   23.7170  -31.5130 C   0  0  0  0  0  0  0  0  0  0  0  0
   -5.2490   22.9710  -31.6520 C   0  0  0  0  0  0  0  0  0  0  0  0
   -5.1820   22.1909  -32.4247 H   0  0  0  0  0  0  0  0  0  0  0  0
   -4.1570   23.2150  -30.8120 C   0  0  0  0  0  0  0  0  0  0  0  0
   -3.2283   22.6390  -30.9375 H   0  0  0  0  0  0  0  0  0  0  0  0
   -4.2440   24.1890  -29.8140 C   0  0  0  0  0  0  0  0  0  0  0  0
   -3.3824   24.3835  -29.1584 H   0  0  0  0  0  0  0  0  0  0  0  0
   -5.4260   24.9160  -29.6490 C   0  0  0  0  0  0  0  0  0  0  0  0
   -5.4965   25.6780  -28.8588 H   0  0  0  0  0  0  0  0  0  0  0  0
   -6.5190   24.6760  -30.4870 C   0  0  0  0  0  0  0  0  0  0  0  0
   -7.4531   25.2390  -30.3438 H   0  0  0  0  0  0  0  0  0  0  0  0
   -9.1810   20.5130  -31.9650 C   0  0  0  0  0  0  0  0  0  0  0  0
  -10.2208   20.2008  -32.1421 H   0  0  0  0  0  0  0  0  0  0  0  0
   -8.1080   19.6320  -32.4760 C   0  0  0  0  0  0  0  0  0  0  0  0
   -7.1380   20.1030  -33.3810 C   0  0  0  0  0  0  0  0  0  0  0  0
   -7.1876   21.1391  -33.7472 H   0  0  0  0  0  0  0  0  0  0  0  0
   -6.1120   19.2590  -33.8160 C   0  0  0  0  0  0  0  0  0  0  0  0
   -5.3658   19.6272  -34.5355 H   0  0  0  0  0  0  0  0  0  0  0  0
   -6.0330   17.9480  -33.3380 C   0  0  0  0  0  0  0  0  0  0  0  0
   -5.2292   17.2830  -33.6868 H   0  0  0  0  0  0  0  0  0  0  0  0
   -6.9750   17.4820  -32.4170 C   0  0  0  0  0  0  0  0  0  0  0  0
   -6.9082   16.4522  -32.0360 H   0  0  0  0  0  0  0  0  0  0  0  0
   -8.0030   18.3240  -31.9790 C   0  0  0  0  0  0  0  0  0  0  0  0
   -8.7326   17.9587  -31.2413 H   0  0  0  0  0  0  0  0  0  0  0  0
  1  2  1  0
  2  3  1  0
  3  4  1  0
  3  5  2  0
  5  6  1  0
  5  7  1  0
  7  8  2  0
  8  9  1  0
  8 10  1  0
 10 11  1  0
 10 12  2  0
 12 13  1  0
 12 14  1  0
 14 15  1  0
 14 16  2  0
 16 17  1  0
  2 18  2  0
 18 19  1  0
 18 20  1  0
 20 21  2  0
 21 22  1  0
 21 23  1  0
 23 24  1  0
 23 25  2  0
 25 26  1  0
 25 27  1  0
 27 28  1  0
 27 29  2  0
 29 30  1  0
 16  7  1  0
 29 20  1  0
M  END
>  <UniqueID>  (12) 
11

>  <SMILES>  (12) 
C(/C=C\c1ccccc1)=C/c1ccccc1

>  <Energy>  (12) 
41.87500959349374

>  <Genealogy>  (12) 
C(/C=C\c1ccccc1)=C/c1ccccc1 (cis-trans isomerization)
C(/C=C\c1ccccc1)=C/c1ccccc1 (3D coordinates assigned)
C(/C=C\c1ccccc1)=C/c1ccccc1 (optimized conformer: 41.87500959349374 kcal/mol)

>  <smiles>  (12) 
C(C=Cc1ccccc1)=Cc1ccccc1

>  <score_type>  (12) 
oracle

>  <origin>  (12) 
adg

>  <m_score__min__energy>  (12) 
-7.25

>  <m_primary>  (12) 
energy

$$$$
12:0
     RDKit          3D

 70 75  0  0  1  0  0  0  0  0999 V2000
   -5.7550   25.6730  -29.7430 C   0  0  0  0  0  0  0  0  0  0  0  0
   -4.6240   25.4010  -30.5500 O   0  0  0  0  0  0  0  0  0  0  0  0
   -3.6280   24.5330  -30.1160 C   0  0  0  0  0  0  0  0  0  0  0  0
   -2.8970   24.8230  -28.9830 C   0  0  0  0  0  0  0  0  0  0  0  0
   -1.8900   23.9890  -28.5080 C   0  0  0  0  0  0  0  0  0  0  0  0
   -1.1390   24.2990  -27.3330 N   0  0  0  0  0  0  0  0  0  0  0  0
    0.2690   23.9550  -27.3380 C   0  0  0  0  0  0  0  0  0  0  0  0
    0.8740   24.2200  -25.9840 C   0  0  0  0  0  0  0  0  0  0  0  0
   -0.0140   23.9650  -24.8930 N   0  0  0  0  0  0  0  0  0  0  0  0
   -0.4550   22.6120  -24.7690 C   0  0  0  0  0  0  0  0  0  0  0  0
   -1.1040   24.9160  -24.9400 C   0  0  0  0  0  0  0  0  0  0  0  0
   -1.8250   24.9200  -26.2450 C   0  0  0  0  0  0  0  0  0  0  0  0
   -1.6670   22.8380  -29.2500 C   0  0  0  0  0  0  0  0  0  0  0  0
   -2.3870   22.5310  -30.3860 C   0  0  0  0  0  0  0  0  0  0  0  0
   -3.3750   23.3750  -30.8310 C   0  0  0  0  0  0  0  0  0  0  0  0
   -4.1630   23.1310  -31.9890 N   0  0  0  0  0  0  0  0  0  0  0  0
   -5.3200   22.5470  -31.9010 C   0  0  0  0  0  0  0  0  0  0  0  0
   -5.3580   21.2440  -32.2200 N   0  0  0  0  0  0  0  0  0  0  0  0
   -6.5330   20.6050  -32.1410 C   0  0  0  0  0  0  0  0  0  0  0  0
   -7.6850   21.2300  -31.7520 C   0  0  0  0  0  0  0  0  0  0  0  0
   -7.5610   22.5860  -31.4380 C   0  0  0  0  0  0  0  0  0  0  0  0
   -6.4000   23.2430  -31.5080 N   0  0  0  0  0  0  0  0  0  0  0  0
   -9.0270   20.6590  -31.6440 C   0  0  0  0  0  0  0  0  0  0  0  0
   -9.0890   19.2050  -31.8850 C   0  0  0  0  0  0  0  0  0  0  0  0
   -7.8330   18.5870  -32.3190 C   0  0  0  0  0  0  0  0  0  0  0  0
   -7.6250   17.2900  -32.6650 N   0  0  0  0  0  0  0  0  0  0  0  0
   -6.3570   17.1060  -32.9860 N   0  0  0  0  0  0  0  0  0  0  0  0
   -5.8770   15.7860  -33.4170 C   0  0  0  0  0  0  0  0  0  0  0  0
   -5.6580   18.2500  -32.8740 C   0  0  0  0  0  0  0  0  0  0  0  0
   -4.2510   18.4800  -33.1720 C   0  0  0  0  0  0  0  0  0  0  0  0
   -3.4060   19.0420  -32.2160 C   0  0  0  0  0  0  0  0  0  0  0  0
   -2.0630   19.2510  -32.4470 C   0  0  0  0  0  0  0  0  0  0  0  0
   -1.1980   19.8560  -31.3890 C   0  0  0  0  0  0  0  0  0  0  0  0
   -1.4860   18.9120  -33.6450 C   0  0  0  0  0  0  0  0  0  0  0  0
   -2.2960   18.3550  -34.6090 C   0  0  0  0  0  0  0  0  0  0  0  0
   -3.6610   18.1430  -34.3720 C   0  0  0  0  0  0  0  0  0  0  0  0
   -4.5740   17.4130  -35.6480 Cl  0  0  0  0  0  0  0  0  0  0  0  0
   -6.6120   19.1860  -32.4480 C   0  0  0  0  0  0  0  0  0  0  0  0
   -5.4731   25.6052  -28.6819 H   0  0  0  0  0  0  0  0  0  0  0  0
   -6.1253   26.6858  -29.9601 H   0  0  0  0  0  0  0  0  0  0  0  0
   -6.5453   24.9393  -29.9601 H   0  0  0  0  0  0  0  0  0  0  0  0
   -3.1189   25.7498  -28.4336 H   0  0  0  0  0  0  0  0  0  0  0  0
    0.3817   22.8888  -27.5840 H   0  0  0  0  0  0  0  0  0  0  0  0
    0.7862   24.5703  -28.0889 H   0  0  0  0  0  0  0  0  0  0  0  0
    1.7588   23.5768  -25.8681 H   0  0  0  0  0  0  0  0  0  0  0  0
    1.1230   25.2909  -25.9495 H   0  0  0  0  0  0  0  0  0  0  0  0
   -0.5403   22.3503  -23.7040 H   0  0  0  0  0  0  0  0  0  0  0  0
   -1.4361   22.5002  -25.2538 H   0  0  0  0  0  0  0  0  0  0  0  0
    0.2718   21.9436  -25.2538 H   0  0  0  0  0  0  0  0  0  0  0  0
   -1.8216   24.6647  -24.1451 H   0  0  0  0  0  0  0  0  0  0  0  0
   -0.6698   25.9174  -24.8037 H   0  0  0  0  0  0  0  0  0  0  0  0
   -2.7813   24.3949  -26.1045 H   0  0  0  0  0  0  0  0  0  0  0  0
   -1.9343   25.9784  -26.5241 H   0  0  0  0  0  0  0  0  0  0  0  0
   -0.8832   22.1410  -28.9185 H   0  0  0  0  0  0  0  0  0  0  0  0
   -2.1686   21.6052  -30.9384 H   0  0  0  0  0  0  0  0  0  0  0  0
   -8.4585   23.1364  -31.1193 H   0  0  0  0  0  0  0  0  0  0  0  0
   -6.3540   24.2550  -31.2640 H   0  0  0  0  0  0  0  0  0  0  0  0
   -9.4049   20.8566  -30.6300 H   0  0  0  0  0  0  0  0  0  0  0  0
   -9.6357   21.1345  -32.4272 H   0  0  0  0  0  0  0  0  0  0  0  0
   -9.4012   18.7186  -30.9491 H   0  0  0  0  0  0  0  0  0  0  0  0
   -9.7988   19.0645  -32.7135 H   0  0  0  0  0  0  0  0  0  0  0  0
   -5.6532   15.1707  -32.5331 H   0  0  0  0  0  0  0  0  0  0  0  0
   -6.6533   15.2926  -34.0203 H   0  0  0  0  0  0  0  0  0  0  0  0
   -4.9651   15.9065  -34.0203 H   0  0  0  0  0  0  0  0  0  0  0  0
   -3.8266   19.3294  -31.2410 H   0  0  0  0  0  0  0  0  0  0  0  0
   -1.5874   19.5836  -30.3969 H   0  0  0  0  0  0  0  0  0  0  0  0
   -0.1702   19.4788  -31.4957 H   0  0  0  0  0  0  0  0  0  0  0  0
   -1.1997   20.9508  -31.4957 H   0  0  0  0  0  0  0  0  0  0  0  0
   -0.4144   19.0793  -33.8286 H   0  0  0  0  0  0  0  0  0  0  0  0
   -1.8650   18.0719  -35.5806 H   0  0  0  0  0  0  0  0  0  0  0  0
  1  2  1  0
  2  3  1  0
  3  4  2  0
  4  5  1  0
  5  6  1  0
  6  7  1  0
  7  8  1  0
  8  9  1  0
  9 10  1  0
  9 11  1  0
 11 12  1  0
  5 13  2  0
 13 14  1  0
 14 15  2  0
 15 16  1  0
 16 17  2  0
 17 18  1  0
 18 19  2  0
 19 20  1  0
 20 21  2  0
 21 22  1  0
 20 23  1  0
 23 24  1  0
 24 25  1  0
 25 26  2  0
 26 27  1  0
 27 28  1  0
 27 29  1  0
 29 30  1  0
 30 31  2  0
 31 32  1  0
 32 33  1  0
 32 34  2  0
 34 35  1  0
 35 36  2  0
 36 37  1  0
 29 38  2  0
 15  3  1  0
 22 17  1  0
 38 25  1  0
 12  6  1  0
 38 19  1  0
 36 30  1  0
  1 39  1  0
  1 40  1  0
  1 41  1  0
  4 42  1  0
  7 43  1  0
  7 44  1  0
  8 45  1  0
  8 46  1  0
 10 47  1  0
 10 48  1  0
 10 49  1  0
 11 50  1  0
 11 51  1  0
 12 52  1  0
 12 53  1  0
 13 54  1  0
 14 55  1  0
 21 56  1  0
 22 57  1  0
 23 58  1  0
 23 59  1  0
 24 60  1  0
 24 61  1  0
 28 62  1  0
 28 63  1  0
 28 64  1  0
 31 65  1  0
 33 66  1  0
 33 67  1  0
 33 68  1  0
 34 69  1  0
 35 70  1  0
M  END
>  <smiles>  (13) 
COc1cc(N2CCN(C)CC2)ccc1N=c1nc2c(c[nH]1)CCc1nn(C)c(-c3cc(C)ccc3Cl)c1-2

>  <score_type>  (13) 
oracle

>  <origin>  (13) 
adg

>  <m_score__min__energy>  (13) 
-11.35

>  <m_primary>  (13) 
energy

$$$$
13:0
     RDKit          3D

 50 52  0  0  0  0  0  0  0  0999 V2000
   -2.4540   19.9940  -27.0800 C   0  0  0  0  0  0  0  0  0  0  0  0
   -1.9810   21.2830  -27.4570 O   0  0  0  0  0  0  0  0  0  0  0  0
   -2.7360   22.2260  -28.1700 C   0  0  0  0  0  0  0  0  0  0  0  0
   -3.4960   23.2250  -27.5310 C   0  0  0  0  0  0  0  0  0  0  0  0
   -4.2320   24.1420  -28.2880 C   0  0  0  0  0  0  0  0  0  0  0  0
   -4.2180   24.0790  -29.6890 C   0  0  0  0  0  0  0  0  0  0  0  0
   -5.0370   25.0540  -30.4960 C   0  0  0  0  0  0  0  0  0  0  0  0
   -6.3040   24.4360  -30.9430 N   0  0  0  0  0  0  0  0  0  0  0  0
   -6.1600   23.8090  -32.2830 C   0  0  0  0  0  0  0  0  0  0  0  0
   -5.9420   22.2880  -32.1970 C   0  0  0  0  0  0  0  0  0  0  0  0
   -7.0470   21.6100  -31.4800 N   0  0  0  0  0  0  0  0  0  0  0  0
   -7.9230   20.7800  -32.3400 C   0  0  0  0  0  0  0  0  0  0  0  0
   -7.2820   19.4860  -32.8020 C   0  0  0  0  0  0  0  0  0  0  0  0
   -7.6450   18.2570  -32.2230 C   0  0  0  0  0  0  0  0  0  0  0  0
   -7.0420   17.0700  -32.6460 C   0  0  0  0  0  0  0  0  0  0  0  0
   -6.0800   17.0930  -33.6610 C   0  0  0  0  0  0  0  0  0  0  0  0
   -5.3010   15.5690  -34.1970 S   0  0  0  0  0  0  0  0  0  0  0  0
   -4.6040   15.2080  -32.5560 C   0  0  0  0  0  0  0  0  0  0  0  0
   -5.7370   18.3060  -34.2670 C   0  0  0  0  0  0  0  0  0  0  0  0
   -6.3400   19.4950  -33.8460 C   0  0  0  0  0  0  0  0  0  0  0  0
   -7.7860   22.4730  -30.5340 C   0  0  0  0  0  0  0  0  0  0  0  0
   -6.8510   23.5150  -29.9130 C   0  0  0  0  0  0  0  0  0  0  0  0
   -3.4650   23.0800  -30.3250 C   0  0  0  0  0  0  0  0  0  0  0  0
   -2.7290   22.1630  -29.5690 C   0  0  0  0  0  0  0  0  0  0  0  0
   -2.4812   19.9199  -25.9828 H   0  0  0  0  0  0  0  0  0  0  0  0
   -3.4663   19.8426  -27.4830 H   0  0  0  0  0  0  0  0  0  0  0  0
   -1.7799   19.2238  -27.4830 H   0  0  0  0  0  0  0  0  0  0  0  0
   -3.5107   23.2841  -26.4327 H   0  0  0  0  0  0  0  0  0  0  0  0
   -4.8255   24.9174  -27.7815 H   0  0  0  0  0  0  0  0  0  0  0  0
   -5.2645   25.9333  -29.8755 H   0  0  0  0  0  0  0  0  0  0  0  0
   -4.4579   25.3493  -31.3834 H   0  0  0  0  0  0  0  0  0  0  0  0
   -7.0736   24.0029  -32.8641 H   0  0  0  0  0  0  0  0  0  0  0  0
   -5.2750   24.2485  -32.7663 H   0  0  0  0  0  0  0  0  0  0  0  0
   -5.8768   21.8801  -33.2165 H   0  0  0  0  0  0  0  0  0  0  0  0
   -5.0123   22.1085  -31.6372 H   0  0  0  0  0  0  0  0  0  0  0  0
   -8.8322   20.5328  -31.7723 H   0  0  0  0  0  0  0  0  0  0  0  0
   -8.1367   21.3708  -33.2429 H   0  0  0  0  0  0  0  0  0  0  0  0
   -8.4088   18.2301  -31.4318 H   0  0  0  0  0  0  0  0  0  0  0  0
   -7.3245   16.1147  -32.1796 H   0  0  0  0  0  0  0  0  0  0  0  0
   -5.2943   15.5655  -31.7777 H   0  0  0  0  0  0  0  0  0  0  0  0
   -4.4612   14.1226  -32.4490 H   0  0  0  0  0  0  0  0  0  0  0  0
   -3.6351   15.7176  -32.4490 H   0  0  0  0  0  0  0  0  0  0  0  0
   -4.9918   18.3245  -35.0759 H   0  0  0  0  0  0  0  0  0  0  0  0
   -6.0757   20.4443  -34.3349 H   0  0  0  0  0  0  0  0  0  0  0  0
   -8.5957   22.9883  -31.0714 H   0  0  0  0  0  0  0  0  0  0  0  0
   -8.2014   21.8457  -29.7315 H   0  0  0  0  0  0  0  0  0  0  0  0
   -7.4118   24.1014  -29.1703 H   0  0  0  0  0  0  0  0  0  0  0  0
   -6.0102   22.9868  -29.4397 H   0  0  0  0  0  0  0  0  0  0  0  0
   -3.4539   23.0183  -31.4232 H   0  0  0  0  0  0  0  0  0  0  0  0
   -2.1395   21.3856  -30.0771 H   0  0  0  0  0  0  0  0  0  0  0  0
  1  2  1  0
  2  3  1  0
  3  4  2  0
  4  5  1  0
  5  6  2  0
  6  7  1  0
  7  8  1  0
  8  9  1  0
  9 10  1  0
 10 11  1  0
 11 12  1  0
 12 13  1  0
 13 14  2  0
 14 15  1  0
 15 16  2  0
 16 17  1  0
 17 18  1  0
 16 19  1  0
 19 20  2  0
 11 21  1  0
 21 22  1  0
  6 23  1  0
 23 24  2  0
 24  3  1  0
 22  8  1  0
 20 13  1  0
  1 25  1  0
  1 26  1  0
  1 27  1  0
  4 28  1  0
  5 29  1  0
  7 30  1  0
  7 31  1  0
  9 32  1  0
  9 33  1  0
 10 34  1  0
 10 35  1  0
 12 36  1  0
 12 37  1  0
 14 38  1  0
 15 39  1  0
 18 40  1  0
 18 41  1  0
 18 42  1  0
 19 43  1  0
 20 44  1  0
 21 45  1  0
 21 46  1  0
 22 47  1  0
 22 48  1  0
 23 49  1  0
 24 50  1  0
M  END
>  <UniqueID>  (14) 
12

>  <SMILES>  (14) 
COc1ccc(CN2CCN(Cc3ccc(SC)cc3)CC2)cc1

>  <Energy>  (14) 
61.380577940345084

>  <Genealogy>  (14) 
COc1ccc(CN2CCN(Cc3ccc(SC)cc3)CC2)cc1 (3D coordinates assigned)
COc1ccc(CN2CCN(Cc3ccc(SC)cc3)CC2)cc1 (nonaromatic ring conformer: 61.380577940345084 kcal/mol)

>  <smiles>  (14) 
COc1ccc(CN2CCN(Cc3ccc(SC)cc3)CC2)cc1

>  <score_type>  (14) 
oracle

>  <origin>  (14) 
adg

>  <m_score__min__energy>  (14) 
-8.3699999999999992

>  <m_primary>  (14) 
energy

$$$$
14:0
     RDKit          3D

 27 28  0  0  0  0  0  0  0  0999 V2000
   -7.4940   22.6720  -29.7090 C   0  0  0  0  0  0  0  0  0  0  0  0
   -6.5850   22.8140  -30.9090 C   0  0  0  0  0  0  0  0  0  0  0  0
   -7.4850   23.3760  -32.0160 C   0  0  0  0  0  0  0  0  0  0  0  0
   -5.5050   23.7230  -30.7150 N   0  0  0  0  0  0  0  0  0  0  0  0
   -4.2460   23.5020  -31.1210 C   0  0  0  0  0  0  0  0  0  0  0  0
   -3.6870   22.3430  -31.8250 C   0  0  0  0  0  0  0  0  0  0  0  0
   -4.4570   21.6490  -32.7620 C   0  0  0  0  0  0  0  0  0  0  0  0
   -3.9530   20.5560  -33.4370 C   0  0  0  0  0  0  0  0  0  0  0  0
   -2.6460   20.1880  -33.1350 C   0  0  0  0  0  0  0  0  0  0  0  0
   -1.8830   20.8770  -32.2080 C   0  0  0  0  0  0  0  0  0  0  0  0
   -2.4110   21.9300  -31.5750 N   0  0  0  0  0  0  0  0  0  0  0  0
   -3.4870   24.5590  -30.7780 N   0  0  0  0  0  0  0  0  0  0  0  0
   -4.2330   25.4520  -30.1610 N   0  0  0  0  0  0  0  0  0  0  0  0
   -5.4770   24.9340  -30.1220 C   0  0  0  0  0  0  0  0  0  0  0  0
   -6.7350   25.7040  -29.4460 S   0  0  0  0  0  0  0  0  0  0  0  0
   -6.9012   22.7646  -28.7870 H   0  0  0  0  0  0  0  0  0  0  0  0
   -8.2596   23.4614  -29.7335 H   0  0  0  0  0  0  0  0  0  0  0  0
   -7.9824   21.6867  -29.7335 H   0  0  0  0  0  0  0  0  0  0  0  0
   -6.1249   21.8399  -31.1313 H   0  0  0  0  0  0  0  0  0  0  0  0
   -8.3353   23.9069  -31.5631 H   0  0  0  0  0  0  0  0  0  0  0  0
   -6.9070   24.0739  -32.6395 H   0  0  0  0  0  0  0  0  0  0  0  0
   -7.8584   22.5503  -32.6395 H   0  0  0  0  0  0  0  0  0  0  0  0
   -5.4858   21.9807  -32.9657 H   0  0  0  0  0  0  0  0  0  0  0  0
   -4.5535   20.0045  -34.1754 H   0  0  0  0  0  0  0  0  0  0  0  0
   -2.2046   19.3216  -33.6493 H   0  0  0  0  0  0  0  0  0  0  0  0
   -0.8513   20.5611  -31.9939 H   0  0  0  0  0  0  0  0  0  0  0  0
   -3.8910   26.3720  -29.7870 H   0  0  0  0  0  0  0  0  0  0  0  0
  1  2  1  0
  2  3  1  0
  2  4  1  0
  4  5  1  0
  5  6  1  0
  6  7  2  0
  7  8  1  0
  8  9  2  0
  9 10  1  0
 10 11  2  0
  5 12  2  0
 12 13  1  0
 13 14  1  0
 14 15  2  0
 14  4  1  0
 11  6  1  0
  1 16  1  0
  1 17  1  0
  1 18  1  0
  2 19  1  0
  3 20  1  0
  3 21  1  0
  3 22  1  0
  7 23  1  0
  8 24  1  0
  9 25  1  0
 10 26  1  0
 13 27  1  0
M  END
>  <smiles>  (15) 
CC(C)n1c(-c2ccccn2)n[nH]c1=S

>  <score_type>  (15) 
oracle

>  <origin>  (15) 
adg

>  <m_score__min__energy>  (15) 
-6.2800000000000002

>  <m_primary>  (15) 
energy

$$$$
15:0
     RDKit          3D

 46 48  0  0  0  0  0  0  0  0999 V2000
   -5.7190   25.5250  -30.4700 C   0  0  0  0  0  0  0  0  0  0  0  0
   -5.8190   24.0080  -30.5910 C   0  0  0  0  0  0  0  0  0  0  0  0
   -7.2560   23.5720  -30.9000 C   0  0  0  0  0  0  0  0  0  0  0  0
   -7.3680   23.0020  -32.3160 C   0  0  0  0  0  0  0  0  0  0  0  0
   -6.7490   21.6760  -32.3750 N   0  0  0  0  0  0  0  0  0  0  0  0
   -7.3510   20.4710  -32.2010 C   0  0  0  0  0  0  0  0  0  0  0  0
   -8.6890   20.2150  -31.8830 C   0  0  0  0  0  0  0  0  0  0  0  0
   -9.0980   18.8730  -31.7690 C   0  0  0  0  0  0  0  0  0  0  0  0
   -8.1800   17.8210  -31.9800 C   0  0  0  0  0  0  0  0  0  0  0  0
   -6.8410   18.0970  -32.3100 C   0  0  0  0  0  0  0  0  0  0  0  0
   -6.4620   19.4330  -32.4120 C   0  0  0  0  0  0  0  0  0  0  0  0
   -5.2600   20.0160  -32.7450 C   0  0  0  0  0  0  0  0  0  0  0  0
   -4.0270   19.4800  -33.0970 C   0  0  0  0  0  0  0  0  0  0  0  0
   -2.9960   20.3820  -33.4280 C   0  0  0  0  0  0  0  0  0  0  0  0
   -1.6420   19.8620  -33.8500 C   0  0  0  0  0  0  0  0  0  0  0  0
   -0.9650   20.7760  -34.7820 N   0  0  0  0  0  0  0  0  0  0  0  0
    0.4960   20.7380  -34.6250 C   0  0  0  0  0  0  0  0  0  0  0  0
    1.1380   21.9210  -35.3490 C   0  0  0  0  0  0  0  0  0  0  0  0
    0.2600   23.0140  -35.3980 O   0  0  0  0  0  0  0  0  0  0  0  0
   -3.2560   21.7760  -33.4050 C   0  0  0  0  0  0  0  0  0  0  0  0
   -4.4890   22.2530  -33.0550 N   0  0  0  0  0  0  0  0  0  0  0  0
   -5.4720   21.3740  -32.7220 C   0  0  0  0  0  0  0  0  0  0  0  0
   -5.7004   25.8076  -29.4071 H   0  0  0  0  0  0  0  0  0  0  0  0
   -4.7961   25.8717  -30.9578 H   0  0  0  0  0  0  0  0  0  0  0  0
   -6.5885   25.9898  -30.9578 H   0  0  0  0  0  0  0  0  0  0  0  0
   -5.1582   23.6680  -31.4021 H   0  0  0  0  0  0  0  0  0  0  0  0
   -5.5168   23.5606  -29.6326 H   0  0  0  0  0  0  0  0  0  0  0  0
   -7.5603   22.8005  -30.1774 H   0  0  0  0  0  0  0  0  0  0  0  0
   -7.9112   24.4524  -30.8256 H   0  0  0  0  0  0  0  0  0  0  0  0
   -8.4296   22.9206  -32.5926 H   0  0  0  0  0  0  0  0  0  0  0  0
   -6.8492   23.6731  -33.0164 H   0  0  0  0  0  0  0  0  0  0  0  0
   -9.4010   21.0388  -31.7265 H   0  0  0  0  0  0  0  0  0  0  0  0
  -10.1425   18.6416  -31.5132 H   0  0  0  0  0  0  0  0  0  0  0  0
   -8.5148   16.7774  -31.8855 H   0  0  0  0  0  0  0  0  0  0  0  0
   -6.1183   17.2857  -32.4816 H   0  0  0  0  0  0  0  0  0  0  0  0
   -3.8620   18.3926  -33.1165 H   0  0  0  0  0  0  0  0  0  0  0  0
   -1.0145   19.7390  -32.9550 H   0  0  0  0  0  0  0  0  0  0  0  0
   -1.7932   18.9024  -34.3660 H   0  0  0  0  0  0  0  0  0  0  0  0
   -1.3030   21.7520  -34.6090 H   0  0  0  0  0  0  0  0  0  0  0  0
    0.7475   20.7874  -33.5553 H   0  0  0  0  0  0  0  0  0  0  0  0
    0.8784   19.8024  -35.0591 H   0  0  0  0  0  0  0  0  0  0  0  0
    2.0525   22.2173  -34.8143 H   0  0  0  0  0  0  0  0  0  0  0  0
    1.3768   21.6155  -36.3784 H   0  0  0  0  0  0  0  0  0  0  0  0
   -0.6050   22.6680  -35.7430 H   0  0  0  0  0  0  0  0  0  0  0  0
   -2.4560   22.4823  -33.6720 H   0  0  0  0  0  0  0  0  0  0  0  0
   -4.6610   23.2820  -33.0580 H   0  0  0  0  0  0  0  0  0  0  0  0
  1  2  1  0
  2  3  1  0
  3  4  1  0
  4  5  1  0
  5  6  1  0
  6  7  2  0
  7  8  1  0
  8  9  2  0
  9 10  1  0
 10 11  2  0
 11 12  1  0
 12 13  2  0
 13 14  1  0
 14 15  1  0
 15 16  1  0
 16 17  1  0
 17 18  1  0
 18 19  1  0
 14 20  2  0
 20 21  1  0
 21 22  2  0
 22  5  1  0
 11  6  1  0
 22 12  1  0
  1 23  1  0
  1 24  1  0
  1 25  1  0
  2 26  1  0
  2 27  1  0
  3 28  1  0
  3 29  1  0
  4 30  1  0
  4 31  1  0
  7 32  1  0
  8 33  1  0
  9 34  1  0
 10 35  1  0
 13 36  1  0
 15 37  1  0
 15 38  1  0
 16 39  1  0
 17 40  1  0
 17 41  1  0
 18 42  1  0
 18 43  1  0
 19 44  1  0
 20 45  1  0
 21 46  1  0
M  CHG  1  21   1
M  END
>  <UniqueID>  (16) 
13

>  <SMILES>  (16) 
CCCCn1c2ccccc2c2cc(CNCCO)c[nH+]c21

>  <Energy>  (16) 
79.4783423946624

>  <Genealogy>  (16) 
CCCCn1c2ccccc2c2cc(CNCCO)c[nH+]c21 (protonated)
CCCCn1c2ccccc2c2cc(CNCCO)c[nH+]c21 (3D coordinates assigned)
CCCCn1c2ccccc2c2cc(CNCCO)c[nH+]c21 (optimized conformer: 79.4783423946624 kcal/mol)

>  <smiles>  (16) 
CCCCn1c2ccccc2c2cc(CNCCO)cnc21

>  <score_type>  (16) 
oracle

>  <origin>  (16) 
adg

>  <m_score__min__energy>  (16) 
-8.3300000000000001

>  <m_primary>  (16) 
energy

$$$$
16:0
     RDKit          3D

 29 30  0  0  0  0  0  0  0  0999 V2000
   -4.8410   24.9440  -29.9710 C   0  0  0  0  0  0  0  0  0  0  0  0
   -5.9040   24.0440  -30.5290 C   0  0  0  0  0  0  0  0  0  0  0  0
   -6.5170   23.0820  -29.7100 C   0  0  0  0  0  0  0  0  0  0  0  0
   -7.4820   22.2200  -30.2390 C   0  0  0  0  0  0  0  0  0  0  0  0
   -7.8390   22.3070  -31.5890 C   0  0  0  0  0  0  0  0  0  0  0  0
   -9.0770   21.1990  -32.2670 S   0  0  0  0  0  0  0  0  0  0  0  0
   -7.8750   19.9190  -32.6710 C   0  0  0  0  0  0  0  0  0  0  0  0
   -6.7940   20.2600  -33.4950 C   0  0  0  0  0  0  0  0  0  0  0  0
   -5.8440   19.3010  -33.8510 C   0  0  0  0  0  0  0  0  0  0  0  0
   -5.9650   17.9920  -33.3850 C   0  0  0  0  0  0  0  0  0  0  0  0
   -7.0300   17.6410  -32.5530 C   0  0  0  0  0  0  0  0  0  0  0  0
   -7.9840   18.6000  -32.1700 C   0  0  0  0  0  0  0  0  0  0  0  0
   -9.1240   18.1780  -31.2830 C   0  0  0  0  0  0  0  0  0  0  0  0
   -7.2060   23.2420  -32.4160 C   0  0  0  0  0  0  0  0  0  0  0  0
   -6.2420   24.1070  -31.8900 C   0  0  0  0  0  0  0  0  0  0  0  0
   -4.8756   24.9147  -28.8719 H   0  0  0  0  0  0  0  0  0  0  0  0
   -3.8537   24.6031  -30.3160 H   0  0  0  0  0  0  0  0  0  0  0  0
   -5.0144   25.9740  -30.3160 H   0  0  0  0  0  0  0  0  0  0  0  0
   -6.2370   23.0065  -28.6489 H   0  0  0  0  0  0  0  0  0  0  0  0
   -7.9621   21.4711  -29.5920 H   0  0  0  0  0  0  0  0  0  0  0  0
   -6.6932   21.2913  -33.8641 H   0  0  0  0  0  0  0  0  0  0  0  0
   -4.9996   19.5779  -34.4994 H   0  0  0  0  0  0  0  0  0  0  0  0
   -5.2205   17.2352  -33.6733 H   0  0  0  0  0  0  0  0  0  0  0  0
   -7.1234   16.6054  -32.1942 H   0  0  0  0  0  0  0  0  0  0  0  0
   -8.8285   18.2874  -30.2291 H   0  0  0  0  0  0  0  0  0  0  0  0
  -10.0002   18.8114  -31.4858 H   0  0  0  0  0  0  0  0  0  0  0  0
   -9.3766   17.1268  -31.4858 H   0  0  0  0  0  0  0  0  0  0  0  0
   -7.4678   23.2964  -33.4830 H   0  0  0  0  0  0  0  0  0  0  0  0
   -5.7468   24.8393  -32.5446 H   0  0  0  0  0  0  0  0  0  0  0  0
  1  2  1  0
  2  3  2  0
  3  4  1  0
  4  5  2  0
  5  6  1  0
  6  7  1  0
  7  8  2  0
  8  9  1  0
  9 10  2  0
 10 11  1  0
 11 12  2  0
 12 13  1  0
  5 14  1  0
 14 15  2  0
 15  2  1  0
 12  7  1  0
  1 16  1  0
  1 17  1  0
  1 18  1  0
  3 19  1  0
  4 20  1  0
  8 21  1  0
  9 22  1  0
 10 23  1  0
 11 24  1  0
 13 25  1  0
 13 26  1  0
 13 27  1  0
 14 28  1  0
 15 29  1  0
M  END
>  <UniqueID>  (17) 
14

>  <SMILES>  (17) 
Cc1ccc(Sc2ccccc2C)cc1

>  <Energy>  (17) 
24.707870915178113

>  <Genealogy>  (17) 
Cc1ccc(Sc2ccccc2C)cc1 (3D coordinates assigned)
Cc1ccc(Sc2ccccc2C)cc1 (optimized conformer: 24.707870915178113 kcal/mol)

>  <smiles>  (17) 
Cc1ccc(Sc2ccccc2C)cc1

>  <score_type>  (17) 
oracle

>  <origin>  (17) 
adg

>  <m_score__min__energy>  (17) 
-7.0099999999999998

>  <m_primary>  (17) 
energy

$$$$
17:0
     RDKit          3D

 39 40  0  0  0  0  0  0  0  0999 V2000
   -9.4830   19.4470  -32.6750 C   0  0  0  0  0  0  0  0  0  0  0  0
   -8.2840   18.7530  -32.0380 C   0  0  0  0  0  0  0  0  0  0  0  0
   -7.0310   19.2300  -32.6330 N   0  0  0  0  0  0  0  0  0  0  0  0
   -6.5340   20.5460  -32.3340 C   0  0  0  0  0  0  0  0  0  0  0  0
   -5.3880   21.0320  -32.9790 C   0  0  0  0  0  0  0  0  0  0  0  0
   -4.9050   22.3130  -32.6970 C   0  0  0  0  0  0  0  0  0  0  0  0
   -5.5660   23.1290  -31.7590 C   0  0  0  0  0  0  0  0  0  0  0  0
   -5.1220   24.4200  -31.4310 O   0  0  0  0  0  0  0  0  0  0  0  0
   -5.1820   25.0050  -30.1300 C   0  0  0  0  0  0  0  0  0  0  0  0
   -4.0380   24.5350  -29.2780 C   0  0  0  0  0  0  0  0  0  0  0  0
   -4.2590   23.6670  -28.2000 C   0  0  0  0  0  0  0  0  0  0  0  0
   -3.1720   23.2280  -27.4400 C   0  0  0  0  0  0  0  0  0  0  0  0
   -1.8820   23.6480  -27.7660 C   0  0  0  0  0  0  0  0  0  0  0  0
   -1.6960   24.5010  -28.8570 C   0  0  0  0  0  0  0  0  0  0  0  0
   -2.7670   24.9180  -29.5840 N   0  0  0  0  0  0  0  0  0  0  0  0
   -6.7140   22.6430  -31.1230 C   0  0  0  0  0  0  0  0  0  0  0  0
   -7.1970   21.3640  -31.4080 C   0  0  0  0  0  0  0  0  0  0  0  0
   -6.1630   18.2150  -33.7510 S   0  0  0  0  0  0  0  0  0  0  0  0
   -4.5160   17.8970  -33.1520 C   0  0  0  0  0  0  0  0  0  0  0  0
   -6.8670   16.8950  -33.8910 O   0  0  0  0  0  0  0  0  0  0  0  0
   -6.0940   18.8870  -35.0920 O   0  0  0  0  0  0  0  0  0  0  0  0
  -10.1463   19.8309  -31.8859 H   0  0  0  0  0  0  0  0  0  0  0  0
   -9.1339   20.2827  -33.2993 H   0  0  0  0  0  0  0  0  0  0  0  0
  -10.0338   18.7280  -33.2993 H   0  0  0  0  0  0  0  0  0  0  0  0
   -8.2751   18.9660  -30.9589 H   0  0  0  0  0  0  0  0  0  0  0  0
   -8.3685   17.6703  -32.2132 H   0  0  0  0  0  0  0  0  0  0  0  0
   -4.8651   20.4006  -33.7124 H   0  0  0  0  0  0  0  0  0  0  0  0
   -4.0055   22.6849  -33.2095 H   0  0  0  0  0  0  0  0  0  0  0  0
   -5.1344   26.0999  -30.2248 H   0  0  0  0  0  0  0  0  0  0  0  0
   -6.1247   24.7016  -29.6512 H   0  0  0  0  0  0  0  0  0  0  0  0
   -5.2785   23.3346  -27.9547 H   0  0  0  0  0  0  0  0  0  0  0  0
   -3.3328   22.5528  -26.5866 H   0  0  0  0  0  0  0  0  0  0  0  0
   -1.0206   23.3112  -27.1705 H   0  0  0  0  0  0  0  0  0  0  0  0
   -0.6836   24.8351  -29.1278 H   0  0  0  0  0  0  0  0  0  0  0  0
   -7.2406   23.2741  -30.3920 H   0  0  0  0  0  0  0  0  0  0  0  0
   -8.1025   20.9963  -30.9033 H   0  0  0  0  0  0  0  0  0  0  0  0
   -4.5194   17.8977  -32.0520 H   0  0  0  0  0  0  0  0  0  0  0  0
   -4.1760   16.9166  -33.5170 H   0  0  0  0  0  0  0  0  0  0  0  0
   -3.8355   18.6803  -33.5170 H   0  0  0  0  0  0  0  0  0  0  0  0
  1  2  1  0
  2  3  1  0
  3  4  1  0
  4  5  2  0
  5  6  1  0
  6  7  2  0
  7  8  1  0
  8  9  1  0
  9 10  1  0
 10 11  2  0
 11 12  1  0
 12 13  2  0
 13 14  1  0
 14 15  2  0
  7 16  1  0
 16 17  2  0
  3 18  1  0
 18 19  1  0
 18 20  2  0
 18 21  2  0
 17  4  1  0
 15 10  1  0
  1 22  1  0
  1 23  1  0
  1 24  1  0
  2 25  1  0
  2 26  1  0
  5 27  1  0
  6 28  1  0
  9 29  1  0
  9 30  1  0
 11 31  1  0
 12 32  1  0
 13 33  1  0
 14 34  1  0
 16 35  1  0
 17 36  1  0
 19 37  1  0
 19 38  1  0
 19 39  1  0
M  END
>  <UniqueID>  (18) 
15

>  <SMILES>  (18) 
CCN(c1ccc(OCc2ccccn2)cc1)S(C)(=O)=O

>  <Energy>  (18) 
37.0500574194085

>  <Genealogy>  (18) 
CCN(c1ccc(OCc2ccccn2)cc1)S(C)(=O)=O (3D coordinates assigned)
CCN(c1ccc(OCc2ccccn2)cc1)S(C)(=O)=O (optimized conformer: 37.0500574194085 kcal/mol)

>  <smiles>  (18) 
CCN(c1ccc(OCc2ccccn2)cc1)S(C)(=O)=O

>  <score_type>  (18) 
oracle

>  <origin>  (18) 
adg

>  <m_score__min__energy>  (18) 
-7.6600000000000001

>  <m_primary>  (18) 
energy

$$$$
18:0
     RDKit          3D

 56 59  0  0  0  0  0  0  0  0999 V2000
   -4.3210   22.3520  -33.0980 C   0  0  0  0  0  0  0  0  0  0  0  0
   -5.2460   21.9720  -31.9010 C   0  0  2  0  0  0  0  0  0  0  0  0
   -6.1340   20.7860  -32.4150 C   0  0  0  0  0  0  0  0  0  0  0  0
   -7.3560   20.4660  -31.5400 C   0  0  2  0  0  0  0  0  0  0  0  0
   -8.3570   19.2210  -32.3500 Cl  0  0  0  0  0  0  0  0  0  0  0  0
   -8.1300   21.7270  -31.2870 C   0  0  0  0  0  0  0  0  0  0  0  0
   -9.3340   21.7870  -31.4920 O   0  0  0  0  0  0  0  0  0  0  0  0
   -7.3990   22.9080  -30.7360 C   0  0  0  0  0  0  0  0  0  0  0  0
   -6.1530   23.2240  -31.6030 C   0  0  1  0  0  0  0  0  0  0  0  0
   -5.3520   24.4340  -31.0370 C   0  0  0  0  0  0  0  0  0  0  0  0
   -4.0900   24.0750  -30.2190 C   0  0  0  0  0  0  0  0  0  0  0  0
   -4.2080   22.6880  -29.5690 C   0  0  1  0  0  0  0  0  0  0  0  0
   -4.4110   21.5320  -30.6150 C   0  0  2  0  0  0  0  0  0  0  0  0
   -3.1070   20.7300  -30.9680 C   0  0  0  0  0  0  0  0  0  0  0  0
   -2.1860   20.4250  -29.7700 C   0  0  0  0  0  0  0  0  0  0  0  0
   -1.8480   21.7130  -28.9800 C   0  0  2  0  0  0  0  0  0  0  0  0
   -1.0100   22.6850  -29.8650 C   0  0  0  0  0  0  0  0  0  0  0  0
   -1.0720   21.5230  -27.6430 C   0  0  2  0  0  0  0  0  0  0  0  0
   -1.2900   20.1710  -26.9660 C   0  0  0  0  0  0  0  0  0  0  0  0
   -1.9860   20.1390  -25.9620 O   0  0  0  0  0  0  0  0  0  0  0  0
   -0.6900   18.8740  -27.4500 C   0  0  0  0  0  0  0  0  0  0  0  0
   -1.2290   17.8020  -26.7260 O   0  0  0  0  0  0  0  0  0  0  0  0
   -1.4990   22.7340  -26.7730 C   0  0  0  0  0  0  0  0  0  0  0  0
   -2.7910   23.3010  -27.3890 C   0  0  0  0  0  0  0  0  0  0  0  0
   -3.1640   22.3080  -28.4860 C   0  0  1  0  0  0  0  0  0  0  0  0
   -3.3674   22.7438  -32.7145 H   0  0  0  0  0  0  0  0  0  0  0  0
   -4.1304   21.4593  -33.7118 H   0  0  0  0  0  0  0  0  0  0  0  0
   -4.8129   23.1209  -33.7118 H   0  0  0  0  0  0  0  0  0  0  0  0
   -6.4929   21.0399  -33.4233 H   0  0  0  0  0  0  0  0  0  0  0  0
   -5.4956   19.8905  -32.3926 H   0  0  0  0  0  0  0  0  0  0  0  0
   -7.0375   20.0632  -30.5672 H   0  0  0  0  0  0  0  0  0  0  0  0
   -8.0693   23.7802  -30.7329 H   0  0  0  0  0  0  0  0  0  0  0  0
   -7.0722   22.6793  -29.7109 H   0  0  0  0  0  0  0  0  0  0  0  0
   -6.5385   23.5227  -32.5890 H   0  0  0  0  0  0  0  0  0  0  0  0
   -5.0386   25.0595  -31.8859 H   0  0  0  0  0  0  0  0  0  0  0  0
   -6.0303   24.9431  -30.3365 H   0  0  0  0  0  0  0  0  0  0  0  0
   -3.2175   24.0814  -30.8889 H   0  0  0  0  0  0  0  0  0  0  0  0
   -3.9781   24.8202  -29.4176 H   0  0  0  0  0  0  0  0  0  0  0  0
   -5.1339   22.8035  -28.9865 H   0  0  0  0  0  0  0  0  0  0  0  0
   -5.0435   20.8052  -30.0843 H   0  0  0  0  0  0  0  0  0  0  0  0
   -3.4067   19.7732  -31.4204 H   0  0  0  0  0  0  0  0  0  0  0  0
   -2.5260   21.3710  -31.6474 H   0  0  0  0  0  0  0  0  0  0  0  0
   -2.6930   19.7156  -29.0994 H   0  0  0  0  0  0  0  0  0  0  0  0
   -1.2484   19.9955  -30.1526 H   0  0  0  0  0  0  0  0  0  0  0  0
   -0.4285   23.3595  -29.2194 H   0  0  0  0  0  0  0  0  0  0  0  0
   -0.3249   22.1042  -30.5000 H   0  0  0  0  0  0  0  0  0  0  0  0
   -1.6854   23.2771  -30.5000 H   0  0  0  0  0  0  0  0  0  0  0  0
    0.0142   21.5020  -27.8157 H   0  0  0  0  0  0  0  0  0  0  0  0
   -0.9162   18.7434  -28.5185 H   0  0  0  0  0  0  0  0  0  0  0  0
    0.3997   18.9006  -27.3022 H   0  0  0  0  0  0  0  0  0  0  0  0
   -1.8930   18.1810  -26.0940 H   0  0  0  0  0  0  0  0  0  0  0  0
   -1.6853   22.4086  -25.7389 H   0  0  0  0  0  0  0  0  0  0  0  0
   -0.7080   23.4981  -26.7504 H   0  0  0  0  0  0  0  0  0  0  0  0
   -3.5876   23.3612  -26.6328 H   0  0  0  0  0  0  0  0  0  0  0  0
   -2.6542   24.3205  -27.7788 H   0  0  0  0  0  0  0  0  0  0  0  0
   -3.8158   21.5477  -28.0309 H   0  0  0  0  0  0  0  0  0  0  0  0
  2  1  1  6
  2  3  1  0
  3  4  1  0
  4  5  1  0
  4  6  1  0
  6  7  2  0
  6  8  1  0
  8  9  1  0
  9 10  1  0
 10 11  1  0
 11 12  1  0
 12 13  1  0
 13 14  1  0
 14 15  1  0
 15 16  1  0
 16 17  1  6
 16 18  1  0
 18 19  1  0
 19 20  2  0
 19 21  1  0
 21 22  1  0
 18 23  1  0
 23 24  1  0
 24 25  1  0
  9  2  1  0
 25 12  1  0
 13  2  1  0
 25 16  1  0
  1 26  1  0
  1 27  1  0
  1 28  1  0
  3 29  1  0
  3 30  1  0
  4 31  1  1
  8 32  1  0
  8 33  1  0
  9 34  1  6
 10 35  1  0
 10 36  1  0
 11 37  1  0
 11 38  1  0
 12 39  1  1
 13 40  1  1
 14 41  1  0
 14 42  1  0
 15 43  1  0
 15 44  1  0
 17 45  1  0
 17 46  1  0
 17 47  1  0
 18 48  1  6
 21 49  1  0
 21 50  1  0
 22 51  1  0
 23 52  1  0
 23 53  1  0
 24 54  1  0
 24 55  1  0
 25 56  1  1
M  END
>  <UniqueID>  (19) 
16

>  <SMILES>  (19) 
CC12CCC3C(CCC4CC(=O)[C@@H](Cl)C[C@@]43C)C1CCC2C(=O)CO

>  <Energy>  (19) 
95.45232482767885

>  <Genealogy>  (19) 
CC12CCC3C(CCC4CC(=O)[C@@H](Cl)C[C@@]43C)C1CCC2C(=O)CO (chirality)
CC12CCC3C(CCC4CC(=O)[C@@H](Cl)C[C@@]43C)C1CCC2C(=O)CO (3D coordinates assigned)
CC12CCC3C(CCC4CC(=O)[C@@H](Cl)C[C@@]43C)C1CCC2C(=O)CO (nonaromatic ring conformer: 95.45232482767885 kcal/mol)

>  <smiles>  (19) 
CC12CC(Cl)C(=O)CC1CCC1C2CCC2(C)C(C(=O)CO)CCC12

>  <score_type>  (19) 
oracle

>  <origin>  (19) 
adg

>  <m_score__min__energy>  (19) 
-9.4900000000000002

>  <m_primary>  (19) 
energy

$$$$
19:0
     RDKit          3D

 44 46  0  0  0  0  0  0  0  0999 V2000
   -5.7130   25.6240  -30.4260 C   0  0  0  0  0  0  0  0  0  0  0  0
   -5.3310   24.4990  -31.2080 O   0  0  0  0  0  0  0  0  0  0  0  0
   -6.1380   23.3710  -31.4360 C   0  0  0  0  0  0  0  0  0  0  0  0
   -7.5000   23.4950  -31.7610 C   0  0  0  0  0  0  0  0  0  0  0  0
   -8.2790   22.3640  -32.0100 C   0  0  0  0  0  0  0  0  0  0  0  0
   -7.7160   21.0780  -31.9490 C   0  0  0  0  0  0  0  0  0  0  0  0
   -8.5310   19.8630  -32.2200 C   0  0  0  0  0  0  0  0  0  0  0  0
   -8.0070   18.4820  -31.9620 C   0  0  0  0  0  0  0  0  0  0  0  0
   -9.6990   19.9830  -32.6820 O   0  0  0  0  0  0  0  0  0  0  0  0
   -6.3540   20.9550  -31.6220 C   0  0  0  0  0  0  0  0  0  0  0  0
   -5.5650   22.0860  -31.3440 C   0  0  0  0  0  0  0  0  0  0  0  0
   -4.0990   21.8990  -30.9830 C   0  0  0  0  0  0  0  0  0  0  0  0
   -3.5780   22.8870  -30.0040 N   0  0  1  0  0  0  0  0  0  0  0  0
   -4.1080   22.6600  -28.6310 C   0  0  0  0  0  0  0  0  0  0  0  0
   -3.7810   23.8440  -27.6900 C   0  0  0  0  0  0  0  0  0  0  0  0
   -2.3630   24.2810  -27.8960 C   0  0  0  0  0  0  0  0  0  0  0  0
   -1.6240   23.9480  -28.9930 C   0  0  0  0  0  0  0  0  0  0  0  0
   -0.4230   24.5590  -28.9550 N   0  0  0  0  0  0  0  0  0  0  0  0
   -0.4840   25.2970  -27.8190 C   0  0  0  0  0  0  0  0  0  0  0  0
   -1.6530   25.1450  -27.1560 N   0  0  0  0  0  0  0  0  0  0  0  0
   -2.0820   25.8550  -25.9570 C   0  0  0  0  0  0  0  0  0  0  0  0
   -2.0940   22.9630  -30.0160 C   0  0  0  0  0  0  0  0  0  0  0  0
   -5.6281   25.3741  -29.3581 H   0  0  0  0  0  0  0  0  0  0  0  0
   -5.0527   26.4727  -30.6575 H   0  0  0  0  0  0  0  0  0  0  0  0
   -6.7536   25.8952  -30.6575 H   0  0  0  0  0  0  0  0  0  0  0  0
   -7.9567   24.4940  -31.8197 H   0  0  0  0  0  0  0  0  0  0  0  0
   -9.3447   22.4805  -32.2565 H   0  0  0  0  0  0  0  0  0  0  0  0
   -7.9422   18.3111  -30.8773 H   0  0  0  0  0  0  0  0  0  0  0  0
   -8.6869   17.7422  -32.4097 H   0  0  0  0  0  0  0  0  0  0  0  0
   -7.0075   18.3795  -32.4097 H   0  0  0  0  0  0  0  0  0  0  0  0
   -5.8967   19.9553  -31.5828 H   0  0  0  0  0  0  0  0  0  0  0  0
   -3.9754   20.8930  -30.5556 H   0  0  0  0  0  0  0  0  0  0  0  0
   -3.5260   22.0438  -31.9107 H   0  0  0  0  0  0  0  0  0  0  0  0
   -3.9390   23.8190  -30.3240 H   0  0  0  0  0  0  0  0  0  0  0  0
   -5.1999   22.5387  -28.6856 H   0  0  0  0  0  0  0  0  0  0  0  0
   -3.6316   21.7559  -28.2239 H   0  0  0  0  0  0  0  0  0  0  0  0
   -4.4572   24.6831  -27.9107 H   0  0  0  0  0  0  0  0  0  0  0  0
   -3.9140   23.5247  -26.6458 H   0  0  0  0  0  0  0  0  0  0  0  0
    0.3309   25.9501  -27.4734 H   0  0  0  0  0  0  0  0  0  0  0  0
   -1.7488   25.3036  -25.0654 H   0  0  0  0  0  0  0  0  0  0  0  0
   -1.6417   26.8630  -25.9505 H   0  0  0  0  0  0  0  0  0  0  0  0
   -3.1791   25.9341  -25.9505 H   0  0  0  0  0  0  0  0  0  0  0  0
   -1.7536   23.2820  -31.0122 H   0  0  0  0  0  0  0  0  0  0  0  0
   -1.6797   21.9717  -29.7799 H   0  0  0  0  0  0  0  0  0  0  0  0
  1  2  1  0
  2  3  1  0
  3  4  2  0
  4  5  1  0
  5  6  2  0
  6  7  1  0
  7  8  1  0
  7  9  2  0
  6 10  1  0
 10 11  2  0
 11 12  1  0
 12 13  1  0
 13 14  1  0
 14 15  1  0
 15 16  1  0
 16 17  2  0
 17 18  1  0
 18 19  2  0
 19 20  1  0
 20 21  1  0
 17 22  1  0
 11  3  1  0
 22 13  1  0
 20 16  1  0
  1 23  1  0
  1 24  1  0
  1 25  1  0
  4 26  1  0
  5 27  1  0
  8 28  1  0
  8 29  1  0
  8 30  1  0
 10 31  1  0
 12 32  1  0
 12 33  1  0
 13 34  1  6
 14 35  1  0
 14 36  1  0
 15 37  1  0
 15 38  1  0
 19 39  1  0
 21 40  1  0
 21 41  1  0
 21 42  1  0
 22 43  1  0
 22 44  1  0
M  CHG  1  13   1
M  END
>  <UniqueID>  (20) 
17

>  <SMILES>  (20) 
COc1ccc(C(C)=O)cc1C[N@H+]1CCc2c(ncn2C)C1

>  <Energy>  (20) 
82.08776092221521

>  <Genealogy>  (20) 
COc1ccc(C(C)=O)cc1C[NH+]1CCc2c(ncn2C)C1 (protonated)
COc1ccc(C(C)=O)cc1C[N@H+]1CCc2c(ncn2C)C1 (chirality)
COc1ccc(C(C)=O)cc1C[N@H+]1CCc2c(ncn2C)C1 (3D coordinates assigned)
COc1ccc(C(C)=O)cc1C[N@H+]1CCc2c(ncn2C)C1 (nonaromatic ring conformer: 82.08776092221521 kcal/mol)

>  <smiles>  (20) 
COc1ccc(C(C)=O)cc1CN1CCc2c(ncn2C)C1

>  <score_type>  (20) 
oracle

>  <origin>  (20) 
adg

>  <m_score__min__energy>  (20) 
-7.3600000000000003

>  <m_primary>  (20) 
energy

$$$$
20:0
     RDKit          3D

 48 49  0  0  0  0  0  0  0  0999 V2000
   -4.9160   25.2690  -30.2840 C   0  0  0  0  0  0  0  0  0  0  0  0
   -3.5200   25.1490  -30.0350 O   0  0  0  0  0  0  0  0  0  0  0  0
   -2.8040   23.9420  -30.0730 C   0  0  0  0  0  0  0  0  0  0  0  0
   -3.1410   22.9060  -30.9660 C   0  0  0  0  0  0  0  0  0  0  0  0
   -2.4040   21.7180  -30.9830 C   0  0  0  0  0  0  0  0  0  0  0  0
   -2.8340   20.4340  -32.0980 Cl  0  0  0  0  0  0  0  0  0  0  0  0
   -1.3240   21.5530  -30.1150 C   0  0  0  0  0  0  0  0  0  0  0  0
   -0.9800   22.5720  -29.2250 C   0  0  0  0  0  0  0  0  0  0  0  0
   -1.7180   23.7660  -29.1940 C   0  0  0  0  0  0  0  0  0  0  0  0
   -1.2830   25.0340  -28.0420 S   0  0  0  0  0  0  0  0  0  0  0  0
   -2.1120   24.8520  -26.8030 O   0  0  0  0  0  0  0  0  0  0  0  0
   -1.5860   26.3870  -28.6230 O   0  0  0  0  0  0  0  0  0  0  0  0
    0.4050   24.8940  -27.6140 N   0  0  0  0  0  0  0  0  0  0  0  0
    0.7630   25.2010  -26.2170 C   0  0  0  0  0  0  0  0  0  0  0  0
    2.2250   24.8860  -25.8410 C   0  0  0  0  0  0  0  0  0  0  0  0
    2.6620   25.5350  -24.4830 C   0  0  0  0  0  0  0  0  0  0  0  0
    3.5170   24.5050  -23.7030 C   0  0  0  0  0  0  0  0  0  0  0  0
    3.5720   26.7620  -24.7450 C   0  0  0  0  0  0  0  0  0  0  0  0
    1.4840   25.9060  -23.6410 N   0  0  0  0  0  0  0  0  0  0  0  0
    0.4430   26.7940  -24.2620 C   0  0  0  0  0  0  0  0  0  0  0  0
    0.7070   28.2820  -23.9160 C   0  0  0  0  0  0  0  0  0  0  0  0
   -0.9420   26.4430  -23.6580 C   0  0  0  0  0  0  0  0  0  0  0  0
    0.3690   26.6240  -25.8100 C   0  0  0  0  0  0  0  0  0  0  0  0
   -5.4565   25.3155  -29.3271 H   0  0  0  0  0  0  0  0  0  0  0  0
   -5.1084   26.1870  -30.8587 H   0  0  0  0  0  0  0  0  0  0  0  0
   -5.2622   24.3973  -30.8587 H   0  0  0  0  0  0  0  0  0  0  0  0
   -3.9895   23.0325  -31.6545 H   0  0  0  0  0  0  0  0  0  0  0  0
   -0.7431   20.6191  -30.1320 H   0  0  0  0  0  0  0  0  0  0  0  0
   -0.1262   22.4388  -28.5444 H   0  0  0  0  0  0  0  0  0  0  0  0
    0.1561   24.5012  -25.6238 H   0  0  0  0  0  0  0  0  0  0  0  0
    2.3389   23.7949  -25.7606 H   0  0  0  0  0  0  0  0  0  0  0  0
    2.8656   25.3090  -26.6288 H   0  0  0  0  0  0  0  0  0  0  0  0
    3.3859   24.6630  -22.6223 H   0  0  0  0  0  0  0  0  0  0  0  0
    3.1950   23.4867  -23.9664 H   0  0  0  0  0  0  0  0  0  0  0  0
    4.5772   24.6340  -23.9664 H   0  0  0  0  0  0  0  0  0  0  0  0
    3.8917   27.1931  -23.7848 H   0  0  0  0  0  0  0  0  0  0  0  0
    4.4565   26.4468  -25.3181 H   0  0  0  0  0  0  0  0  0  0  0  0
    3.0137   27.5169  -25.3181 H   0  0  0  0  0  0  0  0  0  0  0  0
    1.8220   26.3330  -22.7470 H   0  0  0  0  0  0  0  0  0  0  0  0
    1.0270   25.0070  -23.3540 H   0  0  0  0  0  0  0  0  0  0  0  0
    0.7290   28.4060  -22.8232 H   0  0  0  0  0  0  0  0  0  0  0  0
    1.6740   28.5910  -24.3396 H   0  0  0  0  0  0  0  0  0  0  0  0
   -0.0947   28.9048  -24.3396 H   0  0  0  0  0  0  0  0  0  0  0  0
   -0.8779   26.4592  -22.5600 H   0  0  0  0  0  0  0  0  0  0  0  0
   -1.6857   27.1811  -23.9929 H   0  0  0  0  0  0  0  0  0  0  0  0
   -1.2445   25.4398  -23.9929 H   0  0  0  0  0  0  0  0  0  0  0  0
   -0.6588   26.8245  -26.1467 H   0  0  0  0  0  0  0  0  0  0  0  0
    1.0685   27.3325  -26.2778 H   0  0  0  0  0  0  0  0  0  0  0  0
  1  2  1  0
  2  3  1  0
  3  4  2  0
  4  5  1  0
  5  6  1  0
  5  7  2  0
  7  8  1  0
  8  9  2  0
  9 10  1  0
 10 11  2  0
 10 12  2  0
 10 13  1  0
 13 14  1  0
 14 15  1  0
 15 16  1  0
 16 17  1  0
 16 18  1  0
 16 19  1  0
 19 20  1  0
 20 21  1  0
 20 22  1  0
 20 23  1  0
  9  3  1  0
 23 14  1  0
  1 24  1  0
  1 25  1  0
  1 26  1  0
  4 27  1  0
  7 28  1  0
  8 29  1  0
 14 30  1  0
 15 31  1  0
 15 32  1  0
 17 33  1  0
 17 34  1  0
 17 35  1  0
 18 36  1  0
 18 37  1  0
 18 38  1  0
 19 39  1  0
 19 40  1  0
 21 41  1  0
 21 42  1  0
 21 43  1  0
 22 44  1  0
 22 45  1  0
 22 46  1  0
 23 47  1  0
 23 48  1  0
M  CHG  2  13  -1  19   1
M  END
>  <UniqueID>  (21) 
18

>  <SMILES>  (21) 
COc1cc(Cl)ccc1S(=O)(=O)[N-]C1CC(C)(C)[NH2+]C(C)(C)C1

>  <Energy>  (21) 
62.88938663526402

>  <Genealogy>  (21) 
COc1cc(Cl)ccc1S(=O)(=O)[N-]C1CC(C)(C)[NH2+]C(C)(C)C1 (protonated)
COc1cc(Cl)ccc1S(=O)(=O)[N-]C1CC(C)(C)[NH2+]C(C)(C)C1 (3D coordinates assigned)
COc1cc(Cl)ccc1S(=O)(=O)[N-]C1CC(C)(C)[NH2+]C(C)(C)C1 (nonaromatic ring conformer: 62.88938663526402 kcal/mol)

>  <smiles>  (21) 
COc1cc(Cl)ccc1S(=O)(=O)NC1CC(C)(C)NC(C)(C)C1

>  <score_type>  (21) 
oracle

>  <origin>  (21) 
adg

>  <m_score__min__energy>  (21) 
-9.1799999999999997

>  <m_primary>  (21) 
energy

$$$$
21:0
     RDKit          3D

 42 44  0  0  0  0  0  0  0  0999 V2000
   -4.0040   24.5590  -26.7570 C   0  0  0  0  0  0  0  0  0  0  0  0
   -4.2170   23.3030  -27.3920 O   0  0  0  0  0  0  0  0  0  0  0  0
   -3.2130   22.5420  -28.0130 C   0  0  0  0  0  0  0  0  0  0  0  0
   -2.8820   21.2480  -27.5610 C   0  0  0  0  0  0  0  0  0  0  0  0
   -1.8450   20.5320  -28.1640 C   0  0  0  0  0  0  0  0  0  0  0  0
   -1.1240   21.0960  -29.2160 C   0  0  0  0  0  0  0  0  0  0  0  0
   -1.4470   22.3730  -29.6790 C   0  0  0  0  0  0  0  0  0  0  0  0
   -2.5040   23.0910  -29.1050 C   0  0  0  0  0  0  0  0  0  0  0  0
   -2.8020   24.3940  -29.6260 N   0  0  0  0  0  0  0  0  0  0  0  0
   -3.9640   24.7560  -30.3830 C   0  0  0  0  0  0  0  0  0  0  0  0
   -4.2700   25.9740  -30.4740 O   0  0  0  0  0  0  0  0  0  0  0  0
   -4.7490   23.7670  -31.0790 N   0  0  0  0  0  0  0  0  0  0  0  0
   -6.1550   24.0630  -31.3960 C   0  0  0  0  0  0  0  0  0  0  0  0
   -6.9960   22.7770  -31.4100 C   0  0  0  0  0  0  0  0  0  0  0  0
   -6.2890   21.6640  -32.0600 N   0  0  0  0  0  0  0  0  0  0  0  0
   -6.8930   20.3580  -32.0540 C   0  0  0  0  0  0  0  0  0  0  0  0
   -8.2880   20.2020  -31.9720 C   0  0  0  0  0  0  0  0  0  0  0  0
   -8.8380   18.9180  -31.9950 C   0  0  0  0  0  0  0  0  0  0  0  0
   -8.0040   17.8060  -32.1090 C   0  0  0  0  0  0  0  0  0  0  0  0
   -6.6250   17.9960  -32.2080 C   0  0  0  0  0  0  0  0  0  0  0  0
   -6.1060   19.2520  -32.1830 N   0  0  0  0  0  0  0  0  0  0  0  0
   -4.9950   21.9130  -32.7080 C   0  0  0  0  0  0  0  0  0  0  0  0
   -4.0700   22.6270  -31.7220 C   0  0  0  0  0  0  0  0  0  0  0  0
   -4.0265   24.4264  -25.6653 H   0  0  0  0  0  0  0  0  0  0  0  0
   -3.0250   24.9604  -27.0575 H   0  0  0  0  0  0  0  0  0  0  0  0
   -4.7960   25.2608  -27.0575 H   0  0  0  0  0  0  0  0  0  0  0  0
   -3.4438   20.7995  -26.7284 H   0  0  0  0  0  0  0  0  0  0  0  0
   -1.5967   19.5212  -27.8082 H   0  0  0  0  0  0  0  0  0  0  0  0
   -0.3004   20.5346  -29.6813 H   0  0  0  0  0  0  0  0  0  0  0  0
   -0.8671   22.8186  -30.5007 H   0  0  0  0  0  0  0  0  0  0  0  0
   -6.5587   24.7491  -30.6369 H   0  0  0  0  0  0  0  0  0  0  0  0
   -6.2010   24.5241  -32.3936 H   0  0  0  0  0  0  0  0  0  0  0  0
   -7.2281   22.4931  -30.3729 H   0  0  0  0  0  0  0  0  0  0  0  0
   -7.9137   22.9773  -31.9824 H   0  0  0  0  0  0  0  0  0  0  0  0
   -8.9408   21.0836  -31.8904 H   0  0  0  0  0  0  0  0  0  0  0  0
   -9.9275   18.7842  -31.9233 H   0  0  0  0  0  0  0  0  0  0  0  0
   -8.4282   16.7911  -32.1207 H   0  0  0  0  0  0  0  0  0  0  0  0
   -5.9568   17.1277  -32.3064 H   0  0  0  0  0  0  0  0  0  0  0  0
   -4.5439   20.9561  -33.0092 H   0  0  0  0  0  0  0  0  0  0  0  0
   -5.1419   22.5410  -33.5991 H   0  0  0  0  0  0  0  0  0  0  0  0
   -3.7545   21.9139  -30.9461 H   0  0  0  0  0  0  0  0  0  0  0  0
   -3.2003   23.0091  -32.2766 H   0  0  0  0  0  0  0  0  0  0  0  0
  1  2  1  0
  2  3  1  0
  3  4  2  0
  4  5  1  0
  5  6  2  0
  6  7  1  0
  7  8  2  0
  8  9  1  0
  9 10  1  0
 10 11  2  0
 10 12  1  0
 12 13  1  0
 13 14  1  0
 14 15  1  0
 15 16  1  0
 16 17  2  0
 17 18  1  0
 18 19  2  0
 19 20  1  0
 20 21  2  0
 15 22  1  0
 22 23  1  0
  8  3  1  0
 23 12  1  0
 21 16  1  0
  1 24  1  0
  1 25  1  0
  1 26  1  0
  4 27  1  0
  5 28  1  0
  6 29  1  0
  7 30  1  0
 13 31  1  0
 13 32  1  0
 14 33  1  0
 14 34  1  0
 17 35  1  0
 18 36  1  0
 19 37  1  0
 20 38  1  0
 22 39  1  0
 22 40  1  0
 23 41  1  0
 23 42  1  0
M  CHG  1   9  -1
M  END
>  <UniqueID>  (22) 
19

>  <SMILES>  (22) 
COc1ccccc1[N-]C(=O)N1CCN(c2ccccn2)CC1

>  <Energy>  (22) 
52.67452518910093

>  <Genealogy>  (22) 
COc1ccccc1[N-]C(=O)N1CCN(c2ccccn2)CC1 (protonated)
COc1ccccc1[N-]C(=O)N1CCN(c2ccccn2)CC1 (3D coordinates assigned)
COc1ccccc1[N-]C(=O)N1CCN(c2ccccn2)CC1 (nonaromatic ring conformer: 52.67452518910093 kcal/mol)

>  <smiles>  (22) 
COc1ccccc1NC(=O)N1CCN(c2ccccn2)CC1

>  <score_type>  (22) 
oracle

>  <origin>  (22) 
adg

>  <m_score__min__energy>  (22) 
-9.5600000000000005

>  <m_primary>  (22) 
energy

$$$$
22:0
     RDKit          3D

 28 30  0  0  0  0  0  0  0  0999 V2000
   -2.7020   23.7850  -28.1030 C   0  0  0  0  0  0  0  0  0  0  0  0
   -2.5360   24.9090  -29.0820 C   0  0  0  0  0  0  0  0  0  0  0  0
   -1.5480   25.6790  -28.9640 O   0  0  0  0  0  0  0  0  0  0  0  0
   -3.4910   25.1600  -30.1220 N   0  0  0  0  0  0  0  0  0  0  0  0
   -4.5990   24.3260  -30.4880 C   0  0  0  0  0  0  0  0  0  0  0  0
   -5.9090   24.8370  -30.3500 C   0  0  0  0  0  0  0  0  0  0  0  0
   -7.0250   24.0700  -30.7220 C   0  0  0  0  0  0  0  0  0  0  0  0
   -6.8050   22.7980  -31.2450 C   0  0  0  0  0  0  0  0  0  0  0  0
   -5.5250   22.2990  -31.4070 C   0  0  0  0  0  0  0  0  0  0  0  0
   -4.4020   23.0440  -31.0480 C   0  0  0  0  0  0  0  0  0  0  0  0
   -5.6200   20.9700  -32.0010 C   0  0  0  0  0  0  0  0  0  0  0  0
   -4.6640   20.2060  -32.3000 O   0  0  0  0  0  0  0  0  0  0  0  0
   -7.0430   20.6980  -32.1810 C   0  0  0  0  0  0  0  0  0  0  0  0
   -7.6850   19.5770  -32.7050 C   0  0  0  0  0  0  0  0  0  0  0  0
   -9.0900   19.5870  -32.7630 C   0  0  0  0  0  0  0  0  0  0  0  0
   -9.8190   20.7050  -32.3020 C   0  0  0  0  0  0  0  0  0  0  0  0
   -9.1500   21.8250  -31.7770 C   0  0  0  0  0  0  0  0  0  0  0  0
   -7.7560   21.7960  -31.7280 C   0  0  0  0  0  0  0  0  0  0  0  0
   -2.6437   24.1799  -27.0780 H   0  0  0  0  0  0  0  0  0  0  0  0
   -3.6805   23.3066  -28.2565 H   0  0  0  0  0  0  0  0  0  0  0  0
   -1.9035   23.0441  -28.2565 H   0  0  0  0  0  0  0  0  0  0  0  0
   -6.0567   25.8493  -29.9457 H   0  0  0  0  0  0  0  0  0  0  0  0
   -8.0455   24.4632  -30.6035 H   0  0  0  0  0  0  0  0  0  0  0  0
   -3.3884   22.6435  -31.1971 H   0  0  0  0  0  0  0  0  0  0  0  0
   -7.1096   18.7103  -33.0625 H   0  0  0  0  0  0  0  0  0  0  0  0
   -9.6254   18.7169  -33.1708 H   0  0  0  0  0  0  0  0  0  0  0  0
  -10.9178   20.6998  -32.3539 H   0  0  0  0  0  0  0  0  0  0  0  0
   -9.7102   22.6997  -31.4150 H   0  0  0  0  0  0  0  0  0  0  0  0
  1  2  1  0
  2  3  2  0
  2  4  1  0
  4  5  1  0
  5  6  2  0
  6  7  1  0
  7  8  2  0
  8  9  1  0
  9 10  2  0
  9 11  1  0
 11 12  2  0
 11 13  1  0
 13 14  2  0
 14 15  1  0
 15 16  2  0
 16 17  1  0
 17 18  2  0
 10  5  1  0
 18 13  1  0
 18  8  1  0
  1 19  1  0
  1 20  1  0
  1 21  1  0
  6 22  1  0
  7 23  1  0
 10 24  1  0
 14 25  1  0
 15 26  1  0
 16 27  1  0
 17 28  1  0
M  CHG  1   4  -1
M  END
>  <UniqueID>  (23) 
20

>  <SMILES>  (23) 
CC(=O)[N-]c1ccc2c(c1)C(=O)c1ccccc1-2

>  <Energy>  (23) 
67.48122273343456

>  <Genealogy>  (23) 
CC(=O)[N-]c1ccc2c(c1)C(=O)c1ccccc1-2 (protonated)
CC(=O)[N-]c1ccc2c(c1)C(=O)c1ccccc1-2 (3D coordinates assigned)
CC(=O)[N-]c1ccc2c(c1)C(=O)c1ccccc1-2 (nonaromatic ring conformer: 67.48122273343456 kcal/mol)

>  <smiles>  (23) 
CC(=O)Nc1ccc2c(c1)C(=O)c1ccccc1-2

>  <score_type>  (23) 
oracle

>  <origin>  (23) 
adg

>  <m_score__min__energy>  (23) 
-10.17

>  <m_primary>  (23) 
energy

$$$$
23:0
     RDKit          3D

 38 40  0  0  0  0  0  0  0  0999 V2000
   -0.8313   25.7615  -27.3754 H   0  0  0  0  0  0  0  0  0  0  0  0
   -1.2010   25.0350  -28.1140 C   0  0  0  0  0  0  0  0  0  0  0  0
   -2.3030   25.3210  -28.8560 N   0  0  0  0  0  0  0  0  0  0  0  0
   -2.7810   24.4380  -29.7710 C   0  0  0  0  0  0  0  0  0  0  0  0
   -3.8220   24.7640  -30.4810 N   0  0  0  0  0  0  0  0  0  0  0  0
   -4.9480   23.9260  -30.7970 C   0  0  0  0  0  0  0  0  0  0  0  0
   -4.7480   22.8190  -31.6320 C   0  0  0  0  0  0  0  0  0  0  0  0
   -3.7391   22.5950  -32.0088 H   0  0  0  0  0  0  0  0  0  0  0  0
   -5.8200   21.9970  -31.9900 C   0  0  0  0  0  0  0  0  0  0  0  0
   -5.6492   21.1201  -32.6318 H   0  0  0  0  0  0  0  0  0  0  0  0
   -7.1110   22.2880  -31.5330 C   0  0  0  0  0  0  0  0  0  0  0  0
   -8.2150   21.4440  -31.9040 C   0  0  0  0  0  0  0  0  0  0  0  0
   -9.1040   20.7640  -32.2030 N   0  0  0  0  0  0  0  0  0  0  0  0
   -7.3260   23.4100  -30.7240 C   0  0  0  0  0  0  0  0  0  0  0  0
   -8.3405   23.6458  -30.3701 H   0  0  0  0  0  0  0  0  0  0  0  0
   -6.2520   24.2320  -30.3650 C   0  0  0  0  0  0  0  0  0  0  0  0
   -6.4278   25.1215  -29.7422 H   0  0  0  0  0  0  0  0  0  0  0  0
   -2.1380   23.2520  -29.9590 N   0  0  0  0  0  0  0  0  0  0  0  0
   -1.0420   22.9130  -29.2310 C   0  0  0  0  0  0  0  0  0  0  0  0
   -0.4190   21.6830  -29.4820 O   0  0  0  0  0  0  0  0  0  0  0  0
   -0.5750   20.5190  -28.7140 C   0  0  0  0  0  0  0  0  0  0  0  0
    0.4800   19.6120  -28.5160 C   0  0  0  0  0  0  0  0  0  0  0  0
    1.4605   19.8030  -28.9765 H   0  0  0  0  0  0  0  0  0  0  0  0
    0.2880   18.4680  -27.7360 C   0  0  0  0  0  0  0  0  0  0  0  0
    1.1135   17.7549  -27.5946 H   0  0  0  0  0  0  0  0  0  0  0  0
   -0.9500   18.2290  -27.1360 C   0  0  0  0  0  0  0  0  0  0  0  0
   -1.1013   17.3199  -26.5355 H   0  0  0  0  0  0  0  0  0  0  0  0
   -2.0020   19.1440  -27.2960 C   0  0  0  0  0  0  0  0  0  0  0  0
   -3.3460   18.8750  -26.6690 C   0  0  0  0  0  0  0  0  0  0  0  0
   -4.0585   19.6437  -27.0027 H   0  0  0  0  0  0  0  0  0  0  0  0
   -3.6828   17.8750  -26.9797 H   0  0  0  0  0  0  0  0  0  0  0  0
   -3.2610   18.9040  -25.2120 N   0  0  0  0  0  0  0  0  0  0  0  0
   -4.2290   18.9200  -24.8170 H   0  0  0  0  0  0  0  0  0  0  0  0
   -2.7990   18.0240  -24.8830 H   0  0  0  0  0  0  0  0  0  0  0  0
   -1.8070   20.2850  -28.0910 C   0  0  0  0  0  0  0  0  0  0  0  0
   -2.6302   21.0021  -28.2257 H   0  0  0  0  0  0  0  0  0  0  0  0
   -0.5400   23.8220  -28.2890 C   0  0  0  0  0  0  0  0  0  0  0  0
    0.3576   23.5819  -27.7002 H   0  0  0  0  0  0  0  0  0  0  0  0
  1  2  1  0
  2  3  1  0
  3  4  1  0
  4  5  2  0
  5  6  1  0
  6  7  2  0
  7  8  1  0
  7  9  1  0
  9 10  1  0
  9 11  2  0
 11 12  1  0
 12 13  3  0
 11 14  1  0
 14 15  1  0
 14 16  2  0
 16 17  1  0
  4 18  1  0
 18 19  2  0
 19 20  1  0
 20 21  1  0
 21 22  2  0
 22 23  1  0
 22 24  1  0
 24 25  1  0
 24 26  2  0
 26 27  1  0
 26 28  1  0
 28 29  1  0
 29 30  1  0
 29 31  1  0
 29 32  1  0
 32 33  1  0
 32 34  1  0
 28 35  2  0
 35 36  1  0
 19 37  1  0
 37 38  1  0
 37  2  2  0
 16  6  1  0
 35 21  1  0
M  CHG  1   3  -1
M  END
>  <UniqueID>  (24) 
21

>  <SMILES>  (24) 
N#Cc1ccc(/N=c2\nc(Oc3cccc(CN)c3)cc[n-]2)cc1

>  <Energy>  (24) 
52.43705721019332

>  <Genealogy>  (24) 
N#Cc1ccc(N=c2nc(Oc3cccc(CN)c3)cc[n-]2)cc1 (protonated)
N#Cc1ccc(/N=c2\nc(Oc3cccc(CN)c3)cc[n-]2)cc1 (cis-trans isomerization)
N#Cc1ccc(/N=c2\nc(Oc3cccc(CN)c3)cc[n-]2)cc1 (3D coordinates assigned)
N#Cc1ccc(/N=c2\nc(Oc3cccc(CN)c3)cc[n-]2)cc1 (optimized conformer: 52.43705721019332 kcal/mol)

>  <smiles>  (24) 
N#Cc1ccc(N=c2nc(Oc3cccc(CN)c3)cc[nH]2)cc1

>  <score_type>  (24) 
oracle

>  <origin>  (24) 
adg

>  <m_score__min__energy>  (24) 
-9.5600000000000005

>  <m_primary>  (24) 
energy

$$$$
24:0
     RDKit          3D

 38 40  0  0  0  0  0  0  0  0999 V2000
   -0.1580   21.9410  -34.6470 N   0  0  0  0  0  0  0  0  0  0  0  0
   -0.5950   21.0900  -33.9970 C   0  0  0  0  0  0  0  0  0  0  0  0
   -1.1480   20.0150  -33.1730 C   0  0  0  0  0  0  0  0  0  0  0  0
   -2.9530   20.2110  -33.0620 S   0  0  0  0  0  0  0  0  0  0  0  0
   -2.8770   21.5350  -31.8400 C   0  0  0  0  0  0  0  0  0  0  0  0
   -1.8120   21.5290  -30.9970 N   0  0  0  0  0  0  0  0  0  0  0  0
   -1.6400   22.4820  -30.0540 C   0  0  0  0  0  0  0  0  0  0  0  0
   -0.5380   22.4260  -29.1930 C   0  0  0  0  0  0  0  0  0  0  0  0
   -0.3560   23.4150  -28.2240 C   0  0  0  0  0  0  0  0  0  0  0  0
   -1.2720   24.4650  -28.1140 C   0  0  0  0  0  0  0  0  0  0  0  0
   -2.3730   24.5290  -28.9730 C   0  0  0  0  0  0  0  0  0  0  0  0
   -2.5650   23.5320  -29.9500 C   0  0  0  0  0  0  0  0  0  0  0  0
   -3.6490   23.5540  -30.8440 C   0  0  0  0  0  0  0  0  0  0  0  0
   -4.4620   24.5210  -30.8060 O   0  0  0  0  0  0  0  0  0  0  0  0
   -3.8160   22.5440  -31.7660 N   0  0  0  0  0  0  0  0  0  0  0  0
   -4.9540   22.6160  -32.7150 C   0  0  0  0  0  0  0  0  0  0  0  0
   -6.3190   22.6310  -32.0050 C   0  0  0  0  0  0  0  0  0  0  0  0
   -7.0760   21.3410  -32.1770 C   0  0  0  0  0  0  0  0  0  0  0  0
   -6.4190   20.1890  -32.6430 C   0  0  0  0  0  0  0  0  0  0  0  0
   -7.1130   18.9810  -32.7590 C   0  0  0  0  0  0  0  0  0  0  0  0
   -8.4670   18.9160  -32.4170 C   0  0  0  0  0  0  0  0  0  0  0  0
   -9.1300   20.0610  -31.9670 C   0  0  0  0  0  0  0  0  0  0  0  0
   -8.4400   21.2710  -31.8510 C   0  0  0  0  0  0  0  0  0  0  0  0
   -0.9113   19.0428  -33.6300 H   0  0  0  0  0  0  0  0  0  0  0  0
   -0.7096   20.0603  -32.1652 H   0  0  0  0  0  0  0  0  0  0  0  0
    0.1856   21.6020  -29.2797 H   0  0  0  0  0  0  0  0  0  0  0  0
    0.5093   23.3676  -27.5465 H   0  0  0  0  0  0  0  0  0  0  0  0
   -1.1262   25.2427  -27.3498 H   0  0  0  0  0  0  0  0  0  0  0  0
   -3.0902   25.3585  -28.8861 H   0  0  0  0  0  0  0  0  0  0  0  0
   -4.8574   23.5353  -33.3113 H   0  0  0  0  0  0  0  0  0  0  0  0
   -4.9177   21.7160  -33.3464 H   0  0  0  0  0  0  0  0  0  0  0  0
   -6.1554   22.8028  -30.9309 H   0  0  0  0  0  0  0  0  0  0  0  0
   -6.9208   23.4330  -32.4575 H   0  0  0  0  0  0  0  0  0  0  0  0
   -5.3549   20.2382  -32.9174 H   0  0  0  0  0  0  0  0  0  0  0  0
   -6.5934   18.0810  -33.1196 H   0  0  0  0  0  0  0  0  0  0  0  0
   -9.0106   17.9635  -32.5021 H   0  0  0  0  0  0  0  0  0  0  0  0
  -10.1968   20.0099  -31.7036 H   0  0  0  0  0  0  0  0  0  0  0  0
   -8.9673   22.1715  -31.5031 H   0  0  0  0  0  0  0  0  0  0  0  0
  1  2  3  0
  2  3  1  0
  3  4  1  0
  4  5  1  0
  5  6  2  0
  6  7  1  0
  7  8  2  0
  8  9  1  0
  9 10  2  0
 10 11  1  0
 11 12  2  0
 12 13  1  0
 13 14  2  0
 13 15  1  0
 15 16  1  0
 16 17  1  0
 17 18  1  0
 18 19  2  0
 19 20  1  0
 20 21  2  0
 21 22  1  0
 22 23  2  0
 15  5  1  0
 23 18  1  0
 12  7  1  0
  3 24  1  0
  3 25  1  0
  8 26  1  0
  9 27  1  0
 10 28  1  0
 11 29  1  0
 16 30  1  0
 16 31  1  0
 17 32  1  0
 17 33  1  0
 19 34  1  0
 20 35  1  0
 21 36  1  0
 22 37  1  0
 23 38  1  0
M  END
>  <UniqueID>  (25) 
22

>  <SMILES>  (25) 
N#CCSc1nc2ccccc2c(=O)n1CCc1ccccc1

>  <Energy>  (25) 
41.74815697809427

>  <Genealogy>  (25) 
N#CCSc1nc2ccccc2c(=O)n1CCc1ccccc1 (3D coordinates assigned)
N#CCSc1nc2ccccc2c(=O)n1CCc1ccccc1 (optimized conformer: 41.74815697809427 kcal/mol)

>  <smiles>  (25) 
N#CCSc1nc2ccccc2c(=O)n1CCc1ccccc1

>  <score_type>  (25) 
oracle

>  <origin>  (25) 
adg

>  <m_score__min__energy>  (25) 
-7.8600000000000003

>  <m_primary>  (25) 
energy

$$$$
25:0
     RDKit          3D

 41 43  0  0  0  0  0  0  0  0999 V2000
    0.2180   23.5550  -24.8300 C   0  0  0  0  0  0  0  0  0  0  0  0
    0.3520   23.5290  -26.2480 O   0  0  0  0  0  0  0  0  0  0  0  0
   -0.7090   23.6990  -27.1480 C   0  0  0  0  0  0  0  0  0  0  0  0
   -1.8730   24.3290  -26.6920 C   0  0  0  0  0  0  0  0  0  0  0  0
   -2.9590   24.5230  -27.5500 C   0  0  0  0  0  0  0  0  0  0  0  0
   -2.8970   24.0870  -28.8850 C   0  0  0  0  0  0  0  0  0  0  0  0
   -4.0410   24.2890  -29.7960 C   0  0  0  0  0  0  0  0  0  0  0  0
   -4.9850   23.3520  -30.0350 N   0  0  0  0  0  0  0  0  0  0  0  0
   -5.8090   23.9650  -30.9060 C   0  0  0  0  0  0  0  0  0  0  0  0
   -7.0090   23.3120  -31.5330 C   0  0  0  0  0  0  0  0  0  0  0  0
   -7.1270   21.8840  -31.1500 N   0  0  0  0  0  0  0  0  0  0  0  0
   -6.3310   21.0250  -32.0770 C   0  0  0  0  0  0  0  0  0  0  0  0
   -7.1850   20.4170  -33.1990 C   0  0  0  0  0  0  0  0  0  0  0  0
   -8.2940   19.5190  -32.6220 C   0  0  0  0  0  0  0  0  0  0  0  0
   -8.7450   19.9650  -31.2210 C   0  0  0  0  0  0  0  0  0  0  0  0
   -8.5580   21.4760  -31.0410 C   0  0  0  0  0  0  0  0  0  0  0  0
   -5.3380   25.2300  -31.1760 C   0  0  0  0  0  0  0  0  0  0  0  0
   -4.2480   25.4000  -30.4710 O   0  0  0  0  0  0  0  0  0  0  0  0
   -1.7310   23.4560  -29.3430 C   0  0  0  0  0  0  0  0  0  0  0  0
   -0.6440   23.2620  -28.4840 C   0  0  0  0  0  0  0  0  0  0  0  0
    1.1969   23.3651  -24.3657 H   0  0  0  0  0  0  0  0  0  0  0  0
   -0.1521   24.5417  -24.5147 H   0  0  0  0  0  0  0  0  0  0  0  0
   -0.4943   22.7783  -24.5147 H   0  0  0  0  0  0  0  0  0  0  0  0
   -1.9334   24.6743  -25.6494 H   0  0  0  0  0  0  0  0  0  0  0  0
   -3.8675   25.0197  -27.1786 H   0  0  0  0  0  0  0  0  0  0  0  0
   -7.9145   23.8437  -31.2054 H   0  0  0  0  0  0  0  0  0  0  0  0
   -6.8917   23.3625  -32.6256 H   0  0  0  0  0  0  0  0  0  0  0  0
   -6.6960   21.7790  -30.2000 H   0  0  0  0  0  0  0  0  0  0  0  0
   -5.5376   21.6372  -32.5306 H   0  0  0  0  0  0  0  0  0  0  0  0
   -5.9157   20.1944  -31.4873 H   0  0  0  0  0  0  0  0  0  0  0  0
   -7.6457   21.2289  -33.7808 H   0  0  0  0  0  0  0  0  0  0  0  0
   -6.5356   19.8038  -33.8411 H   0  0  0  0  0  0  0  0  0  0  0  0
   -9.1610   19.5508  -33.2983 H   0  0  0  0  0  0  0  0  0  0  0  0
   -7.8868   18.5010  -32.5333 H   0  0  0  0  0  0  0  0  0  0  0  0
   -9.8081   19.7154  -31.0885 H   0  0  0  0  0  0  0  0  0  0  0  0
   -8.1314   19.4433  -30.4717 H   0  0  0  0  0  0  0  0  0  0  0  0
   -9.1356   21.9993  -31.8172 H   0  0  0  0  0  0  0  0  0  0  0  0
   -8.9090   21.7419  -30.0330 H   0  0  0  0  0  0  0  0  0  0  0  0
   -5.7935   25.9628  -31.8583 H   0  0  0  0  0  0  0  0  0  0  0  0
   -1.6708   23.1110  -30.3858 H   0  0  0  0  0  0  0  0  0  0  0  0
    0.2652   22.7658  -28.8544 H   0  0  0  0  0  0  0  0  0  0  0  0
  1  2  1  0
  2  3  1  0
  3  4  2  0
  4  5  1  0
  5  6  2  0
  6  7  1  0
  7  8  2  0
  8  9  1  0
  9 10  1  0
 10 11  1  0
 11 12  1  0
 12 13  1  0
 13 14  1  0
 14 15  1  0
 15 16  1  0
  9 17  2  0
 17 18  1  0
  6 19  1  0
 19 20  2  0
 20  3  1  0
 18  7  1  0
 16 11  1  0
  1 21  1  0
  1 22  1  0
  1 23  1  0
  4 24  1  0
  5 25  1  0
 10 26  1  0
 10 27  1  0
 11 28  1  0
 12 29  1  0
 12 30  1  0
 13 31  1  0
 13 32  1  0
 14 33  1  0
 14 34  1  0
 15 35  1  0
 15 36  1  0
 16 37  1  0
 16 38  1  0
 17 39  1  0
 19 40  1  0
 20 41  1  0
M  CHG  1  11   1
M  END
>  <UniqueID>  (26) 
23

>  <SMILES>  (26) 
COc1ccc(-c2nc(C[NH+]3CCCCC3)co2)cc1

>  <Energy>  (26) 
78.17721292227618

>  <Genealogy>  (26) 
COc1ccc(-c2nc(C[NH+]3CCCCC3)co2)cc1 (protonated)
COc1ccc(-c2nc(C[NH+]3CCCCC3)co2)cc1 (3D coordinates assigned)
COc1ccc(-c2nc(C[NH+]3CCCCC3)co2)cc1 (nonaromatic ring conformer: 78.17721292227618 kcal/mol)

>  <smiles>  (26) 
COc1ccc(-c2nc(CN3CCCCC3)co2)cc1

>  <score_type>  (26) 
oracle

>  <origin>  (26) 
adg

>  <m_score__min__energy>  (26) 
-7.5099999999999998

>  <m_primary>  (26) 
energy

$$$$
26:0
     RDKit          3D

 48 52  0  0  0  0  0  0  0  0999 V2000
   -4.1920   21.1600  -31.5380 F   0  0  0  0  0  0  0  0  0  0  0  0
   -5.2020   22.0650  -31.4810 C   0  0  0  0  0  0  0  0  0  0  0  0
   -6.3700   21.8230  -32.2160 C   0  0  0  0  0  0  0  0  0  0  0  0
   -6.5080   20.3840  -33.2140 Cl  0  0  0  0  0  0  0  0  0  0  0  0
   -7.4350   22.7220  -32.1550 C   0  0  0  0  0  0  0  0  0  0  0  0
   -7.3380   23.8670  -31.3660 C   0  0  0  0  0  0  0  0  0  0  0  0
   -6.1800   24.1260  -30.6260 C   0  0  0  0  0  0  0  0  0  0  0  0
   -6.1280   25.6320  -29.7130 Cl  0  0  0  0  0  0  0  0  0  0  0  0
   -5.0920   23.2170  -30.6710 C   0  0  0  0  0  0  0  0  0  0  0  0
   -3.8480   23.4460  -29.8910 C   0  0  0  0  0  0  0  0  0  0  0  0
   -3.1280   22.4510  -29.3250 N   0  0  0  0  0  0  0  0  0  0  0  0
   -2.0970   23.0830  -28.7400 C   0  0  0  0  0  0  0  0  0  0  0  0
   -2.1970   24.4230  -28.9920 C   0  0  0  0  0  0  0  0  0  0  0  0
   -3.2990   24.6700  -29.7190 N   0  0  0  0  0  0  0  0  0  0  0  0
   -1.1880   25.4380  -28.5960 C   0  0  0  0  0  0  0  0  0  0  0  0
   -1.0220   25.4050  -27.1050 C   0  0  0  0  0  0  0  0  0  0  0  0
   -1.2820   26.5720  -26.3640 C   0  0  0  0  0  0  0  0  0  0  0  0
   -1.1140   26.5900  -24.9800 C   0  0  0  0  0  0  0  0  0  0  0  0
   -0.6770   25.4450  -24.3160 C   0  0  0  0  0  0  0  0  0  0  0  0
   -0.4150   24.2780  -25.0350 C   0  0  0  0  0  0  0  0  0  0  0  0
   -0.5980   24.2290  -26.4280 C   0  0  0  0  0  0  0  0  0  0  0  0
   -0.2810   22.9900  -27.1050 N   0  0  0  0  0  0  0  0  0  0  0  0
   -0.9690   22.4120  -28.0600 C   0  0  0  0  0  0  0  0  0  0  0  0
   -0.6100   21.0790  -28.4710 N   0  0  0  0  0  0  0  0  0  0  0  0
    0.7600   20.7900  -28.9090 C   0  0  0  0  0  0  0  0  0  0  0  0
    1.4090   19.7320  -28.0020 C   0  0  0  0  0  0  0  0  0  0  0  0
    0.4110   18.6820  -27.4690 C   0  0  0  0  0  0  0  0  0  0  0  0
   -0.8700   18.6140  -28.3090 C   0  0  0  0  0  0  0  0  0  0  0  0
   -1.5740   19.9790  -28.3180 C   0  0  0  0  0  0  0  0  0  0  0  0
   -8.3522   22.5271  -32.7301 H   0  0  0  0  0  0  0  0  0  0  0  0
   -8.1802   24.5734  -31.3251 H   0  0  0  0  0  0  0  0  0  0  0  0
   -0.2265   25.2105  -29.0794 H   0  0  0  0  0  0  0  0  0  0  0  0
   -1.5224   26.4375  -28.9110 H   0  0  0  0  0  0  0  0  0  0  0  0
   -1.6217   27.4808  -26.8823 H   0  0  0  0  0  0  0  0  0  0  0  0
   -1.3263   27.5078  -24.4121 H   0  0  0  0  0  0  0  0  0  0  0  0
   -0.5386   25.4613  -23.2249 H   0  0  0  0  0  0  0  0  0  0  0  0
   -0.0598   23.3827  -24.5036 H   0  0  0  0  0  0  0  0  0  0  0  0
    0.4840   22.4250  -26.6680 H   0  0  0  0  0  0  0  0  0  0  0  0
    0.7369   20.4143  -29.9426 H   0  0  0  0  0  0  0  0  0  0  0  0
    1.3519   21.7154  -28.8522 H   0  0  0  0  0  0  0  0  0  0  0  0
    2.1884   19.2110  -28.5774 H   0  0  0  0  0  0  0  0  0  0  0  0
    1.8185   20.2615  -27.1291 H   0  0  0  0  0  0  0  0  0  0  0  0
    0.8957   17.6947  -27.4834 H   0  0  0  0  0  0  0  0  0  0  0  0
    0.1273   18.9769  -26.4479 H   0  0  0  0  0  0  0  0  0  0  0  0
   -0.6130   18.3313  -29.3405 H   0  0  0  0  0  0  0  0  0  0  0  0
   -1.5462   17.8653  -27.8707 H   0  0  0  0  0  0  0  0  0  0  0  0
   -2.2866   20.0086  -29.1554 H   0  0  0  0  0  0  0  0  0  0  0  0
   -2.0948   20.1062  -27.3575 H   0  0  0  0  0  0  0  0  0  0  0  0
  1  2  1  0
  2  3  2  0
  3  4  1  0
  3  5  1  0
  5  6  2  0
  6  7  1  0
  7  8  1  0
  7  9  2  0
  9 10  1  0
 10 11  2  0
 11 12  1  0
 12 13  2  0
 13 14  1  0
 13 15  1  0
 15 16  1  0
 16 17  2  0
 17 18  1  0
 18 19  2  0
 19 20  1  0
 20 21  2  0
 21 22  1  0
 22 23  2  0
 23 24  1  0
 24 25  1  0
 25 26  1  0
 26 27  1  0
 27 28  1  0
 28 29  1  0
  9  2  1  0
 14 10  1  0
 21 16  1  0
 29 24  1  0
 23 12  1  0
  5 30  1  0
  6 31  1  0
 15 32  1  0
 15 33  1  0
 17 34  1  0
 18 35  1  0
 19 36  1  0
 20 37  1  0
 22 38  1  0
 25 39  1  0
 25 40  1  0
 26 41  1  0
 26 42  1  0
 27 43  1  0
 27 44  1  0
 28 45  1  0
 28 46  1  0
 29 47  1  0
 29 48  1  0
M  CHG  2  14  -1  22   1
M  END
>  <UniqueID>  (27) 
24

>  <SMILES>  (27) 
Fc1c(Cl)ccc(Cl)c1-c1nc2c([n-]1)Cc1ccccc1[NH+]=C2N1CCCCC1

>  <Energy>  (27) 
104.3619193307827

>  <Genealogy>  (27) 
Fc1c(Cl)ccc(Cl)c1-c1nc2c([n-]1)Cc1ccccc1[NH+]=C2N1CCCCC1 (protonated)
Fc1c(Cl)ccc(Cl)c1-c1nc2c([n-]1)Cc1ccccc1[NH+]=C2N1CCCCC1 (3D coordinates assigned)
Fc1c(Cl)ccc(Cl)c1-c1nc2c([n-]1)Cc1ccccc1[NH+]=C2N1CCCCC1 (nonaromatic ring conformer: 104.3619193307827 kcal/mol)

>  <smiles>  (27) 
Fc1c(Cl)ccc(Cl)c1-c1nc2c([nH]1)Cc1ccccc1N=C2N1CCCCC1

>  <score_type>  (27) 
oracle

>  <origin>  (27) 
adg

>  <m_score__min__energy>  (27) 
-9.1099999999999994

>  <m_primary>  (27) 
energy

$$$$
27:0
     RDKit          3D

 43 46  0  0  0  0  0  0  0  0999 V2000
   -5.7728   26.7141  -31.2181 H   0  0  0  0  0  0  0  0  0  0  0  0
   -5.3930   25.7470  -30.8570 C   0  0  0  0  0  0  0  0  0  0  0  0
   -4.1510   25.6680  -30.3210 N   0  0  0  0  0  0  0  0  0  0  0  0
   -3.6380   24.4970  -29.8580 C   0  0  0  0  0  0  0  0  0  0  0  0
   -2.3470   24.4760  -29.3050 C   0  0  0  0  0  0  0  0  0  0  0  0
   -1.6180   25.6750  -29.2500 O   0  0  0  0  0  0  0  0  0  0  0  0
   -0.9380   26.1540  -28.0940 C   0  0  0  0  0  0  0  0  0  0  0  0
   -1.4511   25.7925  -27.1907 H   0  0  0  0  0  0  0  0  0  0  0  0
    0.0984   25.7855  -28.0992 H   0  0  0  0  0  0  0  0  0  0  0  0
   -0.9360   27.2540  -28.0992 H   0  0  0  0  0  0  0  0  0  0  0  0
   -1.8240   23.2620  -28.8230 C   0  0  0  0  0  0  0  0  0  0  0  0
   -0.8140   23.2366  -28.3881 H   0  0  0  0  0  0  0  0  0  0  0  0
   -2.5780   22.0900  -28.8930 C   0  0  0  0  0  0  0  0  0  0  0  0
   -2.1591   21.1466  -28.5127 H   0  0  0  0  0  0  0  0  0  0  0  0
   -3.8610   22.1080  -29.4430 C   0  0  0  0  0  0  0  0  0  0  0  0
   -4.4468   21.1784  -29.4949 H   0  0  0  0  0  0  0  0  0  0  0  0
   -4.4100   23.3100  -29.9320 C   0  0  0  0  0  0  0  0  0  0  0  0
   -5.7030   23.3630  -30.5050 C   0  0  0  0  0  0  0  0  0  0  0  0
   -6.4250   22.2740  -30.5680 N   0  0  0  0  0  0  0  0  0  0  0  0
   -6.4340   21.2830  -31.6070 C   0  0  0  0  0  0  0  0  0  0  0  0
   -7.5150   20.3990  -31.6960 C   0  0  0  0  0  0  0  0  0  0  0  0
   -8.3625   20.4991  -31.0020 H   0  0  0  0  0  0  0  0  0  0  0  0
   -7.5230   19.3890  -32.6630 C   0  0  0  0  0  0  0  0  0  0  0  0
   -8.3805   18.7033  -32.7300 H   0  0  0  0  0  0  0  0  0  0  0  0
   -6.4470   19.2450  -33.5460 C   0  0  0  0  0  0  0  0  0  0  0  0
   -6.4880   18.2130  -34.4960 O   0  0  0  0  0  0  0  0  0  0  0  0
   -5.8140   16.9860  -34.3940 C   0  0  0  0  0  0  0  0  0  0  0  0
   -4.4480   16.9430  -34.7000 C   0  0  0  0  0  0  0  0  0  0  0  0
   -3.9302   17.8580  -35.0235 H   0  0  0  0  0  0  0  0  0  0  0  0
   -3.7390   15.7410  -34.5960 C   0  0  0  0  0  0  0  0  0  0  0  0
   -2.6689   15.7115  -34.8488 H   0  0  0  0  0  0  0  0  0  0  0  0
   -4.3870   14.5790  -34.1720 C   0  0  0  0  0  0  0  0  0  0  0  0
   -3.8292   13.6340  -34.0961 H   0  0  0  0  0  0  0  0  0  0  0  0
   -5.7460   14.6180  -33.8440 C   0  0  0  0  0  0  0  0  0  0  0  0
   -6.2554   13.7046  -33.5031 H   0  0  0  0  0  0  0  0  0  0  0  0
   -6.4580   15.8170  -33.9490 C   0  0  0  0  0  0  0  0  0  0  0  0
   -7.5249   15.8462  -33.6828 H   0  0  0  0  0  0  0  0  0  0  0  0
   -5.3360   20.0980  -33.4210 C   0  0  0  0  0  0  0  0  0  0  0  0
   -4.4703   19.9709  -34.0876 H   0  0  0  0  0  0  0  0  0  0  0  0
   -5.3270   21.1060  -32.4540 C   0  0  0  0  0  0  0  0  0  0  0  0
   -4.4505   21.7633  -32.3553 H   0  0  0  0  0  0  0  0  0  0  0  0
   -6.1920   24.6080  -30.9530 C   0  0  0  0  0  0  0  0  0  0  0  0
   -7.2039   24.6805  -31.3782 H   0  0  0  0  0  0  0  0  0  0  0  0
  1  2  1  0
  2  3  1  0
  3  4  1  0
  4  5  2  0
  5  6  1  0
  6  7  1  0
  7  8  1  0
  7  9  1  0
  7 10  1  0
  5 11  1  0
 11 12  1  0
 11 13  2  0
 13 14  1  0
 13 15  1  0
 15 16  1  0
 15 17  2  0
 17 18  1  0
 18 19  2  0
 19 20  1  0
 20 21  2  0
 21 22  1  0
 21 23  1  0
 23 24  1  0
 23 25  2  0
 25 26  1  0
 26 27  1  0
 27 28  2  0
 28 29  1  0
 28 30  1  0
 30 31  1  0
 30 32  2  0
 32 33  1  0
 32 34  1  0
 34 35  1  0
 34 36  2  0
 36 37  1  0
 25 38  1  0
 38 39  1  0
 38 40  2  0
 40 41  1  0
 18 42  1  0
 42 43  1  0
 42  2  2  0
 17  4  1  0
 40 20  1  0
 36 27  1  0
M  CHG  1   3  -1
M  END
>  <UniqueID>  (28) 
25

>  <SMILES>  (28) 
COc1cccc2/c(=N/c3ccc(Oc4ccccc4)cc3)cc[n-]c12

>  <Energy>  (28) 
68.73191772401202

>  <Genealogy>  (28) 
COc1cccc2c(=Nc3ccc(Oc4ccccc4)cc3)cc[n-]c12 (protonated)
COc1cccc2/c(=N/c3ccc(Oc4ccccc4)cc3)cc[n-]c12 (cis-trans isomerization)
COc1cccc2/c(=N/c3ccc(Oc4ccccc4)cc3)cc[n-]c12 (3D coordinates assigned)
COc1cccc2/c(=N/c3ccc(Oc4ccccc4)cc3)cc[n-]c12 (optimized conformer: 68.73191772401202 kcal/mol)

>  <smiles>  (28) 
COc1cccc2c(=Nc3ccc(Oc4ccccc4)cc3)cc[nH]c12

>  <score_type>  (28) 
oracle

>  <origin>  (28) 
adg

>  <m_score__min__energy>  (28) 
-10.58

>  <m_primary>  (28) 
energy

$$$$
28:0
     RDKit          3D

 33 36  0  0  0  0  0  0  0  0999 V2000
   -4.5120   21.1160  -32.5980 O   0  0  0  0  0  0  0  0  0  0  0  0
   -5.6850   20.9640  -32.1550 C   0  0  0  0  0  0  0  0  0  0  0  0
   -6.4000   19.7900  -32.4310 C   0  0  0  0  0  0  0  0  0  0  0  0
   -6.0040   18.6560  -33.1700 C   0  0  0  0  0  0  0  0  0  0  0  0
   -6.9860   17.6610  -33.1690 C   0  0  0  0  0  0  0  0  0  0  0  0
   -8.3560   18.1920  -32.3340 S   0  0  0  0  0  0  0  0  0  0  0  0
   -7.6800   19.6720  -31.9280 C   0  0  0  0  0  0  0  0  0  0  0  0
   -8.2620   20.6480  -31.1970 N   0  0  0  0  0  0  0  0  0  0  0  0
   -7.5660   21.7890  -30.9410 C   0  0  0  0  0  0  0  0  0  0  0  0
   -6.2830   21.9510  -31.4050 N   0  0  0  0  0  0  0  0  0  0  0  0
   -5.5800   23.1700  -31.0910 C   0  0  0  0  0  0  0  0  0  0  0  0
   -6.2390   24.4070  -31.1550 C   0  0  0  0  0  0  0  0  0  0  0  0
   -5.5430   25.5770  -30.8390 C   0  0  0  0  0  0  0  0  0  0  0  0
   -4.2370   25.5130  -30.4660 N   0  0  0  0  0  0  0  0  0  0  0  0
   -3.5740   24.3290  -30.3900 C   0  0  0  0  0  0  0  0  0  0  0  0
   -4.2320   23.1360  -30.6990 C   0  0  0  0  0  0  0  0  0  0  0  0
   -6.8660   16.3590  -33.9000 C   0  0  0  0  0  0  0  0  0  0  0  0
   -5.3930   16.0350  -34.1920 C   0  0  0  0  0  0  0  0  0  0  0  0
   -4.6700   17.2520  -34.7910 C   0  0  0  0  0  0  0  0  0  0  0  0
   -4.6550   18.4410  -33.8130 C   0  0  0  0  0  0  0  0  0  0  0  0
   -8.0367   22.5921  -30.3549 H   0  0  0  0  0  0  0  0  0  0  0  0
   -7.2970   24.4556  -31.4521 H   0  0  0  0  0  0  0  0  0  0  0  0
   -6.0522   26.5506  -30.8921 H   0  0  0  0  0  0  0  0  0  0  0  0
   -2.5174   24.3100  -30.0846 H   0  0  0  0  0  0  0  0  0  0  0  0
   -3.6978   22.1765  -30.6357 H   0  0  0  0  0  0  0  0  0  0  0  0
   -7.2968   15.5570  -33.2826 H   0  0  0  0  0  0  0  0  0  0  0  0
   -7.4071   16.4377  -34.8545 H   0  0  0  0  0  0  0  0  0  0  0  0
   -4.8954   15.7464  -33.2544 H   0  0  0  0  0  0  0  0  0  0  0  0
   -5.3528   15.2105  -34.9190 H   0  0  0  0  0  0  0  0  0  0  0  0
   -3.6330   16.9707  -35.0267 H   0  0  0  0  0  0  0  0  0  0  0  0
   -5.2097   17.5602  -35.6986 H   0  0  0  0  0  0  0  0  0  0  0  0
   -3.9125   18.2447  -33.0255 H   0  0  0  0  0  0  0  0  0  0  0  0
   -4.3990   19.3475  -34.3811 H   0  0  0  0  0  0  0  0  0  0  0  0
  1  2  2  0
  2  3  1  0
  3  4  1  0
  4  5  2  0
  5  6  1  0
  6  7  1  0
  7  8  1  0
  8  9  2  0
  9 10  1  0
 10 11  1  0
 11 12  2  0
 12 13  1  0
 13 14  2  0
 14 15  1  0
 15 16  2  0
  5 17  1  0
 17 18  1  0
 18 19  1  0
 19 20  1  0
 10  2  1  0
 16 11  1  0
  7  3  2  0
 20  4  1  0
  9 21  1  0
 12 22  1  0
 13 23  1  0
 15 24  1  0
 16 25  1  0
 17 26  1  0
 17 27  1  0
 18 28  1  0
 18 29  1  0
 19 30  1  0
 19 31  1  0
 20 32  1  0
 20 33  1  0
M  END
>  <UniqueID>  (29) 
26

>  <SMILES>  (29) 
O=c1c2c3c(sc2ncn1-c1ccncc1)CCCC3

>  <Energy>  (29) 
79.28175021805468

>  <Genealogy>  (29) 
O=c1c2c3c(sc2ncn1-c1ccncc1)CCCC3 (3D coordinates assigned)
O=c1c2c3c(sc2ncn1-c1ccncc1)CCCC3 (nonaromatic ring conformer: 79.28175021805468 kcal/mol)

>  <smiles>  (29) 
O=c1c2c3c(sc2ncn1-c1ccncc1)CCCC3

>  <score_type>  (29) 
oracle

>  <origin>  (29) 
adg

>  <m_score__min__energy>  (29) 
-8.1199999999999992

>  <m_primary>  (29) 
energy

$$$$
29:0
     RDKit          3D

 43 44  0  0  0  0  0  0  0  0999 V2000
   -2.9280   24.3590  -27.6940 C   0  0  0  0  0  0  0  0  0  0  0  0
   -2.9370   23.4470  -28.8950 C   0  0  0  0  0  0  0  0  0  0  0  0
   -2.5160   22.1050  -28.7600 C   0  0  0  0  0  0  0  0  0  0  0  0
   -1.9640   21.4610  -27.2170 Cl  0  0  0  0  0  0  0  0  0  0  0  0
   -2.5360   21.2490  -29.8650 C   0  0  0  0  0  0  0  0  0  0  0  0
   -2.9770   21.7080  -31.1030 C   0  0  0  0  0  0  0  0  0  0  0  0
   -3.4100   23.0260  -31.2480 C   0  0  0  0  0  0  0  0  0  0  0  0
   -3.4060   23.9070  -30.1480 C   0  0  0  0  0  0  0  0  0  0  0  0
   -3.8490   25.2380  -30.2640 O   0  0  0  0  0  0  0  0  0  0  0  0
   -5.0860   25.6630  -30.8390 C   0  0  0  0  0  0  0  0  0  0  0  0
   -6.2310   24.7450  -30.3900 C   0  0  0  0  0  0  0  0  0  0  0  0
   -6.7740   23.8520  -31.5270 C   0  0  0  0  0  0  0  0  0  0  0  0
   -7.3120   22.5460  -31.0710 N   0  0  2  0  0  0  0  0  0  0  0  0
   -6.3630   21.4690  -31.4470 C   0  0  0  0  0  0  0  0  0  0  0  0
   -6.7910   20.6730  -32.7010 C   0  0  0  0  0  0  0  0  0  0  0  0
   -7.7650   19.5010  -32.4560 C   0  0  0  0  0  0  0  0  0  0  0  0
   -9.2320   19.9300  -32.2980 C   0  0  0  0  0  0  0  0  0  0  0  0
   -9.4550   21.0930  -31.3000 C   0  0  0  0  0  0  0  0  0  0  0  0
   -8.6440   22.3310  -31.6180 C   0  0  0  0  0  0  0  0  0  0  0  0
   -9.1540   23.2000  -32.3110 O   0  0  0  0  0  0  0  0  0  0  0  0
   -2.9340   23.7548  -26.7748 H   0  0  0  0  0  0  0  0  0  0  0  0
   -2.0236   24.9848  -27.7156 H   0  0  0  0  0  0  0  0  0  0  0  0
   -3.8198   25.0026  -27.7156 H   0  0  0  0  0  0  0  0  0  0  0  0
   -2.2014   20.2069  -29.7556 H   0  0  0  0  0  0  0  0  0  0  0  0
   -2.9840   21.0297  -31.9690 H   0  0  0  0  0  0  0  0  0  0  0  0
   -3.7576   23.3808  -32.2295 H   0  0  0  0  0  0  0  0  0  0  0  0
   -5.3001   26.6927  -30.5168 H   0  0  0  0  0  0  0  0  0  0  0  0
   -5.0029   25.6180  -31.9349 H   0  0  0  0  0  0  0  0  0  0  0  0
   -5.8630   24.0966  -29.5812 H   0  0  0  0  0  0  0  0  0  0  0  0
   -7.0572   25.3905  -30.0573 H   0  0  0  0  0  0  0  0  0  0  0  0
   -7.5805   24.3975  -32.0388 H   0  0  0  0  0  0  0  0  0  0  0  0
   -5.9233   23.6299  -32.1880 H   0  0  0  0  0  0  0  0  0  0  0  0
   -7.3720   22.5420  -30.0260 H   0  0  0  0  0  0  0  0  0  0  0  0
   -5.3811   21.9243  -31.6432 H   0  0  0  0  0  0  0  0  0  0  0  0
   -6.3359   20.7575  -30.6086 H   0  0  0  0  0  0  0  0  0  0  0  0
   -7.2758   21.3743  -33.3961 H   0  0  0  0  0  0  0  0  0  0  0  0
   -5.8697   20.2173  -33.0929 H   0  0  0  0  0  0  0  0  0  0  0  0
   -7.6966   18.8103  -33.3094 H   0  0  0  0  0  0  0  0  0  0  0  0
   -7.4665   19.0323  -31.5067 H   0  0  0  0  0  0  0  0  0  0  0  0
   -9.6061   20.2456  -33.2831 H   0  0  0  0  0  0  0  0  0  0  0  0
   -9.7710   19.0610  -31.8926 H   0  0  0  0  0  0  0  0  0  0  0  0
  -10.5212   21.3631  -31.3140 H   0  0  0  0  0  0  0  0  0  0  0  0
   -9.1254   20.7373  -30.3127 H   0  0  0  0  0  0  0  0  0  0  0  0
  1  2  1  0
  2  3  2  0
  3  4  1  0
  3  5  1  0
  5  6  2  0
  6  7  1  0
  7  8  2  0
  8  9  1  0
  9 10  1  0
 10 11  1  0
 11 12  1  0
 12 13  1  0
 13 14  1  0
 14 15  1  0
 15 16  1  0
 16 17  1  0
 17 18  1  0
 18 19  1  0
 19 20  2  0
  8  2  1  0
 19 13  1  0
  1 21  1  0
  1 22  1  0
  1 23  1  0
  5 24  1  0
  6 25  1  0
  7 26  1  0
 10 27  1  0
 10 28  1  0
 11 29  1  0
 11 30  1  0
 12 31  1  0
 12 32  1  0
 13 33  1  1
 14 34  1  0
 14 35  1  0
 15 36  1  0
 15 37  1  0
 16 38  1  0
 16 39  1  0
 17 40  1  0
 17 41  1  0
 18 42  1  0
 18 43  1  0
M  CHG  1  13   1
M  END
>  <UniqueID>  (30) 
27

>  <SMILES>  (30) 
Cc1c(Cl)cccc1OCCC[N@@H+]1CCCCCC1=O

>  <Energy>  (30) 
52.81957920511561

>  <Genealogy>  (30) 
Cc1c(Cl)cccc1OCCC[NH+]1CCCCCC1=O (protonated)
Cc1c(Cl)cccc1OCCC[N@@H+]1CCCCCC1=O (chirality)
Cc1c(Cl)cccc1OCCC[N@@H+]1CCCCCC1=O (3D coordinates assigned)
Cc1c(Cl)cccc1OCCC[N@@H+]1CCCCCC1=O (nonaromatic ring conformer: 52.81957920511561 kcal/mol)

>  <smiles>  (30) 
Cc1c(Cl)cccc1OCCCN1CCCCCC1=O

>  <score_type>  (30) 
oracle

>  <origin>  (30) 
adg

>  <m_score__min__energy>  (30) 
-5.0899999999999999

>  <m_primary>  (30) 
energy

$$$$
30:0
     RDKit          3D

 32 34  0  0  0  0  0  0  0  0999 V2000
   -3.8750   25.2940  -30.4820 O   0  0  0  0  0  0  0  0  0  0  0  0
   -4.4110   24.2970  -29.9240 C   0  0  0  0  0  0  0  0  0  0  0  0
   -3.8170   23.7330  -28.7390 N   0  0  0  0  0  0  0  0  0  0  0  0
   -2.6790   24.2990  -28.0680 C   0  0  0  0  0  0  0  0  0  0  0  0
   -1.4000   24.2790  -28.6510 C   0  0  0  0  0  0  0  0  0  0  0  0
   -0.3110   24.8570  -27.9940 C   0  0  0  0  0  0  0  0  0  0  0  0
   -0.4850   25.4790  -26.7500 C   0  0  0  0  0  0  0  0  0  0  0  0
    0.6020   26.0630  -26.0810 C   0  0  0  0  0  0  0  0  0  0  0  0
    0.4120   26.6860  -24.8450 C   0  0  0  0  0  0  0  0  0  0  0  0
   -0.8600   26.7330  -24.2680 C   0  0  0  0  0  0  0  0  0  0  0  0
   -1.9520   26.1560  -24.9250 C   0  0  0  0  0  0  0  0  0  0  0  0
   -1.7740   25.5260  -26.1660 C   0  0  0  0  0  0  0  0  0  0  0  0
   -2.8620   24.9430  -26.8340 C   0  0  0  0  0  0  0  0  0  0  0  0
   -5.6460   23.7260  -30.5130 C   0  0  0  0  0  0  0  0  0  0  0  0
   -6.0060   23.9780  -31.8520 C   0  0  0  0  0  0  0  0  0  0  0  0
   -7.1790   23.4340  -32.3840 C   0  0  0  0  0  0  0  0  0  0  0  0
   -8.0090   22.6390  -31.5880 C   0  0  0  0  0  0  0  0  0  0  0  0
   -7.6690   22.3940  -30.2560 C   0  0  0  0  0  0  0  0  0  0  0  0
   -6.4980   22.9370  -29.7180 C   0  0  0  0  0  0  0  0  0  0  0  0
   -4.1890   22.8350  -28.3600 H   0  0  0  0  0  0  0  0  0  0  0  0
   -1.2554   23.8043  -29.6327 H   0  0  0  0  0  0  0  0  0  0  0  0
    0.6872   24.8238  -28.4549 H   0  0  0  0  0  0  0  0  0  0  0  0
    1.6053   26.0301  -26.5307 H   0  0  0  0  0  0  0  0  0  0  0  0
    1.2670   27.1414  -24.3239 H   0  0  0  0  0  0  0  0  0  0  0  0
   -1.0029   27.2250  -23.2946 H   0  0  0  0  0  0  0  0  0  0  0  0
   -2.9518   26.1963  -24.4680 H   0  0  0  0  0  0  0  0  0  0  0  0
   -3.8660   24.9910  -26.3872 H   0  0  0  0  0  0  0  0  0  0  0  0
   -5.3601   24.6066  -32.4826 H   0  0  0  0  0  0  0  0  0  0  0  0
   -7.4495   23.6321  -33.4317 H   0  0  0  0  0  0  0  0  0  0  0  0
   -8.9284   22.2072  -32.0103 H   0  0  0  0  0  0  0  0  0  0  0  0
   -8.3241   21.7722  -29.6282 H   0  0  0  0  0  0  0  0  0  0  0  0
   -6.2410   22.7460  -28.6656 H   0  0  0  0  0  0  0  0  0  0  0  0
  1  2  2  0
  2  3  1  0
  3  4  1  0
  4  5  2  0
  5  6  1  0
  6  7  2  0
  7  8  1  0
  8  9  2  0
  9 10  1  0
 10 11  2  0
 11 12  1  0
 12 13  2  0
  2 14  1  0
 14 15  2  0
 15 16  1  0
 16 17  2  0
 17 18  1  0
 18 19  2  0
 13  4  1  0
 19 14  1  0
 12  7  1  0
  3 20  1  0
  5 21  1  0
  6 22  1  0
  8 23  1  0
  9 24  1  0
 10 25  1  0
 11 26  1  0
 13 27  1  0
 15 28  1  0
 16 29  1  0
 17 30  1  0
 18 31  1  0
 19 32  1  0
M  END
>  <UniqueID>  (31) 
28

>  <SMILES>  (31) 
O=C(Nc1ccc2ccccc2c1)c1ccccc1

>  <Energy>  (31) 
44.881890729653534

>  <Genealogy>  (31) 
O=C(Nc1ccc2ccccc2c1)c1ccccc1 (3D coordinates assigned)
O=C(Nc1ccc2ccccc2c1)c1ccccc1 (optimized conformer: 44.881890729653534 kcal/mol)

>  <smiles>  (31) 
O=C(Nc1ccc2ccccc2c1)c1ccccc1

>  <score_type>  (31) 
oracle

>  <origin>  (31) 
adg

>  <m_score__min__energy>  (31) 
-7.4900000000000002

>  <m_primary>  (31) 
energy

$$$$
31:0
     RDKit          3D

 31 33  0  0  0  0  0  0  0  0999 V2000
   -3.7720   22.4080  -31.5750 C   0  0  0  0  0  0  0  0  0  0  0  0
   -3.2830   23.4370  -30.7680 C   0  0  0  0  0  0  0  0  0  0  0  0
   -4.0750   24.5010  -30.4670 N   0  0  0  0  0  0  0  0  0  0  0  0
   -5.3500   24.5960  -30.9310 C   0  0  0  0  0  0  0  0  0  0  0  0
   -5.8860   23.5810  -31.7370 C   0  0  0  0  0  0  0  0  0  0  0  0
   -7.2850   23.6980  -32.2790 C   0  0  0  0  0  0  0  0  0  0  0  0
   -8.2340   23.0670  -31.3440 N   0  0  0  0  0  0  0  0  0  0  0  0
   -7.6250   21.9780  -30.5640 C   0  0  0  0  0  0  0  0  0  0  0  0
   -8.5910   20.9380  -31.1190 C   0  0  0  0  0  0  0  0  0  0  0  0
   -8.0020   19.7600  -31.8640 C   0  0  0  0  0  0  0  0  0  0  0  0
   -8.3530   18.4220  -31.6040 C   0  0  0  0  0  0  0  0  0  0  0  0
   -7.7590   17.4220  -32.3080 N   0  0  0  0  0  0  0  0  0  0  0  0
   -6.8240   17.6860  -33.2570 C   0  0  0  0  0  0  0  0  0  0  0  0
   -6.4660   19.0080  -33.5150 C   0  0  0  0  0  0  0  0  0  0  0  0
   -7.0590   20.0090  -32.8140 N   0  0  0  0  0  0  0  0  0  0  0  0
   -9.1130   22.0750  -31.9860 C   0  0  0  0  0  0  0  0  0  0  0  0
   -5.0770   22.4830  -32.0640 C   0  0  0  0  0  0  0  0  0  0  0  0
   -3.1348   21.5464  -31.8230 H   0  0  0  0  0  0  0  0  0  0  0  0
   -2.2567   23.3872  -30.3754 H   0  0  0  0  0  0  0  0  0  0  0  0
   -5.9631   25.4722  -30.6732 H   0  0  0  0  0  0  0  0  0  0  0  0
   -7.5426   24.7605  -32.4000 H   0  0  0  0  0  0  0  0  0  0  0  0
   -7.3419   23.1910  -33.2535 H   0  0  0  0  0  0  0  0  0  0  0  0
   -6.5747   21.7848  -30.8279 H   0  0  0  0  0  0  0  0  0  0  0  0
   -7.5357   22.0914  -29.4735 H   0  0  0  0  0  0  0  0  0  0  0  0
   -9.2295   20.3270  -30.4640 H   0  0  0  0  0  0  0  0  0  0  0  0
   -9.1039   18.1867  -30.8354 H   0  0  0  0  0  0  0  0  0  0  0  0
   -6.3537   16.8641  -33.8167 H   0  0  0  0  0  0  0  0  0  0  0  0
   -5.7097   19.2388  -34.2797 H   0  0  0  0  0  0  0  0  0  0  0  0
   -8.9082   21.9375  -33.0580 H   0  0  0  0  0  0  0  0  0  0  0  0
  -10.1959   22.2658  -32.0158 H   0  0  0  0  0  0  0  0  0  0  0  0
   -5.4710   21.6811  -32.7057 H   0  0  0  0  0  0  0  0  0  0  0  0
  1  2  2  0
  2  3  1  0
  3  4  2  0
  4  5  1  0
  5  6  1  0
  6  7  1  0
  7  8  1  0
  8  9  1  0
  9 10  1  0
 10 11  2  0
 11 12  1  0
 12 13  2  0
 13 14  1  0
 14 15  2  0
  9 16  1  0
  5 17  2  0
 17  1  1  0
 16  7  1  0
 15 10  1  0
  1 18  1  0
  2 19  1  0
  4 20  1  0
  6 21  1  0
  6 22  1  0
  8 23  1  0
  8 24  1  0
  9 25  1  0
 11 26  1  0
 13 27  1  0
 14 28  1  0
 16 29  1  0
 16 30  1  0
 17 31  1  0
M  END
>  <UniqueID>  (32) 
29

>  <SMILES>  (32) 
c1cncc(CN2CC(c3cnccn3)C2)c1

>  <Energy>  (32) 
108.15810236899065

>  <Genealogy>  (32) 
c1cncc(CN2CC(c3cnccn3)C2)c1 (3D coordinates assigned)
c1cncc(CN2CC(c3cnccn3)C2)c1 (nonaromatic ring conformer: 108.15810236899065 kcal/mol)

>  <smiles>  (32) 
c1cncc(CN2CC(c3cnccn3)C2)c1

>  <score_type>  (32) 
oracle

>  <origin>  (32) 
adg

>  <m_score__min__energy>  (32) 
-7.04

>  <m_primary>  (32) 
energy

$$$$
32:0
     RDKit          3D

 64 65  0  0  0  0  0  0  0  0999 V2000
   -3.4520   18.8630  -26.3260 C   0  0  0  0  0  0  0  0  0  0  0  0
   -2.0810   19.4050  -26.7260 C   0  0  0  0  0  0  0  0  0  0  0  0
   -2.1110   20.8890  -27.1300 C   0  0  0  0  0  0  0  0  0  0  0  0
   -0.7900   21.4340  -27.7100 C   0  0  0  0  0  0  0  0  0  0  0  0
   -0.9970   22.5510  -28.7520 C   0  0  0  0  0  0  0  0  0  0  0  0
   -2.2230   22.2570  -29.6440 C   0  0  0  0  0  0  0  0  0  0  0  0
   -3.3980   23.1340  -29.3560 N   0  0  1  0  0  0  0  0  0  0  0  0
   -3.1150   24.4820  -29.8400 C   0  0  0  0  0  0  0  0  0  0  0  0
   -3.8150   24.9570  -30.7770 O   0  0  0  0  0  0  0  0  0  0  0  0
   -1.9990   25.2400  -29.3350 N   0  0  0  0  0  0  0  0  0  0  0  0
   -1.7140   25.6740  -27.9970 C   0  0  0  0  0  0  0  0  0  0  0  0
   -2.3720   25.0200  -26.9500 C   0  0  0  0  0  0  0  0  0  0  0  0
   -2.1560   25.3900  -25.6250 C   0  0  0  0  0  0  0  0  0  0  0  0
   -1.2750   26.4420  -25.3170 C   0  0  0  0  0  0  0  0  0  0  0  0
   -1.0300   26.8440  -23.9930 O   0  0  0  0  0  0  0  0  0  0  0  0
    0.2430   26.8000  -23.3580 C   0  0  0  0  0  0  0  0  0  0  0  0
   -0.6160   27.1210  -26.3540 C   0  0  0  0  0  0  0  0  0  0  0  0
    0.2590   28.1640  -26.0090 O   0  0  0  0  0  0  0  0  0  0  0  0
   -0.1470   29.4860  -25.6580 C   0  0  0  0  0  0  0  0  0  0  0  0
   -0.8470   26.7440  -27.6940 C   0  0  0  0  0  0  0  0  0  0  0  0
   -4.6950   22.5480  -29.8320 C   0  0  0  0  0  0  0  0  0  0  0  0
   -4.5930   21.8010  -31.1970 C   0  0  0  0  0  0  0  0  0  0  0  0
   -5.7600   22.1030  -32.1470 C   0  0  0  0  0  0  0  0  0  0  0  0
   -7.0410   22.0810  -31.4200 N   0  0  0  0  0  0  0  0  0  0  0  0
   -8.1710   21.3380  -31.9410 C   0  0  0  0  0  0  0  0  0  0  0  0
   -9.4450   21.2050  -31.1620 C   0  0  0  0  0  0  0  0  0  0  0  0
   -8.0900   20.7540  -33.0580 O   0  0  0  0  0  0  0  0  0  0  0  0
   -7.1860   22.8760  -30.1860 C   0  0  0  0  0  0  0  0  0  0  0  0
   -5.8730   23.5620  -29.7770 C   0  0  0  0  0  0  0  0  0  0  0  0
   -3.5285   18.8327  -25.2291 H   0  0  0  0  0  0  0  0  0  0  0  0
   -4.2376   19.5182  -26.7304 H   0  0  0  0  0  0  0  0  0  0  0  0
   -3.5772   17.8477  -26.7304 H   0  0  0  0  0  0  0  0  0  0  0  0
   -1.3964   19.2886  -25.8729 H   0  0  0  0  0  0  0  0  0  0  0  0
   -1.7469   18.8335  -27.6045 H   0  0  0  0  0  0  0  0  0  0  0  0
   -2.8965   21.0202  -27.8888 H   0  0  0  0  0  0  0  0  0  0  0  0
   -2.2974   21.4553  -26.2056 H   0  0  0  0  0  0  0  0  0  0  0  0
   -0.1849   21.8351  -26.8836 H   0  0  0  0  0  0  0  0  0  0  0  0
   -0.2898   20.5989  -28.2223 H   0  0  0  0  0  0  0  0  0  0  0  0
   -1.1536   23.5060  -28.2290 H   0  0  0  0  0  0  0  0  0  0  0  0
   -0.1034   22.6032  -29.3914 H   0  0  0  0  0  0  0  0  0  0  0  0
   -1.9309   22.4013  -30.6947 H   0  0  0  0  0  0  0  0  0  0  0  0
   -2.5337   21.2230  -29.4336 H   0  0  0  0  0  0  0  0  0  0  0  0
   -3.4680   23.2140  -28.3120 H   0  0  0  0  0  0  0  0  0  0  0  0
   -3.0706   24.2011  -27.1768 H   0  0  0  0  0  0  0  0  0  0  0  0
   -2.6767   24.8571  -24.8158 H   0  0  0  0  0  0  0  0  0  0  0  0
    0.1085   26.8046  -22.2663 H   0  0  0  0  0  0  0  0  0  0  0  0
    0.7711   25.8831  -23.6585 H   0  0  0  0  0  0  0  0  0  0  0  0
    0.8332   27.6783  -23.6585 H   0  0  0  0  0  0  0  0  0  0  0  0
   -0.1764   29.5818  -24.5626 H   0  0  0  0  0  0  0  0  0  0  0  0
    0.5698   30.2114  -26.0704 H   0  0  0  0  0  0  0  0  0  0  0  0
   -1.1474   29.6840  -26.0704 H   0  0  0  0  0  0  0  0  0  0  0  0
   -0.3470   27.2889  -28.5083 H   0  0  0  0  0  0  0  0  0  0  0  0
   -4.9355   21.7612  -29.1019 H   0  0  0  0  0  0  0  0  0  0  0  0
   -3.6562   22.1011  -31.6893 H   0  0  0  0  0  0  0  0  0  0  0  0
   -4.6224   20.7231  -30.9797 H   0  0  0  0  0  0  0  0  0  0  0  0
   -5.6147   23.0980  -32.5929 H   0  0  0  0  0  0  0  0  0  0  0  0
   -5.7854   21.3334  -32.9325 H   0  0  0  0  0  0  0  0  0  0  0  0
   -9.2206   21.2284  -30.0854 H   0  0  0  0  0  0  0  0  0  0  0  0
  -10.1178   22.0378  -31.4145 H   0  0  0  0  0  0  0  0  0  0  0  0
   -9.9313   20.2512  -31.4145 H   0  0  0  0  0  0  0  0  0  0  0  0
   -7.9522   23.6479  -30.3504 H   0  0  0  0  0  0  0  0  0  0  0  0
   -7.4743   22.1903  -29.3756 H   0  0  0  0  0  0  0  0  0  0  0  0
   -5.6681   24.3942  -30.4666 H   0  0  0  0  0  0  0  0  0  0  0  0
   -5.9719   23.9405  -28.7489 H   0  0  0  0  0  0  0  0  0  0  0  0
  1  2  1  0
  2  3  1  0
  3  4  1  0
  4  5  1  0
  5  6  1  0
  6  7  1  0
  7  8  1  0
  8  9  2  0
  8 10  1  0
 10 11  1  0
 11 12  2  0
 12 13  1  0
 13 14  2  0
 14 15  1  0
 15 16  1  0
 14 17  1  0
 17 18  1  0
 18 19  1  0
 17 20  2  0
  7 21  1  0
 21 22  1  0
 22 23  1  0
 23 24  1  0
 24 25  1  0
 25 26  1  0
 25 27  2  0
 24 28  1  0
 28 29  1  0
 20 11  1  0
 29 21  1  0
  1 30  1  0
  1 31  1  0
  1 32  1  0
  2 33  1  0
  2 34  1  0
  3 35  1  0
  3 36  1  0
  4 37  1  0
  4 38  1  0
  5 39  1  0
  5 40  1  0
  6 41  1  0
  6 42  1  0
  7 43  1  1
 12 44  1  0
 13 45  1  0
 16 46  1  0
 16 47  1  0
 16 48  1  0
 19 49  1  0
 19 50  1  0
 19 51  1  0
 20 52  1  0
 21 53  1  0
 22 54  1  0
 22 55  1  0
 23 56  1  0
 23 57  1  0
 26 58  1  0
 26 59  1  0
 26 60  1  0
 28 61  1  0
 28 62  1  0
 29 63  1  0
 29 64  1  0
M  CHG  2   7   1  10  -1
M  END
>  <UniqueID>  (33) 
30

>  <SMILES>  (33) 
CCCCCC[N@@H+](C(=O)[N-]c1ccc(OC)c(OC)c1)C1CCN(C(C)=O)CC1

>  <Energy>  (33) 
72.38873322932173

>  <Genealogy>  (33) 
CCCCCC[NH+](C(=O)[N-]c1ccc(OC)c(OC)c1)C1CCN(C(C)=O)CC1 (protonated)
CCCCCC[N@@H+](C(=O)[N-]c1ccc(OC)c(OC)c1)C1CCN(C(C)=O)CC1 (chirality)
CCCCCC[N@@H+](C(=O)[N-]c1ccc(OC)c(OC)c1)C1CCN(C(C)=O)CC1 (3D coordinates assigned)
CCCCCC[N@@H+](C(=O)[N-]c1ccc(OC)c(OC)c1)C1CCN(C(C)=O)CC1 (nonaromatic ring conformer: 72.38873322932173 kcal/mol)

>  <smiles>  (33) 
CCCCCCN(C(=O)Nc1ccc(OC)c(OC)c1)C1CCN(C(C)=O)CC1

>  <score_type>  (33) 
oracle

>  <origin>  (33) 
adg

>  <m_score__min__energy>  (33) 
-8.8399999999999999

>  <m_primary>  (33) 
energy

$$$$
33:0
     RDKit          3D

 48 51  0  0  0  0  0  0  0  0999 V2000
    0.4696   20.6668  -29.8732 H   0  0  0  0  0  0  0  0  0  0  0  0
   -0.3040   20.4600  -29.1190 C   0  0  0  0  0  0  0  0  0  0  0  0
   -0.1370   19.4420  -28.2660 C   0  0  0  0  0  0  0  0  0  0  0  0
    0.8169   18.8943  -28.2647 H   0  0  0  0  0  0  0  0  0  0  0  0
   -1.2230   19.0280  -27.3080 C   0  0  0  0  0  0  0  0  0  0  0  0
   -1.9215   18.3570  -27.8294 H   0  0  0  0  0  0  0  0  0  0  0  0
   -0.7515   18.5198  -26.4540 H   0  0  0  0  0  0  0  0  0  0  0  0
   -2.0000   20.2370  -26.7750 C   0  0  0  0  0  0  0  0  0  0  0  0
   -2.8907   19.8846  -26.2343 H   0  0  0  0  0  0  0  0  0  0  0  0
   -1.3468   20.8090  -26.0997 H   0  0  0  0  0  0  0  0  0  0  0  0
   -2.4290   21.1290  -27.9050 C   0  0  0  0  0  0  0  0  0  0  0  0
   -3.5260   21.7470  -27.8290 O   0  0  0  0  0  0  0  0  0  0  0  0
   -1.5180   21.3150  -29.0630 C   0  0  0  0  0  0  0  0  0  0  0  0
   -1.8070   22.2210  -30.0190 C   0  0  0  0  0  0  0  0  0  0  0  0
   -0.9681   22.6871  -30.5565 H   0  0  0  0  0  0  0  0  0  0  0  0
   -3.1810   22.6290  -30.3920 C   0  0  0  0  0  0  0  0  0  0  0  0
   -3.6060   23.9520  -30.2270 C   0  0  0  0  0  0  0  0  0  0  0  0
   -2.7170   24.9210  -29.7410 O   0  0  0  0  0  0  0  0  0  0  0  0
   -2.0210   24.7960  -28.5340 C   0  0  0  0  0  0  0  0  0  0  0  0
   -0.6220   24.7990  -28.5730 C   0  0  0  0  0  0  0  0  0  0  0  0
   -0.1026   24.8736  -29.5398 H   0  0  0  0  0  0  0  0  0  0  0  0
    0.1190   24.7080  -27.3930 C   0  0  0  0  0  0  0  0  0  0  0  0
    1.2183   24.7182  -27.4320 H   0  0  0  0  0  0  0  0  0  0  0  0
   -0.5350   24.6040  -26.1630 C   0  0  0  0  0  0  0  0  0  0  0  0
    0.0496   24.5457  -25.2330 H   0  0  0  0  0  0  0  0  0  0  0  0
   -1.9310   24.5740  -26.1130 C   0  0  0  0  0  0  0  0  0  0  0  0
   -2.4406   24.4942  -25.1415 H   0  0  0  0  0  0  0  0  0  0  0  0
   -2.6890   24.6450  -27.2940 C   0  0  0  0  0  0  0  0  0  0  0  0
   -4.1880   24.5650  -27.2090 C   0  0  0  0  0  0  0  0  0  0  0  0
   -4.4950   24.5486  -26.1528 H   0  0  0  0  0  0  0  0  0  0  0  0
   -4.6307   25.4408  -27.7060 H   0  0  0  0  0  0  0  0  0  0  0  0
   -4.5350   23.6471  -27.7060 H   0  0  0  0  0  0  0  0  0  0  0  0
   -4.8770   24.2930  -30.5560 N   0  0  0  0  0  0  0  0  0  0  0  0
   -5.7630   23.3760  -31.0180 C   0  0  0  0  0  0  0  0  0  0  0  0
   -7.0620   23.7880  -31.3340 C   0  0  0  0  0  0  0  0  0  0  0  0
   -7.3528   24.8420  -31.2132 H   0  0  0  0  0  0  0  0  0  0  0  0
   -7.9840   22.8570  -31.8020 C   0  0  0  0  0  0  0  0  0  0  0  0
   -9.0101   23.1719  -32.0428 H   0  0  0  0  0  0  0  0  0  0  0  0
   -7.6060   21.5220  -31.9660 C   0  0  0  0  0  0  0  0  0  0  0  0
   -8.6060   20.5060  -32.4330 C   0  0  0  0  0  0  0  0  0  0  0  0
   -9.0769   20.0276  -31.5616 H   0  0  0  0  0  0  0  0  0  0  0  0
   -9.3773   21.0027  -33.0399 H   0  0  0  0  0  0  0  0  0  0  0  0
   -8.0971   19.7427  -33.0399 H   0  0  0  0  0  0  0  0  0  0  0  0
   -6.3020   21.1380  -31.6230 C   0  0  0  0  0  0  0  0  0  0  0  0
   -6.0033   20.0842  -31.7248 H   0  0  0  0  0  0  0  0  0  0  0  0
   -5.3920   22.0570  -31.1620 N   0  0  0  0  0  0  0  0  0  0  0  0
   -4.1100   21.6780  -30.8440 C   0  0  0  0  0  0  0  0  0  0  0  0
   -3.7480   20.4730  -30.9620 O   0  0  0  0  0  0  0  0  0  0  0  0
  1  2  1  0
  2  3  2  0
  3  4  1  0
  3  5  1  0
  5  6  1  0
  5  7  1  0
  5  8  1  0
  8  9  1  0
  8 10  1  0
  8 11  1  0
 11 12  2  0
 11 13  1  0
 13 14  2  0
 14 15  1  0
 14 16  1  0
 16 17  2  0
 17 18  1  0
 18 19  1  0
 19 20  2  0
 20 21  1  0
 20 22  1  0
 22 23  1  0
 22 24  2  0
 24 25  1  0
 24 26  1  0
 26 27  1  0
 26 28  2  0
 28 29  1  0
 29 30  1  0
 29 31  1  0
 29 32  1  0
 17 33  1  0
 33 34  2  0
 34 35  1  0
 35 36  1  0
 35 37  2  0
 37 38  1  0
 37 39  1  0
 39 40  1  0
 40 41  1  0
 40 42  1  0
 40 43  1  0
 39 44  2  0
 44 45  1  0
 44 46  1  0
 46 47  1  0
 47 48  2  0
 13  2  1  0
 47 16  1  0
 28 19  1  0
 46 34  1  0
M  END
>  <UniqueID>  (34) 
31

>  <SMILES>  (34) 
Cc1ccc2nc(Oc3ccccc3C)c(/C=C3\C=CCCC3=O)c(=O)n2c1

>  <Energy>  (34) 
71.2658158252616

>  <Genealogy>  (34) 
Cc1ccc2nc(Oc3ccccc3C)c(/C=C3\C=CCCC3=O)c(=O)n2c1 (cis-trans isomerization)
Cc1ccc2nc(Oc3ccccc3C)c(/C=C3\C=CCCC3=O)c(=O)n2c1 (3D coordinates assigned)
Cc1ccc2nc(Oc3ccccc3C)c(/C=C3\C=CCCC3=O)c(=O)n2c1 (nonaromatic ring conformer: 71.2658158252616 kcal/mol)

>  <smiles>  (34) 
Cc1ccc2nc(Oc3ccccc3C)c(C=C3C=CCCC3=O)c(=O)n2c1

>  <score_type>  (34) 
oracle

>  <origin>  (34) 
adg

>  <m_score__min__energy>  (34) 
-9.4700000000000006

>  <m_primary>  (34) 
energy

$$$$
34:0
     RDKit          3D

 24 24  0  0  0  0  0  0  0  0999 V2000
   -1.7100   25.5700  -26.6420 C   0  0  0  0  0  0  0  0  0  0  0  0
   -1.1000   24.9750  -27.9070 C   0  0  0  0  0  0  0  0  0  0  0  0
   -1.9160   25.2900  -29.0810 N   0  0  0  0  0  0  0  0  0  0  0  0
   -3.1530   24.6100  -29.3320 C   0  0  0  0  0  0  0  0  0  0  0  0
   -3.6560   23.8670  -28.4480 O   0  0  0  0  0  0  0  0  0  0  0  0
   -3.8690   24.8120  -30.5570 N   0  0  0  0  0  0  0  0  0  0  0  0
   -5.0120   24.0640  -30.9960 C   0  0  0  0  0  0  0  0  0  0  0  0
   -6.2910   24.5180  -30.6500 C   0  0  0  0  0  0  0  0  0  0  0  0
   -7.4240   23.7980  -31.0390 C   0  0  0  0  0  0  0  0  0  0  0  0
   -7.2880   22.6100  -31.7600 C   0  0  0  0  0  0  0  0  0  0  0  0
   -6.0120   22.1320  -32.0870 C   0  0  0  0  0  0  0  0  0  0  0  0
   -5.8700   20.8970  -32.8130 C   0  0  0  0  0  0  0  0  0  0  0  0
   -5.7560   19.9040  -33.3960 N   0  0  0  0  0  0  0  0  0  0  0  0
   -4.8750   22.8530  -31.6980 C   0  0  0  0  0  0  0  0  0  0  0  0
   -1.2409   25.1124  -25.7585 H   0  0  0  0  0  0  0  0  0  0  0  0
   -1.5374   26.6563  -26.6276 H   0  0  0  0  0  0  0  0  0  0  0  0
   -2.7916   25.3704  -26.6276 H   0  0  0  0  0  0  0  0  0  0  0  0
   -0.0908   25.3889  -28.0488 H   0  0  0  0  0  0  0  0  0  0  0  0
   -1.0556   23.8817  -27.7940 H   0  0  0  0  0  0  0  0  0  0  0  0
   -1.6100   26.0450  -29.7360 H   0  0  0  0  0  0  0  0  0  0  0  0
   -6.4043   25.4454  -30.0695 H   0  0  0  0  0  0  0  0  0  0  0  0
   -8.4259   24.1684  -30.7764 H   0  0  0  0  0  0  0  0  0  0  0  0
   -8.1820   22.0497  -32.0711 H   0  0  0  0  0  0  0  0  0  0  0  0
   -3.8729   22.4708  -31.9423 H   0  0  0  0  0  0  0  0  0  0  0  0
  1  2  1  0
  2  3  1  0
  3  4  1  0
  4  5  2  0
  4  6  1  0
  6  7  1  0
  7  8  2  0
  8  9  1  0
  9 10  2  0
 10 11  1  0
 11 12  1  0
 12 13  3  0
 11 14  2  0
 14  7  1  0
  1 15  1  0
  1 16  1  0
  1 17  1  0
  2 18  1  0
  2 19  1  0
  3 20  1  0
  8 21  1  0
  9 22  1  0
 10 23  1  0
 14 24  1  0
M  CHG  1   6  -1
M  END
>  <UniqueID>  (35) 
32

>  <SMILES>  (35) 
CCNC(=O)[N-]c1cccc(C#N)c1

>  <Energy>  (35) 
20.264945978716597

>  <Genealogy>  (35) 
CCNC(=O)[N-]c1cccc(C#N)c1 (protonated)
CCNC(=O)[N-]c1cccc(C#N)c1 (3D coordinates assigned)
CCNC(=O)[N-]c1cccc(C#N)c1 (optimized conformer: 20.264945978716597 kcal/mol)

>  <smiles>  (35) 
CCNC(=O)Nc1cccc(C#N)c1

>  <score_type>  (35) 
oracle

>  <origin>  (35) 
adg

>  <m_score__min__energy>  (35) 
-7.21

>  <m_primary>  (35) 
energy

$$$$
35:0
     RDKit          3D

 31 32  0  0  0  0  0  0  0  0999 V2000
   -6.4230   24.0970  -29.9920 O   0  0  0  0  0  0  0  0  0  0  0  0
   -5.9920   23.4750  -31.0010 C   0  0  0  0  0  0  0  0  0  0  0  0
   -6.8600   23.3610  -32.2170 C   0  0  0  0  0  0  0  0  0  0  0  0
   -7.5210   22.0100  -32.2540 C   0  0  0  0  0  0  0  0  0  0  0  0
   -8.8790   21.8750  -31.9230 C   0  0  0  0  0  0  0  0  0  0  0  0
   -9.5000   20.6230  -31.9920 C   0  0  0  0  0  0  0  0  0  0  0  0
   -8.7720   19.5010  -32.3990 C   0  0  0  0  0  0  0  0  0  0  0  0
   -7.4220   19.6310  -32.7420 C   0  0  0  0  0  0  0  0  0  0  0  0
   -6.7990   20.8800  -32.6740 C   0  0  0  0  0  0  0  0  0  0  0  0
   -4.7220   22.8080  -30.9620 N   0  0  0  0  0  0  0  0  0  0  0  0
   -3.7690   22.9620  -29.8950 C   0  0  0  0  0  0  0  0  0  0  0  0
   -3.4600   21.8890  -29.0390 C   0  0  0  0  0  0  0  0  0  0  0  0
   -2.5450   22.0490  -27.9830 C   0  0  0  0  0  0  0  0  0  0  0  0
   -2.2310   20.9430  -27.1170 N   0  0  0  0  0  0  0  0  0  0  0  0
   -1.2190   20.9730  -26.3870 O   0  0  0  0  0  0  0  0  0  0  0  0
   -3.0410   19.8290  -27.0820 O   0  0  0  0  0  0  0  0  0  0  0  0
   -1.9500   23.3070  -27.7820 C   0  0  0  0  0  0  0  0  0  0  0  0
   -2.2690   24.3810  -28.6150 C   0  0  0  0  0  0  0  0  0  0  0  0
   -3.1770   24.2160  -29.6640 C   0  0  0  0  0  0  0  0  0  0  0  0
   -3.4790   25.2990  -30.4820 O   0  0  0  0  0  0  0  0  0  0  0  0
   -7.6325   24.1436  -32.1875 H   0  0  0  0  0  0  0  0  0  0  0  0
   -6.2385   23.4831  -33.1164 H   0  0  0  0  0  0  0  0  0  0  0  0
   -9.4566   22.7567  -31.6083 H   0  0  0  0  0  0  0  0  0  0  0  0
  -10.5624   20.5214  -31.7257 H   0  0  0  0  0  0  0  0  0  0  0  0
   -9.2604   18.5167  -32.4495 H   0  0  0  0  0  0  0  0  0  0  0  0
   -6.8501   18.7488  -33.0657 H   0  0  0  0  0  0  0  0  0  0  0  0
   -5.7389   20.9790  -32.9504 H   0  0  0  0  0  0  0  0  0  0  0  0
   -4.5170   22.1060  -31.7090 H   0  0  0  0  0  0  0  0  0  0  0  0
   -3.9403   20.9122  -29.1978 H   0  0  0  0  0  0  0  0  0  0  0  0
   -1.2286   23.4458  -26.9633 H   0  0  0  0  0  0  0  0  0  0  0  0
   -1.8028   25.3626  -28.4445 H   0  0  0  0  0  0  0  0  0  0  0  0
  1  2  2  0
  2  3  1  0
  3  4  1  0
  4  5  2  0
  5  6  1  0
  6  7  2  0
  7  8  1  0
  8  9  2  0
  2 10  1  0
 10 11  1  0
 11 12  2  0
 12 13  1  0
 13 14  1  0
 14 15  2  0
 14 16  1  0
 13 17  2  0
 17 18  1  0
 18 19  2  0
 19 20  1  0
  9  4  1  0
 19 11  1  0
  3 21  1  0
  3 22  1  0
  5 23  1  0
  6 24  1  0
  7 25  1  0
  8 26  1  0
  9 27  1  0
 10 28  1  0
 12 29  1  0
 17 30  1  0
 18 31  1  0
M  CHG  3  14   1  16  -1  20  -1
M  END
>  <UniqueID>  (36) 
33

>  <SMILES>  (36) 
O=C(Cc1ccccc1)Nc1cc([N+](=O)[O-])ccc1[O-]

>  <Energy>  (36) 
34.67942030965239

>  <Genealogy>  (36) 
O=C(Cc1ccccc1)Nc1cc([N+](=O)[O-])ccc1[O-] (protonated)
O=C(Cc1ccccc1)Nc1cc([N+](=O)[O-])ccc1[O-] (3D coordinates assigned)
O=C(Cc1ccccc1)Nc1cc([N+](=O)[O-])ccc1[O-] (optimized conformer: 34.67942030965239 kcal/mol)

>  <smiles>  (36) 
O=C(Cc1ccccc1)Nc1cc([N+](=O)[O-])ccc1O

>  <score_type>  (36) 
oracle

>  <origin>  (36) 
adg

>  <m_score__min__energy>  (36) 
-10.91

>  <m_primary>  (36) 
energy

$$$$
36:0
     RDKit          3D

 33 36  0  0  0  0  0  0  0  0999 V2000
   -3.9230   24.5480  -29.3170 C   0  0  0  0  0  0  0  0  0  0  0  0
   -4.7930   24.9800  -30.3210 C   0  0  0  0  0  0  0  0  0  0  0  0
   -5.3380   24.0590  -31.2200 C   0  0  0  0  0  0  0  0  0  0  0  0
   -5.0130   22.6920  -31.1280 C   0  0  0  0  0  0  0  0  0  0  0  0
   -5.5990   21.7050  -32.0720 C   0  0  0  0  0  0  0  0  0  0  0  0
   -4.7840   21.0650  -32.8650 N   0  0  0  0  0  0  0  0  0  0  0  0
   -5.1600   20.0500  -33.8400 C   0  0  0  0  0  0  0  0  0  0  0  0
   -5.7680   18.8950  -33.1230 C   0  0  0  0  0  0  0  0  0  0  0  0
   -5.2740   17.6400  -33.1600 N   0  0  0  0  0  0  0  0  0  0  0  0
   -6.1220   16.9360  -32.3820 C   0  0  0  0  0  0  0  0  0  0  0  0
   -7.1050   17.7670  -31.8930 C   0  0  0  0  0  0  0  0  0  0  0  0
   -6.8680   19.0080  -32.3560 N   0  0  0  0  0  0  0  0  0  0  0  0
   -7.6690   20.1890  -32.1670 C   0  0  0  0  0  0  0  0  0  0  0  0
   -9.0680   20.0630  -32.0880 C   0  0  0  0  0  0  0  0  0  0  0  0
   -9.8800   21.1890  -31.9700 C   0  0  0  0  0  0  0  0  0  0  0  0
   -9.3110   22.4590  -31.9340 C   0  0  0  0  0  0  0  0  0  0  0  0
   -7.9250   22.6070  -32.0000 C   0  0  0  0  0  0  0  0  0  0  0  0
   -7.0810   21.4840  -32.1020 C   0  0  0  0  0  0  0  0  0  0  0  0
   -4.1440   22.2680  -30.1030 C   0  0  0  0  0  0  0  0  0  0  0  0
   -3.6010   23.1940  -29.2080 C   0  0  0  0  0  0  0  0  0  0  0  0
   -3.4918   25.2745  -28.6125 H   0  0  0  0  0  0  0  0  0  0  0  0
   -5.0495   26.0464  -30.4041 H   0  0  0  0  0  0  0  0  0  0  0  0
   -6.0261   24.4047  -32.0055 H   0  0  0  0  0  0  0  0  0  0  0  0
   -5.8891   20.4704  -34.5483 H   0  0  0  0  0  0  0  0  0  0  0  0
   -4.2701   19.7180  -34.3948 H   0  0  0  0  0  0  0  0  0  0  0  0
   -6.0404   15.8597  -32.1701 H   0  0  0  0  0  0  0  0  0  0  0  0
   -7.9376   17.4688  -31.2389 H   0  0  0  0  0  0  0  0  0  0  0  0
   -9.5262   19.0635  -32.1198 H   0  0  0  0  0  0  0  0  0  0  0  0
  -10.9721   21.0743  -31.9052 H   0  0  0  0  0  0  0  0  0  0  0  0
   -9.9549   23.3472  -31.8534 H   0  0  0  0  0  0  0  0  0  0  0  0
   -7.4854   23.6149  -31.9720 H   0  0  0  0  0  0  0  0  0  0  0  0
   -3.8915   21.2017  -30.0067 H   0  0  0  0  0  0  0  0  0  0  0  0
   -2.9179   22.8549  -28.4153 H   0  0  0  0  0  0  0  0  0  0  0  0
  1  2  2  0
  2  3  1  0
  3  4  2  0
  4  5  1  0
  5  6  2  0
  6  7  1  0
  7  8  1  0
  8  9  2  0
  9 10  1  0
 10 11  2  0
 11 12  1  0
 12 13  1  0
 13 14  2  0
 14 15  1  0
 15 16  2  0
 16 17  1  0
 17 18  2  0
  4 19  1  0
 19 20  2  0
 20  1  1  0
 18  5  1  0
 12  8  1  0
 18 13  1  0
  1 21  1  0
  2 22  1  0
  3 23  1  0
  7 24  1  0
  7 25  1  0
 10 26  1  0
 11 27  1  0
 14 28  1  0
 15 29  1  0
 16 30  1  0
 17 31  1  0
 19 32  1  0
 20 33  1  0
M  END
>  <UniqueID>  (37) 
34

>  <SMILES>  (37) 
c1ccc(C2=NCc3nccn3-c3ccccc32)cc1

>  <Energy>  (37) 
82.11108502017073

>  <Genealogy>  (37) 
c1ccc(C2=NCc3nccn3-c3ccccc32)cc1 (3D coordinates assigned)
c1ccc(C2=NCc3nccn3-c3ccccc32)cc1 (nonaromatic ring conformer: 82.11108502017073 kcal/mol)

>  <smiles>  (37) 
c1ccc(C2=NCc3nccn3-c3ccccc32)cc1

>  <score_type>  (37) 
oracle

>  <origin>  (37) 
adg

>  <m_score__min__energy>  (37) 
-7.7300000000000004

>  <m_primary>  (37) 
energy

$$$$
37:0
     RDKit          3D

 28 29  0  0  0  0  0  0  0  0999 V2000
   -7.9213   23.5632  -29.8459 H   0  0  0  0  0  0  0  0  0  0  0  0
   -7.1590   23.4260  -30.6270 C   0  0  0  0  0  0  0  0  0  0  0  0
   -7.5690   22.9380  -31.8090 C   0  0  0  0  0  0  0  0  0  0  0  0
   -7.7755   23.6631  -32.6100 H   0  0  0  0  0  0  0  0  0  0  0  0
   -7.7660   21.5050  -32.1230 C   0  0  0  0  0  0  0  0  0  0  0  0
   -8.9590   20.8360  -31.7950 C   0  0  0  0  0  0  0  0  0  0  0  0
   -9.7810   21.3867  -31.3142 H   0  0  0  0  0  0  0  0  0  0  0  0
   -9.1050   19.4750  -32.0770 C   0  0  0  0  0  0  0  0  0  0  0  0
  -10.0457   18.9608  -31.8308 H   0  0  0  0  0  0  0  0  0  0  0  0
   -8.0580   18.7670  -32.6710 C   0  0  0  0  0  0  0  0  0  0  0  0
   -8.1772   17.6978  -32.9004 H   0  0  0  0  0  0  0  0  0  0  0  0
   -6.8580   19.4180  -32.9740 C   0  0  0  0  0  0  0  0  0  0  0  0
   -6.0306   18.8580  -33.4343 H   0  0  0  0  0  0  0  0  0  0  0  0
   -6.7080   20.7790  -32.6930 C   0  0  0  0  0  0  0  0  0  0  0  0
   -5.7570   21.2834  -32.9194 H   0  0  0  0  0  0  0  0  0  0  0  0
   -5.7680   23.7940  -30.2890 C   0  0  0  0  0  0  0  0  0  0  0  0
   -5.0130   23.0820  -29.3460 C   0  0  0  0  0  0  0  0  0  0  0  0
   -5.4432   22.1991  -28.8507 H   0  0  0  0  0  0  0  0  0  0  0  0
   -3.7510   23.4820  -29.0440 N   0  0  0  0  0  0  0  0  0  0  0  0
   -3.2000   24.5800  -29.6310 C   0  0  0  0  0  0  0  0  0  0  0  0
   -1.9900   24.9550  -29.3440 N   0  0  0  0  0  0  0  0  0  0  0  0
   -1.5010   25.1650  -27.9860 C   0  0  0  0  0  0  0  0  0  0  0  0
   -2.2653   24.8368  -27.2662 H   0  0  0  0  0  0  0  0  0  0  0  0
   -0.5800   24.5830  -27.8338 H   0  0  0  0  0  0  0  0  0  0  0  0
   -1.2889   26.2336  -27.8338 H   0  0  0  0  0  0  0  0  0  0  0  0
   -3.9270   25.2990  -30.5240 N   0  0  0  0  0  0  0  0  0  0  0  0
   -5.1940   24.9370  -30.8540 C   0  0  0  0  0  0  0  0  0  0  0  0
   -5.7699   25.5446  -31.5675 H   0  0  0  0  0  0  0  0  0  0  0  0
  1  2  1  0
  2  3  2  0
  3  4  1  0
  3  5  1  0
  5  6  2  0
  6  7  1  0
  6  8  1  0
  8  9  1  0
  8 10  2  0
 10 11  1  0
 10 12  1  0
 12 13  1  0
 12 14  2  0
 14 15  1  0
  2 16  1  0
 16 17  1  0
 17 18  1  0
 17 19  2  0
 19 20  1  0
 20 21  2  3
 21 22  1  0
 22 23  1  0
 22 24  1  0
 22 25  1  0
 20 26  1  0
 26 27  1  0
 27 28  1  0
 14  5  1  0
 27 16  2  0
M  CHG  1  26  -1
M  END
>  <UniqueID>  (38) 
35

>  <SMILES>  (38) 
CN=c1ncc(/C=C\c2ccccc2)c[n-]1

>  <Energy>  (38) 
37.95429035299805

>  <Genealogy>  (38) 
CN=c1ncc(C=Cc2ccccc2)c[n-]1 (protonated)
CN=c1ncc(/C=C\c2ccccc2)c[n-]1 (cis-trans isomerization)
CN=c1ncc(/C=C\c2ccccc2)c[n-]1 (3D coordinates assigned)
CN=c1ncc(/C=C\c2ccccc2)c[n-]1 (optimized conformer: 37.95429035299805 kcal/mol)

>  <smiles>  (38) 
CN=c1ncc(C=Cc2ccccc2)c[nH]1

>  <score_type>  (38) 
oracle

>  <origin>  (38) 
adg

>  <m_score__min__energy>  (38) 
-8.7100000000000009

>  <m_primary>  (38) 
energy

$$$$
38:0
     RDKit          3D

 33 34  0  0  0  0  0  0  0  0999 V2000
   -2.2090   25.2880  -26.9280 C   0  0  0  0  0  0  0  0  0  0  0  0
   -1.9680   23.9820  -27.6340 C   0  0  0  0  0  0  0  0  0  0  0  0
   -1.3840   22.9090  -26.9410 C   0  0  0  0  0  0  0  0  0  0  0  0
   -1.1830   21.6830  -27.5780 C   0  0  0  0  0  0  0  0  0  0  0  0
   -1.5840   21.5070  -28.9030 C   0  0  0  0  0  0  0  0  0  0  0  0
   -2.1750   22.5620  -29.6060 C   0  0  0  0  0  0  0  0  0  0  0  0
   -2.7450   22.2710  -31.2440 Cl  0  0  0  0  0  0  0  0  0  0  0  0
   -2.3470   23.8130  -28.9840 C   0  0  0  0  0  0  0  0  0  0  0  0
   -2.9070   24.9170  -29.7060 N   0  0  0  0  0  0  0  0  0  0  0  0
   -4.2650   24.9730  -30.1670 C   0  0  0  0  0  0  0  0  0  0  0  0
   -4.5300   25.6520  -31.1930 O   0  0  0  0  0  0  0  0  0  0  0  0
   -5.3760   24.2590  -29.4550 C   0  0  0  0  0  0  0  0  0  0  0  0
   -5.7530   23.0910  -30.1790 O   0  0  0  0  0  0  0  0  0  0  0  0
   -6.4930   23.1440  -31.3650 C   0  0  0  0  0  0  0  0  0  0  0  0
   -6.4430   24.1700  -32.0970 O   0  0  0  0  0  0  0  0  0  0  0  0
   -7.3510   22.0010  -31.7480 C   0  0  0  0  0  0  0  0  0  0  0  0
   -6.7960   20.8330  -32.2980 C   0  0  0  0  0  0  0  0  0  0  0  0
   -7.6240   19.7730  -32.6700 C   0  0  0  0  0  0  0  0  0  0  0  0
   -9.0030   19.8840  -32.4870 C   0  0  0  0  0  0  0  0  0  0  0  0
   -9.5280   21.0170  -31.9510 N   0  0  0  0  0  0  0  0  0  0  0  0
   -8.7440   22.0640  -31.5810 C   0  0  0  0  0  0  0  0  0  0  0  0
   -2.1794   25.1277  -25.8402 H   0  0  0  0  0  0  0  0  0  0  0  0
   -1.4287   26.0087  -27.2138 H   0  0  0  0  0  0  0  0  0  0  0  0
   -3.1952   25.6828  -27.2138 H   0  0  0  0  0  0  0  0  0  0  0  0
   -1.0833   23.0353  -25.8905 H   0  0  0  0  0  0  0  0  0  0  0  0
   -0.7073   20.8536  -27.0340 H   0  0  0  0  0  0  0  0  0  0  0  0
   -1.4348   20.5352  -29.3963 H   0  0  0  0  0  0  0  0  0  0  0  0
   -5.0365   23.9696  -28.4495 H   0  0  0  0  0  0  0  0  0  0  0  0
   -6.2440   24.9304  -29.3791 H   0  0  0  0  0  0  0  0  0  0  0  0
   -5.7075   20.7541  -32.4355 H   0  0  0  0  0  0  0  0  0  0  0  0
   -7.1935   18.8583  -33.1035 H   0  0  0  0  0  0  0  0  0  0  0  0
   -9.6649   19.0545  -32.7766 H   0  0  0  0  0  0  0  0  0  0  0  0
   -9.2030   22.9653  -31.1485 H   0  0  0  0  0  0  0  0  0  0  0  0
  1  2  1  0
  2  3  2  0
  3  4  1  0
  4  5  2  0
  5  6  1  0
  6  7  1  0
  6  8  2  0
  8  9  1  0
  9 10  1  0
 10 11  2  0
 10 12  1  0
 12 13  1  0
 13 14  1  0
 14 15  2  0
 14 16  1  0
 16 17  2  0
 17 18  1  0
 18 19  2  0
 19 20  1  0
 20 21  2  0
  8  2  1  0
 21 16  1  0
  1 22  1  0
  1 23  1  0
  1 24  1  0
  3 25  1  0
  4 26  1  0
  5 27  1  0
 12 28  1  0
 12 29  1  0
 17 30  1  0
 18 31  1  0
 19 32  1  0
 21 33  1  0
M  CHG  1   9  -1
M  END
>  <UniqueID>  (39) 
36

>  <SMILES>  (39) 
Cc1cccc(Cl)c1[N-]C(=O)COC(=O)c1cccnc1

>  <Energy>  (39) 
37.484680861815924

>  <Genealogy>  (39) 
Cc1cccc(Cl)c1[N-]C(=O)COC(=O)c1cccnc1 (protonated)
Cc1cccc(Cl)c1[N-]C(=O)COC(=O)c1cccnc1 (3D coordinates assigned)
Cc1cccc(Cl)c1[N-]C(=O)COC(=O)c1cccnc1 (optimized conformer: 37.484680861815924 kcal/mol)

>  <smiles>  (39) 
Cc1cccc(Cl)c1NC(=O)COC(=O)c1cccnc1

>  <score_type>  (39) 
oracle

>  <origin>  (39) 
adg

>  <m_score__min__energy>  (39) 
-8.7200000000000006

>  <m_primary>  (39) 
energy

$$$$
39:0
     RDKit          3D

 20 20  0  0  1  0  0  0  0  0999 V2000
   -3.5290   25.2890  -30.4550 O   0  0  0  0  0  0  0  0  0  0  0  0
   -4.7190   24.8700  -30.5030 C   0  0  0  0  0  0  0  0  0  0  0  0
   -5.6400   25.2950  -29.6260 N   0  0  0  0  0  0  0  0  0  0  0  0
   -6.8860   24.8030  -29.7400 C   0  0  0  0  0  0  0  0  0  0  0  0
   -7.2360   23.8810  -30.7270 C   0  0  0  0  0  0  0  0  0  0  0  0
   -6.2420   23.4670  -31.6190 C   0  0  0  0  0  0  0  0  0  0  0  0
   -6.5030   22.6230  -32.5460 N   0  0  0  0  0  0  0  0  0  0  0  0
   -6.2770   21.1890  -32.3050 C   0  0  0  0  0  0  0  0  0  0  0  0
   -4.9230   20.8670  -32.9280 C   0  0  0  0  0  0  0  0  0  0  0  0
   -4.2350   22.0320  -33.3060 O   0  0  0  0  0  0  0  0  0  0  0  0
   -4.9960   23.9820  -31.4770 N   0  0  0  0  0  0  0  0  0  0  0  0
   -5.3750   25.9750  -28.9020 H   0  0  0  0  0  0  0  0  0  0  0  0
   -7.6564   25.1391  -29.0304 H   0  0  0  0  0  0  0  0  0  0  0  0
   -8.2622   23.4918  -30.8011 H   0  0  0  0  0  0  0  0  0  0  0  0
   -6.2601   20.9808  -31.2250 H   0  0  0  0  0  0  0  0  0  0  0  0
   -7.0783   20.5755  -32.7426 H   0  0  0  0  0  0  0  0  0  0  0  0
   -4.3153   20.3160  -32.1951 H   0  0  0  0  0  0  0  0  0  0  0  0
   -5.0958   20.2625  -33.8307 H   0  0  0  0  0  0  0  0  0  0  0  0
   -4.8500   22.6410  -33.7870 H   0  0  0  0  0  0  0  0  0  0  0  0
   -4.2400   23.6700  -32.1520 H   0  0  0  0  0  0  0  0  0  0  0  0
  1  2  2  0
  2  3  1  0
  3  4  1  0
  4  5  2  0
  5  6  1  0
  6  7  2  0
  7  8  1  0
  8  9  1  0
  9 10  1  0
  6 11  1  0
 11  2  1  0
  3 12  1  0
  4 13  1  0
  5 14  1  0
  8 15  1  0
  8 16  1  0
  9 17  1  0
  9 18  1  0
 10 19  1  0
 11 20  1  0
M  END
>  <smiles>  (40) 
O=c1[nH]ccc(=NCCO)[nH]1

>  <score_type>  (40) 
oracle

>  <origin>  (40) 
adg

>  <m_score__min__energy>  (40) 
-4.7199999999999998

>  <m_primary>  (40) 
energy

$$$$
40:0
     RDKit          3D

 31 32  0  0  0  0  0  0  0  0999 V2000
   -3.1090   20.0100  -33.6340 C   0  0  0  0  0  0  0  0  0  0  0  0
   -3.4650   21.4850  -33.4530 C   0  0  0  0  0  0  0  0  0  0  0  0
   -3.6980   21.8150  -32.0410 N   0  0  0  0  0  0  0  0  0  0  0  0
   -2.5790   21.8390  -31.0890 C   0  0  0  0  0  0  0  0  0  0  0  0
   -3.0820   21.5950  -29.6710 C   0  0  0  0  0  0  0  0  0  0  0  0
   -4.9020   22.5130  -31.6890 C   0  0  0  0  0  0  0  0  0  0  0  0
   -4.8120   23.7800  -31.2060 N   0  0  0  0  0  0  0  0  0  0  0  0
   -5.9160   24.4980  -30.8760 C   0  0  0  0  0  0  0  0  0  0  0  0
   -5.7420   26.0170  -30.2970 S   0  0  0  0  0  0  0  0  0  0  0  0
   -7.1550   23.9560  -31.0280 N   0  0  0  0  0  0  0  0  0  0  0  0
   -7.3080   22.6880  -31.5070 C   0  0  0  0  0  0  0  0  0  0  0  0
   -8.5890   22.1360  -31.6570 C   0  0  0  0  0  0  0  0  0  0  0  0
   -8.7410   20.8330  -32.1380 C   0  0  0  0  0  0  0  0  0  0  0  0
   -7.6180   20.0710  -32.4690 C   0  0  0  0  0  0  0  0  0  0  0  0
   -6.3360   20.6110  -32.3270 C   0  0  0  0  0  0  0  0  0  0  0  0
   -6.1690   21.9240  -31.8510 C   0  0  0  0  0  0  0  0  0  0  0  0
   -2.9948   19.5367  -32.6476 H   0  0  0  0  0  0  0  0  0  0  0  0
   -3.9111   19.5051  -34.1923 H   0  0  0  0  0  0  0  0  0  0  0  0
   -2.1649   19.9265  -34.1923 H   0  0  0  0  0  0  0  0  0  0  0  0
   -2.6364   22.1014  -33.8317 H   0  0  0  0  0  0  0  0  0  0  0  0
   -4.3912   21.6866  -34.0111 H   0  0  0  0  0  0  0  0  0  0  0  0
   -1.8576   21.0533  -31.3578 H   0  0  0  0  0  0  0  0  0  0  0  0
   -2.0960   22.8264  -31.1311 H   0  0  0  0  0  0  0  0  0  0  0  0
   -2.3349   21.9574  -28.9495 H   0  0  0  0  0  0  0  0  0  0  0  0
   -4.0290   22.1338  -29.5201 H   0  0  0  0  0  0  0  0  0  0  0  0
   -3.2450   20.5177  -29.5201 H   0  0  0  0  0  0  0  0  0  0  0  0
   -7.9970   24.5210  -30.7730 H   0  0  0  0  0  0  0  0  0  0  0  0
   -9.4765   22.7308  -31.3951 H   0  0  0  0  0  0  0  0  0  0  0  0
   -9.7478   20.4060  -32.2564 H   0  0  0  0  0  0  0  0  0  0  0  0
   -7.7425   19.0438  -32.8422 H   0  0  0  0  0  0  0  0  0  0  0  0
   -5.4548   20.0067  -32.5885 H   0  0  0  0  0  0  0  0  0  0  0  0
  1  2  1  0
  2  3  1  0
  3  4  1  0
  4  5  1  0
  3  6  1  0
  6  7  2  0
  7  8  1  0
  8  9  2  0
  8 10  1  0
 10 11  1  0
 11 12  2  0
 12 13  1  0
 13 14  2  0
 14 15  1  0
 15 16  2  0
 16  6  1  0
 16 11  1  0
  1 17  1  0
  1 18  1  0
  1 19  1  0
  2 20  1  0
  2 21  1  0
  4 22  1  0
  4 23  1  0
  5 24  1  0
  5 25  1  0
  5 26  1  0
 10 27  1  0
 12 28  1  0
 13 29  1  0
 14 30  1  0
 15 31  1  0
M  END
>  <UniqueID>  (41) 
37

>  <SMILES>  (41) 
CCN(CC)c1nc(=S)[nH]c2ccccc12

>  <Energy>  (41) 
34.571934324412815

>  <Genealogy>  (41) 
CCN(CC)c1nc(=S)[nH]c2ccccc12 (3D coordinates assigned)
CCN(CC)c1nc(=S)[nH]c2ccccc12 (optimized conformer: 34.571934324412815 kcal/mol)

>  <smiles>  (41) 
CCN(CC)c1nc(=S)[nH]c2ccccc12

>  <score_type>  (41) 
oracle

>  <origin>  (41) 
adg

>  <m_score__min__energy>  (41) 
-5.9299999999999997

>  <m_primary>  (41) 
energy

$$$$
41:0
     RDKit          3D

 33 35  0  0  0  0  0  0  0  0999 V2000
   -3.8670   24.1460  -30.8510 O   0  0  0  0  0  0  0  0  0  0  0  0
   -4.2650   23.9270  -29.6840 C   0  0  0  0  0  0  0  0  0  0  0  0
   -5.4470   23.2100  -29.4610 N   0  0  0  0  0  0  0  0  0  0  0  0
   -6.3100   22.6630  -30.4220 C   0  0  0  0  0  0  0  0  0  0  0  0
   -7.5990   23.0340  -30.6610 C   0  0  0  0  0  0  0  0  0  0  0  0
   -8.3990   22.4360  -31.6430 C   0  0  0  0  0  0  0  0  0  0  0  0
   -7.9020   21.4200  -32.4290 C   0  0  0  0  0  0  0  0  0  0  0  0
   -6.6000   21.0330  -32.2000 C   0  0  0  0  0  0  0  0  0  0  0  0
   -6.0440   19.9640  -33.0120 C   0  0  0  0  0  0  0  0  0  0  0  0
   -4.9870   19.1770  -32.7260 N   0  0  0  0  0  0  0  0  0  0  0  0
   -4.7880   18.3090  -33.7330 C   0  0  0  0  0  0  0  0  0  0  0  0
   -5.7450   18.5460  -34.6900 C   0  0  0  0  0  0  0  0  0  0  0  0
   -6.4890   19.5560  -34.2190 N   0  0  0  0  0  0  0  0  0  0  0  0
   -5.8220   21.6250  -31.2340 C   0  0  0  0  0  0  0  0  0  0  0  0
   -3.4190   24.4650  -28.6040 C   0  0  0  0  0  0  0  0  0  0  0  0
   -2.1400   24.9050  -28.8060 C   0  0  0  0  0  0  0  0  0  0  0  0
   -1.3530   25.4120  -27.7740 C   0  0  0  0  0  0  0  0  0  0  0  0
   -1.8520   25.4850  -26.4970 C   0  0  0  0  0  0  0  0  0  0  0  0
   -0.8920   26.1170  -25.1690 Cl  0  0  0  0  0  0  0  0  0  0  0  0
   -3.1390   25.0480  -26.2620 C   0  0  0  0  0  0  0  0  0  0  0  0
   -3.9010   24.5510  -27.2980 C   0  0  0  0  0  0  0  0  0  0  0  0
   -5.7120   23.0680  -28.4400 H   0  0  0  0  0  0  0  0  0  0  0  0
   -8.0323   23.8421  -30.0535 H   0  0  0  0  0  0  0  0  0  0  0  0
   -9.4335   22.7809  -31.7878 H   0  0  0  0  0  0  0  0  0  0  0  0
   -8.5168   20.9395  -33.2043 H   0  0  0  0  0  0  0  0  0  0  0  0
   -3.9987   17.5444  -33.7822 H   0  0  0  0  0  0  0  0  0  0  0  0
   -5.8738   18.0161  -35.6453 H   0  0  0  0  0  0  0  0  0  0  0  0
   -7.2990   19.9450  -34.7530 H   0  0  0  0  0  0  0  0  0  0  0  0
   -4.7883   21.2765  -31.0925 H   0  0  0  0  0  0  0  0  0  0  0  0
   -1.7171   24.8569  -29.8203 H   0  0  0  0  0  0  0  0  0  0  0  0
   -0.3289   25.7548  -27.9830 H   0  0  0  0  0  0  0  0  0  0  0  0
   -3.5582   25.0961  -25.2461 H   0  0  0  0  0  0  0  0  0  0  0  0
   -4.9254   24.2102  -27.0871 H   0  0  0  0  0  0  0  0  0  0  0  0
  1  2  2  0
  2  3  1  0
  3  4  1  0
  4  5  2  0
  5  6  1  0
  6  7  2  0
  7  8  1  0
  8  9  1  0
  9 10  2  0
 10 11  1  0
 11 12  2  0
 12 13  1  0
  8 14  2  0
  2 15  1  0
 15 16  2  0
 16 17  1  0
 17 18  2  0
 18 19  1  0
 18 20  1  0
 20 21  2  0
 14  4  1  0
 21 15  1  0
 13  9  1  0
  3 22  1  0
  5 23  1  0
  6 24  1  0
  7 25  1  0
 11 26  1  0
 12 27  1  0
 13 28  1  0
 14 29  1  0
 16 30  1  0
 17 31  1  0
 20 32  1  0
 21 33  1  0
M  END
>  <smiles>  (42) 
O=C(Nc1cccc(-c2ncc[nH]2)c1)c1ccc(Cl)cc1

>  <score_type>  (42) 
oracle

>  <origin>  (42) 
adg

>  <m_score__min__energy>  (42) 
-7.96

>  <m_primary>  (42) 
energy

$$$$
42:0
     RDKit          3D

 24 26  0  0  0  0  0  0  0  0999 V2000
    0.0660   22.1210  -28.4950 O   0  0  0  0  0  0  0  0  0  0  0  0
   -0.6900   23.1100  -28.6930 C   0  0  0  0  0  0  0  0  0  0  0  0
   -1.8860   22.9590  -29.4160 C   0  0  0  0  0  0  0  0  0  0  0  0
   -2.7360   24.0790  -29.6380 C   0  0  0  0  0  0  0  0  0  0  0  0
   -4.0230   23.9830  -30.3990 C   0  0  0  0  0  0  0  0  0  0  0  0
   -5.0510   24.9180  -30.1450 C   0  0  0  0  0  0  0  0  0  0  0  0
   -6.2640   24.8590  -30.8370 C   0  0  0  0  0  0  0  0  0  0  0  0
   -6.4770   23.8690  -31.7940 C   0  0  0  0  0  0  0  0  0  0  0  0
   -5.4770   22.9350  -32.0620 C   0  0  0  0  0  0  0  0  0  0  0  0
   -4.2600   22.9870  -31.3760 C   0  0  0  0  0  0  0  0  0  0  0  0
   -2.3630   25.2960  -29.1340 N   0  0  0  0  0  0  0  0  0  0  0  0
   -1.2090   25.4330  -28.4380 C   0  0  0  0  0  0  0  0  0  0  0  0
   -0.6050   26.8400  -27.7560 S   0  0  0  0  0  0  0  0  0  0  0  0
    0.7810   26.0870  -27.1390 C   0  0  0  0  0  0  0  0  0  0  0  0
    2.0330   26.9020  -26.2270 Cl  0  0  0  0  0  0  0  0  0  0  0  0
    0.7760   24.7320  -27.4650 C   0  0  0  0  0  0  0  0  0  0  0  0
   -0.3590   24.3730  -28.2020 C   0  0  0  0  0  0  0  0  0  0  0  0
   -2.1661   21.9716  -29.8117 H   0  0  0  0  0  0  0  0  0  0  0  0
   -4.8946   25.7040  -29.3916 H   0  0  0  0  0  0  0  0  0  0  0  0
   -7.0526   25.5962  -30.6255 H   0  0  0  0  0  0  0  0  0  0  0  0
   -7.4325   23.8243  -32.3372 H   0  0  0  0  0  0  0  0  0  0  0  0
   -5.6465   22.1532  -32.8171 H   0  0  0  0  0  0  0  0  0  0  0  0
   -3.4782   22.2457  -31.5980 H   0  0  0  0  0  0  0  0  0  0  0  0
    1.5703   24.0275  -27.1772 H   0  0  0  0  0  0  0  0  0  0  0  0
  1  2  2  0
  2  3  1  0
  3  4  2  0
  4  5  1  0
  5  6  2  0
  6  7  1  0
  7  8  2  0
  8  9  1  0
  9 10  2  0
  4 11  1  0
 11 12  1  0
 12 13  1  0
 13 14  1  0
 14 15  1  0
 14 16  2  0
 16 17  1  0
 17  2  1  0
 10  5  1  0
 17 12  2  0
  3 18  1  0
  6 19  1  0
  7 20  1  0
  8 21  1  0
  9 22  1  0
 10 23  1  0
 16 24  1  0
M  CHG  1  11  -1
M  END
>  <UniqueID>  (43) 
38

>  <SMILES>  (43) 
O=c1cc(-c2ccccc2)[n-]c2sc(Cl)cc12

>  <Energy>  (43) 
65.35081225517683

>  <Genealogy>  (43) 
O=c1cc(-c2ccccc2)[n-]c2sc(Cl)cc12 (protonated)
O=c1cc(-c2ccccc2)[n-]c2sc(Cl)cc12 (3D coordinates assigned)
O=c1cc(-c2ccccc2)[n-]c2sc(Cl)cc12 (optimized conformer: 65.35081225517683 kcal/mol)

>  <smiles>  (43) 
O=c1cc(-c2ccccc2)[nH]c2sc(Cl)cc12

>  <score_type>  (43) 
oracle

>  <origin>  (43) 
adg

>  <m_score__min__energy>  (43) 
-7.46

>  <m_primary>  (43) 
energy

$$$$
43:0
     RDKit          3D

 28 30  0  0  0  0  0  0  0  0999 V2000
   -7.9750   18.5260  -31.2370 C   0  0  0  0  0  0  0  0  0  0  0  0
   -7.1590   18.2640  -32.4750 C   0  0  0  0  0  0  0  0  0  0  0  0
   -7.2400   17.0050  -33.0920 C   0  0  0  0  0  0  0  0  0  0  0  0
   -6.4760   16.7200  -34.2250 C   0  0  0  0  0  0  0  0  0  0  0  0
   -5.6250   17.6900  -34.7570 C   0  0  0  0  0  0  0  0  0  0  0  0
   -5.5470   18.9520  -34.1650 C   0  0  0  0  0  0  0  0  0  0  0  0
   -6.3240   19.2590  -33.0380 C   0  0  0  0  0  0  0  0  0  0  0  0
   -6.2370   20.5720  -32.4700 N   0  0  0  0  0  0  0  0  0  0  0  0
   -7.5370   21.5110  -32.0070 S   0  0  0  0  0  0  0  0  0  0  0  0
   -6.6820   22.8110  -31.4020 C   0  0  0  0  0  0  0  0  0  0  0  0
   -7.1360   23.9960  -30.8350 C   0  0  0  0  0  0  0  0  0  0  0  0
   -6.1760   24.9200  -30.3940 C   0  0  0  0  0  0  0  0  0  0  0  0
   -4.7990   24.6390  -30.5260 C   0  0  0  0  0  0  0  0  0  0  0  0
   -3.8840   25.5410  -30.0940 F   0  0  0  0  0  0  0  0  0  0  0  0
   -4.3700   23.4280  -31.1010 C   0  0  0  0  0  0  0  0  0  0  0  0
   -5.3320   22.5140  -31.5420 C   0  0  0  0  0  0  0  0  0  0  0  0
   -5.1060   21.2540  -32.1320 C   0  0  0  0  0  0  0  0  0  0  0  0
   -3.9520   20.7790  -32.3120 O   0  0  0  0  0  0  0  0  0  0  0  0
   -7.3618   18.3291  -30.3452 H   0  0  0  0  0  0  0  0  0  0  0  0
   -8.3051   19.5753  -31.2307 H   0  0  0  0  0  0  0  0  0  0  0  0
   -8.8542   17.8650  -31.2307 H   0  0  0  0  0  0  0  0  0  0  0  0
   -7.9109   16.2373  -32.6791 H   0  0  0  0  0  0  0  0  0  0  0  0
   -6.5447   15.7298  -34.6991 H   0  0  0  0  0  0  0  0  0  0  0  0
   -5.0154   17.4600  -35.6433 H   0  0  0  0  0  0  0  0  0  0  0  0
   -4.8712   19.7113  -34.5854 H   0  0  0  0  0  0  0  0  0  0  0  0
   -8.2118   24.2027  -30.7352 H   0  0  0  0  0  0  0  0  0  0  0  0
   -6.4989   25.8696  -29.9424 H   0  0  0  0  0  0  0  0  0  0  0  0
   -3.2976   23.2047  -31.2016 H   0  0  0  0  0  0  0  0  0  0  0  0
  1  2  1  0
  2  3  2  0
  3  4  1  0
  4  5  2  0
  5  6  1  0
  6  7  2  0
  7  8  1  0
  8  9  1  0
  9 10  1  0
 10 11  2  0
 11 12  1  0
 12 13  2  0
 13 14  1  0
 13 15  1  0
 15 16  2  0
 16 17  1  0
 17 18  2  0
  7  2  1  0
 17  8  1  0
 16 10  1  0
  1 19  1  0
  1 20  1  0
  1 21  1  0
  3 22  1  0
  4 23  1  0
  5 24  1  0
  6 25  1  0
 11 26  1  0
 12 27  1  0
 15 28  1  0
M  END
>  <UniqueID>  (44) 
39

>  <SMILES>  (44) 
Cc1ccccc1-n1sc2ccc(F)cc2c1=O

>  <Energy>  (44) 
77.48065774585253

>  <Genealogy>  (44) 
Cc1ccccc1-n1sc2ccc(F)cc2c1=O (3D coordinates assigned)
Cc1ccccc1-n1sc2ccc(F)cc2c1=O (optimized conformer: 77.48065774585253 kcal/mol)

>  <smiles>  (44) 
Cc1ccccc1-n1sc2ccc(F)cc2c1=O

>  <score_type>  (44) 
oracle

>  <origin>  (44) 
adg

>  <m_score__min__energy>  (44) 
-7.6200000000000001

>  <m_primary>  (44) 
energy

$$$$
44:0
     RDKit          3D

 39 42  0  0  0  0  0  0  0  0999 V2000
   -8.4380   23.3700  -31.9480 O   0  0  0  0  0  0  0  0  0  0  0  0
   -7.3930   22.6680  -31.8810 C   0  0  0  0  0  0  0  0  0  0  0  0
   -6.1680   23.2730  -31.3260 C   0  0  0  0  0  0  0  0  0  0  0  0
   -5.7930   24.6130  -31.3850 C   0  0  0  0  0  0  0  0  0  0  0  0
   -4.5820   24.8920  -30.8330 N   0  0  0  0  0  0  0  0  0  0  0  0
   -3.9730   23.7900  -30.3370 C   0  0  0  0  0  0  0  0  0  0  0  0
   -2.6430   23.8160  -29.6850 C   0  0  0  0  0  0  0  0  0  0  0  0
   -1.7380   22.7550  -29.8830 C   0  0  0  0  0  0  0  0  0  0  0  0
   -0.4810   22.7730  -29.2710 C   0  0  0  0  0  0  0  0  0  0  0  0
   -0.1130   23.8460  -28.4560 C   0  0  0  0  0  0  0  0  0  0  0  0
   -1.0020   24.9040  -28.2520 C   0  0  0  0  0  0  0  0  0  0  0  0
   -2.2600   24.8910  -28.8620 C   0  0  0  0  0  0  0  0  0  0  0  0
   -4.9250   22.4200  -30.5800 S   0  0  0  0  0  0  0  0  0  0  0  0
   -7.4280   21.3010  -32.3390 N   0  0  0  0  0  0  0  0  0  0  0  0
   -8.6020   20.4570  -32.0750 C   0  0  0  0  0  0  0  0  0  0  0  0
   -8.1600   19.0670  -31.6290 C   0  0  0  0  0  0  0  0  0  0  0  0
   -7.2410   18.4720  -32.6560 C   0  0  0  0  0  0  0  0  0  0  0  0
   -7.2390   17.0860  -32.8840 C   0  0  0  0  0  0  0  0  0  0  0  0
   -6.3670   16.5300  -33.8240 C   0  0  0  0  0  0  0  0  0  0  0  0
   -5.4840   17.3490  -34.5290 C   0  0  0  0  0  0  0  0  0  0  0  0
   -5.4680   18.7270  -34.2960 C   0  0  0  0  0  0  0  0  0  0  0  0
   -6.3460   19.3000  -33.3630 C   0  0  0  0  0  0  0  0  0  0  0  0
   -6.2690   20.7850  -33.0870 C   0  0  0  0  0  0  0  0  0  0  0  0
   -6.4276   25.3861  -31.8429 H   0  0  0  0  0  0  0  0  0  0  0  0
   -2.0220   21.9068  -30.5232 H   0  0  0  0  0  0  0  0  0  0  0  0
    0.2196   21.9404  -29.4317 H   0  0  0  0  0  0  0  0  0  0  0  0
    0.8762   23.8579  -27.9751 H   0  0  0  0  0  0  0  0  0  0  0  0
   -0.7118   25.7489  -27.6102 H   0  0  0  0  0  0  0  0  0  0  0  0
   -2.9553   25.7273  -28.6973 H   0  0  0  0  0  0  0  0  0  0  0  0
   -9.2098   20.9172  -31.2820 H   0  0  0  0  0  0  0  0  0  0  0  0
   -9.1949   20.3671  -32.9972 H   0  0  0  0  0  0  0  0  0  0  0  0
   -7.6323   19.1428  -30.6668 H   0  0  0  0  0  0  0  0  0  0  0  0
   -9.0447   18.4231  -31.5166 H   0  0  0  0  0  0  0  0  0  0  0  0
   -7.9256   16.4365  -32.3212 H   0  0  0  0  0  0  0  0  0  0  0  0
   -6.3767   15.4456  -34.0084 H   0  0  0  0  0  0  0  0  0  0  0  0
   -4.7994   16.9093  -35.2693 H   0  0  0  0  0  0  0  0  0  0  0  0
   -4.7629   19.3664  -34.8473 H   0  0  0  0  0  0  0  0  0  0  0  0
   -5.3592   20.9843  -32.5017 H   0  0  0  0  0  0  0  0  0  0  0  0
   -6.2567   21.2964  -34.0608 H   0  0  0  0  0  0  0  0  0  0  0  0
  1  2  2  0
  2  3  1  0
  3  4  2  0
  4  5  1  0
  5  6  2  0
  6  7  1  0
  7  8  2  0
  8  9  1  0
  9 10  2  0
 10 11  1  0
 11 12  2  0
  6 13  1  0
  2 14  1  0
 14 15  1  0
 15 16  1  0
 16 17  1  0
 17 18  2  0
 18 19  1  0
 19 20  2  0
 20 21  1  0
 21 22  2  0
 22 23  1  0
 13  3  1  0
 23 14  1  0
 12  7  1  0
 22 17  1  0
  4 24  1  0
  8 25  1  0
  9 26  1  0
 10 27  1  0
 11 28  1  0
 12 29  1  0
 15 30  1  0
 15 31  1  0
 16 32  1  0
 16 33  1  0
 18 34  1  0
 19 35  1  0
 20 36  1  0
 21 37  1  0
 23 38  1  0
 23 39  1  0
M  END
>  <UniqueID>  (45) 
40

>  <SMILES>  (45) 
O=C(c1cnc(-c2ccccc2)s1)N1CCc2ccccc2C1

>  <Energy>  (45) 
79.39442292053714

>  <Genealogy>  (45) 
O=C(c1cnc(-c2ccccc2)s1)N1CCc2ccccc2C1 (3D coordinates assigned)
O=C(c1cnc(-c2ccccc2)s1)N1CCc2ccccc2C1 (nonaromatic ring conformer: 79.39442292053714 kcal/mol)

>  <smiles>  (45) 
O=C(c1cnc(-c2ccccc2)s1)N1CCc2ccccc2C1

>  <score_type>  (45) 
oracle

>  <origin>  (45) 
adg

>  <m_score__min__energy>  (45) 
-9.4700000000000006

>  <m_primary>  (45) 
energy

$$$$
45:0
     RDKit          3D

 43 45  0  0  0  0  0  0  0  0999 V2000
   -3.8610   24.5870  -30.8430 O   0  0  0  0  0  0  0  0  0  0  0  0
   -4.7920   23.8230  -30.4640 C   0  0  0  0  0  0  0  0  0  0  0  0
   -4.4900   22.6260  -29.8020 O   0  0  0  0  0  0  0  0  0  0  0  0
   -3.2530   21.9390  -29.9620 C   0  0  0  0  0  0  0  0  0  0  0  0
   -3.1410   21.4220  -31.3600 C   0  0  0  0  0  0  0  0  0  0  0  0
   -1.9640   21.2430  -32.0590 C   0  0  0  0  0  0  0  0  0  0  0  0
   -2.3400   20.7990  -33.3090 C   0  0  0  0  0  0  0  0  0  0  0  0
   -3.7200   20.7420  -33.2950 C   0  0  0  0  0  0  0  0  0  0  0  0
   -4.1690   21.1230  -32.1200 O   0  0  0  0  0  0  0  0  0  0  0  0
   -6.2300   24.1850  -30.7710 C   0  0  1  0  0  0  0  0  0  0  0  0
   -6.6130   23.8570  -32.2280 C   0  0  0  0  0  0  0  0  0  0  0  0
   -6.6570   22.3340  -32.5030 C   0  0  0  0  0  0  0  0  0  0  0  0
   -6.9390   21.5320  -31.2880 N   0  0  2  0  0  0  0  0  0  0  0  0
   -7.3830   20.1950  -31.6470 C   0  0  0  0  0  0  0  0  0  0  0  0
   -8.5080   19.8020  -31.2330 O   0  0  0  0  0  0  0  0  0  0  0  0
   -6.5880   19.2560  -32.4820 C   0  0  0  0  0  0  0  0  0  0  0  0
   -6.5010   19.3930  -33.8810 C   0  0  0  0  0  0  0  0  0  0  0  0
   -5.7180   18.5100  -34.6300 C   0  0  0  0  0  0  0  0  0  0  0  0
   -5.0080   17.4860  -33.9930 C   0  0  0  0  0  0  0  0  0  0  0  0
   -4.0250   16.3810  -34.9360 Cl  0  0  0  0  0  0  0  0  0  0  0  0
   -5.0750   17.3530  -32.6040 C   0  0  0  0  0  0  0  0  0  0  0  0
   -5.8540   18.2370  -31.8520 C   0  0  0  0  0  0  0  0  0  0  0  0
   -7.8590   22.2200  -30.3570 C   0  0  0  0  0  0  0  0  0  0  0  0
   -7.2210   23.5060  -29.7870 C   0  0  0  0  0  0  0  0  0  0  0  0
   -2.4218   22.6307  -29.7603 H   0  0  0  0  0  0  0  0  0  0  0  0
   -3.2110   21.0955  -29.2572 H   0  0  0  0  0  0  0  0  0  0  0  0
   -0.9408   21.4179  -31.6950 H   0  0  0  0  0  0  0  0  0  0  0  0
   -1.6757   20.5422  -34.1473 H   0  0  0  0  0  0  0  0  0  0  0  0
   -4.3487   20.4253  -34.1402 H   0  0  0  0  0  0  0  0  0  0  0  0
   -6.3072   25.2742  -30.6379 H   0  0  0  0  0  0  0  0  0  0  0  0
   -5.8713   24.3150  -32.8990 H   0  0  0  0  0  0  0  0  0  0  0  0
   -7.6221   24.2572  -32.4056 H   0  0  0  0  0  0  0  0  0  0  0  0
   -5.6832   22.0233  -32.9095 H   0  0  0  0  0  0  0  0  0  0  0  0
   -7.4766   22.1523  -33.2138 H   0  0  0  0  0  0  0  0  0  0  0  0
   -6.0340   21.4020  -30.7740 H   0  0  0  0  0  0  0  0  0  0  0  0
   -7.0522   20.1993  -34.3870 H   0  0  0  0  0  0  0  0  0  0  0  0
   -5.6597   18.6203  -35.7229 H   0  0  0  0  0  0  0  0  0  0  0  0
   -4.5139   16.5514  -32.1013 H   0  0  0  0  0  0  0  0  0  0  0  0
   -5.8927   18.1340  -30.7575 H   0  0  0  0  0  0  0  0  0  0  0  0
   -8.1016   21.5414  -29.5259 H   0  0  0  0  0  0  0  0  0  0  0  0
   -8.7684   22.4986  -30.9095 H   0  0  0  0  0  0  0  0  0  0  0  0
   -6.6777   23.2482  -28.8660 H   0  0  0  0  0  0  0  0  0  0  0  0
   -8.0364   24.2201  -29.5994 H   0  0  0  0  0  0  0  0  0  0  0  0
  1  2  2  0
  2  3  1  0
  3  4  1  0
  4  5  1  0
  5  6  2  0
  6  7  1  0
  7  8  2  0
  8  9  1  0
  2 10  1  0
 10 11  1  0
 11 12  1  0
 12 13  1  0
 13 14  1  0
 14 15  2  0
 14 16  1  0
 16 17  2  0
 17 18  1  0
 18 19  2  0
 19 20  1  0
 19 21  1  0
 21 22  2  0
 13 23  1  0
 23 24  1  0
  9  5  1  0
 24 10  1  0
 22 16  1  0
  4 25  1  0
  4 26  1  0
  6 27  1  0
  7 28  1  0
  8 29  1  0
 10 30  1  6
 11 31  1  0
 11 32  1  0
 12 33  1  0
 12 34  1  0
 13 35  1  1
 17 36  1  0
 18 37  1  0
 21 38  1  0
 22 39  1  0
 23 40  1  0
 23 41  1  0
 24 42  1  0
 24 43  1  0
M  CHG  1  13   1
M  END
>  <UniqueID>  (46) 
41

>  <SMILES>  (46) 
O=C(OCc1ccco1)C1CC[NH+](C(=O)c2ccc(Cl)cc2)CC1

>  <Energy>  (46) 
82.7518551953227

>  <Genealogy>  (46) 
O=C(OCc1ccco1)C1CC[NH+](C(=O)c2ccc(Cl)cc2)CC1 (protonated)
O=C(OCc1ccco1)C1CC[NH+](C(=O)c2ccc(Cl)cc2)CC1 (3D coordinates assigned)
O=C(OCc1ccco1)C1CC[NH+](C(=O)c2ccc(Cl)cc2)CC1 (nonaromatic ring conformer: 82.7518551953227 kcal/mol)

>  <smiles>  (46) 
O=C(OCc1ccco1)C1CCN(C(=O)c2ccc(Cl)cc2)CC1

>  <score_type>  (46) 
oracle

>  <origin>  (46) 
adg

>  <m_score__min__energy>  (46) 
-6.7199999999999998

>  <m_primary>  (46) 
energy

$$$$
46:0
     RDKit          3D

 40 43  0  0  0  0  0  0  0  0999 V2000
   -8.2272   18.2571  -31.7031 H   0  0  0  0  0  0  0  0  0  0  0  0
   -7.3550   18.4090  -32.3560 C   0  0  0  0  0  0  0  0  0  0  0  0
   -7.2040   17.6500  -33.4740 N   0  0  0  0  0  0  0  0  0  0  0  0
   -6.1400   17.8090  -34.3050 C   0  0  0  0  0  0  0  0  0  0  0  0
   -6.0452   17.1799  -35.2024 H   0  0  0  0  0  0  0  0  0  0  0  0
   -5.1670   18.7700  -34.0210 C   0  0  0  0  0  0  0  0  0  0  0  0
   -4.3024   18.8970  -34.6891 H   0  0  0  0  0  0  0  0  0  0  0  0
   -5.3000   19.5720  -32.8780 C   0  0  0  0  0  0  0  0  0  0  0  0
   -4.2400   20.5870  -32.5260 C   0  0  0  0  0  0  0  0  0  0  0  0
   -3.2694   20.2335  -32.9041 H   0  0  0  0  0  0  0  0  0  0  0  0
   -4.2225   20.6968  -31.4316 H   0  0  0  0  0  0  0  0  0  0  0  0
   -4.5280   21.9060  -33.1130 N   0  0  0  0  0  0  0  0  0  0  0  0
   -3.6240   22.4040  -33.2840 H   0  0  0  0  0  0  0  0  0  0  0  0
   -4.9970   21.7880  -34.0420 H   0  0  0  0  0  0  0  0  0  0  0  0
   -5.3470   22.7080  -32.2350 C   0  0  0  0  0  0  0  0  0  0  0  0
   -6.7580   22.6690  -32.3070 C   0  0  0  0  0  0  0  0  0  0  0  0
   -7.2486   22.0412  -33.0654 H   0  0  0  0  0  0  0  0  0  0  0  0
   -7.5410   23.4280  -31.4150 C   0  0  0  0  0  0  0  0  0  0  0  0
   -8.6388   23.3977  -31.4784 H   0  0  0  0  0  0  0  0  0  0  0  0
   -6.9110   24.2230  -30.4450 C   0  0  0  0  0  0  0  0  0  0  0  0
   -7.4993   24.8257  -29.7374 H   0  0  0  0  0  0  0  0  0  0  0  0
   -5.5560   24.2260  -30.4060 N   0  0  0  0  0  0  0  0  0  0  0  0
   -4.7860   24.8920  -29.5680 N   0  0  0  0  0  0  0  0  0  0  0  0
   -3.5280   24.5470  -29.9280 C   0  0  0  0  0  0  0  0  0  0  0  0
   -2.4800   25.0360  -29.3350 N   0  0  0  0  0  0  0  0  0  0  0  0
   -1.8980   24.5700  -28.1050 C   0  0  0  0  0  0  0  0  0  0  0  0
   -1.2370   23.3340  -28.1010 C   0  0  0  0  0  0  0  0  0  0  0  0
   -1.1924   22.7357  -29.0230 H   0  0  0  0  0  0  0  0  0  0  0  0
   -0.6340   22.8560  -26.9340 C   0  0  0  0  0  0  0  0  0  0  0  0
   -0.1324   21.8770  -26.9358 H   0  0  0  0  0  0  0  0  0  0  0  0
   -0.6680   23.6210  -25.7650 C   0  0  0  0  0  0  0  0  0  0  0  0
   -0.1998   23.2409  -24.8450 H   0  0  0  0  0  0  0  0  0  0  0  0
   -1.2970   24.8690  -25.7650 C   0  0  0  0  0  0  0  0  0  0  0  0
   -1.3164   25.4741  -24.8466 H   0  0  0  0  0  0  0  0  0  0  0  0
   -1.9020   25.3500  -26.9310 C   0  0  0  0  0  0  0  0  0  0  0  0
   -2.3822   26.3397  -26.9316 H   0  0  0  0  0  0  0  0  0  0  0  0
   -3.4760   23.6910  -30.9840 N   0  0  0  0  0  0  0  0  0  0  0  0
   -4.7860   23.5180  -31.2400 C   0  0  0  0  0  0  0  0  0  0  0  0
   -6.4050   19.3810  -32.0350 C   0  0  0  0  0  0  0  0  0  0  0  0
   -6.5223   19.9922  -31.1280 H   0  0  0  0  0  0  0  0  0  0  0  0
  1  2  1  0
  2  3  2  0
  3  4  1  0
  4  5  1  0
  4  6  2  0
  6  7  1  0
  6  8  1  0
  8  9  1  0
  9 10  1  0
  9 11  1  0
  9 12  1  0
 12 13  1  0
 12 14  1  0
 12 15  1  0
 15 16  2  0
 16 17  1  0
 16 18  1  0
 18 19  1  0
 18 20  2  0
 20 21  1  0
 20 22  1  0
 22 23  1  0
 23 24  1  0
 24 25  2  0
 25 26  1  0
 26 27  2  0
 27 28  1  0
 27 29  1  0
 29 30  1  0
 29 31  2  0
 31 32  1  0
 31 33  1  0
 33 34  1  0
 33 35  2  0
 35 36  1  0
 24 37  1  0
 37 38  2  0
  8 39  2  0
 39 40  1  0
 39  2  1  0
 38 15  1  0
 38 22  1  0
 35 26  1  0
M  CHG  2  12   1  23  -1
M  END
>  <UniqueID>  (47) 
42

>  <SMILES>  (47) 
c1ccc(/N=c2\nc3c([NH2+]Cc4ccncc4)cccn3[n-]2)cc1

>  <Energy>  (47) 
89.37320201011846

>  <Genealogy>  (47) 
c1ccc(N=c2nc3c([NH2+]Cc4ccncc4)cccn3[n-]2)cc1 (protonated)
c1ccc(/N=c2\nc3c([NH2+]Cc4ccncc4)cccn3[n-]2)cc1 (cis-trans isomerization)
c1ccc(/N=c2\nc3c([NH2+]Cc4ccncc4)cccn3[n-]2)cc1 (3D coordinates assigned)
c1ccc(/N=c2\nc3c([NH2+]Cc4ccncc4)cccn3[n-]2)cc1 (optimized conformer: 89.37320201011846 kcal/mol)

>  <smiles>  (47) 
c1ccc(N=c2nc3c(NCc4ccncc4)cccn3[nH]2)cc1

>  <score_type>  (47) 
oracle

>  <origin>  (47) 
adg

>  <m_score__min__energy>  (47) 
-8.5099999999999998

>  <m_primary>  (47) 
energy

$$$$
