0:0
     RDKit          3D

 43 44  0  0  0  0  0  0  0  0999 V2000
   -9.0430   20.4560  -31.9830 C   0  0  0  0  0  0  0  0  0  0  0  0
   -8.8430   21.9780  -31.9390 C   0  0  0  0  0  0  0  0  0  0  0  0
   -7.4650   22.4140  -32.2520 N   0  0  0  0  0  0  0  0  0  0  0  0
   -6.4430   21.3860  -31.9630 C   0  0  0  0  0  0  0  0  0  0  0  0
   -5.0360   21.9640  -32.1660 C   0  0  0  0  0  0  0  0  0  0  0  0
   -4.7690   23.1450  -31.3010 N   0  0  0  0  0  0  0  0  0  0  0  0
   -3.7680   22.8750  -30.2400 C   0  0  0  0  0  0  0  0  0  0  0  0
   -3.3000   24.1800  -29.5620 C   0  0  2  0  0  0  0  0  0  0  0  0
   -3.4930   25.2800  -30.4150 O   0  0  0  0  0  0  0  0  0  0  0  0
   -1.8480   24.1090  -29.0540 C   0  0  0  0  0  0  0  0  0  0  0  0
   -1.7190   24.8060  -27.7740 N   0  0  0  0  0  0  0  0  0  0  0  0
   -2.7840   24.9200  -26.7940 C   0  0  0  0  0  0  0  0  0  0  0  0
   -2.1950   25.7240  -25.6180 C   0  0  0  0  0  0  0  0  0  0  0  0
   -0.6860   25.8690  -25.8740 C   0  0  0  0  0  0  0  0  0  0  0  0
   -0.5160   25.3150  -27.2310 C   0  0  0  0  0  0  0  0  0  0  0  0
    0.5890   25.2670  -27.8340 O   0  0  0  0  0  0  0  0  0  0  0  0
   -5.9920   23.7650  -30.7410 C   0  0  0  0  0  0  0  0  0  0  0  0
   -7.1310   23.7760  -31.7690 C   0  0  0  0  0  0  0  0  0  0  0  0
   -9.0946   20.0632  -30.9568 H   0  0  0  0  0  0  0  0  0  0  0  0
   -9.9793   20.2244  -32.5118 H   0  0  0  0  0  0  0  0  0  0  0  0
   -8.1983   19.9903  -32.5118 H   0  0  0  0  0  0  0  0  0  0  0  0
   -9.5253   22.4376  -32.6693 H   0  0  0  0  0  0  0  0  0  0  0  0
   -9.0501   22.2960  -30.9065 H   0  0  0  0  0  0  0  0  0  0  0  0
   -6.5506   21.0498  -30.9212 H   0  0  0  0  0  0  0  0  0  0  0  0
   -6.5843   20.5375  -32.6486 H   0  0  0  0  0  0  0  0  0  0  0  0
   -4.2977   21.1828  -31.9323 H   0  0  0  0  0  0  0  0  0  0  0  0
   -4.9611   22.2953  -33.2123 H   0  0  0  0  0  0  0  0  0  0  0  0
   -4.2192   22.2192  -29.4808 H   0  0  0  0  0  0  0  0  0  0  0  0
   -2.8944   22.3929  -30.7029 H   0  0  0  0  0  0  0  0  0  0  0  0
   -3.9267   24.3159  -28.6682 H   0  0  0  0  0  0  0  0  0  0  0  0
   -3.5140   24.9400  -31.3470 H   0  0  0  0  0  0  0  0  0  0  0  0
   -1.5613   23.0551  -28.9230 H   0  0  0  0  0  0  0  0  0  0  0  0
   -1.1891   24.5921  -29.7905 H   0  0  0  0  0  0  0  0  0  0  0  0
   -3.6457   25.4501  -27.2259 H   0  0  0  0  0  0  0  0  0  0  0  0
   -3.1393   23.9312  -26.4682 H   0  0  0  0  0  0  0  0  0  0  0  0
   -2.6655   26.7170  -25.5678 H   0  0  0  0  0  0  0  0  0  0  0  0
   -2.3805   25.2102  -24.6632 H   0  0  0  0  0  0  0  0  0  0  0  0
   -0.3802   26.9250  -25.8386 H   0  0  0  0  0  0  0  0  0  0  0  0
   -0.0707   25.3562  -25.1200 H   0  0  0  0  0  0  0  0  0  0  0  0
   -6.3118   23.1928  -29.8577 H   0  0  0  0  0  0  0  0  0  0  0  0
   -5.7605   24.8050  -30.4674 H   0  0  0  0  0  0  0  0  0  0  0  0
   -8.0250   24.2151  -31.3021 H   0  0  0  0  0  0  0  0  0  0  0  0
   -6.7984   24.3683  -32.6342 H   0  0  0  0  0  0  0  0  0  0  0  0
  1  2  1  0
  2  3  1  0
  3  4  1  0
  4  5  1  0
  5  6  1  0
  6  7  1  0
  7  8  1  0
  8  9  1  0
  8 10  1  0
 10 11  1  0
 11 12  1  0
 12 13  1  0
 13 14  1  0
 14 15  1  0
 15 16  2  0
  6 17  1  0
 17 18  1  0
 18  3  1  0
 15 11  1  0
  1 19  1  0
  1 20  1  0
  1 21  1  0
  2 22  1  0
  2 23  1  0
  4 24  1  0
  4 25  1  0
  5 26  1  0
  5 27  1  0
  7 28  1  0
  7 29  1  0
  8 30  1  1
  9 31  1  0
 10 32  1  0
 10 33  1  0
 12 34  1  0
 12 35  1  0
 13 36  1  0
 13 37  1  0
 14 38  1  0
 14 39  1  0
 17 40  1  0
 17 41  1  0
 18 42  1  0
 18 43  1  0
M  END
>  <UniqueID>  (1) 
1

>  <SMILES>  (1) 
CCN1CCN(C[C@H](O)CN2CCCC2=O)CC1

>  <Energy>  (1) 
58.96315786574751

>  <Genealogy>  (1) 
CCN1CCN(C[C@H](O)CN2CCCC2=O)CC1 (chirality)
CCN1CCN(C[C@H](O)CN2CCCC2=O)CC1 (3D coordinates assigned)
CCN1CCN(C[C@H](O)CN2CCCC2=O)CC1 (nonaromatic ring conformer: 58.96315786574751 kcal/mol)

>  <smiles>  (1) 
CCN1CCN(CC(O)CN2CCCC2=O)CC1

>  <score_type>  (1) 
oracle

>  <origin>  (1) 
adg

>  <m_score__min__energy>  (1) 
-7.6699999999999999

>  <m_primary>  (1) 
energy

$$$$
1:0
     RDKit          3D

 37 38  0  0  0  0  0  0  0  0999 V2000
   -4.5090   21.5268  -33.7856 H   0  0  0  0  0  0  0  0  0  0  0  0
   -4.7750   21.5680  -32.7190 C   0  0  0  0  0  0  0  0  0  0  0  0
   -4.1510   22.4490  -31.9950 N   0  0  0  0  0  0  0  0  0  0  0  0
   -4.1550   22.4670  -30.6200 O   0  0  0  0  0  0  0  0  0  0  0  0
   -3.0910   23.0710  -29.8970 C   0  0  0  0  0  0  0  0  0  0  0  0
   -2.1648   22.9967  -30.4858 H   0  0  0  0  0  0  0  0  0  0  0  0
   -2.9715   22.5490  -28.9362 H   0  0  0  0  0  0  0  0  0  0  0  0
   -3.3980   24.5420  -29.6260 C   0  0  0  0  0  0  0  0  0  0  0  0
   -2.4594   25.0799  -29.4265 H   0  0  0  0  0  0  0  0  0  0  0  0
   -4.0628   24.6187  -28.7530 H   0  0  0  0  0  0  0  0  0  0  0  0
   -4.0620   25.1370  -30.7940 N   0  0  0  0  0  0  0  0  0  0  0  0
   -4.1360   24.4160  -31.5510 H   0  0  0  0  0  0  0  0  0  0  0  0
   -5.4030   25.6480  -30.4740 C   0  0  0  0  0  0  0  0  0  0  0  0
   -5.6805   26.4030  -31.2243 H   0  0  0  0  0  0  0  0  0  0  0  0
   -5.3630   26.0770  -29.4619 H   0  0  0  0  0  0  0  0  0  0  0  0
   -6.4680   24.5470  -30.4690 C   0  0  0  0  0  0  0  0  0  0  0  0
   -6.7206   24.2859  -29.4307 H   0  0  0  0  0  0  0  0  0  0  0  0
   -7.3697   24.9067  -30.9863 H   0  0  0  0  0  0  0  0  0  0  0  0
   -6.0786   23.6578  -30.9863 H   0  0  0  0  0  0  0  0  0  0  0  0
   -5.8350   20.5890  -32.2410 C   0  0  2  0  0  0  0  0  0  0  0  0
   -5.7420   20.8105  -31.1675 H   0  0  0  0  0  0  0  0  0  0  0  0
   -5.5790   19.1120  -32.6250 C   0  0  1  0  0  0  0  0  0  0  0  0
   -4.5077   18.8793  -32.7154 H   0  0  0  0  0  0  0  0  0  0  0  0
   -6.3570   18.2380  -31.6230 C   0  0  0  0  0  0  0  0  0  0  0  0
   -6.1565   18.5401  -30.5845 H   0  0  0  0  0  0  0  0  0  0  0  0
   -6.0922   17.1708  -31.6552 H   0  0  0  0  0  0  0  0  0  0  0  0
   -7.8190   18.5410  -32.0290 C   0  0  0  0  0  0  0  0  0  0  0  0
   -8.3552   19.0383  -31.2073 H   0  0  0  0  0  0  0  0  0  0  0  0
   -8.3857   17.6273  -32.2612 H   0  0  0  0  0  0  0  0  0  0  0  0
   -7.7020   19.4420  -33.1980 N   0  0  2  0  0  0  0  0  0  0  0  0
   -8.5360   19.4400  -33.8320 H   0  0  0  0  0  0  0  0  0  0  0  0
   -6.4850   18.9450  -33.8170 C   0  0  0  0  0  0  0  0  0  0  0  0
   -6.1690   19.5593  -34.6730 H   0  0  0  0  0  0  0  0  0  0  0  0
   -6.5359   17.9371  -34.2546 H   0  0  0  0  0  0  0  0  0  0  0  0
   -7.2880   20.7880  -32.7340 C   0  0  0  0  0  0  0  0  0  0  0  0
   -7.9344   21.1339  -31.9139 H   0  0  0  0  0  0  0  0  0  0  0  0
   -7.3641   21.5484  -33.5252 H   0  0  0  0  0  0  0  0  0  0  0  0
  1  2  1  0
  2  3  2  0
  3  4  1  0
  4  5  1  0
  5  6  1  0
  5  7  1  0
  5  8  1  0
  8  9  1  0
  8 10  1  0
  8 11  1  0
 11 12  1  0
 11 13  1  0
 13 14  1  0
 13 15  1  0
 13 16  1  0
 16 17  1  0
 16 18  1  0
 16 19  1  0
  2 20  1  0
 20 21  1  1
 20 22  1  0
 22 23  1  6
 22 24  1  0
 24 25  1  0
 24 26  1  0
 24 27  1  0
 27 28  1  0
 27 29  1  0
 27 30  1  0
 30 31  1  6
 30 32  1  0
 32 33  1  0
 32 34  1  0
 30 35  1  0
 35 36  1  0
 35 37  1  0
 35 20  1  0
 32 22  1  0
M  CHG  1  30   1
M  END
>  <UniqueID>  (2) 
2

>  <SMILES>  (2) 
CCNCCO/N=C\[C@H]1C[N@@H+]2CCC1C2

>  <Energy>  (2) 
65.61857664112634

>  <Genealogy>  (2) 
CCNCCON=CC1C[NH+]2CCC1C2 (protonated)
CCNCCON=C[C@H]1C[N@@H+]2CCC1C2 (chirality)
CCNCCO/N=C\[C@H]1C[N@@H+]2CCC1C2 (cis-trans isomerization)
CCNCCO/N=C\[C@H]1C[N@@H+]2CCC1C2 (3D coordinates assigned)
CCNCCO/N=C\[C@H]1C[N@@H+]2CCC1C2 (nonaromatic ring conformer: 65.61857664112634 kcal/mol)

>  <smiles>  (2) 
CCNCCON=CC1CN2CCC1C2

>  <score_type>  (2) 
oracle

>  <origin>  (2) 
adg

>  <m_score__min__energy>  (2) 
-6.3499999999999996

>  <m_primary>  (2) 
energy

$$$$
2:0
     RDKit          3D

 71 74  0  0  0  0  0  0  0  0999 V2000
    0.1530   25.2480  -36.3690 C   0  0  0  0  0  0  0  0  0  0  0  0
    1.0170   24.1700  -35.7300 C   0  0  0  0  0  0  0  0  0  0  0  0
    0.2440   22.9280  -35.5960 N   0  0  0  0  0  0  0  0  0  0  0  0
    0.8620   21.8240  -36.3450 C   0  0  0  0  0  0  0  0  0  0  0  0
    2.2960   21.5430  -35.8650 C   0  0  0  0  0  0  0  0  0  0  0  0
    2.3400   20.6380  -34.6280 C   0  0  0  0  0  0  0  0  0  0  0  0
    1.0710   20.7260  -33.8840 N   0  0  0  0  0  0  0  0  0  0  0  0
    0.6480   19.4310  -33.3320 C   0  0  0  0  0  0  0  0  0  0  0  0
   -0.8810   19.3160  -33.2140 C   0  0  0  0  0  0  0  0  0  0  0  0
   -1.5810   20.2540  -34.1970 C   0  0  0  0  0  0  0  0  0  0  0  0
   -1.5160   21.6350  -33.7030 N   0  0  0  0  0  0  0  0  0  0  0  0
   -1.7970   21.6790  -32.2620 C   0  0  0  0  0  0  0  0  0  0  0  0
   -3.3120   21.8090  -31.9950 C   0  0  0  0  0  0  0  0  0  0  0  0
   -4.2150   21.6720  -33.1710 N   0  0  0  0  0  0  0  0  0  0  0  0
   -5.4090   20.8670  -32.9720 C   0  0  0  0  0  0  0  0  0  0  0  0
   -5.3630   19.4910  -33.2230 C   0  0  0  0  0  0  0  0  0  0  0  0
   -6.4760   18.6930  -33.0470 C   0  0  0  0  0  0  0  0  0  0  0  0
   -7.6270   19.1690  -32.4750 N   0  0  0  0  0  0  0  0  0  0  0  0
   -8.6460   18.2280  -31.9780 C   0  0  0  0  0  0  0  0  0  0  0  0
   -7.7680   20.5370  -32.3100 C   0  0  0  0  0  0  0  0  0  0  0  0
   -9.0080   21.1050  -31.9270 C   0  0  0  0  0  0  0  0  0  0  0  0
   -9.1370   22.4740  -31.7130 C   0  0  0  0  0  0  0  0  0  0  0  0
   -8.0530   23.3190  -31.9070 C   0  0  0  0  0  0  0  0  0  0  0  0
   -6.8300   22.8040  -32.3320 C   0  0  0  0  0  0  0  0  0  0  0  0
   -6.6540   21.4150  -32.5380 C   0  0  0  0  0  0  0  0  0  0  0  0
   -6.1270   17.3320  -33.4750 C   0  0  0  0  0  0  0  0  0  0  0  0
   -6.9230   16.2030  -33.7220 C   0  0  0  0  0  0  0  0  0  0  0  0
   -6.3080   15.0400  -34.2120 C   0  0  0  0  0  0  0  0  0  0  0  0
   -4.9310   15.0260  -34.4930 C   0  0  0  0  0  0  0  0  0  0  0  0
   -4.1640   16.1850  -34.3150 C   0  0  0  0  0  0  0  0  0  0  0  0
   -4.7850   17.3310  -33.8160 C   0  0  0  0  0  0  0  0  0  0  0  0
   -4.1760   18.6870  -33.6760 C   0  0  0  0  0  0  0  0  0  0  0  0
   -0.3274   25.8474  -35.5816 H   0  0  0  0  0  0  0  0  0  0  0  0
    0.7818   25.8995  -36.9936 H   0  0  0  0  0  0  0  0  0  0  0  0
   -0.6198   24.7761  -36.9936 H   0  0  0  0  0  0  0  0  0  0  0  0
    1.8980   23.9855  -36.3623 H   0  0  0  0  0  0  0  0  0  0  0  0
    1.3400   24.5063  -34.7337 H   0  0  0  0  0  0  0  0  0  0  0  0
    0.2560   22.6630  -34.5840 H   0  0  0  0  0  0  0  0  0  0  0  0
    0.2558   20.9165  -36.2073 H   0  0  0  0  0  0  0  0  0  0  0  0
    0.9058   22.1117  -37.4058 H   0  0  0  0  0  0  0  0  0  0  0  0
    2.8499   21.0529  -36.6793 H   0  0  0  0  0  0  0  0  0  0  0  0
    2.7480   22.5067  -35.5875 H   0  0  0  0  0  0  0  0  0  0  0  0
    2.5031   19.5975  -34.9453 H   0  0  0  0  0  0  0  0  0  0  0  0
    3.1615   20.9659  -33.9740 H   0  0  0  0  0  0  0  0  0  0  0  0
    0.3250   21.0940  -34.5190 H   0  0  0  0  0  0  0  0  0  0  0  0
    1.0128   18.6297  -33.9914 H   0  0  0  0  0  0  0  0  0  0  0  0
    1.0703   19.3434  -32.3201 H   0  0  0  0  0  0  0  0  0  0  0  0
   -1.1811   18.2801  -33.4303 H   0  0  0  0  0  0  0  0  0  0  0  0
   -1.1747   19.5984  -32.1922 H   0  0  0  0  0  0  0  0  0  0  0  0
   -1.0836   20.1932  -35.1762 H   0  0  0  0  0  0  0  0  0  0  0  0
   -2.6347   19.9541  -34.2957 H   0  0  0  0  0  0  0  0  0  0  0  0
   -0.5440   21.9940  -33.8550 H   0  0  0  0  0  0  0  0  0  0  0  0
   -1.4281   20.7536  -31.7956 H   0  0  0  0  0  0  0  0  0  0  0  0
   -1.2902   22.5564  -31.8338 H   0  0  0  0  0  0  0  0  0  0  0  0
   -3.5901   21.0304  -31.2694 H   0  0  0  0  0  0  0  0  0  0  0  0
   -3.4545   22.8408  -31.6412 H   0  0  0  0  0  0  0  0  0  0  0  0
   -3.6700   21.3520  -34.0000 H   0  0  0  0  0  0  0  0  0  0  0  0
   -4.5200   22.6300  -33.4560 H   0  0  0  0  0  0  0  0  0  0  0  0
   -8.6426   18.2312  -30.8780 H   0  0  0  0  0  0  0  0  0  0  0  0
   -9.6374   18.5350  -32.3425 H   0  0  0  0  0  0  0  0  0  0  0  0
   -8.4188   17.2153  -32.3425 H   0  0  0  0  0  0  0  0  0  0  0  0
   -9.8840   20.4526  -31.7965 H   0  0  0  0  0  0  0  0  0  0  0  0
  -10.1028   22.8886  -31.3885 H   0  0  0  0  0  0  0  0  0  0  0  0
   -8.1598   24.3985  -31.7247 H   0  0  0  0  0  0  0  0  0  0  0  0
   -5.9875   23.4884  -32.5103 H   0  0  0  0  0  0  0  0  0  0  0  0
   -8.0068   16.2287  -33.5355 H   0  0  0  0  0  0  0  0  0  0  0  0
   -6.9082   14.1331  -34.3772 H   0  0  0  0  0  0  0  0  0  0  0  0
   -4.4541   14.1027  -34.8536 H   0  0  0  0  0  0  0  0  0  0  0  0
   -3.0925   16.1916  -34.5639 H   0  0  0  0  0  0  0  0  0  0  0  0
   -3.3733   18.6934  -32.9239 H   0  0  0  0  0  0  0  0  0  0  0  0
   -3.6959   19.0644  -34.5909 H   0  0  0  0  0  0  0  0  0  0  0  0
  1  2  1  0
  2  3  1  0
  3  4  1  0
  4  5  1  0
  5  6  1  0
  6  7  1  0
  7  8  1  0
  8  9  1  0
  9 10  1  0
 10 11  1  0
 11 12  1  0
 12 13  1  0
 13 14  1  0
 14 15  1  0
 15 16  2  0
 16 17  1  0
 17 18  2  0
 18 19  1  0
 18 20  1  0
 20 21  2  0
 21 22  1  0
 22 23  2  0
 23 24  1  0
 24 25  2  0
 17 26  1  0
 26 27  2  0
 27 28  1  0
 28 29  2  0
 29 30  1  0
 30 31  2  0
 31 32  1  0
 25 15  1  0
 31 26  1  0
 32 16  1  0
 25 20  1  0
  1 33  1  0
  1 34  1  0
  1 35  1  0
  2 36  1  0
  2 37  1  0
  3 38  1  0
  4 39  1  0
  4 40  1  0
  5 41  1  0
  5 42  1  0
  6 43  1  0
  6 44  1  0
  7 45  1  0
  8 46  1  0
  8 47  1  0
  9 48  1  0
  9 49  1  0
 10 50  1  0
 10 51  1  0
 11 52  1  0
 12 53  1  0
 12 54  1  0
 13 55  1  0
 13 56  1  0
 14 57  1  0
 14 58  1  0
 19 59  1  0
 19 60  1  0
 19 61  1  0
 21 62  1  0
 22 63  1  0
 23 64  1  0
 24 65  1  0
 27 66  1  0
 28 67  1  0
 29 68  1  0
 30 69  1  0
 32 70  1  0
 32 71  1  0
M  CHG  2  14   1  18   1
M  END
>  <UniqueID>  (3) 
3

>  <SMILES>  (3) 
CCNCCCNCCCNCC[NH2+]c1c2c([n+](C)c3ccccc13)-c1ccccc1C2

>  <Energy>  (3) 
105.6616010001013

>  <Genealogy>  (3) 
CCNCCCNCCCNCC[NH2+]c1c2c([n+](C)c3ccccc13)-c1ccccc1C2 (protonated)
CCNCCCNCCCNCC[NH2+]c1c2c([n+](C)c3ccccc13)-c1ccccc1C2 (3D coordinates assigned)
CCNCCCNCCCNCC[NH2+]c1c2c([n+](C)c3ccccc13)-c1ccccc1C2 (nonaromatic ring conformer: 105.6616010001013 kcal/mol)

>  <smiles>  (3) 
CCNCCCNCCCNCCNc1c2c([n+](C)c3ccccc13)-c1ccccc1C2

>  <score_type>  (3) 
oracle

>  <origin>  (3) 
adg

>  <m_score__min__energy>  (3) 
-9.9100000000000001

>  <m_primary>  (3) 
energy

$$$$
3:0
     RDKit          3D

 47 49  0  0  0  0  0  0  0  0999 V2000
   -4.2230   24.1960  -27.5100 C   0  0  0  0  0  0  0  0  0  0  0  0
   -4.4540   24.5430  -28.9860 C   0  0  0  0  0  0  0  0  0  0  0  0
   -5.8980   24.6070  -29.3280 N   0  0  1  0  0  0  0  0  0  0  0  0
   -6.3900   25.9850  -29.1330 C   0  0  0  0  0  0  0  0  0  0  0  0
   -6.1360   24.1660  -30.7310 C   0  0  0  0  0  0  0  0  0  0  0  0
   -5.4890   22.8060  -31.0440 C   0  0  0  0  0  0  0  0  0  0  0  0
   -5.8040   22.3640  -32.4050 N   0  0  0  0  0  0  0  0  0  0  0  0
   -5.7250   20.9760  -32.7510 C   0  0  0  0  0  0  0  0  0  0  0  0
   -4.4960   20.4610  -33.2000 C   0  0  0  0  0  0  0  0  0  0  0  0
   -3.3840   21.3120  -33.3940 C   0  0  0  0  0  0  0  0  0  0  0  0
   -2.1490   20.7980  -33.7800 C   0  0  0  0  0  0  0  0  0  0  0  0
   -1.9950   19.4310  -33.9710 C   0  0  0  0  0  0  0  0  0  0  0  0
   -3.0830   18.5740  -33.8070 C   0  0  0  0  0  0  0  0  0  0  0  0
   -4.3640   19.0730  -33.4560 C   0  0  0  0  0  0  0  0  0  0  0  0
   -5.4590   18.2420  -33.3380 N   0  0  0  0  0  0  0  0  0  0  0  0
   -5.3960   16.8620  -33.8720 C   0  0  0  0  0  0  0  0  0  0  0  0
   -6.6260   18.7060  -32.7580 C   0  0  0  0  0  0  0  0  0  0  0  0
   -7.6480   17.8090  -32.3610 C   0  0  0  0  0  0  0  0  0  0  0  0
   -8.8580   18.2690  -31.8590 C   0  0  0  0  0  0  0  0  0  0  0  0
   -9.0920   19.6300  -31.7470 C   0  0  0  0  0  0  0  0  0  0  0  0
   -8.1000   20.5540  -32.0780 C   0  0  0  0  0  0  0  0  0  0  0  0
   -8.5960   22.2440  -31.9680 Cl  0  0  0  0  0  0  0  0  0  0  0  0
   -6.8190   20.1020  -32.5300 C   0  0  0  0  0  0  0  0  0  0  0  0
   -4.7208   24.9438  -26.8753 H   0  0  0  0  0  0  0  0  0  0  0  0
   -4.6389   23.1999  -27.2981 H   0  0  0  0  0  0  0  0  0  0  0  0
   -3.1436   24.1953  -27.2981 H   0  0  0  0  0  0  0  0  0  0  0  0
   -3.9966   25.5212  -29.1957 H   0  0  0  0  0  0  0  0  0  0  0  0
   -3.9976   23.7488  -29.5950 H   0  0  0  0  0  0  0  0  0  0  0  0
   -6.4250   23.9970  -28.6610 H   0  0  0  0  0  0  0  0  0  0  0  0
   -6.4661   26.1983  -28.0566 H   0  0  0  0  0  0  0  0  0  0  0  0
   -5.6894   26.6938  -29.5986 H   0  0  0  0  0  0  0  0  0  0  0  0
   -7.3811   26.0898  -29.5986 H   0  0  0  0  0  0  0  0  0  0  0  0
   -7.2207   24.0858  -30.8954 H   0  0  0  0  0  0  0  0  0  0  0  0
   -5.6777   24.9127  -31.3961 H   0  0  0  0  0  0  0  0  0  0  0  0
   -4.3976   22.8968  -30.9409 H   0  0  0  0  0  0  0  0  0  0  0  0
   -5.8876   22.0626  -30.3379 H   0  0  0  0  0  0  0  0  0  0  0  0
   -6.0340   23.0510  -33.1580 H   0  0  0  0  0  0  0  0  0  0  0  0
   -3.4960   22.3951  -33.2379 H   0  0  0  0  0  0  0  0  0  0  0  0
   -1.2953   21.4745  -33.9337 H   0  0  0  0  0  0  0  0  0  0  0  0
   -1.0128   19.0234  -34.2522 H   0  0  0  0  0  0  0  0  0  0  0  0
   -2.9456   17.4923  -33.9523 H   0  0  0  0  0  0  0  0  0  0  0  0
   -5.3634   16.1468  -33.0369 H   0  0  0  0  0  0  0  0  0  0  0  0
   -6.2861   16.6662  -34.4879 H   0  0  0  0  0  0  0  0  0  0  0  0
   -4.4917   16.7481  -34.4879 H   0  0  0  0  0  0  0  0  0  0  0  0
   -7.4795   16.7258  -32.4523 H   0  0  0  0  0  0  0  0  0  0  0  0
   -9.6323   17.5516  -31.5496 H   0  0  0  0  0  0  0  0  0  0  0  0
  -10.0707   19.9862  -31.3932 H   0  0  0  0  0  0  0  0  0  0  0  0
  1  2  1  0
  2  3  1  0
  3  4  1  0
  3  5  1  0
  5  6  1  0
  6  7  1  0
  7  8  1  0
  8  9  2  0
  9 10  1  0
 10 11  2  0
 11 12  1  0
 12 13  2  0
 13 14  1  0
 14 15  2  0
 15 16  1  0
 15 17  1  0
 17 18  2  0
 18 19  1  0
 19 20  2  0
 20 21  1  0
 21 22  1  0
 21 23  2  0
 23  8  1  0
 14  9  1  0
 23 17  1  0
  1 24  1  0
  1 25  1  0
  1 26  1  0
  2 27  1  0
  2 28  1  0
  3 29  1  1
  4 30  1  0
  4 31  1  0
  4 32  1  0
  5 33  1  0
  5 34  1  0
  6 35  1  0
  6 36  1  0
  7 37  1  0
 10 38  1  0
 11 39  1  0
 12 40  1  0
 13 41  1  0
 16 42  1  0
 16 43  1  0
 16 44  1  0
 18 45  1  0
 19 46  1  0
 20 47  1  0
M  CHG  2   3   1  15   1
M  END
>  <UniqueID>  (4) 
4

>  <SMILES>  (4) 
CC[N@@H+](C)CCNc1c2ccccc2[n+](C)c2cccc(Cl)c12

>  <Energy>  (4) 
81.62592224428705

>  <Genealogy>  (4) 
CC[NH+](C)CCNc1c2ccccc2[n+](C)c2cccc(Cl)c12 (protonated)
CC[N@@H+](C)CCNc1c2ccccc2[n+](C)c2cccc(Cl)c12 (chirality)
CC[N@@H+](C)CCNc1c2ccccc2[n+](C)c2cccc(Cl)c12 (3D coordinates assigned)
CC[N@@H+](C)CCNc1c2ccccc2[n+](C)c2cccc(Cl)c12 (optimized conformer: 81.62592224428705 kcal/mol)

>  <smiles>  (4) 
CCN(C)CCNc1c2ccccc2[n+](C)c2cccc(Cl)c12

>  <score_type>  (4) 
oracle

>  <origin>  (4) 
adg

>  <m_score__min__energy>  (4) 
-7.6100000000000003

>  <m_primary>  (4) 
energy

$$$$
4:0
     RDKit          3D

 58 61  0  0  0  0  0  0  0  0999 V2000
   -0.7780   26.0100  -26.9050 C   0  0  0  0  0  0  0  0  0  0  0  0
   -0.8050   25.2210  -28.2190 C   0  0  0  0  0  0  0  0  0  0  0  0
   -2.1120   25.2940  -28.8930 N   0  0  0  0  0  0  0  0  0  0  0  0
   -2.7680   23.9800  -28.9700 C   0  0  0  0  0  0  0  0  0  0  0  0
   -3.5150   23.8410  -30.2990 C   0  0  0  0  0  0  0  0  0  0  0  0
   -3.8970   25.1120  -30.7930 O   0  0  0  0  0  0  0  0  0  0  0  0
   -5.2890   25.1540  -31.0290 C   0  0  0  0  0  0  0  0  0  0  0  0
   -5.8530   23.7390  -30.9540 C   0  0  0  0  0  0  0  0  0  0  0  0
   -5.9610   23.1420  -32.2870 N   0  0  0  0  0  0  0  0  0  0  0  0
   -5.9160   21.7190  -32.4770 C   0  0  0  0  0  0  0  0  0  0  0  0
   -4.7090   21.0880  -32.8220 C   0  0  0  0  0  0  0  0  0  0  0  0
   -4.6830   19.6830  -32.9860 C   0  0  0  0  0  0  0  0  0  0  0  0
   -5.7690   18.9270  -32.5940 N   0  0  0  0  0  0  0  0  0  0  0  0
   -5.6080   17.4920  -32.2820 C   0  0  0  0  0  0  0  0  0  0  0  0
   -6.9930   19.5340  -32.3960 C   0  0  0  0  0  0  0  0  0  0  0  0
   -8.1810   18.7760  -32.2360 C   0  0  0  0  0  0  0  0  0  0  0  0
   -9.4110   19.4050  -32.0460 C   0  0  0  0  0  0  0  0  0  0  0  0
   -9.4930   20.7930  -32.0210 C   0  0  0  0  0  0  0  0  0  0  0  0
   -8.3430   21.5630  -32.1790 C   0  0  0  0  0  0  0  0  0  0  0  0
   -7.0860   20.9500  -32.3560 C   0  0  0  0  0  0  0  0  0  0  0  0
   -3.4310   19.0790  -33.5520 C   0  0  0  0  0  0  0  0  0  0  0  0
   -3.4660   17.9550  -34.3310 N   0  0  0  0  0  0  0  0  0  0  0  0
   -2.3300   17.4050  -34.8430 C   0  0  0  0  0  0  0  0  0  0  0  0
   -1.0930   18.0080  -34.6190 C   0  0  0  0  0  0  0  0  0  0  0  0
   -1.0350   19.2010  -33.9030 C   0  0  0  0  0  0  0  0  0  0  0  0
   -2.2110   19.7650  -33.3930 C   0  0  0  0  0  0  0  0  0  0  0  0
   -2.1970   21.1050  -32.7120 C   0  0  0  0  0  0  0  0  0  0  0  0
   -3.4530   21.8940  -33.1050 C   0  0  0  0  0  0  0  0  0  0  0  0
   -0.8019   25.3103  -26.0566 H   0  0  0  0  0  0  0  0  0  0  0  0
    0.1413   26.6122  -26.8578 H   0  0  0  0  0  0  0  0  0  0  0  0
   -1.6540   26.6737  -26.8578 H   0  0  0  0  0  0  0  0  0  0  0  0
   -0.0374   25.6303  -28.8922 H   0  0  0  0  0  0  0  0  0  0  0  0
   -0.6108   24.1652  -27.9793 H   0  0  0  0  0  0  0  0  0  0  0  0
   -1.9860   25.6720  -29.8610 H   0  0  0  0  0  0  0  0  0  0  0  0
   -2.0073   23.1889  -28.8959 H   0  0  0  0  0  0  0  0  0  0  0  0
   -3.4865   23.8877  -28.1422 H   0  0  0  0  0  0  0  0  0  0  0  0
   -2.8585   23.3506  -31.0328 H   0  0  0  0  0  0  0  0  0  0  0  0
   -4.4204   23.2383  -30.1348 H   0  0  0  0  0  0  0  0  0  0  0  0
   -5.7725   25.7836  -30.2676 H   0  0  0  0  0  0  0  0  0  0  0  0
   -5.4823   25.5767  -32.0260 H   0  0  0  0  0  0  0  0  0  0  0  0
   -5.1868   23.1192  -30.3359 H   0  0  0  0  0  0  0  0  0  0  0  0
   -6.8586   23.7872  -30.5108 H   0  0  0  0  0  0  0  0  0  0  0  0
   -5.9190   23.7590  -33.1280 H   0  0  0  0  0  0  0  0  0  0  0  0
   -5.5925   17.3535  -31.1909 H   0  0  0  0  0  0  0  0  0  0  0  0
   -6.4484   16.9269  -32.7114 H   0  0  0  0  0  0  0  0  0  0  0  0
   -4.6633   17.1271  -32.7114 H   0  0  0  0  0  0  0  0  0  0  0  0
   -8.1315   17.6774  -32.2621 H   0  0  0  0  0  0  0  0  0  0  0  0
  -10.3206   18.8004  -31.9153 H   0  0  0  0  0  0  0  0  0  0  0  0
  -10.4670   21.2833  -31.8763 H   0  0  0  0  0  0  0  0  0  0  0  0
   -8.4165   22.6605  -32.1655 H   0  0  0  0  0  0  0  0  0  0  0  0
   -4.3760   17.5120  -34.5830 H   0  0  0  0  0  0  0  0  0  0  0  0
   -2.3888   16.4805  -35.4362 H   0  0  0  0  0  0  0  0  0  0  0  0
   -0.1720   17.5460  -35.0040 H   0  0  0  0  0  0  0  0  0  0  0  0
   -0.0681   19.6990  -33.7385 H   0  0  0  0  0  0  0  0  0  0  0  0
   -2.1808   20.9615  -31.6215 H   0  0  0  0  0  0  0  0  0  0  0  0
   -1.3019   21.6638  -33.0226 H   0  0  0  0  0  0  0  0  0  0  0  0
   -3.4869   22.8290  -32.5265 H   0  0  0  0  0  0  0  0  0  0  0  0
   -3.4095   22.1108  -34.1825 H   0  0  0  0  0  0  0  0  0  0  0  0
  1  2  1  0
  2  3  1  0
  3  4  1  0
  4  5  1  0
  5  6  1  0
  6  7  1  0
  7  8  1  0
  8  9  1  0
  9 10  1  0
 10 11  2  0
 11 12  1  0
 12 13  2  0
 13 14  1  0
 13 15  1  0
 15 16  2  0
 16 17  1  0
 17 18  2  0
 18 19  1  0
 19 20  2  0
 12 21  1  0
 21 22  2  0
 22 23  1  0
 23 24  2  0
 24 25  1  0
 25 26  2  0
 26 27  1  0
 27 28  1  0
 20 10  1  0
 26 21  1  0
 28 11  1  0
 20 15  1  0
  1 29  1  0
  1 30  1  0
  1 31  1  0
  2 32  1  0
  2 33  1  0
  3 34  1  0
  4 35  1  0
  4 36  1  0
  5 37  1  0
  5 38  1  0
  7 39  1  0
  7 40  1  0
  8 41  1  0
  8 42  1  0
  9 43  1  0
 14 44  1  0
 14 45  1  0
 14 46  1  0
 16 47  1  0
 17 48  1  0
 18 49  1  0
 19 50  1  0
 22 51  1  0
 23 52  1  0
 24 53  1  0
 25 54  1  0
 27 55  1  0
 27 56  1  0
 28 57  1  0
 28 58  1  0
M  CHG  2  13   1  22   1
M  END
>  <UniqueID>  (5) 
5

>  <SMILES>  (5) 
CCNCCOCCNc1c2c([n+](C)c3ccccc13)-c1[nH+]cccc1CC2

>  <Energy>  (5) 
86.72978692356781

>  <Genealogy>  (5) 
CCNCCOCCNc1c2c([n+](C)c3ccccc13)-c1[nH+]cccc1CC2 (protonated)
CCNCCOCCNc1c2c([n+](C)c3ccccc13)-c1[nH+]cccc1CC2 (3D coordinates assigned)
CCNCCOCCNc1c2c([n+](C)c3ccccc13)-c1[nH+]cccc1CC2 (nonaromatic ring conformer: 86.72978692356781 kcal/mol)

>  <smiles>  (5) 
CCNCCOCCNc1c2c([n+](C)c3ccccc13)-c1ncccc1CC2

>  <score_type>  (5) 
oracle

>  <origin>  (5) 
adg

>  <m_score__min__energy>  (5) 
-9.1500000000000004

>  <m_primary>  (5) 
energy

$$$$
5:0
     RDKit          3D

 64 66  0  0  0  0  0  0  0  0999 V2000
   -1.4726   18.4801  -33.9745 H   0  0  0  0  0  0  0  0  0  0  0  0
   -2.3170   19.1340  -33.7110 C   0  0  0  0  0  0  0  0  0  0  0  0
   -2.1290   20.5140  -33.6230 C   0  0  0  0  0  0  0  0  0  0  0  0
   -1.1362   20.9443  -33.8210 H   0  0  0  0  0  0  0  0  0  0  0  0
   -3.1940   21.3520  -33.2850 C   0  0  0  0  0  0  0  0  0  0  0  0
   -3.0348   22.4383  -33.2178 H   0  0  0  0  0  0  0  0  0  0  0  0
   -4.4740   20.8130  -33.0290 C   0  0  0  0  0  0  0  0  0  0  0  0
   -5.5960   21.6090  -32.6820 C   0  0  0  0  0  0  0  0  0  0  0  0
   -5.5300   23.0520  -32.5900 N   0  0  0  0  0  0  0  0  0  0  0  0
   -4.8240   23.3260  -31.8680 H   0  0  0  0  0  0  0  0  0  0  0  0
   -5.2040   23.4550  -33.4960 H   0  0  0  0  0  0  0  0  0  0  0  0
   -6.8450   23.5960  -32.2080 C   0  0  0  0  0  0  0  0  0  0  0  0
   -7.6101   22.8249  -32.3811 H   0  0  0  0  0  0  0  0  0  0  0  0
   -7.0288   24.4908  -32.8208 H   0  0  0  0  0  0  0  0  0  0  0  0
   -6.8970   24.0210  -30.7290 C   0  0  0  0  0  0  0  0  0  0  0  0
   -7.8930   24.4443  -30.5322 H   0  0  0  0  0  0  0  0  0  0  0  0
   -6.0762   24.7402  -30.5910 H   0  0  0  0  0  0  0  0  0  0  0  0
   -6.6490   22.8900  -29.7060 C   0  0  0  0  0  0  0  0  0  0  0  0
   -6.7495   21.9293  -30.2323 H   0  0  0  0  0  0  0  0  0  0  0  0
   -7.3904   23.0384  -28.9070 H   0  0  0  0  0  0  0  0  0  0  0  0
   -5.2690   22.9100  -29.0120 C   0  0  0  0  0  0  0  0  0  0  0  0
   -5.0909   21.9223  -28.5618 H   0  0  0  0  0  0  0  0  0  0  0  0
   -5.2960   23.7117  -28.2593 H   0  0  0  0  0  0  0  0  0  0  0  0
   -4.1250   23.2210  -29.9550 C   0  0  0  0  0  0  0  0  0  0  0  0
   -3.4180   22.2160  -30.3940 N   0  0  0  0  0  0  0  0  0  0  0  0
   -2.0910   21.8200  -30.0230 C   0  0  0  0  0  0  0  0  0  0  0  0
   -1.0900   22.3840  -30.5450 O   0  0  0  0  0  0  0  0  0  0  0  0
   -1.9020   20.6340  -29.1170 C   0  0  0  0  0  0  0  0  0  0  0  0
   -2.2125   19.7369  -29.6727 H   0  0  0  0  0  0  0  0  0  0  0  0
   -2.7900   20.7480  -27.8550 C   0  0  0  0  0  0  0  0  0  0  0  0
   -2.8297   21.8025  -27.5445 H   0  0  0  0  0  0  0  0  0  0  0  0
   -3.7895   20.3668  -28.1113 H   0  0  0  0  0  0  0  0  0  0  0  0
   -2.2500   19.9050  -26.6810 C   0  0  0  0  0  0  0  0  0  0  0  0
   -1.6278   20.5462  -26.0393 H   0  0  0  0  0  0  0  0  0  0  0  0
   -3.1103   19.5037  -26.1253 H   0  0  0  0  0  0  0  0  0  0  0  0
   -1.4400   18.7710  -27.1480 N   0  0  0  0  0  0  0  0  0  0  0  0
   -2.0160   18.1910  -27.8050 H   0  0  0  0  0  0  0  0  0  0  0  0
   -0.2140   19.2220  -27.8390 C   0  0  0  0  0  0  0  0  0  0  0  0
    0.5455   19.4601  -27.0798 H   0  0  0  0  0  0  0  0  0  0  0  0
    0.1010   18.4042  -28.5038 H   0  0  0  0  0  0  0  0  0  0  0  0
   -0.4270   20.4710  -28.7260 C   0  0  0  0  0  0  0  0  0  0  0  0
   -0.1029   21.3638  -28.1711 H   0  0  0  0  0  0  0  0  0  0  0  0
    0.1638   20.3478  -29.6457 H   0  0  0  0  0  0  0  0  0  0  0  0
   -3.7370   24.6480  -30.1770 C   0  0  0  0  0  0  0  0  0  0  0  0
   -4.2250   25.3150  -31.1310 O   0  0  0  0  0  0  0  0  0  0  0  0
   -2.7440   25.2560  -29.3380 N   0  0  0  0  0  0  0  0  0  0  0  0
   -1.9880   24.5160  -28.3360 C   0  0  0  0  0  0  0  0  0  0  0  0
   -0.9158   24.7272  -28.4614 H   0  0  0  0  0  0  0  0  0  0  0  0
   -2.1781   23.4405  -28.4666 H   0  0  0  0  0  0  0  0  0  0  0  0
   -2.4230   24.9310  -26.9290 C   0  0  0  0  0  0  0  0  0  0  0  0
   -2.2723   26.0147  -26.8153 H   0  0  0  0  0  0  0  0  0  0  0  0
   -1.8161   24.3682  -26.2045 H   0  0  0  0  0  0  0  0  0  0  0  0
   -3.8960   24.6060  -26.6680 C   0  0  0  0  0  0  0  0  0  0  0  0
   -4.0761   24.5663  -25.5836 H   0  0  0  0  0  0  0  0  0  0  0  0
   -4.5287   25.3862  -27.1164 H   0  0  0  0  0  0  0  0  0  0  0  0
   -4.1416   23.6321  -27.1164 H   0  0  0  0  0  0  0  0  0  0  0  0
   -6.8280   20.9650  -32.4710 C   0  0  0  0  0  0  0  0  0  0  0  0
   -7.7219   21.5536  -32.2168 H   0  0  0  0  0  0  0  0  0  0  0  0
   -6.9130   19.5780  -32.5850 C   0  0  0  0  0  0  0  0  0  0  0  0
   -8.0140   18.9980  -32.3890 O   0  0  0  0  0  0  0  0  0  0  0  0
   -5.8430   18.8610  -32.9030 O   0  0  0  0  0  0  0  0  0  0  0  0
   -4.6530   19.4090  -33.1270 C   0  0  0  0  0  0  0  0  0  0  0  0
   -3.5750   18.5830  -33.4650 C   0  0  0  0  0  0  0  0  0  0  0  0
   -3.7201   17.4950  -33.5370 H   0  0  0  0  0  0  0  0  0  0  0  0
  1  2  1  0
  2  3  2  0
  3  4  1  0
  3  5  1  0
  5  6  1  0
  5  7  2  0
  7  8  1  0
  8  9  1  0
  9 10  1  0
  9 11  1  0
  9 12  1  0
 12 13  1  0
 12 14  1  0
 12 15  1  0
 15 16  1  0
 15 17  1  0
 15 18  1  0
 18 19  1  0
 18 20  1  0
 18 21  1  0
 21 22  1  0
 21 23  1  0
 21 24  1  0
 24 25  2  0
 25 26  1  0
 26 27  2  0
 26 28  1  0
 28 29  1  0
 28 30  1  0
 30 31  1  0
 30 32  1  0
 30 33  1  0
 33 34  1  0
 33 35  1  0
 33 36  1  0
 36 37  1  0
 36 38  1  0
 38 39  1  0
 38 40  1  0
 38 41  1  0
 41 42  1  0
 41 43  1  0
 24 44  1  0
 44 45  2  0
 44 46  1  0
 46 47  1  0
 47 48  1  0
 47 49  1  0
 47 50  1  0
 50 51  1  0
 50 52  1  0
 50 53  1  0
 53 54  1  0
 53 55  1  0
 53 56  1  0
  8 57  2  0
 57 58  1  0
 57 59  1  0
 59 60  2  0
 59 61  1  0
 61 62  1  0
 62 63  2  0
 63 64  1  0
 63  2  1  0
 62  7  1  0
 41 28  1  0
M  CHG  2   9   1  46  -1
M  END
>  <UniqueID>  (6) 
6

>  <SMILES>  (6) 
CCC[N-]C(=O)/C(CCCC[NH2+]c1cc(=O)oc2ccccc12)=N\C(=O)C1CCNCC1

>  <Energy>  (6) 
76.49861429002341

>  <Genealogy>  (6) 
CCC[N-]C(=O)C(CCCC[NH2+]c1cc(=O)oc2ccccc12)=NC(=O)C1CCNCC1 (protonated)
CCC[N-]C(=O)/C(CCCC[NH2+]c1cc(=O)oc2ccccc12)=N\C(=O)C1CCNCC1 (cis-trans isomerization)
CCC[N-]C(=O)/C(CCCC[NH2+]c1cc(=O)oc2ccccc12)=N\C(=O)C1CCNCC1 (3D coordinates assigned)
CCC[N-]C(=O)/C(CCCC[NH2+]c1cc(=O)oc2ccccc12)=N\C(=O)C1CCNCC1 (nonaromatic ring conformer: 76.49861429002341 kcal/mol)

>  <smiles>  (6) 
CCCNC(=O)C(CCCCNc1cc(=O)oc2ccccc12)=NC(=O)C1CCNCC1

>  <score_type>  (6) 
oracle

>  <origin>  (6) 
adg

>  <m_score__min__energy>  (6) 
-11.6

>  <m_primary>  (6) 
energy

$$$$
6:0
     RDKit          3D

 52 54  0  0  0  0  0  0  0  0999 V2000
   -2.7640   19.7670  -27.2590 C   0  0  0  0  0  0  0  0  0  0  0  0
   -1.7280   20.8800  -27.3930 C   0  0  0  0  0  0  0  0  0  0  0  0
   -2.2580   22.0220  -28.2210 C   0  0  0  0  0  0  0  0  0  0  0  0
   -2.4450   21.8770  -29.6050 C   0  0  0  0  0  0  0  0  0  0  0  0
   -2.9540   22.9350  -30.3650 C   0  0  0  0  0  0  0  0  0  0  0  0
   -3.2910   24.1540  -29.7470 C   0  0  0  0  0  0  0  0  0  0  0  0
   -3.8280   25.2430  -30.4510 O   0  0  0  0  0  0  0  0  0  0  0  0
   -5.2050   25.6190  -30.4910 C   0  0  0  0  0  0  0  0  0  0  0  0
   -6.1070   24.5970  -29.7890 C   0  0  0  0  0  0  0  0  0  0  0  0
   -7.0670   23.9940  -30.7510 N   0  0  0  0  0  0  0  0  0  0  0  0
   -7.5790   22.6730  -30.2870 C   0  0  0  0  0  0  0  0  0  0  0  0
   -7.5960   21.5830  -31.3760 C   0  0  0  0  0  0  0  0  0  0  0  0
   -6.3180   21.4910  -32.1160 N   0  0  0  0  0  0  0  0  0  0  0  0
   -5.4350   20.3810  -31.7010 C   0  0  0  0  0  0  0  0  0  0  0  0
   -5.5500   19.1570  -32.5710 C   0  0  0  0  0  0  0  0  0  0  0  0
   -5.0100   19.0070  -33.8450 C   0  0  0  0  0  0  0  0  0  0  0  0
   -5.3610   17.8020  -34.4610 C   0  0  0  0  0  0  0  0  0  0  0  0
   -6.1790   17.0020  -33.6730 C   0  0  0  0  0  0  0  0  0  0  0  0
   -6.8330   15.7380  -34.1160 C   0  0  0  0  0  0  0  0  0  0  0  0
   -6.4910   17.8010  -32.2270 S   0  0  0  0  0  0  0  0  0  0  0  0
   -5.6100   22.7710  -32.3360 C   0  0  0  0  0  0  0  0  0  0  0  0
   -6.5380   23.9700  -32.1310 C   0  0  0  0  0  0  0  0  0  0  0  0
   -3.0910   24.2980  -28.3690 C   0  0  0  0  0  0  0  0  0  0  0  0
   -2.5790   23.2440  -27.6110 C   0  0  0  0  0  0  0  0  0  0  0  0
   -2.9508   19.5663  -26.1937 H   0  0  0  0  0  0  0  0  0  0  0  0
   -3.7013   20.0783  -27.7434 H   0  0  0  0  0  0  0  0  0  0  0  0
   -2.3865   18.8544  -27.7434 H   0  0  0  0  0  0  0  0  0  0  0  0
   -1.4706   21.2529  -26.3907 H   0  0  0  0  0  0  0  0  0  0  0  0
   -0.8392   20.4696  -27.8946 H   0  0  0  0  0  0  0  0  0  0  0  0
   -2.1896   20.9256  -30.0945 H   0  0  0  0  0  0  0  0  0  0  0  0
   -3.0915   22.8141  -31.4497 H   0  0  0  0  0  0  0  0  0  0  0  0
   -5.3204   26.5934  -29.9937 H   0  0  0  0  0  0  0  0  0  0  0  0
   -5.5101   25.6686  -31.5467 H   0  0  0  0  0  0  0  0  0  0  0  0
   -5.4825   23.8018  -29.3559 H   0  0  0  0  0  0  0  0  0  0  0  0
   -6.6742   25.1104  -28.9986 H   0  0  0  0  0  0  0  0  0  0  0  0
   -6.9397   22.3260  -29.4618 H   0  0  0  0  0  0  0  0  0  0  0  0
   -8.6238   22.8294  -29.9807 H   0  0  0  0  0  0  0  0  0  0  0  0
   -7.7962   20.6124  -30.8986 H   0  0  0  0  0  0  0  0  0  0  0  0
   -8.3792   21.8511  -32.1003 H   0  0  0  0  0  0  0  0  0  0  0  0
   -4.3939   20.7344  -31.7349 H   0  0  0  0  0  0  0  0  0  0  0  0
   -5.7455   20.0852  -30.6880 H   0  0  0  0  0  0  0  0  0  0  0  0
   -4.3690   19.7635  -34.3212 H   0  0  0  0  0  0  0  0  0  0  0  0
   -5.0235   17.5161  -35.4682 H   0  0  0  0  0  0  0  0  0  0  0  0
   -7.1355   15.1533  -33.2348 H   0  0  0  0  0  0  0  0  0  0  0  0
   -7.7208   15.9767  -34.7201 H   0  0  0  0  0  0  0  0  0  0  0  0
   -6.1254   15.1512  -34.7201 H   0  0  0  0  0  0  0  0  0  0  0  0
   -4.7725   22.8423  -31.6264 H   0  0  0  0  0  0  0  0  0  0  0  0
   -5.2476   22.7898  -33.3744 H   0  0  0  0  0  0  0  0  0  0  0  0
   -5.9762   24.8970  -32.3181 H   0  0  0  0  0  0  0  0  0  0  0  0
   -7.3824   23.8862  -32.8310 H   0  0  0  0  0  0  0  0  0  0  0  0
   -3.3398   25.2509  -27.8790 H   0  0  0  0  0  0  0  0  0  0  0  0
   -2.4263   23.3720  -26.5292 H   0  0  0  0  0  0  0  0  0  0  0  0
  1  2  1  0
  2  3  1  0
  3  4  2  0
  4  5  1  0
  5  6  2  0
  6  7  1  0
  7  8  1  0
  8  9  1  0
  9 10  1  0
 10 11  1  0
 11 12  1  0
 12 13  1  0
 13 14  1  0
 14 15  1  0
 15 16  2  0
 16 17  1  0
 17 18  2  0
 18 19  1  0
 18 20  1  0
 13 21  1  0
 21 22  1  0
  6 23  1  0
 23 24  2  0
 24  3  1  0
 22 10  1  0
 20 15  1  0
  1 25  1  0
  1 26  1  0
  1 27  1  0
  2 28  1  0
  2 29  1  0
  4 30  1  0
  5 31  1  0
  8 32  1  0
  8 33  1  0
  9 34  1  0
  9 35  1  0
 11 36  1  0
 11 37  1  0
 12 38  1  0
 12 39  1  0
 14 40  1  0
 14 41  1  0
 16 42  1  0
 17 43  1  0
 19 44  1  0
 19 45  1  0
 19 46  1  0
 21 47  1  0
 21 48  1  0
 22 49  1  0
 22 50  1  0
 23 51  1  0
 24 52  1  0
M  END
>  <UniqueID>  (7) 
7

>  <SMILES>  (7) 
CCc1ccc(OCCN2CCN(Cc3ccc(C)s3)CC2)cc1

>  <Energy>  (7) 
87.37870319584168

>  <Genealogy>  (7) 
CCc1ccc(OCCN2CCN(Cc3ccc(C)s3)CC2)cc1 (3D coordinates assigned)
CCc1ccc(OCCN2CCN(Cc3ccc(C)s3)CC2)cc1 (nonaromatic ring conformer: 87.37870319584168 kcal/mol)

>  <smiles>  (7) 
CCc1ccc(OCCN2CCN(Cc3ccc(C)s3)CC2)cc1

>  <score_type>  (7) 
oracle

>  <origin>  (7) 
adg

>  <m_score__min__energy>  (7) 
-9.0399999999999991

>  <m_primary>  (7) 
energy

$$$$
7:0
     RDKit          3D

 45 47  0  0  0  0  0  0  0  0999 V2000
   -6.6160   24.8280  -29.7060 C   0  0  0  0  0  0  0  0  0  0  0  0
   -5.6370   25.7420  -30.4500 C   0  0  0  0  0  0  0  0  0  0  0  0
   -4.6120   24.9890  -31.1880 N   0  0  0  0  0  0  0  0  0  0  0  0
   -3.9280   24.0020  -30.3420 C   0  0  0  0  0  0  0  0  0  0  0  0
   -3.7050   22.7040  -31.1200 C   0  0  0  0  0  0  0  0  0  0  0  0
   -4.6020   22.6300  -32.2730 N   0  0  0  0  0  0  0  0  0  0  0  0
   -5.3810   21.4490  -32.5300 C   0  0  0  0  0  0  0  0  0  0  0  0
   -6.7700   21.4480  -32.3050 C   0  0  0  0  0  0  0  0  0  0  0  0
   -7.4400   22.6210  -31.8950 C   0  0  0  0  0  0  0  0  0  0  0  0
   -8.8200   22.6240  -31.7070 C   0  0  0  0  0  0  0  0  0  0  0  0
   -9.5570   21.4690  -31.9380 C   0  0  0  0  0  0  0  0  0  0  0  0
   -8.9160   20.2950  -32.3300 C   0  0  0  0  0  0  0  0  0  0  0  0
   -7.5060   20.2470  -32.4870 C   0  0  0  0  0  0  0  0  0  0  0  0
   -6.8520   19.0750  -32.8180 N   0  0  0  0  0  0  0  0  0  0  0  0
   -7.5570   17.7770  -32.7130 C   0  0  0  0  0  0  0  0  0  0  0  0
   -5.5320   19.1120  -33.2260 C   0  0  0  0  0  0  0  0  0  0  0  0
   -4.9080   17.9950  -33.8390 C   0  0  0  0  0  0  0  0  0  0  0  0
   -3.5620   18.0330  -34.2200 C   0  0  0  0  0  0  0  0  0  0  0  0
   -2.9530   16.8900  -34.8300 N   0  0  0  0  0  0  0  0  0  0  0  0
   -2.8180   19.1940  -34.0150 C   0  0  0  0  0  0  0  0  0  0  0  0
   -3.4150   20.3190  -33.4520 C   0  0  0  0  0  0  0  0  0  0  0  0
   -4.7690   20.2970  -33.0570 C   0  0  0  0  0  0  0  0  0  0  0  0
   -6.4822   24.9529  -28.6213 H   0  0  0  0  0  0  0  0  0  0  0  0
   -7.6473   25.0939  -29.9812 H   0  0  0  0  0  0  0  0  0  0  0  0
   -6.4214   23.7809  -29.9812 H   0  0  0  0  0  0  0  0  0  0  0  0
   -6.2033   26.3588  -31.1634 H   0  0  0  0  0  0  0  0  0  0  0  0
   -5.1218   26.3601  -29.7000 H   0  0  0  0  0  0  0  0  0  0  0  0
   -3.9020   25.6560  -31.5770 H   0  0  0  0  0  0  0  0  0  0  0  0
   -2.9558   24.4070  -30.0245 H   0  0  0  0  0  0  0  0  0  0  0  0
   -4.5520   23.7901  -29.4613 H   0  0  0  0  0  0  0  0  0  0  0  0
   -2.6630   22.6680  -31.4706 H   0  0  0  0  0  0  0  0  0  0  0  0
   -3.9143   21.8533  -30.4548 H   0  0  0  0  0  0  0  0  0  0  0  0
   -4.8580   23.5190  -32.7570 H   0  0  0  0  0  0  0  0  0  0  0  0
   -6.8656   23.5431  -31.7221 H   0  0  0  0  0  0  0  0  0  0  0  0
   -9.3271   23.5420  -31.3752 H   0  0  0  0  0  0  0  0  0  0  0  0
  -10.6496   21.4811  -31.8111 H   0  0  0  0  0  0  0  0  0  0  0  0
   -9.5126   19.3908  -32.5209 H   0  0  0  0  0  0  0  0  0  0  0  0
   -7.6965   17.5202  -31.6525 H   0  0  0  0  0  0  0  0  0  0  0  0
   -8.5384   17.8520  -33.2042 H   0  0  0  0  0  0  0  0  0  0  0  0
   -6.9599   16.9946  -33.2042 H   0  0  0  0  0  0  0  0  0  0  0  0
   -5.4936   17.0813  -34.0183 H   0  0  0  0  0  0  0  0  0  0  0  0
   -2.8380   15.9980  -34.2990 H   0  0  0  0  0  0  0  0  0  0  0  0
   -2.6090   16.9300  -35.8150 H   0  0  0  0  0  0  0  0  0  0  0  0
   -1.7556   19.2215  -34.2990 H   0  0  0  0  0  0  0  0  0  0  0  0
   -2.8235   21.2361  -33.3136 H   0  0  0  0  0  0  0  0  0  0  0  0
  1  2  1  0
  2  3  1  0
  3  4  1  0
  4  5  1  0
  5  6  1  0
  6  7  1  0
  7  8  2  0
  8  9  1  0
  9 10  2  0
 10 11  1  0
 11 12  2  0
 12 13  1  0
 13 14  2  0
 14 15  1  0
 14 16  1  0
 16 17  2  0
 17 18  1  0
 18 19  1  0
 18 20  2  0
 20 21  1  0
 21 22  2  0
 22  7  1  0
 13  8  1  0
 22 16  1  0
  1 23  1  0
  1 24  1  0
  1 25  1  0
  2 26  1  0
  2 27  1  0
  3 28  1  0
  4 29  1  0
  4 30  1  0
  5 31  1  0
  5 32  1  0
  6 33  1  0
  9 34  1  0
 10 35  1  0
 11 36  1  0
 12 37  1  0
 15 38  1  0
 15 39  1  0
 15 40  1  0
 17 41  1  0
 19 42  1  0
 19 43  1  0
 20 44  1  0
 21 45  1  0
M  CHG  1  14   1
M  END
>  <UniqueID>  (8) 
8

>  <SMILES>  (8) 
CCNCCNc1c2ccccc2[n+](C)c2cc(N)ccc12

>  <Energy>  (8) 
66.77489592791216

>  <Genealogy>  (8) 
CCNCCNc1c2ccccc2[n+](C)c2cc(N)ccc12 (3D coordinates assigned)
CCNCCNc1c2ccccc2[n+](C)c2cc(N)ccc12 (optimized conformer: 66.77489592791216 kcal/mol)

>  <smiles>  (8) 
CCNCCNc1c2ccccc2[n+](C)c2cc(N)ccc12

>  <score_type>  (8) 
oracle

>  <origin>  (8) 
adg

>  <m_score__min__energy>  (8) 
-7.8899999999999997

>  <m_primary>  (8) 
energy

$$$$
8:0
     RDKit          3D

 54 57  0  0  0  0  0  0  0  0999 V2000
   -3.4020   24.1170  -29.2000 C   0  0  0  0  0  0  0  0  0  0  0  0
   -4.3100   24.7670  -30.2410 C   0  0  0  0  0  0  0  0  0  0  0  0
   -4.8030   23.7490  -31.1990 N   0  0  0  0  0  0  0  0  0  0  0  0
   -6.2560   23.5190  -31.0350 C   0  0  0  0  0  0  0  0  0  0  0  0
   -6.9800   23.7700  -32.3560 C   0  0  0  0  0  0  0  0  0  0  0  0
   -4.0420   22.4820  -31.0750 C   0  0  0  0  0  0  0  0  0  0  0  0
   -3.1050   22.2880  -32.2900 C   0  0  0  0  0  0  0  0  0  0  0  0
   -3.7980   21.8220  -33.5100 N   0  0  0  0  0  0  0  0  0  0  0  0
   -4.0860   20.3990  -33.4770 C   0  0  0  0  0  0  0  0  0  0  0  0
   -5.3670   19.8770  -33.0920 C   0  0  0  0  0  0  0  0  0  0  0  0
   -6.4550   20.7190  -32.7450 C   0  0  0  0  0  0  0  0  0  0  0  0
   -7.6730   20.1930  -32.3270 C   0  0  0  0  0  0  0  0  0  0  0  0
   -7.8510   18.8210  -32.2350 C   0  0  0  0  0  0  0  0  0  0  0  0
   -9.3820   18.1740  -31.6740 Cl  0  0  0  0  0  0  0  0  0  0  0  0
   -6.8190   17.9590  -32.5860 C   0  0  0  0  0  0  0  0  0  0  0  0
   -5.5740   18.4520  -33.0550 C   0  0  0  0  0  0  0  0  0  0  0  0
   -4.5770   17.5820  -33.4650 N   0  0  0  0  0  0  0  0  0  0  0  0
   -4.8220   16.1280  -33.5590 C   0  0  0  0  0  0  0  0  0  0  0  0
   -3.3490   18.0960  -33.7860 C   0  0  0  0  0  0  0  0  0  0  0  0
   -2.2490   17.3730  -34.1110 N   0  0  0  0  0  0  0  0  0  0  0  0
   -1.2940   18.2770  -34.3770 C   0  0  0  0  0  0  0  0  0  0  0  0
    0.0170   17.9940  -34.7600 C   0  0  0  0  0  0  0  0  0  0  0  0
    0.8900   19.0680  -34.9990 C   0  0  0  0  0  0  0  0  0  0  0  0
    2.6920   18.6780  -35.5210 Br  0  0  0  0  0  0  0  0  0  0  0  0
    0.4340   20.4010  -34.8520 C   0  0  0  0  0  0  0  0  0  0  0  0
    1.5940   21.8960  -35.1650 Br  0  0  0  0  0  0  0  0  0  0  0  0
   -0.8960   20.6580  -34.4650 C   0  0  0  0  0  0  0  0  0  0  0  0
   -1.7530   19.5700  -34.2220 C   0  0  0  0  0  0  0  0  0  0  0  0
   -3.0920   19.4570  -33.8190 C   0  0  0  0  0  0  0  0  0  0  0  0
   -3.7589   24.3725  -28.1914 H   0  0  0  0  0  0  0  0  0  0  0  0
   -3.4192   23.0248  -29.3293 H   0  0  0  0  0  0  0  0  0  0  0  0
   -2.3736   24.4854  -29.3293 H   0  0  0  0  0  0  0  0  0  0  0  0
   -5.1673   25.2340  -29.7342 H   0  0  0  0  0  0  0  0  0  0  0  0
   -3.7374   25.5287  -30.7905 H   0  0  0  0  0  0  0  0  0  0  0  0
   -6.4263   22.4793  -30.7188 H   0  0  0  0  0  0  0  0  0  0  0  0
   -6.6461   24.2107  -30.2738 H   0  0  0  0  0  0  0  0  0  0  0  0
   -8.0014   24.1241  -32.1528 H   0  0  0  0  0  0  0  0  0  0  0  0
   -6.4358   24.5319  -32.9334 H   0  0  0  0  0  0  0  0  0  0  0  0
   -7.0242   22.8347  -32.9334 H   0  0  0  0  0  0  0  0  0  0  0  0
   -3.4396   22.5108  -30.1550 H   0  0  0  0  0  0  0  0  0  0  0  0
   -4.7531   21.6436  -31.0385 H   0  0  0  0  0  0  0  0  0  0  0  0
   -2.6215   23.2507  -32.5122 H   0  0  0  0  0  0  0  0  0  0  0  0
   -2.3812   21.5068  -32.0147 H   0  0  0  0  0  0  0  0  0  0  0  0
   -4.6300   22.4130  -33.6980 H   0  0  0  0  0  0  0  0  0  0  0  0
   -3.2030   22.0120  -34.3460 H   0  0  0  0  0  0  0  0  0  0  0  0
   -6.3328   21.8104  -32.8078 H   0  0  0  0  0  0  0  0  0  0  0  0
   -8.5004   20.8699  -32.0677 H   0  0  0  0  0  0  0  0  0  0  0  0
   -6.9704   16.8730  -32.4985 H   0  0  0  0  0  0  0  0  0  0  0  0
   -4.8938   15.7021  -32.5473 H   0  0  0  0  0  0  0  0  0  0  0  0
   -5.7630   15.9489  -34.0998 H   0  0  0  0  0  0  0  0  0  0  0  0
   -3.9917   15.6505  -34.0998 H   0  0  0  0  0  0  0  0  0  0  0  0
   -2.1180   16.3380  -34.1290 H   0  0  0  0  0  0  0  0  0  0  0  0
    0.3590   16.9546  -34.8722 H   0  0  0  0  0  0  0  0  0  0  0  0
   -1.2575   21.6911  -34.3549 H   0  0  0  0  0  0  0  0  0  0  0  0
  1  2  1  0
  2  3  1  0
  3  4  1  0
  4  5  1  0
  3  6  1  0
  6  7  1  0
  7  8  1  0
  8  9  1  0
  9 10  2  0
 10 11  1  0
 11 12  2  0
 12 13  1  0
 13 14  1  0
 13 15  2  0
 15 16  1  0
 16 17  2  0
 17 18  1  0
 17 19  1  0
 19 20  1  0
 20 21  1  0
 21 22  2  0
 22 23  1  0
 23 24  1  0
 23 25  2  0
 25 26  1  0
 25 27  1  0
 27 28  2  0
 28 29  1  0
 29  9  1  0
 16 10  1  0
 29 19  2  0
 28 21  1  0
  1 30  1  0
  1 31  1  0
  1 32  1  0
  2 33  1  0
  2 34  1  0
  4 35  1  0
  4 36  1  0
  5 37  1  0
  5 38  1  0
  5 39  1  0
  6 40  1  0
  6 41  1  0
  7 42  1  0
  7 43  1  0
  8 44  1  0
  8 45  1  0
 11 46  1  0
 12 47  1  0
 15 48  1  0
 18 49  1  0
 18 50  1  0
 18 51  1  0
 20 52  1  0
 22 53  1  0
 27 54  1  0
M  CHG  2   8   1  17   1
M  END
>  <UniqueID>  (9) 
9

>  <SMILES>  (9) 
CCN(CC)CC[NH2+]c1c2ccc(Cl)cc2[n+](C)c2[nH]c3cc(Br)c(Br)cc3c12

>  <Energy>  (9) 
121.2569722112995

>  <Genealogy>  (9) 
CCN(CC)CC[NH2+]c1c2ccc(Cl)cc2[n+](C)c2[nH]c3cc(Br)c(Br)cc3c12 (protonated)
CCN(CC)CC[NH2+]c1c2ccc(Cl)cc2[n+](C)c2[nH]c3cc(Br)c(Br)cc3c12 (3D coordinates assigned)
CCN(CC)CC[NH2+]c1c2ccc(Cl)cc2[n+](C)c2[nH]c3cc(Br)c(Br)cc3c12 (optimized conformer: 121.2569722112995 kcal/mol)

>  <smiles>  (9) 
CCN(CC)CCNc1c2ccc(Cl)cc2[n+](C)c2[nH]c3cc(Br)c(Br)cc3c12

>  <score_type>  (9) 
oracle

>  <origin>  (9) 
adg

>  <m_score__min__energy>  (9) 
-8.7200000000000006

>  <m_primary>  (9) 
energy

$$$$
9:0
     RDKit          3D

 37 39  0  0  0  0  0  0  0  0999 V2000
   -6.3450   25.3060  -29.3550 C   0  0  0  0  0  0  0  0  0  0  0  0
   -5.4840   26.0480  -30.3820 C   0  0  0  0  0  0  0  0  0  0  0  0
   -4.3450   25.2430  -30.8500 N   0  0  0  0  0  0  0  0  0  0  0  0
   -3.8660   24.3070  -29.8240 C   0  0  0  0  0  0  0  0  0  0  0  0
   -3.4090   23.0060  -30.4770 C   0  0  0  0  0  0  0  0  0  0  0  0
   -3.8030   22.9940  -31.8300 O   0  0  0  0  0  0  0  0  0  0  0  0
   -4.7600   22.0330  -31.9580 N   0  0  0  0  0  0  0  0  0  0  0  0
   -4.3880   20.6910  -32.3030 C   0  0  0  0  0  0  0  0  0  0  0  0
   -3.1710   20.3970  -32.4540 O   0  0  0  0  0  0  0  0  0  0  0  0
   -5.4380   19.6610  -32.4830 C   0  0  0  0  0  0  0  0  0  0  0  0
   -5.0920   18.3320  -32.7810 C   0  0  0  0  0  0  0  0  0  0  0  0
   -6.0820   17.3620  -32.9470 C   0  0  0  0  0  0  0  0  0  0  0  0
   -7.4290   17.7020  -32.8210 C   0  0  0  0  0  0  0  0  0  0  0  0
   -7.8000   19.0220  -32.5250 C   0  0  0  0  0  0  0  0  0  0  0  0
   -9.1540   19.3640  -32.4010 C   0  0  0  0  0  0  0  0  0  0  0  0
   -9.5220   20.6780  -32.1100 C   0  0  0  0  0  0  0  0  0  0  0  0
   -8.5480   21.6620  -31.9390 C   0  0  0  0  0  0  0  0  0  0  0  0
   -7.1840   21.3440  -32.0570 C   0  0  0  0  0  0  0  0  0  0  0  0
   -6.8000   20.0150  -32.3520 C   0  0  0  0  0  0  0  0  0  0  0  0
   -6.1480   22.3860  -31.8750 C   0  0  0  0  0  0  0  0  0  0  0  0
   -6.4760   23.5830  -31.6480 O   0  0  0  0  0  0  0  0  0  0  0  0
   -6.0244   25.5823  -28.3397 H   0  0  0  0  0  0  0  0  0  0  0  0
   -7.4008   25.5818  -29.4939 H   0  0  0  0  0  0  0  0  0  0  0  0
   -6.2281   24.2211  -29.4939 H   0  0  0  0  0  0  0  0  0  0  0  0
   -6.1119   26.3071  -31.2472 H   0  0  0  0  0  0  0  0  0  0  0  0
   -5.0794   26.9460  -29.8921 H   0  0  0  0  0  0  0  0  0  0  0  0
   -4.6280   24.7040  -31.7020 H   0  0  0  0  0  0  0  0  0  0  0  0
   -3.0215   24.7597  -29.2837 H   0  0  0  0  0  0  0  0  0  0  0  0
   -4.6849   24.0905  -29.1222 H   0  0  0  0  0  0  0  0  0  0  0  0
   -2.3135   22.9294  -30.4137 H   0  0  0  0  0  0  0  0  0  0  0  0
   -3.8677   22.1535  -29.9547 H   0  0  0  0  0  0  0  0  0  0  0  0
   -4.0328   18.0539  -32.8843 H   0  0  0  0  0  0  0  0  0  0  0  0
   -5.7986   16.3246  -33.1783 H   0  0  0  0  0  0  0  0  0  0  0  0
   -8.2032   16.9320  -32.9543 H   0  0  0  0  0  0  0  0  0  0  0  0
   -9.9284   18.5941  -32.5335 H   0  0  0  0  0  0  0  0  0  0  0  0
  -10.5862   20.9396  -32.0149 H   0  0  0  0  0  0  0  0  0  0  0  0
   -8.8498   22.6947  -31.7101 H   0  0  0  0  0  0  0  0  0  0  0  0
  1  2  1  0
  2  3  1  0
  3  4  1  0
  4  5  1  0
  5  6  1  0
  6  7  1  0
  7  8  1  0
  8  9  2  0
  8 10  1  0
 10 11  1  0
 11 12  2  0
 12 13  1  0
 13 14  2  0
 14 15  1  0
 15 16  2  0
 16 17  1  0
 17 18  2  0
 18 19  1  0
 18 20  1  0
 20 21  2  0
 20  7  1  0
 19 10  2  0
 19 14  1  0
  1 22  1  0
  1 23  1  0
  1 24  1  0
  2 25  1  0
  2 26  1  0
  3 27  1  0
  4 28  1  0
  4 29  1  0
  5 30  1  0
  5 31  1  0
 11 32  1  0
 12 33  1  0
 13 34  1  0
 15 35  1  0
 16 36  1  0
 17 37  1  0
M  END
>  <UniqueID>  (10) 
10

>  <SMILES>  (10) 
CCNCCON1C(=O)c2cccc3cccc(c23)C1=O

>  <Energy>  (10) 
38.64487193447642

>  <Genealogy>  (10) 
CCNCCON1C(=O)c2cccc3cccc(c23)C1=O (3D coordinates assigned)
CCNCCON1C(=O)c2cccc3cccc(c23)C1=O (nonaromatic ring conformer: 38.64487193447642 kcal/mol)

>  <smiles>  (10) 
CCNCCON1C(=O)c2cccc3cccc(c23)C1=O

>  <score_type>  (10) 
oracle

>  <origin>  (10) 
adg

>  <m_score__min__energy>  (10) 
-8.8699999999999992

>  <m_primary>  (10) 
energy

$$$$
10:0
     RDKit          3D

 38 40  0  0  0  0  0  0  0  0999 V2000
   -2.2110   21.2610  -31.8480 C   0  0  0  0  0  0  0  0  0  0  0  0
   -3.3420   21.9340  -32.6210 C   0  0  0  0  0  0  0  0  0  0  0  0
   -4.6490   21.3390  -32.2680 N   0  0  0  0  0  0  0  0  0  0  0  0
   -5.4870   21.9630  -31.3740 C   0  0  0  0  0  0  0  0  0  0  0  0
   -5.1200   23.1910  -30.7330 N   0  0  0  0  0  0  0  0  0  0  0  0
   -5.6290   24.4700  -31.2380 C   0  0  0  0  0  0  0  0  0  0  0  0
   -6.1390   25.3660  -30.0870 C   0  0  0  0  0  0  0  0  0  0  0  0
   -5.4980   25.0970  -28.7810 N   0  0  0  0  0  0  0  0  0  0  0  0
   -4.1500   24.5270  -28.9060 C   0  0  0  0  0  0  0  0  0  0  0  0
   -4.2280   23.1500  -29.5720 C   0  0  0  0  0  0  0  0  0  0  0  0
   -6.6810   21.4090  -31.0590 N   0  0  0  0  0  0  0  0  0  0  0  0
   -7.1000   20.2470  -31.6090 C   0  0  0  0  0  0  0  0  0  0  0  0
   -8.3470   19.7310  -31.2430 C   0  0  0  0  0  0  0  0  0  0  0  0
   -8.8000   18.5360  -31.7970 C   0  0  0  0  0  0  0  0  0  0  0  0
   -8.0120   17.8500  -32.7190 C   0  0  0  0  0  0  0  0  0  0  0  0
   -6.7580   18.3480  -33.1000 C   0  0  0  0  0  0  0  0  0  0  0  0
   -5.8570   17.3900  -34.2750 Cl  0  0  0  0  0  0  0  0  0  0  0  0
   -6.2830   19.5680  -32.5400 C   0  0  0  0  0  0  0  0  0  0  0  0
   -5.0330   20.1550  -32.8540 C   0  0  0  0  0  0  0  0  0  0  0  0
   -4.2600   19.5920  -33.6770 O   0  0  0  0  0  0  0  0  0  0  0  0
   -2.3907   21.3679  -30.7681 H   0  0  0  0  0  0  0  0  0  0  0  0
   -2.1729   20.1932  -32.1094 H   0  0  0  0  0  0  0  0  0  0  0  0
   -1.2543   21.7369  -32.1094 H   0  0  0  0  0  0  0  0  0  0  0  0
   -3.3568   23.0065  -32.3769 H   0  0  0  0  0  0  0  0  0  0  0  0
   -3.1681   21.7874  -33.6972 H   0  0  0  0  0  0  0  0  0  0  0  0
   -4.8196   24.9936  -31.7678 H   0  0  0  0  0  0  0  0  0  0  0  0
   -6.4700   24.2650  -31.9167 H   0  0  0  0  0  0  0  0  0  0  0  0
   -5.9478   26.4154  -30.3558 H   0  0  0  0  0  0  0  0  0  0  0  0
   -7.2099   25.1462  -29.9653 H   0  0  0  0  0  0  0  0  0  0  0  0
   -6.0980   24.4400  -28.2280 H   0  0  0  0  0  0  0  0  0  0  0  0
   -5.4330   25.9930  -28.2430 H   0  0  0  0  0  0  0  0  0  0  0  0
   -3.5269   25.1944  -29.5194 H   0  0  0  0  0  0  0  0  0  0  0  0
   -3.7064   24.4214  -27.9050 H   0  0  0  0  0  0  0  0  0  0  0  0
   -3.2219   22.8487  -29.8991 H   0  0  0  0  0  0  0  0  0  0  0  0
   -4.6236   22.4254  -28.8451 H   0  0  0  0  0  0  0  0  0  0  0  0
   -8.9718   20.2702  -30.5157 H   0  0  0  0  0  0  0  0  0  0  0  0
   -9.7814   18.1332  -31.5062 H   0  0  0  0  0  0  0  0  0  0  0  0
   -8.3777   16.9076  -33.1526 H   0  0  0  0  0  0  0  0  0  0  0  0
  1  2  1  0
  2  3  1  0
  3  4  1  0
  4  5  1  0
  5  6  1  0
  6  7  1  0
  7  8  1  0
  8  9  1  0
  9 10  1  0
  4 11  2  0
 11 12  1  0
 12 13  2  0
 13 14  1  0
 14 15  2  0
 15 16  1  0
 16 17  1  0
 16 18  2  0
 18 19  1  0
 19 20  2  0
 19  3  1  0
 10  5  1  0
 18 12  1  0
  1 21  1  0
  1 22  1  0
  1 23  1  0
  2 24  1  0
  2 25  1  0
  6 26  1  0
  6 27  1  0
  7 28  1  0
  7 29  1  0
  8 30  1  0
  8 31  1  0
  9 32  1  0
  9 33  1  0
 10 34  1  0
 10 35  1  0
 13 36  1  0
 14 37  1  0
 15 38  1  0
M  CHG  1   8   1
M  END
>  <UniqueID>  (11) 
11

>  <SMILES>  (11) 
CCn1c(N2CC[NH2+]CC2)nc2cccc(Cl)c2c1=O

>  <Energy>  (11) 
57.78374042493201

>  <Genealogy>  (11) 
CCn1c(N2CC[NH2+]CC2)nc2cccc(Cl)c2c1=O (protonated)
CCn1c(N2CC[NH2+]CC2)nc2cccc(Cl)c2c1=O (3D coordinates assigned)
CCn1c(N2CC[NH2+]CC2)nc2cccc(Cl)c2c1=O (nonaromatic ring conformer: 57.78374042493201 kcal/mol)

>  <smiles>  (11) 
CCn1c(N2CCNCC2)nc2cccc(Cl)c2c1=O

>  <score_type>  (11) 
oracle

>  <origin>  (11) 
adg

>  <m_score__min__energy>  (11) 
-6.8700000000000001

>  <m_primary>  (11) 
energy

$$$$
11:0
     RDKit          3D

 46 48  0  0  0  0  0  0  0  0999 V2000
   -2.3790   19.7620  -27.0560 C   0  0  0  0  0  0  0  0  0  0  0  0
   -2.9200   20.8750  -27.9470 C   0  0  0  0  0  0  0  0  0  0  0  0
   -2.6830   22.1960  -27.3190 N   0  0  0  0  0  0  0  0  0  0  0  0
   -1.2760   22.6030  -27.4800 C   0  0  0  0  0  0  0  0  0  0  0  0
   -3.5920   23.2350  -27.8570 C   0  0  0  0  0  0  0  0  0  0  0  0
   -2.8430   24.5580  -28.0250 C   0  0  0  0  0  0  0  0  0  0  0  0
   -2.7510   24.9220  -29.4350 N   0  0  0  0  0  0  0  0  0  0  0  0
   -3.7970   24.6920  -30.3840 C   0  0  0  0  0  0  0  0  0  0  0  0
   -4.4360   25.6750  -30.8440 O   0  0  0  0  0  0  0  0  0  0  0  0
   -4.1170   23.3340  -30.8600 C   0  0  0  0  0  0  0  0  0  0  0  0
   -5.4560   23.0200  -31.1260 C   0  0  0  0  0  0  0  0  0  0  0  0
   -5.7870   21.7640  -31.6360 C   0  0  0  0  0  0  0  0  0  0  0  0
   -7.4860   21.3740  -32.0350 S   0  0  0  0  0  0  0  0  0  0  0  0
   -7.0170   19.8650  -32.8730 C   0  0  0  0  0  0  0  0  0  0  0  0
   -6.3670   19.8380  -34.0560 N   0  0  0  0  0  0  0  0  0  0  0  0
   -6.1070   18.6040  -34.4810 N   0  0  0  0  0  0  0  0  0  0  0  0
   -6.5390   17.6450  -33.6320 C   0  0  0  0  0  0  0  0  0  0  0  0
   -6.4270   16.1850  -33.9100 C   0  0  0  0  0  0  0  0  0  0  0  0
   -7.3110   18.3150  -32.2910 S   0  0  0  0  0  0  0  0  0  0  0  0
   -4.8160   20.8400  -31.8560 N   0  0  0  0  0  0  0  0  0  0  0  0
   -3.5080   21.0960  -31.5940 C   0  0  0  0  0  0  0  0  0  0  0  0
   -2.5470   20.1070  -31.8340 C   0  0  0  0  0  0  0  0  0  0  0  0
   -1.2000   20.3590  -31.5650 C   0  0  0  0  0  0  0  0  0  0  0  0
   -0.8060   21.5980  -31.0520 C   0  0  0  0  0  0  0  0  0  0  0  0
   -1.7560   22.5940  -30.8090 C   0  0  0  0  0  0  0  0  0  0  0  0
   -3.1190   22.3590  -31.0850 C   0  0  0  0  0  0  0  0  0  0  0  0
   -2.5138   20.0394  -26.0001 H   0  0  0  0  0  0  0  0  0  0  0  0
   -2.9242   18.8292  -27.2626 H   0  0  0  0  0  0  0  0  0  0  0  0
   -1.3087   19.6145  -27.2626 H   0  0  0  0  0  0  0  0  0  0  0  0
   -2.4110   20.8397  -28.9215 H   0  0  0  0  0  0  0  0  0  0  0  0
   -4.0022   20.7316  -28.0823 H   0  0  0  0  0  0  0  0  0  0  0  0
   -0.8170   22.7358  -26.4892 H   0  0  0  0  0  0  0  0  0  0  0  0
   -0.7307   21.8258  -28.0355 H   0  0  0  0  0  0  0  0  0  0  0  0
   -1.2299   23.5513  -28.0355 H   0  0  0  0  0  0  0  0  0  0  0  0
   -3.9777   22.9094  -28.8344 H   0  0  0  0  0  0  0  0  0  0  0  0
   -4.4251   23.3815  -27.1538 H   0  0  0  0  0  0  0  0  0  0  0  0
   -3.3808   25.3491  -27.4820 H   0  0  0  0  0  0  0  0  0  0  0  0
   -1.8260   24.4428  -27.6220 H   0  0  0  0  0  0  0  0  0  0  0  0
   -6.2449   23.7620  -30.9333 H   0  0  0  0  0  0  0  0  0  0  0  0
   -6.3847   15.6330  -32.9595 H   0  0  0  0  0  0  0  0  0  0  0  0
   -7.3024   15.8536  -34.4878 H   0  0  0  0  0  0  0  0  0  0  0  0
   -5.5113   15.9910  -34.4878 H   0  0  0  0  0  0  0  0  0  0  0  0
   -2.8533   19.1296  -32.2352 H   0  0  0  0  0  0  0  0  0  0  0  0
   -0.4472   19.5804  -31.7573 H   0  0  0  0  0  0  0  0  0  0  0  0
    0.2559   21.7900  -30.8387 H   0  0  0  0  0  0  0  0  0  0  0  0
   -1.4393   23.5651  -30.4008 H   0  0  0  0  0  0  0  0  0  0  0  0
  1  2  1  0
  2  3  1  0
  3  4  1  0
  3  5  1  0
  5  6  1  0
  6  7  1  0
  7  8  1  0
  8  9  2  0
  8 10  1  0
 10 11  2  0
 11 12  1  0
 12 13  1  0
 13 14  1  0
 14 15  2  0
 15 16  1  0
 16 17  2  0
 17 18  1  0
 17 19  1  0
 12 20  2  0
 20 21  1  0
 21 22  2  0
 22 23  1  0
 23 24  2  0
 24 25  1  0
 25 26  2  0
 26 10  1  0
 19 14  1  0
 26 21  1  0
  1 27  1  0
  1 28  1  0
  1 29  1  0
  2 30  1  0
  2 31  1  0
  4 32  1  0
  4 33  1  0
  4 34  1  0
  5 35  1  0
  5 36  1  0
  6 37  1  0
  6 38  1  0
 11 39  1  0
 18 40  1  0
 18 41  1  0
 18 42  1  0
 22 43  1  0
 23 44  1  0
 24 45  1  0
 25 46  1  0
M  CHG  1   7  -1
M  END
>  <UniqueID>  (12) 
12

>  <SMILES>  (12) 
CCN(C)CC[N-]C(=O)c1cc(Sc2nnc(C)s2)nc2ccccc12

>  <Energy>  (12) 
83.76354989671684

>  <Genealogy>  (12) 
CCN(C)CC[N-]C(=O)c1cc(Sc2nnc(C)s2)nc2ccccc12 (protonated)
CCN(C)CC[N-]C(=O)c1cc(Sc2nnc(C)s2)nc2ccccc12 (3D coordinates assigned)
CCN(C)CC[N-]C(=O)c1cc(Sc2nnc(C)s2)nc2ccccc12 (optimized conformer: 83.76354989671684 kcal/mol)

>  <smiles>  (12) 
CCN(C)CCNC(=O)c1cc(Sc2nnc(C)s2)nc2ccccc12

>  <score_type>  (12) 
oracle

>  <origin>  (12) 
adg

>  <m_score__min__energy>  (12) 
-9.7899999999999991

>  <m_primary>  (12) 
energy

$$$$
12:0
     RDKit          3D

 56 58  0  0  0  0  0  0  0  0999 V2000
   -5.7350   25.8400  -30.1190 C   0  0  0  0  0  0  0  0  0  0  0  0
   -5.3370   25.0730  -31.2500 O   0  0  0  0  0  0  0  0  0  0  0  0
   -5.7770   23.7670  -31.5200 C   0  0  0  0  0  0  0  0  0  0  0  0
   -7.0790   23.4230  -31.1650 C   0  0  0  0  0  0  0  0  0  0  0  0
   -7.5620   22.1340  -31.3880 C   0  0  0  0  0  0  0  0  0  0  0  0
   -6.7420   21.1350  -31.9660 C   0  0  0  0  0  0  0  0  0  0  0  0
   -5.4350   21.5000  -32.3800 C   0  0  0  0  0  0  0  0  0  0  0  0
   -4.9610   22.8070  -32.1370 C   0  0  0  0  0  0  0  0  0  0  0  0
   -4.6240   20.5520  -33.0250 C   0  0  0  0  0  0  0  0  0  0  0  0
   -3.2710   20.8820  -33.3770 N   0  0  0  0  0  0  0  0  0  0  0  0
   -2.1780   20.7950  -32.4070 C   0  0  0  0  0  0  0  0  0  0  0  0
   -0.8630   21.3040  -33.0260 C   0  0  0  0  0  0  0  0  0  0  0  0
   -0.1950   20.2780  -33.8620 N   0  0  0  0  0  0  0  0  0  0  0  0
   -0.1120   20.7480  -35.2570 C   0  0  0  0  0  0  0  0  0  0  0  0
   -0.9140   18.9900  -33.8200 C   0  0  0  0  0  0  0  0  0  0  0  0
   -5.1670   19.3020  -33.3750 C   0  0  0  0  0  0  0  0  0  0  0  0
   -4.4370   18.3970  -34.1730 C   0  0  0  0  0  0  0  0  0  0  0  0
   -4.9840   17.1640  -34.5550 C   0  0  0  0  0  0  0  0  0  0  0  0
   -4.2700   16.2400  -35.3350 O   0  0  0  0  0  0  0  0  0  0  0  0
   -2.9690   15.7520  -35.0240 C   0  0  0  0  0  0  0  0  0  0  0  0
   -6.2850   16.8350  -34.1660 C   0  0  0  0  0  0  0  0  0  0  0  0
   -6.8090   15.6000  -34.5850 O   0  0  0  0  0  0  0  0  0  0  0  0
   -6.2860   14.3280  -34.2150 C   0  0  0  0  0  0  0  0  0  0  0  0
   -7.0260   17.7350  -33.3800 C   0  0  0  0  0  0  0  0  0  0  0  0
   -6.4750   18.9660  -32.9450 C   0  0  0  0  0  0  0  0  0  0  0  0
   -7.1860   19.8380  -32.1400 N   0  0  0  0  0  0  0  0  0  0  0  0
   -8.4090   19.3760  -31.4460 C   0  0  0  0  0  0  0  0  0  0  0  0
   -5.4580   25.3061  -29.1980 H   0  0  0  0  0  0  0  0  0  0  0  0
   -5.2301   26.8170  -30.1425 H   0  0  0  0  0  0  0  0  0  0  0  0
   -6.8245   25.9897  -30.1425 H   0  0  0  0  0  0  0  0  0  0  0  0
   -7.7339   24.1767  -30.7034 H   0  0  0  0  0  0  0  0  0  0  0  0
   -8.5978   21.8892  -31.1101 H   0  0  0  0  0  0  0  0  0  0  0  0
   -3.9373   23.0768  -32.4356 H   0  0  0  0  0  0  0  0  0  0  0  0
   -3.0700   21.2260  -34.3430 H   0  0  0  0  0  0  0  0  0  0  0  0
   -2.4250   21.4083  -31.5279 H   0  0  0  0  0  0  0  0  0  0  0  0
   -2.0478   19.7432  -32.1124 H   0  0  0  0  0  0  0  0  0  0  0  0
   -1.0841   22.1805  -33.6527 H   0  0  0  0  0  0  0  0  0  0  0  0
   -0.1815   21.5586  -32.2009 H   0  0  0  0  0  0  0  0  0  0  0  0
    0.7820   20.1280  -33.5180 H   0  0  0  0  0  0  0  0  0  0  0  0
    0.0793   21.8312  -35.2682 H   0  0  0  0  0  0  0  0  0  0  0  0
    0.7078   20.2255  -35.7718 H   0  0  0  0  0  0  0  0  0  0  0  0
   -1.0611   20.5379  -35.7718 H   0  0  0  0  0  0  0  0  0  0  0  0
   -1.0783   18.6957  -32.7729 H   0  0  0  0  0  0  0  0  0  0  0  0
   -1.8841   19.0949  -34.3279 H   0  0  0  0  0  0  0  0  0  0  0  0
   -0.3156   18.2193  -34.3279 H   0  0  0  0  0  0  0  0  0  0  0  0
   -3.4214   18.6630  -34.5012 H   0  0  0  0  0  0  0  0  0  0  0  0
   -2.8461   15.7059  -33.9319 H   0  0  0  0  0  0  0  0  0  0  0  0
   -2.8434   14.7456  -35.4499 H   0  0  0  0  0  0  0  0  0  0  0  0
   -2.2125   16.4275  -35.4499 H   0  0  0  0  0  0  0  0  0  0  0  0
   -6.2538   14.2497  -33.1183 H   0  0  0  0  0  0  0  0  0  0  0  0
   -6.9308   13.5344  -34.6205 H   0  0  0  0  0  0  0  0  0  0  0  0
   -5.2695   14.2175  -34.6205 H   0  0  0  0  0  0  0  0  0  0  0  0
   -8.0571   17.4777  -33.0962 H   0  0  0  0  0  0  0  0  0  0  0  0
   -8.2571   19.4334  -30.3581 H   0  0  0  0  0  0  0  0  0  0  0  0
   -9.2568   20.0158  -31.7321 H   0  0  0  0  0  0  0  0  0  0  0  0
   -8.6220   18.3354  -31.7321 H   0  0  0  0  0  0  0  0  0  0  0  0
  1  2  1  0
  2  3  1  0
  3  4  2  0
  4  5  1  0
  5  6  2  0
  6  7  1  0
  7  8  2  0
  7  9  1  0
  9 10  1  0
 10 11  1  0
 11 12  1  0
 12 13  1  0
 13 14  1  0
 13 15  1  0
  9 16  2  0
 16 17  1  0
 17 18  2  0
 18 19  1  0
 19 20  1  0
 18 21  1  0
 21 22  1  0
 22 23  1  0
 21 24  2  0
 24 25  1  0
 25 26  2  0
 26 27  1  0
  8  3  1  0
 25 16  1  0
 26  6  1  0
  1 28  1  0
  1 29  1  0
  1 30  1  0
  4 31  1  0
  5 32  1  0
  8 33  1  0
 10 34  1  0
 11 35  1  0
 11 36  1  0
 12 37  1  0
 12 38  1  0
 13 39  1  0
 14 40  1  0
 14 41  1  0
 14 42  1  0
 15 43  1  0
 15 44  1  0
 15 45  1  0
 17 46  1  0
 20 47  1  0
 20 48  1  0
 20 49  1  0
 23 50  1  0
 23 51  1  0
 23 52  1  0
 24 53  1  0
 27 54  1  0
 27 55  1  0
 27 56  1  0
M  CHG  2  13   1  26   1
M  END
>  <UniqueID>  (13) 
13

>  <SMILES>  (13) 
COc1ccc2c(c1)c(NCC[NH+](C)C)c1cc(OC)c(OC)cc1[n+]2C

>  <Energy>  (13) 
80.70332864542593

>  <Genealogy>  (13) 
COc1ccc2c(c1)c(NCC[NH+](C)C)c1cc(OC)c(OC)cc1[n+]2C (protonated)
COc1ccc2c(c1)c(NCC[NH+](C)C)c1cc(OC)c(OC)cc1[n+]2C (3D coordinates assigned)
COc1ccc2c(c1)c(NCC[NH+](C)C)c1cc(OC)c(OC)cc1[n+]2C (optimized conformer: 80.70332864542593 kcal/mol)

>  <smiles>  (13) 
COc1ccc2c(c1)c(NCCN(C)C)c1cc(OC)c(OC)cc1[n+]2C

>  <score_type>  (13) 
oracle

>  <origin>  (13) 
adg

>  <m_score__min__energy>  (13) 
-7

>  <m_primary>  (13) 
energy

$$$$
13:0
     RDKit          3D

 42 43  0  0  0  0  0  0  0  0999 V2000
   -3.3040   18.9050  -26.2340 C   0  0  0  0  0  0  0  0  0  0  0  0
   -1.8690   19.0750  -26.7230 C   0  0  0  0  0  0  0  0  0  0  0  0
   -1.7230   20.3420  -27.5770 C   0  0  0  0  0  0  0  0  0  0  0  0
   -1.5610   21.5990  -26.7120 C   0  0  0  0  0  0  0  0  0  0  0  0
   -0.3480   22.3360  -27.0900 N   0  0  0  0  0  0  0  0  0  0  0  0
   -0.2860   23.6190  -26.3780 C   0  0  0  0  0  0  0  0  0  0  0  0
   -0.2130   24.7900  -27.3680 C   0  0  0  0  0  0  0  0  0  0  0  0
   -1.5940   25.3780  -27.6890 C   0  0  0  0  0  0  0  0  0  0  0  0
   -1.8710   25.2990  -29.1250 N   0  0  0  0  0  0  0  0  0  0  0  0
   -2.7990   24.3640  -29.7020 C   0  0  0  0  0  0  0  0  0  0  0  0
   -2.5720   22.9770  -29.6690 C   0  0  0  0  0  0  0  0  0  0  0  0
   -3.5030   22.1050  -30.2420 C   0  0  0  0  0  0  0  0  0  0  0  0
   -3.2900   20.8620  -30.2080 O   0  0  0  0  0  0  0  0  0  0  0  0
   -4.6610   22.6230  -30.8510 C   0  0  0  0  0  0  0  0  0  0  0  0
   -5.6280   21.7900  -31.4450 C   0  0  0  0  0  0  0  0  0  0  0  0
   -6.7640   22.3480  -32.0390 C   0  0  0  0  0  0  0  0  0  0  0  0
   -6.9460   23.7330  -32.0480 C   0  0  0  0  0  0  0  0  0  0  0  0
   -5.9920   24.5710  -31.4630 C   0  0  0  0  0  0  0  0  0  0  0  0
   -4.8510   24.0240  -30.8650 C   0  0  0  0  0  0  0  0  0  0  0  0
   -3.9260   24.8410  -30.2970 N   0  0  0  0  0  0  0  0  0  0  0  0
   -3.3188   18.9032  -25.1341 H   0  0  0  0  0  0  0  0  0  0  0  0
   -3.9196   19.7365  -26.6076 H   0  0  0  0  0  0  0  0  0  0  0  0
   -3.7083   17.9527  -26.6076 H   0  0  0  0  0  0  0  0  0  0  0  0
   -1.1994   19.1487  -25.8534 H   0  0  0  0  0  0  0  0  0  0  0  0
   -1.6050   18.2044  -27.3413 H   0  0  0  0  0  0  0  0  0  0  0  0
   -0.8374   20.2368  -28.2210 H   0  0  0  0  0  0  0  0  0  0  0  0
   -2.6379   20.4563  -28.1769 H   0  0  0  0  0  0  0  0  0  0  0  0
   -2.4371   22.2492  -26.8521 H   0  0  0  0  0  0  0  0  0  0  0  0
   -1.4764   21.2949  -25.6583 H   0  0  0  0  0  0  0  0  0  0  0  0
   -0.4160   22.5400  -28.1150 H   0  0  0  0  0  0  0  0  0  0  0  0
   -1.1858   23.7293  -25.7549 H   0  0  0  0  0  0  0  0  0  0  0  0
    0.6180   23.6307  -25.7514 H   0  0  0  0  0  0  0  0  0  0  0  0
    0.4143   25.5815  -26.9320 H   0  0  0  0  0  0  0  0  0  0  0  0
    0.2125   24.4065  -28.3071 H   0  0  0  0  0  0  0  0  0  0  0  0
   -2.3628   24.8129  -27.1416 H   0  0  0  0  0  0  0  0  0  0  0  0
   -1.6070   26.4350  -27.3847 H   0  0  0  0  0  0  0  0  0  0  0  0
   -1.3730   25.9470  -29.7780 H   0  0  0  0  0  0  0  0  0  0  0  0
   -1.6638   22.5784  -29.1933 H   0  0  0  0  0  0  0  0  0  0  0  0
   -5.4896   20.6987  -31.4418 H   0  0  0  0  0  0  0  0  0  0  0  0
   -7.5177   21.6936  -32.5013 H   0  0  0  0  0  0  0  0  0  0  0  0
   -7.8423   24.1654  -32.5166 H   0  0  0  0  0  0  0  0  0  0  0  0
   -6.1383   25.6612  -31.4727 H   0  0  0  0  0  0  0  0  0  0  0  0
  1  2  1  0
  2  3  1  0
  3  4  1  0
  4  5  1  0
  5  6  1  0
  6  7  1  0
  7  8  1  0
  8  9  1  0
  9 10  1  0
 10 11  2  0
 11 12  1  0
 12 13  2  0
 12 14  1  0
 14 15  2  0
 15 16  1  0
 16 17  2  0
 17 18  1  0
 18 19  2  0
 19 20  1  0
 20 10  1  0
 19 14  1  0
  1 21  1  0
  1 22  1  0
  1 23  1  0
  2 24  1  0
  2 25  1  0
  3 26  1  0
  3 27  1  0
  4 28  1  0
  4 29  1  0
  5 30  1  0
  6 31  1  0
  6 32  1  0
  7 33  1  0
  7 34  1  0
  8 35  1  0
  8 36  1  0
  9 37  1  0
 11 38  1  0
 15 39  1  0
 16 40  1  0
 17 41  1  0
 18 42  1  0
M  CHG  1  20  -1
M  END
>  <UniqueID>  (14) 
14

>  <SMILES>  (14) 
CCCCNCCCNc1cc(=O)c2ccccc2[n-]1

>  <Energy>  (14) 
33.774551900189806

>  <Genealogy>  (14) 
CCCCNCCCNc1cc(=O)c2ccccc2[n-]1 (protonated)
CCCCNCCCNc1cc(=O)c2ccccc2[n-]1 (3D coordinates assigned)
CCCCNCCCNc1cc(=O)c2ccccc2[n-]1 (optimized conformer: 33.774551900189806 kcal/mol)

>  <smiles>  (14) 
CCCCNCCCNc1cc(=O)c2ccccc2[nH]1

>  <score_type>  (14) 
oracle

>  <origin>  (14) 
adg

>  <m_score__min__energy>  (14) 
-8.9499999999999993

>  <m_primary>  (14) 
energy

$$$$
14:0
     RDKit          3D

 57 60  0  0  0  0  0  0  0  0999 V2000
   -6.0900   25.5840  -29.5810 C   0  0  0  0  0  0  0  0  0  0  0  0
   -5.2830   25.2880  -30.8360 C   0  0  0  0  0  0  0  0  0  0  0  0
   -3.9060   25.3710  -30.5320 O   0  0  0  0  0  0  0  0  0  0  0  0
   -3.4960   24.2470  -29.7730 C   0  0  0  0  0  0  0  0  0  0  0  0
   -4.1450   22.9750  -30.3230 C   0  0  0  0  0  0  0  0  0  0  0  0
   -3.3730   21.8420  -29.9700 O   0  0  0  0  0  0  0  0  0  0  0  0
   -3.2210   20.9810  -31.0810 C   0  0  0  0  0  0  0  0  0  0  0  0
   -3.0070   21.8220  -32.3370 C   0  0  0  0  0  0  0  0  0  0  0  0
   -4.2200   21.8560  -33.1530 N   0  0  0  0  0  0  0  0  0  0  0  0
   -5.2890   20.9340  -32.8980 C   0  0  0  0  0  0  0  0  0  0  0  0
   -5.0930   19.5620  -33.1120 C   0  0  0  0  0  0  0  0  0  0  0  0
   -6.1620   18.6650  -32.8970 C   0  0  0  0  0  0  0  0  0  0  0  0
   -7.3020   19.0980  -32.2510 N   0  0  0  0  0  0  0  0  0  0  0  0
   -8.2030   18.1280  -31.5950 C   0  0  0  0  0  0  0  0  0  0  0  0
   -7.5520   20.4510  -32.1270 C   0  0  0  0  0  0  0  0  0  0  0  0
   -8.8050   20.9390  -31.6790 C   0  0  0  0  0  0  0  0  0  0  0  0
   -9.0460   22.3080  -31.5680 C   0  0  0  0  0  0  0  0  0  0  0  0
   -8.0550   23.2230  -31.9080 C   0  0  0  0  0  0  0  0  0  0  0  0
   -6.8150   22.7750  -32.3580 C   0  0  0  0  0  0  0  0  0  0  0  0
   -6.5450   21.3950  -32.4640 C   0  0  0  0  0  0  0  0  0  0  0  0
   -5.9720   17.2500  -33.3550 C   0  0  0  0  0  0  0  0  0  0  0  0
   -7.0170   16.5000  -33.8220 N   0  0  0  0  0  0  0  0  0  0  0  0
   -6.8440   15.2160  -34.2400 C   0  0  0  0  0  0  0  0  0  0  0  0
   -5.5730   14.6420  -34.2440 C   0  0  0  0  0  0  0  0  0  0  0  0
   -4.4770   15.4090  -33.8530 C   0  0  0  0  0  0  0  0  0  0  0  0
   -4.6660   16.7320  -33.4390 C   0  0  0  0  0  0  0  0  0  0  0  0
   -3.4970   17.6140  -33.1010 C   0  0  0  0  0  0  0  0  0  0  0  0
   -3.7560   19.0380  -33.6090 C   0  0  0  0  0  0  0  0  0  0  0  0
   -5.4812   25.3607  -28.6924 H   0  0  0  0  0  0  0  0  0  0  0  0
   -6.3769   26.6459  -29.5715 H   0  0  0  0  0  0  0  0  0  0  0  0
   -6.9955   24.9595  -29.5715 H   0  0  0  0  0  0  0  0  0  0  0  0
   -5.5201   24.2760  -31.1959 H   0  0  0  0  0  0  0  0  0  0  0  0
   -5.5339   26.0195  -31.6183 H   0  0  0  0  0  0  0  0  0  0  0  0
   -2.4017   24.1502  -29.8286 H   0  0  0  0  0  0  0  0  0  0  0  0
   -3.8072   24.3863  -28.7272 H   0  0  0  0  0  0  0  0  0  0  0  0
   -5.1561   22.8715  -29.9023 H   0  0  0  0  0  0  0  0  0  0  0  0
   -4.2006   23.0448  -31.4194 H   0  0  0  0  0  0  0  0  0  0  0  0
   -2.3515   20.3259  -30.9234 H   0  0  0  0  0  0  0  0  0  0  0  0
   -4.1231   20.3625  -31.1976 H   0  0  0  0  0  0  0  0  0  0  0  0
   -2.7415   22.8482  -32.0428 H   0  0  0  0  0  0  0  0  0  0  0  0
   -2.1968   21.3712  -32.9289 H   0  0  0  0  0  0  0  0  0  0  0  0
   -4.2350   22.3910  -34.0520 H   0  0  0  0  0  0  0  0  0  0  0  0
   -8.1132   18.2247  -30.5029 H   0  0  0  0  0  0  0  0  0  0  0  0
   -9.2413   18.3298  -31.8968 H   0  0  0  0  0  0  0  0  0  0  0  0
   -7.9252   17.1073  -31.8968 H   0  0  0  0  0  0  0  0  0  0  0  0
   -9.6001   20.2264  -31.4146 H   0  0  0  0  0  0  0  0  0  0  0  0
  -10.0229   22.6655  -31.2104 H   0  0  0  0  0  0  0  0  0  0  0  0
   -8.2507   24.3020  -31.8214 H   0  0  0  0  0  0  0  0  0  0  0  0
   -6.0392   23.5046  -32.6332 H   0  0  0  0  0  0  0  0  0  0  0  0
   -7.9720   16.9110  -33.9020 H   0  0  0  0  0  0  0  0  0  0  0  0
   -7.7110   14.6284  -34.5762 H   0  0  0  0  0  0  0  0  0  0  0  0
   -5.4370   13.5949  -34.5525 H   0  0  0  0  0  0  0  0  0  0  0  0
   -3.4662   14.9754  -33.8698 H   0  0  0  0  0  0  0  0  0  0  0  0
   -3.3590   17.6351  -32.0099 H   0  0  0  0  0  0  0  0  0  0  0  0
   -2.5911   17.2162  -33.5818 H   0  0  0  0  0  0  0  0  0  0  0  0
   -2.9545   19.6994  -33.2482 H   0  0  0  0  0  0  0  0  0  0  0  0
   -3.7757   19.0182  -34.7086 H   0  0  0  0  0  0  0  0  0  0  0  0
  1  2  1  0
  2  3  1  0
  3  4  1  0
  4  5  1  0
  5  6  1  0
  6  7  1  0
  7  8  1  0
  8  9  1  0
  9 10  1  0
 10 11  2  0
 11 12  1  0
 12 13  2  0
 13 14  1  0
 13 15  1  0
 15 16  2  0
 16 17  1  0
 17 18  2  0
 18 19  1  0
 19 20  2  0
 12 21  1  0
 21 22  2  0
 22 23  1  0
 23 24  2  0
 24 25  1  0
 25 26  2  0
 26 27  1  0
 27 28  1  0
 20 10  1  0
 26 21  1  0
 28 11  1  0
 20 15  1  0
  1 29  1  0
  1 30  1  0
  1 31  1  0
  2 32  1  0
  2 33  1  0
  4 34  1  0
  4 35  1  0
  5 36  1  0
  5 37  1  0
  7 38  1  0
  7 39  1  0
  8 40  1  0
  8 41  1  0
  9 42  1  0
 14 43  1  0
 14 44  1  0
 14 45  1  0
 16 46  1  0
 17 47  1  0
 18 48  1  0
 19 49  1  0
 22 50  1  0
 23 51  1  0
 24 52  1  0
 25 53  1  0
 27 54  1  0
 27 55  1  0
 28 56  1  0
 28 57  1  0
M  CHG  2  13   1  22   1
M  END
>  <UniqueID>  (15) 
15

>  <SMILES>  (15) 
CCOCCOCCNc1c2c([n+](C)c3ccccc13)-c1[nH+]cccc1CC2

>  <Energy>  (15) 
86.45151535274745

>  <Genealogy>  (15) 
CCOCCOCCNc1c2c([n+](C)c3ccccc13)-c1[nH+]cccc1CC2 (protonated)
CCOCCOCCNc1c2c([n+](C)c3ccccc13)-c1[nH+]cccc1CC2 (3D coordinates assigned)
CCOCCOCCNc1c2c([n+](C)c3ccccc13)-c1[nH+]cccc1CC2 (nonaromatic ring conformer: 86.45151535274745 kcal/mol)

>  <smiles>  (15) 
CCOCCOCCNc1c2c([n+](C)c3ccccc13)-c1ncccc1CC2

>  <score_type>  (15) 
oracle

>  <origin>  (15) 
adg

>  <m_score__min__energy>  (15) 
-8.75

>  <m_primary>  (15) 
energy

$$$$
15:0
     RDKit          3D

 45 48  0  0  0  0  0  0  0  0999 V2000
   -3.5400   22.4980  -29.6570 C   0  0  0  0  0  0  0  0  0  0  0  0
   -2.7480   23.7470  -30.0300 C   0  0  0  0  0  0  0  0  0  0  0  0
   -3.6580   24.8180  -30.4650 N   0  0  0  0  0  0  0  0  0  0  0  0
   -5.0700   24.5110  -30.1860 C   0  0  0  0  0  0  0  0  0  0  0  0
   -5.9860   24.8500  -31.3720 C   0  0  0  0  0  0  0  0  0  0  0  0
   -5.9210   23.7900  -32.3760 N   0  0  0  0  0  0  0  0  0  0  0  0
   -6.4810   22.4830  -32.1720 C   0  0  0  0  0  0  0  0  0  0  0  0
   -7.7310   22.2530  -31.7280 C   0  0  0  0  0  0  0  0  0  0  0  0
   -8.0040   20.8340  -31.9410 C   0  0  0  0  0  0  0  0  0  0  0  0
   -9.1260   20.0530  -31.6790 C   0  0  0  0  0  0  0  0  0  0  0  0
   -9.0600   18.6820  -32.0000 C   0  0  0  0  0  0  0  0  0  0  0  0
   -7.8940   18.1280  -32.5850 C   0  0  0  0  0  0  0  0  0  0  0  0
   -6.7710   18.9560  -32.8650 C   0  0  0  0  0  0  0  0  0  0  0  0
   -6.8930   20.2880  -32.5090 C   0  0  0  0  0  0  0  0  0  0  0  0
   -5.9080   21.2050  -32.6560 C   0  0  0  0  0  0  0  0  0  0  0  0
   -4.6390   20.7810  -33.0750 C   0  0  0  0  0  0  0  0  0  0  0  0
   -3.5210   21.6310  -33.0510 C   0  0  0  0  0  0  0  0  0  0  0  0
   -2.2720   21.1630  -33.4530 C   0  0  0  0  0  0  0  0  0  0  0  0
   -2.1120   19.8390  -33.8500 C   0  0  0  0  0  0  0  0  0  0  0  0
   -3.2000   18.9650  -33.8480 C   0  0  0  0  0  0  0  0  0  0  0  0
   -4.4930   19.4070  -33.4760 C   0  0  0  0  0  0  0  0  0  0  0  0
   -5.5870   18.5390  -33.4460 N   0  0  0  0  0  0  0  0  0  0  0  0
   -5.4890   17.1830  -34.0240 C   0  0  0  0  0  0  0  0  0  0  0  0
   -3.5946   22.4119  -28.5617 H   0  0  0  0  0  0  0  0  0  0  0  0
   -4.5568   22.5716  -30.0701 H   0  0  0  0  0  0  0  0  0  0  0  0
   -3.0398   21.6097  -30.0701 H   0  0  0  0  0  0  0  0  0  0  0  0
   -2.1770   24.0894  -29.1544 H   0  0  0  0  0  0  0  0  0  0  0  0
   -2.0627   23.5028  -30.8551 H   0  0  0  0  0  0  0  0  0  0  0  0
   -3.5300   24.9810  -31.4920 H   0  0  0  0  0  0  0  0  0  0  0  0
   -5.1614   23.4375  -29.9640 H   0  0  0  0  0  0  0  0  0  0  0  0
   -5.3854   25.1265  -29.3306 H   0  0  0  0  0  0  0  0  0  0  0  0
   -7.0216   24.9498  -31.0149 H   0  0  0  0  0  0  0  0  0  0  0  0
   -5.6534   25.7956  -31.8249 H   0  0  0  0  0  0  0  0  0  0  0  0
   -5.6450   24.0680  -33.3420 H   0  0  0  0  0  0  0  0  0  0  0  0
   -8.4162   22.9928  -31.2885 H   0  0  0  0  0  0  0  0  0  0  0  0
  -10.0331   20.4907  -31.2366 H   0  0  0  0  0  0  0  0  0  0  0  0
   -9.9245   18.0338  -31.7938 H   0  0  0  0  0  0  0  0  0  0  0  0
   -7.8570   17.0548  -32.8233 H   0  0  0  0  0  0  0  0  0  0  0  0
   -3.6323   22.6718  -32.7129 H   0  0  0  0  0  0  0  0  0  0  0  0
   -1.4078   21.8436  -33.4566 H   0  0  0  0  0  0  0  0  0  0  0  0
   -1.1221   19.4791  -34.1673 H   0  0  0  0  0  0  0  0  0  0  0  0
   -3.0507   17.9151  -34.1403 H   0  0  0  0  0  0  0  0  0  0  0  0
   -5.4354   16.4417  -33.2130 H   0  0  0  0  0  0  0  0  0  0  0  0
   -6.3751   16.9841  -34.6447 H   0  0  0  0  0  0  0  0  0  0  0  0
   -4.5835   17.1135  -34.6447 H   0  0  0  0  0  0  0  0  0  0  0  0
  1  2  1  0
  2  3  1  0
  3  4  1  0
  4  5  1  0
  5  6  1  0
  6  7  1  0
  7  8  2  0
  8  9  1  0
  9 10  2  0
 10 11  1  0
 11 12  2  0
 12 13  1  0
 13 14  2  0
 14 15  1  0
 15 16  2  0
 16 17  1  0
 17 18  2  0
 18 19  1  0
 19 20  2  0
 20 21  1  0
 21 22  2  0
 22 23  1  0
 15  7  1  0
 21 16  1  0
 14  9  1  0
 22 13  1  0
  1 24  1  0
  1 25  1  0
  1 26  1  0
  2 27  1  0
  2 28  1  0
  3 29  1  0
  4 30  1  0
  4 31  1  0
  5 32  1  0
  5 33  1  0
  6 34  1  0
  8 35  1  0
 10 36  1  0
 11 37  1  0
 12 38  1  0
 17 39  1  0
 18 40  1  0
 19 41  1  0
 20 42  1  0
 23 43  1  0
 23 44  1  0
 23 45  1  0
M  CHG  1  22   1
M  END
>  <UniqueID>  (16) 
16

>  <SMILES>  (16) 
CCNCCNC1=Cc2cccc3c2c1c1ccccc1[n+]3C

>  <Energy>  (16) 
101.30251287923242

>  <Genealogy>  (16) 
CCNCCNC1=Cc2cccc3c2c1c1ccccc1[n+]3C (3D coordinates assigned)
CCNCCNC1=Cc2cccc3c2c1c1ccccc1[n+]3C (nonaromatic ring conformer: 101.30251287923242 kcal/mol)

>  <smiles>  (16) 
CCNCCNC1=Cc2cccc3c2c1c1ccccc1[n+]3C

>  <score_type>  (16) 
oracle

>  <origin>  (16) 
adg

>  <m_score__min__energy>  (16) 
-9.1899999999999995

>  <m_primary>  (16) 
energy

$$$$
16:0
     RDKit          3D

 45 47  0  0  0  0  0  0  0  0999 V2000
   -5.7300   18.1850  -35.2250 C   0  0  0  0  0  0  0  0  0  0  0  0
   -6.0160   17.1460  -34.1310 C   0  0  0  0  0  0  0  0  0  0  0  0
   -5.0150   17.1090  -33.0360 N   0  0  0  0  0  0  0  0  0  0  0  0
   -5.0140   15.8110  -32.3380 C   0  0  0  0  0  0  0  0  0  0  0  0
   -3.6410   17.4830  -33.4370 C   0  0  0  0  0  0  0  0  0  0  0  0
   -3.3060   18.9290  -33.0490 C   0  0  0  0  0  0  0  0  0  0  0  0
   -4.5000   19.6120  -32.5550 N   0  0  0  0  0  0  0  0  0  0  0  0
   -4.7100   21.0210  -32.7280 C   0  0  0  0  0  0  0  0  0  0  0  0
   -3.9080   21.6990  -33.4280 O   0  0  0  0  0  0  0  0  0  0  0  0
   -5.8890   21.6790  -32.1270 C   0  0  0  0  0  0  0  0  0  0  0  0
   -7.1610   21.1010  -32.2780 C   0  0  0  0  0  0  0  0  0  0  0  0
   -8.2580   21.6570  -31.6800 C   0  0  0  0  0  0  0  0  0  0  0  0
   -8.1690   22.7830  -30.9330 N   0  0  0  0  0  0  0  0  0  0  0  0
   -6.9700   23.4060  -30.7650 C   0  0  0  0  0  0  0  0  0  0  0  0
   -6.9040   24.5790  -30.0030 C   0  0  0  0  0  0  0  0  0  0  0  0
   -5.6870   25.2430  -29.8410 C   0  0  0  0  0  0  0  0  0  0  0  0
   -4.5310   24.7470  -30.4460 C   0  0  0  0  0  0  0  0  0  0  0  0
   -4.5770   23.5760  -31.2080 C   0  0  0  0  0  0  0  0  0  0  0  0
   -5.7900   22.8750  -31.3650 C   0  0  0  0  0  0  0  0  0  0  0  0
   -9.4980   20.8890  -31.9160 C   0  0  0  0  0  0  0  0  0  0  0  0
   -9.0280   19.6820  -32.7470 C   0  0  0  0  0  0  0  0  0  0  0  0
   -7.5180   19.8540  -33.0040 C   0  0  0  0  0  0  0  0  0  0  0  0
   -5.4656   19.1454  -34.7584 H   0  0  0  0  0  0  0  0  0  0  0  0
   -4.8938   17.8386  -35.8501 H   0  0  0  0  0  0  0  0  0  0  0  0
   -6.6257   18.3153  -35.8501 H   0  0  0  0  0  0  0  0  0  0  0  0
   -6.9979   17.3734  -33.6904 H   0  0  0  0  0  0  0  0  0  0  0  0
   -5.9794   16.1612  -34.6197 H   0  0  0  0  0  0  0  0  0  0  0  0
   -5.0141   15.9792  -31.2509 H   0  0  0  0  0  0  0  0  0  0  0  0
   -5.9117   15.2418  -32.6210 H   0  0  0  0  0  0  0  0  0  0  0  0
   -4.1154   15.2432  -32.6210 H   0  0  0  0  0  0  0  0  0  0  0  0
   -2.9291   16.8074  -32.9403 H   0  0  0  0  0  0  0  0  0  0  0  0
   -3.5700   17.3983  -34.5314 H   0  0  0  0  0  0  0  0  0  0  0  0
   -2.5385   18.9246  -32.2610 H   0  0  0  0  0  0  0  0  0  0  0  0
   -2.9320   19.4599  -33.9369 H   0  0  0  0  0  0  0  0  0  0  0  0
   -5.2490   19.0400  -32.1030 H   0  0  0  0  0  0  0  0  0  0  0  0
   -7.8137   24.9782  -29.5308 H   0  0  0  0  0  0  0  0  0  0  0  0
   -5.6388   26.1597  -29.2349 H   0  0  0  0  0  0  0  0  0  0  0  0
   -3.5774   25.2812  -30.3223 H   0  0  0  0  0  0  0  0  0  0  0  0
   -3.6616   23.1994  -31.6878 H   0  0  0  0  0  0  0  0  0  0  0  0
   -9.9430   20.5609  -30.9650 H   0  0  0  0  0  0  0  0  0  0  0  0
  -10.2746   21.4795  -32.4241 H   0  0  0  0  0  0  0  0  0  0  0  0
   -9.2104   18.7502  -32.1916 H   0  0  0  0  0  0  0  0  0  0  0  0
   -9.5786   19.6292  -33.6978 H   0  0  0  0  0  0  0  0  0  0  0  0
   -6.9550   18.9968  -32.6062 H   0  0  0  0  0  0  0  0  0  0  0  0
   -7.2780   19.9088  -34.0761 H   0  0  0  0  0  0  0  0  0  0  0  0
  1  2  1  0
  2  3  1  0
  3  4  1  0
  3  5  1  0
  5  6  1  0
  6  7  1  0
  7  8  1  0
  8  9  2  0
  8 10  1  0
 10 11  2  0
 11 12  1  0
 12 13  2  0
 13 14  1  0
 14 15  2  0
 15 16  1  0
 16 17  2  0
 17 18  1  0
 18 19  2  0
 12 20  1  0
 20 21  1  0
 21 22  1  0
 19 10  1  0
 22 11  1  0
 19 14  1  0
  1 23  1  0
  1 24  1  0
  1 25  1  0
  2 26  1  0
  2 27  1  0
  4 28  1  0
  4 29  1  0
  4 30  1  0
  5 31  1  0
  5 32  1  0
  6 33  1  0
  6 34  1  0
  7 35  1  0
 15 36  1  0
 16 37  1  0
 17 38  1  0
 18 39  1  0
 20 40  1  0
 20 41  1  0
 21 42  1  0
 21 43  1  0
 22 44  1  0
 22 45  1  0
M  END
>  <UniqueID>  (17) 
17

>  <SMILES>  (17) 
CCN(C)CCNC(=O)c1c2c(nc3ccccc13)CCC2

>  <Energy>  (17) 
62.62465225489932

>  <Genealogy>  (17) 
CCN(C)CCNC(=O)c1c2c(nc3ccccc13)CCC2 (3D coordinates assigned)
CCN(C)CCNC(=O)c1c2c(nc3ccccc13)CCC2 (nonaromatic ring conformer: 62.62465225489932 kcal/mol)

>  <smiles>  (17) 
CCN(C)CCNC(=O)c1c2c(nc3ccccc13)CCC2

>  <score_type>  (17) 
oracle

>  <origin>  (17) 
adg

>  <m_score__min__energy>  (17) 
-7.9299999999999997

>  <m_primary>  (17) 
energy

$$$$
17:0
     RDKit          3D

 42 44  0  0  0  0  0  0  0  0999 V2000
   -9.1060   20.2010  -32.3900 C   0  0  0  0  0  0  0  0  0  0  0  0
   -8.2100   20.8350  -31.3330 C   0  0  0  0  0  0  0  0  0  0  0  0
   -7.0160   21.4130  -31.9570 N   0  0  0  0  0  0  0  0  0  0  0  0
   -6.5570   22.6760  -31.8290 C   0  0  0  0  0  0  0  0  0  0  0  0
   -7.4350   24.0160  -31.0160 S   0  0  0  0  0  0  0  0  0  0  0  0
   -6.0590   24.4880  -29.9050 C   0  0  0  0  0  0  0  0  0  0  0  0
   -5.2250   25.6350  -30.4750 C   0  0  0  0  0  0  0  0  0  0  0  0
   -3.8440   25.2840  -30.4590 O   0  0  0  0  0  0  0  0  0  0  0  0
   -3.3120   24.1630  -29.8050 C   0  0  0  0  0  0  0  0  0  0  0  0
   -3.2150   24.1950  -28.4080 C   0  0  0  0  0  0  0  0  0  0  0  0
   -2.6960   23.1010  -27.7090 C   0  0  0  0  0  0  0  0  0  0  0  0
   -2.2680   21.9660  -28.4040 C   0  0  0  0  0  0  0  0  0  0  0  0
   -2.3570   21.9260  -29.7990 C   0  0  0  0  0  0  0  0  0  0  0  0
   -2.8780   23.0180  -30.5010 C   0  0  0  0  0  0  0  0  0  0  0  0
   -5.3160   22.8080  -32.3310 N   0  0  0  0  0  0  0  0  0  0  0  0
   -4.9550   21.6180  -32.7870 N   0  0  0  0  0  0  0  0  0  0  0  0
   -5.9840   20.7790  -32.5610 C   0  0  0  0  0  0  0  0  0  0  0  0
   -5.9340   19.3440  -32.8920 C   0  0  0  0  0  0  0  0  0  0  0  0
   -6.1060   18.3700  -31.8950 C   0  0  0  0  0  0  0  0  0  0  0  0
   -6.0800   17.0120  -32.2260 C   0  0  0  0  0  0  0  0  0  0  0  0
   -5.8950   16.6190  -33.5550 C   0  0  0  0  0  0  0  0  0  0  0  0
   -5.7430   17.5830  -34.5550 C   0  0  0  0  0  0  0  0  0  0  0  0
   -5.7700   18.9430  -34.2270 C   0  0  0  0  0  0  0  0  0  0  0  0
   -9.9088   19.6329  -31.8973 H   0  0  0  0  0  0  0  0  0  0  0  0
   -9.5468   20.9894  -33.0179 H   0  0  0  0  0  0  0  0  0  0  0  0
   -8.5092   19.5230  -33.0179 H   0  0  0  0  0  0  0  0  0  0  0  0
   -8.7675   21.6280  -30.8132 H   0  0  0  0  0  0  0  0  0  0  0  0
   -7.8993   20.0604  -30.6165 H   0  0  0  0  0  0  0  0  0  0  0  0
   -6.4767   24.8008  -28.9367 H   0  0  0  0  0  0  0  0  0  0  0  0
   -5.4002   23.6143  -29.7930 H   0  0  0  0  0  0  0  0  0  0  0  0
   -5.5387   25.8349  -31.5102 H   0  0  0  0  0  0  0  0  0  0  0  0
   -5.3776   26.5344  -29.8604 H   0  0  0  0  0  0  0  0  0  0  0  0
   -3.5493   25.0866  -27.8573 H   0  0  0  0  0  0  0  0  0  0  0  0
   -2.6244   23.1334  -26.6118 H   0  0  0  0  0  0  0  0  0  0  0  0
   -1.8614   21.1047  -27.8537 H   0  0  0  0  0  0  0  0  0  0  0  0
   -2.0166   21.0340  -30.3454 H   0  0  0  0  0  0  0  0  0  0  0  0
   -2.9489   22.9824  -31.5981 H   0  0  0  0  0  0  0  0  0  0  0  0
   -6.2617   18.6767  -30.8501 H   0  0  0  0  0  0  0  0  0  0  0  0
   -6.2052   16.2522  -31.4404 H   0  0  0  0  0  0  0  0  0  0  0  0
   -5.8691   15.5501  -33.8135 H   0  0  0  0  0  0  0  0  0  0  0  0
   -5.6020   17.2725  -35.6008 H   0  0  0  0  0  0  0  0  0  0  0  0
   -5.6624   19.7001  -35.0177 H   0  0  0  0  0  0  0  0  0  0  0  0
  1  2  1  0
  2  3  1  0
  3  4  1  0
  4  5  1  0
  5  6  1  0
  6  7  1  0
  7  8  1  0
  8  9  1  0
  9 10  2  0
 10 11  1  0
 11 12  2  0
 12 13  1  0
 13 14  2  0
  4 15  2  0
 15 16  1  0
 16 17  2  0
 17 18  1  0
 18 19  2  0
 19 20  1  0
 20 21  2  0
 21 22  1  0
 22 23  2  0
 17  3  1  0
 23 18  1  0
 14  9  1  0
  1 24  1  0
  1 25  1  0
  1 26  1  0
  2 27  1  0
  2 28  1  0
  6 29  1  0
  6 30  1  0
  7 31  1  0
  7 32  1  0
 10 33  1  0
 11 34  1  0
 12 35  1  0
 13 36  1  0
 14 37  1  0
 19 38  1  0
 20 39  1  0
 21 40  1  0
 22 41  1  0
 23 42  1  0
M  END
>  <UniqueID>  (18) 
18

>  <SMILES>  (18) 
CCn1c(SCCOc2ccccc2)nnc1-c1ccccc1

>  <Energy>  (18) 
74.98046150787708

>  <Genealogy>  (18) 
CCn1c(SCCOc2ccccc2)nnc1-c1ccccc1 (3D coordinates assigned)
CCn1c(SCCOc2ccccc2)nnc1-c1ccccc1 (optimized conformer: 74.98046150787708 kcal/mol)

>  <smiles>  (18) 
CCn1c(SCCOc2ccccc2)nnc1-c1ccccc1

>  <score_type>  (18) 
oracle

>  <origin>  (18) 
adg

>  <m_score__min__energy>  (18) 
-8.6600000000000001

>  <m_primary>  (18) 
energy

$$$$
18:0
     RDKit          3D

 69 71  0  0  0  0  0  0  0  0999 V2000
   -3.2483   19.6357  -33.4567 H   0  0  0  0  0  0  0  0  0  0  0  0
   -3.6310   20.6340  -33.1980 C   0  0  0  0  0  0  0  0  0  0  0  0
   -2.7790   21.6220  -33.1820 N   0  0  0  0  0  0  0  0  0  0  0  0
   -1.7950   21.9180  -32.2470 O   0  0  0  0  0  0  0  0  0  0  0  0
   -0.8880   20.9830  -31.6680 C   0  0  0  0  0  0  0  0  0  0  0  0
   -0.9804   20.0150  -32.1822 H   0  0  0  0  0  0  0  0  0  0  0  0
    0.1416   21.3555  -31.7732 H   0  0  0  0  0  0  0  0  0  0  0  0
   -1.2180   20.8080  -30.1920 C   0  0  0  0  0  0  0  0  0  0  0  0
   -0.7841   19.8659  -29.8257 H   0  0  0  0  0  0  0  0  0  0  0  0
   -0.7992   21.6453  -29.6145 H   0  0  0  0  0  0  0  0  0  0  0  0
   -2.6230   20.7750  -30.0380 O   0  0  0  0  0  0  0  0  0  0  0  0
   -3.0700   21.8780  -29.2710 C   0  0  0  0  0  0  0  0  0  0  0  0
   -4.1455   22.0284  -29.4464 H   0  0  0  0  0  0  0  0  0  0  0  0
   -2.8840   21.6693  -28.2071 H   0  0  0  0  0  0  0  0  0  0  0  0
   -2.3090   23.1560  -29.6670 C   0  0  0  0  0  0  0  0  0  0  0  0
   -1.2470   23.0203  -29.4144 H   0  0  0  0  0  0  0  0  0  0  0  0
   -2.4679   23.3041  -30.7453 H   0  0  0  0  0  0  0  0  0  0  0  0
   -2.8000   24.3760  -28.9850 N   0  0  0  0  0  0  0  0  0  0  0  0
   -4.0430   24.1940  -28.1940 C   0  0  0  0  0  0  0  0  0  0  0  0
   -4.8399   24.7842  -28.6701 H   0  0  0  0  0  0  0  0  0  0  0  0
   -4.2462   23.1130  -28.1850 H   0  0  0  0  0  0  0  0  0  0  0  0
   -3.9450   24.6250  -26.7220 C   0  0  0  0  0  0  0  0  0  0  0  0
   -4.1418   23.7593  -26.0726 H   0  0  0  0  0  0  0  0  0  0  0  0
   -2.9357   25.0130  -26.5199 H   0  0  0  0  0  0  0  0  0  0  0  0
   -4.6873   25.4112  -26.5199 H   0  0  0  0  0  0  0  0  0  0  0  0
   -1.7340   25.2070  -28.3830 C   0  0  0  0  0  0  0  0  0  0  0  0
   -1.5611   26.0877  -29.0189 H   0  0  0  0  0  0  0  0  0  0  0  0
   -2.0548   25.5171  -27.3775 H   0  0  0  0  0  0  0  0  0  0  0  0
   -0.4330   24.4160  -28.2590 C   0  0  0  0  0  0  0  0  0  0  0  0
   -0.1927   24.2699  -27.1956 H   0  0  0  0  0  0  0  0  0  0  0  0
   -0.5514   23.4368  -28.7461 H   0  0  0  0  0  0  0  0  0  0  0  0
    0.3818   24.9717  -28.7461 H   0  0  0  0  0  0  0  0  0  0  0  0
   -5.0640   20.7560  -32.8960 C   0  0  0  0  0  0  0  0  0  0  0  0
   -6.0350   19.7480  -32.8820 C   0  0  0  0  0  0  0  0  0  0  0  0
   -5.8900   18.3530  -33.3560 C   0  0  0  0  0  0  0  0  0  0  0  0
   -4.7580   17.9400  -34.0790 C   0  0  0  0  0  0  0  0  0  0  0  0
   -3.9636   18.6646  -34.3111 H   0  0  0  0  0  0  0  0  0  0  0  0
   -4.6350   16.6150  -34.5050 C   0  0  0  0  0  0  0  0  0  0  0  0
   -3.7394   16.3033  -35.0624 H   0  0  0  0  0  0  0  0  0  0  0  0
   -5.6390   15.6810  -34.2300 C   0  0  0  0  0  0  0  0  0  0  0  0
   -5.4600   14.3610  -34.6670 O   0  0  0  0  0  0  0  0  0  0  0  0
   -5.2100   13.2530  -33.8060 C   0  0  0  0  0  0  0  0  0  0  0  0
   -4.5312   12.5463  -34.3058 H   0  0  0  0  0  0  0  0  0  0  0  0
   -6.1594   12.7483  -33.5736 H   0  0  0  0  0  0  0  0  0  0  0  0
   -4.5700   13.7450  -32.5180 C   0  0  0  0  0  0  0  0  0  0  0  0
   -5.1123   13.3281  -31.6566 H   0  0  0  0  0  0  0  0  0  0  0  0
   -3.5199   13.4194  -32.4827 H   0  0  0  0  0  0  0  0  0  0  0  0
   -4.6147   14.8435  -32.4827 H   0  0  0  0  0  0  0  0  0  0  0  0
   -6.7870   16.0970  -33.5310 C   0  0  0  0  0  0  0  0  0  0  0  0
   -7.5906   15.3761  -33.3196 H   0  0  0  0  0  0  0  0  0  0  0  0
   -6.9110   17.4220  -33.1040 C   0  0  0  0  0  0  0  0  0  0  0  0
   -7.8165   17.7386  -32.5656 H   0  0  0  0  0  0  0  0  0  0  0  0
   -7.1700   20.2150  -32.3000 N   0  0  0  0  0  0  0  0  0  0  0  0
   -6.9380   21.4670  -31.9440 N   0  0  0  0  0  0  0  0  0  0  0  0
   -7.7850   22.3110  -31.3010 C   0  0  0  0  0  0  0  0  0  0  0  0
   -9.1660   21.8740  -30.9130 C   0  0  0  0  0  0  0  0  0  0  0  0
   -9.2478   21.8481  -29.8164 H   0  0  0  0  0  0  0  0  0  0  0  0
   -9.9026   22.5830  -31.3190 H   0  0  0  0  0  0  0  0  0  0  0  0
   -9.3606   20.8704  -31.3190 H   0  0  0  0  0  0  0  0  0  0  0  0
   -7.2980   23.5820  -30.9490 C   0  0  0  0  0  0  0  0  0  0  0  0
   -7.9383   24.2943  -30.4080 H   0  0  0  0  0  0  0  0  0  0  0  0
   -5.9740   23.9320  -31.3000 C   0  0  0  0  0  0  0  0  0  0  0  0
   -5.4230   25.2700  -30.9080 C   0  0  0  0  0  0  0  0  0  0  0  0
   -5.3915   25.3465  -29.8111 H   0  0  0  0  0  0  0  0  0  0  0  0
   -4.4061   25.3806  -31.3126 H   0  0  0  0  0  0  0  0  0  0  0  0
   -6.0671   26.0646  -31.3126 H   0  0  0  0  0  0  0  0  0  0  0  0
   -5.1740   23.0260  -31.9400 N   0  0  0  0  0  0  0  0  0  0  0  0
   -4.1860   23.2620  -32.1850 H   0  0  0  0  0  0  0  0  0  0  0  0
   -5.6860   21.8110  -32.2640 C   0  0  0  0  0  0  0  0  0  0  0  0
  1  2  1  0
  2  3  2  0
  3  4  1  0
  4  5  1  0
  5  6  1  0
  5  7  1  0
  5  8  1  0
  8  9  1  0
  8 10  1  0
  8 11  1  0
 11 12  1  0
 12 13  1  0
 12 14  1  0
 12 15  1  0
 15 16  1  0
 15 17  1  0
 15 18  1  0
 18 19  1  0
 19 20  1  0
 19 21  1  0
 19 22  1  0
 22 23  1  0
 22 24  1  0
 22 25  1  0
 18 26  1  0
 26 27  1  0
 26 28  1  0
 26 29  1  0
 29 30  1  0
 29 31  1  0
 29 32  1  0
  2 33  1  0
 33 34  1  0
 34 35  1  0
 35 36  2  0
 36 37  1  0
 36 38  1  0
 38 39  1  0
 38 40  2  0
 40 41  1  0
 41 42  1  0
 42 43  1  0
 42 44  1  0
 42 45  1  0
 45 46  1  0
 45 47  1  0
 45 48  1  0
 40 49  1  0
 49 50  1  0
 49 51  2  0
 51 52  1  0
 34 53  2  0
 53 54  1  0
 54 55  1  0
 55 56  1  0
 56 57  1  0
 56 58  1  0
 56 59  1  0
 55 60  2  0
 60 61  1  0
 60 62  1  0
 62 63  1  0
 63 64  1  0
 63 65  1  0
 63 66  1  0
 62 67  2  0
 67 68  1  0
 67 69  1  0
 69 33  2  0
 51 35  1  0
 69 54  1  0
M  CHG  1  67   1
M  END
>  <UniqueID>  (19) 
19

>  <SMILES>  (19) 
CCOc1ccc(-c2nn3c(C)cc(C)[nH+]c3c2/C=N\OCCOCCN(CC)CC)cc1

>  <Energy>  (19) 
121.88525906972086

>  <Genealogy>  (19) 
CCOc1ccc(-c2nn3c(C)cc(C)[nH+]c3c2C=NOCCOCCN(CC)CC)cc1 (protonated)
CCOc1ccc(-c2nn3c(C)cc(C)[nH+]c3c2/C=N\OCCOCCN(CC)CC)cc1 (cis-trans isomerization)
CCOc1ccc(-c2nn3c(C)cc(C)[nH+]c3c2/C=N\OCCOCCN(CC)CC)cc1 (3D coordinates assigned)
CCOc1ccc(-c2nn3c(C)cc(C)[nH+]c3c2/C=N\OCCOCCN(CC)CC)cc1 (optimized conformer: 121.88525906972086 kcal/mol)

>  <smiles>  (19) 
CCOc1ccc(-c2nn3c(C)cc(C)nc3c2C=NOCCOCCN(CC)CC)cc1

>  <score_type>  (19) 
oracle

>  <origin>  (19) 
adg

>  <m_score__min__energy>  (19) 
-8.2400000000000002

>  <m_primary>  (19) 
energy

$$$$
19:0
     RDKit          3D

 54 56  0  0  0  0  0  0  0  0999 V2000
   -5.3860   25.0330  -30.8260 C   0  0  0  0  0  0  0  0  0  0  0  0
   -6.1980   24.0580  -31.6890 C   0  0  0  0  0  0  0  0  0  0  0  0
   -7.4000   23.5160  -31.0150 N   0  0  0  0  0  0  0  0  0  0  0  0
   -7.0530   22.6740  -29.8540 C   0  0  0  0  0  0  0  0  0  0  0  0
   -8.3120   22.8220  -31.9510 C   0  0  0  0  0  0  0  0  0  0  0  0
   -9.1070   21.7340  -31.2150 C   0  0  0  0  0  0  0  0  0  0  0  0
   -9.8540   20.8050  -32.1850 C   0  0  0  0  0  0  0  0  0  0  0  0
   -8.9210   20.1250  -33.0950 N   0  0  0  0  0  0  0  0  0  0  0  0
   -8.0850   19.1420  -32.3970 C   0  0  0  0  0  0  0  0  0  0  0  0
   -6.6560   19.3710  -32.7710 C   0  0  0  0  0  0  0  0  0  0  0  0
   -5.9970   20.5940  -32.7560 C   0  0  0  0  0  0  0  0  0  0  0  0
   -4.7560   20.4680  -33.2850 N   0  0  0  0  0  0  0  0  0  0  0  0
   -3.7760   21.5510  -33.4140 C   0  0  0  0  0  0  0  0  0  0  0  0
   -2.9360   21.6610  -32.1620 C   0  0  0  0  0  0  0  0  0  0  0  0
   -3.5380   22.0850  -30.9640 C   0  0  0  0  0  0  0  0  0  0  0  0
   -2.7810   22.2170  -29.7980 C   0  0  0  0  0  0  0  0  0  0  0  0
   -1.4150   21.9320  -29.8150 C   0  0  0  0  0  0  0  0  0  0  0  0
   -0.8010   21.5260  -31.0010 C   0  0  0  0  0  0  0  0  0  0  0  0
   -1.5490   21.3920  -32.1760 C   0  0  0  0  0  0  0  0  0  0  0  0
   -0.6300   20.8410  -33.7660 Br  0  0  0  0  0  0  0  0  0  0  0  0
   -4.6230   19.1660  -33.6300 C   0  0  0  0  0  0  0  0  0  0  0  0
   -3.5240   18.5250  -34.2170 C   0  0  0  0  0  0  0  0  0  0  0  0
   -3.6400   17.1570  -34.5190 C   0  0  0  0  0  0  0  0  0  0  0  0
   -4.8320   16.4580  -34.2360 C   0  0  0  0  0  0  0  0  0  0  0  0
   -5.9200   17.1190  -33.6410 C   0  0  0  0  0  0  0  0  0  0  0  0
   -5.7770   18.4750  -33.3440 C   0  0  0  0  0  0  0  0  0  0  0  0
   -5.5652   24.8178  -29.7623 H   0  0  0  0  0  0  0  0  0  0  0  0
   -4.3152   24.9153  -31.0486 H   0  0  0  0  0  0  0  0  0  0  0  0
   -5.6955   26.0648  -31.0486 H   0  0  0  0  0  0  0  0  0  0  0  0
   -6.5199   24.5864  -32.5985 H   0  0  0  0  0  0  0  0  0  0  0  0
   -5.5417   23.2025  -31.9066 H   0  0  0  0  0  0  0  0  0  0  0  0
   -7.2777   23.2192  -28.9254 H   0  0  0  0  0  0  0  0  0  0  0  0
   -7.6417   21.7453  -29.8855 H   0  0  0  0  0  0  0  0  0  0  0  0
   -5.9809   22.4298  -29.8855 H   0  0  0  0  0  0  0  0  0  0  0  0
   -9.0117   23.5522  -32.3837 H   0  0  0  0  0  0  0  0  0  0  0  0
   -7.7163   22.3519  -32.7473 H   0  0  0  0  0  0  0  0  0  0  0  0
   -8.4102   21.1318  -30.6134 H   0  0  0  0  0  0  0  0  0  0  0  0
   -9.8551   22.2326  -30.5811 H   0  0  0  0  0  0  0  0  0  0  0  0
  -10.4048   20.0494  -31.6056 H   0  0  0  0  0  0  0  0  0  0  0  0
  -10.5458   21.4131  -32.7863 H   0  0  0  0  0  0  0  0  0  0  0  0
   -9.4820   19.6160  -33.8180 H   0  0  0  0  0  0  0  0  0  0  0  0
   -8.2058   19.2596  -31.3100 H   0  0  0  0  0  0  0  0  0  0  0  0
   -8.3874   18.1240  -32.6839 H   0  0  0  0  0  0  0  0  0  0  0  0
   -6.4225   21.5318  -32.3694 H   0  0  0  0  0  0  0  0  0  0  0  0
   -3.1199   21.3444  -34.2724 H   0  0  0  0  0  0  0  0  0  0  0  0
   -4.3132   22.4990  -33.5648 H   0  0  0  0  0  0  0  0  0  0  0  0
   -4.6136   22.3145  -30.9452 H   0  0  0  0  0  0  0  0  0  0  0  0
   -3.2620   22.5460  -28.8650 H   0  0  0  0  0  0  0  0  0  0  0  0
   -0.8219   22.0273  -28.8935 H   0  0  0  0  0  0  0  0  0  0  0  0
    0.2775   21.3101  -31.0120 H   0  0  0  0  0  0  0  0  0  0  0  0
   -2.5974   19.0762  -34.4352 H   0  0  0  0  0  0  0  0  0  0  0  0
   -2.7936   16.6269  -34.9801 H   0  0  0  0  0  0  0  0  0  0  0  0
   -4.9104   15.3889  -34.4826 H   0  0  0  0  0  0  0  0  0  0  0  0
   -6.8548   16.5845  -33.4165 H   0  0  0  0  0  0  0  0  0  0  0  0
  1  2  1  0
  2  3  1  0
  3  4  1  0
  3  5  1  0
  5  6  1  0
  6  7  1  0
  7  8  1  0
  8  9  1  0
  9 10  1  0
 10 11  2  0
 11 12  1  0
 12 13  1  0
 13 14  1  0
 14 15  2  0
 15 16  1  0
 16 17  2  0
 17 18  1  0
 18 19  2  0
 19 20  1  0
 12 21  1  0
 21 22  2  0
 22 23  1  0
 23 24  2  0
 24 25  1  0
 25 26  2  0
 26 10  1  0
 19 14  1  0
 26 21  1  0
  1 27  1  0
  1 28  1  0
  1 29  1  0
  2 30  1  0
  2 31  1  0
  4 32  1  0
  4 33  1  0
  4 34  1  0
  5 35  1  0
  5 36  1  0
  6 37  1  0
  6 38  1  0
  7 39  1  0
  7 40  1  0
  8 41  1  0
  9 42  1  0
  9 43  1  0
 11 44  1  0
 13 45  1  0
 13 46  1  0
 15 47  1  0
 16 48  1  0
 17 49  1  0
 18 50  1  0
 22 51  1  0
 23 52  1  0
 24 53  1  0
 25 54  1  0
M  END
>  <UniqueID>  (20) 
20

>  <SMILES>  (20) 
CCN(C)CCCNCc1cn(Cc2ccccc2Br)c2ccccc12

>  <Energy>  (20) 
83.95656655635808

>  <Genealogy>  (20) 
CCN(C)CCCNCc1cn(Cc2ccccc2Br)c2ccccc12 (3D coordinates assigned)
CCN(C)CCCNCc1cn(Cc2ccccc2Br)c2ccccc12 (optimized conformer: 83.95656655635808 kcal/mol)

>  <smiles>  (20) 
CCN(C)CCCNCc1cn(Cc2ccccc2Br)c2ccccc12

>  <score_type>  (20) 
oracle

>  <origin>  (20) 
adg

>  <m_score__min__energy>  (20) 
-8.5899999999999999

>  <m_primary>  (20) 
energy

$$$$
20:0
     RDKit          3D

 57 61  0  0  0  0  0  0  0  0999 V2000
   -5.3230   24.7730  -29.8970 C   0  0  0  0  0  0  0  0  0  0  0  0
   -3.8390   24.4290  -30.0910 C   0  0  0  0  0  0  0  0  0  0  0  0
   -3.5460   22.9790  -30.0460 N   0  0  0  0  0  0  0  0  0  0  0  0
   -3.8760   22.3800  -28.7410 C   0  0  0  0  0  0  0  0  0  0  0  0
   -2.1680   22.6560  -30.4770 C   0  0  0  0  0  0  0  0  0  0  0  0
   -2.1200   21.3300  -31.2500 C   0  0  0  0  0  0  0  0  0  0  0  0
   -1.3540   21.4130  -32.5910 C   0  0  0  0  0  0  0  0  0  0  0  0
   -2.2350   21.4820  -33.7700 N   0  0  0  0  0  0  0  0  0  0  0  0
   -3.4180   20.6960  -33.5790 C   0  0  0  0  0  0  0  0  0  0  0  0
   -3.7500   19.4130  -33.7500 C   0  0  0  0  0  0  0  0  0  0  0  0
   -3.3110   18.1510  -34.0950 O   0  0  0  0  0  0  0  0  0  0  0  0
   -4.2930   17.1250  -34.0360 C   0  0  0  0  0  0  0  0  0  0  0  0
   -3.9330   15.8340  -34.4310 C   0  0  0  0  0  0  0  0  0  0  0  0
   -4.8890   14.8210  -34.4890 C   0  0  0  0  0  0  0  0  0  0  0  0
   -6.2220   15.0920  -34.1840 C   0  0  0  0  0  0  0  0  0  0  0  0
   -6.6110   16.3710  -33.7740 C   0  0  0  0  0  0  0  0  0  0  0  0
   -5.6600   17.3960  -33.6130 C   0  0  0  0  0  0  0  0  0  0  0  0
   -6.0610   18.8010  -33.1650 C   0  0  0  0  0  0  0  0  0  0  0  0
   -5.0750   19.6860  -33.3530 C   0  0  0  0  0  0  0  0  0  0  0  0
   -4.7900   20.9550  -33.1030 C   0  0  0  0  0  0  0  0  0  0  0  0
   -5.5930   21.9400  -32.6060 C   0  0  0  0  0  0  0  0  0  0  0  0
   -5.0670   23.0710  -32.4150 O   0  0  0  0  0  0  0  0  0  0  0  0
   -6.9870   21.7250  -32.3680 C   0  0  0  0  0  0  0  0  0  0  0  0
   -7.7420   22.9060  -32.1390 C   0  0  0  0  0  0  0  0  0  0  0  0
   -9.1150   22.8840  -31.9410 C   0  0  0  0  0  0  0  0  0  0  0  0
   -9.7980   21.6860  -31.9670 C   0  0  0  0  0  0  0  0  0  0  0  0
   -9.1110   20.4940  -32.1560 C   0  0  0  0  0  0  0  0  0  0  0  0
   -7.7010   20.4370  -32.3330 C   0  0  0  0  0  0  0  0  0  0  0  0
   -7.1360   19.1560  -32.3820 N   0  0  0  0  0  0  0  0  0  0  0  0
   -7.7070   18.1200  -31.4930 C   0  0  0  0  0  0  0  0  0  0  0  0
   -5.5497   24.8256  -28.8219 H   0  0  0  0  0  0  0  0  0  0  0  0
   -5.5383   25.7449  -30.3651 H   0  0  0  0  0  0  0  0  0  0  0  0
   -5.9440   23.9950  -30.3651 H   0  0  0  0  0  0  0  0  0  0  0  0
   -3.5193   24.8162  -31.0697 H   0  0  0  0  0  0  0  0  0  0  0  0
   -3.2936   24.8899  -29.2542 H   0  0  0  0  0  0  0  0  0  0  0  0
   -3.5149   23.0355  -27.9348 H   0  0  0  0  0  0  0  0  0  0  0  0
   -4.9664   22.2620  -28.6569 H   0  0  0  0  0  0  0  0  0  0  0  0
   -3.3931   21.3953  -28.6569 H   0  0  0  0  0  0  0  0  0  0  0  0
   -1.7976   23.4628  -31.1266 H   0  0  0  0  0  0  0  0  0  0  0  0
   -1.5385   22.5574  -29.5803 H   0  0  0  0  0  0  0  0  0  0  0  0
   -1.6281   20.5774  -30.6163 H   0  0  0  0  0  0  0  0  0  0  0  0
   -3.1595   21.0642  -31.4923 H   0  0  0  0  0  0  0  0  0  0  0  0
   -0.7224   22.3135  -32.5756 H   0  0  0  0  0  0  0  0  0  0  0  0
   -0.7635   20.4895  -32.6830 H   0  0  0  0  0  0  0  0  0  0  0  0
   -2.5270   22.4770  -33.9140 H   0  0  0  0  0  0  0  0  0  0  0  0
   -1.7380   21.1640  -34.6310 H   0  0  0  0  0  0  0  0  0  0  0  0
   -2.8885   15.6155  -34.6979 H   0  0  0  0  0  0  0  0  0  0  0  0
   -4.5899   13.8024  -34.7770 H   0  0  0  0  0  0  0  0  0  0  0  0
   -6.9738   14.2933  -34.2665 H   0  0  0  0  0  0  0  0  0  0  0  0
   -7.6728   16.5785  -33.5750 H   0  0  0  0  0  0  0  0  0  0  0  0
   -7.2190   23.8735  -32.1179 H   0  0  0  0  0  0  0  0  0  0  0  0
   -9.6595   23.8231  -31.7631 H   0  0  0  0  0  0  0  0  0  0  0  0
  -10.8903   21.6747  -31.8376 H   0  0  0  0  0  0  0  0  0  0  0  0
   -9.6818   19.5538  -32.1694 H   0  0  0  0  0  0  0  0  0  0  0  0
   -7.5477   18.4090  -30.4436 H   0  0  0  0  0  0  0  0  0  0  0  0
   -8.7854   18.0240  -31.6872 H   0  0  0  0  0  0  0  0  0  0  0  0
   -7.2123   17.1569  -31.6872 H   0  0  0  0  0  0  0  0  0  0  0  0
  1  2  1  0
  2  3  1  0
  3  4  1  0
  3  5  1  0
  5  6  1  0
  6  7  1  0
  7  8  1  0
  8  9  1  0
  9 10  2  0
 10 11  1  0
 11 12  1  0
 12 13  2  0
 13 14  1  0
 14 15  2  0
 15 16  1  0
 16 17  2  0
 17 18  1  0
 18 19  1  0
 19 20  2  0
 20 21  1  0
 21 22  2  0
 21 23  1  0
 23 24  2  0
 24 25  1  0
 25 26  2  0
 26 27  1  0
 27 28  2  0
 28 29  1  0
 29 30  1  0
 20  9  1  0
 28 23  1  0
 19 10  1  0
 17 12  1  0
 29 18  2  0
  1 31  1  0
  1 32  1  0
  1 33  1  0
  2 34  1  0
  2 35  1  0
  4 36  1  0
  4 37  1  0
  4 38  1  0
  5 39  1  0
  5 40  1  0
  6 41  1  0
  6 42  1  0
  7 43  1  0
  7 44  1  0
  8 45  1  0
  8 46  1  0
 13 47  1  0
 14 48  1  0
 15 49  1  0
 16 50  1  0
 24 51  1  0
 25 52  1  0
 26 53  1  0
 27 54  1  0
 30 55  1  0
 30 56  1  0
 30 57  1  0
M  CHG  2   8   1  29   1
M  END
>  <UniqueID>  (21) 
21

>  <SMILES>  (21) 
CCN(C)CCC[NH2+]C1=C2Oc3ccccc3-c3c2c1c(=O)c1ccccc1[n+]3C

>  <Energy>  (21) 
129.0795383145811

>  <Genealogy>  (21) 
CCN(C)CCC[NH2+]C1=C2Oc3ccccc3-c3c2c1c(=O)c1ccccc1[n+]3C (protonated)
CCN(C)CCC[NH2+]C1=C2Oc3ccccc3-c3c2c1c(=O)c1ccccc1[n+]3C (3D coordinates assigned)
CCN(C)CCC[NH2+]C1=C2Oc3ccccc3-c3c2c1c(=O)c1ccccc1[n+]3C (nonaromatic ring conformer: 129.0795383145811 kcal/mol)

>  <smiles>  (21) 
CCN(C)CCCNC1=C2Oc3ccccc3-c3c2c1c(=O)c1ccccc1[n+]3C

>  <score_type>  (21) 
oracle

>  <origin>  (21) 
adg

>  <m_score__min__energy>  (21) 
-8.8200000000000003

>  <m_primary>  (21) 
energy

$$$$
21:0
     RDKit          3D

 54 54  0  0  0  0  0  0  0  0999 V2000
   -6.4360   19.0570  -33.4970 C   0  0  0  0  0  0  0  0  0  0  0  0
   -6.8900   19.1370  -32.0430 C   0  0  0  0  0  0  0  0  0  0  0  0
   -7.1510   20.5440  -31.6620 N   0  0  0  0  0  0  0  0  0  0  0  0
   -8.5710   20.7470  -31.2930 C   0  0  0  0  0  0  0  0  0  0  0  0
   -9.4860   20.2040  -32.3880 C   0  0  0  0  0  0  0  0  0  0  0  0
   -6.7270   21.4900  -32.7230 C   0  0  0  0  0  0  0  0  0  0  0  0
   -7.0230   22.9300  -32.2980 C   0  0  0  0  0  0  0  0  0  0  0  0
   -5.8310   23.5600  -31.8620 O   0  0  0  0  0  0  0  0  0  0  0  0
   -6.0190   24.2780  -30.6550 C   0  0  0  0  0  0  0  0  0  0  0  0
   -5.2240   25.5820  -30.6930 C   0  0  0  0  0  0  0  0  0  0  0  0
   -3.8600   25.3040  -30.4580 O   0  0  0  0  0  0  0  0  0  0  0  0
   -3.7350   24.2800  -29.4970 C   0  0  0  0  0  0  0  0  0  0  0  0
   -2.3530   23.6460  -29.6350 C   0  0  0  0  0  0  0  0  0  0  0  0
   -1.5170   23.8430  -28.3670 C   0  0  0  0  0  0  0  0  0  0  0  0
   -0.5210   24.9080  -28.5840 N   0  0  0  0  0  0  0  0  0  0  0  0
    0.5390   24.9080  -27.5630 C   0  0  0  0  0  0  0  0  0  0  0  0
    0.0470   25.5150  -26.2750 C   0  0  0  0  0  0  0  0  0  0  0  0
   -0.8830   26.5650  -26.2840 C   0  0  0  0  0  0  0  0  0  0  0  0
   -1.2960   27.1390  -25.0810 C   0  0  0  0  0  0  0  0  0  0  0  0
   -0.7700   26.6620  -23.8790 C   0  0  0  0  0  0  0  0  0  0  0  0
    0.1370   25.6480  -23.8840 N   0  0  0  0  0  0  0  0  0  0  0  0
    0.5530   25.0710  -25.0450 C   0  0  0  0  0  0  0  0  0  0  0  0
   -5.3533   18.8662  -33.5331 H   0  0  0  0  0  0  0  0  0  0  0  0
   -6.9695   18.2390  -34.0032 H   0  0  0  0  0  0  0  0  0  0  0  0
   -6.6578   20.0081  -34.0032 H   0  0  0  0  0  0  0  0  0  0  0  0
   -7.8121   18.5504  -31.9181 H   0  0  0  0  0  0  0  0  0  0  0  0
   -6.0958   18.7333  -31.3978 H   0  0  0  0  0  0  0  0  0  0  0  0
   -8.7800   20.2193  -30.3507 H   0  0  0  0  0  0  0  0  0  0  0  0
   -8.7586   21.8240  -31.1715 H   0  0  0  0  0  0  0  0  0  0  0  0
  -10.3454   19.6940  -31.9282 H   0  0  0  0  0  0  0  0  0  0  0  0
   -9.8443   21.0358  -33.0123 H   0  0  0  0  0  0  0  0  0  0  0  0
   -8.9276   19.4910  -33.0123 H   0  0  0  0  0  0  0  0  0  0  0  0
   -5.6469   21.3780  -32.8989 H   0  0  0  0  0  0  0  0  0  0  0  0
   -7.2834   21.2670  -33.6453 H   0  0  0  0  0  0  0  0  0  0  0  0
   -7.4367   23.4847  -33.1531 H   0  0  0  0  0  0  0  0  0  0  0  0
   -7.7502   22.9213  -31.4727 H   0  0  0  0  0  0  0  0  0  0  0  0
   -7.0877   24.5065  -30.5299 H   0  0  0  0  0  0  0  0  0  0  0  0
   -5.6671   23.6652  -29.8120 H   0  0  0  0  0  0  0  0  0  0  0  0
   -5.3381   26.0533  -31.6804 H   0  0  0  0  0  0  0  0  0  0  0  0
   -5.5997   26.2653  -29.9172 H   0  0  0  0  0  0  0  0  0  0  0  0
   -3.8492   24.7031  -28.4881 H   0  0  0  0  0  0  0  0  0  0  0  0
   -4.5139   23.5197  -29.6557 H   0  0  0  0  0  0  0  0  0  0  0  0
   -2.4709   22.5684  -29.8218 H   0  0  0  0  0  0  0  0  0  0  0  0
   -1.8313   24.1332  -30.4720 H   0  0  0  0  0  0  0  0  0  0  0  0
   -2.1780   24.1257  -27.5344 H   0  0  0  0  0  0  0  0  0  0  0  0
   -0.9970   22.9041  -28.1261 H   0  0  0  0  0  0  0  0  0  0  0  0
   -0.0570   24.7350  -29.5060 H   0  0  0  0  0  0  0  0  0  0  0  0
    0.8568   23.8720  -27.3742 H   0  0  0  0  0  0  0  0  0  0  0  0
    1.3830   25.5082  -27.9337 H   0  0  0  0  0  0  0  0  0  0  0  0
   -1.2862   26.9354  -27.2380 H   0  0  0  0  0  0  0  0  0  0  0  0
   -2.0289   27.9593  -25.0798 H   0  0  0  0  0  0  0  0  0  0  0  0
   -1.0898   27.1072  -22.9253 H   0  0  0  0  0  0  0  0  0  0  0  0
    0.5250   25.3060  -22.9760 H   0  0  0  0  0  0  0  0  0  0  0  0
    1.2886   24.2536  -25.0179 H   0  0  0  0  0  0  0  0  0  0  0  0
  1  2  1  0
  2  3  1  0
  3  4  1  0
  4  5  1  0
  3  6  1  0
  6  7  1  0
  7  8  1  0
  8  9  1  0
  9 10  1  0
 10 11  1  0
 11 12  1  0
 12 13  1  0
 13 14  1  0
 14 15  1  0
 15 16  1  0
 16 17  1  0
 17 18  2  0
 18 19  1  0
 19 20  2  0
 20 21  1  0
 21 22  2  0
 22 17  1  0
  1 23  1  0
  1 24  1  0
  1 25  1  0
  2 26  1  0
  2 27  1  0
  4 28  1  0
  4 29  1  0
  5 30  1  0
  5 31  1  0
  5 32  1  0
  6 33  1  0
  6 34  1  0
  7 35  1  0
  7 36  1  0
  9 37  1  0
  9 38  1  0
 10 39  1  0
 10 40  1  0
 12 41  1  0
 12 42  1  0
 13 43  1  0
 13 44  1  0
 14 45  1  0
 14 46  1  0
 15 47  1  0
 16 48  1  0
 16 49  1  0
 18 50  1  0
 19 51  1  0
 20 52  1  0
 21 53  1  0
 22 54  1  0
M  CHG  1  21   1
M  END
>  <UniqueID>  (22) 
22

>  <SMILES>  (22) 
CCN(CC)CCOCCOCCCNCc1ccc[nH+]c1

>  <Energy>  (22) 
43.43532017947455

>  <Genealogy>  (22) 
CCN(CC)CCOCCOCCCNCc1ccc[nH+]c1 (protonated)
CCN(CC)CCOCCOCCCNCc1ccc[nH+]c1 (3D coordinates assigned)
CCN(CC)CCOCCOCCCNCc1ccc[nH+]c1 (optimized conformer: 43.43532017947455 kcal/mol)

>  <smiles>  (22) 
CCN(CC)CCOCCOCCCNCc1cccnc1

>  <score_type>  (22) 
oracle

>  <origin>  (22) 
adg

>  <m_score__min__energy>  (22) 
-7.0199999999999996

>  <m_primary>  (22) 
energy

$$$$
22:0
     RDKit          3D

 61 64  0  0  0  0  0  0  0  0999 V2000
   -2.7840   24.4170  -27.4240 C   0  0  0  0  0  0  0  0  0  0  0  0
   -2.5300   24.5460  -28.9210 C   0  0  0  0  0  0  0  0  0  0  0  0
   -3.7890   24.4550  -29.6550 N   0  0  0  0  0  0  0  0  0  0  0  0
   -4.8190   23.6390  -29.3600 C   0  0  0  0  0  0  0  0  0  0  0  0
   -5.8360   23.9080  -30.2500 C   0  0  0  0  0  0  0  0  0  0  0  0
   -7.1970   23.2790  -30.2850 C   0  0  0  0  0  0  0  0  0  0  0  0
   -7.5040   22.7560  -31.6330 N   0  0  0  0  0  0  0  0  0  0  0  0
   -6.8140   21.4640  -31.8790 C   0  0  0  0  0  0  0  0  0  0  0  0
   -7.4840   20.6680  -33.0100 C   0  0  0  0  0  0  0  0  0  0  0  0
   -8.9080   20.3550  -32.7200 N   0  0  0  0  0  0  0  0  0  0  0  0
   -9.1120   18.9420  -32.3370 C   0  0  0  0  0  0  0  0  0  0  0  0
   -7.9140   18.4010  -31.5450 C   0  0  0  0  0  0  0  0  0  0  0  0
   -7.0110   17.5150  -32.4120 C   0  0  0  0  0  0  0  0  0  0  0  0
   -5.7210   18.2200  -32.7140 C   0  0  0  0  0  0  0  0  0  0  0  0
   -5.0040   18.9110  -31.8110 N   0  0  0  0  0  0  0  0  0  0  0  0
   -3.9900   19.4540  -32.5220 C   0  0  0  0  0  0  0  0  0  0  0  0
   -2.9260   20.3180  -31.9610 C   0  0  0  0  0  0  0  0  0  0  0  0
   -3.0190   20.7550  -30.6270 C   0  0  0  0  0  0  0  0  0  0  0  0
   -2.0200   21.5630  -30.0730 C   0  0  0  0  0  0  0  0  0  0  0  0
   -0.9200   21.9450  -30.8450 C   0  0  0  0  0  0  0  0  0  0  0  0
   -0.8190   21.5230  -32.1720 C   0  0  0  0  0  0  0  0  0  0  0  0
   -1.8150   20.7150  -32.7310 C   0  0  0  0  0  0  0  0  0  0  0  0
   -4.0650   19.1370  -33.7990 O   0  0  0  0  0  0  0  0  0  0  0  0
   -5.1260   18.3790  -33.9500 C   0  0  0  0  0  0  0  0  0  0  0  0
   -5.5920   17.8310  -35.2590 C   0  0  0  0  0  0  0  0  0  0  0  0
   -9.5160   21.2620  -31.7200 C   0  0  0  0  0  0  0  0  0  0  0  0
   -8.9700   22.6890  -31.8650 C   0  0  0  0  0  0  0  0  0  0  0  0
   -5.3610   24.9230  -31.0560 C   0  0  0  0  0  0  0  0  0  0  0  0
   -4.1090   25.2420  -30.6710 N   0  0  0  0  0  0  0  0  0  0  0  0
   -1.9367   24.8473  -26.8699 H   0  0  0  0  0  0  0  0  0  0  0  0
   -3.7060   24.9561  -27.1607 H   0  0  0  0  0  0  0  0  0  0  0  0
   -2.8926   23.3545  -27.1607 H   0  0  0  0  0  0  0  0  0  0  0  0
   -2.0585   25.5182  -29.1272 H   0  0  0  0  0  0  0  0  0  0  0  0
   -1.8659   23.7308  -29.2443 H   0  0  0  0  0  0  0  0  0  0  0  0
   -4.8439   22.8917  -28.5532 H   0  0  0  0  0  0  0  0  0  0  0  0
   -7.2293   22.4508  -29.5618 H   0  0  0  0  0  0  0  0  0  0  0  0
   -7.9438   24.0446  -30.0275 H   0  0  0  0  0  0  0  0  0  0  0  0
   -5.7685   21.6652  -32.1556 H   0  0  0  0  0  0  0  0  0  0  0  0
   -6.8699   20.8647  -30.9583 H   0  0  0  0  0  0  0  0  0  0  0  0
   -7.4345   21.2604  -33.9355 H   0  0  0  0  0  0  0  0  0  0  0  0
   -6.9461   19.7138  -33.1111 H   0  0  0  0  0  0  0  0  0  0  0  0
  -10.0164   18.8661  -31.7154 H   0  0  0  0  0  0  0  0  0  0  0  0
   -9.2197   18.3453  -33.2548 H   0  0  0  0  0  0  0  0  0  0  0  0
   -7.3241   19.2494  -31.1679 H   0  0  0  0  0  0  0  0  0  0  0  0
   -8.3002   17.7886  -30.7168 H   0  0  0  0  0  0  0  0  0  0  0  0
   -6.7958   16.5802  -31.8737 H   0  0  0  0  0  0  0  0  0  0  0  0
   -7.5280   17.2960  -33.3579 H   0  0  0  0  0  0  0  0  0  0  0  0
   -5.2220   19.0180  -30.7960 H   0  0  0  0  0  0  0  0  0  0  0  0
   -3.8837   20.4592  -30.0148 H   0  0  0  0  0  0  0  0  0  0  0  0
   -2.1008   21.8979  -29.0283 H   0  0  0  0  0  0  0  0  0  0  0  0
   -0.1339   22.5779  -30.4075 H   0  0  0  0  0  0  0  0  0  0  0  0
    0.0461   21.8267  -32.7797 H   0  0  0  0  0  0  0  0  0  0  0  0
   -1.7302   20.3878  -33.7778 H   0  0  0  0  0  0  0  0  0  0  0  0
   -6.2952   17.0041  -35.0809 H   0  0  0  0  0  0  0  0  0  0  0  0
   -6.0962   18.6245  -35.8301 H   0  0  0  0  0  0  0  0  0  0  0  0
   -4.7278   17.4608  -35.8301 H   0  0  0  0  0  0  0  0  0  0  0  0
  -10.6063   21.2779  -31.8652 H   0  0  0  0  0  0  0  0  0  0  0  0
   -9.2655   20.8923  -30.7147 H   0  0  0  0  0  0  0  0  0  0  0  0
   -9.1843   23.0485  -32.8823 H   0  0  0  0  0  0  0  0  0  0  0  0
   -9.4607   23.3167  -31.1065 H   0  0  0  0  0  0  0  0  0  0  0  0
   -5.9152   25.3957  -31.8803 H   0  0  0  0  0  0  0  0  0  0  0  0
  1  2  1  0
  2  3  1  0
  3  4  1  0
  4  5  2  0
  5  6  1  0
  6  7  1  0
  7  8  1  0
  8  9  1  0
  9 10  1  0
 10 11  1  0
 11 12  1  0
 12 13  1  0
 13 14  1  0
 14 15  1  0
 15 16  2  0
 16 17  1  0
 17 18  2  0
 18 19  1  0
 19 20  2  0
 20 21  1  0
 21 22  2  0
 16 23  1  0
 23 24  1  0
 24 25  1  0
 10 26  1  0
 26 27  1  0
  5 28  1  0
 28 29  2  0
 29  3  1  0
 27  7  1  0
 24 14  2  0
 22 17  1  0
  1 30  1  0
  1 31  1  0
  1 32  1  0
  2 33  1  0
  2 34  1  0
  4 35  1  0
  6 36  1  0
  6 37  1  0
  8 38  1  0
  8 39  1  0
  9 40  1  0
  9 41  1  0
 11 42  1  0
 11 43  1  0
 12 44  1  0
 12 45  1  0
 13 46  1  0
 13 47  1  0
 15 48  1  0
 18 49  1  0
 19 50  1  0
 20 51  1  0
 21 52  1  0
 22 53  1  0
 25 54  1  0
 25 55  1  0
 25 56  1  0
 26 57  1  0
 26 58  1  0
 27 59  1  0
 27 60  1  0
 28 61  1  0
M  CHG  1  15   1
M  END
>  <UniqueID>  (23) 
23

>  <SMILES>  (23) 
CCn1cc(CN2CCN(CCCc3[nH+]c(-c4ccccc4)oc3C)CC2)cn1

>  <Energy>  (23) 
127.99051238671858

>  <Genealogy>  (23) 
CCn1cc(CN2CCN(CCCc3[nH+]c(-c4ccccc4)oc3C)CC2)cn1 (protonated)
CCn1cc(CN2CCN(CCCc3[nH+]c(-c4ccccc4)oc3C)CC2)cn1 (3D coordinates assigned)
CCn1cc(CN2CCN(CCCc3[nH+]c(-c4ccccc4)oc3C)CC2)cn1 (nonaromatic ring conformer: 127.99051238671858 kcal/mol)

>  <smiles>  (23) 
CCn1cc(CN2CCN(CCCc3nc(-c4ccccc4)oc3C)CC2)cn1

>  <score_type>  (23) 
oracle

>  <origin>  (23) 
adg

>  <m_score__min__energy>  (23) 
-8.6999999999999993

>  <m_primary>  (23) 
energy

$$$$
23:0
     RDKit          3D

 76 79  0  0  0  0  0  0  0  0999 V2000
   -7.0427   24.8743  -31.9058 H   0  0  0  0  0  0  0  0  0  0  0  0
   -6.3630   24.4840  -31.1340 C   0  0  0  0  0  0  0  0  0  0  0  0
   -6.7130   23.3560  -30.4010 C   0  0  0  0  0  0  0  0  0  0  0  0
   -7.6821   22.8675  -30.5804 H   0  0  0  0  0  0  0  0  0  0  0  0
   -5.8430   22.8380  -29.4380 C   0  0  0  0  0  0  0  0  0  0  0  0
   -6.1498   21.9585  -28.8529 H   0  0  0  0  0  0  0  0  0  0  0  0
   -4.5730   23.4220  -29.1990 C   0  0  0  0  0  0  0  0  0  0  0  0
   -3.5940   22.9360  -28.2600 C   0  0  0  0  0  0  0  0  0  0  0  0
   -3.6500   21.7970  -27.6100 N   0  0  0  0  0  0  0  0  0  0  0  0
   -2.7820   20.6340  -27.4380 C   0  0  0  0  0  0  0  0  0  0  0  0
   -3.3553   19.8312  -26.9513 H   0  0  0  0  0  0  0  0  0  0  0  0
   -1.9232   20.9378  -26.8215 H   0  0  0  0  0  0  0  0  0  0  0  0
   -2.2430   20.1150  -28.7850 C   0  0  0  0  0  0  0  0  0  0  0  0
   -2.6476   20.7447  -29.5911 H   0  0  0  0  0  0  0  0  0  0  0  0
   -2.5607   19.0668  -28.8862 H   0  0  0  0  0  0  0  0  0  0  0  0
   -0.7040   20.1420  -28.8650 C   0  0  0  0  0  0  0  0  0  0  0  0
   -0.3289   19.1097  -28.8051 H   0  0  0  0  0  0  0  0  0  0  0  0
   -0.3351   20.7537  -28.0285 H   0  0  0  0  0  0  0  0  0  0  0  0
   -0.2150   20.7540  -30.1230 N   0  0  0  0  0  0  0  0  0  0  0  0
   -0.5700   19.9260  -31.3050 C   0  0  0  0  0  0  0  0  0  0  0  0
   -1.5347   19.4323  -31.1163 H   0  0  0  0  0  0  0  0  0  0  0  0
    0.2311   19.1875  -31.4563 H   0  0  0  0  0  0  0  0  0  0  0  0
   -0.6860   20.7700  -32.5830 C   0  0  0  0  0  0  0  0  0  0  0  0
   -0.9242   20.1057  -33.4268 H   0  0  0  0  0  0  0  0  0  0  0  0
    0.2742   21.2834  -32.7391 H   0  0  0  0  0  0  0  0  0  0  0  0
   -1.7470   21.8050  -32.4730 N   0  0  0  0  0  0  0  0  0  0  0  0
   -3.0180   21.3510  -33.0850 C   0  0  0  0  0  0  0  0  0  0  0  0
   -2.9902   20.2565  -33.1913 H   0  0  0  0  0  0  0  0  0  0  0  0
   -3.1192   21.8426  -34.0638 H   0  0  0  0  0  0  0  0  0  0  0  0
   -4.2420   21.7380  -32.2270 C   0  0  0  0  0  0  0  0  0  0  0  0
   -4.9296   22.3337  -32.8453 H   0  0  0  0  0  0  0  0  0  0  0  0
   -3.8715   22.3072  -31.3617 H   0  0  0  0  0  0  0  0  0  0  0  0
   -5.0020   20.5190  -31.6850 C   0  0  0  0  0  0  0  0  0  0  0  0
   -5.3466   20.7293  -30.6617 H   0  0  0  0  0  0  0  0  0  0  0  0
   -4.3315   19.6470  -31.6795 H   0  0  0  0  0  0  0  0  0  0  0  0
   -6.1190   20.2430  -32.5090 O   0  0  0  0  0  0  0  0  0  0  0  0
   -6.1000   18.8950  -32.9380 C   0  0  0  0  0  0  0  0  0  0  0  0
   -5.2395   18.3805  -32.4854 H   0  0  0  0  0  0  0  0  0  0  0  0
   -6.0168   18.8654  -34.0345 H   0  0  0  0  0  0  0  0  0  0  0  0
   -7.3950   18.1920  -32.5110 C   0  0  0  0  0  0  0  0  0  0  0  0
   -7.1289   17.2684  -31.9761 H   0  0  0  0  0  0  0  0  0  0  0  0
   -7.9713   17.9947  -33.4270 H   0  0  0  0  0  0  0  0  0  0  0  0
   -8.2520   19.0120  -31.6290 N   0  0  0  0  0  0  0  0  0  0  0  0
   -8.7260   18.3750  -30.9480 H   0  0  0  0  0  0  0  0  0  0  0  0
   -7.6490   19.6610  -31.0710 H   0  0  0  0  0  0  0  0  0  0  0  0
   -9.2790   19.8090  -32.3270 C   0  0  0  0  0  0  0  0  0  0  0  0
  -10.2709   19.4185  -32.0557 H   0  0  0  0  0  0  0  0  0  0  0  0
   -9.0869   19.7228  -33.4067 H   0  0  0  0  0  0  0  0  0  0  0  0
   -9.2240   21.2970  -31.9670 C   0  0  0  0  0  0  0  0  0  0  0  0
   -9.2198   21.4096  -30.8728 H   0  0  0  0  0  0  0  0  0  0  0  0
   -8.3088   21.7418  -32.3849 H   0  0  0  0  0  0  0  0  0  0  0  0
  -10.1039   21.8081  -32.3849 H   0  0  0  0  0  0  0  0  0  0  0  0
   -1.9470   22.2830  -31.0830 C   0  0  0  0  0  0  0  0  0  0  0  0
   -2.7376   21.6817  -30.6104 H   0  0  0  0  0  0  0  0  0  0  0  0
   -2.2287   23.3455  -31.1249 H   0  0  0  0  0  0  0  0  0  0  0  0
   -0.6640   22.1630  -30.2460 C   0  0  0  0  0  0  0  0  0  0  0  0
   -0.8565   22.5643  -29.2401 H   0  0  0  0  0  0  0  0  0  0  0  0
    0.1294   22.7312  -30.7537 H   0  0  0  0  0  0  0  0  0  0  0  0
   -2.4270   23.7140  -28.0290 C   0  0  0  0  0  0  0  0  0  0  0  0
   -2.2320   24.9160  -28.7420 C   0  0  0  0  0  0  0  0  0  0  0  0
   -3.1320   25.2980  -29.6750 N   0  0  0  0  0  0  0  0  0  0  0  0
   -4.2700   24.6100  -29.9220 C   0  0  0  0  0  0  0  0  0  0  0  0
   -5.1490   25.1170  -30.8870 C   0  0  0  0  0  0  0  0  0  0  0  0
   -4.8781   26.0206  -31.4528 H   0  0  0  0  0  0  0  0  0  0  0  0
   -0.9890   25.7550  -28.5830 C   0  0  0  0  0  0  0  0  0  0  0  0
   -0.2932   25.5138  -29.4001 H   0  0  0  0  0  0  0  0  0  0  0  0
   -1.2923   26.8120  -28.6103 H   0  0  0  0  0  0  0  0  0  0  0  0
   -0.2850   25.5070  -27.2500 C   0  0  0  0  0  0  0  0  0  0  0  0
    0.6927   26.0111  -27.2538 H   0  0  0  0  0  0  0  0  0  0  0  0
   -0.9037   25.9054  -26.4324 H   0  0  0  0  0  0  0  0  0  0  0  0
   -0.0820   24.0100  -27.0450 C   0  0  0  0  0  0  0  0  0  0  0  0
    0.4868   23.6026  -27.8938 H   0  0  0  0  0  0  0  0  0  0  0  0
    0.4698   23.8518  -26.1067 H   0  0  0  0  0  0  0  0  0  0  0  0
   -1.4310   23.2920  -26.9520 C   0  0  0  0  0  0  0  0  0  0  0  0
   -1.2557   22.2101  -27.0460 H   0  0  0  0  0  0  0  0  0  0  0  0
   -1.8729   23.5631  -25.9819 H   0  0  0  0  0  0  0  0  0  0  0  0
  1  2  1  0
  2  3  2  0
  3  4  1  0
  3  5  1  0
  5  6  1  0
  5  7  2  0
  7  8  1  0
  8  9  2  0
  9 10  1  0
 10 11  1  0
 10 12  1  0
 10 13  1  0
 13 14  1  0
 13 15  1  0
 13 16  1  0
 16 17  1  0
 16 18  1  0
 16 19  1  0
 19 20  1  0
 20 21  1  0
 20 22  1  0
 20 23  1  0
 23 24  1  0
 23 25  1  0
 23 26  1  0
 26 27  1  0
 27 28  1  0
 27 29  1  0
 27 30  1  0
 30 31  1  0
 30 32  1  0
 30 33  1  0
 33 34  1  0
 33 35  1  0
 33 36  1  0
 36 37  1  0
 37 38  1  0
 37 39  1  0
 37 40  1  0
 40 41  1  0
 40 42  1  0
 40 43  1  0
 43 44  1  0
 43 45  1  0
 43 46  1  0
 46 47  1  0
 46 48  1  0
 46 49  1  0
 49 50  1  0
 49 51  1  0
 49 52  1  0
 26 53  1  0
 53 54  1  0
 53 55  1  0
 53 56  1  0
 56 57  1  0
 56 58  1  0
  8 59  1  0
 59 60  2  0
 60 61  1  0
 61 62  1  0
 62 63  2  0
 63 64  1  0
 60 65  1  0
 65 66  1  0
 65 67  1  0
 65 68  1  0
 68 69  1  0
 68 70  1  0
 68 71  1  0
 71 72  1  0
 71 73  1  0
 71 74  1  0
 74 75  1  0
 74 76  1  0
 63  2  1  0
 62  7  1  0
 56 19  1  0
 74 59  1  0
M  CHG  2  43   1  61  -1
M  END
>  <UniqueID>  (24) 
24

>  <SMILES>  (24) 
CC[NH2+]CCOCCCN1CCN(CCC/N=c2/c3c([n-]c4ccccc24)CCCC3)CC1

>  <Energy>  (24) 
110.2461969373339

>  <Genealogy>  (24) 
CC[NH2+]CCOCCCN1CCN(CCCN=c2c3c([n-]c4ccccc24)CCCC3)CC1 (protonated)
CC[NH2+]CCOCCCN1CCN(CCC/N=c2/c3c([n-]c4ccccc24)CCCC3)CC1 (cis-trans isomerization)
CC[NH2+]CCOCCCN1CCN(CCC/N=c2/c3c([n-]c4ccccc24)CCCC3)CC1 (3D coordinates assigned)
CC[NH2+]CCOCCCN1CCN(CCC/N=c2/c3c([n-]c4ccccc24)CCCC3)CC1 (nonaromatic ring conformer: 110.2461969373339 kcal/mol)

>  <smiles>  (24) 
CCNCCOCCCN1CCN(CCCN=c2c3c([nH]c4ccccc24)CCCC3)CC1

>  <score_type>  (24) 
oracle

>  <origin>  (24) 
adg

>  <m_score__min__energy>  (24) 
-9.6099999999999994

>  <m_primary>  (24) 
energy

$$$$
24:0
     RDKit          3D

 42 44  0  0  0  0  0  0  0  0999 V2000
   -2.0570   20.8300  -30.8580 C   0  0  0  0  0  0  0  0  0  0  0  0
   -1.1730   19.8910  -31.6840 C   0  0  0  0  0  0  0  0  0  0  0  0
   -1.9590   18.9410  -32.4810 N   0  0  0  0  0  0  0  0  0  0  0  0
   -0.9130   17.6460  -33.0970 S   0  0  0  0  0  0  0  0  0  0  0  0
   -2.3260   16.6050  -33.5860 C   0  0  0  0  0  0  0  0  0  0  0  0
   -2.5740   16.7360  -35.0950 C   0  0  0  0  0  0  0  0  0  0  0  0
   -3.9910   16.5360  -35.4430 N   0  0  0  0  0  0  0  0  0  0  0  0
   -4.8590   17.3550  -34.6290 C   0  0  0  0  0  0  0  0  0  0  0  0
   -6.1060   16.8640  -34.2140 C   0  0  0  0  0  0  0  0  0  0  0  0
   -6.9380   17.6420  -33.4120 C   0  0  0  0  0  0  0  0  0  0  0  0
   -6.5310   18.9190  -33.0120 C   0  0  0  0  0  0  0  0  0  0  0  0
   -7.5360   19.8520  -32.0370 S   0  0  0  0  0  0  0  0  0  0  0  0
   -6.8540   21.3430  -31.6740 C   0  0  0  0  0  0  0  0  0  0  0  0
   -7.5340   22.2260  -30.8980 N   0  0  0  0  0  0  0  0  0  0  0  0
   -7.0270   23.4430  -30.5840 C   0  0  0  0  0  0  0  0  0  0  0  0
   -5.7650   23.8260  -31.0610 C   0  0  0  0  0  0  0  0  0  0  0  0
   -5.2190   25.1180  -30.7400 N   0  0  0  0  0  0  0  0  0  0  0  0
   -5.9610   26.0470  -30.3610 O   0  0  0  0  0  0  0  0  0  0  0  0
   -3.8650   25.3480  -30.8360 O   0  0  0  0  0  0  0  0  0  0  0  0
   -5.0460   22.9220  -31.8590 C   0  0  0  0  0  0  0  0  0  0  0  0
   -5.5790   21.6550  -32.1900 C   0  0  0  0  0  0  0  0  0  0  0  0
   -4.8330   20.7520  -33.0130 C   0  0  0  0  0  0  0  0  0  0  0  0
   -3.6970   21.1290  -33.4170 O   0  0  0  0  0  0  0  0  0  0  0  0
   -5.2820   19.4500  -33.4080 C   0  0  0  0  0  0  0  0  0  0  0  0
   -4.4560   18.6410  -34.2250 C   0  0  0  0  0  0  0  0  0  0  0  0
   -1.8852   20.6475  -29.7869 H   0  0  0  0  0  0  0  0  0  0  0  0
   -1.8064   21.8741  -31.0969 H   0  0  0  0  0  0  0  0  0  0  0  0
   -3.1143   20.6428  -31.0969 H   0  0  0  0  0  0  0  0  0  0  0  0
   -0.5539   20.4951  -32.3635 H   0  0  0  0  0  0  0  0  0  0  0  0
   -0.5538   19.3106  -30.9842 H   0  0  0  0  0  0  0  0  0  0  0  0
   -2.3750   19.4350  -33.3050 H   0  0  0  0  0  0  0  0  0  0  0  0
   -2.1070   15.5549  -33.3422 H   0  0  0  0  0  0  0  0  0  0  0  0
   -3.2235   16.9338  -33.0416 H   0  0  0  0  0  0  0  0  0  0  0  0
   -2.2678   17.7417  -35.4188 H   0  0  0  0  0  0  0  0  0  0  0  0
   -1.9871   15.9570  -35.6036 H   0  0  0  0  0  0  0  0  0  0  0  0
   -4.2320   15.5290  -35.2890 H   0  0  0  0  0  0  0  0  0  0  0  0
   -4.1420   16.7330  -36.4610 H   0  0  0  0  0  0  0  0  0  0  0  0
   -6.4286   15.8590  -34.5236 H   0  0  0  0  0  0  0  0  0  0  0  0
   -7.9157   17.2517  -33.0931 H   0  0  0  0  0  0  0  0  0  0  0  0
   -7.6071   24.1325  -29.9531 H   0  0  0  0  0  0  0  0  0  0  0  0
   -4.0509   23.2043  -32.2332 H   0  0  0  0  0  0  0  0  0  0  0  0
   -3.4784   19.0260  -34.5508 H   0  0  0  0  0  0  0  0  0  0  0  0
  1  2  1  0
  2  3  1  0
  3  4  1  0
  4  5  1  0
  5  6  1  0
  6  7  1  0
  7  8  1  0
  8  9  2  0
  9 10  1  0
 10 11  2  0
 11 12  1  0
 12 13  1  0
 13 14  2  0
 14 15  1  0
 15 16  2  0
 16 17  1  0
 17 18  2  0
 17 19  1  0
 16 20  1  0
 20 21  2  0
 21 22  1  0
 22 23  2  0
 22 24  1  0
 24 25  2  0
 25  8  1  0
 24 11  1  0
 21 13  1  0
  1 26  1  0
  1 27  1  0
  1 28  1  0
  2 29  1  0
  2 30  1  0
  3 31  1  0
  5 32  1  0
  5 33  1  0
  6 34  1  0
  6 35  1  0
  7 36  1  0
  7 37  1  0
  9 38  1  0
 10 39  1  0
 15 40  1  0
 20 41  1  0
 25 42  1  0
M  CHG  3   7   1  17   1  19  -1
M  END
>  <UniqueID>  (25) 
25

>  <SMILES>  (25) 
CCNSCC[NH2+]c1ccc2sc3ncc([N+](=O)[O-])cc3c(=O)c2c1

>  <Energy>  (25) 
51.61714953423927

>  <Genealogy>  (25) 
CCNSCC[NH2+]c1ccc2sc3ncc([N+](=O)[O-])cc3c(=O)c2c1 (protonated)
CCNSCC[NH2+]c1ccc2sc3ncc([N+](=O)[O-])cc3c(=O)c2c1 (3D coordinates assigned)
CCNSCC[NH2+]c1ccc2sc3ncc([N+](=O)[O-])cc3c(=O)c2c1 (optimized conformer: 51.61714953423927 kcal/mol)

>  <smiles>  (25) 
CCNSCCNc1ccc2sc3ncc([N+](=O)[O-])cc3c(=O)c2c1

>  <score_type>  (25) 
oracle

>  <origin>  (25) 
adg

>  <m_score__min__energy>  (25) 
-7.4900000000000002

>  <m_primary>  (25) 
energy

$$$$
25:0
     RDKit          3D

 32 34  0  0  0  0  0  0  0  0999 V2000
   -6.5260   19.6770  -32.8800 C   0  0  0  0  0  0  0  0  0  0  0  0
   -7.6190   20.5320  -32.4200 N   0  0  0  0  0  0  0  0  0  0  0  0
   -8.9240   20.1970  -32.4160 C   0  0  0  0  0  0  0  0  0  0  0  0
   -9.6790   21.2540  -31.9530 C   0  0  0  0  0  0  0  0  0  0  0  0
   -8.7970   22.2750  -31.6630 C   0  0  0  0  0  0  0  0  0  0  0  0
   -7.5300   21.7930  -31.9420 C   0  0  0  0  0  0  0  0  0  0  0  0
   -6.2510   22.5940  -31.8380 C   0  0  0  0  0  0  0  0  0  0  0  0
   -6.1130   23.2640  -30.5230 N   0  0  2  0  0  0  0  0  0  0  0  0
   -6.3080   24.7300  -30.5980 C   0  0  0  0  0  0  0  0  0  0  0  0
   -5.0640   25.2950  -29.9000 C   0  0  1  0  0  0  0  0  0  0  0  0
   -4.8270   24.2490  -28.8380 C   0  0  0  0  0  0  0  0  0  0  0  0
   -4.7870   23.1440  -29.8600 C   0  0  2  0  0  0  0  0  0  0  0  0
   -3.6610   23.6960  -30.7580 C   0  0  0  0  0  0  0  0  0  0  0  0
   -3.9340   25.1400  -30.8270 N   0  0  0  0  0  0  0  0  0  0  0  0
   -5.9948   19.2615  -32.0110 H   0  0  0  0  0  0  0  0  0  0  0  0
   -6.9338   18.8557  -33.4876 H   0  0  0  0  0  0  0  0  0  0  0  0
   -5.8270   20.2705  -33.4876 H   0  0  0  0  0  0  0  0  0  0  0  0
   -9.3274   19.2246  -32.7348 H   0  0  0  0  0  0  0  0  0  0  0  0
  -10.7726   21.2786  -31.8372 H   0  0  0  0  0  0  0  0  0  0  0  0
   -9.0512   23.2760  -31.2842 H   0  0  0  0  0  0  0  0  0  0  0  0
   -5.3964   21.9164  -31.9813 H   0  0  0  0  0  0  0  0  0  0  0  0
   -6.2785   23.3746  -32.6125 H   0  0  0  0  0  0  0  0  0  0  0  0
   -6.8400   22.8670  -29.8790 H   0  0  0  0  0  0  0  0  0  0  0  0
   -6.3585   25.0666  -31.6440 H   0  0  0  0  0  0  0  0  0  0  0  0
   -7.2475   25.0609  -30.1313 H   0  0  0  0  0  0  0  0  0  0  0  0
   -5.1666   26.3358  -29.5592 H   0  0  0  0  0  0  0  0  0  0  0  0
   -3.8806   24.3803  -28.2930 H   0  0  0  0  0  0  0  0  0  0  0  0
   -5.5244   24.1740  -27.9906 H   0  0  0  0  0  0  0  0  0  0  0  0
   -4.6199   22.1020  -29.5496 H   0  0  0  0  0  0  0  0  0  0  0  0
   -2.6748   23.5058  -30.3094 H   0  0  0  0  0  0  0  0  0  0  0  0
   -3.6409   23.2218  -31.7503 H   0  0  0  0  0  0  0  0  0  0  0  0
   -3.1140   25.6590  -30.4340 H   0  0  0  0  0  0  0  0  0  0  0  0
  1  2  1  0
  2  3  1  0
  3  4  2  0
  4  5  1  0
  5  6  2  0
  6  7  1  0
  7  8  1  0
  8  9  1  0
  9 10  1  0
 10 11  1  0
 11 12  1  0
 12 13  1  0
 13 14  1  0
  6  2  1  0
 12  8  1  0
 14 10  1  0
  1 15  1  0
  1 16  1  0
  1 17  1  0
  3 18  1  0
  4 19  1  0
  5 20  1  0
  7 21  1  0
  7 22  1  0
  8 23  1  1
  9 24  1  0
  9 25  1  0
 10 26  1  1
 11 27  1  0
 11 28  1  0
 12 29  1  1
 13 30  1  0
 13 31  1  0
 14 32  1  0
M  CHG  1   8   1
M  END
>  <UniqueID>  (26) 
26

>  <SMILES>  (26) 
Cn1cccc1C[N@@H+]1C[C@H]2CC1CN2

>  <Energy>  (26) 
90.25943314821473

>  <Genealogy>  (26) 
Cn1cccc1C[NH+]1CC2CC1CN2 (protonated)
Cn1cccc1C[N@@H+]1C[C@H]2CC1CN2 (chirality)
Cn1cccc1C[N@@H+]1C[C@H]2CC1CN2 (3D coordinates assigned)
Cn1cccc1C[N@@H+]1C[C@H]2CC1CN2 (nonaromatic ring conformer: 90.25943314821473 kcal/mol)

>  <smiles>  (26) 
Cn1cccc1CN1CC2CC1CN2

>  <score_type>  (26) 
oracle

>  <origin>  (26) 
adg

>  <m_score__min__energy>  (26) 
-5.75

>  <m_primary>  (26) 
energy

$$$$
26:0
     RDKit          3D

 60 62  0  0  0  0  0  0  0  0999 V2000
   -3.4100   23.6480  -29.0560 C   0  0  0  0  0  0  0  0  0  0  0  0
   -3.5790   23.9010  -30.5580 C   0  0  0  0  0  0  0  0  0  0  0  0
   -4.3310   25.1380  -30.8330 N   0  0  0  0  0  0  0  0  0  0  0  0
   -5.7280   24.8820  -31.2180 C   0  0  0  0  0  0  0  0  0  0  0  0
   -6.0060   23.3750  -31.3170 C   0  0  0  0  0  0  0  0  0  0  0  0
   -5.9230   22.8510  -32.6990 N   0  0  0  0  0  0  0  0  0  0  0  0
   -5.8340   21.3950  -32.7400 C   0  0  0  0  0  0  0  0  0  0  0  0
   -6.9640   20.6050  -32.3850 C   0  0  0  0  0  0  0  0  0  0  0  0
   -8.1560   21.1910  -31.8890 C   0  0  0  0  0  0  0  0  0  0  0  0
   -9.2360   20.4060  -31.4950 C   0  0  0  0  0  0  0  0  0  0  0  0
   -9.1560   19.0250  -31.5700 C   0  0  0  0  0  0  0  0  0  0  0  0
   -8.0070   18.4200  -32.0700 C   0  0  0  0  0  0  0  0  0  0  0  0
   -6.9050   19.1910  -32.5220 C   0  0  0  0  0  0  0  0  0  0  0  0
   -5.7950   18.5930  -33.0760 N   0  0  0  0  0  0  0  0  0  0  0  0
   -5.8660   17.1840  -33.5290 C   0  0  0  0  0  0  0  0  0  0  0  0
   -4.6280   19.3100  -33.2350 C   0  0  0  0  0  0  0  0  0  0  0  0
   -3.4030   18.6530  -33.5090 C   0  0  0  0  0  0  0  0  0  0  0  0
   -2.2360   19.3670  -33.7440 C   0  0  0  0  0  0  0  0  0  0  0  0
   -2.2310   20.7570  -33.6960 C   0  0  0  0  0  0  0  0  0  0  0  0
   -1.0020   21.4610  -33.9650 N   0  0  0  0  0  0  0  0  0  0  0  0
    0.2950   21.0730  -33.4030 C   0  0  0  0  0  0  0  0  0  0  0  0
    1.4710   21.5780  -34.2590 C   0  0  0  0  0  0  0  0  0  0  0  0
    1.0280   22.5570  -35.2780 N   0  0  0  0  0  0  0  0  0  0  0  0
    0.4730   21.8860  -36.4670 C   0  0  0  0  0  0  0  0  0  0  0  0
    2.1620   23.4040  -35.6810 C   0  0  0  0  0  0  0  0  0  0  0  0
   -3.4200   21.4300  -33.3670 C   0  0  0  0  0  0  0  0  0  0  0  0
   -4.6290   20.7290  -33.1120 C   0  0  0  0  0  0  0  0  0  0  0  0
   -3.9342   24.4327  -28.4907 H   0  0  0  0  0  0  0  0  0  0  0  0
   -3.8341   22.6660  -28.7996 H   0  0  0  0  0  0  0  0  0  0  0  0
   -2.3404   23.6637  -28.7996 H   0  0  0  0  0  0  0  0  0  0  0  0
   -2.5830   23.9823  -31.0178 H   0  0  0  0  0  0  0  0  0  0  0  0
   -4.1475   23.0593  -30.9803 H   0  0  0  0  0  0  0  0  0  0  0  0
   -3.8580   25.6680  -31.6010 H   0  0  0  0  0  0  0  0  0  0  0  0
   -6.3954   25.3217  -30.4622 H   0  0  0  0  0  0  0  0  0  0  0  0
   -5.9081   25.3363  -32.2035 H   0  0  0  0  0  0  0  0  0  0  0  0
   -5.2688   22.8431  -30.6976 H   0  0  0  0  0  0  0  0  0  0  0  0
   -7.0367   23.2116  -30.9693 H   0  0  0  0  0  0  0  0  0  0  0  0
   -6.7750   23.1480  -33.2260 H   0  0  0  0  0  0  0  0  0  0  0  0
   -5.1700   23.3220  -33.2430 H   0  0  0  0  0  0  0  0  0  0  0  0
   -8.2287   22.2860  -31.8142 H   0  0  0  0  0  0  0  0  0  0  0  0
  -10.1548   20.8832  -31.1234 H   0  0  0  0  0  0  0  0  0  0  0  0
  -10.0013   18.4064  -31.2341 H   0  0  0  0  0  0  0  0  0  0  0  0
   -7.9520   17.3223  -32.1157 H   0  0  0  0  0  0  0  0  0  0  0  0
   -5.8995   16.5187  -32.6537 H   0  0  0  0  0  0  0  0  0  0  0  0
   -6.7726   17.0389  -34.1348 H   0  0  0  0  0  0  0  0  0  0  0  0
   -4.9786   16.9485  -34.1348 H   0  0  0  0  0  0  0  0  0  0  0  0
   -3.3761   17.5537  -33.5361 H   0  0  0  0  0  0  0  0  0  0  0  0
   -1.3047   18.8274  -33.9707 H   0  0  0  0  0  0  0  0  0  0  0  0
   -1.0480   22.2960  -34.5930 H   0  0  0  0  0  0  0  0  0  0  0  0
    0.3846   21.4967  -32.3918 H   0  0  0  0  0  0  0  0  0  0  0  0
    0.3395   19.9741  -33.3804 H   0  0  0  0  0  0  0  0  0  0  0  0
    2.2100   22.0585  -33.6010 H   0  0  0  0  0  0  0  0  0  0  0  0
    1.9094   20.7149  -34.7814 H   0  0  0  0  0  0  0  0  0  0  0  0
   -0.1984   21.0743  -36.1500 H   0  0  0  0  0  0  0  0  0  0  0  0
   -0.0905   22.6139  -37.0692 H   0  0  0  0  0  0  0  0  0  0  0  0
    1.2936   21.4690  -37.0692 H   0  0  0  0  0  0  0  0  0  0  0  0
    2.6721   23.7850  -34.7840 H   0  0  0  0  0  0  0  0  0  0  0  0
    2.8682   22.8105  -36.2801 H   0  0  0  0  0  0  0  0  0  0  0  0
    1.7933   24.2496  -36.2801 H   0  0  0  0  0  0  0  0  0  0  0  0
   -3.4144   22.5283  -33.3053 H   0  0  0  0  0  0  0  0  0  0  0  0
  1  2  1  0
  2  3  1  0
  3  4  1  0
  4  5  1  0
  5  6  1  0
  6  7  1  0
  7  8  2  0
  8  9  1  0
  9 10  2  0
 10 11  1  0
 11 12  2  0
 12 13  1  0
 13 14  2  0
 14 15  1  0
 14 16  1  0
 16 17  2  0
 17 18  1  0
 18 19  2  0
 19 20  1  0
 20 21  1  0
 21 22  1  0
 22 23  1  0
 23 24  1  0
 23 25  1  0
 19 26  1  0
 26 27  2  0
 27  7  1  0
 13  8  1  0
 27 16  1  0
  1 28  1  0
  1 29  1  0
  1 30  1  0
  2 31  1  0
  2 32  1  0
  3 33  1  0
  4 34  1  0
  4 35  1  0
  5 36  1  0
  5 37  1  0
  6 38  1  0
  6 39  1  0
  9 40  1  0
 10 41  1  0
 11 42  1  0
 12 43  1  0
 15 44  1  0
 15 45  1  0
 15 46  1  0
 17 47  1  0
 18 48  1  0
 20 49  1  0
 21 50  1  0
 21 51  1  0
 22 52  1  0
 22 53  1  0
 24 54  1  0
 24 55  1  0
 24 56  1  0
 25 57  1  0
 25 58  1  0
 25 59  1  0
 26 60  1  0
M  CHG  2   6   1  14   1
M  END
>  <UniqueID>  (27) 
27

>  <SMILES>  (27) 
CCNCC[NH2+]c1c2ccccc2[n+](C)c2ccc(NCCN(C)C)cc12

>  <Energy>  (27) 
88.87796869110991

>  <Genealogy>  (27) 
CCNCC[NH2+]c1c2ccccc2[n+](C)c2ccc(NCCN(C)C)cc12 (protonated)
CCNCC[NH2+]c1c2ccccc2[n+](C)c2ccc(NCCN(C)C)cc12 (3D coordinates assigned)
CCNCC[NH2+]c1c2ccccc2[n+](C)c2ccc(NCCN(C)C)cc12 (optimized conformer: 88.87796869110991 kcal/mol)

>  <smiles>  (27) 
CCNCCNc1c2ccccc2[n+](C)c2ccc(NCCN(C)C)cc12

>  <score_type>  (27) 
oracle

>  <origin>  (27) 
adg

>  <m_score__min__energy>  (27) 
-8.9700000000000006

>  <m_primary>  (27) 
energy

$$$$
27:0
     RDKit          3D

 37 38  0  0  0  0  0  0  0  0999 V2000
   -2.0860   22.6570  -30.1220 C   0  0  0  0  0  0  0  0  0  0  0  0
   -1.3560   23.7690  -29.3690 C   0  0  0  0  0  0  0  0  0  0  0  0
   -2.2970   24.8270  -28.9380 N   0  0  0  0  0  0  0  0  0  0  0  0
   -2.3180   24.9510  -27.4680 C   0  0  0  0  0  0  0  0  0  0  0  0
   -3.6590   24.5490  -29.4430 C   0  0  0  0  0  0  0  0  0  0  0  0
   -3.9160   25.2980  -30.6190 O   0  0  0  0  0  0  0  0  0  0  0  0
   -5.3010   25.5510  -30.7810 C   0  0  0  0  0  0  0  0  0  0  0  0
   -6.1010   24.2900  -30.6640 C   0  0  0  0  0  0  0  0  0  0  0  0
   -6.0710   23.2190  -31.5340 C   0  0  0  0  0  0  0  0  0  0  0  0
   -7.0130   22.3440  -31.0190 C   0  0  0  0  0  0  0  0  0  0  0  0
   -7.4110   21.0410  -31.6020 C   0  0  0  0  0  0  0  0  0  0  0  0
   -6.4240   20.1470  -32.0610 C   0  0  0  0  0  0  0  0  0  0  0  0
   -6.7840   18.9200  -32.6250 C   0  0  0  0  0  0  0  0  0  0  0  0
   -8.1300   18.5660  -32.7310 C   0  0  0  0  0  0  0  0  0  0  0  0
   -9.1190   19.4360  -32.2670 C   0  0  0  0  0  0  0  0  0  0  0  0
   -8.7680   20.6670  -31.7030 C   0  0  0  0  0  0  0  0  0  0  0  0
   -9.7530   21.4630  -31.2180 F   0  0  0  0  0  0  0  0  0  0  0  0
   -7.5510   22.8990  -29.9130 N   0  0  0  0  0  0  0  0  0  0  0  0
   -6.9900   24.0570  -29.7270 O   0  0  0  0  0  0  0  0  0  0  0  0
   -2.5415   21.9632  -29.4001 H   0  0  0  0  0  0  0  0  0  0  0  0
   -2.8717   23.0967  -30.7539 H   0  0  0  0  0  0  0  0  0  0  0  0
   -1.3701   22.1109  -30.7539 H   0  0  0  0  0  0  0  0  0  0  0  0
   -0.8662   23.3407  -28.4821 H   0  0  0  0  0  0  0  0  0  0  0  0
   -0.6113   24.2171  -30.0433 H   0  0  0  0  0  0  0  0  0  0  0  0
   -2.1507   23.9630  -27.0143 H   0  0  0  0  0  0  0  0  0  0  0  0
   -1.5240   25.6412  -27.1469 H   0  0  0  0  0  0  0  0  0  0  0  0
   -3.2950   25.3413  -27.1469 H   0  0  0  0  0  0  0  0  0  0  0  0
   -3.7487   23.4765  -29.6703 H   0  0  0  0  0  0  0  0  0  0  0  0
   -4.3893   24.8361  -28.6721 H   0  0  0  0  0  0  0  0  0  0  0  0
   -5.6296   26.2574  -30.0045 H   0  0  0  0  0  0  0  0  0  0  0  0
   -5.4623   25.9732  -31.7839 H   0  0  0  0  0  0  0  0  0  0  0  0
   -5.4443   23.0902  -32.4288 H   0  0  0  0  0  0  0  0  0  0  0  0
   -5.3611   20.4168  -31.9748 H   0  0  0  0  0  0  0  0  0  0  0  0
   -6.0053   18.2321  -32.9860 H   0  0  0  0  0  0  0  0  0  0  0  0
   -8.4117   17.6021  -33.1799 H   0  0  0  0  0  0  0  0  0  0  0  0
  -10.1788   19.1519  -32.3454 H   0  0  0  0  0  0  0  0  0  0  0  0
   -8.3170   22.5180  -29.3170 H   0  0  0  0  0  0  0  0  0  0  0  0
  1  2  1  0
  2  3  1  0
  3  4  1  0
  3  5  1  0
  5  6  1  0
  6  7  1  0
  7  8  1  0
  8  9  2  0
  9 10  1  0
 10 11  1  0
 11 12  2  0
 12 13  1  0
 13 14  2  0
 14 15  1  0
 15 16  2  0
 16 17  1  0
 10 18  2  0
 18 19  1  0
 19  8  1  0
 16 11  1  0
  1 20  1  0
  1 21  1  0
  1 22  1  0
  2 23  1  0
  2 24  1  0
  4 25  1  0
  4 26  1  0
  4 27  1  0
  5 28  1  0
  5 29  1  0
  7 30  1  0
  7 31  1  0
  9 32  1  0
 12 33  1  0
 13 34  1  0
 14 35  1  0
 15 36  1  0
 18 37  1  0
M  CHG  1  18   1
M  END
>  <UniqueID>  (28) 
28

>  <SMILES>  (28) 
CCN(C)COCc1cc(-c2ccccc2F)[nH+]o1

>  <Energy>  (28) 
71.5907037742346

>  <Genealogy>  (28) 
CCN(C)COCc1cc(-c2ccccc2F)[nH+]o1 (protonated)
CCN(C)COCc1cc(-c2ccccc2F)[nH+]o1 (3D coordinates assigned)
CCN(C)COCc1cc(-c2ccccc2F)[nH+]o1 (optimized conformer: 71.5907037742346 kcal/mol)

>  <smiles>  (28) 
CCN(C)COCc1cc(-c2ccccc2F)no1

>  <score_type>  (28) 
oracle

>  <origin>  (28) 
adg

>  <m_score__min__energy>  (28) 
-7.1799999999999997

>  <m_primary>  (28) 
energy

$$$$
28:0
     RDKit          3D

 42 44  0  0  0  0  0  0  0  0999 V2000
   -4.3170   13.8070  -32.9230 C   0  0  0  0  0  0  0  0  0  0  0  0
   -4.9710   15.1850  -32.9940 C   0  0  0  0  0  0  0  0  0  0  0  0
   -4.9100   15.7050  -34.3080 O   0  0  0  0  0  0  0  0  0  0  0  0
   -3.9630   16.7550  -34.4140 C   0  0  0  0  0  0  0  0  0  0  0  0
   -4.6820   18.1020  -34.5290 C   0  0  0  0  0  0  0  0  0  0  0  0
   -6.1280   17.9220  -34.7410 N   0  0  0  0  0  0  0  0  0  0  0  0
   -6.8560   17.7710  -33.4690 C   0  0  0  0  0  0  0  0  0  0  0  0
   -7.1140   19.1010  -32.8030 C   0  0  0  0  0  0  0  0  0  0  0  0
   -8.3920   19.4150  -32.3190 C   0  0  0  0  0  0  0  0  0  0  0  0
   -8.6310   20.6340  -31.6840 C   0  0  0  0  0  0  0  0  0  0  0  0
   -7.5930   21.5610  -31.5180 C   0  0  0  0  0  0  0  0  0  0  0  0
   -7.8400   22.7890  -30.8750 C   0  0  0  0  0  0  0  0  0  0  0  0
   -6.7870   23.6860  -30.7250 C   0  0  0  0  0  0  0  0  0  0  0  0
   -5.5360   23.4000  -31.1840 C   0  0  0  0  0  0  0  0  0  0  0  0
   -5.2380   22.1990  -31.8280 C   0  0  0  0  0  0  0  0  0  0  0  0
   -3.4390   21.9010  -32.4320 Br  0  0  0  0  0  0  0  0  0  0  0  0
   -6.2840   21.2550  -32.0030 C   0  0  0  0  0  0  0  0  0  0  0  0
   -6.0650   20.0210  -32.6410 C   0  0  0  0  0  0  0  0  0  0  0  0
   -4.6610   24.4340  -30.9230 O   0  0  0  0  0  0  0  0  0  0  0  0
   -5.3350   25.4950  -30.2480 C   0  0  0  0  0  0  0  0  0  0  0  0
   -6.8010   25.0290  -30.0870 C   0  0  0  0  0  0  0  0  0  0  0  0
   -4.1806   13.5197  -31.8700 H   0  0  0  0  0  0  0  0  0  0  0  0
   -4.9610   13.0692  -33.4239 H   0  0  0  0  0  0  0  0  0  0  0  0
   -3.3382   13.8394  -33.4239 H   0  0  0  0  0  0  0  0  0  0  0  0
   -6.0244   15.1000  -32.6888 H   0  0  0  0  0  0  0  0  0  0  0  0
   -4.4299   15.8662  -32.3207 H   0  0  0  0  0  0  0  0  0  0  0  0
   -3.3229   16.7594  -33.5194 H   0  0  0  0  0  0  0  0  0  0  0  0
   -3.3488   16.5967  -35.3127 H   0  0  0  0  0  0  0  0  0  0  0  0
   -4.5244   18.6723  -33.6017 H   0  0  0  0  0  0  0  0  0  0  0  0
   -4.2696   18.6422  -35.3939 H   0  0  0  0  0  0  0  0  0  0  0  0
   -6.5150   18.7330  -35.2780 H   0  0  0  0  0  0  0  0  0  0  0  0
   -6.2840   17.0520  -35.3020 H   0  0  0  0  0  0  0  0  0  0  0  0
   -7.8203   17.2806  -33.6679 H   0  0  0  0  0  0  0  0  0  0  0  0
   -6.2343   17.1671  -32.7917 H   0  0  0  0  0  0  0  0  0  0  0  0
   -9.2135   18.6937  -32.4411 H   0  0  0  0  0  0  0  0  0  0  0  0
   -9.6391   20.8688  -31.3118 H   0  0  0  0  0  0  0  0  0  0  0  0
   -8.8443   23.0341  -30.4991 H   0  0  0  0  0  0  0  0  0  0  0  0
   -5.0614   19.7736  -33.0172 H   0  0  0  0  0  0  0  0  0  0  0  0
   -4.8793   25.6726  -29.2627 H   0  0  0  0  0  0  0  0  0  0  0  0
   -5.2697   26.4382  -30.8103 H   0  0  0  0  0  0  0  0  0  0  0  0
   -7.0818   24.9614  -29.0256 H   0  0  0  0  0  0  0  0  0  0  0  0
   -7.5309   25.7188  -30.5359 H   0  0  0  0  0  0  0  0  0  0  0  0
  1  2  1  0
  2  3  1  0
  3  4  1  0
  4  5  1  0
  5  6  1  0
  6  7  1  0
  7  8  1  0
  8  9  2  0
  9 10  1  0
 10 11  2  0
 11 12  1  0
 12 13  2  0
 13 14  1  0
 14 15  2  0
 15 16  1  0
 15 17  1  0
 17 18  2  0
 14 19  1  0
 19 20  1  0
 20 21  1  0
 18  8  1  0
 17 11  1  0
 21 13  1  0
  1 22  1  0
  1 23  1  0
  1 24  1  0
  2 25  1  0
  2 26  1  0
  4 27  1  0
  4 28  1  0
  5 29  1  0
  5 30  1  0
  6 31  1  0
  6 32  1  0
  7 33  1  0
  7 34  1  0
  9 35  1  0
 10 36  1  0
 12 37  1  0
 18 38  1  0
 20 39  1  0
 20 40  1  0
 21 41  1  0
 21 42  1  0
M  CHG  1   6   1
M  END
>  <UniqueID>  (29) 
29

>  <SMILES>  (29) 
CCOCC[NH2+]Cc1ccc2cc3c(c(Br)c2c1)OCC3

>  <Energy>  (29) 
61.971416864840904

>  <Genealogy>  (29) 
CCOCC[NH2+]Cc1ccc2cc3c(c(Br)c2c1)OCC3 (protonated)
CCOCC[NH2+]Cc1ccc2cc3c(c(Br)c2c1)OCC3 (3D coordinates assigned)
CCOCC[NH2+]Cc1ccc2cc3c(c(Br)c2c1)OCC3 (nonaromatic ring conformer: 61.971416864840904 kcal/mol)

>  <smiles>  (29) 
CCOCCNCc1ccc2cc3c(c(Br)c2c1)OCC3

>  <score_type>  (29) 
oracle

>  <origin>  (29) 
adg

>  <m_score__min__energy>  (29) 
-7.8899999999999997

>  <m_primary>  (29) 
energy

$$$$
29:0
     RDKit          3D

 51 54  0  0  0  0  0  0  0  0999 V2000
   -2.5420   24.3540  -27.3930 C   0  0  0  0  0  0  0  0  0  0  0  0
   -3.4750   24.5700  -28.4920 N   0  0  0  0  0  0  0  0  0  0  0  0
   -4.8150   24.4690  -28.4140 C   0  0  0  0  0  0  0  0  0  0  0  0
   -5.3340   24.7580  -29.6620 C   0  0  0  0  0  0  0  0  0  0  0  0
   -6.7820   24.7420  -30.0840 C   0  0  0  0  0  0  0  0  0  0  0  0
   -7.1120   23.6380  -31.0130 N   0  0  0  0  0  0  0  0  0  0  0  0
   -6.5100   23.7750  -32.3620 C   0  0  0  0  0  0  0  0  0  0  0  0
   -5.2890   22.8660  -32.5730 C   0  0  0  0  0  0  0  0  0  0  0  0
   -5.6190   21.4220  -32.2560 C   0  0  0  0  0  0  0  0  0  0  0  0
   -4.8420   20.4040  -32.7130 C   0  0  0  0  0  0  0  0  0  0  0  0
   -3.3680   20.5310  -32.8350 C   0  0  0  0  0  0  0  0  0  0  0  0
   -2.6950   20.0200  -33.9590 C   0  0  0  0  0  0  0  0  0  0  0  0
   -1.3100   20.1670  -34.0770 C   0  0  0  0  0  0  0  0  0  0  0  0
   -0.5880   20.8350  -33.0820 C   0  0  0  0  0  0  0  0  0  0  0  0
    0.7550   20.9780  -33.2000 F   0  0  0  0  0  0  0  0  0  0  0  0
   -1.2520   21.3600  -31.9700 C   0  0  0  0  0  0  0  0  0  0  0  0
   -2.6380   21.2140  -31.8480 C   0  0  0  0  0  0  0  0  0  0  0  0
   -5.4320   19.1010  -33.1100 C   0  0  0  0  0  0  0  0  0  0  0  0
   -5.9570   18.2290  -32.1410 C   0  0  0  0  0  0  0  0  0  0  0  0
   -6.5250   17.0100  -32.5240 C   0  0  0  0  0  0  0  0  0  0  0  0
   -6.5860   16.6610  -33.8770 C   0  0  0  0  0  0  0  0  0  0  0  0
   -7.1390   15.4780  -34.2480 F   0  0  0  0  0  0  0  0  0  0  0  0
   -6.0830   17.5320  -34.8480 C   0  0  0  0  0  0  0  0  0  0  0  0
   -5.5130   18.7520  -34.4680 C   0  0  0  0  0  0  0  0  0  0  0  0
   -6.8570   21.1750  -31.4190 C   0  0  0  0  0  0  0  0  0  0  0  0
   -7.0050   22.2980  -30.3870 C   0  0  0  0  0  0  0  0  0  0  0  0
   -4.2360   25.0470  -30.4540 C   0  0  0  0  0  0  0  0  0  0  0  0
   -3.1150   24.9260  -29.7170 N   0  0  0  0  0  0  0  0  0  0  0  0
   -3.0691   24.4760  -26.4352 H   0  0  0  0  0  0  0  0  0  0  0  0
   -2.1290   23.3365  -27.4572 H   0  0  0  0  0  0  0  0  0  0  0  0
   -1.7239   25.0865  -27.4572 H   0  0  0  0  0  0  0  0  0  0  0  0
   -5.3938   24.2038  -27.5170 H   0  0  0  0  0  0  0  0  0  0  0  0
   -7.4062   24.6387  -29.1842 H   0  0  0  0  0  0  0  0  0  0  0  0
   -6.9747   25.6841  -30.6182 H   0  0  0  0  0  0  0  0  0  0  0  0
   -7.2716   23.5179  -33.1129 H   0  0  0  0  0  0  0  0  0  0  0  0
   -6.1659   24.8149  -32.4633 H   0  0  0  0  0  0  0  0  0  0  0  0
   -4.9652   22.9380  -33.6218 H   0  0  0  0  0  0  0  0  0  0  0  0
   -4.4877   23.1967  -31.8958 H   0  0  0  0  0  0  0  0  0  0  0  0
   -3.2605   19.5028  -34.7481 H   0  0  0  0  0  0  0  0  0  0  0  0
   -0.7869   19.7569  -34.9535 H   0  0  0  0  0  0  0  0  0  0  0  0
   -0.6844   21.8885  -31.1900 H   0  0  0  0  0  0  0  0  0  0  0  0
   -3.1584   21.6358  -30.9755 H   0  0  0  0  0  0  0  0  0  0  0  0
   -5.9210   18.5065  -31.0772 H   0  0  0  0  0  0  0  0  0  0  0  0
   -6.9239   16.3254  -31.7610 H   0  0  0  0  0  0  0  0  0  0  0  0
   -6.1354   17.2579  -35.9120 H   0  0  0  0  0  0  0  0  0  0  0  0
   -5.1273   19.4397  -35.2350 H   0  0  0  0  0  0  0  0  0  0  0  0
   -7.7430   21.1561  -32.0707 H   0  0  0  0  0  0  0  0  0  0  0  0
   -6.7639   20.2092  -30.9008 H   0  0  0  0  0  0  0  0  0  0  0  0
   -7.9123   22.1132  -29.7931 H   0  0  0  0  0  0  0  0  0  0  0  0
   -6.1015   22.2948  -29.7596 H   0  0  0  0  0  0  0  0  0  0  0  0
   -4.2731   25.3304  -31.5162 H   0  0  0  0  0  0  0  0  0  0  0  0
  1  2  1  0
  2  3  1  0
  3  4  2  0
  4  5  1  0
  5  6  1  0
  6  7  1  0
  7  8  1  0
  8  9  1  0
  9 10  2  3
 10 11  1  0
 11 12  2  0
 12 13  1  0
 13 14  2  0
 14 15  1  0
 14 16  1  0
 16 17  2  0
 10 18  1  0
 18 19  2  0
 19 20  1  0
 20 21  2  0
 21 22  1  0
 21 23  1  0
 23 24  2  0
  9 25  1  0
 25 26  1  0
  4 27  1  0
 27 28  2  0
 28  2  1  0
 26  6  1  0
 17 11  1  0
 24 18  1  0
  1 29  1  0
  1 30  1  0
  1 31  1  0
  3 32  1  0
  5 33  1  0
  5 34  1  0
  7 35  1  0
  7 36  1  0
  8 37  1  0
  8 38  1  0
 12 39  1  0
 13 40  1  0
 16 41  1  0
 17 42  1  0
 19 43  1  0
 20 44  1  0
 23 45  1  0
 24 46  1  0
 25 47  1  0
 25 48  1  0
 26 49  1  0
 26 50  1  0
 27 51  1  0
M  END
>  <UniqueID>  (30) 
30

>  <SMILES>  (30) 
Cn1cc(CN2CCC(=C(c3ccc(F)cc3)c3ccc(F)cc3)CC2)cn1

>  <Energy>  (30) 
105.30294977978828

>  <Genealogy>  (30) 
Cn1cc(CN2CCC(=C(c3ccc(F)cc3)c3ccc(F)cc3)CC2)cn1 (3D coordinates assigned)
Cn1cc(CN2CCC(=C(c3ccc(F)cc3)c3ccc(F)cc3)CC2)cn1 (nonaromatic ring conformer: 105.30294977978828 kcal/mol)

>  <smiles>  (30) 
Cn1cc(CN2CCC(=C(c3ccc(F)cc3)c3ccc(F)cc3)CC2)cn1

>  <score_type>  (30) 
oracle

>  <origin>  (30) 
adg

>  <m_score__min__energy>  (30) 
-8.5899999999999999

>  <m_primary>  (30) 
energy

$$$$
