0:0
     RDKit          3D

 64 66  0  0  0  0  0  0  0  0999 V2000
   -0.1380   27.7410  -24.0850 C   0  0  0  0  0  0  0  0  0  0  0  0
   -0.8270   26.5550  -23.4140 C   0  0  0  0  0  0  0  0  0  0  0  0
   -0.1180   25.3000  -23.7150 N   0  0  0  0  0  0  0  0  0  0  0  0
   -0.1800   24.9490  -25.1450 C   0  0  0  0  0  0  0  0  0  0  0  0
   -1.5580   25.2470  -25.7680 C   0  0  0  0  0  0  0  0  0  0  0  0
   -1.9410   24.1760  -26.7970 C   0  0  0  0  0  0  0  0  0  0  0  0
   -3.3490   24.4390  -27.3710 C   0  0  0  0  0  0  0  0  0  0  0  0
   -3.6330   23.6910  -28.6180 N   0  0  0  0  0  0  0  0  0  0  0  0
   -2.4400   23.5390  -29.4690 C   0  0  0  0  0  0  0  0  0  0  0  0
   -4.7860   24.2390  -29.3640 C   0  0  0  0  0  0  0  0  0  0  0  0
   -5.5730   23.1060  -30.0330 C   0  0  0  0  0  0  0  0  0  0  0  0
   -6.5050   23.6420  -31.1310 C   0  0  0  0  0  0  0  0  0  0  0  0
   -6.2070   23.0350  -32.4310 N   0  0  0  0  0  0  0  0  0  0  0  0
   -5.9860   21.6210  -32.5790 C   0  0  0  0  0  0  0  0  0  0  0  0
   -7.0710   20.7310  -32.4930 C   0  0  0  0  0  0  0  0  0  0  0  0
   -8.3600   21.1900  -32.1480 C   0  0  0  0  0  0  0  0  0  0  0  0
   -9.4150   20.2930  -31.9870 C   0  0  0  0  0  0  0  0  0  0  0  0
   -9.2070   18.9310  -32.1750 C   0  0  0  0  0  0  0  0  0  0  0  0
   -7.9500   18.4590  -32.5540 C   0  0  0  0  0  0  0  0  0  0  0  0
   -6.8650   19.3490  -32.7590 C   0  0  0  0  0  0  0  0  0  0  0  0
   -5.6340   18.9070  -33.2090 N   0  0  0  0  0  0  0  0  0  0  0  0
   -5.5040   17.5630  -33.8130 C   0  0  0  0  0  0  0  0  0  0  0  0
   -4.5300   19.7390  -33.1250 C   0  0  0  0  0  0  0  0  0  0  0  0
   -3.2120   19.2490  -33.3190 C   0  0  0  0  0  0  0  0  0  0  0  0
   -2.1090   20.0930  -33.2170 C   0  0  0  0  0  0  0  0  0  0  0  0
   -2.2820   21.4350  -32.8990 C   0  0  0  0  0  0  0  0  0  0  0  0
   -3.5620   21.9440  -32.6860 C   0  0  0  0  0  0  0  0  0  0  0  0
   -4.6960   21.1140  -32.8060 C   0  0  0  0  0  0  0  0  0  0  0  0
    0.2564   28.4199  -23.3145 H   0  0  0  0  0  0  0  0  0  0  0  0
    0.6896   27.3776  -24.7119 H   0  0  0  0  0  0  0  0  0  0  0  0
   -0.8636   28.2799  -24.7119 H   0  0  0  0  0  0  0  0  0  0  0  0
   -0.8362   26.7119  -22.3253 H   0  0  0  0  0  0  0  0  0  0  0  0
   -1.8549   26.4804  -23.7986 H   0  0  0  0  0  0  0  0  0  0  0  0
    0.8830   25.3700  -23.4110 H   0  0  0  0  0  0  0  0  0  0  0  0
   -0.5660   24.5190  -23.1760 H   0  0  0  0  0  0  0  0  0  0  0  0
    0.5834   25.5293  -25.6839 H   0  0  0  0  0  0  0  0  0  0  0  0
   -0.0019   23.8669  -25.2310 H   0  0  0  0  0  0  0  0  0  0  0  0
   -2.3160   25.2671  -24.9711 H   0  0  0  0  0  0  0  0  0  0  0  0
   -1.5081   26.2203  -26.2782 H   0  0  0  0  0  0  0  0  0  0  0  0
   -1.2095   24.1885  -27.6185 H   0  0  0  0  0  0  0  0  0  0  0  0
   -1.9435   23.1957  -26.2981 H   0  0  0  0  0  0  0  0  0  0  0  0
   -4.0925   24.1478  -26.6144 H   0  0  0  0  0  0  0  0  0  0  0  0
   -3.4001   25.5094  -27.6194 H   0  0  0  0  0  0  0  0  0  0  0  0
   -1.5488   23.4255  -28.8342 H   0  0  0  0  0  0  0  0  0  0  0  0
   -2.5537   22.6481  -30.1041 H   0  0  0  0  0  0  0  0  0  0  0  0
   -2.3267   24.4300  -30.1041 H   0  0  0  0  0  0  0  0  0  0  0  0
   -5.4459   24.7776  -28.6680 H   0  0  0  0  0  0  0  0  0  0  0  0
   -4.4168   24.9255  -30.1402 H   0  0  0  0  0  0  0  0  0  0  0  0
   -4.8642   22.3943  -30.4814 H   0  0  0  0  0  0  0  0  0  0  0  0
   -6.1891   22.6133  -29.2664 H   0  0  0  0  0  0  0  0  0  0  0  0
   -7.5461   23.4128  -30.8596 H   0  0  0  0  0  0  0  0  0  0  0  0
   -6.3523   24.7282  -31.2138 H   0  0  0  0  0  0  0  0  0  0  0  0
   -6.0140   23.6610  -33.2460 H   0  0  0  0  0  0  0  0  0  0  0  0
   -8.5342   22.2666  -32.0046 H   0  0  0  0  0  0  0  0  0  0  0  0
  -10.4134   20.6632  -31.7109 H   0  0  0  0  0  0  0  0  0  0  0  0
  -10.0359   18.2237  -32.0245 H   0  0  0  0  0  0  0  0  0  0  0  0
   -7.7980   17.3789  -32.6961 H   0  0  0  0  0  0  0  0  0  0  0  0
   -5.4310   16.8083  -33.0160 H   0  0  0  0  0  0  0  0  0  0  0  0
   -6.3861   17.3541  -34.4361 H   0  0  0  0  0  0  0  0  0  0  0  0
   -4.5982   17.5271  -34.4361 H   0  0  0  0  0  0  0  0  0  0  0  0
   -3.0594   18.1852  -33.5537 H   0  0  0  0  0  0  0  0  0  0  0  0
   -1.0975   19.6963  -33.3887 H   0  0  0  0  0  0  0  0  0  0  0  0
   -1.4072   22.0966  -32.8153 H   0  0  0  0  0  0  0  0  0  0  0  0
   -3.6891   23.0042  -32.4215 H   0  0  0  0  0  0  0  0  0  0  0  0
  1  2  1  0
  2  3  1  0
  3  4  1  0
  4  5  1  0
  5  6  1  0
  6  7  1  0
  7  8  1  0
  8  9  1  0
  8 10  1  0
 10 11  1  0
 11 12  1  0
 12 13  1  0
 13 14  1  0
 14 15  2  0
 15 16  1  0
 16 17  2  0
 17 18  1  0
 18 19  2  0
 19 20  1  0
 20 21  2  0
 21 22  1  0
 21 23  1  0
 23 24  2  0
 24 25  1  0
 25 26  2  0
 26 27  1  0
 27 28  2  0
 28 14  1  0
 20 15  1  0
 28 23  1  0
  1 29  1  0
  1 30  1  0
  1 31  1  0
  2 32  1  0
  2 33  1  0
  3 34  1  0
  3 35  1  0
  4 36  1  0
  4 37  1  0
  5 38  1  0
  5 39  1  0
  6 40  1  0
  6 41  1  0
  7 42  1  0
  7 43  1  0
  9 44  1  0
  9 45  1  0
  9 46  1  0
 10 47  1  0
 10 48  1  0
 11 49  1  0
 11 50  1  0
 12 51  1  0
 12 52  1  0
 13 53  1  0
 16 54  1  0
 17 55  1  0
 18 56  1  0
 19 57  1  0
 22 58  1  0
 22 59  1  0
 22 60  1  0
 24 61  1  0
 25 62  1  0
 26 63  1  0
 27 64  1  0
M  CHG  2   3   1  21   1
M  END
>  <UniqueID>  (1) 
1

>  <SMILES>  (1) 
CC[NH2+]CCCCN(C)CCCNc1c2ccccc2[n+](C)c2ccccc12

>  <Energy>  (1) 
85.12125232303713

>  <Genealogy>  (1) 
CC[NH2+]CCCCN(C)CCCNc1c2ccccc2[n+](C)c2ccccc12 (protonated)
CC[NH2+]CCCCN(C)CCCNc1c2ccccc2[n+](C)c2ccccc12 (3D coordinates assigned)
CC[NH2+]CCCCN(C)CCCNc1c2ccccc2[n+](C)c2ccccc12 (optimized conformer: 85.12125232303713 kcal/mol)

>  <smiles>  (1) 
CCNCCCCN(C)CCCNc1c2ccccc2[n+](C)c2ccccc12

>  <score_type>  (1) 
oracle

>  <origin>  (1) 
adg

>  <m_score__min__energy>  (1) 
-9.1500000000000004

>  <m_primary>  (1) 
energy

$$$$
1:0
     RDKit          3D

 45 47  0  0  0  0  0  0  0  0999 V2000
   -5.7270   25.5080  -30.3830 C   0  0  0  0  0  0  0  0  0  0  0  0
   -4.8550   24.3060  -30.0440 C   0  0  0  0  0  0  0  0  0  0  0  0
   -4.2220   23.7830  -31.2600 N   0  0  0  0  0  0  0  0  0  0  0  0
   -3.6190   22.4710  -30.9970 C   0  0  0  0  0  0  0  0  0  0  0  0
   -3.4350   21.7060  -32.3140 C   0  0  0  0  0  0  0  0  0  0  0  0
   -4.5630   21.9050  -33.2450 N   0  0  0  0  0  0  0  0  0  0  0  0
   -5.6480   20.9600  -33.0040 C   0  0  0  0  0  0  0  0  0  0  0  0
   -6.9010   21.4260  -32.5110 C   0  0  0  0  0  0  0  0  0  0  0  0
   -7.1270   22.7970  -32.2230 C   0  0  0  0  0  0  0  0  0  0  0  0
   -8.3780   23.2520  -31.8140 C   0  0  0  0  0  0  0  0  0  0  0  0
   -9.4350   22.3640  -31.6900 C   0  0  0  0  0  0  0  0  0  0  0  0
   -9.2380   21.0080  -31.9330 C   0  0  0  0  0  0  0  0  0  0  0  0
   -7.9630   20.5030  -32.3020 C   0  0  0  0  0  0  0  0  0  0  0  0
   -7.7540   19.1510  -32.4660 N   0  0  0  0  0  0  0  0  0  0  0  0
   -8.7430   18.1820  -31.9380 C   0  0  0  0  0  0  0  0  0  0  0  0
   -6.6080   18.6940  -33.0830 C   0  0  0  0  0  0  0  0  0  0  0  0
   -6.5010   17.3480  -33.5180 C   0  0  0  0  0  0  0  0  0  0  0  0
   -5.3200   16.8540  -34.0610 C   0  0  0  0  0  0  0  0  0  0  0  0
   -4.2150   17.6830  -34.1930 C   0  0  0  0  0  0  0  0  0  0  0  0
   -2.9840   17.1570  -34.7250 C   0  0  0  0  0  0  0  0  0  0  0  0
   -1.9940   16.7360  -35.1520 N   0  0  0  0  0  0  0  0  0  0  0  0
   -4.3050   19.0270  -33.8260 C   0  0  0  0  0  0  0  0  0  0  0  0
   -5.5080   19.5740  -33.3070 C   0  0  0  0  0  0  0  0  0  0  0  0
   -6.0724   25.9842  -29.4535 H   0  0  0  0  0  0  0  0  0  0  0  0
   -5.1422   26.2313  -30.9701 H   0  0  0  0  0  0  0  0  0  0  0  0
   -6.5961   25.1765  -30.9701 H   0  0  0  0  0  0  0  0  0  0  0  0
   -4.0754   24.6117  -29.3307 H   0  0  0  0  0  0  0  0  0  0  0  0
   -5.4827   23.5202  -29.5985 H   0  0  0  0  0  0  0  0  0  0  0  0
   -3.4500   24.4410  -31.5270 H   0  0  0  0  0  0  0  0  0  0  0  0
   -2.6394   22.6098  -30.5162 H   0  0  0  0  0  0  0  0  0  0  0  0
   -4.2812   21.8951  -30.3338 H   0  0  0  0  0  0  0  0  0  0  0  0
   -2.5115   22.0552  -32.7989 H   0  0  0  0  0  0  0  0  0  0  0  0
   -3.3848   20.6337  -32.0738 H   0  0  0  0  0  0  0  0  0  0  0  0
   -4.2220   21.9060  -34.2290 H   0  0  0  0  0  0  0  0  0  0  0  0
   -4.9180   22.8810  -33.1500 H   0  0  0  0  0  0  0  0  0  0  0  0
   -6.2987   23.5136  -32.3247 H   0  0  0  0  0  0  0  0  0  0  0  0
   -8.5276   24.3183  -31.5889 H   0  0  0  0  0  0  0  0  0  0  0  0
  -10.4303   22.7314  -31.3993 H   0  0  0  0  0  0  0  0  0  0  0  0
  -10.0861   20.3140  -31.8374 H   0  0  0  0  0  0  0  0  0  0  0  0
   -8.7238   18.2008  -30.8383 H   0  0  0  0  0  0  0  0  0  0  0  0
   -9.7483   18.4545  -32.2919 H   0  0  0  0  0  0  0  0  0  0  0  0
   -8.4911   17.1714  -32.2919 H   0  0  0  0  0  0  0  0  0  0  0  0
   -7.3706   16.6810  -33.4238 H   0  0  0  0  0  0  0  0  0  0  0  0
   -5.2616   15.8048  -34.3863 H   0  0  0  0  0  0  0  0  0  0  0  0
   -3.4246   19.6763  -33.9415 H   0  0  0  0  0  0  0  0  0  0  0  0
  1  2  1  0
  2  3  1  0
  3  4  1  0
  4  5  1  0
  5  6  1  0
  6  7  1  0
  7  8  2  0
  8  9  1  0
  9 10  2  0
 10 11  1  0
 11 12  2  0
 12 13  1  0
 13 14  2  0
 14 15  1  0
 14 16  1  0
 16 17  2  0
 17 18  1  0
 18 19  2  0
 19 20  1  0
 20 21  3  0
 19 22  1  0
 22 23  2  0
 23  7  1  0
 13  8  1  0
 23 16  1  0
  1 24  1  0
  1 25  1  0
  1 26  1  0
  2 27  1  0
  2 28  1  0
  3 29  1  0
  4 30  1  0
  4 31  1  0
  5 32  1  0
  5 33  1  0
  6 34  1  0
  6 35  1  0
  9 36  1  0
 10 37  1  0
 11 38  1  0
 12 39  1  0
 15 40  1  0
 15 41  1  0
 15 42  1  0
 17 43  1  0
 18 44  1  0
 22 45  1  0
M  CHG  2   6   1  14   1
M  END
>  <UniqueID>  (2) 
2

>  <SMILES>  (2) 
CCNCC[NH2+]c1c2ccccc2[n+](C)c2ccc(C#N)cc12

>  <Energy>  (2) 
70.25689698916466

>  <Genealogy>  (2) 
CCNCC[NH2+]c1c2ccccc2[n+](C)c2ccc(C#N)cc12 (protonated)
CCNCC[NH2+]c1c2ccccc2[n+](C)c2ccc(C#N)cc12 (3D coordinates assigned)
CCNCC[NH2+]c1c2ccccc2[n+](C)c2ccc(C#N)cc12 (optimized conformer: 70.25689698916466 kcal/mol)

>  <smiles>  (2) 
CCNCCNc1c2ccccc2[n+](C)c2ccc(C#N)cc12

>  <score_type>  (2) 
oracle

>  <origin>  (2) 
adg

>  <m_score__min__energy>  (2) 
-8.3900000000000006

>  <m_primary>  (2) 
energy

$$$$
2:0
     RDKit          3D

 55 57  0  0  0  0  0  0  0  0999 V2000
   -0.4530   23.5280  -25.3250 C   0  0  0  0  0  0  0  0  0  0  0  0
   -0.9080   24.9340  -24.9380 C   0  0  0  0  0  0  0  0  0  0  0  0
   -1.6420   25.4610  -26.0400 N   0  0  0  0  0  0  0  0  0  0  0  0
   -3.0840   25.5600  -25.7750 C   0  0  0  0  0  0  0  0  0  0  0  0
   -3.8540   24.7110  -26.7380 C   0  0  0  0  0  0  0  0  0  0  0  0
   -1.1910   26.7670  -26.4950 C   0  0  0  0  0  0  0  0  0  0  0  0
   -0.4900   26.6440  -27.8450 C   0  0  0  0  0  0  0  0  0  0  0  0
   -1.2640   25.9940  -28.7620 O   0  0  0  0  0  0  0  0  0  0  0  0
   -1.0390   24.6700  -28.9690 C   0  0  0  0  0  0  0  0  0  0  0  0
   -2.1750   23.8320  -29.4160 C   0  0  0  0  0  0  0  0  0  0  0  0
   -3.3070   24.7390  -29.9480 N   0  0  0  0  0  0  0  0  0  0  0  0
   -4.2710   23.9740  -30.4950 C   0  0  0  0  0  0  0  0  0  0  0  0
   -5.4330   25.0550  -29.9040 C   0  0  0  0  0  0  0  0  0  0  0  0
   -6.7060   24.8950  -30.0940 C   0  0  0  0  0  0  0  0  0  0  0  0
   -7.3730   23.8850  -30.7710 C   0  0  0  0  0  0  0  0  0  0  0  0
   -6.4300   22.9620  -31.2800 C   0  0  0  0  0  0  0  0  0  0  0  0
   -6.5630   21.8160  -32.0170 C   0  0  0  0  0  0  0  0  0  0  0  0
   -7.8560   21.2490  -32.4160 C   0  0  0  0  0  0  0  0  0  0  0  0
   -5.3020   21.3640  -32.2190 C   0  0  0  0  0  0  0  0  0  0  0  0
   -4.8190   20.1720  -32.9600 C   0  0  0  0  0  0  0  0  0  0  0  0
   -5.5180   19.2240  -33.5610 C   0  0  0  0  0  0  0  0  0  0  0  0
   -4.9100   18.2590  -34.2630 C   0  0  0  0  0  0  0  0  0  0  0  0
   -3.5020   18.3540  -34.2970 C   0  0  0  0  0  0  0  0  0  0  0  0
   -3.1120   19.8460  -33.3060 S   0  0  0  0  0  0  0  0  0  0  0  0
   -4.4950   22.1460  -31.6640 O   0  0  0  0  0  0  0  0  0  0  0  0
   -5.1910   23.2440  -31.0160 C   0  0  0  0  0  0  0  0  0  0  0  0
   -0.2629   22.9406  -24.4146 H   0  0  0  0  0  0  0  0  0  0  0  0
   -1.2387   23.0390  -25.9195 H   0  0  0  0  0  0  0  0  0  0  0  0
    0.4703   23.5920  -25.9195 H   0  0  0  0  0  0  0  0  0  0  0  0
   -1.5494   24.8896  -24.0454 H   0  0  0  0  0  0  0  0  0  0  0  0
   -0.0431   25.5727  -24.7054 H   0  0  0  0  0  0  0  0  0  0  0  0
   -1.5880   24.8440  -26.9030 H   0  0  0  0  0  0  0  0  0  0  0  0
   -3.2877   25.2193  -24.7491 H   0  0  0  0  0  0  0  0  0  0  0  0
   -3.3966   26.6077  -25.8959 H   0  0  0  0  0  0  0  0  0  0  0  0
   -4.4908   24.0089  -26.1798 H   0  0  0  0  0  0  0  0  0  0  0  0
   -4.4838   25.3535  -27.3709 H   0  0  0  0  0  0  0  0  0  0  0  0
   -3.1532   24.1468  -27.3709 H   0  0  0  0  0  0  0  0  0  0  0  0
   -2.0586   27.4357  -26.5961 H   0  0  0  0  0  0  0  0  0  0  0  0
   -0.4829   27.1773  -25.7600 H   0  0  0  0  0  0  0  0  0  0  0  0
   -0.2635   27.6524  -28.2215 H   0  0  0  0  0  0  0  0  0  0  0  0
    0.4304   26.0595  -27.6996 H   0  0  0  0  0  0  0  0  0  0  0  0
   -0.2518   24.5878  -29.7329 H   0  0  0  0  0  0  0  0  0  0  0  0
   -0.7831   24.2767  -27.9741 H   0  0  0  0  0  0  0  0  0  0  0  0
   -1.8395   23.1567  -30.2168 H   0  0  0  0  0  0  0  0  0  0  0  0
   -2.5486   23.2389  -28.5683 H   0  0  0  0  0  0  0  0  0  0  0  0
   -3.0380   25.6770  -29.7660 H   0  0  0  0  0  0  0  0  0  0  0  0
   -5.0930   25.9319  -29.3336 H   0  0  0  0  0  0  0  0  0  0  0  0
   -7.3490   25.6721  -29.6551 H   0  0  0  0  0  0  0  0  0  0  0  0
   -8.4639   23.8131  -30.8929 H   0  0  0  0  0  0  0  0  0  0  0  0
   -8.4374   20.9940  -31.5177 H   0  0  0  0  0  0  0  0  0  0  0  0
   -8.4107   21.9865  -33.0147 H   0  0  0  0  0  0  0  0  0  0  0  0
   -7.6893   20.3414  -33.0147 H   0  0  0  0  0  0  0  0  0  0  0  0
   -6.6152   19.2280  -33.4832 H   0  0  0  0  0  0  0  0  0  0  0  0
   -5.4636   17.4565  -34.7724 H   0  0  0  0  0  0  0  0  0  0  0  0
   -2.7954   17.6816  -34.8055 H   0  0  0  0  0  0  0  0  0  0  0  0
  1  2  1  0
  2  3  1  0
  3  4  1  0
  4  5  1  0
  3  6  1  0
  6  7  1  0
  7  8  1  0
  8  9  1  0
  9 10  1  0
 10 11  1  0
 11 12  1  0
 12 13  2  0
 13 14  1  0
 14 15  2  0
 15 16  1  0
 16 17  1  0
 17 18  1  0
 17 19  2  0
 19 20  1  0
 20 21  2  0
 21 22  1  0
 22 23  2  0
 23 24  1  0
 19 25  1  0
 25 26  1  0
 26 12  1  0
 26 16  2  0
 24 20  1  0
  1 27  1  0
  1 28  1  0
  1 29  1  0
  2 30  1  0
  2 31  1  0
  3 32  1  0
  4 33  1  0
  4 34  1  0
  5 35  1  0
  5 36  1  0
  5 37  1  0
  6 38  1  0
  6 39  1  0
  7 40  1  0
  7 41  1  0
  9 42  1  0
  9 43  1  0
 10 44  1  0
 10 45  1  0
 11 46  1  0
 13 47  1  0
 14 48  1  0
 15 49  1  0
 18 50  1  0
 18 51  1  0
 18 52  1  0
 21 53  1  0
 22 54  1  0
 23 55  1  0
M  CHG  1   3   1
M  END
>  <UniqueID>  (3) 
3

>  <SMILES>  (3) 
CC[NH+](CC)CCOCCNc1cccc2c(C)c(-c3cccs3)oc12

>  <Energy>  (3) 
499.66705444710635

>  <Genealogy>  (3) 
CC[NH+](CC)CCOCCNc1cccc2c(C)c(-c3cccs3)oc12 (protonated)
CC[NH+](CC)CCOCCNc1cccc2c(C)c(-c3cccs3)oc12 (3D coordinates assigned)
CC[NH+](CC)CCOCCNc1cccc2c(C)c(-c3cccs3)oc12 (optimized conformer: 499.66705444710635 kcal/mol)

>  <smiles>  (3) 
CCN(CC)CCOCCNc1cccc2c(C)c(-c3cccs3)oc12

>  <score_type>  (3) 
oracle

>  <origin>  (3) 
adg

>  <m_score__min__energy>  (3) 
-7.1399999999999997

>  <m_primary>  (3) 
energy

$$$$
3:0
     RDKit          3D

 41 43  0  0  0  0  0  0  0  0999 V2000
   -5.2000   18.1060  -34.6310 C   0  0  0  0  0  0  0  0  0  0  0  0
   -5.9680   19.0020  -33.7070 C   0  0  0  0  0  0  0  0  0  0  0  0
   -7.1260   18.5160  -33.0480 C   0  0  0  0  0  0  0  0  0  0  0  0
   -7.8420   19.3530  -32.1760 C   0  0  0  0  0  0  0  0  0  0  0  0
   -7.3500   20.6420  -31.9800 C   0  0  0  0  0  0  0  0  0  0  0  0
   -6.2250   21.0680  -32.6120 C   0  0  0  0  0  0  0  0  0  0  0  0
   -5.9800   22.3630  -32.3480 N   0  0  0  0  0  0  0  0  0  0  0  0
   -7.0110   22.6990  -31.5270 C   0  0  0  0  0  0  0  0  0  0  0  0
   -7.2170   24.1140  -31.0520 C   0  0  0  0  0  0  0  0  0  0  0  0
   -6.1620   24.5250  -30.0110 C   0  0  0  0  0  0  0  0  0  0  0  0
   -5.2430   25.6630  -30.4880 C   0  0  0  0  0  0  0  0  0  0  0  0
   -3.8640   25.2880  -30.4790 O   0  0  0  0  0  0  0  0  0  0  0  0
   -3.3370   24.0980  -29.9510 C   0  0  0  0  0  0  0  0  0  0  0  0
   -3.1490   23.0170  -30.8230 C   0  0  0  0  0  0  0  0  0  0  0  0
   -2.6780   21.7920  -30.3460 C   0  0  0  0  0  0  0  0  0  0  0  0
   -2.3710   21.6410  -28.9920 C   0  0  0  0  0  0  0  0  0  0  0  0
   -2.5270   22.7190  -28.1170 C   0  0  0  0  0  0  0  0  0  0  0  0
   -3.0040   23.9460  -28.5900 C   0  0  0  0  0  0  0  0  0  0  0  0
   -7.8600   21.6640  -31.2680 N   0  0  0  0  0  0  0  0  0  0  0  0
   -9.1110   21.6980  -30.5120 C   0  0  0  0  0  0  0  0  0  0  0  0
   -5.5270   20.2790  -33.4670 N   0  0  0  0  0  0  0  0  0  0  0  0
   -4.5960   17.4014  -34.0405 H   0  0  0  0  0  0  0  0  0  0  0  0
   -5.9021   17.5450  -35.2653 H   0  0  0  0  0  0  0  0  0  0  0  0
   -4.5382   18.7140  -35.2653 H   0  0  0  0  0  0  0  0  0  0  0  0
   -7.4637   17.4833  -33.2197 H   0  0  0  0  0  0  0  0  0  0  0  0
   -8.7539   19.0051  -31.6686 H   0  0  0  0  0  0  0  0  0  0  0  0
   -7.1495   24.7929  -31.9149 H   0  0  0  0  0  0  0  0  0  0  0  0
   -8.2078   24.1753  -30.5781 H   0  0  0  0  0  0  0  0  0  0  0  0
   -6.6818   24.8555  -29.0997 H   0  0  0  0  0  0  0  0  0  0  0  0
   -5.5244   23.6469  -29.8311 H   0  0  0  0  0  0  0  0  0  0  0  0
   -5.5272   25.9405  -31.5138 H   0  0  0  0  0  0  0  0  0  0  0  0
   -5.3661   26.5075  -29.7940 H   0  0  0  0  0  0  0  0  0  0  0  0
   -3.3746   23.1346  -31.8932 H   0  0  0  0  0  0  0  0  0  0  0  0
   -2.5488   20.9458  -31.0369 H   0  0  0  0  0  0  0  0  0  0  0  0
   -2.0067   20.6741  -28.6147 H   0  0  0  0  0  0  0  0  0  0  0  0
   -2.2739   22.6025  -27.0529 H   0  0  0  0  0  0  0  0  0  0  0  0
   -3.1194   24.7937  -27.8985 H   0  0  0  0  0  0  0  0  0  0  0  0
   -8.8887   21.6920  -29.4347 H   0  0  0  0  0  0  0  0  0  0  0  0
   -9.6684   22.6116  -30.7663 H   0  0  0  0  0  0  0  0  0  0  0  0
   -9.7172   20.8160  -30.7663 H   0  0  0  0  0  0  0  0  0  0  0  0
   -4.6770   20.6520  -33.9450 H   0  0  0  0  0  0  0  0  0  0  0  0
  1  2  1  0
  2  3  2  0
  3  4  1  0
  4  5  2  0
  5  6  1  0
  6  7  1  0
  7  8  2  0
  8  9  1  0
  9 10  1  0
 10 11  1  0
 11 12  1  0
 12 13  1  0
 13 14  2  0
 14 15  1  0
 15 16  2  0
 16 17  1  0
 17 18  2  0
  8 19  1  0
 19 20  1  0
  6 21  2  0
 21  2  1  0
 19  5  1  0
 18 13  1  0
  1 22  1  0
  1 23  1  0
  1 24  1  0
  3 25  1  0
  4 26  1  0
  9 27  1  0
  9 28  1  0
 10 29  1  0
 10 30  1  0
 11 31  1  0
 11 32  1  0
 14 33  1  0
 15 34  1  0
 16 35  1  0
 17 36  1  0
 18 37  1  0
 20 38  1  0
 20 39  1  0
 20 40  1  0
 21 41  1  0
M  CHG  1  21   1
M  END
>  <UniqueID>  (4) 
4

>  <SMILES>  (4) 
Cc1ccc2c(nc(CCCOc3ccccc3)n2C)[nH+]1

>  <Energy>  (4) 
73.49723301485572

>  <Genealogy>  (4) 
Cc1ccc2c(nc(CCCOc3ccccc3)n2C)[nH+]1 (protonated)
Cc1ccc2c(nc(CCCOc3ccccc3)n2C)[nH+]1 (3D coordinates assigned)
Cc1ccc2c(nc(CCCOc3ccccc3)n2C)[nH+]1 (optimized conformer: 73.49723301485572 kcal/mol)

>  <smiles>  (4) 
Cc1ccc2c(n1)nc(CCCOc1ccccc1)n2C

>  <score_type>  (4) 
oracle

>  <origin>  (4) 
adg

>  <m_score__min__energy>  (4) 
-7.7300000000000004

>  <m_primary>  (4) 
energy

$$$$
4:0
     RDKit          3D

 38 40  0  0  0  0  0  0  0  0999 V2000
    1.0030   24.7930  -36.2020 C   0  0  0  0  0  0  0  0  0  0  0  0
    1.3620   23.3140  -36.0940 C   0  0  0  0  0  0  0  0  0  0  0  0
    0.3430   22.5870  -35.3210 N   0  0  0  0  0  0  0  0  0  0  0  0
    0.8220   21.2880  -34.8180 C   0  0  0  0  0  0  0  0  0  0  0  0
   -0.3130   20.3290  -34.5390 C   0  0  0  0  0  0  0  0  0  0  0  0
   -0.1440   18.9540  -34.7650 C   0  0  0  0  0  0  0  0  0  0  0  0
   -1.1850   18.0630  -34.4910 C   0  0  0  0  0  0  0  0  0  0  0  0
   -2.4010   18.5350  -33.9900 C   0  0  0  0  0  0  0  0  0  0  0  0
   -2.5900   19.9100  -33.7630 C   0  0  0  0  0  0  0  0  0  0  0  0
   -3.8720   20.4150  -33.2130 C   0  0  0  0  0  0  0  0  0  0  0  0
   -3.8960   21.6090  -32.4790 C   0  0  0  0  0  0  0  0  0  0  0  0
   -5.1020   22.0800  -31.9540 C   0  0  0  0  0  0  0  0  0  0  0  0
   -5.1620   23.2660  -31.2080 C   0  0  0  0  0  0  0  0  0  0  0  0
   -6.3860   23.7060  -30.6960 C   0  0  0  0  0  0  0  0  0  0  0  0
   -6.4680   25.3220  -29.6800 Br  0  0  0  0  0  0  0  0  0  0  0  0
   -7.5510   22.9650  -30.9240 C   0  0  0  0  0  0  0  0  0  0  0  0
   -7.4990   21.7810  -31.6670 C   0  0  0  0  0  0  0  0  0  0  0  0
   -9.1090   20.7890  -31.9640 Br  0  0  0  0  0  0  0  0  0  0  0  0
   -6.2760   21.3320  -32.1850 C   0  0  0  0  0  0  0  0  0  0  0  0
   -6.2200   20.2080  -32.8940 O   0  0  0  0  0  0  0  0  0  0  0  0
   -5.0910   19.7310  -33.4090 C   0  0  0  0  0  0  0  0  0  0  0  0
   -5.1310   18.6720  -34.0890 O   0  0  0  0  0  0  0  0  0  0  0  0
   -1.5370   20.8000  -34.0390 C   0  0  0  0  0  0  0  0  0  0  0  0
    0.8994   25.2198  -35.1935 H   0  0  0  0  0  0  0  0  0  0  0  0
    1.7982   25.3246  -36.7452 H   0  0  0  0  0  0  0  0  0  0  0  0
    0.0526   24.9009  -36.7452 H   0  0  0  0  0  0  0  0  0  0  0  0
    1.4248   22.8829  -37.1041 H   0  0  0  0  0  0  0  0  0  0  0  0
    2.3295   23.2215  -35.5789 H   0  0  0  0  0  0  0  0  0  0  0  0
   -0.4950   22.4320  -35.9290 H   0  0  0  0  0  0  0  0  0  0  0  0
    1.4870   20.8401  -35.5711 H   0  0  0  0  0  0  0  0  0  0  0  0
    1.3523   21.4676  -33.8712 H   0  0  0  0  0  0  0  0  0  0  0  0
    0.8111   18.5766  -35.1591 H   0  0  0  0  0  0  0  0  0  0  0  0
   -1.0467   16.9866  -34.6703 H   0  0  0  0  0  0  0  0  0  0  0  0
   -3.2146   17.8275  -33.7720 H   0  0  0  0  0  0  0  0  0  0  0  0
   -2.9665   22.1744  -32.3166 H   0  0  0  0  0  0  0  0  0  0  0  0
   -4.2472   23.8491  -31.0260 H   0  0  0  0  0  0  0  0  0  0  0  0
   -8.5113   23.3150  -30.5174 H   0  0  0  0  0  0  0  0  0  0  0  0
   -1.6740   21.8769  -33.8612 H   0  0  0  0  0  0  0  0  0  0  0  0
  1  2  1  0
  2  3  1  0
  3  4  1  0
  4  5  1  0
  5  6  2  0
  6  7  1  0
  7  8  2  0
  8  9  1  0
  9 10  1  0
 10 11  2  0
 11 12  1  0
 12 13  2  0
 13 14  1  0
 14 15  1  0
 14 16  2  0
 16 17  1  0
 17 18  1  0
 17 19  2  0
 19 20  1  0
 20 21  1  0
 21 22  2  0
  9 23  2  0
 23  5  1  0
 21 10  1  0
 19 12  1  0
  1 24  1  0
  1 25  1  0
  1 26  1  0
  2 27  1  0
  2 28  1  0
  3 29  1  0
  4 30  1  0
  4 31  1  0
  6 32  1  0
  7 33  1  0
  8 34  1  0
 11 35  1  0
 13 36  1  0
 16 37  1  0
 23 38  1  0
M  END
>  <UniqueID>  (5) 
5

>  <SMILES>  (5) 
CCNCc1cccc(-c2cc3cc(Br)cc(Br)c3oc2=O)c1

>  <Energy>  (5) 
49.10772726045797

>  <Genealogy>  (5) 
CCNCc1cccc(-c2cc3cc(Br)cc(Br)c3oc2=O)c1 (3D coordinates assigned)
CCNCc1cccc(-c2cc3cc(Br)cc(Br)c3oc2=O)c1 (optimized conformer: 49.10772726045797 kcal/mol)

>  <smiles>  (5) 
CCNCc1cccc(-c2cc3cc(Br)cc(Br)c3oc2=O)c1

>  <score_type>  (5) 
oracle

>  <origin>  (5) 
adg

>  <m_score__min__energy>  (5) 
-8.9199999999999999

>  <m_primary>  (5) 
energy

$$$$
5:0
     RDKit          3D

 61 62  0  0  0  0  0  0  0  0999 V2000
   -6.4720   17.5830  -31.6560 C   0  0  0  0  0  0  0  0  0  0  0  0
   -6.2580   17.1040  -33.0880 C   0  0  0  0  0  0  0  0  0  0  0  0
   -6.1400   18.2660  -34.0850 C   0  0  0  0  0  0  0  0  0  0  0  0
   -5.0890   19.2310  -33.6850 N   0  0  0  0  0  0  0  0  0  0  0  0
   -3.7750   18.9630  -33.9830 C   0  0  0  0  0  0  0  0  0  0  0  0
   -3.4820   17.9070  -34.6160 O   0  0  0  0  0  0  0  0  0  0  0  0
   -2.7770   19.8270  -33.6080 N   0  0  0  0  0  0  0  0  0  0  0  0
   -1.3750   19.5250  -33.9490 C   0  0  0  0  0  0  0  0  0  0  0  0
   -3.0860   21.0100  -32.9930 C   0  0  0  0  0  0  0  0  0  0  0  0
   -2.1720   21.8340  -32.7030 O   0  0  0  0  0  0  0  0  0  0  0  0
   -4.4180   21.3150  -32.6860 C   0  0  0  0  0  0  0  0  0  0  0  0
   -4.7840   22.5210  -32.0670 C   0  0  0  0  0  0  0  0  0  0  0  0
   -6.1290   22.8000  -31.7780 C   0  0  0  0  0  0  0  0  0  0  0  0
   -6.4930   24.1410  -31.1720 C   0  0  0  0  0  0  0  0  0  0  0  0
   -5.8720   24.3590  -29.7820 C   0  0  0  0  0  0  0  0  0  0  0  0
   -4.4200   24.7350  -29.8170 C   0  0  0  0  0  0  0  0  0  0  0  0
   -3.9270   25.3010  -30.8300 O   0  0  0  0  0  0  0  0  0  0  0  0
   -3.6450   24.5390  -28.6700 O   0  0  0  0  0  0  0  0  0  0  0  0
   -2.6580   23.5160  -28.5560 C   0  0  0  0  0  0  0  0  0  0  0  0
   -3.2650   22.1420  -28.8680 C   0  0  0  0  0  0  0  0  0  0  0  0
   -2.2210   21.1630  -29.4260 C   0  0  0  0  0  0  0  0  0  0  0  0
   -2.0530   20.0040  -28.5160 N   0  0  0  0  0  0  0  0  0  0  0  0
   -0.6230   19.7280  -28.2910 C   0  0  0  0  0  0  0  0  0  0  0  0
   -2.7650   20.2140  -27.2360 C   0  0  0  0  0  0  0  0  0  0  0  0
   -2.7340   18.9560  -26.3660 C   0  0  0  0  0  0  0  0  0  0  0  0
   -7.0980   21.8230  -32.0970 C   0  0  0  0  0  0  0  0  0  0  0  0
   -8.5620   22.0260  -31.8320 C   0  0  0  0  0  0  0  0  0  0  0  0
   -6.7120   20.6720  -32.7130 N   0  0  0  0  0  0  0  0  0  0  0  0
   -5.4170   20.3900  -33.0260 C   0  0  0  0  0  0  0  0  0  0  0  0
   -6.1262   16.8091  -30.9550 H   0  0  0  0  0  0  0  0  0  0  0  0
   -5.9020   18.5091  -31.4901 H   0  0  0  0  0  0  0  0  0  0  0  0
   -7.5421   17.7764  -31.4901 H   0  0  0  0  0  0  0  0  0  0  0  0
   -5.3327   16.5104  -33.1269 H   0  0  0  0  0  0  0  0  0  0  0  0
   -7.1349   16.5051  -33.3748 H   0  0  0  0  0  0  0  0  0  0  0  0
   -5.8916   17.8601  -35.0768 H   0  0  0  0  0  0  0  0  0  0  0  0
   -7.1025   18.7981  -34.1047 H   0  0  0  0  0  0  0  0  0  0  0  0
   -0.7918   19.3994  -33.0249 H   0  0  0  0  0  0  0  0  0  0  0  0
   -1.3327   18.5971  -34.5383 H   0  0  0  0  0  0  0  0  0  0  0  0
   -0.9544   20.3531  -34.5383 H   0  0  0  0  0  0  0  0  0  0  0  0
   -4.0080   23.2555  -31.8056 H   0  0  0  0  0  0  0  0  0  0  0  0
   -6.1387   24.9371  -31.8433 H   0  0  0  0  0  0  0  0  0  0  0  0
   -7.5862   24.1626  -31.0518 H   0  0  0  0  0  0  0  0  0  0  0  0
   -6.4262   25.1642  -29.2775 H   0  0  0  0  0  0  0  0  0  0  0  0
   -5.9407   23.4000  -29.2477 H   0  0  0  0  0  0  0  0  0  0  0  0
   -1.8423   23.7202  -29.2652 H   0  0  0  0  0  0  0  0  0  0  0  0
   -2.2735   23.5078  -27.5254 H   0  0  0  0  0  0  0  0  0  0  0  0
   -3.6865   21.7220  -27.9428 H   0  0  0  0  0  0  0  0  0  0  0  0
   -4.0427   22.2809  -29.6334 H   0  0  0  0  0  0  0  0  0  0  0  0
   -2.5527   20.8038  -30.4114 H   0  0  0  0  0  0  0  0  0  0  0  0
   -1.2573   21.6857  -29.5160 H   0  0  0  0  0  0  0  0  0  0  0  0
   -0.4227   19.6893  -27.2101 H   0  0  0  0  0  0  0  0  0  0  0  0
   -0.3597   18.7625  -28.7475 H   0  0  0  0  0  0  0  0  0  0  0  0
   -0.0193   20.5262  -28.7475 H   0  0  0  0  0  0  0  0  0  0  0  0
   -2.2835   21.0386  -26.6899 H   0  0  0  0  0  0  0  0  0  0  0  0
   -3.8150   20.4539  -27.4597 H   0  0  0  0  0  0  0  0  0  0  0  0
   -2.7411   19.2441  -25.3044 H   0  0  0  0  0  0  0  0  0  0  0  0
   -3.6172   18.3376  -26.5840 H   0  0  0  0  0  0  0  0  0  0  0  0
   -1.8214   18.3818  -26.5840 H   0  0  0  0  0  0  0  0  0  0  0  0
   -8.7382   22.0504  -30.7465 H   0  0  0  0  0  0  0  0  0  0  0  0
   -8.8868   22.9778  -32.2777 H   0  0  0  0  0  0  0  0  0  0  0  0
   -9.1335   21.1985  -32.2777 H   0  0  0  0  0  0  0  0  0  0  0  0
  1  2  1  0
  2  3  1  0
  3  4  1  0
  4  5  1  0
  5  6  2  0
  5  7  1  0
  7  8  1  0
  7  9  1  0
  9 10  2  0
  9 11  1  0
 11 12  2  0
 12 13  1  0
 13 14  1  0
 14 15  1  0
 15 16  1  0
 16 17  2  0
 16 18  1  0
 18 19  1  0
 19 20  1  0
 20 21  1  0
 21 22  1  0
 22 23  1  0
 22 24  1  0
 24 25  1  0
 13 26  2  0
 26 27  1  0
 26 28  1  0
 28 29  2  0
 29  4  1  0
 29 11  1  0
  1 30  1  0
  1 31  1  0
  1 32  1  0
  2 33  1  0
  2 34  1  0
  3 35  1  0
  3 36  1  0
  8 37  1  0
  8 38  1  0
  8 39  1  0
 12 40  1  0
 14 41  1  0
 14 42  1  0
 15 43  1  0
 15 44  1  0
 19 45  1  0
 19 46  1  0
 20 47  1  0
 20 48  1  0
 21 49  1  0
 21 50  1  0
 23 51  1  0
 23 52  1  0
 23 53  1  0
 24 54  1  0
 24 55  1  0
 25 56  1  0
 25 57  1  0
 25 58  1  0
 27 59  1  0
 27 60  1  0
 27 61  1  0
M  END
>  <UniqueID>  (6) 
6

>  <SMILES>  (6) 
CCCn1c(=O)n(C)c(=O)c2cc(CCC(=O)OCCCN(C)CC)c(C)nc21

>  <Energy>  (6) 
56.76105454765451

>  <Genealogy>  (6) 
CCCn1c(=O)n(C)c(=O)c2cc(CCC(=O)OCCCN(C)CC)c(C)nc21 (3D coordinates assigned)
CCCn1c(=O)n(C)c(=O)c2cc(CCC(=O)OCCCN(C)CC)c(C)nc21 (optimized conformer: 56.76105454765451 kcal/mol)

>  <smiles>  (6) 
CCCn1c(=O)n(C)c(=O)c2cc(CCC(=O)OCCCN(C)CC)c(C)nc21

>  <score_type>  (6) 
oracle

>  <origin>  (6) 
adg

>  <m_score__min__energy>  (6) 
-8.7799999999999994

>  <m_primary>  (6) 
energy

$$$$
6:0
     RDKit          3D

 33 35  0  0  0  0  0  0  0  0999 V2000
   -7.1930   17.3040  -32.7950 C   0  0  0  0  0  0  0  0  0  0  0  0
   -7.2840   18.7590  -32.8070 N   0  0  0  0  0  0  0  0  0  0  0  0
   -8.3090   19.4390  -32.3180 N   0  0  0  0  0  0  0  0  0  0  0  0
   -7.9940   20.7370  -32.4860 C   0  0  0  0  0  0  0  0  0  0  0  0
   -9.0340   22.0890  -31.9400 S   0  0  0  0  0  0  0  0  0  0  0  0
   -8.2440   22.2280  -30.2980 C   0  0  0  0  0  0  0  0  0  0  0  0
   -6.9820   23.0440  -30.3710 C   0  0  0  0  0  0  0  0  0  0  0  0
   -7.0330   24.4380  -30.2130 C   0  0  0  0  0  0  0  0  0  0  0  0
   -5.8570   25.1940  -30.2470 C   0  0  0  0  0  0  0  0  0  0  0  0
   -4.6240   24.5630  -30.4350 C   0  0  0  0  0  0  0  0  0  0  0  0
   -3.4850   25.2980  -30.4650 F   0  0  0  0  0  0  0  0  0  0  0  0
   -4.5650   23.1750  -30.5890 C   0  0  0  0  0  0  0  0  0  0  0  0
   -5.7380   22.4160  -30.5580 C   0  0  0  0  0  0  0  0  0  0  0  0
   -6.7920   20.9010  -33.0710 N   0  0  0  0  0  0  0  0  0  0  0  0
   -6.3640   19.6360  -33.2590 C   0  0  0  0  0  0  0  0  0  0  0  0
   -5.0350   19.2350  -33.8580 C   0  0  0  0  0  0  0  0  0  0  0  0
   -4.0040   18.7020  -32.8740 C   0  0  0  0  0  0  0  0  0  0  0  0
   -3.8390   20.0920  -33.4710 C   0  0  0  0  0  0  0  0  0  0  0  0
   -7.1706   16.9466  -31.7549 H   0  0  0  0  0  0  0  0  0  0  0  0
   -8.0662   16.8777  -33.3105 H   0  0  0  0  0  0  0  0  0  0  0  0
   -6.2735   16.9899  -33.3105 H   0  0  0  0  0  0  0  0  0  0  0  0
   -8.9449   22.7120  -29.6020 H   0  0  0  0  0  0  0  0  0  0  0  0
   -7.9867   21.2175  -29.9476 H   0  0  0  0  0  0  0  0  0  0  0  0
   -8.0014   24.9374  -30.0619 H   0  0  0  0  0  0  0  0  0  0  0  0
   -5.9023   26.2863  -30.1257 H   0  0  0  0  0  0  0  0  0  0  0  0
   -3.5939   22.6794  -30.7348 H   0  0  0  0  0  0  0  0  0  0  0  0
   -5.6879   21.3240  -30.6803 H   0  0  0  0  0  0  0  0  0  0  0  0
   -6.3130   21.8020  -33.2920 H   0  0  0  0  0  0  0  0  0  0  0  0
   -5.4634   18.8846  -34.8086 H   0  0  0  0  0  0  0  0  0  0  0  0
   -4.2655   18.5871  -31.8117 H   0  0  0  0  0  0  0  0  0  0  0  0
   -3.3765   17.8004  -32.8170 H   0  0  0  0  0  0  0  0  0  0  0  0
   -3.9811   20.9819  -32.8402 H   0  0  0  0  0  0  0  0  0  0  0  0
   -3.0427   20.6114  -34.0243 H   0  0  0  0  0  0  0  0  0  0  0  0
  1  2  1  0
  2  3  1  0
  3  4  2  0
  4  5  1  0
  5  6  1  0
  6  7  1  0
  7  8  2  0
  8  9  1  0
  9 10  2  0
 10 11  1  0
 10 12  1  0
 12 13  2  0
  4 14  1  0
 14 15  2  0
 15 16  1  0
 16 17  1  0
 17 18  1  0
 15  2  1  0
 18 16  1  0
 13  7  1  0
  1 19  1  0
  1 20  1  0
  1 21  1  0
  6 22  1  0
  6 23  1  0
  8 24  1  0
  9 25  1  0
 12 26  1  0
 13 27  1  0
 14 28  1  0
 16 29  1  0
 17 30  1  0
 17 31  1  0
 18 32  1  0
 18 33  1  0
M  CHG  1  14   1
M  END
>  <UniqueID>  (7) 
7

>  <SMILES>  (7) 
Cn1nc(SCc2ccc(F)cc2)[nH+]c1C1CC1

>  <Energy>  (7) 
327.8100332142933

>  <Genealogy>  (7) 
Cn1nc(SCc2ccc(F)cc2)[nH+]c1C1CC1 (protonated)
Cn1nc(SCc2ccc(F)cc2)[nH+]c1C1CC1 (3D coordinates assigned)
Cn1nc(SCc2ccc(F)cc2)[nH+]c1C1CC1 (nonaromatic ring conformer: 327.8100332142933 kcal/mol)

>  <smiles>  (7) 
Cn1nc(SCc2ccc(F)cc2)nc1C1CC1

>  <score_type>  (7) 
oracle

>  <origin>  (7) 
adg

>  <m_score__min__energy>  (7) 
-7.1299999999999999

>  <m_primary>  (7) 
energy

$$$$
7:0
     RDKit          3D

 62 64  0  0  0  0  0  0  0  0999 V2000
   -0.9714   21.0040  -28.2949 H   0  0  0  0  0  0  0  0  0  0  0  0
   -1.5230   21.2010  -29.2260 C   0  0  0  0  0  0  0  0  0  0  0  0
   -1.4470   20.3380  -30.1830 N   0  0  0  0  0  0  0  0  0  0  0  0
   -0.4700   19.2740  -30.2480 C   0  0  0  0  0  0  0  0  0  0  0  0
   -0.1907   18.9699  -29.2284 H   0  0  0  0  0  0  0  0  0  0  0  0
   -0.8996   18.4139  -30.7825 H   0  0  0  0  0  0  0  0  0  0  0  0
    0.4235   19.6288  -30.7825 H   0  0  0  0  0  0  0  0  0  0  0  0
   -2.3360   22.4690  -29.3290 C   0  0  0  0  0  0  0  0  0  0  0  0
   -3.1033   22.4660  -28.5408 H   0  0  0  0  0  0  0  0  0  0  0  0
   -1.6548   23.3246  -29.2113 H   0  0  0  0  0  0  0  0  0  0  0  0
   -2.9950   22.5840  -30.6340 N   0  0  0  0  0  0  0  0  0  0  0  0
   -2.5710   22.0330  -31.4130 H   0  0  0  0  0  0  0  0  0  0  0  0
   -4.3070   23.1490  -30.8390 C   0  0  0  0  0  0  0  0  0  0  0  0
   -4.5300   24.4810  -30.4610 C   0  0  0  0  0  0  0  0  0  0  0  0
   -3.6773   25.1115  -30.1690 H   0  0  0  0  0  0  0  0  0  0  0  0
   -5.8080   25.0140  -30.4500 C   0  0  0  0  0  0  0  0  0  0  0  0
   -5.9622   26.0599  -30.1462 H   0  0  0  0  0  0  0  0  0  0  0  0
   -6.8940   24.2360  -30.8200 C   0  0  0  0  0  0  0  0  0  0  0  0
   -7.9071   24.6601  -30.7582 H   0  0  0  0  0  0  0  0  0  0  0  0
   -6.7250   22.9060  -31.2760 C   0  0  0  0  0  0  0  0  0  0  0  0
   -5.4080   22.3540  -31.2940 C   0  0  0  0  0  0  0  0  0  0  0  0
   -5.2480   21.0310  -31.7760 C   0  0  0  0  0  0  0  0  0  0  0  0
   -3.9560   20.5160  -32.1280 N   0  0  0  0  0  0  0  0  0  0  0  0
   -3.2720   20.3270  -31.3610 H   0  0  0  0  0  0  0  0  0  0  0  0
   -3.6970   20.0710  -33.4970 C   0  0  0  0  0  0  0  0  0  0  0  0
   -3.9880   19.0141  -33.5876 H   0  0  0  0  0  0  0  0  0  0  0  0
   -4.2842   20.7059  -34.1767 H   0  0  0  0  0  0  0  0  0  0  0  0
   -2.2120   20.2120  -33.8800 C   0  0  0  0  0  0  0  0  0  0  0  0
   -1.7774   19.2038  -33.9482 H   0  0  0  0  0  0  0  0  0  0  0  0
   -2.1854   20.7571  -34.8351 H   0  0  0  0  0  0  0  0  0  0  0  0
   -1.4060   20.9980  -32.9250 N   0  0  0  0  0  0  0  0  0  0  0  0
   -1.4120   20.5290  -31.9920 H   0  0  0  0  0  0  0  0  0  0  0  0
   -0.0060   21.2220  -33.3250 C   0  0  0  0  0  0  0  0  0  0  0  0
    0.3949   22.0709  -32.7518 H   0  0  0  0  0  0  0  0  0  0  0  0
    0.5563   20.2993  -33.1190 H   0  0  0  0  0  0  0  0  0  0  0  0
    0.1260   21.5310  -34.8260 C   0  0  0  0  0  0  0  0  0  0  0  0
    0.4558   20.6235  -35.3529 H   0  0  0  0  0  0  0  0  0  0  0  0
   -0.8528   21.8607  -35.2044 H   0  0  0  0  0  0  0  0  0  0  0  0
    1.1100   22.6100  -35.0580 N   0  0  0  0  0  0  0  0  0  0  0  0
    0.6090   23.5360  -36.0860 C   0  0  0  0  0  0  0  0  0  0  0  0
    0.1394   24.4040  -35.6001 H   0  0  0  0  0  0  0  0  0  0  0  0
    1.4465   23.8755  -36.7132 H   0  0  0  0  0  0  0  0  0  0  0  0
   -0.1334   23.0207  -36.7132 H   0  0  0  0  0  0  0  0  0  0  0  0
    2.4080   22.0590  -35.4880 C   0  0  0  0  0  0  0  0  0  0  0  0
    3.0093   21.8038  -34.6030 H   0  0  0  0  0  0  0  0  0  0  0  0
    2.2407   21.1543  -36.0909 H   0  0  0  0  0  0  0  0  0  0  0  0
    2.9426   22.8078  -36.0909 H   0  0  0  0  0  0  0  0  0  0  0  0
   -6.3770   20.2220  -31.9820 C   0  0  0  0  0  0  0  0  0  0  0  0
   -6.2380   18.8530  -32.2980 C   0  0  0  0  0  0  0  0  0  0  0  0
   -5.2334   18.4215  -32.4183 H   0  0  0  0  0  0  0  0  0  0  0  0
   -7.3600   18.0430  -32.4590 C   0  0  0  0  0  0  0  0  0  0  0  0
   -7.2384   16.9802  -32.7153 H   0  0  0  0  0  0  0  0  0  0  0  0
   -8.6330   18.5770  -32.2960 C   0  0  0  0  0  0  0  0  0  0  0  0
   -9.5168   17.9298  -32.3967 H   0  0  0  0  0  0  0  0  0  0  0  0
   -8.7920   19.9320  -32.0050 C   0  0  0  0  0  0  0  0  0  0  0  0
   -9.8039   20.3412  -31.8687 H   0  0  0  0  0  0  0  0  0  0  0  0
   -7.6690   20.7910  -31.8820 C   0  0  0  0  0  0  0  0  0  0  0  0
   -7.8100   22.1490  -31.6840 N   0  0  0  0  0  0  0  0  0  0  0  0
   -9.1180   22.7970  -31.9330 C   0  0  0  0  0  0  0  0  0  0  0  0
   -9.5981   23.0349  -30.9723 H   0  0  0  0  0  0  0  0  0  0  0  0
   -8.9650   23.7235  -32.5058 H   0  0  0  0  0  0  0  0  0  0  0  0
   -9.7625   22.1140  -32.5058 H   0  0  0  0  0  0  0  0  0  0  0  0
  1  2  1  0
  2  3  2  0
  3  4  1  0
  4  5  1  0
  4  6  1  0
  4  7  1  0
  2  8  1  0
  8  9  1  0
  8 10  1  0
  8 11  1  0
 11 12  1  0
 11 13  1  0
 13 14  2  0
 14 15  1  0
 14 16  1  0
 16 17  1  0
 16 18  2  0
 18 19  1  0
 18 20  1  0
 20 21  2  0
 21 22  1  0
 22 23  1  0
 23 24  1  0
 23 25  1  0
 25 26  1  0
 25 27  1  0
 25 28  1  0
 28 29  1  0
 28 30  1  0
 28 31  1  0
 31 32  1  0
 31 33  1  0
 33 34  1  0
 33 35  1  0
 33 36  1  0
 36 37  1  0
 36 38  1  0
 36 39  1  0
 39 40  1  0
 40 41  1  0
 40 42  1  0
 40 43  1  0
 39 44  1  0
 44 45  1  0
 44 46  1  0
 44 47  1  0
 22 48  2  0
 48 49  1  0
 49 50  1  0
 49 51  2  0
 51 52  1  0
 51 53  1  0
 53 54  1  0
 53 55  2  0
 55 56  1  0
 55 57  1  0
 57 58  2  0
 58 59  1  0
 59 60  1  0
 59 61  1  0
 59 62  1  0
 21 13  1  0
 57 48  1  0
 58 20  1  0
M  CHG  1  58   1
M  END
>  <UniqueID>  (8) 
8

>  <SMILES>  (8) 
C/N=C\CNc1cccc2c1c(NCCNCCN(C)C)c1ccccc1[n+]2C

>  <Energy>  (8) 
95.36327044999896

>  <Genealogy>  (8) 
C/N=C\CNc1cccc2c1c(NCCNCCN(C)C)c1ccccc1[n+]2C (cis-trans isomerization)
C/N=C\CNc1cccc2c1c(NCCNCCN(C)C)c1ccccc1[n+]2C (3D coordinates assigned)
C/N=C\CNc1cccc2c1c(NCCNCCN(C)C)c1ccccc1[n+]2C (optimized conformer: 95.36327044999896 kcal/mol)

>  <smiles>  (8) 
CN=CCNc1cccc2c1c(NCCNCCN(C)C)c1ccccc1[n+]2C

>  <score_type>  (8) 
oracle

>  <origin>  (8) 
adg

>  <m_score__min__energy>  (8) 
-8.25

>  <m_primary>  (8) 
energy

$$$$
8:0
     RDKit          3D

 45 46  0  0  0  0  0  0  0  0999 V2000
   -2.7480   20.4440  -28.4570 C   0  0  0  0  0  0  0  0  0  0  0  0
   -3.4350   20.8330  -29.7720 C   0  0  0  0  0  0  0  0  0  0  0  0
   -3.1660   22.2470  -30.1480 N   0  0  0  0  0  0  0  0  0  0  0  0
   -1.8670   22.4110  -30.8540 C   0  0  0  0  0  0  0  0  0  0  0  0
   -1.4020   21.1800  -31.6380 C   0  0  0  0  0  0  0  0  0  0  0  0
   -3.3950   23.2740  -29.0810 C   0  0  0  0  0  0  0  0  0  0  0  0
   -4.2580   24.5020  -29.4480 C   0  0  0  0  0  0  0  0  0  0  0  0
   -4.4170   24.6110  -30.8450 O   0  0  0  0  0  0  0  0  0  0  0  0
   -5.7350   25.0100  -31.1730 C   0  0  0  0  0  0  0  0  0  0  0  0
   -6.5910   23.7840  -31.4780 C   0  0  0  0  0  0  0  0  0  0  0  0
   -6.0190   22.6520  -30.8680 O   0  0  0  0  0  0  0  0  0  0  0  0
   -6.1910   21.6190  -31.7330 N   0  0  0  0  0  0  0  0  0  0  0  0
   -7.1900   20.6070  -31.6310 C   0  0  0  0  0  0  0  0  0  0  0  0
   -8.2040   20.6820  -30.8880 O   0  0  0  0  0  0  0  0  0  0  0  0
   -6.8300   19.4770  -32.4810 C   0  0  0  0  0  0  0  0  0  0  0  0
   -7.4870   18.2710  -32.7200 C   0  0  0  0  0  0  0  0  0  0  0  0
   -6.8800   17.3500  -33.5910 C   0  0  0  0  0  0  0  0  0  0  0  0
   -5.6400   17.6470  -34.1970 C   0  0  0  0  0  0  0  0  0  0  0  0
   -4.9930   18.8690  -33.9370 C   0  0  0  0  0  0  0  0  0  0  0  0
   -5.6160   19.7680  -33.0740 C   0  0  0  0  0  0  0  0  0  0  0  0
   -5.1970   21.0850  -32.6050 C   0  0  0  0  0  0  0  0  0  0  0  0
   -4.1140   21.6630  -32.8860 O   0  0  0  0  0  0  0  0  0  0  0  0
   -3.3575   20.7891  -27.6088 H   0  0  0  0  0  0  0  0  0  0  0  0
   -2.6394   19.3504  -28.4095 H   0  0  0  0  0  0  0  0  0  0  0  0
   -1.7544   20.9135  -28.4095 H   0  0  0  0  0  0  0  0  0  0  0  0
   -3.0647   20.1765  -30.5732 H   0  0  0  0  0  0  0  0  0  0  0  0
   -4.5204   20.7205  -29.6329 H   0  0  0  0  0  0  0  0  0  0  0  0
   -3.8640   22.4750  -30.8970 H   0  0  0  0  0  0  0  0  0  0  0  0
   -1.9644   23.2493  -31.5595 H   0  0  0  0  0  0  0  0  0  0  0  0
   -1.1108   22.5854  -30.0744 H   0  0  0  0  0  0  0  0  0  0  0  0
   -1.1031   20.3888  -30.9347 H   0  0  0  0  0  0  0  0  0  0  0  0
   -2.2247   20.8162  -32.2711 H   0  0  0  0  0  0  0  0  0  0  0  0
   -0.5443   21.4510  -32.2711 H   0  0  0  0  0  0  0  0  0  0  0  0
   -3.8843   22.7679  -28.2358 H   0  0  0  0  0  0  0  0  0  0  0  0
   -2.3972   23.6854  -28.8685 H   0  0  0  0  0  0  0  0  0  0  0  0
   -5.2483   24.3978  -28.9807 H   0  0  0  0  0  0  0  0  0  0  0  0
   -3.7514   25.4072  -29.0821 H   0  0  0  0  0  0  0  0  0  0  0  0
   -6.1717   25.5572  -30.3246 H   0  0  0  0  0  0  0  0  0  0  0  0
   -5.7053   25.6594  -32.0604 H   0  0  0  0  0  0  0  0  0  0  0  0
   -7.6069   23.9386  -31.0855 H   0  0  0  0  0  0  0  0  0  0  0  0
   -6.6392   23.6305  -32.5662 H   0  0  0  0  0  0  0  0  0  0  0  0
   -8.4516   18.0469  -32.2412 H   0  0  0  0  0  0  0  0  0  0  0  0
   -7.3748   16.3905  -33.8021 H   0  0  0  0  0  0  0  0  0  0  0  0
   -5.1763   16.9177  -34.8774 H   0  0  0  0  0  0  0  0  0  0  0  0
   -4.0246   19.1074  -34.4010 H   0  0  0  0  0  0  0  0  0  0  0  0
  1  2  1  0
  2  3  1  0
  3  4  1  0
  4  5  1  0
  3  6  1  0
  6  7  1  0
  7  8  1  0
  8  9  1  0
  9 10  1  0
 10 11  1  0
 11 12  1  0
 12 13  1  0
 13 14  2  0
 13 15  1  0
 15 16  2  0
 16 17  1  0
 17 18  2  0
 18 19  1  0
 19 20  2  0
 20 21  1  0
 21 22  2  0
 21 12  1  0
 20 15  1  0
  1 23  1  0
  1 24  1  0
  1 25  1  0
  2 26  1  0
  2 27  1  0
  3 28  1  0
  4 29  1  0
  4 30  1  0
  5 31  1  0
  5 32  1  0
  5 33  1  0
  6 34  1  0
  6 35  1  0
  7 36  1  0
  7 37  1  0
  9 38  1  0
  9 39  1  0
 10 40  1  0
 10 41  1  0
 16 42  1  0
 17 43  1  0
 18 44  1  0
 19 45  1  0
M  CHG  1   3   1
M  END
>  <UniqueID>  (9) 
9

>  <SMILES>  (9) 
CC[NH+](CC)CCOCCON1C(=O)c2ccccc2C1=O

>  <Energy>  (9) 
85.57938168649595

>  <Genealogy>  (9) 
CC[NH+](CC)CCOCCON1C(=O)c2ccccc2C1=O (protonated)
CC[NH+](CC)CCOCCON1C(=O)c2ccccc2C1=O (3D coordinates assigned)
CC[NH+](CC)CCOCCON1C(=O)c2ccccc2C1=O (nonaromatic ring conformer: 85.57938168649595 kcal/mol)

>  <smiles>  (9) 
CCN(CC)CCOCCON1C(=O)c2ccccc2C1=O

>  <score_type>  (9) 
oracle

>  <origin>  (9) 
adg

>  <m_score__min__energy>  (9) 
-5.71

>  <m_primary>  (9) 
energy

$$$$
9:0
     RDKit          3D

 86 89  0  0  0  0  0  0  0  0999 V2000
   -4.6050   13.5270  -31.2280 C   0  0  0  0  0  0  0  0  0  0  0  0
   -3.7540   13.9790  -32.4170 C   0  0  0  0  0  0  0  0  0  0  0  0
   -4.1860   15.2950  -32.9400 N   0  0  0  0  0  0  0  0  0  0  0  0
   -5.5760   15.3040  -33.4370 C   0  0  0  0  0  0  0  0  0  0  0  0
   -6.2570   16.6730  -33.2910 C   0  0  0  0  0  0  0  0  0  0  0  0
   -5.3030   17.6440  -32.9190 O   0  0  0  0  0  0  0  0  0  0  0  0
   -4.9270   18.4260  -34.0390 C   0  0  0  0  0  0  0  0  0  0  0  0
   -3.4580   18.8330  -33.9130 C   0  0  0  0  0  0  0  0  0  0  0  0
   -3.2720   19.9110  -32.8390 C   0  0  0  0  0  0  0  0  0  0  0  0
   -4.3790   19.8820  -31.8840 N   0  0  0  0  0  0  0  0  0  0  0  0
   -5.0600   21.0770  -31.4590 C   0  0  0  0  0  0  0  0  0  0  0  0
   -6.4420   21.2280  -31.6760 C   0  0  0  0  0  0  0  0  0  0  0  0
   -7.1930   20.2200  -32.3210 C   0  0  0  0  0  0  0  0  0  0  0  0
   -8.5410   20.4120  -32.6130 C   0  0  0  0  0  0  0  0  0  0  0  0
   -9.1660   21.6040  -32.2660 C   0  0  0  0  0  0  0  0  0  0  0  0
   -8.4580   22.5930  -31.5840 C   0  0  0  0  0  0  0  0  0  0  0  0
   -7.0960   22.4070  -31.2290 C   0  0  0  0  0  0  0  0  0  0  0  0
   -6.4070   23.3390  -30.4750 N   0  0  0  0  0  0  0  0  0  0  0  0
   -7.1440   24.3890  -29.7390 C   0  0  0  0  0  0  0  0  0  0  0  0
   -5.0290   23.2690  -30.3790 C   0  0  0  0  0  0  0  0  0  0  0  0
   -4.2640   24.3380  -29.8430 C   0  0  0  0  0  0  0  0  0  0  0  0
   -2.8670   24.2500  -29.7330 C   0  0  0  0  0  0  0  0  0  0  0  0
   -2.0700   25.2880  -29.2230 O   0  0  0  0  0  0  0  0  0  0  0  0
   -1.1400   25.1910  -28.1460 C   0  0  0  0  0  0  0  0  0  0  0  0
   -1.7210   25.6350  -26.7770 C   0  0  0  0  0  0  0  0  0  0  0  0
   -0.8290   25.5030  -25.5730 N   0  0  0  0  0  0  0  0  0  0  0  0
   -0.8490   24.0930  -25.0920 C   0  0  0  0  0  0  0  0  0  0  0  0
   -1.2700   26.4180  -24.4700 C   0  0  0  0  0  0  0  0  0  0  0  0
   -0.1070   26.8230  -23.5440 C   0  0  0  0  0  0  0  0  0  0  0  0
    0.9350   27.6180  -24.2690 N   0  0  0  0  0  0  0  0  0  0  0  0
    0.6510   29.0680  -24.1170 C   0  0  0  0  0  0  0  0  0  0  0  0
    2.2610   27.3490  -23.6580 C   0  0  0  0  0  0  0  0  0  0  0  0
    0.9780   27.2850  -25.7300 C   0  0  0  0  0  0  0  0  0  0  0  0
    0.5830   25.8170  -26.0020 C   0  0  0  0  0  0  0  0  0  0  0  0
   -2.2200   23.0910  -30.1520 C   0  0  0  0  0  0  0  0  0  0  0  0
   -2.9410   22.0350  -30.7000 C   0  0  0  0  0  0  0  0  0  0  0  0
   -4.3400   22.1160  -30.8430 C   0  0  0  0  0  0  0  0  0  0  0  0
   -4.0973   13.7967  -30.2902 H   0  0  0  0  0  0  0  0  0  0  0  0
   -5.5860   14.0229  -31.2696 H   0  0  0  0  0  0  0  0  0  0  0  0
   -4.7434   12.4365  -31.2696 H   0  0  0  0  0  0  0  0  0  0  0  0
   -2.7046   14.0518  -32.0953 H   0  0  0  0  0  0  0  0  0  0  0  0
   -3.8732   13.2381  -33.2212 H   0  0  0  0  0  0  0  0  0  0  0  0
   -4.1350   15.9880  -32.1530 H   0  0  0  0  0  0  0  0  0  0  0  0
   -3.5390   15.6500  -33.6850 H   0  0  0  0  0  0  0  0  0  0  0  0
   -5.5693   15.0276  -34.5017 H   0  0  0  0  0  0  0  0  0  0  0  0
   -6.1470   14.5862  -32.8299 H   0  0  0  0  0  0  0  0  0  0  0  0
   -6.7133   16.9581  -34.2504 H   0  0  0  0  0  0  0  0  0  0  0  0
   -7.0341   16.6112  -32.5149 H   0  0  0  0  0  0  0  0  0  0  0  0
   -5.0662   17.8386  -34.9586 H   0  0  0  0  0  0  0  0  0  0  0  0
   -5.5534   19.3293  -34.0797 H   0  0  0  0  0  0  0  0  0  0  0  0
   -2.8627   17.9489  -33.6410 H   0  0  0  0  0  0  0  0  0  0  0  0
   -3.1256   19.2420  -34.8785 H   0  0  0  0  0  0  0  0  0  0  0  0
   -2.3281   19.7294  -32.3041 H   0  0  0  0  0  0  0  0  0  0  0  0
   -3.2495   20.8970  -33.3262 H   0  0  0  0  0  0  0  0  0  0  0  0
   -4.5710   18.9890  -31.3710 H   0  0  0  0  0  0  0  0  0  0  0  0
   -6.7071   19.2722  -32.5958 H   0  0  0  0  0  0  0  0  0  0  0  0
   -9.1118   19.6194  -33.1189 H   0  0  0  0  0  0  0  0  0  0  0  0
  -10.2213   21.7675  -32.5299 H   0  0  0  0  0  0  0  0  0  0  0  0
   -8.9631   23.5329  -31.3166 H   0  0  0  0  0  0  0  0  0  0  0  0
   -7.0302   24.2269  -28.6570 H   0  0  0  0  0  0  0  0  0  0  0  0
   -6.7398   25.3765  -30.0063 H   0  0  0  0  0  0  0  0  0  0  0  0
   -8.2101   24.3445  -30.0063 H   0  0  0  0  0  0  0  0  0  0  0  0
   -4.7753   25.2524  -29.5076 H   0  0  0  0  0  0  0  0  0  0  0  0
   -0.8145   24.1436  -28.0617 H   0  0  0  0  0  0  0  0  0  0  0  0
   -0.3080   25.8722  -28.3779 H   0  0  0  0  0  0  0  0  0  0  0  0
   -2.0019   26.6949  -26.8654 H   0  0  0  0  0  0  0  0  0  0  0  0
   -2.5555   24.9439  -26.5871 H   0  0  0  0  0  0  0  0  0  0  0  0
   -0.8492   24.0808  -23.9921 H   0  0  0  0  0  0  0  0  0  0  0  0
   -1.7544   23.5913  -25.4644 H   0  0  0  0  0  0  0  0  0  0  0  0
    0.0418   23.5659  -25.4644 H   0  0  0  0  0  0  0  0  0  0  0  0
   -1.7001   27.3271  -24.9156 H   0  0  0  0  0  0  0  0  0  0  0  0
   -2.0111   25.8784  -23.8621 H   0  0  0  0  0  0  0  0  0  0  0  0
   -0.5055   27.4296  -22.7174 H   0  0  0  0  0  0  0  0  0  0  0  0
    0.3661   25.9032  -23.1695 H   0  0  0  0  0  0  0  0  0  0  0  0
    0.6013   29.3218  -23.0478 H   0  0  0  0  0  0  0  0  0  0  0  0
    1.4521   29.6507  -24.5953 H   0  0  0  0  0  0  0  0  0  0  0  0
   -0.3107   29.3054  -24.5953 H   0  0  0  0  0  0  0  0  0  0  0  0
    2.1702   27.3674  -22.5619 H   0  0  0  0  0  0  0  0  0  0  0  0
    2.6191   26.3599  -23.9797 H   0  0  0  0  0  0  0  0  0  0  0  0
    2.9762   28.1203  -23.9797 H   0  0  0  0  0  0  0  0  0  0  0  0
    0.2798   27.9454  -26.2652 H   0  0  0  0  0  0  0  0  0  0  0  0
    2.0107   27.4289  -26.0804 H   0  0  0  0  0  0  0  0  0  0  0  0
    0.6741   25.6225  -27.0808 H   0  0  0  0  0  0  0  0  0  0  0  0
    1.2580   25.1777  -25.4140 H   0  0  0  0  0  0  0  0  0  0  0  0
   -1.1279   23.0093  -30.0488 H   0  0  0  0  0  0  0  0  0  0  0  0
   -2.4127   21.1266  -31.0253 H   0  0  0  0  0  0  0  0  0  0  0  0
  1  2  1  0
  2  3  1  0
  3  4  1  0
  4  5  1  0
  5  6  1  0
  6  7  1  0
  7  8  1  0
  8  9  1  0
  9 10  1  0
 10 11  1  0
 11 12  2  0
 12 13  1  0
 13 14  2  0
 14 15  1  0
 15 16  2  0
 16 17  1  0
 17 18  2  0
 18 19  1  0
 18 20  1  0
 20 21  2  0
 21 22  1  0
 22 23  1  0
 23 24  1  0
 24 25  1  0
 25 26  1  0
 26 27  1  0
 26 28  1  0
 28 29  1  0
 29 30  1  0
 30 31  1  0
 30 32  1  0
 30 33  1  0
 33 34  1  0
 22 35  2  0
 35 36  1  0
 36 37  2  0
 37 11  1  0
 17 12  1  0
 37 20  1  0
 34 26  1  0
  1 38  1  0
  1 39  1  0
  1 40  1  0
  2 41  1  0
  2 42  1  0
  3 43  1  0
  3 44  1  0
  4 45  1  0
  4 46  1  0
  5 47  1  0
  5 48  1  0
  7 49  1  0
  7 50  1  0
  8 51  1  0
  8 52  1  0
  9 53  1  0
  9 54  1  0
 10 55  1  0
 13 56  1  0
 14 57  1  0
 15 58  1  0
 16 59  1  0
 19 60  1  0
 19 61  1  0
 19 62  1  0
 21 63  1  0
 24 64  1  0
 24 65  1  0
 25 66  1  0
 25 67  1  0
 27 68  1  0
 27 69  1  0
 27 70  1  0
 28 71  1  0
 28 72  1  0
 29 73  1  0
 29 74  1  0
 31 75  1  0
 31 76  1  0
 31 77  1  0
 32 78  1  0
 32 79  1  0
 32 80  1  0
 33 81  1  0
 33 82  1  0
 34 83  1  0
 34 84  1  0
 35 85  1  0
 36 86  1  0
M  CHG  4   3   1  18   1  26   1  30   1
M  END
>  <UniqueID>  (10) 
10

>  <SMILES>  (10) 
CC[NH2+]CCOCCCNc1c2ccccc2[n+](C)c2cc(OCC[N+]3(C)CC[N+](C)(C)CC3)ccc12

>  <Energy>  (10) 
139.93730539039024

>  <Genealogy>  (10) 
CC[NH2+]CCOCCCNc1c2ccccc2[n+](C)c2cc(OCC[N+]3(C)CC[N+](C)(C)CC3)ccc12 (protonated)
CC[NH2+]CCOCCCNc1c2ccccc2[n+](C)c2cc(OCC[N+]3(C)CC[N+](C)(C)CC3)ccc12 (3D coordinates assigned)
CC[NH2+]CCOCCCNc1c2ccccc2[n+](C)c2cc(OCC[N+]3(C)CC[N+](C)(C)CC3)ccc12 (nonaromatic ring conformer: 139.93730539039024 kcal/mol)

>  <smiles>  (10) 
CCNCCOCCCNc1c2ccccc2[n+](C)c2cc(OCC[N+]3(C)CC[N+](C)(C)CC3)ccc12

>  <score_type>  (10) 
oracle

>  <origin>  (10) 
adg

>  <m_score__min__energy>  (10) 
-8.0899999999999999

>  <m_primary>  (10) 
energy

$$$$
10:0
     RDKit          3D

 42 44  0  0  0  0  0  0  0  0999 V2000
   -3.2700   24.1930  -27.8570 C   0  0  0  0  0  0  0  0  0  0  0  0
   -2.5590   24.9130  -28.9980 C   0  0  0  0  0  0  0  0  0  0  0  0
   -3.4860   25.2890  -30.0160 O   0  0  0  0  0  0  0  0  0  0  0  0
   -4.6930   24.6310  -30.3070 C   0  0  0  0  0  0  0  0  0  0  0  0
   -5.9500   25.1430  -29.9320 C   0  0  0  0  0  0  0  0  0  0  0  0
   -7.1200   24.4510  -30.2530 C   0  0  0  0  0  0  0  0  0  0  0  0
   -7.0540   23.2420  -30.9510 C   0  0  0  0  0  0  0  0  0  0  0  0
   -8.1990   22.5810  -31.2670 N   0  0  0  0  0  0  0  0  0  0  0  0
   -8.1870   21.4060  -31.9520 C   0  0  0  0  0  0  0  0  0  0  0  0
   -9.4760   20.7130  -32.2620 C   0  0  0  0  0  0  0  0  0  0  0  0
   -6.9690   20.8380  -32.3410 C   0  0  0  0  0  0  0  0  0  0  0  0
   -5.7670   21.4870  -32.0310 C   0  0  0  0  0  0  0  0  0  0  0  0
   -4.5210   20.8880  -32.4180 N   0  0  0  0  0  0  0  0  0  0  0  0
   -3.3860   20.9210  -31.4920 C   0  0  0  0  0  0  0  0  0  0  0  0
   -2.0460   21.0890  -32.2430 C   0  0  0  0  0  0  0  0  0  0  0  0
   -2.1120   20.7090  -33.6690 N   0  0  0  0  0  0  0  0  0  0  0  0
   -3.0410   19.5980  -33.9090 C   0  0  0  0  0  0  0  0  0  0  0  0
   -4.4770   20.0430  -33.6150 C   0  0  0  0  0  0  0  0  0  0  0  0
   -5.8000   22.7110  -31.3300 C   0  0  0  0  0  0  0  0  0  0  0  0
   -4.6290   23.4210  -31.0100 C   0  0  0  0  0  0  0  0  0  0  0  0
   -2.8957   24.5720  -26.8946 H   0  0  0  0  0  0  0  0  0  0  0  0
   -4.3526   24.3749  -27.9267 H   0  0  0  0  0  0  0  0  0  0  0  0
   -3.0745   23.1128  -27.9267 H   0  0  0  0  0  0  0  0  0  0  0  0
   -2.0692   25.8161  -28.6049 H   0  0  0  0  0  0  0  0  0  0  0  0
   -1.8134   24.2320  -29.4343 H   0  0  0  0  0  0  0  0  0  0  0  0
   -6.0109   26.0941  -29.3827 H   0  0  0  0  0  0  0  0  0  0  0  0
   -8.0971   24.8591  -29.9553 H   0  0  0  0  0  0  0  0  0  0  0  0
   -9.9812   20.4414  -31.3234 H   0  0  0  0  0  0  0  0  0  0  0  0
  -10.1226   21.3851  -32.8453 H   0  0  0  0  0  0  0  0  0  0  0  0
   -9.2720   19.8030  -32.8453 H   0  0  0  0  0  0  0  0  0  0  0  0
   -6.9553   19.8842  -32.8889 H   0  0  0  0  0  0  0  0  0  0  0  0
   -3.5151   21.7650  -30.7985 H   0  0  0  0  0  0  0  0  0  0  0  0
   -3.3582   19.9662  -30.9466 H   0  0  0  0  0  0  0  0  0  0  0  0
   -1.7419   22.1442  -32.1786 H   0  0  0  0  0  0  0  0  0  0  0  0
   -1.3223   20.4133  -31.7637 H   0  0  0  0  0  0  0  0  0  0  0  0
   -2.4060   21.5380  -34.2390 H   0  0  0  0  0  0  0  0  0  0  0  0
   -1.1570   20.4250  -33.9890 H   0  0  0  0  0  0  0  0  0  0  0  0
   -2.9658   19.2808  -34.9596 H   0  0  0  0  0  0  0  0  0  0  0  0
   -2.7800   18.7596  -33.2465 H   0  0  0  0  0  0  0  0  0  0  0  0
   -4.8619   20.6125  -34.4738 H   0  0  0  0  0  0  0  0  0  0  0  0
   -5.0962   19.1505  -33.4417 H   0  0  0  0  0  0  0  0  0  0  0  0
   -3.6508   23.0213  -31.3155 H   0  0  0  0  0  0  0  0  0  0  0  0
  1  2  1  0
  2  3  1  0
  3  4  1  0
  4  5  2  0
  5  6  1  0
  6  7  2  0
  7  8  1  0
  8  9  2  0
  9 10  1  0
  9 11  1  0
 11 12  2  0
 12 13  1  0
 13 14  1  0
 14 15  1  0
 15 16  1  0
 16 17  1  0
 17 18  1  0
 12 19  1  0
 19 20  2  0
 20  4  1  0
 19  7  1  0
 18 13  1  0
  1 21  1  0
  1 22  1  0
  1 23  1  0
  2 24  1  0
  2 25  1  0
  5 26  1  0
  6 27  1  0
 10 28  1  0
 10 29  1  0
 10 30  1  0
 11 31  1  0
 14 32  1  0
 14 33  1  0
 15 34  1  0
 15 35  1  0
 16 36  1  0
 16 37  1  0
 17 38  1  0
 17 39  1  0
 18 40  1  0
 18 41  1  0
 20 42  1  0
M  CHG  1  16   1
M  END
>  <UniqueID>  (11) 
11

>  <SMILES>  (11) 
CCOc1ccc2nc(C)cc(N3CC[NH2+]CC3)c2c1

>  <Energy>  (11) 
52.07725315962463

>  <Genealogy>  (11) 
CCOc1ccc2nc(C)cc(N3CC[NH2+]CC3)c2c1 (protonated)
CCOc1ccc2nc(C)cc(N3CC[NH2+]CC3)c2c1 (3D coordinates assigned)
CCOc1ccc2nc(C)cc(N3CC[NH2+]CC3)c2c1 (nonaromatic ring conformer: 52.07725315962463 kcal/mol)

>  <smiles>  (11) 
CCOc1ccc2nc(C)cc(N3CCNCC3)c2c1

>  <score_type>  (11) 
oracle

>  <origin>  (11) 
adg

>  <m_score__min__energy>  (11) 
-7.3099999999999996

>  <m_primary>  (11) 
energy

$$$$
11:0
     RDKit          3D

 85 89  0  0  0  0  0  0  0  0999 V2000
    0.2600   21.1910  -35.9970 C   0  0  0  0  0  0  0  0  0  0  0  0
    0.2450   21.3920  -34.4800 C   0  0  0  0  0  0  0  0  0  0  0  0
   -1.1080   21.6730  -33.9600 N   0  0  0  0  0  0  0  0  0  0  0  0
   -1.1920   21.5200  -32.4970 C   0  0  0  0  0  0  0  0  0  0  0  0
   -2.6590   21.4390  -32.0600 C   0  0  0  0  0  0  0  0  0  0  0  0
   -3.5430   21.2370  -33.2090 N   0  0  0  0  0  0  0  0  0  0  0  0
   -4.8550   20.6690  -33.0640 C   0  0  0  0  0  0  0  0  0  0  0  0
   -5.8910   21.4580  -32.5340 C   0  0  0  0  0  0  0  0  0  0  0  0
   -5.7230   22.8480  -32.3650 C   0  0  0  0  0  0  0  0  0  0  0  0
   -6.7580   23.6280  -31.8640 C   0  0  0  0  0  0  0  0  0  0  0  0
   -7.9820   23.0490  -31.5560 C   0  0  0  0  0  0  0  0  0  0  0  0
   -8.1760   21.6790  -31.7280 C   0  0  0  0  0  0  0  0  0  0  0  0
   -7.1220   20.8480  -32.1970 C   0  0  0  0  0  0  0  0  0  0  0  0
   -7.2760   19.4820  -32.3250 N   0  0  0  0  0  0  0  0  0  0  0  0
   -8.4070   18.7950  -31.6700 C   0  0  0  0  0  0  0  0  0  0  0  0
   -6.3580   18.7520  -33.0620 C   0  0  0  0  0  0  0  0  0  0  0  0
   -6.6310   17.4210  -33.4660 C   0  0  0  0  0  0  0  0  0  0  0  0
   -5.6980   16.6770  -34.1830 C   0  0  0  0  0  0  0  0  0  0  0  0
   -4.4810   17.2360  -34.5410 C   0  0  0  0  0  0  0  0  0  0  0  0
   -4.1760   18.5590  -34.1900 C   0  0  0  0  0  0  0  0  0  0  0  0
   -2.9620   19.1420  -34.5800 O   0  0  0  0  0  0  0  0  0  0  0  0
   -1.6540   18.6110  -34.3790 C   0  0  0  0  0  0  0  0  0  0  0  0
   -1.4950   18.1430  -32.9110 C   0  0  0  0  0  0  0  0  0  0  0  0
   -0.1170   17.7090  -32.4940 N   0  0  2  0  0  0  0  0  0  0  0  0
    0.2500   16.5620  -33.3750 C   0  0  0  0  0  0  0  0  0  0  0  0
   -0.1410   17.2230  -31.0780 C   0  0  0  0  0  0  0  0  0  0  0  0
    1.2490   17.2740  -30.4210 C   0  0  0  0  0  0  0  0  0  0  0  0
    1.8300   18.6600  -30.3660 N   0  0  2  0  0  0  0  0  0  0  0  0
    3.2990   18.5590  -30.6180 C   0  0  0  0  0  0  0  0  0  0  0  0
    1.6670   19.2570  -28.9930 C   0  0  0  0  0  0  0  0  0  0  0  0
    0.2360   19.3730  -28.4890 C   0  0  0  0  0  0  0  0  0  0  0  0
   -0.5700   20.4400  -28.9250 C   0  0  0  0  0  0  0  0  0  0  0  0
   -1.8770   20.5820  -28.4560 C   0  0  0  0  0  0  0  0  0  0  0  0
   -2.3930   19.6760  -27.5310 C   0  0  0  0  0  0  0  0  0  0  0  0
   -1.5990   18.6200  -27.0710 C   0  0  0  0  0  0  0  0  0  0  0  0
   -0.2870   18.4750  -27.5350 C   0  0  0  0  0  0  0  0  0  0  0  0
    1.2460   19.5570  -31.4190 C   0  0  0  0  0  0  0  0  0  0  0  0
    0.9010   18.7960  -32.7110 C   0  0  0  0  0  0  0  0  0  0  0  0
   -5.1160   19.3320  -33.4410 C   0  0  0  0  0  0  0  0  0  0  0  0
    0.3401   20.1176  -36.2239 H   0  0  0  0  0  0  0  0  0  0  0  0
   -0.6703   21.5886  -36.4288 H   0  0  0  0  0  0  0  0  0  0  0  0
    1.1210   21.7223  -36.4288 H   0  0  0  0  0  0  0  0  0  0  0  0
    0.6249   20.4784  -33.9994 H   0  0  0  0  0  0  0  0  0  0  0  0
    0.8780   22.2622  -34.2520 H   0  0  0  0  0  0  0  0  0  0  0  0
   -1.8040   21.0320  -34.4160 H   0  0  0  0  0  0  0  0  0  0  0  0
   -0.6714   20.5986  -32.1969 H   0  0  0  0  0  0  0  0  0  0  0  0
   -0.7202   22.3896  -32.0161 H   0  0  0  0  0  0  0  0  0  0  0  0
   -2.7796   20.5973  -31.3621 H   0  0  0  0  0  0  0  0  0  0  0  0
   -2.9306   22.3877  -31.5740 H   0  0  0  0  0  0  0  0  0  0  0  0
   -3.2550   21.5910  -34.1490 H   0  0  0  0  0  0  0  0  0  0  0  0
   -4.7651   23.3183  -32.6319 H   0  0  0  0  0  0  0  0  0  0  0  0
   -6.6074   24.7068  -31.7110 H   0  0  0  0  0  0  0  0  0  0  0  0
   -8.8026   23.6743  -31.1744 H   0  0  0  0  0  0  0  0  0  0  0  0
   -9.1562   21.2358  -31.4981 H   0  0  0  0  0  0  0  0  0  0  0  0
   -8.2947   18.8632  -30.5779 H   0  0  0  0  0  0  0  0  0  0  0  0
   -9.3507   19.2726  -31.9721 H   0  0  0  0  0  0  0  0  0  0  0  0
   -8.4182   17.7373  -31.9721 H   0  0  0  0  0  0  0  0  0  0  0  0
   -7.5991   16.9670  -33.2079 H   0  0  0  0  0  0  0  0  0  0  0  0
   -5.9278   15.6395  -34.4671 H   0  0  0  0  0  0  0  0  0  0  0  0
   -3.7496   16.6378  -35.1042 H   0  0  0  0  0  0  0  0  0  0  0  0
   -1.5000   17.7556  -35.0533 H   0  0  0  0  0  0  0  0  0  0  0  0
   -0.9093   19.3918  -34.5929 H   0  0  0  0  0  0  0  0  0  0  0  0
   -1.7949   18.9769  -32.2594 H   0  0  0  0  0  0  0  0  0  0  0  0
   -2.1244   17.2454  -32.8203 H   0  0  0  0  0  0  0  0  0  0  0  0
    0.5268   15.6969  -32.7545 H   0  0  0  0  0  0  0  0  0  0  0  0
   -0.6085   16.2980  -34.0100 H   0  0  0  0  0  0  0  0  0  0  0  0
    1.1023   16.8455  -34.0100 H   0  0  0  0  0  0  0  0  0  0  0  0
   -0.5000   16.1833  -31.0666 H   0  0  0  0  0  0  0  0  0  0  0  0
   -0.8087   17.8841  -30.5060 H   0  0  0  0  0  0  0  0  0  0  0  0
    1.9314   16.6319  -30.9972 H   0  0  0  0  0  0  0  0  0  0  0  0
    1.1320   16.9282  -29.3834 H   0  0  0  0  0  0  0  0  0  0  0  0
    3.8341   18.5222  -29.6576 H   0  0  0  0  0  0  0  0  0  0  0  0
    3.5107   17.6442  -31.1910 H   0  0  0  0  0  0  0  0  0  0  0  0
    3.6339   19.4362  -31.1910 H   0  0  0  0  0  0  0  0  0  0  0  0
    2.2254   18.6291  -28.2831 H   0  0  0  0  0  0  0  0  0  0  0  0
    2.0427   20.2881  -29.0681 H   0  0  0  0  0  0  0  0  0  0  0  0
   -0.1665   21.1696  -29.6425 H   0  0  0  0  0  0  0  0  0  0  0  0
   -2.5020   21.4118  -28.8177 H   0  0  0  0  0  0  0  0  0  0  0  0
   -3.4233   19.7912  -27.1631 H   0  0  0  0  0  0  0  0  0  0  0  0
   -2.0067   17.9027  -26.3435 H   0  0  0  0  0  0  0  0  0  0  0  0
    0.3404   17.6559  -27.1536 H   0  0  0  0  0  0  0  0  0  0  0  0
    1.9761   20.3446  -31.6570 H   0  0  0  0  0  0  0  0  0  0  0  0
    0.3128   19.9806  -31.0194 H   0  0  0  0  0  0  0  0  0  0  0  0
    1.8210   18.3417  -33.1075 H   0  0  0  0  0  0  0  0  0  0  0  0
    0.4667   19.5203  -33.4158 H   0  0  0  0  0  0  0  0  0  0  0  0
  1  2  1  0
  2  3  1  0
  3  4  1  0
  4  5  1  0
  5  6  1  0
  6  7  1  0
  7  8  2  0
  8  9  1  0
  9 10  2  0
 10 11  1  0
 11 12  2  0
 12 13  1  0
 13 14  2  0
 14 15  1  0
 14 16  1  0
 16 17  2  0
 17 18  1  0
 18 19  2  0
 19 20  1  0
 20 21  1  0
 21 22  1  0
 22 23  1  0
 24 23  1  6
 24 25  1  0
 24 26  1  0
 26 27  1  0
 27 28  1  0
 28 29  1  6
 28 30  1  0
 30 31  1  0
 31 32  2  0
 32 33  1  0
 33 34  2  0
 34 35  1  0
 35 36  2  0
 28 37  1  0
 37 38  1  0
 20 39  2  0
 39  7  1  0
 13  8  1  0
 39 16  1  0
 38 24  1  0
 36 31  1  0
  1 40  1  0
  1 41  1  0
  1 42  1  0
  2 43  1  0
  2 44  1  0
  3 45  1  0
  4 46  1  0
  4 47  1  0
  5 48  1  0
  5 49  1  0
  6 50  1  0
  9 51  1  0
 10 52  1  0
 11 53  1  0
 12 54  1  0
 15 55  1  0
 15 56  1  0
 15 57  1  0
 17 58  1  0
 18 59  1  0
 19 60  1  0
 22 61  1  0
 22 62  1  0
 23 63  1  0
 23 64  1  0
 25 65  1  0
 25 66  1  0
 25 67  1  0
 26 68  1  0
 26 69  1  0
 27 70  1  0
 27 71  1  0
 29 72  1  0
 29 73  1  0
 29 74  1  0
 30 75  1  0
 30 76  1  0
 32 77  1  0
 33 78  1  0
 34 79  1  0
 35 80  1  0
 36 81  1  0
 37 82  1  0
 37 83  1  0
 38 84  1  0
 38 85  1  0
M  CHG  3  14   1  24   1  28   1
M  END
>  <UniqueID>  (12) 
12

>  <SMILES>  (12) 
CCNCCNc1c2ccccc2[n+](C)c2cccc(OCC[N+]3(C)CC[N+](C)(Cc4ccccc4)CC3)c12

>  <Energy>  (12) 
148.81407872301168

>  <Genealogy>  (12) 
CCNCCNc1c2ccccc2[n+](C)c2cccc(OCC[N+]3(C)CC[N+](C)(Cc4ccccc4)CC3)c12 (3D coordinates assigned)
CCNCCNc1c2ccccc2[n+](C)c2cccc(OCC[N+]3(C)CC[N+](C)(Cc4ccccc4)CC3)c12 (nonaromatic ring conformer: 148.81407872301168 kcal/mol)

>  <smiles>  (12) 
CCNCCNc1c2ccccc2[n+](C)c2cccc(OCC[N+]3(C)CC[N+](C)(Cc4ccccc4)CC3)c12

>  <score_type>  (12) 
oracle

>  <origin>  (12) 
adg

>  <m_score__min__energy>  (12) 
-9.4900000000000002

>  <m_primary>  (12) 
energy

$$$$
12:0
     RDKit          3D

 41 43  0  0  0  0  0  0  0  0999 V2000
   -8.8620   18.4840  -31.6190 C   0  0  0  0  0  0  0  0  0  0  0  0
   -8.9500   19.6010  -32.6500 C   0  0  0  0  0  0  0  0  0  0  0  0
   -7.6740   20.3200  -32.7330 N   0  0  0  0  0  0  0  0  0  0  0  0
   -6.4850   19.8830  -33.2400 C   0  0  0  0  0  0  0  0  0  0  0  0
   -6.2570   18.5230  -33.8410 C   0  0  0  0  0  0  0  0  0  0  0  0
   -4.8720   18.0990  -33.6320 N   0  0  0  0  0  0  0  0  0  0  0  0
   -4.4540   16.7250  -33.5160 C   0  0  0  0  0  0  0  0  0  0  0  0
   -3.5020   16.1590  -34.3900 C   0  0  0  0  0  0  0  0  0  0  0  0
   -3.1160   14.8230  -34.2430 C   0  0  0  0  0  0  0  0  0  0  0  0
   -3.6730   14.0380  -33.2310 C   0  0  0  0  0  0  0  0  0  0  0  0
   -4.6180   14.5880  -32.3620 C   0  0  0  0  0  0  0  0  0  0  0  0
   -5.0070   15.9240  -32.5040 C   0  0  0  0  0  0  0  0  0  0  0  0
   -5.4710   20.7720  -33.0690 N   0  0  0  0  0  0  0  0  0  0  0  0
   -6.0640   21.7980  -32.4360 C   0  0  0  0  0  0  0  0  0  0  0  0
   -5.4700   22.9820  -32.0060 C   0  0  0  0  0  0  0  0  0  0  0  0
   -6.2770   23.9150  -31.3190 C   0  0  0  0  0  0  0  0  0  0  0  0
   -5.6940   25.2250  -30.8670 C   0  0  0  0  0  0  0  0  0  0  0  0
   -4.2410   25.1200  -30.7820 N   0  0  0  0  0  0  0  0  0  0  0  0
   -7.6500   23.6360  -31.1010 C   0  0  0  0  0  0  0  0  0  0  0  0
   -8.2150   22.4270  -31.5460 C   0  0  0  0  0  0  0  0  0  0  0  0
   -7.3840   21.5300  -32.2210 C   0  0  0  0  0  0  0  0  0  0  0  0
   -8.8960   18.9151  -30.6076 H   0  0  0  0  0  0  0  0  0  0  0  0
   -9.7086   17.7944  -31.7523 H   0  0  0  0  0  0  0  0  0  0  0  0
   -7.9179   17.9355  -31.7523 H   0  0  0  0  0  0  0  0  0  0  0  0
   -9.1876   19.1691  -33.6334 H   0  0  0  0  0  0  0  0  0  0  0  0
   -9.7384   20.3058  -32.3471 H   0  0  0  0  0  0  0  0  0  0  0  0
   -6.9338   17.7982  -33.3649 H   0  0  0  0  0  0  0  0  0  0  0  0
   -6.4560   18.5724  -34.9217 H   0  0  0  0  0  0  0  0  0  0  0  0
   -4.1470   18.8490  -33.5700 H   0  0  0  0  0  0  0  0  0  0  0  0
   -3.0614   16.7713  -35.1906 H   0  0  0  0  0  0  0  0  0  0  0  0
   -2.3714   14.3890  -34.9265 H   0  0  0  0  0  0  0  0  0  0  0  0
   -3.3676   12.9873  -33.1184 H   0  0  0  0  0  0  0  0  0  0  0  0
   -5.0568   13.9698  -31.5650 H   0  0  0  0  0  0  0  0  0  0  0  0
   -5.7525   16.3508  -31.8170 H   0  0  0  0  0  0  0  0  0  0  0  0
   -4.4055   23.1840  -32.1956 H   0  0  0  0  0  0  0  0  0  0  0  0
   -5.9611   26.0112  -31.5885 H   0  0  0  0  0  0  0  0  0  0  0  0
   -6.0971   25.4774  -29.8751 H   0  0  0  0  0  0  0  0  0  0  0  0
   -3.8350   25.6740  -31.5710 H   0  0  0  0  0  0  0  0  0  0  0  0
   -3.9310   25.5870  -29.8990 H   0  0  0  0  0  0  0  0  0  0  0  0
   -8.2793   24.3719  -30.5790 H   0  0  0  0  0  0  0  0  0  0  0  0
   -9.2757   22.1958  -31.3683 H   0  0  0  0  0  0  0  0  0  0  0  0
  1  2  1  0
  2  3  1  0
  3  4  1  0
  4  5  1  0
  5  6  1  0
  6  7  1  0
  7  8  2  0
  8  9  1  0
  9 10  2  0
 10 11  1  0
 11 12  2  0
  4 13  2  0
 13 14  1  0
 14 15  2  0
 15 16  1  0
 16 17  1  0
 17 18  1  0
 16 19  2  0
 19 20  1  0
 20 21  2  0
 21  3  1  0
 12  7  1  0
 21 14  1  0
  1 22  1  0
  1 23  1  0
  1 24  1  0
  2 25  1  0
  2 26  1  0
  5 27  1  0
  5 28  1  0
  6 29  1  0
  8 30  1  0
  9 31  1  0
 10 32  1  0
 11 33  1  0
 12 34  1  0
 15 35  1  0
 17 36  1  0
 17 37  1  0
 18 38  1  0
 18 39  1  0
 19 40  1  0
 20 41  1  0
M  END
>  <UniqueID>  (13) 
13

>  <SMILES>  (13) 
CCn1c(CNc2ccccc2)nc2cc(CN)ccc21

>  <Energy>  (13) 
74.19765129739429

>  <Genealogy>  (13) 
CCn1c(CNc2ccccc2)nc2cc(CN)ccc21 (3D coordinates assigned)
CCn1c(CNc2ccccc2)nc2cc(CN)ccc21 (optimized conformer: 74.19765129739429 kcal/mol)

>  <smiles>  (13) 
CCn1c(CNc2ccccc2)nc2cc(CN)ccc21

>  <score_type>  (13) 
oracle

>  <origin>  (13) 
adg

>  <m_score__min__energy>  (13) 
-8.0999999999999996

>  <m_primary>  (13) 
energy

$$$$
13:0
     RDKit          3D

 53 54  0  0  0  0  0  0  0  0999 V2000
   -3.9584   19.4541  -34.0893 H   0  0  0  0  0  0  0  0  0  0  0  0
   -4.9660   19.6730  -33.7060 C   0  0  0  0  0  0  0  0  0  0  0  0
   -5.2060   20.8620  -33.0070 C   0  0  0  0  0  0  0  0  0  0  0  0
   -4.0210   21.7290  -32.6640 C   0  0  0  0  0  0  0  0  0  0  0  0
   -3.9232   21.8005  -31.5707 H   0  0  0  0  0  0  0  0  0  0  0  0
   -3.1073   21.2846  -33.0855 H   0  0  0  0  0  0  0  0  0  0  0  0
   -4.1680   22.7343  -33.0855 H   0  0  0  0  0  0  0  0  0  0  0  0
   -6.5310   21.1620  -32.5970 C   0  0  0  0  0  0  0  0  0  0  0  0
   -7.5320   20.1740  -32.7560 C   0  0  0  0  0  0  0  0  0  0  0  0
   -7.2410   19.0170  -33.4180 N   0  0  0  0  0  0  0  0  0  0  0  0
   -7.9790   18.2860  -33.5360 H   0  0  0  0  0  0  0  0  0  0  0  0
   -6.0020   18.7680  -33.9160 C   0  0  0  0  0  0  0  0  0  0  0  0
   -5.8168   17.8468  -34.4879 H   0  0  0  0  0  0  0  0  0  0  0  0
   -8.8880   20.3010  -32.0820 C   0  0  0  0  0  0  0  0  0  0  0  0
   -8.9049   19.6274  -31.2126 H   0  0  0  0  0  0  0  0  0  0  0  0
   -9.6417   20.0406  -32.8397 H   0  0  0  0  0  0  0  0  0  0  0  0
   -9.2240   21.7220  -31.5970 C   0  0  0  0  0  0  0  0  0  0  0  0
  -10.0415   21.6656  -30.8632 H   0  0  0  0  0  0  0  0  0  0  0  0
   -9.5219   22.3234  -32.4685 H   0  0  0  0  0  0  0  0  0  0  0  0
   -8.0140   22.3900  -30.9430 C   0  0  0  0  0  0  0  0  0  0  0  0
   -7.6847   21.8013  -30.0741 H   0  0  0  0  0  0  0  0  0  0  0  0
   -8.2718   23.4016  -30.5962 H   0  0  0  0  0  0  0  0  0  0  0  0
   -6.9240   22.4470  -31.9620 C   0  0  0  0  0  0  0  0  0  0  0  0
   -6.6050   23.6030  -32.4650 N   0  0  0  0  0  0  0  0  0  0  0  0
   -5.6500   24.4250  -31.9100 O   0  0  0  0  0  0  0  0  0  0  0  0
   -5.9030   25.1230  -30.6980 C   0  0  0  0  0  0  0  0  0  0  0  0
   -6.8359   24.7473  -30.2525 H   0  0  0  0  0  0  0  0  0  0  0  0
   -5.9923   26.1968  -30.9193 H   0  0  0  0  0  0  0  0  0  0  0  0
   -4.7580   24.9180  -29.7110 C   0  0  0  0  0  0  0  0  0  0  0  0
   -4.8867   23.9547  -29.1958 H   0  0  0  0  0  0  0  0  0  0  0  0
   -4.7614   25.7334  -28.9727 H   0  0  0  0  0  0  0  0  0  0  0  0
   -3.5280   24.9190  -30.4060 O   0  0  0  0  0  0  0  0  0  0  0  0
   -2.7740   23.7660  -30.0820 C   0  0  0  0  0  0  0  0  0  0  0  0
   -1.9107   24.0582  -29.4661 H   0  0  0  0  0  0  0  0  0  0  0  0
   -2.4295   23.2906  -31.0122 H   0  0  0  0  0  0  0  0  0  0  0  0
   -3.6370   22.7680  -29.3020 C   0  0  0  0  0  0  0  0  0  0  0  0
   -4.5202   22.5046  -29.9025 H   0  0  0  0  0  0  0  0  0  0  0  0
   -3.9509   23.2296  -28.3541 H   0  0  0  0  0  0  0  0  0  0  0  0
   -2.8620   21.5410  -29.0080 N   0  0  0  0  0  0  0  0  0  0  0  0
   -1.5570   21.5370  -29.7100 C   0  0  0  0  0  0  0  0  0  0  0  0
   -0.7594   21.3407  -28.9784 H   0  0  0  0  0  0  0  0  0  0  0  0
   -1.4216   22.5188  -30.1873 H   0  0  0  0  0  0  0  0  0  0  0  0
   -1.5040   20.4670  -30.7990 C   0  0  0  0  0  0  0  0  0  0  0  0
   -1.4547   19.4718  -30.3331 H   0  0  0  0  0  0  0  0  0  0  0  0
   -2.4066   20.5349  -31.4240 H   0  0  0  0  0  0  0  0  0  0  0  0
   -0.6125   20.6238  -31.4240 H   0  0  0  0  0  0  0  0  0  0  0  0
   -2.7650   21.2740  -27.5510 C   0  0  0  0  0  0  0  0  0  0  0  0
   -1.8508   21.7545  -27.1724 H   0  0  0  0  0  0  0  0  0  0  0  0
   -3.6801   21.6788  -27.0941 H   0  0  0  0  0  0  0  0  0  0  0  0
   -2.7120   19.7840  -27.1860 C   0  0  0  0  0  0  0  0  0  0  0  0
   -2.7081   19.6745  -26.0915 H   0  0  0  0  0  0  0  0  0  0  0  0
   -3.5925   19.2729  -27.6025 H   0  0  0  0  0  0  0  0  0  0  0  0
   -1.7974   19.3368  -27.6025 H   0  0  0  0  0  0  0  0  0  0  0  0
  1  2  1  0
  2  3  2  0
  3  4  1  0
  4  5  1  0
  4  6  1  0
  4  7  1  0
  3  8  1  0
  8  9  2  0
  9 10  1  0
 10 11  1  0
 10 12  2  0
 12 13  1  0
  9 14  1  0
 14 15  1  0
 14 16  1  0
 14 17  1  0
 17 18  1  0
 17 19  1  0
 17 20  1  0
 20 21  1  0
 20 22  1  0
 20 23  1  0
 23 24  2  0
 24 25  1  0
 25 26  1  0
 26 27  1  0
 26 28  1  0
 26 29  1  0
 29 30  1  0
 29 31  1  0
 29 32  1  0
 32 33  1  0
 33 34  1  0
 33 35  1  0
 33 36  1  0
 36 37  1  0
 36 38  1  0
 36 39  1  0
 39 40  1  0
 40 41  1  0
 40 42  1  0
 40 43  1  0
 43 44  1  0
 43 45  1  0
 43 46  1  0
 39 47  1  0
 47 48  1  0
 47 49  1  0
 47 50  1  0
 50 51  1  0
 50 52  1  0
 50 53  1  0
 12  2  1  0
 23  8  1  0
M  CHG  1  10   1
M  END
>  <UniqueID>  (14) 
14

>  <SMILES>  (14) 
CCN(CC)CCOCCO/N=C1/CCCc2[nH+]ccc(C)c21

>  <Energy>  (14) 
58.46648436895547

>  <Genealogy>  (14) 
CCN(CC)CCOCCON=C1CCCc2[nH+]ccc(C)c21 (protonated)
CCN(CC)CCOCCO/N=C1/CCCc2[nH+]ccc(C)c21 (cis-trans isomerization)
CCN(CC)CCOCCO/N=C1/CCCc2[nH+]ccc(C)c21 (3D coordinates assigned)
CCN(CC)CCOCCO/N=C1/CCCc2[nH+]ccc(C)c21 (nonaromatic ring conformer: 58.46648436895547 kcal/mol)

>  <smiles>  (14) 
CCN(CC)CCOCCON=C1CCCc2nccc(C)c21

>  <score_type>  (14) 
oracle

>  <origin>  (14) 
adg

>  <m_score__min__energy>  (14) 
-8.0199999999999996

>  <m_primary>  (14) 
energy

$$$$
14:0
     RDKit          3D

 51 55  0  0  0  0  0  0  0  0999 V2000
   -6.8620   25.1420  -29.7520 C   0  0  0  0  0  0  0  0  0  0  0  0
   -6.2190   24.1680  -30.6290 N   0  0  0  0  0  0  0  0  0  0  0  0
   -6.7790   23.4510  -31.6220 C   0  0  0  0  0  0  0  0  0  0  0  0
   -8.5340   23.4140  -31.9970 S   0  0  0  0  0  0  0  0  0  0  0  0
   -8.8260   21.7580  -31.2700 C   0  0  0  0  0  0  0  0  0  0  0  0
   -9.3040   20.7710  -32.3380 C   0  0  0  0  0  0  0  0  0  0  0  0
   -8.9170   19.3140  -31.9820 C   0  0  0  0  0  0  0  0  0  0  0  0
   -7.4630   19.0410  -31.9670 N   0  0  0  0  0  0  0  0  0  0  0  0
   -7.0980   17.6190  -32.0580 C   0  0  0  0  0  0  0  0  0  0  0  0
   -5.8730   17.4990  -32.9510 C   0  0  1  0  0  0  0  0  0  0  0  0
   -6.0830   17.7710  -34.4340 C   0  0  0  0  0  0  0  0  0  0  0  0
   -5.6090   18.8820  -33.5050 C   0  0  2  0  0  0  0  0  0  0  0  0
   -4.1610   19.2930  -33.5560 C   0  0  0  0  0  0  0  0  0  0  0  0
   -3.2140   18.4840  -34.2060 C   0  0  0  0  0  0  0  0  0  0  0  0
   -1.8650   18.8520  -34.2200 C   0  0  0  0  0  0  0  0  0  0  0  0
   -1.4520   20.0210  -33.5740 C   0  0  0  0  0  0  0  0  0  0  0  0
   -2.3860   20.8200  -32.9090 C   0  0  0  0  0  0  0  0  0  0  0  0
   -1.9830   21.9490  -32.2740 F   0  0  0  0  0  0  0  0  0  0  0  0
   -3.7360   20.4550  -32.8940 C   0  0  0  0  0  0  0  0  0  0  0  0
   -6.6520   19.8180  -32.9160 C   0  0  0  0  0  0  0  0  0  0  0  0
   -5.8540   22.7810  -32.3340 N   0  0  0  0  0  0  0  0  0  0  0  0
   -4.6740   23.0820  -31.8100 N   0  0  0  0  0  0  0  0  0  0  0  0
   -4.9020   23.9210  -30.7800 C   0  0  0  0  0  0  0  0  0  0  0  0
   -3.8120   24.5740  -29.9800 C   0  0  0  0  0  0  0  0  0  0  0  0
   -3.6940   24.0650  -28.5510 C   0  0  0  0  0  0  0  0  0  0  0  0
   -2.6620   23.6570  -29.5880 C   0  0  0  0  0  0  0  0  0  0  0  0
   -6.6803   24.8667  -28.7026 H   0  0  0  0  0  0  0  0  0  0  0  0
   -6.4456   26.1414  -29.9463 H   0  0  0  0  0  0  0  0  0  0  0  0
   -7.9447   25.1518  -29.9463 H   0  0  0  0  0  0  0  0  0  0  0  0
   -7.8885   21.3870  -30.8301 H   0  0  0  0  0  0  0  0  0  0  0  0
   -9.6040   21.8448  -30.4973 H   0  0  0  0  0  0  0  0  0  0  0  0
  -10.3986   20.8391  -32.4227 H   0  0  0  0  0  0  0  0  0  0  0  0
   -8.8193   21.0329  -33.2901 H   0  0  0  0  0  0  0  0  0  0  0  0
   -9.3172   19.0888  -30.9824 H   0  0  0  0  0  0  0  0  0  0  0  0
   -9.3415   18.6800  -32.7743 H   0  0  0  0  0  0  0  0  0  0  0  0
   -6.8677   17.2288  -31.0556 H   0  0  0  0  0  0  0  0  0  0  0  0
   -7.9327   17.0386  -32.4781 H   0  0  0  0  0  0  0  0  0  0  0  0
   -5.3413   16.6889  -32.4303 H   0  0  0  0  0  0  0  0  0  0  0  0
   -5.3939   17.3416  -35.1761 H   0  0  0  0  0  0  0  0  0  0  0  0
   -6.9177   17.6468  -35.1396 H   0  0  0  0  0  0  0  0  0  0  0  0
   -3.5348   17.5580  -34.7056 H   0  0  0  0  0  0  0  0  0  0  0  0
   -1.1285   18.2214  -34.7395 H   0  0  0  0  0  0  0  0  0  0  0  0
   -0.3913   20.3120  -33.5892 H   0  0  0  0  0  0  0  0  0  0  0  0
   -4.4672   21.0809  -32.3614 H   0  0  0  0  0  0  0  0  0  0  0  0
   -6.1569   20.6494  -32.3930 H   0  0  0  0  0  0  0  0  0  0  0  0
   -7.2855   20.2388  -33.7107 H   0  0  0  0  0  0  0  0  0  0  0  0
   -3.8891   25.5617  -30.4580 H   0  0  0  0  0  0  0  0  0  0  0  0
   -3.4167   24.7569  -27.7421 H   0  0  0  0  0  0  0  0  0  0  0  0
   -4.3585   23.5242  -27.8611 H   0  0  0  0  0  0  0  0  0  0  0  0
   -1.6376   24.0536  -29.5300 H   0  0  0  0  0  0  0  0  0  0  0  0
   -2.2701   22.6988  -29.9598 H   0  0  0  0  0  0  0  0  0  0  0  0
  1  2  1  0
  2  3  1  0
  3  4  1  0
  4  5  1  0
  5  6  1  0
  6  7  1  0
  7  8  1  0
  8  9  1  0
  9 10  1  0
 10 11  1  0
 11 12  1  0
 12 13  1  6
 13 14  2  0
 14 15  1  0
 15 16  2  0
 16 17  1  0
 17 18  1  0
 17 19  2  0
 12 20  1  0
  3 21  2  0
 21 22  1  0
 22 23  2  0
 23 24  1  0
 24 25  1  0
 25 26  1  0
 23  2  1  0
 26 24  1  0
 20  8  1  0
 12 10  1  0
 19 13  1  0
  1 27  1  0
  1 28  1  0
  1 29  1  0
  5 30  1  0
  5 31  1  0
  6 32  1  0
  6 33  1  0
  7 34  1  0
  7 35  1  0
  9 36  1  0
  9 37  1  0
 10 38  1  6
 11 39  1  0
 11 40  1  0
 14 41  1  0
 15 42  1  0
 16 43  1  0
 19 44  1  0
 20 45  1  0
 20 46  1  0
 24 47  1  0
 25 48  1  0
 25 49  1  0
 26 50  1  0
 26 51  1  0
M  END
>  <UniqueID>  (15) 
15

>  <SMILES>  (15) 
Cn1c(SCCCN2C[C@H]3C[C@@]3(c3cccc(F)c3)C2)nnc1C1CC1

>  <Energy>  (15) 
622.4205591756163

>  <Genealogy>  (15) 
Cn1c(SCCCN2C[C@H]3C[C@@]3(c3cccc(F)c3)C2)nnc1C1CC1 (chirality)
Cn1c(SCCCN2C[C@H]3C[C@@]3(c3cccc(F)c3)C2)nnc1C1CC1 (3D coordinates assigned)
Cn1c(SCCCN2C[C@H]3C[C@@]3(c3cccc(F)c3)C2)nnc1C1CC1 (nonaromatic ring conformer: 622.4205591756163 kcal/mol)

>  <smiles>  (15) 
Cn1c(SCCCN2CC3CC3(c3cccc(F)c3)C2)nnc1C1CC1

>  <score_type>  (15) 
oracle

>  <origin>  (15) 
adg

>  <m_score__min__energy>  (15) 
-9.4100000000000001

>  <m_primary>  (15) 
energy

$$$$
15:0
     RDKit          3D

 43 43  0  0  0  0  0  0  0  0999 V2000
   -3.1790   20.7900  -33.0930 C   0  0  0  0  0  0  0  0  0  0  0  0
   -3.3650   20.8420  -31.5730 C   0  0  0  0  0  0  0  0  0  0  0  0
   -3.9740   22.1120  -31.1270 N   0  0  0  0  0  0  0  0  0  0  0  0
   -3.3100   22.6850  -29.9400 C   0  0  0  0  0  0  0  0  0  0  0  0
   -3.5970   24.1870  -29.7860 C   0  0  0  0  0  0  0  0  0  0  0  0
   -4.3730   24.6420  -30.8780 O   0  0  0  0  0  0  0  0  0  0  0  0
   -5.3620   25.5530  -30.4410 C   0  0  0  0  0  0  0  0  0  0  0  0
   -6.4920   24.7900  -29.7580 C   0  0  0  0  0  0  0  0  0  0  0  0
   -6.4800   23.3810  -30.1740 N   0  0  0  0  0  0  0  0  0  0  0  0
   -7.6840   23.0300  -30.9480 C   0  0  0  0  0  0  0  0  0  0  0  0
   -7.3030   22.4680  -32.3290 C   0  0  1  0  0  0  0  0  0  0  0  0
   -5.9690   22.7870  -32.6380 O   0  0  0  0  0  0  0  0  0  0  0  0
   -7.5120   20.9690  -32.3830 C   0  0  0  0  0  0  0  0  0  0  0  0
   -6.6150   20.1320  -33.0750 C   0  0  0  0  0  0  0  0  0  0  0  0
   -6.7910   18.7460  -33.0660 C   0  0  0  0  0  0  0  0  0  0  0  0
   -7.8570   18.1800  -32.3630 C   0  0  0  0  0  0  0  0  0  0  0  0
   -8.7460   18.9990  -31.6640 C   0  0  0  0  0  0  0  0  0  0  0  0
   -8.5740   20.3860  -31.6690 C   0  0  0  0  0  0  0  0  0  0  0  0
   -2.1437   20.5006  -33.3260 H   0  0  0  0  0  0  0  0  0  0  0  0
   -3.8717   20.0511  -33.5221 H   0  0  0  0  0  0  0  0  0  0  0  0
   -3.3881   21.7810  -33.5221 H   0  0  0  0  0  0  0  0  0  0  0  0
   -4.0169   20.0103  -31.2675 H   0  0  0  0  0  0  0  0  0  0  0  0
   -2.3708   20.7637  -31.1089 H   0  0  0  0  0  0  0  0  0  0  0  0
   -4.9870   21.9560  -30.9100 H   0  0  0  0  0  0  0  0  0  0  0  0
   -3.9400   22.7990  -31.9170 H   0  0  0  0  0  0  0  0  0  0  0  0
   -3.6722   22.1609  -29.0433 H   0  0  0  0  0  0  0  0  0  0  0  0
   -2.2245   22.5585  -30.0649 H   0  0  0  0  0  0  0  0  0  0  0  0
   -4.1481   24.3592  -28.8497 H   0  0  0  0  0  0  0  0  0  0  0  0
   -2.6451   24.7377  -29.7630 H   0  0  0  0  0  0  0  0  0  0  0  0
   -4.9168   26.2634  -29.7289 H   0  0  0  0  0  0  0  0  0  0  0  0
   -5.7618   26.1021  -31.3063 H   0  0  0  0  0  0  0  0  0  0  0  0
   -6.3613   24.8475  -28.6673 H   0  0  0  0  0  0  0  0  0  0  0  0
   -7.4533   25.2402  -30.0465 H   0  0  0  0  0  0  0  0  0  0  0  0
   -5.6390   23.2330  -30.7810 H   0  0  0  0  0  0  0  0  0  0  0  0
   -8.2587   22.2715  -30.3963 H   0  0  0  0  0  0  0  0  0  0  0  0
   -8.2872   23.9385  -31.0919 H   0  0  0  0  0  0  0  0  0  0  0  0
   -7.9606   22.9324  -33.0786 H   0  0  0  0  0  0  0  0  0  0  0  0
   -5.7750   23.6600  -32.2060 H   0  0  0  0  0  0  0  0  0  0  0  0
   -5.7708   20.5723  -33.6259 H   0  0  0  0  0  0  0  0  0  0  0  0
   -6.0891   18.0996  -33.6133 H   0  0  0  0  0  0  0  0  0  0  0  0
   -7.9962   17.0888  -32.3600 H   0  0  0  0  0  0  0  0  0  0  0  0
   -9.5833   18.5517  -31.1083 H   0  0  0  0  0  0  0  0  0  0  0  0
   -9.2737   21.0256  -31.1110 H   0  0  0  0  0  0  0  0  0  0  0  0
  1  2  1  0
  2  3  1  0
  3  4  1  0
  4  5  1  0
  5  6  1  0
  6  7  1  0
  7  8  1  0
  8  9  1  0
  9 10  1  0
 10 11  1  0
 11 12  1  0
 11 13  1  0
 13 14  2  0
 14 15  1  0
 15 16  2  0
 16 17  1  0
 17 18  2  0
 18 13  1  0
  1 19  1  0
  1 20  1  0
  1 21  1  0
  2 22  1  0
  2 23  1  0
  3 24  1  0
  3 25  1  0
  4 26  1  0
  4 27  1  0
  5 28  1  0
  5 29  1  0
  7 30  1  0
  7 31  1  0
  8 32  1  0
  8 33  1  0
  9 34  1  0
 10 35  1  0
 10 36  1  0
 11 37  1  6
 12 38  1  0
 14 39  1  0
 15 40  1  0
 16 41  1  0
 17 42  1  0
 18 43  1  0
M  CHG  1   3   1
M  END
>  <UniqueID>  (16) 
16

>  <SMILES>  (16) 
CC[NH2+]CCOCCNC[C@@H](O)c1ccccc1

>  <Energy>  (16) 
36.023444177768944

>  <Genealogy>  (16) 
CC[NH2+]CCOCCNCC(O)c1ccccc1 (protonated)
CC[NH2+]CCOCCNC[C@@H](O)c1ccccc1 (chirality)
CC[NH2+]CCOCCNC[C@@H](O)c1ccccc1 (3D coordinates assigned)
CC[NH2+]CCOCCNC[C@@H](O)c1ccccc1 (optimized conformer: 36.023444177768944 kcal/mol)

>  <smiles>  (16) 
CCNCCOCCNCC(O)c1ccccc1

>  <score_type>  (16) 
oracle

>  <origin>  (16) 
adg

>  <m_score__min__energy>  (16) 
-3.6800000000000002

>  <m_primary>  (16) 
energy

$$$$
16:0
     RDKit          3D

100104  0  0  0  0  0  0  0  0999 V2000
   -3.6620   16.3990  -35.2100 C   0  0  0  0  0  0  0  0  0  0  0  0
   -3.3870   15.6720  -33.8970 C   0  0  0  0  0  0  0  0  0  0  0  0
   -4.6180   15.6330  -33.0760 N   0  0  0  0  0  0  0  0  0  0  0  0
   -4.6110   14.5080  -32.1030 C   0  0  0  0  0  0  0  0  0  0  0  0
   -3.3050   13.6960  -32.0760 C   0  0  0  0  0  0  0  0  0  0  0  0
   -5.8420   15.7300  -33.9050 C   0  0  0  0  0  0  0  0  0  0  0  0
   -6.5920   17.0470  -33.6690 C   0  0  0  0  0  0  0  0  0  0  0  0
   -5.9850   17.8070  -32.5750 N   0  0  0  0  0  0  0  0  0  0  0  0
   -5.9070   19.2430  -32.6000 C   0  0  0  0  0  0  0  0  0  0  0  0
   -7.0530   20.0150  -32.3440 C   0  0  0  0  0  0  0  0  0  0  0  0
   -8.3150   19.4040  -32.1710 C   0  0  0  0  0  0  0  0  0  0  0  0
   -9.4550   20.1750  -31.9630 C   0  0  0  0  0  0  0  0  0  0  0  0
   -9.3630   21.5610  -31.9360 C   0  0  0  0  0  0  0  0  0  0  0  0
   -8.1250   22.1860  -32.0800 C   0  0  0  0  0  0  0  0  0  0  0  0
   -6.9370   21.4270  -32.2450 C   0  0  0  0  0  0  0  0  0  0  0  0
   -5.6920   22.0270  -32.3070 N   0  0  0  0  0  0  0  0  0  0  0  0
   -5.5290   23.4390  -31.8920 C   0  0  0  0  0  0  0  0  0  0  0  0
   -4.5960   21.3000  -32.7340 C   0  0  0  0  0  0  0  0  0  0  0  0
   -3.3630   21.9230  -33.0520 C   0  0  0  0  0  0  0  0  0  0  0  0
   -2.2540   21.1720  -33.4380 C   0  0  0  0  0  0  0  0  0  0  0  0
   -2.3510   19.7830  -33.5640 C   0  0  0  0  0  0  0  0  0  0  0  0
   -1.2600   18.9800  -33.9190 O   0  0  0  0  0  0  0  0  0  0  0  0
    0.1050   19.3280  -33.7220 C   0  0  0  0  0  0  0  0  0  0  0  0
    0.8940   18.1310  -33.1550 C   0  0  0  0  0  0  0  0  0  0  0  0
    0.4090   17.6000  -31.8390 N   0  0  1  0  0  0  0  0  0  0  0  0
   -0.8460   16.8200  -32.0100 C   0  0  0  0  0  0  0  0  0  0  0  0
    1.4290   16.7740  -31.1610 C   0  0  0  0  0  0  0  0  0  0  0  0
    1.2660   17.0440  -29.6830 C   0  0  0  0  0  0  0  0  0  0  0  0
    0.8190   18.4470  -29.5870 N   0  0  2  0  0  0  0  0  0  0  0  0
    2.0190   19.3190  -29.4460 C   0  0  0  0  0  0  0  0  0  0  0  0
   -0.0650   18.7060  -28.4020 C   0  0  0  0  0  0  0  0  0  0  0  0
   -0.9730   19.9270  -28.4930 C   0  0  0  0  0  0  0  0  0  0  0  0
   -2.2180   19.9360  -27.8480 C   0  0  0  0  0  0  0  0  0  0  0  0
   -3.0330   21.0670  -27.8830 C   0  0  0  0  0  0  0  0  0  0  0  0
   -2.6270   22.2420  -28.5520 C   0  0  0  0  0  0  0  0  0  0  0  0
   -3.5500   23.4770  -28.5540 C   0  0  0  0  0  0  0  0  0  0  0  0
   -3.5710   24.2220  -27.1980 C   0  0  0  0  0  0  0  0  0  0  0  0
   -3.0780   24.4830  -29.6280 C   0  0  0  0  0  0  0  0  0  0  0  0
   -4.9930   23.0290  -28.8690 C   0  0  0  0  0  0  0  0  0  0  0  0
   -1.3460   22.2430  -29.1500 C   0  0  0  0  0  0  0  0  0  0  0  0
   -0.5310   21.1080  -29.1080 C   0  0  0  0  0  0  0  0  0  0  0  0
    0.1620   18.7340  -30.8960 C   0  0  0  0  0  0  0  0  0  0  0  0
   -3.5720   19.1590  -33.3260 C   0  0  0  0  0  0  0  0  0  0  0  0
   -4.6910   19.8900  -32.8820 C   0  0  0  0  0  0  0  0  0  0  0  0
   -4.0438   17.4084  -34.9972 H   0  0  0  0  0  0  0  0  0  0  0  0
   -2.7302   16.4741  -35.7897 H   0  0  0  0  0  0  0  0  0  0  0  0
   -4.4103   15.8386  -35.7897 H   0  0  0  0  0  0  0  0  0  0  0  0
   -3.0584   14.6442  -34.1109 H   0  0  0  0  0  0  0  0  0  0  0  0
   -2.5999   16.2064  -33.3448 H   0  0  0  0  0  0  0  0  0  0  0  0
   -4.7789   14.9221  -31.0978 H   0  0  0  0  0  0  0  0  0  0  0  0
   -5.4038   13.8148  -32.4207 H   0  0  0  0  0  0  0  0  0  0  0  0
   -3.0091   13.5120  -31.0326 H   0  0  0  0  0  0  0  0  0  0  0  0
   -3.4602   12.7349  -32.5880 H   0  0  0  0  0  0  0  0  0  0  0  0
   -2.5117   14.2604  -32.5880 H   0  0  0  0  0  0  0  0  0  0  0  0
   -5.5584   15.6679  -34.9660 H   0  0  0  0  0  0  0  0  0  0  0  0
   -6.5101   14.9029  -33.6231 H   0  0  0  0  0  0  0  0  0  0  0  0
   -6.5581   17.6501  -34.5883 H   0  0  0  0  0  0  0  0  0  0  0  0
   -7.6327   16.8144  -33.3992 H   0  0  0  0  0  0  0  0  0  0  0  0
   -5.4960   17.2850  -31.8140 H   0  0  0  0  0  0  0  0  0  0  0  0
   -8.3975   18.3075  -32.2010 H   0  0  0  0  0  0  0  0  0  0  0  0
  -10.4300   19.6863  -31.8198 H   0  0  0  0  0  0  0  0  0  0  0  0
  -10.2705   22.1677  -31.8005 H   0  0  0  0  0  0  0  0  0  0  0  0
   -8.0681   23.2844  -32.0655 H   0  0  0  0  0  0  0  0  0  0  0  0
   -5.5220   23.4999  -30.7937 H   0  0  0  0  0  0  0  0  0  0  0  0
   -4.5798   23.8300  -32.2870 H   0  0  0  0  0  0  0  0  0  0  0  0
   -6.3642   24.0360  -32.2870 H   0  0  0  0  0  0  0  0  0  0  0  0
   -3.2800   23.0183  -32.9931 H   0  0  0  0  0  0  0  0  0  0  0  0
   -1.2977   21.6747  -33.6445 H   0  0  0  0  0  0  0  0  0  0  0  0
    0.5444   19.6270  -34.6851 H   0  0  0  0  0  0  0  0  0  0  0  0
    0.1588   20.1600  -33.0044 H   0  0  0  0  0  0  0  0  0  0  0  0
    0.8428   17.3136  -33.8893 H   0  0  0  0  0  0  0  0  0  0  0  0
    1.9134   18.5019  -32.9725 H   0  0  0  0  0  0  0  0  0  0  0  0
   -1.2566   16.5648  -31.0219 H   0  0  0  0  0  0  0  0  0  0  0  0
   -1.5788   17.4220  -32.5673 H   0  0  0  0  0  0  0  0  0  0  0  0
   -0.6306   15.8964  -32.5673 H   0  0  0  0  0  0  0  0  0  0  0  0
    1.2626   15.7081  -31.3758 H   0  0  0  0  0  0  0  0  0  0  0  0
    2.4435   17.0210  -31.5069 H   0  0  0  0  0  0  0  0  0  0  0  0
    0.5127   16.3697  -29.2495 H   0  0  0  0  0  0  0  0  0  0  0  0
    2.2022   16.8747  -29.1309 H   0  0  0  0  0  0  0  0  0  0  0  0
    2.2349   19.4759  -28.3789 H   0  0  0  0  0  0  0  0  0  0  0  0
    2.8820   18.8359  -29.9275 H   0  0  0  0  0  0  0  0  0  0  0  0
    1.8260   20.2890  -29.9275 H   0  0  0  0  0  0  0  0  0  0  0  0
   -0.7045   17.8222  -28.2609 H   0  0  0  0  0  0  0  0  0  0  0  0
    0.6183   18.9094  -27.5643 H   0  0  0  0  0  0  0  0  0  0  0  0
   -2.5561   19.0396  -27.3076 H   0  0  0  0  0  0  0  0  0  0  0  0
   -4.0108   21.0432  -27.3798 H   0  0  0  0  0  0  0  0  0  0  0  0
   -3.5504   23.4900  -26.3771 H   0  0  0  0  0  0  0  0  0  0  0  0
   -2.6910   24.8781  -27.1264 H   0  0  0  0  0  0  0  0  0  0  0  0
   -4.4866   24.8275  -27.1264 H   0  0  0  0  0  0  0  0  0  0  0  0
   -2.6599   25.3742  -29.1371 H   0  0  0  0  0  0  0  0  0  0  0  0
   -2.3060   24.0139  -30.2557 H   0  0  0  0  0  0  0  0  0  0  0  0
   -3.9322   24.7769  -30.2557 H   0  0  0  0  0  0  0  0  0  0  0  0
   -5.5379   22.8598  -27.9286 H   0  0  0  0  0  0  0  0  0  0  0  0
   -5.5010   23.8117  -29.4515 H   0  0  0  0  0  0  0  0  0  0  0  0
   -4.9684   22.0962  -29.4515 H   0  0  0  0  0  0  0  0  0  0  0  0
   -0.9851   23.1506  -29.6560 H   0  0  0  0  0  0  0  0  0  0  0  0
    0.4699   21.1413  -29.5631 H   0  0  0  0  0  0  0  0  0  0  0  0
   -0.9207   18.8547  -30.7438 H   0  0  0  0  0  0  0  0  0  0  0  0
    0.5790   19.6596  -31.3196 H   0  0  0  0  0  0  0  0  0  0  0  0
   -3.6648   18.0749  -33.4876 H   0  0  0  0  0  0  0  0  0  0  0  0
  1  2  1  0
  2  3  1  0
  3  4  1  0
  4  5  1  0
  3  6  1  0
  6  7  1  0
  7  8  1  0
  8  9  1  0
  9 10  2  0
 10 11  1  0
 11 12  2  0
 12 13  1  0
 13 14  2  0
 14 15  1  0
 15 16  2  0
 16 17  1  0
 16 18  1  0
 18 19  2  0
 19 20  1  0
 20 21  2  0
 21 22  1  0
 22 23  1  0
 23 24  1  0
 25 24  1  6
 25 26  1  0
 25 27  1  0
 27 28  1  0
 28 29  1  0
 29 30  1  1
 29 31  1  0
 31 32  1  0
 32 33  2  0
 33 34  1  0
 34 35  2  0
 35 36  1  0
 36 37  1  0
 36 38  1  0
 36 39  1  0
 35 40  1  0
 40 41  2  0
 29 42  1  0
 21 43  1  0
 43 44  2  0
 44  9  1  0
 15 10  1  0
 44 18  1  0
 42 25  1  0
 41 32  1  0
  1 45  1  0
  1 46  1  0
  1 47  1  0
  2 48  1  0
  2 49  1  0
  4 50  1  0
  4 51  1  0
  5 52  1  0
  5 53  1  0
  5 54  1  0
  6 55  1  0
  6 56  1  0
  7 57  1  0
  7 58  1  0
  8 59  1  0
 11 60  1  0
 12 61  1  0
 13 62  1  0
 14 63  1  0
 17 64  1  0
 17 65  1  0
 17 66  1  0
 19 67  1  0
 20 68  1  0
 23 69  1  0
 23 70  1  0
 24 71  1  0
 24 72  1  0
 26 73  1  0
 26 74  1  0
 26 75  1  0
 27 76  1  0
 27 77  1  0
 28 78  1  0
 28 79  1  0
 30 80  1  0
 30 81  1  0
 30 82  1  0
 31 83  1  0
 31 84  1  0
 33 85  1  0
 34 86  1  0
 37 87  1  0
 37 88  1  0
 37 89  1  0
 38 90  1  0
 38 91  1  0
 38 92  1  0
 39 93  1  0
 39 94  1  0
 39 95  1  0
 40 96  1  0
 41 97  1  0
 42 98  1  0
 42 99  1  0
 43100  1  0
M  CHG  3  16   1  25   1  29   1
M  END
>  <UniqueID>  (17) 
17

>  <SMILES>  (17) 
CCN(CC)CCNc1c2ccccc2[n+](C)c2ccc(OCC[N@@+]3(C)CC[N@+](C)(Cc4ccc(C(C)(C)C)cc4)C3)cc12

>  <Energy>  (17) 
153.39222913412283

>  <Genealogy>  (17) 
CCN(CC)CCNc1c2ccccc2[n+](C)c2ccc(OCC[N@@+]3(C)CC[N@+](C)(Cc4ccc(C(C)(C)C)cc4)C3)cc12 (chirality)
CCN(CC)CCNc1c2ccccc2[n+](C)c2ccc(OCC[N@@+]3(C)CC[N@+](C)(Cc4ccc(C(C)(C)C)cc4)C3)cc12 (3D coordinates assigned)
CCN(CC)CCNc1c2ccccc2[n+](C)c2ccc(OCC[N@@+]3(C)CC[N@+](C)(Cc4ccc(C(C)(C)C)cc4)C3)cc12 (nonaromatic ring conformer: 153.39222913412283 kcal/mol)

>  <smiles>  (17) 
CCN(CC)CCNc1c2ccccc2[n+](C)c2ccc(OCC[N+]3(C)CC[N+](C)(Cc4ccc(C(C)(C)C)cc4)C3)cc12

>  <score_type>  (17) 
oracle

>  <origin>  (17) 
adg

>  <m_score__min__energy>  (17) 
-9.6500000000000004

>  <m_primary>  (17) 
energy

$$$$
17:0
     RDKit          3D

 61 63  0  0  0  0  0  0  0  0999 V2000
   -2.6770   20.8730  -27.8160 C   0  0  0  0  0  0  0  0  0  0  0  0
   -2.0220   22.1120  -27.1960 C   0  0  0  0  0  0  0  0  0  0  0  0
   -2.2020   23.3420  -28.0150 N   0  0  0  0  0  0  0  0  0  0  0  0
   -1.0260   24.2550  -27.9880 C   0  0  0  0  0  0  0  0  0  0  0  0
   -1.3200   25.6530  -27.4240 C   0  0  0  0  0  0  0  0  0  0  0  0
   -3.4520   24.0580  -27.6170 C   0  0  0  0  0  0  0  0  0  0  0  0
   -4.6400   23.7470  -28.5520 C   0  0  0  0  0  0  0  0  0  0  0  0
   -4.4590   24.3800  -29.9410 C   0  0  0  0  0  0  0  0  0  0  0  0
   -3.3510   23.7420  -30.6640 N   0  0  0  0  0  0  0  0  0  0  0  0
   -3.6260   22.3190  -30.9170 C   0  0  0  0  0  0  0  0  0  0  0  0
   -3.1570   21.9210  -32.3200 C   0  0  0  0  0  0  0  0  0  0  0  0
   -4.2880   21.8410  -33.2490 N   0  0  0  0  0  0  0  0  0  0  0  0
   -5.4080   20.9650  -33.0170 C   0  0  0  0  0  0  0  0  0  0  0  0
   -6.6230   21.4740  -32.5150 C   0  0  0  0  0  0  0  0  0  0  0  0
   -6.7600   22.8410  -32.1840 C   0  0  0  0  0  0  0  0  0  0  0  0
   -7.9850   23.3550  -31.7670 C   0  0  0  0  0  0  0  0  0  0  0  0
   -9.0930   22.5230  -31.6700 C   0  0  0  0  0  0  0  0  0  0  0  0
   -8.9700   21.1600  -31.9400 C   0  0  0  0  0  0  0  0  0  0  0  0
   -7.7220   20.5950  -32.3170 C   0  0  0  0  0  0  0  0  0  0  0  0
   -7.5640   19.2320  -32.4860 N   0  0  0  0  0  0  0  0  0  0  0  0
   -8.6060   18.3010  -31.9930 C   0  0  0  0  0  0  0  0  0  0  0  0
   -6.4130   18.7340  -33.0710 C   0  0  0  0  0  0  0  0  0  0  0  0
   -6.3050   17.3720  -33.4600 C   0  0  0  0  0  0  0  0  0  0  0  0
   -5.1200   16.8670  -33.9910 C   0  0  0  0  0  0  0  0  0  0  0  0
   -4.0250   17.6990  -34.1720 C   0  0  0  0  0  0  0  0  0  0  0  0
   -4.1130   19.0520  -33.8490 C   0  0  0  0  0  0  0  0  0  0  0  0
   -5.3020   19.5900  -33.3080 C   0  0  0  0  0  0  0  0  0  0  0  0
   -3.0298   20.2056  -27.0159 H   0  0  0  0  0  0  0  0  0  0  0  0
   -3.5297   21.1818  -28.4386 H   0  0  0  0  0  0  0  0  0  0  0  0
   -1.9417   20.3423  -28.4386 H   0  0  0  0  0  0  0  0  0  0  0  0
   -2.4670   22.2837  -26.2048 H   0  0  0  0  0  0  0  0  0  0  0  0
   -0.9415   21.9148  -27.1352 H   0  0  0  0  0  0  0  0  0  0  0  0
   -2.2950   23.0330  -29.0130 H   0  0  0  0  0  0  0  0  0  0  0  0
   -0.2448   23.7913  -27.3678 H   0  0  0  0  0  0  0  0  0  0  0  0
   -0.7156   24.3976  -29.0336 H   0  0  0  0  0  0  0  0  0  0  0  0
   -1.3118   25.6141  -26.3247 H   0  0  0  0  0  0  0  0  0  0  0  0
   -0.5505   26.3579  -27.7717 H   0  0  0  0  0  0  0  0  0  0  0  0
   -2.3083   25.9883  -27.7717 H   0  0  0  0  0  0  0  0  0  0  0  0
   -3.7205   23.7552  -26.5942 H   0  0  0  0  0  0  0  0  0  0  0  0
   -3.2516   25.1376  -27.6822 H   0  0  0  0  0  0  0  0  0  0  0  0
   -4.7257   22.6564  -28.6669 H   0  0  0  0  0  0  0  0  0  0  0  0
   -5.5487   24.1715  -28.1004 H   0  0  0  0  0  0  0  0  0  0  0  0
   -5.3867   24.2539  -30.5185 H   0  0  0  0  0  0  0  0  0  0  0  0
   -4.2291   25.4483  -29.8147 H   0  0  0  0  0  0  0  0  0  0  0  0
   -3.2700   24.2190  -31.5940 H   0  0  0  0  0  0  0  0  0  0  0  0
   -3.0940   21.7098  -30.1715 H   0  0  0  0  0  0  0  0  0  0  0  0
   -4.7102   22.1486  -30.8436 H   0  0  0  0  0  0  0  0  0  0  0  0
   -2.4425   22.6725  -32.6871 H   0  0  0  0  0  0  0  0  0  0  0  0
   -2.6801   20.9314  -32.2625 H   0  0  0  0  0  0  0  0  0  0  0  0
   -4.3760   22.5850  -33.9760 H   0  0  0  0  0  0  0  0  0  0  0  0
   -5.8879   23.5074  -32.2567 H   0  0  0  0  0  0  0  0  0  0  0  0
   -8.0754   24.4217  -31.5140 H   0  0  0  0  0  0  0  0  0  0  0  0
  -10.0689   22.9395  -31.3798 H   0  0  0  0  0  0  0  0  0  0  0  0
   -9.8547   20.5112  -31.8596 H   0  0  0  0  0  0  0  0  0  0  0  0
   -8.6065   18.3005  -30.8930 H   0  0  0  0  0  0  0  0  0  0  0  0
   -9.5909   18.6254  -32.3600 H   0  0  0  0  0  0  0  0  0  0  0  0
   -8.3941   17.2859  -32.3600 H   0  0  0  0  0  0  0  0  0  0  0  0
   -7.1714   16.7049  -33.3400 H   0  0  0  0  0  0  0  0  0  0  0  0
   -5.0525   15.8045  -34.2677 H   0  0  0  0  0  0  0  0  0  0  0  0
   -3.0851   17.2901  -34.5713 H   0  0  0  0  0  0  0  0  0  0  0  0
   -3.2466   19.7085  -34.0173 H   0  0  0  0  0  0  0  0  0  0  0  0
  1  2  1  0
  2  3  1  0
  3  4  1  0
  4  5  1  0
  3  6  1  0
  6  7  1  0
  7  8  1  0
  8  9  1  0
  9 10  1  0
 10 11  1  0
 11 12  1  0
 12 13  1  0
 13 14  2  0
 14 15  1  0
 15 16  2  0
 16 17  1  0
 17 18  2  0
 18 19  1  0
 19 20  2  0
 20 21  1  0
 20 22  1  0
 22 23  2  0
 23 24  1  0
 24 25  2  0
 25 26  1  0
 26 27  2  0
 27 13  1  0
 19 14  1  0
 27 22  1  0
  1 28  1  0
  1 29  1  0
  1 30  1  0
  2 31  1  0
  2 32  1  0
  3 33  1  0
  4 34  1  0
  4 35  1  0
  5 36  1  0
  5 37  1  0
  5 38  1  0
  6 39  1  0
  6 40  1  0
  7 41  1  0
  7 42  1  0
  8 43  1  0
  8 44  1  0
  9 45  1  0
 10 46  1  0
 10 47  1  0
 11 48  1  0
 11 49  1  0
 12 50  1  0
 15 51  1  0
 16 52  1  0
 17 53  1  0
 18 54  1  0
 21 55  1  0
 21 56  1  0
 21 57  1  0
 23 58  1  0
 24 59  1  0
 25 60  1  0
 26 61  1  0
M  CHG  2   3   1  20   1
M  END
>  <UniqueID>  (18) 
18

>  <SMILES>  (18) 
CC[NH+](CC)CCCNCCNc1c2ccccc2[n+](C)c2ccccc12

>  <Energy>  (18) 
86.16103275969256

>  <Genealogy>  (18) 
CC[NH+](CC)CCCNCCNc1c2ccccc2[n+](C)c2ccccc12 (protonated)
CC[NH+](CC)CCCNCCNc1c2ccccc2[n+](C)c2ccccc12 (3D coordinates assigned)
CC[NH+](CC)CCCNCCNc1c2ccccc2[n+](C)c2ccccc12 (optimized conformer: 86.16103275969256 kcal/mol)

>  <smiles>  (18) 
CCN(CC)CCCNCCNc1c2ccccc2[n+](C)c2ccccc12

>  <score_type>  (18) 
oracle

>  <origin>  (18) 
adg

>  <m_score__min__energy>  (18) 
-8.0600000000000005

>  <m_primary>  (18) 
energy

$$$$
18:0
     RDKit          3D

 63 67  0  0  0  0  0  0  0  0999 V2000
   -5.6530   25.6790  -30.4640 C   0  0  0  0  0  0  0  0  0  0  0  0
   -4.9870   24.4010  -29.9440 C   0  0  0  0  0  0  0  0  0  0  0  0
   -3.5650   24.3090  -30.3430 N   0  0  0  0  0  0  0  0  0  0  0  0
   -2.6170   24.5580  -29.2370 C   0  0  0  0  0  0  0  0  0  0  0  0
   -2.4120   23.3340  -28.3250 C   0  0  0  0  0  0  0  0  0  0  0  0
   -2.7630   22.0990  -29.0360 N   0  0  0  0  0  0  0  0  0  0  0  0
   -1.5530   21.3860  -29.4640 C   0  0  0  0  0  0  0  0  0  0  0  0
   -1.5560   21.2230  -30.9600 C   0  0  0  0  0  0  0  0  0  0  0  0
   -0.3470   21.0390  -31.6680 C   0  0  0  0  0  0  0  0  0  0  0  0
   -0.3240   20.9070  -33.0910 C   0  0  0  0  0  0  0  0  0  0  0  0
    0.9340   20.7070  -33.8080 N   0  0  0  0  0  0  0  0  0  0  0  0
    1.2610   21.5860  -34.9520 C   0  0  0  0  0  0  0  0  0  0  0  0
    2.5800   21.2290  -35.6520 C   0  0  0  0  0  0  0  0  0  0  0  0
    3.5470   20.7920  -34.7280 O   0  0  0  0  0  0  0  0  0  0  0  0
    3.1300   19.5550  -34.2020 C   0  0  0  0  0  0  0  0  0  0  0  0
    1.9200   19.7370  -33.2850 C   0  0  0  0  0  0  0  0  0  0  0  0
   -1.5610   20.9900  -33.7910 C   0  0  0  0  0  0  0  0  0  0  0  0
   -2.7290   21.1910  -33.0650 C   0  0  0  0  0  0  0  0  0  0  0  0
   -4.0310   21.3260  -33.4890 C   0  0  0  0  0  0  0  0  0  0  0  0
   -4.7540   21.5350  -32.3150 C   0  0  0  0  0  0  0  0  0  0  0  0
   -6.2190   21.7150  -32.2130 C   0  0  0  0  0  0  0  0  0  0  0  0
   -6.7030   23.0330  -32.1400 C   0  0  0  0  0  0  0  0  0  0  0  0
   -8.0650   23.2840  -31.9800 C   0  0  0  0  0  0  0  0  0  0  0  0
   -8.9720   22.2260  -31.9030 C   0  0  0  0  0  0  0  0  0  0  0  0
   -8.5250   20.9020  -32.0080 C   0  0  0  0  0  0  0  0  0  0  0  0
   -9.4490   19.8440  -31.9610 C   0  0  0  0  0  0  0  0  0  0  0  0
   -9.0190   18.5250  -32.1050 C   0  0  0  0  0  0  0  0  0  0  0  0
   -7.6670   18.2480  -32.3060 C   0  0  0  0  0  0  0  0  0  0  0  0
   -6.7340   19.2870  -32.3550 C   0  0  0  0  0  0  0  0  0  0  0  0
   -7.1390   20.6300  -32.1790 C   0  0  0  0  0  0  0  0  0  0  0  0
   -3.9500   21.5070  -31.2650 O   0  0  0  0  0  0  0  0  0  0  0  0
   -2.7310   21.3070  -31.7040 C   0  0  0  0  0  0  0  0  0  0  0  0
   -5.9751   26.2970  -29.6129 H   0  0  0  0  0  0  0  0  0  0  0  0
   -4.9346   26.2439  -31.0762 H   0  0  0  0  0  0  0  0  0  0  0  0
   -6.5275   25.4137  -31.0762 H   0  0  0  0  0  0  0  0  0  0  0  0
   -5.0480   24.3915  -28.8457 H   0  0  0  0  0  0  0  0  0  0  0  0
   -5.5167   23.5422  -30.3821 H   0  0  0  0  0  0  0  0  0  0  0  0
   -3.3420   23.4010  -30.8190 H   0  0  0  0  0  0  0  0  0  0  0  0
   -1.6446   24.8400  -29.6671 H   0  0  0  0  0  0  0  0  0  0  0  0
   -3.0431   25.3599  -28.6162 H   0  0  0  0  0  0  0  0  0  0  0  0
   -1.3577   23.2861  -28.0149 H   0  0  0  0  0  0  0  0  0  0  0  0
   -3.0622   23.4342  -27.4434 H   0  0  0  0  0  0  0  0  0  0  0  0
   -3.3110   22.3610  -29.8930 H   0  0  0  0  0  0  0  0  0  0  0  0
   -0.6650   21.9605  -29.1616 H   0  0  0  0  0  0  0  0  0  0  0  0
   -1.5321   20.3927  -28.9918 H   0  0  0  0  0  0  0  0  0  0  0  0
    0.6000   20.9963  -31.1101 H   0  0  0  0  0  0  0  0  0  0  0  0
    0.4471   21.5136  -35.6885 H   0  0  0  0  0  0  0  0  0  0  0  0
    1.3771   22.6035  -34.5506 H   0  0  0  0  0  0  0  0  0  0  0  0
    2.3930   20.4270  -36.3813 H   0  0  0  0  0  0  0  0  0  0  0  0
    2.9617   22.1302  -36.1541 H   0  0  0  0  0  0  0  0  0  0  0  0
    2.8577   18.8840  -35.0300 H   0  0  0  0  0  0  0  0  0  0  0  0
    3.9554   19.1238  -33.6165 H   0  0  0  0  0  0  0  0  0  0  0  0
    1.4227   18.7632  -33.1648 H   0  0  0  0  0  0  0  0  0  0  0  0
    2.2914   20.1319  -32.3279 H   0  0  0  0  0  0  0  0  0  0  0  0
   -1.5917   20.8967  -34.8866 H   0  0  0  0  0  0  0  0  0  0  0  0
   -4.4142   21.2796  -34.5191 H   0  0  0  0  0  0  0  0  0  0  0  0
   -5.9992   23.8755  -32.2099 H   0  0  0  0  0  0  0  0  0  0  0  0
   -8.4265   24.3208  -31.9141 H   0  0  0  0  0  0  0  0  0  0  0  0
  -10.0428   22.4324  -31.7592 H   0  0  0  0  0  0  0  0  0  0  0  0
  -10.5175   20.0574  -31.8098 H   0  0  0  0  0  0  0  0  0  0  0  0
   -9.7474   17.7019  -32.0600 H   0  0  0  0  0  0  0  0  0  0  0  0
   -7.3336   17.2067  -32.4265 H   0  0  0  0  0  0  0  0  0  0  0  0
   -5.6729   19.0575  -32.5324 H   0  0  0  0  0  0  0  0  0  0  0  0
  1  2  1  0
  2  3  1  0
  3  4  1  0
  4  5  1  0
  5  6  1  0
  6  7  1  0
  7  8  1  0
  8  9  2  0
  9 10  1  0
 10 11  1  0
 11 12  1  0
 12 13  1  0
 13 14  1  0
 14 15  1  0
 15 16  1  0
 10 17  2  0
 17 18  1  0
 18 19  1  0
 19 20  2  0
 20 21  1  0
 21 22  2  0
 22 23  1  0
 23 24  2  0
 24 25  1  0
 25 26  2  0
 26 27  1  0
 27 28  2  0
 28 29  1  0
 29 30  2  0
 20 31  1  0
 31 32  1  0
 32  8  1  0
 16 11  1  0
 32 18  2  0
 30 21  1  0
 30 25  1  0
  1 33  1  0
  1 34  1  0
  1 35  1  0
  2 36  1  0
  2 37  1  0
  3 38  1  0
  4 39  1  0
  4 40  1  0
  5 41  1  0
  5 42  1  0
  6 43  1  0
  7 44  1  0
  7 45  1  0
  9 46  1  0
 12 47  1  0
 12 48  1  0
 13 49  1  0
 13 50  1  0
 15 51  1  0
 15 52  1  0
 16 53  1  0
 16 54  1  0
 17 55  1  0
 19 56  1  0
 22 57  1  0
 23 58  1  0
 24 59  1  0
 26 60  1  0
 27 61  1  0
 28 62  1  0
 29 63  1  0
M  END
>  <UniqueID>  (19) 
19

>  <SMILES>  (19) 
CCNCCNCc1cc(N2CCOCC2)cc2cc(-c3cccc4ccccc34)oc12

>  <Energy>  (19) 
115.81535262693082

>  <Genealogy>  (19) 
CCNCCNCc1cc(N2CCOCC2)cc2cc(-c3cccc4ccccc34)oc12 (3D coordinates assigned)
CCNCCNCc1cc(N2CCOCC2)cc2cc(-c3cccc4ccccc34)oc12 (nonaromatic ring conformer: 115.81535262693082 kcal/mol)

>  <smiles>  (19) 
CCNCCNCc1cc(N2CCOCC2)cc2cc(-c3cccc4ccccc34)oc12

>  <score_type>  (19) 
oracle

>  <origin>  (19) 
adg

>  <m_score__min__energy>  (19) 
-10.35

>  <m_primary>  (19) 
energy

$$$$
19:0
     RDKit          3D

 56 55  0  0  0  0  0  0  0  0999 V2000
   -6.2359   18.0678  -31.2214 H   0  0  0  0  0  0  0  0  0  0  0  0
   -6.8010   18.3120  -32.1330 C   0  0  0  0  0  0  0  0  0  0  0  0
   -6.3090   17.9060  -33.3220 C   0  0  0  0  0  0  0  0  0  0  0  0
   -5.5320   18.8890  -34.1590 C   0  0  0  0  0  0  0  0  0  0  0  0
   -4.9857   19.5801  -33.5003 H   0  0  0  0  0  0  0  0  0  0  0  0
   -4.8169   18.3453  -34.7939 H   0  0  0  0  0  0  0  0  0  0  0  0
   -6.2261   19.4592  -34.7939 H   0  0  0  0  0  0  0  0  0  0  0  0
   -6.5010   16.4920  -33.8140 C   0  0  0  0  0  0  0  0  0  0  0  0
   -6.5931   15.8135  -32.9531 H   0  0  0  0  0  0  0  0  0  0  0  0
   -7.4149   16.4368  -34.4237 H   0  0  0  0  0  0  0  0  0  0  0  0
   -5.6349   16.1951  -34.4237 H   0  0  0  0  0  0  0  0  0  0  0  0
   -8.0910   19.0860  -31.9940 C   0  0  0  0  0  0  0  0  0  0  0  0
   -8.2871   19.2689  -30.9272 H   0  0  0  0  0  0  0  0  0  0  0  0
   -8.9036   18.4941  -32.4404 H   0  0  0  0  0  0  0  0  0  0  0  0
   -8.0090   20.4310  -32.7260 C   0  0  0  0  0  0  0  0  0  0  0  0
   -8.7773   20.4584  -33.5128 H   0  0  0  0  0  0  0  0  0  0  0  0
   -7.0035   20.5293  -33.1611 H   0  0  0  0  0  0  0  0  0  0  0  0
   -8.2350   21.5910  -31.7730 C   0  0  0  0  0  0  0  0  0  0  0  0
   -7.4150   22.6650  -31.7060 C   0  0  0  0  0  0  0  0  0  0  0  0
   -7.7816   23.5557  -31.1747 H   0  0  0  0  0  0  0  0  0  0  0  0
   -6.0370   22.7270  -32.3070 C   0  0  0  0  0  0  0  0  0  0  0  0
   -6.1060   22.6290  -33.4004 H   0  0  0  0  0  0  0  0  0  0  0  0
   -5.4199   21.9070  -31.9111 H   0  0  0  0  0  0  0  0  0  0  0  0
   -5.4530   23.9660  -31.9790 O   0  0  0  0  0  0  0  0  0  0  0  0
   -6.1430   24.5580  -30.9000 C   0  0  0  0  0  0  0  0  0  0  0  0
   -6.4682   23.7781  -30.1958 H   0  0  0  0  0  0  0  0  0  0  0  0
   -7.0281   25.0959  -31.2705 H   0  0  0  0  0  0  0  0  0  0  0  0
   -5.2040   25.5270  -30.1940 C   0  0  0  0  0  0  0  0  0  0  0  0
   -5.3323   25.4398  -29.1050 H   0  0  0  0  0  0  0  0  0  0  0  0
   -5.4315   26.5591  -30.4989 H   0  0  0  0  0  0  0  0  0  0  0  0
   -3.8760   25.2040  -30.5430 O   0  0  0  0  0  0  0  0  0  0  0  0
   -3.4160   24.1200  -29.7650 C   0  0  0  0  0  0  0  0  0  0  0  0
   -4.2338   23.7501  -29.1290 H   0  0  0  0  0  0  0  0  0  0  0  0
   -2.5817   24.4493  -29.1282 H   0  0  0  0  0  0  0  0  0  0  0  0
   -2.9400   22.9920  -30.7010 C   0  0  0  0  0  0  0  0  0  0  0  0
   -1.8400   22.9898  -30.7056 H   0  0  0  0  0  0  0  0  0  0  0  0
   -3.3723   23.2015  -31.6905 H   0  0  0  0  0  0  0  0  0  0  0  0
   -3.4060   21.6350  -30.3130 N   0  0  0  0  0  0  0  0  0  0  0  0
   -3.6380   20.7200  -31.4560 C   0  0  0  0  0  0  0  0  0  0  0  0
   -4.7207   20.5658  -31.5741 H   0  0  0  0  0  0  0  0  0  0  0  0
   -3.1233   19.7714  -31.2433 H   0  0  0  0  0  0  0  0  0  0  0  0
   -3.0740   21.2830  -32.7600 C   0  0  0  0  0  0  0  0  0  0  0  0
   -2.3124   22.0433  -32.5321 H   0  0  0  0  0  0  0  0  0  0  0  0
   -2.6173   20.4698  -33.3433 H   0  0  0  0  0  0  0  0  0  0  0  0
   -3.8863   21.7411  -33.3433 H   0  0  0  0  0  0  0  0  0  0  0  0
   -2.5340   21.0160  -29.2880 C   0  0  0  0  0  0  0  0  0  0  0  0
   -2.4741   19.9325  -29.4683 H   0  0  0  0  0  0  0  0  0  0  0  0
   -1.5313   21.4637  -29.3523 H   0  0  0  0  0  0  0  0  0  0  0  0
   -3.1010   21.2640  -27.8940 C   0  0  0  0  0  0  0  0  0  0  0  0
   -2.3689   20.9438  -27.1381 H   0  0  0  0  0  0  0  0  0  0  0  0
   -3.3116   22.3364  -27.7693 H   0  0  0  0  0  0  0  0  0  0  0  0
   -4.0314   20.6907  -27.7693 H   0  0  0  0  0  0  0  0  0  0  0  0
   -9.4130   21.5320  -30.8360 C   0  0  0  0  0  0  0  0  0  0  0  0
   -9.0554   21.5499  -29.7959 H   0  0  0  0  0  0  0  0  0  0  0  0
  -10.0668   22.3985  -31.0139 H   0  0  0  0  0  0  0  0  0  0  0  0
   -9.9770   20.6045  -31.0139 H   0  0  0  0  0  0  0  0  0  0  0  0
  1  2  1  0
  2  3  2  3
  3  4  1  0
  4  5  1  0
  4  6  1  0
  4  7  1  0
  3  8  1  0
  8  9  1  0
  8 10  1  0
  8 11  1  0
  2 12  1  0
 12 13  1  0
 12 14  1  0
 12 15  1  0
 15 16  1  0
 15 17  1  0
 15 18  1  0
 18 19  2  0
 19 20  1  0
 19 21  1  0
 21 22  1  0
 21 23  1  0
 21 24  1  0
 24 25  1  0
 25 26  1  0
 25 27  1  0
 25 28  1  0
 28 29  1  0
 28 30  1  0
 28 31  1  0
 31 32  1  0
 32 33  1  0
 32 34  1  0
 32 35  1  0
 35 36  1  0
 35 37  1  0
 35 38  1  0
 38 39  1  0
 39 40  1  0
 39 41  1  0
 39 42  1  0
 42 43  1  0
 42 44  1  0
 42 45  1  0
 38 46  1  0
 46 47  1  0
 46 48  1  0
 46 49  1  0
 49 50  1  0
 49 51  1  0
 49 52  1  0
 18 53  1  0
 53 54  1  0
 53 55  1  0
 53 56  1  0
M  END
>  <UniqueID>  (20) 
20

>  <SMILES>  (20) 
CCN(CC)CCOCCOC/C=C(/C)CCC=C(C)C

>  <Energy>  (20) 
35.196837304268804

>  <Genealogy>  (20) 
CCN(CC)CCOCCOC/C=C(/C)CCC=C(C)C (cis-trans isomerization)
CCN(CC)CCOCCOC/C=C(/C)CCC=C(C)C (3D coordinates assigned)
CCN(CC)CCOCCOC/C=C(/C)CCC=C(C)C (optimized conformer: 35.196837304268804 kcal/mol)

>  <smiles>  (20) 
CCN(CC)CCOCCOCC=C(C)CCC=C(C)C

>  <score_type>  (20) 
oracle

>  <origin>  (20) 
adg

>  <m_score__min__energy>  (20) 
-7.4400000000000004

>  <m_primary>  (20) 
energy

$$$$
20:0
     RDKit          3D

 88 91  0  0  0  0  0  0  0  0999 V2000
   -1.0110   24.8520  -26.0640 C   0  0  0  0  0  0  0  0  0  0  0  0
    0.3270   25.0430  -26.7730 C   0  0  0  0  0  0  0  0  0  0  0  0
    0.1920   24.6920  -28.1820 N   0  0  0  0  0  0  0  0  0  0  0  0
   -1.0160   24.8680  -28.9290 C   0  0  0  0  0  0  0  0  0  0  0  0
   -1.5990   25.9860  -28.9490 O   0  0  0  0  0  0  0  0  0  0  0  0
   -1.5740   23.7180  -29.7120 C   0  0  0  0  0  0  0  0  0  0  0  0
   -3.0460   23.7500  -29.6910 N   0  0  0  0  0  0  0  0  0  0  0  0
   -3.7160   24.3120  -28.5060 C   0  0  0  0  0  0  0  0  0  0  0  0
   -4.0470   23.2200  -27.4920 C   0  0  0  0  0  0  0  0  0  0  0  0
   -3.7710   23.3780  -30.8920 C   0  0  0  0  0  0  0  0  0  0  0  0
   -4.6240   24.1730  -31.3740 O   0  0  0  0  0  0  0  0  0  0  0  0
   -3.6080   22.0590  -31.5400 C   0  0  0  0  0  0  0  0  0  0  0  0
   -2.3540   21.4350  -31.6130 C   0  0  0  0  0  0  0  0  0  0  0  0
   -2.2360   20.1370  -32.1210 C   0  0  0  0  0  0  0  0  0  0  0  0
   -3.3710   19.4620  -32.6100 C   0  0  0  0  0  0  0  0  0  0  0  0
   -4.6100   20.1310  -32.6350 C   0  0  0  0  0  0  0  0  0  0  0  0
   -4.7270   21.4160  -32.0870 C   0  0  0  0  0  0  0  0  0  0  0  0
   -5.8110   19.4160  -33.2000 C   0  0  0  0  0  0  0  0  0  0  0  0
   -5.4330   18.6730  -34.4930 C   0  0  0  0  0  0  0  0  0  0  0  0
   -4.1040   17.8510  -34.3950 C   0  0  1  0  0  0  0  0  0  0  0  0
   -3.3790   18.0020  -33.0310 C   0  0  1  0  0  0  0  0  0  0  0  0
   -2.0050   17.3220  -33.1040 C   0  0  0  0  0  0  0  0  0  0  0  0
   -2.1820   15.8280  -33.4080 C   0  0  0  0  0  0  0  0  0  0  0  0
   -2.9830   15.5080  -34.7210 C   0  0  1  0  0  0  0  0  0  0  0  0
   -2.0600   15.7880  -35.9360 C   0  0  0  0  0  0  0  0  0  0  0  0
   -3.5150   14.0220  -34.6270 C   0  0  2  0  0  0  0  0  0  0  0  0
   -3.2700   13.0340  -35.8250 C   0  0  2  0  0  0  0  0  0  0  0  0
   -1.7870   12.6120  -35.9960 C   0  0  0  0  0  0  0  0  0  0  0  0
   -3.8010   13.5800  -37.1890 C   0  0  0  0  0  0  0  0  0  0  0  0
   -2.9680   13.2600  -38.4470 C   0  0  0  0  0  0  0  0  0  0  0  0
   -2.3920   14.5160  -39.1330 C   0  0  0  0  0  0  0  0  0  0  0  0
   -0.8730   14.4300  -39.4440 C   0  0  0  0  0  0  0  0  0  0  0  0
   -0.0620   15.4850  -38.6780 C   0  0  0  0  0  0  0  0  0  0  0  0
   -0.3010   13.0250  -39.2110 C   0  0  0  0  0  0  0  0  0  0  0  0
   -5.0010   14.1120  -34.2270 C   0  0  0  0  0  0  0  0  0  0  0  0
   -5.3190   15.5800  -33.9990 C   0  0  0  0  0  0  0  0  0  0  0  0
   -4.2800   16.3580  -34.8070 C   0  0  1  0  0  0  0  0  0  0  0  0
   -0.8555   24.8742  -24.9753 H   0  0  0  0  0  0  0  0  0  0  0  0
   -1.6978   25.6612  -26.3529 H   0  0  0  0  0  0  0  0  0  0  0  0
   -1.4440   23.8829  -26.3529 H   0  0  0  0  0  0  0  0  0  0  0  0
    0.6397   26.0941  -26.6865 H   0  0  0  0  0  0  0  0  0  0  0  0
    1.0820   24.3930  -26.3067 H   0  0  0  0  0  0  0  0  0  0  0  0
   -1.2247   23.7846  -30.7529 H   0  0  0  0  0  0  0  0  0  0  0  0
   -1.2307   22.7767  -29.2580 H   0  0  0  0  0  0  0  0  0  0  0  0
   -3.0515   25.0508  -28.0342 H   0  0  0  0  0  0  0  0  0  0  0  0
   -4.6550   24.7862  -28.8277 H   0  0  0  0  0  0  0  0  0  0  0  0
   -3.9267   23.6170  -26.4732 H   0  0  0  0  0  0  0  0  0  0  0  0
   -5.0860   22.8886  -27.6360 H   0  0  0  0  0  0  0  0  0  0  0  0
   -3.3669   22.3675  -27.6360 H   0  0  0  0  0  0  0  0  0  0  0  0
   -1.4569   21.9701  -31.2683 H   0  0  0  0  0  0  0  0  0  0  0  0
   -1.2538   19.6421  -32.1385 H   0  0  0  0  0  0  0  0  0  0  0  0
   -5.7032   21.9230  -32.0863 H   0  0  0  0  0  0  0  0  0  0  0  0
   -6.1823   18.6911  -32.4607 H   0  0  0  0  0  0  0  0  0  0  0  0
   -6.5921   20.1560  -33.4288 H   0  0  0  0  0  0  0  0  0  0  0  0
   -6.2496   17.9801  -34.7442 H   0  0  0  0  0  0  0  0  0  0  0  0
   -5.2738   19.4410  -35.2642 H   0  0  0  0  0  0  0  0  0  0  0  0
   -3.4352   18.3047  -35.1413 H   0  0  0  0  0  0  0  0  0  0  0  0
   -3.9166   17.4804  -32.2255 H   0  0  0  0  0  0  0  0  0  0  0  0
   -1.4079   17.7890  -33.9011 H   0  0  0  0  0  0  0  0  0  0  0  0
   -1.4894   17.4386  -32.1393 H   0  0  0  0  0  0  0  0  0  0  0  0
   -1.1826   15.3777  -33.4997 H   0  0  0  0  0  0  0  0  0  0  0  0
   -2.7734   15.4134  -32.5783 H   0  0  0  0  0  0  0  0  0  0  0  0
   -1.0646   16.0900  -35.5784 H   0  0  0  0  0  0  0  0  0  0  0  0
   -1.9698   14.8768  -36.5456 H   0  0  0  0  0  0  0  0  0  0  0  0
   -2.4912   16.5958  -36.5456 H   0  0  0  0  0  0  0  0  0  0  0  0
   -2.8835   13.5270  -33.8745 H   0  0  0  0  0  0  0  0  0  0  0  0
   -3.8510   12.1427  -35.5456 H   0  0  0  0  0  0  0  0  0  0  0  0
   -1.3265   12.4810  -35.0056 H   0  0  0  0  0  0  0  0  0  0  0  0
   -1.7373   11.6640  -36.5518 H   0  0  0  0  0  0  0  0  0  0  0  0
   -1.2456   13.3918  -36.5518 H   0  0  0  0  0  0  0  0  0  0  0  0
   -4.8073   13.1635  -37.3433 H   0  0  0  0  0  0  0  0  0  0  0  0
   -3.7602   14.6750  -37.0921 H   0  0  0  0  0  0  0  0  0  0  0  0
   -2.1322   12.6070  -38.1555 H   0  0  0  0  0  0  0  0  0  0  0  0
   -3.6412   12.7743  -39.1687 H   0  0  0  0  0  0  0  0  0  0  0  0
   -2.9301   14.6695  -40.0801 H   0  0  0  0  0  0  0  0  0  0  0  0
   -2.5241   15.3503  -38.4284 H   0  0  0  0  0  0  0  0  0  0  0  0
   -0.7755   14.6482  -40.5177 H   0  0  0  0  0  0  0  0  0  0  0  0
   -0.1837   15.3267  -37.5963 H   0  0  0  0  0  0  0  0  0  0  0  0
    1.0014   15.3947  -38.9445 H   0  0  0  0  0  0  0  0  0  0  0  0
   -0.4227   16.4894  -38.9445 H   0  0  0  0  0  0  0  0  0  0  0  0
   -0.2237   12.8352  -38.1303 H   0  0  0  0  0  0  0  0  0  0  0  0
   -0.9665   12.2778  -39.6679 H   0  0  0  0  0  0  0  0  0  0  0  0
    0.6972   12.9551  -39.6679 H   0  0  0  0  0  0  0  0  0  0  0  0
   -5.1776   13.5407  -33.3037 H   0  0  0  0  0  0  0  0  0  0  0  0
   -5.6428   13.6923  -35.0156 H   0  0  0  0  0  0  0  0  0  0  0  0
   -5.2387   15.8285  -32.9305 H   0  0  0  0  0  0  0  0  0  0  0  0
   -6.3445   15.8268  -34.3112 H   0  0  0  0  0  0  0  0  0  0  0  0
   -4.6099   16.4789  -35.8494 H   0  0  0  0  0  0  0  0  0  0  0  0
  1  2  1  0
  2  3  1  0
  3  4  1  0
  4  5  2  0
  4  6  1  0
  6  7  1  0
  7  8  1  0
  8  9  1  0
  7 10  1  0
 10 11  2  0
 10 12  1  0
 12 13  2  0
 13 14  1  0
 14 15  2  0
 15 16  1  0
 16 17  2  0
 16 18  1  0
 18 19  1  0
 19 20  1  0
 20 21  1  0
 21 22  1  0
 22 23  1  0
 23 24  1  0
 24 25  1  6
 24 26  1  0
 26 27  1  0
 27 28  1  0
 27 29  1  0
 29 30  1  0
 30 31  1  0
 31 32  1  0
 32 33  1  0
 32 34  1  0
 26 35  1  0
 35 36  1  0
 36 37  1  0
 17 12  1  0
 37 20  1  0
 21 15  1  0
 37 24  1  0
  1 38  1  0
  1 39  1  0
  1 40  1  0
  2 41  1  0
  2 42  1  0
  6 43  1  0
  6 44  1  0
  8 45  1  0
  8 46  1  0
  9 47  1  0
  9 48  1  0
  9 49  1  0
 13 50  1  0
 14 51  1  0
 17 52  1  0
 18 53  1  0
 18 54  1  0
 19 55  1  0
 19 56  1  0
 20 57  1  6
 21 58  1  1
 22 59  1  0
 22 60  1  0
 23 61  1  0
 23 62  1  0
 25 63  1  0
 25 64  1  0
 25 65  1  0
 26 66  1  1
 27 67  1  1
 28 68  1  0
 28 69  1  0
 28 70  1  0
 29 71  1  0
 29 72  1  0
 30 73  1  0
 30 74  1  0
 31 75  1  0
 31 76  1  0
 32 77  1  0
 33 78  1  0
 33 79  1  0
 33 80  1  0
 34 81  1  0
 34 82  1  0
 34 83  1  0
 35 84  1  0
 35 85  1  0
 36 86  1  0
 36 87  1  0
 37 88  1  6
M  CHG  1   3  -1
M  END
>  <UniqueID>  (21) 
21

>  <SMILES>  (21) 
CC[N-]C(=O)CN(CC)C(=O)c1ccc2c(c1)CC[C@@H]1C3CCC(C(C)CCCC(C)C)C3(C)CC[C@@H]21

>  <Energy>  (21) 
104.75232639035436

>  <Genealogy>  (21) 
CC[N-]C(=O)CN(CC)C(=O)c1ccc2c(c1)CCC1C2CCC2(C)C(C(C)CCCC(C)C)CCC12 (protonated)
CC[N-]C(=O)CN(CC)C(=O)c1ccc2c(c1)CC[C@@H]1C3CCC(C(C)CCCC(C)C)C3(C)CC[C@@H]21 (chirality)
CC[N-]C(=O)CN(CC)C(=O)c1ccc2c(c1)CC[C@@H]1C3CCC(C(C)CCCC(C)C)C3(C)CC[C@@H]21 (3D coordinates assigned)
CC[N-]C(=O)CN(CC)C(=O)c1ccc2c(c1)CC[C@@H]1C3CCC(C(C)CCCC(C)C)C3(C)CC[C@@H]21 (nonaromatic ring conformer: 104.75232639035436 kcal/mol)

>  <smiles>  (21) 
CCNC(=O)CN(CC)C(=O)c1ccc2c(c1)CCC1C2CCC2(C)C(C(C)CCCC(C)C)CCC12

>  <score_type>  (21) 
oracle

>  <origin>  (21) 
adg

>  <m_score__min__energy>  (21) 
-10.359999999999999

>  <m_primary>  (21) 
energy

$$$$
21:0
     RDKit          3D

 58 60  0  0  0  0  0  0  0  0999 V2000
   -2.7260   19.7720  -27.4560 C   0  0  0  0  0  0  0  0  0  0  0  0
   -2.8880   20.9040  -28.4610 C   0  0  0  0  0  0  0  0  0  0  0  0
   -2.2720   20.5260  -29.7390 N   0  0  0  0  0  0  0  0  0  0  0  0
   -1.0830   19.6710  -29.5710 C   0  0  0  0  0  0  0  0  0  0  0  0
   -0.4570   19.1790  -30.8940 C   0  0  0  0  0  0  0  0  0  0  0  0
    0.1260   20.3230  -31.7470 C   0  0  0  0  0  0  0  0  0  0  0  0
   -0.8840   21.3360  -32.0930 N   0  0  0  0  0  0  0  0  0  0  0  0
   -1.3960   21.1740  -33.4610 C   0  0  0  0  0  0  0  0  0  0  0  0
   -2.9240   21.1090  -33.4340 C   0  0  0  0  0  0  0  0  0  0  0  0
   -3.4850   20.9340  -32.0730 N   0  0  0  0  0  0  0  0  0  0  0  0
   -4.8910   21.3140  -31.9830 C   0  0  0  0  0  0  0  0  0  0  0  0
   -5.2260   22.5690  -31.3770 C   0  0  0  0  0  0  0  0  0  0  0  0
   -4.2390   23.4220  -30.8120 C   0  0  0  0  0  0  0  0  0  0  0  0
   -4.5730   24.6550  -30.2600 C   0  0  0  0  0  0  0  0  0  0  0  0
   -5.8950   25.0670  -30.2290 C   0  0  0  0  0  0  0  0  0  0  0  0
   -6.8920   24.2430  -30.7380 C   0  0  0  0  0  0  0  0  0  0  0  0
   -6.5830   22.9850  -31.3190 C   0  0  0  0  0  0  0  0  0  0  0  0
   -7.5770   22.1530  -31.7680 N   0  0  0  0  0  0  0  0  0  0  0  0
   -8.9510   22.6710  -31.9600 C   0  0  0  0  0  0  0  0  0  0  0  0
   -7.3000   20.8300  -32.0270 C   0  0  0  0  0  0  0  0  0  0  0  0
   -8.3390   19.8740  -31.9830 C   0  0  0  0  0  0  0  0  0  0  0  0
   -8.1040   18.5450  -32.2720 C   0  0  0  0  0  0  0  0  0  0  0  0
   -6.8550   18.1310  -32.7150 C   0  0  0  0  0  0  0  0  0  0  0  0
   -6.6980   16.6940  -33.1490 C   0  0  0  0  0  0  0  0  0  0  0  0
   -5.8050   19.0710  -32.8340 C   0  0  0  0  0  0  0  0  0  0  0  0
   -4.4630   18.5610  -33.8730 Cl  0  0  0  0  0  0  0  0  0  0  0  0
   -5.9650   20.4050  -32.3070 C   0  0  0  0  0  0  0  0  0  0  0  0
   -2.7840   20.1771  -26.4349 H   0  0  0  0  0  0  0  0  0  0  0  0
   -3.5276   19.0333  -27.6034 H   0  0  0  0  0  0  0  0  0  0  0  0
   -1.7494   19.2877  -27.6034 H   0  0  0  0  0  0  0  0  0  0  0  0
   -3.9584   21.1039  -28.6165 H   0  0  0  0  0  0  0  0  0  0  0  0
   -2.3948   21.8075  -28.0731 H   0  0  0  0  0  0  0  0  0  0  0  0
   -2.0240   21.3860  -30.2790 H   0  0  0  0  0  0  0  0  0  0  0  0
   -0.3214   20.2452  -29.0230 H   0  0  0  0  0  0  0  0  0  0  0  0
   -1.4166   18.7735  -29.0295 H   0  0  0  0  0  0  0  0  0  0  0  0
    0.3512   18.4713  -30.6574 H   0  0  0  0  0  0  0  0  0  0  0  0
   -1.2582   18.7064  -31.4811 H   0  0  0  0  0  0  0  0  0  0  0  0
    0.9343   20.8091  -31.1810 H   0  0  0  0  0  0  0  0  0  0  0  0
    0.4975   19.8857  -32.6855 H   0  0  0  0  0  0  0  0  0  0  0  0
   -0.4650   22.2910  -31.9940 H   0  0  0  0  0  0  0  0  0  0  0  0
   -1.0770   22.0293  -34.0747 H   0  0  0  0  0  0  0  0  0  0  0  0
   -0.9988   20.2428  -33.8913 H   0  0  0  0  0  0  0  0  0  0  0  0
   -3.3197   22.0446  -33.8559 H   0  0  0  0  0  0  0  0  0  0  0  0
   -3.2205   20.2277  -34.0217 H   0  0  0  0  0  0  0  0  0  0  0  0
   -3.2730   19.9920  -31.7020 H   0  0  0  0  0  0  0  0  0  0  0  0
   -2.9410   21.5280  -31.4080 H   0  0  0  0  0  0  0  0  0  0  0  0
   -3.1872   23.1000  -30.8111 H   0  0  0  0  0  0  0  0  0  0  0  0
   -3.7859   25.3034  -29.8477 H   0  0  0  0  0  0  0  0  0  0  0  0
   -6.1559   26.0464  -29.8015 H   0  0  0  0  0  0  0  0  0  0  0  0
   -7.9406   24.5719  -30.6897 H   0  0  0  0  0  0  0  0  0  0  0  0
   -9.4170   22.8467  -30.9792 H   0  0  0  0  0  0  0  0  0  0  0  0
   -8.9115   23.6159  -32.5217 H   0  0  0  0  0  0  0  0  0  0  0  0
   -9.5451   21.9351  -32.5217 H   0  0  0  0  0  0  0  0  0  0  0  0
   -9.3558   20.1952  -31.7130 H   0  0  0  0  0  0  0  0  0  0  0  0
   -8.9120   17.8086  -32.1505 H   0  0  0  0  0  0  0  0  0  0  0  0
   -6.6275   16.0484  -32.2611 H   0  0  0  0  0  0  0  0  0  0  0  0
   -7.5689   16.3956  -33.7511 H   0  0  0  0  0  0  0  0  0  0  0  0
   -5.7832   16.5907  -33.7511 H   0  0  0  0  0  0  0  0  0  0  0  0
  1  2  1  0
  2  3  1  0
  3  4  1  0
  4  5  1  0
  5  6  1  0
  6  7  1  0
  7  8  1  0
  8  9  1  0
  9 10  1  0
 10 11  1  0
 11 12  2  0
 12 13  1  0
 13 14  2  0
 14 15  1  0
 15 16  2  0
 16 17  1  0
 17 18  2  0
 18 19  1  0
 18 20  1  0
 20 21  2  0
 21 22  1  0
 22 23  2  0
 23 24  1  0
 23 25  1  0
 25 26  1  0
 25 27  2  0
 27 11  1  0
 17 12  1  0
 27 20  1  0
  1 28  1  0
  1 29  1  0
  1 30  1  0
  2 31  1  0
  2 32  1  0
  3 33  1  0
  4 34  1  0
  4 35  1  0
  5 36  1  0
  5 37  1  0
  6 38  1  0
  6 39  1  0
  7 40  1  0
  8 41  1  0
  8 42  1  0
  9 43  1  0
  9 44  1  0
 10 45  1  0
 10 46  1  0
 13 47  1  0
 14 48  1  0
 15 49  1  0
 16 50  1  0
 19 51  1  0
 19 52  1  0
 19 53  1  0
 21 54  1  0
 22 55  1  0
 24 56  1  0
 24 57  1  0
 24 58  1  0
M  CHG  2  10   1  18   1
M  END
>  <UniqueID>  (22) 
22

>  <SMILES>  (22) 
CCNCCCNCC[NH2+]c1c2ccccc2[n+](C)c2ccc(C)c(Cl)c12

>  <Energy>  (22) 
103.51379035220246

>  <Genealogy>  (22) 
CCNCCCNCC[NH2+]c1c2ccccc2[n+](C)c2ccc(C)c(Cl)c12 (protonated)
CCNCCCNCC[NH2+]c1c2ccccc2[n+](C)c2ccc(C)c(Cl)c12 (3D coordinates assigned)
CCNCCCNCC[NH2+]c1c2ccccc2[n+](C)c2ccc(C)c(Cl)c12 (optimized conformer: 103.51379035220246 kcal/mol)

>  <smiles>  (22) 
CCNCCCNCCNc1c2ccccc2[n+](C)c2ccc(C)c(Cl)c12

>  <score_type>  (22) 
oracle

>  <origin>  (22) 
adg

>  <m_score__min__energy>  (22) 
-8.2899999999999991

>  <m_primary>  (22) 
energy

$$$$
22:0
     RDKit          3D

 62 65  0  0  0  0  0  0  0  0999 V2000
   -7.2460   14.1040  -34.5890 C   0  0  0  0  0  0  0  0  0  0  0  0
   -6.3260   12.9400  -34.9340 C   0  0  0  0  0  0  0  0  0  0  0  0
   -5.1010   13.0350  -34.2070 O   0  0  0  0  0  0  0  0  0  0  0  0
   -3.8160   13.1720  -34.7680 C   0  0  0  0  0  0  0  0  0  0  0  0
   -3.0620   12.0560  -35.1900 C   0  0  0  0  0  0  0  0  0  0  0  0
   -1.7850   12.2280  -35.7350 C   0  0  0  0  0  0  0  0  0  0  0  0
   -1.2530   13.5090  -35.8850 C   0  0  0  0  0  0  0  0  0  0  0  0
   -1.9890   14.6230  -35.4810 C   0  0  0  0  0  0  0  0  0  0  0  0
   -3.2660   14.4660  -34.9100 C   0  0  0  0  0  0  0  0  0  0  0  0
   -4.0100   15.6640  -34.4560 C   0  0  0  0  0  0  0  0  0  0  0  0
   -4.2400   16.7320  -35.3370 C   0  0  0  0  0  0  0  0  0  0  0  0
   -4.9370   17.8640  -34.9080 C   0  0  0  0  0  0  0  0  0  0  0  0
   -5.4220   17.9440  -33.5930 C   0  0  0  0  0  0  0  0  0  0  0  0
   -6.1260   19.1610  -33.1370 C   0  0  0  0  0  0  0  0  0  0  0  0
   -7.4450   19.1610  -32.8510 N   0  0  0  0  0  0  0  0  0  0  0  0
   -7.7270   20.4290  -32.5150 C   0  0  0  0  0  0  0  0  0  0  0  0
   -6.5950   21.1970  -32.6050 C   0  0  0  0  0  0  0  0  0  0  0  0
   -5.5620   20.3900  -32.9750 N   0  0  0  0  0  0  0  0  0  0  0  0
   -4.1350   20.7130  -33.0890 C   0  0  0  0  0  0  0  0  0  0  0  0
   -6.6510   22.6950  -32.3420 C   0  0  2  0  0  0  0  0  0  0  0  0
   -5.3130   23.2730  -32.1090 N   0  0  0  0  0  0  0  0  0  0  0  0
   -4.7120   22.8470  -30.8330 C   0  0  0  0  0  0  0  0  0  0  0  0
   -4.2980   24.0530  -29.9800 C   0  0  0  0  0  0  0  0  0  0  0  0
   -4.2630   25.2330  -30.7630 O   0  0  0  0  0  0  0  0  0  0  0  0
   -5.4060   26.0240  -30.5110 C   0  0  0  0  0  0  0  0  0  0  0  0
   -7.6080   22.8880  -31.1350 C   0  0  0  0  0  0  0  0  0  0  0  0
   -9.0230   22.3030  -31.3840 C   0  0  0  0  0  0  0  0  0  0  0  0
   -9.0790   20.9490  -32.1490 C   0  0  0  0  0  0  0  0  0  0  0  0
   -5.1780   16.8860  -32.7050 C   0  0  0  0  0  0  0  0  0  0  0  0
   -4.4800   15.7540  -33.1340 C   0  0  0  0  0  0  0  0  0  0  0  0
   -7.3218   14.1999  -33.4958 H   0  0  0  0  0  0  0  0  0  0  0  0
   -6.8357   15.0333  -35.0110 H   0  0  0  0  0  0  0  0  0  0  0  0
   -8.2449   13.9194  -35.0110 H   0  0  0  0  0  0  0  0  0  0  0  0
   -6.8267   11.9950  -34.6767 H   0  0  0  0  0  0  0  0  0  0  0  0
   -6.1027   12.9716  -36.0106 H   0  0  0  0  0  0  0  0  0  0  0  0
   -3.4813   11.0440  -35.0897 H   0  0  0  0  0  0  0  0  0  0  0  0
   -1.1988   11.3508  -36.0461 H   0  0  0  0  0  0  0  0  0  0  0  0
   -0.2523   13.6407  -36.3222 H   0  0  0  0  0  0  0  0  0  0  0  0
   -1.5685   15.6313  -35.6095 H   0  0  0  0  0  0  0  0  0  0  0  0
   -3.8693   16.6774  -36.3712 H   0  0  0  0  0  0  0  0  0  0  0  0
   -5.1069   18.6979  -35.6049 H   0  0  0  0  0  0  0  0  0  0  0  0
   -8.1070   18.3540  -32.8910 H   0  0  0  0  0  0  0  0  0  0  0  0
   -3.6999   20.8115  -32.0835 H   0  0  0  0  0  0  0  0  0  0  0  0
   -3.6195   19.9088  -33.6345 H   0  0  0  0  0  0  0  0  0  0  0  0
   -4.0160   21.6608  -33.6345 H   0  0  0  0  0  0  0  0  0  0  0  0
   -7.0284   23.2358  -33.2224 H   0  0  0  0  0  0  0  0  0  0  0  0
   -5.4570   24.3060  -32.0270 H   0  0  0  0  0  0  0  0  0  0  0  0
   -5.4459   22.2480  -30.2739 H   0  0  0  0  0  0  0  0  0  0  0  0
   -3.8124   22.2540  -31.0545 H   0  0  0  0  0  0  0  0  0  0  0  0
   -5.0231   24.1833  -29.1632 H   0  0  0  0  0  0  0  0  0  0  0  0
   -3.2927   23.8693  -29.5729 H   0  0  0  0  0  0  0  0  0  0  0  0
   -5.5505   26.1240  -29.4251 H   0  0  0  0  0  0  0  0  0  0  0  0
   -5.2676   27.0205  -30.9558 H   0  0  0  0  0  0  0  0  0  0  0  0
   -6.2898   25.5434  -30.9558 H   0  0  0  0  0  0  0  0  0  0  0  0
   -7.1713   22.3880  -30.2579 H   0  0  0  0  0  0  0  0  0  0  0  0
   -7.7227   23.9703  -30.9757 H   0  0  0  0  0  0  0  0  0  0  0  0
   -9.5030   22.1561  -30.4052 H   0  0  0  0  0  0  0  0  0  0  0  0
   -9.5335   23.0302  -32.0325 H   0  0  0  0  0  0  0  0  0  0  0  0
   -9.5793   20.2060  -31.5105 H   0  0  0  0  0  0  0  0  0  0  0  0
   -9.6294   21.1227  -33.0855 H   0  0  0  0  0  0  0  0  0  0  0  0
   -5.5374   16.9476  -31.6672 H   0  0  0  0  0  0  0  0  0  0  0  0
   -4.2969   14.9271  -32.4321 H   0  0  0  0  0  0  0  0  0  0  0  0
  1  2  1  0
  2  3  1  0
  3  4  1  0
  4  5  2  0
  5  6  1  0
  6  7  2  0
  7  8  1  0
  8  9  2  0
  9 10  1  0
 10 11  2  0
 11 12  1  0
 12 13  2  0
 13 14  1  0
 14 15  2  0
 15 16  1  0
 16 17  2  0
 17 18  1  0
 18 19  1  0
 17 20  1  0
 20 21  1  0
 21 22  1  0
 22 23  1  0
 23 24  1  0
 24 25  1  0
 20 26  1  0
 26 27  1  0
 27 28  1  0
 13 29  1  0
 29 30  2  0
  9  4  1  0
 30 10  1  0
 18 14  1  0
 28 16  1  0
  1 31  1  0
  1 32  1  0
  1 33  1  0
  2 34  1  0
  2 35  1  0
  5 36  1  0
  6 37  1  0
  7 38  1  0
  8 39  1  0
 11 40  1  0
 12 41  1  0
 15 42  1  0
 19 43  1  0
 19 44  1  0
 19 45  1  0
 20 46  1  6
 21 47  1  0
 22 48  1  0
 22 49  1  0
 23 50  1  0
 23 51  1  0
 25 52  1  0
 25 53  1  0
 25 54  1  0
 26 55  1  0
 26 56  1  0
 27 57  1  0
 27 58  1  0
 28 59  1  0
 28 60  1  0
 29 61  1  0
 30 62  1  0
M  CHG  1  15   1
M  END
>  <UniqueID>  (23) 
23

>  <SMILES>  (23) 
CCOc1ccccc1-c1ccc(-c2[nH+]c3c(n2C)[C@H](NCCOC)CCC3)cc1

>  <Energy>  (23) 
119.50540684595937

>  <Genealogy>  (23) 
CCOc1ccccc1-c1ccc(-c2[nH+]c3c(n2C)C(NCCOC)CCC3)cc1 (protonated)
CCOc1ccccc1-c1ccc(-c2[nH+]c3c(n2C)[C@H](NCCOC)CCC3)cc1 (chirality)
CCOc1ccccc1-c1ccc(-c2[nH+]c3c(n2C)[C@H](NCCOC)CCC3)cc1 (3D coordinates assigned)
CCOc1ccccc1-c1ccc(-c2[nH+]c3c(n2C)[C@H](NCCOC)CCC3)cc1 (nonaromatic ring conformer: 119.50540684595937 kcal/mol)

>  <smiles>  (23) 
CCOc1ccccc1-c1ccc(-c2nc3c(n2C)C(NCCOC)CCC3)cc1

>  <score_type>  (23) 
oracle

>  <origin>  (23) 
adg

>  <m_score__min__energy>  (23) 
-8.2400000000000002

>  <m_primary>  (23) 
energy

$$$$
23:0
     RDKit          3D

 42 43  0  0  0  0  0  0  0  0999 V2000
   -1.8180   24.0280  -29.0660 C   0  0  0  0  0  0  0  0  0  0  0  0
   -3.2520   24.5310  -29.1170 C   0  0  0  0  0  0  0  0  0  0  0  0
   -3.6440   24.7600  -30.5000 N   0  0  0  0  0  0  0  0  0  0  0  0
   -4.6430   23.9770  -31.1600 C   0  0  0  0  0  0  0  0  0  0  0  0
   -5.7010   24.5260  -31.5730 O   0  0  0  0  0  0  0  0  0  0  0  0
   -4.3510   22.5350  -31.4800 C   0  0  2  0  0  0  0  0  0  0  0  0
   -3.4720   22.2970  -32.7160 C   0  0  0  0  0  0  0  0  0  0  0  0
   -3.3630   20.7980  -33.0670 C   0  0  0  0  0  0  0  0  0  0  0  0
   -3.7400   19.8680  -31.8980 C   0  0  0  0  0  0  0  0  0  0  0  0
   -5.1010   20.2120  -31.2350 C   0  0  0  0  0  0  0  0  0  0  0  0
   -5.5250   21.6210  -31.4430 N   0  0  0  0  0  0  0  0  0  0  0  0
   -6.7790   21.7720  -32.2590 C   0  0  0  0  0  0  0  0  0  0  0  0
   -7.2320   20.5340  -33.0740 C   0  0  0  0  0  0  0  0  0  0  0  0
   -8.2900   19.6770  -32.3680 C   0  0  0  0  0  0  0  0  0  0  0  0
   -9.4930   20.5220  -31.9640 C   0  0  0  0  0  0  0  0  0  0  0  0
   -9.0630   21.6110  -30.9850 C   0  0  0  0  0  0  0  0  0  0  0  0
   -7.9770   22.5160  -31.5840 C   0  0  0  0  0  0  0  0  0  0  0  0
   -1.5050   23.9182  -28.0172 H   0  0  0  0  0  0  0  0  0  0  0  0
   -1.7531   23.0534  -29.5720 H   0  0  0  0  0  0  0  0  0  0  0  0
   -1.1585   24.7485  -29.5720 H   0  0  0  0  0  0  0  0  0  0  0  0
   -3.9188   23.7803  -28.6677 H   0  0  0  0  0  0  0  0  0  0  0  0
   -3.3266   25.4747  -28.5568 H   0  0  0  0  0  0  0  0  0  0  0  0
   -3.7289   22.2490  -30.6191 H   0  0  0  0  0  0  0  0  0  0  0  0
   -3.9102   22.8313  -33.5718 H   0  0  0  0  0  0  0  0  0  0  0  0
   -2.4612   22.6680  -32.4910 H   0  0  0  0  0  0  0  0  0  0  0  0
   -4.0360   20.5875  -33.9113 H   0  0  0  0  0  0  0  0  0  0  0  0
   -2.3102   20.5979  -33.3153 H   0  0  0  0  0  0  0  0  0  0  0  0
   -3.7905   18.8369  -32.2779 H   0  0  0  0  0  0  0  0  0  0  0  0
   -2.9670   19.9958  -31.1259 H   0  0  0  0  0  0  0  0  0  0  0  0
   -5.8712   19.5509  -31.6589 H   0  0  0  0  0  0  0  0  0  0  0  0
   -4.9771   20.0691  -30.1514 H   0  0  0  0  0  0  0  0  0  0  0  0
   -6.4026   22.4814  -33.0107 H   0  0  0  0  0  0  0  0  0  0  0  0
   -7.6505   20.8829  -34.0296 H   0  0  0  0  0  0  0  0  0  0  0  0
   -6.3443   19.8983  -33.2080 H   0  0  0  0  0  0  0  0  0  0  0  0
   -8.6221   18.8804  -33.0501 H   0  0  0  0  0  0  0  0  0  0  0  0
   -7.8436   19.2442  -31.4606 H   0  0  0  0  0  0  0  0  0  0  0  0
   -9.9272   20.9891  -32.8603 H   0  0  0  0  0  0  0  0  0  0  0  0
  -10.2404   19.8765  -31.4795 H   0  0  0  0  0  0  0  0  0  0  0  0
   -9.9383   22.2260  -30.7288 H   0  0  0  0  0  0  0  0  0  0  0  0
   -8.6484   21.1237  -30.0902 H   0  0  0  0  0  0  0  0  0  0  0  0
   -8.4499   23.1560  -32.3434 H   0  0  0  0  0  0  0  0  0  0  0  0
   -7.5485   23.0744  -30.7386 H   0  0  0  0  0  0  0  0  0  0  0  0
  1  2  1  0
  2  3  1  0
  3  4  1  0
  4  5  2  0
  4  6  1  0
  6  7  1  0
  7  8  1  0
  8  9  1  0
  9 10  1  0
 10 11  1  0
 11 12  1  0
 12 13  1  0
 13 14  1  0
 14 15  1  0
 15 16  1  0
 16 17  1  0
 11  6  1  0
 17 12  1  0
  1 18  1  0
  1 19  1  0
  1 20  1  0
  2 21  1  0
  2 22  1  0
  6 23  1  1
  7 24  1  0
  7 25  1  0
  8 26  1  0
  8 27  1  0
  9 28  1  0
  9 29  1  0
 10 30  1  0
 10 31  1  0
 12 32  1  0
 13 33  1  0
 13 34  1  0
 14 35  1  0
 14 36  1  0
 15 37  1  0
 15 38  1  0
 16 39  1  0
 16 40  1  0
 17 41  1  0
 17 42  1  0
M  CHG  1   3  -1
M  END
>  <UniqueID>  (24) 
24

>  <SMILES>  (24) 
CC[N-]C(=O)[C@@H]1CCCCN1C1CCCCC1

>  <Energy>  (24) 
66.8451949053862

>  <Genealogy>  (24) 
CC[N-]C(=O)C1CCCCN1C1CCCCC1 (protonated)
CC[N-]C(=O)[C@@H]1CCCCN1C1CCCCC1 (chirality)
CC[N-]C(=O)[C@@H]1CCCCN1C1CCCCC1 (3D coordinates assigned)
CC[N-]C(=O)[C@@H]1CCCCN1C1CCCCC1 (nonaromatic ring conformer: 66.8451949053862 kcal/mol)

>  <smiles>  (24) 
CCNC(=O)C1CCCCN1C1CCCCC1

>  <score_type>  (24) 
oracle

>  <origin>  (24) 
adg

>  <m_score__min__energy>  (24) 
-8.1500000000000004

>  <m_primary>  (24) 
energy

$$$$
24:0
     RDKit          3D

 47 48  0  0  0  0  0  0  0  0999 V2000
   -9.4960   21.5830  -31.5910 C   0  0  0  0  0  0  0  0  0  0  0  0
   -8.2310   20.8360  -31.9120 C   0  0  0  0  0  0  0  0  0  0  0  0
   -7.0120   21.3890  -32.3070 C   0  0  0  0  0  0  0  0  0  0  0  0
   -6.6380   22.7390  -32.3820 O   0  0  0  0  0  0  0  0  0  0  0  0
   -7.2840   23.7980  -31.6850 C   0  0  0  0  0  0  0  0  0  0  0  0
   -6.4730   24.1400  -30.4320 C   0  0  0  0  0  0  0  0  0  0  0  0
   -5.3340   25.1240  -30.7610 C   0  0  0  0  0  0  0  0  0  0  0  0
   -4.0020   24.5030  -30.5670 N   0  0  0  0  0  0  0  0  0  0  0  0
   -3.9180   23.1630  -31.2100 C   0  0  0  0  0  0  0  0  0  0  0  0
   -2.8420   22.2810  -30.5720 C   0  0  0  0  0  0  0  0  0  0  0  0
   -3.1540   22.0130  -29.0930 C   0  0  0  0  0  0  0  0  0  0  0  0
   -3.9220   23.1740  -28.4350 C   0  0  0  0  0  0  0  0  0  0  0  0
   -3.6140   24.5050  -29.1310 C   0  0  0  0  0  0  0  0  0  0  0  0
   -6.1710   20.3410  -32.6270 C   0  0  0  0  0  0  0  0  0  0  0  0
   -4.7490   20.4820  -33.0870 C   0  0  0  0  0  0  0  0  0  0  0  0
   -6.7930   19.1640  -32.3900 N   0  0  0  0  0  0  0  0  0  0  0  0
   -6.2240   17.8410  -32.6650 C   0  0  0  0  0  0  0  0  0  0  0  0
   -8.0520   19.4520  -31.9590 C   0  0  0  0  0  0  0  0  0  0  0  0
   -9.1000   18.4100  -31.6720 C   0  0  0  0  0  0  0  0  0  0  0  0
   -9.6138   21.6526  -30.4995 H   0  0  0  0  0  0  0  0  0  0  0  0
   -9.4431   22.5948  -32.0193 H   0  0  0  0  0  0  0  0  0  0  0  0
  -10.3565   21.0481  -32.0193 H   0  0  0  0  0  0  0  0  0  0  0  0
   -7.3475   24.6826  -32.3357 H   0  0  0  0  0  0  0  0  0  0  0  0
   -8.2991   23.4874  -31.3966 H   0  0  0  0  0  0  0  0  0  0  0  0
   -7.1395   24.5981  -29.6864 H   0  0  0  0  0  0  0  0  0  0  0  0
   -6.0313   23.2130  -30.0375 H   0  0  0  0  0  0  0  0  0  0  0  0
   -5.4297   25.4429  -31.8094 H   0  0  0  0  0  0  0  0  0  0  0  0
   -5.4149   25.9836  -30.0794 H   0  0  0  0  0  0  0  0  0  0  0  0
   -4.8918   22.6611  -31.1110 H   0  0  0  0  0  0  0  0  0  0  0  0
   -3.6494   23.3120  -32.2663 H   0  0  0  0  0  0  0  0  0  0  0  0
   -2.7978   21.3223  -31.1095 H   0  0  0  0  0  0  0  0  0  0  0  0
   -1.8768   22.8047  -30.6366 H   0  0  0  0  0  0  0  0  0  0  0  0
   -3.7636   21.1002  -29.0204 H   0  0  0  0  0  0  0  0  0  0  0  0
   -2.1964   21.9016  -28.5632 H   0  0  0  0  0  0  0  0  0  0  0  0
   -5.0016   22.9746  -28.5029 H   0  0  0  0  0  0  0  0  0  0  0  0
   -3.6078   23.2489  -27.3835 H   0  0  0  0  0  0  0  0  0  0  0  0
   -4.1657   25.3066  -28.6182 H   0  0  0  0  0  0  0  0  0  0  0  0
   -2.5267   24.6638  -29.0800 H   0  0  0  0  0  0  0  0  0  0  0  0
   -4.0854   20.5478  -32.2122 H   0  0  0  0  0  0  0  0  0  0  0  0
   -4.4712   19.6070  -33.6930 H   0  0  0  0  0  0  0  0  0  0  0  0
   -4.6484   21.3945  -33.6930 H   0  0  0  0  0  0  0  0  0  0  0  0
   -6.0049   17.3315  -31.7151 H   0  0  0  0  0  0  0  0  0  0  0  0
   -6.9452   17.2446  -33.2431 H   0  0  0  0  0  0  0  0  0  0  0  0
   -5.2951   17.9543  -33.2431 H   0  0  0  0  0  0  0  0  0  0  0  0
   -9.2150   18.2956  -30.5840 H   0  0  0  0  0  0  0  0  0  0  0  0
  -10.0586   18.7234  -32.1111 H   0  0  0  0  0  0  0  0  0  0  0  0
   -8.7921   17.4496  -32.1111 H   0  0  0  0  0  0  0  0  0  0  0  0
  1  2  1  0
  2  3  1  0
  3  4  1  0
  4  5  1  0
  5  6  1  0
  6  7  1  0
  7  8  1  0
  8  9  1  0
  9 10  1  0
 10 11  1  0
 11 12  1  0
 12 13  1  0
  3 14  2  0
 14 15  1  0
 14 16  1  0
 16 17  1  0
 16 18  1  0
 18 19  1  0
 18  2  2  0
 13  8  1  0
  1 20  1  0
  1 21  1  0
  1 22  1  0
  5 23  1  0
  5 24  1  0
  6 25  1  0
  6 26  1  0
  7 27  1  0
  7 28  1  0
  9 29  1  0
  9 30  1  0
 10 31  1  0
 10 32  1  0
 11 33  1  0
 11 34  1  0
 12 35  1  0
 12 36  1  0
 13 37  1  0
 13 38  1  0
 15 39  1  0
 15 40  1  0
 15 41  1  0
 17 42  1  0
 17 43  1  0
 17 44  1  0
 19 45  1  0
 19 46  1  0
 19 47  1  0
M  END
>  <UniqueID>  (25) 
25

>  <SMILES>  (25) 
Cc1c(OCCCN2CCCCC2)c(C)n(C)c1C

>  <Energy>  (25) 
77.88854997336215

>  <Genealogy>  (25) 
Cc1c(OCCCN2CCCCC2)c(C)n(C)c1C (3D coordinates assigned)
Cc1c(OCCCN2CCCCC2)c(C)n(C)c1C (nonaromatic ring conformer: 77.88854997336215 kcal/mol)

>  <smiles>  (25) 
Cc1c(OCCCN2CCCCC2)c(C)n(C)c1C

>  <score_type>  (25) 
oracle

>  <origin>  (25) 
adg

>  <m_score__min__energy>  (25) 
-7.3700000000000001

>  <m_primary>  (25) 
energy

$$$$
25:0
     RDKit          3D

 43 44  0  0  0  0  0  0  0  0999 V2000
   -2.3300   25.6700  -25.8470 C   0  0  0  0  0  0  0  0  0  0  0  0
   -2.7190   24.8840  -27.0980 C   0  0  0  0  0  0  0  0  0  0  0  0
   -1.9470   25.3550  -28.2670 N   0  0  0  0  0  0  0  0  0  0  0  0
   -0.7860   26.1470  -27.8250 C   0  0  0  0  0  0  0  0  0  0  0  0
   -1.5200   24.2380  -29.1460 C   0  0  0  0  0  0  0  0  0  0  0  0
   -2.7290   23.6580  -29.8730 C   0  0  0  0  0  0  0  0  0  0  0  0
   -3.4930   24.7060  -30.4340 O   0  0  0  0  0  0  0  0  0  0  0  0
   -4.7860   24.7450  -29.8590 C   0  0  0  0  0  0  0  0  0  0  0  0
   -5.8010   25.2680  -30.8730 C   0  0  0  0  0  0  0  0  0  0  0  0
   -5.9050   24.3500  -31.9590 O   0  0  0  0  0  0  0  0  0  0  0  0
   -6.7230   23.2080  -31.9670 C   0  0  0  0  0  0  0  0  0  0  0  0
   -8.0950   23.2790  -31.6680 C   0  0  0  0  0  0  0  0  0  0  0  0
   -8.8840   22.1300  -31.6860 C   0  0  0  0  0  0  0  0  0  0  0  0
   -8.3190   20.8880  -32.0000 C   0  0  0  0  0  0  0  0  0  0  0  0
   -9.1190   19.7340  -32.0150 C   0  0  0  0  0  0  0  0  0  0  0  0
   -8.5590   18.4950  -32.3270 C   0  0  0  0  0  0  0  0  0  0  0  0
   -7.2010   18.3960  -32.6270 C   0  0  0  0  0  0  0  0  0  0  0  0
   -6.3910   19.5350  -32.6160 C   0  0  0  0  0  0  0  0  0  0  0  0
   -6.9360   20.7970  -32.3040 C   0  0  0  0  0  0  0  0  0  0  0  0
   -6.1420   21.9680  -32.2850 C   0  0  0  0  0  0  0  0  0  0  0  0
   -4.2560   21.9260  -32.6760 Br  0  0  0  0  0  0  0  0  0  0  0  0
   -2.6133   25.0975  -24.9514 H   0  0  0  0  0  0  0  0  0  0  0  0
   -1.2433   25.8408  -25.8444 H   0  0  0  0  0  0  0  0  0  0  0  0
   -2.8533   26.6376  -25.8444 H   0  0  0  0  0  0  0  0  0  0  0  0
   -2.5115   23.8163  -26.9336 H   0  0  0  0  0  0  0  0  0  0  0  0
   -3.7905   25.0365  -27.2947 H   0  0  0  0  0  0  0  0  0  0  0  0
   -0.7541   26.1688  -26.7257 H   0  0  0  0  0  0  0  0  0  0  0  0
    0.1376   25.6898  -28.2097 H   0  0  0  0  0  0  0  0  0  0  0  0
   -0.8747   27.1737  -28.2097 H   0  0  0  0  0  0  0  0  0  0  0  0
   -0.7951   24.6115  -29.8843 H   0  0  0  0  0  0  0  0  0  0  0  0
   -1.0549   23.4521  -28.5328 H   0  0  0  0  0  0  0  0  0  0  0  0
   -2.3868   22.9855  -30.6734 H   0  0  0  0  0  0  0  0  0  0  0  0
   -3.3491   23.0957  -29.1593 H   0  0  0  0  0  0  0  0  0  0  0  0
   -5.0749   23.7307  -29.5464 H   0  0  0  0  0  0  0  0  0  0  0  0
   -4.7706   25.4174  -28.9886 H   0  0  0  0  0  0  0  0  0  0  0  0
   -6.7824   25.3744  -30.3877 H   0  0  0  0  0  0  0  0  0  0  0  0
   -5.4704   26.2467  -31.2509 H   0  0  0  0  0  0  0  0  0  0  0  0
   -8.5494   24.2490  -31.4179 H   0  0  0  0  0  0  0  0  0  0  0  0
   -9.9566   22.1994  -31.4522 H   0  0  0  0  0  0  0  0  0  0  0  0
  -10.1911   19.8073  -31.7799 H   0  0  0  0  0  0  0  0  0  0  0  0
   -9.1902   17.5942  -32.3364 H   0  0  0  0  0  0  0  0  0  0  0  0
   -6.7649   17.4167  -32.8735 H   0  0  0  0  0  0  0  0  0  0  0  0
   -5.3204   19.4459  -32.8525 H   0  0  0  0  0  0  0  0  0  0  0  0
  1  2  1  0
  2  3  1  0
  3  4  1  0
  3  5  1  0
  5  6  1  0
  6  7  1  0
  7  8  1  0
  8  9  1  0
  9 10  1  0
 10 11  1  0
 11 12  2  0
 12 13  1  0
 13 14  2  0
 14 15  1  0
 15 16  2  0
 16 17  1  0
 17 18  2  0
 18 19  1  0
 19 20  2  0
 20 21  1  0
 20 11  1  0
 19 14  1  0
  1 22  1  0
  1 23  1  0
  1 24  1  0
  2 25  1  0
  2 26  1  0
  4 27  1  0
  4 28  1  0
  4 29  1  0
  5 30  1  0
  5 31  1  0
  6 32  1  0
  6 33  1  0
  8 34  1  0
  8 35  1  0
  9 36  1  0
  9 37  1  0
 12 38  1  0
 13 39  1  0
 15 40  1  0
 16 41  1  0
 17 42  1  0
 18 43  1  0
M  END
>  <UniqueID>  (26) 
26

>  <SMILES>  (26) 
CCN(C)CCOCCOc1ccc2ccccc2c1Br

>  <Energy>  (26) 
46.25360329190777

>  <Genealogy>  (26) 
CCN(C)CCOCCOc1ccc2ccccc2c1Br (3D coordinates assigned)
CCN(C)CCOCCOc1ccc2ccccc2c1Br (optimized conformer: 46.25360329190777 kcal/mol)

>  <smiles>  (26) 
CCN(C)CCOCCOc1ccc2ccccc2c1Br

>  <score_type>  (26) 
oracle

>  <origin>  (26) 
adg

>  <m_score__min__energy>  (26) 
-8.4800000000000004

>  <m_primary>  (26) 
energy

$$$$
