0:0
     RDKit          3D

 63 67  0  0  0  0  0  0  0  0999 V2000
   -9.3770   20.6100  -32.3270 C   0  0  0  0  0  0  0  0  0  0  0  0
   -9.0440   19.2420  -31.7220 C   0  0  0  0  0  0  0  0  0  0  0  0
   -8.3350   18.3590  -32.6630 N   0  0  0  0  0  0  0  0  0  0  0  0
   -7.0540   17.8890  -32.1220 C   0  0  0  0  0  0  0  0  0  0  0  0
   -6.1850   17.3270  -33.2500 C   0  0  0  0  0  0  0  0  0  0  0  0
   -6.1190   18.2480  -34.4780 C   0  0  0  0  0  0  0  0  0  0  0  0
   -6.3840   19.6110  -34.1330 O   0  0  0  0  0  0  0  0  0  0  0  0
   -5.5510   20.4500  -33.3740 C   0  0  0  0  0  0  0  0  0  0  0  0
   -4.1670   20.2540  -33.2660 C   0  0  0  0  0  0  0  0  0  0  0  0
   -3.4090   21.0490  -32.4080 C   0  0  0  0  0  0  0  0  0  0  0  0
   -4.0030   22.0400  -31.6060 C   0  0  0  0  0  0  0  0  0  0  0  0
   -5.3590   22.3640  -31.8810 C   0  0  0  0  0  0  0  0  0  0  0  0
   -5.9180   23.5310  -31.3610 C   0  0  0  0  0  0  0  0  0  0  0  0
   -5.1370   24.4020  -30.6120 C   0  0  0  0  0  0  0  0  0  0  0  0
   -3.8370   24.0510  -30.2440 C   0  0  0  0  0  0  0  0  0  0  0  0
   -3.1380   24.9160  -29.4770 N   0  0  0  0  0  0  0  0  0  0  0  0
   -1.9250   24.6190  -28.9640 C   0  0  0  0  0  0  0  0  0  0  0  0
   -1.2680   25.5790  -28.1860 C   0  0  0  0  0  0  0  0  0  0  0  0
   -0.0690   25.2680  -27.5490 C   0  0  0  0  0  0  0  0  0  0  0  0
    0.4660   23.9880  -27.6670 C   0  0  0  0  0  0  0  0  0  0  0  0
   -0.1800   23.0220  -28.4420 C   0  0  0  0  0  0  0  0  0  0  0  0
   -1.3750   23.3260  -29.1400 C   0  0  0  0  0  0  0  0  0  0  0  0
   -2.0660   22.3820  -29.9650 C   0  0  0  0  0  0  0  0  0  0  0  0
   -1.6510   20.9070  -29.9110 C   0  0  0  0  0  0  0  0  0  0  0  0
   -0.3150   20.6570  -30.5040 N   0  0  0  0  0  0  0  0  0  0  0  0
   -0.4240   20.2750  -31.8950 C   0  0  0  0  0  0  0  0  0  0  0  0
   -0.8320   18.9740  -32.2450 C   0  0  0  0  0  0  0  0  0  0  0  0
   -0.9500   18.6060  -33.5900 C   0  0  0  0  0  0  0  0  0  0  0  0
   -0.6580   19.5280  -34.5960 C   0  0  0  0  0  0  0  0  0  0  0  0
   -0.2350   20.8160  -34.2620 C   0  0  0  0  0  0  0  0  0  0  0  0
   -0.1080   21.1870  -32.9190 C   0  0  0  0  0  0  0  0  0  0  0  0
   -3.2750   22.8040  -30.6320 C   0  0  0  0  0  0  0  0  0  0  0  0
   -6.1290   21.5410  -32.7200 C   0  0  0  0  0  0  0  0  0  0  0  0
   -9.5535   21.3351  -31.5189 H   0  0  0  0  0  0  0  0  0  0  0  0
   -8.5356   20.9508  -32.9482 H   0  0  0  0  0  0  0  0  0  0  0  0
  -10.2809   20.5260  -32.9482 H   0  0  0  0  0  0  0  0  0  0  0  0
   -8.4091   19.3944  -30.8368 H   0  0  0  0  0  0  0  0  0  0  0  0
   -9.9953   18.7542  -31.4629 H   0  0  0  0  0  0  0  0  0  0  0  0
   -8.1570   18.8790  -33.5540 H   0  0  0  0  0  0  0  0  0  0  0  0
   -6.5305   18.7294  -31.6428 H   0  0  0  0  0  0  0  0  0  0  0  0
   -7.2428   17.0971  -31.3823 H   0  0  0  0  0  0  0  0  0  0  0  0
   -5.1644   17.1820  -32.8662 H   0  0  0  0  0  0  0  0  0  0  0  0
   -6.6420   16.3806  -33.5748 H   0  0  0  0  0  0  0  0  0  0  0  0
   -5.1139   18.1812  -34.9199 H   0  0  0  0  0  0  0  0  0  0  0  0
   -6.8873   17.9202  -35.1937 H   0  0  0  0  0  0  0  0  0  0  0  0
   -3.6771   19.4692  -33.8611 H   0  0  0  0  0  0  0  0  0  0  0  0
   -2.3206   20.8978  -32.3569 H   0  0  0  0  0  0  0  0  0  0  0  0
   -6.9778   23.7619  -31.5440 H   0  0  0  0  0  0  0  0  0  0  0  0
   -5.5463   25.3762  -30.3064 H   0  0  0  0  0  0  0  0  0  0  0  0
   -1.7007   26.5844  -28.0770 H   0  0  0  0  0  0  0  0  0  0  0  0
    0.4538   26.0316  -26.9543 H   0  0  0  0  0  0  0  0  0  0  0  0
    1.4022   23.7362  -27.1473 H   0  0  0  0  0  0  0  0  0  0  0  0
    0.2454   22.0100  -28.5115 H   0  0  0  0  0  0  0  0  0  0  0  0
   -1.6326   20.5867  -28.8588 H   0  0  0  0  0  0  0  0  0  0  0  0
   -2.3840   20.3380  -30.5017 H   0  0  0  0  0  0  0  0  0  0  0  0
    0.3040   21.4930  -30.3950 H   0  0  0  0  0  0  0  0  0  0  0  0
    0.1650   19.8750  -30.0100 H   0  0  0  0  0  0  0  0  0  0  0  0
   -1.0595   18.2419  -31.4562 H   0  0  0  0  0  0  0  0  0  0  0  0
   -1.2734   17.5885  -33.8546 H   0  0  0  0  0  0  0  0  0  0  0  0
   -0.7611   19.2399  -35.6526 H   0  0  0  0  0  0  0  0  0  0  0  0
   -0.0012   21.5403  -35.0562 H   0  0  0  0  0  0  0  0  0  0  0  0
    0.2411   22.1980  -32.6619 H   0  0  0  0  0  0  0  0  0  0  0  0
   -7.1978   21.7579  -32.8634 H   0  0  0  0  0  0  0  0  0  0  0  0
  1  2  1  0
  2  3  1  0
  3  4  1  0
  4  5  1  0
  5  6  1  0
  6  7  1  0
  7  8  1  0
  8  9  2  0
  9 10  1  0
 10 11  2  0
 11 12  1  0
 12 13  1  0
 13 14  2  0
 14 15  1  0
 15 16  2  0
 16 17  1  0
 17 18  2  0
 18 19  1  0
 19 20  2  0
 20 21  1  0
 21 22  2  0
 22 23  1  0
 23 24  1  0
 24 25  1  0
 25 26  1  0
 26 27  2  0
 27 28  1  0
 28 29  2  0
 29 30  1  0
 30 31  2  0
 23 32  2  0
 12 33  2  0
 33  8  1  0
 32 11  1  0
 32 15  1  0
 22 17  1  0
 31 26  1  0
  1 34  1  0
  1 35  1  0
  1 36  1  0
  2 37  1  0
  2 38  1  0
  3 39  1  0
  4 40  1  0
  4 41  1  0
  5 42  1  0
  5 43  1  0
  6 44  1  0
  6 45  1  0
  9 46  1  0
 10 47  1  0
 13 48  1  0
 14 49  1  0
 18 50  1  0
 19 51  1  0
 20 52  1  0
 21 53  1  0
 24 54  1  0
 24 55  1  0
 25 56  1  0
 25 57  1  0
 27 58  1  0
 28 59  1  0
 29 60  1  0
 30 61  1  0
 31 62  1  0
 33 63  1  0
M  CHG  1  25   1
M  END
>  <UniqueID>  (1) 
1

>  <SMILES>  (1) 
CCNCCCOc1ccc2c(ccc3nc4ccccc4c(C[NH2+]c4ccccc4)c32)c1

>  <Energy>  (1) 
96.84701706151472

>  <Genealogy>  (1) 
CCNCCCOc1ccc2c(ccc3nc4ccccc4c(C[NH2+]c4ccccc4)c32)c1 (protonated)
CCNCCCOc1ccc2c(ccc3nc4ccccc4c(C[NH2+]c4ccccc4)c32)c1 (3D coordinates assigned)
CCNCCCOc1ccc2c(ccc3nc4ccccc4c(C[NH2+]c4ccccc4)c32)c1 (optimized conformer: 96.84701706151472 kcal/mol)

>  <smiles>  (1) 
CCNCCCOc1ccc2c(ccc3nc4ccccc4c(CNc4ccccc4)c32)c1

>  <score_type>  (1) 
oracle

>  <origin>  (1) 
adg

>  <m_score__min__energy>  (1) 
-9.5800000000000001

>  <m_primary>  (1) 
energy

$$$$
1:0
     RDKit          3D

 73 75  0  0  0  0  0  0  0  0999 V2000
   -9.6500   21.9450  -31.5220 C   0  0  0  0  0  0  0  0  0  0  0  0
   -8.6720   23.0460  -31.9670 C   0  0  0  0  0  0  0  0  0  0  0  0
   -7.3310   22.9710  -31.3400 N   0  0  0  0  0  0  0  0  0  0  0  0
   -7.2970   22.4680  -29.9570 C   0  0  0  0  0  0  0  0  0  0  0  0
   -6.4440   24.1280  -31.5880 C   0  0  0  0  0  0  0  0  0  0  0  0
   -5.0040   23.9330  -31.0700 C   0  0  0  0  0  0  0  0  0  0  0  0
   -4.3380   22.6640  -31.6350 C   0  0  0  0  0  0  0  0  0  0  0  0
   -4.9620   22.1590  -32.8810 N   0  0  0  0  0  0  0  0  0  0  0  0
   -4.7180   20.7360  -33.0930 C   0  0  0  0  0  0  0  0  0  0  0  0
   -5.7480   19.7700  -32.9030 C   0  0  0  0  0  0  0  0  0  0  0  0
   -7.0420   20.1220  -32.4390 C   0  0  0  0  0  0  0  0  0  0  0  0
   -8.0050   19.1510  -32.1750 C   0  0  0  0  0  0  0  0  0  0  0  0
   -7.7090   17.8100  -32.3610 C   0  0  0  0  0  0  0  0  0  0  0  0
   -6.4650   17.4340  -32.8530 C   0  0  0  0  0  0  0  0  0  0  0  0
   -5.4790   18.4000  -33.1820 C   0  0  0  0  0  0  0  0  0  0  0  0
   -4.2820   18.0280  -33.7580 N   0  0  0  0  0  0  0  0  0  0  0  0
   -4.1490   16.6910  -34.3820 C   0  0  0  0  0  0  0  0  0  0  0  0
   -3.2230   18.9110  -33.7900 C   0  0  0  0  0  0  0  0  0  0  0  0
   -1.9180   18.4760  -34.1270 C   0  0  0  0  0  0  0  0  0  0  0  0
   -0.8500   19.3770  -34.2540 C   0  0  0  0  0  0  0  0  0  0  0  0
    0.4330   18.9720  -34.6650 O   0  0  0  0  0  0  0  0  0  0  0  0
    1.4260   18.3660  -33.8340 C   0  0  0  0  0  0  0  0  0  0  0  0
    1.8130   19.3190  -32.6790 C   0  0  0  0  0  0  0  0  0  0  0  0
    1.2290   18.9790  -31.3470 N   0  0  0  0  0  0  0  0  0  0  0  0
    2.2880   18.8150  -30.3220 C   0  0  0  0  0  0  0  0  0  0  0  0
    0.5060   17.6900  -31.4790 C   0  0  0  0  0  0  0  0  0  0  0  0
    0.2600   20.0110  -30.9050 C   0  0  0  0  0  0  0  0  0  0  0  0
   -1.0500   20.7230  -33.9640 C   0  0  0  0  0  0  0  0  0  0  0  0
    0.0470   21.5930  -34.0800 O   0  0  0  0  0  0  0  0  0  0  0  0
    0.6760   21.9510  -35.3060 C   0  0  0  0  0  0  0  0  0  0  0  0
   -2.3210   21.1690  -33.5720 C   0  0  0  0  0  0  0  0  0  0  0  0
   -3.4230   20.2820  -33.4800 C   0  0  0  0  0  0  0  0  0  0  0  0
   -9.6839   21.9069  -30.4232 H   0  0  0  0  0  0  0  0  0  0  0  0
  -10.6542   22.1669  -31.9123 H   0  0  0  0  0  0  0  0  0  0  0  0
   -9.3112   20.9740  -31.9123 H   0  0  0  0  0  0  0  0  0  0  0  0
   -8.5455   22.9723  -33.0572 H   0  0  0  0  0  0  0  0  0  0  0  0
   -9.1125   24.0019  -31.6471 H   0  0  0  0  0  0  0  0  0  0  0  0
   -7.3542   23.3149  -29.2573 H   0  0  0  0  0  0  0  0  0  0  0  0
   -8.1518   21.7961  -29.7901 H   0  0  0  0  0  0  0  0  0  0  0  0
   -6.3596   21.9172  -29.7901 H   0  0  0  0  0  0  0  0  0  0  0  0
   -6.4010   24.3054  -32.6728 H   0  0  0  0  0  0  0  0  0  0  0  0
   -6.8690   24.9803  -31.0377 H   0  0  0  0  0  0  0  0  0  0  0  0
   -4.4029   24.8065  -31.3628 H   0  0  0  0  0  0  0  0  0  0  0  0
   -5.0551   23.8238  -29.9766 H   0  0  0  0  0  0  0  0  0  0  0  0
   -3.2824   22.8915  -31.8445 H   0  0  0  0  0  0  0  0  0  0  0  0
   -4.4594   21.8765  -30.8766 H   0  0  0  0  0  0  0  0  0  0  0  0
   -4.5770   22.6920  -33.6930 H   0  0  0  0  0  0  0  0  0  0  0  0
   -5.9690   22.4070  -32.9370 H   0  0  0  0  0  0  0  0  0  0  0  0
   -7.2894   21.1827  -32.2848 H   0  0  0  0  0  0  0  0  0  0  0  0
   -9.0020   19.4490  -31.8183 H   0  0  0  0  0  0  0  0  0  0  0  0
   -8.4592   17.0428  -32.1190 H   0  0  0  0  0  0  0  0  0  0  0  0
   -6.2401   16.3660  -32.9902 H   0  0  0  0  0  0  0  0  0  0  0  0
   -4.0728   15.9254  -33.5958 H   0  0  0  0  0  0  0  0  0  0  0  0
   -5.0314   16.4885  -35.0067 H   0  0  0  0  0  0  0  0  0  0  0  0
   -3.2440   16.6663  -35.0067 H   0  0  0  0  0  0  0  0  0  0  0  0
   -1.7370   17.4038  -34.2935 H   0  0  0  0  0  0  0  0  0  0  0  0
    1.0268   17.4307  -33.4146 H   0  0  0  0  0  0  0  0  0  0  0  0
    2.3199   18.1558  -34.4395 H   0  0  0  0  0  0  0  0  0  0  0  0
    2.9087   19.3081  -32.5823 H   0  0  0  0  0  0  0  0  0  0  0  0
    1.4036   20.3040  -32.9477 H   0  0  0  0  0  0  0  0  0  0  0  0
    1.8414   18.8842  -29.3191 H   0  0  0  0  0  0  0  0  0  0  0  0
    2.7666   17.8320  -30.4433 H   0  0  0  0  0  0  0  0  0  0  0  0
    3.0415   19.6072  -30.4433 H   0  0  0  0  0  0  0  0  0  0  0  0
    0.2822   17.2910  -30.4786 H   0  0  0  0  0  0  0  0  0  0  0  0
   -0.4334   17.8511  -32.0281 H   0  0  0  0  0  0  0  0  0  0  0  0
    1.1332   16.9723  -32.0281 H   0  0  0  0  0  0  0  0  0  0  0  0
    0.2320   20.0408  -29.8058 H   0  0  0  0  0  0  0  0  0  0  0  0
    0.5694   20.9936  -31.2907 H   0  0  0  0  0  0  0  0  0  0  0  0
   -0.7401   19.7640  -31.2907 H   0  0  0  0  0  0  0  0  0  0  0  0
    1.6142   22.4850  -35.0945 H   0  0  0  0  0  0  0  0  0  0  0  0
    0.8942   21.0417  -35.8854 H   0  0  0  0  0  0  0  0  0  0  0  0
    0.0056   22.6029  -35.8854 H   0  0  0  0  0  0  0  0  0  0  0  0
   -2.4660   22.2323  -33.3303 H   0  0  0  0  0  0  0  0  0  0  0  0
  1  2  1  0
  2  3  1  0
  3  4  1  0
  3  5  1  0
  5  6  1  0
  6  7  1  0
  7  8  1  0
  8  9  1  0
  9 10  2  0
 10 11  1  0
 11 12  2  0
 12 13  1  0
 13 14  2  0
 14 15  1  0
 15 16  2  0
 16 17  1  0
 16 18  1  0
 18 19  2  0
 19 20  1  0
 20 21  1  0
 21 22  1  0
 22 23  1  0
 23 24  1  0
 24 25  1  0
 24 26  1  0
 24 27  1  0
 20 28  2  0
 28 29  1  0
 29 30  1  0
 28 31  1  0
 31 32  2  0
 32  9  1  0
 15 10  1  0
 32 18  1  0
  1 33  1  0
  1 34  1  0
  1 35  1  0
  2 36  1  0
  2 37  1  0
  4 38  1  0
  4 39  1  0
  4 40  1  0
  5 41  1  0
  5 42  1  0
  6 43  1  0
  6 44  1  0
  7 45  1  0
  7 46  1  0
  8 47  1  0
  8 48  1  0
 11 49  1  0
 12 50  1  0
 13 51  1  0
 14 52  1  0
 17 53  1  0
 17 54  1  0
 17 55  1  0
 19 56  1  0
 22 57  1  0
 22 58  1  0
 23 59  1  0
 23 60  1  0
 25 61  1  0
 25 62  1  0
 25 63  1  0
 26 64  1  0
 26 65  1  0
 26 66  1  0
 27 67  1  0
 27 68  1  0
 27 69  1  0
 30 70  1  0
 30 71  1  0
 30 72  1  0
 31 73  1  0
M  CHG  3   8   1  16   1  24   1
M  END
>  <UniqueID>  (2) 
2

>  <SMILES>  (2) 
CCN(C)CCC[NH2+]c1c2ccccc2[n+](C)c2cc(OCC[N+](C)(C)C)c(OC)cc12

>  <Energy>  (2) 
113.40754852099678

>  <Genealogy>  (2) 
CCN(C)CCC[NH2+]c1c2ccccc2[n+](C)c2cc(OCC[N+](C)(C)C)c(OC)cc12 (protonated)
CCN(C)CCC[NH2+]c1c2ccccc2[n+](C)c2cc(OCC[N+](C)(C)C)c(OC)cc12 (3D coordinates assigned)
CCN(C)CCC[NH2+]c1c2ccccc2[n+](C)c2cc(OCC[N+](C)(C)C)c(OC)cc12 (optimized conformer: 113.40754852099678 kcal/mol)

>  <smiles>  (2) 
CCN(C)CCCNc1c2ccccc2[n+](C)c2cc(OCC[N+](C)(C)C)c(OC)cc12

>  <score_type>  (2) 
oracle

>  <origin>  (2) 
adg

>  <m_score__min__energy>  (2) 
-6.3799999999999999

>  <m_primary>  (2) 
energy

$$$$
2:0
     RDKit          3D

 69 71  0  0  0  0  0  0  0  0999 V2000
   -6.2300   25.6570  -29.5460 C   0  0  0  0  0  0  0  0  0  0  0  0
   -5.3360   25.7070  -30.7870 C   0  0  0  0  0  0  0  0  0  0  0  0
   -4.1160   24.8870  -30.6380 N   0  0  0  0  0  0  0  0  0  0  0  0
   -4.0910   24.1270  -29.3780 C   0  0  0  0  0  0  0  0  0  0  0  0
   -3.7670   22.6560  -29.6420 C   0  0  0  0  0  0  0  0  0  0  0  0
   -2.9590   22.5720  -30.7980 O   0  0  0  0  0  0  0  0  0  0  0  0
   -3.1770   21.3340  -31.4420 C   0  0  0  0  0  0  0  0  0  0  0  0
   -2.9590   21.5050  -32.9450 C   0  0  0  0  0  0  0  0  0  0  0  0
   -4.2230   21.3900  -33.6750 N   0  0  0  0  0  0  0  0  0  0  0  0
   -5.3400   20.6600  -33.1410 C   0  0  0  0  0  0  0  0  0  0  0  0
   -6.4090   21.3400  -32.5310 C   0  0  0  0  0  0  0  0  0  0  0  0
   -6.3410   22.7300  -32.3000 C   0  0  0  0  0  0  0  0  0  0  0  0
   -7.3840   23.3950  -31.6630 C   0  0  0  0  0  0  0  0  0  0  0  0
   -8.4970   22.6880  -31.2240 C   0  0  0  0  0  0  0  0  0  0  0  0
   -8.5810   21.3110  -31.4330 C   0  0  0  0  0  0  0  0  0  0  0  0
   -7.5530   20.6090  -32.1140 C   0  0  0  0  0  0  0  0  0  0  0  0
   -7.6350   19.2490  -32.3590 N   0  0  0  0  0  0  0  0  0  0  0  0
   -8.9260   18.5430  -32.1880 C   0  0  0  0  0  0  0  0  0  0  0  0
   -6.5150   18.5510  -32.7790 C   0  0  0  0  0  0  0  0  0  0  0  0
   -6.4790   17.1310  -32.7950 C   0  0  0  0  0  0  0  0  0  0  0  0
   -5.3520   16.4310  -33.2630 C   0  0  0  0  0  0  0  0  0  0  0  0
   -5.2760   15.0280  -33.2840 O   0  0  0  0  0  0  0  0  0  0  0  0
   -4.9860   14.2150  -34.4230 C   0  0  0  0  0  0  0  0  0  0  0  0
   -3.9930   13.0940  -34.0420 C   0  0  0  0  0  0  0  0  0  0  0  0
   -3.4770   13.1320  -32.6360 N   0  0  0  0  0  0  0  0  0  0  0  0
   -4.5830   13.0140  -31.6560 C   0  0  0  0  0  0  0  0  0  0  0  0
   -2.7050   14.3680  -32.3690 C   0  0  0  0  0  0  0  0  0  0  0  0
   -2.5700   11.9710  -32.4540 C   0  0  0  0  0  0  0  0  0  0  0  0
   -4.2310   17.1480  -33.6720 C   0  0  0  0  0  0  0  0  0  0  0  0
   -4.2220   18.5370  -33.6260 C   0  0  0  0  0  0  0  0  0  0  0  0
   -5.3530   19.2540  -33.1880 C   0  0  0  0  0  0  0  0  0  0  0  0
   -5.6045   25.6920  -28.6418 H   0  0  0  0  0  0  0  0  0  0  0  0
   -6.9142   26.5183  -29.5521 H   0  0  0  0  0  0  0  0  0  0  0  0
   -6.8139   24.7248  -29.5521 H   0  0  0  0  0  0  0  0  0  0  0  0
   -5.9083   25.3347  -31.6495 H   0  0  0  0  0  0  0  0  0  0  0  0
   -5.0217   26.7513  -30.9310 H   0  0  0  0  0  0  0  0  0  0  0  0
   -4.0480   24.2150  -31.4390 H   0  0  0  0  0  0  0  0  0  0  0  0
   -3.3238   24.5526  -28.7145 H   0  0  0  0  0  0  0  0  0  0  0  0
   -5.0821   24.1921  -28.9053 H   0  0  0  0  0  0  0  0  0  0  0  0
   -3.2267   22.2354  -28.7811 H   0  0  0  0  0  0  0  0  0  0  0  0
   -4.6969   22.0878  -29.7918 H   0  0  0  0  0  0  0  0  0  0  0  0
   -2.4716   20.5862  -31.0505 H   0  0  0  0  0  0  0  0  0  0  0  0
   -4.2065   20.9954  -31.2537 H   0  0  0  0  0  0  0  0  0  0  0  0
   -2.5230   22.4969  -33.1347 H   0  0  0  0  0  0  0  0  0  0  0  0
   -2.2800   20.7126  -33.2930 H   0  0  0  0  0  0  0  0  0  0  0  0
   -4.3440   21.9260  -34.5620 H   0  0  0  0  0  0  0  0  0  0  0  0
   -5.4547   23.2936  -32.6267 H   0  0  0  0  0  0  0  0  0  0  0  0
   -7.3275   24.4824  -31.5066 H   0  0  0  0  0  0  0  0  0  0  0  0
   -9.3142   23.2155  -30.7102 H   0  0  0  0  0  0  0  0  0  0  0  0
   -9.4588   20.7605  -31.0637 H   0  0  0  0  0  0  0  0  0  0  0  0
   -9.1405   18.4257  -31.1155 H   0  0  0  0  0  0  0  0  0  0  0  0
   -9.7290   19.1275  -32.6608 H   0  0  0  0  0  0  0  0  0  0  0  0
   -8.8671   17.5515  -32.6608 H   0  0  0  0  0  0  0  0  0  0  0  0
   -7.3512   16.5665  -32.4336 H   0  0  0  0  0  0  0  0  0  0  0  0
   -5.9182   13.7637  -34.7937 H   0  0  0  0  0  0  0  0  0  0  0  0
   -4.5345   14.8427  -35.2054 H   0  0  0  0  0  0  0  0  0  0  0  0
   -4.5000   12.1291  -34.1897 H   0  0  0  0  0  0  0  0  0  0  0  0
   -3.1143   13.2403  -34.6874 H   0  0  0  0  0  0  0  0  0  0  0  0
   -4.1748   13.0575  -30.6355 H   0  0  0  0  0  0  0  0  0  0  0  0
   -5.2927   13.8415  -31.8027 H   0  0  0  0  0  0  0  0  0  0  0  0
   -5.1021   12.0554  -31.8027 H   0  0  0  0  0  0  0  0  0  0  0  0
   -2.6130   14.5154  -31.2828 H   0  0  0  0  0  0  0  0  0  0  0  0
   -1.7027   14.2774  -32.8130 H   0  0  0  0  0  0  0  0  0  0  0  0
   -3.2262   15.2290  -32.8130 H   0  0  0  0  0  0  0  0  0  0  0  0
   -2.4243   11.7844  -31.3798 H   0  0  0  0  0  0  0  0  0  0  0  0
   -3.0146   11.0812  -32.9237 H   0  0  0  0  0  0  0  0  0  0  0  0
   -1.5991   12.1871  -32.9237 H   0  0  0  0  0  0  0  0  0  0  0  0
   -3.3432   16.6096  -34.0353 H   0  0  0  0  0  0  0  0  0  0  0  0
   -3.3194   19.0841  -33.9358 H   0  0  0  0  0  0  0  0  0  0  0  0
  1  2  1  0
  2  3  1  0
  3  4  1  0
  4  5  1  0
  5  6  1  0
  6  7  1  0
  7  8  1  0
  8  9  1  0
  9 10  1  0
 10 11  2  0
 11 12  1  0
 12 13  2  0
 13 14  1  0
 14 15  2  0
 15 16  1  0
 16 17  2  0
 17 18  1  0
 17 19  1  0
 19 20  2  0
 20 21  1  0
 21 22  1  0
 22 23  1  0
 23 24  1  0
 24 25  1  0
 25 26  1  0
 25 27  1  0
 25 28  1  0
 21 29  2  0
 29 30  1  0
 30 31  2  0
 31 10  1  0
 16 11  1  0
 31 19  1  0
  1 32  1  0
  1 33  1  0
  1 34  1  0
  2 35  1  0
  2 36  1  0
  3 37  1  0
  4 38  1  0
  4 39  1  0
  5 40  1  0
  5 41  1  0
  7 42  1  0
  7 43  1  0
  8 44  1  0
  8 45  1  0
  9 46  1  0
 12 47  1  0
 13 48  1  0
 14 49  1  0
 15 50  1  0
 18 51  1  0
 18 52  1  0
 18 53  1  0
 20 54  1  0
 23 55  1  0
 23 56  1  0
 24 57  1  0
 24 58  1  0
 26 59  1  0
 26 60  1  0
 26 61  1  0
 27 62  1  0
 27 63  1  0
 27 64  1  0
 28 65  1  0
 28 66  1  0
 28 67  1  0
 29 68  1  0
 30 69  1  0
M  CHG  2  17   1  25   1
M  END
>  <UniqueID>  (3) 
3

>  <SMILES>  (3) 
CCNCCOCCNc1c2ccccc2[n+](C)c2cc(OCC[N+](C)(C)C)ccc12

>  <Energy>  (3) 
98.45588379233456

>  <Genealogy>  (3) 
CCNCCOCCNc1c2ccccc2[n+](C)c2cc(OCC[N+](C)(C)C)ccc12 (3D coordinates assigned)
CCNCCOCCNc1c2ccccc2[n+](C)c2cc(OCC[N+](C)(C)C)ccc12 (optimized conformer: 98.45588379233456 kcal/mol)

>  <smiles>  (3) 
CCNCCOCCNc1c2ccccc2[n+](C)c2cc(OCC[N+](C)(C)C)ccc12

>  <score_type>  (3) 
oracle

>  <origin>  (3) 
adg

>  <m_score__min__energy>  (3) 
-8.3499999999999996

>  <m_primary>  (3) 
energy

$$$$
3:0
     RDKit          3D

 57 59  0  0  0  0  0  0  0  0999 V2000
   -4.5820   24.1860  -28.9690 C   0  0  0  0  0  0  0  0  0  0  0  0
   -4.2300   23.2340  -27.8310 C   0  0  0  0  0  0  0  0  0  0  0  0
   -2.7160   22.9450  -27.7090 C   0  0  0  0  0  0  0  0  0  0  0  0
   -2.3050   21.6640  -28.3630 N   0  0  0  0  0  0  0  0  0  0  0  0
   -3.0710   20.5050  -27.8130 C   0  0  0  0  0  0  0  0  0  0  0  0
   -2.2760   19.6920  -26.7680 C   0  0  0  0  0  0  0  0  0  0  0  0
   -3.1360   18.6850  -26.0060 C   0  0  0  0  0  0  0  0  0  0  0  0
   -0.8440   21.4340  -28.1740 C   0  0  0  0  0  0  0  0  0  0  0  0
   -0.1990   20.6850  -29.3620 C   0  0  0  0  0  0  0  0  0  0  0  0
   -1.2010   20.3410  -30.3860 N   0  0  0  0  0  0  0  0  0  0  0  0
   -0.6100   20.0570  -31.7060 C   0  0  0  0  0  0  0  0  0  0  0  0
   -0.9730   21.1580  -32.7100 C   0  0  0  0  0  0  0  0  0  0  0  0
   -2.4220   21.3230  -32.7790 N   0  0  0  0  0  0  0  0  0  0  0  0
   -3.3440   20.4210  -33.3980 C   0  0  0  0  0  0  0  0  0  0  0  0
   -3.0100   19.5170  -34.2120 O   0  0  0  0  0  0  0  0  0  0  0  0
   -4.7010   20.6960  -32.9400 C   0  0  0  0  0  0  0  0  0  0  0  0
   -5.9080   20.0820  -33.2650 C   0  0  0  0  0  0  0  0  0  0  0  0
   -7.0820   20.5490  -32.6380 C   0  0  0  0  0  0  0  0  0  0  0  0
   -8.3220   19.9630  -32.9300 C   0  0  0  0  0  0  0  0  0  0  0  0
   -9.4820   20.4260  -32.3060 C   0  0  0  0  0  0  0  0  0  0  0  0
   -9.4190   21.4760  -31.3840 C   0  0  0  0  0  0  0  0  0  0  0  0
   -8.1910   22.0720  -31.0780 C   0  0  0  0  0  0  0  0  0  0  0  0
   -7.0150   21.6230  -31.6970 C   0  0  0  0  0  0  0  0  0  0  0  0
   -5.7700   22.2190  -31.3910 C   0  0  0  0  0  0  0  0  0  0  0  0
   -4.6340   21.7310  -32.0320 C   0  0  0  0  0  0  0  0  0  0  0  0
   -3.2320   22.1180  -31.9080 C   0  0  0  0  0  0  0  0  0  0  0  0
   -2.7810   23.0090  -31.1420 O   0  0  0  0  0  0  0  0  0  0  0  0
   -4.9351   25.1408  -28.5523 H   0  0  0  0  0  0  0  0  0  0  0  0
   -3.6900   24.3634  -29.5878 H   0  0  0  0  0  0  0  0  0  0  0  0
   -5.3748   23.7405  -29.5878 H   0  0  0  0  0  0  0  0  0  0  0  0
   -4.5760   23.6789  -26.8863 H   0  0  0  0  0  0  0  0  0  0  0  0
   -4.7239   22.2756  -28.0489 H   0  0  0  0  0  0  0  0  0  0  0  0
   -2.1635   23.7710  -28.1806 H   0  0  0  0  0  0  0  0  0  0  0  0
   -2.4867   22.8525  -26.6372 H   0  0  0  0  0  0  0  0  0  0  0  0
   -2.4900   21.7360  -29.3900 H   0  0  0  0  0  0  0  0  0  0  0  0
   -3.9869   20.8853  -27.3372 H   0  0  0  0  0  0  0  0  0  0  0  0
   -3.2918   19.8304  -28.6533 H   0  0  0  0  0  0  0  0  0  0  0  0
   -1.4747   19.1453  -27.2866 H   0  0  0  0  0  0  0  0  0  0  0  0
   -1.8799   20.4064  -26.0313 H   0  0  0  0  0  0  0  0  0  0  0  0
   -3.0065   18.8367  -24.9242 H   0  0  0  0  0  0  0  0  0  0  0  0
   -4.1933   18.8299  -26.2726 H   0  0  0  0  0  0  0  0  0  0  0  0
   -2.8274   17.6634  -26.2726 H   0  0  0  0  0  0  0  0  0  0  0  0
   -0.3463   22.4084  -28.0604 H   0  0  0  0  0  0  0  0  0  0  0  0
   -0.7197   20.8066  -27.2791 H   0  0  0  0  0  0  0  0  0  0  0  0
    0.5705   21.3273  -29.8152 H   0  0  0  0  0  0  0  0  0  0  0  0
    0.2454   19.7524  -28.9842 H   0  0  0  0  0  0  0  0  0  0  0  0
   -1.8160   21.1850  -30.4940 H   0  0  0  0  0  0  0  0  0  0  0  0
    0.4843   20.0041  -31.6080 H   0  0  0  0  0  0  0  0  0  0  0  0
   -1.0068   19.0988  -32.0727 H   0  0  0  0  0  0  0  0  0  0  0  0
   -0.5146   22.1057  -32.3908 H   0  0  0  0  0  0  0  0  0  0  0  0
   -0.5974   20.8738  -33.7041 H   0  0  0  0  0  0  0  0  0  0  0  0
   -5.9448   19.2559  -33.9904 H   0  0  0  0  0  0  0  0  0  0  0  0
   -8.3810   19.1360  -33.6529 H   0  0  0  0  0  0  0  0  0  0  0  0
  -10.4514   19.9622  -32.5409 H   0  0  0  0  0  0  0  0  0  0  0  0
  -10.3384   21.8343  -30.8978 H   0  0  0  0  0  0  0  0  0  0  0  0
   -8.1474   22.8953  -30.3498 H   0  0  0  0  0  0  0  0  0  0  0  0
   -5.7006   23.0445  -30.6673 H   0  0  0  0  0  0  0  0  0  0  0  0
  1  2  1  0
  2  3  1  0
  3  4  1  0
  4  5  1  0
  5  6  1  0
  6  7  1  0
  4  8  1  0
  8  9  1  0
  9 10  1  0
 10 11  1  0
 11 12  1  0
 12 13  1  0
 13 14  1  0
 14 15  2  0
 14 16  1  0
 16 17  2  0
 17 18  1  0
 18 19  2  0
 19 20  1  0
 20 21  2  0
 21 22  1  0
 22 23  2  0
 23 24  1  0
 24 25  2  0
 25 26  1  0
 26 27  2  0
 26 13  1  0
 25 16  1  0
 23 18  1  0
  1 28  1  0
  1 29  1  0
  1 30  1  0
  2 31  1  0
  2 32  1  0
  3 33  1  0
  3 34  1  0
  4 35  1  0
  5 36  1  0
  5 37  1  0
  6 38  1  0
  6 39  1  0
  7 40  1  0
  7 41  1  0
  7 42  1  0
  8 43  1  0
  8 44  1  0
  9 45  1  0
  9 46  1  0
 10 47  1  0
 11 48  1  0
 11 49  1  0
 12 50  1  0
 12 51  1  0
 17 52  1  0
 19 53  1  0
 20 54  1  0
 21 55  1  0
 22 56  1  0
 24 57  1  0
M  CHG  1   4   1
M  END
>  <UniqueID>  (4) 
4

>  <SMILES>  (4) 
CCC[NH+](CCC)CCNCCN1C(=O)c2cc3ccccc3cc2C1=O

>  <Energy>  (4) 
93.59171320985632

>  <Genealogy>  (4) 
CCC[NH+](CCC)CCNCCN1C(=O)c2cc3ccccc3cc2C1=O (protonated)
CCC[NH+](CCC)CCNCCN1C(=O)c2cc3ccccc3cc2C1=O (3D coordinates assigned)
CCC[NH+](CCC)CCNCCN1C(=O)c2cc3ccccc3cc2C1=O (nonaromatic ring conformer: 93.59171320985632 kcal/mol)

>  <smiles>  (4) 
CCCN(CCC)CCNCCN1C(=O)c2cc3ccccc3cc2C1=O

>  <score_type>  (4) 
oracle

>  <origin>  (4) 
adg

>  <m_score__min__energy>  (4) 
-7.46

>  <m_primary>  (4) 
energy

$$$$
4:0
     RDKit          3D

 60 65  0  0  0  0  0  0  0  0999 V2000
   -8.3780   23.4310  -31.7100 C   0  0  0  0  0  0  0  0  0  0  0  0
   -7.2260   23.4280  -32.7120 C   0  0  0  0  0  0  0  0  0  0  0  0
   -6.1480   22.5180  -32.2910 N   0  0  0  0  0  0  0  0  0  0  0  0
   -5.1710   22.9200  -31.3070 C   0  0  0  0  0  0  0  0  0  0  0  0
   -5.3290   24.1300  -30.6200 C   0  0  0  0  0  0  0  0  0  0  0  0
   -4.4050   24.5280  -29.6510 C   0  0  0  0  0  0  0  0  0  0  0  0
   -3.2850   23.7240  -29.3380 C   0  0  0  0  0  0  0  0  0  0  0  0
   -2.2500   24.1130  -28.2620 C   0  0  1  0  0  0  0  0  0  0  0  0
   -1.3280   22.8940  -27.9570 C   0  0  0  0  0  0  0  0  0  0  0  0
   -0.2490   23.2760  -26.9200 C   0  0  2  0  0  0  0  0  0  0  0  0
   -0.9280   23.7130  -25.6070 C   0  0  0  0  0  0  0  0  0  0  0  0
   -1.8270   24.9350  -25.8760 C   0  0  1  0  0  0  0  0  0  0  0  0
   -0.9730   26.0970  -26.4220 C   0  0  0  0  0  0  0  0  0  0  0  0
   -0.2950   25.6640  -27.7360 C   0  0  1  0  0  0  0  0  0  0  0  0
    0.6060   24.4380  -27.4710 C   0  0  0  0  0  0  0  0  0  0  0  0
   -1.3740   25.2940  -28.7780 C   0  0  0  0  0  0  0  0  0  0  0  0
   -2.9070   24.5600  -26.9150 C   0  0  0  0  0  0  0  0  0  0  0  0
   -3.1280   22.5160  -30.0510 C   0  0  0  0  0  0  0  0  0  0  0  0
   -4.0540   22.1200  -31.0190 C   0  0  0  0  0  0  0  0  0  0  0  0
   -6.2130   21.1290  -32.6610 C   0  0  0  0  0  0  0  0  0  0  0  0
   -5.3440   20.5560  -33.5270 N   0  0  0  0  0  0  0  0  0  0  0  0
   -5.7580   19.2740  -33.5730 C   0  0  0  0  0  0  0  0  0  0  0  0
   -5.1700   18.2590  -34.3260 C   0  0  0  0  0  0  0  0  0  0  0  0
   -5.7310   16.9750  -34.2460 C   0  0  0  0  0  0  0  0  0  0  0  0
   -6.8500   16.7400  -33.4270 C   0  0  0  0  0  0  0  0  0  0  0  0
   -7.4020   17.7990  -32.6910 C   0  0  0  0  0  0  0  0  0  0  0  0
   -6.8300   19.0270  -32.7980 N   0  0  0  0  0  0  0  0  0  0  0  0
   -7.1480   20.1990  -32.2220 C   0  0  0  0  0  0  0  0  0  0  0  0
   -8.3040   20.4250  -31.2960 C   0  0  0  0  0  0  0  0  0  0  0  0
   -7.9740   23.4299  -30.6869 H   0  0  0  0  0  0  0  0  0  0  0  0
   -8.9926   24.3307  -31.8606 H   0  0  0  0  0  0  0  0  0  0  0  0
   -8.9973   22.5345  -31.8606 H   0  0  0  0  0  0  0  0  0  0  0  0
   -7.6055   23.1035  -33.6922 H   0  0  0  0  0  0  0  0  0  0  0  0
   -6.8153   24.4469  -32.7692 H   0  0  0  0  0  0  0  0  0  0  0  0
   -6.1911   24.7747  -30.8461 H   0  0  0  0  0  0  0  0  0  0  0  0
   -4.5511   25.4820  -29.1232 H   0  0  0  0  0  0  0  0  0  0  0  0
   -0.8375   22.5699  -28.8867 H   0  0  0  0  0  0  0  0  0  0  0  0
   -1.9417   22.0784  -27.5469 H   0  0  0  0  0  0  0  0  0  0  0  0
    0.3964   22.4067  -26.7256 H   0  0  0  0  0  0  0  0  0  0  0  0
   -0.1587   23.9794  -24.8673 H   0  0  0  0  0  0  0  0  0  0  0  0
   -1.5400   22.8860  -25.2177 H   0  0  0  0  0  0  0  0  0  0  0  0
   -2.3096   25.2459  -24.9377 H   0  0  0  0  0  0  0  0  0  0  0  0
   -0.2032   26.3647  -25.6833 H   0  0  0  0  0  0  0  0  0  0  0  0
   -1.6178   26.9676  -26.6121 H   0  0  0  0  0  0  0  0  0  0  0  0
    0.3166   26.4930  -28.1217 H   0  0  0  0  0  0  0  0  0  0  0  0
    1.3794   24.7042  -26.7355 H   0  0  0  0  0  0  0  0  0  0  0  0
    1.0839   24.1259  -28.4113 H   0  0  0  0  0  0  0  0  0  0  0  0
   -0.8837   24.9975  -29.7170 H   0  0  0  0  0  0  0  0  0  0  0  0
   -2.0198   26.1683  -28.9466 H   0  0  0  0  0  0  0  0  0  0  0  0
   -3.5166   23.7342  -26.5195 H   0  0  0  0  0  0  0  0  0  0  0  0
   -3.5353   25.4427  -27.1049 H   0  0  0  0  0  0  0  0  0  0  0  0
   -2.2599   21.8741  -29.8404 H   0  0  0  0  0  0  0  0  0  0  0  0
   -3.9067   21.1736  -31.5600 H   0  0  0  0  0  0  0  0  0  0  0  0
   -4.2949   18.4579  -34.9621 H   0  0  0  0  0  0  0  0  0  0  0  0
   -5.2937   16.1491  -34.8262 H   0  0  0  0  0  0  0  0  0  0  0  0
   -7.2890   15.7334  -33.3641 H   0  0  0  0  0  0  0  0  0  0  0  0
   -8.2765   17.6393  -32.0431 H   0  0  0  0  0  0  0  0  0  0  0  0
   -7.9578   20.3573  -30.2541 H   0  0  0  0  0  0  0  0  0  0  0  0
   -8.7291   21.4233  -31.4770 H   0  0  0  0  0  0  0  0  0  0  0  0
   -9.0738   19.6603  -31.4770 H   0  0  0  0  0  0  0  0  0  0  0  0
  1  2  1  0
  2  3  1  0
  3  4  1  0
  4  5  2  0
  5  6  1  0
  6  7  2  0
  8  7  1  6
  8  9  1  0
  9 10  1  0
 10 11  1  0
 11 12  1  0
 12 13  1  0
 13 14  1  0
 14 15  1  0
 14 16  1  0
 12 17  1  0
  7 18  1  0
 18 19  2  0
  3 20  1  0
 20 21  1  0
 21 22  2  0
 22 23  1  0
 23 24  2  0
 24 25  1  0
 25 26  2  0
 26 27  1  0
 27 28  1  0
 28 29  1  0
 19  4  1  0
 28 20  2  0
 16  8  1  0
 27 22  1  0
 17  8  1  0
 15 10  1  0
  1 30  1  0
  1 31  1  0
  1 32  1  0
  2 33  1  0
  2 34  1  0
  5 35  1  0
  6 36  1  0
  9 37  1  0
  9 38  1  0
 10 39  1  1
 11 40  1  0
 11 41  1  0
 12 42  1  1
 13 43  1  0
 13 44  1  0
 14 45  1  6
 15 46  1  0
 15 47  1  0
 16 48  1  0
 16 49  1  0
 17 50  1  0
 17 51  1  0
 18 52  1  0
 19 53  1  0
 23 54  1  0
 24 55  1  0
 25 56  1  0
 26 57  1  0
 29 58  1  0
 29 59  1  0
 29 60  1  0
M  END
>  <UniqueID>  (5) 
5

>  <SMILES>  (5) 
CCN(c1ccc(C23CC4CC(CC(C4)C2)C3)cc1)c1nc2ccccn2c1C

>  <Energy>  (5) 
110.62387336941488

>  <Genealogy>  (5) 
CCN(c1ccc(C23CC4CC(CC(C4)C2)C3)cc1)c1nc2ccccn2c1C (3D coordinates assigned)
CCN(c1ccc(C23CC4CC(CC(C4)C2)C3)cc1)c1nc2ccccn2c1C (nonaromatic ring conformer: 110.62387336941488 kcal/mol)

>  <smiles>  (5) 
CCN(c1ccc(C23CC4CC(CC(C4)C2)C3)cc1)c1nc2ccccn2c1C

>  <score_type>  (5) 
oracle

>  <origin>  (5) 
adg

>  <m_score__min__energy>  (5) 
-9.7599999999999998

>  <m_primary>  (5) 
energy

$$$$
5:0
     RDKit          3D

 73 76  0  0  0  0  0  0  0  0999 V2000
   -8.6900   21.8200  -31.6730 C   0  0  0  0  0  0  0  0  0  0  0  0
   -8.0410   20.5770  -32.2740 C   0  0  0  0  0  0  0  0  0  0  0  0
   -8.0420   19.4140  -31.2760 C   0  0  0  0  0  0  0  0  0  0  0  0
   -7.2840   18.2390  -31.8340 C   0  0  0  0  0  0  0  0  0  0  0  0
   -6.2160   17.6810  -31.1140 C   0  0  0  0  0  0  0  0  0  0  0  0
   -5.4870   16.6140  -31.6460 C   0  0  0  0  0  0  0  0  0  0  0  0
   -5.8120   16.0930  -32.9090 C   0  0  0  0  0  0  0  0  0  0  0  0
   -5.0070   14.9580  -33.4970 C   0  0  0  0  0  0  0  0  0  0  0  0
   -3.5600   15.2370  -33.5160 N   0  0  0  0  0  0  0  0  0  0  0  0
   -3.0590   15.7030  -34.8200 C   0  0  0  0  0  0  0  0  0  0  0  0
   -3.8810   16.8840  -35.3490 C   0  0  0  0  0  0  0  0  0  0  0  0
   -3.7750   18.0570  -34.4110 C   0  0  0  0  0  0  0  0  0  0  0  0
   -2.6310   18.2200  -33.6150 C   0  0  0  0  0  0  0  0  0  0  0  0
   -2.5470   19.2800  -32.7080 C   0  0  0  0  0  0  0  0  0  0  0  0
   -3.6100   20.1910  -32.5740 C   0  0  0  0  0  0  0  0  0  0  0  0
   -3.5250   21.3100  -31.6010 C   0  0  0  0  0  0  0  0  0  0  0  0
   -4.6590   22.0910  -31.3100 C   0  0  0  0  0  0  0  0  0  0  0  0
   -4.5810   23.1400  -30.3910 C   0  0  0  0  0  0  0  0  0  0  0  0
   -3.3690   23.4290  -29.7460 C   0  0  0  0  0  0  0  0  0  0  0  0
   -3.2860   24.5450  -28.7390 C   0  0  0  0  0  0  0  0  0  0  0  0
   -2.0920   25.3700  -28.9780 N   0  0  0  0  0  0  0  0  0  0  0  0
   -1.0000   25.0960  -28.0230 C   0  0  0  0  0  0  0  0  0  0  0  0
   -1.5050   24.7150  -26.6190 C   0  0  0  0  0  0  0  0  0  0  0  0
   -1.0130   25.6650  -25.5610 C   0  0  0  0  0  0  0  0  0  0  0  0
   -1.1780   27.0490  -25.7160 C   0  0  0  0  0  0  0  0  0  0  0  0
   -0.6820   27.9230  -24.7490 C   0  0  0  0  0  0  0  0  0  0  0  0
   -0.0210   27.4070  -23.6330 C   0  0  0  0  0  0  0  0  0  0  0  0
    0.1380   26.0620  -23.4950 N   0  0  0  0  0  0  0  0  0  0  0  0
   -0.3380   25.1900  -24.4260 C   0  0  0  0  0  0  0  0  0  0  0  0
   -2.2380   22.6530  -30.0300 C   0  0  0  0  0  0  0  0  0  0  0  0
   -2.3130   21.6040  -30.9500 C   0  0  0  0  0  0  0  0  0  0  0  0
   -4.7570   20.0180  -33.3680 C   0  0  0  0  0  0  0  0  0  0  0  0
   -4.8410   18.9580  -34.2740 C   0  0  0  0  0  0  0  0  0  0  0  0
   -6.8710   16.6610  -33.6350 C   0  0  0  0  0  0  0  0  0  0  0  0
   -7.5990   17.7290  -33.1030 C   0  0  0  0  0  0  0  0  0  0  0  0
   -8.6569   21.7566  -30.5753 H   0  0  0  0  0  0  0  0  0  0  0  0
   -8.1444   22.7155  -32.0052 H   0  0  0  0  0  0  0  0  0  0  0  0
   -9.7367   21.8841  -32.0052 H   0  0  0  0  0  0  0  0  0  0  0  0
   -8.6006   20.2790  -33.1729 H   0  0  0  0  0  0  0  0  0  0  0  0
   -6.9981   20.8169  -32.5284 H   0  0  0  0  0  0  0  0  0  0  0  0
   -7.5658   19.7402  -30.3396 H   0  0  0  0  0  0  0  0  0  0  0  0
   -9.0817   19.1089  -31.0867 H   0  0  0  0  0  0  0  0  0  0  0  0
   -5.9515   18.0857  -30.1259 H   0  0  0  0  0  0  0  0  0  0  0  0
   -4.6545   16.1801  -31.0727 H   0  0  0  0  0  0  0  0  0  0  0  0
   -5.1831   14.0535  -32.8963 H   0  0  0  0  0  0  0  0  0  0  0  0
   -5.3332   14.8243  -34.5390 H   0  0  0  0  0  0  0  0  0  0  0  0
   -3.0480   14.3580  -33.2640 H   0  0  0  0  0  0  0  0  0  0  0  0
   -2.0112   16.0186  -34.7082 H   0  0  0  0  0  0  0  0  0  0  0  0
   -3.1442   14.8743  -35.5383 H   0  0  0  0  0  0  0  0  0  0  0  0
   -3.5011   17.1758  -36.3392 H   0  0  0  0  0  0  0  0  0  0  0  0
   -4.9356   16.5805  -35.4242 H   0  0  0  0  0  0  0  0  0  0  0  0
   -1.7959   17.5098  -33.7053 H   0  0  0  0  0  0  0  0  0  0  0  0
   -1.6425   19.4027  -32.0942 H   0  0  0  0  0  0  0  0  0  0  0  0
   -5.6143   21.8736  -31.8102 H   0  0  0  0  0  0  0  0  0  0  0  0
   -5.4746   23.7428  -30.1718 H   0  0  0  0  0  0  0  0  0  0  0  0
   -4.1836   25.1752  -28.8230 H   0  0  0  0  0  0  0  0  0  0  0  0
   -3.2201   24.1092  -27.7312 H   0  0  0  0  0  0  0  0  0  0  0  0
   -2.3650   26.3810  -28.9450 H   0  0  0  0  0  0  0  0  0  0  0  0
   -0.3935   24.2657  -28.4139 H   0  0  0  0  0  0  0  0  0  0  0  0
   -0.4148   26.0217  -27.9204 H   0  0  0  0  0  0  0  0  0  0  0  0
   -2.6049   24.7276  -26.6226 H   0  0  0  0  0  0  0  0  0  0  0  0
   -1.1170   23.7137  -26.3807 H   0  0  0  0  0  0  0  0  0  0  0  0
   -1.6986   27.4452  -26.6003 H   0  0  0  0  0  0  0  0  0  0  0  0
   -0.8105   29.0093  -24.8647 H   0  0  0  0  0  0  0  0  0  0  0  0
    0.3720   28.0882  -22.8639 H   0  0  0  0  0  0  0  0  0  0  0  0
    0.6390   25.6920  -22.6570 H   0  0  0  0  0  0  0  0  0  0  0  0
   -0.1929   24.1084  -24.2879 H   0  0  0  0  0  0  0  0  0  0  0  0
   -1.2850   22.8707  -29.5257 H   0  0  0  0  0  0  0  0  0  0  0  0
   -1.4174   21.0034  -31.1669 H   0  0  0  0  0  0  0  0  0  0  0  0
   -5.5958   20.7235  -33.2751 H   0  0  0  0  0  0  0  0  0  0  0  0
   -5.7479   18.8293  -34.8831 H   0  0  0  0  0  0  0  0  0  0  0  0
   -7.1291   16.2634  -34.6276 H   0  0  0  0  0  0  0  0  0  0  0  0
   -8.4229   18.1720  -33.6818 H   0  0  0  0  0  0  0  0  0  0  0  0
  1  2  1  0
  2  3  1  0
  3  4  1  0
  4  5  2  0
  5  6  1  0
  6  7  2  0
  7  8  1  0
  8  9  1  0
  9 10  1  0
 10 11  1  0
 11 12  1  0
 12 13  2  0
 13 14  1  0
 14 15  2  0
 15 16  1  0
 16 17  2  0
 17 18  1  0
 18 19  2  0
 19 20  1  0
 20 21  1  0
 21 22  1  0
 22 23  1  0
 23 24  1  0
 24 25  2  0
 25 26  1  0
 26 27  2  0
 27 28  1  0
 28 29  2  0
 19 30  1  0
 30 31  2  0
 15 32  1  0
 32 33  2  0
  7 34  1  0
 34 35  2  0
 35  4  1  0
 33 12  1  0
 31 16  1  0
 29 24  1  0
  1 36  1  0
  1 37  1  0
  1 38  1  0
  2 39  1  0
  2 40  1  0
  3 41  1  0
  3 42  1  0
  5 43  1  0
  6 44  1  0
  8 45  1  0
  8 46  1  0
  9 47  1  0
 10 48  1  0
 10 49  1  0
 11 50  1  0
 11 51  1  0
 13 52  1  0
 14 53  1  0
 17 54  1  0
 18 55  1  0
 20 56  1  0
 20 57  1  0
 21 58  1  0
 22 59  1  0
 22 60  1  0
 23 61  1  0
 23 62  1  0
 25 63  1  0
 26 64  1  0
 27 65  1  0
 28 66  1  0
 29 67  1  0
 30 68  1  0
 31 69  1  0
 32 70  1  0
 33 71  1  0
 34 72  1  0
 35 73  1  0
M  CHG  1  28   1
M  END
>  <UniqueID>  (6) 
6

>  <SMILES>  (6) 
CCCc1ccc(CNCCc2ccc(-c3ccc(CNCCc4ccc[nH+]c4)cc3)cc2)cc1

>  <Energy>  (6) 
73.14086466124485

>  <Genealogy>  (6) 
CCCc1ccc(CNCCc2ccc(-c3ccc(CNCCc4ccc[nH+]c4)cc3)cc2)cc1 (protonated)
CCCc1ccc(CNCCc2ccc(-c3ccc(CNCCc4ccc[nH+]c4)cc3)cc2)cc1 (3D coordinates assigned)
CCCc1ccc(CNCCc2ccc(-c3ccc(CNCCc4ccc[nH+]c4)cc3)cc2)cc1 (optimized conformer: 73.14086466124485 kcal/mol)

>  <smiles>  (6) 
CCCc1ccc(CNCCc2ccc(-c3ccc(CNCCc4cccnc4)cc3)cc2)cc1

>  <score_type>  (6) 
oracle

>  <origin>  (6) 
adg

>  <m_score__min__energy>  (6) 
-10.85

>  <m_primary>  (6) 
energy

$$$$
6:0
     RDKit          3D

 47 49  0  0  0  0  0  0  0  0999 V2000
   -6.9610   23.6130  -30.2780 C   0  0  0  0  0  0  0  0  0  0  0  0
   -6.2690   24.9070  -30.7220 C   0  0  0  0  0  0  0  0  0  0  0  0
   -6.1110   25.9000  -29.5570 C   0  0  0  0  0  0  0  0  0  0  0  0
   -4.9970   24.6500  -31.4310 N   0  0  0  0  0  0  0  0  0  0  0  0
   -4.0810   23.6920  -30.7820 C   0  0  0  0  0  0  0  0  0  0  0  0
   -3.8470   22.4580  -31.6710 C   0  0  0  0  0  0  0  0  0  0  0  0
   -4.8480   22.2950  -32.7480 N   0  0  0  0  0  0  0  0  0  0  0  0
   -5.2040   20.9010  -32.9960 C   0  0  0  0  0  0  0  0  0  0  0  0
   -6.5180   20.4120  -32.7340 C   0  0  0  0  0  0  0  0  0  0  0  0
   -7.5380   21.2300  -32.1800 C   0  0  0  0  0  0  0  0  0  0  0  0
   -8.7930   20.7150  -31.8720 C   0  0  0  0  0  0  0  0  0  0  0  0
   -9.0710   19.3760  -32.0910 C   0  0  0  0  0  0  0  0  0  0  0  0
   -8.1030   18.5490  -32.6500 C   0  0  0  0  0  0  0  0  0  0  0  0
   -6.8280   19.0500  -33.0220 C   0  0  0  0  0  0  0  0  0  0  0  0
   -5.8980   18.2340  -33.6310 N   0  0  0  0  0  0  0  0  0  0  0  0
   -6.3210   16.9410  -34.2190 C   0  0  0  0  0  0  0  0  0  0  0  0
   -4.5830   18.6330  -33.7270 C   0  0  0  0  0  0  0  0  0  0  0  0
   -3.5600   17.7120  -34.0720 C   0  0  0  0  0  0  0  0  0  0  0  0
   -2.2450   18.1260  -34.2520 C   0  0  0  0  0  0  0  0  0  0  0  0
   -1.9080   19.4610  -34.0920 C   0  0  0  0  0  0  0  0  0  0  0  0
   -0.2500   19.9810  -34.3420 Cl  0  0  0  0  0  0  0  0  0  0  0  0
   -2.8790   20.3830  -33.7060 C   0  0  0  0  0  0  0  0  0  0  0  0
   -4.2220   19.9860  -33.4730 C   0  0  0  0  0  0  0  0  0  0  0  0
   -6.9849   23.5684  -29.1792 H   0  0  0  0  0  0  0  0  0  0  0  0
   -7.9893   23.5946  -30.6681 H   0  0  0  0  0  0  0  0  0  0  0  0
   -6.4053   22.7475  -30.6681 H   0  0  0  0  0  0  0  0  0  0  0  0
   -6.9311   25.3893  -31.4562 H   0  0  0  0  0  0  0  0  0  0  0  0
   -6.1967   25.3612  -28.6018 H   0  0  0  0  0  0  0  0  0  0  0  0
   -5.1247   26.3831  -29.6182 H   0  0  0  0  0  0  0  0  0  0  0  0
   -6.8987   26.6654  -29.6182 H   0  0  0  0  0  0  0  0  0  0  0  0
   -4.5020   25.5650  -31.5430 H   0  0  0  0  0  0  0  0  0  0  0  0
   -3.1170   24.1876  -30.5947 H   0  0  0  0  0  0  0  0  0  0  0  0
   -4.5358   23.3600  -29.8371 H   0  0  0  0  0  0  0  0  0  0  0  0
   -2.8529   22.5479  -32.1332 H   0  0  0  0  0  0  0  0  0  0  0  0
   -3.9326   21.5754  -31.0201 H   0  0  0  0  0  0  0  0  0  0  0  0
   -5.6670   22.9100  -32.5710 H   0  0  0  0  0  0  0  0  0  0  0  0
   -4.4640   22.7050  -33.6280 H   0  0  0  0  0  0  0  0  0  0  0  0
   -7.3313   22.2936  -31.9903 H   0  0  0  0  0  0  0  0  0  0  0  0
   -9.5677   21.3739  -31.4528 H   0  0  0  0  0  0  0  0  0  0  0  0
  -10.0564   18.9672  -31.8230 H   0  0  0  0  0  0  0  0  0  0  0  0
   -8.3300   17.4842  -32.8073 H   0  0  0  0  0  0  0  0  0  0  0  0
   -6.5536   16.2300  -33.4125 H   0  0  0  0  0  0  0  0  0  0  0  0
   -7.2153   17.0959  -34.8405 H   0  0  0  0  0  0  0  0  0  0  0  0
   -5.5081   16.5374  -34.8405 H   0  0  0  0  0  0  0  0  0  0  0  0
   -3.8125   16.6490  -34.1996 H   0  0  0  0  0  0  0  0  0  0  0  0
   -1.4706   17.3928  -34.5219 H   0  0  0  0  0  0  0  0  0  0  0  0
   -2.5994   21.4393  -33.5793 H   0  0  0  0  0  0  0  0  0  0  0  0
  1  2  1  0
  2  3  1  0
  2  4  1  0
  4  5  1  0
  5  6  1  0
  6  7  1  0
  7  8  1  0
  8  9  2  0
  9 10  1  0
 10 11  2  0
 11 12  1  0
 12 13  2  0
 13 14  1  0
 14 15  2  0
 15 16  1  0
 15 17  1  0
 17 18  2  0
 18 19  1  0
 19 20  2  0
 20 21  1  0
 20 22  1  0
 22 23  2  0
 23  8  1  0
 14  9  1  0
 23 17  1  0
  1 24  1  0
  1 25  1  0
  1 26  1  0
  2 27  1  0
  3 28  1  0
  3 29  1  0
  3 30  1  0
  4 31  1  0
  5 32  1  0
  5 33  1  0
  6 34  1  0
  6 35  1  0
  7 36  1  0
  7 37  1  0
 10 38  1  0
 11 39  1  0
 12 40  1  0
 13 41  1  0
 16 42  1  0
 16 43  1  0
 16 44  1  0
 18 45  1  0
 19 46  1  0
 22 47  1  0
M  CHG  2   7   1  15   1
M  END
>  <UniqueID>  (7) 
7

>  <SMILES>  (7) 
CC(C)NCC[NH2+]c1c2ccccc2[n+](C)c2ccc(Cl)cc12

>  <Energy>  (7) 
77.77768513807592

>  <Genealogy>  (7) 
CC(C)NCC[NH2+]c1c2ccccc2[n+](C)c2ccc(Cl)cc12 (protonated)
CC(C)NCC[NH2+]c1c2ccccc2[n+](C)c2ccc(Cl)cc12 (3D coordinates assigned)
CC(C)NCC[NH2+]c1c2ccccc2[n+](C)c2ccc(Cl)cc12 (optimized conformer: 77.77768513807592 kcal/mol)

>  <smiles>  (7) 
CC(C)NCCNc1c2ccccc2[n+](C)c2ccc(Cl)cc12

>  <score_type>  (7) 
oracle

>  <origin>  (7) 
adg

>  <m_score__min__energy>  (7) 
-8.6500000000000004

>  <m_primary>  (7) 
energy

$$$$
7:0
     RDKit          3D

 51 53  0  0  0  0  0  0  0  0999 V2000
   -3.4840   23.4260  -30.8420 C   0  0  0  0  0  0  0  0  0  0  0  0
   -4.2210   24.6300  -30.4260 N   0  0  0  0  0  0  0  0  0  0  0  0
   -4.5170   24.5460  -28.9840 C   0  0  0  0  0  0  0  0  0  0  0  0
   -5.4650   24.7670  -31.2150 C   0  0  0  0  0  0  0  0  0  0  0  0
   -6.2190   23.4330  -31.2740 C   0  0  0  0  0  0  0  0  0  0  0  0
   -6.0190   22.7830  -32.5690 N   0  0  0  0  0  0  0  0  0  0  0  0
   -5.9330   21.3520  -32.6880 C   0  0  0  0  0  0  0  0  0  0  0  0
   -7.0730   20.5520  -32.5020 C   0  0  0  0  0  0  0  0  0  0  0  0
   -8.3470   21.1350  -32.3370 C   0  0  0  0  0  0  0  0  0  0  0  0
   -9.4800   20.3400  -32.1900 C   0  0  0  0  0  0  0  0  0  0  0  0
   -9.3670   18.9550  -32.2270 C   0  0  0  0  0  0  0  0  0  0  0  0
   -8.1200   18.3560  -32.3990 C   0  0  0  0  0  0  0  0  0  0  0  0
   -6.9410   19.1380  -32.5170 C   0  0  0  0  0  0  0  0  0  0  0  0
   -5.6950   18.5590  -32.6640 N   0  0  0  0  0  0  0  0  0  0  0  0
   -5.5110   17.1190  -32.3810 C   0  0  0  0  0  0  0  0  0  0  0  0
   -4.6160   19.3320  -33.0540 C   0  0  0  0  0  0  0  0  0  0  0  0
   -3.4000   18.7490  -33.4910 C   0  0  0  0  0  0  0  0  0  0  0  0
   -2.2820   19.5340  -33.8300 C   0  0  0  0  0  0  0  0  0  0  0  0
   -1.0410   18.9140  -34.2560 N   0  0  0  0  0  0  0  0  0  0  0  0
   -0.8480   17.4650  -34.1270 C   0  0  0  0  0  0  0  0  0  0  0  0
    0.0440   19.7290  -34.8160 C   0  0  0  0  0  0  0  0  0  0  0  0
   -2.3930   20.9280  -33.7500 C   0  0  0  0  0  0  0  0  0  0  0  0
   -3.5920   21.5260  -33.3700 C   0  0  0  0  0  0  0  0  0  0  0  0
   -4.7140   20.7460  -33.0380 C   0  0  0  0  0  0  0  0  0  0  0  0
   -3.1473   22.8760  -29.9508 H   0  0  0  0  0  0  0  0  0  0  0  0
   -4.1429   22.7821  -31.4430 H   0  0  0  0  0  0  0  0  0  0  0  0
   -2.6109   23.7199  -31.4430 H   0  0  0  0  0  0  0  0  0  0  0  0
   -3.6149   24.8020  -28.4090 H   0  0  0  0  0  0  0  0  0  0  0  0
   -5.3237   25.2507  -28.7336 H   0  0  0  0  0  0  0  0  0  0  0  0
   -4.8333   23.5226  -28.7336 H   0  0  0  0  0  0  0  0  0  0  0  0
   -6.1088   25.5252  -30.7454 H   0  0  0  0  0  0  0  0  0  0  0  0
   -5.2026   25.0706  -32.2392 H   0  0  0  0  0  0  0  0  0  0  0  0
   -5.8469   22.7724  -30.4771 H   0  0  0  0  0  0  0  0  0  0  0  0
   -7.2931   23.6275  -31.1380 H   0  0  0  0  0  0  0  0  0  0  0  0
   -5.8760   23.3720  -33.4190 H   0  0  0  0  0  0  0  0  0  0  0  0
   -8.4461   22.2305  -32.3244 H   0  0  0  0  0  0  0  0  0  0  0  0
  -10.4649   20.8077  -32.0445 H   0  0  0  0  0  0  0  0  0  0  0  0
  -10.2652   18.3291  -32.1201 H   0  0  0  0  0  0  0  0  0  0  0  0
   -8.0484   17.2593  -32.4440 H   0  0  0  0  0  0  0  0  0  0  0  0
   -5.4905   16.9589  -31.2929 H   0  0  0  0  0  0  0  0  0  0  0  0
   -6.3437   16.5498  -32.8198 H   0  0  0  0  0  0  0  0  0  0  0  0
   -4.5619   16.7774  -32.8198 H   0  0  0  0  0  0  0  0  0  0  0  0
   -3.3283   17.6540  -33.5672 H   0  0  0  0  0  0  0  0  0  0  0  0
   -0.8118   17.1933  -33.0617 H   0  0  0  0  0  0  0  0  0  0  0  0
   -1.6840   16.9392  -34.6113 H   0  0  0  0  0  0  0  0  0  0  0  0
    0.0965   17.1763  -34.6113 H   0  0  0  0  0  0  0  0  0  0  0  0
    0.6313   20.1702  -33.9972 H   0  0  0  0  0  0  0  0  0  0  0  0
    0.6963   19.0956  -35.4352 H   0  0  0  0  0  0  0  0  0  0  0  0
   -0.3826   20.5319  -35.4352 H   0  0  0  0  0  0  0  0  0  0  0  0
   -1.5234   21.5575  -33.9900 H   0  0  0  0  0  0  0  0  0  0  0  0
   -3.6623   22.6230  -33.3290 H   0  0  0  0  0  0  0  0  0  0  0  0
  1  2  1  0
  2  3  1  0
  2  4  1  0
  4  5  1  0
  5  6  1  0
  6  7  1  0
  7  8  2  0
  8  9  1  0
  9 10  2  0
 10 11  1  0
 11 12  2  0
 12 13  1  0
 13 14  2  0
 14 15  1  0
 14 16  1  0
 16 17  2  0
 17 18  1  0
 18 19  1  0
 19 20  1  0
 19 21  1  0
 18 22  2  0
 22 23  1  0
 23 24  2  0
 24  7  1  0
 13  8  1  0
 24 16  1  0
  1 25  1  0
  1 26  1  0
  1 27  1  0
  3 28  1  0
  3 29  1  0
  3 30  1  0
  4 31  1  0
  4 32  1  0
  5 33  1  0
  5 34  1  0
  6 35  1  0
  9 36  1  0
 10 37  1  0
 11 38  1  0
 12 39  1  0
 15 40  1  0
 15 41  1  0
 15 42  1  0
 17 43  1  0
 20 44  1  0
 20 45  1  0
 20 46  1  0
 21 47  1  0
 21 48  1  0
 21 49  1  0
 22 50  1  0
 23 51  1  0
M  CHG  1  14   1
M  END
>  <UniqueID>  (8) 
8

>  <SMILES>  (8) 
CN(C)CCNc1c2ccccc2[n+](C)c2cc(N(C)C)ccc12

>  <Energy>  (8) 
78.3324256149609

>  <Genealogy>  (8) 
CN(C)CCNc1c2ccccc2[n+](C)c2cc(N(C)C)ccc12 (3D coordinates assigned)
CN(C)CCNc1c2ccccc2[n+](C)c2cc(N(C)C)ccc12 (optimized conformer: 78.3324256149609 kcal/mol)

>  <smiles>  (8) 
CN(C)CCNc1c2ccccc2[n+](C)c2cc(N(C)C)ccc12

>  <score_type>  (8) 
oracle

>  <origin>  (8) 
adg

>  <m_score__min__energy>  (8) 
-8.2400000000000002

>  <m_primary>  (8) 
energy

$$$$
8:0
     RDKit          3D

 79 81  0  0  0  0  0  0  0  0999 V2000
   -0.8120   29.6840  -25.2480 C   0  0  0  0  0  0  0  0  0  0  0  0
   -0.5160   28.3220  -25.8730 C   0  0  0  0  0  0  0  0  0  0  0  0
   -1.1840   27.1890  -25.0590 C   0  0  0  0  0  0  0  0  0  0  0  0
   -1.2040   25.8490  -25.7300 N   0  0  0  0  0  0  0  0  0  0  0  0
   -0.6170   24.8250  -24.8260 C   0  0  0  0  0  0  0  0  0  0  0  0
   -2.6250   25.4670  -25.9520 C   0  0  0  0  0  0  0  0  0  0  0  0
   -0.4510   25.8090  -27.0280 C   0  0  0  0  0  0  0  0  0  0  0  0
   -0.6300   24.5300  -27.8710 C   0  0  0  0  0  0  0  0  0  0  0  0
   -1.4800   24.7800  -28.9910 O   0  0  0  0  0  0  0  0  0  0  0  0
   -2.0760   23.7860  -29.7810 C   0  0  0  0  0  0  0  0  0  0  0  0
   -1.4330   22.5670  -30.0440 C   0  0  0  0  0  0  0  0  0  0  0  0
   -2.0330   21.5740  -30.8560 C   0  0  0  0  0  0  0  0  0  0  0  0
   -3.2580   21.8880  -31.4990 C   0  0  0  0  0  0  0  0  0  0  0  0
   -3.9130   23.0980  -31.1930 C   0  0  0  0  0  0  0  0  0  0  0  0
   -3.3230   24.0500  -30.3490 C   0  0  0  0  0  0  0  0  0  0  0  0
   -3.9440   25.2740  -30.0530 O   0  0  0  0  0  0  0  0  0  0  0  0
   -5.3470   25.5070  -30.1150 C   0  0  0  0  0  0  0  0  0  0  0  0
   -3.8060   20.9840  -32.4270 C   0  0  0  0  0  0  0  0  0  0  0  0
   -4.9840   21.3280  -33.1790 N   0  0  0  0  0  0  0  0  0  0  0  0
   -6.3410   21.1270  -32.6590 C   0  0  0  0  0  0  0  0  0  0  0  0
   -7.0750   20.0070  -33.4210 C   0  0  0  0  0  0  0  0  0  0  0  0
   -8.3760   19.6590  -32.7900 N   0  0  0  0  0  0  0  0  0  0  0  0
   -9.2020   20.8220  -32.3430 C   0  0  0  0  0  0  0  0  0  0  0  0
   -9.0240   21.2490  -30.8750 C   0  0  0  0  0  0  0  0  0  0  0  0
   -8.2340   18.6050  -31.7500 C   0  0  0  0  0  0  0  0  0  0  0  0
   -6.8830   17.8780  -31.7490 C   0  0  0  0  0  0  0  0  0  0  0  0
   -3.1420   19.7730  -32.6900 C   0  0  0  0  0  0  0  0  0  0  0  0
   -3.6580   18.8580  -33.6340 C   0  0  0  0  0  0  0  0  0  0  0  0
   -2.9600   17.6990  -33.9560 C   0  0  0  0  0  0  0  0  0  0  0  0
   -1.7360   17.4340  -33.3550 C   0  0  0  0  0  0  0  0  0  0  0  0
   -1.2150   18.3130  -32.4060 C   0  0  0  0  0  0  0  0  0  0  0  0
   -1.9230   19.4810  -32.0210 C   0  0  0  0  0  0  0  0  0  0  0  0
   -1.4430   20.3350  -31.0460 N   0  0  0  0  0  0  0  0  0  0  0  0
   -0.3290   19.9010  -30.1710 C   0  0  0  0  0  0  0  0  0  0  0  0
   -0.7929   29.5963  -24.1517 H   0  0  0  0  0  0  0  0  0  0  0  0
   -0.0505   30.4090  -25.5711 H   0  0  0  0  0  0  0  0  0  0  0  0
   -1.8058   30.0275  -25.5711 H   0  0  0  0  0  0  0  0  0  0  0  0
   -0.9049   28.3048  -26.9018 H   0  0  0  0  0  0  0  0  0  0  0  0
    0.5724   28.1624  -25.8731 H   0  0  0  0  0  0  0  0  0  0  0  0
   -0.6396   27.0859  -24.1087 H   0  0  0  0  0  0  0  0  0  0  0  0
   -2.2363   27.4832  -24.9322 H   0  0  0  0  0  0  0  0  0  0  0  0
   -0.7858   25.1195  -23.7797 H   0  0  0  0  0  0  0  0  0  0  0  0
   -1.0946   23.8522  -25.0147 H   0  0  0  0  0  0  0  0  0  0  0  0
    0.4638   24.7456  -25.0147 H   0  0  0  0  0  0  0  0  0  0  0  0
   -3.1245   25.3327  -24.9812 H   0  0  0  0  0  0  0  0  0  0  0  0
   -3.1336   26.2603  -26.5194 H   0  0  0  0  0  0  0  0  0  0  0  0
   -2.6673   24.5256  -26.5194 H   0  0  0  0  0  0  0  0  0  0  0  0
   -0.7828   26.6631  -27.6367 H   0  0  0  0  0  0  0  0  0  0  0  0
    0.6143   25.8394  -26.7554 H   0  0  0  0  0  0  0  0  0  0  0  0
    0.3535   24.1943  -28.2316 H   0  0  0  0  0  0  0  0  0  0  0  0
   -1.0909   23.7534  -27.2429 H   0  0  0  0  0  0  0  0  0  0  0  0
   -0.4402   22.3783  -29.6096 H   0  0  0  0  0  0  0  0  0  0  0  0
   -4.9049   23.2992  -31.6240 H   0  0  0  0  0  0  0  0  0  0  0  0
   -5.7529   25.5744  -29.0949 H   0  0  0  0  0  0  0  0  0  0  0  0
   -5.5390   26.4493  -30.6490 H   0  0  0  0  0  0  0  0  0  0  0  0
   -5.8332   24.6773  -30.6490 H   0  0  0  0  0  0  0  0  0  0  0  0
   -4.8660   21.8750  -34.0630 H   0  0  0  0  0  0  0  0  0  0  0  0
   -6.2799   20.8552  -31.5949 H   0  0  0  0  0  0  0  0  0  0  0  0
   -6.9045   22.0624  -32.7913 H   0  0  0  0  0  0  0  0  0  0  0  0
   -7.2596   20.3421  -34.4523 H   0  0  0  0  0  0  0  0  0  0  0  0
   -6.4383   19.1102  -33.4000 H   0  0  0  0  0  0  0  0  0  0  0  0
   -8.9420   19.1910  -33.5400 H   0  0  0  0  0  0  0  0  0  0  0  0
   -8.9438   21.6824  -32.9778 H   0  0  0  0  0  0  0  0  0  0  0  0
  -10.2486   20.4955  -32.4330 H   0  0  0  0  0  0  0  0  0  0  0  0
   -9.3622   20.4377  -30.2136 H   0  0  0  0  0  0  0  0  0  0  0  0
   -7.9623   21.4616  -30.6811 H   0  0  0  0  0  0  0  0  0  0  0  0
   -9.6203   22.1528  -30.6811 H   0  0  0  0  0  0  0  0  0  0  0  0
   -8.3696   19.0759  -30.7652 H   0  0  0  0  0  0  0  0  0  0  0  0
   -8.9947   17.8433  -31.9762 H   0  0  0  0  0  0  0  0  0  0  0  0
   -6.5607   17.7046  -30.7117 H   0  0  0  0  0  0  0  0  0  0  0  0
   -6.9854   16.9132  -32.2673 H   0  0  0  0  0  0  0  0  0  0  0  0
   -6.1342   18.4950  -32.2673 H   0  0  0  0  0  0  0  0  0  0  0  0
   -4.6229   19.0644  -34.1201 H   0  0  0  0  0  0  0  0  0  0  0  0
   -3.3776   16.9914  -34.6874 H   0  0  0  0  0  0  0  0  0  0  0  0
   -1.1758   16.5277  -33.6286 H   0  0  0  0  0  0  0  0  0  0  0  0
   -0.2384   18.0973  -31.9480 H   0  0  0  0  0  0  0  0  0  0  0  0
   -0.6240   20.0159  -29.1176 H   0  0  0  0  0  0  0  0  0  0  0  0
   -0.0940   18.8455  -30.3729 H   0  0  0  0  0  0  0  0  0  0  0  0
    0.5581   20.5193  -30.3729 H   0  0  0  0  0  0  0  0  0  0  0  0
  1  2  1  0
  2  3  1  0
  3  4  1  0
  4  5  1  0
  4  6  1  0
  4  7  1  0
  7  8  1  0
  8  9  1  0
  9 10  1  0
 10 11  2  0
 11 12  1  0
 12 13  2  0
 13 14  1  0
 14 15  2  0
 15 16  1  0
 16 17  1  0
 13 18  1  0
 18 19  1  0
 19 20  1  0
 20 21  1  0
 21 22  1  0
 22 23  1  0
 23 24  1  0
 22 25  1  0
 25 26  1  0
 18 27  2  0
 27 28  1  0
 28 29  2  0
 29 30  1  0
 30 31  2  0
 31 32  1  0
 32 33  2  0
 33 34  1  0
 15 10  1  0
 32 27  1  0
 33 12  1  0
  1 35  1  0
  1 36  1  0
  1 37  1  0
  2 38  1  0
  2 39  1  0
  3 40  1  0
  3 41  1  0
  5 42  1  0
  5 43  1  0
  5 44  1  0
  6 45  1  0
  6 46  1  0
  6 47  1  0
  7 48  1  0
  7 49  1  0
  8 50  1  0
  8 51  1  0
 11 52  1  0
 14 53  1  0
 17 54  1  0
 17 55  1  0
 17 56  1  0
 19 57  1  0
 20 58  1  0
 20 59  1  0
 21 60  1  0
 21 61  1  0
 22 62  1  0
 23 63  1  0
 23 64  1  0
 24 65  1  0
 24 66  1  0
 24 67  1  0
 25 68  1  0
 25 69  1  0
 26 70  1  0
 26 71  1  0
 26 72  1  0
 28 73  1  0
 29 74  1  0
 30 75  1  0
 31 76  1  0
 34 77  1  0
 34 78  1  0
 34 79  1  0
M  CHG  3   4   1  22   1  33   1
M  END
>  <UniqueID>  (9) 
9

>  <SMILES>  (9) 
CCC[N+](C)(C)CCOc1cc2c(cc1OC)c(NCC[NH+](CC)CC)c1ccccc1[n+]2C

>  <Energy>  (9) 
121.29102204298135

>  <Genealogy>  (9) 
CCC[N+](C)(C)CCOc1cc2c(cc1OC)c(NCC[NH+](CC)CC)c1ccccc1[n+]2C (protonated)
CCC[N+](C)(C)CCOc1cc2c(cc1OC)c(NCC[NH+](CC)CC)c1ccccc1[n+]2C (3D coordinates assigned)
CCC[N+](C)(C)CCOc1cc2c(cc1OC)c(NCC[NH+](CC)CC)c1ccccc1[n+]2C (optimized conformer: 121.29102204298135 kcal/mol)

>  <smiles>  (9) 
CCC[N+](C)(C)CCOc1cc2c(cc1OC)c(NCCN(CC)CC)c1ccccc1[n+]2C

>  <score_type>  (9) 
oracle

>  <origin>  (9) 
adg

>  <m_score__min__energy>  (9) 
-7.4800000000000004

>  <m_primary>  (9) 
energy

$$$$
9:0
     RDKit          3D

 69 71  0  0  0  0  0  0  0  0999 V2000
   -0.1370   20.8480  -35.1800 C   0  0  0  0  0  0  0  0  0  0  0  0
   -0.8270   21.5250  -33.9990 C   0  0  0  0  0  0  0  0  0  0  0  0
   -1.8560   20.6290  -33.4220 N   0  0  0  0  0  0  0  0  0  0  0  0
   -1.4000   19.2280  -33.4610 C   0  0  0  0  0  0  0  0  0  0  0  0
   -2.1850   21.0340  -32.0360 C   0  0  0  0  0  0  0  0  0  0  0  0
   -3.6030   21.6340  -31.8990 C   0  0  0  0  0  0  0  0  0  0  0  0
   -4.3990   21.5850  -33.1520 N   0  0  0  0  0  0  0  0  0  0  0  0
   -5.6090   20.7940  -32.9860 C   0  0  0  0  0  0  0  0  0  0  0  0
   -5.6190   19.4360  -33.4270 C   0  0  0  0  0  0  0  0  0  0  0  0
   -4.5440   18.8740  -34.1640 C   0  0  0  0  0  0  0  0  0  0  0  0
   -4.5740   17.5520  -34.6000 C   0  0  0  0  0  0  0  0  0  0  0  0
   -5.6740   16.7570  -34.3300 C   0  0  0  0  0  0  0  0  0  0  0  0
   -6.7460   17.2740  -33.6100 C   0  0  0  0  0  0  0  0  0  0  0  0
   -6.7310   18.6090  -33.1270 C   0  0  0  0  0  0  0  0  0  0  0  0
   -7.7800   19.1070  -32.3940 N   0  0  0  0  0  0  0  0  0  0  0  0
   -8.7530   18.1760  -31.7760 C   0  0  0  0  0  0  0  0  0  0  0  0
   -7.9250   20.4670  -32.2290 C   0  0  0  0  0  0  0  0  0  0  0  0
   -9.1760   20.9990  -31.8450 C   0  0  0  0  0  0  0  0  0  0  0  0
   -9.3440   22.3480  -31.6110 C   0  0  0  0  0  0  0  0  0  0  0  0
   -8.2770   23.2110  -31.7440 C   0  0  0  0  0  0  0  0  0  0  0  0
   -7.0080   22.7560  -32.1570 C   0  0  0  0  0  0  0  0  0  0  0  0
   -5.9620   23.6950  -32.2530 O   0  0  0  0  0  0  0  0  0  0  0  0
   -5.6230   24.6220  -31.2140 C   0  0  0  0  0  0  0  0  0  0  0  0
   -5.2920   23.9130  -29.8950 C   0  0  0  0  0  0  0  0  0  0  0  0
   -4.0100   24.4670  -29.2190 C   0  0  0  0  0  0  0  0  0  0  0  0
   -3.6480   23.8190  -27.9190 N   0  0  0  0  0  0  0  0  0  0  0  0
   -4.2090   24.5530  -26.7600 C   0  0  0  0  0  0  0  0  0  0  0  0
   -4.2080   22.4450  -27.9160 C   0  0  0  0  0  0  0  0  0  0  0  0
   -2.1750   23.7150  -27.7720 C   0  0  0  0  0  0  0  0  0  0  0  0
   -6.8240   21.3570  -32.4620 C   0  0  0  0  0  0  0  0  0  0  0  0
    0.6016   20.1233  -34.8069 H   0  0  0  0  0  0  0  0  0  0  0  0
   -0.8867   20.3253  -35.7922 H   0  0  0  0  0  0  0  0  0  0  0  0
    0.3714   21.6075  -35.7922 H   0  0  0  0  0  0  0  0  0  0  0  0
   -0.0785   21.7616  -33.2284 H   0  0  0  0  0  0  0  0  0  0  0  0
   -1.3121   22.4481  -34.3492 H   0  0  0  0  0  0  0  0  0  0  0  0
   -1.2781   18.8534  -32.4340 H   0  0  0  0  0  0  0  0  0  0  0  0
   -2.1448   18.6145  -33.9891 H   0  0  0  0  0  0  0  0  0  0  0  0
   -0.4368   19.1705  -33.9891 H   0  0  0  0  0  0  0  0  0  0  0  0
   -2.1155   20.1487  -31.3869 H   0  0  0  0  0  0  0  0  0  0  0  0
   -1.4687   21.8163  -31.7445 H   0  0  0  0  0  0  0  0  0  0  0  0
   -4.1435   21.0725  -31.1227 H   0  0  0  0  0  0  0  0  0  0  0  0
   -3.4776   22.6959  -31.6408 H   0  0  0  0  0  0  0  0  0  0  0  0
   -3.8300   21.2270  -33.9470 H   0  0  0  0  0  0  0  0  0  0  0  0
   -4.6400   22.5360  -33.5040 H   0  0  0  0  0  0  0  0  0  0  0  0
   -3.6675   19.4969  -34.3959 H   0  0  0  0  0  0  0  0  0  0  0  0
   -3.7220   17.1389  -35.1599 H   0  0  0  0  0  0  0  0  0  0  0  0
   -5.7007   15.7161  -34.6848 H   0  0  0  0  0  0  0  0  0  0  0  0
   -7.6207   16.6373  -33.4113 H   0  0  0  0  0  0  0  0  0  0  0  0
   -8.6812   18.2447  -30.6805 H   0  0  0  0  0  0  0  0  0  0  0  0
   -9.7710   18.4450  -32.0944 H   0  0  0  0  0  0  0  0  0  0  0  0
   -8.5291   17.1472  -32.0944 H   0  0  0  0  0  0  0  0  0  0  0  0
  -10.0355   20.3223  -31.7300 H   0  0  0  0  0  0  0  0  0  0  0  0
  -10.3307   22.7358  -31.3178 H   0  0  0  0  0  0  0  0  0  0  0  0
   -8.4190   24.2791  -31.5228 H   0  0  0  0  0  0  0  0  0  0  0  0
   -4.7473   25.2068  -31.5320 H   0  0  0  0  0  0  0  0  0  0  0  0
   -6.4942   25.2709  -31.0409 H   0  0  0  0  0  0  0  0  0  0  0  0
   -6.1379   24.0435  -29.2041 H   0  0  0  0  0  0  0  0  0  0  0  0
   -5.1127   22.8524  -30.1254 H   0  0  0  0  0  0  0  0  0  0  0  0
   -3.1699   24.3273  -29.9152 H   0  0  0  0  0  0  0  0  0  0  0  0
   -4.2164   25.5226  -28.9886 H   0  0  0  0  0  0  0  0  0  0  0  0
   -3.8553   24.0902  -25.8268 H   0  0  0  0  0  0  0  0  0  0  0  0
   -3.8804   25.6021  -26.7965 H   0  0  0  0  0  0  0  0  0  0  0  0
   -5.3076   24.5114  -26.7965 H   0  0  0  0  0  0  0  0  0  0  0  0
   -4.3456   22.1074  -26.8782 H   0  0  0  0  0  0  0  0  0  0  0  0
   -5.1785   22.4435  -28.4338 H   0  0  0  0  0  0  0  0  0  0  0  0
   -3.5151   21.7655  -28.4338 H   0  0  0  0  0  0  0  0  0  0  0  0
   -1.9135   23.6965  -26.7037 H   0  0  0  0  0  0  0  0  0  0  0  0
   -1.8231   22.7898  -28.2517 H   0  0  0  0  0  0  0  0  0  0  0  0
   -1.6965   24.5816  -28.2517 H   0  0  0  0  0  0  0  0  0  0  0  0
  1  2  1  0
  2  3  1  0
  3  4  1  0
  3  5  1  0
  5  6  1  0
  6  7  1  0
  7  8  1  0
  8  9  2  0
  9 10  1  0
 10 11  2  0
 11 12  1  0
 12 13  2  0
 13 14  1  0
 14 15  2  0
 15 16  1  0
 15 17  1  0
 17 18  2  0
 18 19  1  0
 19 20  2  0
 20 21  1  0
 21 22  1  0
 22 23  1  0
 23 24  1  0
 24 25  1  0
 25 26  1  0
 26 27  1  0
 26 28  1  0
 26 29  1  0
 21 30  2  0
 30  8  1  0
 14  9  1  0
 30 17  1  0
  1 31  1  0
  1 32  1  0
  1 33  1  0
  2 34  1  0
  2 35  1  0
  4 36  1  0
  4 37  1  0
  4 38  1  0
  5 39  1  0
  5 40  1  0
  6 41  1  0
  6 42  1  0
  7 43  1  0
  7 44  1  0
 10 45  1  0
 11 46  1  0
 12 47  1  0
 13 48  1  0
 16 49  1  0
 16 50  1  0
 16 51  1  0
 18 52  1  0
 19 53  1  0
 20 54  1  0
 23 55  1  0
 23 56  1  0
 24 57  1  0
 24 58  1  0
 25 59  1  0
 25 60  1  0
 27 61  1  0
 27 62  1  0
 27 63  1  0
 28 64  1  0
 28 65  1  0
 28 66  1  0
 29 67  1  0
 29 68  1  0
 29 69  1  0
M  CHG  3   7   1  15   1  26   1
M  END
>  <UniqueID>  (10) 
10

>  <SMILES>  (10) 
CCN(C)CC[NH2+]c1c2ccccc2[n+](C)c2cccc(OCCC[N+](C)(C)C)c12

>  <Energy>  (10) 
111.76066179745158

>  <Genealogy>  (10) 
CCN(C)CC[NH2+]c1c2ccccc2[n+](C)c2cccc(OCCC[N+](C)(C)C)c12 (protonated)
CCN(C)CC[NH2+]c1c2ccccc2[n+](C)c2cccc(OCCC[N+](C)(C)C)c12 (3D coordinates assigned)
CCN(C)CC[NH2+]c1c2ccccc2[n+](C)c2cccc(OCCC[N+](C)(C)C)c12 (optimized conformer: 111.76066179745158 kcal/mol)

>  <smiles>  (10) 
CCN(C)CCNc1c2ccccc2[n+](C)c2cccc(OCCC[N+](C)(C)C)c12

>  <score_type>  (10) 
oracle

>  <origin>  (10) 
adg

>  <m_score__min__energy>  (10) 
-7.1799999999999997

>  <m_primary>  (10) 
energy

$$$$
10:0
     RDKit          3D

 47 49  0  0  0  0  0  0  0  0999 V2000
   -4.1930   22.2160  -32.4060 C   0  0  0  0  0  0  0  0  0  0  0  0
   -5.1400   22.2930  -31.2830 N   0  0  0  0  0  0  0  0  0  0  0  0
   -6.4520   22.8030  -31.7110 C   0  0  0  0  0  0  0  0  0  0  0  0
   -4.5830   22.9910  -30.1010 C   0  0  0  0  0  0  0  0  0  0  0  0
   -4.0550   24.3880  -30.3740 C   0  0  0  0  0  0  0  0  0  0  0  0
   -4.6380   25.1280  -31.2080 O   0  0  0  0  0  0  0  0  0  0  0  0
   -2.9650   24.9460  -29.6260 N   0  0  0  0  0  0  0  0  0  0  0  0
   -1.7620   24.2360  -29.1870 C   0  0  2  0  0  0  0  0  0  0  0  0
   -2.1510   23.0640  -28.2700 C   0  0  0  0  0  0  0  0  0  0  0  0
   -2.0010   23.4930  -26.8540 N   0  0  0  0  0  0  0  0  0  0  0  0
   -1.0940   22.6080  -26.0910 C   0  0  0  0  0  0  0  0  0  0  0  0
   -1.0120   21.2420  -26.7280 C   0  0  0  0  0  0  0  0  0  0  0  0
   -1.9910   20.2750  -26.4440 C   0  0  0  0  0  0  0  0  0  0  0  0
   -1.9230   19.0090  -27.0350 C   0  0  0  0  0  0  0  0  0  0  0  0
   -0.8810   18.7010  -27.9120 C   0  0  0  0  0  0  0  0  0  0  0  0
    0.0980   19.6570  -28.1990 C   0  0  0  0  0  0  0  0  0  0  0  0
    1.1100   19.3560  -29.0510 F   0  0  0  0  0  0  0  0  0  0  0  0
    0.0350   20.9240  -27.6100 C   0  0  0  0  0  0  0  0  0  0  0  0
   -1.5860   24.9080  -26.9370 C   0  0  1  0  0  0  0  0  0  0  0  0
   -0.6420   25.5360  -25.8840 C   0  0  2  0  0  0  0  0  0  0  0  0
   -1.3770   26.0140  -24.8130 F   0  0  0  0  0  0  0  0  0  0  0  0
    0.1360   26.5970  -26.4420 O   0  0  0  0  0  0  0  0  0  0  0  0
   -0.5520   27.2860  -27.4860 C   0  0  0  0  0  0  0  0  0  0  0  0
   -0.8500   26.4670  -28.6220 O   0  0  0  0  0  0  0  0  0  0  0  0
   -0.9160   25.0970  -28.2710 C   0  0  2  0  0  0  0  0  0  0  0  0
   -3.1678   22.1326  -32.0161 H   0  0  0  0  0  0  0  0  0  0  0  0
   -4.4243   21.3337  -33.0209 H   0  0  0  0  0  0  0  0  0  0  0  0
   -4.2787   23.1241  -33.0209 H   0  0  0  0  0  0  0  0  0  0  0  0
   -7.0602   23.0394  -30.8254 H   0  0  0  0  0  0  0  0  0  0  0  0
   -6.3130   23.7126  -32.3138 H   0  0  0  0  0  0  0  0  0  0  0  0
   -6.9638   22.0383  -32.3138 H   0  0  0  0  0  0  0  0  0  0  0  0
   -5.3772   23.0677  -29.3438 H   0  0  0  0  0  0  0  0  0  0  0  0
   -3.7206   22.3946  -29.7684 H   0  0  0  0  0  0  0  0  0  0  0  0
   -1.2354   23.9390  -30.1060 H   0  0  0  0  0  0  0  0  0  0  0  0
   -3.1955   22.7765  -28.4605 H   0  0  0  0  0  0  0  0  0  0  0  0
   -1.4992   22.2008  -28.4700 H   0  0  0  0  0  0  0  0  0  0  0  0
   -0.0894   23.0555  -26.0681 H   0  0  0  0  0  0  0  0  0  0  0  0
   -1.4885   22.4965  -25.0703 H   0  0  0  0  0  0  0  0  0  0  0  0
   -2.8139   20.5144  -25.7544 H   0  0  0  0  0  0  0  0  0  0  0  0
   -2.6914   18.2551  -26.8086 H   0  0  0  0  0  0  0  0  0  0  0  0
   -0.8304   17.7056  -28.3774 H   0  0  0  0  0  0  0  0  0  0  0  0
    0.8071   21.6737  -27.8377 H   0  0  0  0  0  0  0  0  0  0  0  0
   -2.5359   25.4313  -26.7532 H   0  0  0  0  0  0  0  0  0  0  0  0
    0.0463   24.7494  -25.5412 H   0  0  0  0  0  0  0  0  0  0  0  0
    0.0755   28.1257  -27.8192 H   0  0  0  0  0  0  0  0  0  0  0  0
   -1.5146   27.6180  -27.0698 H   0  0  0  0  0  0  0  0  0  0  0  0
    0.1409   24.7945  -28.3087 H   0  0  0  0  0  0  0  0  0  0  0  0
  1  2  1  0
  2  3  1  0
  2  4  1  0
  4  5  1  0
  5  6  2  0
  5  7  1  0
  7  8  1  0
  8  9  1  0
  9 10  1  0
 10 11  1  0
 11 12  1  0
 12 13  2  0
 13 14  1  0
 14 15  2  0
 15 16  1  0
 16 17  1  0
 16 18  2  0
 10 19  1  0
 19 20  1  0
 20 21  1  0
 20 22  1  0
 22 23  1  0
 23 24  1  0
 24 25  1  0
 25  8  1  0
 18 12  1  0
 25 19  1  0
  1 26  1  0
  1 27  1  0
  1 28  1  0
  3 29  1  0
  3 30  1  0
  3 31  1  0
  4 32  1  0
  4 33  1  0
  8 34  1  6
  9 35  1  0
  9 36  1  0
 11 37  1  0
 11 38  1  0
 13 39  1  0
 14 40  1  0
 15 41  1  0
 18 42  1  0
 19 43  1  6
 20 44  1  1
 23 45  1  0
 23 46  1  0
 25 47  1  1
M  CHG  1   7  -1
M  END
>  <UniqueID>  (11) 
11

>  <SMILES>  (11) 
CN(C)CC(=O)[N-][C@@H]1CN(Cc2cccc(F)c2)[C@H]2C(F)OCOC21

>  <Energy>  (11) 
83.49364896080236

>  <Genealogy>  (11) 
CN(C)CC(=O)[N-]C1CN(Cc2cccc(F)c2)C2C(F)OCOC12 (protonated)
CN(C)CC(=O)[N-][C@@H]1CN(Cc2cccc(F)c2)[C@H]2C(F)OCOC21 (chirality)
CN(C)CC(=O)[N-][C@@H]1CN(Cc2cccc(F)c2)[C@H]2C(F)OCOC21 (3D coordinates assigned)
CN(C)CC(=O)[N-][C@@H]1CN(Cc2cccc(F)c2)[C@H]2C(F)OCOC21 (nonaromatic ring conformer: 83.49364896080236 kcal/mol)

>  <smiles>  (11) 
CN(C)CC(=O)NC1CN(Cc2cccc(F)c2)C2C(F)OCOC12

>  <score_type>  (11) 
oracle

>  <origin>  (11) 
adg

>  <m_score__min__energy>  (11) 
-8.6300000000000008

>  <m_primary>  (11) 
energy

$$$$
11:0
     RDKit          3D

 43 45  0  0  0  0  0  0  0  0999 V2000
   -3.6230   23.7830  -28.7760 C   0  0  0  0  0  0  0  0  0  0  0  0
   -3.4990   23.9050  -30.2930 C   0  0  0  0  0  0  0  0  0  0  0  0
   -3.9730   25.2160  -30.7660 N   0  0  0  0  0  0  0  0  0  0  0  0
   -5.3950   25.2130  -31.1500 C   0  0  0  0  0  0  0  0  0  0  0  0
   -6.0200   23.7990  -31.1450 C   0  0  0  0  0  0  0  0  0  0  0  0
   -5.9660   23.1890  -32.4770 N   0  0  0  0  0  0  0  0  0  0  0  0
   -5.9390   21.7620  -32.6530 C   0  0  0  0  0  0  0  0  0  0  0  0
   -7.1080   21.0010  -32.4880 C   0  0  0  0  0  0  0  0  0  0  0  0
   -8.2780   21.5710  -31.9440 C   0  0  0  0  0  0  0  0  0  0  0  0
   -9.4370   20.8120  -31.8000 C   0  0  0  0  0  0  0  0  0  0  0  0
   -9.4460   19.4740  -32.1810 C   0  0  0  0  0  0  0  0  0  0  0  0
   -8.2960   18.8870  -32.7090 C   0  0  0  0  0  0  0  0  0  0  0  0
   -7.1070   19.6390  -32.8800 C   0  0  0  0  0  0  0  0  0  0  0  0
   -5.9680   19.0750  -33.4160 N   0  0  0  0  0  0  0  0  0  0  0  0
   -6.0970   17.8700  -34.2600 C   0  0  0  0  0  0  0  0  0  0  0  0
   -4.7510   19.7210  -33.2840 C   0  0  0  0  0  0  0  0  0  0  0  0
   -3.4940   19.0570  -33.4440 C   0  0  0  0  0  0  0  0  0  0  0  0
   -3.2900   17.3030  -33.3930 Cl  0  0  0  0  0  0  0  0  0  0  0  0
   -2.3070   19.7940  -33.4660 C   0  0  0  0  0  0  0  0  0  0  0  0
   -2.3220   21.1700  -33.2800 C   0  0  0  0  0  0  0  0  0  0  0  0
   -3.5200   21.8220  -33.0110 C   0  0  0  0  0  0  0  0  0  0  0  0
   -4.7350   21.1100  -32.9790 C   0  0  0  0  0  0  0  0  0  0  0  0
   -2.9183   24.4763  -28.2936 H   0  0  0  0  0  0  0  0  0  0  0  0
   -4.6499   24.0326  -28.4708 H   0  0  0  0  0  0  0  0  0  0  0  0
   -3.3901   22.7522  -28.4708 H   0  0  0  0  0  0  0  0  0  0  0  0
   -2.4434   23.7821  -30.5770 H   0  0  0  0  0  0  0  0  0  0  0  0
   -4.1206   23.1242  -30.7555 H   0  0  0  0  0  0  0  0  0  0  0  0
   -3.3990   25.5050  -31.5930 H   0  0  0  0  0  0  0  0  0  0  0  0
   -5.9507   25.8442  -30.4409 H   0  0  0  0  0  0  0  0  0  0  0  0
   -5.4584   25.5967  -32.1790 H   0  0  0  0  0  0  0  0  0  0  0  0
   -5.4659   23.1646  -30.4375 H   0  0  0  0  0  0  0  0  0  0  0  0
   -7.0747   23.8862  -30.8451 H   0  0  0  0  0  0  0  0  0  0  0  0
   -6.0240   23.8040  -33.3190 H   0  0  0  0  0  0  0  0  0  0  0  0
   -8.2751   22.6253  -31.6304 H   0  0  0  0  0  0  0  0  0  0  0  0
  -10.3462   21.2710  -31.3846 H   0  0  0  0  0  0  0  0  0  0  0  0
  -10.3628   18.8772  -32.0655 H   0  0  0  0  0  0  0  0  0  0  0  0
   -8.3123   17.8254  -32.9967 H   0  0  0  0  0  0  0  0  0  0  0  0
   -6.1921   16.9815  -33.6185 H   0  0  0  0  0  0  0  0  0  0  0  0
   -6.9905   17.9611  -34.8951 H   0  0  0  0  0  0  0  0  0  0  0  0
   -5.2044   17.7699  -34.8951 H   0  0  0  0  0  0  0  0  0  0  0  0
   -1.3498   19.2783  -33.6326 H   0  0  0  0  0  0  0  0  0  0  0  0
   -1.3860   21.7441  -33.3455 H   0  0  0  0  0  0  0  0  0  0  0  0
   -3.5191   22.9055  -32.8211 H   0  0  0  0  0  0  0  0  0  0  0  0
  1  2  1  0
  2  3  1  0
  3  4  1  0
  4  5  1  0
  5  6  1  0
  6  7  1  0
  7  8  2  0
  8  9  1  0
  9 10  2  0
 10 11  1  0
 11 12  2  0
 12 13  1  0
 13 14  2  0
 14 15  1  0
 14 16  1  0
 16 17  2  0
 17 18  1  0
 17 19  1  0
 19 20  2  0
 20 21  1  0
 21 22  2  0
 22  7  1  0
 13  8  1  0
 22 16  1  0
  1 23  1  0
  1 24  1  0
  1 25  1  0
  2 26  1  0
  2 27  1  0
  3 28  1  0
  4 29  1  0
  4 30  1  0
  5 31  1  0
  5 32  1  0
  6 33  1  0
  9 34  1  0
 10 35  1  0
 11 36  1  0
 12 37  1  0
 15 38  1  0
 15 39  1  0
 15 40  1  0
 19 41  1  0
 20 42  1  0
 21 43  1  0
M  CHG  1  14   1
M  END
>  <UniqueID>  (12) 
12

>  <SMILES>  (12) 
CCNCCNc1c2ccccc2[n+](C)c2c(Cl)cccc12

>  <Energy>  (12) 
76.80760737861327

>  <Genealogy>  (12) 
CCNCCNc1c2ccccc2[n+](C)c2c(Cl)cccc12 (3D coordinates assigned)
CCNCCNc1c2ccccc2[n+](C)c2c(Cl)cccc12 (optimized conformer: 76.80760737861327 kcal/mol)

>  <smiles>  (12) 
CCNCCNc1c2ccccc2[n+](C)c2c(Cl)cccc12

>  <score_type>  (12) 
oracle

>  <origin>  (12) 
adg

>  <m_score__min__energy>  (12) 
-8.8699999999999992

>  <m_primary>  (12) 
energy

$$$$
12:0
     RDKit          3D

 54 56  0  0  0  0  0  0  0  0999 V2000
   -1.1970   17.6730  -33.1110 C   0  0  0  0  0  0  0  0  0  0  0  0
   -0.0130   18.0200  -34.0210 C   0  0  0  0  0  0  0  0  0  0  0  0
   -0.3880   18.9540  -35.0960 N   0  0  0  0  0  0  0  0  0  0  0  0
    0.7250   19.8430  -35.4730 C   0  0  0  0  0  0  0  0  0  0  0  0
    0.4810   21.2820  -35.0030 C   0  0  0  0  0  0  0  0  0  0  0  0
   -0.8330   21.3750  -34.3460 N   0  0  0  0  0  0  0  0  0  0  0  0
   -0.7450   21.3140  -32.8790 C   0  0  0  0  0  0  0  0  0  0  0  0
   -2.1420   21.1490  -32.2760 C   0  0  0  0  0  0  0  0  0  0  0  0
   -3.1630   21.0380  -33.3150 N   0  0  0  0  0  0  0  0  0  0  0  0
   -4.5060   20.6630  -32.9660 C   0  0  0  0  0  0  0  0  0  0  0  0
   -5.0280   19.4270  -33.3890 C   0  0  0  0  0  0  0  0  0  0  0  0
   -4.2730   18.5690  -34.2180 C   0  0  0  0  0  0  0  0  0  0  0  0
   -4.8050   17.3640  -34.6690 C   0  0  0  0  0  0  0  0  0  0  0  0
   -6.1020   17.0040  -34.3250 C   0  0  0  0  0  0  0  0  0  0  0  0
   -6.8680   17.8360  -33.5110 C   0  0  0  0  0  0  0  0  0  0  0  0
   -6.3410   19.0500  -32.9990 C   0  0  0  0  0  0  0  0  0  0  0  0
   -7.0760   19.8670  -32.1600 N   0  0  0  0  0  0  0  0  0  0  0  0
   -8.3130   19.3550  -31.5280 C   0  0  0  0  0  0  0  0  0  0  0  0
   -6.6420   21.1510  -31.8880 C   0  0  0  0  0  0  0  0  0  0  0  0
   -7.4800   22.1030  -31.2590 C   0  0  0  0  0  0  0  0  0  0  0  0
   -7.0090   23.3710  -30.9230 C   0  0  0  0  0  0  0  0  0  0  0  0
   -5.6900   23.7410  -31.2070 C   0  0  0  0  0  0  0  0  0  0  0  0
   -5.1980   25.0450  -30.8390 N   0  0  0  0  0  0  0  0  0  0  0  0
   -5.9900   25.9590  -30.5260 O   0  0  0  0  0  0  0  0  0  0  0  0
   -3.8480   25.3050  -30.8210 O   0  0  0  0  0  0  0  0  0  0  0  0
   -4.8590   22.8300  -31.8710 C   0  0  0  0  0  0  0  0  0  0  0  0
   -5.3270   21.5520  -32.2470 C   0  0  0  0  0  0  0  0  0  0  0  0
   -0.8894   17.7631  -32.0587 H   0  0  0  0  0  0  0  0  0  0  0  0
   -2.0281   18.3653  -33.3107 H   0  0  0  0  0  0  0  0  0  0  0  0
   -1.5229   16.6416  -33.3107 H   0  0  0  0  0  0  0  0  0  0  0  0
    0.7779   18.4816  -33.4116 H   0  0  0  0  0  0  0  0  0  0  0  0
    0.3338   17.0881  -34.4913 H   0  0  0  0  0  0  0  0  0  0  0  0
   -1.1830   19.5430  -34.7520 H   0  0  0  0  0  0  0  0  0  0  0  0
   -0.7200   18.4130  -35.9290 H   0  0  0  0  0  0  0  0  0  0  0  0
    1.6519   19.4695  -35.0133 H   0  0  0  0  0  0  0  0  0  0  0  0
    0.8054   19.8480  -36.5700 H   0  0  0  0  0  0  0  0  0  0  0  0
    1.2672   21.5718  -34.2903 H   0  0  0  0  0  0  0  0  0  0  0  0
    0.5018   21.9566  -35.8716 H   0  0  0  0  0  0  0  0  0  0  0  0
   -1.2810   22.2850  -34.6120 H   0  0  0  0  0  0  0  0  0  0  0  0
   -0.1191   20.4578  -32.5871 H   0  0  0  0  0  0  0  0  0  0  0  0
   -0.2990   22.2475  -32.5054 H   0  0  0  0  0  0  0  0  0  0  0  0
   -2.1597   20.2388  -31.6585 H   0  0  0  0  0  0  0  0  0  0  0  0
   -2.3631   22.0386  -31.6679 H   0  0  0  0  0  0  0  0  0  0  0  0
   -3.0100   21.5450  -34.2170 H   0  0  0  0  0  0  0  0  0  0  0  0
   -3.2523   18.8560  -34.5110 H   0  0  0  0  0  0  0  0  0  0  0  0
   -4.1979   16.6965  -35.2982 H   0  0  0  0  0  0  0  0  0  0  0  0
   -6.5255   16.0592  -34.6964 H   0  0  0  0  0  0  0  0  0  0  0  0
   -7.8994   17.5467  -33.2609 H   0  0  0  0  0  0  0  0  0  0  0  0
   -8.2103   19.3975  -30.4336 H   0  0  0  0  0  0  0  0  0  0  0  0
   -9.1674   19.9734  -31.8404 H   0  0  0  0  0  0  0  0  0  0  0  0
   -8.4804   18.3137  -31.8404 H   0  0  0  0  0  0  0  0  0  0  0  0
   -8.5227   21.8369  -31.0311 H   0  0  0  0  0  0  0  0  0  0  0  0
   -7.6813   24.0882  -30.4294 H   0  0  0  0  0  0  0  0  0  0  0  0
   -3.8225   23.1154  -32.1039 H   0  0  0  0  0  0  0  0  0  0  0  0
  1  2  1  0
  2  3  1  0
  3  4  1  0
  4  5  1  0
  5  6  1  0
  6  7  1  0
  7  8  1  0
  8  9  1  0
  9 10  1  0
 10 11  2  0
 11 12  1  0
 12 13  2  0
 13 14  1  0
 14 15  2  0
 15 16  1  0
 16 17  2  0
 17 18  1  0
 17 19  1  0
 19 20  2  0
 20 21  1  0
 21 22  2  0
 22 23  1  0
 23 24  2  0
 23 25  1  0
 22 26  1  0
 26 27  2  0
 27 10  1  0
 16 11  1  0
 27 19  1  0
  1 28  1  0
  1 29  1  0
  1 30  1  0
  2 31  1  0
  2 32  1  0
  3 33  1  0
  3 34  1  0
  4 35  1  0
  4 36  1  0
  5 37  1  0
  5 38  1  0
  6 39  1  0
  7 40  1  0
  7 41  1  0
  8 42  1  0
  8 43  1  0
  9 44  1  0
 12 45  1  0
 13 46  1  0
 14 47  1  0
 15 48  1  0
 18 49  1  0
 18 50  1  0
 18 51  1  0
 20 52  1  0
 21 53  1  0
 26 54  1  0
M  CHG  4   3   1  17   1  23   1  25  -1
M  END
>  <UniqueID>  (13) 
13

>  <SMILES>  (13) 
CC[NH2+]CCNCCNc1c2ccccc2[n+](C)c2ccc([N+](=O)[O-])cc12

>  <Energy>  (13) 
77.44499446215391

>  <Genealogy>  (13) 
CC[NH2+]CCNCCNc1c2ccccc2[n+](C)c2ccc([N+](=O)[O-])cc12 (protonated)
CC[NH2+]CCNCCNc1c2ccccc2[n+](C)c2ccc([N+](=O)[O-])cc12 (3D coordinates assigned)
CC[NH2+]CCNCCNc1c2ccccc2[n+](C)c2ccc([N+](=O)[O-])cc12 (optimized conformer: 77.44499446215391 kcal/mol)

>  <smiles>  (13) 
CCNCCNCCNc1c2ccccc2[n+](C)c2ccc([N+](=O)[O-])cc12

>  <score_type>  (13) 
oracle

>  <origin>  (13) 
adg

>  <m_score__min__energy>  (13) 
-8.8699999999999992

>  <m_primary>  (13) 
energy

$$$$
13:0
     RDKit          3D

 68 73  0  0  0  0  0  0  0  0999 V2000
   -1.1070   26.7580  -24.2510 C   0  0  0  0  0  0  0  0  0  0  0  0
    0.3120   27.1870  -23.8890 C   0  0  0  0  0  0  0  0  0  0  0  0
    1.0860   26.0520  -23.3660 N   0  0  0  0  0  0  0  0  0  0  0  0
    1.8760   25.4200  -24.4360 C   0  0  0  0  0  0  0  0  0  0  0  0
    1.3960   23.9880  -24.7160 C   0  0  0  0  0  0  0  0  0  0  0  0
    1.7030   23.5730  -26.0890 N   0  0  0  0  0  0  0  0  0  0  0  0
    0.6840   23.2690  -27.0630 C   0  0  0  0  0  0  0  0  0  0  0  0
    0.4630   21.9500  -27.5190 C   0  0  0  0  0  0  0  0  0  0  0  0
   -0.5390   21.6660  -28.4740 C   0  0  0  0  0  0  0  0  0  0  0  0
   -1.3400   22.6980  -29.0130 C   0  0  0  0  0  0  0  0  0  0  0  0
   -1.1340   23.9980  -28.5110 C   0  0  0  0  0  0  0  0  0  0  0  0
   -1.7970   25.1950  -28.7470 C   0  0  0  0  0  0  0  0  0  0  0  0
   -1.1620   26.1410  -27.9590 C   0  0  0  0  0  0  0  0  0  0  0  0
   -0.1600   25.5790  -27.2540 N   0  0  0  0  0  0  0  0  0  0  0  0
   -0.1490   24.2720  -27.5850 C   0  0  0  0  0  0  0  0  0  0  0  0
   -2.5010   22.3010  -29.9090 C   0  0  1  0  0  0  0  0  0  0  0  0
   -3.0230   23.3990  -30.6370 O   0  0  0  0  0  0  0  0  0  0  0  0
   -4.0820   23.0490  -31.5320 C   0  0  0  0  0  0  0  0  0  0  0  0
   -4.6200   21.5940  -31.4320 C   0  0  1  0  0  0  0  0  0  0  0  0
   -5.5670   21.3180  -32.5220 N   0  0  0  0  0  0  0  0  0  0  0  0
   -6.7290   20.4740  -32.3950 C   0  0  0  0  0  0  0  0  0  0  0  0
   -8.0220   21.0020  -32.2110 C   0  0  0  0  0  0  0  0  0  0  0  0
   -9.1220   20.1490  -32.0850 C   0  0  0  0  0  0  0  0  0  0  0  0
   -8.9480   18.7650  -32.1470 C   0  0  0  0  0  0  0  0  0  0  0  0
   -7.6730   18.2310  -32.3390 C   0  0  0  0  0  0  0  0  0  0  0  0
   -6.5700   19.0780  -32.4670 C   0  0  0  0  0  0  0  0  0  0  0  0
   -3.4630   20.5600  -31.4440 C   0  0  0  0  0  0  0  0  0  0  0  0
   -2.1340   21.1420  -30.8840 C   0  0  1  0  0  0  0  0  0  0  0  0
   -1.2170   21.5860  -32.0380 C   0  0  0  0  0  0  0  0  0  0  0  0
   -0.4630   20.3150  -32.4410 C   0  0  0  0  0  0  0  0  0  0  0  0
   -0.5970   19.3570  -31.2550 C   0  0  0  0  0  0  0  0  0  0  0  0
   -1.3590   20.0790  -30.2410 N   0  0  0  0  0  0  0  0  0  0  0  0
   -0.7390   20.2880  -28.9620 C   0  0  0  0  0  0  0  0  0  0  0  0
   -0.3080   19.3030  -28.3060 O   0  0  0  0  0  0  0  0  0  0  0  0
   -1.6834   26.5837  -23.3305 H   0  0  0  0  0  0  0  0  0  0  0  0
   -1.5901   27.5502  -24.8417 H   0  0  0  0  0  0  0  0  0  0  0  0
   -1.0703   25.8308  -24.8417 H   0  0  0  0  0  0  0  0  0  0  0  0
    0.8102   27.5788  -24.7881 H   0  0  0  0  0  0  0  0  0  0  0  0
    0.2569   27.9629  -23.1112 H   0  0  0  0  0  0  0  0  0  0  0  0
    0.4310   25.3380  -22.9670 H   0  0  0  0  0  0  0  0  0  0  0  0
    1.7210   26.3950  -22.6080 H   0  0  0  0  0  0  0  0  0  0  0  0
    1.7764   26.0169  -25.3546 H   0  0  0  0  0  0  0  0  0  0  0  0
    2.9260   25.3758  -24.1111 H   0  0  0  0  0  0  0  0  0  0  0  0
    1.8944   23.3014  -24.0159 H   0  0  0  0  0  0  0  0  0  0  0  0
    0.3042   23.9598  -24.5846 H   0  0  0  0  0  0  0  0  0  0  0  0
    2.7060   23.5150  -26.3710 H   0  0  0  0  0  0  0  0  0  0  0  0
    1.0813   21.1305  -27.1239 H   0  0  0  0  0  0  0  0  0  0  0  0
   -2.6508   25.3585  -29.4210 H   0  0  0  0  0  0  0  0  0  0  0  0
   -1.4377   27.2050  -27.9147 H   0  0  0  0  0  0  0  0  0  0  0  0
    0.4560   26.0800  -26.5790 H   0  0  0  0  0  0  0  0  0  0  0  0
   -3.2842   21.9382  -29.2271 H   0  0  0  0  0  0  0  0  0  0  0  0
   -4.9231   23.7308  -31.3378 H   0  0  0  0  0  0  0  0  0  0  0  0
   -3.6511   23.1322  -32.5407 H   0  0  0  0  0  0  0  0  0  0  0  0
   -5.1481   21.4973  -30.4719 H   0  0  0  0  0  0  0  0  0  0  0  0
   -5.3660   21.7230  -33.4650 H   0  0  0  0  0  0  0  0  0  0  0  0
   -8.1667   22.0915  -32.1662 H   0  0  0  0  0  0  0  0  0  0  0  0
  -10.1277   20.5692  -31.9366 H   0  0  0  0  0  0  0  0  0  0  0  0
   -9.8152   18.0961  -32.0446 H   0  0  0  0  0  0  0  0  0  0  0  0
   -7.5365   17.1407  -32.3896 H   0  0  0  0  0  0  0  0  0  0  0  0
   -5.5690   18.6503  -32.6254 H   0  0  0  0  0  0  0  0  0  0  0  0
   -3.7561   19.6964  -30.8289 H   0  0  0  0  0  0  0  0  0  0  0  0
   -3.2852   20.2716  -32.4905 H   0  0  0  0  0  0  0  0  0  0  0  0
   -1.8109   21.9693  -32.8808 H   0  0  0  0  0  0  0  0  0  0  0  0
   -0.5375   22.3990  -31.7426 H   0  0  0  0  0  0  0  0  0  0  0  0
   -0.9117   19.8731  -33.3429 H   0  0  0  0  0  0  0  0  0  0  0  0
    0.5911   20.5262  -32.6738 H   0  0  0  0  0  0  0  0  0  0  0  0
   -1.1321   18.4451  -31.5584 H   0  0  0  0  0  0  0  0  0  0  0  0
    0.3870   19.0454  -30.8746 H   0  0  0  0  0  0  0  0  0  0  0  0
  1  2  1  0
  2  3  1  0
  3  4  1  0
  4  5  1  0
  5  6  1  0
  6  7  1  0
  7  8  2  0
  8  9  1  0
  9 10  2  0
 10 11  1  0
 11 12  1  0
 12 13  2  0
 13 14  1  0
 14 15  1  0
 10 16  1  0
 16 17  1  0
 17 18  1  0
 18 19  1  0
 19 20  1  0
 20 21  1  0
 21 22  2  0
 22 23  1  0
 23 24  2  0
 24 25  1  0
 25 26  2  0
 19 27  1  0
 28 27  1  6
 28 29  1  0
 29 30  1  0
 30 31  1  0
 31 32  1  0
 32 33  1  0
 33 34  2  0
 15  7  1  0
 28 16  1  0
 33  9  1  0
 15 11  2  0
 26 21  1  0
 32 28  1  0
  1 35  1  0
  1 36  1  0
  1 37  1  0
  2 38  1  0
  2 39  1  0
  3 40  1  0
  3 41  1  0
  4 42  1  0
  4 43  1  0
  5 44  1  0
  5 45  1  0
  6 46  1  0
  8 47  1  0
 12 48  1  0
 13 49  1  0
 14 50  1  0
 16 51  1  1
 18 52  1  0
 18 53  1  0
 19 54  1  1
 20 55  1  0
 22 56  1  0
 23 57  1  0
 24 58  1  0
 25 59  1  0
 26 60  1  0
 27 61  1  0
 27 62  1  0
 29 63  1  0
 29 64  1  0
 30 65  1  0
 30 66  1  0
 31 67  1  0
 31 68  1  0
M  CHG  1   3   1
M  END
>  <UniqueID>  (14) 
14

>  <SMILES>  (14) 
CC[NH2+]CCNc1cc2c(c3cc[nH]c13)[C@H]1OC[C@@H](Nc3ccccc3)CC13CCCN3C2=O

>  <Energy>  (14) 
136.57336928349633

>  <Genealogy>  (14) 
CC[NH2+]CCNc1cc2c(c3cc[nH]c13)C1OCC(Nc3ccccc3)CC13CCCN3C2=O (protonated)
CC[NH2+]CCNc1cc2c(c3cc[nH]c13)[C@H]1OC[C@@H](Nc3ccccc3)CC13CCCN3C2=O (chirality)
CC[NH2+]CCNc1cc2c(c3cc[nH]c13)[C@H]1OC[C@@H](Nc3ccccc3)CC13CCCN3C2=O (3D coordinates assigned)
CC[NH2+]CCNc1cc2c(c3cc[nH]c13)[C@H]1OC[C@@H](Nc3ccccc3)CC13CCCN3C2=O (nonaromatic ring conformer: 136.57336928349633 kcal/mol)

>  <smiles>  (14) 
CCNCCNc1cc2c(c3cc[nH]c13)C1OCC(Nc3ccccc3)CC13CCCN3C2=O

>  <score_type>  (14) 
oracle

>  <origin>  (14) 
adg

>  <m_score__min__energy>  (14) 
-10.32

>  <m_primary>  (14) 
energy

$$$$
14:0
     RDKit          3D

 37 38  0  0  0  0  0  0  0  0999 V2000
   -6.8920   18.6500  -33.2060 C   0  0  0  0  0  0  0  0  0  0  0  0
   -7.5520   19.3310  -32.0040 C   0  0  0  0  0  0  0  0  0  0  0  0
   -9.0810   19.2200  -32.0870 C   0  0  0  0  0  0  0  0  0  0  0  0
   -7.0970   20.7730  -31.9080 C   0  0  0  0  0  0  0  0  0  0  0  0
   -7.9270   21.8800  -31.9960 C   0  0  0  0  0  0  0  0  0  0  0  0
   -7.1200   22.9910  -31.8940 C   0  0  0  0  0  0  0  0  0  0  0  0
   -5.8250   22.5290  -31.7480 C   0  0  0  0  0  0  0  0  0  0  0  0
   -4.6130   23.4150  -31.6130 C   0  0  0  0  0  0  0  0  0  0  0  0
   -4.9900   24.7820  -31.2190 N   0  0  0  0  0  0  0  0  0  0  0  0
   -5.0970   24.9480  -29.7590 C   0  0  0  0  0  0  0  0  0  0  0  0
   -4.0320   24.1890  -29.0200 C   0  0  0  0  0  0  0  0  0  0  0  0
   -4.2270   23.0410  -28.2640 C   0  0  0  0  0  0  0  0  0  0  0  0
   -3.0410   22.5300  -27.7230 C   0  0  0  0  0  0  0  0  0  0  0  0
   -1.9130   23.2690  -28.0560 C   0  0  0  0  0  0  0  0  0  0  0  0
   -2.3920   24.5590  -29.0250 S   0  0  0  0  0  0  0  0  0  0  0  0
   -5.8050   21.1760  -31.8060 N   0  0  0  0  0  0  0  0  0  0  0  0
   -4.6220   20.3160  -31.7190 C   0  0  0  0  0  0  0  0  0  0  0  0
   -6.1673   17.9022  -32.8515 H   0  0  0  0  0  0  0  0  0  0  0  0
   -7.6622   18.1542  -33.8151 H   0  0  0  0  0  0  0  0  0  0  0  0
   -6.3723   19.4043  -33.8151 H   0  0  0  0  0  0  0  0  0  0  0  0
   -7.2383   18.8157  -31.0842 H   0  0  0  0  0  0  0  0  0  0  0  0
   -9.5021   19.1894  -31.0712 H   0  0  0  0  0  0  0  0  0  0  0  0
   -9.4832   20.0913  -32.6246 H   0  0  0  0  0  0  0  0  0  0  0  0
   -9.3532   18.2997  -32.6246 H   0  0  0  0  0  0  0  0  0  0  0  0
   -9.0196   21.8723  -32.1229 H   0  0  0  0  0  0  0  0  0  0  0  0
   -7.4429   24.0421  -31.9230 H   0  0  0  0  0  0  0  0  0  0  0  0
   -3.9445   22.9933  -30.8480 H   0  0  0  0  0  0  0  0  0  0  0  0
   -4.1076   23.4623  -32.5889 H   0  0  0  0  0  0  0  0  0  0  0  0
   -4.2660   25.4450  -31.5850 H   0  0  0  0  0  0  0  0  0  0  0  0
   -5.0027   26.0168  -29.5165 H   0  0  0  0  0  0  0  0  0  0  0  0
   -6.0733   24.5499  -29.4454 H   0  0  0  0  0  0  0  0  0  0  0  0
   -5.2131   22.5798  -28.1061 H   0  0  0  0  0  0  0  0  0  0  0  0
   -3.0058   21.6285  -27.0937 H   0  0  0  0  0  0  0  0  0  0  0  0
   -0.8826   23.0487  -27.7403 H   0  0  0  0  0  0  0  0  0  0  0  0
   -4.3758   20.1370  -30.6620 H   0  0  0  0  0  0  0  0  0  0  0  0
   -4.8292   19.3562  -32.2149 H   0  0  0  0  0  0  0  0  0  0  0  0
   -3.7729   20.8091  -32.2149 H   0  0  0  0  0  0  0  0  0  0  0  0
  1  2  1  0
  2  3  1  0
  2  4  1  0
  4  5  2  0
  5  6  1  0
  6  7  2  0
  7  8  1  0
  8  9  1  0
  9 10  1  0
 10 11  1  0
 11 12  2  0
 12 13  1  0
 13 14  2  0
 14 15  1  0
  7 16  1  0
 16 17  1  0
 16  4  1  0
 15 11  1  0
  1 18  1  0
  1 19  1  0
  1 20  1  0
  2 21  1  0
  3 22  1  0
  3 23  1  0
  3 24  1  0
  5 25  1  0
  6 26  1  0
  8 27  1  0
  8 28  1  0
  9 29  1  0
 10 30  1  0
 10 31  1  0
 12 32  1  0
 13 33  1  0
 14 34  1  0
 17 35  1  0
 17 36  1  0
 17 37  1  0
M  END
>  <UniqueID>  (15) 
15

>  <SMILES>  (15) 
CC(C)c1ccc(CNCc2cccs2)n1C

>  <Energy>  (15) 
83.50256073389433

>  <Genealogy>  (15) 
CC(C)c1ccc(CNCc2cccs2)n1C (3D coordinates assigned)
CC(C)c1ccc(CNCc2cccs2)n1C (optimized conformer: 83.50256073389433 kcal/mol)

>  <smiles>  (15) 
CC(C)c1ccc(CNCc2cccs2)n1C

>  <score_type>  (15) 
oracle

>  <origin>  (15) 
adg

>  <m_score__min__energy>  (15) 
-7.1699999999999999

>  <m_primary>  (15) 
energy

$$$$
15:0
     RDKit          3D

 49 51  0  0  0  0  0  0  0  0999 V2000
   -1.7490   23.8550  -29.3840 C   0  0  0  0  0  0  0  0  0  0  0  0
   -3.1300   24.5140  -29.2420 C   0  0  0  0  0  0  0  0  0  0  0  0
   -3.9720   24.4360  -30.4620 N   0  0  0  0  0  0  0  0  0  0  0  0
   -4.9710   25.5180  -30.6030 C   0  0  0  0  0  0  0  0  0  0  0  0
   -6.2490   25.2170  -29.8180 C   0  0  0  0  0  0  0  0  0  0  0  0
   -4.5620   23.0920  -30.6610 C   0  0  0  0  0  0  0  0  0  0  0  0
   -3.7200   22.2910  -31.6560 C   0  0  0  0  0  0  0  0  0  0  0  0
   -4.4930   21.9490  -32.8530 N   0  0  0  0  0  0  0  0  0  0  0  0
   -5.5810   21.0210  -32.7610 C   0  0  0  0  0  0  0  0  0  0  0  0
   -6.8620   21.5140  -32.4480 C   0  0  0  0  0  0  0  0  0  0  0  0
   -7.0950   22.9040  -32.3580 C   0  0  0  0  0  0  0  0  0  0  0  0
   -8.3460   23.3950  -31.9950 C   0  0  0  0  0  0  0  0  0  0  0  0
   -9.3810   22.5150  -31.7040 C   0  0  0  0  0  0  0  0  0  0  0  0
   -9.1770   21.1390  -31.7980 C   0  0  0  0  0  0  0  0  0  0  0  0
   -7.9240   20.6090  -32.2050 C   0  0  0  0  0  0  0  0  0  0  0  0
   -7.7180   19.2500  -32.3310 N   0  0  0  0  0  0  0  0  0  0  0  0
   -8.8770   18.3260  -32.3370 C   0  0  0  0  0  0  0  0  0  0  0  0
   -6.4370   18.7520  -32.4920 C   0  0  0  0  0  0  0  0  0  0  0  0
   -6.1650   17.3730  -32.3240 C   0  0  0  0  0  0  0  0  0  0  0  0
   -4.9030   16.8500  -32.5840 C   0  0  0  0  0  0  0  0  0  0  0  0
   -4.5780   14.9800  -32.3610 Br  0  0  0  0  0  0  0  0  0  0  0  0
   -3.8890   17.6790  -33.0380 C   0  0  0  0  0  0  0  0  0  0  0  0
   -4.0960   19.0530  -33.1720 C   0  0  0  0  0  0  0  0  0  0  0  0
   -2.6340   20.0000  -33.9920 Br  0  0  0  0  0  0  0  0  0  0  0  0
   -5.3560   19.6250  -32.8160 C   0  0  0  0  0  0  0  0  0  0  0  0
   -1.3330   23.6565  -28.3852 H   0  0  0  0  0  0  0  0  0  0  0  0
   -1.8495   22.9078  -29.9342 H   0  0  0  0  0  0  0  0  0  0  0  0
   -1.0759   24.5290  -29.9342 H   0  0  0  0  0  0  0  0  0  0  0  0
   -3.6665   24.0163  -28.4207 H   0  0  0  0  0  0  0  0  0  0  0  0
   -2.9512   25.5823  -29.0502 H   0  0  0  0  0  0  0  0  0  0  0  0
   -4.5354   26.4559  -30.2281 H   0  0  0  0  0  0  0  0  0  0  0  0
   -5.2354   25.6027  -31.6674 H   0  0  0  0  0  0  0  0  0  0  0  0
   -6.0373   25.2669  -28.7397 H   0  0  0  0  0  0  0  0  0  0  0  0
   -7.0202   25.9581  -30.0749 H   0  0  0  0  0  0  0  0  0  0  0  0
   -6.6084   24.2096  -30.0749 H   0  0  0  0  0  0  0  0  0  0  0  0
   -4.5907   22.5609  -29.6981 H   0  0  0  0  0  0  0  0  0  0  0  0
   -5.5819   23.2015  -31.0582 H   0  0  0  0  0  0  0  0  0  0  0  0
   -2.8475   22.8918  -31.9524 H   0  0  0  0  0  0  0  0  0  0  0  0
   -3.4021   21.3572  -31.1693 H   0  0  0  0  0  0  0  0  0  0  0  0
   -4.4100   22.5250  -33.7220 H   0  0  0  0  0  0  0  0  0  0  0  0
   -6.2781   23.6072  -32.5774 H   0  0  0  0  0  0  0  0  0  0  0  0
   -8.5152   24.4804  -31.9385 H   0  0  0  0  0  0  0  0  0  0  0  0
  -10.3634   22.9047  -31.3988 H   0  0  0  0  0  0  0  0  0  0  0  0
  -10.0006   20.4523  -31.5527 H   0  0  0  0  0  0  0  0  0  0  0  0
   -9.1670   18.0948  -31.3014 H   0  0  0  0  0  0  0  0  0  0  0  0
   -9.7219   18.8010  -32.8570 H   0  0  0  0  0  0  0  0  0  0  0  0
   -8.6022   17.3965  -32.8570 H   0  0  0  0  0  0  0  0  0  0  0  0
   -6.9669   16.7026  -31.9814 H   0  0  0  0  0  0  0  0  0  0  0  0
   -2.9098   17.2491  -33.2957 H   0  0  0  0  0  0  0  0  0  0  0  0
  1  2  1  0
  2  3  1  0
  3  4  1  0
  4  5  1  0
  3  6  1  0
  6  7  1  0
  7  8  1  0
  8  9  1  0
  9 10  2  0
 10 11  1  0
 11 12  2  0
 12 13  1  0
 13 14  2  0
 14 15  1  0
 15 16  2  0
 16 17  1  0
 16 18  1  0
 18 19  2  0
 19 20  1  0
 20 21  1  0
 20 22  2  0
 22 23  1  0
 23 24  1  0
 23 25  2  0
 25  9  1  0
 15 10  1  0
 25 18  1  0
  1 26  1  0
  1 27  1  0
  1 28  1  0
  2 29  1  0
  2 30  1  0
  4 31  1  0
  4 32  1  0
  5 33  1  0
  5 34  1  0
  5 35  1  0
  6 36  1  0
  6 37  1  0
  7 38  1  0
  7 39  1  0
  8 40  1  0
 11 41  1  0
 12 42  1  0
 13 43  1  0
 14 44  1  0
 17 45  1  0
 17 46  1  0
 17 47  1  0
 19 48  1  0
 22 49  1  0
M  CHG  1  16   1
M  END
>  <UniqueID>  (16) 
16

>  <SMILES>  (16) 
CCN(CC)CCNc1c2ccccc2[n+](C)c2cc(Br)cc(Br)c12

>  <Energy>  (16) 
84.73300517803227

>  <Genealogy>  (16) 
CCN(CC)CCNc1c2ccccc2[n+](C)c2cc(Br)cc(Br)c12 (3D coordinates assigned)
CCN(CC)CCNc1c2ccccc2[n+](C)c2cc(Br)cc(Br)c12 (optimized conformer: 84.73300517803227 kcal/mol)

>  <smiles>  (16) 
CCN(CC)CCNc1c2ccccc2[n+](C)c2cc(Br)cc(Br)c12

>  <score_type>  (16) 
oracle

>  <origin>  (16) 
adg

>  <m_score__min__energy>  (16) 
-8.9800000000000004

>  <m_primary>  (16) 
energy

$$$$
16:0
     RDKit          3D

 31 32  0  0  0  0  0  0  0  0999 V2000
   -5.6650   16.3080  -32.8360 C   0  0  0  0  0  0  0  0  0  0  0  0
   -6.8820   16.9840  -33.4760 C   0  0  0  0  0  0  0  0  0  0  0  0
   -6.7520   18.4510  -33.5240 N   0  0  0  0  0  0  0  0  0  0  0  0
   -5.5490   18.8750  -34.2600 C   0  0  0  0  0  0  0  0  0  0  0  0
   -4.6560   19.8010  -33.4210 C   0  0  0  0  0  0  0  0  0  0  0  0
   -5.2480   20.0830  -32.1500 O   0  0  0  0  0  0  0  0  0  0  0  0
   -5.9940   21.2250  -31.8170 C   0  0  0  0  0  0  0  0  0  0  0  0
   -5.4230   22.4430  -31.3670 C   0  0  0  0  0  0  0  0  0  0  0  0
   -6.2450   23.5500  -31.0540 C   0  0  0  0  0  0  0  0  0  0  0  0
   -5.4520   25.1830  -30.4590 Br  0  0  0  0  0  0  0  0  0  0  0  0
   -7.6420   23.4590  -31.1780 C   0  0  0  0  0  0  0  0  0  0  0  0
   -8.1750   22.2500  -31.6150 C   0  0  0  0  0  0  0  0  0  0  0  0
   -9.4770   21.8670  -31.8290 C   0  0  0  0  0  0  0  0  0  0  0  0
   -9.3860   20.5480  -32.2640 C   0  0  0  0  0  0  0  0  0  0  0  0
   -8.1230   20.1650  -32.3090 O   0  0  0  0  0  0  0  0  0  0  0  0
   -7.3850   21.1770  -31.9210 C   0  0  0  0  0  0  0  0  0  0  0  0
   -5.7525   16.3566  -31.7406 H   0  0  0  0  0  0  0  0  0  0  0  0
   -5.6205   15.2559  -33.1540 H   0  0  0  0  0  0  0  0  0  0  0  0
   -4.7483   16.8262  -33.1540 H   0  0  0  0  0  0  0  0  0  0  0  0
   -6.9961   16.6061  -34.5027 H   0  0  0  0  0  0  0  0  0  0  0  0
   -7.7602   16.7462  -32.8577 H   0  0  0  0  0  0  0  0  0  0  0  0
   -7.6080   18.8730  -33.9550 H   0  0  0  0  0  0  0  0  0  0  0  0
   -6.6760   18.7900  -32.5370 H   0  0  0  0  0  0  0  0  0  0  0  0
   -4.9708   17.9819  -34.5394 H   0  0  0  0  0  0  0  0  0  0  0  0
   -5.8751   19.4333  -35.1499 H   0  0  0  0  0  0  0  0  0  0  0  0
   -3.6829   19.3132  -33.2626 H   0  0  0  0  0  0  0  0  0  0  0  0
   -4.5323   20.7495  -33.9643 H   0  0  0  0  0  0  0  0  0  0  0  0
   -4.3314   22.5270  -31.2606 H   0  0  0  0  0  0  0  0  0  0  0  0
   -8.2915   24.3137  -30.9380 H   0  0  0  0  0  0  0  0  0  0  0  0
  -10.3874   22.4681  -31.6881 H   0  0  0  0  0  0  0  0  0  0  0  0
  -10.2443   19.9145  -32.5322 H   0  0  0  0  0  0  0  0  0  0  0  0
  1  2  1  0
  2  3  1  0
  3  4  1  0
  4  5  1  0
  5  6  1  0
  6  7  1  0
  7  8  2  0
  8  9  1  0
  9 10  1  0
  9 11  2  0
 11 12  1  0
 12 13  1  0
 13 14  2  0
 14 15  1  0
 15 16  1  0
 16  7  1  0
 16 12  2  0
  1 17  1  0
  1 18  1  0
  1 19  1  0
  2 20  1  0
  2 21  1  0
  3 22  1  0
  3 23  1  0
  4 24  1  0
  4 25  1  0
  5 26  1  0
  5 27  1  0
  8 28  1  0
 11 29  1  0
 13 30  1  0
 14 31  1  0
M  CHG  1   3   1
M  END
>  <UniqueID>  (17) 
17

>  <SMILES>  (17) 
CC[NH2+]CCOc1cc(Br)cc2ccoc12

>  <Energy>  (17) 
62.164299457406436

>  <Genealogy>  (17) 
CC[NH2+]CCOc1cc(Br)cc2ccoc12 (protonated)
CC[NH2+]CCOc1cc(Br)cc2ccoc12 (3D coordinates assigned)
CC[NH2+]CCOc1cc(Br)cc2ccoc12 (optimized conformer: 62.164299457406436 kcal/mol)

>  <smiles>  (17) 
CCNCCOc1cc(Br)cc2ccoc12

>  <score_type>  (17) 
oracle

>  <origin>  (17) 
adg

>  <m_score__min__energy>  (17) 
-5.0599999999999996

>  <m_primary>  (17) 
energy

$$$$
17:0
     RDKit          3D

 48 50  0  0  0  0  0  0  0  0999 V2000
   -8.8230   19.9260  -32.6530 C   0  0  0  0  0  0  0  0  0  0  0  0
   -7.3780   20.2450  -32.6500 N   0  0  0  0  0  0  0  0  0  0  0  0
   -6.9320   21.4450  -32.1280 C   0  0  0  0  0  0  0  0  0  0  0  0
   -5.5900   21.8570  -32.3390 C   0  0  0  0  0  0  0  0  0  0  0  0
   -4.7060   20.9930  -33.0080 C   0  0  0  0  0  0  0  0  0  0  0  0
   -3.3660   21.4180  -33.3080 N   0  0  0  0  0  0  0  0  0  0  0  0
   -2.3040   21.4190  -32.2990 C   0  0  0  0  0  0  0  0  0  0  0  0
   -0.9280   21.1690  -32.9240 C   0  0  0  0  0  0  0  0  0  0  0  0
   -1.0450   21.0660  -34.3840 N   0  0  0  0  0  0  0  0  0  0  0  0
    0.2170   20.6670  -35.0310 C   0  0  0  0  0  0  0  0  0  0  0  0
    1.0100   21.8610  -35.5890 C   0  0  0  0  0  0  0  0  0  0  0  0
    0.2560   23.0420  -35.5340 O   0  0  0  0  0  0  0  0  0  0  0  0
   -5.1170   19.6900  -33.3280 C   0  0  0  0  0  0  0  0  0  0  0  0
   -4.1970   18.7450  -33.8310 C   0  0  0  0  0  0  0  0  0  0  0  0
   -4.6070   17.4540  -34.1500 C   0  0  0  0  0  0  0  0  0  0  0  0
   -5.9300   17.0760  -33.9570 C   0  0  0  0  0  0  0  0  0  0  0  0
   -6.8540   17.9900  -33.4490 C   0  0  0  0  0  0  0  0  0  0  0  0
   -6.4730   19.3210  -33.1390 C   0  0  0  0  0  0  0  0  0  0  0  0
   -5.0400   23.1290  -31.7100 C   0  0  0  0  0  0  0  0  0  0  0  0
   -6.1250   24.1200  -31.2990 C   0  0  0  0  0  0  0  0  0  0  0  0
   -7.2010   23.4020  -30.5030 C   0  0  0  0  0  0  0  0  0  0  0  0
   -7.8960   22.3690  -31.3880 C   0  0  0  0  0  0  0  0  0  0  0  0
   -9.1831   19.8465  -31.6167 H   0  0  0  0  0  0  0  0  0  0  0  0
   -9.3736   20.7242  -33.1723 H   0  0  0  0  0  0  0  0  0  0  0  0
   -8.9864   18.9702  -33.1723 H   0  0  0  0  0  0  0  0  0  0  0  0
   -3.1340   21.6770  -34.2940 H   0  0  0  0  0  0  0  0  0  0  0  0
   -2.2937   22.3959  -31.7934 H   0  0  0  0  0  0  0  0  0  0  0  0
   -2.5087   20.6076  -31.5851 H   0  0  0  0  0  0  0  0  0  0  0  0
   -0.2572   22.0033  -32.6713 H   0  0  0  0  0  0  0  0  0  0  0  0
   -0.5206   20.2265  -32.5293 H   0  0  0  0  0  0  0  0  0  0  0  0
   -1.3680   21.9830  -34.7730 H   0  0  0  0  0  0  0  0  0  0  0  0
    0.8417   20.1469  -34.2899 H   0  0  0  0  0  0  0  0  0  0  0  0
   -0.0399   20.0168  -35.8803 H   0  0  0  0  0  0  0  0  0  0  0  0
    1.9261   21.9924  -34.9944 H   0  0  0  0  0  0  0  0  0  0  0  0
    1.2561   21.6541  -36.6410 H   0  0  0  0  0  0  0  0  0  0  0  0
   -0.6910   22.7830  -35.6840 H   0  0  0  0  0  0  0  0  0  0  0  0
   -3.1446   19.0322  -33.9724 H   0  0  0  0  0  0  0  0  0  0  0  0
   -3.8829   16.7320  -34.5554 H   0  0  0  0  0  0  0  0  0  0  0  0
   -6.2500   16.0533  -34.2054 H   0  0  0  0  0  0  0  0  0  0  0  0
   -7.8948   17.6733  -33.2862 H   0  0  0  0  0  0  0  0  0  0  0  0
   -4.4621   22.8539  -30.8154 H   0  0  0  0  0  0  0  0  0  0  0  0
   -4.4186   23.6248  -32.4703 H   0  0  0  0  0  0  0  0  0  0  0  0
   -5.6801   24.9129  -30.6797 H   0  0  0  0  0  0  0  0  0  0  0  0
   -6.5738   24.5626  -32.2005 H   0  0  0  0  0  0  0  0  0  0  0  0
   -6.7413   22.8950  -29.6418 H   0  0  0  0  0  0  0  0  0  0  0  0
   -7.9414   24.1347  -30.1495 H   0  0  0  0  0  0  0  0  0  0  0  0
   -8.5498   21.7523  -30.7538 H   0  0  0  0  0  0  0  0  0  0  0  0
   -8.4566   22.9267  -32.1527 H   0  0  0  0  0  0  0  0  0  0  0  0
  1  2  1  0
  2  3  2  0
  3  4  1  0
  4  5  2  0
  5  6  1  0
  6  7  1  0
  7  8  1  0
  8  9  1  0
  9 10  1  0
 10 11  1  0
 11 12  1  0
  5 13  1  0
 13 14  2  0
 14 15  1  0
 15 16  2  0
 16 17  1  0
 17 18  2  0
  4 19  1  0
 19 20  1  0
 20 21  1  0
 21 22  1  0
 18  2  1  0
 22  3  1  0
 18 13  1  0
  1 23  1  0
  1 24  1  0
  1 25  1  0
  6 26  1  0
  7 27  1  0
  7 28  1  0
  8 29  1  0
  8 30  1  0
  9 31  1  0
 10 32  1  0
 10 33  1  0
 11 34  1  0
 11 35  1  0
 12 36  1  0
 14 37  1  0
 15 38  1  0
 16 39  1  0
 17 40  1  0
 19 41  1  0
 19 42  1  0
 20 43  1  0
 20 44  1  0
 21 45  1  0
 21 46  1  0
 22 47  1  0
 22 48  1  0
M  CHG  1   2   1
M  END
>  <UniqueID>  (18) 
18

>  <SMILES>  (18) 
C[n+]1c2c(c(NCCNCCO)c3ccccc31)CCCC2

>  <Energy>  (18) 
65.71460005321364

>  <Genealogy>  (18) 
C[n+]1c2c(c(NCCNCCO)c3ccccc31)CCCC2 (3D coordinates assigned)
C[n+]1c2c(c(NCCNCCO)c3ccccc31)CCCC2 (nonaromatic ring conformer: 65.71460005321364 kcal/mol)

>  <smiles>  (18) 
C[n+]1c2c(c(NCCNCCO)c3ccccc31)CCCC2

>  <score_type>  (18) 
oracle

>  <origin>  (18) 
adg

>  <m_score__min__energy>  (18) 
-9.3000000000000007

>  <m_primary>  (18) 
energy

$$$$
18:0
     RDKit          3D

 39 40  0  0  0  0  0  0  0  0999 V2000
   -5.1790   16.6040  -34.2730 C   0  0  0  0  0  0  0  0  0  0  0  0
   -5.2680   17.9530  -34.9780 C   0  0  0  0  0  0  0  0  0  0  0  0
   -6.0390   18.9020  -34.1620 N   0  0  0  0  0  0  0  0  0  0  0  0
   -6.4790   18.3270  -32.8780 C   0  0  0  0  0  0  0  0  0  0  0  0
   -7.9520   18.6420  -32.5440 C   0  0  0  0  0  0  0  0  0  0  0  0
   -8.1540   20.0930  -32.1900 C   0  0  0  0  0  0  0  0  0  0  0  0
   -7.0450   20.9170  -31.9450 C   0  0  0  0  0  0  0  0  0  0  0  0
   -7.2370   22.2720  -31.6370 C   0  0  0  0  0  0  0  0  0  0  0  0
   -6.1040   23.1270  -31.3880 N   0  0  0  0  0  0  0  0  0  0  0  0
   -6.3080   24.5540  -31.1170 C   0  0  0  0  0  0  0  0  0  0  0  0
   -5.1650   25.0800  -30.2450 C   0  0  0  0  0  0  0  0  0  0  0  0
   -3.9090   24.7670  -30.8190 O   0  0  0  0  0  0  0  0  0  0  0  0
   -3.7280   23.3630  -30.8370 C   0  0  0  0  0  0  0  0  0  0  0  0
   -4.7530   22.6930  -31.7570 C   0  0  0  0  0  0  0  0  0  0  0  0
   -8.5430   22.7800  -31.5930 C   0  0  0  0  0  0  0  0  0  0  0  0
   -9.6220   21.9320  -31.8450 C   0  0  0  0  0  0  0  0  0  0  0  0
   -9.4120   20.6200  -32.1370 N   0  0  0  0  0  0  0  0  0  0  0  0
   -5.1892   16.7581  -33.1839 H   0  0  0  0  0  0  0  0  0  0  0  0
   -6.0380   15.9812  -34.5632 H   0  0  0  0  0  0  0  0  0  0  0  0
   -4.2456   16.0995  -34.5632 H   0  0  0  0  0  0  0  0  0  0  0  0
   -4.2537   18.3488  -35.1346 H   0  0  0  0  0  0  0  0  0  0  0  0
   -5.7725   17.8195  -35.9463 H   0  0  0  0  0  0  0  0  0  0  0  0
   -6.8640   19.2400  -34.7090 H   0  0  0  0  0  0  0  0  0  0  0  0
   -6.3568   17.2348  -32.9239 H   0  0  0  0  0  0  0  0  0  0  0  0
   -5.8609   18.7791  -32.0884 H   0  0  0  0  0  0  0  0  0  0  0  0
   -8.5738   18.4001  -33.4186 H   0  0  0  0  0  0  0  0  0  0  0  0
   -8.2389   18.0368  -31.6714 H   0  0  0  0  0  0  0  0  0  0  0  0
   -6.0277   20.5015  -31.9943 H   0  0  0  0  0  0  0  0  0  0  0  0
   -6.3282   25.1078  -32.0672 H   0  0  0  0  0  0  0  0  0  0  0  0
   -7.2633   24.6926  -30.5895 H   0  0  0  0  0  0  0  0  0  0  0  0
   -5.2564   26.1722  -30.1511 H   0  0  0  0  0  0  0  0  0  0  0  0
   -5.2287   24.6037  -29.2555 H   0  0  0  0  0  0  0  0  0  0  0  0
   -2.7149   23.1348  -31.1996 H   0  0  0  0  0  0  0  0  0  0  0  0
   -3.8659   22.9771  -29.8162 H   0  0  0  0  0  0  0  0  0  0  0  0
   -4.5494   22.9772  -32.8000 H   0  0  0  0  0  0  0  0  0  0  0  0
   -4.6790   21.6006  -31.6515 H   0  0  0  0  0  0  0  0  0  0  0  0
   -8.7161   23.8413  -31.3611 H   0  0  0  0  0  0  0  0  0  0  0  0
  -10.6481   22.3265  -31.8074 H   0  0  0  0  0  0  0  0  0  0  0  0
  -10.2410   20.0130  -32.3270 H   0  0  0  0  0  0  0  0  0  0  0  0
  1  2  1  0
  2  3  1  0
  3  4  1  0
  4  5  1  0
  5  6  1  0
  6  7  2  0
  7  8  1  0
  8  9  1  0
  9 10  1  0
 10 11  1  0
 11 12  1  0
 12 13  1  0
 13 14  1  0
  8 15  2  0
 15 16  1  0
 16 17  2  0
 17  6  1  0
 14  9  1  0
  1 18  1  0
  1 19  1  0
  1 20  1  0
  2 21  1  0
  2 22  1  0
  3 23  1  0
  4 24  1  0
  4 25  1  0
  5 26  1  0
  5 27  1  0
  7 28  1  0
 10 29  1  0
 10 30  1  0
 11 31  1  0
 11 32  1  0
 13 33  1  0
 13 34  1  0
 14 35  1  0
 14 36  1  0
 15 37  1  0
 16 38  1  0
 17 39  1  0
M  CHG  1  17   1
M  END
>  <UniqueID>  (19) 
19

>  <SMILES>  (19) 
CCNCCc1cc(N2CCOCC2)cc[nH+]1

>  <Energy>  (19) 
39.90145251600605

>  <Genealogy>  (19) 
CCNCCc1cc(N2CCOCC2)cc[nH+]1 (protonated)
CCNCCc1cc(N2CCOCC2)cc[nH+]1 (3D coordinates assigned)
CCNCCc1cc(N2CCOCC2)cc[nH+]1 (nonaromatic ring conformer: 39.90145251600605 kcal/mol)

>  <smiles>  (19) 
CCNCCc1cc(N2CCOCC2)ccn1

>  <score_type>  (19) 
oracle

>  <origin>  (19) 
adg

>  <m_score__min__energy>  (19) 
-6.3600000000000003

>  <m_primary>  (19) 
energy

$$$$
19:0
     RDKit          3D

 43 44  0  0  0  0  0  0  0  0999 V2000
   -3.5750   22.0180  -31.8420 C   0  0  0  0  0  0  0  0  0  0  0  0
   -3.1800   23.0600  -30.8040 C   0  0  0  0  0  0  0  0  0  0  0  0
   -4.3820   23.4720  -30.0310 N   0  0  0  0  0  0  0  0  0  0  0  0
   -4.3130   23.0260  -28.6210 C   0  0  0  0  0  0  0  0  0  0  0  0
   -3.8710   24.1600  -27.6950 C   0  0  0  0  0  0  0  0  0  0  0  0
   -4.6000   24.9370  -30.0990 C   0  0  0  0  0  0  0  0  0  0  0  0
   -6.0970   25.2830  -30.1060 C   0  0  0  0  0  0  0  0  0  0  0  0
   -6.9420   24.0780  -30.1430 N   0  0  0  0  0  0  0  0  0  0  0  0
   -7.4700   23.7870  -31.4880 C   0  0  0  0  0  0  0  0  0  0  0  0
   -7.6520   22.3040  -31.6730 C   0  0  0  0  0  0  0  0  0  0  0  0
   -8.7420   21.6400  -31.0870 C   0  0  0  0  0  0  0  0  0  0  0  0
   -8.9030   20.2620  -31.2510 C   0  0  0  0  0  0  0  0  0  0  0  0
   -7.9830   19.5290  -32.0150 C   0  0  0  0  0  0  0  0  0  0  0  0
   -8.1260   18.1800  -32.1680 N   0  0  0  0  0  0  0  0  0  0  0  0
   -7.2400   17.4510  -32.9010 C   0  0  0  0  0  0  0  0  0  0  0  0
   -6.1560   18.0750  -33.5230 C   0  0  0  0  0  0  0  0  0  0  0  0
   -4.9130   17.0490  -34.5470 Br  0  0  0  0  0  0  0  0  0  0  0  0
   -5.9860   19.4540  -33.3870 C   0  0  0  0  0  0  0  0  0  0  0  0
   -6.8980   20.1960  -32.6260 C   0  0  0  0  0  0  0  0  0  0  0  0
   -6.7390   21.5780  -32.4540 C   0  0  0  0  0  0  0  0  0  0  0  0
   -3.9207   21.1061  -31.3330 H   0  0  0  0  0  0  0  0  0  0  0  0
   -4.3847   22.4160  -32.4714 H   0  0  0  0  0  0  0  0  0  0  0  0
   -2.7050   21.7792  -32.4714 H   0  0  0  0  0  0  0  0  0  0  0  0
   -2.4335   22.6307  -30.1195 H   0  0  0  0  0  0  0  0  0  0  0  0
   -2.7520   23.9376  -31.3106 H   0  0  0  0  0  0  0  0  0  0  0  0
   -5.3077   22.6760  -28.3078 H   0  0  0  0  0  0  0  0  0  0  0  0
   -3.5726   22.2154  -28.5514 H   0  0  0  0  0  0  0  0  0  0  0  0
   -3.9931   23.8468  -26.6476 H   0  0  0  0  0  0  0  0  0  0  0  0
   -2.8142   24.3983  -27.8857 H   0  0  0  0  0  0  0  0  0  0  0  0
   -4.4878   25.0506  -27.8857 H   0  0  0  0  0  0  0  0  0  0  0  0
   -4.1278   25.4097  -29.2252 H   0  0  0  0  0  0  0  0  0  0  0  0
   -4.1550   25.3095  -31.0334 H   0  0  0  0  0  0  0  0  0  0  0  0
   -6.3335   25.8547  -29.1965 H   0  0  0  0  0  0  0  0  0  0  0  0
   -6.3052   25.8716  -31.0117 H   0  0  0  0  0  0  0  0  0  0  0  0
   -6.3370   23.2710  -29.8610 H   0  0  0  0  0  0  0  0  0  0  0  0
   -8.4407   24.2892  -31.6124 H   0  0  0  0  0  0  0  0  0  0  0  0
   -6.7544   24.1542  -32.2384 H   0  0  0  0  0  0  0  0  0  0  0  0
   -9.4740   22.2088  -30.4948 H   0  0  0  0  0  0  0  0  0  0  0  0
   -9.7545   19.7499  -30.7792 H   0  0  0  0  0  0  0  0  0  0  0  0
   -8.9250   17.6810  -31.7160 H   0  0  0  0  0  0  0  0  0  0  0  0
   -7.3786   16.3646  -33.0040 H   0  0  0  0  0  0  0  0  0  0  0  0
   -5.1383   19.9562  -33.8761 H   0  0  0  0  0  0  0  0  0  0  0  0
   -5.8951   22.0959  -32.9331 H   0  0  0  0  0  0  0  0  0  0  0  0
  1  2  1  0
  2  3  1  0
  3  4  1  0
  4  5  1  0
  3  6  1  0
  6  7  1  0
  7  8  1  0
  8  9  1  0
  9 10  1  0
 10 11  2  0
 11 12  1  0
 12 13  2  0
 13 14  1  0
 14 15  2  0
 15 16  1  0
 16 17  1  0
 16 18  2  0
 18 19  1  0
 19 20  2  0
 20 10  1  0
 19 13  1  0
  1 21  1  0
  1 22  1  0
  1 23  1  0
  2 24  1  0
  2 25  1  0
  4 26  1  0
  4 27  1  0
  5 28  1  0
  5 29  1  0
  5 30  1  0
  6 31  1  0
  6 32  1  0
  7 33  1  0
  7 34  1  0
  8 35  1  0
  9 36  1  0
  9 37  1  0
 11 38  1  0
 12 39  1  0
 14 40  1  0
 15 41  1  0
 18 42  1  0
 20 43  1  0
M  CHG  1  14   1
M  END
>  <UniqueID>  (20) 
20

>  <SMILES>  (20) 
CCN(CC)CCNCc1ccc2[nH+]cc(Br)cc2c1

>  <Energy>  (20) 
40.35573097042537

>  <Genealogy>  (20) 
CCN(CC)CCNCc1ccc2[nH+]cc(Br)cc2c1 (protonated)
CCN(CC)CCNCc1ccc2[nH+]cc(Br)cc2c1 (3D coordinates assigned)
CCN(CC)CCNCc1ccc2[nH+]cc(Br)cc2c1 (optimized conformer: 40.35573097042537 kcal/mol)

>  <smiles>  (20) 
CCN(CC)CCNCc1ccc2ncc(Br)cc2c1

>  <score_type>  (20) 
oracle

>  <origin>  (20) 
adg

>  <m_score__min__energy>  (20) 
-7.1699999999999999

>  <m_primary>  (20) 
energy

$$$$
20:0
     RDKit          3D

 41 43  0  0  0  0  0  0  0  0999 V2000
   -6.1100   17.6100  -31.1700 C   0  0  0  0  0  0  0  0  0  0  0  0
   -7.4740   17.9840  -31.7360 C   0  0  0  0  0  0  0  0  0  0  0  0
   -7.6160   17.4420  -33.0930 N   0  0  0  0  0  0  0  0  0  0  0  0
   -6.4620   16.6180  -33.4960 C   0  0  0  0  0  0  0  0  0  0  0  0
   -5.6330   17.2320  -34.6390 C   0  0  0  0  0  0  0  0  0  0  0  0
   -5.9610   18.6460  -34.8300 N   0  0  0  0  0  0  0  0  0  0  0  0
   -5.4880   19.6680  -33.9410 C   0  0  0  0  0  0  0  0  0  0  0  0
   -4.1580   19.7470  -33.6890 N   0  0  0  0  0  0  0  0  0  0  0  0
   -3.6480   20.6790  -32.8880 N   0  0  0  0  0  0  0  0  0  0  0  0
   -2.2860   20.6990  -32.6840 O   0  0  0  0  0  0  0  0  0  0  0  0
   -4.4560   21.6030  -32.2980 C   0  0  0  0  0  0  0  0  0  0  0  0
   -3.9210   22.6170  -31.4750 C   0  0  0  0  0  0  0  0  0  0  0  0
   -4.7820   23.5520  -30.9070 C   0  0  0  0  0  0  0  0  0  0  0  0
   -6.1280   23.5090  -31.1420 C   0  0  0  0  0  0  0  0  0  0  0  0
   -6.6960   22.5210  -31.9480 C   0  0  0  0  0  0  0  0  0  0  0  0
   -5.8590   21.5330  -32.5280 C   0  0  0  0  0  0  0  0  0  0  0  0
   -6.3530   20.5250  -33.3220 N   0  0  0  0  0  0  0  0  0  0  0  0
   -7.7100   20.2870  -33.4630 O   0  0  0  0  0  0  0  0  0  0  0  0
   -6.8480   24.6140  -30.4670 C   0  0  0  0  0  0  0  0  0  0  0  0
   -5.7400   25.3800  -29.7190 C   0  0  0  0  0  0  0  0  0  0  0  0
   -4.4020   24.6880  -30.0380 C   0  0  0  0  0  0  0  0  0  0  0  0
   -6.1533   17.6219  -30.0709 H   0  0  0  0  0  0  0  0  0  0  0  0
   -5.8334   16.6029  -31.5152 H   0  0  0  0  0  0  0  0  0  0  0  0
   -5.3584   18.3352  -31.5152 H   0  0  0  0  0  0  0  0  0  0  0  0
   -8.2629   17.5677  -31.0923 H   0  0  0  0  0  0  0  0  0  0  0  0
   -7.5639   19.0797  -31.7718 H   0  0  0  0  0  0  0  0  0  0  0  0
   -7.7440   18.2280  -33.7710 H   0  0  0  0  0  0  0  0  0  0  0  0
   -5.8063   16.4876  -32.6225 H   0  0  0  0  0  0  0  0  0  0  0  0
   -6.8624   15.6626  -33.8661 H   0  0  0  0  0  0  0  0  0  0  0  0
   -4.5640   17.1412  -34.3959 H   0  0  0  0  0  0  0  0  0  0  0  0
   -5.8665   16.6915  -35.5682 H   0  0  0  0  0  0  0  0  0  0  0  0
   -6.7830   18.8700  -35.4330 H   0  0  0  0  0  0  0  0  0  0  0  0
   -2.8387   22.6679  -31.2850 H   0  0  0  0  0  0  0  0  0  0  0  0
   -7.7805   22.5085  -32.1315 H   0  0  0  0  0  0  0  0  0  0  0  0
   -8.0940   19.4480  -33.8740 H   0  0  0  0  0  0  0  0  0  0  0  0
   -7.3443   25.2640  -31.2026 H   0  0  0  0  0  0  0  0  0  0  0  0
   -7.6410   24.2540  -29.7950 H   0  0  0  0  0  0  0  0  0  0  0  0
   -5.7120   26.4260  -30.0582 H   0  0  0  0  0  0  0  0  0  0  0  0
   -5.9297   25.3753  -28.6355 H   0  0  0  0  0  0  0  0  0  0  0  0
   -3.7236   25.3741  -30.5663 H   0  0  0  0  0  0  0  0  0  0  0  0
   -3.8663   24.3665  -29.1326 H   0  0  0  0  0  0  0  0  0  0  0  0
  1  2  1  0
  2  3  1  0
  3  4  1  0
  4  5  1  0
  5  6  1  0
  6  7  1  0
  7  8  2  0
  8  9  1  0
  9 10  1  0
  9 11  2  0
 11 12  1  0
 12 13  2  0
 13 14  1  0
 14 15  2  0
 15 16  1  0
 16 17  2  0
 17 18  1  0
 14 19  1  0
 19 20  1  0
 20 21  1  0
 17  7  1  0
 16 11  1  0
 21 13  1  0
  1 22  1  0
  1 23  1  0
  1 24  1  0
  2 25  1  0
  2 26  1  0
  3 27  1  0
  4 28  1  0
  4 29  1  0
  5 30  1  0
  5 31  1  0
  6 32  1  0
 12 33  1  0
 15 34  1  0
 18 35  1  0
 19 36  1  0
 19 37  1  0
 20 38  1  0
 20 39  1  0
 21 40  1  0
 21 41  1  0
M  CHG  3   9   1  10  -1  17   1
M  END
>  <UniqueID>  (21) 
21

>  <SMILES>  (21) 
CCNCCNc1n[n+]([O-])c2cc3c(cc2[n+]1O)CCC3

>  <Energy>  (21) 
57.02334992894026

>  <Genealogy>  (21) 
CCNCCNc1n[n+]([O-])c2cc3c(cc2[n+]1O)CCC3 (protonated)
CCNCCNc1n[n+]([O-])c2cc3c(cc2[n+]1O)CCC3 (3D coordinates assigned)
CCNCCNc1n[n+]([O-])c2cc3c(cc2[n+]1O)CCC3 (nonaromatic ring conformer: 57.02334992894026 kcal/mol)

>  <smiles>  (21) 
CCNCCNc1n[n+]([O-])c2cc3c(cc2[n+]1[O-])CCC3

>  <score_type>  (21) 
oracle

>  <origin>  (21) 
adg

>  <m_score__min__energy>  (21) 
-7.1200000000000001

>  <m_primary>  (21) 
energy

$$$$
21:0
     RDKit          3D

 39 41  0  0  0  0  0  0  0  0999 V2000
   -5.3640   26.3380  -30.4690 O   0  0  0  0  0  0  0  0  0  0  0  0
   -4.9970   25.1870  -30.8230 C   0  0  0  0  0  0  0  0  0  0  0  0
   -5.8460   24.3810  -31.5810 C   0  0  0  0  0  0  0  0  0  0  0  0
   -5.4160   23.1140  -31.9720 C   0  0  0  0  0  0  0  0  0  0  0  0
   -4.1250   22.6670  -31.6420 C   0  0  0  0  0  0  0  0  0  0  0  0
   -3.3270   23.4920  -30.8160 C   0  0  0  0  0  0  0  0  0  0  0  0
   -3.7730   24.7260  -30.4550 N   0  0  0  0  0  0  0  0  0  0  0  0
   -1.9770   23.0420  -30.3340 C   0  0  0  0  0  0  0  0  0  0  0  0
   -1.9100   21.5190  -30.2260 C   0  0  0  0  0  0  0  0  0  0  0  0
   -2.2510   20.8900  -31.5760 C   0  0  0  0  0  0  0  0  0  0  0  0
   -3.6780   21.2640  -32.0450 C   0  0  2  0  0  0  0  0  0  0  0  0
   -3.8420   20.9590  -33.4890 N   0  0  0  0  0  0  0  0  0  0  0  0
   -4.0370   19.5420  -33.8610 C   0  0  0  0  0  0  0  0  0  0  0  0
   -5.2380   18.9330  -33.1870 C   0  0  0  0  0  0  0  0  0  0  0  0
   -5.1800   17.6180  -32.7020 C   0  0  0  0  0  0  0  0  0  0  0  0
   -6.2760   17.0620  -32.0440 C   0  0  0  0  0  0  0  0  0  0  0  0
   -7.4430   17.8080  -31.8680 C   0  0  0  0  0  0  0  0  0  0  0  0
   -7.5280   19.1250  -32.3570 C   0  0  0  0  0  0  0  0  0  0  0  0
   -8.7760   19.9520  -32.1620 C   0  0  0  0  0  0  0  0  0  0  0  0
   -9.8310   19.3640  -32.8360 F   0  0  0  0  0  0  0  0  0  0  0  0
   -8.5680   21.2230  -32.6680 F   0  0  0  0  0  0  0  0  0  0  0  0
   -9.1190   20.0590  -30.8250 F   0  0  0  0  0  0  0  0  0  0  0  0
   -6.4150   19.6840  -33.0150 C   0  0  0  0  0  0  0  0  0  0  0  0
   -6.4700   20.9620  -33.4730 F   0  0  0  0  0  0  0  0  0  0  0  0
   -6.8450   24.7415  -31.8675 H   0  0  0  0  0  0  0  0  0  0  0  0
   -6.0915   22.4597  -32.5426 H   0  0  0  0  0  0  0  0  0  0  0  0
   -1.2096   23.3858  -31.0431 H   0  0  0  0  0  0  0  0  0  0  0  0
   -1.8019   23.4707  -29.3362 H   0  0  0  0  0  0  0  0  0  0  0  0
   -0.8946   21.2181  -29.9288 H   0  0  0  0  0  0  0  0  0  0  0  0
   -2.6334   21.1757  -29.4718 H   0  0  0  0  0  0  0  0  0  0  0  0
   -1.5269   21.2425  -32.3253 H   0  0  0  0  0  0  0  0  0  0  0  0
   -2.2056   19.7968  -31.4631 H   0  0  0  0  0  0  0  0  0  0  0  0
   -4.3823   20.6230  -31.4944 H   0  0  0  0  0  0  0  0  0  0  0  0
   -2.9900   21.2980  -33.9940 H   0  0  0  0  0  0  0  0  0  0  0  0
   -4.1729   19.4781  -34.9507 H   0  0  0  0  0  0  0  0  0  0  0  0
   -3.1482   18.9831  -33.5329 H   0  0  0  0  0  0  0  0  0  0  0  0
   -4.2655   17.0228  -32.8415 H   0  0  0  0  0  0  0  0  0  0  0  0
   -6.2212   16.0319  -31.6621 H   0  0  0  0  0  0  0  0  0  0  0  0
   -8.3017   17.3634  -31.3436 H   0  0  0  0  0  0  0  0  0  0  0  0
  1  2  2  0
  2  3  1  0
  3  4  2  0
  4  5  1  0
  5  6  2  0
  6  7  1  0
  6  8  1  0
  8  9  1  0
  9 10  1  0
 10 11  1  0
 11 12  1  0
 12 13  1  0
 13 14  1  0
 14 15  2  0
 15 16  1  0
 16 17  2  0
 17 18  1  0
 18 19  1  0
 19 20  1  0
 19 21  1  0
 19 22  1  0
 18 23  2  0
 23 24  1  0
  7  2  1  0
 23 14  1  0
 11  5  1  0
  3 25  1  0
  4 26  1  0
  8 27  1  0
  8 28  1  0
  9 29  1  0
  9 30  1  0
 10 31  1  0
 10 32  1  0
 11 33  1  1
 12 34  1  0
 13 35  1  0
 13 36  1  0
 15 37  1  0
 16 38  1  0
 17 39  1  0
M  CHG  1   7  -1
M  END
>  <UniqueID>  (22) 
22

>  <SMILES>  (22) 
O=c1ccc2c([n-]1)CCC[C@@H]2NCc1cccc(C(F)(F)F)c1F

>  <Energy>  (22) 
48.00300211743076

>  <Genealogy>  (22) 
O=c1ccc2c([n-]1)CCCC2NCc1cccc(C(F)(F)F)c1F (protonated)
O=c1ccc2c([n-]1)CCC[C@@H]2NCc1cccc(C(F)(F)F)c1F (chirality)
O=c1ccc2c([n-]1)CCC[C@@H]2NCc1cccc(C(F)(F)F)c1F (3D coordinates assigned)
O=c1ccc2c([n-]1)CCC[C@@H]2NCc1cccc(C(F)(F)F)c1F (nonaromatic ring conformer: 48.00300211743076 kcal/mol)

>  <smiles>  (22) 
O=c1ccc2c([nH]1)CCCC2NCc1cccc(C(F)(F)F)c1F

>  <score_type>  (22) 
oracle

>  <origin>  (22) 
adg

>  <m_score__min__energy>  (22) 
-9.1099999999999994

>  <m_primary>  (22) 
energy

$$$$
22:0
     RDKit          3D

 73 76  0  0  0  0  0  0  0  0999 V2000
   -0.4340   19.6790  -35.0480 C   0  0  0  0  0  0  0  0  0  0  0  0
   -1.3430   19.8150  -33.8240 C   0  0  0  0  0  0  0  0  0  0  0  0
   -1.5210   21.2340  -33.5040 N   0  0  0  0  0  0  0  0  0  0  0  0
   -2.0550   21.4470  -32.1500 C   0  0  0  0  0  0  0  0  0  0  0  0
   -3.4930   22.0100  -32.1520 C   0  0  0  0  0  0  0  0  0  0  0  0
   -4.2620   21.6210  -33.3520 N   0  0  0  0  0  0  0  0  0  0  0  0
   -5.4370   20.8120  -33.0290 C   0  0  0  0  0  0  0  0  0  0  0  0
   -6.6310   21.4150  -32.5240 C   0  0  0  0  0  0  0  0  0  0  0  0
   -6.7500   22.8180  -32.3370 C   0  0  0  0  0  0  0  0  0  0  0  0
   -7.9500   23.3920  -31.9440 C   0  0  0  0  0  0  0  0  0  0  0  0
   -9.0650   22.5990  -31.7180 C   0  0  0  0  0  0  0  0  0  0  0  0
   -8.9810   21.2190  -31.8670 C   0  0  0  0  0  0  0  0  0  0  0  0
   -7.7610   20.5950  -32.2380 C   0  0  0  0  0  0  0  0  0  0  0  0
   -7.6730   19.2260  -32.3570 N   0  0  0  0  0  0  0  0  0  0  0  0
   -8.7160   18.3610  -31.7590 C   0  0  0  0  0  0  0  0  0  0  0  0
   -6.6080   18.6550  -33.0190 C   0  0  0  0  0  0  0  0  0  0  0  0
   -6.6650   17.3090  -33.4520 C   0  0  0  0  0  0  0  0  0  0  0  0
   -5.5900   16.7120  -34.1070 C   0  0  0  0  0  0  0  0  0  0  0  0
   -4.4060   17.4240  -34.3050 C   0  0  0  0  0  0  0  0  0  0  0  0
   -3.2800   16.8640  -34.9380 O   0  0  0  0  0  0  0  0  0  0  0  0
   -3.0780   15.4690  -35.1680 C   0  0  0  0  0  0  0  0  0  0  0  0
   -2.6130   14.7440  -33.8870 C   0  0  0  0  0  0  0  0  0  0  0  0
   -2.4740   13.2510  -34.0100 N   0  0  0  0  0  0  0  0  0  0  0  0
   -1.2640   12.9360  -34.8180 C   0  0  0  0  0  0  0  0  0  0  0  0
   -3.6560   12.7230  -34.7740 C   0  0  0  0  0  0  0  0  0  0  0  0
   -5.0300   12.9650  -34.1020 C   0  0  0  0  0  0  0  0  0  0  0  0
   -5.0690   12.3750  -32.6840 C   0  0  0  0  0  0  0  0  0  0  0  0
   -4.5750   13.3500  -31.6110 C   0  0  0  0  0  0  0  0  0  0  0  0
   -3.0410   13.4190  -31.5020 C   0  0  0  0  0  0  0  0  0  0  0  0
   -2.3440   12.6380  -32.6450 C   0  0  0  0  0  0  0  0  0  0  0  0
   -4.3350   18.7580  -33.8990 C   0  0  0  0  0  0  0  0  0  0  0  0
   -5.4470   19.4180  -33.3110 C   0  0  0  0  0  0  0  0  0  0  0  0
    0.6039   19.5237  -34.7185 H   0  0  0  0  0  0  0  0  0  0  0  0
   -0.7592   18.8195  -35.6526 H   0  0  0  0  0  0  0  0  0  0  0  0
   -0.4934   20.5960  -35.6526 H   0  0  0  0  0  0  0  0  0  0  0  0
   -2.3217   19.3625  -34.0418 H   0  0  0  0  0  0  0  0  0  0  0  0
   -0.8841   19.3003  -32.9670 H   0  0  0  0  0  0  0  0  0  0  0  0
   -2.1760   21.6640  -34.2040 H   0  0  0  0  0  0  0  0  0  0  0  0
   -2.0559   20.4843  -31.6177 H   0  0  0  0  0  0  0  0  0  0  0  0
   -1.4112   22.1886  -31.6545 H   0  0  0  0  0  0  0  0  0  0  0  0
   -4.0182   21.6340  -31.2616 H   0  0  0  0  0  0  0  0  0  0  0  0
   -3.4174   23.1074  -32.1503 H   0  0  0  0  0  0  0  0  0  0  0  0
   -3.6380   21.1620  -34.0470 H   0  0  0  0  0  0  0  0  0  0  0  0
   -4.5720   22.4830  -33.8620 H   0  0  0  0  0  0  0  0  0  0  0  0
   -5.8741   23.4614  -32.5070 H   0  0  0  0  0  0  0  0  0  0  0  0
   -8.0176   24.4818  -31.8109 H   0  0  0  0  0  0  0  0  0  0  0  0
  -10.0173   23.0623  -31.4204 H   0  0  0  0  0  0  0  0  0  0  0  0
   -9.8744   20.6008  -31.6946 H   0  0  0  0  0  0  0  0  0  0  0  0
   -8.6519   18.4142  -30.6622 H   0  0  0  0  0  0  0  0  0  0  0  0
   -9.7087   18.7045  -32.0854 H   0  0  0  0  0  0  0  0  0  0  0  0
   -8.5620   17.3219  -32.0854 H   0  0  0  0  0  0  0  0  0  0  0  0
   -7.5768   16.7220  -33.2676 H   0  0  0  0  0  0  0  0  0  0  0  0
   -5.6746   15.6767  -34.4691 H   0  0  0  0  0  0  0  0  0  0  0  0
   -4.0242   15.0224  -35.5076 H   0  0  0  0  0  0  0  0  0  0  0  0
   -2.2942   15.3559  -35.9315 H   0  0  0  0  0  0  0  0  0  0  0  0
   -1.6335   15.1544  -33.6003 H   0  0  0  0  0  0  0  0  0  0  0  0
   -3.3986   14.9164  -33.1366 H   0  0  0  0  0  0  0  0  0  0  0  0
   -0.4212   12.7166  -34.1460 H   0  0  0  0  0  0  0  0  0  0  0  0
   -1.4646   12.0601  -35.4525 H   0  0  0  0  0  0  0  0  0  0  0  0
   -1.0121   13.7985  -35.4525 H   0  0  0  0  0  0  0  0  0  0  0  0
   -3.6687   13.2080  -35.7612 H   0  0  0  0  0  0  0  0  0  0  0  0
   -3.5266   11.6319  -34.8255 H   0  0  0  0  0  0  0  0  0  0  0  0
   -5.2153   14.0478  -34.0449 H   0  0  0  0  0  0  0  0  0  0  0  0
   -5.8042   12.4692  -34.7060 H   0  0  0  0  0  0  0  0  0  0  0  0
   -6.1067   12.0945  -32.4505 H   0  0  0  0  0  0  0  0  0  0  0  0
   -4.3937   11.5067  -32.6725 H   0  0  0  0  0  0  0  0  0  0  0  0
   -4.9522   14.3545  -31.8534 H   0  0  0  0  0  0  0  0  0  0  0  0
   -4.9515   12.9844  -30.6442 H   0  0  0  0  0  0  0  0  0  0  0  0
   -2.7283   14.4726  -31.5491 H   0  0  0  0  0  0  0  0  0  0  0  0
   -2.7464   12.9599  -30.5468 H   0  0  0  0  0  0  0  0  0  0  0  0
   -1.2730   12.5666  -32.4046 H   0  0  0  0  0  0  0  0  0  0  0  0
   -2.8481   11.6618  -32.6994 H   0  0  0  0  0  0  0  0  0  0  0  0
   -3.3947   19.3116  -34.0379 H   0  0  0  0  0  0  0  0  0  0  0  0
  1  2  1  0
  2  3  1  0
  3  4  1  0
  4  5  1  0
  5  6  1  0
  6  7  1  0
  7  8  2  0
  8  9  1  0
  9 10  2  0
 10 11  1  0
 11 12  2  0
 12 13  1  0
 13 14  2  0
 14 15  1  0
 14 16  1  0
 16 17  2  0
 17 18  1  0
 18 19  2  0
 19 20  1  0
 20 21  1  0
 21 22  1  0
 22 23  1  0
 23 24  1  0
 23 25  1  0
 25 26  1  0
 26 27  1  0
 27 28  1  0
 28 29  1  0
 29 30  1  0
 19 31  1  0
 31 32  2  0
 32  7  1  0
 13  8  1  0
 32 16  1  0
 30 23  1  0
  1 33  1  0
  1 34  1  0
  1 35  1  0
  2 36  1  0
  2 37  1  0
  3 38  1  0
  4 39  1  0
  4 40  1  0
  5 41  1  0
  5 42  1  0
  6 43  1  0
  6 44  1  0
  9 45  1  0
 10 46  1  0
 11 47  1  0
 12 48  1  0
 15 49  1  0
 15 50  1  0
 15 51  1  0
 17 52  1  0
 18 53  1  0
 21 54  1  0
 21 55  1  0
 22 56  1  0
 22 57  1  0
 24 58  1  0
 24 59  1  0
 24 60  1  0
 25 61  1  0
 25 62  1  0
 26 63  1  0
 26 64  1  0
 27 65  1  0
 27 66  1  0
 28 67  1  0
 28 68  1  0
 29 69  1  0
 29 70  1  0
 30 71  1  0
 30 72  1  0
 31 73  1  0
M  CHG  3   6   1  14   1  23   1
M  END
>  <UniqueID>  (23) 
23

>  <SMILES>  (23) 
CCNCC[NH2+]c1c2ccccc2[n+](C)c2ccc(OCC[N+]3(C)CCCCCC3)cc12

>  <Energy>  (23) 
120.94259394796686

>  <Genealogy>  (23) 
CCNCC[NH2+]c1c2ccccc2[n+](C)c2ccc(OCC[N+]3(C)CCCCCC3)cc12 (protonated)
CCNCC[NH2+]c1c2ccccc2[n+](C)c2ccc(OCC[N+]3(C)CCCCCC3)cc12 (3D coordinates assigned)
CCNCC[NH2+]c1c2ccccc2[n+](C)c2ccc(OCC[N+]3(C)CCCCCC3)cc12 (nonaromatic ring conformer: 120.94259394796686 kcal/mol)

>  <smiles>  (23) 
CCNCCNc1c2ccccc2[n+](C)c2ccc(OCC[N+]3(C)CCCCCC3)cc12

>  <score_type>  (23) 
oracle

>  <origin>  (23) 
adg

>  <m_score__min__energy>  (23) 
-6.1900000000000004

>  <m_primary>  (23) 
energy

$$$$
23:0
     RDKit          3D

 43 46  0  0  0  0  0  0  0  0999 V2000
   -1.5900   25.3620  -28.5020 Cl  0  0  0  0  0  0  0  0  0  0  0  0
   -2.7520   24.3310  -29.3180 C   0  0  0  0  0  0  0  0  0  0  0  0
   -3.8890   24.8900  -29.9100 C   0  0  0  0  0  0  0  0  0  0  0  0
   -4.8150   24.0710  -30.5610 C   0  0  0  0  0  0  0  0  0  0  0  0
   -4.6070   22.6840  -30.6360 C   0  0  0  0  0  0  0  0  0  0  0  0
   -5.5950   21.8220  -31.3260 C   0  0  0  0  0  0  0  0  0  0  0  0
   -6.9650   21.8890  -31.1590 C   0  0  0  0  0  0  0  0  0  0  0  0
   -7.5380   20.9370  -31.9210 N   0  0  0  0  0  0  0  0  0  0  0  0
   -6.5180   20.3270  -32.5710 C   0  0  0  0  0  0  0  0  0  0  0  0
   -5.3150   20.8340  -32.2090 N   0  0  0  0  0  0  0  0  0  0  0  0
   -4.0270   20.4800  -32.7390 C   0  0  0  0  0  0  0  0  0  0  0  0
   -3.1820   21.4710  -33.2620 C   0  0  0  0  0  0  0  0  0  0  0  0
   -1.9190   21.1280  -33.7570 C   0  0  0  0  0  0  0  0  0  0  0  0
   -1.4940   19.7970  -33.7290 C   0  0  0  0  0  0  0  0  0  0  0  0
   -2.3300   18.8060  -33.2050 C   0  0  0  0  0  0  0  0  0  0  0  0
   -3.5920   19.1460  -32.7090 C   0  0  0  0  0  0  0  0  0  0  0  0
   -6.7250   19.2380  -33.5880 C   0  0  0  0  0  0  0  0  0  0  0  0
   -7.2810   17.9630  -32.9370 C   0  0  0  0  0  0  0  0  0  0  0  0
   -8.4870   18.2060  -32.0030 C   0  0  0  0  0  0  0  0  0  0  0  0
   -9.4160   19.3240  -32.5030 C   0  0  0  0  0  0  0  0  0  0  0  0
   -8.9890   20.7460  -32.0700 C   0  0  0  0  0  0  0  0  0  0  0  0
   -3.4700   22.1280  -30.0240 C   0  0  0  0  0  0  0  0  0  0  0  0
   -2.5450   22.9500  -29.3740 C   0  0  0  0  0  0  0  0  0  0  0  0
   -4.0546   25.9765  -29.8630 H   0  0  0  0  0  0  0  0  0  0  0  0
   -5.7120   24.5150  -31.0174 H   0  0  0  0  0  0  0  0  0  0  0  0
   -7.4987   22.6007  -30.5120 H   0  0  0  0  0  0  0  0  0  0  0  0
   -3.5133   22.5197  -33.2828 H   0  0  0  0  0  0  0  0  0  0  0  0
   -1.2600   21.9067  -34.1685 H   0  0  0  0  0  0  0  0  0  0  0  0
   -0.5012   19.5287  -34.1194 H   0  0  0  0  0  0  0  0  0  0  0  0
   -1.9945   17.7586  -33.1831 H   0  0  0  0  0  0  0  0  0  0  0  0
   -4.2463   18.3653  -32.2938 H   0  0  0  0  0  0  0  0  0  0  0  0
   -7.4358   19.5902  -34.3501 H   0  0  0  0  0  0  0  0  0  0  0  0
   -5.7524   18.9991  -34.0429 H   0  0  0  0  0  0  0  0  0  0  0  0
   -7.5961   17.2762  -33.7364 H   0  0  0  0  0  0  0  0  0  0  0  0
   -6.4754   17.5481  -32.3134 H   0  0  0  0  0  0  0  0  0  0  0  0
   -9.0672   17.2743  -31.9295 H   0  0  0  0  0  0  0  0  0  0  0  0
   -8.0898   18.5194  -31.0263 H   0  0  0  0  0  0  0  0  0  0  0  0
   -9.4359   19.2898  -33.6023 H   0  0  0  0  0  0  0  0  0  0  0  0
  -10.4023   19.1398  -32.0522 H   0  0  0  0  0  0  0  0  0  0  0  0
   -9.3516   21.4573  -32.8267 H   0  0  0  0  0  0  0  0  0  0  0  0
   -9.4263   20.9103  -31.0741 H   0  0  0  0  0  0  0  0  0  0  0  0
   -3.3075   21.0406  -30.0568 H   0  0  0  0  0  0  0  0  0  0  0  0
   -1.6526   22.5091  -28.9057 H   0  0  0  0  0  0  0  0  0  0  0  0
  1  2  1  0
  2  3  2  0
  3  4  1  0
  4  5  2  0
  5  6  1  0
  6  7  2  0
  7  8  1  0
  8  9  1  0
  9 10  2  0
 10 11  1  0
 11 12  2  0
 12 13  1  0
 13 14  2  0
 14 15  1  0
 15 16  2  0
  9 17  1  0
 17 18  1  0
 18 19  1  0
 19 20  1  0
 20 21  1  0
  5 22  1  0
 22 23  2  0
 23  2  1  0
 10  6  1  0
 16 11  1  0
 21  8  1  0
  3 24  1  0
  4 25  1  0
  7 26  1  0
 12 27  1  0
 13 28  1  0
 14 29  1  0
 15 30  1  0
 16 31  1  0
 17 32  1  0
 17 33  1  0
 18 34  1  0
 18 35  1  0
 19 36  1  0
 19 37  1  0
 20 38  1  0
 20 39  1  0
 21 40  1  0
 21 41  1  0
 22 42  1  0
 23 43  1  0
M  CHG  1  10   1
M  END
>  <UniqueID>  (24) 
24

>  <SMILES>  (24) 
Clc1ccc(-c2cn3c([n+]2-c2ccccc2)CCCCC3)cc1

>  <Energy>  (24) 
92.2533725283618

>  <Genealogy>  (24) 
Clc1ccc(-c2cn3c([n+]2-c2ccccc2)CCCCC3)cc1 (3D coordinates assigned)
Clc1ccc(-c2cn3c([n+]2-c2ccccc2)CCCCC3)cc1 (nonaromatic ring conformer: 92.2533725283618 kcal/mol)

>  <smiles>  (24) 
Clc1ccc(-c2cn3c([n+]2-c2ccccc2)CCCCC3)cc1

>  <score_type>  (24) 
oracle

>  <origin>  (24) 
adg

>  <m_score__min__energy>  (24) 
-6.2699999999999996

>  <m_primary>  (24) 
energy

$$$$
24:0
     RDKit          3D

 61 63  0  0  0  0  0  0  0  0999 V2000
   -8.5942   24.3527  -31.8544 H   0  0  0  0  0  0  0  0  0  0  0  0
   -8.4220   23.2720  -31.9660 C   0  0  0  0  0  0  0  0  0  0  0  0
   -9.4270   22.3750  -31.6390 C   0  0  0  0  0  0  0  0  0  0  0  0
  -10.3955   22.7455  -31.2720 H   0  0  0  0  0  0  0  0  0  0  0  0
   -9.2130   21.0080  -31.7740 C   0  0  0  0  0  0  0  0  0  0  0  0
  -10.0206   20.3080  -31.5135 H   0  0  0  0  0  0  0  0  0  0  0  0
   -7.9740   20.4970  -32.2410 C   0  0  0  0  0  0  0  0  0  0  0  0
   -6.9380   21.4230  -32.5860 C   0  0  0  0  0  0  0  0  0  0  0  0
   -7.1960   22.8100  -32.4350 C   0  0  0  0  0  0  0  0  0  0  0  0
   -6.4105   23.5352  -32.6941 H   0  0  0  0  0  0  0  0  0  0  0  0
   -5.6820   20.9460  -33.0740 C   0  0  0  0  0  0  0  0  0  0  0  0
   -4.5910   21.8740  -33.3480 N   0  0  0  0  0  0  0  0  0  0  0  0
   -3.9670   21.5610  -34.1150 H   0  0  0  0  0  0  0  0  0  0  0  0
   -4.9760   22.7670  -33.7300 H   0  0  0  0  0  0  0  0  0  0  0  0
   -3.7820   22.1670  -32.1490 C   0  0  0  0  0  0  0  0  0  0  0  0
   -2.9362   22.8060  -32.4429 H   0  0  0  0  0  0  0  0  0  0  0  0
   -3.4420   21.2062  -31.7352 H   0  0  0  0  0  0  0  0  0  0  0  0
   -4.5900   22.8920  -31.0440 C   0  0  0  0  0  0  0  0  0  0  0  0
   -4.4760   22.3237  -30.1091 H   0  0  0  0  0  0  0  0  0  0  0  0
   -5.6290   22.9382  -31.4024 H   0  0  0  0  0  0  0  0  0  0  0  0
   -4.1770   24.2950  -30.7840 N   0  0  0  0  0  0  0  0  0  0  0  0
   -3.2180   24.5260  -29.6810 C   0  0  0  0  0  0  0  0  0  0  0  0
   -3.3725   25.5366  -29.2749 H   0  0  0  0  0  0  0  0  0  0  0  0
   -2.1964   24.4230  -30.0757 H   0  0  0  0  0  0  0  0  0  0  0  0
   -3.4160   23.5020  -28.5640 C   0  0  0  0  0  0  0  0  0  0  0  0
   -3.3196   24.0006  -27.5882 H   0  0  0  0  0  0  0  0  0  0  0  0
   -4.4173   23.0547  -28.6499 H   0  0  0  0  0  0  0  0  0  0  0  0
   -2.6536   22.7137  -28.6499 H   0  0  0  0  0  0  0  0  0  0  0  0
   -5.2750   25.2860  -30.8520 C   0  0  0  0  0  0  0  0  0  0  0  0
   -4.8493   26.2884  -30.6973 H   0  0  0  0  0  0  0  0  0  0  0  0
   -5.7452   25.1803  -31.8408 H   0  0  0  0  0  0  0  0  0  0  0  0
   -6.3690   25.0580  -29.8070 C   0  0  0  0  0  0  0  0  0  0  0  0
   -5.9377   25.1479  -28.7991 H   0  0  0  0  0  0  0  0  0  0  0  0
   -7.1612   25.8104  -29.9353 H   0  0  0  0  0  0  0  0  0  0  0  0
   -6.7947   24.0518  -29.9353 H   0  0  0  0  0  0  0  0  0  0  0  0
   -5.5320   19.5430  -33.2410 C   0  0  0  0  0  0  0  0  0  0  0  0
   -4.4280   18.8230  -33.7470 C   0  0  0  0  0  0  0  0  0  0  0  0
   -3.3080   19.3000  -34.2040 N   0  0  0  0  0  0  0  0  0  0  0  0
   -1.9850   18.7200  -33.9840 C   0  0  0  0  0  0  0  0  0  0  0  0
   -2.0838   17.6327  -33.8494 H   0  0  0  0  0  0  0  0  0  0  0  0
   -1.3509   18.9369  -34.8563 H   0  0  0  0  0  0  0  0  0  0  0  0
   -1.3360   19.3270  -32.7340 C   0  0  0  0  0  0  0  0  0  0  0  0
   -1.9481   19.0798  -31.8541 H   0  0  0  0  0  0  0  0  0  0  0  0
   -0.3234   18.9111  -32.6262 H   0  0  0  0  0  0  0  0  0  0  0  0
   -1.2330   20.7980  -32.8550 N   0  0  0  0  0  0  0  0  0  0  0  0
   -0.5170   21.1810  -34.0860 C   0  0  0  0  0  0  0  0  0  0  0  0
    0.4244   21.6846  -33.8210 H   0  0  0  0  0  0  0  0  0  0  0  0
   -0.2970   20.2801  -34.6776 H   0  0  0  0  0  0  0  0  0  0  0  0
   -1.1443   21.8640  -34.6776 H   0  0  0  0  0  0  0  0  0  0  0  0
   -0.5260   21.3500  -31.6870 C   0  0  0  0  0  0  0  0  0  0  0  0
   -0.9983   20.9812  -30.7645 H   0  0  0  0  0  0  0  0  0  0  0  0
    0.5269   21.0326  -31.7120 H   0  0  0  0  0  0  0  0  0  0  0  0
   -0.5785   22.4485  -31.7120 H   0  0  0  0  0  0  0  0  0  0  0  0
   -4.8400   17.2100  -33.6830 S   0  0  0  0  0  0  0  0  0  0  0  0
   -6.3630   17.3350  -33.0490 N   0  0  0  0  0  0  0  0  0  0  0  0
   -6.5890   18.6670  -32.8700 C   0  0  0  0  0  0  0  0  0  0  0  0
   -7.7710   19.1370  -32.3640 N   0  0  0  0  0  0  0  0  0  0  0  0
   -8.8250   18.1770  -31.9680 C   0  0  0  0  0  0  0  0  0  0  0  0
   -8.8810   18.1260  -30.8706 H   0  0  0  0  0  0  0  0  0  0  0  0
   -9.7936   18.5097  -32.3695 H   0  0  0  0  0  0  0  0  0  0  0  0
   -8.5840   17.1816  -32.3695 H   0  0  0  0  0  0  0  0  0  0  0  0
  1  2  1  0
  2  3  2  0
  3  4  1  0
  3  5  1  0
  5  6  1  0
  5  7  2  0
  7  8  1  0
  8  9  2  0
  9 10  1  0
  8 11  1  0
 11 12  1  0
 12 13  1  0
 12 14  1  0
 12 15  1  0
 15 16  1  0
 15 17  1  0
 15 18  1  0
 18 19  1  0
 18 20  1  0
 18 21  1  0
 21 22  1  0
 22 23  1  0
 22 24  1  0
 22 25  1  0
 25 26  1  0
 25 27  1  0
 25 28  1  0
 21 29  1  0
 29 30  1  0
 29 31  1  0
 29 32  1  0
 32 33  1  0
 32 34  1  0
 32 35  1  0
 11 36  2  0
 36 37  1  0
 37 38  2  0
 38 39  1  0
 39 40  1  0
 39 41  1  0
 39 42  1  0
 42 43  1  0
 42 44  1  0
 42 45  1  0
 45 46  1  0
 46 47  1  0
 46 48  1  0
 46 49  1  0
 45 50  1  0
 50 51  1  0
 50 52  1  0
 50 53  1  0
 37 54  1  0
 54 55  1  0
 55 56  1  0
 56 57  2  0
 57 58  1  0
 58 59  1  0
 58 60  1  0
 58 61  1  0
  9  2  1  0
 56 36  1  0
 57  7  1  0
M  CHG  3  12   1  55  -1  57   1
M  END
>  <UniqueID>  (25) 
25

>  <SMILES>  (25) 
CCN(CC)CC[NH2+]c1c2ccccc2[n+](C)c2[n-]s/c(=N/CCN(C)C)c12

>  <Energy>  (25) 
121.19824420171985

>  <Genealogy>  (25) 
CCN(CC)CC[NH2+]c1c2ccccc2[n+](C)c2[n-]sc(=NCCN(C)C)c12 (protonated)
CCN(CC)CC[NH2+]c1c2ccccc2[n+](C)c2[n-]s/c(=N/CCN(C)C)c12 (cis-trans isomerization)
CCN(CC)CC[NH2+]c1c2ccccc2[n+](C)c2[n-]s/c(=N/CCN(C)C)c12 (3D coordinates assigned)
CCN(CC)CC[NH2+]c1c2ccccc2[n+](C)c2[n-]s/c(=N/CCN(C)C)c12 (optimized conformer: 121.19824420171985 kcal/mol)

>  <smiles>  (25) 
CCN(CC)CCNc1c2ccccc2[n+](C)c2[nH]sc(=NCCN(C)C)c12

>  <score_type>  (25) 
oracle

>  <origin>  (25) 
adg

>  <m_score__min__energy>  (25) 
-8.25

>  <m_primary>  (25) 
energy

$$$$
25:0
     RDKit          3D

 57 60  0  0  0  0  0  0  0  0999 V2000
   -0.5170   19.5000  -28.6600 C   0  0  0  0  0  0  0  0  0  0  0  0
   -0.4900   19.7140  -30.1730 C   0  0  0  0  0  0  0  0  0  0  0  0
   -1.2330   20.9340  -30.5690 N   0  0  0  0  0  0  0  0  0  0  0  0
   -1.1040   21.9480  -29.5050 C   0  0  0  0  0  0  0  0  0  0  0  0
   -0.7680   21.4790  -31.8720 C   0  0  0  0  0  0  0  0  0  0  0  0
   -1.4980   20.7870  -33.0340 C   0  0  0  0  0  0  0  0  0  0  0  0
   -3.0020   21.1310  -33.0990 C   0  0  0  0  0  0  0  0  0  0  0  0
   -3.7310   20.6090  -31.9400 N   0  0  0  0  0  0  0  0  0  0  0  0
   -5.1610   20.5280  -31.9080 C   0  0  0  0  0  0  0  0  0  0  0  0
   -5.8540   19.3610  -32.3080 C   0  0  0  0  0  0  0  0  0  0  0  0
   -5.1550   18.1750  -32.6070 C   0  0  0  0  0  0  0  0  0  0  0  0
   -5.8380   17.0280  -33.0060 C   0  0  0  0  0  0  0  0  0  0  0  0
   -7.2260   17.0320  -33.0850 C   0  0  0  0  0  0  0  0  0  0  0  0
   -7.9490   18.1810  -32.7630 C   0  0  0  0  0  0  0  0  0  0  0  0
   -7.2890   19.3730  -32.3770 C   0  0  0  0  0  0  0  0  0  0  0  0
   -7.9950   20.5220  -32.0530 N   0  0  0  0  0  0  0  0  0  0  0  0
   -9.4550   20.6100  -32.2390 C   0  0  0  0  0  0  0  0  0  0  0  0
   -7.3030   21.5830  -31.5300 C   0  0  0  0  0  0  0  0  0  0  0  0
   -7.8360   22.7260  -31.0310 N   0  0  0  0  0  0  0  0  0  0  0  0
   -6.7770   23.4690  -30.6500 C   0  0  0  0  0  0  0  0  0  0  0  0
   -6.8150   24.7390  -30.0810 C   0  0  0  0  0  0  0  0  0  0  0  0
   -5.5940   25.3580  -29.7610 C   0  0  0  0  0  0  0  0  0  0  0  0
   -4.3600   24.6990  -30.0100 C   0  0  0  0  0  0  0  0  0  0  0  0
   -3.1250   25.2890  -29.7040 O   0  0  0  0  0  0  0  0  0  0  0  0
   -2.2970   24.9000  -28.6130 C   0  0  0  0  0  0  0  0  0  0  0  0
   -4.3590   23.4130  -30.5820 C   0  0  0  0  0  0  0  0  0  0  0  0
   -5.5860   22.8220  -30.8970 C   0  0  0  0  0  0  0  0  0  0  0  0
   -5.9250   21.6010  -31.4570 C   0  0  0  0  0  0  0  0  0  0  0  0
   -0.3950   20.4673  -28.1506 H   0  0  0  0  0  0  0  0  0  0  0  0
   -1.4788   19.0518  -28.3702 H   0  0  0  0  0  0  0  0  0  0  0  0
    0.3033   18.8269  -28.3702 H   0  0  0  0  0  0  0  0  0  0  0  0
    0.5556   19.8118  -30.5003 H   0  0  0  0  0  0  0  0  0  0  0  0
   -0.9738   18.8488  -30.6497 H   0  0  0  0  0  0  0  0  0  0  0  0
   -1.1663   21.4581  -28.5221 H   0  0  0  0  0  0  0  0  0  0  0  0
   -0.1338   22.4576  -29.5998 H   0  0  0  0  0  0  0  0  0  0  0  0
   -1.9157   22.6843  -29.5998 H   0  0  0  0  0  0  0  0  0  0  0  0
   -0.9733   22.5591  -31.9070 H   0  0  0  0  0  0  0  0  0  0  0  0
    0.3122   21.2959  -31.9700 H   0  0  0  0  0  0  0  0  0  0  0  0
   -1.0270   21.0988  -33.9779 H   0  0  0  0  0  0  0  0  0  0  0  0
   -1.4177   19.7022  -32.8706 H   0  0  0  0  0  0  0  0  0  0  0  0
   -3.1160   22.2247  -33.1281 H   0  0  0  0  0  0  0  0  0  0  0  0
   -3.4201   20.6653  -34.0036 H   0  0  0  0  0  0  0  0  0  0  0  0
   -3.1940   20.2440  -31.1240 H   0  0  0  0  0  0  0  0  0  0  0  0
   -4.0583   18.1543  -32.5246 H   0  0  0  0  0  0  0  0  0  0  0  0
   -5.2771   16.1163  -33.2593 H   0  0  0  0  0  0  0  0  0  0  0  0
   -7.7577   16.1232  -33.4035 H   0  0  0  0  0  0  0  0  0  0  0  0
   -9.0478   18.1607  -32.8096 H   0  0  0  0  0  0  0  0  0  0  0  0
   -9.9487   20.6398  -31.2564 H   0  0  0  0  0  0  0  0  0  0  0  0
   -9.6987   21.5245  -32.7997 H   0  0  0  0  0  0  0  0  0  0  0  0
   -9.8068   19.7314  -32.7997 H   0  0  0  0  0  0  0  0  0  0  0  0
   -8.8390   22.9920  -30.9210 H   0  0  0  0  0  0  0  0  0  0  0  0
   -7.7730   25.2437  -29.8873 H   0  0  0  0  0  0  0  0  0  0  0  0
   -5.5939   26.3628  -29.3133 H   0  0  0  0  0  0  0  0  0  0  0  0
   -2.8030   25.1377  -27.6657 H   0  0  0  0  0  0  0  0  0  0  0  0
   -2.1060   23.8180  -28.6652 H   0  0  0  0  0  0  0  0  0  0  0  0
   -1.3422   25.4438  -28.6652 H   0  0  0  0  0  0  0  0  0  0  0  0
   -3.4139   22.8849  -30.7768 H   0  0  0  0  0  0  0  0  0  0  0  0
  1  2  1  0
  2  3  1  0
  3  4  1  0
  3  5  1  0
  5  6  1  0
  6  7  1  0
  7  8  1  0
  8  9  1  0
  9 10  2  0
 10 11  1  0
 11 12  2  0
 12 13  1  0
 13 14  2  0
 14 15  1  0
 15 16  2  0
 16 17  1  0
 16 18  1  0
 18 19  1  0
 19 20  1  0
 20 21  2  0
 21 22  1  0
 22 23  2  0
 23 24  1  0
 24 25  1  0
 23 26  1  0
 26 27  2  0
 27 28  1  0
 28  9  1  0
 15 10  1  0
 28 18  2  0
 27 20  1  0
  1 29  1  0
  1 30  1  0
  1 31  1  0
  2 32  1  0
  2 33  1  0
  4 34  1  0
  4 35  1  0
  4 36  1  0
  5 37  1  0
  5 38  1  0
  6 39  1  0
  6 40  1  0
  7 41  1  0
  7 42  1  0
  8 43  1  0
 11 44  1  0
 12 45  1  0
 13 46  1  0
 14 47  1  0
 17 48  1  0
 17 49  1  0
 17 50  1  0
 19 51  1  0
 21 52  1  0
 22 53  1  0
 25 54  1  0
 25 55  1  0
 25 56  1  0
 26 57  1  0
M  CHG  1  16   1
M  END
>  <UniqueID>  (26) 
26

>  <SMILES>  (26) 
CCN(C)CCCNc1c2ccccc2[n+](C)c2[nH]c3ccc(OC)cc3c12

>  <Energy>  (26) 
112.09839556644654

>  <Genealogy>  (26) 
CCN(C)CCCNc1c2ccccc2[n+](C)c2[nH]c3ccc(OC)cc3c12 (3D coordinates assigned)
CCN(C)CCCNc1c2ccccc2[n+](C)c2[nH]c3ccc(OC)cc3c12 (optimized conformer: 112.09839556644654 kcal/mol)

>  <smiles>  (26) 
CCN(C)CCCNc1c2ccccc2[n+](C)c2[nH]c3ccc(OC)cc3c12

>  <score_type>  (26) 
oracle

>  <origin>  (26) 
adg

>  <m_score__min__energy>  (26) 
-8.9499999999999993

>  <m_primary>  (26) 
energy

$$$$
26:0
     RDKit          3D

 48 50  0  0  0  0  0  0  0  0999 V2000
   -1.5770   24.3790  -29.0360 C   0  0  0  0  0  0  0  0  0  0  0  0
   -2.9430   23.8840  -29.5000 C   0  0  0  0  0  0  0  0  0  0  0  0
   -3.6590   24.9550  -30.2100 N   0  0  0  0  0  0  0  0  0  0  0  0
   -5.0930   25.0180  -29.8650 C   0  0  0  0  0  0  0  0  0  0  0  0
   -6.0120   24.9160  -31.0970 C   0  0  0  0  0  0  0  0  0  0  0  0
   -6.0190   23.5320  -31.6740 C   0  0  0  0  0  0  0  0  0  0  0  0
   -5.4430   23.3200  -32.7760 O   0  0  0  0  0  0  0  0  0  0  0  0
   -6.7360   22.4790  -31.0150 N   0  0  0  0  0  0  0  0  0  0  0  0
   -6.8960   21.1810  -31.6020 C   0  0  0  0  0  0  0  0  0  0  0  0
   -5.7710   20.5290  -32.1270 C   0  0  0  0  0  0  0  0  0  0  0  0
   -5.8900   19.2510  -32.7020 C   0  0  0  0  0  0  0  0  0  0  0  0
   -4.7860   18.5530  -33.2210 C   0  0  0  0  0  0  0  0  0  0  0  0
   -3.6370   19.0740  -33.1620 O   0  0  0  0  0  0  0  0  0  0  0  0
   -4.9550   17.3120  -33.7850 N   0  0  0  0  0  0  0  0  0  0  0  0
   -6.2050   16.7340  -33.8070 C   0  0  0  0  0  0  0  0  0  0  0  0
   -7.2750   17.4020  -33.3020 N   0  0  0  0  0  0  0  0  0  0  0  0
   -7.1530   18.6370  -32.7610 C   0  0  0  0  0  0  0  0  0  0  0  0
   -8.2800   19.2950  -32.2600 C   0  0  0  0  0  0  0  0  0  0  0  0
   -8.1600   20.5660  -31.6870 C   0  0  0  0  0  0  0  0  0  0  0  0
   -9.6200   21.3890  -31.1510 Cl  0  0  0  0  0  0  0  0  0  0  0  0
   -6.4200   15.3380  -34.3450 C   0  0  0  0  0  0  0  0  0  0  0  0
   -5.7350   14.2280  -33.5110 C   0  0  0  0  0  0  0  0  0  0  0  0
   -4.2110   14.0840  -33.6980 C   0  0  0  0  0  0  0  0  0  0  0  0
   -3.4180   15.3740  -33.4240 C   0  0  0  0  0  0  0  0  0  0  0  0
   -3.7990   16.5640  -34.3240 C   0  0  0  0  0  0  0  0  0  0  0  0
   -1.5452   24.3905  -27.9365 H   0  0  0  0  0  0  0  0  0  0  0  0
   -0.7943   23.7073  -29.4184 H   0  0  0  0  0  0  0  0  0  0  0  0
   -1.4063   25.3962  -29.4184 H   0  0  0  0  0  0  0  0  0  0  0  0
   -2.8081   23.0271  -30.1765 H   0  0  0  0  0  0  0  0  0  0  0  0
   -3.5315   23.5810  -28.6215 H   0  0  0  0  0  0  0  0  0  0  0  0
   -3.5310   24.8330  -31.2410 H   0  0  0  0  0  0  0  0  0  0  0  0
   -5.3266   24.1869  -29.1833 H   0  0  0  0  0  0  0  0  0  0  0  0
   -5.2767   25.9962  -29.3967 H   0  0  0  0  0  0  0  0  0  0  0  0
   -7.0369   25.1829  -30.7997 H   0  0  0  0  0  0  0  0  0  0  0  0
   -5.6310   25.6047  -31.8655 H   0  0  0  0  0  0  0  0  0  0  0  0
   -7.3490   22.7260  -30.2060 H   0  0  0  0  0  0  0  0  0  0  0  0
   -4.7878   21.0209  -32.0888 H   0  0  0  0  0  0  0  0  0  0  0  0
   -9.2663   18.8112  -32.3165 H   0  0  0  0  0  0  0  0  0  0  0  0
   -7.5015   15.1379  -34.3647 H   0  0  0  0  0  0  0  0  0  0  0  0
   -5.9650   15.3097  -35.3461 H   0  0  0  0  0  0  0  0  0  0  0  0
   -5.9250   14.4399  -32.4485 H   0  0  0  0  0  0  0  0  0  0  0  0
   -6.1678   13.2811  -33.8660 H   0  0  0  0  0  0  0  0  0  0  0  0
   -3.8510   13.3049  -33.0100 H   0  0  0  0  0  0  0  0  0  0  0  0
   -4.0446   13.8287  -34.7549 H   0  0  0  0  0  0  0  0  0  0  0  0
   -3.5896   15.6665  -32.3776 H   0  0  0  0  0  0  0  0  0  0  0  0
   -2.3643   15.1442  -33.6405 H   0  0  0  0  0  0  0  0  0  0  0  0
   -2.9379   17.2444  -34.3981 H   0  0  0  0  0  0  0  0  0  0  0  0
   -4.0776   16.1698  -35.3124 H   0  0  0  0  0  0  0  0  0  0  0  0
  1  2  1  0
  2  3  1  0
  3  4  1  0
  4  5  1  0
  5  6  1  0
  6  7  2  0
  6  8  1  0
  8  9  1  0
  9 10  2  0
 10 11  1  0
 11 12  1  0
 12 13  2  0
 12 14  1  0
 14 15  1  0
 15 16  2  0
 16 17  1  0
 17 18  1  0
 18 19  2  0
 19 20  1  0
 15 21  1  0
 21 22  1  0
 22 23  1  0
 23 24  1  0
 24 25  1  0
 19  9  1  0
 17 11  2  0
 25 14  1  0
  1 26  1  0
  1 27  1  0
  1 28  1  0
  2 29  1  0
  2 30  1  0
  3 31  1  0
  4 32  1  0
  4 33  1  0
  5 34  1  0
  5 35  1  0
  8 36  1  0
 10 37  1  0
 18 38  1  0
 21 39  1  0
 21 40  1  0
 22 41  1  0
 22 42  1  0
 23 43  1  0
 23 44  1  0
 24 45  1  0
 24 46  1  0
 25 47  1  0
 25 48  1  0
M  END
>  <UniqueID>  (27) 
27

>  <SMILES>  (27) 
CCNCCC(=O)Nc1cc2c(=O)n3c(nc2cc1Cl)CCCCC3

>  <Energy>  (27) 
63.70698439180315

>  <Genealogy>  (27) 
CCNCCC(=O)Nc1cc2c(=O)n3c(nc2cc1Cl)CCCCC3 (3D coordinates assigned)
CCNCCC(=O)Nc1cc2c(=O)n3c(nc2cc1Cl)CCCCC3 (nonaromatic ring conformer: 63.70698439180315 kcal/mol)

>  <smiles>  (27) 
CCNCCC(=O)Nc1cc2c(=O)n3c(nc2cc1Cl)CCCCC3

>  <score_type>  (27) 
oracle

>  <origin>  (27) 
adg

>  <m_score__min__energy>  (27) 
-7.4699999999999998

>  <m_primary>  (27) 
energy

$$$$
27:0
     RDKit          3D

 56 59  0  0  0  0  0  0  0  0999 V2000
   -6.1500   25.2710  -29.3630 C   0  0  0  0  0  0  0  0  0  0  0  0
   -5.4960   25.3150  -30.7440 C   0  0  0  0  0  0  0  0  0  0  0  0
   -4.3250   24.4230  -30.7980 N   0  0  0  0  0  0  0  0  0  0  0  0
   -3.9420   23.9180  -29.4670 C   0  0  0  0  0  0  0  0  0  0  0  0
   -3.1120   22.6300  -29.5400 C   0  0  0  0  0  0  0  0  0  0  0  0
   -2.7790   22.3780  -30.8900 O   0  0  0  0  0  0  0  0  0  0  0  0
   -2.1410   21.1210  -31.0220 C   0  0  0  0  0  0  0  0  0  0  0  0
   -1.6830   20.8920  -32.4640 C   0  0  0  0  0  0  0  0  0  0  0  0
   -2.8100   20.9980  -33.3920 N   0  0  0  0  0  0  0  0  0  0  0  0
   -3.9030   20.0690  -33.3520 C   0  0  0  0  0  0  0  0  0  0  0  0
   -5.1430   20.4820  -32.8730 C   0  0  0  0  0  0  0  0  0  0  0  0
   -6.2230   19.6200  -32.8580 C   0  0  0  0  0  0  0  0  0  0  0  0
   -6.0990   18.2950  -33.1930 N   0  0  0  0  0  0  0  0  0  0  0  0
   -7.1800   17.3490  -32.8650 C   0  0  0  0  0  0  0  0  0  0  0  0
   -4.9110   17.8640  -33.7620 C   0  0  0  0  0  0  0  0  0  0  0  0
   -4.7780   16.5660  -34.3130 C   0  0  0  0  0  0  0  0  0  0  0  0
   -3.5540   16.1200  -34.8100 C   0  0  0  0  0  0  0  0  0  0  0  0
   -2.4370   16.9470  -34.7740 C   0  0  0  0  0  0  0  0  0  0  0  0
   -2.5420   18.2440  -34.2780 C   0  0  0  0  0  0  0  0  0  0  0  0
   -3.7760   18.7370  -33.8090 C   0  0  0  0  0  0  0  0  0  0  0  0
   -7.3930   20.3820  -32.4000 C   0  0  0  0  0  0  0  0  0  0  0  0
   -8.7620   20.0750  -32.3970 C   0  0  0  0  0  0  0  0  0  0  0  0
   -9.6730   21.0530  -31.9690 C   0  0  0  0  0  0  0  0  0  0  0  0
   -9.2220   22.3310  -31.5970 C   0  0  0  0  0  0  0  0  0  0  0  0
   -7.8580   22.6480  -31.6700 C   0  0  0  0  0  0  0  0  0  0  0  0
   -6.9620   21.6620  -32.0840 C   0  0  0  0  0  0  0  0  0  0  0  0
   -5.5020   21.8400  -32.3460 C   0  0  0  0  0  0  0  0  0  0  0  0
   -5.3721   25.3233  -28.5871 H   0  0  0  0  0  0  0  0  0  0  0  0
   -6.8346   26.1251  -29.2541 H   0  0  0  0  0  0  0  0  0  0  0  0
   -6.7140   24.3329  -29.2541 H   0  0  0  0  0  0  0  0  0  0  0  0
   -6.2282   24.9948  -31.4999 H   0  0  0  0  0  0  0  0  0  0  0  0
   -5.1640   26.3445  -30.9437 H   0  0  0  0  0  0  0  0  0  0  0  0
   -4.5590   23.5950  -31.3950 H   0  0  0  0  0  0  0  0  0  0  0  0
   -3.5150   24.9220  -31.2370 H   0  0  0  0  0  0  0  0  0  0  0  0
   -3.3494   24.6902  -28.9545 H   0  0  0  0  0  0  0  0  0  0  0  0
   -4.8678   23.6866  -28.9199 H   0  0  0  0  0  0  0  0  0  0  0  0
   -2.1922   22.7490  -28.9485 H   0  0  0  0  0  0  0  0  0  0  0  0
   -3.6927   21.7880  -29.1352 H   0  0  0  0  0  0  0  0  0  0  0  0
   -1.2658   21.0893  -30.3564 H   0  0  0  0  0  0  0  0  0  0  0  0
   -2.8577   20.3319  -30.7505 H   0  0  0  0  0  0  0  0  0  0  0  0
   -0.9278   21.6475  -32.7265 H   0  0  0  0  0  0  0  0  0  0  0  0
   -1.2572   19.8807  -32.5416 H   0  0  0  0  0  0  0  0  0  0  0  0
   -2.6470   21.5180  -34.2840 H   0  0  0  0  0  0  0  0  0  0  0  0
   -7.2753   17.2656  -31.7723 H   0  0  0  0  0  0  0  0  0  0  0  0
   -8.1273   17.7135  -33.2889 H   0  0  0  0  0  0  0  0  0  0  0  0
   -6.9444   16.3617  -33.2889 H   0  0  0  0  0  0  0  0  0  0  0  0
   -5.6529   15.9002  -34.3494 H   0  0  0  0  0  0  0  0  0  0  0  0
   -3.4717   15.1079  -35.2330 H   0  0  0  0  0  0  0  0  0  0  0  0
   -1.4677   16.5758  -35.1383 H   0  0  0  0  0  0  0  0  0  0  0  0
   -1.6524   18.8904  -34.2520 H   0  0  0  0  0  0  0  0  0  0  0  0
   -9.1149   19.0858  -32.7241 H   0  0  0  0  0  0  0  0  0  0  0  0
  -10.7466   20.8178  -31.9244 H   0  0  0  0  0  0  0  0  0  0  0  0
   -9.9418   23.0856  -31.2472 H   0  0  0  0  0  0  0  0  0  0  0  0
   -7.5014   23.6545  -31.4060 H   0  0  0  0  0  0  0  0  0  0  0  0
   -5.3177   22.6259  -33.0933 H   0  0  0  0  0  0  0  0  0  0  0  0
   -4.9176   22.1575  -31.4698 H   0  0  0  0  0  0  0  0  0  0  0  0
  1  2  1  0
  2  3  1  0
  3  4  1  0
  4  5  1  0
  5  6  1  0
  6  7  1  0
  7  8  1  0
  8  9  1  0
  9 10  1  0
 10 11  2  0
 11 12  1  0
 12 13  2  0
 13 14  1  0
 13 15  1  0
 15 16  2  0
 16 17  1  0
 17 18  2  0
 18 19  1  0
 19 20  2  0
 12 21  1  0
 21 22  2  0
 22 23  1  0
 23 24  2  0
 24 25  1  0
 25 26  2  0
 26 27  1  0
 20 10  1  0
 26 21  1  0
 27 11  1  0
 20 15  1  0
  1 28  1  0
  1 29  1  0
  1 30  1  0
  2 31  1  0
  2 32  1  0
  3 33  1  0
  3 34  1  0
  4 35  1  0
  4 36  1  0
  5 37  1  0
  5 38  1  0
  7 39  1  0
  7 40  1  0
  8 41  1  0
  8 42  1  0
  9 43  1  0
 14 44  1  0
 14 45  1  0
 14 46  1  0
 16 47  1  0
 17 48  1  0
 18 49  1  0
 19 50  1  0
 22 51  1  0
 23 52  1  0
 24 53  1  0
 25 54  1  0
 27 55  1  0
 27 56  1  0
M  CHG  2   3   1  13   1
M  END
>  <UniqueID>  (28) 
28

>  <SMILES>  (28) 
CC[NH2+]CCOCCNc1c2c([n+](C)c3ccccc13)-c1ccccc1C2

>  <Energy>  (28) 
97.37313677762866

>  <Genealogy>  (28) 
CC[NH2+]CCOCCNc1c2c([n+](C)c3ccccc13)-c1ccccc1C2 (protonated)
CC[NH2+]CCOCCNc1c2c([n+](C)c3ccccc13)-c1ccccc1C2 (3D coordinates assigned)
CC[NH2+]CCOCCNc1c2c([n+](C)c3ccccc13)-c1ccccc1C2 (nonaromatic ring conformer: 97.37313677762866 kcal/mol)

>  <smiles>  (28) 
CCNCCOCCNc1c2c([n+](C)c3ccccc13)-c1ccccc1C2

>  <score_type>  (28) 
oracle

>  <origin>  (28) 
adg

>  <m_score__min__energy>  (28) 
-8.8699999999999992

>  <m_primary>  (28) 
energy

$$$$
28:0
     RDKit          3D

 40 41  0  0  0  0  0  0  0  0999 V2000
   -2.3000   20.7860  -30.3670 C   0  0  0  0  0  0  0  0  0  0  0  0
   -2.0390   21.8590  -31.4170 C   0  0  0  0  0  0  0  0  0  0  0  0
   -2.8390   23.0550  -31.1220 N   0  0  0  0  0  0  0  0  0  0  0  0
   -3.1110   23.1740  -29.6820 C   0  0  0  0  0  0  0  0  0  0  0  0
   -3.6860   24.5560  -29.3570 C   0  0  0  0  0  0  0  0  0  0  0  0
   -3.9530   25.2640  -30.5520 O   0  0  0  0  0  0  0  0  0  0  0  0
   -5.1930   25.9340  -30.4670 C   0  0  0  0  0  0  0  0  0  0  0  0
   -6.3320   24.9700  -30.8060 C   0  0  0  0  0  0  0  0  0  0  0  0
   -5.8200   23.7460  -31.4300 N   0  0  0  0  0  0  0  0  0  0  0  0
   -6.5650   22.5160  -31.5650 C   0  0  0  0  0  0  0  0  0  0  0  0
   -7.8590   22.3880  -31.0300 C   0  0  0  0  0  0  0  0  0  0  0  0
   -8.5740   21.1990  -31.1720 C   0  0  0  0  0  0  0  0  0  0  0  0
   -8.0230   20.1110  -31.8540 C   0  0  0  0  0  0  0  0  0  0  0  0
   -9.0870   18.5180  -31.9940 Br  0  0  0  0  0  0  0  0  0  0  0  0
   -6.7310   20.2180  -32.4090 C   0  0  0  0  0  0  0  0  0  0  0  0
   -6.1290   19.1550  -33.1060 C   0  0  0  0  0  0  0  0  0  0  0  0
   -4.8460   19.2990  -33.6350 C   0  0  0  0  0  0  0  0  0  0  0  0
   -4.1660   20.5040  -33.4650 C   0  0  0  0  0  0  0  0  0  0  0  0
   -4.7520   21.5270  -32.7910 N   0  0  0  0  0  0  0  0  0  0  0  0
   -6.0040   21.4270  -32.2630 C   0  0  0  0  0  0  0  0  0  0  0  0
   -2.1939   21.2222  -29.3628 H   0  0  0  0  0  0  0  0  0  0  0  0
   -3.3200   20.3929  -30.4901 H   0  0  0  0  0  0  0  0  0  0  0  0
   -1.5746   19.9683  -30.4901 H   0  0  0  0  0  0  0  0  0  0  0  0
   -0.9714   22.1239  -31.4097 H   0  0  0  0  0  0  0  0  0  0  0  0
   -2.3203   21.4714  -32.4073 H   0  0  0  0  0  0  0  0  0  0  0  0
   -3.7590   22.9470  -31.6110 H   0  0  0  0  0  0  0  0  0  0  0  0
   -3.8358   22.4015  -29.3855 H   0  0  0  0  0  0  0  0  0  0  0  0
   -2.1688   23.0419  -29.1299 H   0  0  0  0  0  0  0  0  0  0  0  0
   -4.6199   24.4370  -28.7881 H   0  0  0  0  0  0  0  0  0  0  0  0
   -2.9538   25.1196  -28.7602 H   0  0  0  0  0  0  0  0  0  0  0  0
   -5.3313   26.3165  -29.4449 H   0  0  0  0  0  0  0  0  0  0  0  0
   -5.2020   26.7699  -31.1820 H   0  0  0  0  0  0  0  0  0  0  0  0
   -6.8659   24.7055  -29.8813 H   0  0  0  0  0  0  0  0  0  0  0  0
   -7.0101   25.4665  -31.5157 H   0  0  0  0  0  0  0  0  0  0  0  0
   -4.8280   23.7700  -31.7580 H   0  0  0  0  0  0  0  0  0  0  0  0
   -8.3123   23.2347  -30.4937 H   0  0  0  0  0  0  0  0  0  0  0  0
   -9.5832   21.1168  -30.7422 H   0  0  0  0  0  0  0  0  0  0  0  0
   -6.6716   18.2068  -33.2345 H   0  0  0  0  0  0  0  0  0  0  0  0
   -4.3750   18.4687  -34.1816 H   0  0  0  0  0  0  0  0  0  0  0  0
   -3.1536   20.6263  -33.8773 H   0  0  0  0  0  0  0  0  0  0  0  0
  1  2  1  0
  2  3  1  0
  3  4  1  0
  4  5  1  0
  5  6  1  0
  6  7  1  0
  7  8  1  0
  8  9  1  0
  9 10  1  0
 10 11  2  0
 11 12  1  0
 12 13  2  0
 13 14  1  0
 13 15  1  0
 15 16  2  0
 16 17  1  0
 17 18  2  0
 18 19  1  0
 19 20  2  0
 20 10  1  0
 20 15  1  0
  1 21  1  0
  1 22  1  0
  1 23  1  0
  2 24  1  0
  2 25  1  0
  3 26  1  0
  4 27  1  0
  4 28  1  0
  5 29  1  0
  5 30  1  0
  7 31  1  0
  7 32  1  0
  8 33  1  0
  8 34  1  0
  9 35  1  0
 11 36  1  0
 12 37  1  0
 16 38  1  0
 17 39  1  0
 18 40  1  0
M  END
>  <UniqueID>  (29) 
29

>  <SMILES>  (29) 
CCNCCOCCNc1ccc(Br)c2cccnc12

>  <Energy>  (29) 
41.30958680982563

>  <Genealogy>  (29) 
CCNCCOCCNc1ccc(Br)c2cccnc12 (3D coordinates assigned)
CCNCCOCCNc1ccc(Br)c2cccnc12 (optimized conformer: 41.30958680982563 kcal/mol)

>  <smiles>  (29) 
CCNCCOCCNc1ccc(Br)c2cccnc12

>  <score_type>  (29) 
oracle

>  <origin>  (29) 
adg

>  <m_score__min__energy>  (29) 
-7.9800000000000004

>  <m_primary>  (29) 
energy

$$$$
29:0
     RDKit          3D

 66 68  0  0  0  0  0  0  0  0999 V2000
    0.3960   21.6660  -36.0170 C   0  0  0  0  0  0  0  0  0  0  0  0
   -0.0520   21.5210  -34.5590 C   0  0  0  0  0  0  0  0  0  0  0  0
   -1.1200   20.5060  -34.3930 N   0  0  1  0  0  0  0  0  0  0  0  0
   -0.6650   19.2240  -34.9650 C   0  0  0  0  0  0  0  0  0  0  0  0
   -1.5160   20.3250  -32.9650 C   0  0  0  0  0  0  0  0  0  0  0  0
   -2.3880   21.4820  -32.4510 C   0  0  0  0  0  0  0  0  0  0  0  0
   -3.5520   21.6910  -33.3130 N   0  0  0  0  0  0  0  0  0  0  0  0
   -4.8630   21.3400  -32.8470 C   0  0  0  0  0  0  0  0  0  0  0  0
   -5.5790   22.2260  -32.0280 C   0  0  0  0  0  0  0  0  0  0  0  0
   -4.9930   23.4330  -31.5890 C   0  0  0  0  0  0  0  0  0  0  0  0
   -5.6850   24.2850  -30.7310 C   0  0  0  0  0  0  0  0  0  0  0  0
   -6.9600   23.9480  -30.2920 C   0  0  0  0  0  0  0  0  0  0  0  0
   -7.5650   22.7700  -30.7300 C   0  0  0  0  0  0  0  0  0  0  0  0
   -6.9040   21.9000  -31.6350 C   0  0  0  0  0  0  0  0  0  0  0  0
   -7.5100   20.7580  -32.1270 N   0  0  0  0  0  0  0  0  0  0  0  0
   -8.9700   20.5690  -31.9700 C   0  0  0  0  0  0  0  0  0  0  0  0
   -6.7540   19.8010  -32.7800 C   0  0  0  0  0  0  0  0  0  0  0  0
   -7.2670   18.5130  -33.0650 C   0  0  0  0  0  0  0  0  0  0  0  0
   -6.5020   17.5650  -33.7430 C   0  0  0  0  0  0  0  0  0  0  0  0
   -5.1950   17.8490  -34.1310 C   0  0  0  0  0  0  0  0  0  0  0  0
   -4.4700   16.8410  -34.7870 O   0  0  0  0  0  0  0  0  0  0  0  0
   -3.2250   16.2900  -34.3540 C   0  0  0  0  0  0  0  0  0  0  0  0
   -3.3190   14.7480  -34.3000 C   0  0  0  0  0  0  0  0  0  0  0  0
   -4.4230   14.2040  -33.4510 N   0  0  0  0  0  0  0  0  0  0  0  0
   -4.0460   12.8300  -33.0360 C   0  0  0  0  0  0  0  0  0  0  0  0
   -5.6930   14.1240  -34.2110 C   0  0  0  0  0  0  0  0  0  0  0  0
   -4.6220   15.0200  -32.2290 C   0  0  0  0  0  0  0  0  0  0  0  0
   -4.6570   19.1140  -33.8460 C   0  0  0  0  0  0  0  0  0  0  0  0
   -5.4200   20.0900  -33.1690 C   0  0  0  0  0  0  0  0  0  0  0  0
    1.4422   22.0046  -36.0472 H   0  0  0  0  0  0  0  0  0  0  0  0
    0.3103   20.6942  -36.5253 H   0  0  0  0  0  0  0  0  0  0  0  0
   -0.2428   22.4033  -36.5253 H   0  0  0  0  0  0  0  0  0  0  0  0
    0.8152   21.2237  -33.9511 H   0  0  0  0  0  0  0  0  0  0  0  0
   -0.4583   22.4907  -34.2355 H   0  0  0  0  0  0  0  0  0  0  0  0
   -1.9430   20.8080  -34.9660 H   0  0  0  0  0  0  0  0  0  0  0  0
   -0.4175   18.5266  -34.1511 H   0  0  0  0  0  0  0  0  0  0  0  0
   -1.4656   18.7945  -35.5851 H   0  0  0  0  0  0  0  0  0  0  0  0
    0.2272   19.3953  -35.5851 H   0  0  0  0  0  0  0  0  0  0  0  0
   -2.0820   19.3865  -32.8709 H   0  0  0  0  0  0  0  0  0  0  0  0
   -0.5970   20.3017  -32.3610 H   0  0  0  0  0  0  0  0  0  0  0  0
   -2.7328   21.2467  -31.4333 H   0  0  0  0  0  0  0  0  0  0  0  0
   -1.7836   22.4011  -32.4530 H   0  0  0  0  0  0  0  0  0  0  0  0
   -3.4330   21.9470  -34.3190 H   0  0  0  0  0  0  0  0  0  0  0  0
   -3.9817   23.7030  -31.9272 H   0  0  0  0  0  0  0  0  0  0  0  0
   -5.2215   25.2262  -30.4004 H   0  0  0  0  0  0  0  0  0  0  0  0
   -7.4938   24.6126  -29.5967 H   0  0  0  0  0  0  0  0  0  0  0  0
   -8.5710   22.5113  -30.3679 H   0  0  0  0  0  0  0  0  0  0  0  0
   -9.2225   20.5363  -30.8999 H   0  0  0  0  0  0  0  0  0  0  0  0
   -9.5014   21.4058  -32.4467 H   0  0  0  0  0  0  0  0  0  0  0  0
   -9.2708   19.6244  -32.4467 H   0  0  0  0  0  0  0  0  0  0  0  0
   -8.2877   18.2554  -32.7458 H   0  0  0  0  0  0  0  0  0  0  0  0
   -6.9359   16.5810  -33.9742 H   0  0  0  0  0  0  0  0  0  0  0  0
   -2.4327   16.5821  -35.0589 H   0  0  0  0  0  0  0  0  0  0  0  0
   -2.9908   16.6727  -33.3496 H   0  0  0  0  0  0  0  0  0  0  0  0
   -3.4670   14.3805  -35.3262 H   0  0  0  0  0  0  0  0  0  0  0  0
   -2.3822   14.4024  -33.8386 H   0  0  0  0  0  0  0  0  0  0  0  0
   -4.0296   12.7702  -31.9377 H   0  0  0  0  0  0  0  0  0  0  0  0
   -4.7806   12.1130  -33.4313 H   0  0  0  0  0  0  0  0  0  0  0  0
   -3.0483   12.5883  -33.4313 H   0  0  0  0  0  0  0  0  0  0  0  0
   -6.5379   14.0708  -33.5086 H   0  0  0  0  0  0  0  0  0  0  0  0
   -5.7983   15.0173  -34.8442 H   0  0  0  0  0  0  0  0  0  0  0  0
   -5.6854   13.2246  -34.8442 H   0  0  0  0  0  0  0  0  0  0  0  0
   -4.4687   14.3914  -31.3394 H   0  0  0  0  0  0  0  0  0  0  0  0
   -3.8999   15.8497  -32.2205 H   0  0  0  0  0  0  0  0  0  0  0  0
   -5.6450   15.4242  -32.2205 H   0  0  0  0  0  0  0  0  0  0  0  0
   -3.6273   19.3478  -34.1543 H   0  0  0  0  0  0  0  0  0  0  0  0
  1  2  1  0
  2  3  1  0
  3  4  1  0
  3  5  1  0
  5  6  1  0
  6  7  1  0
  7  8  1  0
  8  9  2  0
  9 10  1  0
 10 11  2  0
 11 12  1  0
 12 13  2  0
 13 14  1  0
 14 15  2  0
 15 16  1  0
 15 17  1  0
 17 18  2  0
 18 19  1  0
 19 20  2  0
 20 21  1  0
 21 22  1  0
 22 23  1  0
 23 24  1  0
 24 25  1  0
 24 26  1  0
 24 27  1  0
 20 28  1  0
 28 29  2  0
 29  8  1  0
 14  9  1  0
 29 17  1  0
  1 30  1  0
  1 31  1  0
  1 32  1  0
  2 33  1  0
  2 34  1  0
  3 35  1  6
  4 36  1  0
  4 37  1  0
  4 38  1  0
  5 39  1  0
  5 40  1  0
  6 41  1  0
  6 42  1  0
  7 43  1  0
 10 44  1  0
 11 45  1  0
 12 46  1  0
 13 47  1  0
 16 48  1  0
 16 49  1  0
 16 50  1  0
 18 51  1  0
 19 52  1  0
 22 53  1  0
 22 54  1  0
 23 55  1  0
 23 56  1  0
 25 57  1  0
 25 58  1  0
 25 59  1  0
 26 60  1  0
 26 61  1  0
 26 62  1  0
 27 63  1  0
 27 64  1  0
 27 65  1  0
 28 66  1  0
M  CHG  3   3   1  15   1  24   1
M  END
>  <UniqueID>  (30) 
30

>  <SMILES>  (30) 
CC[N@@H+](C)CCNc1c2ccccc2[n+](C)c2ccc(OCC[N+](C)(C)C)cc12

>  <Energy>  (30) 
96.34758337876673

>  <Genealogy>  (30) 
CC[NH+](C)CCNc1c2ccccc2[n+](C)c2ccc(OCC[N+](C)(C)C)cc12 (protonated)
CC[N@@H+](C)CCNc1c2ccccc2[n+](C)c2ccc(OCC[N+](C)(C)C)cc12 (chirality)
CC[N@@H+](C)CCNc1c2ccccc2[n+](C)c2ccc(OCC[N+](C)(C)C)cc12 (3D coordinates assigned)
CC[N@@H+](C)CCNc1c2ccccc2[n+](C)c2ccc(OCC[N+](C)(C)C)cc12 (optimized conformer: 96.34758337876673 kcal/mol)

>  <smiles>  (30) 
CCN(C)CCNc1c2ccccc2[n+](C)c2ccc(OCC[N+](C)(C)C)cc12

>  <score_type>  (30) 
oracle

>  <origin>  (30) 
adg

>  <m_score__min__energy>  (30) 
-6.5700000000000003

>  <m_primary>  (30) 
energy

$$$$
