0:0
     RDKit          3D

 38 40  0  0  0  0  0  0  0  0999 V2000
   -6.4900   26.0490  -28.9190 C   0  0  0  0  0  0  0  0  0  0  0  0
   -6.0000   25.7510  -30.2220 O   0  0  0  0  0  0  0  0  0  0  0  0
   -5.8750   24.4550  -30.7450 C   0  0  0  0  0  0  0  0  0  0  0  0
   -7.0060   23.6970  -31.1410 C   0  0  0  0  0  0  0  0  0  0  0  0
   -6.7980   22.4210  -31.6490 C   0  0  0  0  0  0  0  0  0  0  0  0
   -7.7060   21.5610  -32.0570 O   0  0  0  0  0  0  0  0  0  0  0  0
   -7.0600   20.4760  -32.4420 C   0  0  0  0  0  0  0  0  0  0  0  0
   -5.6990   20.6390  -32.3060 C   0  0  0  0  0  0  0  0  0  0  0  0
   -5.5360   21.8970  -31.7760 C   0  0  0  0  0  0  0  0  0  0  0  0
   -4.3990   22.6010  -31.3960 C   0  0  0  0  0  0  0  0  0  0  0  0
   -4.5720   23.9050  -30.8720 C   0  0  0  0  0  0  0  0  0  0  0  0
   -3.4800   24.6890  -30.4660 O   0  0  0  0  0  0  0  0  0  0  0  0
   -2.6990   24.4380  -29.3030 C   0  0  0  0  0  0  0  0  0  0  0  0
   -4.6970   19.5660  -32.5870 C   0  0  0  0  0  0  0  0  0  0  0  0
   -5.3650   18.4110  -33.3730 C   0  0  0  0  0  0  0  0  0  0  0  0
   -6.7220   18.0710  -32.8670 N   0  0  0  0  0  0  0  0  0  0  0  0
   -6.6570   17.5260  -31.4950 C   0  0  0  0  0  0  0  0  0  0  0  0
   -7.6590   19.2220  -33.0150 C   0  0  1  0  0  0  0  0  0  0  0  0
   -9.0520   18.9420  -32.4320 C   0  0  0  0  0  0  0  0  0  0  0  0
   -5.8052   25.6325  -28.1656 H   0  0  0  0  0  0  0  0  0  0  0  0
   -6.5550   27.1397  -28.7923 H   0  0  0  0  0  0  0  0  0  0  0  0
   -7.4884   25.6050  -28.7923 H   0  0  0  0  0  0  0  0  0  0  0  0
   -8.0218   24.1088  -31.0483 H   0  0  0  0  0  0  0  0  0  0  0  0
   -3.3970   22.1591  -31.4991 H   0  0  0  0  0  0  0  0  0  0  0  0
   -3.3046   24.6326  -28.4056 H   0  0  0  0  0  0  0  0  0  0  0  0
   -2.3692   23.3886  -29.3023 H   0  0  0  0  0  0  0  0  0  0  0  0
   -1.8196   25.0988  -29.3023 H   0  0  0  0  0  0  0  0  0  0  0  0
   -3.8730   19.9842  -33.1839 H   0  0  0  0  0  0  0  0  0  0  0  0
   -4.3075   19.1770  -31.6347 H   0  0  0  0  0  0  0  0  0  0  0  0
   -5.4491   18.7083  -34.4287 H   0  0  0  0  0  0  0  0  0  0  0  0
   -4.7339   17.5190  -33.2461 H   0  0  0  0  0  0  0  0  0  0  0  0
   -6.7549   18.3469  -30.7694 H   0  0  0  0  0  0  0  0  0  0  0  0
   -7.4757   16.8063  -31.3472 H   0  0  0  0  0  0  0  0  0  0  0  0
   -5.6920   17.0191  -31.3472 H   0  0  0  0  0  0  0  0  0  0  0  0
   -7.8092   19.3723  -34.0943 H   0  0  0  0  0  0  0  0  0  0  0  0
   -8.9986   18.9527  -31.3333 H   0  0  0  0  0  0  0  0  0  0  0  0
   -9.7545   19.7169  -32.7725 H   0  0  0  0  0  0  0  0  0  0  0  0
   -9.4006   17.9558  -32.7725 H   0  0  0  0  0  0  0  0  0  0  0  0
  1  2  1  0
  2  3  1  0
  3  4  2  0
  4  5  1  0
  5  6  1  0
  6  7  1  0
  7  8  2  0
  8  9  1  0
  9 10  1  0
 10 11  2  0
 11 12  1  0
 12 13  1  0
  8 14  1  0
 14 15  1  0
 15 16  1  0
 16 17  1  0
 16 18  1  0
 18 19  1  0
 11  3  1  0
  9  5  2  0
 18  7  1  0
  1 20  1  0
  1 21  1  0
  1 22  1  0
  4 23  1  0
 10 24  1  0
 13 25  1  0
 13 26  1  0
 13 27  1  0
 14 28  1  0
 14 29  1  0
 15 30  1  0
 15 31  1  0
 17 32  1  0
 17 33  1  0
 17 34  1  0
 18 35  1  6
 19 36  1  0
 19 37  1  0
 19 38  1  0
M  END
>  <UniqueID>  (1) 
1

>  <SMILES>  (1) 
COc1cc2oc3c(c2cc1OC)CCN(C)[C@H]3C

>  <Energy>  (1) 
79.70787754935249

>  <Genealogy>  (1) 
COc1cc2oc3c(c2cc1OC)CCN(C)[C@H]3C (chirality)
COc1cc2oc3c(c2cc1OC)CCN(C)[C@H]3C (3D coordinates assigned)
COc1cc2oc3c(c2cc1OC)CCN(C)[C@H]3C (nonaromatic ring conformer: 79.70787754935249 kcal/mol)

>  <smiles>  (1) 
COc1cc2oc3c(c2cc1OC)CCN(C)C3C

>  <score_type>  (1) 
oracle

>  <origin>  (1) 
adg

>  <m_score__min__energy>  (1) 
-7.1699999999999999

>  <m_primary>  (1) 
energy

$$$$
1:0
     RDKit          3D

 32 34  0  0  0  0  0  0  0  0999 V2000
   -3.5810   17.1220  -34.5500 C   0  0  0  0  0  0  0  0  0  0  0  0
   -4.8320   17.6790  -33.9380 C   0  0  0  0  0  0  0  0  0  0  0  0
   -5.3390   18.9150  -34.3680 C   0  0  0  0  0  0  0  0  0  0  0  0
   -6.5240   19.4180  -33.8250 C   0  0  0  0  0  0  0  0  0  0  0  0
   -7.2200   18.6870  -32.8520 C   0  0  0  0  0  0  0  0  0  0  0  0
   -8.7060   19.3330  -32.1640 S   0  0  0  0  0  0  0  0  0  0  0  0
   -9.8490   19.0210  -33.0890 O   0  0  0  0  0  0  0  0  0  0  0  0
   -8.9760   18.7140  -30.8210 O   0  0  0  0  0  0  0  0  0  0  0  0
   -8.5580   21.0500  -31.9690 N   0  0  0  0  0  0  0  0  0  0  0  0
   -9.5210   21.9670  -32.2170 C   0  0  0  0  0  0  0  0  0  0  0  0
   -9.0400   23.2510  -31.9760 C   0  0  0  0  0  0  0  0  0  0  0  0
   -7.7330   23.0810  -31.5710 C   0  0  0  0  0  0  0  0  0  0  0  0
   -6.7690   24.0200  -31.2090 C   0  0  0  0  0  0  0  0  0  0  0  0
   -5.4960   23.5460  -30.8430 C   0  0  0  0  0  0  0  0  0  0  0  0
   -4.2440   24.6840  -30.3790 Cl  0  0  0  0  0  0  0  0  0  0  0  0
   -5.2200   22.1600  -30.8470 C   0  0  0  0  0  0  0  0  0  0  0  0
   -6.2140   21.2370  -31.2180 C   0  0  0  0  0  0  0  0  0  0  0  0
   -7.4690   21.7350  -31.5750 C   0  0  0  0  0  0  0  0  0  0  0  0
   -6.7280   17.4430  -32.4380 C   0  0  0  0  0  0  0  0  0  0  0  0
   -5.5430   16.9390  -32.9810 C   0  0  0  0  0  0  0  0  0  0  0  0
   -2.8886   16.8137  -33.7528 H   0  0  0  0  0  0  0  0  0  0  0  0
   -3.8338   16.2514  -35.1730 H   0  0  0  0  0  0  0  0  0  0  0  0
   -3.1031   17.8924  -35.1730 H   0  0  0  0  0  0  0  0  0  0  0  0
   -4.8011   19.4903  -35.1359 H   0  0  0  0  0  0  0  0  0  0  0  0
   -6.9121   20.3906  -34.1620 H   0  0  0  0  0  0  0  0  0  0  0  0
  -10.5392   21.7317  -32.5602 H   0  0  0  0  0  0  0  0  0  0  0  0
   -9.5864   24.1994  -32.0854 H   0  0  0  0  0  0  0  0  0  0  0  0
   -6.9960   25.0963  -31.2094 H   0  0  0  0  0  0  0  0  0  0  0  0
   -4.2212   21.8009  -30.5581 H   0  0  0  0  0  0  0  0  0  0  0  0
   -6.0094   20.1562  -31.2267 H   0  0  0  0  0  0  0  0  0  0  0  0
   -7.2761   16.8605  -31.6828 H   0  0  0  0  0  0  0  0  0  0  0  0
   -5.1660   15.9578  -32.6567 H   0  0  0  0  0  0  0  0  0  0  0  0
  1  2  1  0
  2  3  2  0
  3  4  1  0
  4  5  2  0
  5  6  1  0
  6  7  2  0
  6  8  2  0
  6  9  1  0
  9 10  1  0
 10 11  2  0
 11 12  1  0
 12 13  2  0
 13 14  1  0
 14 15  1  0
 14 16  2  0
 16 17  1  0
 17 18  2  0
  5 19  1  0
 19 20  2  0
 20  2  1  0
 18  9  1  0
 18 12  1  0
  1 21  1  0
  1 22  1  0
  1 23  1  0
  3 24  1  0
  4 25  1  0
 10 26  1  0
 11 27  1  0
 13 28  1  0
 16 29  1  0
 17 30  1  0
 19 31  1  0
 20 32  1  0
M  END
>  <UniqueID>  (2) 
2

>  <SMILES>  (2) 
Cc1ccc(S(=O)(=O)n2ccc3cc(Cl)ccc32)cc1

>  <Energy>  (2) 
68.40892478789935

>  <Genealogy>  (2) 
Cc1ccc(S(=O)(=O)n2ccc3cc(Cl)ccc32)cc1 (3D coordinates assigned)
Cc1ccc(S(=O)(=O)n2ccc3cc(Cl)ccc32)cc1 (optimized conformer: 68.40892478789935 kcal/mol)

>  <smiles>  (2) 
Cc1ccc(S(=O)(=O)n2ccc3cc(Cl)ccc32)cc1

>  <score_type>  (2) 
oracle

>  <origin>  (2) 
adg

>  <m_score__min__energy>  (2) 
-8.3499999999999996

>  <m_primary>  (2) 
energy

$$$$
2:0
     RDKit          3D

 55 58  0  0  0  0  0  0  0  0999 V2000
   -4.2769   21.9406  -32.3347 H   0  0  0  0  0  0  0  0  0  0  0  0
   -5.1990   22.3860  -31.9330 C   0  0  0  0  0  0  0  0  0  0  0  0
   -6.4320   21.7920  -32.2090 C   0  0  0  0  0  0  0  0  0  0  0  0
   -6.4779   20.8966  -32.8463 H   0  0  0  0  0  0  0  0  0  0  0  0
   -7.6110   22.3310  -31.6780 C   0  0  0  0  0  0  0  0  0  0  0  0
   -8.9380   21.7150  -32.0090 C   0  0  0  0  0  0  0  0  0  0  0  0
   -9.4700   21.4681  -31.0784 H   0  0  0  0  0  0  0  0  0  0  0  0
   -9.5368   22.4273  -32.5957 H   0  0  0  0  0  0  0  0  0  0  0  0
   -8.7804   20.7979  -32.5957 H   0  0  0  0  0  0  0  0  0  0  0  0
   -7.5450   23.4830  -30.8800 C   0  0  0  0  0  0  0  0  0  0  0  0
   -8.4701   23.9196  -30.4754 H   0  0  0  0  0  0  0  0  0  0  0  0
   -6.3080   24.0840  -30.5930 C   0  0  0  0  0  0  0  0  0  0  0  0
   -6.2550   25.3150  -29.7280 C   0  0  0  0  0  0  0  0  0  0  0  0
   -6.2677   25.0195  -28.6685 H   0  0  0  0  0  0  0  0  0  0  0  0
   -5.3320   25.8739  -29.9417 H   0  0  0  0  0  0  0  0  0  0  0  0
   -7.1266   25.9511  -29.9417 H   0  0  0  0  0  0  0  0  0  0  0  0
   -5.1260   23.5500  -31.1450 C   0  0  0  0  0  0  0  0  0  0  0  0
   -3.8600   24.1610  -30.8320 N   0  0  0  0  0  0  0  0  0  0  0  0
   -3.1170   23.9180  -29.7920 C   0  0  0  0  0  0  0  0  0  0  0  0
   -2.6200   24.9260  -29.0290 N   0  0  0  0  0  0  0  0  0  0  0  0
   -1.8650   24.6610  -27.9300 C   0  0  0  0  0  0  0  0  0  0  0  0
   -1.3320   25.7410  -27.1300 N   0  0  0  0  0  0  0  0  0  0  0  0
   -0.4770   26.7590  -27.7560 C   0  0  0  0  0  0  0  0  0  0  0  0
    0.0768   26.3017  -28.5892 H   0  0  0  0  0  0  0  0  0  0  0  0
   -1.1146   27.5772  -28.1222 H   0  0  0  0  0  0  0  0  0  0  0  0
    0.5230   27.3320  -26.7420 C   0  0  0  0  0  0  0  0  0  0  0  0
    1.2759   26.5623  -26.5171 H   0  0  0  0  0  0  0  0  0  0  0  0
    0.9772   28.2265  -27.1931 H   0  0  0  0  0  0  0  0  0  0  0  0
   -0.1190   27.7470  -25.4800 N   0  0  0  0  0  0  0  0  0  0  0  0
   -0.9120   28.9800  -25.6250 C   0  0  0  0  0  0  0  0  0  0  0  0
   -1.1646   29.3727  -24.6290 H   0  0  0  0  0  0  0  0  0  0  0  0
   -0.3264   29.7298  -26.1771 H   0  0  0  0  0  0  0  0  0  0  0  0
   -1.8372   28.7581  -26.1771 H   0  0  0  0  0  0  0  0  0  0  0  0
   -0.8860   26.6450  -24.8710 C   0  0  0  0  0  0  0  0  0  0  0  0
   -0.1855   25.8494  -24.5772 H   0  0  0  0  0  0  0  0  0  0  0  0
   -1.4239   27.0551  -24.0036 H   0  0  0  0  0  0  0  0  0  0  0  0
   -1.9310   26.0510  -25.8250 C   0  0  0  0  0  0  0  0  0  0  0  0
   -2.3360   25.1273  -25.3859 H   0  0  0  0  0  0  0  0  0  0  0  0
   -2.7328   26.7895  -25.9724 H   0  0  0  0  0  0  0  0  0  0  0  0
   -1.6190   23.3670  -27.5950 N   0  0  0  0  0  0  0  0  0  0  0  0
   -2.1190   22.3500  -28.3440 C   0  0  0  0  0  0  0  0  0  0  0  0
   -1.8580   20.9880  -27.9780 N   0  0  0  0  0  0  0  0  0  0  0  0
   -0.7200   20.2320  -28.4700 C   0  0  0  0  0  0  0  0  0  0  0  0
   -0.8159   20.0531  -29.5511 H   0  0  0  0  0  0  0  0  0  0  0  0
    0.2256   20.7727  -28.3168 H   0  0  0  0  0  0  0  0  0  0  0  0
   -0.7460   18.9130  -27.7080 C   0  0  0  0  0  0  0  0  0  0  0  0
   -0.5606   18.0723  -28.3927 H   0  0  0  0  0  0  0  0  0  0  0  0
    0.0336   18.8801  -26.9327 H   0  0  0  0  0  0  0  0  0  0  0  0
   -2.1440   18.8050  -27.1010 C   0  0  0  0  0  0  0  0  0  0  0  0
   -2.7804   18.1550  -27.7195 H   0  0  0  0  0  0  0  0  0  0  0  0
   -2.1135   18.3663  -26.0927 H   0  0  0  0  0  0  0  0  0  0  0  0
   -2.7000   20.2230  -27.0770 C   0  0  0  0  0  0  0  0  0  0  0  0
   -3.7432   20.2323  -27.4257 H   0  0  0  0  0  0  0  0  0  0  0  0
   -2.6966   20.6442  -26.0608 H   0  0  0  0  0  0  0  0  0  0  0  0
   -2.8710   22.6310  -29.4400 N   0  0  0  0  0  0  0  0  0  0  0  0
  1  2  1  0
  2  3  2  0
  3  4  1  0
  3  5  1  0
  5  6  1  0
  6  7  1  0
  6  8  1  0
  6  9  1  0
  5 10  2  0
 10 11  1  0
 10 12  1  0
 12 13  1  0
 13 14  1  0
 13 15  1  0
 13 16  1  0
 12 17  2  0
 17 18  1  0
 18 19  2  0
 19 20  1  0
 20 21  2  0
 21 22  1  0
 22 23  1  0
 23 24  1  0
 23 25  1  0
 23 26  1  0
 26 27  1  0
 26 28  1  0
 26 29  1  0
 29 30  1  0
 30 31  1  0
 30 32  1  0
 30 33  1  0
 29 34  1  0
 34 35  1  0
 34 36  1  0
 34 37  1  0
 37 38  1  0
 37 39  1  0
 21 40  1  0
 40 41  1  0
 41 42  1  0
 42 43  1  0
 43 44  1  0
 43 45  1  0
 43 46  1  0
 46 47  1  0
 46 48  1  0
 46 49  1  0
 49 50  1  0
 49 51  1  0
 49 52  1  0
 52 53  1  0
 52 54  1  0
 41 55  2  0
 17  2  1  0
 55 19  1  0
 37 22  1  0
 52 42  1  0
M  CHG  1  40  -1
M  END
>  <UniqueID>  (3) 
3

>  <SMILES>  (3) 
Cc1ccc(/N=c2/nc(N3CCCC3)[n-]c(N3CCN(C)CC3)n2)c(C)c1

>  <Energy>  (3) 
63.8955029984596

>  <Genealogy>  (3) 
Cc1ccc(N=c2nc(N3CCCC3)[n-]c(N3CCN(C)CC3)n2)c(C)c1 (protonated)
Cc1ccc(/N=c2/nc(N3CCCC3)[n-]c(N3CCN(C)CC3)n2)c(C)c1 (cis-trans isomerization)
Cc1ccc(/N=c2/nc(N3CCCC3)[n-]c(N3CCN(C)CC3)n2)c(C)c1 (3D coordinates assigned)
Cc1ccc(/N=c2/nc(N3CCCC3)[n-]c(N3CCN(C)CC3)n2)c(C)c1 (nonaromatic ring conformer: 63.8955029984596 kcal/mol)

>  <smiles>  (3) 
Cc1ccc(N=c2nc(N3CCCC3)[nH]c(N3CCN(C)CC3)n2)c(C)c1

>  <score_type>  (3) 
oracle

>  <origin>  (3) 
adg

>  <m_score__min__energy>  (3) 
-9.3000000000000007

>  <m_primary>  (3) 
energy

$$$$
3:0
     RDKit          3D

 55 58  0  0  0  0  0  0  0  0999 V2000
   -9.4460   21.5550  -30.8230 C   0  0  0  0  0  0  0  0  0  0  0  0
   -8.9760   22.4820  -31.9410 C   0  0  0  0  0  0  0  0  0  0  0  0
   -7.5000   22.5650  -31.9660 N   0  0  0  0  0  0  0  0  0  0  0  0
   -6.9350   23.7050  -31.4620 C   0  0  0  0  0  0  0  0  0  0  0  0
   -5.5450   23.8910  -31.4200 C   0  0  0  0  0  0  0  0  0  0  0  0
   -4.9940   25.1510  -30.8420 C   0  0  0  0  0  0  0  0  0  0  0  0
   -5.7460   26.1560  -30.7070 O   0  0  0  0  0  0  0  0  0  0  0  0
   -3.6200   25.2330  -30.4350 N   0  0  0  0  0  0  0  0  0  0  0  0
   -3.0110   24.5510  -29.2900 C   0  0  0  0  0  0  0  0  0  0  0  0
   -4.0390   23.6630  -28.5450 C   0  0  0  0  0  0  0  0  0  0  0  0
   -3.3900   22.4650  -27.8220 C   0  0  0  0  0  0  0  0  0  0  0  0
   -1.9800   22.8020  -27.3220 C   0  0  0  0  0  0  0  0  0  0  0  0
   -1.0310   23.1710  -28.4830 C   0  0  0  0  0  0  0  0  0  0  0  0
   -1.7560   23.7640  -29.7080 C   0  0  0  0  0  0  0  0  0  0  0  0
   -4.7200   22.8710  -31.9300 C   0  0  0  0  0  0  0  0  0  0  0  0
   -3.4650   23.0020  -31.9110 O   0  0  0  0  0  0  0  0  0  0  0  0
   -5.2930   21.7060  -32.4720 C   0  0  0  0  0  0  0  0  0  0  0  0
   -4.4750   20.6830  -32.9980 C   0  0  0  0  0  0  0  0  0  0  0  0
   -5.0390   19.5240  -33.5570 C   0  0  0  0  0  0  0  0  0  0  0  0
   -4.2230   18.4680  -34.1000 N   0  0  0  0  0  0  0  0  0  0  0  0
   -2.9860   18.0030  -33.4720 C   0  0  0  0  0  0  0  0  0  0  0  0
   -2.0380   19.1420  -33.2620 C   0  0  0  0  0  0  0  0  0  0  0  0
   -1.3770   19.8450  -34.2610 C   0  0  0  0  0  0  0  0  0  0  0  0
   -0.4890   20.8060  -33.7620 C   0  0  0  0  0  0  0  0  0  0  0  0
   -0.4380   20.8500  -32.3740 C   0  0  0  0  0  0  0  0  0  0  0  0
   -1.4940   19.6900  -31.7680 S   0  0  0  0  0  0  0  0  0  0  0  0
   -6.4290   19.3990  -33.5920 C   0  0  0  0  0  0  0  0  0  0  0  0
   -7.2520   20.3990  -33.0740 C   0  0  0  0  0  0  0  0  0  0  0  0
   -6.7050   21.5670  -32.4950 C   0  0  0  0  0  0  0  0  0  0  0  0
   -9.2154   22.0098  -29.8483 H   0  0  0  0  0  0  0  0  0  0  0  0
  -10.5317   21.3997  -30.9075 H   0  0  0  0  0  0  0  0  0  0  0  0
   -8.9296   20.5874  -30.9075 H   0  0  0  0  0  0  0  0  0  0  0  0
   -9.3321   22.0928  -32.9063 H   0  0  0  0  0  0  0  0  0  0  0  0
   -9.3835   23.4877  -31.7609 H   0  0  0  0  0  0  0  0  0  0  0  0
   -7.5910   24.5001  -31.0779 H   0  0  0  0  0  0  0  0  0  0  0  0
   -2.6825   25.3219  -28.5775 H   0  0  0  0  0  0  0  0  0  0  0  0
   -4.5608   24.2812  -27.7997 H   0  0  0  0  0  0  0  0  0  0  0  0
   -4.7297   23.2570  -29.2987 H   0  0  0  0  0  0  0  0  0  0  0  0
   -4.0162   22.1856  -26.9619 H   0  0  0  0  0  0  0  0  0  0  0  0
   -3.3110   21.6336  -28.5379 H   0  0  0  0  0  0  0  0  0  0  0  0
   -2.0424   23.6540  -26.6291 H   0  0  0  0  0  0  0  0  0  0  0  0
   -1.5743   21.9116  -26.8195 H   0  0  0  0  0  0  0  0  0  0  0  0
   -0.3047   23.9115  -28.1166 H   0  0  0  0  0  0  0  0  0  0  0  0
   -0.5481   22.2396  -28.8135 H   0  0  0  0  0  0  0  0  0  0  0  0
   -1.0691   24.4404  -30.2378 H   0  0  0  0  0  0  0  0  0  0  0  0
   -2.0679   22.9354  -30.3608 H   0  0  0  0  0  0  0  0  0  0  0  0
   -3.3811   20.7947  -32.9699 H   0  0  0  0  0  0  0  0  0  0  0  0
   -4.5380   18.0130  -34.9880 H   0  0  0  0  0  0  0  0  0  0  0  0
   -3.2240   17.5474  -32.4995 H   0  0  0  0  0  0  0  0  0  0  0  0
   -2.5099   17.2643  -34.1335 H   0  0  0  0  0  0  0  0  0  0  0  0
   -1.5349   19.6652  -35.3347 H   0  0  0  0  0  0  0  0  0  0  0  0
    0.1114   21.4638  -34.4077 H   0  0  0  0  0  0  0  0  0  0  0  0
    0.1867   21.5280  -31.7740 H   0  0  0  0  0  0  0  0  0  0  0  0
   -6.8816   18.4992  -34.0343 H   0  0  0  0  0  0  0  0  0  0  0  0
   -8.3444   20.2768  -33.1167 H   0  0  0  0  0  0  0  0  0  0  0  0
  1  2  1  0
  2  3  1  0
  3  4  1  0
  4  5  2  0
  5  6  1  0
  6  7  2  0
  6  8  1  0
  8  9  1  0
  9 10  1  0
 10 11  1  0
 11 12  1  0
 12 13  1  0
 13 14  1  0
  5 15  1  0
 15 16  2  0
 15 17  1  0
 17 18  2  0
 18 19  1  0
 19 20  1  0
 20 21  1  0
 21 22  1  0
 22 23  2  0
 23 24  1  0
 24 25  2  0
 25 26  1  0
 19 27  2  0
 27 28  1  0
 28 29  2  0
 29  3  1  0
 14  9  1  0
 29 17  1  0
 26 22  1  0
  1 30  1  0
  1 31  1  0
  1 32  1  0
  2 33  1  0
  2 34  1  0
  4 35  1  0
  9 36  1  0
 10 37  1  0
 10 38  1  0
 11 39  1  0
 11 40  1  0
 12 41  1  0
 12 42  1  0
 13 43  1  0
 13 44  1  0
 14 45  1  0
 14 46  1  0
 18 47  1  0
 20 48  1  0
 21 49  1  0
 21 50  1  0
 23 51  1  0
 24 52  1  0
 25 53  1  0
 27 54  1  0
 28 55  1  0
M  CHG  1   8  -1
M  END
>  <UniqueID>  (4) 
4

>  <SMILES>  (4) 
CCn1cc(C(=O)[N-]C2CCCCC2)c(=O)c2cc(NCc3cccs3)ccc21

>  <Energy>  (4) 
94.55457770144572

>  <Genealogy>  (4) 
CCn1cc(C(=O)[N-]C2CCCCC2)c(=O)c2cc(NCc3cccs3)ccc21 (protonated)
CCn1cc(C(=O)[N-]C2CCCCC2)c(=O)c2cc(NCc3cccs3)ccc21 (3D coordinates assigned)
CCn1cc(C(=O)[N-]C2CCCCC2)c(=O)c2cc(NCc3cccs3)ccc21 (nonaromatic ring conformer: 94.55457770144572 kcal/mol)

>  <smiles>  (4) 
CCn1cc(C(=O)NC2CCCCC2)c(=O)c2cc(NCc3cccs3)ccc21

>  <score_type>  (4) 
oracle

>  <origin>  (4) 
adg

>  <m_score__min__energy>  (4) 
-11.16

>  <m_primary>  (4) 
energy

$$$$
4:0
     RDKit          3D

 35 37  0  0  0  0  0  0  0  0999 V2000
   -3.6560   19.2180  -32.8610 C   0  0  0  0  0  0  0  0  0  0  0  0
   -4.7840   20.1660  -32.8570 N   0  0  0  0  0  0  0  0  0  0  0  0
   -4.4810   21.5320  -33.1060 C   0  0  0  0  0  0  0  0  0  0  0  0
   -4.0540   22.3230  -31.9370 C   0  0  0  0  0  0  0  0  0  0  0  0
   -2.8650   22.3400  -31.2410 C   0  0  0  0  0  0  0  0  0  0  0  0
   -2.9640   23.2170  -30.2680 O   0  0  0  0  0  0  0  0  0  0  0  0
   -4.1460   23.7840  -30.2760 C   0  0  0  0  0  0  0  0  0  0  0  0
   -4.7490   24.7290  -29.5120 N   0  0  0  0  0  0  0  0  0  0  0  0
   -6.0220   25.1350  -29.7600 C   0  0  0  0  0  0  0  0  0  0  0  0
   -6.5010   26.0470  -28.9640 N   0  0  0  0  0  0  0  0  0  0  0  0
   -6.7410   24.6190  -30.7740 N   0  0  0  0  0  0  0  0  0  0  0  0
   -6.1900   23.6790  -31.5630 C   0  0  0  0  0  0  0  0  0  0  0  0
   -6.8140   23.1380  -32.5520 N   0  0  0  0  0  0  0  0  0  0  0  0
   -4.8930   23.2580  -31.3180 C   0  0  0  0  0  0  0  0  0  0  0  0
   -6.0840   19.6490  -32.6080 C   0  0  0  0  0  0  0  0  0  0  0  0
   -7.2430   20.2850  -32.9720 C   0  0  0  0  0  0  0  0  0  0  0  0
   -8.5100   19.7500  -32.7140 C   0  0  0  0  0  0  0  0  0  0  0  0
   -8.6080   18.5330  -32.0700 C   0  0  0  0  0  0  0  0  0  0  0  0
   -7.4570   17.8670  -31.6910 C   0  0  0  0  0  0  0  0  0  0  0  0
   -6.2370   18.4220  -31.9590 C   0  0  0  0  0  0  0  0  0  0  0  0
   -3.3731   18.9803  -31.8249 H   0  0  0  0  0  0  0  0  0  0  0  0
   -3.9542   18.2954  -33.3805 H   0  0  0  0  0  0  0  0  0  0  0  0
   -2.7985   19.6706  -33.3805 H   0  0  0  0  0  0  0  0  0  0  0  0
   -3.6714   21.5670  -33.8499 H   0  0  0  0  0  0  0  0  0  0  0  0
   -5.4232   21.9878  -33.4443 H   0  0  0  0  0  0  0  0  0  0  0  0
   -1.9817   21.7231  -31.4627 H   0  0  0  0  0  0  0  0  0  0  0  0
   -4.2110   25.1470  -28.7160 H   0  0  0  0  0  0  0  0  0  0  0  0
   -5.8430   26.7740  -28.6000 H   0  0  0  0  0  0  0  0  0  0  0  0
   -7.7050   24.9370  -30.9500 H   0  0  0  0  0  0  0  0  0  0  0  0
   -6.7130   23.3970  -33.5380 H   0  0  0  0  0  0  0  0  0  0  0  0
   -7.1740   21.2544  -33.4873 H   0  0  0  0  0  0  0  0  0  0  0  0
   -9.4165   20.2924  -33.0205 H   0  0  0  0  0  0  0  0  0  0  0  0
   -9.5953   18.0959  -31.8597 H   0  0  0  0  0  0  0  0  0  0  0  0
   -7.5228   16.8967  -31.1771 H   0  0  0  0  0  0  0  0  0  0  0  0
   -5.3334   17.8766  -31.6490 H   0  0  0  0  0  0  0  0  0  0  0  0
  1  2  1  0
  2  3  1  0
  3  4  1  0
  4  5  2  0
  5  6  1  0
  6  7  1  0
  7  8  1  0
  8  9  1  0
  9 10  2  3
  9 11  1  0
 11 12  1  0
 12 13  2  3
 12 14  1  0
  2 15  1  0
 15 16  2  0
 16 17  1  0
 17 18  2  0
 18 19  1  0
 19 20  2  0
 14  4  1  0
 20 15  1  0
 14  7  2  0
  1 21  1  0
  1 22  1  0
  1 23  1  0
  3 24  1  0
  3 25  1  0
  5 26  1  0
  8 27  1  0
 10 28  1  0
 11 29  1  0
 13 30  1  0
 16 31  1  0
 17 32  1  0
 18 33  1  0
 19 34  1  0
 20 35  1  0
M  END
>  <smiles>  (5) 
CN(Cc1coc2[nH]c(=N)[nH]c(=N)c12)c1ccccc1

>  <score_type>  (5) 
oracle

>  <origin>  (5) 
adg

>  <m_score__min__energy>  (5) 
-7.0199999999999996

>  <m_primary>  (5) 
energy

$$$$
5:0
     RDKit          3D

 37 39  0  0  0  0  0  0  0  0999 V2000
   -3.5230   23.0680  -31.8360 N   0  0  0  0  0  0  0  0  0  0  0  0
   -4.9400   22.8350  -31.7520 C   0  0  0  0  0  0  0  0  0  0  0  0
   -5.7990   23.7090  -31.0540 C   0  0  0  0  0  0  0  0  0  0  0  0
   -5.3090   25.0080  -30.4450 C   0  0  0  0  0  0  0  0  0  0  0  0
   -3.8460   25.0990  -30.4580 N   0  0  0  0  0  0  0  0  0  0  0  0
   -3.1160   24.0350  -29.2840 S   0  0  0  0  0  0  0  0  0  0  0  0
   -4.1550   23.0800  -28.7720 O   0  0  0  0  0  0  0  0  0  0  0  0
   -2.0340   23.2380  -29.9580 O   0  0  0  0  0  0  0  0  0  0  0  0
   -2.4050   24.9230  -27.9350 C   0  0  0  0  0  0  0  0  0  0  0  0
   -1.2360   25.6730  -28.1330 C   0  0  0  0  0  0  0  0  0  0  0  0
   -0.6860   26.4070  -27.0770 C   0  0  0  0  0  0  0  0  0  0  0  0
   -1.3000   26.3960  -25.8210 C   0  0  0  0  0  0  0  0  0  0  0  0
   -0.7670   27.1100  -24.8000 F   0  0  0  0  0  0  0  0  0  0  0  0
   -2.4650   25.6490  -25.6200 C   0  0  0  0  0  0  0  0  0  0  0  0
   -3.0170   24.9140  -26.6730 C   0  0  0  0  0  0  0  0  0  0  0  0
   -7.1120   23.3730  -30.9130 N   0  0  0  0  0  0  0  0  0  0  0  0
   -7.6360   22.2610  -31.4990 C   0  0  0  0  0  0  0  0  0  0  0  0
   -9.0030   21.9800  -31.3510 C   0  0  0  0  0  0  0  0  0  0  0  0
   -9.5470   20.8530  -31.9590 C   0  0  0  0  0  0  0  0  0  0  0  0
   -8.7320   20.0140  -32.7100 C   0  0  0  0  0  0  0  0  0  0  0  0
   -7.3740   20.3110  -32.8420 C   0  0  0  0  0  0  0  0  0  0  0  0
   -6.8340   21.4220  -32.2410 N   0  0  0  0  0  0  0  0  0  0  0  0
   -5.4940   21.6980  -32.3640 C   0  0  0  0  0  0  0  0  0  0  0  0
   -4.7400   20.9230  -33.0180 O   0  0  0  0  0  0  0  0  0  0  0  0
   -2.8520   22.2730  -31.9190 H   0  0  0  0  0  0  0  0  0  0  0  0
   -3.1070   24.0130  -31.6880 H   0  0  0  0  0  0  0  0  0  0  0  0
   -5.7230   25.8492  -31.0204 H   0  0  0  0  0  0  0  0  0  0  0  0
   -5.6438   25.0417  -29.3977 H   0  0  0  0  0  0  0  0  0  0  0  0
   -0.7512   25.6838  -29.1203 H   0  0  0  0  0  0  0  0  0  0  0  0
    0.2309   26.9937  -27.2350 H   0  0  0  0  0  0  0  0  0  0  0  0
   -2.9477   25.6398  -24.6316 H   0  0  0  0  0  0  0  0  0  0  0  0
   -3.9333   24.3273  -26.5116 H   0  0  0  0  0  0  0  0  0  0  0  0
   -7.7390   23.9960  -30.3530 H   0  0  0  0  0  0  0  0  0  0  0  0
   -9.6424   22.6488  -30.7561 H   0  0  0  0  0  0  0  0  0  0  0  0
  -10.6175   20.6269  -31.8459 H   0  0  0  0  0  0  0  0  0  0  0  0
   -9.1539   19.1224  -33.1969 H   0  0  0  0  0  0  0  0  0  0  0  0
   -6.7282   19.6467  -33.4350 H   0  0  0  0  0  0  0  0  0  0  0  0
  1  2  1  0
  2  3  2  0
  3  4  1  0
  4  5  1  0
  5  6  1  0
  6  7  2  0
  6  8  2  0
  6  9  1  0
  9 10  2  0
 10 11  1  0
 11 12  2  0
 12 13  1  0
 12 14  1  0
 14 15  2  0
  3 16  1  0
 16 17  2  0
 17 18  1  0
 18 19  2  0
 19 20  1  0
 20 21  2  0
 21 22  1  0
 22 23  1  0
 23 24  2  0
 23  2  1  0
 15  9  1  0
 22 17  1  0
  1 25  1  0
  1 26  1  0
  4 27  1  0
  4 28  1  0
 10 29  1  0
 11 30  1  0
 14 31  1  0
 15 32  1  0
 16 33  1  0
 18 34  1  0
 19 35  1  0
 20 36  1  0
 21 37  1  0
M  CHG  2   5  -1  16   1
M  END
>  <UniqueID>  (6) 
5

>  <SMILES>  (6) 
Nc1c(C[N-]S(=O)(=O)c2ccc(F)cc2)[nH+]c2ccccn2c1=O

>  <Energy>  (6) 
47.60823451742063

>  <Genealogy>  (6) 
Nc1c(C[N-]S(=O)(=O)c2ccc(F)cc2)[nH+]c2ccccn2c1=O (protonated)
Nc1c(C[N-]S(=O)(=O)c2ccc(F)cc2)[nH+]c2ccccn2c1=O (3D coordinates assigned)
Nc1c(C[N-]S(=O)(=O)c2ccc(F)cc2)[nH+]c2ccccn2c1=O (optimized conformer: 47.60823451742063 kcal/mol)

>  <smiles>  (6) 
Nc1c(CNS(=O)(=O)c2ccc(F)cc2)nc2ccccn2c1=O

>  <score_type>  (6) 
oracle

>  <origin>  (6) 
adg

>  <m_score__min__energy>  (6) 
-8.2300000000000004

>  <m_primary>  (6) 
energy

$$$$
6:0
     RDKit          3D

 40 41  0  0  0  0  0  0  0  0999 V2000
   -4.1960   24.5680  -26.7550 C   0  0  0  0  0  0  0  0  0  0  0  0
   -2.6810   24.7750  -26.7930 C   0  0  0  0  0  0  0  0  0  0  0  0
   -1.9500   23.6610  -27.5660 C   0  0  0  0  0  0  0  0  0  0  0  0
   -1.8250   23.9390  -29.0740 C   0  0  0  0  0  0  0  0  0  0  0  0
   -2.9020   23.2930  -29.8450 N   0  0  0  0  0  0  0  0  0  0  0  0
   -2.9480   21.9290  -29.8990 C   0  0  0  0  0  0  0  0  0  0  0  0
   -3.9410   21.2790  -30.6280 C   0  0  0  0  0  0  0  0  0  0  0  0
   -4.8880   22.0480  -31.3100 C   0  0  0  0  0  0  0  0  0  0  0  0
   -5.9480   21.4310  -32.0640 N   0  0  0  0  0  0  0  0  0  0  0  0
   -7.3360   21.5950  -31.6180 C   0  0  0  0  0  0  0  0  0  0  0  0
   -8.2770   20.6600  -32.3950 C   0  0  0  0  0  0  0  0  0  0  0  0
   -7.6620   19.3350  -32.6320 N   0  0  0  0  0  0  0  0  0  0  0  0
   -7.5050   18.5740  -31.3800 C   0  0  0  0  0  0  0  0  0  0  0  0
   -6.3920   19.4030  -33.4020 C   0  0  0  0  0  0  0  0  0  0  0  0
   -5.7020   20.7790  -33.3540 C   0  0  0  0  0  0  0  0  0  0  0  0
   -4.8280   23.4020  -31.2160 N   0  0  0  0  0  0  0  0  0  0  0  0
   -3.8570   24.0280  -30.5030 C   0  0  0  0  0  0  0  0  0  0  0  0
   -3.8470   25.2880  -30.4630 O   0  0  0  0  0  0  0  0  0  0  0  0
   -4.5336   24.5219  -25.7091 H   0  0  0  0  0  0  0  0  0  0  0  0
   -4.6935   25.4065  -27.2643 H   0  0  0  0  0  0  0  0  0  0  0  0
   -4.4504   23.6268  -27.2643 H   0  0  0  0  0  0  0  0  0  0  0  0
   -2.4692   25.7386  -27.2794 H   0  0  0  0  0  0  0  0  0  0  0  0
   -2.3160   24.7552  -25.7555 H   0  0  0  0  0  0  0  0  0  0  0  0
   -0.9386   23.5529  -27.1471 H   0  0  0  0  0  0  0  0  0  0  0  0
   -2.5484   22.7447  -27.4550 H   0  0  0  0  0  0  0  0  0  0  0  0
   -1.8717   25.0254  -29.2400 H   0  0  0  0  0  0  0  0  0  0  0  0
   -0.8655   23.5252  -29.4177 H   0  0  0  0  0  0  0  0  0  0  0  0
   -2.1927   21.3374  -29.3609 H   0  0  0  0  0  0  0  0  0  0  0  0
   -3.9792   20.1803  -30.6663 H   0  0  0  0  0  0  0  0  0  0  0  0
   -7.3996   21.3596  -30.5454 H   0  0  0  0  0  0  0  0  0  0  0  0
   -7.6435   22.6349  -31.8025 H   0  0  0  0  0  0  0  0  0  0  0  0
   -9.2024   20.5246  -31.8160 H   0  0  0  0  0  0  0  0  0  0  0  0
   -8.4859   21.1199  -33.3722 H   0  0  0  0  0  0  0  0  0  0  0  0
   -7.6440   19.2476  -30.5216 H   0  0  0  0  0  0  0  0  0  0  0  0
   -8.2565   17.7717  -31.3419 H   0  0  0  0  0  0  0  0  0  0  0  0
   -6.4973   18.1346  -31.3419 H   0  0  0  0  0  0  0  0  0  0  0  0
   -5.6985   18.6541  -32.9919 H   0  0  0  0  0  0  0  0  0  0  0  0
   -6.6480   19.2125  -34.4547 H   0  0  0  0  0  0  0  0  0  0  0  0
   -4.6188   20.6460  -33.4919 H   0  0  0  0  0  0  0  0  0  0  0  0
   -6.1111   21.4108  -34.1562 H   0  0  0  0  0  0  0  0  0  0  0  0
  1  2  1  0
  2  3  1  0
  3  4  1  0
  4  5  1  0
  5  6  1  0
  6  7  2  0
  7  8  1  0
  8  9  1  0
  9 10  1  0
 10 11  1  0
 11 12  1  0
 12 13  1  0
 12 14  1  0
 14 15  1  0
  8 16  2  0
 16 17  1  0
 17 18  2  0
 17  5  1  0
 15  9  1  0
  1 19  1  0
  1 20  1  0
  1 21  1  0
  2 22  1  0
  2 23  1  0
  3 24  1  0
  3 25  1  0
  4 26  1  0
  4 27  1  0
  6 28  1  0
  7 29  1  0
 10 30  1  0
 10 31  1  0
 11 32  1  0
 11 33  1  0
 13 34  1  0
 13 35  1  0
 13 36  1  0
 14 37  1  0
 14 38  1  0
 15 39  1  0
 15 40  1  0
M  END
>  <UniqueID>  (7) 
6

>  <SMILES>  (7) 
CCCCn1ccc(N2CCN(C)CC2)nc1=O

>  <Energy>  (7) 
46.91182682016413

>  <Genealogy>  (7) 
CCCCn1ccc(N2CCN(C)CC2)nc1=O (3D coordinates assigned)
CCCCn1ccc(N2CCN(C)CC2)nc1=O (nonaromatic ring conformer: 46.91182682016413 kcal/mol)

>  <smiles>  (7) 
CCCCn1ccc(N2CCN(C)CC2)nc1=O

>  <score_type>  (7) 
oracle

>  <origin>  (7) 
adg

>  <m_score__min__energy>  (7) 
-6.21

>  <m_primary>  (7) 
energy

$$$$
7:0
     RDKit          3D

 45 47  0  0  0  0  0  0  0  0999 V2000
   -2.5180   22.1230  -31.2190 C   0  0  0  0  0  0  0  0  0  0  0  0
   -3.5080   23.0770  -31.5930 O   0  0  0  0  0  0  0  0  0  0  0  0
   -4.8870   22.9260  -31.3700 C   0  0  0  0  0  0  0  0  0  0  0  0
   -5.5740   21.7570  -31.7560 C   0  0  0  0  0  0  0  0  0  0  0  0
   -6.9480   21.6390  -31.5410 C   0  0  0  0  0  0  0  0  0  0  0  0
   -7.5990   20.5100  -31.9190 F   0  0  0  0  0  0  0  0  0  0  0  0
   -7.6540   22.6780  -30.9350 C   0  0  0  0  0  0  0  0  0  0  0  0
   -6.9870   23.8400  -30.5430 C   0  0  0  0  0  0  0  0  0  0  0  0
   -5.6050   23.9790  -30.7590 C   0  0  0  0  0  0  0  0  0  0  0  0
   -4.9170   25.2210  -30.3280 C   0  0  0  0  0  0  0  0  0  0  0  0
   -5.5920   26.2650  -30.1250 O   0  0  0  0  0  0  0  0  0  0  0  0
   -3.4900   25.2910  -30.2000 N   0  0  0  0  0  0  0  0  0  0  0  0
   -2.7190   24.8660  -29.0670 C   0  0  0  0  0  0  0  0  0  0  0  0
   -3.2900   24.1190  -28.0220 C   0  0  0  0  0  0  0  0  0  0  0  0
   -2.5130   23.7320  -26.9270 C   0  0  0  0  0  0  0  0  0  0  0  0
   -1.1620   24.0990  -26.8560 C   0  0  0  0  0  0  0  0  0  0  0  0
   -0.1740   23.6340  -25.4720 S   0  0  0  0  0  0  0  0  0  0  0  0
    1.2070   23.3040  -25.9640 O   0  0  0  0  0  0  0  0  0  0  0  0
   -0.7540   22.4120  -24.8140 O   0  0  0  0  0  0  0  0  0  0  0  0
   -0.0950   24.9560  -24.3280 N   0  0  0  0  0  0  0  0  0  0  0  0
    1.0890   25.7920  -24.5620 C   0  0  0  0  0  0  0  0  0  0  0  0
    0.6740   26.9370  -25.4740 C   0  0  0  0  0  0  0  0  0  0  0  0
   -0.8440   26.9760  -25.4160 C   0  0  0  0  0  0  0  0  0  0  0  0
   -1.2490   25.8500  -24.4740 C   0  0  0  0  0  0  0  0  0  0  0  0
   -0.6010   24.8690  -27.8810 C   0  0  0  0  0  0  0  0  0  0  0  0
   -1.3770   25.2560  -28.9780 C   0  0  0  0  0  0  0  0  0  0  0  0
   -2.4593   22.0664  -30.1220 H   0  0  0  0  0  0  0  0  0  0  0  0
   -2.7884   21.1363  -31.6231 H   0  0  0  0  0  0  0  0  0  0  0  0
   -1.5420   22.4298  -31.6231 H   0  0  0  0  0  0  0  0  0  0  0  0
   -5.0229   20.9315  -32.2303 H   0  0  0  0  0  0  0  0  0  0  0  0
   -8.7367   22.5818  -30.7659 H   0  0  0  0  0  0  0  0  0  0  0  0
   -7.5479   24.6541  -30.0608 H   0  0  0  0  0  0  0  0  0  0  0  0
   -4.3526   23.8380  -28.0664 H   0  0  0  0  0  0  0  0  0  0  0  0
   -2.9629   23.1375  -26.1182 H   0  0  0  0  0  0  0  0  0  0  0  0
   -0.0680   24.5540  -23.3610 H   0  0  0  0  0  0  0  0  0  0  0  0
    1.4613   26.1901  -23.6065 H   0  0  0  0  0  0  0  0  0  0  0  0
    1.8921   25.2011  -25.0266 H   0  0  0  0  0  0  0  0  0  0  0  0
    1.0965   27.8868  -25.1144 H   0  0  0  0  0  0  0  0  0  0  0  0
    1.0385   26.7915  -26.5016 H   0  0  0  0  0  0  0  0  0  0  0  0
   -1.1882   27.9451  -25.0257 H   0  0  0  0  0  0  0  0  0  0  0  0
   -1.2919   26.8523  -26.4130 H   0  0  0  0  0  0  0  0  0  0  0  0
   -1.5292   26.2636  -23.4940 H   0  0  0  0  0  0  0  0  0  0  0  0
   -2.1134   25.3018  -24.8769 H   0  0  0  0  0  0  0  0  0  0  0  0
    0.4551   25.1712  -27.8235 H   0  0  0  0  0  0  0  0  0  0  0  0
   -0.9312   25.8696  -29.7747 H   0  0  0  0  0  0  0  0  0  0  0  0
  1  2  1  0
  2  3  1  0
  3  4  2  0
  4  5  1  0
  5  6  1  0
  5  7  2  0
  7  8  1  0
  8  9  2  0
  9 10  1  0
 10 11  2  0
 10 12  1  0
 12 13  1  0
 13 14  2  0
 14 15  1  0
 15 16  2  0
 16 17  1  0
 17 18  2  0
 17 19  2  0
 17 20  1  0
 20 21  1  0
 21 22  1  0
 22 23  1  0
 23 24  1  0
 16 25  1  0
 25 26  2  0
  9  3  1  0
 26 13  1  0
 24 20  1  0
  1 27  1  0
  1 28  1  0
  1 29  1  0
  4 30  1  0
  7 31  1  0
  8 32  1  0
 14 33  1  0
 15 34  1  0
 20 35  1  0
 21 36  1  0
 21 37  1  0
 22 38  1  0
 22 39  1  0
 23 40  1  0
 23 41  1  0
 24 42  1  0
 24 43  1  0
 25 44  1  0
 26 45  1  0
M  CHG  2  12  -1  20   1
M  END
>  <UniqueID>  (8) 
7

>  <SMILES>  (8) 
COc1cc(F)ccc1C(=O)[N-]c1ccc(S(=O)(=O)[NH+]2CCCC2)cc1

>  <Energy>  (8) 
54.84675422525053

>  <Genealogy>  (8) 
COc1cc(F)ccc1C(=O)[N-]c1ccc(S(=O)(=O)[NH+]2CCCC2)cc1 (protonated)
COc1cc(F)ccc1C(=O)[N-]c1ccc(S(=O)(=O)[NH+]2CCCC2)cc1 (3D coordinates assigned)
COc1cc(F)ccc1C(=O)[N-]c1ccc(S(=O)(=O)[NH+]2CCCC2)cc1 (nonaromatic ring conformer: 54.84675422525053 kcal/mol)

>  <smiles>  (8) 
COc1cc(F)ccc1C(=O)Nc1ccc(S(=O)(=O)N2CCCC2)cc1

>  <score_type>  (8) 
oracle

>  <origin>  (8) 
adg

>  <m_score__min__energy>  (8) 
-10.06

>  <m_primary>  (8) 
energy

$$$$
8:0
     RDKit          3D

 33 34  0  0  0  0  0  0  0  0999 V2000
   -5.6090   26.0290  -30.1240 C   0  0  0  0  0  0  0  0  0  0  0  0
   -4.7370   25.1150  -30.8650 N   0  0  0  0  0  0  0  0  0  0  0  0
   -5.4900   24.0010  -31.4720 C   0  0  0  0  0  0  0  0  0  0  0  0
   -6.5570   23.4110  -30.5320 C   0  0  0  0  0  0  0  0  0  0  0  0
   -7.3460   22.3100  -31.1890 C   0  0  0  0  0  0  0  0  0  0  0  0
   -8.7440   22.3950  -31.2660 C   0  0  0  0  0  0  0  0  0  0  0  0
   -9.4750   21.3950  -31.9080 C   0  0  0  0  0  0  0  0  0  0  0  0
   -8.8200   20.3040  -32.4830 C   0  0  0  0  0  0  0  0  0  0  0  0
   -7.4190   20.2000  -32.4200 C   0  0  0  0  0  0  0  0  0  0  0  0
   -6.7200   19.0440  -33.0370 C   0  0  0  0  0  0  0  0  0  0  0  0
   -5.9320   19.2180  -34.1910 C   0  0  0  0  0  0  0  0  0  0  0  0
   -5.2730   18.1290  -34.7700 C   0  0  0  0  0  0  0  0  0  0  0  0
   -5.3920   16.8570  -34.2050 C   0  0  0  0  0  0  0  0  0  0  0  0
   -6.1700   16.6720  -33.0600 C   0  0  0  0  0  0  0  0  0  0  0  0
   -6.8320   17.7570  -32.4770 C   0  0  0  0  0  0  0  0  0  0  0  0
   -6.6890   21.2110  -31.7680 C   0  0  0  0  0  0  0  0  0  0  0  0
   -5.4651   25.8782  -29.0439 H   0  0  0  0  0  0  0  0  0  0  0  0
   -5.3586   27.0676  -30.3858 H   0  0  0  0  0  0  0  0  0  0  0  0
   -6.6583   25.8277  -30.3858 H   0  0  0  0  0  0  0  0  0  0  0  0
   -4.2170   25.6610  -31.5930 H   0  0  0  0  0  0  0  0  0  0  0  0
   -5.9888   24.3695  -32.3805 H   0  0  0  0  0  0  0  0  0  0  0  0
   -4.7693   23.2002  -31.6942 H   0  0  0  0  0  0  0  0  0  0  0  0
   -6.0579   23.0055  -29.6395 H   0  0  0  0  0  0  0  0  0  0  0  0
   -7.2571   24.2170  -30.2670 H   0  0  0  0  0  0  0  0  0  0  0  0
   -9.2661   23.2535  -30.8184 H   0  0  0  0  0  0  0  0  0  0  0  0
  -10.5714   21.4663  -31.9614 H   0  0  0  0  0  0  0  0  0  0  0  0
   -9.4038   19.5207  -32.9886 H   0  0  0  0  0  0  0  0  0  0  0  0
   -5.8342   20.2174  -34.6401 H   0  0  0  0  0  0  0  0  0  0  0  0
   -4.6600   18.2742  -35.6717 H   0  0  0  0  0  0  0  0  0  0  0  0
   -4.8731   16.0014  -34.6618 H   0  0  0  0  0  0  0  0  0  0  0  0
   -6.2623   15.6700  -32.6156 H   0  0  0  0  0  0  0  0  0  0  0  0
   -7.4438   17.6042  -31.5757 H   0  0  0  0  0  0  0  0  0  0  0  0
   -5.5928   21.1403  -31.7110 H   0  0  0  0  0  0  0  0  0  0  0  0
  1  2  1  0
  2  3  1  0
  3  4  1  0
  4  5  1  0
  5  6  2  0
  6  7  1  0
  7  8  2  0
  8  9  1  0
  9 10  1  0
 10 11  2  0
 11 12  1  0
 12 13  2  0
 13 14  1  0
 14 15  2  0
  9 16  2  0
 16  5  1  0
 15 10  1  0
  1 17  1  0
  1 18  1  0
  1 19  1  0
  2 20  1  0
  3 21  1  0
  3 22  1  0
  4 23  1  0
  4 24  1  0
  6 25  1  0
  7 26  1  0
  8 27  1  0
 11 28  1  0
 12 29  1  0
 13 30  1  0
 14 31  1  0
 15 32  1  0
 16 33  1  0
M  END
>  <UniqueID>  (9) 
8

>  <SMILES>  (9) 
CNCCc1cccc(-c2ccccc2)c1

>  <Energy>  (9) 
36.84104191368418

>  <Genealogy>  (9) 
CNCCc1cccc(-c2ccccc2)c1 (3D coordinates assigned)
CNCCc1cccc(-c2ccccc2)c1 (optimized conformer: 36.84104191368418 kcal/mol)

>  <smiles>  (9) 
CNCCc1cccc(-c2ccccc2)c1

>  <score_type>  (9) 
oracle

>  <origin>  (9) 
adg

>  <m_score__min__energy>  (9) 
-8.1099999999999994

>  <m_primary>  (9) 
energy

$$$$
9:0
     RDKit          3D

 43 46  0  0  0  0  0  0  0  0999 V2000
   -8.3640   18.6000  -32.2280 C   0  0  0  0  0  0  0  0  0  0  0  0
   -8.3390   20.1030  -32.1630 C   0  0  0  0  0  0  0  0  0  0  0  0
   -9.4830   20.7820  -31.7100 C   0  0  0  0  0  0  0  0  0  0  0  0
   -9.4880   22.1750  -31.6090 C   0  0  0  0  0  0  0  0  0  0  0  0
   -8.3530   22.9060  -31.9610 C   0  0  0  0  0  0  0  0  0  0  0  0
   -7.2160   22.2480  -32.4330 C   0  0  0  0  0  0  0  0  0  0  0  0
   -7.2040   20.8520  -32.5630 C   0  0  0  0  0  0  0  0  0  0  0  0
   -6.0280   20.2150  -33.0840 N   0  0  0  0  0  0  0  0  0  0  0  0
   -6.0300   19.3320  -34.0650 N   0  0  0  0  0  0  0  0  0  0  0  0
   -4.7880   18.9920  -34.3650 N   0  0  0  0  0  0  0  0  0  0  0  0
   -3.9490   19.6460  -33.5700 N   0  0  0  0  0  0  0  0  0  0  0  0
   -4.7280   20.4020  -32.7670 C   0  0  0  0  0  0  0  0  0  0  0  0
   -4.1960   21.2730  -31.6960 C   0  0  0  0  0  0  0  0  0  0  0  0
   -3.5990   20.7350  -30.5460 C   0  0  0  0  0  0  0  0  0  0  0  0
   -3.1130   21.5750  -29.5410 C   0  0  0  0  0  0  0  0  0  0  0  0
   -3.1990   22.9750  -29.6680 C   0  0  0  0  0  0  0  0  0  0  0  0
   -2.6990   23.8450  -28.6250 N   0  0  0  0  0  0  0  0  0  0  0  0
   -1.4040   24.5070  -28.6690 C   0  0  0  0  0  0  0  0  0  0  0  0
   -1.2240   25.1610  -27.3070 C   0  0  0  0  0  0  0  0  0  0  0  0
   -2.6150   25.2210  -26.6890 C   0  0  0  0  0  0  0  0  0  0  0  0
   -3.4320   24.1550  -27.4050 C   0  0  0  0  0  0  0  0  0  0  0  0
   -3.7790   23.5080  -30.8360 C   0  0  0  0  0  0  0  0  0  0  0  0
   -4.2650   22.6660  -31.8390 C   0  0  0  0  0  0  0  0  0  0  0  0
   -8.3708   18.1889  -31.2077 H   0  0  0  0  0  0  0  0  0  0  0  0
   -9.2677   18.2711  -32.7619 H   0  0  0  0  0  0  0  0  0  0  0  0
   -7.4717   18.2412  -32.7619 H   0  0  0  0  0  0  0  0  0  0  0  0
  -10.3818   20.2117  -31.4327 H   0  0  0  0  0  0  0  0  0  0  0  0
  -10.3881   22.6965  -31.2514 H   0  0  0  0  0  0  0  0  0  0  0  0
   -8.3541   24.0019  -31.8665 H   0  0  0  0  0  0  0  0  0  0  0  0
   -6.3226   22.8292  -32.7050 H   0  0  0  0  0  0  0  0  0  0  0  0
   -6.8800   18.9740  -34.5550 H   0  0  0  0  0  0  0  0  0  0  0  0
   -3.5130   19.6440  -30.4348 H   0  0  0  0  0  0  0  0  0  0  0  0
   -2.6579   21.1378  -28.6400 H   0  0  0  0  0  0  0  0  0  0  0  0
   -0.6049   23.7730  -28.8497 H   0  0  0  0  0  0  0  0  0  0  0  0
   -1.3557   25.2465  -29.4819 H   0  0  0  0  0  0  0  0  0  0  0  0
   -0.5513   24.5588  -26.6787 H   0  0  0  0  0  0  0  0  0  0  0  0
   -0.7760   26.1618  -27.3942 H   0  0  0  0  0  0  0  0  0  0  0  0
   -2.5652   25.0061  -25.6113 H   0  0  0  0  0  0  0  0  0  0  0  0
   -3.0649   26.2187  -26.7995 H   0  0  0  0  0  0  0  0  0  0  0  0
   -3.5255   23.2575  -26.7760 H   0  0  0  0  0  0  0  0  0  0  0  0
   -4.4515   24.5055  -27.6236 H   0  0  0  0  0  0  0  0  0  0  0  0
   -3.8499   24.5988  -30.9594 H   0  0  0  0  0  0  0  0  0  0  0  0
   -4.7056   23.0996  -32.7489 H   0  0  0  0  0  0  0  0  0  0  0  0
  1  2  1  0
  2  3  2  0
  3  4  1  0
  4  5  2  0
  5  6  1  0
  6  7  2  0
  7  8  1  0
  8  9  1  0
  9 10  2  0
 10 11  1  0
 11 12  2  0
 12 13  1  0
 13 14  2  0
 14 15  1  0
 15 16  2  0
 16 17  1  0
 17 18  1  0
 18 19  1  0
 19 20  1  0
 20 21  1  0
 16 22  1  0
 22 23  2  0
  7  2  1  0
 12  8  1  0
 23 13  1  0
 21 17  1  0
  1 24  1  0
  1 25  1  0
  1 26  1  0
  3 27  1  0
  4 28  1  0
  5 29  1  0
  6 30  1  0
  9 31  1  0
 14 32  1  0
 15 33  1  0
 18 34  1  0
 18 35  1  0
 19 36  1  0
 19 37  1  0
 20 38  1  0
 20 39  1  0
 21 40  1  0
 21 41  1  0
 22 42  1  0
 23 43  1  0
M  CHG  1   9   1
M  END
>  <UniqueID>  (10) 
9

>  <SMILES>  (10) 
Cc1ccccc1-n1[nH+]nnc1-c1ccc(N2CCCC2)cc1

>  <Energy>  (10) 
97.4679430455822

>  <Genealogy>  (10) 
Cc1ccccc1-n1[nH+]nnc1-c1ccc(N2CCCC2)cc1 (protonated)
Cc1ccccc1-n1[nH+]nnc1-c1ccc(N2CCCC2)cc1 (3D coordinates assigned)
Cc1ccccc1-n1[nH+]nnc1-c1ccc(N2CCCC2)cc1 (nonaromatic ring conformer: 97.4679430455822 kcal/mol)

>  <smiles>  (10) 
Cc1ccccc1-n1nnnc1-c1ccc(N2CCCC2)cc1

>  <score_type>  (10) 
oracle

>  <origin>  (10) 
adg

>  <m_score__min__energy>  (10) 
-8.0999999999999996

>  <m_primary>  (10) 
energy

$$$$
10:0
     RDKit          3D

 48 48  0  0  0  0  0  0  0  0999 V2000
   -1.0800   25.6970  -27.6810 C   0  0  0  0  0  0  0  0  0  0  0  0
   -0.8060   24.5440  -28.6530 C   0  0  0  0  0  0  0  0  0  0  0  0
   -1.9470   23.5950  -28.7700 N   0  0  0  0  0  0  0  0  0  0  0  0
   -1.5210   22.1970  -29.0530 C   0  0  0  0  0  0  0  0  0  0  0  0
   -2.1900   21.1370  -28.1640 C   0  0  0  0  0  0  0  0  0  0  0  0
   -2.8160   23.6570  -27.5630 C   0  0  0  0  0  0  0  0  0  0  0  0
   -4.2380   24.1540  -27.8870 C   0  0  0  0  0  0  0  0  0  0  0  0
   -4.8890   23.2810  -28.9650 C   0  0  0  0  0  0  0  0  0  0  0  0
   -4.5500   23.9000  -30.6130 S   0  0  0  0  0  0  0  0  0  0  0  0
   -3.9550   25.2750  -30.4950 O   0  0  0  0  0  0  0  0  0  0  0  0
   -3.5380   22.9950  -31.2570 O   0  0  0  0  0  0  0  0  0  0  0  0
   -6.0040   23.9600  -31.6670 C   0  0  0  0  0  0  0  0  0  0  0  0
   -6.9360   22.7420  -31.4930 C   0  0  0  0  0  0  0  0  0  0  0  0
   -8.3570   23.0860  -31.9850 C   0  0  0  0  0  0  0  0  0  0  0  0
   -9.3530   21.9420  -31.7060 C   0  0  0  0  0  0  0  0  0  0  0  0
   -8.7050   20.5440  -31.7290 C   0  0  0  0  0  0  0  0  0  0  0  0
   -7.4970   20.5000  -32.6670 C   0  0  0  0  0  0  0  0  0  0  0  0
   -6.3940   21.4820  -32.2200 C   0  0  0  0  0  0  0  0  0  0  0  0
   -0.9935   25.3330  -26.6466 H   0  0  0  0  0  0  0  0  0  0  0  0
   -0.3478   26.5004  -27.8494 H   0  0  0  0  0  0  0  0  0  0  0  0
   -2.0954   26.0851  -27.8494 H   0  0  0  0  0  0  0  0  0  0  0  0
   -0.5985   24.9662  -29.6473 H   0  0  0  0  0  0  0  0  0  0  0  0
    0.0513   23.9790  -28.2583 H   0  0  0  0  0  0  0  0  0  0  0  0
   -2.5190   23.8920  -29.5970 H   0  0  0  0  0  0  0  0  0  0  0  0
   -1.7632   21.9692  -30.1015 H   0  0  0  0  0  0  0  0  0  0  0  0
   -0.4426   22.1486  -28.8416 H   0  0  0  0  0  0  0  0  0  0  0  0
   -2.0294   21.3914  -27.1060 H   0  0  0  0  0  0  0  0  0  0  0  0
   -3.2693   21.1098  -28.3748 H   0  0  0  0  0  0  0  0  0  0  0  0
   -1.7502   20.1510  -28.3748 H   0  0  0  0  0  0  0  0  0  0  0  0
   -2.8850   22.6501  -27.1255 H   0  0  0  0  0  0  0  0  0  0  0  0
   -2.3631   24.3720  -26.8604 H   0  0  0  0  0  0  0  0  0  0  0  0
   -4.8500   24.1152  -26.9738 H   0  0  0  0  0  0  0  0  0  0  0  0
   -4.1731   25.1861  -28.2619 H   0  0  0  0  0  0  0  0  0  0  0  0
   -4.4952   22.2574  -28.8806 H   0  0  0  0  0  0  0  0  0  0  0  0
   -5.9778   23.2984  -28.8092 H   0  0  0  0  0  0  0  0  0  0  0  0
   -6.5718   24.8710  -31.4268 H   0  0  0  0  0  0  0  0  0  0  0  0
   -5.6512   23.9535  -32.7089 H   0  0  0  0  0  0  0  0  0  0  0  0
   -6.9739   22.5030  -30.4199 H   0  0  0  0  0  0  0  0  0  0  0  0
   -8.7029   23.9931  -31.4678 H   0  0  0  0  0  0  0  0  0  0  0  0
   -8.3132   23.2431  -33.0728 H   0  0  0  0  0  0  0  0  0  0  0  0
   -9.7989   22.1028  -30.7134 H   0  0  0  0  0  0  0  0  0  0  0  0
  -10.1043   21.9638  -32.5092 H   0  0  0  0  0  0  0  0  0  0  0  0
   -8.3767   20.2856  -30.7114 H   0  0  0  0  0  0  0  0  0  0  0  0
   -9.4518   19.8240  -32.0948 H   0  0  0  0  0  0  0  0  0  0  0  0
   -7.0859   19.4797  -32.6718 H   0  0  0  0  0  0  0  0  0  0  0  0
   -7.8318   20.7937  -33.6728 H   0  0  0  0  0  0  0  0  0  0  0  0
   -5.7140   20.9525  -31.5364 H   0  0  0  0  0  0  0  0  0  0  0  0
   -5.8861   21.8308  -33.1313 H   0  0  0  0  0  0  0  0  0  0  0  0
  1  2  1  0
  2  3  1  0
  3  4  1  0
  4  5  1  0
  3  6  1  0
  6  7  1  0
  7  8  1  0
  8  9  1  0
  9 10  2  0
  9 11  2  0
  9 12  1  0
 12 13  1  0
 13 14  1  0
 14 15  1  0
 15 16  1  0
 16 17  1  0
 17 18  1  0
 18 13  1  0
  1 19  1  0
  1 20  1  0
  1 21  1  0
  2 22  1  0
  2 23  1  0
  3 24  1  0
  4 25  1  0
  4 26  1  0
  5 27  1  0
  5 28  1  0
  5 29  1  0
  6 30  1  0
  6 31  1  0
  7 32  1  0
  7 33  1  0
  8 34  1  0
  8 35  1  0
 12 36  1  0
 12 37  1  0
 13 38  1  0
 14 39  1  0
 14 40  1  0
 15 41  1  0
 15 42  1  0
 16 43  1  0
 16 44  1  0
 17 45  1  0
 17 46  1  0
 18 47  1  0
 18 48  1  0
M  CHG  1   3   1
M  END
>  <UniqueID>  (11) 
10

>  <SMILES>  (11) 
CC[NH+](CC)CCCS(=O)(=O)CC1CCCCC1

>  <Energy>  (11) 
37.55629957759508

>  <Genealogy>  (11) 
CC[NH+](CC)CCCS(=O)(=O)CC1CCCCC1 (protonated)
CC[NH+](CC)CCCS(=O)(=O)CC1CCCCC1 (3D coordinates assigned)
CC[NH+](CC)CCCS(=O)(=O)CC1CCCCC1 (nonaromatic ring conformer: 37.55629957759508 kcal/mol)

>  <smiles>  (11) 
CCN(CC)CCCS(=O)(=O)CC1CCCCC1

>  <score_type>  (11) 
oracle

>  <origin>  (11) 
adg

>  <m_score__min__energy>  (11) 
-6.1200000000000001

>  <m_primary>  (11) 
energy

$$$$
11:0
     RDKit          3D

 33 35  0  0  0  0  0  0  0  0999 V2000
   -4.4350   20.6140  -32.9890 C   0  0  0  0  0  0  0  0  0  0  0  0
   -5.3410   21.6430  -32.3610 C   0  0  0  0  0  0  0  0  0  0  0  0
   -4.7830   22.8440  -31.8890 C   0  0  0  0  0  0  0  0  0  0  0  0
   -5.5870   23.8390  -31.3090 C   0  0  0  0  0  0  0  0  0  0  0  0
   -4.9900   25.1060  -30.8230 C   0  0  0  0  0  0  0  0  0  0  0  0
   -5.7260   26.1180  -30.6750 O   0  0  0  0  0  0  0  0  0  0  0  0
   -3.6050   25.2080  -30.4650 N   0  0  0  0  0  0  0  0  0  0  0  0
   -2.9640   24.5500  -29.3620 C   0  0  0  0  0  0  0  0  0  0  0  0
   -1.6550   24.8800  -28.9630 C   0  0  0  0  0  0  0  0  0  0  0  0
   -1.0670   24.2250  -27.8760 C   0  0  0  0  0  0  0  0  0  0  0  0
   -1.7820   23.2510  -27.1730 C   0  0  0  0  0  0  0  0  0  0  0  0
   -3.0900   22.9370  -27.5510 C   0  0  0  0  0  0  0  0  0  0  0  0
   -3.6820   23.5900  -28.6370 C   0  0  0  0  0  0  0  0  0  0  0  0
   -6.9630   23.6140  -31.1690 C   0  0  0  0  0  0  0  0  0  0  0  0
   -7.5390   22.4270  -31.6290 C   0  0  0  0  0  0  0  0  0  0  0  0
   -8.8800   22.2370  -31.4930 N   0  0  0  0  0  0  0  0  0  0  0  0
   -9.4900   21.1030  -31.9240 C   0  0  0  0  0  0  0  0  0  0  0  0
   -8.7440   20.0910  -32.5250 C   0  0  0  0  0  0  0  0  0  0  0  0
   -7.3660   20.2520  -32.6800 C   0  0  0  0  0  0  0  0  0  0  0  0
   -6.7350   21.4300  -32.2320 C   0  0  0  0  0  0  0  0  0  0  0  0
   -3.9293   20.0397  -32.1988 H   0  0  0  0  0  0  0  0  0  0  0  0
   -5.0315   19.9324  -33.6131 H   0  0  0  0  0  0  0  0  0  0  0  0
   -3.6833   21.1194  -33.6131 H   0  0  0  0  0  0  0  0  0  0  0  0
   -3.6986   23.0072  -31.9754 H   0  0  0  0  0  0  0  0  0  0  0  0
   -1.0938   25.6541  -29.5069 H   0  0  0  0  0  0  0  0  0  0  0  0
   -0.0398   24.4768  -27.5737 H   0  0  0  0  0  0  0  0  0  0  0  0
   -1.3152   22.7321  -26.3228 H   0  0  0  0  0  0  0  0  0  0  0  0
   -3.6549   22.1752  -26.9937 H   0  0  0  0  0  0  0  0  0  0  0  0
   -4.7163   23.3486  -28.9232 H   0  0  0  0  0  0  0  0  0  0  0  0
   -7.5950   24.3782  -30.6930 H   0  0  0  0  0  0  0  0  0  0  0  0
  -10.5762   20.9829  -31.7984 H   0  0  0  0  0  0  0  0  0  0  0  0
   -9.2373   19.1721  -32.8747 H   0  0  0  0  0  0  0  0  0  0  0  0
   -6.7709   19.4571  -33.1532 H   0  0  0  0  0  0  0  0  0  0  0  0
  1  2  1  0
  2  3  2  0
  3  4  1  0
  4  5  1  0
  5  6  2  0
  5  7  1  0
  7  8  1  0
  8  9  2  0
  9 10  1  0
 10 11  2  0
 11 12  1  0
 12 13  2  0
  4 14  2  0
 14 15  1  0
 15 16  2  0
 16 17  1  0
 17 18  2  0
 18 19  1  0
 19 20  2  0
 20  2  1  0
 13  8  1  0
 20 15  1  0
  1 21  1  0
  1 22  1  0
  1 23  1  0
  3 24  1  0
  9 25  1  0
 10 26  1  0
 11 27  1  0
 12 28  1  0
 13 29  1  0
 14 30  1  0
 17 31  1  0
 18 32  1  0
 19 33  1  0
M  CHG  1   7  -1
M  END
>  <UniqueID>  (12) 
11

>  <SMILES>  (12) 
Cc1cc(C(=O)[N-]c2ccccc2)cc2ncccc12

>  <Energy>  (12) 
47.22303566300731

>  <Genealogy>  (12) 
Cc1cc(C(=O)[N-]c2ccccc2)cc2ncccc12 (protonated)
Cc1cc(C(=O)[N-]c2ccccc2)cc2ncccc12 (3D coordinates assigned)
Cc1cc(C(=O)[N-]c2ccccc2)cc2ncccc12 (optimized conformer: 47.22303566300731 kcal/mol)

>  <smiles>  (12) 
Cc1cc(C(=O)Nc2ccccc2)cc2ncccc12

>  <score_type>  (12) 
oracle

>  <origin>  (12) 
adg

>  <m_score__min__energy>  (12) 
-10.029999999999999

>  <m_primary>  (12) 
energy

$$$$
12:0
     RDKit          3D

 72 75  0  0  0  0  0  0  0  0999 V2000
    1.2683   18.0062  -26.8988 H   0  0  0  0  0  0  0  0  0  0  0  0
    0.9650   18.4100  -27.8760 C   0  0  0  0  0  0  0  0  0  0  0  0
    0.2380   19.6960  -27.9110 C   0  0  0  0  0  0  0  0  0  0  0  0
    0.8740   20.7440  -27.6110 O   0  0  0  0  0  0  0  0  0  0  0  0
   -1.2130   19.7760  -28.2100 C   0  0  0  0  0  0  0  0  0  0  0  0
   -1.6530   18.9752  -28.8224 H   0  0  0  0  0  0  0  0  0  0  0  0
   -2.0270   20.7550  -27.7870 C   0  0  0  0  0  0  0  0  0  0  0  0
   -2.3635   20.7211  -26.7403 H   0  0  0  0  0  0  0  0  0  0  0  0
   -2.5050   21.8760  -28.6240 C   0  0  0  0  0  0  0  0  0  0  0  0
   -3.5020   21.6830  -29.5890 C   0  0  0  0  0  0  0  0  0  0  0  0
   -3.9086   20.6744  -29.7548 H   0  0  0  0  0  0  0  0  0  0  0  0
   -3.9910   22.7630  -30.3500 C   0  0  0  0  0  0  0  0  0  0  0  0
   -4.9580   22.5610  -31.3460 O   0  0  0  0  0  0  0  0  0  0  0  0
   -6.3580   22.7590  -31.1820 C   0  0  0  0  0  0  0  0  0  0  0  0
   -6.6003   22.7933  -30.1096 H   0  0  0  0  0  0  0  0  0  0  0  0
   -6.6520   23.7077  -31.6548 H   0  0  0  0  0  0  0  0  0  0  0  0
   -6.9036   21.9291  -31.6548 H   0  0  0  0  0  0  0  0  0  0  0  0
   -3.4840   24.0650  -30.1080 C   0  0  0  0  0  0  0  0  0  0  0  0
   -0.8400   18.6800  -34.1900 O   0  0  0  0  0  0  0  0  0  0  0  0
   -2.1180   18.1760  -34.5680 C   0  0  0  0  0  0  0  0  0  0  0  0
   -2.2441   18.2786  -35.6559 H   0  0  0  0  0  0  0  0  0  0  0  0
   -2.1888   17.1152  -34.2859 H   0  0  0  0  0  0  0  0  0  0  0  0
   -3.1910   18.9460  -33.8690 C   0  0  0  0  0  0  0  0  0  0  0  0
   -3.0360   20.1920  -33.3800 N   0  0  0  0  0  0  0  0  0  0  0  0
   -4.2170   20.5230  -32.8880 N   0  0  0  0  0  0  0  0  0  0  0  0
   -4.4240   21.4390  -32.4340 H   0  0  0  0  0  0  0  0  0  0  0  0
   -5.0520   19.4840  -33.0930 C   0  0  0  0  0  0  0  0  0  0  0  0
   -6.4840   19.4310  -32.7200 C   0  0  0  0  0  0  0  0  0  0  0  0
   -7.3720   20.4680  -33.0620 C   0  0  0  0  0  0  0  0  0  0  0  0
   -7.0041   21.3429  -33.6181 H   0  0  0  0  0  0  0  0  0  0  0  0
   -8.7200   20.3910  -32.6980 C   0  0  0  0  0  0  0  0  0  0  0  0
   -9.4077   21.2065  -32.9662 H   0  0  0  0  0  0  0  0  0  0  0  0
   -9.1960   19.2820  -31.9950 C   0  0  0  0  0  0  0  0  0  0  0  0
  -10.2574   19.2242  -31.7122 H   0  0  0  0  0  0  0  0  0  0  0  0
   -8.3240   18.2460  -31.6510 C   0  0  0  0  0  0  0  0  0  0  0  0
   -8.6983   17.3733  -31.0957 H   0  0  0  0  0  0  0  0  0  0  0  0
   -6.9750   18.3190  -32.0130 C   0  0  0  0  0  0  0  0  0  0  0  0
   -6.2925   17.4998  -31.7424 H   0  0  0  0  0  0  0  0  0  0  0  0
   -4.4160   18.5060  -33.6950 O   0  0  0  0  0  0  0  0  0  0  0  0
   -2.4760   24.2530  -29.1490 C   0  0  0  0  0  0  0  0  0  0  0  0
   -1.9690   25.5490  -28.9710 O   0  0  0  0  0  0  0  0  0  0  0  0
   -1.1650   25.9580  -27.8690 C   0  0  0  0  0  0  0  0  0  0  0  0
   -1.6733   25.6994  -26.9284 H   0  0  0  0  0  0  0  0  0  0  0  0
   -0.1931   25.4447  -27.9137 H   0  0  0  0  0  0  0  0  0  0  0  0
   -1.0076   27.0458  -27.9137 H   0  0  0  0  0  0  0  0  0  0  0  0
   -2.0040   23.1600  -28.3990 C   0  0  0  0  0  0  0  0  0  0  0  0
   -1.2342   23.3182  -27.6293 H   0  0  0  0  0  0  0  0  0  0  0  0
    1.2730   17.7110  -28.9800 C   0  0  0  0  0  0  0  0  0  0  0  0
    1.9517   16.8526  -28.8678 H   0  0  0  0  0  0  0  0  0  0  0  0
    0.7620   18.0140  -30.3460 C   0  0  0  0  0  0  0  0  0  0  0  0
    0.3030   16.9440  -31.1320 C   0  0  0  0  0  0  0  0  0  0  0  0
    0.3582   15.9187  -30.7374 H   0  0  0  0  0  0  0  0  0  0  0  0
   -0.2260   17.1650  -32.4160 C   0  0  0  0  0  0  0  0  0  0  0  0
   -0.6790   16.1150  -33.2310 O   0  0  0  0  0  0  0  0  0  0  0  0
   -1.2010   14.8820  -32.7480 C   0  0  0  0  0  0  0  0  0  0  0  0
   -1.1983   14.8885  -31.6480 H   0  0  0  0  0  0  0  0  0  0  0  0
   -2.2311   14.7525  -33.1114 H   0  0  0  0  0  0  0  0  0  0  0  0
   -0.5770   14.0522  -33.1114 H   0  0  0  0  0  0  0  0  0  0  0  0
   -0.3010   18.4720  -32.9160 C   0  0  0  0  0  0  0  0  0  0  0  0
   -3.9450   25.2130  -30.7800 O   0  0  0  0  0  0  0  0  0  0  0  0
   -5.2790   25.7140  -30.7710 C   0  0  0  0  0  0  0  0  0  0  0  0
   -5.6161   25.8406  -29.7316 H   0  0  0  0  0  0  0  0  0  0  0  0
   -5.3095   26.6849  -31.2872 H   0  0  0  0  0  0  0  0  0  0  0  0
   -5.9411   25.0033  -31.2872 H   0  0  0  0  0  0  0  0  0  0  0  0
    0.1510   19.5550  -32.1490 C   0  0  0  0  0  0  0  0  0  0  0  0
    0.0360   20.8490  -32.6840 O   0  0  0  0  0  0  0  0  0  0  0  0
    0.4970   21.2390  -33.9740 C   0  0  0  0  0  0  0  0  0  0  0  0
    1.3328   21.9460  -33.8664 H   0  0  0  0  0  0  0  0  0  0  0  0
    0.8372   20.3504  -34.5259 H   0  0  0  0  0  0  0  0  0  0  0  0
   -0.3230   21.7218  -34.5259 H   0  0  0  0  0  0  0  0  0  0  0  0
    0.6820   19.3210  -30.8660 C   0  0  0  0  0  0  0  0  0  0  0  0
    1.0386   20.1687  -30.2625 H   0  0  0  0  0  0  0  0  0  0  0  0
  1  2  1  0
  2  3  1  0
  3  4  2  0
  3  5  1  0
  5  6  1  0
  5  7  2  0
  7  8  1  0
  7  9  1  0
  9 10  2  0
 10 11  1  0
 10 12  1  0
 12 13  1  0
 13 14  1  0
 14 15  1  0
 14 16  1  0
 14 17  1  0
 12 18  2  0
 18 19  1  0
 19 20  1  0
 20 21  1  0
 20 22  1  0
 20 23  1  0
 23 24  2  0
 24 25  1  0
 25 26  1  0
 25 27  2  0
 27 28  1  0
 28 29  2  0
 29 30  1  0
 29 31  1  0
 31 32  1  0
 31 33  2  0
 33 34  1  0
 33 35  1  0
 35 36  1  0
 35 37  2  0
 37 38  1  0
 27 39  1  0
 18 40  1  0
 40 41  1  0
 41 42  1  0
 42 43  1  0
 42 44  1  0
 42 45  1  0
 40 46  2  0
 46 47  1  0
  2 48  2  0
 48 49  1  0
 48 50  1  0
 50 51  2  0
 51 52  1  0
 51 53  1  0
 53 54  1  0
 54 55  1  0
 55 56  1  0
 55 57  1  0
 55 58  1  0
 53 59  2  0
 59 60  1  0
 60 61  1  0
 61 62  1  0
 61 63  1  0
 61 64  1  0
 59 65  1  0
 65 66  1  0
 66 67  1  0
 67 68  1  0
 67 69  1  0
 67 70  1  0
 65 71  2  0
 71 72  1  0
 46  9  1  0
 71 50  1  0
 39 23  1  0
 37 28  1  0
M  CHG  1  25   1
M  END
>  <UniqueID>  (13) 
12

>  <SMILES>  (13) 
COc1cc(/C=C\C(=O)/C=C/c2cc(OC)c(OCc3n[nH+]c(-c4ccccc4)o3)c(OC)c2)cc(OC)c1OC

>  <Energy>  (13) 
127.48264497466515

>  <Genealogy>  (13) 
COc1cc(C=CC(=O)C=Cc2cc(OC)c(OCc3n[nH+]c(-c4ccccc4)o3)c(OC)c2)cc(OC)c1OC (protonated)
COc1cc(/C=C\C(=O)/C=C/c2cc(OC)c(OCc3n[nH+]c(-c4ccccc4)o3)c(OC)c2)cc(OC)c1OC (cis-trans isomerization)
COc1cc(/C=C\C(=O)/C=C/c2cc(OC)c(OCc3n[nH+]c(-c4ccccc4)o3)c(OC)c2)cc(OC)c1OC (3D coordinates assigned)
COc1cc(/C=C\C(=O)/C=C/c2cc(OC)c(OCc3n[nH+]c(-c4ccccc4)o3)c(OC)c2)cc(OC)c1OC (optimized conformer: 127.48264497466515 kcal/mol)

>  <smiles>  (13) 
COc1cc(C=CC(=O)C=Cc2cc(OC)c(OCc3nnc(-c4ccccc4)o3)c(OC)c2)cc(OC)c1OC

>  <score_type>  (13) 
oracle

>  <origin>  (13) 
adg

>  <m_score__min__energy>  (13) 
-9.4399999999999995

>  <m_primary>  (13) 
energy

$$$$
13:0
     RDKit          3D

 43 45  0  0  0  0  0  0  0  0999 V2000
   -0.3140   21.0430  -32.5980 C   0  0  0  0  0  0  0  0  0  0  0  0
   -1.6030   21.6320  -32.7330 O   0  0  0  0  0  0  0  0  0  0  0  0
   -2.7840   20.9120  -32.9660 C   0  0  0  0  0  0  0  0  0  0  0  0
   -2.7860   19.6490  -33.5860 C   0  0  0  0  0  0  0  0  0  0  0  0
   -3.9900   18.9720  -33.7990 C   0  0  0  0  0  0  0  0  0  0  0  0
   -5.1980   19.5450  -33.4000 C   0  0  0  0  0  0  0  0  0  0  0  0
   -5.2140   20.8070  -32.7830 C   0  0  0  0  0  0  0  0  0  0  0  0
   -6.4940   21.4230  -32.3650 C   0  0  0  0  0  0  0  0  0  0  0  0
   -7.6570   20.6340  -32.3110 C   0  0  0  0  0  0  0  0  0  0  0  0
   -8.8830   21.2010  -31.9550 C   0  0  0  0  0  0  0  0  0  0  0  0
   -8.9640   22.5610  -31.6550 C   0  0  0  0  0  0  0  0  0  0  0  0
   -7.8170   23.3550  -31.6970 C   0  0  0  0  0  0  0  0  0  0  0  0
   -6.5790   22.7940  -32.0330 C   0  0  0  0  0  0  0  0  0  0  0  0
   -5.4470   23.6090  -31.9990 O   0  0  0  0  0  0  0  0  0  0  0  0
   -4.9560   24.3750  -30.5520 S   0  0  0  0  0  0  0  0  0  0  0  0
   -6.1690   24.6860  -29.7220 O   0  0  0  0  0  0  0  0  0  0  0  0
   -4.2440   25.6610  -30.8600 O   0  0  0  0  0  0  0  0  0  0  0  0
   -3.8800   23.3010  -29.6640 C   0  0  0  0  0  0  0  0  0  0  0  0
   -2.5870   23.0520  -30.1470 C   0  0  0  0  0  0  0  0  0  0  0  0
   -1.7450   22.1630  -29.4740 C   0  0  0  0  0  0  0  0  0  0  0  0
   -2.1910   21.5030  -28.3190 C   0  0  0  0  0  0  0  0  0  0  0  0
   -1.2730   20.5740  -27.5820 C   0  0  0  0  0  0  0  0  0  0  0  0
   -3.4810   21.7620  -27.8310 C   0  0  0  0  0  0  0  0  0  0  0  0
   -4.3240   22.6510  -28.5070 C   0  0  0  0  0  0  0  0  0  0  0  0
   -3.9990   21.4790  -32.5640 C   0  0  0  0  0  0  0  0  0  0  0  0
   -0.0715   20.9322  -31.5308 H   0  0  0  0  0  0  0  0  0  0  0  0
   -0.3106   20.0540  -33.0794 H   0  0  0  0  0  0  0  0  0  0  0  0
    0.4360   21.6878  -33.0794 H   0  0  0  0  0  0  0  0  0  0  0  0
   -1.8369   19.1929  -33.9041 H   0  0  0  0  0  0  0  0  0  0  0  0
   -3.9852   17.9841  -34.2828 H   0  0  0  0  0  0  0  0  0  0  0  0
   -6.1420   19.0062  -33.5693 H   0  0  0  0  0  0  0  0  0  0  0  0
   -7.6007   19.5620  -32.5510 H   0  0  0  0  0  0  0  0  0  0  0  0
   -9.7859   20.5742  -31.9111 H   0  0  0  0  0  0  0  0  0  0  0  0
   -9.9323   23.0078  -31.3852 H   0  0  0  0  0  0  0  0  0  0  0  0
   -7.8860   24.4280  -31.4647 H   0  0  0  0  0  0  0  0  0  0  0  0
   -2.2349   23.5579  -31.0581 H   0  0  0  0  0  0  0  0  0  0  0  0
   -0.7281   21.9798  -29.8513 H   0  0  0  0  0  0  0  0  0  0  0  0
   -1.4068   20.7094  -26.4986 H   0  0  0  0  0  0  0  0  0  0  0  0
   -1.5083   19.5343  -27.8534 H   0  0  0  0  0  0  0  0  0  0  0  0
   -0.2306   20.7969  -27.8534 H   0  0  0  0  0  0  0  0  0  0  0  0
   -3.8305   21.2646  -26.9142 H   0  0  0  0  0  0  0  0  0  0  0  0
   -5.3392   22.8396  -28.1277 H   0  0  0  0  0  0  0  0  0  0  0  0
   -4.0030   22.4622  -32.0708 H   0  0  0  0  0  0  0  0  0  0  0  0
  1  2  1  0
  2  3  1  0
  3  4  2  0
  4  5  1  0
  5  6  2  0
  6  7  1  0
  7  8  1  0
  8  9  2  0
  9 10  1  0
 10 11  2  0
 11 12  1  0
 12 13  2  0
 13 14  1  0
 14 15  1  0
 15 16  2  0
 15 17  2  0
 15 18  1  0
 18 19  2  0
 19 20  1  0
 20 21  2  0
 21 22  1  0
 21 23  1  0
 23 24  2  0
  7 25  2  0
 25  3  1  0
 13  8  1  0
 24 18  1  0
  1 26  1  0
  1 27  1  0
  1 28  1  0
  4 29  1  0
  5 30  1  0
  6 31  1  0
  9 32  1  0
 10 33  1  0
 11 34  1  0
 12 35  1  0
 19 36  1  0
 20 37  1  0
 22 38  1  0
 22 39  1  0
 22 40  1  0
 23 41  1  0
 24 42  1  0
 25 43  1  0
M  END
>  <UniqueID>  (14) 
13

>  <SMILES>  (14) 
COc1cccc(-c2ccccc2OS(=O)(=O)c2ccc(C)cc2)c1

>  <Energy>  (14) 
54.5501141353289

>  <Genealogy>  (14) 
COc1cccc(-c2ccccc2OS(=O)(=O)c2ccc(C)cc2)c1 (3D coordinates assigned)
COc1cccc(-c2ccccc2OS(=O)(=O)c2ccc(C)cc2)c1 (optimized conformer: 54.5501141353289 kcal/mol)

>  <smiles>  (14) 
COc1cccc(-c2ccccc2OS(=O)(=O)c2ccc(C)cc2)c1

>  <score_type>  (14) 
oracle

>  <origin>  (14) 
adg

>  <m_score__min__energy>  (14) 
-8.8300000000000001

>  <m_primary>  (14) 
energy

$$$$
14:0
     RDKit          3D

 54 56  0  0  0  0  0  0  0  0999 V2000
   -2.3760   22.2980  -31.4480 C   0  0  0  0  0  0  0  0  0  0  0  0
   -3.8150   22.0170  -31.7740 C   0  0  0  0  0  0  0  0  0  0  0  0
   -4.1860   20.7430  -32.2280 C   0  0  0  0  0  0  0  0  0  0  0  0
   -5.5240   20.4450  -32.5260 C   0  0  0  0  0  0  0  0  0  0  0  0
   -5.9080   19.0920  -33.0030 C   0  0  0  0  0  0  0  0  0  0  0  0
   -5.3070   18.5390  -34.1480 C   0  0  0  0  0  0  0  0  0  0  0  0
   -5.6710   17.2650  -34.5960 C   0  0  0  0  0  0  0  0  0  0  0  0
   -6.6380   16.5290  -33.9060 C   0  0  0  0  0  0  0  0  0  0  0  0
   -7.0940   14.9310  -34.4680 Cl  0  0  0  0  0  0  0  0  0  0  0  0
   -7.2420   17.0680  -32.7670 C   0  0  0  0  0  0  0  0  0  0  0  0
   -6.8820   18.3430  -32.3170 C   0  0  0  0  0  0  0  0  0  0  0  0
   -6.4940   21.4490  -32.3790 C   0  0  0  0  0  0  0  0  0  0  0  0
   -6.1430   22.7310  -31.9290 C   0  0  0  0  0  0  0  0  0  0  0  0
   -7.2140   23.7840  -31.8440 C   0  0  0  0  0  0  0  0  0  0  0  0
   -4.8020   23.0030  -31.5720 C   0  0  0  0  0  0  0  0  0  0  0  0
   -4.4300   24.2500  -31.0510 O   0  0  0  0  0  0  0  0  0  0  0  0
   -4.8730   24.7220  -29.7790 C   0  0  0  0  0  0  0  0  0  0  0  0
   -4.9850   23.5680  -28.7770 C   0  0  0  0  0  0  0  0  0  0  0  0
   -4.2290   23.8250  -27.4620 C   0  0  0  0  0  0  0  0  0  0  0  0
   -2.7380   23.9870  -27.6750 C   0  0  0  0  0  0  0  0  0  0  0  0
   -2.1600   25.2500  -27.4760 C   0  0  0  0  0  0  0  0  0  0  0  0
   -0.7830   25.4400  -27.6360 C   0  0  0  0  0  0  0  0  0  0  0  0
   -0.1730   26.7980  -27.4230 C   0  0  0  0  0  0  0  0  0  0  0  0
    0.0090   24.3470  -28.0170 C   0  0  0  0  0  0  0  0  0  0  0  0
    1.2510   24.4900  -28.1820 O   0  0  0  0  0  0  0  0  0  0  0  0
   -0.5590   23.1260  -28.2150 N   0  0  0  0  0  0  0  0  0  0  0  0
   -1.8990   22.9100  -28.0490 C   0  0  0  0  0  0  0  0  0  0  0  0
   -2.4570   21.5380  -28.3290 C   0  0  0  0  0  0  0  0  0  0  0  0
   -2.2456   22.3235  -30.3560 H   0  0  0  0  0  0  0  0  0  0  0  0
   -1.7421   21.5067  -31.8746 H   0  0  0  0  0  0  0  0  0  0  0  0
   -2.0864   23.2697  -31.8746 H   0  0  0  0  0  0  0  0  0  0  0  0
   -3.4169   19.9664  -32.3522 H   0  0  0  0  0  0  0  0  0  0  0  0
   -4.5448   19.1129  -34.6954 H   0  0  0  0  0  0  0  0  0  0  0  0
   -5.1953   16.8417  -35.4930 H   0  0  0  0  0  0  0  0  0  0  0  0
   -8.0023   16.4885  -32.2228 H   0  0  0  0  0  0  0  0  0  0  0  0
   -7.3634   18.7625  -31.4213 H   0  0  0  0  0  0  0  0  0  0  0  0
   -7.5442   21.2277  -32.6200 H   0  0  0  0  0  0  0  0  0  0  0  0
   -7.4333   23.9996  -30.7878 H   0  0  0  0  0  0  0  0  0  0  0  0
   -6.8663   24.7016  -32.3410 H   0  0  0  0  0  0  0  0  0  0  0  0
   -8.1256   23.4208  -32.3410 H   0  0  0  0  0  0  0  0  0  0  0  0
   -4.1528   25.4611  -29.3982 H   0  0  0  0  0  0  0  0  0  0  0  0
   -5.8656   25.1803  -29.9001 H   0  0  0  0  0  0  0  0  0  0  0  0
   -6.0483   23.4114  -28.5430 H   0  0  0  0  0  0  0  0  0  0  0  0
   -4.5281   22.6845  -29.2469 H   0  0  0  0  0  0  0  0  0  0  0  0
   -4.6220   24.7438  -27.0024 H   0  0  0  0  0  0  0  0  0  0  0  0
   -4.3818   22.9514  -26.8112 H   0  0  0  0  0  0  0  0  0  0  0  0
   -2.7967   26.1005  -27.1909 H   0  0  0  0  0  0  0  0  0  0  0  0
   -0.0845   26.9951  -26.3444 H   0  0  0  0  0  0  0  0  0  0  0  0
    0.8251   26.8281  -27.8844 H   0  0  0  0  0  0  0  0  0  0  0  0
   -0.8135   27.5641  -27.8844 H   0  0  0  0  0  0  0  0  0  0  0  0
    0.0580   22.3350  -28.5070 H   0  0  0  0  0  0  0  0  0  0  0  0
   -2.6653   21.0258  -27.3781 H   0  0  0  0  0  0  0  0  0  0  0  0
   -3.3884   21.6319  -28.9066 H   0  0  0  0  0  0  0  0  0  0  0  0
   -1.7245   20.9551  -28.9066 H   0  0  0  0  0  0  0  0  0  0  0  0
  1  2  1  0
  2  3  2  0
  3  4  1  0
  4  5  1  0
  5  6  2  0
  6  7  1  0
  7  8  2  0
  8  9  1  0
  8 10  1  0
 10 11  2  0
  4 12  2  0
 12 13  1  0
 13 14  1  0
 13 15  2  0
 15 16  1  0
 16 17  1  0
 17 18  1  0
 18 19  1  0
 19 20  1  0
 20 21  1  0
 21 22  2  0
 22 23  1  0
 22 24  1  0
 24 25  2  0
 24 26  1  0
 26 27  1  0
 27 28  1  0
 15  2  1  0
 27 20  2  0
 11  5  1  0
  1 29  1  0
  1 30  1  0
  1 31  1  0
  3 32  1  0
  6 33  1  0
  7 34  1  0
 10 35  1  0
 11 36  1  0
 12 37  1  0
 14 38  1  0
 14 39  1  0
 14 40  1  0
 17 41  1  0
 17 42  1  0
 18 43  1  0
 18 44  1  0
 19 45  1  0
 19 46  1  0
 21 47  1  0
 23 48  1  0
 23 49  1  0
 23 50  1  0
 26 51  1  0
 28 52  1  0
 28 53  1  0
 28 54  1  0
M  END
>  <UniqueID>  (15) 
14

>  <SMILES>  (15) 
Cc1cc(-c2ccc(Cl)cc2)cc(C)c1OCCCc1cc(C)c(=O)[nH]c1C

>  <Energy>  (15) 
64.89473011692054

>  <Genealogy>  (15) 
Cc1cc(-c2ccc(Cl)cc2)cc(C)c1OCCCc1cc(C)c(=O)[nH]c1C (3D coordinates assigned)
Cc1cc(-c2ccc(Cl)cc2)cc(C)c1OCCCc1cc(C)c(=O)[nH]c1C (optimized conformer: 64.89473011692054 kcal/mol)

>  <smiles>  (15) 
Cc1cc(-c2ccc(Cl)cc2)cc(C)c1OCCCc1cc(C)c(=O)[nH]c1C

>  <score_type>  (15) 
oracle

>  <origin>  (15) 
adg

>  <m_score__min__energy>  (15) 
-9.6999999999999993

>  <m_primary>  (15) 
energy

$$$$
15:0
     RDKit          3D

 39 41  0  0  0  0  0  0  0  0999 V2000
   -0.1030   24.5420  -29.0500 O   0  0  0  0  0  0  0  0  0  0  0  0
   -1.0330   24.9080  -28.2820 C   0  0  0  0  0  0  0  0  0  0  0  0
   -2.2890   25.3030  -28.8530 N   0  0  0  0  0  0  0  0  0  0  0  0
   -3.5180   24.5120  -28.7970 C   0  0  2  0  0  0  0  0  0  0  0  0
   -3.1730   23.0270  -28.5760 C   0  0  0  0  0  0  0  0  0  0  0  0
   -2.8050   22.3690  -29.8720 C   0  0  0  0  0  0  0  0  0  0  0  0
   -1.5520   22.3840  -30.4730 C   0  0  0  0  0  0  0  0  0  0  0  0
   -1.5270   21.7220  -31.7060 C   0  0  0  0  0  0  0  0  0  0  0  0
   -2.7530   21.1850  -32.0800 C   0  0  0  0  0  0  0  0  0  0  0  0
   -3.8720   21.5370  -30.8770 S   0  0  0  0  0  0  0  0  0  0  0  0
   -4.3300   24.7660  -30.0440 C   0  0  0  0  0  0  0  0  0  0  0  0
   -3.8750   25.5720  -30.9000 O   0  0  0  0  0  0  0  0  0  0  0  0
   -5.5350   24.0550  -30.3490 N   0  0  0  0  0  0  0  0  0  0  0  0
   -6.4930   23.1190  -29.7230 C   0  0  0  0  0  0  0  0  0  0  0  0
   -7.4270   23.0430  -30.8870 C   0  0  0  0  0  0  0  0  0  0  0  0
   -6.4590   24.0050  -31.4960 C   0  0  0  0  0  0  0  0  0  0  0  0
   -0.8060   24.8950  -26.8220 C   0  0  0  0  0  0  0  0  0  0  0  0
   -0.2920   23.7530  -26.1860 C   0  0  0  0  0  0  0  0  0  0  0  0
   -0.0630   23.7740  -24.8090 C   0  0  0  0  0  0  0  0  0  0  0  0
   -0.3320   24.8970  -24.0890 N   0  0  0  0  0  0  0  0  0  0  0  0
   -0.8080   26.0260  -24.6850 C   0  0  0  0  0  0  0  0  0  0  0  0
   -1.0430   26.0480  -26.0630 C   0  0  0  0  0  0  0  0  0  0  0  0
   -4.1417   24.8141  -27.9428 H   0  0  0  0  0  0  0  0  0  0  0  0
   -2.3243   22.9533  -27.8800 H   0  0  0  0  0  0  0  0  0  0  0  0
   -4.0544   22.5178  -28.1590 H   0  0  0  0  0  0  0  0  0  0  0  0
   -0.6705   22.8665  -30.0257 H   0  0  0  0  0  0  0  0  0  0  0  0
   -0.6201   21.6348  -32.3224 H   0  0  0  0  0  0  0  0  0  0  0  0
   -2.9560   20.6254  -33.0050 H   0  0  0  0  0  0  0  0  0  0  0  0
   -6.0390   22.1472  -29.4792 H   0  0  0  0  0  0  0  0  0  0  0  0
   -6.9230   23.4163  -28.7551 H   0  0  0  0  0  0  0  0  0  0  0  0
   -7.4947   22.0614  -31.3788 H   0  0  0  0  0  0  0  0  0  0  0  0
   -8.5106   23.2199  -30.8193 H   0  0  0  0  0  0  0  0  0  0  0  0
   -5.9839   23.6089  -32.4056 H   0  0  0  0  0  0  0  0  0  0  0  0
   -6.8654   24.9636  -31.8507 H   0  0  0  0  0  0  0  0  0  0  0  0
   -0.0711   22.8471  -26.7696 H   0  0  0  0  0  0  0  0  0  0  0  0
    0.3356   22.8811  -24.3051 H   0  0  0  0  0  0  0  0  0  0  0  0
   -0.1640   24.8960  -23.0580 H   0  0  0  0  0  0  0  0  0  0  0  0
   -1.0080   26.9228  -24.0802 H   0  0  0  0  0  0  0  0  0  0  0  0
   -1.4114   26.9642  -26.5476 H   0  0  0  0  0  0  0  0  0  0  0  0
  1  2  2  0
  2  3  1  0
  3  4  1  0
  4  5  1  0
  5  6  1  0
  6  7  2  0
  7  8  1  0
  8  9  2  0
  9 10  1  0
  4 11  1  0
 11 12  2  0
 11 13  1  0
 13 14  1  0
 14 15  1  0
 15 16  1  0
  2 17  1  0
 17 18  2  0
 18 19  1  0
 19 20  2  0
 20 21  1  0
 21 22  2  0
 10  6  1  0
 16 13  1  0
 22 17  1  0
  4 23  1  1
  5 24  1  0
  5 25  1  0
  7 26  1  0
  8 27  1  0
  9 28  1  0
 14 29  1  0
 14 30  1  0
 15 31  1  0
 15 32  1  0
 16 33  1  0
 16 34  1  0
 18 35  1  0
 19 36  1  0
 20 37  1  0
 21 38  1  0
 22 39  1  0
M  CHG  2   3  -1  20   1
M  END
>  <UniqueID>  (16) 
15

>  <SMILES>  (16) 
O=C([N-][C@H](Cc1cccs1)C(=O)N1CCC1)c1cc[nH+]cc1

>  <Energy>  (16) 
111.38030145611658

>  <Genealogy>  (16) 
O=C([N-]C(Cc1cccs1)C(=O)N1CCC1)c1cc[nH+]cc1 (protonated)
O=C([N-][C@H](Cc1cccs1)C(=O)N1CCC1)c1cc[nH+]cc1 (chirality)
O=C([N-][C@H](Cc1cccs1)C(=O)N1CCC1)c1cc[nH+]cc1 (3D coordinates assigned)
O=C([N-][C@H](Cc1cccs1)C(=O)N1CCC1)c1cc[nH+]cc1 (nonaromatic ring conformer: 111.38030145611658 kcal/mol)

>  <smiles>  (16) 
O=C(NC(Cc1cccs1)C(=O)N1CCC1)c1ccncc1

>  <score_type>  (16) 
oracle

>  <origin>  (16) 
adg

>  <m_score__min__energy>  (16) 
-9.6400000000000006

>  <m_primary>  (16) 
energy

$$$$
16:0
     RDKit          3D

 41 43  0  0  0  0  0  0  0  0999 V2000
   -4.1810   24.5470  -27.4370 C   0  0  0  0  0  0  0  0  0  0  0  0
   -3.4510   23.6140  -28.3640 C   0  0  0  0  0  0  0  0  0  0  0  0
   -3.0030   22.3670  -27.8960 C   0  0  0  0  0  0  0  0  0  0  0  0
   -2.3260   21.4930  -28.7500 C   0  0  0  0  0  0  0  0  0  0  0  0
   -2.0970   21.8520  -30.0800 C   0  0  0  0  0  0  0  0  0  0  0  0
   -1.4600   20.9930  -30.9130 F   0  0  0  0  0  0  0  0  0  0  0  0
   -2.5350   23.0900  -30.5560 C   0  0  0  0  0  0  0  0  0  0  0  0
   -3.1890   23.9900  -29.6980 C   0  0  0  0  0  0  0  0  0  0  0  0
   -3.6710   25.2470  -30.1930 N   0  0  0  0  0  0  0  0  0  0  0  0
   -5.0430   25.5830  -30.4290 C   0  0  0  0  0  0  0  0  0  0  0  0
   -5.3750   26.7980  -30.4350 O   0  0  0  0  0  0  0  0  0  0  0  0
   -6.0550   24.5320  -30.8070 C   0  0  0  0  0  0  0  0  0  0  0  0
   -5.7170   23.8980  -32.0420 O   0  0  0  0  0  0  0  0  0  0  0  0
   -5.8170   22.5210  -32.3000 C   0  0  0  0  0  0  0  0  0  0  0  0
   -4.6680   21.8390  -32.7090 C   0  0  0  0  0  0  0  0  0  0  0  0
   -4.7100   20.4680  -32.9800 C   0  0  0  0  0  0  0  0  0  0  0  0
   -5.9110   19.7490  -32.8410 C   0  0  0  0  0  0  0  0  0  0  0  0
   -5.9720   18.2930  -33.1250 C   0  0  0  0  0  0  0  0  0  0  0  0
   -5.5510   17.4060  -32.2900 N   0  0  0  0  0  0  0  0  0  0  0  0
   -5.7360   16.0710  -32.8420 C   0  0  0  0  0  0  0  0  0  0  0  0
   -6.3550   16.2940  -34.2280 C   0  0  0  0  0  0  0  0  0  0  0  0
   -6.4820   17.7340  -34.3250 N   0  0  0  0  0  0  0  0  0  0  0  0
   -7.0680   20.4390  -32.4340 C   0  0  0  0  0  0  0  0  0  0  0  0
   -7.0230   21.8090  -32.1640 C   0  0  0  0  0  0  0  0  0  0  0  0
   -3.9651   24.2711  -26.3943 H   0  0  0  0  0  0  0  0  0  0  0  0
   -3.8485   25.5796  -27.6194 H   0  0  0  0  0  0  0  0  0  0  0  0
   -5.2632   24.4727  -27.6194 H   0  0  0  0  0  0  0  0  0  0  0  0
   -3.1865   22.0773  -26.8508 H   0  0  0  0  0  0  0  0  0  0  0  0
   -1.9730   20.5212  -28.3745 H   0  0  0  0  0  0  0  0  0  0  0  0
   -2.3669   23.3618  -31.6086 H   0  0  0  0  0  0  0  0  0  0  0  0
   -6.0931   23.7711  -30.0136 H   0  0  0  0  0  0  0  0  0  0  0  0
   -7.0323   25.0223  -30.9275 H   0  0  0  0  0  0  0  0  0  0  0  0
   -3.7203   22.3866  -32.8189 H   0  0  0  0  0  0  0  0  0  0  0  0
   -3.7968   19.9476  -33.3044 H   0  0  0  0  0  0  0  0  0  0  0  0
   -4.7701   15.5520  -32.9294 H   0  0  0  0  0  0  0  0  0  0  0  0
   -6.3744   15.4449  -32.2013 H   0  0  0  0  0  0  0  0  0  0  0  0
   -5.6960   15.9051  -35.0182 H   0  0  0  0  0  0  0  0  0  0  0  0
   -7.3163   15.7739  -34.3521 H   0  0  0  0  0  0  0  0  0  0  0  0
   -6.8210   18.2460  -35.1670 H   0  0  0  0  0  0  0  0  0  0  0  0
   -8.0176   19.8941  -32.3274 H   0  0  0  0  0  0  0  0  0  0  0  0
   -7.9351   22.3338  -31.8434 H   0  0  0  0  0  0  0  0  0  0  0  0
  1  2  1  0
  2  3  2  0
  3  4  1  0
  4  5  2  0
  5  6  1  0
  5  7  1  0
  7  8  2  0
  8  9  1  0
  9 10  1  0
 10 11  2  0
 10 12  1  0
 12 13  1  0
 13 14  1  0
 14 15  2  0
 15 16  1  0
 16 17  2  0
 17 18  1  0
 18 19  2  0
 19 20  1  0
 20 21  1  0
 21 22  1  0
 17 23  1  0
 23 24  2  0
  8  2  1  0
 24 14  1  0
 22 18  1  0
  1 25  1  0
  1 26  1  0
  1 27  1  0
  3 28  1  0
  4 29  1  0
  7 30  1  0
 12 31  1  0
 12 32  1  0
 15 33  1  0
 16 34  1  0
 20 35  1  0
 20 36  1  0
 21 37  1  0
 21 38  1  0
 22 39  1  0
 23 40  1  0
 24 41  1  0
M  CHG  1   9  -1
M  END
>  <UniqueID>  (17) 
16

>  <SMILES>  (17) 
Cc1ccc(F)cc1[N-]C(=O)COc1ccc(C2=NCCN2)cc1

>  <Energy>  (17) 
61.80930694026714

>  <Genealogy>  (17) 
Cc1ccc(F)cc1[N-]C(=O)COc1ccc(C2=NCCN2)cc1 (protonated)
Cc1ccc(F)cc1[N-]C(=O)COc1ccc(C2=NCCN2)cc1 (3D coordinates assigned)
Cc1ccc(F)cc1[N-]C(=O)COc1ccc(C2=NCCN2)cc1 (nonaromatic ring conformer: 61.80930694026714 kcal/mol)

>  <smiles>  (17) 
Cc1ccc(F)cc1NC(=O)COc1ccc(C2=NCCN2)cc1

>  <score_type>  (17) 
oracle

>  <origin>  (17) 
adg

>  <m_score__min__energy>  (17) 
-8.8499999999999996

>  <m_primary>  (17) 
energy

$$$$
17:0
     RDKit          3D

 31 33  0  0  0  0  0  0  0  0999 V2000
   -5.3560   25.5500  -30.4650 C   0  0  0  0  0  0  0  0  0  0  0  0
   -4.1180   24.8520  -30.4800 O   0  0  0  0  0  0  0  0  0  0  0  0
   -3.9640   23.5710  -29.9380 C   0  0  0  0  0  0  0  0  0  0  0  0
   -4.5790   23.2570  -28.8810 O   0  0  0  0  0  0  0  0  0  0  0  0
   -3.1080   22.5690  -30.6190 C   0  0  0  0  0  0  0  0  0  0  0  0
   -1.7090   22.6820  -30.5010 C   0  0  0  0  0  0  0  0  0  0  0  0
   -0.8660   21.7210  -31.0600 C   0  0  0  0  0  0  0  0  0  0  0  0
   -1.4010   20.6330  -31.7460 C   0  0  0  0  0  0  0  0  0  0  0  0
   -2.7840   20.5090  -31.8900 C   0  0  0  0  0  0  0  0  0  0  0  0
   -3.6500   21.4740  -31.3470 C   0  0  0  0  0  0  0  0  0  0  0  0
   -5.1000   21.3360  -31.6100 C   0  0  0  0  0  0  0  0  0  0  0  0
   -5.8910   22.4830  -31.8610 C   0  0  0  0  0  0  0  0  0  0  0  0
   -7.2680   22.3630  -32.1100 C   0  0  0  0  0  0  0  0  0  0  0  0
   -8.0190   23.4680  -32.3400 F   0  0  0  0  0  0  0  0  0  0  0  0
   -7.8430   21.0890  -32.1180 C   0  0  0  0  0  0  0  0  0  0  0  0
   -9.1910   20.7880  -32.3460 C   0  0  0  0  0  0  0  0  0  0  0  0
   -9.4550   19.4210  -32.2900 C   0  0  0  0  0  0  0  0  0  0  0  0
   -8.0170   18.5940  -31.9580 S   0  0  0  0  0  0  0  0  0  0  0  0
   -7.0610   19.9700  -31.8860 C   0  0  0  0  0  0  0  0  0  0  0  0
   -5.6950   20.0590  -31.6350 C   0  0  0  0  0  0  0  0  0  0  0  0
   -5.6658   25.7247  -29.4241 H   0  0  0  0  0  0  0  0  0  0  0  0
   -5.2390   26.5151  -30.9796 H   0  0  0  0  0  0  0  0  0  0  0  0
   -6.1213   24.9504  -30.9796 H   0  0  0  0  0  0  0  0  0  0  0  0
   -1.2761   23.5376  -29.9620 H   0  0  0  0  0  0  0  0  0  0  0  0
    0.2246   21.8228  -30.9587 H   0  0  0  0  0  0  0  0  0  0  0  0
   -0.7333   19.8711  -32.1745 H   0  0  0  0  0  0  0  0  0  0  0  0
   -3.2001   19.6479  -32.4336 H   0  0  0  0  0  0  0  0  0  0  0  0
   -5.4224   23.4782  -31.8610 H   0  0  0  0  0  0  0  0  0  0  0  0
   -9.9593   21.5489  -32.5477 H   0  0  0  0  0  0  0  0  0  0  0  0
  -10.4401   18.9545  -32.4379 H   0  0  0  0  0  0  0  0  0  0  0  0
   -5.0943   19.1542  -31.4603 H   0  0  0  0  0  0  0  0  0  0  0  0
  1  2  1  0
  2  3  1  0
  3  4  2  0
  3  5  1  0
  5  6  2  0
  6  7  1  0
  7  8  2  0
  8  9  1  0
  9 10  2  0
 10 11  1  0
 11 12  2  0
 12 13  1  0
 13 14  1  0
 13 15  2  0
 15 16  1  0
 16 17  2  0
 17 18  1  0
 18 19  1  0
 19 20  2  0
 10  5  1  0
 20 11  1  0
 19 15  1  0
  1 21  1  0
  1 22  1  0
  1 23  1  0
  6 24  1  0
  7 25  1  0
  8 26  1  0
  9 27  1  0
 12 28  1  0
 16 29  1  0
 17 30  1  0
 20 31  1  0
M  END
>  <UniqueID>  (18) 
17

>  <SMILES>  (18) 
COC(=O)c1ccccc1-c1cc(F)c2ccsc2c1

>  <Energy>  (18) 
72.25552048593269

>  <Genealogy>  (18) 
COC(=O)c1ccccc1-c1cc(F)c2ccsc2c1 (3D coordinates assigned)
COC(=O)c1ccccc1-c1cc(F)c2ccsc2c1 (optimized conformer: 72.25552048593269 kcal/mol)

>  <smiles>  (18) 
COC(=O)c1ccccc1-c1cc(F)c2ccsc2c1

>  <score_type>  (18) 
oracle

>  <origin>  (18) 
adg

>  <m_score__min__energy>  (18) 
-7.1900000000000004

>  <m_primary>  (18) 
energy

$$$$
18:0
     RDKit          3D

 50 53  0  0  0  0  0  0  0  0999 V2000
   -5.2140   18.8950  -34.2080 C   0  0  0  0  0  0  0  0  0  0  0  0
   -3.8050   19.0690  -33.6410 C   0  0  0  0  0  0  0  0  0  0  0  0
   -3.7590   20.0650  -32.4710 C   0  0  0  0  0  0  0  0  0  0  0  0
   -3.5910   21.5310  -32.9110 C   0  0  0  0  0  0  0  0  0  0  0  0
   -4.0220   22.4620  -31.8580 N   0  0  0  0  0  0  0  0  0  0  0  0
   -5.2500   23.0460  -31.7220 C   0  0  0  0  0  0  0  0  0  0  0  0
   -6.3280   22.9190  -32.6700 N   0  0  0  0  0  0  0  0  0  0  0  0
   -7.5860   22.6350  -31.9680 C   0  0  0  0  0  0  0  0  0  0  0  0
   -7.8850   21.1600  -32.0060 C   0  0  0  0  0  0  0  0  0  0  0  0
   -9.1700   20.7030  -32.3400 C   0  0  0  0  0  0  0  0  0  0  0  0
   -9.4530   19.3330  -32.3340 C   0  0  0  0  0  0  0  0  0  0  0  0
   -8.4620   18.4140  -31.9820 C   0  0  0  0  0  0  0  0  0  0  0  0
   -7.1850   18.8620  -31.6320 C   0  0  0  0  0  0  0  0  0  0  0  0
   -6.8970   20.2310  -31.6380 C   0  0  0  0  0  0  0  0  0  0  0  0
   -5.2790   23.8770  -30.6040 C   0  0  0  0  0  0  0  0  0  0  0  0
   -6.3630   24.7090  -30.1510 C   0  0  0  0  0  0  0  0  0  0  0  0
   -7.2340   25.3790  -29.7890 N   0  0  0  0  0  0  0  0  0  0  0  0
   -4.0290   23.7740  -30.0480 C   0  0  0  0  0  0  0  0  0  0  0  0
   -3.5330   24.3950  -28.9560 N   0  0  0  0  0  0  0  0  0  0  0  0
   -2.2380   24.1590  -28.5990 C   0  0  0  0  0  0  0  0  0  0  0  0
   -1.7230   24.7960  -27.4650 C   0  0  0  0  0  0  0  0  0  0  0  0
   -0.4030   24.5690  -27.0870 C   0  0  0  0  0  0  0  0  0  0  0  0
    0.3950   23.7130  -27.8400 C   0  0  0  0  0  0  0  0  0  0  0  0
   -0.1370   23.0870  -28.9700 C   0  0  0  0  0  0  0  0  0  0  0  0
   -1.4380   23.3050  -29.3480 N   0  0  0  0  0  0  0  0  0  0  0  0
   -1.9520   22.6830  -30.4690 C   0  0  0  0  0  0  0  0  0  0  0  0
   -1.2370   21.9200  -31.1730 O   0  0  0  0  0  0  0  0  0  0  0  0
   -3.2880   22.9250  -30.8130 C   0  0  0  0  0  0  0  0  0  0  0  0
   -5.9337   18.8061  -33.3809 H   0  0  0  0  0  0  0  0  0  0  0  0
   -5.4712   19.7682  -34.8256 H   0  0  0  0  0  0  0  0  0  0  0  0
   -5.2510   17.9855  -34.8256 H   0  0  0  0  0  0  0  0  0  0  0  0
   -3.4444   18.0920  -33.2867 H   0  0  0  0  0  0  0  0  0  0  0  0
   -3.1688   19.4684  -34.4446 H   0  0  0  0  0  0  0  0  0  0  0  0
   -4.6977   19.9782  -31.9041 H   0  0  0  0  0  0  0  0  0  0  0  0
   -2.8772   19.8085  -31.8655 H   0  0  0  0  0  0  0  0  0  0  0  0
   -2.5312   21.7163  -33.1401 H   0  0  0  0  0  0  0  0  0  0  0  0
   -4.2186   21.6992  -33.7986 H   0  0  0  0  0  0  0  0  0  0  0  0
   -6.4120   23.7930  -33.2320 H   0  0  0  0  0  0  0  0  0  0  0  0
   -6.1150   22.1380  -33.3340 H   0  0  0  0  0  0  0  0  0  0  0  0
   -7.4986   22.9605  -30.9209 H   0  0  0  0  0  0  0  0  0  0  0  0
   -8.4032   23.1783  -32.4650 H   0  0  0  0  0  0  0  0  0  0  0  0
   -9.9564   21.4243  -32.6071 H   0  0  0  0  0  0  0  0  0  0  0  0
  -10.4580   18.9789  -32.6071 H   0  0  0  0  0  0  0  0  0  0  0  0
   -8.6865   17.3372  -31.9802 H   0  0  0  0  0  0  0  0  0  0  0  0
   -6.4061   18.1377  -31.3517 H   0  0  0  0  0  0  0  0  0  0  0  0
   -5.8938   20.5814  -31.3537 H   0  0  0  0  0  0  0  0  0  0  0  0
   -2.3583   25.4730  -26.8750 H   0  0  0  0  0  0  0  0  0  0  0  0
    0.0084   25.0649  -26.1955 H   0  0  0  0  0  0  0  0  0  0  0  0
    1.4394   23.5302  -27.5470 H   0  0  0  0  0  0  0  0  0  0  0  0
    0.4951   22.4107  -29.5643 H   0  0  0  0  0  0  0  0  0  0  0  0
  1  2  1  0
  2  3  1  0
  3  4  1  0
  4  5  1  0
  5  6  1  0
  6  7  1  0
  7  8  1  0
  8  9  1  0
  9 10  2  0
 10 11  1  0
 11 12  2  0
 12 13  1  0
 13 14  2  0
  6 15  2  0
 15 16  1  0
 16 17  3  0
 15 18  1  0
 18 19  1  0
 19 20  2  0
 20 21  1  0
 21 22  2  0
 22 23  1  0
 23 24  2  0
 24 25  1  0
 25 26  1  0
 26 27  2  0
 26 28  1  0
 28  5  1  0
 14  9  1  0
 28 18  2  0
 25 20  1  0
  1 29  1  0
  1 30  1  0
  1 31  1  0
  2 32  1  0
  2 33  1  0
  3 34  1  0
  3 35  1  0
  4 36  1  0
  4 37  1  0
  7 38  1  0
  7 39  1  0
  8 40  1  0
  8 41  1  0
 10 42  1  0
 11 43  1  0
 12 44  1  0
 13 45  1  0
 14 46  1  0
 21 47  1  0
 22 48  1  0
 23 49  1  0
 24 50  1  0
M  CHG  1   7   1
M  END
>  <UniqueID>  (19) 
18

>  <SMILES>  (19) 
CCCCn1c([NH2+]Cc2ccccc2)c(C#N)c2nc3ccccn3c(=O)c21

>  <Energy>  (19) 
90.64736835656757

>  <Genealogy>  (19) 
CCCCn1c([NH2+]Cc2ccccc2)c(C#N)c2nc3ccccn3c(=O)c21 (protonated)
CCCCn1c([NH2+]Cc2ccccc2)c(C#N)c2nc3ccccn3c(=O)c21 (3D coordinates assigned)
CCCCn1c([NH2+]Cc2ccccc2)c(C#N)c2nc3ccccn3c(=O)c21 (optimized conformer: 90.64736835656757 kcal/mol)

>  <smiles>  (19) 
CCCCn1c(NCc2ccccc2)c(C#N)c2nc3ccccn3c(=O)c21

>  <score_type>  (19) 
oracle

>  <origin>  (19) 
adg

>  <m_score__min__energy>  (19) 
-7.9400000000000004

>  <m_primary>  (19) 
energy

$$$$
19:0
     RDKit          3D

 50 52  0  0  0  0  0  0  0  0999 V2000
   -2.5040   20.1630  -33.0620 C   0  0  0  0  0  0  0  0  0  0  0  0
   -3.4120   19.1060  -32.7740 O   0  0  0  0  0  0  0  0  0  0  0  0
   -4.8010   19.2640  -32.6590 C   0  0  0  0  0  0  0  0  0  0  0  0
   -5.5770   18.4950  -31.7690 C   0  0  0  0  0  0  0  0  0  0  0  0
   -6.9600   18.6900  -31.6920 C   0  0  0  0  0  0  0  0  0  0  0  0
   -7.5890   19.6440  -32.5070 C   0  0  0  0  0  0  0  0  0  0  0  0
   -9.0720   19.8740  -32.3990 C   0  0  0  0  0  0  0  0  0  0  0  0
   -9.3900   20.7860  -31.2110 C   0  0  0  0  0  0  0  0  0  0  0  0
   -8.3060   21.7430  -30.9970 N   0  0  0  0  0  0  0  0  0  0  0  0
   -8.2650   23.0200  -31.6520 C   0  0  0  0  0  0  0  0  0  0  0  0
   -9.2170   23.3790  -32.3980 O   0  0  0  0  0  0  0  0  0  0  0  0
   -7.1060   23.9550  -31.4130 C   0  0  1  0  0  0  0  0  0  0  0  0
   -7.1340   24.5230  -29.9860 C   0  0  0  0  0  0  0  0  0  0  0  0
   -5.9650   25.4900  -29.7320 C   0  0  0  0  0  0  0  0  0  0  0  0
   -4.8390   25.3690  -30.7760 C   0  0  0  0  0  0  0  0  0  0  0  0
   -4.5730   23.9720  -31.1740 N   0  0  0  0  0  0  0  0  0  0  0  0
   -3.7340   23.0760  -29.9260 S   0  0  0  0  0  0  0  0  0  0  0  0
   -4.6520   22.8000  -28.7680 O   0  0  0  0  0  0  0  0  0  0  0  0
   -3.2650   21.7640  -30.4860 O   0  0  0  0  0  0  0  0  0  0  0  0
   -2.3300   23.9610  -29.3530 C   0  0  0  0  0  0  0  0  0  0  0  0
   -1.0610   23.4580  -29.2140 C   0  0  0  0  0  0  0  0  0  0  0  0
   -0.2650   24.4260  -28.7290 N   0  0  0  0  0  0  0  0  0  0  0  0
   -1.0870   25.4890  -28.5880 C   0  0  0  0  0  0  0  0  0  0  0  0
   -2.3620   25.2440  -28.9580 N   0  0  0  0  0  0  0  0  0  0  0  0
   -5.7630   23.2380  -31.6790 C   0  0  0  0  0  0  0  0  0  0  0  0
   -6.8130   20.4190  -33.3820 C   0  0  0  0  0  0  0  0  0  0  0  0
   -5.4310   20.2240  -33.4590 C   0  0  0  0  0  0  0  0  0  0  0  0
   -2.1332   20.5946  -32.1206 H   0  0  0  0  0  0  0  0  0  0  0  0
   -1.6571   19.7705  -33.6440 H   0  0  0  0  0  0  0  0  0  0  0  0
   -3.0197   20.9410  -33.6440 H   0  0  0  0  0  0  0  0  0  0  0  0
   -5.0937   17.7390  -31.1328 H   0  0  0  0  0  0  0  0  0  0  0  0
   -7.5581   18.0922  -30.9886 H   0  0  0  0  0  0  0  0  0  0  0  0
   -9.4330   20.3465  -33.3244 H   0  0  0  0  0  0  0  0  0  0  0  0
   -9.5712   18.9057  -32.2467 H   0  0  0  0  0  0  0  0  0  0  0  0
  -10.3219   21.3339  -31.4143 H   0  0  0  0  0  0  0  0  0  0  0  0
   -9.5032   20.1682  -30.3079 H   0  0  0  0  0  0  0  0  0  0  0  0
   -7.5670   21.5050  -30.2980 H   0  0  0  0  0  0  0  0  0  0  0  0
   -7.2028   24.7949  -32.1167 H   0  0  0  0  0  0  0  0  0  0  0  0
   -8.0809   25.0623  -29.8361 H   0  0  0  0  0  0  0  0  0  0  0  0
   -7.0413   23.6828  -29.2821 H   0  0  0  0  0  0  0  0  0  0  0  0
   -6.3521   26.5194  -29.7531 H   0  0  0  0  0  0  0  0  0  0  0  0
   -5.5331   25.2307  -28.7542 H   0  0  0  0  0  0  0  0  0  0  0  0
   -5.1270   25.9403  -31.6708 H   0  0  0  0  0  0  0  0  0  0  0  0
   -3.9198   25.7627  -30.3177 H   0  0  0  0  0  0  0  0  0  0  0  0
   -0.7473   22.4325  -29.4589 H   0  0  0  0  0  0  0  0  0  0  0  0
   -0.7487   26.4639  -28.2070 H   0  0  0  0  0  0  0  0  0  0  0  0
   -5.6516   23.1050  -32.7652 H   0  0  0  0  0  0  0  0  0  0  0  0
   -5.8005   22.2823  -31.1357 H   0  0  0  0  0  0  0  0  0  0  0  0
   -7.2941   21.1832  -34.0100 H   0  0  0  0  0  0  0  0  0  0  0  0
   -4.8331   20.8308  -34.1549 H   0  0  0  0  0  0  0  0  0  0  0  0
  1  2  1  0
  2  3  1  0
  3  4  2  0
  4  5  1  0
  5  6  2  0
  6  7  1  0
  7  8  1  0
  8  9  1  0
  9 10  1  0
 10 11  2  0
 10 12  1  0
 12 13  1  0
 13 14  1  0
 14 15  1  0
 15 16  1  0
 16 17  1  0
 17 18  2  0
 17 19  2  0
 17 20  1  0
 20 21  2  0
 21 22  1  0
 22 23  1  0
 23 24  2  0
 16 25  1  0
  6 26  1  0
 26 27  2  0
 27  3  1  0
 25 12  1  0
 24 20  1  0
  1 28  1  0
  1 29  1  0
  1 30  1  0
  4 31  1  0
  5 32  1  0
  7 33  1  0
  7 34  1  0
  8 35  1  0
  8 36  1  0
  9 37  1  0
 12 38  1  6
 13 39  1  0
 13 40  1  0
 14 41  1  0
 14 42  1  0
 15 43  1  0
 15 44  1  0
 21 45  1  0
 23 46  1  0
 25 47  1  0
 25 48  1  0
 26 49  1  0
 27 50  1  0
M  CHG  1  22  -1
M  END
>  <UniqueID>  (20) 
19

>  <SMILES>  (20) 
COc1ccc(CCNC(=O)[C@H]2CCCN(S(=O)(=O)c3c[n-]cn3)C2)cc1

>  <Energy>  (20) 
80.41599657087477

>  <Genealogy>  (20) 
COc1ccc(CCNC(=O)C2CCCN(S(=O)(=O)c3c[n-]cn3)C2)cc1 (protonated)
COc1ccc(CCNC(=O)[C@H]2CCCN(S(=O)(=O)c3c[n-]cn3)C2)cc1 (chirality)
COc1ccc(CCNC(=O)[C@H]2CCCN(S(=O)(=O)c3c[n-]cn3)C2)cc1 (3D coordinates assigned)
COc1ccc(CCNC(=O)[C@H]2CCCN(S(=O)(=O)c3c[n-]cn3)C2)cc1 (nonaromatic ring conformer: 80.41599657087477 kcal/mol)

>  <smiles>  (20) 
COc1ccc(CCNC(=O)C2CCCN(S(=O)(=O)c3c[nH]cn3)C2)cc1

>  <score_type>  (20) 
oracle

>  <origin>  (20) 
adg

>  <m_score__min__energy>  (20) 
-10.84

>  <m_primary>  (20) 
energy

$$$$
20:0
     RDKit          3D

 27 28  0  0  0  0  0  0  0  0999 V2000
   -5.2390   25.6440  -30.4520 C   0  0  0  0  0  0  0  0  0  0  0  0
   -3.8590   25.3030  -30.5140 O   0  0  0  0  0  0  0  0  0  0  0  0
   -3.3730   24.0450  -30.1410 C   0  0  0  0  0  0  0  0  0  0  0  0
   -2.5790   23.9450  -29.1650 O   0  0  0  0  0  0  0  0  0  0  0  0
   -3.7950   22.8380  -30.8970 C   0  0  0  0  0  0  0  0  0  0  0  0
   -5.1510   22.4770  -30.9290 C   0  0  0  0  0  0  0  0  0  0  0  0
   -5.5580   21.3440  -31.6380 C   0  0  0  0  0  0  0  0  0  0  0  0
   -6.9020   20.9560  -31.6900 C   0  0  0  0  0  0  0  0  0  0  0  0
   -7.2750   19.8140  -32.4090 C   0  0  0  0  0  0  0  0  0  0  0  0
   -9.1200   19.3110  -32.4610 Br  0  0  0  0  0  0  0  0  0  0  0  0
   -6.3080   19.0500  -33.0830 C   0  0  0  0  0  0  0  0  0  0  0  0
   -6.7230   17.9120  -33.7930 O   0  0  0  0  0  0  0  0  0  0  0  0
   -6.3580   16.5770  -33.4610 C   0  0  0  0  0  0  0  0  0  0  0  0
   -4.9560   19.4450  -33.0280 C   0  0  0  0  0  0  0  0  0  0  0  0
   -4.5820   20.5860  -32.3100 C   0  0  0  0  0  0  0  0  0  0  0  0
   -3.3040   20.9480  -32.2630 O   0  0  0  0  0  0  0  0  0  0  0  0
   -2.8800   22.0200  -31.6000 C   0  0  0  0  0  0  0  0  0  0  0  0
   -1.6490   22.2900  -31.6100 O   0  0  0  0  0  0  0  0  0  0  0  0
   -5.5507   25.7210  -29.3999 H   0  0  0  0  0  0  0  0  0  0  0  0
   -5.4011   26.6092  -30.9541 H   0  0  0  0  0  0  0  0  0  0  0  0
   -5.8320   24.8654  -30.9541 H   0  0  0  0  0  0  0  0  0  0  0  0
   -5.8944   23.0871  -30.3950 H   0  0  0  0  0  0  0  0  0  0  0  0
   -7.6658   21.5489  -31.1655 H   0  0  0  0  0  0  0  0  0  0  0  0
   -6.3278   16.4664  -32.3670 H   0  0  0  0  0  0  0  0  0  0  0  0
   -7.0984   15.8795  -33.8797 H   0  0  0  0  0  0  0  0  0  0  0  0
   -5.3657   16.3533  -33.8797 H   0  0  0  0  0  0  0  0  0  0  0  0
   -4.1912   18.8532  -33.5522 H   0  0  0  0  0  0  0  0  0  0  0  0
  1  2  1  0
  2  3  1  0
  3  4  2  0
  3  5  1  0
  5  6  2  0
  6  7  1  0
  7  8  2  0
  8  9  1  0
  9 10  1  0
  9 11  2  0
 11 12  1  0
 12 13  1  0
 11 14  1  0
 14 15  2  0
 15 16  1  0
 16 17  1  0
 17 18  2  0
 17  5  1  0
 15  7  1  0
  1 19  1  0
  1 20  1  0
  1 21  1  0
  6 22  1  0
  8 23  1  0
 13 24  1  0
 13 25  1  0
 13 26  1  0
 14 27  1  0
M  END
>  <UniqueID>  (21) 
20

>  <SMILES>  (21) 
COC(=O)c1cc2cc(Br)c(OC)cc2oc1=O

>  <Energy>  (21) 
31.18305198167963

>  <Genealogy>  (21) 
COC(=O)c1cc2cc(Br)c(OC)cc2oc1=O (3D coordinates assigned)
COC(=O)c1cc2cc(Br)c(OC)cc2oc1=O (optimized conformer: 31.18305198167963 kcal/mol)

>  <smiles>  (21) 
COC(=O)c1cc2cc(Br)c(OC)cc2oc1=O

>  <score_type>  (21) 
oracle

>  <origin>  (21) 
adg

>  <m_score__min__energy>  (21) 
-6.6500000000000004

>  <m_primary>  (21) 
energy

$$$$
21:0
     RDKit          3D

 46 48  0  0  0  0  0  0  0  0999 V2000
   -8.7540   18.9310  -31.6500 C   0  0  0  0  0  0  0  0  0  0  0  0
   -8.4480   19.9810  -32.7140 C   0  0  0  0  0  0  0  0  0  0  0  0
   -7.0030   20.0430  -32.9890 N   0  0  0  0  0  0  0  0  0  0  0  0
   -6.4640   19.3000  -34.1390 C   0  0  0  0  0  0  0  0  0  0  0  0
   -6.1630   17.8510  -33.7650 C   0  0  0  0  0  0  0  0  0  0  0  0
   -6.1200   20.8170  -32.1440 C   0  0  0  0  0  0  0  0  0  0  0  0
   -4.7420   20.5460  -32.1020 C   0  0  0  0  0  0  0  0  0  0  0  0
   -3.8940   21.2900  -31.2760 C   0  0  0  0  0  0  0  0  0  0  0  0
   -4.4040   22.3240  -30.4730 C   0  0  0  0  0  0  0  0  0  0  0  0
   -3.5030   23.1130  -29.5950 C   0  0  0  0  0  0  0  0  0  0  0  0
   -2.1630   23.3310  -29.9610 C   0  0  0  0  0  0  0  0  0  0  0  0
   -1.3110   24.0710  -29.1380 C   0  0  0  0  0  0  0  0  0  0  0  0
   -1.7840   24.6110  -27.9340 C   0  0  0  0  0  0  0  0  0  0  0  0
   -0.9350   25.3570  -27.1030 C   0  0  0  0  0  0  0  0  0  0  0  0
   -1.4090   25.8970  -25.9010 C   0  0  0  0  0  0  0  0  0  0  0  0
   -0.5170   26.6350  -25.1070 O   0  0  0  0  0  0  0  0  0  0  0  0
   -0.4960   26.6070  -23.6830 C   0  0  0  0  0  0  0  0  0  0  0  0
   -2.7500   25.6850  -25.5300 C   0  0  0  0  0  0  0  0  0  0  0  0
   -3.6030   24.9420  -26.3520 C   0  0  0  0  0  0  0  0  0  0  0  0
   -3.1290   24.4010  -27.5560 C   0  0  0  0  0  0  0  0  0  0  0  0
   -3.9790   23.6540  -28.3870 C   0  0  0  0  0  0  0  0  0  0  0  0
   -5.7820   22.5980  -30.5170 C   0  0  0  0  0  0  0  0  0  0  0  0
   -6.6290   21.8550  -31.3420 C   0  0  0  0  0  0  0  0  0  0  0  0
   -8.6252   19.3730  -30.6510 H   0  0  0  0  0  0  0  0  0  0  0  0
   -9.7910   18.5828  -31.7660 H   0  0  0  0  0  0  0  0  0  0  0  0
   -8.0664   18.0802  -31.7660 H   0  0  0  0  0  0  0  0  0  0  0  0
   -8.9804   19.7207  -33.6407 H   0  0  0  0  0  0  0  0  0  0  0  0
   -8.7784   20.9630  -32.3447 H   0  0  0  0  0  0  0  0  0  0  0  0
   -7.2024   19.3146  -34.9542 H   0  0  0  0  0  0  0  0  0  0  0  0
   -5.5271   19.7805  -34.4573 H   0  0  0  0  0  0  0  0  0  0  0  0
   -6.1424   17.7517  -32.6697 H   0  0  0  0  0  0  0  0  0  0  0  0
   -6.9442   17.1959  -34.1779 H   0  0  0  0  0  0  0  0  0  0  0  0
   -5.1855   17.5612  -34.1779 H   0  0  0  0  0  0  0  0  0  0  0  0
   -4.3262   19.7405  -32.7251 H   0  0  0  0  0  0  0  0  0  0  0  0
   -2.8177   21.0637  -31.2546 H   0  0  0  0  0  0  0  0  0  0  0  0
   -1.7818   22.9145  -30.9051 H   0  0  0  0  0  0  0  0  0  0  0  0
   -0.2642   24.2307  -29.4360 H   0  0  0  0  0  0  0  0  0  0  0  0
    0.1122   25.5192  -27.3981 H   0  0  0  0  0  0  0  0  0  0  0  0
   -1.1127   27.4292  -23.2910 H   0  0  0  0  0  0  0  0  0  0  0  0
   -0.8981   25.6462  -23.3292 H   0  0  0  0  0  0  0  0  0  0  0  0
    0.5390   26.7240  -23.3292 H   0  0  0  0  0  0  0  0  0  0  0  0
   -3.1295   26.1065  -24.5875 H   0  0  0  0  0  0  0  0  0  0  0  0
   -4.6494   24.7813  -26.0533 H   0  0  0  0  0  0  0  0  0  0  0  0
   -5.0257   23.4905  -28.0910 H   0  0  0  0  0  0  0  0  0  0  0  0
   -6.1971   23.4053  -29.8957 H   0  0  0  0  0  0  0  0  0  0  0  0
   -7.7048   22.0835  -31.3651 H   0  0  0  0  0  0  0  0  0  0  0  0
  1  2  1  0
  2  3  1  0
  3  4  1  0
  4  5  1  0
  3  6  1  0
  6  7  2  0
  7  8  1  0
  8  9  2  0
  9 10  1  0
 10 11  2  0
 11 12  1  0
 12 13  2  0
 13 14  1  0
 14 15  2  0
 15 16  1  0
 16 17  1  0
 15 18  1  0
 18 19  2  0
 19 20  1  0
 20 21  2  0
  9 22  1  0
 22 23  2  0
 23  6  1  0
 21 10  1  0
 20 13  1  0
  1 24  1  0
  1 25  1  0
  1 26  1  0
  2 27  1  0
  2 28  1  0
  4 29  1  0
  4 30  1  0
  5 31  1  0
  5 32  1  0
  5 33  1  0
  7 34  1  0
  8 35  1  0
 11 36  1  0
 12 37  1  0
 14 38  1  0
 17 39  1  0
 17 40  1  0
 17 41  1  0
 18 42  1  0
 19 43  1  0
 21 44  1  0
 22 45  1  0
 23 46  1  0
M  END
>  <UniqueID>  (22) 
21

>  <SMILES>  (22) 
CCN(CC)c1ccc(-c2ccc3cc(OC)ccc3c2)cc1

>  <Energy>  (22) 
53.14304098369174

>  <Genealogy>  (22) 
CCN(CC)c1ccc(-c2ccc3cc(OC)ccc3c2)cc1 (3D coordinates assigned)
CCN(CC)c1ccc(-c2ccc3cc(OC)ccc3c2)cc1 (optimized conformer: 53.14304098369174 kcal/mol)

>  <smiles>  (22) 
CCN(CC)c1ccc(-c2ccc3cc(OC)ccc3c2)cc1

>  <score_type>  (22) 
oracle

>  <origin>  (22) 
adg

>  <m_score__min__energy>  (22) 
-7.0499999999999998

>  <m_primary>  (22) 
energy

$$$$
22:0
     RDKit          3D

 41 43  0  0  0  0  0  0  0  0999 V2000
   -9.1100   22.3330  -31.5320 Cl  0  0  0  0  0  0  0  0  0  0  0  0
   -8.3920   20.7970  -31.9770 C   0  0  0  0  0  0  0  0  0  0  0  0
   -9.0040   19.6010  -31.5920 C   0  0  0  0  0  0  0  0  0  0  0  0
   -8.4370   18.3750  -31.9500 C   0  0  0  0  0  0  0  0  0  0  0  0
   -7.2510   18.3390  -32.6990 C   0  0  0  0  0  0  0  0  0  0  0  0
   -6.6090   19.5420  -33.0540 C   0  0  0  0  0  0  0  0  0  0  0  0
   -7.2030   20.7680  -32.7140 C   0  0  0  0  0  0  0  0  0  0  0  0
   -5.3290   19.4990  -33.8630 C   0  0  1  0  0  0  0  0  0  0  0  0
   -4.3540   20.5110  -33.4080 N   0  0  0  0  0  0  0  0  0  0  0  0
   -4.1040   20.5070  -31.9560 C   0  0  0  0  0  0  0  0  0  0  0  0
   -2.8980   21.4110  -31.6480 C   0  0  0  0  0  0  0  0  0  0  0  0
   -3.2520   22.7740  -31.1930 N   0  0  0  0  0  0  0  0  0  0  0  0
   -2.9070   23.0470  -29.7870 C   0  0  0  0  0  0  0  0  0  0  0  0
   -3.1160   24.5480  -29.4850 C   0  0  0  0  0  0  0  0  0  0  0  0
   -3.8710   25.2110  -30.4860 O   0  0  0  0  0  0  0  0  0  0  0  0
   -5.0300   24.4630  -30.7960 C   0  0  0  0  0  0  0  0  0  0  0  0
   -4.6500   23.1440  -31.4940 C   0  0  0  0  0  0  0  0  0  0  0  0
   -4.7310   18.0740  -33.8900 C   0  0  0  0  0  0  0  0  0  0  0  0
   -5.7460   17.1290  -34.1670 O   0  0  0  0  0  0  0  0  0  0  0  0
   -6.6130   17.0160  -33.0510 C   0  0  0  0  0  0  0  0  0  0  0  0
   -9.9344   19.6248  -31.0057 H   0  0  0  0  0  0  0  0  0  0  0  0
   -8.9215   17.4361  -31.6440 H   0  0  0  0  0  0  0  0  0  0  0  0
   -6.7312   21.7105  -33.0287 H   0  0  0  0  0  0  0  0  0  0  0  0
   -5.5832   19.7613  -34.9006 H   0  0  0  0  0  0  0  0  0  0  0  0
   -3.4460   20.3540  -33.9070 H   0  0  0  0  0  0  0  0  0  0  0  0
   -4.9920   20.8858  -31.4287 H   0  0  0  0  0  0  0  0  0  0  0  0
   -3.8922   19.4811  -31.6202 H   0  0  0  0  0  0  0  0  0  0  0  0
   -2.3008   20.9300  -30.8593 H   0  0  0  0  0  0  0  0  0  0  0  0
   -2.3474   21.5301  -32.5928 H   0  0  0  0  0  0  0  0  0  0  0  0
   -3.5527   22.4475  -29.1284 H   0  0  0  0  0  0  0  0  0  0  0  0
   -1.8542   22.7816  -29.6106 H   0  0  0  0  0  0  0  0  0  0  0  0
   -3.6452   24.6429  -28.5253 H   0  0  0  0  0  0  0  0  0  0  0  0
   -2.1231   25.0202  -29.4525 H   0  0  0  0  0  0  0  0  0  0  0  0
   -5.5743   24.2373  -29.8672 H   0  0  0  0  0  0  0  0  0  0  0  0
   -5.6642   25.0539  -31.4732 H   0  0  0  0  0  0  0  0  0  0  0  0
   -5.3183   22.3443  -31.1420 H   0  0  0  0  0  0  0  0  0  0  0  0
   -4.7525   23.2785  -32.5809 H   0  0  0  0  0  0  0  0  0  0  0  0
   -3.9581   18.0180  -34.6707 H   0  0  0  0  0  0  0  0  0  0  0  0
   -4.2869   17.8500  -32.9089 H   0  0  0  0  0  0  0  0  0  0  0  0
   -7.4053   16.2906  -33.2879 H   0  0  0  0  0  0  0  0  0  0  0  0
   -6.0173   16.6838  -32.1880 H   0  0  0  0  0  0  0  0  0  0  0  0
  1  2  1  0
  2  3  2  0
  3  4  1  0
  4  5  2  0
  5  6  1  0
  6  7  2  0
  6  8  1  0
  8  9  1  0
  9 10  1  0
 10 11  1  0
 11 12  1  0
 12 13  1  0
 13 14  1  0
 14 15  1  0
 15 16  1  0
 16 17  1  0
  8 18  1  0
 18 19  1  0
 19 20  1  0
  7  2  1  0
 17 12  1  0
 20  5  1  0
  3 21  1  0
  4 22  1  0
  7 23  1  0
  8 24  1  6
  9 25  1  0
 10 26  1  0
 10 27  1  0
 11 28  1  0
 11 29  1  0
 13 30  1  0
 13 31  1  0
 14 32  1  0
 14 33  1  0
 16 34  1  0
 16 35  1  0
 17 36  1  0
 17 37  1  0
 18 38  1  0
 18 39  1  0
 20 40  1  0
 20 41  1  0
M  END
>  <UniqueID>  (23) 
22

>  <SMILES>  (23) 
Clc1ccc2c(c1)[C@@H](NCCN1CCOCC1)COC2

>  <Energy>  (23) 
59.53290786022735

>  <Genealogy>  (23) 
Clc1ccc2c(c1)[C@@H](NCCN1CCOCC1)COC2 (chirality)
Clc1ccc2c(c1)[C@@H](NCCN1CCOCC1)COC2 (3D coordinates assigned)
Clc1ccc2c(c1)[C@@H](NCCN1CCOCC1)COC2 (nonaromatic ring conformer: 59.53290786022735 kcal/mol)

>  <smiles>  (23) 
Clc1ccc2c(c1)C(NCCN1CCOCC1)COC2

>  <score_type>  (23) 
oracle

>  <origin>  (23) 
adg

>  <m_score__min__energy>  (23) 
-8.5099999999999998

>  <m_primary>  (23) 
energy

$$$$
23:0
     RDKit          3D

 52 54  0  0  0  0  0  0  0  0999 V2000
   -6.8120   24.9410  -29.7650 C   0  0  0  0  0  0  0  0  0  0  0  0
   -5.3910   25.4220  -30.0420 C   0  0  0  0  0  0  0  0  0  0  0  0
   -4.4260   24.3360  -29.8140 N   0  0  0  0  0  0  0  0  0  0  0  0
   -3.7980   24.1980  -28.4940 C   0  0  0  0  0  0  0  0  0  0  0  0
   -4.2010   22.8760  -27.8470 C   0  0  0  0  0  0  0  0  0  0  0  0
   -4.1040   23.4030  -30.8670 C   0  0  0  0  0  0  0  0  0  0  0  0
   -4.8740   23.2290  -31.9660 N   0  0  0  0  0  0  0  0  0  0  0  0
   -4.3620   22.2910  -32.8060 C   0  0  0  0  0  0  0  0  0  0  0  0
   -3.1790   21.7050  -32.3700 C   0  0  0  0  0  0  0  0  0  0  0  0
   -2.3680   20.6940  -33.1210 C   0  0  0  0  0  0  0  0  0  0  0  0
   -2.1080   19.5150  -32.2820 N   0  0  0  0  0  0  0  0  0  0  0  0
   -2.3220   18.2770  -33.0470 C   0  0  0  0  0  0  0  0  0  0  0  0
   -3.7800   18.1120  -33.3910 C   0  0  0  0  0  0  0  0  0  0  0  0
   -4.1600   17.6420  -34.6590 C   0  0  0  0  0  0  0  0  0  0  0  0
   -5.5130   17.4890  -34.9760 C   0  0  0  0  0  0  0  0  0  0  0  0
   -6.4950   17.8100  -34.0340 C   0  0  0  0  0  0  0  0  0  0  0  0
   -6.1240   18.2880  -32.7710 C   0  0  0  0  0  0  0  0  0  0  0  0
   -7.1000   18.6000  -31.8220 O   0  0  0  0  0  0  0  0  0  0  0  0
   -7.7950   19.8180  -31.7910 C   0  0  0  0  0  0  0  0  0  0  0  0
   -9.1800   19.9020  -32.0520 C   0  0  0  0  0  0  0  0  0  0  0  0
   -9.8350   21.1360  -31.9870 C   0  0  0  0  0  0  0  0  0  0  0  0
   -9.1220   22.2900  -31.6550 C   0  0  0  0  0  0  0  0  0  0  0  0
   -7.7480   22.2170  -31.4070 C   0  0  0  0  0  0  0  0  0  0  0  0
   -7.0870   20.9850  -31.4760 C   0  0  0  0  0  0  0  0  0  0  0  0
   -4.7710   18.4580  -32.4590 C   0  0  0  0  0  0  0  0  0  0  0  0
   -2.7500   22.3940  -30.8980 S   0  0  0  0  0  0  0  0  0  0  0  0
   -6.9752   24.8858  -28.6786 H   0  0  0  0  0  0  0  0  0  0  0  0
   -7.5307   25.6459  -30.2083 H   0  0  0  0  0  0  0  0  0  0  0  0
   -6.9548   23.9445  -30.2083 H   0  0  0  0  0  0  0  0  0  0  0  0
   -5.3194   25.7563  -31.0875 H   0  0  0  0  0  0  0  0  0  0  0  0
   -5.1579   26.2538  -29.3610 H   0  0  0  0  0  0  0  0  0  0  0  0
   -2.7043   24.2266  -28.6085 H   0  0  0  0  0  0  0  0  0  0  0  0
   -4.1334   25.0257  -27.8518 H   0  0  0  0  0  0  0  0  0  0  0  0
   -4.1696   22.9790  -26.7523 H   0  0  0  0  0  0  0  0  0  0  0  0
   -5.2211   22.6099  -28.1612 H   0  0  0  0  0  0  0  0  0  0  0  0
   -3.5028   22.0862  -28.1612 H   0  0  0  0  0  0  0  0  0  0  0  0
   -4.8453   22.0173  -33.7555 H   0  0  0  0  0  0  0  0  0  0  0  0
   -2.9198   20.3834  -34.0205 H   0  0  0  0  0  0  0  0  0  0  0  0
   -1.4067   21.1483  -33.4032 H   0  0  0  0  0  0  0  0  0  0  0  0
   -1.1160   19.5470  -31.9470 H   0  0  0  0  0  0  0  0  0  0  0  0
   -2.7530   19.5230  -31.4550 H   0  0  0  0  0  0  0  0  0  0  0  0
   -1.7339   18.3195  -33.9756 H   0  0  0  0  0  0  0  0  0  0  0  0
   -2.0030   17.4213  -32.4338 H   0  0  0  0  0  0  0  0  0  0  0  0
   -3.3906   17.3936  -35.4049 H   0  0  0  0  0  0  0  0  0  0  0  0
   -5.8055   17.1154  -35.9684 H   0  0  0  0  0  0  0  0  0  0  0  0
   -7.5589   17.6871  -34.2849 H   0  0  0  0  0  0  0  0  0  0  0  0
   -9.7458   18.9939  -32.3073 H   0  0  0  0  0  0  0  0  0  0  0  0
  -10.9129   21.1977  -32.1976 H   0  0  0  0  0  0  0  0  0  0  0  0
   -9.6418   23.2571  -31.5886 H   0  0  0  0  0  0  0  0  0  0  0  0
   -7.1857   23.1288  -31.1573 H   0  0  0  0  0  0  0  0  0  0  0  0
   -6.0055   20.9330  -31.2818 H   0  0  0  0  0  0  0  0  0  0  0  0
   -4.4823   18.8648  -31.4786 H   0  0  0  0  0  0  0  0  0  0  0  0
  1  2  1  0
  2  3  1  0
  3  4  1  0
  4  5  1  0
  3  6  1  0
  6  7  2  0
  7  8  1  0
  8  9  2  0
  9 10  1  0
 10 11  1  0
 11 12  1  0
 12 13  1  0
 13 14  2  0
 14 15  1  0
 15 16  2  0
 16 17  1  0
 17 18  1  0
 18 19  1  0
 19 20  2  0
 20 21  1  0
 21 22  2  0
 22 23  1  0
 23 24  2  0
 17 25  2  0
  9 26  1  0
 26  6  1  0
 25 13  1  0
 24 19  1  0
  1 27  1  0
  1 28  1  0
  1 29  1  0
  2 30  1  0
  2 31  1  0
  4 32  1  0
  4 33  1  0
  5 34  1  0
  5 35  1  0
  5 36  1  0
  8 37  1  0
 10 38  1  0
 10 39  1  0
 11 40  1  0
 11 41  1  0
 12 42  1  0
 12 43  1  0
 14 44  1  0
 15 45  1  0
 16 46  1  0
 20 47  1  0
 21 48  1  0
 22 49  1  0
 23 50  1  0
 24 51  1  0
 25 52  1  0
M  CHG  1  11   1
M  END
>  <UniqueID>  (24) 
23

>  <SMILES>  (24) 
CCN(CC)c1ncc(C[NH2+]Cc2cccc(Oc3ccccc3)c2)s1

>  <Energy>  (24) 
83.24034081917003

>  <Genealogy>  (24) 
CCN(CC)c1ncc(C[NH2+]Cc2cccc(Oc3ccccc3)c2)s1 (protonated)
CCN(CC)c1ncc(C[NH2+]Cc2cccc(Oc3ccccc3)c2)s1 (3D coordinates assigned)
CCN(CC)c1ncc(C[NH2+]Cc2cccc(Oc3ccccc3)c2)s1 (optimized conformer: 83.24034081917003 kcal/mol)

>  <smiles>  (24) 
CCN(CC)c1ncc(CNCc2cccc(Oc3ccccc3)c2)s1

>  <score_type>  (24) 
oracle

>  <origin>  (24) 
adg

>  <m_score__min__energy>  (24) 
-7.5999999999999996

>  <m_primary>  (24) 
energy

$$$$
24:0
     RDKit          3D

 32 33  0  0  0  0  0  0  0  0999 V2000
   -1.5790   22.0280  -30.5320 O   0  0  0  0  0  0  0  0  0  0  0  0
   -2.6030   21.8720  -31.2500 C   0  0  0  0  0  0  0  0  0  0  0  0
   -3.5780   22.8110  -31.2480 N   0  0  0  0  0  0  0  0  0  0  0  0
   -4.6820   22.6790  -31.9990 C   0  0  0  0  0  0  0  0  0  0  0  0
   -6.0070   23.8680  -32.0400 S   0  0  0  0  0  0  0  0  0  0  0  0
   -6.2400   24.6160  -30.4160 C   0  0  0  0  0  0  0  0  0  0  0  0
   -4.9990   25.2640  -29.8620 C   0  0  0  0  0  0  0  0  0  0  0  0
   -4.1270   25.6510  -30.8510 O   0  0  0  0  0  0  0  0  0  0  0  0
   -4.7750   21.5720  -32.7550 N   0  0  0  0  0  0  0  0  0  0  0  0
   -3.7940   20.6160  -32.7660 C   0  0  0  0  0  0  0  0  0  0  0  0
   -4.0900   19.2150  -33.8180 S   0  0  0  0  0  0  0  0  0  0  0  0
   -5.7770   19.2000  -34.4300 C   0  0  0  0  0  0  0  0  0  0  0  0
   -6.7800   19.2940  -33.3730 C   0  0  0  0  0  0  0  0  0  0  0  0
   -6.9570   18.1700  -32.5600 C   0  0  0  0  0  0  0  0  0  0  0  0
   -7.8850   18.1500  -31.5380 C   0  0  0  0  0  0  0  0  0  0  0  0
   -8.6860   19.2390  -31.2650 C   0  0  0  0  0  0  0  0  0  0  0  0
   -8.5190   20.3620  -32.0670 C   0  0  0  0  0  0  0  0  0  0  0  0
   -7.5790   20.3700  -33.0970 C   0  0  0  0  0  0  0  0  0  0  0  0
   -2.7040   20.7720  -32.0070 N   0  0  0  0  0  0  0  0  0  0  0  0
   -7.0250   25.3823  -30.4965 H   0  0  0  0  0  0  0  0  0  0  0  0
   -6.5133   23.8044  -29.7256 H   0  0  0  0  0  0  0  0  0  0  0  0
   -5.2922   26.1513  -29.2817 H   0  0  0  0  0  0  0  0  0  0  0  0
   -4.4854   24.5233  -29.2314 H   0  0  0  0  0  0  0  0  0  0  0  0
   -3.5940   24.9170  -31.2050 H   0  0  0  0  0  0  0  0  0  0  0  0
   -5.6380   21.4580  -33.3510 H   0  0  0  0  0  0  0  0  0  0  0  0
   -5.9080   20.0536  -35.1114 H   0  0  0  0  0  0  0  0  0  0  0  0
   -5.9294   18.2354  -34.9363 H   0  0  0  0  0  0  0  0  0  0  0  0
   -6.3399   17.2773  -32.7397 H   0  0  0  0  0  0  0  0  0  0  0  0
   -7.9882   17.2420  -30.9257 H   0  0  0  0  0  0  0  0  0  0  0  0
   -9.4238   19.2198  -30.4493 H   0  0  0  0  0  0  0  0  0  0  0  0
   -9.1357   21.2549  -31.8870 H   0  0  0  0  0  0  0  0  0  0  0  0
   -7.4758   21.2765  -33.7115 H   0  0  0  0  0  0  0  0  0  0  0  0
  1  2  2  0
  2  3  1  0
  3  4  2  0
  4  5  1  0
  5  6  1  0
  6  7  1  0
  7  8  1  0
  4  9  1  0
  9 10  1  0
 10 11  1  0
 11 12  1  0
 12 13  1  0
 13 14  2  0
 14 15  1  0
 15 16  2  0
 16 17  1  0
 17 18  2  0
 10 19  2  0
 19  2  1  0
 18 13  1  0
  6 20  1  0
  6 21  1  0
  7 22  1  0
  7 23  1  0
  8 24  1  0
  9 25  1  0
 12 26  1  0
 12 27  1  0
 14 28  1  0
 15 29  1  0
 16 30  1  0
 17 31  1  0
 18 32  1  0
M  END
>  <smiles>  (25) 
O=c1nc(SCCO)[nH]c(SCc2ccccc2)n1

>  <score_type>  (25) 
oracle

>  <origin>  (25) 
adg

>  <m_score__min__energy>  (25) 
-7.7000000000000002

>  <m_primary>  (25) 
energy

$$$$
25:0
     RDKit          3D

 35 35  0  0  0  0  0  0  0  0999 V2000
   -6.1440   17.4490  -30.8430 C   0  0  0  0  0  0  0  0  0  0  0  0
   -5.5940   16.9220  -32.1720 C   0  0  0  0  0  0  0  0  0  0  0  0
   -6.3500   17.4340  -33.3370 N   0  0  0  0  0  0  0  0  0  0  0  0
   -6.4030   16.5200  -34.5110 C   0  0  0  0  0  0  0  0  0  0  0  0
   -6.8570   15.0820  -34.2100 C   0  0  0  0  0  0  0  0  0  0  0  0
   -5.8050   19.0410  -33.7830 S   0  0  0  0  0  0  0  0  0  0  0  0
   -6.1210   19.2900  -35.2320 O   0  0  0  0  0  0  0  0  0  0  0  0
   -4.3110   19.1120  -33.6320 O   0  0  0  0  0  0  0  0  0  0  0  0
   -6.5430   20.3230  -32.8100 C   0  0  0  0  0  0  0  0  0  0  0  0
   -5.7990   21.4800  -32.5240 C   0  0  0  0  0  0  0  0  0  0  0  0
   -6.3490   22.5040  -31.7490 C   0  0  0  0  0  0  0  0  0  0  0  0
   -5.5740   23.6800  -31.4500 C   0  0  0  0  0  0  0  0  0  0  0  0
   -4.9500   24.6240  -31.2100 N   0  0  0  0  0  0  0  0  0  0  0  0
   -7.6530   22.3820  -31.2580 C   0  0  0  0  0  0  0  0  0  0  0  0
   -8.4060   21.2420  -31.5440 C   0  0  0  0  0  0  0  0  0  0  0  0
   -7.8620   20.2030  -32.3240 C   0  0  0  0  0  0  0  0  0  0  0  0
   -8.6020   19.0500  -32.6330 O   0  0  0  0  0  0  0  0  0  0  0  0
   -9.2520   18.2240  -31.6740 C   0  0  0  0  0  0  0  0  0  0  0  0
   -5.6260   16.9526  -30.0092 H   0  0  0  0  0  0  0  0  0  0  0  0
   -5.9791   18.5349  -30.7827 H   0  0  0  0  0  0  0  0  0  0  0  0
   -7.2219   17.2379  -30.7827 H   0  0  0  0  0  0  0  0  0  0  0  0
   -4.5433   17.2332  -32.2680 H   0  0  0  0  0  0  0  0  0  0  0  0
   -5.6902   15.8262  -32.1644 H   0  0  0  0  0  0  0  0  0  0  0  0
   -7.3410   17.5730  -33.0250 H   0  0  0  0  0  0  0  0  0  0  0  0
   -7.1018   16.9497  -35.2438 H   0  0  0  0  0  0  0  0  0  0  0  0
   -5.3693   16.4398  -34.8784 H   0  0  0  0  0  0  0  0  0  0  0  0
   -6.9041   14.9327  -33.1212 H   0  0  0  0  0  0  0  0  0  0  0  0
   -7.8523   14.9127  -34.6467 H   0  0  0  0  0  0  0  0  0  0  0  0
   -6.1393   14.3719  -34.6467 H   0  0  0  0  0  0  0  0  0  0  0  0
   -4.7752   21.5804  -32.9134 H   0  0  0  0  0  0  0  0  0  0  0  0
   -8.0861   23.1862  -30.6451 H   0  0  0  0  0  0  0  0  0  0  0  0
   -9.4320   21.1544  -31.1573 H   0  0  0  0  0  0  0  0  0  0  0  0
   -8.9872   18.5605  -30.6607 H   0  0  0  0  0  0  0  0  0  0  0  0
  -10.3415   18.2919  -31.8099 H   0  0  0  0  0  0  0  0  0  0  0  0
   -8.9298   17.1811  -31.8099 H   0  0  0  0  0  0  0  0  0  0  0  0
  1  2  1  0
  2  3  1  0
  3  4  1  0
  4  5  1  0
  3  6  1  0
  6  7  2  0
  6  8  2  0
  6  9  1  0
  9 10  2  0
 10 11  1  0
 11 12  1  0
 12 13  3  0
 11 14  2  0
 14 15  1  0
 15 16  2  0
 16 17  1  0
 17 18  1  0
 16  9  1  0
  1 19  1  0
  1 20  1  0
  1 21  1  0
  2 22  1  0
  2 23  1  0
  3 24  1  0
  4 25  1  0
  4 26  1  0
  5 27  1  0
  5 28  1  0
  5 29  1  0
 10 30  1  0
 14 31  1  0
 15 32  1  0
 18 33  1  0
 18 34  1  0
 18 35  1  0
M  CHG  1   3   1
M  END
>  <UniqueID>  (26) 
24

>  <SMILES>  (26) 
CC[NH+](CC)S(=O)(=O)c1cc(C#N)ccc1OC

>  <Energy>  (26) 
33.29873505233941

>  <Genealogy>  (26) 
CC[NH+](CC)S(=O)(=O)c1cc(C#N)ccc1OC (protonated)
CC[NH+](CC)S(=O)(=O)c1cc(C#N)ccc1OC (3D coordinates assigned)
CC[NH+](CC)S(=O)(=O)c1cc(C#N)ccc1OC (optimized conformer: 33.29873505233941 kcal/mol)

>  <smiles>  (26) 
CCN(CC)S(=O)(=O)c1cc(C#N)ccc1OC

>  <score_type>  (26) 
oracle

>  <origin>  (26) 
adg

>  <m_score__min__energy>  (26) 
-5.9000000000000004

>  <m_primary>  (26) 
energy

$$$$
26:0
     RDKit          3D

 29 30  0  0  0  0  0  0  0  0999 V2000
   -6.0905   19.6345  -34.8999 H   0  0  0  0  0  0  0  0  0  0  0  0
   -6.3750   19.3040  -33.8900 C   0  0  0  0  0  0  0  0  0  0  0  0
   -7.0000   20.1890  -33.1050 C   0  0  0  0  0  0  0  0  0  0  0  0
   -6.4990   21.4630  -32.7040 N   0  0  0  0  0  0  0  0  0  0  0  0
   -7.4060   22.0040  -31.9440 C   0  0  0  0  0  0  0  0  0  0  0  0
   -7.1980   23.6390  -31.2360 S   0  0  0  0  0  0  0  0  0  0  0  0
   -5.3790   23.5290  -31.1100 C   0  0  0  0  0  0  0  0  0  0  0  0
   -5.1075   22.5609  -30.6638 H   0  0  0  0  0  0  0  0  0  0  0  0
   -4.9522   23.6223  -32.1195 H   0  0  0  0  0  0  0  0  0  0  0  0
   -4.8310   24.6310  -30.2580 C   0  0  0  0  0  0  0  0  0  0  0  0
   -3.8650   25.3230  -30.6770 O   0  0  0  0  0  0  0  0  0  0  0  0
   -5.3780   24.8870  -28.9640 N   0  0  0  0  0  0  0  0  0  0  0  0
   -6.1560   24.3020  -28.5870 H   0  0  0  0  0  0  0  0  0  0  0  0
   -4.9880   25.6530  -28.3700 H   0  0  0  0  0  0  0  0  0  0  0  0
   -8.5570   21.1800  -31.7120 N   0  0  0  0  0  0  0  0  0  0  0  0
   -9.8440   21.5830  -31.1600 C   0  0  0  0  0  0  0  0  0  0  0  0
   -9.7929   21.5670  -30.0613 H   0  0  0  0  0  0  0  0  0  0  0  0
  -10.0869   22.6002  -31.5010 H   0  0  0  0  0  0  0  0  0  0  0  0
  -10.6237   20.8860  -31.5010 H   0  0  0  0  0  0  0  0  0  0  0  0
   -8.3000   20.0280  -32.4930 C   0  0  0  0  0  0  0  0  0  0  0  0
   -9.0930   19.0580  -32.6340 O   0  0  0  0  0  0  0  0  0  0  0  0
   -6.0370   17.9180  -33.5070 C   0  0  0  0  0  0  0  0  0  0  0  0
   -5.5910   17.6120  -32.3090 O   0  0  0  0  0  0  0  0  0  0  0  0
   -5.3890   16.3170  -32.2460 C   0  0  0  0  0  0  0  0  0  0  0  0
   -5.0145   15.7763  -31.3643 H   0  0  0  0  0  0  0  0  0  0  0  0
   -5.7170   15.7380  -33.4510 C   0  0  0  0  0  0  0  0  0  0  0  0
   -5.6547   14.6707  -33.7097 H   0  0  0  0  0  0  0  0  0  0  0  0
   -6.1390   16.7640  -34.2680 C   0  0  0  0  0  0  0  0  0  0  0  0
   -6.4853   16.6839  -35.3090 H   0  0  0  0  0  0  0  0  0  0  0  0
  1  2  1  0
  2  3  2  0
  3  4  1  0
  4  5  2  0
  5  6  1  0
  6  7  1  0
  7  8  1  0
  7  9  1  0
  7 10  1  0
 10 11  2  0
 10 12  1  0
 12 13  1  0
 12 14  1  0
  5 15  1  0
 15 16  1  0
 16 17  1  0
 16 18  1  0
 16 19  1  0
 15 20  1  0
 20 21  2  0
  2 22  1  0
 22 23  1  0
 23 24  1  0
 24 25  1  0
 24 26  2  0
 26 27  1  0
 26 28  1  0
 28 29  1  0
 20  3  1  0
 28 22  2  0
M  END
>  <UniqueID>  (27) 
25

>  <SMILES>  (27) 
CN1C(=O)/C(=C/c2ccco2)N=C1SCC(N)=O

>  <Energy>  (27) 
77.81183338506695

>  <Genealogy>  (27) 
CN1C(=O)/C(=C/c2ccco2)N=C1SCC(N)=O (cis-trans isomerization)
CN1C(=O)/C(=C/c2ccco2)N=C1SCC(N)=O (3D coordinates assigned)
CN1C(=O)/C(=C/c2ccco2)N=C1SCC(N)=O (nonaromatic ring conformer: 77.81183338506695 kcal/mol)

>  <smiles>  (27) 
CN1C(=O)C(=Cc2ccco2)N=C1SCC(N)=O

>  <score_type>  (27) 
oracle

>  <origin>  (27) 
adg

>  <m_score__min__energy>  (27) 
-7.7199999999999998

>  <m_primary>  (27) 
energy

$$$$
27:0
     RDKit          3D

 43 45  0  0  0  0  0  0  0  0999 V2000
   -4.6240   14.6500  -32.0600 C   0  0  0  0  0  0  0  0  0  0  0  0
   -4.0830   14.5840  -33.4830 C   0  0  0  0  0  0  0  0  0  0  0  0
   -5.0200   15.1370  -34.4040 O   0  0  0  0  0  0  0  0  0  0  0  0
   -5.6010   16.4010  -34.2480 C   0  0  0  0  0  0  0  0  0  0  0  0
   -6.8020   16.5970  -34.5810 O   0  0  0  0  0  0  0  0  0  0  0  0
   -4.7860   17.5060  -33.7160 C   0  0  0  0  0  0  0  0  0  0  0  0
   -3.4460   17.7180  -33.9800 C   0  0  0  0  0  0  0  0  0  0  0  0
   -3.0520   18.8720  -33.4070 N   0  0  0  0  0  0  0  0  0  0  0  0
   -4.0950   19.3960  -32.7790 N   0  0  0  0  0  0  0  0  0  0  0  0
   -4.0140   20.6240  -32.0340 C   0  0  0  0  0  0  0  0  0  0  0  0
   -4.5230   21.8100  -32.5860 C   0  0  0  0  0  0  0  0  0  0  0  0
   -4.4470   23.0110  -31.8750 C   0  0  0  0  0  0  0  0  0  0  0  0
   -3.8460   23.0440  -30.6100 C   0  0  0  0  0  0  0  0  0  0  0  0
   -3.7680   24.5540  -29.7070 S   0  0  0  0  0  0  0  0  0  0  0  0
   -4.7210   24.4120  -28.2710 N   0  0  0  0  0  0  0  0  0  0  0  0
   -4.2930   25.6800  -30.5530 O   0  0  0  0  0  0  0  0  0  0  0  0
   -2.3430   24.8530  -29.3350 O   0  0  0  0  0  0  0  0  0  0  0  0
   -3.3240   21.8660  -30.0610 C   0  0  0  0  0  0  0  0  0  0  0  0
   -3.3980   20.6650  -30.7710 C   0  0  0  0  0  0  0  0  0  0  0  0
   -5.1730   18.5950  -32.9460 C   0  0  0  0  0  0  0  0  0  0  0  0
   -6.5360   18.8880  -32.4560 C   0  0  0  0  0  0  0  0  0  0  0  0
   -7.3850   17.8410  -32.0630 C   0  0  0  0  0  0  0  0  0  0  0  0
   -8.6840   18.1160  -31.6250 C   0  0  0  0  0  0  0  0  0  0  0  0
   -9.1430   19.4360  -31.5790 C   0  0  0  0  0  0  0  0  0  0  0  0
   -8.3050   20.4830  -31.9740 C   0  0  0  0  0  0  0  0  0  0  0  0
   -8.9350   22.2850  -31.9170 Br  0  0  0  0  0  0  0  0  0  0  0  0
   -7.0050   20.2100  -32.4140 C   0  0  0  0  0  0  0  0  0  0  0  0
   -3.7928   14.5486  -31.3467 H   0  0  0  0  0  0  0  0  0  0  0  0
   -5.1261   15.6161  -31.9031 H   0  0  0  0  0  0  0  0  0  0  0  0
   -5.3436   13.8330  -31.9031 H   0  0  0  0  0  0  0  0  0  0  0  0
   -3.1431   15.1527  -33.5388 H   0  0  0  0  0  0  0  0  0  0  0  0
   -3.9076   13.5305  -33.7464 H   0  0  0  0  0  0  0  0  0  0  0  0
   -2.8008   17.0480  -34.5672 H   0  0  0  0  0  0  0  0  0  0  0  0
   -4.9846   21.7941  -33.5843 H   0  0  0  0  0  0  0  0  0  0  0  0
   -4.8603   23.9329  -32.3100 H   0  0  0  0  0  0  0  0  0  0  0  0
   -4.7600   25.3610  -27.8360 H   0  0  0  0  0  0  0  0  0  0  0  0
   -5.6940   24.1780  -28.5720 H   0  0  0  0  0  0  0  0  0  0  0  0
   -2.8538   21.8865  -29.0668 H   0  0  0  0  0  0  0  0  0  0  0  0
   -2.9722   19.7470  -30.3397 H   0  0  0  0  0  0  0  0  0  0  0  0
   -7.0271   16.8015  -32.0998 H   0  0  0  0  0  0  0  0  0  0  0  0
   -9.3455   17.2931  -31.3163 H   0  0  0  0  0  0  0  0  0  0  0  0
  -10.1644   19.6508  -31.2317 H   0  0  0  0  0  0  0  0  0  0  0  0
   -6.3483   21.0347  -32.7281 H   0  0  0  0  0  0  0  0  0  0  0  0
  1  2  1  0
  2  3  1  0
  3  4  1  0
  4  5  2  0
  4  6  1  0
  6  7  1  0
  7  8  2  0
  8  9  1  0
  9 10  1  0
 10 11  2  0
 11 12  1  0
 12 13  2  0
 13 14  1  0
 14 15  1  0
 14 16  2  0
 14 17  2  0
 13 18  1  0
 18 19  2  0
  9 20  1  0
 20 21  1  0
 21 22  2  0
 22 23  1  0
 23 24  2  0
 24 25  1  0
 25 26  1  0
 25 27  2  0
 20  6  2  0
 27 21  1  0
 19 10  1  0
  1 28  1  0
  1 29  1  0
  1 30  1  0
  2 31  1  0
  2 32  1  0
  7 33  1  0
 11 34  1  0
 12 35  1  0
 15 36  1  0
 15 37  1  0
 18 38  1  0
 19 39  1  0
 22 40  1  0
 23 41  1  0
 24 42  1  0
 27 43  1  0
M  END
>  <UniqueID>  (28) 
26

>  <SMILES>  (28) 
CCOC(=O)c1cnn(-c2ccc(S(N)(=O)=O)cc2)c1-c1cccc(Br)c1

>  <Energy>  (28) 
80.2445189946168

>  <Genealogy>  (28) 
CCOC(=O)c1cnn(-c2ccc(S(N)(=O)=O)cc2)c1-c1cccc(Br)c1 (3D coordinates assigned)
CCOC(=O)c1cnn(-c2ccc(S(N)(=O)=O)cc2)c1-c1cccc(Br)c1 (optimized conformer: 80.2445189946168 kcal/mol)

>  <smiles>  (28) 
CCOC(=O)c1cnn(-c2ccc(S(N)(=O)=O)cc2)c1-c1cccc(Br)c1

>  <score_type>  (28) 
oracle

>  <origin>  (28) 
adg

>  <m_score__min__energy>  (28) 
-9.7699999999999996

>  <m_primary>  (28) 
energy

$$$$
28:0
     RDKit          3D

 45 47  0  0  0  0  0  0  0  0999 V2000
   -5.5970   17.7980  -32.3160 C   0  0  0  0  0  0  0  0  0  0  0  0
   -5.2410   18.5900  -33.5820 C   0  0  0  0  0  0  0  0  0  0  0  0
   -5.6510   17.7870  -34.8260 C   0  0  0  0  0  0  0  0  0  0  0  0
   -5.9850   19.8050  -33.5920 O   0  0  0  0  0  0  0  0  0  0  0  0
   -5.5860   20.9530  -32.9090 C   0  0  0  0  0  0  0  0  0  0  0  0
   -6.5460   21.9260  -32.6180 C   0  0  0  0  0  0  0  0  0  0  0  0
   -6.1910   23.0850  -31.9320 C   0  0  0  0  0  0  0  0  0  0  0  0
   -4.8670   23.2980  -31.5400 C   0  0  0  0  0  0  0  0  0  0  0  0
   -4.5630   24.4900  -30.8610 O   0  0  0  0  0  0  0  0  0  0  0  0
   -5.2250   24.9690  -29.6900 C   0  0  0  0  0  0  0  0  0  0  0  0
   -4.6010   24.3650  -28.4310 C   0  0  0  0  0  0  0  0  0  0  0  0
   -3.4100   23.5960  -28.7800 N   0  0  0  0  0  0  0  0  0  0  0  0
   -3.2490   21.9490  -28.6550 S   0  0  0  0  0  0  0  0  0  0  0  0
   -1.6440   21.7940  -29.1060 C   0  0  0  0  0  0  0  0  0  0  0  0
   -1.2000   23.0930  -29.3540 C   0  0  0  0  0  0  0  0  0  0  0  0
   -2.1960   24.0700  -29.1570 C   0  0  0  0  0  0  0  0  0  0  0  0
   -1.9740   25.3000  -29.3140 O   0  0  0  0  0  0  0  0  0  0  0  0
   -3.8980   22.3220  -31.8400 C   0  0  0  0  0  0  0  0  0  0  0  0
   -4.2440   21.1380  -32.5270 C   0  0  0  0  0  0  0  0  0  0  0  0
   -3.1630   20.1310  -32.9400 C   0  0  0  0  0  0  0  0  0  0  0  0
   -2.3550   19.6840  -31.7020 C   0  0  0  0  0  0  0  0  0  0  0  0
   -2.2210   20.8090  -33.9580 C   0  0  0  0  0  0  0  0  0  0  0  0
   -3.7490   18.8780  -33.5900 C   0  0  0  0  0  0  0  0  0  0  0  0
   -2.9860   18.0400  -34.0540 O   0  0  0  0  0  0  0  0  0  0  0  0
   -5.3314   18.3889  -31.4270 H   0  0  0  0  0  0  0  0  0  0  0  0
   -6.6765   17.5870  -32.3069 H   0  0  0  0  0  0  0  0  0  0  0  0
   -5.0382   16.8506  -32.3069 H   0  0  0  0  0  0  0  0  0  0  0  0
   -6.1307   16.8475  -34.5143 H   0  0  0  0  0  0  0  0  0  0  0  0
   -6.3578   18.3777  -35.4272 H   0  0  0  0  0  0  0  0  0  0  0  0
   -4.7580   17.5609  -35.4272 H   0  0  0  0  0  0  0  0  0  0  0  0
   -7.5892   21.7755  -32.9329 H   0  0  0  0  0  0  0  0  0  0  0  0
   -6.9581   23.8376  -31.6973 H   0  0  0  0  0  0  0  0  0  0  0  0
   -5.1357   26.0645  -29.6473 H   0  0  0  0  0  0  0  0  0  0  0  0
   -6.2837   24.6739  -29.7365 H   0  0  0  0  0  0  0  0  0  0  0  0
   -4.3221   25.1737  -27.7394 H   0  0  0  0  0  0  0  0  0  0  0  0
   -5.3324   23.6977  -27.9516 H   0  0  0  0  0  0  0  0  0  0  0  0
   -1.0624   20.8641  -29.1892 H   0  0  0  0  0  0  0  0  0  0  0  0
   -0.1741   23.3310  -29.6718 H   0  0  0  0  0  0  0  0  0  0  0  0
   -2.8539   22.4844  -31.5341 H   0  0  0  0  0  0  0  0  0  0  0  0
   -2.8906   19.9803  -30.7880 H   0  0  0  0  0  0  0  0  0  0  0  0
   -2.2342   18.5908  -31.7181 H   0  0  0  0  0  0  0  0  0  0  0  0
   -1.3647   20.1626  -31.7181 H   0  0  0  0  0  0  0  0  0  0  0  0
   -1.4422   21.3695  -33.4201 H   0  0  0  0  0  0  0  0  0  0  0  0
   -1.7501   20.0413  -34.5896 H   0  0  0  0  0  0  0  0  0  0  0  0
   -2.7995   21.4992  -34.5896 H   0  0  0  0  0  0  0  0  0  0  0  0
  1  2  1  0
  2  3  1  0
  2  4  1  0
  4  5  1  0
  5  6  2  0
  6  7  1  0
  7  8  2  0
  8  9  1  0
  9 10  1  0
 10 11  1  0
 11 12  1  0
 12 13  1  0
 13 14  1  0
 14 15  2  0
 15 16  1  0
 16 17  2  0
  8 18  1  0
 18 19  2  0
 19 20  1  0
 20 21  1  0
 20 22  1  0
 20 23  1  0
 23 24  2  0
 23  2  1  0
 19  5  1  0
 16 12  1  0
  1 25  1  0
  1 26  1  0
  1 27  1  0
  3 28  1  0
  3 29  1  0
  3 30  1  0
  6 31  1  0
  7 32  1  0
 10 33  1  0
 10 34  1  0
 11 35  1  0
 11 36  1  0
 14 37  1  0
 15 38  1  0
 18 39  1  0
 21 40  1  0
 21 41  1  0
 21 42  1  0
 22 43  1  0
 22 44  1  0
 22 45  1  0
M  END
>  <UniqueID>  (29) 
27

>  <SMILES>  (29) 
CC1(C)Oc2ccc(OCCn3sccc3=O)cc2C(C)(C)C1=O

>  <Energy>  (29) 
76.37041851576299

>  <Genealogy>  (29) 
CC1(C)Oc2ccc(OCCn3sccc3=O)cc2C(C)(C)C1=O (3D coordinates assigned)
CC1(C)Oc2ccc(OCCn3sccc3=O)cc2C(C)(C)C1=O (nonaromatic ring conformer: 76.37041851576299 kcal/mol)

>  <smiles>  (29) 
CC1(C)Oc2ccc(OCCn3sccc3=O)cc2C(C)(C)C1=O

>  <score_type>  (29) 
oracle

>  <origin>  (29) 
adg

>  <m_score__min__energy>  (29) 
-7.8200000000000003

>  <m_primary>  (29) 
energy

$$$$
29:0
     RDKit          3D

 83 87  0  0  0  0  0  0  0  0999 V2000
   -0.0360   19.2700  -29.5970 C   0  0  0  0  0  0  0  0  0  0  0  0
    0.4490   19.7960  -30.9430 C   0  0  0  0  0  0  0  0  0  0  0  0
   -0.0780   21.0990  -31.1960 O   0  0  0  0  0  0  0  0  0  0  0  0
   -0.8990   21.8410  -30.3270 C   0  0  0  0  0  0  0  0  0  0  0  0
   -0.3590   22.7080  -29.3570 C   0  0  0  0  0  0  0  0  0  0  0  0
   -1.1950   23.4760  -28.5430 C   0  0  0  0  0  0  0  0  0  0  0  0
   -0.6620   24.2870  -27.6350 O   0  0  0  0  0  0  0  0  0  0  0  0
   -1.3880   25.0550  -26.8230 C   0  0  0  0  0  0  0  0  0  0  0  0
   -0.6840   25.9180  -25.8390 C   0  0  0  0  0  0  0  0  0  0  0  0
   -1.0930   25.9040  -24.4940 C   0  0  0  0  0  0  0  0  0  0  0  0
   -0.4570   26.7120  -23.5500 C   0  0  0  0  0  0  0  0  0  0  0  0
    0.6020   27.5390  -23.9270 C   0  0  0  0  0  0  0  0  0  0  0  0
    1.2060   28.3490  -22.9710 O   0  0  0  0  0  0  0  0  0  0  0  0
    1.0490   27.5460  -25.2610 C   0  0  0  0  0  0  0  0  0  0  0  0
    2.1720   28.4550  -25.6910 C   0  0  0  0  0  0  0  0  0  0  0  0
    1.6040   29.7380  -26.2500 C   0  0  0  0  0  0  0  0  0  0  0  0
    0.2880   30.0510  -26.2790 C   0  0  0  0  0  0  0  0  0  0  0  0
   -0.4810   30.4100  -25.0330 C   0  0  0  0  0  0  0  0  0  0  0  0
   -0.4480   30.0730  -27.5950 C   0  0  0  0  0  0  0  0  0  0  0  0
    0.3990   26.7390  -26.2100 C   0  0  0  0  0  0  0  0  0  0  0  0
   -2.7910   25.0140  -26.9070 C   0  0  0  0  0  0  0  0  0  0  0  0
   -3.3960   24.1810  -27.8480 C   0  0  0  0  0  0  0  0  0  0  0  0
   -4.6550   24.1440  -27.9300 O   0  0  0  0  0  0  0  0  0  0  0  0
   -2.5940   23.3930  -28.6900 C   0  0  0  0  0  0  0  0  0  0  0  0
   -3.1380   22.5270  -29.6510 C   0  0  0  0  0  0  0  0  0  0  0  0
   -2.3030   21.7350  -30.4560 C   0  0  0  0  0  0  0  0  0  0  0  0
   -2.9310   20.8200  -31.4370 C   0  0  0  0  0  0  0  0  0  0  0  0
   -2.2750   20.4600  -32.6230 C   0  0  0  0  0  0  0  0  0  0  0  0
   -2.8990   19.5820  -33.5110 C   0  0  0  0  0  0  0  0  0  0  0  0
   -2.3040   19.2630  -34.5750 O   0  0  0  0  0  0  0  0  0  0  0  0
   -4.1730   19.0680  -33.1970 C   0  0  0  0  0  0  0  0  0  0  0  0
   -4.8740   18.1730  -34.0360 C   0  0  0  0  0  0  0  0  0  0  0  0
   -4.3410   17.7490  -35.2500 O   0  0  0  0  0  0  0  0  0  0  0  0
   -6.1330   17.6970  -33.6550 C   0  0  0  0  0  0  0  0  0  0  0  0
   -6.7150   18.1010  -32.4380 C   0  0  0  0  0  0  0  0  0  0  0  0
   -7.9750   17.6490  -32.0190 O   0  0  0  0  0  0  0  0  0  0  0  0
   -9.0030   18.4910  -31.4990 C   0  0  0  0  0  0  0  0  0  0  0  0
   -8.7040   19.9210  -31.8460 C   0  0  0  0  0  0  0  0  0  0  0  0
   -8.7640   20.2780  -33.0520 O   0  0  0  0  0  0  0  0  0  0  0  0
   -8.4080   20.9120  -30.8510 N   0  0  0  0  0  0  0  0  0  0  0  0
   -8.4590   22.3610  -31.0290 C   0  0  0  0  0  0  0  0  0  0  0  0
   -7.4240   22.8220  -32.0660 C   0  0  0  0  0  0  0  0  0  0  0  0
   -6.1240   23.1110  -31.4220 N   0  0  0  0  0  0  0  0  0  0  0  0
   -6.1240   24.4800  -30.8810 C   0  0  0  0  0  0  0  0  0  0  0  0
   -5.0120   22.9650  -32.3790 C   0  0  0  0  0  0  0  0  0  0  0  0
   -6.0210   18.9850  -31.6090 C   0  0  0  0  0  0  0  0  0  0  0  0
   -4.7620   19.4700  -31.9750 C   0  0  0  0  0  0  0  0  0  0  0  0
   -4.1280   20.3090  -31.1630 O   0  0  0  0  0  0  0  0  0  0  0  0
    0.4681   19.8167  -28.7865 H   0  0  0  0  0  0  0  0  0  0  0  0
   -1.1233   19.4157  -29.5166 H   0  0  0  0  0  0  0  0  0  0  0  0
    0.1972   18.1980  -29.5166 H   0  0  0  0  0  0  0  0  0  0  0  0
    1.5478   19.8461  -30.9363 H   0  0  0  0  0  0  0  0  0  0  0  0
    0.1025   19.1149  -31.7342 H   0  0  0  0  0  0  0  0  0  0  0  0
    0.7322   22.7810  -29.2393 H   0  0  0  0  0  0  0  0  0  0  0  0
   -1.9214   25.2506  -24.1828 H   0  0  0  0  0  0  0  0  0  0  0  0
   -0.7926   26.6968  -22.5026 H   0  0  0  0  0  0  0  0  0  0  0  0
    2.8088   28.6845  -24.8239 H   0  0  0  0  0  0  0  0  0  0  0  0
    2.7696   27.9534  -26.4664 H   0  0  0  0  0  0  0  0  0  0  0  0
    2.3118   30.4714  -26.6637 H   0  0  0  0  0  0  0  0  0  0  0  0
    0.1087   30.1347  -24.1461 H   0  0  0  0  0  0  0  0  0  0  0  0
   -0.6765   31.4924  -25.0219 H   0  0  0  0  0  0  0  0  0  0  0  0
   -1.4363   29.8648  -25.0219 H   0  0  0  0  0  0  0  0  0  0  0  0
   -1.5316   30.1054  -27.4086 H   0  0  0  0  0  0  0  0  0  0  0  0
   -0.1478   30.9626  -28.1682 H   0  0  0  0  0  0  0  0  0  0  0  0
   -0.2015   29.1671  -28.1682 H   0  0  0  0  0  0  0  0  0  0  0  0
    0.7401   26.7484  -27.2557 H   0  0  0  0  0  0  0  0  0  0  0  0
   -3.4056   25.6330  -26.2369 H   0  0  0  0  0  0  0  0  0  0  0  0
   -4.2294   22.4679  -29.7750 H   0  0  0  0  0  0  0  0  0  0  0  0
   -1.2783   20.8655  -32.8514 H   0  0  0  0  0  0  0  0  0  0  0  0
   -6.6737   17.0003  -34.3125 H   0  0  0  0  0  0  0  0  0  0  0  0
   -9.9698   18.2021  -31.9370 H   0  0  0  0  0  0  0  0  0  0  0  0
   -9.0477   18.3813  -30.4054 H   0  0  0  0  0  0  0  0  0  0  0  0
   -9.4644   22.6467  -31.3719 H   0  0  0  0  0  0  0  0  0  0  0  0
   -8.2306   22.8418  -30.0664 H   0  0  0  0  0  0  0  0  0  0  0  0
   -7.2863   22.0281  -32.8149 H   0  0  0  0  0  0  0  0  0  0  0  0
   -7.7914   23.7419  -32.5443 H   0  0  0  0  0  0  0  0  0  0  0  0
   -5.0869   24.8210  -30.7462 H   0  0  0  0  0  0  0  0  0  0  0  0
   -6.6425   25.1511  -31.5815 H   0  0  0  0  0  0  0  0  0  0  0  0
   -6.6425   24.4909  -29.9110 H   0  0  0  0  0  0  0  0  0  0  0  0
   -4.0680   22.8411  -31.8281 H   0  0  0  0  0  0  0  0  0  0  0  0
   -5.1861   22.0820  -33.0115 H   0  0  0  0  0  0  0  0  0  0  0  0
   -4.9523   23.8630  -33.0115 H   0  0  0  0  0  0  0  0  0  0  0  0
   -6.4703   19.3034  -30.6568 H   0  0  0  0  0  0  0  0  0  0  0  0
  1  2  1  0
  2  3  1  0
  3  4  1  0
  4  5  2  0
  5  6  1  0
  6  7  1  0
  7  8  1  0
  8  9  1  0
  9 10  2  0
 10 11  1  0
 11 12  2  0
 12 13  1  0
 12 14  1  0
 14 15  1  0
 15 16  1  0
 16 17  2  3
 17 18  1  0
 17 19  1  0
 14 20  2  0
  8 21  2  0
 21 22  1  0
 22 23  2  0
 22 24  1  0
 24 25  1  0
 25 26  2  0
 26 27  1  0
 27 28  2  0
 28 29  1  0
 29 30  2  0
 29 31  1  0
 31 32  2  0
 32 33  1  0
 32 34  1  0
 34 35  2  0
 35 36  1  0
 36 37  1  0
 37 38  1  0
 38 39  2  0
 38 40  1  0
 40 41  1  0
 41 42  1  0
 42 43  1  0
 43 44  1  0
 43 45  1  0
 35 46  1  0
 46 47  2  0
 47 48  1  0
 26  4  1  0
 48 27  1  0
 24  6  2  0
 47 31  1  0
 20  9  1  0
  1 49  1  0
  1 50  1  0
  1 51  1  0
  2 52  1  0
  2 53  1  0
  5 54  1  0
 10 55  1  0
 11 56  1  0
 15 57  1  0
 15 58  1  0
 16 59  1  0
 18 60  1  0
 18 61  1  0
 18 62  1  0
 19 63  1  0
 19 64  1  0
 19 65  1  0
 20 66  1  0
 21 67  1  0
 25 68  1  0
 28 69  1  0
 34 70  1  0
 37 71  1  0
 37 72  1  0
 41 73  1  0
 41 74  1  0
 42 75  1  0
 42 76  1  0
 44 77  1  0
 44 78  1  0
 44 79  1  0
 45 80  1  0
 45 81  1  0
 45 82  1  0
 46 83  1  0
M  CHG  3  13  -1  33  -1  40  -1
M  END
>  <UniqueID>  (30) 
28

>  <SMILES>  (30) 
CCOc1cc2oc(-c3ccc([O-])c(CC=C(C)C)c3)cc(=O)c2cc1-c1cc(=O)c2c([O-])cc(OCC(=O)[N-]CCN(C)C)cc2o1

>  <Energy>  (30) 
102.31728593961941

>  <Genealogy>  (30) 
CCOc1cc2oc(-c3ccc([O-])c(CC=C(C)C)c3)cc(=O)c2cc1-c1cc(=O)c2c([O-])cc(OCC(=O)[N-]CCN(C)C)cc2o1 (protonated)
CCOc1cc2oc(-c3ccc([O-])c(CC=C(C)C)c3)cc(=O)c2cc1-c1cc(=O)c2c([O-])cc(OCC(=O)[N-]CCN(C)C)cc2o1 (3D coordinates assigned)
CCOc1cc2oc(-c3ccc([O-])c(CC=C(C)C)c3)cc(=O)c2cc1-c1cc(=O)c2c([O-])cc(OCC(=O)[N-]CCN(C)C)cc2o1 (optimized conformer: 102.31728593961941 kcal/mol)

>  <smiles>  (30) 
CCOc1cc2oc(-c3ccc(O)c(CC=C(C)C)c3)cc(=O)c2cc1-c1cc(=O)c2c(O)cc(OCC(=O)NCCN(C)C)cc2o1

>  <score_type>  (30) 
oracle

>  <origin>  (30) 
adg

>  <m_score__min__energy>  (30) 
-7.6699999999999999

>  <m_primary>  (30) 
energy

$$$$
30:0
     RDKit          3D

 43 44  0  0  0  0  0  0  0  0999 V2000
   -2.8950   19.0070  -26.4880 C   0  0  0  0  0  0  0  0  0  0  0  0
   -1.9450   19.7860  -27.3980 C   0  0  0  0  0  0  0  0  0  0  0  0
   -2.4270   21.2290  -27.6030 C   0  0  0  0  0  0  0  0  0  0  0  0
   -1.2910   22.2300  -27.3400 C   0  0  0  0  0  0  0  0  0  0  0  0
   -1.7430   23.6990  -27.4770 C   0  0  0  0  0  0  0  0  0  0  0  0
   -1.3550   24.3510  -28.8140 C   0  0  0  0  0  0  0  0  0  0  0  0
   -2.4430   25.1670  -29.3400 N   0  0  0  0  0  0  0  0  0  0  0  0
   -3.5630   24.6440  -30.0610 C   0  0  0  0  0  0  0  0  0  0  0  0
   -4.2130   25.3800  -30.8530 O   0  0  0  0  0  0  0  0  0  0  0  0
   -3.9980   23.2310  -29.8310 C   0  0  0  0  0  0  0  0  0  0  0  0
   -3.6040   22.3550  -31.0010 C   0  0  0  0  0  0  0  0  0  0  0  0
   -2.2410   22.0470  -31.1790 C   0  0  0  0  0  0  0  0  0  0  0  0
   -1.8160   21.3060  -32.2830 C   0  0  0  0  0  0  0  0  0  0  0  0
   -2.7390   20.8690  -33.2300 C   0  0  0  0  0  0  0  0  0  0  0  0
   -4.0960   21.1640  -33.0740 C   0  0  0  0  0  0  0  0  0  0  0  0
   -4.5460   21.8950  -31.9630 C   0  0  0  0  0  0  0  0  0  0  0  0
   -5.9920   22.1810  -31.8630 C   0  0  0  0  0  0  0  0  0  0  0  0
   -6.5740   23.4400  -31.9800 C   0  0  0  0  0  0  0  0  0  0  0  0
   -7.9730   23.4120  -31.9110 C   0  0  0  0  0  0  0  0  0  0  0  0
   -8.5010   22.1350  -31.7650 C   0  0  0  0  0  0  0  0  0  0  0  0
   -7.2250   21.0400  -31.7220 S   0  0  0  0  0  0  0  0  0  0  0  0
   -2.6455   19.2116  -25.4364 H   0  0  0  0  0  0  0  0  0  0  0  0
   -3.9310   19.3190  -26.6864 H   0  0  0  0  0  0  0  0  0  0  0  0
   -2.7920   17.9300  -26.6864 H   0  0  0  0  0  0  0  0  0  0  0  0
   -0.9448   19.8039  -26.9405 H   0  0  0  0  0  0  0  0  0  0  0  0
   -1.9159   19.2871  -28.3779 H   0  0  0  0  0  0  0  0  0  0  0  0
   -2.7786   21.3474  -28.6385 H   0  0  0  0  0  0  0  0  0  0  0  0
   -3.2437   21.4305  -26.8941 H   0  0  0  0  0  0  0  0  0  0  0  0
   -0.9135   22.0725  -26.3189 H   0  0  0  0  0  0  0  0  0  0  0  0
   -0.5119   22.0520  -28.0958 H   0  0  0  0  0  0  0  0  0  0  0  0
   -2.8381   23.7343  -27.3800 H   0  0  0  0  0  0  0  0  0  0  0  0
   -1.2290   24.2650  -26.6862 H   0  0  0  0  0  0  0  0  0  0  0  0
   -0.4716   24.9880  -28.6592 H   0  0  0  0  0  0  0  0  0  0  0  0
   -1.1368   23.5533  -29.5393 H   0  0  0  0  0  0  0  0  0  0  0  0
   -3.5196   22.8498  -28.9168 H   0  0  0  0  0  0  0  0  0  0  0  0
   -5.0927   23.2098  -29.7250 H   0  0  0  0  0  0  0  0  0  0  0  0
   -1.5037   22.3941  -30.4401 H   0  0  0  0  0  0  0  0  0  0  0  0
   -0.7494   21.0666  -32.4053 H   0  0  0  0  0  0  0  0  0  0  0  0
   -2.3993   20.2908  -34.1020 H   0  0  0  0  0  0  0  0  0  0  0  0
   -4.8185   20.8202  -33.8289 H   0  0  0  0  0  0  0  0  0  0  0  0
   -5.9934   24.3647  -32.1133 H   0  0  0  0  0  0  0  0  0  0  0  0
   -8.5957   24.3170  -31.9672 H   0  0  0  0  0  0  0  0  0  0  0  0
   -9.5693   21.8836  -31.6904 H   0  0  0  0  0  0  0  0  0  0  0  0
  1  2  1  0
  2  3  1  0
  3  4  1  0
  4  5  1  0
  5  6  1  0
  6  7  1  0
  7  8  1  0
  8  9  2  0
  8 10  1  0
 10 11  1  0
 11 12  2  0
 12 13  1  0
 13 14  2  0
 14 15  1  0
 15 16  2  0
 16 17  1  0
 17 18  2  0
 18 19  1  0
 19 20  2  0
 20 21  1  0
 16 11  1  0
 21 17  1  0
  1 22  1  0
  1 23  1  0
  1 24  1  0
  2 25  1  0
  2 26  1  0
  3 27  1  0
  3 28  1  0
  4 29  1  0
  4 30  1  0
  5 31  1  0
  5 32  1  0
  6 33  1  0
  6 34  1  0
 10 35  1  0
 10 36  1  0
 12 37  1  0
 13 38  1  0
 14 39  1  0
 15 40  1  0
 18 41  1  0
 19 42  1  0
 20 43  1  0
M  CHG  1   7  -1
M  END
>  <UniqueID>  (31) 
29

>  <SMILES>  (31) 
CCCCCC[N-]C(=O)Cc1ccccc1-c1cccs1

>  <Energy>  (31) 
61.512511182489234

>  <Genealogy>  (31) 
CCCCCC[N-]C(=O)Cc1ccccc1-c1cccs1 (protonated)
CCCCCC[N-]C(=O)Cc1ccccc1-c1cccs1 (3D coordinates assigned)
CCCCCC[N-]C(=O)Cc1ccccc1-c1cccs1 (optimized conformer: 61.512511182489234 kcal/mol)

>  <smiles>  (31) 
CCCCCCNC(=O)Cc1ccccc1-c1cccs1

>  <score_type>  (31) 
oracle

>  <origin>  (31) 
adg

>  <m_score__min__energy>  (31) 
-9.3200000000000003

>  <m_primary>  (31) 
energy

$$$$
31:0
     RDKit          3D

 36 38  0  0  0  0  0  0  0  0999 V2000
   -7.3311   24.3607  -30.6605 H   0  0  0  0  0  0  0  0  0  0  0  0
   -7.3300   23.7040  -31.5430 C   0  0  0  0  0  0  0  0  0  0  0  0
   -8.0896   23.8359  -32.3276 H   0  0  0  0  0  0  0  0  0  0  0  0
   -6.4050   22.7450  -31.6620 C   0  0  0  0  0  0  0  0  0  0  0  0
   -5.3780   22.4180  -30.7730 C   0  0  0  0  0  0  0  0  0  0  0  0
   -5.1170   23.0720  -29.6180 C   0  0  0  0  0  0  0  0  0  0  0  0
   -5.9414   23.1623  -28.8954 H   0  0  0  0  0  0  0  0  0  0  0  0
   -3.8300   23.6720  -29.2440 C   0  0  0  0  0  0  0  0  0  0  0  0
   -3.2450   24.8080  -29.7920 C   0  0  0  0  0  0  0  0  0  0  0  0
   -3.8670   25.6590  -30.6960 O   0  0  0  0  0  0  0  0  0  0  0  0
   -1.9770   24.9930  -29.3550 N   0  0  0  0  0  0  0  0  0  0  0  0
   -1.7560   23.9410  -28.5440 C   0  0  0  0  0  0  0  0  0  0  0  0
   -0.5770   23.6540  -27.8570 C   0  0  0  0  0  0  0  0  0  0  0  0
    0.2917   24.3260  -27.9190 H   0  0  0  0  0  0  0  0  0  0  0  0
   -0.5300   22.4800  -27.0820 C   0  0  0  0  0  0  0  0  0  0  0  0
    0.3851   22.2280  -26.5261 H   0  0  0  0  0  0  0  0  0  0  0  0
   -1.6520   21.6230  -27.0140 C   0  0  0  0  0  0  0  0  0  0  0  0
   -1.5770   20.1630  -26.0450 Cl  0  0  0  0  0  0  0  0  0  0  0  0
   -2.8290   21.9340  -27.7190 C   0  0  0  0  0  0  0  0  0  0  0  0
   -3.7072   21.2728  -27.6789 H   0  0  0  0  0  0  0  0  0  0  0  0
   -2.8450   23.1080  -28.4700 C   0  0  0  0  0  0  0  0  0  0  0  0
   -4.6820   21.3700  -31.3100 N   0  0  0  0  0  0  0  0  0  0  0  0
   -3.3710   20.8210  -30.9230 C   0  0  0  0  0  0  0  0  0  0  0  0
   -3.2540   20.9006  -29.8321 H   0  0  0  0  0  0  0  0  0  0  0  0
   -3.3224   19.7677  -31.2364 H   0  0  0  0  0  0  0  0  0  0  0  0
   -2.2420   21.5880  -31.6050 C   0  0  0  0  0  0  0  0  0  0  0  0
   -1.5872   22.0328  -30.8412 H   0  0  0  0  0  0  0  0  0  0  0  0
   -1.6577   20.8992  -32.2328 H   0  0  0  0  0  0  0  0  0  0  0  0
   -2.6671   22.3850  -32.2328 H   0  0  0  0  0  0  0  0  0  0  0  0
   -5.3050   21.1020  -32.4880 C   0  0  0  0  0  0  0  0  0  0  0  0
   -4.8570   20.0660  -33.4760 C   0  0  0  0  0  0  0  0  0  0  0  0
   -4.4764   19.1858  -32.9371 H   0  0  0  0  0  0  0  0  0  0  0  0
   -5.7074   19.7698  -34.1077 H   0  0  0  0  0  0  0  0  0  0  0  0
   -4.0587   20.4827  -34.1077 H   0  0  0  0  0  0  0  0  0  0  0  0
   -6.3530   21.9130  -32.7160 N   0  0  0  0  0  0  0  0  0  0  0  0
   -6.9790   21.9100  -33.5530 H   0  0  0  0  0  0  0  0  0  0  0  0
  1  2  1  0
  2  3  1  0
  2  4  2  0
  4  5  1  0
  5  6  2  0
  6  7  1  0
  6  8  1  0
  8  9  2  0
  9 10  1  0
  9 11  1  0
 11 12  1  0
 12 13  2  0
 13 14  1  0
 13 15  1  0
 15 16  1  0
 15 17  2  0
 17 18  1  0
 17 19  1  0
 19 20  1  0
 19 21  2  0
  5 22  1  0
 22 23  1  0
 23 24  1  0
 23 25  1  0
 23 26  1  0
 26 27  1  0
 26 28  1  0
 26 29  1  0
 22 30  1  0
 30 31  1  0
 31 32  1  0
 31 33  1  0
 31 34  1  0
 30 35  2  0
 35 36  1  0
 35  4  1  0
 21  8  1  0
 21 12  1  0
M  CHG  3  10  -1  11  -1  35   1
M  END
>  <UniqueID>  (32) 
30

>  <SMILES>  (32) 
C=c1[nH+]c(C)n(CC)/c1=C\c1c([O-])[n-]c2ccc(Cl)cc12

>  <Energy>  (32) 
113.1602912849789

>  <Genealogy>  (32) 
C=c1[nH+]c(C)n(CC)c1=Cc1c([O-])[n-]c2ccc(Cl)cc12 (protonated)
C=c1[nH+]c(C)n(CC)/c1=C\c1c([O-])[n-]c2ccc(Cl)cc12 (cis-trans isomerization)
C=c1[nH+]c(C)n(CC)/c1=C\c1c([O-])[n-]c2ccc(Cl)cc12 (3D coordinates assigned)
C=c1[nH+]c(C)n(CC)/c1=C\c1c([O-])[n-]c2ccc(Cl)cc12 (optimized conformer: 113.1602912849789 kcal/mol)

>  <smiles>  (32) 
C=c1nc(C)n(CC)c1=Cc1c(O)[nH]c2ccc(Cl)cc12

>  <score_type>  (32) 
oracle

>  <origin>  (32) 
adg

>  <m_score__min__energy>  (32) 
-11.56

>  <m_primary>  (32) 
energy

$$$$
32:0
     RDKit          3D

 41 42  0  0  1  0  0  0  0  0999 V2000
   -5.7060   17.7950  -34.9240 C   0  0  0  0  0  0  0  0  0  0  0  0
   -4.5870   18.0970  -33.9540 C   0  0  0  0  0  0  0  0  0  0  0  0
   -4.4040   19.5300  -33.8310 N   0  0  0  0  0  0  0  0  0  0  0  0
   -5.2110   20.2400  -33.1020 C   0  0  0  0  0  0  0  0  0  0  0  0
   -6.5490   20.0130  -33.0810 N   0  0  0  0  0  0  0  0  0  0  0  0
   -7.3580   20.7560  -32.3240 C   0  0  0  0  0  0  0  0  0  0  0  0
   -8.7510   20.6310  -32.2410 N   0  0  0  0  0  0  0  0  0  0  0  0
   -9.6020   21.7870  -31.9260 C   0  0  0  0  0  0  0  0  0  0  0  0
   -9.4620   19.3820  -32.4680 C   0  0  0  0  0  0  0  0  0  0  0  0
   -8.8030   18.2930  -31.6120 C   0  0  0  0  0  0  0  0  0  0  0  0
   -6.7640   21.7310  -31.5900 N   0  0  0  0  0  0  0  0  0  0  0  0
   -5.4450   21.9710  -31.5950 C   0  0  0  0  0  0  0  0  0  0  0  0
   -4.9930   23.0380  -30.7610 N   0  0  0  0  0  0  0  0  0  0  0  0
   -3.6440   23.0140  -30.2390 C   0  0  0  0  0  0  0  0  0  0  0  0
   -3.4350   24.3620  -29.5380 C   0  0  0  0  0  0  0  0  0  0  0  0
   -3.8620   25.3240  -30.4650 O   0  0  0  0  0  0  0  0  0  0  0  0
   -5.2450   25.4230  -30.4650 C   0  0  0  0  0  0  0  0  0  0  0  0
   -5.9430   24.0880  -30.4720 C   0  0  0  0  0  0  0  0  0  0  0  0
   -4.6390   21.2230  -32.3590 N   0  0  0  0  0  0  0  0  0  0  0  0
   -6.6201   17.5483  -34.3640 H   0  0  0  0  0  0  0  0  0  0  0  0
   -5.8902   18.6756  -35.5570 H   0  0  0  0  0  0  0  0  0  0  0  0
   -5.4221   16.9413  -35.5570 H   0  0  0  0  0  0  0  0  0  0  0  0
   -4.8370   17.6767  -32.9687 H   0  0  0  0  0  0  0  0  0  0  0  0
   -3.6558   17.6471  -34.3289 H   0  0  0  0  0  0  0  0  0  0  0  0
   -9.6825   21.8964  -30.8344 H   0  0  0  0  0  0  0  0  0  0  0  0
   -9.1569   22.6974  -32.3539 H   0  0  0  0  0  0  0  0  0  0  0  0
  -10.6035   21.6325  -32.3539 H   0  0  0  0  0  0  0  0  0  0  0  0
  -10.5169   19.4960  -32.1780 H   0  0  0  0  0  0  0  0  0  0  0  0
   -9.4176   19.1075  -33.5323 H   0  0  0  0  0  0  0  0  0  0  0  0
   -8.9451   18.5278  -30.5468 H   0  0  0  0  0  0  0  0  0  0  0  0
   -9.2641   17.3201  -31.8377 H   0  0  0  0  0  0  0  0  0  0  0  0
   -7.7273   18.2501  -31.8377 H   0  0  0  0  0  0  0  0  0  0  0  0
   -3.5269   22.1884  -29.5215 H   0  0  0  0  0  0  0  0  0  0  0  0
   -2.9060   22.8589  -31.0398 H   0  0  0  0  0  0  0  0  0  0  0  0
   -4.0368   24.4171  -28.6189 H   0  0  0  0  0  0  0  0  0  0  0  0
   -2.3875   24.5136  -29.2385 H   0  0  0  0  0  0  0  0  0  0  0  0
   -5.5547   25.9731  -29.5642 H   0  0  0  0  0  0  0  0  0  0  0  0
   -5.5322   25.9431  -31.3908 H   0  0  0  0  0  0  0  0  0  0  0  0
   -6.3966   23.9083  -29.4861 H   0  0  0  0  0  0  0  0  0  0  0  0
   -6.7249   24.0921  -31.2457 H   0  0  0  0  0  0  0  0  0  0  0  0
   -3.6180   21.4120  -32.3600 H   0  0  0  0  0  0  0  0  0  0  0  0
  1  2  1  0
  2  3  1  0
  3  4  2  0
  4  5  1  0
  5  6  2  0
  6  7  1  0
  7  8  1  0
  7  9  1  0
  9 10  1  0
  6 11  1  0
 11 12  2  0
 12 13  1  0
 13 14  1  0
 14 15  1  0
 15 16  1  0
 16 17  1  0
 17 18  1  0
 12 19  1  0
 19  4  1  0
 18 13  1  0
  1 20  1  0
  1 21  1  0
  1 22  1  0
  2 23  1  0
  2 24  1  0
  8 25  1  0
  8 26  1  0
  8 27  1  0
  9 28  1  0
  9 29  1  0
 10 30  1  0
 10 31  1  0
 10 32  1  0
 14 33  1  0
 14 34  1  0
 15 35  1  0
 15 36  1  0
 17 37  1  0
 17 38  1  0
 18 39  1  0
 18 40  1  0
 19 41  1  0
M  END
>  <smiles>  (33) 
CCN=c1nc(N(C)CC)nc(N2CCOCC2)[nH]1

>  <score_type>  (33) 
oracle

>  <origin>  (33) 
adg

>  <m_score__min__energy>  (33) 
-6.5999999999999996

>  <m_primary>  (33) 
energy

$$$$
33:0
     RDKit          3D

 42 43  0  0  0  0  0  0  0  0999 V2000
   -7.5410   18.5470  -31.6340 C   0  0  0  0  0  0  0  0  0  0  0  0
   -7.3650   17.6630  -32.8650 C   0  0  0  0  0  0  0  0  0  0  0  0
   -5.9490   17.2880  -33.0590 N   0  0  0  0  0  0  0  0  0  0  0  0
   -5.7510   15.8370  -33.2710 C   0  0  0  0  0  0  0  0  0  0  0  0
   -4.6490   15.2150  -32.4040 C   0  0  0  0  0  0  0  0  0  0  0  0
   -5.1120   18.2770  -34.2470 S   0  0  0  0  0  0  0  0  0  0  0  0
   -4.0550   17.4470  -34.9200 O   0  0  0  0  0  0  0  0  0  0  0  0
   -6.0840   18.7080  -35.3100 O   0  0  0  0  0  0  0  0  0  0  0  0
   -4.3380   19.7160  -33.5700 C   0  0  0  0  0  0  0  0  0  0  0  0
   -2.9840   19.9800  -33.8250 C   0  0  0  0  0  0  0  0  0  0  0  0
   -2.3580   21.0830  -33.2390 C   0  0  0  0  0  0  0  0  0  0  0  0
   -3.0790   21.9300  -32.3940 C   0  0  0  0  0  0  0  0  0  0  0  0
   -4.4350   21.6870  -32.1360 C   0  0  0  0  0  0  0  0  0  0  0  0
   -5.1520   22.5570  -31.2470 N   0  0  0  0  0  0  0  0  0  0  0  0
   -6.5700   22.7730  -31.3190 C   0  0  0  0  0  0  0  0  0  0  0  0
   -7.2200   22.4310  -32.3450 O   0  0  0  0  0  0  0  0  0  0  0  0
   -7.2880   23.4130  -30.1720 C   0  0  0  0  0  0  0  0  0  0  0  0
   -6.8630   25.1840  -30.0730 S   0  0  0  0  0  0  0  0  0  0  0  0
   -5.1190   24.8990  -29.7790 C   0  0  0  0  0  0  0  0  0  0  0  0
   -4.6400   24.2790  -28.6850 N   0  0  0  0  0  0  0  0  0  0  0  0
   -3.3130   24.2940  -28.9220 C   0  0  0  0  0  0  0  0  0  0  0  0
   -3.0100   24.8850  -30.0920 N   0  0  0  0  0  0  0  0  0  0  0  0
   -4.1520   25.2680  -30.6350 N   0  0  0  0  0  0  0  0  0  0  0  0
   -5.0510   20.5590  -32.7060 C   0  0  0  0  0  0  0  0  0  0  0  0
   -7.4199   17.9388  -30.7255 H   0  0  0  0  0  0  0  0  0  0  0  0
   -6.7841   19.3452  -31.6445 H   0  0  0  0  0  0  0  0  0  0  0  0
   -8.5458   18.9944  -31.6445 H   0  0  0  0  0  0  0  0  0  0  0  0
   -7.9636   16.7489  -32.7382 H   0  0  0  0  0  0  0  0  0  0  0  0
   -7.6987   18.2274  -33.7482 H   0  0  0  0  0  0  0  0  0  0  0  0
   -6.6974   15.3239  -33.0450 H   0  0  0  0  0  0  0  0  0  0  0  0
   -5.4353   15.7126  -34.3173 H   0  0  0  0  0  0  0  0  0  0  0  0
   -4.8961   15.3544  -31.3412 H   0  0  0  0  0  0  0  0  0  0  0  0
   -4.5718   14.1401  -32.6245 H   0  0  0  0  0  0  0  0  0  0  0  0
   -3.6889   15.7044  -32.6245 H   0  0  0  0  0  0  0  0  0  0  0  0
   -2.4125   19.3154  -34.4895 H   0  0  0  0  0  0  0  0  0  0  0  0
   -1.2961   21.2847  -33.4433 H   0  0  0  0  0  0  0  0  0  0  0  0
   -2.5797   22.7925  -31.9285 H   0  0  0  0  0  0  0  0  0  0  0  0
   -4.6080   23.0980  -30.5390 H   0  0  0  0  0  0  0  0  0  0  0  0
   -8.3731   23.3072  -30.3179 H   0  0  0  0  0  0  0  0  0  0  0  0
   -6.9850   22.9181  -29.2375 H   0  0  0  0  0  0  0  0  0  0  0  0
   -2.5634   23.8712  -28.2369 H   0  0  0  0  0  0  0  0  0  0  0  0
   -6.1024   20.3358  -32.4718 H   0  0  0  0  0  0  0  0  0  0  0  0
  1  2  1  0
  2  3  1  0
  3  4  1  0
  4  5  1  0
  3  6  1  0
  6  7  2  0
  6  8  2  0
  6  9  1  0
  9 10  2  0
 10 11  1  0
 11 12  2  0
 12 13  1  0
 13 14  1  0
 14 15  1  0
 15 16  2  0
 15 17  1  0
 17 18  1  0
 18 19  1  0
 19 20  1  0
 20 21  2  0
 21 22  1  0
 22 23  1  0
 13 24  2  0
 24  9  1  0
 23 19  2  0
  1 25  1  0
  1 26  1  0
  1 27  1  0
  2 28  1  0
  2 29  1  0
  4 30  1  0
  4 31  1  0
  5 32  1  0
  5 33  1  0
  5 34  1  0
 10 35  1  0
 11 36  1  0
 12 37  1  0
 14 38  1  0
 17 39  1  0
 17 40  1  0
 21 41  1  0
 24 42  1  0
M  CHG  1  22  -1
M  END
>  <UniqueID>  (34) 
31

>  <SMILES>  (34) 
CCN(CC)S(=O)(=O)c1cccc(NC(=O)CSc2nc[n-]n2)c1

>  <Energy>  (34) 
71.16567402706883

>  <Genealogy>  (34) 
CCN(CC)S(=O)(=O)c1cccc(NC(=O)CSc2nc[n-]n2)c1 (protonated)
CCN(CC)S(=O)(=O)c1cccc(NC(=O)CSc2nc[n-]n2)c1 (3D coordinates assigned)
CCN(CC)S(=O)(=O)c1cccc(NC(=O)CSc2nc[n-]n2)c1 (optimized conformer: 71.16567402706883 kcal/mol)

>  <smiles>  (34) 
CCN(CC)S(=O)(=O)c1cccc(NC(=O)CSc2nc[nH]n2)c1

>  <score_type>  (34) 
oracle

>  <origin>  (34) 
adg

>  <m_score__min__energy>  (34) 
-8.5700000000000003

>  <m_primary>  (34) 
energy

$$$$
34:0
     RDKit          3D

 51 55  0  0  0  0  0  0  0  0999 V2000
   -5.2450   26.3840  -30.5610 O   0  0  0  0  0  0  0  0  0  0  0  0
   -4.8390   25.1930  -30.5330 C   0  0  0  0  0  0  0  0  0  0  0  0
   -3.4980   24.9310  -30.1030 N   0  0  0  0  0  0  0  0  0  0  0  0
   -3.0930   23.8130  -29.3030 C   0  0  0  0  0  0  0  0  0  0  0  0
   -4.0650   22.5100  -28.8860 S   0  0  0  0  0  0  0  0  0  0  0  0
   -2.8970   21.7170  -27.9730 C   0  0  0  0  0  0  0  0  0  0  0  0
   -1.7070   22.4640  -27.9820 C   0  0  0  0  0  0  0  0  0  0  0  0
   -1.8400   23.6720  -28.7140 C   0  0  0  0  0  0  0  0  0  0  0  0
   -0.7440   24.6870  -28.9230 C   0  0  0  0  0  0  0  0  0  0  0  0
   -0.4920   25.4170  -27.6820 N   0  0  0  0  0  0  0  0  0  0  0  0
   -1.4040   26.0490  -26.9180 C   0  0  0  0  0  0  0  0  0  0  0  0
   -0.7410   26.6620  -25.8760 C   0  0  0  0  0  0  0  0  0  0  0  0
    0.5760   26.4130  -26.0000 N   0  0  0  0  0  0  0  0  0  0  0  0
    0.7030   25.6580  -27.1070 C   0  0  0  0  0  0  0  0  0  0  0  0
   -0.4230   22.0710  -27.2690 C   0  0  0  0  0  0  0  0  0  0  0  0
    0.1240   20.6550  -27.5450 C   0  0  0  0  0  0  0  0  0  0  0  0
   -0.7300   19.5410  -26.9180 C   0  0  0  0  0  0  0  0  0  0  0  0
   -2.0940   19.3570  -27.6120 C   0  0  0  0  0  0  0  0  0  0  0  0
   -3.1450   20.4220  -27.2630 C   0  0  0  0  0  0  0  0  0  0  0  0
   -5.7490   24.1070  -30.9730 C   0  0  0  0  0  0  0  0  0  0  0  0
   -7.0970   24.1460  -30.6140 C   0  0  0  0  0  0  0  0  0  0  0  0
   -7.9300   23.1460  -30.9840 N   0  0  0  0  0  0  0  0  0  0  0  0
   -7.4870   22.0910  -31.7140 C   0  0  0  0  0  0  0  0  0  0  0  0
   -8.3880   21.0780  -32.0600 C   0  0  0  0  0  0  0  0  0  0  0  0
   -7.9470   19.9920  -32.8100 C   0  0  0  0  0  0  0  0  0  0  0  0
   -6.6140   19.9250  -33.2080 C   0  0  0  0  0  0  0  0  0  0  0  0
   -5.7360   20.9500  -32.8530 C   0  0  0  0  0  0  0  0  0  0  0  0
   -6.1690   22.0220  -32.1120 N   0  0  0  0  0  0  0  0  0  0  0  0
   -5.3020   23.0290  -31.7620 C   0  0  0  0  0  0  0  0  0  0  0  0
   -4.1030   23.0030  -32.1570 O   0  0  0  0  0  0  0  0  0  0  0  0
    0.1758   24.1703  -29.2343 H   0  0  0  0  0  0  0  0  0  0  0  0
   -1.0558   25.3982  -29.7021 H   0  0  0  0  0  0  0  0  0  0  0  0
   -2.4895   26.0720  -27.0948 H   0  0  0  0  0  0  0  0  0  0  0  0
   -1.2098   27.2552  -25.0771 H   0  0  0  0  0  0  0  0  0  0  0  0
    1.3430   26.7460  -25.3740 H   0  0  0  0  0  0  0  0  0  0  0  0
    1.6624   25.2843  -27.4942 H   0  0  0  0  0  0  0  0  0  0  0  0
    0.3546   22.7909  -27.5642 H   0  0  0  0  0  0  0  0  0  0  0  0
   -0.6764   22.0767  -26.1986 H   0  0  0  0  0  0  0  0  0  0  0  0
    0.1568   20.4993  -28.6334 H   0  0  0  0  0  0  0  0  0  0  0  0
    1.1229   20.5965  -27.0880 H   0  0  0  0  0  0  0  0  0  0  0  0
   -0.1735   18.5945  -26.9847 H   0  0  0  0  0  0  0  0  0  0  0  0
   -0.9303   19.8305  -25.8758 H   0  0  0  0  0  0  0  0  0  0  0  0
   -1.9304   19.3816  -28.6995 H   0  0  0  0  0  0  0  0  0  0  0  0
   -2.4958   18.3975  -27.2543 H   0  0  0  0  0  0  0  0  0  0  0  0
   -4.1384   20.0461  -27.5489 H   0  0  0  0  0  0  0  0  0  0  0  0
   -3.0848   20.6135  -26.1815 H   0  0  0  0  0  0  0  0  0  0  0  0
   -7.4838   24.9928  -30.0281 H   0  0  0  0  0  0  0  0  0  0  0  0
   -9.4389   21.1397  -31.7410 H   0  0  0  0  0  0  0  0  0  0  0  0
   -8.6476   19.1905  -33.0871 H   0  0  0  0  0  0  0  0  0  0  0  0
   -6.2554   19.0692  -33.7987 H   0  0  0  0  0  0  0  0  0  0  0  0
   -4.6841   20.8986  -33.1707 H   0  0  0  0  0  0  0  0  0  0  0  0
  1  2  2  0
  2  3  1  0
  3  4  1  0
  4  5  1  0
  5  6  1  0
  6  7  2  0
  7  8  1  0
  8  9  1  0
  9 10  1  0
 10 11  1  0
 11 12  2  0
 12 13  1  0
 13 14  2  0
  7 15  1  0
 15 16  1  0
 16 17  1  0
 17 18  1  0
 18 19  1  0
  2 20  1  0
 20 21  2  0
 21 22  1  0
 22 23  2  0
 23 24  1  0
 24 25  2  0
 25 26  1  0
 26 27  2  0
 27 28  1  0
 28 29  1  0
 29 30  2  0
  8  4  2  0
 14 10  1  0
 29 20  1  0
 19  6  1  0
 28 23  1  0
  9 31  1  0
  9 32  1  0
 11 33  1  0
 12 34  1  0
 13 35  1  0
 14 36  1  0
 15 37  1  0
 15 38  1  0
 16 39  1  0
 16 40  1  0
 17 41  1  0
 17 42  1  0
 18 43  1  0
 18 44  1  0
 19 45  1  0
 19 46  1  0
 21 47  1  0
 24 48  1  0
 25 49  1  0
 26 50  1  0
 27 51  1  0
M  CHG  2   3  -1  13   1
M  END
>  <UniqueID>  (35) 
32

>  <SMILES>  (35) 
O=C([N-]c1sc2c(c1Cn1cc[nH+]c1)CCCCC2)c1cnc2ccccn2c1=O

>  <Energy>  (35) 
128.44141405928042

>  <Genealogy>  (35) 
O=C([N-]c1sc2c(c1Cn1cc[nH+]c1)CCCCC2)c1cnc2ccccn2c1=O (protonated)
O=C([N-]c1sc2c(c1Cn1cc[nH+]c1)CCCCC2)c1cnc2ccccn2c1=O (3D coordinates assigned)
O=C([N-]c1sc2c(c1Cn1cc[nH+]c1)CCCCC2)c1cnc2ccccn2c1=O (nonaromatic ring conformer: 128.44141405928042 kcal/mol)

>  <smiles>  (35) 
O=C(Nc1sc2c(c1Cn1ccnc1)CCCCC2)c1cnc2ccccn2c1=O

>  <score_type>  (35) 
oracle

>  <origin>  (35) 
adg

>  <m_score__min__energy>  (35) 
-8.7899999999999991

>  <m_primary>  (35) 
energy

$$$$
35:0
     RDKit          3D

 42 44  0  0  0  0  0  0  0  0999 V2000
   -6.1510   25.6770  -29.0770 C   0  0  0  0  0  0  0  0  0  0  0  0
   -6.8590   24.8970  -29.8970 C   0  0  0  0  0  0  0  0  0  0  0  0
   -6.3720   24.5430  -31.2740 C   0  0  0  0  0  0  0  0  0  0  0  0
   -5.3210   23.5230  -31.2110 N   0  0  0  0  0  0  0  0  0  0  0  0
   -5.4380   22.1900  -31.4160 C   0  0  0  0  0  0  0  0  0  0  0  0
   -6.6970   21.4900  -31.7370 C   0  0  0  0  0  0  0  0  0  0  0  0
   -6.7360   20.5350  -32.7640 C   0  0  0  0  0  0  0  0  0  0  0  0
   -7.9310   19.8750  -33.0650 C   0  0  0  0  0  0  0  0  0  0  0  0
   -9.0910   20.1610  -32.3400 C   0  0  0  0  0  0  0  0  0  0  0  0
   -9.0560   21.1040  -31.3090 C   0  0  0  0  0  0  0  0  0  0  0  0
   -7.8640   21.7670  -31.0060 C   0  0  0  0  0  0  0  0  0  0  0  0
   -4.2060   21.5950  -31.1790 C   0  0  0  0  0  0  0  0  0  0  0  0
   -3.9100   20.1240  -31.2080 C   0  0  0  0  0  0  0  0  0  0  0  0
   -3.3250   22.5600  -30.8230 N   0  0  0  0  0  0  0  0  0  0  0  0
   -1.9370   22.3940  -30.3810 C   0  0  0  0  0  0  0  0  0  0  0  0
   -1.6460   23.3070  -29.2220 C   0  0  0  0  0  0  0  0  0  0  0  0
   -2.4910   23.3240  -28.1030 C   0  0  0  0  0  0  0  0  0  0  0  0
   -2.2000   24.1580  -27.0210 C   0  0  0  0  0  0  0  0  0  0  0  0
   -1.0630   24.9670  -27.0680 C   0  0  0  0  0  0  0  0  0  0  0  0
   -0.2520   24.9380  -28.1570 N   0  0  0  0  0  0  0  0  0  0  0  0
   -0.5130   24.1360  -29.2240 C   0  0  0  0  0  0  0  0  0  0  0  0
   -4.0340   23.7080  -30.8480 C   0  0  0  0  0  0  0  0  0  0  0  0
   -3.5510   24.8320  -30.5370 O   0  0  0  0  0  0  0  0  0  0  0  0
   -6.5376   25.9161  -28.0753 H   0  0  0  0  0  0  0  0  0  0  0  0
   -5.1810   26.0806  -29.4030 H   0  0  0  0  0  0  0  0  0  0  0  0
   -7.8269   24.5019  -29.5549 H   0  0  0  0  0  0  0  0  0  0  0  0
   -7.2147   24.1558  -31.8655 H   0  0  0  0  0  0  0  0  0  0  0  0
   -5.9566   25.4471  -31.7431 H   0  0  0  0  0  0  0  0  0  0  0  0
   -5.8237   20.3049  -33.3340 H   0  0  0  0  0  0  0  0  0  0  0  0
   -7.9583   19.1296  -33.8735 H   0  0  0  0  0  0  0  0  0  0  0  0
  -10.0316   19.6440  -32.5808 H   0  0  0  0  0  0  0  0  0  0  0  0
   -9.9682   21.3245  -30.7353 H   0  0  0  0  0  0  0  0  0  0  0  0
   -7.8394   22.5076  -30.1931 H   0  0  0  0  0  0  0  0  0  0  0  0
   -3.8337   19.7450  -30.1782 H   0  0  0  0  0  0  0  0  0  0  0  0
   -4.7202   19.5973  -31.7335 H   0  0  0  0  0  0  0  0  0  0  0  0
   -2.9592   19.9516  -31.7335 H   0  0  0  0  0  0  0  0  0  0  0  0
   -1.7773   21.3509  -30.0704 H   0  0  0  0  0  0  0  0  0  0  0  0
   -1.2636   22.6464  -31.2134 H   0  0  0  0  0  0  0  0  0  0  0  0
   -3.3829   22.6806  -28.0773 H   0  0  0  0  0  0  0  0  0  0  0  0
   -2.8597   24.1772  -26.1410 H   0  0  0  0  0  0  0  0  0  0  0  0
   -0.8239   25.6284  -26.2222 H   0  0  0  0  0  0  0  0  0  0  0  0
    0.1650   24.1369  -30.0902 H   0  0  0  0  0  0  0  0  0  0  0  0
  1  2  2  0
  2  3  1  0
  3  4  1  0
  4  5  1  0
  5  6  1  0
  6  7  2  0
  7  8  1  0
  8  9  2  0
  9 10  1  0
 10 11  2  0
  5 12  2  0
 12 13  1  0
 12 14  1  0
 14 15  1  0
 15 16  1  0
 16 17  2  0
 17 18  1  0
 18 19  2  0
 19 20  1  0
 20 21  2  0
 14 22  1  0
 22 23  2  0
 22  4  1  0
 11  6  1  0
 21 16  1  0
  1 24  1  0
  1 25  1  0
  2 26  1  0
  3 27  1  0
  3 28  1  0
  7 29  1  0
  8 30  1  0
  9 31  1  0
 10 32  1  0
 11 33  1  0
 13 34  1  0
 13 35  1  0
 13 36  1  0
 15 37  1  0
 15 38  1  0
 17 39  1  0
 18 40  1  0
 19 41  1  0
 21 42  1  0
M  END
>  <UniqueID>  (36) 
33

>  <SMILES>  (36) 
C=CCn1c(-c2ccccc2)c(C)n(Cc2cccnc2)c1=O

>  <Energy>  (36) 
78.7366381506773

>  <Genealogy>  (36) 
C=CCn1c(-c2ccccc2)c(C)n(Cc2cccnc2)c1=O (3D coordinates assigned)
C=CCn1c(-c2ccccc2)c(C)n(Cc2cccnc2)c1=O (optimized conformer: 78.7366381506773 kcal/mol)

>  <smiles>  (36) 
C=CCn1c(-c2ccccc2)c(C)n(Cc2cccnc2)c1=O

>  <score_type>  (36) 
oracle

>  <origin>  (36) 
adg

>  <m_score__min__energy>  (36) 
-8.4499999999999993

>  <m_primary>  (36) 
energy

$$$$
36:0
     RDKit          3D

 48 49  0  0  0  0  0  0  0  0999 V2000
   -2.9150   19.7370  -33.8470 C   0  0  0  0  0  0  0  0  0  0  0  0
   -4.3370   19.7860  -33.8270 O   0  0  0  0  0  0  0  0  0  0  0  0
   -5.1740   18.6640  -33.7060 C   0  0  0  0  0  0  0  0  0  0  0  0
   -4.8740   17.4470  -34.3510 C   0  0  0  0  0  0  0  0  0  0  0  0
   -5.7200   16.3440  -34.2130 C   0  0  0  0  0  0  0  0  0  0  0  0
   -6.8720   16.4390  -33.4330 C   0  0  0  0  0  0  0  0  0  0  0  0
   -7.1840   17.6370  -32.7900 C   0  0  0  0  0  0  0  0  0  0  0  0
   -6.3470   18.7590  -32.9220 C   0  0  0  0  0  0  0  0  0  0  0  0
   -6.7230   20.0470  -32.2120 C   0  0  0  0  0  0  0  0  0  0  0  0
   -5.6900   21.1010  -32.3710 N   0  0  0  0  0  0  0  0  0  0  0  0
   -4.5830   20.9490  -31.3810 C   0  0  0  0  0  0  0  0  0  0  0  0
   -4.6770   21.9260  -30.2020 C   0  0  0  0  0  0  0  0  0  0  0  0
   -4.7260   23.3100  -30.6970 N   0  0  0  0  0  0  0  0  0  0  0  0
   -4.2320   24.4230  -29.9180 C   0  0  0  0  0  0  0  0  0  0  0  0
   -4.1980   25.5760  -30.4290 O   0  0  0  0  0  0  0  0  0  0  0  0
   -3.7420   24.2600  -28.5000 C   0  0  0  0  0  0  0  0  0  0  0  0
   -2.2210   23.9880  -28.4390 C   0  0  0  0  0  0  0  0  0  0  0  0
   -1.4560   25.3050  -28.2620 C   0  0  0  0  0  0  0  0  0  0  0  0
   -1.7260   23.2600  -29.6970 C   0  0  0  0  0  0  0  0  0  0  0  0
   -5.3520   23.5610  -32.0020 C   0  0  0  0  0  0  0  0  0  0  0  0
   -6.3400   22.4390  -32.3400 C   0  0  0  0  0  0  0  0  0  0  0  0
   -2.5340   19.7239  -32.8152 H   0  0  0  0  0  0  0  0  0  0  0  0
   -2.5868   18.8270  -34.3706 H   0  0  0  0  0  0  0  0  0  0  0  0
   -2.5249   20.6222  -34.3706 H   0  0  0  0  0  0  0  0  0  0  0  0
   -3.9668   17.3653  -34.9677 H   0  0  0  0  0  0  0  0  0  0  0  0
   -5.4770   15.3988  -34.7205 H   0  0  0  0  0  0  0  0  0  0  0  0
   -7.5354   15.5683  -33.3246 H   0  0  0  0  0  0  0  0  0  0  0  0
   -8.0930   17.7045  -32.1742 H   0  0  0  0  0  0  0  0  0  0  0  0
   -7.6719   20.4162  -32.6283 H   0  0  0  0  0  0  0  0  0  0  0  0
   -6.8142   19.8249  -31.1385 H   0  0  0  0  0  0  0  0  0  0  0  0
   -5.2710   21.0010  -33.3270 H   0  0  0  0  0  0  0  0  0  0  0  0
   -4.6082   19.9229  -30.9855 H   0  0  0  0  0  0  0  0  0  0  0  0
   -3.6440   21.1698  -31.9097 H   0  0  0  0  0  0  0  0  0  0  0  0
   -5.5889   21.7133  -29.6247 H   0  0  0  0  0  0  0  0  0  0  0  0
   -3.7917   21.8035  -29.5607 H   0  0  0  0  0  0  0  0  0  0  0  0
   -3.9604   25.1818  -27.9409 H   0  0  0  0  0  0  0  0  0  0  0  0
   -4.2592   23.3948  -28.0597 H   0  0  0  0  0  0  0  0  0  0  0  0
   -2.0321   23.3354  -27.5739 H   0  0  0  0  0  0  0  0  0  0  0  0
   -1.3332   25.5164  -27.1895 H   0  0  0  0  0  0  0  0  0  0  0  0
   -0.4664   25.2206  -28.7348 H   0  0  0  0  0  0  0  0  0  0  0  0
   -2.0196   26.1228  -28.7348 H   0  0  0  0  0  0  0  0  0  0  0  0
   -1.1300   22.3835  -29.4028 H   0  0  0  0  0  0  0  0  0  0  0  0
   -2.5894   22.9325  -30.2947 H   0  0  0  0  0  0  0  0  0  0  0  0
   -1.1040   23.9425  -30.2947 H   0  0  0  0  0  0  0  0  0  0  0  0
   -5.8892   24.5203  -31.9687 H   0  0  0  0  0  0  0  0  0  0  0  0
   -4.5697   23.5951  -32.7746 H   0  0  0  0  0  0  0  0  0  0  0  0
   -7.1353   22.4278  -31.5801 H   0  0  0  0  0  0  0  0  0  0  0  0
   -6.7440   22.6389  -33.3434 H   0  0  0  0  0  0  0  0  0  0  0  0
  1  2  1  0
  2  3  1  0
  3  4  2  0
  4  5  1  0
  5  6  2  0
  6  7  1  0
  7  8  2  0
  8  9  1  0
  9 10  1  0
 10 11  1  0
 11 12  1  0
 12 13  1  0
 13 14  1  0
 14 15  2  0
 14 16  1  0
 16 17  1  0
 17 18  1  0
 17 19  1  0
 13 20  1  0
 20 21  1  0
  8  3  1  0
 21 10  1  0
  1 22  1  0
  1 23  1  0
  1 24  1  0
  4 25  1  0
  5 26  1  0
  6 27  1  0
  7 28  1  0
  9 29  1  0
  9 30  1  0
 10 31  1  0
 11 32  1  0
 11 33  1  0
 12 34  1  0
 12 35  1  0
 16 36  1  0
 16 37  1  0
 17 38  1  0
 18 39  1  0
 18 40  1  0
 18 41  1  0
 19 42  1  0
 19 43  1  0
 19 44  1  0
 20 45  1  0
 20 46  1  0
 21 47  1  0
 21 48  1  0
M  CHG  1  10   1
M  END
>  <UniqueID>  (37) 
34

>  <SMILES>  (37) 
COc1ccccc1C[NH+]1CCN(C(=O)CC(C)C)CC1

>  <Energy>  (37) 
49.92476262070523

>  <Genealogy>  (37) 
COc1ccccc1C[NH+]1CCN(C(=O)CC(C)C)CC1 (protonated)
COc1ccccc1C[NH+]1CCN(C(=O)CC(C)C)CC1 (3D coordinates assigned)
COc1ccccc1C[NH+]1CCN(C(=O)CC(C)C)CC1 (nonaromatic ring conformer: 49.92476262070523 kcal/mol)

>  <smiles>  (37) 
COc1ccccc1CN1CCN(C(=O)CC(C)C)CC1

>  <score_type>  (37) 
oracle

>  <origin>  (37) 
adg

>  <m_score__min__energy>  (37) 
-6.8099999999999996

>  <m_primary>  (37) 
energy

$$$$
37:0
     RDKit          3D

 24 25  0  0  0  0  0  0  0  0999 V2000
   -5.8710   25.1780  -31.5800 O   0  0  0  0  0  0  0  0  0  0  0  0
   -5.0320   24.5940  -30.8460 C   0  0  0  0  0  0  0  0  0  0  0  0
   -5.3030   23.1950  -30.3720 C   0  0  0  0  0  0  0  0  0  0  0  0
   -4.0170   22.4270  -29.9940 C   0  0  0  0  0  0  0  0  0  0  0  0
   -3.3180   21.8160  -31.2050 C   0  0  0  0  0  0  0  0  0  0  0  0
   -4.0760   21.4660  -32.3400 C   0  0  0  0  0  0  0  0  0  0  0  0
   -3.4610   20.9040  -33.4620 C   0  0  0  0  0  0  0  0  0  0  0  0
   -2.0830   20.6850  -33.4700 C   0  0  0  0  0  0  0  0  0  0  0  0
   -1.3170   21.0260  -32.3540 C   0  0  0  0  0  0  0  0  0  0  0  0
   -1.9270   21.5880  -31.2290 C   0  0  0  0  0  0  0  0  0  0  0  0
   -3.0620   23.2600  -29.1120 C   0  0  0  0  0  0  0  0  0  0  0  0
   -2.8620   24.6580  -29.6240 C   0  0  0  0  0  0  0  0  0  0  0  0
   -1.8250   25.2970  -29.3050 O   0  0  0  0  0  0  0  0  0  0  0  0
   -3.8610   25.2920  -30.4210 N   0  0  0  0  0  0  0  0  0  0  0  0
   -5.9548   23.2445  -29.4873 H   0  0  0  0  0  0  0  0  0  0  0  0
   -5.7788   22.6523  -31.2021 H   0  0  0  0  0  0  0  0  0  0  0  0
   -4.3421   21.5799  -29.3722 H   0  0  0  0  0  0  0  0  0  0  0  0
   -5.1627   21.6368  -32.3430 H   0  0  0  0  0  0  0  0  0  0  0  0
   -4.0647   20.6336  -34.3409 H   0  0  0  0  0  0  0  0  0  0  0  0
   -1.6008   20.2441  -34.3549 H   0  0  0  0  0  0  0  0  0  0  0  0
   -0.2309   20.8520  -32.3600 H   0  0  0  0  0  0  0  0  0  0  0  0
   -1.3160   21.8549  -30.3541 H   0  0  0  0  0  0  0  0  0  0  0  0
   -3.4808   23.3149  -28.0963 H   0  0  0  0  0  0  0  0  0  0  0  0
   -2.0818   22.7609  -29.1247 H   0  0  0  0  0  0  0  0  0  0  0  0
  1  2  2  0
  2  3  1  0
  3  4  1  0
  4  5  1  0
  5  6  2  0
  6  7  1  0
  7  8  2  0
  8  9  1  0
  9 10  2  0
  4 11  1  0
 11 12  1  0
 12 13  2  0
 12 14  1  0
 14  2  1  0
 10  5  1  0
  3 15  1  0
  3 16  1  0
  4 17  1  0
  6 18  1  0
  7 19  1  0
  8 20  1  0
  9 21  1  0
 10 22  1  0
 11 23  1  0
 11 24  1  0
M  CHG  1  14  -1
M  END
>  <UniqueID>  (38) 
35

>  <SMILES>  (38) 
O=C1CC(c2ccccc2)CC(=O)[N-]1

>  <Energy>  (38) 
25.38184853907918

>  <Genealogy>  (38) 
O=C1CC(c2ccccc2)CC(=O)[N-]1 (protonated)
O=C1CC(c2ccccc2)CC(=O)[N-]1 (3D coordinates assigned)
O=C1CC(c2ccccc2)CC(=O)[N-]1 (nonaromatic ring conformer: 25.38184853907918 kcal/mol)

>  <smiles>  (38) 
O=C1CC(c2ccccc2)CC(=O)N1

>  <score_type>  (38) 
oracle

>  <origin>  (38) 
adg

>  <m_score__min__energy>  (38) 
-7.7999999999999998

>  <m_primary>  (38) 
energy

$$$$
38:0
     RDKit          3D

 30 31  0  0  0  0  0  0  0  0999 V2000
   -5.3590   25.3220  -30.2410 C   0  0  0  0  0  0  0  0  0  0  0  0
   -4.9960   24.3530  -31.2190 O   0  0  0  0  0  0  0  0  0  0  0  0
   -5.8150   23.2850  -31.6210 C   0  0  0  0  0  0  0  0  0  0  0  0
   -7.2000   23.2810  -31.3940 C   0  0  0  0  0  0  0  0  0  0  0  0
   -7.9470   22.1820  -31.8210 C   0  0  0  0  0  0  0  0  0  0  0  0
   -9.4250   22.1370  -31.5980 C   0  0  0  0  0  0  0  0  0  0  0  0
   -7.3250   21.1480  -32.4440 N   0  0  0  0  0  0  0  0  0  0  0  0
   -5.9830   21.1550  -32.6640 C   0  0  0  0  0  0  0  0  0  0  0  0
   -5.3680   20.0350  -33.3290 N   0  0  0  0  0  0  0  0  0  0  0  0
   -3.9600   19.6890  -33.2260 C   0  0  0  0  0  0  0  0  0  0  0  0
   -3.7420   18.5490  -34.2130 C   0  0  0  0  0  0  0  0  0  0  0  0
   -5.1320   18.0140  -34.5470 C   0  0  0  0  0  0  0  0  0  0  0  0
   -6.1050   19.1290  -34.1920 C   0  0  0  0  0  0  0  0  0  0  0  0
   -5.2390   22.2230  -32.2490 N   0  0  0  0  0  0  0  0  0  0  0  0
   -5.2026   24.9044  -29.2354 H   0  0  0  0  0  0  0  0  0  0  0  0
   -4.7364   26.2202  -30.3660 H   0  0  0  0  0  0  0  0  0  0  0  0
   -6.4185   25.5900  -30.3660 H   0  0  0  0  0  0  0  0  0  0  0  0
   -7.6876   24.1280  -30.8891 H   0  0  0  0  0  0  0  0  0  0  0  0
   -9.6328   22.1307  -30.5178 H   0  0  0  0  0  0  0  0  0  0  0  0
   -9.8920   23.0213  -32.0561 H   0  0  0  0  0  0  0  0  0  0  0  0
   -9.8374   21.2259  -32.0561 H   0  0  0  0  0  0  0  0  0  0  0  0
   -3.3325   20.5522  -33.4925 H   0  0  0  0  0  0  0  0  0  0  0  0
   -3.6879   19.3962  -32.2012 H   0  0  0  0  0  0  0  0  0  0  0  0
   -3.2459   18.9195  -35.1222 H   0  0  0  0  0  0  0  0  0  0  0  0
   -3.0983   17.7645  -33.7885 H   0  0  0  0  0  0  0  0  0  0  0  0
   -5.2016   17.7720  -35.6178 H   0  0  0  0  0  0  0  0  0  0  0  0
   -5.3542   17.0918  -33.9900 H   0  0  0  0  0  0  0  0  0  0  0  0
   -6.4378   19.6512  -35.1011 H   0  0  0  0  0  0  0  0  0  0  0  0
   -7.0056   18.7386  -33.6955 H   0  0  0  0  0  0  0  0  0  0  0  0
   -4.2070   22.2430  -32.4040 H   0  0  0  0  0  0  0  0  0  0  0  0
  1  2  1  0
  2  3  1  0
  3  4  2  0
  4  5  1  0
  5  6  1  0
  5  7  2  0
  7  8  1  0
  8  9  1  0
  9 10  1  0
 10 11  1  0
 11 12  1  0
 12 13  1  0
  8 14  2  0
 14  3  1  0
 13  9  1  0
  1 15  1  0
  1 16  1  0
  1 17  1  0
  4 18  1  0
  6 19  1  0
  6 20  1  0
  6 21  1  0
 10 22  1  0
 10 23  1  0
 11 24  1  0
 11 25  1  0
 12 26  1  0
 12 27  1  0
 13 28  1  0
 13 29  1  0
 14 30  1  0
M  CHG  1  14   1
M  END
>  <UniqueID>  (39) 
36

>  <SMILES>  (39) 
COc1cc(C)nc(N2CCCC2)[nH+]1

>  <Energy>  (39) 
26.78151136999816

>  <Genealogy>  (39) 
COc1cc(C)nc(N2CCCC2)[nH+]1 (protonated)
COc1cc(C)nc(N2CCCC2)[nH+]1 (3D coordinates assigned)
COc1cc(C)nc(N2CCCC2)[nH+]1 (nonaromatic ring conformer: 26.78151136999816 kcal/mol)

>  <smiles>  (39) 
COc1cc(C)nc(N2CCCC2)n1

>  <score_type>  (39) 
oracle

>  <origin>  (39) 
adg

>  <m_score__min__energy>  (39) 
-4.9299999999999997

>  <m_primary>  (39) 
energy

$$$$
39:0
     RDKit          3D

 28 30  0  0  0  0  0  0  0  0999 V2000
   -4.3550   25.4540  -30.8630 O   0  0  0  0  0  0  0  0  0  0  0  0
   -4.4640   24.2240  -30.6070 C   0  0  0  0  0  0  0  0  0  0  0  0
   -3.5320   23.5820  -29.7800 O   0  0  0  0  0  0  0  0  0  0  0  0
   -2.9160   24.1490  -28.6550 C   0  0  0  0  0  0  0  0  0  0  0  0
   -3.6930   24.3780  -27.5150 C   0  0  0  0  0  0  0  0  0  0  0  0
   -3.1220   24.9320  -26.3650 C   0  0  0  0  0  0  0  0  0  0  0  0
   -1.7560   25.2550  -26.3360 C   0  0  0  0  0  0  0  0  0  0  0  0
   -1.1460   25.8390  -25.1250 C   0  0  0  0  0  0  0  0  0  0  0  0
   -0.3090   25.1790  -24.2990 N   0  0  0  0  0  0  0  0  0  0  0  0
    0.0040   26.0460  -23.3510 N   0  0  0  0  0  0  0  0  0  0  0  0
   -0.6400   27.1950  -23.6160 C   0  0  0  0  0  0  0  0  0  0  0  0
   -1.3510   27.0710  -24.7110 O   0  0  0  0  0  0  0  0  0  0  0  0
   -0.9710   25.0060  -27.4720 C   0  0  0  0  0  0  0  0  0  0  0  0
   -1.5430   24.4540  -28.6230 C   0  0  0  0  0  0  0  0  0  0  0  0
   -5.6170   23.4790  -31.1360 C   0  0  0  0  0  0  0  0  0  0  0  0
   -7.2230   23.8100  -30.7520 S   0  0  0  0  0  0  0  0  0  0  0  0
   -7.9070   22.6020  -31.6980 C   0  0  0  0  0  0  0  0  0  0  0  0
   -6.8810   21.9170  -32.3330 C   0  0  0  0  0  0  0  0  0  0  0  0
   -5.6020   22.4000  -32.0250 C   0  0  0  0  0  0  0  0  0  0  0  0
   -4.1560   21.6870  -32.7180 Cl  0  0  0  0  0  0  0  0  0  0  0  0
   -4.7623   24.1202  -27.5230 H   0  0  0  0  0  0  0  0  0  0  0  0
   -3.7465   25.1157  -25.4783 H   0  0  0  0  0  0  0  0  0  0  0  0
    0.6400   25.8510  -22.5470 H   0  0  0  0  0  0  0  0  0  0  0  0
   -0.5797   28.1069  -23.0037 H   0  0  0  0  0  0  0  0  0  0  0  0
    0.1022   25.2467  -27.4574 H   0  0  0  0  0  0  0  0  0  0  0  0
   -0.9172   24.2577  -29.5061 H   0  0  0  0  0  0  0  0  0  0  0  0
   -8.9820   22.3907  -31.7969 H   0  0  0  0  0  0  0  0  0  0  0  0
   -7.0555   21.0723  -33.0156 H   0  0  0  0  0  0  0  0  0  0  0  0
  1  2  2  0
  2  3  1  0
  3  4  1  0
  4  5  2  0
  5  6  1  0
  6  7  2  0
  7  8  1  0
  8  9  2  0
  9 10  1  0
 10 11  2  0
 11 12  1  0
  7 13  1  0
 13 14  2  0
  2 15  1  0
 15 16  1  0
 16 17  1  0
 17 18  2  0
 18 19  1  0
 19 20  1  0
 14  4  1  0
 19 15  2  0
 12  8  1  0
  5 21  1  0
  6 22  1  0
 10 23  1  0
 11 24  1  0
 13 25  1  0
 14 26  1  0
 17 27  1  0
 18 28  1  0
M  CHG  1  10   1
M  END
>  <UniqueID>  (40) 
37

>  <SMILES>  (40) 
O=C(Oc1ccc(-c2n[nH+]co2)cc1)c1sccc1Cl

>  <Energy>  (40) 
96.52462193715006

>  <Genealogy>  (40) 
O=C(Oc1ccc(-c2n[nH+]co2)cc1)c1sccc1Cl (protonated)
O=C(Oc1ccc(-c2n[nH+]co2)cc1)c1sccc1Cl (3D coordinates assigned)
O=C(Oc1ccc(-c2n[nH+]co2)cc1)c1sccc1Cl (optimized conformer: 96.52462193715006 kcal/mol)

>  <smiles>  (40) 
O=C(Oc1ccc(-c2nnco2)cc1)c1sccc1Cl

>  <score_type>  (40) 
oracle

>  <origin>  (40) 
adg

>  <m_score__min__energy>  (40) 
-8.4700000000000006

>  <m_primary>  (40) 
energy

$$$$
40:0
     RDKit          3D

 33 36  0  0  0  0  0  0  0  0999 V2000
   -0.3980   22.7980  -35.6990 H   0  0  0  0  0  0  0  0  0  0  0  0
    0.1090   22.1920  -35.0150 N   0  0  0  0  0  0  0  0  0  0  0  0
   -0.4870   21.2220  -34.4040 C   0  0  0  0  0  0  0  0  0  0  0  0
    0.3010   19.8920  -33.7540 S   0  0  0  0  0  0  0  0  0  0  0  0
   -1.1290   19.2020  -33.1880 C   0  0  0  0  0  0  0  0  0  0  0  0
   -1.2106   18.2516  -32.6401 H   0  0  0  0  0  0  0  0  0  0  0  0
   -2.1950   20.0410  -33.5320 C   0  0  0  0  0  0  0  0  0  0  0  0
   -3.6090   19.7430  -33.1970 C   0  0  0  0  0  0  0  0  0  0  0  0
   -4.0550   18.3980  -33.0860 C   0  0  0  0  0  0  0  0  0  0  0  0
   -3.3429   17.5762  -33.2521 H   0  0  0  0  0  0  0  0  0  0  0  0
   -5.3930   18.1010  -32.7670 C   0  0  0  0  0  0  0  0  0  0  0  0
   -5.7339   17.0592  -32.6753 H   0  0  0  0  0  0  0  0  0  0  0  0
   -6.2760   19.1640  -32.5700 C   0  0  0  0  0  0  0  0  0  0  0  0
   -5.8450   20.4700  -32.6710 C   0  0  0  0  0  0  0  0  0  0  0  0
   -4.5270   20.7970  -32.9810 C   0  0  0  0  0  0  0  0  0  0  0  0
   -4.2085   21.8472  -33.0558 H   0  0  0  0  0  0  0  0  0  0  0  0
   -6.9350   21.2620  -32.3890 C   0  0  0  0  0  0  0  0  0  0  0  0
   -7.0750   22.6470  -32.3180 C   0  0  0  0  0  0  0  0  0  0  0  0
   -6.2283   23.3162  -32.5308 H   0  0  0  0  0  0  0  0  0  0  0  0
   -8.3360   23.1590  -31.9650 C   0  0  0  0  0  0  0  0  0  0  0  0
   -8.4857   24.2471  -31.9041 H   0  0  0  0  0  0  0  0  0  0  0  0
   -9.4120   22.2870  -31.6880 C   0  0  0  0  0  0  0  0  0  0  0  0
  -10.3921   22.7021  -31.4102 H   0  0  0  0  0  0  0  0  0  0  0  0
   -9.2420   20.8930  -31.7640 C   0  0  0  0  0  0  0  0  0  0  0  0
  -10.0748   20.2086  -31.5451 H   0  0  0  0  0  0  0  0  0  0  0  0
   -7.9830   20.4020  -32.1260 C   0  0  0  0  0  0  0  0  0  0  0  0
   -7.5950   19.1070  -32.2520 N   0  0  0  0  0  0  0  0  0  0  0  0
   -8.3910   17.9110  -31.9820 C   0  0  0  0  0  0  0  0  0  0  0  0
   -8.4845   17.7705  -30.8950 H   0  0  0  0  0  0  0  0  0  0  0  0
   -9.3914   18.0289  -32.4239 H   0  0  0  0  0  0  0  0  0  0  0  0
   -7.8960   17.0337  -32.4239 H   0  0  0  0  0  0  0  0  0  0  0  0
   -1.8230   21.1650  -34.2100 N   0  0  0  0  0  0  0  0  0  0  0  0
   -2.4810   21.9130  -34.5240 H   0  0  0  0  0  0  0  0  0  0  0  0
  1  2  1  0
  2  3  2  0
  3  4  1  0
  4  5  1  0
  5  6  1  0
  5  7  2  0
  7  8  1  0
  8  9  2  0
  9 10  1  0
  9 11  1  0
 11 12  1  0
 11 13  2  0
 13 14  1  0
 14 15  2  0
 15 16  1  0
 14 17  1  0
 17 18  2  0
 18 19  1  0
 18 20  1  0
 20 21  1  0
 20 22  2  0
 22 23  1  0
 22 24  1  0
 24 25  1  0
 24 26  2  0
 26 27  1  0
 27 28  1  0
 28 29  1  0
 28 30  1  0
 28 31  1  0
  7 32  1  0
 32 33  1  0
 32  3  1  0
 15  8  1  0
 26 17  1  0
 27 13  1  0
M  END
>  <UniqueID>  (41) 
38

>  <SMILES>  (41) 
[H]/N=c1\[nH]c(-c2ccc3c(c2)c2ccccc2n3C)cs1

>  <Energy>  (41) 
112.41570249474329

>  <Genealogy>  (41) 
[H]/N=c1\[nH]c(-c2ccc3c(c2)c2ccccc2n3C)cs1 (cis-trans isomerization)
[H]/N=c1\[nH]c(-c2ccc3c(c2)c2ccccc2n3C)cs1 (3D coordinates assigned)
[H]/N=c1\[nH]c(-c2ccc3c(c2)c2ccccc2n3C)cs1 (optimized conformer: 112.41570249474329 kcal/mol)

>  <smiles>  (41) 
Cn1c2ccccc2c2cc(-c3csc(=N)[nH]3)ccc21

>  <score_type>  (41) 
oracle

>  <origin>  (41) 
adg

>  <m_score__min__energy>  (41) 
-8.3300000000000001

>  <m_primary>  (41) 
energy

$$$$
41:0
     RDKit          3D

 83 89  0  0  0  0  0  0  0  0999 V2000
   -2.5250   21.1650  -31.3780 C   0  0  0  0  0  0  0  0  0  0  0  0
   -3.3220   22.0160  -30.5640 O   0  0  0  0  0  0  0  0  0  0  0  0
   -2.8380   22.7680  -29.4810 C   0  0  0  0  0  0  0  0  0  0  0  0
   -2.1160   22.1780  -28.4270 C   0  0  0  0  0  0  0  0  0  0  0  0
   -1.6070   22.9640  -27.3780 C   0  0  0  0  0  0  0  0  0  0  0  0
   -0.8610   22.4130  -26.3090 C   0  0  0  0  0  0  0  0  0  0  0  0
   -0.5420   21.0500  -26.2350 O   0  0  0  0  0  0  0  0  0  0  0  0
   -0.1220   20.2510  -27.3110 C   0  0  0  0  0  0  0  0  0  0  0  0
   -0.8400   19.0800  -27.5790 C   0  0  0  0  0  0  0  0  0  0  0  0
   -0.4810   18.2550  -28.6470 C   0  0  0  0  0  0  0  0  0  0  0  0
    0.6040   18.5870  -29.4700 C   0  0  0  0  0  0  0  0  0  0  0  0
    0.9700   17.7020  -30.5440 N   0  0  0  0  0  0  0  0  0  0  0  0
    0.2170   17.5570  -31.7620 C   0  0  0  0  0  0  0  0  0  0  0  0
   -0.9710   17.9750  -31.8140 O   0  0  0  0  0  0  0  0  0  0  0  0
    0.8280   16.8810  -32.9370 C   0  0  0  0  0  0  0  0  0  0  0  0
    0.0120   16.4480  -33.9380 N   0  0  0  0  0  0  0  0  0  0  0  0
    0.4870   15.8170  -35.0470 C   0  0  0  0  0  0  0  0  0  0  0  0
   -0.4450   15.3740  -36.1120 C   0  0  0  0  0  0  0  0  0  0  0  0
   -1.8070   15.1590  -35.8270 C   0  0  0  0  0  0  0  0  0  0  0  0
   -2.6850   14.7370  -36.8300 C   0  0  0  0  0  0  0  0  0  0  0  0
   -2.2170   14.5130  -38.1320 C   0  0  0  0  0  0  0  0  0  0  0  0
   -3.1680   14.0950  -39.2160 C   0  0  0  0  0  0  0  0  0  0  0  0
   -0.8670   14.7440  -38.4280 C   0  0  0  0  0  0  0  0  0  0  0  0
    0.0130   15.1660  -37.4270 C   0  0  0  0  0  0  0  0  0  0  0  0
    1.8240   15.5980  -35.1690 N   0  0  0  0  0  0  0  0  0  0  0  0
    2.6900   15.9990  -34.2060 C   0  0  0  0  0  0  0  0  0  0  0  0
    4.0210   15.7690  -34.3440 N   0  0  0  0  0  0  0  0  0  0  0  0
    4.9040   16.1630  -33.3880 C   0  0  0  0  0  0  0  0  0  0  0  0
    4.4350   16.8140  -32.2440 C   0  0  0  0  0  0  0  0  0  0  0  0
    3.1040   17.0460  -32.1030 N   0  0  0  0  0  0  0  0  0  0  0  0
    2.2130   16.6560  -33.0570 C   0  0  0  0  0  0  0  0  0  0  0  0
    1.3520   19.7420  -29.1790 C   0  0  0  0  0  0  0  0  0  0  0  0
    0.9940   20.5730  -28.1110 C   0  0  0  0  0  0  0  0  0  0  0  0
    1.7630   21.6560  -27.8390 F   0  0  0  0  0  0  0  0  0  0  0  0
   -0.4480   23.2420  -25.2620 C   0  0  0  0  0  0  0  0  0  0  0  0
   -0.7370   24.6060  -25.3000 C   0  0  0  0  0  0  0  0  0  0  0  0
   -1.4340   25.1270  -26.3420 N   0  0  0  0  0  0  0  0  0  0  0  0
   -1.8740   24.3530  -27.3700 C   0  0  0  0  0  0  0  0  0  0  0  0
   -2.6080   24.9350  -28.4080 C   0  0  0  0  0  0  0  0  0  0  0  0
   -3.0890   24.1470  -29.4680 C   0  0  0  0  0  0  0  0  0  0  0  0
   -3.8220   24.6930  -30.5320 O   0  0  0  0  0  0  0  0  0  0  0  0
   -5.2410   24.6760  -30.6400 C   0  0  0  0  0  0  0  0  0  0  0  0
   -5.6820   23.7970  -31.8230 C   0  0  0  0  0  0  0  0  0  0  0  0
   -6.6420   22.7270  -31.4730 N   0  0  0  0  0  0  0  0  0  0  0  0
   -6.1860   21.3470  -31.7840 C   0  0  0  0  0  0  0  0  0  0  0  0
   -7.1470   20.5960  -32.7210 C   0  0  0  0  0  0  0  0  0  0  0  0
   -8.5780   20.5730  -32.1590 C   0  0  0  0  0  0  0  0  0  0  0  0
   -8.9570   21.8690  -31.4140 C   0  0  0  0  0  0  0  0  0  0  0  0
   -8.0480   23.0330  -31.8150 C   0  0  0  0  0  0  0  0  0  0  0  0
   -1.9137   20.5123  -30.7375 H   0  0  0  0  0  0  0  0  0  0  0  0
   -3.1779   20.5483  -32.0131 H   0  0  0  0  0  0  0  0  0  0  0  0
   -1.8669   21.7762  -32.0131 H   0  0  0  0  0  0  0  0  0  0  0  0
   -1.9481   21.0909  -28.4237 H   0  0  0  0  0  0  0  0  0  0  0  0
   -1.6948   18.8070  -26.9427 H   0  0  0  0  0  0  0  0  0  0  0  0
   -1.0543   17.3371  -28.8440 H   0  0  0  0  0  0  0  0  0  0  0  0
    1.7900   17.0710  -30.3890 H   0  0  0  0  0  0  0  0  0  0  0  0
   -2.1835   15.3244  -34.8067 H   0  0  0  0  0  0  0  0  0  0  0  0
   -3.7483   14.5800  -36.5961 H   0  0  0  0  0  0  0  0  0  0  0  0
   -4.0857   13.6916  -38.7632 H   0  0  0  0  0  0  0  0  0  0  0  0
   -3.4189   14.9658  -39.8395 H   0  0  0  0  0  0  0  0  0  0  0  0
   -2.6961   13.3213  -39.8395 H   0  0  0  0  0  0  0  0  0  0  0  0
   -0.4978   14.5926  -39.4531 H   0  0  0  0  0  0  0  0  0  0  0  0
    1.0724   15.3370  -37.6689 H   0  0  0  0  0  0  0  0  0  0  0  0
    5.9797   15.9707  -33.5143 H   0  0  0  0  0  0  0  0  0  0  0  0
    5.1390   17.1365  -31.4627 H   0  0  0  0  0  0  0  0  0  0  0  0
    2.2266   19.9947  -29.7965 H   0  0  0  0  0  0  0  0  0  0  0  0
    0.1040   22.8193  -24.4096 H   0  0  0  0  0  0  0  0  0  0  0  0
   -0.3993   25.2613  -24.4836 H   0  0  0  0  0  0  0  0  0  0  0  0
   -2.8103   26.0162  -28.3951 H   0  0  0  0  0  0  0  0  0  0  0  0
   -5.6698   24.2733  -29.7105 H   0  0  0  0  0  0  0  0  0  0  0  0
   -5.5968   25.7031  -30.8086 H   0  0  0  0  0  0  0  0  0  0  0  0
   -6.1522   24.4465  -32.5761 H   0  0  0  0  0  0  0  0  0  0  0  0
   -4.7759   23.2937  -32.1913 H   0  0  0  0  0  0  0  0  0  0  0  0
   -5.1988   21.4038  -32.2659 H   0  0  0  0  0  0  0  0  0  0  0  0
   -6.1473   20.7906  -30.8359 H   0  0  0  0  0  0  0  0  0  0  0  0
   -7.1555   21.0967  -33.7004 H   0  0  0  0  0  0  0  0  0  0  0  0
   -6.7963   19.5577  -32.8153 H   0  0  0  0  0  0  0  0  0  0  0  0
   -9.2797   20.4315  -32.9942 H   0  0  0  0  0  0  0  0  0  0  0  0
   -8.6312   19.7494  -31.4317 H   0  0  0  0  0  0  0  0  0  0  0  0
   -9.9981   22.1289  -31.6559 H   0  0  0  0  0  0  0  0  0  0  0  0
   -8.8376   21.6940  -30.3346 H   0  0  0  0  0  0  0  0  0  0  0  0
   -8.1297   23.2005  -32.8991 H   0  0  0  0  0  0  0  0  0  0  0  0
   -8.3608   23.9358  -31.2699 H   0  0  0  0  0  0  0  0  0  0  0  0
  1  2  1  0
  2  3  1  0
  3  4  2  0
  4  5  1  0
  5  6  2  0
  6  7  1  0
  7  8  1  0
  8  9  2  0
  9 10  1  0
 10 11  2  0
 11 12  1  0
 12 13  1  0
 13 14  2  0
 13 15  1  0
 15 16  2  0
 16 17  1  0
 17 18  1  0
 18 19  2  0
 19 20  1  0
 20 21  2  0
 21 22  1  0
 21 23  1  0
 23 24  2  0
 17 25  2  0
 25 26  1  0
 26 27  2  0
 27 28  1  0
 28 29  2  0
 29 30  1  0
 30 31  2  0
 11 32  1  0
 32 33  2  0
 33 34  1  0
  6 35  1  0
 35 36  2  0
 36 37  1  0
 37 38  2  0
 38 39  1  0
 39 40  2  0
 40 41  1  0
 41 42  1  0
 42 43  1  0
 43 44  1  0
 44 45  1  0
 45 46  1  0
 46 47  1  0
 47 48  1  0
 48 49  1  0
 40  3  1  0
 49 44  1  0
 38  5  1  0
 33  8  1  0
 31 15  1  0
 24 18  1  0
 31 26  1  0
  1 50  1  0
  1 51  1  0
  1 52  1  0
  4 53  1  0
  9 54  1  0
 10 55  1  0
 12 56  1  0
 19 57  1  0
 20 58  1  0
 22 59  1  0
 22 60  1  0
 22 61  1  0
 23 62  1  0
 24 63  1  0
 28 64  1  0
 29 65  1  0
 32 66  1  0
 35 67  1  0
 36 68  1  0
 39 69  1  0
 42 70  1  0
 42 71  1  0
 43 72  1  0
 43 73  1  0
 45 74  1  0
 45 75  1  0
 46 76  1  0
 46 77  1  0
 47 78  1  0
 47 79  1  0
 48 80  1  0
 48 81  1  0
 49 82  1  0
 49 83  1  0
M  END
>  <UniqueID>  (42) 
39

>  <SMILES>  (42) 
COc1cc2c(Oc3ccc(NC(=O)c4nc(-c5ccc(C)cc5)nc5nccnc45)cc3F)ccnc2cc1OCCN1CCCCC1

>  <Energy>  (42) 
123.64857423295165

>  <Genealogy>  (42) 
COc1cc2c(Oc3ccc(NC(=O)c4nc(-c5ccc(C)cc5)nc5nccnc45)cc3F)ccnc2cc1OCCN1CCCCC1 (3D coordinates assigned)
COc1cc2c(Oc3ccc(NC(=O)c4nc(-c5ccc(C)cc5)nc5nccnc45)cc3F)ccnc2cc1OCCN1CCCCC1 (nonaromatic ring conformer: 123.64857423295165 kcal/mol)

>  <smiles>  (42) 
COc1cc2c(Oc3ccc(NC(=O)c4nc(-c5ccc(C)cc5)nc5nccnc45)cc3F)ccnc2cc1OCCN1CCCCC1

>  <score_type>  (42) 
oracle

>  <origin>  (42) 
adg

>  <m_score__min__energy>  (42) 
-9.3000000000000007

>  <m_primary>  (42) 
energy

$$$$
42:0
     RDKit          3D

 44 46  0  0  0  0  0  0  0  0999 V2000
   -4.0487   24.8076  -28.7799 H   0  0  0  0  0  0  0  0  0  0  0  0
   -4.3460   24.2400  -29.6740 C   0  0  0  0  0  0  0  0  0  0  0  0
   -5.8620   24.2680  -30.3990 S   0  0  0  0  0  0  0  0  0  0  0  0
   -5.4280   23.1830  -31.6160 C   0  0  0  0  0  0  0  0  0  0  0  0
   -6.2260   22.7090  -32.5320 N   0  0  0  0  0  0  0  0  0  0  0  0
   -7.2690   21.7400  -32.3410 C   0  0  0  0  0  0  0  0  0  0  0  0
   -8.4860   22.0920  -31.7300 C   0  0  0  0  0  0  0  0  0  0  0  0
   -8.6345   23.1157  -31.3559 H   0  0  0  0  0  0  0  0  0  0  0  0
   -9.5060   21.1490  -31.5960 C   0  0  0  0  0  0  0  0  0  0  0  0
  -10.4485   21.4259  -31.1009 H   0  0  0  0  0  0  0  0  0  0  0  0
   -9.3320   19.8560  -32.0890 C   0  0  0  0  0  0  0  0  0  0  0  0
  -10.1347   19.1124  -31.9763 H   0  0  0  0  0  0  0  0  0  0  0  0
   -8.1390   19.5040  -32.7260 C   0  0  0  0  0  0  0  0  0  0  0  0
   -8.0091   18.4853  -33.1201 H   0  0  0  0  0  0  0  0  0  0  0  0
   -7.1020   20.4470  -32.8660 C   0  0  0  0  0  0  0  0  0  0  0  0
   -5.8930   20.1360  -33.5090 O   0  0  0  0  0  0  0  0  0  0  0  0
   -5.6390   18.9200  -34.2060 C   0  0  0  0  0  0  0  0  0  0  0  0
   -5.4699   18.1102  -33.4810 H   0  0  0  0  0  0  0  0  0  0  0  0
   -6.5047   18.6717  -34.8376 H   0  0  0  0  0  0  0  0  0  0  0  0
   -4.7463   19.0390  -34.8376 H   0  0  0  0  0  0  0  0  0  0  0  0
   -4.1360   22.7850  -31.4820 N   0  0  0  0  0  0  0  0  0  0  0  0
   -3.4990   21.7810  -32.3430 C   0  0  0  0  0  0  0  0  0  0  0  0
   -3.0140   21.0166  -31.7181 H   0  0  0  0  0  0  0  0  0  0  0  0
   -4.2612   21.3059  -32.9780 H   0  0  0  0  0  0  0  0  0  0  0  0
   -2.7444   22.2682  -32.9780 H   0  0  0  0  0  0  0  0  0  0  0  0
   -3.5290   23.3730  -30.4010 C   0  0  0  0  0  0  0  0  0  0  0  0
   -2.1190   23.0740  -29.9640 C   0  0  0  0  0  0  0  0  0  0  0  0
   -2.0839   22.0716  -29.5123 H   0  0  0  0  0  0  0  0  0  0  0  0
   -1.4561   23.1155  -30.8408 H   0  0  0  0  0  0  0  0  0  0  0  0
   -1.6610   24.0860  -28.9580 C   0  0  0  0  0  0  0  0  0  0  0  0
   -1.6100   25.3030  -29.2880 O   0  0  0  0  0  0  0  0  0  0  0  0
   -1.2690   23.6710  -27.6390 N   0  0  0  0  0  0  0  0  0  0  0  0
   -1.0060   22.6700  -27.5000 H   0  0  0  0  0  0  0  0  0  0  0  0
   -1.1590   24.5610  -26.5150 C   0  0  0  0  0  0  0  0  0  0  0  0
   -2.0990   25.5850  -26.2920 C   0  0  0  0  0  0  0  0  0  0  0  0
   -2.9314   25.7274  -26.9969 H   0  0  0  0  0  0  0  0  0  0  0  0
   -1.9790   26.4220  -25.1780 C   0  0  0  0  0  0  0  0  0  0  0  0
   -2.7106   27.2272  -25.0153 H   0  0  0  0  0  0  0  0  0  0  0  0
   -0.9330   26.2380  -24.2720 C   0  0  0  0  0  0  0  0  0  0  0  0
   -0.8220   27.0460  -23.1890 F   0  0  0  0  0  0  0  0  0  0  0  0
   -0.0090   25.2090  -24.4730 C   0  0  0  0  0  0  0  0  0  0  0  0
    0.8116   25.0599  -23.7558 H   0  0  0  0  0  0  0  0  0  0  0  0
   -0.1260   24.3690  -25.5840 C   0  0  0  0  0  0  0  0  0  0  0  0
    0.5961   23.5521  -25.7298 H   0  0  0  0  0  0  0  0  0  0  0  0
  1  2  1  0
  2  3  1  0
  3  4  1  0
  4  5  2  0
  5  6  1  0
  6  7  2  0
  7  8  1  0
  7  9  1  0
  9 10  1  0
  9 11  2  0
 11 12  1  0
 11 13  1  0
 13 14  1  0
 13 15  2  0
 15 16  1  0
 16 17  1  0
 17 18  1  0
 17 19  1  0
 17 20  1  0
  4 21  1  0
 21 22  1  0
 22 23  1  0
 22 24  1  0
 22 25  1  0
 21 26  1  0
 26 27  1  0
 27 28  1  0
 27 29  1  0
 27 30  1  0
 30 31  2  0
 30 32  1  0
 32 33  1  0
 32 34  1  0
 34 35  2  0
 35 36  1  0
 35 37  1  0
 37 38  1  0
 37 39  2  0
 39 40  1  0
 39 41  1  0
 41 42  1  0
 41 43  2  0
 43 44  1  0
 26  2  2  0
 43 34  1  0
 15  6  1  0
M  END
>  <UniqueID>  (43) 
40

>  <SMILES>  (43) 
COc1ccccc1/N=c1\scc(CC(=O)Nc2ccc(F)cc2)n1C

>  <Energy>  (43) 
85.18240721331762

>  <Genealogy>  (43) 
COc1ccccc1/N=c1\scc(CC(=O)Nc2ccc(F)cc2)n1C (cis-trans isomerization)
COc1ccccc1/N=c1\scc(CC(=O)Nc2ccc(F)cc2)n1C (3D coordinates assigned)
COc1ccccc1/N=c1\scc(CC(=O)Nc2ccc(F)cc2)n1C (optimized conformer: 85.18240721331762 kcal/mol)

>  <smiles>  (43) 
COc1ccccc1N=c1scc(CC(=O)Nc2ccc(F)cc2)n1C

>  <score_type>  (43) 
oracle

>  <origin>  (43) 
adg

>  <m_score__min__energy>  (43) 
-9.0099999999999998

>  <m_primary>  (43) 
energy

$$$$
43:0
     RDKit          3D

 33 35  0  0  0  0  0  0  0  0999 V2000
   -8.9170   18.5580  -31.5930 C   0  0  0  0  0  0  0  0  0  0  0  0
   -7.5330   18.2250  -31.5910 O   0  0  0  0  0  0  0  0  0  0  0  0
   -6.7710   17.9850  -32.7470 C   0  0  0  0  0  0  0  0  0  0  0  0
   -6.8470   16.7690  -33.4520 C   0  0  0  0  0  0  0  0  0  0  0  0
   -6.0550   16.5630  -34.5800 C   0  0  0  0  0  0  0  0  0  0  0  0
   -5.1870   17.5700  -35.0010 C   0  0  0  0  0  0  0  0  0  0  0  0
   -5.1260   18.7410  -34.3170 N   0  0  0  0  0  0  0  0  0  0  0  0
   -5.8860   18.9790  -33.2120 C   0  0  0  0  0  0  0  0  0  0  0  0
   -5.7720   20.2890  -32.5290 C   0  0  0  0  0  0  0  0  0  0  0  0
   -6.9360   21.0470  -32.2970 C   0  0  0  0  0  0  0  0  0  0  0  0
   -6.8180   22.2590  -31.7020 N   0  0  0  0  0  0  0  0  0  0  0  0
   -7.8120   23.0860  -31.4230 N   0  0  0  0  0  0  0  0  0  0  0  0
   -7.2630   24.1790  -30.8450 C   0  0  0  0  0  0  0  0  0  0  0  0
   -5.8840   24.0270  -30.7630 C   0  0  0  0  0  0  0  0  0  0  0  0
   -4.9420   25.0030  -30.1980 C   0  0  0  0  0  0  0  0  0  0  0  0
   -3.8870   25.3210  -30.8070 O   0  0  0  0  0  0  0  0  0  0  0  0
   -5.6450   22.7850  -31.3240 C   0  0  0  0  0  0  0  0  0  0  0  0
   -4.4500   22.0930  -31.5230 C   0  0  0  0  0  0  0  0  0  0  0  0
   -4.5110   20.8190  -32.1250 C   0  0  0  0  0  0  0  0  0  0  0  0
   -3.2310   20.0550  -32.3400 C   0  0  0  0  0  0  0  0  0  0  0  0
   -9.2749   18.6441  -30.5564 H   0  0  0  0  0  0  0  0  0  0  0  0
   -9.0627   19.5168  -32.1121 H   0  0  0  0  0  0  0  0  0  0  0  0
   -9.4829   17.7704  -32.1121 H   0  0  0  0  0  0  0  0  0  0  0  0
   -7.5332   15.9795  -33.1117 H   0  0  0  0  0  0  0  0  0  0  0  0
   -6.1140   15.6142  -35.1335 H   0  0  0  0  0  0  0  0  0  0  0  0
   -4.5525   17.4156  -35.8862 H   0  0  0  0  0  0  0  0  0  0  0  0
   -7.9230   20.6624  -32.5933 H   0  0  0  0  0  0  0  0  0  0  0  0
   -7.8243   25.0569  -30.4926 H   0  0  0  0  0  0  0  0  0  0  0  0
   -5.1628   25.4646  -29.2243 H   0  0  0  0  0  0  0  0  0  0  0  0
   -3.4870   22.5289  -31.2188 H   0  0  0  0  0  0  0  0  0  0  0  0
   -2.7923   19.7931  -31.3659 H   0  0  0  0  0  0  0  0  0  0  0  0
   -3.4433   19.1357  -32.9056 H   0  0  0  0  0  0  0  0  0  0  0  0
   -2.5226   20.6782  -32.9056 H   0  0  0  0  0  0  0  0  0  0  0  0
  1  2  1  0
  2  3  1  0
  3  4  2  0
  4  5  1  0
  5  6  2  0
  6  7  1  0
  7  8  2  0
  8  9  1  0
  9 10  2  0
 10 11  1  0
 11 12  1  0
 12 13  2  0
 13 14  1  0
 14 15  1  0
 15 16  2  0
 14 17  2  0
 17 18  1  0
 18 19  2  0
 19 20  1  0
  8  3  1  0
 19  9  1  0
 17 11  1  0
  1 21  1  0
  1 22  1  0
  1 23  1  0
  4 24  1  0
  5 25  1  0
  6 26  1  0
 10 27  1  0
 13 28  1  0
 15 29  1  0
 18 30  1  0
 20 31  1  0
 20 32  1  0
 20 33  1  0
M  END
>  <UniqueID>  (44) 
41

>  <SMILES>  (44) 
COc1cccnc1-c1cn2ncc(C=O)c2cc1C

>  <Energy>  (44) 
78.06983384601821

>  <Genealogy>  (44) 
COc1cccnc1-c1cn2ncc(C=O)c2cc1C (3D coordinates assigned)
COc1cccnc1-c1cn2ncc(C=O)c2cc1C (optimized conformer: 78.06983384601821 kcal/mol)

>  <smiles>  (44) 
COc1cccnc1-c1cn2ncc(C=O)c2cc1C

>  <score_type>  (44) 
oracle

>  <origin>  (44) 
adg

>  <m_score__min__energy>  (44) 
-7.4900000000000002

>  <m_primary>  (44) 
energy

$$$$
44:0
     RDKit          3D

 31 32  0  0  0  0  0  0  0  0999 V2000
   -3.2340   25.6650  -31.6050 H   0  0  0  0  0  0  0  0  0  0  0  0
   -3.8630   25.6410  -30.8110 O   0  0  0  0  0  0  0  0  0  0  0  0
   -4.9220   24.7400  -30.7480 C   0  0  0  0  0  0  0  0  0  0  0  0
   -4.7100   23.4000  -31.0840 C   0  0  0  0  0  0  0  0  0  0  0  0
   -3.7092   23.0646  -31.3937 H   0  0  0  0  0  0  0  0  0  0  0  0
   -5.7650   22.4840  -31.0280 C   0  0  0  0  0  0  0  0  0  0  0  0
   -5.5867   21.4276  -31.2776 H   0  0  0  0  0  0  0  0  0  0  0  0
   -7.0530   22.9070  -30.6540 C   0  0  0  0  0  0  0  0  0  0  0  0
   -8.1850   21.9580  -30.5590 C   0  0  0  0  0  0  0  0  0  0  0  0
   -8.7003   21.8816  -29.5902 H   0  0  0  0  0  0  0  0  0  0  0  0
   -8.6340   21.1830  -31.5590 C   0  0  0  0  0  0  0  0  0  0  0  0
   -9.6422   21.3922  -31.9459 H   0  0  0  0  0  0  0  0  0  0  0  0
   -7.8840   20.0700  -32.1840 C   0  0  0  0  0  0  0  0  0  0  0  0
   -6.9730   20.2950  -33.2320 C   0  0  0  0  0  0  0  0  0  0  0  0
   -6.7924   21.3194  -33.5898 H   0  0  0  0  0  0  0  0  0  0  0  0
   -6.2960   19.2230  -33.8210 C   0  0  0  0  0  0  0  0  0  0  0  0
   -5.5714   19.4092  -34.6274 H   0  0  0  0  0  0  0  0  0  0  0  0
   -6.5380   17.9060  -33.3860 C   0  0  0  0  0  0  0  0  0  0  0  0
   -5.8820   16.7980  -33.9430 O   0  0  0  0  0  0  0  0  0  0  0  0
   -6.4790   15.5180  -34.1240 C   0  0  0  0  0  0  0  0  0  0  0  0
   -6.6885   15.0689  -33.1419 H   0  0  0  0  0  0  0  0  0  0  0  0
   -7.4188   15.6278  -34.6849 H   0  0  0  0  0  0  0  0  0  0  0  0
   -5.7909   14.8685  -34.6849 H   0  0  0  0  0  0  0  0  0  0  0  0
   -7.4670   17.6850  -32.3640 C   0  0  0  0  0  0  0  0  0  0  0  0
   -7.6674   16.6588  -32.0223 H   0  0  0  0  0  0  0  0  0  0  0  0
   -8.1430   18.7560  -31.7730 C   0  0  0  0  0  0  0  0  0  0  0  0
   -8.8823   18.5662  -30.9809 H   0  0  0  0  0  0  0  0  0  0  0  0
   -7.2550   24.2480  -30.2910 C   0  0  0  0  0  0  0  0  0  0  0  0
   -8.2496   24.5815  -29.9601 H   0  0  0  0  0  0  0  0  0  0  0  0
   -6.1980   25.1620  -30.3480 C   0  0  0  0  0  0  0  0  0  0  0  0
   -6.3681   26.2148  -30.0783 H   0  0  0  0  0  0  0  0  0  0  0  0
  1  2  1  0
  2  3  1  0
  3  4  2  0
  4  5  1  0
  4  6  1  0
  6  7  1  0
  6  8  2  0
  8  9  1  0
  9 10  1  0
  9 11  2  0
 11 12  1  0
 11 13  1  0
 13 14  2  0
 14 15  1  0
 14 16  1  0
 16 17  1  0
 16 18  2  0
 18 19  1  0
 19 20  1  0
 20 21  1  0
 20 22  1  0
 20 23  1  0
 18 24  1  0
 24 25  1  0
 24 26  2  0
 26 27  1  0
  8 28  1  0
 28 29  1  0
 28 30  2  0
 30 31  1  0
 30  3  1  0
 26 13  1  0
M  END
>  <UniqueID>  (45) 
42

>  <SMILES>  (45) 
COc1ccc(/C=C\c2ccc(O)cc2)cc1

>  <Energy>  (45) 
39.977255449681394

>  <Genealogy>  (45) 
COc1ccc(/C=C\c2ccc(O)cc2)cc1 (cis-trans isomerization)
COc1ccc(/C=C\c2ccc(O)cc2)cc1 (3D coordinates assigned)
COc1ccc(/C=C\c2ccc(O)cc2)cc1 (optimized conformer: 39.977255449681394 kcal/mol)

>  <smiles>  (45) 
COc1ccc(C=Cc2ccc(O)cc2)cc1

>  <score_type>  (45) 
oracle

>  <origin>  (45) 
adg

>  <m_score__min__energy>  (45) 
-8.5299999999999994

>  <m_primary>  (45) 
energy

$$$$
45:0
     RDKit          3D

 42 44  0  0  0  0  0  0  0  0999 V2000
   -7.2200   22.6670  -30.2180 C   0  0  0  0  0  0  0  0  0  0  0  0
   -7.5910   23.0520  -31.6500 C   0  0  0  0  0  0  0  0  0  0  0  0
   -6.3810   23.5440  -32.4580 C   0  0  0  0  0  0  0  0  0  0  0  0
   -5.0680   23.1070  -31.8600 C   0  0  0  0  0  0  0  0  0  0  0  0
   -4.4720   23.7600  -30.8380 N   0  0  0  0  0  0  0  0  0  0  0  0
   -3.3210   23.0880  -30.6370 C   0  0  0  0  0  0  0  0  0  0  0  0
   -3.2250   22.0550  -31.5400 C   0  0  0  0  0  0  0  0  0  0  0  0
   -4.3180   22.0780  -32.3200 N   0  0  0  0  0  0  0  0  0  0  0  0
   -4.6080   21.1580  -33.4230 C   0  0  0  0  0  0  0  0  0  0  0  0
   -5.6340   20.1080  -33.0610 C   0  0  0  0  0  0  0  0  0  0  0  0
   -6.9880   20.2760  -33.1890 C   0  0  0  0  0  0  0  0  0  0  0  0
   -7.9230   19.1230  -32.7730 C   0  0  0  0  0  0  0  0  0  0  0  0
   -7.0840   17.9300  -32.1980 C   0  0  2  0  0  0  0  0  0  0  0  0
   -6.0760   18.5650  -31.2180 C   0  0  0  0  0  0  0  0  0  0  0  0
   -5.1680   18.7810  -32.4450 C   0  0  1  0  0  0  0  0  0  0  0  0
   -5.8950   17.6010  -33.1410 C   0  0  0  0  0  0  0  0  0  0  0  0
   -6.1180   17.6770  -34.6760 C   0  0  0  0  0  0  0  0  0  0  0  0
   -5.2450   16.2350  -32.8110 C   0  0  0  0  0  0  0  0  0  0  0  0
   -7.8052   23.2743  -29.5117 H   0  0  0  0  0  0  0  0  0  0  0  0
   -7.4407   21.6016  -30.0559 H   0  0  0  0  0  0  0  0  0  0  0  0
   -6.1472   22.8481  -30.0559 H   0  0  0  0  0  0  0  0  0  0  0  0
   -8.0169   22.1714  -32.1531 H   0  0  0  0  0  0  0  0  0  0  0  0
   -8.3163   23.8774  -31.5974 H   0  0  0  0  0  0  0  0  0  0  0  0
   -6.4534   23.1434  -33.4799 H   0  0  0  0  0  0  0  0  0  0  0  0
   -6.4006   24.6438  -32.4509 H   0  0  0  0  0  0  0  0  0  0  0  0
   -2.5724   23.3290  -29.8679 H   0  0  0  0  0  0  0  0  0  0  0  0
   -2.3966   21.3348  -31.6110 H   0  0  0  0  0  0  0  0  0  0  0  0
   -4.9881   21.7407  -34.2750 H   0  0  0  0  0  0  0  0  0  0  0  0
   -3.6728   20.6338  -33.6693 H   0  0  0  0  0  0  0  0  0  0  0  0
   -7.4005   21.2171  -33.5817 H   0  0  0  0  0  0  0  0  0  0  0  0
   -8.6217   19.4811  -32.0026 H   0  0  0  0  0  0  0  0  0  0  0  0
   -8.4830   18.7775  -33.6545 H   0  0  0  0  0  0  0  0  0  0  0  0
   -7.8049   17.1465  -31.9217 H   0  0  0  0  0  0  0  0  0  0  0  0
   -6.4229   19.4880  -30.7304 H   0  0  0  0  0  0  0  0  0  0  0  0
   -5.7282   18.0452  -30.3131 H   0  0  0  0  0  0  0  0  0  0  0  0
   -4.0693   18.8106  -32.4014 H   0  0  0  0  0  0  0  0  0  0  0  0
   -7.1409   18.0256  -34.8811 H   0  0  0  0  0  0  0  0  0  0  0  0
   -5.3958   18.3797  -35.1171 H   0  0  0  0  0  0  0  0  0  0  0  0
   -5.9752   16.6795  -35.1171 H   0  0  0  0  0  0  0  0  0  0  0  0
   -5.1860   16.1111  -31.7196 H   0  0  0  0  0  0  0  0  0  0  0  0
   -5.8546   15.4258  -33.2395 H   0  0  0  0  0  0  0  0  0  0  0  0
   -4.2326   16.1976  -33.2395 H   0  0  0  0  0  0  0  0  0  0  0  0
  1  2  1  0
  2  3  1  0
  3  4  1  0
  4  5  2  0
  5  6  1  0
  6  7  2  0
  7  8  1  0
  8  9  1  0
  9 10  1  0
 10 11  2  0
 11 12  1  0
 12 13  1  0
 13 14  1  0
 14 15  1  0
 15 16  1  0
 16 17  1  0
 16 18  1  0
  8  4  1  0
 15 10  1  0
 16 13  1  0
  1 19  1  0
  1 20  1  0
  1 21  1  0
  2 22  1  0
  2 23  1  0
  3 24  1  0
  3 25  1  0
  6 26  1  0
  7 27  1  0
  9 28  1  0
  9 29  1  0
 11 30  1  0
 12 31  1  0
 12 32  1  0
 13 33  1  1
 14 34  1  0
 14 35  1  0
 15 36  1  1
 17 37  1  0
 17 38  1  0
 17 39  1  0
 18 40  1  0
 18 41  1  0
 18 42  1  0
M  END
>  <UniqueID>  (46) 
43

>  <SMILES>  (46) 
CCCc1nccn1CC1=CC[C@@H]2C[C@H]1C2(C)C

>  <Energy>  (46) 
163.08385183922877

>  <Genealogy>  (46) 
CCCc1nccn1CC1=CC[C@@H]2C[C@H]1C2(C)C (chirality)
CCCc1nccn1CC1=CC[C@@H]2C[C@H]1C2(C)C (3D coordinates assigned)
CCCc1nccn1CC1=CC[C@@H]2C[C@H]1C2(C)C (nonaromatic ring conformer: 163.08385183922877 kcal/mol)

>  <smiles>  (46) 
CCCc1nccn1CC1=CCC2CC1C2(C)C

>  <score_type>  (46) 
oracle

>  <origin>  (46) 
adg

>  <m_score__min__energy>  (46) 
-7.2400000000000002

>  <m_primary>  (46) 
energy

$$$$
46:0
     RDKit          3D

 33 35  0  0  0  0  0  0  0  0999 V2000
   -1.6260   26.4410  -24.8870 C   0  0  0  0  0  0  0  0  0  0  0  0
   -1.2110   25.6360  -25.9860 O   0  0  0  0  0  0  0  0  0  0  0  0
   -2.0730   25.1490  -26.9800 C   0  0  0  0  0  0  0  0  0  0  0  0
   -3.4150   24.8150  -26.7190 C   0  0  0  0  0  0  0  0  0  0  0  0
   -4.2330   24.3320  -27.7440 C   0  0  0  0  0  0  0  0  0  0  0  0
   -3.7300   24.1740  -29.0460 C   0  0  0  0  0  0  0  0  0  0  0  0
   -4.6170   23.6610  -30.1160 C   0  0  0  0  0  0  0  0  0  0  0  0
   -5.5390   22.6290  -30.0280 C   0  0  0  0  0  0  0  0  0  0  0  0
   -6.0900   22.5560  -31.2970 C   0  0  0  0  0  0  0  0  0  0  0  0
   -7.1400   21.6110  -31.7550 C   0  0  0  0  0  0  0  0  0  0  0  0
   -6.7880   20.3940  -32.3710 C   0  0  0  0  0  0  0  0  0  0  0  0
   -7.7770   19.5050  -32.8020 C   0  0  0  0  0  0  0  0  0  0  0  0
   -9.1270   19.8180  -32.6240 C   0  0  0  0  0  0  0  0  0  0  0  0
  -10.0850   18.9540  -33.0430 F   0  0  0  0  0  0  0  0  0  0  0  0
   -9.4890   21.0210  -32.0170 C   0  0  0  0  0  0  0  0  0  0  0  0
   -8.5040   21.9140  -31.5840 C   0  0  0  0  0  0  0  0  0  0  0  0
   -5.5110   23.5010  -32.0650 N   0  0  0  0  0  0  0  0  0  0  0  0
   -4.6450   24.1410  -31.3400 O   0  0  0  0  0  0  0  0  0  0  0  0
   -2.3890   24.5090  -29.3030 C   0  0  0  0  0  0  0  0  0  0  0  0
   -1.5710   24.9910  -28.2760 C   0  0  0  0  0  0  0  0  0  0  0  0
   -1.3661   25.9369  -23.9445 H   0  0  0  0  0  0  0  0  0  0  0  0
   -1.1179   27.4155  -24.9338 H   0  0  0  0  0  0  0  0  0  0  0  0
   -2.7145   26.5924  -24.9338 H   0  0  0  0  0  0  0  0  0  0  0  0
   -3.8218   24.9346  -25.7040 H   0  0  0  0  0  0  0  0  0  0  0  0
   -5.2803   24.0732  -27.5292 H   0  0  0  0  0  0  0  0  0  0  0  0
   -5.7783   22.0097  -29.1509 H   0  0  0  0  0  0  0  0  0  0  0  0
   -5.7270   20.1413  -32.5139 H   0  0  0  0  0  0  0  0  0  0  0  0
   -7.4919   18.5573  -33.2822 H   0  0  0  0  0  0  0  0  0  0  0  0
  -10.5521   21.2676  -31.8787 H   0  0  0  0  0  0  0  0  0  0  0  0
   -8.7972   22.8604  -31.1061 H   0  0  0  0  0  0  0  0  0  0  0  0
   -5.7160   23.7230  -33.0640 H   0  0  0  0  0  0  0  0  0  0  0  0
   -1.9808   24.3914  -30.3176 H   0  0  0  0  0  0  0  0  0  0  0  0
   -0.5230   25.2483  -28.4895 H   0  0  0  0  0  0  0  0  0  0  0  0
  1  2  1  0
  2  3  1  0
  3  4  2  0
  4  5  1  0
  5  6  2  0
  6  7  1  0
  7  8  2  0
  8  9  1  0
  9 10  1  0
 10 11  2  0
 11 12  1  0
 12 13  2  0
 13 14  1  0
 13 15  1  0
 15 16  2  0
  9 17  2  0
 17 18  1  0
  6 19  1  0
 19 20  2  0
 20  3  1  0
 18  7  1  0
 16 10  1  0
  1 21  1  0
  1 22  1  0
  1 23  1  0
  4 24  1  0
  5 25  1  0
  8 26  1  0
 11 27  1  0
 12 28  1  0
 15 29  1  0
 16 30  1  0
 17 31  1  0
 19 32  1  0
 20 33  1  0
M  CHG  1  17   1
M  END
>  <UniqueID>  (47) 
44

>  <SMILES>  (47) 
COc1ccc(-c2cc(-c3ccc(F)cc3)[nH+]o2)cc1

>  <Energy>  (47) 
69.29421118982785

>  <Genealogy>  (47) 
COc1ccc(-c2cc(-c3ccc(F)cc3)[nH+]o2)cc1 (protonated)
COc1ccc(-c2cc(-c3ccc(F)cc3)[nH+]o2)cc1 (3D coordinates assigned)
COc1ccc(-c2cc(-c3ccc(F)cc3)[nH+]o2)cc1 (optimized conformer: 69.29421118982785 kcal/mol)

>  <smiles>  (47) 
COc1ccc(-c2cc(-c3ccc(F)cc3)no2)cc1

>  <score_type>  (47) 
oracle

>  <origin>  (47) 
adg

>  <m_score__min__energy>  (47) 
-6.79

>  <m_primary>  (47) 
energy

$$$$
