0:0
     RDKit          3D

 58 60  0  0  0  0  0  0  0  0999 V2000
   -7.4180   13.2810  -34.9290 C   0  0  0  0  0  0  0  0  0  0  0  0
   -6.5120   14.2910  -34.2300 C   0  0  0  0  0  0  0  0  0  0  0  0
   -7.2370   15.4780  -33.9010 O   0  0  0  0  0  0  0  0  0  0  0  0
   -6.6760   16.7480  -33.6890 C   0  0  0  0  0  0  0  0  0  0  0  0
   -5.9290   17.4260  -34.6730 C   0  0  0  0  0  0  0  0  0  0  0  0
   -5.4040   18.6940  -34.4080 C   0  0  0  0  0  0  0  0  0  0  0  0
   -5.6210   19.3050  -33.1670 C   0  0  0  0  0  0  0  0  0  0  0  0
   -5.0870   20.6070  -32.8910 N   0  0  0  0  0  0  0  0  0  0  0  0
   -3.7900   20.9810  -32.8840 C   0  0  0  0  0  0  0  0  0  0  0  0
   -2.4180   19.9410  -33.4010 S   0  0  0  0  0  0  0  0  0  0  0  0
   -1.1750   21.2820  -33.3470 C   0  0  0  0  0  0  0  0  0  0  0  0
   -0.3110   21.2680  -34.5670 C   0  0  0  0  0  0  0  0  0  0  0  0
   -0.4320   20.3390  -35.4140 O   0  0  0  0  0  0  0  0  0  0  0  0
    0.6560   22.2670  -34.7290 O   0  0  0  0  0  0  0  0  0  0  0  0
    1.7210   22.1600  -35.6660 C   0  0  0  0  0  0  0  0  0  0  0  0
   -3.6420   22.2700  -32.5190 N   0  0  0  0  0  0  0  0  0  0  0  0
   -4.8620   22.7240  -32.2780 N   0  0  0  0  0  0  0  0  0  0  0  0
   -5.7380   21.7270  -32.5060 C   0  0  0  0  0  0  0  0  0  0  0  0
   -7.2250   21.8590  -32.3200 C   0  0  0  0  0  0  0  0  0  0  0  0
   -7.6710   21.4910  -30.8960 C   0  0  0  0  0  0  0  0  0  0  0  0
   -7.5050   22.6610  -29.8990 C   0  0  0  0  0  0  0  0  0  0  0  0
   -6.3220   23.5140  -30.1500 N   0  0  0  0  0  0  0  0  0  0  0  0
   -5.1380   23.1230  -29.3560 C   0  0  0  0  0  0  0  0  0  0  0  0
   -4.0390   24.2010  -29.4430 C   0  0  0  0  0  0  0  0  0  0  0  0
   -4.1840   24.9560  -30.6290 O   0  0  0  0  0  0  0  0  0  0  0  0
   -5.3630   25.7460  -30.5670 C   0  0  0  0  0  0  0  0  0  0  0  0
   -6.5920   24.9580  -30.0590 C   0  0  0  0  0  0  0  0  0  0  0  0
   -6.3550   18.6280  -32.1840 C   0  0  0  0  0  0  0  0  0  0  0  0
   -6.8810   17.3600  -32.4470 C   0  0  0  0  0  0  0  0  0  0  0  0
   -7.9528   12.6848  -34.1750 H   0  0  0  0  0  0  0  0  0  0  0  0
   -8.1457   13.8149  -35.5579 H   0  0  0  0  0  0  0  0  0  0  0  0
   -6.8085   12.6154  -35.5579 H   0  0  0  0  0  0  0  0  0  0  0  0
   -6.1159   13.8424  -33.3070 H   0  0  0  0  0  0  0  0  0  0  0  0
   -5.6887   14.5567  -34.9094 H   0  0  0  0  0  0  0  0  0  0  0  0
   -5.7585   16.9558  -35.6527 H   0  0  0  0  0  0  0  0  0  0  0  0
   -4.8170   19.2149  -35.1788 H   0  0  0  0  0  0  0  0  0  0  0  0
   -1.6939   22.2500  -33.2860 H   0  0  0  0  0  0  0  0  0  0  0  0
   -0.5353   21.1285  -32.4654 H   0  0  0  0  0  0  0  0  0  0  0  0
    2.6752   22.0641  -35.1272 H   0  0  0  0  0  0  0  0  0  0  0  0
    1.5659   21.2729  -36.2977 H   0  0  0  0  0  0  0  0  0  0  0  0
    1.7454   23.0602  -36.2977 H   0  0  0  0  0  0  0  0  0  0  0  0
   -5.0790   23.6950  -31.9560 H   0  0  0  0  0  0  0  0  0  0  0  0
   -7.5157   22.9002  -32.5235 H   0  0  0  0  0  0  0  0  0  0  0  0
   -7.7138   21.1614  -33.0160 H   0  0  0  0  0  0  0  0  0  0  0  0
   -8.7313   21.1994  -30.9234 H   0  0  0  0  0  0  0  0  0  0  0  0
   -7.0316   20.6656  -30.5499 H   0  0  0  0  0  0  0  0  0  0  0  0
   -8.4035   23.2929  -29.9572 H   0  0  0  0  0  0  0  0  0  0  0  0
   -7.3621   22.2098  -28.9060 H   0  0  0  0  0  0  0  0  0  0  0  0
   -5.4352   22.9952  -28.3046 H   0  0  0  0  0  0  0  0  0  0  0  0
   -4.7394   22.1803  -29.7589 H   0  0  0  0  0  0  0  0  0  0  0  0
   -4.1187   24.8712  -28.5744 H   0  0  0  0  0  0  0  0  0  0  0  0
   -3.0553   23.7087  -29.4507 H   0  0  0  0  0  0  0  0  0  0  0  0
   -5.1830   26.5915  -29.8867 H   0  0  0  0  0  0  0  0  0  0  0  0
   -5.5877   26.0826  -31.5898 H   0  0  0  0  0  0  0  0  0  0  0  0
   -6.7932   25.2279  -29.0118 H   0  0  0  0  0  0  0  0  0  0  0  0
   -7.4675   25.2066  -30.6769 H   0  0  0  0  0  0  0  0  0  0  0  0
   -6.5178   19.0960  -31.2019 H   0  0  0  0  0  0  0  0  0  0  0  0
   -7.4610   16.8386  -31.6713 H   0  0  0  0  0  0  0  0  0  0  0  0
  1  2  1  0
  2  3  1  0
  3  4  1  0
  4  5  2  0
  5  6  1  0
  6  7  2  0
  7  8  1  0
  8  9  1  0
  9 10  1  0
 10 11  1  0
 11 12  1  0
 12 13  2  0
 12 14  1  0
 14 15  1  0
  9 16  2  0
 16 17  1  0
 17 18  2  0
 18 19  1  0
 19 20  1  0
 20 21  1  0
 21 22  1  0
 22 23  1  0
 23 24  1  0
 24 25  1  0
 25 26  1  0
 26 27  1  0
  7 28  1  0
 28 29  2  0
 29  4  1  0
 18  8  1  0
 27 22  1  0
  1 30  1  0
  1 31  1  0
  1 32  1  0
  2 33  1  0
  2 34  1  0
  5 35  1  0
  6 36  1  0
 11 37  1  0
 11 38  1  0
 15 39  1  0
 15 40  1  0
 15 41  1  0
 17 42  1  0
 19 43  1  0
 19 44  1  0
 20 45  1  0
 20 46  1  0
 21 47  1  0
 21 48  1  0
 23 49  1  0
 23 50  1  0
 24 51  1  0
 24 52  1  0
 26 53  1  0
 26 54  1  0
 27 55  1  0
 27 56  1  0
 28 57  1  0
 29 58  1  0
M  CHG  1  17   1
M  END
>  <UniqueID>  (1) 
1

>  <SMILES>  (1) 
CCOc1ccc(-n2c(SCC(=O)OC)n[nH+]c2CCCN2CCOCC2)cc1

>  <Energy>  (1) 
98.32049392950783

>  <Genealogy>  (1) 
CCOc1ccc(-n2c(SCC(=O)OC)n[nH+]c2CCCN2CCOCC2)cc1 (protonated)
CCOc1ccc(-n2c(SCC(=O)OC)n[nH+]c2CCCN2CCOCC2)cc1 (3D coordinates assigned)
CCOc1ccc(-n2c(SCC(=O)OC)n[nH+]c2CCCN2CCOCC2)cc1 (nonaromatic ring conformer: 98.32049392950783 kcal/mol)

>  <smiles>  (1) 
CCOc1ccc(-n2c(CCCN3CCOCC3)nnc2SCC(=O)OC)cc1

>  <score_type>  (1) 
oracle

>  <origin>  (1) 
adg

>  <m_score__min__energy>  (1) 
-7.8899999999999997

>  <m_primary>  (1) 
energy

$$$$
1:0
     RDKit          3D

 71 73  0  0  0  0  0  0  0  0999 V2000
   -1.0480   18.9060  -33.6230 C   0  0  0  0  0  0  0  0  0  0  0  0
   -1.0820   19.5290  -32.2190 C   0  0  0  0  0  0  0  0  0  0  0  0
   -1.1300   21.0120  -32.2110 N   0  0  0  0  0  0  0  0  0  0  0  0
   -1.1430   21.6100  -30.8570 C   0  0  0  0  0  0  0  0  0  0  0  0
   -1.4280   20.5600  -29.7860 C   0  0  0  0  0  0  0  0  0  0  0  0
   -2.2170   21.5460  -33.0620 C   0  0  0  0  0  0  0  0  0  0  0  0
   -3.5020   21.7120  -32.2460 C   0  0  0  0  0  0  0  0  0  0  0  0
   -4.6840   21.6040  -33.1020 N   0  0  0  0  0  0  0  0  0  0  0  0
   -5.7850   20.7770  -32.7090 C   0  0  0  0  0  0  0  0  0  0  0  0
   -5.6620   19.3680  -32.7680 C   0  0  0  0  0  0  0  0  0  0  0  0
   -4.4250   18.7640  -33.0800 C   0  0  0  0  0  0  0  0  0  0  0  0
   -4.3040   17.3780  -33.1500 C   0  0  0  0  0  0  0  0  0  0  0  0
   -5.4070   16.5680  -32.9020 C   0  0  0  0  0  0  0  0  0  0  0  0
   -6.6380   17.1360  -32.5760 C   0  0  0  0  0  0  0  0  0  0  0  0
   -6.7970   18.5420  -32.4990 C   0  0  0  0  0  0  0  0  0  0  0  0
   -8.0090   19.1140  -32.1670 N   0  0  0  0  0  0  0  0  0  0  0  0
   -9.1990   18.2760  -31.9180 C   0  0  0  0  0  0  0  0  0  0  0  0
   -8.0830   20.4760  -32.0400 C   0  0  0  0  0  0  0  0  0  0  0  0
   -9.4220   21.3760  -31.5560 S   0  0  0  0  0  0  0  0  0  0  0  0
   -8.6660   22.8690  -31.6270 C   0  0  0  0  0  0  0  0  0  0  0  0
   -7.3410   22.7000  -32.0330 C   0  0  0  0  0  0  0  0  0  0  0  0
   -6.4410   23.9120  -32.1290 C   0  0  0  0  0  0  0  0  0  0  0  0
   -5.7760   24.2500  -30.7880 C   0  0  0  0  0  0  0  0  0  0  0  0
   -4.4700   24.8940  -30.9860 N   0  0  0  0  0  0  0  0  0  0  0  0
   -3.4920   24.4950  -29.9560 C   0  0  0  0  0  0  0  0  0  0  0  0
   -3.8350   23.1480  -29.2910 C   0  0  0  0  0  0  0  0  0  0  0  0
   -3.5080   23.1300  -27.7890 C   0  0  0  0  0  0  0  0  0  0  0  0
   -3.2110   24.4930  -27.2990 N   0  0  0  0  0  0  0  0  0  0  0  0
   -4.2360   24.9500  -26.3450 C   0  0  0  0  0  0  0  0  0  0  0  0
   -1.8920   24.5170  -26.6440 C   0  0  0  0  0  0  0  0  0  0  0  0
   -7.0090   21.3340  -32.2820 C   0  0  0  0  0  0  0  0  0  0  0  0
   -0.9882   17.8110  -33.5369 H   0  0  0  0  0  0  0  0  0  0  0  0
   -1.9625   19.1815  -34.1687 H   0  0  0  0  0  0  0  0  0  0  0  0
   -0.1689   19.2794  -34.1687 H   0  0  0  0  0  0  0  0  0  0  0  0
   -1.9737   19.1525  -31.6963 H   0  0  0  0  0  0  0  0  0  0  0  0
   -0.1431   19.2411  -31.7234 H   0  0  0  0  0  0  0  0  0  0  0  0
   -0.1622   22.0667  -30.6582 H   0  0  0  0  0  0  0  0  0  0  0  0
   -1.9409   22.3664  -30.8207 H   0  0  0  0  0  0  0  0  0  0  0  0
   -1.3059   21.0100  -28.7897 H   0  0  0  0  0  0  0  0  0  0  0  0
   -2.4585   20.1920  -29.8983 H   0  0  0  0  0  0  0  0  0  0  0  0
   -0.7250   19.7215  -29.8983 H   0  0  0  0  0  0  0  0  0  0  0  0
   -1.9147   22.5239  -33.4647 H   0  0  0  0  0  0  0  0  0  0  0  0
   -2.4055   20.8401  -33.8843 H   0  0  0  0  0  0  0  0  0  0  0  0
   -3.5428   20.9279  -31.4756 H   0  0  0  0  0  0  0  0  0  0  0  0
   -3.4957   22.7089  -31.7810 H   0  0  0  0  0  0  0  0  0  0  0  0
   -4.8980   22.3900  -33.7570 H   0  0  0  0  0  0  0  0  0  0  0  0
   -3.5450   19.3960  -33.2704 H   0  0  0  0  0  0  0  0  0  0  0  0
   -3.3345   16.9235  -33.4018 H   0  0  0  0  0  0  0  0  0  0  0  0
   -5.3078   15.4742  -32.9633 H   0  0  0  0  0  0  0  0  0  0  0  0
   -7.4995   16.4822  -32.3754 H   0  0  0  0  0  0  0  0  0  0  0  0
   -9.3515   18.1686  -30.8339 H   0  0  0  0  0  0  0  0  0  0  0  0
  -10.0831   18.7519  -32.3673 H   0  0  0  0  0  0  0  0  0  0  0  0
   -9.0489   17.2832  -32.3673 H   0  0  0  0  0  0  0  0  0  0  0  0
   -9.1400   23.8330  -31.3904 H   0  0  0  0  0  0  0  0  0  0  0  0
   -5.6558   23.7117  -32.8729 H   0  0  0  0  0  0  0  0  0  0  0  0
   -7.0625   24.7707  -32.4228 H   0  0  0  0  0  0  0  0  0  0  0  0
   -6.4303   24.9325  -30.2257 H   0  0  0  0  0  0  0  0  0  0  0  0
   -5.6202   23.3135  -30.2323 H   0  0  0  0  0  0  0  0  0  0  0  0
   -4.5890   25.9350  -30.9970 H   0  0  0  0  0  0  0  0  0  0  0  0
   -2.5013   24.4115  -30.4267 H   0  0  0  0  0  0  0  0  0  0  0  0
   -3.5091   25.2643  -29.1699 H   0  0  0  0  0  0  0  0  0  0  0  0
   -4.9103   22.9552  -29.4198 H   0  0  0  0  0  0  0  0  0  0  0  0
   -3.2230   22.3723  -29.7745 H   0  0  0  0  0  0  0  0  0  0  0  0
   -4.3707   22.7286  -27.2371 H   0  0  0  0  0  0  0  0  0  0  0  0
   -2.6224   22.4975  -27.6289 H   0  0  0  0  0  0  0  0  0  0  0  0
   -3.8777   24.7902  -25.3173 H   0  0  0  0  0  0  0  0  0  0  0  0
   -4.4322   26.0208  -26.5026 H   0  0  0  0  0  0  0  0  0  0  0  0
   -5.1636   24.3802  -26.5026 H   0  0  0  0  0  0  0  0  0  0  0  0
   -2.0248   24.5146  -25.5520 H   0  0  0  0  0  0  0  0  0  0  0  0
   -1.3167   23.6292  -26.9454 H   0  0  0  0  0  0  0  0  0  0  0  0
   -1.3494   25.4252  -26.9454 H   0  0  0  0  0  0  0  0  0  0  0  0
  1  2  1  0
  2  3  1  0
  3  4  1  0
  4  5  1  0
  3  6  1  0
  6  7  1  0
  7  8  1  0
  8  9  1  0
  9 10  2  0
 10 11  1  0
 11 12  2  0
 12 13  1  0
 13 14  2  0
 14 15  1  0
 15 16  2  0
 16 17  1  0
 16 18  1  0
 18 19  1  0
 19 20  1  0
 20 21  2  0
 21 22  1  0
 22 23  1  0
 23 24  1  0
 24 25  1  0
 25 26  1  0
 26 27  1  0
 27 28  1  0
 28 29  1  0
 28 30  1  0
 21 31  1  0
 31  9  1  0
 15 10  1  0
 31 18  2  0
  1 32  1  0
  1 33  1  0
  1 34  1  0
  2 35  1  0
  2 36  1  0
  4 37  1  0
  4 38  1  0
  5 39  1  0
  5 40  1  0
  5 41  1  0
  6 42  1  0
  6 43  1  0
  7 44  1  0
  7 45  1  0
  8 46  1  0
 11 47  1  0
 12 48  1  0
 13 49  1  0
 14 50  1  0
 17 51  1  0
 17 52  1  0
 17 53  1  0
 20 54  1  0
 22 55  1  0
 22 56  1  0
 23 57  1  0
 23 58  1  0
 24 59  1  0
 25 60  1  0
 25 61  1  0
 26 62  1  0
 26 63  1  0
 27 64  1  0
 27 65  1  0
 29 66  1  0
 29 67  1  0
 29 68  1  0
 30 69  1  0
 30 70  1  0
 30 71  1  0
M  CHG  1  16   1
M  END
>  <UniqueID>  (2) 
2

>  <SMILES>  (2) 
CCN(CC)CCNc1c2ccccc2[n+](C)c2scc(CCNCCCN(C)C)c12

>  <Energy>  (2) 
118.23245614754326

>  <Genealogy>  (2) 
CCN(CC)CCNc1c2ccccc2[n+](C)c2scc(CCNCCCN(C)C)c12 (3D coordinates assigned)
CCN(CC)CCNc1c2ccccc2[n+](C)c2scc(CCNCCCN(C)C)c12 (optimized conformer: 118.23245614754326 kcal/mol)

>  <smiles>  (2) 
CCN(CC)CCNc1c2ccccc2[n+](C)c2scc(CCNCCCN(C)C)c12

>  <score_type>  (2) 
oracle

>  <origin>  (2) 
adg

>  <m_score__min__energy>  (2) 
-9.2899999999999991

>  <m_primary>  (2) 
energy

$$$$
2:0
     RDKit          3D

 51 53  0  0  0  0  0  0  0  0999 V2000
   -2.1430   21.0250  -28.1030 C   0  0  0  0  0  0  0  0  0  0  0  0
   -3.4040   21.8600  -27.9220 C   0  0  0  0  0  0  0  0  0  0  0  0
   -3.0820   23.2980  -28.1220 N   0  0  0  0  0  0  0  0  0  0  0  0
   -1.9020   23.7120  -27.3270 C   0  0  0  0  0  0  0  0  0  0  0  0
   -2.1630   25.0350  -26.6060 C   0  0  0  0  0  0  0  0  0  0  0  0
   -4.2420   24.1690  -27.8250 C   0  0  0  0  0  0  0  0  0  0  0  0
   -5.1540   24.3070  -29.0570 C   0  0  0  0  0  0  0  0  0  0  0  0
   -4.4000   24.2560  -30.3680 C   0  0  0  0  0  0  0  0  0  0  0  0
   -3.8990   25.3170  -30.8360 O   0  0  0  0  0  0  0  0  0  0  0  0
   -4.2570   23.0130  -31.0950 N   0  0  0  0  0  0  0  0  0  0  0  0
   -2.9210   22.4310  -31.2720 C   0  0  0  0  0  0  0  0  0  0  0  0
   -2.8200   21.7610  -32.6340 C   0  0  0  0  0  0  0  0  0  0  0  0
   -3.9020   20.7420  -32.7830 C   0  0  0  0  0  0  0  0  0  0  0  0
   -3.6410   19.6120  -33.4850 N   0  0  0  0  0  0  0  0  0  0  0  0
   -4.5710   18.6480  -33.6820 C   0  0  0  0  0  0  0  0  0  0  0  0
   -4.2210   17.4930  -34.3900 C   0  0  0  0  0  0  0  0  0  0  0  0
   -5.1580   16.4800  -34.5910 C   0  0  0  0  0  0  0  0  0  0  0  0
   -6.4510   16.6140  -34.0830 C   0  0  0  0  0  0  0  0  0  0  0  0
   -7.3560   15.6220  -34.2720 F   0  0  0  0  0  0  0  0  0  0  0  0
   -6.8140   17.7660  -33.3790 C   0  0  0  0  0  0  0  0  0  0  0  0
   -5.8820   18.8100  -33.1750 C   0  0  0  0  0  0  0  0  0  0  0  0
   -6.2080   20.0070  -32.4830 C   0  0  0  0  0  0  0  0  0  0  0  0
   -7.6260   20.2350  -31.9920 C   0  0  0  0  0  0  0  0  0  0  0  0
   -5.1840   20.9680  -32.2460 C   0  0  0  0  0  0  0  0  0  0  0  0
   -5.4620   22.2420  -31.4600 C   0  0  0  0  0  0  0  0  0  0  0  0
   -1.7367   20.7560  -27.1168 H   0  0  0  0  0  0  0  0  0  0  0  0
   -2.3867   20.1092  -28.6614 H   0  0  0  0  0  0  0  0  0  0  0  0
   -1.3950   21.6069  -28.6614 H   0  0  0  0  0  0  0  0  0  0  0  0
   -4.1589   21.5478  -28.6587 H   0  0  0  0  0  0  0  0  0  0  0  0
   -3.7983   21.7114  -26.9059 H   0  0  0  0  0  0  0  0  0  0  0  0
   -1.6796   22.9341  -26.5817 H   0  0  0  0  0  0  0  0  0  0  0  0
   -1.0499   23.8472  -28.0094 H   0  0  0  0  0  0  0  0  0  0  0  0
   -2.1309   24.8725  -25.5185 H   0  0  0  0  0  0  0  0  0  0  0  0
   -1.3917   25.7659  -26.8904 H   0  0  0  0  0  0  0  0  0  0  0  0
   -3.1541   25.4183  -26.8904 H   0  0  0  0  0  0  0  0  0  0  0  0
   -4.8188   23.7310  -26.9971 H   0  0  0  0  0  0  0  0  0  0  0  0
   -3.8709   25.1669  -27.5486 H   0  0  0  0  0  0  0  0  0  0  0  0
   -5.8863   23.4863  -29.0431 H   0  0  0  0  0  0  0  0  0  0  0  0
   -5.6365   25.2937  -28.9966 H   0  0  0  0  0  0  0  0  0  0  0  0
   -2.1649   23.2268  -31.2009 H   0  0  0  0  0  0  0  0  0  0  0  0
   -2.7482   21.6799  -30.4871 H   0  0  0  0  0  0  0  0  0  0  0  0
   -2.9240   22.5209  -33.4225 H   0  0  0  0  0  0  0  0  0  0  0  0
   -1.8421   21.2649  -32.7210 H   0  0  0  0  0  0  0  0  0  0  0  0
   -3.2021   17.3836  -34.7899 H   0  0  0  0  0  0  0  0  0  0  0  0
   -4.8780   15.5750  -35.1501 H   0  0  0  0  0  0  0  0  0  0  0  0
   -7.8346   17.8614  -32.9798 H   0  0  0  0  0  0  0  0  0  0  0  0
   -7.6373   20.2368  -30.8921 H   0  0  0  0  0  0  0  0  0  0  0  0
   -7.9916   21.2035  -32.3641 H   0  0  0  0  0  0  0  0  0  0  0  0
   -8.2768   19.4300  -32.3641 H   0  0  0  0  0  0  0  0  0  0  0  0
   -6.1106   22.8874  -32.0705 H   0  0  0  0  0  0  0  0  0  0  0  0
   -5.9310   21.9299  -30.5152 H   0  0  0  0  0  0  0  0  0  0  0  0
  1  2  1  0
  2  3  1  0
  3  4  1  0
  4  5  1  0
  3  6  1  0
  6  7  1  0
  7  8  1  0
  8  9  2  0
  8 10  1  0
 10 11  1  0
 11 12  1  0
 12 13  1  0
 13 14  2  0
 14 15  1  0
 15 16  2  0
 16 17  1  0
 17 18  2  0
 18 19  1  0
 18 20  1  0
 20 21  2  0
 21 22  1  0
 22 23  1  0
 22 24  2  0
 24 25  1  0
 25 10  1  0
 24 13  1  0
 21 15  1  0
  1 26  1  0
  1 27  1  0
  1 28  1  0
  2 29  1  0
  2 30  1  0
  4 31  1  0
  4 32  1  0
  5 33  1  0
  5 34  1  0
  5 35  1  0
  6 36  1  0
  6 37  1  0
  7 38  1  0
  7 39  1  0
 11 40  1  0
 11 41  1  0
 12 42  1  0
 12 43  1  0
 16 44  1  0
 17 45  1  0
 20 46  1  0
 23 47  1  0
 23 48  1  0
 23 49  1  0
 25 50  1  0
 25 51  1  0
M  END
>  <UniqueID>  (3) 
3

>  <SMILES>  (3) 
CCN(CC)CCC(=O)N1CCc2nc3ccc(F)cc3c(C)c2C1

>  <Energy>  (3) 
61.288595459747974

>  <Genealogy>  (3) 
CCN(CC)CCC(=O)N1CCc2nc3ccc(F)cc3c(C)c2C1 (3D coordinates assigned)
CCN(CC)CCC(=O)N1CCc2nc3ccc(F)cc3c(C)c2C1 (nonaromatic ring conformer: 61.288595459747974 kcal/mol)

>  <smiles>  (3) 
CCN(CC)CCC(=O)N1CCc2nc3ccc(F)cc3c(C)c2C1

>  <score_type>  (3) 
oracle

>  <origin>  (3) 
adg

>  <m_score__min__energy>  (3) 
-8.6799999999999997

>  <m_primary>  (3) 
energy

$$$$
3:0
     RDKit          3D

 34 35  0  0  0  0  0  0  0  0999 V2000
   -2.0960   25.7030  -26.2430 C   0  0  0  0  0  0  0  0  0  0  0  0
   -2.6430   24.6980  -27.2520 C   0  0  0  0  0  0  0  0  0  0  0  0
   -2.3210   25.1130  -28.6260 N   0  0  0  0  0  0  0  0  0  0  0  0
   -1.5960   24.0570  -29.3470 C   0  0  0  0  0  0  0  0  0  0  0  0
   -2.5290   22.8870  -29.6890 C   0  0  0  0  0  0  0  0  0  0  0  0
   -3.1000   22.9600  -31.1140 C   0  0  0  0  0  0  0  0  0  0  0  0
   -4.4940   23.4170  -31.1090 N   0  0  0  0  0  0  0  0  0  0  0  0
   -4.9340   24.6690  -30.8370 C   0  0  0  0  0  0  0  0  0  0  0  0
   -4.0980   25.7220  -30.4780 O   0  0  0  0  0  0  0  0  0  0  0  0
   -6.3160   24.7620  -30.9570 C   0  0  0  0  0  0  0  0  0  0  0  0
   -6.7210   23.4930  -31.3150 C   0  0  0  0  0  0  0  0  0  0  0  0
   -7.9970   22.9950  -31.5660 C   0  0  0  0  0  0  0  0  0  0  0  0
   -8.1160   21.6360  -31.9090 C   0  0  0  0  0  0  0  0  0  0  0  0
   -6.9680   20.8150  -31.9910 C   0  0  0  0  0  0  0  0  0  0  0  0
   -5.6920   21.3460  -31.7320 C   0  0  0  0  0  0  0  0  0  0  0  0
   -5.6000   22.7020  -31.3980 C   0  0  0  0  0  0  0  0  0  0  0  0
   -2.2924   25.3421  -25.2226 H   0  0  0  0  0  0  0  0  0  0  0  0
   -1.0117   25.8164  -26.3894 H   0  0  0  0  0  0  0  0  0  0  0  0
   -2.5894   26.6752  -26.3894 H   0  0  0  0  0  0  0  0  0  0  0  0
   -2.1955   23.7119  -27.0584 H   0  0  0  0  0  0  0  0  0  0  0  0
   -3.7366   24.6486  -27.1446 H   0  0  0  0  0  0  0  0  0  0  0  0
   -3.2280   25.2690  -29.1260 H   0  0  0  0  0  0  0  0  0  0  0  0
   -1.1849   24.4738  -30.2783 H   0  0  0  0  0  0  0  0  0  0  0  0
   -0.7864   23.6839  -28.7026 H   0  0  0  0  0  0  0  0  0  0  0  0
   -1.9639   21.9488  -29.5872 H   0  0  0  0  0  0  0  0  0  0  0  0
   -3.3805   22.9361  -28.9944 H   0  0  0  0  0  0  0  0  0  0  0  0
   -2.4952   23.6623  -31.7064 H   0  0  0  0  0  0  0  0  0  0  0  0
   -3.0677   21.9515  -31.5521 H   0  0  0  0  0  0  0  0  0  0  0  0
   -3.0980   25.6650  -30.6260 H   0  0  0  0  0  0  0  0  0  0  0  0
   -6.9462   25.6500  -30.8011 H   0  0  0  0  0  0  0  0  0  0  0  0
   -8.8831   23.6433  -31.4982 H   0  0  0  0  0  0  0  0  0  0  0  0
   -9.1088   21.2093  -32.1148 H   0  0  0  0  0  0  0  0  0  0  0  0
   -7.0737   19.7535  -32.2593 H   0  0  0  0  0  0  0  0  0  0  0  0
   -4.7931   20.7146  -31.7902 H   0  0  0  0  0  0  0  0  0  0  0  0
  1  2  1  0
  2  3  1  0
  3  4  1  0
  4  5  1  0
  5  6  1  0
  6  7  1  0
  7  8  1  0
  8  9  1  0
  8 10  2  0
 10 11  1  0
 11 12  2  0
 12 13  1  0
 13 14  2  0
 14 15  1  0
 15 16  2  0
 16  7  1  0
 16 11  1  0
  1 17  1  0
  1 18  1  0
  1 19  1  0
  2 20  1  0
  2 21  1  0
  3 22  1  0
  4 23  1  0
  4 24  1  0
  5 25  1  0
  5 26  1  0
  6 27  1  0
  6 28  1  0
  9 29  1  0
 10 30  1  0
 12 31  1  0
 13 32  1  0
 14 33  1  0
 15 34  1  0
M  END
>  <UniqueID>  (4) 
4

>  <SMILES>  (4) 
CCNCCCn1c(O)cc2ccccc21

>  <Energy>  (4) 
59.15934833284647

>  <Genealogy>  (4) 
CCNCCCn1c(O)cc2ccccc21 (3D coordinates assigned)
CCNCCCn1c(O)cc2ccccc21 (optimized conformer: 59.15934833284647 kcal/mol)

>  <smiles>  (4) 
CCNCCCn1c(O)cc2ccccc21

>  <score_type>  (4) 
oracle

>  <origin>  (4) 
adg

>  <m_score__min__energy>  (4) 
-7.0999999999999996

>  <m_primary>  (4) 
energy

$$$$
4:0
     RDKit          3D

 52 54  0  0  0  0  0  0  0  0999 V2000
   -6.8300   16.9330  -33.0840 C   0  0  0  0  0  0  0  0  0  0  0  0
   -6.2260   16.1140  -34.2240 C   0  0  0  0  0  0  0  0  0  0  0  0
   -5.2230   15.1410  -33.7430 N   0  0  0  0  0  0  0  0  0  0  0  0
   -4.8440   15.4270  -32.3490 C   0  0  0  0  0  0  0  0  0  0  0  0
   -4.0490   14.9380  -34.6330 C   0  0  0  0  0  0  0  0  0  0  0  0
   -3.2540   16.2110  -34.9880 C   0  0  0  0  0  0  0  0  0  0  0  0
   -3.6800   17.3500  -34.1770 N   0  0  0  0  0  0  0  0  0  0  0  0
   -2.9220   18.5680  -34.0940 C   0  0  0  0  0  0  0  0  0  0  0  0
   -1.7640   18.6180  -34.5940 O   0  0  0  0  0  0  0  0  0  0  0  0
   -3.4760   19.7670  -33.4180 C   0  0  0  0  0  0  0  0  0  0  0  0
   -2.6230   20.8120  -33.0410 C   0  0  0  0  0  0  0  0  0  0  0  0
   -3.1290   21.9420  -32.4040 C   0  0  0  0  0  0  0  0  0  0  0  0
   -4.5070   22.0670  -32.1420 C   0  0  0  0  0  0  0  0  0  0  0  0
   -5.0130   23.2020  -31.4890 C   0  0  0  0  0  0  0  0  0  0  0  0
   -4.2130   24.1130  -31.1300 O   0  0  0  0  0  0  0  0  0  0  0  0
   -6.3570   23.3280  -31.2350 N   0  0  0  0  0  0  0  0  0  0  0  0
   -6.8470   24.5460  -30.5550 C   0  0  0  0  0  0  0  0  0  0  0  0
   -7.2360   22.3140  -31.5610 C   0  0  0  0  0  0  0  0  0  0  0  0
   -6.7780   21.1780  -32.2870 C   0  0  0  0  0  0  0  0  0  0  0  0
   -5.3900   21.0390  -32.5400 C   0  0  0  0  0  0  0  0  0  0  0  0
   -4.8530   19.8890  -33.1680 C   0  0  0  0  0  0  0  0  0  0  0  0
   -7.7460   20.0820  -32.7270 C   0  0  0  0  0  0  0  0  0  0  0  0
   -9.2200   20.4570  -32.6000 C   0  0  0  0  0  0  0  0  0  0  0  0
   -9.4750   21.1260  -31.2620 C   0  0  0  0  0  0  0  0  0  0  0  0
   -8.7120   22.4450  -31.2000 C   0  0  0  0  0  0  0  0  0  0  0  0
   -6.5157   16.5068  -32.1198 H   0  0  0  0  0  0  0  0  0  0  0  0
   -6.4817   17.9739  -33.1558 H   0  0  0  0  0  0  0  0  0  0  0  0
   -7.9274   16.9078  -33.1558 H   0  0  0  0  0  0  0  0  0  0  0  0
   -7.0332   15.5677  -34.7338 H   0  0  0  0  0  0  0  0  0  0  0  0
   -5.7192   16.8106  -34.9081 H   0  0  0  0  0  0  0  0  0  0  0  0
   -5.5333   14.9069  -31.6675 H   0  0  0  0  0  0  0  0  0  0  0  0
   -3.8168   15.0770  -32.1691 H   0  0  0  0  0  0  0  0  0  0  0  0
   -4.8988   16.5108  -32.1691 H   0  0  0  0  0  0  0  0  0  0  0  0
   -3.3625   14.2386  -34.1335 H   0  0  0  0  0  0  0  0  0  0  0  0
   -4.4538   14.5610  -35.5838 H   0  0  0  0  0  0  0  0  0  0  0  0
   -2.1843   16.0258  -34.8108 H   0  0  0  0  0  0  0  0  0  0  0  0
   -3.4391   16.4508  -36.0455 H   0  0  0  0  0  0  0  0  0  0  0  0
   -4.4730   17.2010  -33.5130 H   0  0  0  0  0  0  0  0  0  0  0  0
   -1.5454   20.7395  -33.2497 H   0  0  0  0  0  0  0  0  0  0  0  0
   -2.4436   22.7474  -32.1015 H   0  0  0  0  0  0  0  0  0  0  0  0
   -6.7905   24.4055  -29.4655 H   0  0  0  0  0  0  0  0  0  0  0  0
   -6.2243   25.4045  -30.8468 H   0  0  0  0  0  0  0  0  0  0  0  0
   -7.8908   24.7341  -30.8468 H   0  0  0  0  0  0  0  0  0  0  0  0
   -5.5285   19.0738  -33.4665 H   0  0  0  0  0  0  0  0  0  0  0  0
   -7.5408   19.8441  -33.7812 H   0  0  0  0  0  0  0  0  0  0  0  0
   -7.5797   19.2269  -32.0553 H   0  0  0  0  0  0  0  0  0  0  0  0
   -9.4902   21.1499  -33.4105 H   0  0  0  0  0  0  0  0  0  0  0  0
   -9.8306   19.5446  -32.6682 H   0  0  0  0  0  0  0  0  0  0  0  0
  -10.5518   21.3195  -31.1480 H   0  0  0  0  0  0  0  0  0  0  0  0
   -9.1334   20.4661  -30.4509 H   0  0  0  0  0  0  0  0  0  0  0  0
   -9.1803   23.1510  -31.9016 H   0  0  0  0  0  0  0  0  0  0  0  0
   -8.7595   22.7965  -30.1588 H   0  0  0  0  0  0  0  0  0  0  0  0
  1  2  1  0
  2  3  1  0
  3  4  1  0
  3  5  1  0
  5  6  1  0
  6  7  1  0
  7  8  1  0
  8  9  2  0
  8 10  1  0
 10 11  2  0
 11 12  1  0
 12 13  2  0
 13 14  1  0
 14 15  2  0
 14 16  1  0
 16 17  1  0
 16 18  1  0
 18 19  2  0
 19 20  1  0
 20 21  2  0
 19 22  1  0
 22 23  1  0
 23 24  1  0
 24 25  1  0
 21 10  1  0
 20 13  1  0
 25 18  1  0
  1 26  1  0
  1 27  1  0
  1 28  1  0
  2 29  1  0
  2 30  1  0
  4 31  1  0
  4 32  1  0
  4 33  1  0
  5 34  1  0
  5 35  1  0
  6 36  1  0
  6 37  1  0
  7 38  1  0
 11 39  1  0
 12 40  1  0
 17 41  1  0
 17 42  1  0
 17 43  1  0
 21 44  1  0
 22 45  1  0
 22 46  1  0
 23 47  1  0
 23 48  1  0
 24 49  1  0
 24 50  1  0
 25 51  1  0
 25 52  1  0
M  END
>  <UniqueID>  (5) 
5

>  <SMILES>  (5) 
CCN(C)CCNC(=O)c1ccc2c(=O)n(C)c3c(c2c1)CCCC3

>  <Energy>  (5) 
69.54130580025682

>  <Genealogy>  (5) 
CCN(C)CCNC(=O)c1ccc2c(=O)n(C)c3c(c2c1)CCCC3 (3D coordinates assigned)
CCN(C)CCNC(=O)c1ccc2c(=O)n(C)c3c(c2c1)CCCC3 (nonaromatic ring conformer: 69.54130580025682 kcal/mol)

>  <smiles>  (5) 
CCN(C)CCNC(=O)c1ccc2c(=O)n(C)c3c(c2c1)CCCC3

>  <score_type>  (5) 
oracle

>  <origin>  (5) 
adg

>  <m_score__min__energy>  (5) 
-8.9800000000000004

>  <m_primary>  (5) 
energy

$$$$
5:0
     RDKit          3D

 64 68  0  0  0  0  0  0  0  0999 V2000
   -5.8690   24.0970  -30.9220 C   0  0  0  0  0  0  0  0  0  0  0  0
   -4.9200   23.0140  -31.4370 C   0  0  0  0  0  0  0  0  0  0  0  0
   -5.3030   22.5150  -32.7720 N   0  0  0  0  0  0  0  0  0  0  0  0
   -5.5140   21.0710  -32.7780 C   0  0  0  0  0  0  0  0  0  0  0  0
   -6.7880   20.5350  -32.4360 C   0  0  0  0  0  0  0  0  0  0  0  0
   -7.8730   21.3700  -32.0600 C   0  0  0  0  0  0  0  0  0  0  0  0
   -9.1360   20.8420  -31.8070 C   0  0  0  0  0  0  0  0  0  0  0  0
   -9.3580   19.4790  -31.9270 C   0  0  0  0  0  0  0  0  0  0  0  0
   -8.3070   18.6300  -32.2580 C   0  0  0  0  0  0  0  0  0  0  0  0
   -6.9940   19.1280  -32.4720 C   0  0  0  0  0  0  0  0  0  0  0  0
   -5.9400   18.2750  -32.7210 N   0  0  0  0  0  0  0  0  0  0  0  0
   -6.0790   16.8290  -32.4330 C   0  0  0  0  0  0  0  0  0  0  0  0
   -4.7430   18.7710  -33.1960 C   0  0  0  0  0  0  0  0  0  0  0  0
   -3.7510   17.9020  -33.7170 C   0  0  0  0  0  0  0  0  0  0  0  0
   -2.5070   18.3780  -34.1130 C   0  0  0  0  0  0  0  0  0  0  0  0
   -2.2150   19.7350  -34.0240 C   0  0  0  0  0  0  0  0  0  0  0  0
   -0.8390   20.2380  -34.3810 C   0  0  0  0  0  0  0  0  0  0  0  0
   -0.3870   21.3150  -33.3860 C   0  0  0  0  0  0  0  0  0  0  0  0
    0.4130   20.7270  -32.2120 C   0  0  0  0  0  0  0  0  0  0  0  0
   -0.4270   20.5960  -30.9510 C   0  0  0  0  0  0  0  0  0  0  0  0
   -1.4800   21.5110  -30.8020 C   0  0  0  0  0  0  0  0  0  0  0  0
   -2.2940   21.4720  -29.6840 C   0  0  0  0  0  0  0  0  0  0  0  0
   -2.0770   20.5090  -28.7020 C   0  0  0  0  0  0  0  0  0  0  0  0
   -2.9130   20.4620  -27.5760 C   0  0  0  0  0  0  0  0  0  0  0  0
   -2.7130   19.4960  -26.5920 C   0  0  0  0  0  0  0  0  0  0  0  0
   -1.6820   18.5700  -26.7240 C   0  0  0  0  0  0  0  0  0  0  0  0
   -0.8390   18.6060  -27.8380 C   0  0  0  0  0  0  0  0  0  0  0  0
   -1.0110   19.5840  -28.8540 C   0  0  0  0  0  0  0  0  0  0  0  0
   -0.1840   19.6510  -29.9660 N   0  0  0  0  0  0  0  0  0  0  0  0
    0.9370   18.6910  -30.0830 C   0  0  0  0  0  0  0  0  0  0  0  0
   -3.1900   20.6210  -33.5550 C   0  0  0  0  0  0  0  0  0  0  0  0
   -4.4820   20.1710  -33.1760 C   0  0  0  0  0  0  0  0  0  0  0  0
   -5.8664   24.0940  -29.8220 H   0  0  0  0  0  0  0  0  0  0  0  0
   -5.5361   25.0799  -31.2868 H   0  0  0  0  0  0  0  0  0  0  0  0
   -6.8871   23.8961  -31.2868 H   0  0  0  0  0  0  0  0  0  0  0  0
   -3.9047   23.4332  -31.4951 H   0  0  0  0  0  0  0  0  0  0  0  0
   -4.9684   22.1668  -30.7370 H   0  0  0  0  0  0  0  0  0  0  0  0
   -4.6230   22.8390  -33.4890 H   0  0  0  0  0  0  0  0  0  0  0  0
   -6.1740   22.9990  -33.0830 H   0  0  0  0  0  0  0  0  0  0  0  0
   -7.7127   22.4543  -31.9669 H   0  0  0  0  0  0  0  0  0  0  0  0
   -9.9599   21.5081  -31.5111 H   0  0  0  0  0  0  0  0  0  0  0  0
  -10.3650   19.0689  -31.7605 H   0  0  0  0  0  0  0  0  0  0  0  0
   -8.4965   17.5509  -32.3560 H   0  0  0  0  0  0  0  0  0  0  0  0
   -6.0941   16.6717  -31.3444 H   0  0  0  0  0  0  0  0  0  0  0  0
   -7.0171   16.4565  -32.8703 H   0  0  0  0  0  0  0  0  0  0  0  0
   -5.2290   16.2847  -32.8703 H   0  0  0  0  0  0  0  0  0  0  0  0
   -3.9709   16.8282  -33.8097 H   0  0  0  0  0  0  0  0  0  0  0  0
   -1.7502   17.6789  -34.4984 H   0  0  0  0  0  0  0  0  0  0  0  0
   -0.1283   19.3988  -34.3541 H   0  0  0  0  0  0  0  0  0  0  0  0
   -0.8702   20.6755  -35.3898 H   0  0  0  0  0  0  0  0  0  0  0  0
    0.2455   22.0426  -33.9156 H   0  0  0  0  0  0  0  0  0  0  0  0
   -1.2887   21.7912  -32.9734 H   0  0  0  0  0  0  0  0  0  0  0  0
    0.7802   19.7303  -32.4978 H   0  0  0  0  0  0  0  0  0  0  0  0
    1.2444   21.4133  -31.9934 H   0  0  0  0  0  0  0  0  0  0  0  0
   -1.6601   22.2663  -31.5812 H   0  0  0  0  0  0  0  0  0  0  0  0
   -3.1108   22.2001  -29.5711 H   0  0  0  0  0  0  0  0  0  0  0  0
   -3.7299   21.1910  -27.4697 H   0  0  0  0  0  0  0  0  0  0  0  0
   -3.3701   19.4651  -25.7104 H   0  0  0  0  0  0  0  0  0  0  0  0
   -1.5301   17.8059  -25.9474 H   0  0  0  0  0  0  0  0  0  0  0  0
   -0.0302   17.8661  -27.9296 H   0  0  0  0  0  0  0  0  0  0  0  0
    1.2769   18.3999  -29.0781 H   0  0  0  0  0  0  0  0  0  0  0  0
    0.5993   17.7977  -30.6289 H   0  0  0  0  0  0  0  0  0  0  0  0
    1.7677   19.1621  -30.6289 H   0  0  0  0  0  0  0  0  0  0  0  0
   -2.9502   21.6918  -33.4779 H   0  0  0  0  0  0  0  0  0  0  0  0
  1  2  1  0
  2  3  1  0
  3  4  1  0
  4  5  2  0
  5  6  1  0
  6  7  2  0
  7  8  1  0
  8  9  2  0
  9 10  1  0
 10 11  2  0
 11 12  1  0
 11 13  1  0
 13 14  2  0
 14 15  1  0
 15 16  2  0
 16 17  1  0
 17 18  1  0
 18 19  1  0
 19 20  1  0
 20 21  2  0
 21 22  1  0
 22 23  2  0
 23 24  1  0
 24 25  2  0
 25 26  1  0
 26 27  2  0
 27 28  1  0
 28 29  2  0
 29 30  1  0
 16 31  1  0
 31 32  2  0
 32  4  1  0
 10  5  1  0
 32 13  1  0
 29 20  1  0
 28 23  1  0
  1 33  1  0
  1 34  1  0
  1 35  1  0
  2 36  1  0
  2 37  1  0
  3 38  1  0
  3 39  1  0
  6 40  1  0
  7 41  1  0
  8 42  1  0
  9 43  1  0
 12 44  1  0
 12 45  1  0
 12 46  1  0
 14 47  1  0
 15 48  1  0
 17 49  1  0
 17 50  1  0
 18 51  1  0
 18 52  1  0
 19 53  1  0
 19 54  1  0
 21 55  1  0
 22 56  1  0
 24 57  1  0
 25 58  1  0
 26 59  1  0
 27 60  1  0
 30 61  1  0
 30 62  1  0
 30 63  1  0
 31 64  1  0
M  CHG  3   3   1  11   1  29   1
M  END
>  <UniqueID>  (6) 
6

>  <SMILES>  (6) 
CC[NH2+]c1c2ccccc2[n+](C)c2ccc(CCCc3ccc4ccccc4[n+]3C)cc12

>  <Energy>  (6) 
105.95630891264508

>  <Genealogy>  (6) 
CC[NH2+]c1c2ccccc2[n+](C)c2ccc(CCCc3ccc4ccccc4[n+]3C)cc12 (protonated)
CC[NH2+]c1c2ccccc2[n+](C)c2ccc(CCCc3ccc4ccccc4[n+]3C)cc12 (3D coordinates assigned)
CC[NH2+]c1c2ccccc2[n+](C)c2ccc(CCCc3ccc4ccccc4[n+]3C)cc12 (optimized conformer: 105.95630891264508 kcal/mol)

>  <smiles>  (6) 
CCNc1c2ccccc2[n+](C)c2ccc(CCCc3ccc4ccccc4[n+]3C)cc12

>  <score_type>  (6) 
oracle

>  <origin>  (6) 
adg

>  <m_score__min__energy>  (6) 
-9.3900000000000006

>  <m_primary>  (6) 
energy

$$$$
6:0
     RDKit          3D

 43 45  0  0  0  0  0  0  0  0999 V2000
   -6.6480   24.6850  -29.7460 C   0  0  0  0  0  0  0  0  0  0  0  0
   -5.6540   25.6580  -30.3760 C   0  0  0  0  0  0  0  0  0  0  0  0
   -4.6530   24.9470  -31.1860 N   0  0  0  0  0  0  0  0  0  0  0  0
   -3.8420   24.0080  -30.3900 C   0  0  0  0  0  0  0  0  0  0  0  0
   -3.9020   22.6180  -31.0240 C   0  0  0  0  0  0  0  0  0  0  0  0
   -4.8960   22.5770  -32.0960 N   0  0  0  0  0  0  0  0  0  0  0  0
   -5.6160   21.3730  -32.4080 C   0  0  0  0  0  0  0  0  0  0  0  0
   -7.0070   21.3040  -32.2160 C   0  0  0  0  0  0  0  0  0  0  0  0
   -7.7430   22.4510  -31.8470 C   0  0  0  0  0  0  0  0  0  0  0  0
   -9.1260   22.3890  -31.6920 C   0  0  0  0  0  0  0  0  0  0  0  0
   -9.7990   21.1950  -31.9250 C   0  0  0  0  0  0  0  0  0  0  0  0
   -9.0940   20.0530  -32.3010 C   0  0  0  0  0  0  0  0  0  0  0  0
   -7.6810   20.0730  -32.4310 C   0  0  0  0  0  0  0  0  0  0  0  0
   -6.9660   18.9420  -32.7790 N   0  0  0  0  0  0  0  0  0  0  0  0
   -7.6110   17.6110  -32.7190 C   0  0  0  0  0  0  0  0  0  0  0  0
   -5.6420   19.0540  -33.1640 C   0  0  0  0  0  0  0  0  0  0  0  0
   -4.9520   17.9830  -33.7860 C   0  0  0  0  0  0  0  0  0  0  0  0
   -3.6000   18.0910  -34.1160 C   0  0  0  0  0  0  0  0  0  0  0  0
   -2.7710   16.7450  -34.8780 Cl  0  0  0  0  0  0  0  0  0  0  0  0
   -2.9080   19.2680  -33.8490 C   0  0  0  0  0  0  0  0  0  0  0  0
   -3.5700   20.3520  -33.2780 C   0  0  0  0  0  0  0  0  0  0  0  0
   -4.9390   20.2690  -32.9500 C   0  0  0  0  0  0  0  0  0  0  0  0
   -6.5809   24.7507  -28.6500 H   0  0  0  0  0  0  0  0  0  0  0  0
   -7.6678   24.9435  -30.0671 H   0  0  0  0  0  0  0  0  0  0  0  0
   -6.4113   23.6599  -30.0671 H   0  0  0  0  0  0  0  0  0  0  0  0
   -6.2009   26.3630  -31.0194 H   0  0  0  0  0  0  0  0  0  0  0  0
   -5.1321   26.1934  -29.5691 H   0  0  0  0  0  0  0  0  0  0  0  0
   -4.0140   25.6670  -31.5950 H   0  0  0  0  0  0  0  0  0  0  0  0
   -2.7984   24.3549  -30.3652 H   0  0  0  0  0  0  0  0  0  0  0  0
   -4.2373   23.9605  -29.3646 H   0  0  0  0  0  0  0  0  0  0  0  0
   -2.9143   22.3681  -31.4387 H   0  0  0  0  0  0  0  0  0  0  0  0
   -4.1885   21.8904  -30.2504 H   0  0  0  0  0  0  0  0  0  0  0  0
   -5.0440   23.4260  -32.6870 H   0  0  0  0  0  0  0  0  0  0  0  0
   -7.2188   23.4036  -31.6802 H   0  0  0  0  0  0  0  0  0  0  0  0
   -9.6857   23.2849  -31.3852 H   0  0  0  0  0  0  0  0  0  0  0  0
  -10.8923   21.1514  -31.8121 H   0  0  0  0  0  0  0  0  0  0  0  0
   -9.6422   19.1204  -32.5004 H   0  0  0  0  0  0  0  0  0  0  0  0
   -7.7524   17.3191  -31.6679 H   0  0  0  0  0  0  0  0  0  0  0  0
   -8.5882   17.6541  -33.2223 H   0  0  0  0  0  0  0  0  0  0  0  0
   -6.9717   16.8707  -33.2223 H   0  0  0  0  0  0  0  0  0  0  0  0
   -5.4911   17.0513  -34.0123 H   0  0  0  0  0  0  0  0  0  0  0  0
   -1.8371   19.3424  -34.0891 H   0  0  0  0  0  0  0  0  0  0  0  0
   -3.0189   21.2833  -33.0806 H   0  0  0  0  0  0  0  0  0  0  0  0
  1  2  1  0
  2  3  1  0
  3  4  1  0
  4  5  1  0
  5  6  1  0
  6  7  1  0
  7  8  2  0
  8  9  1  0
  9 10  2  0
 10 11  1  0
 11 12  2  0
 12 13  1  0
 13 14  2  0
 14 15  1  0
 14 16  1  0
 16 17  2  0
 17 18  1  0
 18 19  1  0
 18 20  2  0
 20 21  1  0
 21 22  2  0
 22  7  1  0
 13  8  1  0
 22 16  1  0
  1 23  1  0
  1 24  1  0
  1 25  1  0
  2 26  1  0
  2 27  1  0
  3 28  1  0
  4 29  1  0
  4 30  1  0
  5 31  1  0
  5 32  1  0
  6 33  1  0
  9 34  1  0
 10 35  1  0
 11 36  1  0
 12 37  1  0
 15 38  1  0
 15 39  1  0
 15 40  1  0
 17 41  1  0
 20 42  1  0
 21 43  1  0
M  CHG  1  14   1
M  END
>  <UniqueID>  (7) 
7

>  <SMILES>  (7) 
CCNCCNc1c2ccccc2[n+](C)c2cc(Cl)ccc12

>  <Energy>  (7) 
66.65380972076933

>  <Genealogy>  (7) 
CCNCCNc1c2ccccc2[n+](C)c2cc(Cl)ccc12 (3D coordinates assigned)
CCNCCNc1c2ccccc2[n+](C)c2cc(Cl)ccc12 (optimized conformer: 66.65380972076933 kcal/mol)

>  <smiles>  (7) 
CCNCCNc1c2ccccc2[n+](C)c2cc(Cl)ccc12

>  <score_type>  (7) 
oracle

>  <origin>  (7) 
adg

>  <m_score__min__energy>  (7) 
-8.8399999999999999

>  <m_primary>  (7) 
energy

$$$$
7:0
     RDKit          3D

 52 55  0  0  0  0  0  0  0  0999 V2000
   -3.1080   23.4240  -30.4700 C   0  0  0  0  0  0  0  0  0  0  0  0
   -3.6910   24.6130  -29.8210 N   0  0  0  0  0  0  0  0  0  0  0  0
   -3.7920   24.3750  -28.3730 C   0  0  0  0  0  0  0  0  0  0  0  0
   -5.0210   24.9280  -30.3840 C   0  0  0  0  0  0  0  0  0  0  0  0
   -5.9020   23.6700  -30.4320 C   0  0  0  0  0  0  0  0  0  0  0  0
   -6.9990   23.7740  -31.5010 C   0  0  0  0  0  0  0  0  0  0  0  0
   -6.6480   23.0250  -32.7130 N   0  0  0  0  0  0  0  0  0  0  0  0
   -6.0020   21.7300  -32.7090 C   0  0  0  0  0  0  0  0  0  0  0  0
   -4.6020   21.6900  -32.7390 C   0  0  0  0  0  0  0  0  0  0  0  0
   -3.8450   20.5590  -32.9610 C   0  0  0  0  0  0  0  0  0  0  0  0
   -2.4590   20.5020  -32.9880 C   0  0  0  0  0  0  0  0  0  0  0  0
   -1.4990   21.4080  -32.5260 C   0  0  0  0  0  0  0  0  0  0  0  0
   -0.1440   21.0920  -32.7210 C   0  0  0  0  0  0  0  0  0  0  0  0
    0.2250   19.9010  -33.3800 C   0  0  0  0  0  0  0  0  0  0  0  0
   -0.7590   19.0140  -33.8520 C   0  0  0  0  0  0  0  0  0  0  0  0
   -2.0980   19.3480  -33.6420 C   0  0  0  0  0  0  0  0  0  0  0  0
   -3.1700   18.6540  -34.0590 N   0  0  0  0  0  0  0  0  0  0  0  0
   -4.2650   19.3470  -33.6550 C   0  0  0  0  0  0  0  0  0  0  0  0
   -5.5470   18.9550  -33.9050 N   0  0  0  0  0  0  0  0  0  0  0  0
   -5.7520   17.9520  -34.9680 C   0  0  0  0  0  0  0  0  0  0  0  0
   -6.5870   19.2690  -33.0560 C   0  0  0  0  0  0  0  0  0  0  0  0
   -7.5350   18.2530  -32.7640 C   0  0  0  0  0  0  0  0  0  0  0  0
   -8.6510   18.4890  -31.9710 C   0  0  0  0  0  0  0  0  0  0  0  0
   -8.8670   19.7450  -31.4390 C   0  0  0  0  0  0  0  0  0  0  0  0
   -7.9660   20.7710  -31.6960 C   0  0  0  0  0  0  0  0  0  0  0  0
   -6.8110   20.5790  -32.4970 C   0  0  0  0  0  0  0  0  0  0  0  0
   -2.7621   22.7186  -29.7001 H   0  0  0  0  0  0  0  0  0  0  0  0
   -3.8699   22.9379  -31.0970 H   0  0  0  0  0  0  0  0  0  0  0  0
   -2.2571   23.7287  -31.0970 H   0  0  0  0  0  0  0  0  0  0  0  0
   -3.4183   25.2555  -27.8298 H   0  0  0  0  0  0  0  0  0  0  0  0
   -4.8434   24.1966  -28.1032 H   0  0  0  0  0  0  0  0  0  0  0  0
   -3.1898   23.4949  -28.1032 H   0  0  0  0  0  0  0  0  0  0  0  0
   -5.5090   25.6869  -29.7547 H   0  0  0  0  0  0  0  0  0  0  0  0
   -4.8907   25.3079  -31.4081 H   0  0  0  0  0  0  0  0  0  0  0  0
   -5.2671   22.8007  -30.6586 H   0  0  0  0  0  0  0  0  0  0  0  0
   -6.3919   23.5619  -29.4531 H   0  0  0  0  0  0  0  0  0  0  0  0
   -7.9361   23.3696  -31.0908 H   0  0  0  0  0  0  0  0  0  0  0  0
   -7.1131   24.8336  -31.7735 H   0  0  0  0  0  0  0  0  0  0  0  0
   -6.8790   23.4490  -33.6420 H   0  0  0  0  0  0  0  0  0  0  0  0
   -4.0643   22.6351  -32.5724 H   0  0  0  0  0  0  0  0  0  0  0  0
   -1.7962   22.3409  -32.0245 H   0  0  0  0  0  0  0  0  0  0  0  0
    0.6347   21.7785  -32.3571 H   0  0  0  0  0  0  0  0  0  0  0  0
    1.2893   19.6643  -33.5258 H   0  0  0  0  0  0  0  0  0  0  0  0
   -0.4818   18.0847  -34.3712 H   0  0  0  0  0  0  0  0  0  0  0  0
   -3.1400   17.7440  -34.5700 H   0  0  0  0  0  0  0  0  0  0  0  0
   -5.9525   16.9709  -34.5127 H   0  0  0  0  0  0  0  0  0  0  0  0
   -6.6081   18.2486  -35.5918 H   0  0  0  0  0  0  0  0  0  0  0  0
   -4.8482   17.8889  -35.5918 H   0  0  0  0  0  0  0  0  0  0  0  0
   -7.3807   17.2461  -33.1793 H   0  0  0  0  0  0  0  0  0  0  0  0
   -9.3626   17.6754  -31.7668 H   0  0  0  0  0  0  0  0  0  0  0  0
   -9.7514   19.9329  -30.8125 H   0  0  0  0  0  0  0  0  0  0  0  0
   -8.1545   21.7650  -31.2641 H   0  0  0  0  0  0  0  0  0  0  0  0
  1  2  1  0
  2  3  1  0
  2  4  1  0
  4  5  1  0
  5  6  1  0
  6  7  1  0
  7  8  1  0
  8  9  2  0
  9 10  1  0
 10 11  2  0
 11 12  1  0
 12 13  2  0
 13 14  1  0
 14 15  2  0
 15 16  1  0
 16 17  2  0
 17 18  1  0
 18 19  2  0
 19 20  1  0
 19 21  1  0
 21 22  2  0
 22 23  1  0
 23 24  2  0
 24 25  1  0
 25 26  2  0
 26  8  1  0
 18 10  1  0
 26 21  1  0
 16 11  1  0
  1 27  1  0
  1 28  1  0
  1 29  1  0
  3 30  1  0
  3 31  1  0
  3 32  1  0
  4 33  1  0
  4 34  1  0
  5 35  1  0
  5 36  1  0
  6 37  1  0
  6 38  1  0
  7 39  1  0
  9 40  1  0
 12 41  1  0
 13 42  1  0
 14 43  1  0
 15 44  1  0
 17 45  1  0
 20 46  1  0
 20 47  1  0
 20 48  1  0
 22 49  1  0
 23 50  1  0
 24 51  1  0
 25 52  1  0
M  CHG  2  17   1  19   1
M  END
>  <UniqueID>  (8) 
8

>  <SMILES>  (8) 
CN(C)CCCNc1cc2c3ccccc3[nH+]c-2[n+](C)c2ccccc12

>  <Energy>  (8) 
132.46001122351024

>  <Genealogy>  (8) 
CN(C)CCCNc1cc2c3ccccc3[nH+]c-2[n+](C)c2ccccc12 (protonated)
CN(C)CCCNc1cc2c3ccccc3[nH+]c-2[n+](C)c2ccccc12 (3D coordinates assigned)
CN(C)CCCNc1cc2c3ccccc3[nH+]c-2[n+](C)c2ccccc12 (optimized conformer: 132.46001122351024 kcal/mol)

>  <smiles>  (8) 
CN(C)CCCNc1cc2c3ccccc3nc-2[n+](C)c2ccccc12

>  <score_type>  (8) 
oracle

>  <origin>  (8) 
adg

>  <m_score__min__energy>  (8) 
-8.4100000000000001

>  <m_primary>  (8) 
energy

$$$$
8:0
     RDKit          3D

 72 75  0  0  0  0  0  0  0  0999 V2000
   -4.1980   24.1710  -27.1360 C   0  0  0  0  0  0  0  0  0  0  0  0
   -4.2370   22.9210  -28.0170 C   0  0  0  0  0  0  0  0  0  0  0  0
   -4.3060   23.2680  -29.4560 N   0  0  0  0  0  0  0  0  0  0  0  0
   -3.2050   24.1900  -29.8340 C   0  0  0  0  0  0  0  0  0  0  0  0
   -1.8320   23.6820  -29.3860 C   0  0  0  0  0  0  0  0  0  0  0  0
   -5.6580   23.7130  -29.8940 C   0  0  0  0  0  0  0  0  0  0  0  0
   -5.7100   24.3980  -31.2840 C   0  0  0  0  0  0  0  0  0  0  0  0
   -5.7760   23.4020  -32.3650 N   0  0  0  0  0  0  0  0  0  0  0  0
   -5.7680   21.9490  -32.2290 C   0  0  0  0  0  0  0  0  0  0  0  0
   -7.0090   21.2630  -32.2160 C   0  0  0  0  0  0  0  0  0  0  0  0
   -8.2020   21.9220  -31.8250 C   0  0  0  0  0  0  0  0  0  0  0  0
   -9.4330   21.2760  -31.8980 C   0  0  0  0  0  0  0  0  0  0  0  0
   -9.5070   19.9700  -32.3620 C   0  0  0  0  0  0  0  0  0  0  0  0
   -8.3450   19.2810  -32.7030 C   0  0  0  0  0  0  0  0  0  0  0  0
   -7.0650   19.8860  -32.5800 C   0  0  0  0  0  0  0  0  0  0  0  0
   -5.9020   19.1780  -32.8190 N   0  0  0  0  0  0  0  0  0  0  0  0
   -5.9620   17.7050  -32.9980 C   0  0  0  0  0  0  0  0  0  0  0  0
   -4.6800   19.8230  -32.7980 C   0  0  0  0  0  0  0  0  0  0  0  0
   -3.4840   19.1740  -33.2100 C   0  0  0  0  0  0  0  0  0  0  0  0
   -2.2370   19.7470  -32.9690 C   0  0  0  0  0  0  0  0  0  0  0  0
   -2.1480   20.9540  -32.2860 C   0  0  0  0  0  0  0  0  0  0  0  0
   -0.9060   21.4470  -31.8860 O   0  0  0  0  0  0  0  0  0  0  0  0
   -0.1050   20.7920  -30.9060 C   0  0  0  0  0  0  0  0  0  0  0  0
   -1.0240   20.2130  -29.8070 C   0  0  0  0  0  0  0  0  0  0  0  0
   -0.3680   19.9020  -28.4940 N   0  0  0  0  0  0  0  0  0  0  0  0
    1.0260   19.4310  -28.6990 C   0  0  0  0  0  0  0  0  0  0  0  0
   -1.1380   18.9230  -27.6900 C   0  0  0  0  0  0  0  0  0  0  0  0
   -2.1950   19.7020  -26.9300 C   0  0  0  0  0  0  0  0  0  0  0  0
   -1.5620   21.0590  -26.6920 C   0  0  0  0  0  0  0  0  0  0  0  0
   -0.3750   21.1350  -27.6570 C   0  0  0  0  0  0  0  0  0  0  0  0
   -3.3130   21.6570  -31.9680 C   0  0  0  0  0  0  0  0  0  0  0  0
   -4.5840   21.1690  -32.3440 C   0  0  0  0  0  0  0  0  0  0  0  0
   -4.2073   23.8736  -26.0770 H   0  0  0  0  0  0  0  0  0  0  0  0
   -3.2816   24.7411  -27.3488 H   0  0  0  0  0  0  0  0  0  0  0  0
   -5.0770   24.7971  -27.3488 H   0  0  0  0  0  0  0  0  0  0  0  0
   -3.3280   22.3286  -27.8361 H   0  0  0  0  0  0  0  0  0  0  0  0
   -5.1389   22.3467  -27.7586 H   0  0  0  0  0  0  0  0  0  0  0  0
   -3.1994   24.3021  -30.9283 H   0  0  0  0  0  0  0  0  0  0  0  0
   -3.3862   25.1502  -29.3288 H   0  0  0  0  0  0  0  0  0  0  0  0
   -1.7878   23.6656  -28.2870 H   0  0  0  0  0  0  0  0  0  0  0  0
   -1.6725   22.6653  -29.7746 H   0  0  0  0  0  0  0  0  0  0  0  0
   -1.0492   24.3500  -29.7746 H   0  0  0  0  0  0  0  0  0  0  0  0
   -6.3133   22.8300  -29.9252 H   0  0  0  0  0  0  0  0  0  0  0  0
   -5.9792   24.4735  -29.1670 H   0  0  0  0  0  0  0  0  0  0  0  0
   -6.6007   25.0415  -31.3340 H   0  0  0  0  0  0  0  0  0  0  0  0
   -4.7942   24.9933  -31.4138 H   0  0  0  0  0  0  0  0  0  0  0  0
   -5.5620   23.7890  -33.3100 H   0  0  0  0  0  0  0  0  0  0  0  0
   -8.1542   22.9582  -31.4589 H   0  0  0  0  0  0  0  0  0  0  0  0
  -10.3482   21.8013  -31.5875 H   0  0  0  0  0  0  0  0  0  0  0  0
  -10.4857   19.4776  -32.4608 H   0  0  0  0  0  0  0  0  0  0  0  0
   -8.4198   18.2484  -33.0747 H   0  0  0  0  0  0  0  0  0  0  0  0
   -5.9819   17.2164  -32.0127 H   0  0  0  0  0  0  0  0  0  0  0  0
   -6.8717   17.4403  -33.5570 H   0  0  0  0  0  0  0  0  0  0  0  0
   -5.0769   17.3672  -33.5570 H   0  0  0  0  0  0  0  0  0  0  0  0
   -3.5440   18.2048  -33.7268 H   0  0  0  0  0  0  0  0  0  0  0  0
   -1.3234   19.2442  -33.3192 H   0  0  0  0  0  0  0  0  0  0  0  0
    0.4625   19.9769  -31.3789 H   0  0  0  0  0  0  0  0  0  0  0  0
    0.5978   21.5114  -30.4605 H   0  0  0  0  0  0  0  0  0  0  0  0
   -1.8239   20.9441  -29.6182 H   0  0  0  0  0  0  0  0  0  0  0  0
   -1.3779   19.2471  -30.1965 H   0  0  0  0  0  0  0  0  0  0  0  0
    1.5056   19.2689  -27.7224 H   0  0  0  0  0  0  0  0  0  0  0  0
    1.0148   18.4868  -29.2632 H   0  0  0  0  0  0  0  0  0  0  0  0
    1.5898   20.1885  -29.2632 H   0  0  0  0  0  0  0  0  0  0  0  0
   -1.6158   18.1848  -28.3509 H   0  0  0  0  0  0  0  0  0  0  0  0
   -0.4780   18.3805  -26.9971 H   0  0  0  0  0  0  0  0  0  0  0  0
   -3.1126   19.7997  -27.5287 H   0  0  0  0  0  0  0  0  0  0  0  0
   -2.4902   19.2061  -25.9936 H   0  0  0  0  0  0  0  0  0  0  0  0
   -2.2829   21.8618  -26.9061 H   0  0  0  0  0  0  0  0  0  0  0  0
   -1.2446   21.1822  -25.6460 H   0  0  0  0  0  0  0  0  0  0  0  0
   -0.4765   22.0207  -28.3014 H   0  0  0  0  0  0  0  0  0  0  0  0
    0.5659   21.2134  -27.0926 H   0  0  0  0  0  0  0  0  0  0  0  0
   -3.2391   22.6056  -31.4160 H   0  0  0  0  0  0  0  0  0  0  0  0
  1  2  1  0
  2  3  1  0
  3  4  1  0
  4  5  1  0
  3  6  1  0
  6  7  1  0
  7  8  1  0
  8  9  1  0
  9 10  2  0
 10 11  1  0
 11 12  2  0
 12 13  1  0
 13 14  2  0
 14 15  1  0
 15 16  2  0
 16 17  1  0
 16 18  1  0
 18 19  2  0
 19 20  1  0
 20 21  2  0
 21 22  1  0
 22 23  1  0
 23 24  1  0
 24 25  1  0
 25 26  1  0
 25 27  1  0
 27 28  1  0
 28 29  1  0
 29 30  1  0
 21 31  1  0
 31 32  2  0
 32  9  1  0
 15 10  1  0
 32 18  1  0
 30 25  1  0
  1 33  1  0
  1 34  1  0
  1 35  1  0
  2 36  1  0
  2 37  1  0
  4 38  1  0
  4 39  1  0
  5 40  1  0
  5 41  1  0
  5 42  1  0
  6 43  1  0
  6 44  1  0
  7 45  1  0
  7 46  1  0
  8 47  1  0
 11 48  1  0
 12 49  1  0
 13 50  1  0
 14 51  1  0
 17 52  1  0
 17 53  1  0
 17 54  1  0
 19 55  1  0
 20 56  1  0
 23 57  1  0
 23 58  1  0
 24 59  1  0
 24 60  1  0
 26 61  1  0
 26 62  1  0
 26 63  1  0
 27 64  1  0
 27 65  1  0
 28 66  1  0
 28 67  1  0
 29 68  1  0
 29 69  1  0
 30 70  1  0
 30 71  1  0
 31 72  1  0
M  CHG  2  16   1  25   1
M  END
>  <UniqueID>  (9) 
9

>  <SMILES>  (9) 
CCN(CC)CCNc1c2ccccc2[n+](C)c2ccc(OCC[N+]3(C)CCCC3)cc12

>  <Energy>  (9) 
131.4886807907301

>  <Genealogy>  (9) 
CCN(CC)CCNc1c2ccccc2[n+](C)c2ccc(OCC[N+]3(C)CCCC3)cc12 (3D coordinates assigned)
CCN(CC)CCNc1c2ccccc2[n+](C)c2ccc(OCC[N+]3(C)CCCC3)cc12 (nonaromatic ring conformer: 131.4886807907301 kcal/mol)

>  <smiles>  (9) 
CCN(CC)CCNc1c2ccccc2[n+](C)c2ccc(OCC[N+]3(C)CCCC3)cc12

>  <score_type>  (9) 
oracle

>  <origin>  (9) 
adg

>  <m_score__min__energy>  (9) 
-7.9800000000000004

>  <m_primary>  (9) 
energy

$$$$
9:0
     RDKit          3D

 38 38  0  0  0  0  0  0  0  0999 V2000
   -6.1150   19.8480  -33.6380 C   0  0  0  0  0  0  0  0  0  0  0  0
   -5.9700   20.8130  -32.4620 C   0  0  0  0  0  0  0  0  0  0  0  0
   -4.8640   21.7570  -32.6940 N   0  0  0  0  0  0  0  0  0  0  0  0
   -3.5910   21.0730  -32.9950 C   0  0  0  0  0  0  0  0  0  0  0  0
   -2.3620   21.7260  -32.3310 C   0  0  0  0  0  0  0  0  0  0  0  0
   -2.4410   21.7040  -30.8200 C   0  0  0  0  0  0  0  0  0  0  0  0
   -1.8970   20.6160  -30.1170 C   0  0  0  0  0  0  0  0  0  0  0  0
   -1.9280   20.5820  -28.7110 C   0  0  0  0  0  0  0  0  0  0  0  0
   -1.3910   19.5170  -27.9730 O   0  0  0  0  0  0  0  0  0  0  0  0
   -1.9770   18.9810  -26.7900 C   0  0  0  0  0  0  0  0  0  0  0  0
   -2.5110   21.6430  -28.0150 C   0  0  0  0  0  0  0  0  0  0  0  0
   -3.0560   22.7330  -28.7000 C   0  0  0  0  0  0  0  0  0  0  0  0
   -3.8110   24.1720  -27.6840 Br  0  0  0  0  0  0  0  0  0  0  0  0
   -3.0270   22.7690  -30.1040 C   0  0  0  0  0  0  0  0  0  0  0  0
   -3.5860   23.8840  -30.8020 N   0  0  0  0  0  0  0  0  0  0  0  0
   -5.2970   24.1310  -30.8990 S   0  0  0  0  0  0  0  0  0  0  0  0
   -5.7550   25.6580  -30.1060 C   0  0  0  0  0  0  0  0  0  0  0  0
   -5.7150   24.1770  -32.3410 O   0  0  0  0  0  0  0  0  0  0  0  0
   -5.9980   22.9970  -30.2080 O   0  0  0  0  0  0  0  0  0  0  0  0
   -6.2684   18.8272  -33.2579 H   0  0  0  0  0  0  0  0  0  0  0  0
   -6.9787   20.1445  -34.2513 H   0  0  0  0  0  0  0  0  0  0  0  0
   -5.2023   19.8776  -34.2513 H   0  0  0  0  0  0  0  0  0  0  0  0
   -6.9064   21.3773  -32.3409 H   0  0  0  0  0  0  0  0  0  0  0  0
   -5.7531   20.2319  -31.5536 H   0  0  0  0  0  0  0  0  0  0  0  0
   -4.7190   22.3200  -31.8220 H   0  0  0  0  0  0  0  0  0  0  0  0
   -5.1130   22.4230  -33.4620 H   0  0  0  0  0  0  0  0  0  0  0  0
   -3.6641   20.0334  -32.6429 H   0  0  0  0  0  0  0  0  0  0  0  0
   -3.4408   21.1393  -34.0827 H   0  0  0  0  0  0  0  0  0  0  0  0
   -1.4597   21.1809  -32.6453 H   0  0  0  0  0  0  0  0  0  0  0  0
   -2.3293   22.7785  -32.6492 H   0  0  0  0  0  0  0  0  0  0  0  0
   -1.4421   19.7821  -30.6717 H   0  0  0  0  0  0  0  0  0  0  0  0
   -1.4924   19.4242  -25.9075 H   0  0  0  0  0  0  0  0  0  0  0  0
   -3.0517   19.2152  -26.7746 H   0  0  0  0  0  0  0  0  0  0  0  0
   -1.8393   17.8898  -26.7746 H   0  0  0  0  0  0  0  0  0  0  0  0
   -2.5417   21.6209  -26.9157 H   0  0  0  0  0  0  0  0  0  0  0  0
   -5.7166   25.5300  -29.0141 H   0  0  0  0  0  0  0  0  0  0  0  0
   -5.0554   26.4517  -30.4070 H   0  0  0  0  0  0  0  0  0  0  0  0
   -6.7759   25.9356  -30.4070 H   0  0  0  0  0  0  0  0  0  0  0  0
  1  2  1  0
  2  3  1  0
  3  4  1  0
  4  5  1  0
  5  6  1  0
  6  7  2  0
  7  8  1  0
  8  9  1  0
  9 10  1  0
  8 11  2  0
 11 12  1  0
 12 13  1  0
 12 14  2  0
 14 15  1  0
 15 16  1  0
 16 17  1  0
 16 18  2  0
 16 19  2  0
 14  6  1  0
  1 20  1  0
  1 21  1  0
  1 22  1  0
  2 23  1  0
  2 24  1  0
  3 25  1  0
  3 26  1  0
  4 27  1  0
  4 28  1  0
  5 29  1  0
  5 30  1  0
  7 31  1  0
 10 32  1  0
 10 33  1  0
 10 34  1  0
 11 35  1  0
 17 36  1  0
 17 37  1  0
 17 38  1  0
M  CHG  2   3   1  15  -1
M  END
>  <UniqueID>  (10) 
10

>  <SMILES>  (10) 
CC[NH2+]CCc1cc(OC)cc(Br)c1[N-]S(C)(=O)=O

>  <Energy>  (10) 
36.11572595178358

>  <Genealogy>  (10) 
CC[NH2+]CCc1cc(OC)cc(Br)c1[N-]S(C)(=O)=O (protonated)
CC[NH2+]CCc1cc(OC)cc(Br)c1[N-]S(C)(=O)=O (3D coordinates assigned)
CC[NH2+]CCc1cc(OC)cc(Br)c1[N-]S(C)(=O)=O (optimized conformer: 36.11572595178358 kcal/mol)

>  <smiles>  (10) 
CCNCCc1cc(OC)cc(Br)c1NS(C)(=O)=O

>  <score_type>  (10) 
oracle

>  <origin>  (10) 
adg

>  <m_score__min__energy>  (10) 
-5.7400000000000002

>  <m_primary>  (10) 
energy

$$$$
10:0
     RDKit          3D

 49 50  0  0  0  0  0  0  0  0999 V2000
   -4.8080   17.0040  -33.5800 C   0  0  0  0  0  0  0  0  0  0  0  0
   -5.1270   18.3280  -34.2920 C   0  0  0  0  0  0  0  0  0  0  0  0
   -6.3700   18.9950  -33.8350 N   0  0  0  0  0  0  0  0  0  0  0  0
   -7.2660   18.1690  -32.9910 C   0  0  0  0  0  0  0  0  0  0  0  0
   -7.4860   18.7270  -31.5760 C   0  0  0  0  0  0  0  0  0  0  0  0
   -8.8880   19.1350  -31.4070 N   0  0  0  0  0  0  0  0  0  0  0  0
   -9.2550   20.2160  -32.3400 C   0  0  0  0  0  0  0  0  0  0  0  0
   -9.4900   21.5330  -31.5910 C   0  0  0  0  0  0  0  0  0  0  0  0
   -8.2110   22.3030  -31.3800 C   0  0  0  0  0  0  0  0  0  0  0  0
   -7.5050   22.1780  -30.1740 C   0  0  0  0  0  0  0  0  0  0  0  0
   -6.2870   22.8400  -29.9970 C   0  0  0  0  0  0  0  0  0  0  0  0
   -5.7560   23.6450  -31.0210 C   0  0  0  0  0  0  0  0  0  0  0  0
   -4.4970   24.3190  -30.8480 N   0  0  0  0  0  0  0  0  0  0  0  0
   -3.4300   23.6730  -30.7990 O   0  0  0  0  0  0  0  0  0  0  0  0
   -4.4470   25.6900  -30.7420 O   0  0  0  0  0  0  0  0  0  0  0  0
   -6.4740   23.7770  -32.2220 C   0  0  0  0  0  0  0  0  0  0  0  0
   -7.6880   23.1070  -32.4020 C   0  0  0  0  0  0  0  0  0  0  0  0
   -6.2310   20.4040  -33.4140 C   0  0  0  0  0  0  0  0  0  0  0  0
   -4.8940   20.6250  -32.7580 C   0  0  0  0  0  0  0  0  0  0  0  0
   -3.8330   21.2090  -33.4700 C   0  0  0  0  0  0  0  0  0  0  0  0
   -2.5890   21.3920  -32.8580 C   0  0  0  0  0  0  0  0  0  0  0  0
   -2.3940   20.9900  -31.5340 C   0  0  0  0  0  0  0  0  0  0  0  0
   -3.4420   20.3990  -30.8220 C   0  0  0  0  0  0  0  0  0  0  0  0
   -4.6870   20.2140  -31.4310 C   0  0  0  0  0  0  0  0  0  0  0  0
   -4.8444   17.1552  -32.4911 H   0  0  0  0  0  0  0  0  0  0  0  0
   -5.5488   16.2442  -33.8697 H   0  0  0  0  0  0  0  0  0  0  0  0
   -3.8025   16.6649  -33.8697 H   0  0  0  0  0  0  0  0  0  0  0  0
   -4.2868   19.0179  -34.1245 H   0  0  0  0  0  0  0  0  0  0  0  0
   -5.2799   18.0806  -35.3528 H   0  0  0  0  0  0  0  0  0  0  0  0
   -8.2435   18.0991  -33.4906 H   0  0  0  0  0  0  0  0  0  0  0  0
   -6.7778   17.1903  -32.8736 H   0  0  0  0  0  0  0  0  0  0  0  0
   -7.2413   17.9504  -30.8364 H   0  0  0  0  0  0  0  0  0  0  0  0
   -6.8358   19.6019  -31.4286 H   0  0  0  0  0  0  0  0  0  0  0  0
   -8.9940   19.5010  -30.4320 H   0  0  0  0  0  0  0  0  0  0  0  0
   -8.4409   20.3558  -33.0665 H   0  0  0  0  0  0  0  0  0  0  0  0
  -10.1861   19.9343  -32.8535 H   0  0  0  0  0  0  0  0  0  0  0  0
  -10.1852   22.1538  -32.1752 H   0  0  0  0  0  0  0  0  0  0  0  0
   -9.9055   21.2900  -30.6019 H   0  0  0  0  0  0  0  0  0  0  0  0
   -7.9123   21.5557  -29.3636 H   0  0  0  0  0  0  0  0  0  0  0  0
   -5.7392   22.7307  -29.0494 H   0  0  0  0  0  0  0  0  0  0  0  0
   -6.0775   24.4129  -33.0273 H   0  0  0  0  0  0  0  0  0  0  0  0
   -8.2353   23.2114  -33.3504 H   0  0  0  0  0  0  0  0  0  0  0  0
   -6.3144   21.0560  -34.2960 H   0  0  0  0  0  0  0  0  0  0  0  0
   -7.0267   20.6416  -32.6925 H   0  0  0  0  0  0  0  0  0  0  0  0
   -3.9815   21.5237  -34.5135 H   0  0  0  0  0  0  0  0  0  0  0  0
   -1.7630   21.8529  -33.4195 H   0  0  0  0  0  0  0  0  0  0  0  0
   -1.4164   21.1385  -31.0522 H   0  0  0  0  0  0  0  0  0  0  0  0
   -3.2869   20.0790  -29.7811 H   0  0  0  0  0  0  0  0  0  0  0  0
   -5.5076   19.7447  -30.8686 H   0  0  0  0  0  0  0  0  0  0  0  0
  1  2  1  0
  2  3  1  0
  3  4  1  0
  4  5  1  0
  5  6  1  0
  6  7  1  0
  7  8  1  0
  8  9  1  0
  9 10  2  0
 10 11  1  0
 11 12  2  0
 12 13  1  0
 13 14  2  0
 13 15  1  0
 12 16  1  0
 16 17  2  0
  3 18  1  0
 18 19  1  0
 19 20  2  0
 20 21  1  0
 21 22  2  0
 22 23  1  0
 23 24  2  0
 17  9  1  0
 24 19  1  0
  1 25  1  0
  1 26  1  0
  1 27  1  0
  2 28  1  0
  2 29  1  0
  4 30  1  0
  4 31  1  0
  5 32  1  0
  5 33  1  0
  6 34  1  0
  7 35  1  0
  7 36  1  0
  8 37  1  0
  8 38  1  0
 10 39  1  0
 11 40  1  0
 16 41  1  0
 17 42  1  0
 18 43  1  0
 18 44  1  0
 20 45  1  0
 21 46  1  0
 22 47  1  0
 23 48  1  0
 24 49  1  0
M  CHG  2  13   1  15  -1
M  END
>  <UniqueID>  (11) 
11

>  <SMILES>  (11) 
CCN(CCNCCc1ccc([N+](=O)[O-])cc1)Cc1ccccc1

>  <Energy>  (11) 
51.15531718755249

>  <Genealogy>  (11) 
CCN(CCNCCc1ccc([N+](=O)[O-])cc1)Cc1ccccc1 (3D coordinates assigned)
CCN(CCNCCc1ccc([N+](=O)[O-])cc1)Cc1ccccc1 (optimized conformer: 51.15531718755249 kcal/mol)

>  <smiles>  (11) 
CCN(CCNCCc1ccc([N+](=O)[O-])cc1)Cc1ccccc1

>  <score_type>  (11) 
oracle

>  <origin>  (11) 
adg

>  <m_score__min__energy>  (11) 
-8.7799999999999994

>  <m_primary>  (11) 
energy

$$$$
11:0
     RDKit          3D

 48 50  0  0  0  0  0  0  0  0999 V2000
   -3.5700   21.7840  -30.3090 C   0  0  0  0  0  0  0  0  0  0  0  0
   -3.3600   23.0100  -31.1940 C   0  0  0  0  0  0  0  0  0  0  0  0
   -3.8550   24.2290  -30.5120 N   0  0  0  0  0  0  0  0  0  0  0  0
   -3.0760   24.5020  -29.2810 C   0  0  0  0  0  0  0  0  0  0  0  0
   -3.8960   24.1740  -28.0340 C   0  0  0  0  0  0  0  0  0  0  0  0
   -5.3010   24.1050  -30.2000 C   0  0  0  0  0  0  0  0  0  0  0  0
   -6.1680   24.5490  -31.3860 C   0  0  0  0  0  0  0  0  0  0  0  0
   -6.1990   23.5170  -32.4260 N   0  0  0  0  0  0  0  0  0  0  0  0
   -6.9110   22.2720  -32.2960 C   0  0  0  0  0  0  0  0  0  0  0  0
   -8.2380   22.2500  -31.8480 C   0  0  0  0  0  0  0  0  0  0  0  0
   -8.9330   21.0460  -31.7410 C   0  0  0  0  0  0  0  0  0  0  0  0
   -8.3190   19.8280  -32.0710 C   0  0  0  0  0  0  0  0  0  0  0  0
   -9.1140   18.5550  -31.9510 C   0  0  0  0  0  0  0  0  0  0  0  0
   -6.9710   19.8290  -32.5080 C   0  0  0  0  0  0  0  0  0  0  0  0
   -6.3220   18.6710  -32.8460 N   0  0  0  0  0  0  0  0  0  0  0  0
   -5.0290   18.6850  -33.2790 C   0  0  0  0  0  0  0  0  0  0  0  0
   -4.3690   17.4960  -33.6290 C   0  0  0  0  0  0  0  0  0  0  0  0
   -3.0430   17.5360  -34.0740 C   0  0  0  0  0  0  0  0  0  0  0  0
   -2.3710   18.7580  -34.1730 C   0  0  0  0  0  0  0  0  0  0  0  0
   -3.0200   19.9470  -33.8270 C   0  0  0  0  0  0  0  0  0  0  0  0
   -4.3460   19.9140  -33.3810 C   0  0  0  0  0  0  0  0  0  0  0  0
   -4.9850   21.0610  -33.0440 N   0  0  0  0  0  0  0  0  0  0  0  0
   -6.2720   21.0590  -32.6080 C   0  0  0  0  0  0  0  0  0  0  0  0
   -3.5189   22.0821  -29.2514 H   0  0  0  0  0  0  0  0  0  0  0  0
   -4.5564   21.3449  -30.5189 H   0  0  0  0  0  0  0  0  0  0  0  0
   -2.7859   21.0416  -30.5189 H   0  0  0  0  0  0  0  0  0  0  0  0
   -2.2868   23.1240  -31.4069 H   0  0  0  0  0  0  0  0  0  0  0  0
   -3.9185   22.8736  -32.1318 H   0  0  0  0  0  0  0  0  0  0  0  0
   -2.1657   23.8846  -29.2863 H   0  0  0  0  0  0  0  0  0  0  0  0
   -2.8149   25.5704  -29.2595 H   0  0  0  0  0  0  0  0  0  0  0  0
   -3.3070   24.4096  -27.1354 H   0  0  0  0  0  0  0  0  0  0  0  0
   -4.8192   24.7720  -28.0345 H   0  0  0  0  0  0  0  0  0  0  0  0
   -4.1521   23.1042  -28.0345 H   0  0  0  0  0  0  0  0  0  0  0  0
   -5.5277   23.0548  -29.9638 H   0  0  0  0  0  0  0  0  0  0  0  0
   -5.5278   24.7549  -29.3419 H   0  0  0  0  0  0  0  0  0  0  0  0
   -7.1930   24.7355  -31.0330 H   0  0  0  0  0  0  0  0  0  0  0  0
   -5.7361   25.4660  -31.8134 H   0  0  0  0  0  0  0  0  0  0  0  0
   -5.7760   23.7590  -33.3500 H   0  0  0  0  0  0  0  0  0  0  0  0
   -8.7370   23.1924  -31.5778 H   0  0  0  0  0  0  0  0  0  0  0  0
   -9.9766   21.0509  -31.3933 H   0  0  0  0  0  0  0  0  0  0  0  0
   -9.2638   18.3151  -30.8880 H   0  0  0  0  0  0  0  0  0  0  0  0
  -10.0913   18.6857  -32.4387 H   0  0  0  0  0  0  0  0  0  0  0  0
   -8.5677   17.7342  -32.4387 H   0  0  0  0  0  0  0  0  0  0  0  0
   -6.8100   17.7500  -32.7810 H   0  0  0  0  0  0  0  0  0  0  0  0
   -4.8946   16.5327  -33.5533 H   0  0  0  0  0  0  0  0  0  0  0  0
   -2.5278   16.6032  -34.3468 H   0  0  0  0  0  0  0  0  0  0  0  0
   -1.3289   18.7840  -34.5241 H   0  0  0  0  0  0  0  0  0  0  0  0
   -2.4890   20.9072  -33.9052 H   0  0  0  0  0  0  0  0  0  0  0  0
  1  2  1  0
  2  3  1  0
  3  4  1  0
  4  5  1  0
  3  6  1  0
  6  7  1  0
  7  8  1  0
  8  9  1  0
  9 10  2  0
 10 11  1  0
 11 12  2  0
 12 13  1  0
 12 14  1  0
 14 15  2  0
 15 16  1  0
 16 17  2  0
 17 18  1  0
 18 19  2  0
 19 20  1  0
 20 21  2  0
 21 22  1  0
 22 23  2  0
 23  9  1  0
 23 14  1  0
 21 16  1  0
  1 24  1  0
  1 25  1  0
  1 26  1  0
  2 27  1  0
  2 28  1  0
  4 29  1  0
  4 30  1  0
  5 31  1  0
  5 32  1  0
  5 33  1  0
  6 34  1  0
  6 35  1  0
  7 36  1  0
  7 37  1  0
  8 38  1  0
 10 39  1  0
 11 40  1  0
 13 41  1  0
 13 42  1  0
 13 43  1  0
 15 44  1  0
 17 45  1  0
 18 46  1  0
 19 47  1  0
 20 48  1  0
M  CHG  1  15   1
M  END
>  <UniqueID>  (12) 
12

>  <SMILES>  (12) 
CCN(CC)CCNc1ccc(C)c2[nH+]c3ccccc3nc12

>  <Energy>  (12) 
53.14354341803768

>  <Genealogy>  (12) 
CCN(CC)CCNc1ccc(C)c2[nH+]c3ccccc3nc12 (protonated)
CCN(CC)CCNc1ccc(C)c2[nH+]c3ccccc3nc12 (3D coordinates assigned)
CCN(CC)CCNc1ccc(C)c2[nH+]c3ccccc3nc12 (optimized conformer: 53.14354341803768 kcal/mol)

>  <smiles>  (12) 
CCN(CC)CCNc1ccc(C)c2nc3ccccc3nc12

>  <score_type>  (12) 
oracle

>  <origin>  (12) 
adg

>  <m_score__min__energy>  (12) 
-7.7999999999999998

>  <m_primary>  (12) 
energy

$$$$
12:0
     RDKit          3D

 51 53  0  0  0  0  0  0  0  0999 V2000
   -6.4620   25.6750  -29.6920 C   0  0  0  0  0  0  0  0  0  0  0  0
   -5.2410   24.7690  -29.8480 C   0  0  0  0  0  0  0  0  0  0  0  0
   -5.3820   23.5610  -29.0220 N   0  0  0  0  0  0  0  0  0  0  0  0
   -4.1060   23.1380  -28.4140 C   0  0  0  0  0  0  0  0  0  0  0  0
   -3.4620   21.9270  -29.1110 C   0  0  0  0  0  0  0  0  0  0  0  0
   -4.0360   21.7500  -30.3870 O   0  0  0  0  0  0  0  0  0  0  0  0
   -3.2410   22.3630  -31.3780 C   0  0  0  0  0  0  0  0  0  0  0  0
   -3.2150   21.4770  -32.6250 C   0  0  0  0  0  0  0  0  0  0  0  0
   -4.5020   21.4930  -33.3320 N   0  0  0  0  0  0  0  0  0  0  0  0
   -5.6290   20.7050  -32.9020 C   0  0  0  0  0  0  0  0  0  0  0  0
   -6.7760   21.3470  -32.4000 C   0  0  0  0  0  0  0  0  0  0  0  0
   -6.8010   22.7480  -32.2300 C   0  0  0  0  0  0  0  0  0  0  0  0
   -7.9650   23.3950  -31.8270 C   0  0  0  0  0  0  0  0  0  0  0  0
   -9.1240   22.6650  -31.5960 C   0  0  0  0  0  0  0  0  0  0  0  0
   -9.1190   21.2780  -31.7400 C   0  0  0  0  0  0  0  0  0  0  0  0
   -7.9380   20.5830  -32.1070 C   0  0  0  0  0  0  0  0  0  0  0  0
   -7.9110   19.2050  -32.2230 N   0  0  0  0  0  0  0  0  0  0  0  0
   -9.0260   18.3960  -31.6800 C   0  0  0  0  0  0  0  0  0  0  0  0
   -6.8300   18.5800  -32.8180 C   0  0  0  0  0  0  0  0  0  0  0  0
   -6.8680   17.2090  -33.1820 C   0  0  0  0  0  0  0  0  0  0  0  0
   -5.7440   16.5710  -33.7060 C   0  0  0  0  0  0  0  0  0  0  0  0
   -5.8190   14.8720  -34.1410 Cl  0  0  0  0  0  0  0  0  0  0  0  0
   -4.5580   17.2770  -33.8800 C   0  0  0  0  0  0  0  0  0  0  0  0
   -4.5070   18.6370  -33.5820 C   0  0  0  0  0  0  0  0  0  0  0  0
   -5.6480   19.3140  -33.1030 C   0  0  0  0  0  0  0  0  0  0  0  0
   -6.6699   25.8293  -28.6229 H   0  0  0  0  0  0  0  0  0  0  0  0
   -6.2622   26.6452  -30.1704 H   0  0  0  0  0  0  0  0  0  0  0  0
   -7.3326   25.2026  -30.1704 H   0  0  0  0  0  0  0  0  0  0  0  0
   -5.1416   24.4753  -30.9034 H   0  0  0  0  0  0  0  0  0  0  0  0
   -4.3473   25.3199  -29.5197 H   0  0  0  0  0  0  0  0  0  0  0  0
   -5.7820   22.7840  -29.5960 H   0  0  0  0  0  0  0  0  0  0  0  0
   -6.0530   23.7600  -28.2440 H   0  0  0  0  0  0  0  0  0  0  0  0
   -3.4017   23.9816  -28.4618 H   0  0  0  0  0  0  0  0  0  0  0  0
   -4.3268   22.8347  -27.3800 H   0  0  0  0  0  0  0  0  0  0  0  0
   -2.3808   22.0992  -29.2175 H   0  0  0  0  0  0  0  0  0  0  0  0
   -3.6355   21.0248  -28.5061 H   0  0  0  0  0  0  0  0  0  0  0  0
   -3.6652   23.3451  -31.6338 H   0  0  0  0  0  0  0  0  0  0  0  0
   -2.2170   22.4957  -30.9989 H   0  0  0  0  0  0  0  0  0  0  0  0
   -2.4308   21.8417  -33.3047 H   0  0  0  0  0  0  0  0  0  0  0  0
   -3.0127   20.4438  -32.3063 H   0  0  0  0  0  0  0  0  0  0  0  0
   -4.5720   22.0110  -34.2370 H   0  0  0  0  0  0  0  0  0  0  0  0
   -5.8899   23.3350  -32.4183 H   0  0  0  0  0  0  0  0  0  0  0  0
   -7.9674   24.4866  -31.6911 H   0  0  0  0  0  0  0  0  0  0  0  0
  -10.0481   23.1824  -31.2987 H   0  0  0  0  0  0  0  0  0  0  0  0
  -10.0467   20.7131  -31.5660 H   0  0  0  0  0  0  0  0  0  0  0  0
   -8.9943   18.4190  -30.5807 H   0  0  0  0  0  0  0  0  0  0  0  0
   -9.9835   18.8110  -32.0280 H   0  0  0  0  0  0  0  0  0  0  0  0
   -8.9286   17.3570  -32.0280 H   0  0  0  0  0  0  0  0  0  0  0  0
   -7.7998   16.6398  -33.0486 H   0  0  0  0  0  0  0  0  0  0  0  0
   -3.6606   16.7615  -34.2528 H   0  0  0  0  0  0  0  0  0  0  0  0
   -3.5660   19.1892  -33.7219 H   0  0  0  0  0  0  0  0  0  0  0  0
  1  2  1  0
  2  3  1  0
  3  4  1  0
  4  5  1  0
  5  6  1  0
  6  7  1  0
  7  8  1  0
  8  9  1  0
  9 10  1  0
 10 11  2  0
 11 12  1  0
 12 13  2  0
 13 14  1  0
 14 15  2  0
 15 16  1  0
 16 17  2  0
 17 18  1  0
 17 19  1  0
 19 20  2  0
 20 21  1  0
 21 22  1  0
 21 23  2  0
 23 24  1  0
 24 25  2  0
 25 10  1  0
 16 11  1  0
 25 19  1  0
  1 26  1  0
  1 27  1  0
  1 28  1  0
  2 29  1  0
  2 30  1  0
  3 31  1  0
  3 32  1  0
  4 33  1  0
  4 34  1  0
  5 35  1  0
  5 36  1  0
  7 37  1  0
  7 38  1  0
  8 39  1  0
  8 40  1  0
  9 41  1  0
 12 42  1  0
 13 43  1  0
 14 44  1  0
 15 45  1  0
 18 46  1  0
 18 47  1  0
 18 48  1  0
 20 49  1  0
 23 50  1  0
 24 51  1  0
M  CHG  2   3   1  17   1
M  END
>  <UniqueID>  (13) 
13

>  <SMILES>  (13) 
CC[NH2+]CCOCCNc1c2ccccc2[n+](C)c2cc(Cl)ccc12

>  <Energy>  (13) 
69.75026423615364

>  <Genealogy>  (13) 
CC[NH2+]CCOCCNc1c2ccccc2[n+](C)c2cc(Cl)ccc12 (protonated)
CC[NH2+]CCOCCNc1c2ccccc2[n+](C)c2cc(Cl)ccc12 (3D coordinates assigned)
CC[NH2+]CCOCCNc1c2ccccc2[n+](C)c2cc(Cl)ccc12 (optimized conformer: 69.75026423615364 kcal/mol)

>  <smiles>  (13) 
CCNCCOCCNc1c2ccccc2[n+](C)c2cc(Cl)ccc12

>  <score_type>  (13) 
oracle

>  <origin>  (13) 
adg

>  <m_score__min__energy>  (13) 
-8.5899999999999999

>  <m_primary>  (13) 
energy

$$$$
13:0
     RDKit          3D

 42 44  0  0  0  0  0  0  0  0999 V2000
   -6.1780   26.0310  -29.3080 C   0  0  0  0  0  0  0  0  0  0  0  0
   -5.7410   24.8650  -30.1440 C   0  0  0  0  0  0  0  0  0  0  0  0
   -6.6570   24.2130  -30.9810 C   0  0  0  0  0  0  0  0  0  0  0  0
   -6.2620   23.1020  -31.7320 C   0  0  0  0  0  0  0  0  0  0  0  0
   -4.9440   22.6220  -31.6560 C   0  0  0  0  0  0  0  0  0  0  0  0
   -4.5550   21.4720  -32.4310 N   0  0  0  0  0  0  0  0  0  0  0  0
   -3.3180   21.2620  -32.8710 N   0  0  0  0  0  0  0  0  0  0  0  0
   -3.2960   20.0840  -33.5400 C   0  0  0  0  0  0  0  0  0  0  0  0
   -2.0620   19.5130  -34.1610 C   0  0  0  0  0  0  0  0  0  0  0  0
   -4.5680   19.5270  -33.5060 C   0  0  0  0  0  0  0  0  0  0  0  0
   -5.1520   18.3420  -33.9640 C   0  0  0  0  0  0  0  0  0  0  0  0
   -4.3730   17.3170  -34.7350 C   0  0  0  0  0  0  0  0  0  0  0  0
   -6.4750   18.1350  -33.6710 N   0  0  0  0  0  0  0  0  0  0  0  0
   -7.2050   19.0520  -32.9490 C   0  0  0  0  0  0  0  0  0  0  0  0
   -8.6550   18.7910  -32.6220 C   0  0  0  0  0  0  0  0  0  0  0  0
   -8.7840   18.1680  -31.2290 C   0  0  0  0  0  0  0  0  0  0  0  0
   -9.4700   20.0850  -32.7200 C   0  0  0  0  0  0  0  0  0  0  0  0
   -6.6130   20.2020  -32.5050 N   0  0  0  0  0  0  0  0  0  0  0  0
   -5.3140   20.4250  -32.8070 C   0  0  0  0  0  0  0  0  0  0  0  0
   -4.0380   23.2570  -30.7870 C   0  0  0  0  0  0  0  0  0  0  0  0
   -4.4350   24.3680  -30.0370 C   0  0  0  0  0  0  0  0  0  0  0  0
   -6.0820   25.7747  -28.2426 H   0  0  0  0  0  0  0  0  0  0  0  0
   -5.5453   26.9019  -29.5341 H   0  0  0  0  0  0  0  0  0  0  0  0
   -7.2273   26.2715  -29.5341 H   0  0  0  0  0  0  0  0  0  0  0  0
   -7.6927   24.5776  -31.0473 H   0  0  0  0  0  0  0  0  0  0  0  0
   -6.9888   22.5999  -32.3874 H   0  0  0  0  0  0  0  0  0  0  0  0
   -1.3683   19.1920  -33.3700 H   0  0  0  0  0  0  0  0  0  0  0  0
   -2.3320   18.6483  -34.7850 H   0  0  0  0  0  0  0  0  0  0  0  0
   -1.5776   20.2785  -34.7850 H   0  0  0  0  0  0  0  0  0  0  0  0
   -3.8602   16.6423  -34.0336 H   0  0  0  0  0  0  0  0  0  0  0  0
   -5.0589   16.7352  -35.3683 H   0  0  0  0  0  0  0  0  0  0  0  0
   -3.6288   17.8221  -35.3683 H   0  0  0  0  0  0  0  0  0  0  0  0
   -6.9380   17.2580  -33.9970 H   0  0  0  0  0  0  0  0  0  0  0  0
   -9.0576   18.0780  -33.3565 H   0  0  0  0  0  0  0  0  0  0  0  0
   -8.6236   18.9426  -30.4646 H   0  0  0  0  0  0  0  0  0  0  0  0
   -9.7900   17.7391  -31.1109 H   0  0  0  0  0  0  0  0  0  0  0  0
   -8.0310   17.3748  -31.1109 H   0  0  0  0  0  0  0  0  0  0  0  0
   -9.7004   20.4507  -31.7085 H   0  0  0  0  0  0  0  0  0  0  0  0
   -8.8874   20.8452  -33.2609 H   0  0  0  0  0  0  0  0  0  0  0  0
  -10.4073   19.8879  -33.2609 H   0  0  0  0  0  0  0  0  0  0  0  0
   -3.0098   22.8766  -30.6970 H   0  0  0  0  0  0  0  0  0  0  0  0
   -3.7183   24.8548  -29.3592 H   0  0  0  0  0  0  0  0  0  0  0  0
  1  2  1  0
  2  3  2  0
  3  4  1  0
  4  5  2  0
  5  6  1  0
  6  7  1  0
  7  8  2  0
  8  9  1  0
  8 10  1  0
 10 11  2  0
 11 12  1  0
 11 13  1  0
 13 14  2  0
 14 15  1  0
 15 16  1  0
 15 17  1  0
 14 18  1  0
 18 19  2  0
  5 20  1  0
 20 21  2  0
 21  2  1  0
 19  6  1  0
 19 10  1  0
  1 22  1  0
  1 23  1  0
  1 24  1  0
  3 25  1  0
  4 26  1  0
  9 27  1  0
  9 28  1  0
  9 29  1  0
 12 30  1  0
 12 31  1  0
 12 32  1  0
 13 33  1  0
 15 34  1  0
 16 35  1  0
 16 36  1  0
 16 37  1  0
 17 38  1  0
 17 39  1  0
 17 40  1  0
 20 41  1  0
 21 42  1  0
M  CHG  1  13   1
M  END
>  <UniqueID>  (14) 
14

>  <SMILES>  (14) 
Cc1ccc(-n2nc(C)c3c(C)[nH+]c(C(C)C)nc32)cc1

>  <Energy>  (14) 
82.25319161815514

>  <Genealogy>  (14) 
Cc1ccc(-n2nc(C)c3c(C)[nH+]c(C(C)C)nc32)cc1 (protonated)
Cc1ccc(-n2nc(C)c3c(C)[nH+]c(C(C)C)nc32)cc1 (3D coordinates assigned)
Cc1ccc(-n2nc(C)c3c(C)[nH+]c(C(C)C)nc32)cc1 (optimized conformer: 82.25319161815514 kcal/mol)

>  <smiles>  (14) 
Cc1ccc(-n2nc(C)c3c(C)nc(C(C)C)nc32)cc1

>  <score_type>  (14) 
oracle

>  <origin>  (14) 
adg

>  <m_score__min__energy>  (14) 
-7.5199999999999996

>  <m_primary>  (14) 
energy

$$$$
14:0
     RDKit          3D

 70 73  0  0  0  0  0  0  0  0999 V2000
   -6.3770   17.3930  -31.5090 C   0  0  0  0  0  0  0  0  0  0  0  0
   -5.3670   16.3120  -31.9260 C   0  0  0  0  0  0  0  0  0  0  0  0
   -5.4660   15.9730  -33.4260 C   0  0  0  0  0  0  0  0  0  0  0  0
   -4.1450   16.1640  -34.2090 C   0  0  0  0  0  0  0  0  0  0  0  0
   -4.1910   17.4520  -34.8620 N   0  0  0  0  0  0  0  0  0  0  0  0
   -4.7310   18.6350  -34.2240 C   0  0  0  0  0  0  0  0  0  0  0  0
   -6.0890   18.9200  -34.4060 C   0  0  0  0  0  0  0  0  0  0  0  0
   -6.6460   19.9990  -33.7030 C   0  0  0  0  0  0  0  0  0  0  0  0
   -5.9280   20.7080  -32.6710 C   0  0  0  0  0  0  0  0  0  0  0  0
   -4.4770   20.4270  -32.5870 C   0  0  0  0  0  0  0  0  0  0  0  0
   -3.5440   20.9690  -31.6370 C   0  0  0  0  0  0  0  0  0  0  0  0
   -2.1630   21.0290  -32.0230 C   0  0  0  0  0  0  0  0  0  0  0  0
   -1.8010   20.5920  -33.3440 C   0  0  0  0  0  0  0  0  0  0  0  0
   -2.5660   19.6370  -33.9760 C   0  0  0  0  0  0  0  0  0  0  0  0
   -3.9110   19.5330  -33.5730 C   0  0  0  0  0  0  0  0  0  0  0  0
   -4.0670   21.7090  -30.4290 C   0  0  0  0  0  0  0  0  0  0  0  0
   -3.4820   21.5790  -29.0870 N   0  0  0  0  0  0  0  0  0  0  0  0
   -2.1100   22.1180  -28.8770 C   0  0  0  0  0  0  0  0  0  0  0  0
   -1.0900   21.2160  -28.1250 C   0  0  0  0  0  0  0  0  0  0  0  0
   -1.5340   19.8180  -27.8580 N   0  0  0  0  0  0  0  0  0  0  0  0
   -2.0190   19.6040  -26.4610 C   0  0  0  0  0  0  0  0  0  0  0  0
   -3.3710   18.8780  -26.3540 C   0  0  0  0  0  0  0  0  0  0  0  0
   -0.5110   18.8240  -28.3140 C   0  0  0  0  0  0  0  0  0  0  0  0
   -0.1000   19.0050  -29.7850 C   0  0  0  0  0  0  0  0  0  0  0  0
   -4.8820   22.7980  -30.6220 C   0  0  0  0  0  0  0  0  0  0  0  0
   -4.5180   23.9900  -29.9090 C   0  0  0  0  0  0  0  0  0  0  0  0
   -5.4400   24.9620  -29.5610 C   0  0  0  0  0  0  0  0  0  0  0  0
   -6.7270   24.9100  -30.0930 C   0  0  0  0  0  0  0  0  0  0  0  0
   -7.1000   23.8640  -30.9190 C   0  0  0  0  0  0  0  0  0  0  0  0
   -6.2130   22.7300  -31.1930 C   0  0  0  0  0  0  0  0  0  0  0  0
   -6.7180   21.6700  -31.8330 N   0  0  0  0  0  0  0  0  0  0  0  0
   -8.2120   21.5500  -31.9570 C   0  0  0  0  0  0  0  0  0  0  0  0
   -6.4258   17.4453  -30.4113 H   0  0  0  0  0  0  0  0  0  0  0  0
   -6.0577   18.3668  -31.9086 H   0  0  0  0  0  0  0  0  0  0  0  0
   -7.3703   17.1405  -31.9086 H   0  0  0  0  0  0  0  0  0  0  0  0
   -4.3509   16.6741  -31.7106 H   0  0  0  0  0  0  0  0  0  0  0  0
   -5.5945   15.3986  -31.3568 H   0  0  0  0  0  0  0  0  0  0  0  0
   -5.7749   14.9217  -33.5222 H   0  0  0  0  0  0  0  0  0  0  0  0
   -6.1946   16.6733  -33.8605 H   0  0  0  0  0  0  0  0  0  0  0  0
   -3.2921   16.1282  -33.5152 H   0  0  0  0  0  0  0  0  0  0  0  0
   -4.0251   15.3637  -34.9541 H   0  0  0  0  0  0  0  0  0  0  0  0
   -3.3430   17.6410  -35.4430 H   0  0  0  0  0  0  0  0  0  0  0  0
   -6.7055   18.3121  -35.0845 H   0  0  0  0  0  0  0  0  0  0  0  0
   -7.6701   20.3171  -33.9480 H   0  0  0  0  0  0  0  0  0  0  0  0
   -1.3991   21.4008  -31.3243 H   0  0  0  0  0  0  0  0  0  0  0  0
   -0.9195   21.0173  -33.8462 H   0  0  0  0  0  0  0  0  0  0  0  0
   -2.1465   18.9869  -34.7579 H   0  0  0  0  0  0  0  0  0  0  0  0
   -3.2260   20.5790  -29.0200 H   0  0  0  0  0  0  0  0  0  0  0  0
   -4.2650   21.6270  -28.3370 H   0  0  0  0  0  0  0  0  0  0  0  0
   -1.6871   22.3374  -29.8685 H   0  0  0  0  0  0  0  0  0  0  0  0
   -2.2494   22.9897  -28.2208 H   0  0  0  0  0  0  0  0  0  0  0  0
   -0.1717   21.1690  -28.7287 H   0  0  0  0  0  0  0  0  0  0  0  0
   -0.9525   21.6797  -27.1371 H   0  0  0  0  0  0  0  0  0  0  0  0
   -1.2664   19.0075  -25.9246 H   0  0  0  0  0  0  0  0  0  0  0  0
   -2.1681   20.6039  -26.0273 H   0  0  0  0  0  0  0  0  0  0  0  0
   -3.6297   18.7391  -25.2939 H   0  0  0  0  0  0  0  0  0  0  0  0
   -4.1499   19.4792  -26.8458 H   0  0  0  0  0  0  0  0  0  0  0  0
   -3.3001   17.8966  -26.8458 H   0  0  0  0  0  0  0  0  0  0  0  0
    0.3852   18.9320  -27.6853 H   0  0  0  0  0  0  0  0  0  0  0  0
   -0.9636   17.8256  -28.2228 H   0  0  0  0  0  0  0  0  0  0  0  0
    0.9057   19.4479  -29.8329 H   0  0  0  0  0  0  0  0  0  0  0  0
   -0.0939   18.0263  -30.2871 H   0  0  0  0  0  0  0  0  0  0  0  0
   -0.8179   19.6702  -30.2871 H   0  0  0  0  0  0  0  0  0  0  0  0
   -3.4646   24.1366  -29.6282 H   0  0  0  0  0  0  0  0  0  0  0  0
   -5.1588   25.7698  -28.8694 H   0  0  0  0  0  0  0  0  0  0  0  0
   -7.4500   25.7042  -29.8553 H   0  0  0  0  0  0  0  0  0  0  0  0
   -8.0959   23.8845  -31.3856 H   0  0  0  0  0  0  0  0  0  0  0  0
   -8.6615   21.5139  -30.9537 H   0  0  0  0  0  0  0  0  0  0  0  0
   -8.6055   22.4194  -32.5040 H   0  0  0  0  0  0  0  0  0  0  0  0
   -8.4617   20.6289  -32.5040 H   0  0  0  0  0  0  0  0  0  0  0  0
  1  2  1  0
  2  3  1  0
  3  4  1  0
  4  5  1  0
  5  6  1  0
  6  7  2  0
  7  8  1  0
  8  9  2  0
  9 10  1  0
 10 11  2  0
 11 12  1  0
 12 13  2  0
 13 14  1  0
 14 15  2  0
 11 16  1  0
 16 17  1  0
 17 18  1  0
 18 19  1  0
 19 20  1  0
 20 21  1  0
 21 22  1  0
 20 23  1  0
 23 24  1  0
 16 25  2  0
 25 26  1  0
 26 27  2  0
 27 28  1  0
 28 29  2  0
 29 30  1  0
 30 31  2  0
 31 32  1  0
 15  6  1  0
 30 25  1  0
 31  9  1  0
 15 10  1  0
  1 33  1  0
  1 34  1  0
  1 35  1  0
  2 36  1  0
  2 37  1  0
  3 38  1  0
  3 39  1  0
  4 40  1  0
  4 41  1  0
  5 42  1  0
  7 43  1  0
  8 44  1  0
 12 45  1  0
 13 46  1  0
 14 47  1  0
 17 48  1  0
 17 49  1  0
 18 50  1  0
 18 51  1  0
 19 52  1  0
 19 53  1  0
 21 54  1  0
 21 55  1  0
 22 56  1  0
 22 57  1  0
 22 58  1  0
 23 59  1  0
 23 60  1  0
 24 61  1  0
 24 62  1  0
 24 63  1  0
 26 64  1  0
 27 65  1  0
 28 66  1  0
 29 67  1  0
 32 68  1  0
 32 69  1  0
 32 70  1  0
M  CHG  2  17   1  31   1
M  END
>  <UniqueID>  (15) 
15

>  <SMILES>  (15) 
CCCCNc1ccc2c3c(cccc13)C([NH2+]CCN(CC)CC)=c1ccccc1=[N+]2C

>  <Energy>  (15) 
234.25711564385077

>  <Genealogy>  (15) 
CCCCNc1ccc2c3c(cccc13)C([NH2+]CCN(CC)CC)=c1ccccc1=[N+]2C (protonated)
CCCCNc1ccc2c3c(cccc13)C([NH2+]CCN(CC)CC)=c1ccccc1=[N+]2C (3D coordinates assigned)
CCCCNc1ccc2c3c(cccc13)C([NH2+]CCN(CC)CC)=c1ccccc1=[N+]2C (nonaromatic ring conformer: 234.25711564385077 kcal/mol)

>  <smiles>  (15) 
CCCCNc1ccc2c3c(cccc13)C(NCCN(CC)CC)=c1ccccc1=[N+]2C

>  <score_type>  (15) 
oracle

>  <origin>  (15) 
adg

>  <m_score__min__energy>  (15) 
-7.8499999999999996

>  <m_primary>  (15) 
energy

$$$$
15:0
     RDKit          3D

 37 38  0  0  0  0  0  0  0  0999 V2000
   -4.5190   16.8790  -34.2210 C   0  0  0  0  0  0  0  0  0  0  0  0
   -5.2450   18.0040  -34.9640 C   0  0  0  0  0  0  0  0  0  0  0  0
   -6.0870   18.8210  -34.0710 N   0  0  0  0  0  0  0  0  0  0  0  0
   -6.5060   18.0810  -32.8690 C   0  0  0  0  0  0  0  0  0  0  0  0
   -8.0010   18.2940  -32.5920 C   0  0  0  0  0  0  0  0  0  0  0  0
   -8.3940   19.7760  -32.5330 C   0  0  0  0  0  0  0  0  0  0  0  0
   -7.3340   20.6170  -32.9940 O   0  0  0  0  0  0  0  0  0  0  0  0
   -6.5030   21.4330  -32.2060 C   0  0  0  0  0  0  0  0  0  0  0  0
   -5.1520   21.1250  -31.9500 C   0  0  0  0  0  0  0  0  0  0  0  0
   -4.3600   21.9830  -31.1720 C   0  0  0  0  0  0  0  0  0  0  0  0
   -3.0100   21.6860  -30.9280 C   0  0  0  0  0  0  0  0  0  0  0  0
   -2.2300   22.5490  -30.1520 C   0  0  0  0  0  0  0  0  0  0  0  0
   -2.7890   23.7110  -29.6130 C   0  0  0  0  0  0  0  0  0  0  0  0
   -1.7160   24.8830  -28.5560 Br  0  0  0  0  0  0  0  0  0  0  0  0
   -4.1340   24.0170  -29.8490 C   0  0  0  0  0  0  0  0  0  0  0  0
   -4.9270   23.1590  -30.6280 C   0  0  0  0  0  0  0  0  0  0  0  0
   -6.2730   23.4560  -30.8710 C   0  0  0  0  0  0  0  0  0  0  0  0
   -7.0550   22.5990  -31.6510 C   0  0  0  0  0  0  0  0  0  0  0  0
   -8.8880   23.0510  -31.9690 Br  0  0  0  0  0  0  0  0  0  0  0  0
   -4.6180   17.0324  -33.1363 H   0  0  0  0  0  0  0  0  0  0  0  0
   -4.9634   15.9112  -34.4965 H   0  0  0  0  0  0  0  0  0  0  0  0
   -3.4541   16.8852  -34.4965 H   0  0  0  0  0  0  0  0  0  0  0  0
   -4.4952   18.6562  -35.4356 H   0  0  0  0  0  0  0  0  0  0  0  0
   -5.9048   17.5388  -35.7112 H   0  0  0  0  0  0  0  0  0  0  0  0
   -5.5260   19.6550  -33.7780 H   0  0  0  0  0  0  0  0  0  0  0  0
   -6.9290   19.1610  -34.5920 H   0  0  0  0  0  0  0  0  0  0  0  0
   -6.3166   17.0082  -33.0215 H   0  0  0  0  0  0  0  0  0  0  0  0
   -5.9312   18.4523  -32.0078 H   0  0  0  0  0  0  0  0  0  0  0  0
   -8.5785   17.8097  -33.3932 H   0  0  0  0  0  0  0  0  0  0  0  0
   -8.2190   17.8560  -31.6068 H   0  0  0  0  0  0  0  0  0  0  0  0
   -9.2791   19.9367  -33.1661 H   0  0  0  0  0  0  0  0  0  0  0  0
   -8.6098   20.0348  -31.4859 H   0  0  0  0  0  0  0  0  0  0  0  0
   -4.7146   20.2043  -32.3635 H   0  0  0  0  0  0  0  0  0  0  0  0
   -2.5646   20.7722  -31.3482 H   0  0  0  0  0  0  0  0  0  0  0  0
   -1.1722   22.3123  -29.9650 H   0  0  0  0  0  0  0  0  0  0  0  0
   -4.5712   24.9321  -29.4231 H   0  0  0  0  0  0  0  0  0  0  0  0
   -6.7176   24.3681  -30.4462 H   0  0  0  0  0  0  0  0  0  0  0  0
  1  2  1  0
  2  3  1  0
  3  4  1  0
  4  5  1  0
  5  6  1  0
  6  7  1  0
  7  8  1  0
  8  9  2  0
  9 10  1  0
 10 11  2  0
 11 12  1  0
 12 13  2  0
 13 14  1  0
 13 15  1  0
 15 16  2  0
 16 17  1  0
 17 18  2  0
 18 19  1  0
 18  8  1  0
 16 10  1  0
  1 20  1  0
  1 21  1  0
  1 22  1  0
  2 23  1  0
  2 24  1  0
  3 25  1  0
  3 26  1  0
  4 27  1  0
  4 28  1  0
  5 29  1  0
  5 30  1  0
  6 31  1  0
  6 32  1  0
  9 33  1  0
 11 34  1  0
 12 35  1  0
 15 36  1  0
 17 37  1  0
M  CHG  1   3   1
M  END
>  <UniqueID>  (16) 
16

>  <SMILES>  (16) 
CC[NH2+]CCCOc1cc2ccc(Br)cc2cc1Br

>  <Energy>  (16) 
35.806424502149824

>  <Genealogy>  (16) 
CC[NH2+]CCCOc1cc2ccc(Br)cc2cc1Br (protonated)
CC[NH2+]CCCOc1cc2ccc(Br)cc2cc1Br (3D coordinates assigned)
CC[NH2+]CCCOc1cc2ccc(Br)cc2cc1Br (optimized conformer: 35.806424502149824 kcal/mol)

>  <smiles>  (16) 
CCNCCCOc1cc2ccc(Br)cc2cc1Br

>  <score_type>  (16) 
oracle

>  <origin>  (16) 
adg

>  <m_score__min__energy>  (16) 
-7.5499999999999998

>  <m_primary>  (16) 
energy

$$$$
16:0
     RDKit          3D

 48 49  0  0  0  0  0  0  0  0999 V2000
   -6.1180   25.5740  -29.5850 C   0  0  0  0  0  0  0  0  0  0  0  0
   -5.2230   25.6470  -30.8180 C   0  0  0  0  0  0  0  0  0  0  0  0
   -3.8700   25.3300  -30.4820 O   0  0  0  0  0  0  0  0  0  0  0  0
   -3.4540   24.2140  -29.7320 C   0  0  0  0  0  0  0  0  0  0  0  0
   -3.1380   24.3030  -28.3620 C   0  0  0  0  0  0  0  0  0  0  0  0
   -2.7620   23.1620  -27.6480 C   0  0  0  0  0  0  0  0  0  0  0  0
   -2.7100   21.9250  -28.2880 C   0  0  0  0  0  0  0  0  0  0  0  0
   -3.0120   21.8260  -29.6490 C   0  0  0  0  0  0  0  0  0  0  0  0
   -3.3620   22.9750  -30.3860 C   0  0  0  0  0  0  0  0  0  0  0  0
   -3.6430   22.9330  -31.7620 O   0  0  0  0  0  0  0  0  0  0  0  0
   -4.7040   22.2050  -32.3810 C   0  0  0  0  0  0  0  0  0  0  0  0
   -6.0830   22.8150  -32.0740 C   0  0  0  0  0  0  0  0  0  0  0  0
   -6.9500   21.8780  -31.3250 N   0  0  0  0  0  0  0  0  0  0  0  0
   -7.6370   22.5970  -30.2380 C   0  0  0  0  0  0  0  0  0  0  0  0
   -7.9210   21.1780  -32.2000 C   0  0  0  0  0  0  0  0  0  0  0  0
   -7.3470   19.8560  -32.6400 C   0  0  0  0  0  0  0  0  0  0  0  0
   -6.5210   19.7760  -33.7790 C   0  0  0  0  0  0  0  0  0  0  0  0
   -6.0500   18.5350  -34.2230 C   0  0  0  0  0  0  0  0  0  0  0  0
   -6.4010   17.3630  -33.5370 C   0  0  0  0  0  0  0  0  0  0  0  0
   -5.8330   15.7680  -34.1320 S   0  0  0  0  0  0  0  0  0  0  0  0
   -4.9400   15.3750  -32.5940 C   0  0  0  0  0  0  0  0  0  0  0  0
   -7.2050   17.4390  -32.3930 C   0  0  0  0  0  0  0  0  0  0  0  0
   -7.6820   18.6770  -31.9510 C   0  0  0  0  0  0  0  0  0  0  0  0
   -5.4976   25.6246  -28.6781 H   0  0  0  0  0  0  0  0  0  0  0  0
   -6.8239   26.4175  -29.5939 H   0  0  0  0  0  0  0  0  0  0  0  0
   -6.6779   24.6272  -29.5939 H   0  0  0  0  0  0  0  0  0  0  0  0
   -5.5854   24.9304  -31.5698 H   0  0  0  0  0  0  0  0  0  0  0  0
   -5.2565   26.6711  -31.2182 H   0  0  0  0  0  0  0  0  0  0  0  0
   -3.1875   25.2761  -27.8514 H   0  0  0  0  0  0  0  0  0  0  0  0
   -2.5071   23.2402  -26.5808 H   0  0  0  0  0  0  0  0  0  0  0  0
   -2.4307   21.0248  -27.7208 H   0  0  0  0  0  0  0  0  0  0  0  0
   -2.9763   20.8461  -30.1475 H   0  0  0  0  0  0  0  0  0  0  0  0
   -4.5489   22.2098  -33.4700 H   0  0  0  0  0  0  0  0  0  0  0  0
   -4.6904   21.1810  -31.9795 H   0  0  0  0  0  0  0  0  0  0  0  0
   -5.9426   23.7259  -31.4735 H   0  0  0  0  0  0  0  0  0  0  0  0
   -6.5750   23.0412  -33.0315 H   0  0  0  0  0  0  0  0  0  0  0  0
   -7.2794   22.2227  -29.2674 H   0  0  0  0  0  0  0  0  0  0  0  0
   -7.4229   23.6730  -30.3175 H   0  0  0  0  0  0  0  0  0  0  0  0
   -8.7217   22.4321  -30.3175 H   0  0  0  0  0  0  0  0  0  0  0  0
   -8.8547   21.0046  -31.6448 H   0  0  0  0  0  0  0  0  0  0  0  0
   -8.1271   21.7982  -33.0848 H   0  0  0  0  0  0  0  0  0  0  0  0
   -6.2453   20.6925  -34.3213 H   0  0  0  0  0  0  0  0  0  0  0  0
   -5.4036   18.4787  -35.1113 H   0  0  0  0  0  0  0  0  0  0  0  0
   -5.5618   15.6486  -31.7288 H   0  0  0  0  0  0  0  0  0  0  0  0
   -4.7212   14.2974  -32.5621 H   0  0  0  0  0  0  0  0  0  0  0  0
   -3.9977   15.9416  -32.5621 H   0  0  0  0  0  0  0  0  0  0  0  0
   -7.4619   16.5229  -31.8409 H   0  0  0  0  0  0  0  0  0  0  0  0
   -8.3233   18.7288  -31.0588 H   0  0  0  0  0  0  0  0  0  0  0  0
  1  2  1  0
  2  3  1  0
  3  4  1  0
  4  5  2  0
  5  6  1  0
  6  7  2  0
  7  8  1  0
  8  9  2  0
  9 10  1  0
 10 11  1  0
 11 12  1  0
 12 13  1  0
 13 14  1  0
 13 15  1  0
 15 16  1  0
 16 17  2  0
 17 18  1  0
 18 19  2  0
 19 20  1  0
 20 21  1  0
 19 22  1  0
 22 23  2  0
  9  4  1  0
 23 16  1  0
  1 24  1  0
  1 25  1  0
  1 26  1  0
  2 27  1  0
  2 28  1  0
  5 29  1  0
  6 30  1  0
  7 31  1  0
  8 32  1  0
 11 33  1  0
 11 34  1  0
 12 35  1  0
 12 36  1  0
 14 37  1  0
 14 38  1  0
 14 39  1  0
 15 40  1  0
 15 41  1  0
 17 42  1  0
 18 43  1  0
 21 44  1  0
 21 45  1  0
 21 46  1  0
 22 47  1  0
 23 48  1  0
M  END
>  <UniqueID>  (17) 
17

>  <SMILES>  (17) 
CCOc1ccccc1OCCN(C)Cc1ccc(SC)cc1

>  <Energy>  (17) 
41.479822805303385

>  <Genealogy>  (17) 
CCOc1ccccc1OCCN(C)Cc1ccc(SC)cc1 (3D coordinates assigned)
CCOc1ccccc1OCCN(C)Cc1ccc(SC)cc1 (optimized conformer: 41.479822805303385 kcal/mol)

>  <smiles>  (17) 
CCOc1ccccc1OCCN(C)Cc1ccc(SC)cc1

>  <score_type>  (17) 
oracle

>  <origin>  (17) 
adg

>  <m_score__min__energy>  (17) 
-8.8000000000000007

>  <m_primary>  (17) 
energy

$$$$
17:0
     RDKit          3D

 38 39  0  0  0  0  0  0  0  0999 V2000
   -5.5150   25.3300  -30.8030 C   0  0  0  0  0  0  0  0  0  0  0  0
   -4.2930   24.6050  -30.8830 O   0  0  0  0  0  0  0  0  0  0  0  0
   -3.9150   23.5760  -30.0040 C   0  0  0  0  0  0  0  0  0  0  0  0
   -4.1660   23.6560  -28.6180 C   0  0  0  0  0  0  0  0  0  0  0  0
   -3.7670   22.6230  -27.7670 C   0  0  0  0  0  0  0  0  0  0  0  0
   -3.1130   21.5050  -28.2820 C   0  0  0  0  0  0  0  0  0  0  0  0
   -2.8580   21.4120  -29.6500 C   0  0  0  0  0  0  0  0  0  0  0  0
   -3.2670   22.4350  -30.5220 C   0  0  0  0  0  0  0  0  0  0  0  0
   -2.9480   22.3250  -31.9890 C   0  0  0  0  0  0  0  0  0  0  0  0
   -3.4630   20.7360  -32.6060 S   0  0  0  0  0  0  0  0  0  0  0  0
   -2.8850   20.4370  -34.1560 O   0  0  0  0  0  0  0  0  0  0  0  0
   -5.2050   20.5440  -32.5330 C   0  0  0  0  0  0  0  0  0  0  0  0
   -5.7820   19.3080  -32.8330 C   0  0  0  0  0  0  0  0  0  0  0  0
   -7.1670   19.1480  -32.7750 C   0  0  0  0  0  0  0  0  0  0  0  0
   -7.9970   20.2250  -32.4170 C   0  0  0  0  0  0  0  0  0  0  0  0
   -9.4880   20.0210  -32.3590 C   0  0  0  0  0  0  0  0  0  0  0  0
   -7.4130   21.4770  -32.1020 C   0  0  0  0  0  0  0  0  0  0  0  0
   -8.2610   22.6580  -31.7100 C   0  0  0  0  0  0  0  0  0  0  0  0
   -6.0170   21.6230  -32.1690 C   0  0  0  0  0  0  0  0  0  0  0  0
   -5.7797   25.4870  -29.7469 H   0  0  0  0  0  0  0  0  0  0  0  0
   -5.3966   26.3041  -31.3001 H   0  0  0  0  0  0  0  0  0  0  0  0
   -6.3132   24.7592  -31.3001 H   0  0  0  0  0  0  0  0  0  0  0  0
   -4.6790   24.5372  -28.2052 H   0  0  0  0  0  0  0  0  0  0  0  0
   -3.9693   22.6918  -26.6880 H   0  0  0  0  0  0  0  0  0  0  0  0
   -2.7975   20.6947  -27.6083 H   0  0  0  0  0  0  0  0  0  0  0  0
   -2.3330   20.5316  -30.0491 H   0  0  0  0  0  0  0  0  0  0  0  0
   -3.4775   23.1179  -32.5375 H   0  0  0  0  0  0  0  0  0  0  0  0
   -1.8628   22.4337  -32.1319 H   0  0  0  0  0  0  0  0  0  0  0  0
   -2.7770   21.3340  -34.5640 H   0  0  0  0  0  0  0  0  0  0  0  0
   -5.1430   18.4584  -33.1157 H   0  0  0  0  0  0  0  0  0  0  0  0
   -7.6133   18.1708  -33.0114 H   0  0  0  0  0  0  0  0  0  0  0  0
   -9.8114   19.9767  -31.3086 H   0  0  0  0  0  0  0  0  0  0  0  0
   -9.9926   20.8585  -32.8630 H   0  0  0  0  0  0  0  0  0  0  0  0
   -9.7490   19.0788  -32.8630 H   0  0  0  0  0  0  0  0  0  0  0  0
   -8.3100   22.7263  -30.6132 H   0  0  0  0  0  0  0  0  0  0  0  0
   -7.8167   23.5791  -32.1152 H   0  0  0  0  0  0  0  0  0  0  0  0
   -9.2758   22.5314  -32.1152 H   0  0  0  0  0  0  0  0  0  0  0  0
   -5.5587   22.5947  -31.9330 H   0  0  0  0  0  0  0  0  0  0  0  0
  1  2  1  0
  2  3  1  0
  3  4  2  0
  4  5  1  0
  5  6  2  0
  6  7  1  0
  7  8  2  0
  8  9  1  0
  9 10  1  0
 10 11  1  6
 10 12  1  0
 12 13  2  0
 13 14  1  0
 14 15  2  0
 15 16  1  0
 15 17  1  0
 17 18  1  0
 17 19  2  0
  8  3  1  0
 19 12  1  0
  1 20  1  0
  1 21  1  0
  1 22  1  0
  4 23  1  0
  5 24  1  0
  6 25  1  0
  7 26  1  0
  9 27  1  0
  9 28  1  0
 11 29  1  0
 13 30  1  0
 14 31  1  0
 16 32  1  0
 16 33  1  0
 16 34  1  0
 18 35  1  0
 18 36  1  0
 18 37  1  0
 19 38  1  0
M  CHG  1  10   1
M  END
>  <UniqueID>  (18) 
18

>  <SMILES>  (18) 
COc1ccccc1C[S@+](O)c1ccc(C)c(C)c1

>  <Energy>  (18) 
32.62128878560097

>  <Genealogy>  (18) 
COc1ccccc1C[S+](O)c1ccc(C)c(C)c1 (protonated)
COc1ccccc1C[S@+](O)c1ccc(C)c(C)c1 (chirality)
COc1ccccc1C[S@+](O)c1ccc(C)c(C)c1 (3D coordinates assigned)
COc1ccccc1C[S@+](O)c1ccc(C)c(C)c1 (optimized conformer: 32.62128878560097 kcal/mol)

>  <smiles>  (18) 
COc1ccccc1C[S+]([O-])c1ccc(C)c(C)c1

>  <score_type>  (18) 
oracle

>  <origin>  (18) 
adg

>  <m_score__min__energy>  (18) 
-7.4699999999999998

>  <m_primary>  (18) 
energy

$$$$
18:0
     RDKit          3D

 42 45  0  0  0  0  0  0  0  0999 V2000
   -6.4320   25.5980  -29.6670 C   0  0  0  0  0  0  0  0  0  0  0  0
   -5.1630   25.2320  -30.2010 O   0  0  0  0  0  0  0  0  0  0  0  0
   -4.8660   23.9860  -30.7750 C   0  0  0  0  0  0  0  0  0  0  0  0
   -5.4850   23.5610  -31.9670 C   0  0  0  0  0  0  0  0  0  0  0  0
   -5.2100   22.3020  -32.5010 C   0  0  0  0  0  0  0  0  0  0  0  0
   -4.3110   21.4410  -31.8650 C   0  0  0  0  0  0  0  0  0  0  0  0
   -4.0480   20.1460  -32.4370 N   0  0  0  0  0  0  0  0  0  0  0  0
   -5.0400   19.3330  -33.0860 C   0  0  0  0  0  0  0  0  0  0  0  0
   -4.5560   18.2510  -34.2190 S   0  0  0  0  0  0  0  0  0  0  0  0
   -6.4560   19.3390  -32.6450 C   0  0  0  0  0  0  0  0  0  0  0  0
   -7.3460   20.3070  -33.1450 C   0  0  0  0  0  0  0  0  0  0  0  0
   -8.6730   20.3400  -32.7070 C   0  0  0  0  0  0  0  0  0  0  0  0
   -9.1270   19.4070  -31.7730 C   0  0  0  0  0  0  0  0  0  0  0  0
   -8.2550   18.4340  -31.2780 C   0  0  0  0  0  0  0  0  0  0  0  0
   -6.9260   18.3950  -31.7110 C   0  0  0  0  0  0  0  0  0  0  0  0
   -6.1090   17.4190  -31.2380 F   0  0  0  0  0  0  0  0  0  0  0  0
   -3.7070   21.8490  -30.6650 C   0  0  0  0  0  0  0  0  0  0  0  0
   -3.9510   23.1240  -30.1300 C   0  0  0  0  0  0  0  0  0  0  0  0
   -3.2460   23.5130  -28.8880 C   0  0  0  0  0  0  0  0  0  0  0  0
   -3.6090   24.5460  -28.0800 N   0  0  0  0  0  0  0  0  0  0  0  0
   -2.6720   24.5230  -27.1250 C   0  0  0  0  0  0  0  0  0  0  0  0
   -2.5550   25.3630  -26.0670 N   0  0  0  0  0  0  0  0  0  0  0  0
   -1.5100   25.1820  -25.2010 C   0  0  0  0  0  0  0  0  0  0  0  0
   -0.5730   24.1410  -25.4110 C   0  0  0  0  0  0  0  0  0  0  0  0
   -0.7120   23.2860  -26.5210 C   0  0  0  0  0  0  0  0  0  0  0  0
   -1.7910   23.5190  -27.3640 C   0  0  0  0  0  0  0  0  0  0  0  0
   -2.1490   22.8970  -28.4580 O   0  0  0  0  0  0  0  0  0  0  0  0
   -6.3851   25.5845  -28.5681 H   0  0  0  0  0  0  0  0  0  0  0  0
   -6.6965   26.6090  -30.0103 H   0  0  0  0  0  0  0  0  0  0  0  0
   -7.1943   24.8831  -30.0103 H   0  0  0  0  0  0  0  0  0  0  0  0
   -6.1920   24.2284  -32.4816 H   0  0  0  0  0  0  0  0  0  0  0  0
   -5.7048   21.9840  -33.4305 H   0  0  0  0  0  0  0  0  0  0  0  0
   -3.0700   19.7790  -32.3890 H   0  0  0  0  0  0  0  0  0  0  0  0
   -6.9957   21.0419  -33.8847 H   0  0  0  0  0  0  0  0  0  0  0  0
   -9.3613   21.1031  -33.0993 H   0  0  0  0  0  0  0  0  0  0  0  0
  -10.1707   19.4379  -31.4270 H   0  0  0  0  0  0  0  0  0  0  0  0
   -8.6150   17.6965  -30.5455 H   0  0  0  0  0  0  0  0  0  0  0  0
   -3.0326   21.1595  -30.1361 H   0  0  0  0  0  0  0  0  0  0  0  0
   -4.3860   25.2340  -28.1900 H   0  0  0  0  0  0  0  0  0  0  0  0
   -1.3973   25.8507  -24.3349 H   0  0  0  0  0  0  0  0  0  0  0  0
    0.2616   24.0007  -24.7084 H   0  0  0  0  0  0  0  0  0  0  0  0
    0.0014   22.4707  -26.7119 H   0  0  0  0  0  0  0  0  0  0  0  0
  1  2  1  0
  2  3  1  0
  3  4  2  0
  4  5  1  0
  5  6  2  0
  6  7  1  0
  7  8  1  0
  8  9  2  0
  8 10  1  0
 10 11  2  0
 11 12  1  0
 12 13  2  0
 13 14  1  0
 14 15  2  0
 15 16  1  0
  6 17  1  0
 17 18  2  0
 18 19  1  0
 19 20  2  0
 20 21  1  0
 21 22  2  0
 22 23  1  0
 23 24  2  0
 24 25  1  0
 25 26  2  0
 26 27  1  0
 18  3  1  0
 27 19  1  0
 15 10  1  0
 26 21  1  0
  1 28  1  0
  1 29  1  0
  1 30  1  0
  4 31  1  0
  5 32  1  0
  7 33  1  0
 11 34  1  0
 12 35  1  0
 13 36  1  0
 14 37  1  0
 17 38  1  0
 20 39  1  0
 23 40  1  0
 24 41  1  0
 25 42  1  0
M  CHG  1  20   1
M  END
>  <UniqueID>  (19) 
19

>  <SMILES>  (19) 
COc1ccc(NC(=S)c2ccccc2F)cc1-c1[nH+]c2ncccc2o1

>  <Energy>  (19) 
99.2587943793723

>  <Genealogy>  (19) 
COc1ccc(NC(=S)c2ccccc2F)cc1-c1[nH+]c2ncccc2o1 (protonated)
COc1ccc(NC(=S)c2ccccc2F)cc1-c1[nH+]c2ncccc2o1 (3D coordinates assigned)
COc1ccc(NC(=S)c2ccccc2F)cc1-c1[nH+]c2ncccc2o1 (optimized conformer: 99.2587943793723 kcal/mol)

>  <smiles>  (19) 
COc1ccc(NC(=S)c2ccccc2F)cc1-c1nc2ncccc2o1

>  <score_type>  (19) 
oracle

>  <origin>  (19) 
adg

>  <m_score__min__energy>  (19) 
-8.4199999999999999

>  <m_primary>  (19) 
energy

$$$$
19:0
     RDKit          3D

 38 39  0  0  0  0  0  0  0  0999 V2000
   -3.2510   20.4290  -33.1820 C   0  0  0  0  0  0  0  0  0  0  0  0
   -4.6090   20.9490  -32.8220 C   0  0  0  0  0  0  0  0  0  0  0  0
   -4.7910   22.2800  -32.6080 N   0  0  0  0  0  0  0  0  0  0  0  0
   -6.0180   22.7900  -32.3140 C   0  0  0  0  0  0  0  0  0  0  0  0
   -6.2000   24.1640  -32.1120 O   0  0  0  0  0  0  0  0  0  0  0  0
   -6.4860   24.7420  -30.8390 C   0  0  0  0  0  0  0  0  0  0  0  0
   -5.2200   25.3590  -30.2300 C   0  0  0  0  0  0  0  0  0  0  0  0
   -4.0290   24.6670  -30.7470 N   0  0  0  0  0  0  0  0  0  0  0  0
   -3.5150   23.6780  -29.7800 C   0  0  2  0  0  0  0  0  0  0  0  0
   -4.6210   23.1540  -28.8610 C   0  0  0  0  0  0  0  0  0  0  0  0
   -3.9330   22.8060  -27.5480 C   0  0  0  0  0  0  0  0  0  0  0  0
   -2.8130   23.8340  -27.3930 C   0  0  2  0  0  0  0  0  0  0  0  0
   -3.2230   24.9180  -26.5850 O   0  0  0  0  0  0  0  0  0  0  0  0
   -2.4340   24.2660  -28.8330 C   0  0  2  0  0  0  0  0  0  0  0  0
   -2.2640   25.6660  -28.9560 O   0  0  0  0  0  0  0  0  0  0  0  0
   -7.1100   21.9310  -32.2120 C   0  0  0  0  0  0  0  0  0  0  0  0
   -6.9110   20.5650  -32.4270 C   0  0  0  0  0  0  0  0  0  0  0  0
   -8.3820   19.3570  -32.3040 Br  0  0  0  0  0  0  0  0  0  0  0  0
   -5.6710   20.0990  -32.7400 N   0  0  0  0  0  0  0  0  0  0  0  0
   -2.6859   20.2126  -32.2634 H   0  0  0  0  0  0  0  0  0  0  0  0
   -3.3562   19.5075  -33.7735 H   0  0  0  0  0  0  0  0  0  0  0  0
   -2.7138   21.1850  -33.7735 H   0  0  0  0  0  0  0  0  0  0  0  0
   -7.2478   25.5261  -30.9608 H   0  0  0  0  0  0  0  0  0  0  0  0
   -6.8556   23.9540  -30.1664 H   0  0  0  0  0  0  0  0  0  0  0  0
   -5.1681   26.4246  -30.4979 H   0  0  0  0  0  0  0  0  0  0  0  0
   -5.2549   25.2528  -29.1357 H   0  0  0  0  0  0  0  0  0  0  0  0
   -4.3340   24.1460  -31.6040 H   0  0  0  0  0  0  0  0  0  0  0  0
   -3.0915   22.8797  -30.4071 H   0  0  0  0  0  0  0  0  0  0  0  0
   -5.3855   23.9284  -28.7003 H   0  0  0  0  0  0  0  0  0  0  0  0
   -5.1321   22.2824  -29.2958 H   0  0  0  0  0  0  0  0  0  0  0  0
   -4.6421   22.8799  -26.7103 H   0  0  0  0  0  0  0  0  0  0  0  0
   -3.5464   21.7762  -27.5487 H   0  0  0  0  0  0  0  0  0  0  0  0
   -1.9368   23.4141  -26.8773 H   0  0  0  0  0  0  0  0  0  0  0  0
   -3.5160   25.6580  -27.1800 H   0  0  0  0  0  0  0  0  0  0  0  0
   -1.4475   23.8673  -29.1119 H   0  0  0  0  0  0  0  0  0  0  0  0
   -3.1040   26.0520  -29.3270 H   0  0  0  0  0  0  0  0  0  0  0  0
   -8.1091   22.3206  -31.9670 H   0  0  0  0  0  0  0  0  0  0  0  0
   -5.5350   19.0770  -32.9160 H   0  0  0  0  0  0  0  0  0  0  0  0
  1  2  1  0
  2  3  2  0
  3  4  1  0
  4  5  1  0
  5  6  1  0
  6  7  1  0
  7  8  1  0
  8  9  1  0
  9 10  1  0
 10 11  1  0
 11 12  1  0
 12 13  1  0
 12 14  1  0
 14 15  1  0
  4 16  2  0
 16 17  1  0
 17 18  1  0
 17 19  2  0
 19  2  1  0
 14  9  1  0
  1 20  1  0
  1 21  1  0
  1 22  1  0
  6 23  1  0
  6 24  1  0
  7 25  1  0
  7 26  1  0
  8 27  1  0
  9 28  1  6
 10 29  1  0
 10 30  1  0
 11 31  1  0
 11 32  1  0
 12 33  1  1
 13 34  1  0
 14 35  1  6
 15 36  1  0
 16 37  1  0
 19 38  1  0
M  CHG  1  19   1
M  END
>  <UniqueID>  (20) 
20

>  <SMILES>  (20) 
Cc1nc(OCCN[C@@H]2CC[C@H](O)C2O)cc(Br)[nH+]1

>  <Energy>  (20) 
39.30541053930582

>  <Genealogy>  (20) 
Cc1nc(OCCNC2CCC(O)C2O)cc(Br)[nH+]1 (protonated)
Cc1nc(OCCN[C@@H]2CC[C@H](O)C2O)cc(Br)[nH+]1 (chirality)
Cc1nc(OCCN[C@@H]2CC[C@H](O)C2O)cc(Br)[nH+]1 (3D coordinates assigned)
Cc1nc(OCCN[C@@H]2CC[C@H](O)C2O)cc(Br)[nH+]1 (nonaromatic ring conformer: 39.30541053930582 kcal/mol)

>  <smiles>  (20) 
Cc1nc(Br)cc(OCCNC2CCC(O)C2O)n1

>  <score_type>  (20) 
oracle

>  <origin>  (20) 
adg

>  <m_score__min__energy>  (20) 
-7.2300000000000004

>  <m_primary>  (20) 
energy

$$$$
20:0
     RDKit          3D

 64 68  0  0  0  0  0  0  0  0999 V2000
   -1.4410   14.7980  -32.7160 C   0  0  0  0  0  0  0  0  0  0  0  0
   -1.7550   16.2930  -32.9040 C   0  0  0  0  0  0  0  0  0  0  0  0
   -2.0210   16.6930  -34.3050 N   0  0  0  0  0  0  0  0  0  0  0  0
   -2.3100   18.1200  -34.5460 C   0  0  0  0  0  0  0  0  0  0  0  0
   -1.0700   18.9730  -34.2890 C   0  0  0  0  0  0  0  0  0  0  0  0
   -2.7680   15.7210  -35.1370 C   0  0  0  0  0  0  0  0  0  0  0  0
   -4.2300   15.4810  -34.6970 C   0  0  0  0  0  0  0  0  0  0  0  0
   -4.8140   16.6110  -34.0720 O   0  0  0  0  0  0  0  0  0  0  0  0
   -5.4820   16.2510  -32.8770 C   0  0  0  0  0  0  0  0  0  0  0  0
   -6.0910   17.5030  -32.2500 C   0  0  0  0  0  0  0  0  0  0  0  0
   -5.6850   18.6980  -32.9880 N   0  0  0  0  0  0  0  0  0  0  0  0
   -5.7860   20.0010  -32.3950 C   0  0  0  0  0  0  0  0  0  0  0  0
   -7.0410   20.6020  -32.2170 C   0  0  0  0  0  0  0  0  0  0  0  0
   -8.2320   19.9030  -32.5090 C   0  0  0  0  0  0  0  0  0  0  0  0
   -9.4710   20.5150  -32.3390 C   0  0  0  0  0  0  0  0  0  0  0  0
   -9.5480   21.8290  -31.8930 C   0  0  0  0  0  0  0  0  0  0  0  0
   -8.3820   22.5430  -31.6160 C   0  0  0  0  0  0  0  0  0  0  0  0
   -7.1080   21.9460  -31.7740 C   0  0  0  0  0  0  0  0  0  0  0  0
   -5.9460   22.6530  -31.5330 N   0  0  0  0  0  0  0  0  0  0  0  0
   -5.9870   24.1250  -31.6650 C   0  0  0  0  0  0  0  0  0  0  0  0
   -4.7370   21.9840  -31.4240 C   0  0  0  0  0  0  0  0  0  0  0  0
   -4.6260   20.6840  -31.9850 C   0  0  0  0  0  0  0  0  0  0  0  0
   -3.3570   20.0980  -32.1380 C   0  0  0  0  0  0  0  0  0  0  0  0
   -2.2500   20.7170  -31.6720 N   0  0  0  0  0  0  0  0  0  0  0  0
   -2.3120   21.8910  -31.0010 C   0  0  0  0  0  0  0  0  0  0  0  0
   -1.1310   22.4220  -30.4500 C   0  0  0  0  0  0  0  0  0  0  0  0
   -1.2340   23.5440  -29.6420 C   0  0  0  0  0  0  0  0  0  0  0  0
   -2.4270   24.1220  -29.3720 C   0  0  0  0  0  0  0  0  0  0  0  0
   -3.6190   23.6450  -29.9060 C   0  0  0  0  0  0  0  0  0  0  0  0
   -3.5730   22.5410  -30.8030 C   0  0  0  0  0  0  0  0  0  0  0  0
   -2.2410   25.1830  -28.5050 O   0  0  0  0  0  0  0  0  0  0  0  0
   -0.8400   25.2790  -28.2170 C   0  0  0  0  0  0  0  0  0  0  0  0
   -0.2330   24.2130  -28.9640 O   0  0  0  0  0  0  0  0  0  0  0  0
   -1.3922   14.5658  -31.6419 H   0  0  0  0  0  0  0  0  0  0  0  0
   -2.2321   14.1952  -33.1859 H   0  0  0  0  0  0  0  0  0  0  0  0
   -0.4742   14.5645  -33.1859 H   0  0  0  0  0  0  0  0  0  0  0  0
   -2.6436   16.5357  -32.3027 H   0  0  0  0  0  0  0  0  0  0  0  0
   -0.8573   16.8437  -32.5864 H   0  0  0  0  0  0  0  0  0  0  0  0
   -2.6292   18.2524  -35.5903 H   0  0  0  0  0  0  0  0  0  0  0  0
   -3.1077   18.4400  -33.8595 H   0  0  0  0  0  0  0  0  0  0  0  0
   -0.9160   19.0789  -33.2050 H   0  0  0  0  0  0  0  0  0  0  0  0
   -0.1913   18.4873  -34.7384 H   0  0  0  0  0  0  0  0  0  0  0  0
   -1.2093   19.9673  -34.7384 H   0  0  0  0  0  0  0  0  0  0  0  0
   -2.7788   16.0934  -36.1720 H   0  0  0  0  0  0  0  0  0  0  0  0
   -2.2494   14.7570  -35.0283 H   0  0  0  0  0  0  0  0  0  0  0  0
   -4.8258   15.2253  -35.5856 H   0  0  0  0  0  0  0  0  0  0  0  0
   -4.2213   14.6653  -33.9590 H   0  0  0  0  0  0  0  0  0  0  0  0
   -6.2789   15.5274  -33.1038 H   0  0  0  0  0  0  0  0  0  0  0  0
   -4.7680   15.7945  -32.1757 H   0  0  0  0  0  0  0  0  0  0  0  0
   -7.1877   17.4207  -32.2706 H   0  0  0  0  0  0  0  0  0  0  0  0
   -5.7351   17.5890  -31.2127 H   0  0  0  0  0  0  0  0  0  0  0  0
   -5.4480   18.6410  -34.0070 H   0  0  0  0  0  0  0  0  0  0  0  0
   -8.1809   18.8665  -32.8738 H   0  0  0  0  0  0  0  0  0  0  0  0
  -10.3927   19.9562  -32.5586 H   0  0  0  0  0  0  0  0  0  0  0  0
  -10.5297   22.3067  -31.7582 H   0  0  0  0  0  0  0  0  0  0  0  0
   -8.4534   23.5847  -31.2699 H   0  0  0  0  0  0  0  0  0  0  0  0
   -5.9997   24.5826  -30.6648 H   0  0  0  0  0  0  0  0  0  0  0  0
   -5.0981   24.4688  -32.2142 H   0  0  0  0  0  0  0  0  0  0  0  0
   -6.8937   24.4188  -32.2142 H   0  0  0  0  0  0  0  0  0  0  0  0
   -3.2644   19.1250  -32.6426 H   0  0  0  0  0  0  0  0  0  0  0  0
   -0.1539   21.9600  -30.6545 H   0  0  0  0  0  0  0  0  0  0  0  0
   -4.5789   24.1119  -29.6403 H   0  0  0  0  0  0  0  0  0  0  0  0
   -0.4444   26.2527  -28.5417 H   0  0  0  0  0  0  0  0  0  0  0  0
   -0.6332   25.1984  -27.1396 H   0  0  0  0  0  0  0  0  0  0  0  0
  1  2  1  0
  2  3  1  0
  3  4  1  0
  4  5  1  0
  3  6  1  0
  6  7  1  0
  7  8  1  0
  8  9  1  0
  9 10  1  0
 10 11  1  0
 11 12  1  0
 12 13  2  0
 13 14  1  0
 14 15  2  0
 15 16  1  0
 16 17  2  0
 17 18  1  0
 18 19  2  0
 19 20  1  0
 19 21  1  0
 21 22  2  0
 22 23  1  0
 23 24  2  0
 24 25  1  0
 25 26  2  0
 26 27  1  0
 27 28  2  0
 28 29  1  0
 29 30  2  0
 28 31  1  0
 31 32  1  0
 32 33  1  0
 22 12  1  0
 30 25  1  0
 18 13  1  0
 30 21  1  0
 33 27  1  0
  1 34  1  0
  1 35  1  0
  1 36  1  0
  2 37  1  0
  2 38  1  0
  4 39  1  0
  4 40  1  0
  5 41  1  0
  5 42  1  0
  5 43  1  0
  6 44  1  0
  6 45  1  0
  7 46  1  0
  7 47  1  0
  9 48  1  0
  9 49  1  0
 10 50  1  0
 10 51  1  0
 11 52  1  0
 14 53  1  0
 15 54  1  0
 16 55  1  0
 17 56  1  0
 20 57  1  0
 20 58  1  0
 20 59  1  0
 23 60  1  0
 26 61  1  0
 29 62  1  0
 32 63  1  0
 32 64  1  0
M  CHG  1  19   1
M  END
>  <UniqueID>  (21) 
21

>  <SMILES>  (21) 
CCN(CC)CCOCCNc1c2ccccc2[n+](C)c2c1cnc1cc3c(cc12)OCO3

>  <Energy>  (21) 
146.3339478388577

>  <Genealogy>  (21) 
CCN(CC)CCOCCNc1c2ccccc2[n+](C)c2c1cnc1cc3c(cc12)OCO3 (3D coordinates assigned)
CCN(CC)CCOCCNc1c2ccccc2[n+](C)c2c1cnc1cc3c(cc12)OCO3 (nonaromatic ring conformer: 146.3339478388577 kcal/mol)

>  <smiles>  (21) 
CCN(CC)CCOCCNc1c2ccccc2[n+](C)c2c1cnc1cc3c(cc12)OCO3

>  <score_type>  (21) 
oracle

>  <origin>  (21) 
adg

>  <m_score__min__energy>  (21) 
-8.7100000000000009

>  <m_primary>  (21) 
energy

$$$$
21:0
     RDKit          3D

 34 35  0  0  0  0  0  0  0  0999 V2000
   -6.3750   24.8330  -30.0640 C   0  0  0  0  0  0  0  0  0  0  0  0
   -5.3640   25.6710  -30.8310 C   0  0  0  0  0  0  0  0  0  0  0  0
   -4.0570   25.1490  -30.6130 O   0  0  0  0  0  0  0  0  0  0  0  0
   -3.7650   24.0320  -29.8130 C   0  0  0  0  0  0  0  0  0  0  0  0
   -3.6590   24.1330  -28.4110 C   0  0  0  0  0  0  0  0  0  0  0  0
   -3.3480   23.0100  -27.6430 C   0  0  0  0  0  0  0  0  0  0  0  0
   -3.1440   21.7750  -28.2570 C   0  0  0  0  0  0  0  0  0  0  0  0
   -3.2490   21.6580  -29.6430 C   0  0  0  0  0  0  0  0  0  0  0  0
   -3.5600   22.7800  -30.4320 C   0  0  0  0  0  0  0  0  0  0  0  0
   -3.6140   22.6250  -31.9330 C   0  0  0  0  0  0  0  0  0  0  0  0
   -5.0070   22.5950  -32.4080 N   0  0  0  0  0  0  0  0  0  0  0  0
   -5.5110   21.2260  -32.6010 C   0  0  0  0  0  0  0  0  0  0  0  0
   -6.9800   21.1490  -32.3090 C   0  0  0  0  0  0  0  0  0  0  0  0
   -7.7640   20.0060  -32.3880 C   0  0  0  0  0  0  0  0  0  0  0  0
   -9.1090   20.2390  -32.0790 C   0  0  0  0  0  0  0  0  0  0  0  0
   -9.3900   21.5660  -31.7770 C   0  0  0  0  0  0  0  0  0  0  0  0
   -7.9640   22.4490  -31.8950 S   0  0  0  0  0  0  0  0  0  0  0  0
   -6.2160   24.9648  -28.9835 H   0  0  0  0  0  0  0  0  0  0  0  0
   -7.3933   25.1555  -30.3268 H   0  0  0  0  0  0  0  0  0  0  0  0
   -6.2470   23.7726  -30.3268 H   0  0  0  0  0  0  0  0  0  0  0  0
   -5.5985   25.6374  -31.9052 H   0  0  0  0  0  0  0  0  0  0  0  0
   -5.4076   26.7127  -30.4804 H   0  0  0  0  0  0  0  0  0  0  0  0
   -3.8225   25.1032  -27.9191 H   0  0  0  0  0  0  0  0  0  0  0  0
   -3.2636   23.0995  -26.5499 H   0  0  0  0  0  0  0  0  0  0  0  0
   -2.9000   20.8921  -27.6479 H   0  0  0  0  0  0  0  0  0  0  0  0
   -3.0874   20.6812  -30.1223 H   0  0  0  0  0  0  0  0  0  0  0  0
   -3.0918   23.4722  -32.4016 H   0  0  0  0  0  0  0  0  0  0  0  0
   -3.1289   21.6762  -32.2061 H   0  0  0  0  0  0  0  0  0  0  0  0
   -5.0220   23.0640  -33.3430 H   0  0  0  0  0  0  0  0  0  0  0  0
   -5.3347   20.9212  -33.6431 H   0  0  0  0  0  0  0  0  0  0  0  0
   -4.9801   20.5558  -31.9089 H   0  0  0  0  0  0  0  0  0  0  0  0
   -7.3683   19.0178  -32.6652 H   0  0  0  0  0  0  0  0  0  0  0  0
   -9.8718   19.4464  -32.0755 H   0  0  0  0  0  0  0  0  0  0  0  0
  -10.3769   21.9698  -31.5069 H   0  0  0  0  0  0  0  0  0  0  0  0
  1  2  1  0
  2  3  1  0
  3  4  1  0
  4  5  2  0
  5  6  1  0
  6  7  2  0
  7  8  1  0
  8  9  2  0
  9 10  1  0
 10 11  1  0
 11 12  1  0
 12 13  1  0
 13 14  2  0
 14 15  1  0
 15 16  2  0
 16 17  1  0
  9  4  1  0
 17 13  1  0
  1 18  1  0
  1 19  1  0
  1 20  1  0
  2 21  1  0
  2 22  1  0
  5 23  1  0
  6 24  1  0
  7 25  1  0
  8 26  1  0
 10 27  1  0
 10 28  1  0
 11 29  1  0
 12 30  1  0
 12 31  1  0
 14 32  1  0
 15 33  1  0
 16 34  1  0
M  END
>  <UniqueID>  (22) 
22

>  <SMILES>  (22) 
CCOc1ccccc1CNCc1cccs1

>  <Energy>  (22) 
52.639404037164326

>  <Genealogy>  (22) 
CCOc1ccccc1CNCc1cccs1 (3D coordinates assigned)
CCOc1ccccc1CNCc1cccs1 (optimized conformer: 52.639404037164326 kcal/mol)

>  <smiles>  (22) 
CCOc1ccccc1CNCc1cccs1

>  <score_type>  (22) 
oracle

>  <origin>  (22) 
adg

>  <m_score__min__energy>  (22) 
-7.04

>  <m_primary>  (22) 
energy

$$$$
22:0
     RDKit          3D

 51 52  0  0  0  0  0  0  0  0999 V2000
   -1.2500   25.8950  -27.2370 C   0  0  0  0  0  0  0  0  0  0  0  0
   -0.9910   25.1590  -28.5590 C   0  0  0  0  0  0  0  0  0  0  0  0
   -1.8550   23.9730  -28.7890 N   0  0  0  0  0  0  0  0  0  0  0  0
   -1.2560   23.0360  -29.7550 C   0  0  0  0  0  0  0  0  0  0  0  0
   -2.2710   23.2590  -27.5600 C   0  0  0  0  0  0  0  0  0  0  0  0
   -3.7650   23.4510  -27.2300 C   0  0  0  0  0  0  0  0  0  0  0  0
   -4.3560   24.6470  -27.8630 N   0  0  0  0  0  0  0  0  0  0  0  0
   -5.3910   24.3910  -28.8900 C   0  0  0  0  0  0  0  0  0  0  0  0
   -4.9470   24.3240  -30.4030 C   0  0  2  0  0  0  0  0  0  0  0  0
   -3.7850   25.1080  -30.5600 O   0  0  0  0  0  0  0  0  0  0  0  0
   -5.9760   24.8230  -31.4410 C   0  0  0  0  0  0  0  0  0  0  0  0
   -6.0690   23.7330  -32.5040 C   0  0  0  0  0  0  0  0  0  0  0  0
   -4.9500   22.8190  -32.2800 N   0  0  0  0  0  0  0  0  0  0  0  0
   -5.1310   21.4550  -32.8310 C   0  0  0  0  0  0  0  0  0  0  0  0
   -6.3810   20.7340  -32.3600 C   0  0  0  0  0  0  0  0  0  0  0  0
   -7.6100   21.4110  -32.2700 C   0  0  0  0  0  0  0  0  0  0  0  0
   -8.7560   20.7430  -31.8310 C   0  0  0  0  0  0  0  0  0  0  0  0
   -8.6930   19.3870  -31.5000 C   0  0  0  0  0  0  0  0  0  0  0  0
   -7.4850   18.6950  -31.6180 C   0  0  0  0  0  0  0  0  0  0  0  0
   -6.3350   19.3620  -32.0530 C   0  0  0  0  0  0  0  0  0  0  0  0
   -4.6190   22.8900  -30.8570 C   0  0  0  0  0  0  0  0  0  0  0  0
   -1.0154   25.2283  -26.3941 H   0  0  0  0  0  0  0  0  0  0  0  0
   -0.6129   26.7902  -27.1848 H   0  0  0  0  0  0  0  0  0  0  0  0
   -2.3073   26.1939  -27.1848 H   0  0  0  0  0  0  0  0  0  0  0  0
   -1.1557   25.8680  -29.3838 H   0  0  0  0  0  0  0  0  0  0  0  0
    0.0424   24.7854  -28.5091 H   0  0  0  0  0  0  0  0  0  0  0  0
   -0.7406   22.2298  -29.2125 H   0  0  0  0  0  0  0  0  0  0  0  0
   -2.0468   22.6055  -30.3869 H   0  0  0  0  0  0  0  0  0  0  0  0
   -0.5333   23.5730  -30.3869 H   0  0  0  0  0  0  0  0  0  0  0  0
   -2.0769   22.1848  -27.6956 H   0  0  0  0  0  0  0  0  0  0  0  0
   -1.6921   23.6776  -26.7235 H   0  0  0  0  0  0  0  0  0  0  0  0
   -4.3157   22.5644  -27.5775 H   0  0  0  0  0  0  0  0  0  0  0  0
   -3.8423   23.5879  -26.1413 H   0  0  0  0  0  0  0  0  0  0  0  0
   -4.7240   25.2930  -27.1300 H   0  0  0  0  0  0  0  0  0  0  0  0
   -3.5890   25.1920  -28.3210 H   0  0  0  0  0  0  0  0  0  0  0  0
   -5.8599   23.4264  -28.6457 H   0  0  0  0  0  0  0  0  0  0  0  0
   -6.0460   25.2732  -28.8394 H   0  0  0  0  0  0  0  0  0  0  0  0
   -2.9980   24.5010  -30.5640 H   0  0  0  0  0  0  0  0  0  0  0  0
   -6.9555   24.9756  -30.9643 H   0  0  0  0  0  0  0  0  0  0  0  0
   -5.6708   25.7851  -31.8783 H   0  0  0  0  0  0  0  0  0  0  0  0
   -7.0225   23.1929  -32.4085 H   0  0  0  0  0  0  0  0  0  0  0  0
   -6.0253   24.1660  -33.5143 H   0  0  0  0  0  0  0  0  0  0  0  0
   -5.1745   21.5328  -33.9274 H   0  0  0  0  0  0  0  0  0  0  0  0
   -4.2786   20.8614  -32.4690 H   0  0  0  0  0  0  0  0  0  0  0  0
   -7.6697   22.4738  -32.5471 H   0  0  0  0  0  0  0  0  0  0  0  0
   -9.7092   21.2854  -31.7459 H   0  0  0  0  0  0  0  0  0  0  0  0
   -9.5942   18.8645  -31.1466 H   0  0  0  0  0  0  0  0  0  0  0  0
   -7.4382   17.6247  -31.3686 H   0  0  0  0  0  0  0  0  0  0  0  0
   -5.3889   18.8103  -32.1556 H   0  0  0  0  0  0  0  0  0  0  0  0
   -5.2212   22.1648  -30.2901 H   0  0  0  0  0  0  0  0  0  0  0  0
   -3.5598   22.6499  -30.6825 H   0  0  0  0  0  0  0  0  0  0  0  0
  1  2  1  0
  2  3  1  0
  3  4  1  0
  3  5  1  0
  5  6  1  0
  6  7  1  0
  7  8  1  0
  8  9  1  0
  9 10  1  1
  9 11  1  0
 11 12  1  0
 12 13  1  0
 13 14  1  0
 14 15  1  0
 15 16  2  0
 16 17  1  0
 17 18  2  0
 18 19  1  0
 19 20  2  0
 13 21  1  0
 21  9  1  0
 20 15  1  0
  1 22  1  0
  1 23  1  0
  1 24  1  0
  2 25  1  0
  2 26  1  0
  4 27  1  0
  4 28  1  0
  4 29  1  0
  5 30  1  0
  5 31  1  0
  6 32  1  0
  6 33  1  0
  7 34  1  0
  7 35  1  0
  8 36  1  0
  8 37  1  0
 10 38  1  0
 11 39  1  0
 11 40  1  0
 12 41  1  0
 12 42  1  0
 14 43  1  0
 14 44  1  0
 16 45  1  0
 17 46  1  0
 18 47  1  0
 19 48  1  0
 20 49  1  0
 21 50  1  0
 21 51  1  0
M  CHG  1   7   1
M  END
>  <UniqueID>  (23) 
23

>  <SMILES>  (23) 
CCN(C)CC[NH2+]C[C@]1(O)CCN(Cc2ccccc2)C1

>  <Energy>  (23) 
69.12765888084591

>  <Genealogy>  (23) 
CCN(C)CC[NH2+]CC1(O)CCN(Cc2ccccc2)C1 (protonated)
CCN(C)CC[NH2+]C[C@]1(O)CCN(Cc2ccccc2)C1 (chirality)
CCN(C)CC[NH2+]C[C@]1(O)CCN(Cc2ccccc2)C1 (3D coordinates assigned)
CCN(C)CC[NH2+]C[C@]1(O)CCN(Cc2ccccc2)C1 (nonaromatic ring conformer: 69.12765888084591 kcal/mol)

>  <smiles>  (23) 
CCN(C)CCNCC1(O)CCN(Cc2ccccc2)C1

>  <score_type>  (23) 
oracle

>  <origin>  (23) 
adg

>  <m_score__min__energy>  (23) 
-7.1299999999999999

>  <m_primary>  (23) 
energy

$$$$
23:0
     RDKit          3D

 54 56  0  0  0  0  0  0  0  0999 V2000
   -1.0680   19.7720  -28.1190 C   0  0  0  0  0  0  0  0  0  0  0  0
   -1.9390   20.9360  -28.4890 C   0  0  0  0  0  0  0  0  0  0  0  0
   -1.5560   21.7950  -29.5300 C   0  0  0  0  0  0  0  0  0  0  0  0
   -2.3470   22.8990  -29.8590 C   0  0  0  0  0  0  0  0  0  0  0  0
   -3.5180   23.1730  -29.1360 C   0  0  0  0  0  0  0  0  0  0  0  0
   -4.3840   24.3380  -29.5210 C   0  0  0  0  0  0  0  0  0  0  0  0
   -4.6240   24.2850  -30.9130 O   0  0  0  0  0  0  0  0  0  0  0  0
   -5.9870   24.5520  -31.1980 C   0  0  0  0  0  0  0  0  0  0  0  0
   -6.8310   24.1410  -29.9750 C   0  0  0  0  0  0  0  0  0  0  0  0
   -7.1190   22.6310  -29.9640 C   0  0  0  0  0  0  0  0  0  0  0  0
   -7.7330   22.1430  -31.2270 N   0  0  0  0  0  0  0  0  0  0  0  0
   -8.9990   21.4040  -31.0380 C   0  0  0  0  0  0  0  0  0  0  0  0
   -9.0830   20.0860  -31.8380 C   0  0  0  0  0  0  0  0  0  0  0  0
   -8.1340   20.0870  -32.9630 N   0  0  0  0  0  0  0  0  0  0  0  0
   -7.1250   19.0180  -32.8610 C   0  0  0  0  0  0  0  0  0  0  0  0
   -5.7160   19.5570  -32.9470 C   0  0  0  0  0  0  0  0  0  0  0  0
   -5.3110   20.6430  -32.1560 C   0  0  0  0  0  0  0  0  0  0  0  0
   -4.0030   21.1210  -32.2420 C   0  0  0  0  0  0  0  0  0  0  0  0
   -3.1070   20.5090  -33.1210 C   0  0  0  0  0  0  0  0  0  0  0  0
   -3.5110   19.4560  -33.8810 N   0  0  0  0  0  0  0  0  0  0  0  0
   -4.7810   18.9730  -33.8160 C   0  0  0  0  0  0  0  0  0  0  0  0
   -7.7780   23.1210  -32.3330 C   0  0  0  0  0  0  0  0  0  0  0  0
   -6.4150   23.8000  -32.4850 C   0  0  0  0  0  0  0  0  0  0  0  0
   -3.9030   22.3130  -28.0960 C   0  0  0  0  0  0  0  0  0  0  0  0
   -3.1110   21.2080  -27.7660 C   0  0  0  0  0  0  0  0  0  0  0  0
   -1.0084   19.6923  -27.0235 H   0  0  0  0  0  0  0  0  0  0  0  0
   -1.4976   18.8470  -28.5311 H   0  0  0  0  0  0  0  0  0  0  0  0
   -0.0594   19.9232  -28.5311 H   0  0  0  0  0  0  0  0  0  0  0  0
   -0.6294   21.5987  -30.0894 H   0  0  0  0  0  0  0  0  0  0  0  0
   -2.0501   23.5568  -30.6892 H   0  0  0  0  0  0  0  0  0  0  0  0
   -5.3394   24.2840  -28.9785 H   0  0  0  0  0  0  0  0  0  0  0  0
   -3.8792   25.2809  -29.2638 H   0  0  0  0  0  0  0  0  0  0  0  0
   -6.1444   25.6244  -31.3856 H   0  0  0  0  0  0  0  0  0  0  0  0
   -6.2833   24.4061  -29.0586 H   0  0  0  0  0  0  0  0  0  0  0  0
   -7.7924   24.6729  -30.0276 H   0  0  0  0  0  0  0  0  0  0  0  0
   -6.1712   22.0954  -29.8062 H   0  0  0  0  0  0  0  0  0  0  0  0
   -7.8401   22.4415  -29.1553 H   0  0  0  0  0  0  0  0  0  0  0  0
   -9.1048   21.1670  -29.9691 H   0  0  0  0  0  0  0  0  0  0  0  0
   -9.8050   22.0537  -31.4099 H   0  0  0  0  0  0  0  0  0  0  0  0
   -8.8471   19.2446  -31.1698 H   0  0  0  0  0  0  0  0  0  0  0  0
  -10.1018   19.9863  -32.2407 H   0  0  0  0  0  0  0  0  0  0  0  0
   -8.6650   19.9820  -33.8600 H   0  0  0  0  0  0  0  0  0  0  0  0
   -7.2497   18.5032  -31.8969 H   0  0  0  0  0  0  0  0  0  0  0  0
   -7.2760   18.3278  -33.7041 H   0  0  0  0  0  0  0  0  0  0  0  0
   -6.0254   21.1179  -31.4675 H   0  0  0  0  0  0  0  0  0  0  0  0
   -3.6807   21.9716  -31.6234 H   0  0  0  0  0  0  0  0  0  0  0  0
   -2.0739   20.8788  -33.1987 H   0  0  0  0  0  0  0  0  0  0  0  0
   -5.0764   18.1216  -34.4468 H   0  0  0  0  0  0  0  0  0  0  0  0
   -8.0330   22.6018  -33.2686 H   0  0  0  0  0  0  0  0  0  0  0  0
   -8.5392   23.8834  -32.1109 H   0  0  0  0  0  0  0  0  0  0  0  0
   -5.6608   23.0327  -32.7141 H   0  0  0  0  0  0  0  0  0  0  0  0
   -6.4948   24.5385  -33.2963 H   0  0  0  0  0  0  0  0  0  0  0  0
   -4.8308   22.5084  -27.5383 H   0  0  0  0  0  0  0  0  0  0  0  0
   -3.4080   20.5495  -26.9364 H   0  0  0  0  0  0  0  0  0  0  0  0
  1  2  1  0
  2  3  2  0
  3  4  1  0
  4  5  2  0
  5  6  1  0
  6  7  1  0
  7  8  1  0
  8  9  1  0
  9 10  1  0
 10 11  1  0
 11 12  1  0
 12 13  1  0
 13 14  1  0
 14 15  1  0
 15 16  1  0
 16 17  2  0
 17 18  1  0
 18 19  2  0
 19 20  1  0
 20 21  2  0
 11 22  1  0
 22 23  1  0
  5 24  1  0
 24 25  2  0
 25  2  1  0
 23  8  1  0
 21 16  1  0
  1 26  1  0
  1 27  1  0
  1 28  1  0
  3 29  1  0
  4 30  1  0
  6 31  1  0
  6 32  1  0
  8 33  1  0
  9 34  1  0
  9 35  1  0
 10 36  1  0
 10 37  1  0
 12 38  1  0
 12 39  1  0
 13 40  1  0
 13 41  1  0
 14 42  1  0
 15 43  1  0
 15 44  1  0
 17 45  1  0
 18 46  1  0
 19 47  1  0
 21 48  1  0
 22 49  1  0
 22 50  1  0
 23 51  1  0
 23 52  1  0
 24 53  1  0
 25 54  1  0
M  END
>  <UniqueID>  (24) 
24

>  <SMILES>  (24) 
Cc1ccc(COC2CCN(CCNCc3cccnc3)CC2)cc1

>  <Energy>  (24) 
68.06978476895284

>  <Genealogy>  (24) 
Cc1ccc(COC2CCN(CCNCc3cccnc3)CC2)cc1 (3D coordinates assigned)
Cc1ccc(COC2CCN(CCNCc3cccnc3)CC2)cc1 (nonaromatic ring conformer: 68.06978476895284 kcal/mol)

>  <smiles>  (24) 
Cc1ccc(COC2CCN(CCNCc3cccnc3)CC2)cc1

>  <score_type>  (24) 
oracle

>  <origin>  (24) 
adg

>  <m_score__min__energy>  (24) 
-9.0899999999999999

>  <m_primary>  (24) 
energy

$$$$
24:0
     RDKit          3D

 59 62  0  0  0  0  0  0  0  0999 V2000
    0.2660   21.8570  -35.4010 C   0  0  0  0  0  0  0  0  0  0  0  0
   -0.4530   20.5030  -35.2510 C   0  0  0  0  0  0  0  0  0  0  0  0
   -0.6420   19.9980  -33.8440 N   0  0  0  0  0  0  0  0  0  0  0  0
   -1.0270   18.5450  -33.8490 C   0  0  0  0  0  0  0  0  0  0  0  0
   -2.4650   18.2180  -34.2960 C   0  0  0  0  0  0  0  0  0  0  0  0
    0.6430   20.1010  -33.0680 C   0  0  0  0  0  0  0  0  0  0  0  0
    0.8290   19.0840  -31.9290 C   0  0  0  0  0  0  0  0  0  0  0  0
   -1.7270   20.8450  -33.2310 C   0  0  0  0  0  0  0  0  0  0  0  0
   -2.3010   20.4130  -31.8500 C   0  0  0  0  0  0  0  0  0  0  0  0
   -3.5910   21.0510  -31.5370 N   0  0  0  0  0  0  0  0  0  0  0  0
   -3.8060   22.2420  -30.9260 C   0  0  0  0  0  0  0  0  0  0  0  0
   -2.8420   23.1300  -30.4300 C   0  0  0  0  0  0  0  0  0  0  0  0
   -3.2700   24.3610  -29.8830 C   0  0  0  0  0  0  0  0  0  0  0  0
   -2.3700   25.2940  -29.3480 O   0  0  0  0  0  0  0  0  0  0  0  0
   -1.6540   25.1140  -28.1300 C   0  0  0  0  0  0  0  0  0  0  0  0
   -4.6410   24.6790  -29.8770 C   0  0  0  0  0  0  0  0  0  0  0  0
   -5.5940   23.7850  -30.3900 C   0  0  0  0  0  0  0  0  0  0  0  0
   -5.1580   22.5450  -30.8760 C   0  0  0  0  0  0  0  0  0  0  0  0
   -5.8250   21.4790  -31.4830 C   0  0  0  0  0  0  0  0  0  0  0  0
   -7.1880   21.1820  -31.7270 C   0  0  0  0  0  0  0  0  0  0  0  0
   -8.2610   21.9000  -31.1620 C   0  0  0  0  0  0  0  0  0  0  0  0
   -9.5810   21.5610  -31.4700 C   0  0  0  0  0  0  0  0  0  0  0  0
   -9.8560   20.4910  -32.3210 C   0  0  0  0  0  0  0  0  0  0  0  0
   -8.8130   19.7300  -32.8470 C   0  0  0  0  0  0  0  0  0  0  0  0
   -7.4800   20.0490  -32.5440 C   0  0  0  0  0  0  0  0  0  0  0  0
   -6.4380   19.2350  -33.0340 C   0  0  0  0  0  0  0  0  0  0  0  0
   -5.1060   19.5070  -32.7090 C   0  0  0  0  0  0  0  0  0  0  0  0
   -4.8210   20.6220  -31.9160 C   0  0  0  0  0  0  0  0  0  0  0  0
    0.4845   22.2685  -34.4045 H   0  0  0  0  0  0  0  0  0  0  0  0
    1.2067   21.7135  -35.9528 H   0  0  0  0  0  0  0  0  0  0  0  0
   -0.3798   22.5559  -35.9528 H   0  0  0  0  0  0  0  0  0  0  0  0
   -1.4486   20.6001  -35.7085 H   0  0  0  0  0  0  0  0  0  0  0  0
    0.2028   19.7677  -35.7401 H   0  0  0  0  0  0  0  0  0  0  0  0
   -0.3383   18.0188  -34.5263 H   0  0  0  0  0  0  0  0  0  0  0  0
   -0.9677   18.2237  -32.7986 H   0  0  0  0  0  0  0  0  0  0  0  0
   -3.1005   18.0735  -33.4099 H   0  0  0  0  0  0  0  0  0  0  0  0
   -2.8596   19.0493  -34.8986 H   0  0  0  0  0  0  0  0  0  0  0  0
   -2.4613   17.2978  -34.8986 H   0  0  0  0  0  0  0  0  0  0  0  0
    1.4746   19.9687  -33.7758 H   0  0  0  0  0  0  0  0  0  0  0  0
    0.6164   21.0874  -32.5820 H   0  0  0  0  0  0  0  0  0  0  0  0
    0.7352   19.5970  -30.9605 H   0  0  0  0  0  0  0  0  0  0  0  0
    0.0589   18.3023  -32.0060 H   0  0  0  0  0  0  0  0  0  0  0  0
    1.8259   18.6255  -32.0060 H   0  0  0  0  0  0  0  0  0  0  0  0
   -1.3213   21.8606  -33.1131 H   0  0  0  0  0  0  0  0  0  0  0  0
   -2.5759   20.7464  -33.9236 H   0  0  0  0  0  0  0  0  0  0  0  0
   -2.4417   19.3220  -31.8548 H   0  0  0  0  0  0  0  0  0  0  0  0
   -1.5818   20.7313  -31.0810 H   0  0  0  0  0  0  0  0  0  0  0  0
   -1.7728   22.8739  -30.4657 H   0  0  0  0  0  0  0  0  0  0  0  0
   -2.3298   25.2839  -27.2789 H   0  0  0  0  0  0  0  0  0  0  0  0
   -1.2586   24.0885  -28.0852 H   0  0  0  0  0  0  0  0  0  0  0  0
   -0.8206   25.8306  -28.0852 H   0  0  0  0  0  0  0  0  0  0  0  0
   -4.9711   25.6435  -29.4637 H   0  0  0  0  0  0  0  0  0  0  0  0
   -6.6609   24.0522  -30.4101 H   0  0  0  0  0  0  0  0  0  0  0  0
   -8.0578   22.7334  -30.4735 H   0  0  0  0  0  0  0  0  0  0  0  0
  -10.4091   22.1422  -31.0382 H   0  0  0  0  0  0  0  0  0  0  0  0
  -10.8975   20.2471  -32.5776 H   0  0  0  0  0  0  0  0  0  0  0  0
   -9.0357   18.8753  -33.5027 H   0  0  0  0  0  0  0  0  0  0  0  0
   -6.6760   18.3764  -33.6792 H   0  0  0  0  0  0  0  0  0  0  0  0
   -4.2969   18.8554  -33.0707 H   0  0  0  0  0  0  0  0  0  0  0  0
  1  2  1  0
  2  3  1  0
  3  4  1  0
  4  5  1  0
  3  6  1  0
  6  7  1  0
  3  8  1  0
  8  9  1  0
  9 10  1  0
 10 11  1  0
 11 12  2  0
 12 13  1  0
 13 14  1  0
 14 15  1  0
 13 16  2  0
 16 17  1  0
 17 18  2  0
 18 19  1  0
 19 20  2  0
 20 21  1  0
 21 22  2  0
 22 23  1  0
 23 24  2  0
 24 25  1  0
 25 26  2  0
 26 27  1  0
 27 28  2  0
 28 10  1  0
 18 11  1  0
 28 19  1  0
 25 20  1  0
  1 29  1  0
  1 30  1  0
  1 31  1  0
  2 32  1  0
  2 33  1  0
  4 34  1  0
  4 35  1  0
  5 36  1  0
  5 37  1  0
  5 38  1  0
  6 39  1  0
  6 40  1  0
  7 41  1  0
  7 42  1  0
  7 43  1  0
  8 44  1  0
  8 45  1  0
  9 46  1  0
  9 47  1  0
 12 48  1  0
 15 49  1  0
 15 50  1  0
 15 51  1  0
 16 52  1  0
 17 53  1  0
 21 54  1  0
 22 55  1  0
 23 56  1  0
 24 57  1  0
 26 58  1  0
 27 59  1  0
M  CHG  1   3   1
M  END
>  <UniqueID>  (25) 
25

>  <SMILES>  (25) 
CC[N+](CC)(CC)CCn1c2cc(OC)ccc2c2c3ccccc3ccc21

>  <Energy>  (25) 
130.75335302651473

>  <Genealogy>  (25) 
CC[N+](CC)(CC)CCn1c2cc(OC)ccc2c2c3ccccc3ccc21 (3D coordinates assigned)
CC[N+](CC)(CC)CCn1c2cc(OC)ccc2c2c3ccccc3ccc21 (optimized conformer: 130.75335302651473 kcal/mol)

>  <smiles>  (25) 
CC[N+](CC)(CC)CCn1c2cc(OC)ccc2c2c3ccccc3ccc21

>  <score_type>  (25) 
oracle

>  <origin>  (25) 
adg

>  <m_score__min__energy>  (25) 
-8.2200000000000006

>  <m_primary>  (25) 
energy

$$$$
25:0
     RDKit          3D

 58 61  0  0  0  0  0  0  0  0999 V2000
   -4.6480   14.8780  -32.0300 C   0  0  0  0  0  0  0  0  0  0  0  0
   -4.9570   15.0060  -33.5190 C   0  0  0  0  0  0  0  0  0  0  0  0
   -6.0810   15.9390  -33.7600 N   0  0  0  0  0  0  0  0  0  0  0  0
   -7.2100   15.2730  -34.4520 C   0  0  0  0  0  0  0  0  0  0  0  0
   -7.0550   13.7490  -34.5680 C   0  0  0  0  0  0  0  0  0  0  0  0
   -6.5060   16.6760  -32.5410 C   0  0  0  0  0  0  0  0  0  0  0  0
   -7.0320   18.0730  -32.9090 C   0  0  0  0  0  0  0  0  0  0  0  0
   -6.4060   18.6240  -34.1330 N   0  0  0  0  0  0  0  0  0  0  0  0
   -5.2050   19.3680  -33.8250 C   0  0  0  0  0  0  0  0  0  0  0  0
   -3.9060   18.9200  -34.1450 C   0  0  0  0  0  0  0  0  0  0  0  0
   -3.5390   17.6440  -34.8000 C   0  0  0  0  0  0  0  0  0  0  0  0
   -4.2890   17.1700  -35.6930 O   0  0  0  0  0  0  0  0  0  0  0  0
   -2.3270   16.8870  -34.4050 C   0  0  0  0  0  0  0  0  0  0  0  0
   -1.9030   16.8440  -33.0640 C   0  0  0  0  0  0  0  0  0  0  0  0
   -0.7490   16.1380  -32.7080 C   0  0  0  0  0  0  0  0  0  0  0  0
   -0.0030   15.4770  -33.6870 C   0  0  0  0  0  0  0  0  0  0  0  0
   -0.4060   15.5260  -35.0230 C   0  0  0  0  0  0  0  0  0  0  0  0
   -1.5580   16.2310  -35.3840 C   0  0  0  0  0  0  0  0  0  0  0  0
   -2.7810   20.0450  -33.5700 S   0  0  0  0  0  0  0  0  0  0  0  0
   -3.9130   21.1010  -32.9300 C   0  0  0  0  0  0  0  0  0  0  0  0
   -3.6720   22.3000  -32.2700 C   0  0  0  0  0  0  0  0  0  0  0  0
   -4.7670   23.0370  -31.7990 C   0  0  0  0  0  0  0  0  0  0  0  0
   -4.5540   24.1830  -31.1620 O   0  0  0  0  0  0  0  0  0  0  0  0
   -5.5400   24.9350  -30.6870 C   0  0  0  0  0  0  0  0  0  0  0  0
   -5.2700   26.0110  -30.0930 O   0  0  0  0  0  0  0  0  0  0  0  0
   -6.8710   24.5390  -30.8420 C   0  0  0  0  0  0  0  0  0  0  0  0
   -7.1640   23.3400  -31.5050 C   0  0  0  0  0  0  0  0  0  0  0  0
   -8.6010   22.9150  -31.6580 C   0  0  0  0  0  0  0  0  0  0  0  0
   -6.0940   22.5620  -32.0030 C   0  0  0  0  0  0  0  0  0  0  0  0
   -6.2980   21.3400  -32.6870 C   0  0  0  0  0  0  0  0  0  0  0  0
   -5.1920   20.6070  -33.1400 C   0  0  0  0  0  0  0  0  0  0  0  0
   -5.5086   15.2345  -31.4450 H   0  0  0  0  0  0  0  0  0  0  0  0
   -4.4501   13.8239  -31.7859 H   0  0  0  0  0  0  0  0  0  0  0  0
   -3.7626   15.4834  -31.7859 H   0  0  0  0  0  0  0  0  0  0  0  0
   -4.0631   15.3809  -34.0389 H   0  0  0  0  0  0  0  0  0  0  0  0
   -5.2431   14.0143  -33.8993 H   0  0  0  0  0  0  0  0  0  0  0  0
   -8.1333   15.4860  -33.8932 H   0  0  0  0  0  0  0  0  0  0  0  0
   -7.2365   15.6709  -35.4772 H   0  0  0  0  0  0  0  0  0  0  0  0
   -7.0101   13.3074  -33.5616 H   0  0  0  0  0  0  0  0  0  0  0  0
   -7.9155   13.3333  -35.1128 H   0  0  0  0  0  0  0  0  0  0  0  0
   -6.1284   13.5151  -35.1128 H   0  0  0  0  0  0  0  0  0  0  0  0
   -7.3035   16.1108  -32.0365 H   0  0  0  0  0  0  0  0  0  0  0  0
   -5.6386   16.7881  -31.8739 H   0  0  0  0  0  0  0  0  0  0  0  0
   -8.1181   18.0072  -33.0701 H   0  0  0  0  0  0  0  0  0  0  0  0
   -6.7799   18.7485  -32.0782 H   0  0  0  0  0  0  0  0  0  0  0  0
   -6.1560   17.8380  -34.7760 H   0  0  0  0  0  0  0  0  0  0  0  0
   -7.0670   19.2170  -34.6800 H   0  0  0  0  0  0  0  0  0  0  0  0
   -2.4828   17.3690  -32.2905 H   0  0  0  0  0  0  0  0  0  0  0  0
   -0.4286   16.1032  -31.6563 H   0  0  0  0  0  0  0  0  0  0  0  0
    0.9016   14.9181  -33.4054 H   0  0  0  0  0  0  0  0  0  0  0  0
    0.1845   15.0085  -35.7934 H   0  0  0  0  0  0  0  0  0  0  0  0
   -1.8651   16.2732  -36.4394 H   0  0  0  0  0  0  0  0  0  0  0  0
   -2.6443   22.6626  -32.1206 H   0  0  0  0  0  0  0  0  0  0  0  0
   -7.6841   25.1650  -30.4458 H   0  0  0  0  0  0  0  0  0  0  0  0
   -9.0518   22.7817  -30.6635 H   0  0  0  0  0  0  0  0  0  0  0  0
   -9.1550   23.6878  -32.2111 H   0  0  0  0  0  0  0  0  0  0  0  0
   -8.6456   21.9652  -32.2111 H   0  0  0  0  0  0  0  0  0  0  0  0
   -7.3181   20.9675  -32.8622 H   0  0  0  0  0  0  0  0  0  0  0  0
  1  2  1  0
  2  3  1  0
  3  4  1  0
  4  5  1  0
  3  6  1  0
  6  7  1  0
  7  8  1  0
  8  9  1  0
  9 10  2  0
 10 11  1  0
 11 12  2  0
 11 13  1  0
 13 14  2  0
 14 15  1  0
 15 16  2  0
 16 17  1  0
 17 18  2  0
 10 19  1  0
 19 20  1  0
 20 21  2  0
 21 22  1  0
 22 23  1  0
 23 24  1  0
 24 25  2  0
 24 26  1  0
 26 27  2  0
 27 28  1  0
 27 29  1  0
 29 30  1  0
 30 31  2  0
 31  9  1  0
 18 13  1  0
 31 20  1  0
 29 22  2  0
  1 32  1  0
  1 33  1  0
  1 34  1  0
  2 35  1  0
  2 36  1  0
  4 37  1  0
  4 38  1  0
  5 39  1  0
  5 40  1  0
  5 41  1  0
  6 42  1  0
  6 43  1  0
  7 44  1  0
  7 45  1  0
  8 46  1  0
  8 47  1  0
 14 48  1  0
 15 49  1  0
 16 50  1  0
 17 51  1  0
 18 52  1  0
 21 53  1  0
 26 54  1  0
 28 55  1  0
 28 56  1  0
 28 57  1  0
 30 58  1  0
M  CHG  1   8   1
M  END
>  <UniqueID>  (26) 
26

>  <SMILES>  (26) 
CCN(CC)CC[NH2+]c1c(C(=O)c2ccccc2)sc2cc3oc(=O)cc(C)c3cc12

>  <Energy>  (26) 
106.77641184305585

>  <Genealogy>  (26) 
CCN(CC)CC[NH2+]c1c(C(=O)c2ccccc2)sc2cc3oc(=O)cc(C)c3cc12 (protonated)
CCN(CC)CC[NH2+]c1c(C(=O)c2ccccc2)sc2cc3oc(=O)cc(C)c3cc12 (3D coordinates assigned)
CCN(CC)CC[NH2+]c1c(C(=O)c2ccccc2)sc2cc3oc(=O)cc(C)c3cc12 (optimized conformer: 106.77641184305585 kcal/mol)

>  <smiles>  (26) 
CCN(CC)CCNc1c(C(=O)c2ccccc2)sc2cc3oc(=O)cc(C)c3cc12

>  <score_type>  (26) 
oracle

>  <origin>  (26) 
adg

>  <m_score__min__energy>  (26) 
-8.4199999999999999

>  <m_primary>  (26) 
energy

$$$$
26:0
     RDKit          3D

 35 36  0  0  0  0  0  0  0  0999 V2000
   -3.4830   21.9320  -27.9950 C   0  0  0  0  0  0  0  0  0  0  0  0
   -4.2390   23.2260  -27.7090 C   0  0  0  0  0  0  0  0  0  0  0  0
   -3.7730   24.3090  -28.5960 N   0  0  0  0  0  0  0  0  0  0  0  0
   -2.4080   24.0910  -29.1200 C   0  0  0  0  0  0  0  0  0  0  0  0
   -1.3410   24.9820  -28.4750 C   0  0  0  0  0  0  0  0  0  0  0  0
   -4.9330   24.7540  -29.8400 S   0  0  0  0  0  0  0  0  0  0  0  0
   -6.0570   25.5190  -29.2000 O   0  0  0  0  0  0  0  0  0  0  0  0
   -4.2760   25.6700  -30.8360 O   0  0  0  0  0  0  0  0  0  0  0  0
   -5.6260   23.3740  -30.7060 C   0  0  0  0  0  0  0  0  0  0  0  0
   -4.8190   22.5640  -31.5190 C   0  0  0  0  0  0  0  0  0  0  0  0
   -5.3670   21.4870  -32.2180 C   0  0  0  0  0  0  0  0  0  0  0  0
   -6.7390   21.2150  -32.1310 C   0  0  0  0  0  0  0  0  0  0  0  0
   -7.3010   20.1340  -32.8280 C   0  0  0  0  0  0  0  0  0  0  0  0
   -8.6730   19.8790  -32.7380 C   0  0  0  0  0  0  0  0  0  0  0  0
   -9.4910   20.6990  -31.9560 C   0  0  0  0  0  0  0  0  0  0  0  0
   -8.9430   21.7790  -31.2570 C   0  0  0  0  0  0  0  0  0  0  0  0
   -7.5680   22.0450  -31.3380 C   0  0  0  0  0  0  0  0  0  0  0  0
   -7.0060   23.1250  -30.6410 C   0  0  0  0  0  0  0  0  0  0  0  0
   -3.2032   21.4532  -27.0450 H   0  0  0  0  0  0  0  0  0  0  0  0
   -4.1258   21.2519  -28.5731 H   0  0  0  0  0  0  0  0  0  0  0  0
   -2.5749   22.1580  -28.5731 H   0  0  0  0  0  0  0  0  0  0  0  0
   -5.3137   23.0606  -27.8750 H   0  0  0  0  0  0  0  0  0  0  0  0
   -4.0549   23.5199  -26.6651 H   0  0  0  0  0  0  0  0  0  0  0  0
   -2.1338   23.0405  -28.9434 H   0  0  0  0  0  0  0  0  0  0  0  0
   -2.4334   24.3493  -30.1889 H   0  0  0  0  0  0  0  0  0  0  0  0
   -1.4208   24.9154  -27.3799 H   0  0  0  0  0  0  0  0  0  0  0  0
   -0.3425   24.6457  -28.7910 H   0  0  0  0  0  0  0  0  0  0  0  0
   -1.4939   26.0245  -28.7910 H   0  0  0  0  0  0  0  0  0  0  0  0
   -3.7439   22.7797  -31.6065 H   0  0  0  0  0  0  0  0  0  0  0  0
   -4.7200   20.8500  -32.8389 H   0  0  0  0  0  0  0  0  0  0  0  0
   -6.6614   19.4866  -33.4458 H   0  0  0  0  0  0  0  0  0  0  0  0
   -9.1098   19.0302  -33.2845 H   0  0  0  0  0  0  0  0  0  0  0  0
  -10.5697   20.4941  -31.8901 H   0  0  0  0  0  0  0  0  0  0  0  0
   -9.5912   22.4211  -30.6426 H   0  0  0  0  0  0  0  0  0  0  0  0
   -7.6515   23.7816  -30.0391 H   0  0  0  0  0  0  0  0  0  0  0  0
  1  2  1  0
  2  3  1  0
  3  4  1  0
  4  5  1  0
  3  6  1  0
  6  7  2  0
  6  8  2  0
  6  9  1  0
  9 10  2  0
 10 11  1  0
 11 12  2  0
 12 13  1  0
 13 14  2  0
 14 15  1  0
 15 16  2  0
 16 17  1  0
 17 18  2  0
 18  9  1  0
 17 12  1  0
  1 19  1  0
  1 20  1  0
  1 21  1  0
  2 22  1  0
  2 23  1  0
  4 24  1  0
  4 25  1  0
  5 26  1  0
  5 27  1  0
  5 28  1  0
 10 29  1  0
 11 30  1  0
 13 31  1  0
 14 32  1  0
 15 33  1  0
 16 34  1  0
 18 35  1  0
M  END
>  <UniqueID>  (27) 
27

>  <SMILES>  (27) 
CCN(CC)S(=O)(=O)c1ccc2ccccc2c1

>  <Energy>  (27) 
38.81856859420277

>  <Genealogy>  (27) 
CCN(CC)S(=O)(=O)c1ccc2ccccc2c1 (3D coordinates assigned)
CCN(CC)S(=O)(=O)c1ccc2ccccc2c1 (optimized conformer: 38.81856859420277 kcal/mol)

>  <smiles>  (27) 
CCN(CC)S(=O)(=O)c1ccc2ccccc2c1

>  <score_type>  (27) 
oracle

>  <origin>  (27) 
adg

>  <m_score__min__energy>  (27) 
-8.0099999999999998

>  <m_primary>  (27) 
energy

$$$$
27:0
     RDKit          3D

 61 64  0  0  0  0  0  0  0  0999 V2000
   -2.7480   18.9110  -25.7350 C   0  0  0  0  0  0  0  0  0  0  0  0
   -2.0820   19.6940  -26.8060 N   0  0  0  0  0  0  0  0  0  0  0  0
   -1.4570   20.8830  -26.1700 C   0  0  0  0  0  0  0  0  0  0  0  0
   -1.0440   18.8400  -27.4640 C   0  0  0  0  0  0  0  0  0  0  0  0
   -0.8420   19.1480  -28.9630 C   0  0  0  0  0  0  0  0  0  0  0  0
   -1.1010   20.5700  -29.2400 N   0  0  0  0  0  0  0  0  0  0  0  0
   -0.7030   20.9050  -30.6270 C   0  0  0  0  0  0  0  0  0  0  0  0
   -1.2610   22.2700  -31.0670 C   0  0  0  0  0  0  0  0  0  0  0  0
   -2.3520   22.1220  -31.9550 O   0  0  0  0  0  0  0  0  0  0  0  0
   -2.2130   20.9550  -32.7380 C   0  0  0  0  0  0  0  0  0  0  0  0
   -3.5700   20.6350  -33.3760 C   0  0  0  0  0  0  0  0  0  0  0  0
   -4.6290   21.5920  -32.9990 N   0  0  0  0  0  0  0  0  0  0  0  0
   -5.2520   21.3770  -31.6680 C   0  0  0  0  0  0  0  0  0  0  0  0
   -6.5670   20.6460  -31.8690 C   0  0  0  0  0  0  0  0  0  0  0  0
   -6.5790   19.2600  -32.1070 C   0  0  0  0  0  0  0  0  0  0  0  0
   -7.7720   18.6150  -32.4460 C   0  0  0  0  0  0  0  0  0  0  0  0
   -8.9550   19.3460  -32.5700 C   0  0  0  0  0  0  0  0  0  0  0  0
   -8.9540   20.7250  -32.3410 C   0  0  0  0  0  0  0  0  0  0  0  0
   -7.7690   21.3750  -31.9800 C   0  0  0  0  0  0  0  0  0  0  0  0
   -7.7880   22.7420  -31.6960 O   0  0  0  0  0  0  0  0  0  0  0  0
   -6.7080   23.3680  -31.0660 C   0  0  0  0  0  0  0  0  0  0  0  0
   -6.8730   24.6420  -30.5150 C   0  0  0  0  0  0  0  0  0  0  0  0
   -5.8410   25.2230  -29.7720 C   0  0  0  0  0  0  0  0  0  0  0  0
   -4.6460   24.5270  -29.5720 C   0  0  0  0  0  0  0  0  0  0  0  0
   -4.4680   23.2630  -30.1390 C   0  0  0  0  0  0  0  0  0  0  0  0
   -5.4800   22.6910  -30.9300 C   0  0  0  0  0  0  0  0  0  0  0  0
   -2.5240   20.9010  -28.9820 C   0  0  0  0  0  0  0  0  0  0  0  0
   -3.1170   20.1170  -27.7870 C   0  0  0  0  0  0  0  0  0  0  0  0
   -2.4277   19.2875  -24.7523 H   0  0  0  0  0  0  0  0  0  0  0  0
   -3.8390   19.0145  -25.8295 H   0  0  0  0  0  0  0  0  0  0  0  0
   -2.4708   17.8507  -25.8295 H   0  0  0  0  0  0  0  0  0  0  0  0
   -1.5093   20.7835  -25.0758 H   0  0  0  0  0  0  0  0  0  0  0  0
   -0.4046   20.9549  -26.4818 H   0  0  0  0  0  0  0  0  0  0  0  0
   -1.9946   21.7907  -26.4818 H   0  0  0  0  0  0  0  0  0  0  0  0
   -0.0865   18.9968  -26.9457 H   0  0  0  0  0  0  0  0  0  0  0  0
   -1.3947   17.7997  -27.3953 H   0  0  0  0  0  0  0  0  0  0  0  0
    0.1938   18.9078  -29.2449 H   0  0  0  0  0  0  0  0  0  0  0  0
   -1.5470   18.5390  -29.5479 H   0  0  0  0  0  0  0  0  0  0  0  0
    0.3951   20.9335  -30.6855 H   0  0  0  0  0  0  0  0  0  0  0  0
   -1.1144   20.1352  -31.2965 H   0  0  0  0  0  0  0  0  0  0  0  0
   -1.5968   22.8226  -30.1771 H   0  0  0  0  0  0  0  0  0  0  0  0
   -0.4625   22.8172  -31.5894 H   0  0  0  0  0  0  0  0  0  0  0  0
   -1.4630   21.1229  -33.5249 H   0  0  0  0  0  0  0  0  0  0  0  0
   -1.8840   20.1149  -32.1087 H   0  0  0  0  0  0  0  0  0  0  0  0
   -3.4553   20.6533  -34.4698 H   0  0  0  0  0  0  0  0  0  0  0  0
   -3.8784   19.6446  -33.0099 H   0  0  0  0  0  0  0  0  0  0  0  0
   -4.2130   22.5540  -33.0250 H   0  0  0  0  0  0  0  0  0  0  0  0
   -5.3700   21.5580  -33.7390 H   0  0  0  0  0  0  0  0  0  0  0  0
   -4.5709   20.7772  -31.0464 H   0  0  0  0  0  0  0  0  0  0  0  0
   -5.6468   18.6817  -32.0262 H   0  0  0  0  0  0  0  0  0  0  0  0
   -7.7787   17.5282  -32.6156 H   0  0  0  0  0  0  0  0  0  0  0  0
   -9.8891   18.8361  -32.8483 H   0  0  0  0  0  0  0  0  0  0  0  0
   -9.8861   21.2998  -32.4448 H   0  0  0  0  0  0  0  0  0  0  0  0
   -7.8159   25.1880  -30.6662 H   0  0  0  0  0  0  0  0  0  0  0  0
   -5.9698   26.2284  -29.3447 H   0  0  0  0  0  0  0  0  0  0  0  0
   -3.8441   24.9753  -28.9670 H   0  0  0  0  0  0  0  0  0  0  0  0
   -3.5316   22.7124  -29.9659 H   0  0  0  0  0  0  0  0  0  0  0  0
   -2.6010   21.9774  -28.7686 H   0  0  0  0  0  0  0  0  0  0  0  0
   -3.0963   20.6196  -29.8783 H   0  0  0  0  0  0  0  0  0  0  0  0
   -3.8473   20.7591  -27.2728 H   0  0  0  0  0  0  0  0  0  0  0  0
   -3.5860   19.2063  -28.1878 H   0  0  0  0  0  0  0  0  0  0  0  0
  1  2  1  0
  2  3  1  0
  2  4  1  0
  4  5  1  0
  5  6  1  0
  6  7  1  0
  7  8  1  0
  8  9  1  0
  9 10  1  0
 10 11  1  0
 11 12  1  0
 12 13  1  0
 13 14  1  0
 14 15  2  0
 15 16  1  0
 16 17  2  0
 17 18  1  0
 18 19  2  0
 19 20  1  0
 20 21  1  0
 21 22  2  0
 22 23  1  0
 23 24  2  0
 24 25  1  0
 25 26  2  0
  6 27  1  0
 27 28  1  0
 28  2  1  0
 26 13  1  0
 19 14  1  0
 26 21  1  0
  1 29  1  0
  1 30  1  0
  1 31  1  0
  3 32  1  0
  3 33  1  0
  3 34  1  0
  4 35  1  0
  4 36  1  0
  5 37  1  0
  5 38  1  0
  7 39  1  0
  7 40  1  0
  8 41  1  0
  8 42  1  0
 10 43  1  0
 10 44  1  0
 11 45  1  0
 11 46  1  0
 12 47  1  0
 12 48  1  0
 13 49  1  0
 15 50  1  0
 16 51  1  0
 17 52  1  0
 18 53  1  0
 22 54  1  0
 23 55  1  0
 24 56  1  0
 25 57  1  0
 27 58  1  0
 27 59  1  0
 28 60  1  0
 28 61  1  0
M  CHG  2   2   1  12   1
M  END
>  <UniqueID>  (28) 
28

>  <SMILES>  (28) 
C[N+]1(C)CCN(CCOCC[NH2+]C2c3ccccc3Oc3ccccc32)CC1

>  <Energy>  (28) 
85.84810398971251

>  <Genealogy>  (28) 
C[N+]1(C)CCN(CCOCC[NH2+]C2c3ccccc3Oc3ccccc32)CC1 (protonated)
C[N+]1(C)CCN(CCOCC[NH2+]C2c3ccccc3Oc3ccccc32)CC1 (3D coordinates assigned)
C[N+]1(C)CCN(CCOCC[NH2+]C2c3ccccc3Oc3ccccc32)CC1 (nonaromatic ring conformer: 85.84810398971251 kcal/mol)

>  <smiles>  (28) 
C[N+]1(C)CCN(CCOCCNC2c3ccccc3Oc3ccccc32)CC1

>  <score_type>  (28) 
oracle

>  <origin>  (28) 
adg

>  <m_score__min__energy>  (28) 
-8.4600000000000009

>  <m_primary>  (28) 
energy

$$$$
28:0
     RDKit          3D

 47 50  0  0  0  0  0  0  0  0999 V2000
   -4.1150   24.5490  -29.0200 C   0  0  0  0  0  0  0  0  0  0  0  0
   -4.0560   24.4250  -30.4850 N   0  0  0  0  0  0  0  0  0  0  0  0
   -3.3650   23.1900  -30.8880 C   0  0  0  0  0  0  0  0  0  0  0  0
   -5.3780   24.5850  -31.1330 C   0  0  0  0  0  0  0  0  0  0  0  0
   -6.1870   23.2790  -31.2590 C   0  0  0  0  0  0  0  0  0  0  0  0
   -5.9410   22.6670  -32.5630 N   0  0  0  0  0  0  0  0  0  0  0  0
   -5.9250   21.2370  -32.7120 C   0  0  0  0  0  0  0  0  0  0  0  0
   -7.0870   20.4680  -32.5170 C   0  0  0  0  0  0  0  0  0  0  0  0
   -8.3250   21.0870  -32.2430 C   0  0  0  0  0  0  0  0  0  0  0  0
   -9.4720   20.3230  -32.0440 C   0  0  0  0  0  0  0  0  0  0  0  0
   -9.4100   18.9370  -32.1250 C   0  0  0  0  0  0  0  0  0  0  0  0
   -8.2020   18.3020  -32.4160 C   0  0  0  0  0  0  0  0  0  0  0  0
   -7.0140   19.0500  -32.6250 C   0  0  0  0  0  0  0  0  0  0  0  0
   -5.8150   18.4350  -32.9350 N   0  0  0  0  0  0  0  0  0  0  0  0
   -5.7380   16.9610  -33.0330 C   0  0  0  0  0  0  0  0  0  0  0  0
   -4.6890   19.1930  -33.1640 C   0  0  0  0  0  0  0  0  0  0  0  0
   -3.5000   18.6080  -33.4910 N   0  0  0  0  0  0  0  0  0  0  0  0
   -2.3750   19.3350  -33.7100 C   0  0  0  0  0  0  0  0  0  0  0  0
   -1.1700   18.7050  -34.0440 C   0  0  0  0  0  0  0  0  0  0  0  0
   -0.0210   19.4730  -34.2620 C   0  0  0  0  0  0  0  0  0  0  0  0
   -0.0750   20.8670  -34.1490 C   0  0  0  0  0  0  0  0  0  0  0  0
   -1.2780   21.5010  -33.8170 C   0  0  0  0  0  0  0  0  0  0  0  0
   -2.4280   20.7350  -33.5970 C   0  0  0  0  0  0  0  0  0  0  0  0
   -3.6040   21.3290  -33.2740 N   0  0  0  0  0  0  0  0  0  0  0  0
   -4.7340   20.6000  -33.0580 C   0  0  0  0  0  0  0  0  0  0  0  0
   -3.6861   23.6475  -28.5582 H   0  0  0  0  0  0  0  0  0  0  0  0
   -3.5405   25.4320  -28.7033 H   0  0  0  0  0  0  0  0  0  0  0  0
   -5.1625   24.6602  -28.7033 H   0  0  0  0  0  0  0  0  0  0  0  0
   -3.0541   22.6344  -29.9910 H   0  0  0  0  0  0  0  0  0  0  0  0
   -4.0460   22.5676  -31.4871 H   0  0  0  0  0  0  0  0  0  0  0  0
   -2.4784   23.4447  -31.4871 H   0  0  0  0  0  0  0  0  0  0  0  0
   -5.9678   25.2993  -30.5398 H   0  0  0  0  0  0  0  0  0  0  0  0
   -5.1852   24.9353  -32.1578 H   0  0  0  0  0  0  0  0  0  0  0  0
   -5.8808   22.5819  -30.4651 H   0  0  0  0  0  0  0  0  0  0  0  0
   -7.2590   23.5054  -31.1610 H   0  0  0  0  0  0  0  0  0  0  0  0
   -5.4170   23.2370  -33.2650 H   0  0  0  0  0  0  0  0  0  0  0  0
   -8.3846   22.1839  -32.1860 H   0  0  0  0  0  0  0  0  0  0  0  0
  -10.4292   20.8175  -31.8222 H   0  0  0  0  0  0  0  0  0  0  0  0
  -10.3174   18.3378  -31.9590 H   0  0  0  0  0  0  0  0  0  0  0  0
   -8.1699   17.2046  -32.4845 H   0  0  0  0  0  0  0  0  0  0  0  0
   -5.7153   16.5270  -32.0225 H   0  0  0  0  0  0  0  0  0  0  0  0
   -6.6176   16.5831  -33.5747 H   0  0  0  0  0  0  0  0  0  0  0  0
   -4.8238   16.6768  -33.5747 H   0  0  0  0  0  0  0  0  0  0  0  0
   -1.1268   17.6096  -34.1347 H   0  0  0  0  0  0  0  0  0  0  0  0
    0.9271   18.9800  -34.5228 H   0  0  0  0  0  0  0  0  0  0  0  0
    0.8310   21.4664  -34.3217 H   0  0  0  0  0  0  0  0  0  0  0  0
   -1.3191   22.5967  -33.7294 H   0  0  0  0  0  0  0  0  0  0  0  0
  1  2  1  0
  2  3  1  0
  2  4  1  0
  4  5  1  0
  5  6  1  0
  6  7  1  0
  7  8  2  0
  8  9  1  0
  9 10  2  0
 10 11  1  0
 11 12  2  0
 12 13  1  0
 13 14  2  0
 14 15  1  0
 14 16  1  0
 16 17  2  0
 17 18  1  0
 18 19  2  0
 19 20  1  0
 20 21  2  0
 21 22  1  0
 22 23  2  0
 23 24  1  0
 24 25  2  0
 25  7  1  0
 13  8  1  0
 25 16  1  0
 23 18  1  0
  1 26  1  0
  1 27  1  0
  1 28  1  0
  3 29  1  0
  3 30  1  0
  3 31  1  0
  4 32  1  0
  4 33  1  0
  5 34  1  0
  5 35  1  0
  6 36  1  0
  9 37  1  0
 10 38  1  0
 11 39  1  0
 12 40  1  0
 15 41  1  0
 15 42  1  0
 15 43  1  0
 19 44  1  0
 20 45  1  0
 21 46  1  0
 22 47  1  0
M  CHG  1  14   1
M  END
>  <UniqueID>  (29) 
29

>  <SMILES>  (29) 
CN(C)CCNc1c2ccccc2[n+](C)c2nc3ccccc3nc12

>  <Energy>  (29) 
73.58928834446897

>  <Genealogy>  (29) 
CN(C)CCNc1c2ccccc2[n+](C)c2nc3ccccc3nc12 (3D coordinates assigned)
CN(C)CCNc1c2ccccc2[n+](C)c2nc3ccccc3nc12 (optimized conformer: 73.58928834446897 kcal/mol)

>  <smiles>  (29) 
CN(C)CCNc1c2ccccc2[n+](C)c2nc3ccccc3nc12

>  <score_type>  (29) 
oracle

>  <origin>  (29) 
adg

>  <m_score__min__energy>  (29) 
-8.4800000000000004

>  <m_primary>  (29) 
energy

$$$$
29:0
     RDKit          3D

 48 50  0  0  0  0  0  0  0  0999 V2000
   -3.0350   22.3270  -29.9670 C   0  0  0  0  0  0  0  0  0  0  0  0
   -3.2550   23.7730  -30.4210 C   0  0  0  0  0  0  0  0  0  0  0  0
   -4.6540   23.9930  -30.8610 N   0  0  0  0  0  0  0  0  0  0  0  0
   -4.9960   25.4350  -30.7360 C   0  0  0  0  0  0  0  0  0  0  0  0
   -6.1280   25.6750  -29.7400 C   0  0  0  0  0  0  0  0  0  0  0  0
   -5.5990   23.1360  -30.0920 C   0  0  0  0  0  0  0  0  0  0  0  0
   -6.7070   22.5650  -31.0040 C   0  0  0  0  0  0  0  0  0  0  0  0
   -6.2960   22.3420  -32.4080 N   0  0  0  0  0  0  0  0  0  0  0  0
   -5.9560   20.9620  -32.7060 C   0  0  0  0  0  0  0  0  0  0  0  0
   -4.6200   20.6080  -33.0550 C   0  0  0  0  0  0  0  0  0  0  0  0
   -3.5970   21.5760  -33.2080 C   0  0  0  0  0  0  0  0  0  0  0  0
   -2.2820   21.1980  -33.4660 C   0  0  0  0  0  0  0  0  0  0  0  0
   -1.9530   19.8560  -33.5840 C   0  0  0  0  0  0  0  0  0  0  0  0
   -2.9410   18.8820  -33.4850 C   0  0  0  0  0  0  0  0  0  0  0  0
   -4.2970   19.2330  -33.2600 C   0  0  0  0  0  0  0  0  0  0  0  0
   -5.2880   18.2740  -33.2230 N   0  0  0  0  0  0  0  0  0  0  0  0
   -4.9910   16.8630  -33.5450 C   0  0  0  0  0  0  0  0  0  0  0  0
   -6.5560   18.6560  -32.8690 C   0  0  0  0  0  0  0  0  0  0  0  0
   -7.6470   17.8190  -32.6870 C   0  0  0  0  0  0  0  0  0  0  0  0
   -8.6990   18.6340  -32.3580 C   0  0  0  0  0  0  0  0  0  0  0  0
   -8.2280   19.9290  -32.3370 C   0  0  0  0  0  0  0  0  0  0  0  0
   -9.4550   21.3490  -31.9220 Br  0  0  0  0  0  0  0  0  0  0  0  0
   -6.8890   19.9500  -32.6360 N   0  0  0  0  0  0  0  0  0  0  0  0
   -3.0286   22.2847  -28.8678 H   0  0  0  0  0  0  0  0  0  0  0  0
   -3.8471   21.6937  -30.3535 H   0  0  0  0  0  0  0  0  0  0  0  0
   -2.0713   21.9639  -30.3535 H   0  0  0  0  0  0  0  0  0  0  0  0
   -3.0325   24.4495  -29.5826 H   0  0  0  0  0  0  0  0  0  0  0  0
   -2.5877   23.9749  -31.2719 H   0  0  0  0  0  0  0  0  0  0  0  0
   -4.1041   25.9825  -30.3973 H   0  0  0  0  0  0  0  0  0  0  0  0
   -5.3327   25.7889  -31.7216 H   0  0  0  0  0  0  0  0  0  0  0  0
   -5.7380   25.5923  -28.7148 H   0  0  0  0  0  0  0  0  0  0  0  0
   -6.5445   26.6814  -29.8938 H   0  0  0  0  0  0  0  0  0  0  0  0
   -6.9171   24.9242  -29.8938 H   0  0  0  0  0  0  0  0  0  0  0  0
   -5.0409   22.3022  -29.6410 H   0  0  0  0  0  0  0  0  0  0  0  0
   -6.0728   23.7527  -29.3140 H   0  0  0  0  0  0  0  0  0  0  0  0
   -7.0335   21.6017  -30.5851 H   0  0  0  0  0  0  0  0  0  0  0  0
   -7.5081   23.3184  -31.0299 H   0  0  0  0  0  0  0  0  0  0  0  0
   -7.0150   22.7200  -33.0420 H   0  0  0  0  0  0  0  0  0  0  0  0
   -5.4720   22.9490  -32.6170 H   0  0  0  0  0  0  0  0  0  0  0  0
   -3.8457   22.6440  -33.1215 H   0  0  0  0  0  0  0  0  0  0  0  0
   -1.5021   21.9658  -33.5765 H   0  0  0  0  0  0  0  0  0  0  0  0
   -0.9074   19.5609  -33.7564 H   0  0  0  0  0  0  0  0  0  0  0  0
   -2.6662   17.8214  -33.5828 H   0  0  0  0  0  0  0  0  0  0  0  0
   -4.8707   16.2916  -32.6127 H   0  0  0  0  0  0  0  0  0  0  0  0
   -5.8195   16.4384  -34.1310 H   0  0  0  0  0  0  0  0  0  0  0  0
   -4.0617   16.8084  -34.1310 H   0  0  0  0  0  0  0  0  0  0  0  0
   -7.6645   16.7236  -32.7865 H   0  0  0  0  0  0  0  0  0  0  0  0
   -9.7302   18.3131  -32.1490 H   0  0  0  0  0  0  0  0  0  0  0  0
  1  2  1  0
  2  3  1  0
  3  4  1  0
  4  5  1  0
  3  6  1  0
  6  7  1  0
  7  8  1  0
  8  9  1  0
  9 10  2  0
 10 11  1  0
 11 12  2  0
 12 13  1  0
 13 14  2  0
 14 15  1  0
 15 16  2  0
 16 17  1  0
 16 18  1  0
 18 19  2  0
 19 20  1  0
 20 21  2  0
 21 22  1  0
 21 23  1  0
 23  9  1  0
 15 10  1  0
 23 18  1  0
  1 24  1  0
  1 25  1  0
  1 26  1  0
  2 27  1  0
  2 28  1  0
  4 29  1  0
  4 30  1  0
  5 31  1  0
  5 32  1  0
  5 33  1  0
  6 34  1  0
  6 35  1  0
  7 36  1  0
  7 37  1  0
  8 38  1  0
  8 39  1  0
 11 40  1  0
 12 41  1  0
 13 42  1  0
 14 43  1  0
 17 44  1  0
 17 45  1  0
 17 46  1  0
 19 47  1  0
 20 48  1  0
M  CHG  2   8   1  16   1
M  END
>  <UniqueID>  (30) 
30

>  <SMILES>  (30) 
CCN(CC)CC[NH2+]c1c2ccccc2[n+](C)c2ccc(Br)n12

>  <Energy>  (30) 
104.47486404185692

>  <Genealogy>  (30) 
CCN(CC)CC[NH2+]c1c2ccccc2[n+](C)c2ccc(Br)n12 (protonated)
CCN(CC)CC[NH2+]c1c2ccccc2[n+](C)c2ccc(Br)n12 (3D coordinates assigned)
CCN(CC)CC[NH2+]c1c2ccccc2[n+](C)c2ccc(Br)n12 (optimized conformer: 104.47486404185692 kcal/mol)

>  <smiles>  (30) 
CCN(CC)CCNc1c2ccccc2[n+](C)c2ccc(Br)n12

>  <score_type>  (30) 
oracle

>  <origin>  (30) 
adg

>  <m_score__min__energy>  (30) 
-8.0299999999999994

>  <m_primary>  (30) 
energy

$$$$
30:0
     RDKit          3D

 46 48  0  0  0  0  0  0  0  0999 V2000
   -8.7870   18.5230  -31.9150 C   0  0  0  0  0  0  0  0  0  0  0  0
   -9.4500   19.7760  -32.4720 C   0  0  0  0  0  0  0  0  0  0  0  0
   -8.7130   20.9630  -32.0540 N   0  0  0  0  0  0  0  0  0  0  0  0
   -7.3980   21.0150  -31.7640 C   0  0  0  0  0  0  0  0  0  0  0  0
   -7.0880   22.3290  -31.4700 C   0  0  0  0  0  0  0  0  0  0  0  0
   -5.8060   22.8650  -31.0860 N   0  0  0  0  0  0  0  0  0  0  0  0
   -5.5410   24.3090  -31.1710 C   0  0  0  0  0  0  0  0  0  0  0  0
   -4.6460   24.7710  -30.0120 C   0  0  0  0  0  0  0  0  0  0  0  0
   -3.5230   23.8510  -29.7840 N   0  0  0  0  0  0  0  0  0  0  0  0
   -2.4700   24.2490  -28.8890 C   0  0  0  0  0  0  0  0  0  0  0  0
   -1.9960   25.4150  -28.9680 O   0  0  0  0  0  0  0  0  0  0  0  0
   -1.9400   23.3300  -27.8650 C   0  0  0  0  0  0  0  0  0  0  0  0
   -1.1420   23.7400  -26.7970 C   0  0  0  0  0  0  0  0  0  0  0  0
   -0.7320   22.3750  -25.9070 S   0  0  0  0  0  0  0  0  0  0  0  0
   -1.5760   21.3230  -26.9150 C   0  0  0  0  0  0  0  0  0  0  0  0
   -1.6670   19.8310  -26.7460 C   0  0  0  0  0  0  0  0  0  0  0  0
   -0.8910   19.1130  -27.8550 C   0  0  0  0  0  0  0  0  0  0  0  0
   -3.1300   19.3800  -26.7180 C   0  0  0  0  0  0  0  0  0  0  0  0
   -2.1680   21.9900  -27.9290 N   0  0  0  0  0  0  0  0  0  0  0  0
   -3.3740   22.6530  -30.6150 C   0  0  0  0  0  0  0  0  0  0  0  0
   -4.7190   21.9340  -30.7400 C   0  0  0  0  0  0  0  0  0  0  0  0
   -8.2750   23.0300  -31.6070 C   0  0  0  0  0  0  0  0  0  0  0  0
   -9.2480   22.1720  -31.9720 N   0  0  0  0  0  0  0  0  0  0  0  0
   -8.8048   18.5566  -30.8157 H   0  0  0  0  0  0  0  0  0  0  0  0
   -9.3326   17.6337  -32.2635 H   0  0  0  0  0  0  0  0  0  0  0  0
   -7.7448   18.4738  -32.2635 H   0  0  0  0  0  0  0  0  0  0  0  0
   -9.4615   19.7234  -33.5707 H   0  0  0  0  0  0  0  0  0  0  0  0
  -10.4791   19.8386  -32.0887 H   0  0  0  0  0  0  0  0  0  0  0  0
   -6.6987   20.1659  -31.7617 H   0  0  0  0  0  0  0  0  0  0  0  0
   -5.0372   24.5272  -32.1242 H   0  0  0  0  0  0  0  0  0  0  0  0
   -6.4990   24.8463  -31.1110 H   0  0  0  0  0  0  0  0  0  0  0  0
   -4.2461   25.7682  -30.2477 H   0  0  0  0  0  0  0  0  0  0  0  0
   -5.2578   24.7938  -29.0981 H   0  0  0  0  0  0  0  0  0  0  0  0
   -0.8356   24.7732  -26.5766 H   0  0  0  0  0  0  0  0  0  0  0  0
   -1.2094   19.5616  -25.7827 H   0  0  0  0  0  0  0  0  0  0  0  0
   -0.1543   18.4314  -27.4048 H   0  0  0  0  0  0  0  0  0  0  0  0
   -1.5908   18.5368  -28.4782 H   0  0  0  0  0  0  0  0  0  0  0  0
   -0.3708   19.8553  -28.4782 H   0  0  0  0  0  0  0  0  0  0  0  0
   -3.4622   19.2776  -25.6744 H   0  0  0  0  0  0  0  0  0  0  0  0
   -3.7540   20.1275  -27.2298 H   0  0  0  0  0  0  0  0  0  0  0  0
   -3.2248   18.4109  -27.2298 H   0  0  0  0  0  0  0  0  0  0  0  0
   -3.0223   22.9448  -31.6156 H   0  0  0  0  0  0  0  0  0  0  0  0
   -2.6443   21.9763  -30.1465 H   0  0  0  0  0  0  0  0  0  0  0  0
   -4.6419   21.1685  -31.5262 H   0  0  0  0  0  0  0  0  0  0  0  0
   -4.9553   21.4786  -29.7670 H   0  0  0  0  0  0  0  0  0  0  0  0
   -8.4025   24.1104  -31.4444 H   0  0  0  0  0  0  0  0  0  0  0  0
  1  2  1  0
  2  3  1  0
  3  4  1  0
  4  5  2  0
  5  6  1  0
  6  7  1  0
  7  8  1  0
  8  9  1  0
  9 10  1  0
 10 11  2  0
 10 12  1  0
 12 13  2  0
 13 14  1  0
 14 15  1  0
 15 16  1  0
 16 17  1  0
 16 18  1  0
 15 19  2  0
  9 20  1  0
 20 21  1  0
  5 22  1  0
 22 23  2  0
 23  3  1  0
 21  6  1  0
 19 12  1  0
  1 24  1  0
  1 25  1  0
  1 26  1  0
  2 27  1  0
  2 28  1  0
  4 29  1  0
  7 30  1  0
  7 31  1  0
  8 32  1  0
  8 33  1  0
 13 34  1  0
 16 35  1  0
 17 36  1  0
 17 37  1  0
 17 38  1  0
 18 39  1  0
 18 40  1  0
 18 41  1  0
 20 42  1  0
 20 43  1  0
 21 44  1  0
 21 45  1  0
 22 46  1  0
M  END
>  <UniqueID>  (31) 
31

>  <SMILES>  (31) 
CCn1cc(N2CCN(C(=O)c3csc(C(C)C)n3)CC2)cn1

>  <Energy>  (31) 
101.92177881608727

>  <Genealogy>  (31) 
CCn1cc(N2CCN(C(=O)c3csc(C(C)C)n3)CC2)cn1 (3D coordinates assigned)
CCn1cc(N2CCN(C(=O)c3csc(C(C)C)n3)CC2)cn1 (nonaromatic ring conformer: 101.92177881608727 kcal/mol)

>  <smiles>  (31) 
CCn1cc(N2CCN(C(=O)c3csc(C(C)C)n3)CC2)cn1

>  <score_type>  (31) 
oracle

>  <origin>  (31) 
adg

>  <m_score__min__energy>  (31) 
-7.7300000000000004

>  <m_primary>  (31) 
energy

$$$$
