0:0
     RDKit          3D

 44 46  0  0  0  0  0  0  0  0999 V2000
   -3.1910   22.0530  -30.4830 C   0  0  0  0  0  0  0  0  0  0  0  0
   -3.5230   22.8650  -29.3140 N   0  0  0  0  0  0  0  0  0  0  0  0
   -3.2790   22.6230  -28.0030 C   0  0  0  0  0  0  0  0  0  0  0  0
   -2.6040   21.4340  -27.4390 C   0  0  0  0  0  0  0  0  0  0  0  0
   -3.1030   20.1480  -27.4660 C   0  0  0  0  0  0  0  0  0  0  0  0
   -2.1360   19.3580  -26.8800 C   0  0  0  0  0  0  0  0  0  0  0  0
   -1.1100   20.0990  -26.5310 O   0  0  0  0  0  0  0  0  0  0  0  0
   -1.3520   21.3480  -26.8570 C   0  0  0  0  0  0  0  0  0  0  0  0
   -3.7330   23.6290  -27.2260 N   0  0  0  0  0  0  0  0  0  0  0  0
   -4.2890   24.5100  -28.0400 N   0  0  0  0  0  0  0  0  0  0  0  0
   -4.1690   24.0490  -29.2950 C   0  0  0  0  0  0  0  0  0  0  0  0
   -4.8060   24.9070  -30.7370 S   0  0  0  0  0  0  0  0  0  0  0  0
   -5.9720   23.5670  -31.1560 C   0  0  0  0  0  0  0  0  0  0  0  0
   -7.0910   23.4660  -30.1160 C   0  0  0  0  0  0  0  0  0  0  0  0
   -8.0130   22.2640  -30.3690 C   0  0  0  0  0  0  0  0  0  0  0  0
   -8.8000   22.4440  -31.5990 N   0  0  0  0  0  0  0  0  0  0  0  0
   -9.5020   21.2180  -32.0160 C   0  0  0  0  0  0  0  0  0  0  0  0
   -8.5190   20.1300  -32.3590 C   0  0  0  0  0  0  0  0  0  0  0  0
   -7.3540   20.4240  -33.0880 C   0  0  0  0  0  0  0  0  0  0  0  0
   -6.4420   19.4100  -33.4000 C   0  0  0  0  0  0  0  0  0  0  0  0
   -6.6810   18.0980  -32.9780 C   0  0  0  0  0  0  0  0  0  0  0  0
   -5.4380   16.7150  -33.4080 Br  0  0  0  0  0  0  0  0  0  0  0  0
   -7.8320   17.8010  -32.2400 C   0  0  0  0  0  0  0  0  0  0  0  0
   -8.7450   18.8120  -31.9280 C   0  0  0  0  0  0  0  0  0  0  0  0
   -2.7938   21.0815  -30.1538 H   0  0  0  0  0  0  0  0  0  0  0  0
   -4.0960   21.8933  -31.0875 H   0  0  0  0  0  0  0  0  0  0  0  0
   -2.4333   22.5731  -31.0875 H   0  0  0  0  0  0  0  0  0  0  0  0
   -4.0718   19.8204  -27.8711 H   0  0  0  0  0  0  0  0  0  0  0  0
   -2.2129   18.2713  -26.7280 H   0  0  0  0  0  0  0  0  0  0  0  0
   -0.6669   22.1928  -26.6930 H   0  0  0  0  0  0  0  0  0  0  0  0
   -4.7430   25.3990  -27.7380 H   0  0  0  0  0  0  0  0  0  0  0  0
   -6.4150   23.7713  -32.1419 H   0  0  0  0  0  0  0  0  0  0  0  0
   -5.4206   22.6153  -31.1700 H   0  0  0  0  0  0  0  0  0  0  0  0
   -6.6390   23.3617  -29.1186 H   0  0  0  0  0  0  0  0  0  0  0  0
   -7.7003   24.3791  -30.1866 H   0  0  0  0  0  0  0  0  0  0  0  0
   -7.3997   21.3560  -30.4656 H   0  0  0  0  0  0  0  0  0  0  0  0
   -8.7085   22.1753  -29.5214 H   0  0  0  0  0  0  0  0  0  0  0  0
   -9.5300   23.1660  -31.3930 H   0  0  0  0  0  0  0  0  0  0  0  0
  -10.1477   20.8748  -31.1943 H   0  0  0  0  0  0  0  0  0  0  0  0
  -10.1050   21.4428  -32.9081 H   0  0  0  0  0  0  0  0  0  0  0  0
   -7.1583   21.4560  -33.4147 H   0  0  0  0  0  0  0  0  0  0  0  0
   -5.5359   19.6448  -33.9779 H   0  0  0  0  0  0  0  0  0  0  0  0
   -8.0186   16.7701  -31.9048 H   0  0  0  0  0  0  0  0  0  0  0  0
   -9.6452   18.5747  -31.3420 H   0  0  0  0  0  0  0  0  0  0  0  0
  1  2  1  0
  2  3  1  0
  3  4  1  0
  4  5  1  0
  5  6  2  0
  6  7  1  0
  7  8  1  0
  3  9  2  0
  9 10  1  0
 10 11  2  0
 11 12  1  0
 12 13  1  0
 13 14  1  0
 14 15  1  0
 15 16  1  0
 16 17  1  0
 17 18  1  0
 18 19  2  0
 19 20  1  0
 20 21  2  0
 21 22  1  0
 21 23  1  0
 23 24  2  0
 11  2  1  0
 24 18  1  0
  8  4  2  0
  1 25  1  0
  1 26  1  0
  1 27  1  0
  5 28  1  0
  6 29  1  0
  8 30  1  0
 10 31  1  0
 13 32  1  0
 13 33  1  0
 14 34  1  0
 14 35  1  0
 15 36  1  0
 15 37  1  0
 16 38  1  0
 17 39  1  0
 17 40  1  0
 19 41  1  0
 20 42  1  0
 23 43  1  0
 24 44  1  0
M  CHG  1  10   1
M  END
>  <UniqueID>  (1) 
1

>  <SMILES>  (1) 
Cn1c(-c2ccoc2)n[nH+]c1SCCCNCc1ccc(Br)cc1

>  <Energy>  (1) 
102.24384499130359

>  <Genealogy>  (1) 
Cn1c(-c2ccoc2)n[nH+]c1SCCCNCc1ccc(Br)cc1 (protonated)
Cn1c(-c2ccoc2)n[nH+]c1SCCCNCc1ccc(Br)cc1 (3D coordinates assigned)
Cn1c(-c2ccoc2)n[nH+]c1SCCCNCc1ccc(Br)cc1 (optimized conformer: 102.24384499130359 kcal/mol)

>  <smiles>  (1) 
Cn1c(SCCCNCc2ccc(Br)cc2)nnc1-c1ccoc1

>  <score_type>  (1) 
oracle

>  <origin>  (1) 
adg

>  <m_score__min__energy>  (1) 
-7.9199999999999999

>  <m_primary>  (1) 
energy

$$$$
1:0
     RDKit          3D

 42 45  0  0  0  0  0  0  0  0999 V2000
   -3.6097   23.8611  -28.1203 H   0  0  0  0  0  0  0  0  0  0  0  0
   -2.9770   24.1030  -28.9870 C   0  0  0  0  0  0  0  0  0  0  0  0
   -1.5980   24.4550  -28.7860 C   0  0  0  0  0  0  0  0  0  0  0  0
   -0.4870   24.7400  -28.6240 N   0  0  0  0  0  0  0  0  0  0  0  0
   -3.4960   24.0670  -30.2140 C   0  0  0  0  0  0  0  0  0  0  0  0
   -2.8977   24.4485  -31.0546 H   0  0  0  0  0  0  0  0  0  0  0  0
   -4.8460   23.5330  -30.4850 C   0  0  0  0  0  0  0  0  0  0  0  0
   -6.0650   24.1920  -30.3130 C   0  0  0  0  0  0  0  0  0  0  0  0
   -6.2800   25.5500  -29.7230 C   0  0  0  0  0  0  0  0  0  0  0  0
   -6.2687   25.4789  -28.6254 H   0  0  0  0  0  0  0  0  0  0  0  0
   -5.4776   26.2252  -30.0549 H   0  0  0  0  0  0  0  0  0  0  0  0
   -7.2518   25.9443  -30.0549 H   0  0  0  0  0  0  0  0  0  0  0  0
   -7.0790   23.4460  -30.8120 N   0  0  0  0  0  0  0  0  0  0  0  0
   -6.4490   22.3530  -31.2850 C   0  0  0  0  0  0  0  0  0  0  0  0
   -7.0280   21.2850  -31.9420 C   0  0  0  0  0  0  0  0  0  0  0  0
   -8.3080   20.9560  -32.3360 C   0  0  0  0  0  0  0  0  0  0  0  0
   -9.2193   21.5436  -32.1510 H   0  0  0  0  0  0  0  0  0  0  0  0
   -8.2330   19.7710  -32.9950 N   0  0  0  0  0  0  0  0  0  0  0  0
   -9.0340   19.2670  -33.4360 H   0  0  0  0  0  0  0  0  0  0  0  0
   -6.9700   19.3540  -33.0140 N   0  0  0  0  0  0  0  0  0  0  0  0
   -6.4940   18.1630  -33.7070 C   0  0  0  0  0  0  0  0  0  0  0  0
   -6.1913   17.4057  -32.9689 H   0  0  0  0  0  0  0  0  0  0  0  0
   -7.2998   17.7590  -34.3375 H   0  0  0  0  0  0  0  0  0  0  0  0
   -5.6318   18.4257  -34.3375 H   0  0  0  0  0  0  0  0  0  0  0  0
   -6.2250   20.2780  -32.3860 C   0  0  0  0  0  0  0  0  0  0  0  0
   -4.8770   20.2720  -32.1980 N   0  0  0  0  0  0  0  0  0  0  0  0
   -4.3040   21.3300  -31.5340 C   0  0  0  0  0  0  0  0  0  0  0  0
   -2.9010   21.3050  -31.2480 N   0  0  0  0  0  0  0  0  0  0  0  0
   -1.9630   21.1090  -32.3540 C   0  0  0  0  0  0  0  0  0  0  0  0
   -1.9437   20.0452  -32.6334 H   0  0  0  0  0  0  0  0  0  0  0  0
   -2.2849   21.7108  -33.2167 H   0  0  0  0  0  0  0  0  0  0  0  0
   -0.5610   21.5480  -31.9230 C   0  0  0  0  0  0  0  0  0  0  0  0
    0.1585   21.2823  -32.7115 H   0  0  0  0  0  0  0  0  0  0  0  0
   -0.5663   22.6359  -31.7606 H   0  0  0  0  0  0  0  0  0  0  0  0
   -0.1840   20.9110  -30.7170 O   0  0  0  0  0  0  0  0  0  0  0  0
   -1.0270   21.3430  -29.6650 C   0  0  0  0  0  0  0  0  0  0  0  0
   -0.6718   20.9100  -28.7183 H   0  0  0  0  0  0  0  0  0  0  0  0
   -0.9978   22.4417  -29.6207 H   0  0  0  0  0  0  0  0  0  0  0  0
   -2.4740   20.9020  -29.9060 C   0  0  0  0  0  0  0  0  0  0  0  0
   -2.5418   19.8079  -29.8148 H   0  0  0  0  0  0  0  0  0  0  0  0
   -3.1269   21.3785  -29.1599 H   0  0  0  0  0  0  0  0  0  0  0  0
   -5.1110   22.3630  -31.1060 N   0  0  0  0  0  0  0  0  0  0  0  0
  1  2  1  0
  2  3  1  0
  3  4  3  0
  2  5  2  0
  5  6  1  0
  5  7  1  0
  7  8  2  0
  8  9  1  0
  9 10  1  0
  9 11  1  0
  9 12  1  0
  8 13  1  0
 13 14  2  0
 14 15  1  0
 15 16  1  0
 16 17  1  0
 16 18  2  0
 18 19  1  0
 18 20  1  0
 20 21  1  0
 21 22  1  0
 21 23  1  0
 21 24  1  0
 20 25  1  0
 25 26  1  0
 26 27  2  0
 27 28  1  0
 28 29  1  0
 29 30  1  0
 29 31  1  0
 29 32  1  0
 32 33  1  0
 32 34  1  0
 32 35  1  0
 35 36  1  0
 36 37  1  0
 36 38  1  0
 36 39  1  0
 39 40  1  0
 39 41  1  0
 27 42  1  0
 42  7  1  0
 42 14  1  0
 25 15  2  0
 39 28  1  0
M  CHG  1  18   1
M  END
>  <UniqueID>  (2) 
2

>  <SMILES>  (2) 
Cc1nc2c3c[nH+]n(C)c3nc(N3CCOCC3)n2c1/C=C/C#N

>  <Energy>  (2) 
128.98401985432253

>  <Genealogy>  (2) 
Cc1nc2c3c[nH+]n(C)c3nc(N3CCOCC3)n2c1C=CC#N (protonated)
Cc1nc2c3c[nH+]n(C)c3nc(N3CCOCC3)n2c1/C=C/C#N (cis-trans isomerization)
Cc1nc2c3c[nH+]n(C)c3nc(N3CCOCC3)n2c1/C=C/C#N (3D coordinates assigned)
Cc1nc2c3c[nH+]n(C)c3nc(N3CCOCC3)n2c1/C=C/C#N (nonaromatic ring conformer: 128.98401985432253 kcal/mol)

>  <smiles>  (2) 
Cc1nc2c3cnn(C)c3nc(N3CCOCC3)n2c1C=CC#N

>  <score_type>  (2) 
oracle

>  <origin>  (2) 
adg

>  <m_score__min__energy>  (2) 
-7.2699999999999996

>  <m_primary>  (2) 
energy

$$$$
2:0
     RDKit          3D

 90 89  0  0  0  0  0  0  0  0999 V2000
    2.4030   26.9360  -24.2240 C   0  0  0  0  0  0  0  0  0  0  0  0
    1.1910   27.8150  -23.9070 C   0  0  0  0  0  0  0  0  0  0  0  0
    0.2890   27.1880  -22.9230 N   0  0  0  0  0  0  0  0  0  0  0  0
   -0.7930   26.3910  -23.5460 C   0  0  0  0  0  0  0  0  0  0  0  0
   -1.1790   26.9300  -24.9340 C   0  0  0  0  0  0  0  0  0  0  0  0
   -1.3880   25.7820  -25.9350 C   0  0  0  0  0  0  0  0  0  0  0  0
   -0.0630   25.1490  -26.3770 C   0  0  0  0  0  0  0  0  0  0  0  0
    0.0250   25.0890  -27.8490 N   0  0  0  0  0  0  0  0  0  0  0  0
   -1.2750   25.2710  -28.5140 C   0  0  0  0  0  0  0  0  0  0  0  0
   -1.7870   23.9510  -29.1050 C   0  0  0  0  0  0  0  0  0  0  0  0
   -2.6640   22.9460  -27.8540 S   0  0  0  0  0  0  0  0  0  0  0  0
   -4.3640   23.2070  -28.4830 C   0  0  0  0  0  0  0  0  0  0  0  0
   -4.3900   24.4250  -29.4010 C   0  0  0  0  0  0  0  0  0  0  0  0
   -5.7670   24.7000  -29.8270 N   0  0  0  0  0  0  0  0  0  0  0  0
   -6.1670   23.9190  -31.0100 C   0  0  0  0  0  0  0  0  0  0  0  0
   -7.5070   23.1490  -30.8370 C   0  0  1  0  0  0  0  0  0  0  0  0
   -8.5040   23.4450  -31.9710 C   0  0  0  0  0  0  0  0  0  0  0  0
   -7.2570   21.6350  -30.7200 C   0  0  0  0  0  0  0  0  0  0  0  0
   -7.1790   21.0020  -32.0500 N   0  0  0  0  0  0  0  0  0  0  0  0
   -8.4720   20.4740  -32.5130 C   0  0  0  0  0  0  0  0  0  0  0  0
   -8.4780   18.9400  -32.6970 C   0  0  0  0  0  0  0  0  0  0  0  0
   -7.8970   18.1340  -31.5110 C   0  0  0  0  0  0  0  0  0  0  0  0
   -6.4290   18.2000  -31.3670 N   0  0  0  0  0  0  0  0  0  0  0  0
   -5.6840   17.1020  -32.0080 C   0  0  0  0  0  0  0  0  0  0  0  0
   -6.0840   16.8840  -33.4810 C   0  0  0  0  0  0  0  0  0  0  0  0
   -5.9390   18.1400  -34.3590 C   0  0  0  0  0  0  0  0  0  0  0  0
   -4.5580   18.8000  -34.2200 C   0  0  0  0  0  0  0  0  0  0  0  0
   -4.5330   19.7150  -33.0720 N   0  0  0  0  0  0  0  0  0  0  0  0
   -4.1950   21.1000  -33.4600 C   0  0  0  0  0  0  0  0  0  0  0  0
   -3.4060   21.7570  -32.3270 C   0  0  0  0  0  0  0  0  0  0  0  0
   -3.2980   20.8320  -31.1080 C   0  0  0  0  0  0  0  0  0  0  0  0
   -4.6130   20.3130  -30.7430 N   0  0  0  0  0  0  0  0  0  0  0  0
    2.8673   26.5993  -23.2854 H   0  0  0  0  0  0  0  0  0  0  0  0
    2.0791   26.0614  -24.8073 H   0  0  0  0  0  0  0  0  0  0  0  0
    3.1337   27.5155  -24.8073 H   0  0  0  0  0  0  0  0  0  0  0  0
    1.5456   28.7741  -23.5015 H   0  0  0  0  0  0  0  0  0  0  0  0
    0.6254   27.9586  -24.8395 H   0  0  0  0  0  0  0  0  0  0  0  0
    0.8500   26.6220  -22.2430 H   0  0  0  0  0  0  0  0  0  0  0  0
   -0.1520   27.9610  -22.3720 H   0  0  0  0  0  0  0  0  0  0  0  0
   -0.4522   25.3504  -23.6512 H   0  0  0  0  0  0  0  0  0  0  0  0
   -1.6793   26.4556  -22.8977 H   0  0  0  0  0  0  0  0  0  0  0  0
   -2.1118   27.5067  -24.8488 H   0  0  0  0  0  0  0  0  0  0  0  0
   -0.3618   27.5687  -25.3005 H   0  0  0  0  0  0  0  0  0  0  0  0
   -2.0095   25.0079  -25.4612 H   0  0  0  0  0  0  0  0  0  0  0  0
   -1.8774   26.1981  -26.8279 H   0  0  0  0  0  0  0  0  0  0  0  0
    0.7715   25.7525  -25.9903 H   0  0  0  0  0  0  0  0  0  0  0  0
   -0.0120   24.1247  -25.9791 H   0  0  0  0  0  0  0  0  0  0  0  0
    0.6430   25.8740  -28.1670 H   0  0  0  0  0  0  0  0  0  0  0  0
   -2.0048   25.6419  -27.7792 H   0  0  0  0  0  0  0  0  0  0  0  0
   -1.1481   25.9931  -29.3340 H   0  0  0  0  0  0  0  0  0  0  0  0
   -2.4780   24.1744  -29.9312 H   0  0  0  0  0  0  0  0  0  0  0  0
   -0.9200   23.3754  -29.4614 H   0  0  0  0  0  0  0  0  0  0  0  0
   -4.6866   22.3182  -29.0452 H   0  0  0  0  0  0  0  0  0  0  0  0
   -5.0448   23.3745  -27.6354 H   0  0  0  0  0  0  0  0  0  0  0  0
   -3.9943   25.2975  -28.8606 H   0  0  0  0  0  0  0  0  0  0  0  0
   -3.7701   24.2239  -30.2872 H   0  0  0  0  0  0  0  0  0  0  0  0
   -6.4220   24.5230  -29.0350 H   0  0  0  0  0  0  0  0  0  0  0  0
   -6.2719   24.6088  -31.8604 H   0  0  0  0  0  0  0  0  0  0  0  0
   -5.3844   23.1630  -31.1713 H   0  0  0  0  0  0  0  0  0  0  0  0
   -7.9624   23.5077  -29.9021 H   0  0  0  0  0  0  0  0  0  0  0  0
   -9.4743   23.7331  -31.5403 H   0  0  0  0  0  0  0  0  0  0  0  0
   -8.1196   24.2678  -32.5917 H   0  0  0  0  0  0  0  0  0  0  0  0
   -8.6308   22.5458  -32.5917 H   0  0  0  0  0  0  0  0  0  0  0  0
   -6.3092   21.4681  -30.1873 H   0  0  0  0  0  0  0  0  0  0  0  0
   -8.0964   21.1853  -30.1693 H   0  0  0  0  0  0  0  0  0  0  0  0
   -6.4550   20.2500  -32.0470 H   0  0  0  0  0  0  0  0  0  0  0  0
   -9.2420   20.7395  -31.7736 H   0  0  0  0  0  0  0  0  0  0  0  0
   -8.6707   20.9200  -33.4987 H   0  0  0  0  0  0  0  0  0  0  0  0
   -9.5191   18.6192  -32.8494 H   0  0  0  0  0  0  0  0  0  0  0  0
   -7.8249   18.7323  -33.5574 H   0  0  0  0  0  0  0  0  0  0  0  0
   -8.3478   18.5189  -30.5843 H   0  0  0  0  0  0  0  0  0  0  0  0
   -8.1377   17.0794  -31.7107 H   0  0  0  0  0  0  0  0  0  0  0  0
   -6.0850   19.1120  -31.7420 H   0  0  0  0  0  0  0  0  0  0  0  0
   -4.6100   17.3360  -31.9671 H   0  0  0  0  0  0  0  0  0  0  0  0
   -5.9232   16.1780  -31.4612 H   0  0  0  0  0  0  0  0  0  0  0  0
   -5.4449   16.0928  -33.9000 H   0  0  0  0  0  0  0  0  0  0  0  0
   -7.1499   16.6125  -33.4856 H   0  0  0  0  0  0  0  0  0  0  0  0
   -6.0891   17.8543  -35.4106 H   0  0  0  0  0  0  0  0  0  0  0  0
   -6.6925   18.8690  -34.0260 H   0  0  0  0  0  0  0  0  0  0  0  0
   -3.7973   18.0187  -34.0756 H   0  0  0  0  0  0  0  0  0  0  0  0
   -4.3469   19.3740  -35.1343 H   0  0  0  0  0  0  0  0  0  0  0  0
   -5.4910   19.7240  -32.6550 H   0  0  0  0  0  0  0  0  0  0  0  0
   -3.5850   21.0880  -34.3753 H   0  0  0  0  0  0  0  0  0  0  0  0
   -5.1177   21.6685  -33.6480 H   0  0  0  0  0  0  0  0  0  0  0  0
   -2.3939   21.9940  -32.6868 H   0  0  0  0  0  0  0  0  0  0  0  0
   -3.9366   22.6708  -32.0213 H   0  0  0  0  0  0  0  0  0  0  0  0
   -2.6310   19.9912  -31.3493 H   0  0  0  0  0  0  0  0  0  0  0  0
   -2.8936   21.4051  -30.2607 H   0  0  0  0  0  0  0  0  0  0  0  0
   -5.3360   20.7450  -31.3620 H   0  0  0  0  0  0  0  0  0  0  0  0
   -4.6200   19.2880  -30.9450 H   0  0  0  0  0  0  0  0  0  0  0  0
  1  2  1  0
  2  3  1  0
  3  4  1  0
  4  5  1  0
  5  6  1  0
  6  7  1  0
  7  8  1  0
  8  9  1  0
  9 10  1  0
 10 11  1  0
 11 12  1  0
 12 13  1  0
 13 14  1  0
 14 15  1  0
 15 16  1  0
 16 17  1  0
 16 18  1  0
 18 19  1  0
 19 20  1  0
 20 21  1  0
 21 22  1  0
 22 23  1  0
 23 24  1  0
 24 25  1  0
 25 26  1  0
 26 27  1  0
 27 28  1  0
 28 29  1  0
 29 30  1  0
 30 31  1  0
 31 32  1  0
  1 33  1  0
  1 34  1  0
  1 35  1  0
  2 36  1  0
  2 37  1  0
  3 38  1  0
  3 39  1  0
  4 40  1  0
  4 41  1  0
  5 42  1  0
  5 43  1  0
  6 44  1  0
  6 45  1  0
  7 46  1  0
  7 47  1  0
  8 48  1  0
  9 49  1  0
  9 50  1  0
 10 51  1  0
 10 52  1  0
 12 53  1  0
 12 54  1  0
 13 55  1  0
 13 56  1  0
 14 57  1  0
 15 58  1  0
 15 59  1  0
 16 60  1  1
 17 61  1  0
 17 62  1  0
 17 63  1  0
 18 64  1  0
 18 65  1  0
 19 66  1  0
 20 67  1  0
 20 68  1  0
 21 69  1  0
 21 70  1  0
 22 71  1  0
 22 72  1  0
 23 73  1  0
 24 74  1  0
 24 75  1  0
 25 76  1  0
 25 77  1  0
 26 78  1  0
 26 79  1  0
 27 80  1  0
 27 81  1  0
 28 82  1  0
 29 83  1  0
 29 84  1  0
 30 85  1  0
 30 86  1  0
 31 87  1  0
 31 88  1  0
 32 89  1  0
 32 90  1  0
M  CHG  1   3   1
M  END
>  <UniqueID>  (3) 
3

>  <SMILES>  (3) 
CC[NH2+]CCCCNCCSCCNC[C@@H](C)CNCCCNCCCCNCCCN

>  <Energy>  (3) 
65.43802914784695

>  <Genealogy>  (3) 
CC[NH2+]CCCCNCCSCCNCC(C)CNCCCNCCCCNCCCN (protonated)
CC[NH2+]CCCCNCCSCCNC[C@@H](C)CNCCCNCCCCNCCCN (chirality)
CC[NH2+]CCCCNCCSCCNC[C@@H](C)CNCCCNCCCCNCCCN (3D coordinates assigned)
CC[NH2+]CCCCNCCSCCNC[C@@H](C)CNCCCNCCCCNCCCN (optimized conformer: 65.43802914784695 kcal/mol)

>  <smiles>  (3) 
CCNCCCCNCCSCCNCC(C)CNCCCNCCCCNCCCN

>  <score_type>  (3) 
oracle

>  <origin>  (3) 
adg

>  <m_score__min__energy>  (3) 
-5.5499999999999998

>  <m_primary>  (3) 
energy

$$$$
3:0
     RDKit          3D

 47 50  0  0  0  0  0  0  0  0999 V2000
   -2.1880   23.9320  -29.7130 O   0  0  0  0  0  0  0  0  0  0  0  0
   -3.2970   24.4980  -29.5210 C   0  0  0  0  0  0  0  0  0  0  0  0
   -3.8810   25.2960  -30.5560 N   0  0  0  0  0  0  0  0  0  0  0  0
   -5.2890   25.2280  -30.9200 C   0  0  0  0  0  0  0  0  0  0  0  0
   -5.5730   23.9780  -31.7680 C   0  0  0  0  0  0  0  0  0  0  0  0
   -4.5280   22.9260  -31.6140 N   0  0  1  0  0  0  0  0  0  0  0  0
   -4.9110   21.9320  -30.5820 C   0  0  0  0  0  0  0  0  0  0  0  0
   -6.1270   21.0810  -31.0050 C   0  0  0  0  0  0  0  0  0  0  0  0
   -6.0880   20.6960  -32.5010 C   0  0  2  0  0  0  0  0  0  0  0  0
   -6.6060   19.3330  -32.7130 N   0  0  0  0  0  0  0  0  0  0  0  0
   -7.7970   18.8120  -32.3110 C   0  0  0  0  0  0  0  0  0  0  0  0
   -8.6620   19.4690  -31.6720 O   0  0  0  0  0  0  0  0  0  0  0  0
   -7.9880   17.5160  -32.6620 N   0  0  0  0  0  0  0  0  0  0  0  0
   -6.8510   17.2220  -33.3180 C   0  0  0  0  0  0  0  0  0  0  0  0
   -6.5090   16.0060  -33.9050 C   0  0  0  0  0  0  0  0  0  0  0  0
   -5.2620   15.9150  -34.5480 C   0  0  0  0  0  0  0  0  0  0  0  0
   -4.3970   17.0310  -34.5900 C   0  0  0  0  0  0  0  0  0  0  0  0
   -3.1980   16.9300  -35.2150 F   0  0  0  0  0  0  0  0  0  0  0  0
   -4.7700   18.2480  -33.9880 C   0  0  0  0  0  0  0  0  0  0  0  0
   -6.0170   18.3050  -33.3550 C   0  0  0  0  0  0  0  0  0  0  0  0
   -4.6770   20.8420  -33.0870 C   0  0  0  0  0  0  0  0  0  0  0  0
   -4.1590   22.2860  -32.9160 C   0  0  0  0  0  0  0  0  0  0  0  0
   -3.9800   24.3280  -28.1910 C   0  0  0  0  0  0  0  0  0  0  0  0
   -3.0810   24.3260  -26.9620 C   0  0  0  0  0  0  0  0  0  0  0  0
   -3.6720   23.0200  -27.4750 C   0  0  0  0  0  0  0  0  0  0  0  0
   -5.8969   25.1883  -30.0041 H   0  0  0  0  0  0  0  0  0  0  0  0
   -5.5444   26.1204  -31.5103 H   0  0  0  0  0  0  0  0  0  0  0  0
   -6.5424   23.5581  -31.4614 H   0  0  0  0  0  0  0  0  0  0  0  0
   -5.5781   24.2879  -32.8234 H   0  0  0  0  0  0  0  0  0  0  0  0
   -3.6620   23.3850  -31.2410 H   0  0  0  0  0  0  0  0  0  0  0  0
   -5.1598   22.4658  -29.6529 H   0  0  0  0  0  0  0  0  0  0  0  0
   -4.0588   21.2510  -30.4407 H   0  0  0  0  0  0  0  0  0  0  0  0
   -7.0445   21.6566  -30.8126 H   0  0  0  0  0  0  0  0  0  0  0  0
   -6.1034   20.1501  -30.4195 H   0  0  0  0  0  0  0  0  0  0  0  0
   -6.7441   21.3983  -33.0361 H   0  0  0  0  0  0  0  0  0  0  0  0
   -7.1924   15.1449  -33.8667 H   0  0  0  0  0  0  0  0  0  0  0  0
   -4.9583   14.9695  -35.0210 H   0  0  0  0  0  0  0  0  0  0  0  0
   -4.1045   19.1235  -34.0143 H   0  0  0  0  0  0  0  0  0  0  0  0
   -4.7038   20.5930  -34.1581 H   0  0  0  0  0  0  0  0  0  0  0  0
   -4.0007   20.1592  -32.5519 H   0  0  0  0  0  0  0  0  0  0  0  0
   -4.5736   22.8987  -33.7301 H   0  0  0  0  0  0  0  0  0  0  0  0
   -3.0607   22.2298  -32.9377 H   0  0  0  0  0  0  0  0  0  0  0  0
   -4.8906   24.8740  -28.4785 H   0  0  0  0  0  0  0  0  0  0  0  0
   -2.0037   24.5214  -27.0683 H   0  0  0  0  0  0  0  0  0  0  0  0
   -3.0816   24.8540  -25.9970 H   0  0  0  0  0  0  0  0  0  0  0  0
   -3.0217   22.2719  -27.9519 H   0  0  0  0  0  0  0  0  0  0  0  0
   -4.2764   22.2136  -27.0341 H   0  0  0  0  0  0  0  0  0  0  0  0
  1  2  2  0
  2  3  1  0
  3  4  1  0
  4  5  1  0
  5  6  1  0
  6  7  1  0
  7  8  1  0
  8  9  1  0
  9 10  1  0
 10 11  1  0
 11 12  2  0
 11 13  1  0
 13 14  1  0
 14 15  2  0
 15 16  1  0
 16 17  2  0
 17 18  1  0
 17 19  1  0
 19 20  2  0
  9 21  1  0
 21 22  1  0
  2 23  1  0
 23 24  1  0
 24 25  1  0
 22  6  1  0
 25 23  1  0
 20 10  1  0
 20 14  1  0
  4 26  1  0
  4 27  1  0
  5 28  1  0
  5 29  1  0
  6 30  1  1
  7 31  1  0
  7 32  1  0
  8 33  1  0
  8 34  1  0
  9 35  1  6
 15 36  1  0
 16 37  1  0
 19 38  1  0
 21 39  1  0
 21 40  1  0
 22 41  1  0
 22 42  1  0
 23 43  1  0
 24 44  1  0
 24 45  1  0
 25 46  1  0
 25 47  1  0
M  CHG  3   3  -1   6   1  13  -1
M  END
>  <UniqueID>  (4) 
4

>  <SMILES>  (4) 
O=C([N-]CC[NH+]1CCC(n2c(=O)[n-]c3ccc(F)cc32)CC1)C1CC1

>  <Energy>  (4) 
360.56063992771726

>  <Genealogy>  (4) 
O=C([N-]CC[NH+]1CCC(n2c(=O)[n-]c3ccc(F)cc32)CC1)C1CC1 (protonated)
O=C([N-]CC[NH+]1CCC(n2c(=O)[n-]c3ccc(F)cc32)CC1)C1CC1 (3D coordinates assigned)
O=C([N-]CC[NH+]1CCC(n2c(=O)[n-]c3ccc(F)cc32)CC1)C1CC1 (nonaromatic ring conformer: 360.56063992771726 kcal/mol)

>  <smiles>  (4) 
O=C(NCCN1CCC(n2c(=O)[nH]c3ccc(F)cc32)CC1)C1CC1

>  <score_type>  (4) 
oracle

>  <origin>  (4) 
adg

>  <m_score__min__energy>  (4) 
-9.8100000000000005

>  <m_primary>  (4) 
energy

$$$$
4:0
     RDKit          3D

 89 93  0  0  0  0  0  0  0  0999 V2000
   -2.9140   25.2950  -26.3350 C   0  0  0  0  0  0  0  0  0  0  0  0
   -3.8900   24.3500  -27.0270 C   0  0  0  0  0  0  0  0  0  0  0  0
   -3.1870   23.4420  -27.8490 O   0  0  0  0  0  0  0  0  0  0  0  0
   -1.8590   23.2840  -27.3950 C   0  0  0  0  0  0  0  0  0  0  0  0
   -1.5200   21.7870  -27.2780 C   0  0  0  0  0  0  0  0  0  0  0  0
   -2.6580   20.8660  -27.5330 N   0  0  2  0  0  0  0  0  0  0  0  0
   -2.5090   19.5960  -26.7920 C   0  0  0  0  0  0  0  0  0  0  0  0
   -2.8770   20.6370  -28.9850 C   0  0  0  0  0  0  0  0  0  0  0  0
   -1.6530   21.0280  -29.8360 C   0  0  0  0  0  0  0  0  0  0  0  0
   -1.5400   20.1480  -31.0220 N   0  0  0  0  0  0  0  0  0  0  0  0
   -0.2520   19.4190  -31.1010 C   0  0  0  0  0  0  0  0  0  0  0  0
   -0.1490   18.6840  -32.4480 C   0  0  0  0  0  0  0  0  0  0  0  0
   -1.4170   18.0410  -32.8230 N   0  0  0  0  0  0  0  0  0  0  0  0
   -1.2400   16.6080  -33.0980 C   0  0  0  0  0  0  0  0  0  0  0  0
   -2.5800   15.9030  -33.0770 C   0  0  0  0  0  0  0  0  0  0  0  0
   -2.6470   14.6410  -32.4600 C   0  0  0  0  0  0  0  0  0  0  0  0
   -3.8420   13.9230  -32.4240 C   0  0  0  0  0  0  0  0  0  0  0  0
   -4.9930   14.4430  -33.0090 C   0  0  0  0  0  0  0  0  0  0  0  0
   -4.9590   15.6910  -33.6450 C   0  0  0  0  0  0  0  0  0  0  0  0
   -6.1250   16.2030  -34.2340 C   0  0  0  0  0  0  0  0  0  0  0  0
   -6.1030   17.4400  -34.8790 C   0  0  0  0  0  0  0  0  0  0  0  0
   -4.9150   18.1690  -34.9550 C   0  0  0  0  0  0  0  0  0  0  0  0
   -3.7430   17.6690  -34.3840 C   0  0  0  0  0  0  0  0  0  0  0  0
   -3.7450   16.4300  -33.7020 C   0  0  0  0  0  0  0  0  0  0  0  0
   -1.8600   20.8590  -32.2790 C   0  0  0  0  0  0  0  0  0  0  0  0
   -3.2630   20.5260  -32.8280 C   0  0  0  0  0  0  0  0  0  0  0  0
   -4.1870   20.2650  -31.7280 N   0  0  0  0  0  0  0  0  0  0  0  0
   -5.4410   20.9640  -31.6640 C   0  0  0  0  0  0  0  0  0  0  0  0
   -6.6440   20.2790  -31.8970 C   0  0  0  0  0  0  0  0  0  0  0  0
   -6.6460   18.8890  -32.1310 C   0  0  0  0  0  0  0  0  0  0  0  0
   -7.8420   18.2000  -32.3060 C   0  0  0  0  0  0  0  0  0  0  0  0
   -9.0520   18.8790  -32.2270 C   0  0  0  0  0  0  0  0  0  0  0  0
   -9.0740   20.2540  -32.0030 C   0  0  0  0  0  0  0  0  0  0  0  0
   -7.8720   20.9940  -31.8730 C   0  0  0  0  0  0  0  0  0  0  0  0
   -7.8730   22.3660  -31.7070 N   0  0  0  0  0  0  0  0  0  0  0  0
   -9.1090   23.1410  -31.9560 C   0  0  0  0  0  0  0  0  0  0  0  0
   -6.7110   23.0220  -31.3370 C   0  0  0  0  0  0  0  0  0  0  0  0
   -6.7140   24.3850  -30.9380 C   0  0  0  0  0  0  0  0  0  0  0  0
   -5.5250   25.0480  -30.6340 C   0  0  0  0  0  0  0  0  0  0  0  0
   -4.3110   24.3740  -30.6890 C   0  0  0  0  0  0  0  0  0  0  0  0
   -4.2780   23.0250  -31.0360 C   0  0  0  0  0  0  0  0  0  0  0  0
   -5.4690   22.3310  -31.3420 C   0  0  0  0  0  0  0  0  0  0  0  0
   -3.0175   25.1948  -25.2445 H   0  0  0  0  0  0  0  0  0  0  0  0
   -1.8854   25.0407  -26.6306 H   0  0  0  0  0  0  0  0  0  0  0  0
   -3.1349   26.3312  -26.6306 H   0  0  0  0  0  0  0  0  0  0  0  0
   -4.4550   23.7903  -26.2671 H   0  0  0  0  0  0  0  0  0  0  0  0
   -4.5804   24.9383  -27.6493 H   0  0  0  0  0  0  0  0  0  0  0  0
   -1.1704   23.7592  -28.1092 H   0  0  0  0  0  0  0  0  0  0  0  0
   -1.7552   23.7571  -26.4074 H   0  0  0  0  0  0  0  0  0  0  0  0
   -0.7262   21.5586  -28.0044 H   0  0  0  0  0  0  0  0  0  0  0  0
   -1.2161   21.6202  -26.2341 H   0  0  0  0  0  0  0  0  0  0  0  0
   -3.5040   21.3500  -27.1460 H   0  0  0  0  0  0  0  0  0  0  0  0
   -2.5326   19.7974  -25.7108 H   0  0  0  0  0  0  0  0  0  0  0  0
   -3.3338   18.9180  -27.0568 H   0  0  0  0  0  0  0  0  0  0  0  0
   -1.5497   19.1273  -27.0568 H   0  0  0  0  0  0  0  0  0  0  0  0
   -3.0917   19.5701  -29.1453 H   0  0  0  0  0  0  0  0  0  0  0  0
   -3.7189   21.2710  -29.2998 H   0  0  0  0  0  0  0  0  0  0  0  0
   -1.7622   22.0708  -30.1687 H   0  0  0  0  0  0  0  0  0  0  0  0
   -0.7456   20.9168  -29.2242 H   0  0  0  0  0  0  0  0  0  0  0  0
    0.5784   20.1348  -31.0115 H   0  0  0  0  0  0  0  0  0  0  0  0
   -0.2000   18.6854  -30.2830 H   0  0  0  0  0  0  0  0  0  0  0  0
    0.1258   19.4092  -33.2281 H   0  0  0  0  0  0  0  0  0  0  0  0
    0.6142   17.8980  -32.3487 H   0  0  0  0  0  0  0  0  0  0  0  0
   -2.1200   18.1730  -32.0570 H   0  0  0  0  0  0  0  0  0  0  0  0
   -0.7786   16.4822  -34.0886 H   0  0  0  0  0  0  0  0  0  0  0  0
   -0.5919   16.1710  -32.3241 H   0  0  0  0  0  0  0  0  0  0  0  0
   -1.7440   14.2142  -31.9992 H   0  0  0  0  0  0  0  0  0  0  0  0
   -3.8751   12.9404  -31.9306 H   0  0  0  0  0  0  0  0  0  0  0  0
   -5.9326   13.8722  -32.9719 H   0  0  0  0  0  0  0  0  0  0  0  0
   -7.0607   15.6266  -34.1870 H   0  0  0  0  0  0  0  0  0  0  0  0
   -7.0233   17.8414  -35.3283 H   0  0  0  0  0  0  0  0  0  0  0  0
   -4.9021   19.1423  -35.4673 H   0  0  0  0  0  0  0  0  0  0  0  0
   -2.8090   18.2444  -34.4654 H   0  0  0  0  0  0  0  0  0  0  0  0
   -1.8064   21.9415  -32.0913 H   0  0  0  0  0  0  0  0  0  0  0  0
   -1.1289   20.5326  -33.0333 H   0  0  0  0  0  0  0  0  0  0  0  0
   -3.6330   21.3767  -33.4191 H   0  0  0  0  0  0  0  0  0  0  0  0
   -3.1966   19.6289  -33.4610 H   0  0  0  0  0  0  0  0  0  0  0  0
   -3.8000   19.8630  -30.8470 H   0  0  0  0  0  0  0  0  0  0  0  0
   -5.6920   18.3433  -32.1757 H   0  0  0  0  0  0  0  0  0  0  0  0
   -7.8299   17.1185  -32.5068 H   0  0  0  0  0  0  0  0  0  0  0  0
   -9.9971   18.3281  -32.3419 H   0  0  0  0  0  0  0  0  0  0  0  0
  -10.0403   20.7740  -31.9257 H   0  0  0  0  0  0  0  0  0  0  0  0
   -9.5630   23.4257  -30.9954 H   0  0  0  0  0  0  0  0  0  0  0  0
   -8.8642   24.0476  -32.5288 H   0  0  0  0  0  0  0  0  0  0  0  0
   -9.8184   22.5257  -32.5288 H   0  0  0  0  0  0  0  0  0  0  0  0
   -7.6690   24.9264  -30.8676 H   0  0  0  0  0  0  0  0  0  0  0  0
   -5.5485   26.1102  -30.3492 H   0  0  0  0  0  0  0  0  0  0  0  0
   -3.3760   24.9056  -30.4585 H   0  0  0  0  0  0  0  0  0  0  0  0
   -3.3146   22.4954  -31.0719 H   0  0  0  0  0  0  0  0  0  0  0  0
  1  2  1  0
  2  3  1  0
  3  4  1  0
  4  5  1  0
  5  6  1  0
  6  7  1  0
  6  8  1  0
  8  9  1  0
  9 10  1  0
 10 11  1  0
 11 12  1  0
 12 13  1  0
 13 14  1  0
 14 15  1  0
 15 16  2  0
 16 17  1  0
 17 18  2  0
 18 19  1  0
 19 20  2  0
 20 21  1  0
 21 22  2  0
 22 23  1  0
 23 24  2  0
 10 25  1  0
 25 26  1  0
 26 27  1  0
 27 28  1  0
 28 29  1  0
 29 30  2  0
 30 31  1  0
 31 32  2  0
 32 33  1  0
 33 34  2  0
 34 35  1  0
 35 36  1  0
 35 37  2  0
 37 38  1  0
 38 39  2  0
 39 40  1  0
 40 41  2  0
 41 42  1  0
 24 15  1  0
 42 28  2  0
 24 19  1  0
 34 29  1  0
 42 37  1  0
  1 43  1  0
  1 44  1  0
  1 45  1  0
  2 46  1  0
  2 47  1  0
  4 48  1  0
  4 49  1  0
  5 50  1  0
  5 51  1  0
  6 52  1  1
  7 53  1  0
  7 54  1  0
  7 55  1  0
  8 56  1  0
  8 57  1  0
  9 58  1  0
  9 59  1  0
 11 60  1  0
 11 61  1  0
 12 62  1  0
 12 63  1  0
 13 64  1  0
 14 65  1  0
 14 66  1  0
 16 67  1  0
 17 68  1  0
 18 69  1  0
 20 70  1  0
 21 71  1  0
 22 72  1  0
 23 73  1  0
 25 74  1  0
 25 75  1  0
 26 76  1  0
 26 77  1  0
 27 78  1  0
 30 79  1  0
 31 80  1  0
 32 81  1  0
 33 82  1  0
 36 83  1  0
 36 84  1  0
 36 85  1  0
 38 86  1  0
 39 87  1  0
 40 88  1  0
 41 89  1  0
M  CHG  2   6   1  35   1
M  END
>  <UniqueID>  (5) 
5

>  <SMILES>  (5) 
CCOCC[N@H+](C)CCN(CCNCc1cccc2ccccc12)CCNc1c2ccccc2[n+](C)c2ccccc12

>  <Energy>  (5) 
128.69306408155109

>  <Genealogy>  (5) 
CCOCC[NH+](C)CCN(CCNCc1cccc2ccccc12)CCNc1c2ccccc2[n+](C)c2ccccc12 (protonated)
CCOCC[N@H+](C)CCN(CCNCc1cccc2ccccc12)CCNc1c2ccccc2[n+](C)c2ccccc12 (chirality)
CCOCC[N@H+](C)CCN(CCNCc1cccc2ccccc12)CCNc1c2ccccc2[n+](C)c2ccccc12 (3D coordinates assigned)
CCOCC[N@H+](C)CCN(CCNCc1cccc2ccccc12)CCNc1c2ccccc2[n+](C)c2ccccc12 (optimized conformer: 128.69306408155109 kcal/mol)

>  <smiles>  (5) 
CCOCCN(C)CCN(CCNCc1cccc2ccccc12)CCNc1c2ccccc2[n+](C)c2ccccc12

>  <score_type>  (5) 
oracle

>  <origin>  (5) 
adg

>  <m_score__min__energy>  (5) 
-10.1

>  <m_primary>  (5) 
energy

$$$$
5:0
     RDKit          3D

 36 37  0  0  0  0  0  0  0  0999 V2000
   -9.1950   20.9600  -31.9830 C   0  0  0  0  0  0  0  0  0  0  0  0
   -7.9640   20.1430  -31.6130 C   0  0  0  0  0  0  0  0  0  0  0  0
   -6.7500   20.7990  -32.1040 N   0  0  0  0  0  0  0  0  0  0  0  0
   -5.8770   20.3620  -33.0400 C   0  0  0  0  0  0  0  0  0  0  0  0
   -6.0410   19.1140  -33.8460 C   0  0  0  0  0  0  0  0  0  0  0  0
   -4.8240   21.1960  -33.1640 N   0  0  0  0  0  0  0  0  0  0  0  0
   -5.0200   22.1720  -32.2910 N   0  0  0  0  0  0  0  0  0  0  0  0
   -6.1770   21.9310  -31.6500 C   0  0  0  0  0  0  0  0  0  0  0  0
   -6.8280   22.9680  -30.3360 S   0  0  0  0  0  0  0  0  0  0  0  0
   -6.4760   24.5480  -31.1890 C   0  0  0  0  0  0  0  0  0  0  0  0
   -5.3310   25.3050  -30.5230 C   0  0  0  0  0  0  0  0  0  0  0  0
   -4.0910   24.6610  -30.8080 O   0  0  0  0  0  0  0  0  0  0  0  0
   -3.4860   23.7040  -29.9800 C   0  0  0  0  0  0  0  0  0  0  0  0
   -3.8700   23.6500  -28.6340 C   0  0  0  0  0  0  0  0  0  0  0  0
   -3.2970   22.7120  -27.7710 C   0  0  0  0  0  0  0  0  0  0  0  0
   -2.3340   21.8190  -28.2470 C   0  0  0  0  0  0  0  0  0  0  0  0
   -1.9420   21.8640  -29.5870 C   0  0  0  0  0  0  0  0  0  0  0  0
   -2.5130   22.8010  -30.4550 C   0  0  0  0  0  0  0  0  0  0  0  0
   -9.7013   21.2960  -31.0660 H   0  0  0  0  0  0  0  0  0  0  0  0
   -8.8897   21.8354  -32.5751 H   0  0  0  0  0  0  0  0  0  0  0  0
   -9.8831   20.3387  -32.5751 H   0  0  0  0  0  0  0  0  0  0  0  0
   -7.9074   20.0480  -30.5186 H   0  0  0  0  0  0  0  0  0  0  0  0
   -8.0439   19.1479  -32.0749 H   0  0  0  0  0  0  0  0  0  0  0  0
   -6.1541   18.2534  -33.1703 H   0  0  0  0  0  0  0  0  0  0  0  0
   -6.9353   19.2021  -34.4804 H   0  0  0  0  0  0  0  0  0  0  0  0
   -5.1543   18.9681  -34.4804 H   0  0  0  0  0  0  0  0  0  0  0  0
   -4.3690   22.9730  -32.1350 H   0  0  0  0  0  0  0  0  0  0  0  0
   -6.2037   24.3364  -32.2336 H   0  0  0  0  0  0  0  0  0  0  0  0
   -7.3784   25.1749  -31.1365 H   0  0  0  0  0  0  0  0  0  0  0  0
   -5.3033   26.3354  -30.9070 H   0  0  0  0  0  0  0  0  0  0  0  0
   -5.4903   25.3172  -29.4347 H   0  0  0  0  0  0  0  0  0  0  0  0
   -4.6278   24.3508  -28.2537 H   0  0  0  0  0  0  0  0  0  0  0  0
   -3.6047   22.6768  -26.7155 H   0  0  0  0  0  0  0  0  0  0  0  0
   -1.8845   21.0806  -27.5668 H   0  0  0  0  0  0  0  0  0  0  0  0
   -1.1827   21.1612  -29.9606 H   0  0  0  0  0  0  0  0  0  0  0  0
   -2.2023   22.8332  -31.5097 H   0  0  0  0  0  0  0  0  0  0  0  0
  1  2  1  0
  2  3  1  0
  3  4  1  0
  4  5  1  0
  4  6  2  0
  6  7  1  0
  7  8  2  0
  8  9  1  0
  9 10  1  0
 10 11  1  0
 11 12  1  0
 12 13  1  0
 13 14  2  0
 14 15  1  0
 15 16  2  0
 16 17  1  0
 17 18  2  0
  8  3  1  0
 18 13  1  0
  1 19  1  0
  1 20  1  0
  1 21  1  0
  2 22  1  0
  2 23  1  0
  5 24  1  0
  5 25  1  0
  5 26  1  0
  7 27  1  0
 10 28  1  0
 10 29  1  0
 11 30  1  0
 11 31  1  0
 14 32  1  0
 15 33  1  0
 16 34  1  0
 17 35  1  0
 18 36  1  0
M  CHG  1   7   1
M  END
>  <UniqueID>  (6) 
6

>  <SMILES>  (6) 
CCn1c(C)n[nH+]c1SCCOc1ccccc1

>  <Energy>  (6) 
60.00739955580303

>  <Genealogy>  (6) 
CCn1c(C)n[nH+]c1SCCOc1ccccc1 (protonated)
CCn1c(C)n[nH+]c1SCCOc1ccccc1 (3D coordinates assigned)
CCn1c(C)n[nH+]c1SCCOc1ccccc1 (optimized conformer: 60.00739955580303 kcal/mol)

>  <smiles>  (6) 
CCn1c(C)nnc1SCCOc1ccccc1

>  <score_type>  (6) 
oracle

>  <origin>  (6) 
adg

>  <m_score__min__energy>  (6) 
-6.6200000000000001

>  <m_primary>  (6) 
energy

$$$$
6:0
     RDKit          3D

 72 74  0  0  0  0  0  0  0  0999 V2000
   -6.6320   25.2930  -29.7470 C   0  0  0  0  0  0  0  0  0  0  0  0
   -5.4180   25.8190  -30.5080 C   0  0  0  0  0  0  0  0  0  0  0  0
   -4.4710   24.7160  -30.8020 N   0  0  0  0  0  0  0  0  0  0  0  0
   -3.6940   24.3340  -29.5920 C   0  0  0  0  0  0  0  0  0  0  0  0
   -4.4200   23.2320  -28.8280 C   0  0  0  0  0  0  0  0  0  0  0  0
   -5.1970   23.5580  -31.3730 C   0  0  0  0  0  0  0  0  0  0  0  0
   -4.2130   22.5340  -31.9780 C   0  0  0  0  0  0  0  0  0  0  0  0
   -4.7670   21.7990  -33.1250 N   0  0  0  0  0  0  0  0  0  0  0  0
   -5.0530   20.3900  -33.1010 C   0  0  0  0  0  0  0  0  0  0  0  0
   -6.3180   19.9750  -32.6360 C   0  0  0  0  0  0  0  0  0  0  0  0
   -7.1630   20.8660  -31.9350 C   0  0  0  0  0  0  0  0  0  0  0  0
   -8.4150   20.4560  -31.4800 C   0  0  0  0  0  0  0  0  0  0  0  0
   -8.8390   19.1520  -31.6960 C   0  0  0  0  0  0  0  0  0  0  0  0
   -8.0190   18.2540  -32.3790 C   0  0  0  0  0  0  0  0  0  0  0  0
   -6.7540   18.6540  -32.8830 C   0  0  0  0  0  0  0  0  0  0  0  0
   -5.9550   17.7940  -33.6030 N   0  0  0  0  0  0  0  0  0  0  0  0
   -6.5370   16.5570  -34.1750 C   0  0  0  0  0  0  0  0  0  0  0  0
   -4.6190   18.0890  -33.7960 C   0  0  0  0  0  0  0  0  0  0  0  0
   -3.7180   17.0760  -34.2000 C   0  0  0  0  0  0  0  0  0  0  0  0
   -2.3830   17.3460  -34.4370 C   0  0  0  0  0  0  0  0  0  0  0  0
   -1.8920   18.6240  -34.2590 C   0  0  0  0  0  0  0  0  0  0  0  0
   -2.7180   19.6760  -33.8220 C   0  0  0  0  0  0  0  0  0  0  0  0
   -2.0720   20.9590  -33.6070 N   0  0  0  0  0  0  0  0  0  0  0  0
   -0.6050   20.8260  -33.4910 C   0  0  0  0  0  0  0  0  0  0  0  0
   -0.0890   21.1550  -32.0790 C   0  0  0  0  0  0  0  0  0  0  0  0
   -1.2250   21.4120  -31.1570 N   0  0  0  0  0  0  0  0  0  0  0  0
   -0.9710   22.5920  -30.3020 C   0  0  0  0  0  0  0  0  0  0  0  0
   -1.6320   20.2340  -30.3430 C   0  0  0  0  0  0  0  0  0  0  0  0
   -0.4470   19.2710  -30.1680 C   0  0  0  0  0  0  0  0  0  0  0  0
   -2.2550   20.6000  -28.9800 C   0  0  0  0  0  0  0  0  0  0  0  0
   -4.1210   19.4170  -33.5740 C   0  0  0  0  0  0  0  0  0  0  0  0
   -6.4492   25.3722  -28.6652 H   0  0  0  0  0  0  0  0  0  0  0  0
   -7.5179   25.8880  -30.0137 H   0  0  0  0  0  0  0  0  0  0  0  0
   -6.8038   24.2397  -30.0137 H   0  0  0  0  0  0  0  0  0  0  0  0
   -5.7516   26.2713  -31.4536 H   0  0  0  0  0  0  0  0  0  0  0  0
   -4.9074   26.5702  -29.8875 H   0  0  0  0  0  0  0  0  0  0  0  0
   -2.7011   23.9717  -29.8968 H   0  0  0  0  0  0  0  0  0  0  0  0
   -3.5881   25.2137  -28.9401 H   0  0  0  0  0  0  0  0  0  0  0  0
   -4.3087   23.4009  -27.7468 H   0  0  0  0  0  0  0  0  0  0  0  0
   -5.4875   23.2442  -29.0931 H   0  0  0  0  0  0  0  0  0  0  0  0
   -3.9875   22.2559  -29.0931 H   0  0  0  0  0  0  0  0  0  0  0  0
   -5.7799   23.0707  -30.5775 H   0  0  0  0  0  0  0  0  0  0  0  0
   -5.8624   23.9194  -32.1709 H   0  0  0  0  0  0  0  0  0  0  0  0
   -3.3118   23.0704  -32.3099 H   0  0  0  0  0  0  0  0  0  0  0  0
   -3.9916   21.7943  -31.1945 H   0  0  0  0  0  0  0  0  0  0  0  0
   -4.5730   22.2170  -34.0620 H   0  0  0  0  0  0  0  0  0  0  0  0
   -6.8278   21.8965  -31.7462 H   0  0  0  0  0  0  0  0  0  0  0  0
   -9.0671   21.1657  -30.9498 H   0  0  0  0  0  0  0  0  0  0  0  0
   -9.8231   18.8264  -31.3280 H   0  0  0  0  0  0  0  0  0  0  0  0
   -8.3584   17.2185  -32.5295 H   0  0  0  0  0  0  0  0  0  0  0  0
   -6.8514   15.8887  -33.3598 H   0  0  0  0  0  0  0  0  0  0  0  0
   -7.4085   16.8144  -34.7949 H   0  0  0  0  0  0  0  0  0  0  0  0
   -5.7831   16.0497  -34.7949 H   0  0  0  0  0  0  0  0  0  0  0  0
   -4.0887   16.0484  -34.3287 H   0  0  0  0  0  0  0  0  0  0  0  0
   -1.7106   16.5409  -34.7681 H   0  0  0  0  0  0  0  0  0  0  0  0
   -0.8300   18.8246  -34.4636 H   0  0  0  0  0  0  0  0  0  0  0  0
   -2.3400   21.6410  -34.3460 H   0  0  0  0  0  0  0  0  0  0  0  0
   -2.4430   21.4060  -32.7340 H   0  0  0  0  0  0  0  0  0  0  0  0
   -0.3250   19.7908  -33.7357 H   0  0  0  0  0  0  0  0  0  0  0  0
   -0.1499   21.5458  -34.1873 H   0  0  0  0  0  0  0  0  0  0  0  0
    0.4988   20.3054  -31.7013 H   0  0  0  0  0  0  0  0  0  0  0  0
    0.5385   22.0570  -32.1306 H   0  0  0  0  0  0  0  0  0  0  0  0
   -1.0342   22.2985  -29.2438 H   0  0  0  0  0  0  0  0  0  0  0  0
    0.0331   22.9885  -30.5132 H   0  0  0  0  0  0  0  0  0  0  0  0
   -1.7230   23.3665  -30.5132 H   0  0  0  0  0  0  0  0  0  0  0  0
   -2.4324   19.7316  -30.9060 H   0  0  0  0  0  0  0  0  0  0  0  0
   -0.2559   19.1157  -29.0959 H   0  0  0  0  0  0  0  0  0  0  0  0
   -0.6849   18.3070  -30.6414 H   0  0  0  0  0  0  0  0  0  0  0  0
    0.4480   19.7010  -30.6414 H   0  0  0  0  0  0  0  0  0  0  0  0
   -1.6130   20.2229  -28.1703 H   0  0  0  0  0  0  0  0  0  0  0  0
   -2.3432   21.6935  -28.8989 H   0  0  0  0  0  0  0  0  0  0  0  0
   -3.2530   20.1447  -28.8989 H   0  0  0  0  0  0  0  0  0  0  0  0
  1  2  1  0
  2  3  1  0
  3  4  1  0
  4  5  1  0
  3  6  1  0
  6  7  1  0
  7  8  1  0
  8  9  1  0
  9 10  2  0
 10 11  1  0
 11 12  2  0
 12 13  1  0
 13 14  2  0
 14 15  1  0
 15 16  2  0
 16 17  1  0
 16 18  1  0
 18 19  2  0
 19 20  1  0
 20 21  2  0
 21 22  1  0
 22 23  1  0
 23 24  1  0
 24 25  1  0
 25 26  1  0
 26 27  1  0
 26 28  1  0
 28 29  1  0
 28 30  1  0
 22 31  2  0
 31  9  1  0
 15 10  1  0
 31 18  1  0
  1 32  1  0
  1 33  1  0
  1 34  1  0
  2 35  1  0
  2 36  1  0
  4 37  1  0
  4 38  1  0
  5 39  1  0
  5 40  1  0
  5 41  1  0
  6 42  1  0
  6 43  1  0
  7 44  1  0
  7 45  1  0
  8 46  1  0
 11 47  1  0
 12 48  1  0
 13 49  1  0
 14 50  1  0
 17 51  1  0
 17 52  1  0
 17 53  1  0
 19 54  1  0
 20 55  1  0
 21 56  1  0
 23 57  1  0
 23 58  1  0
 24 59  1  0
 24 60  1  0
 25 61  1  0
 25 62  1  0
 27 63  1  0
 27 64  1  0
 27 65  1  0
 28 66  1  0
 29 67  1  0
 29 68  1  0
 29 69  1  0
 30 70  1  0
 30 71  1  0
 30 72  1  0
M  CHG  2  16   1  23   1
M  END
>  <UniqueID>  (7) 
7

>  <SMILES>  (7) 
CCN(CC)CCNc1c2ccccc2[n+](C)c2cccc([NH2+]CCN(C)C(C)C)c12

>  <Energy>  (7) 
112.5280227451658

>  <Genealogy>  (7) 
CCN(CC)CCNc1c2ccccc2[n+](C)c2cccc([NH2+]CCN(C)C(C)C)c12 (protonated)
CCN(CC)CCNc1c2ccccc2[n+](C)c2cccc([NH2+]CCN(C)C(C)C)c12 (3D coordinates assigned)
CCN(CC)CCNc1c2ccccc2[n+](C)c2cccc([NH2+]CCN(C)C(C)C)c12 (optimized conformer: 112.5280227451658 kcal/mol)

>  <smiles>  (7) 
CCN(CC)CCNc1c2ccccc2[n+](C)c2cccc(NCCN(C)C(C)C)c12

>  <score_type>  (7) 
oracle

>  <origin>  (7) 
adg

>  <m_score__min__energy>  (7) 
-8.4499999999999993

>  <m_primary>  (7) 
energy

$$$$
7:0
     RDKit          3D

 59 60  0  0  0  0  0  0  0  0999 V2000
   -6.7480   25.3825  -28.7619 H   0  0  0  0  0  0  0  0  0  0  0  0
   -6.4970   25.0100  -29.7660 C   0  0  0  0  0  0  0  0  0  0  0  0
   -7.2130   24.0050  -30.2890 C   0  0  0  0  0  0  0  0  0  0  0  0
   -7.7532   23.3224  -29.6165 H   0  0  0  0  0  0  0  0  0  0  0  0
   -7.2940   23.7900  -31.7770 C   0  0  0  0  0  0  0  0  0  0  0  0
   -8.3147   23.4750  -32.0397 H   0  0  0  0  0  0  0  0  0  0  0  0
   -7.0395   24.7339  -32.2813 H   0  0  0  0  0  0  0  0  0  0  0  0
   -6.3440   22.7550  -32.2140 N   0  0  0  0  0  0  0  0  0  0  0  0
   -5.5510   22.7080  -31.5330 H   0  0  0  0  0  0  0  0  0  0  0  0
   -5.9200   23.0010  -33.1380 H   0  0  0  0  0  0  0  0  0  0  0  0
   -7.0020   21.4680  -32.2790 C   0  0  0  0  0  0  0  0  0  0  0  0
   -8.3310   21.3610  -31.8320 C   0  0  0  0  0  0  0  0  0  0  0  0
   -8.8495   22.2481  -31.4394 H   0  0  0  0  0  0  0  0  0  0  0  0
   -8.9940   20.1370  -31.8840 C   0  0  0  0  0  0  0  0  0  0  0  0
  -10.0305   20.0588  -31.5241 H   0  0  0  0  0  0  0  0  0  0  0  0
   -8.3650   19.0420  -32.3770 N   0  0  0  0  0  0  0  0  0  0  0  0
   -7.0880   19.0920  -32.8380 C   0  0  0  0  0  0  0  0  0  0  0  0
   -6.5000   17.9310  -33.3450 C   0  0  0  0  0  0  0  0  0  0  0  0
   -7.0696   16.9900  -33.3532 H   0  0  0  0  0  0  0  0  0  0  0  0
   -5.1860   17.9550  -33.8450 C   0  0  0  0  0  0  0  0  0  0  0  0
   -4.5650   16.8060  -34.3610 O   0  0  0  0  0  0  0  0  0  0  0  0
   -4.8380   15.4770  -33.9290 C   0  0  0  0  0  0  0  0  0  0  0  0
   -4.8450   15.4430  -32.8295 H   0  0  0  0  0  0  0  0  0  0  0  0
   -5.8197   15.1614  -34.3119 H   0  0  0  0  0  0  0  0  0  0  0  0
   -4.0602   14.7999  -34.3119 H   0  0  0  0  0  0  0  0  0  0  0  0
   -4.4610   19.1550  -33.8360 C   0  0  0  0  0  0  0  0  0  0  0  0
   -3.1540   19.1410  -34.3490 O   0  0  0  0  0  0  0  0  0  0  0  0
   -2.0650   18.4240  -33.7730 C   0  0  0  0  0  0  0  0  0  0  0  0
   -2.1349   18.4700  -32.6762 H   0  0  0  0  0  0  0  0  0  0  0  0
   -2.1038   17.3742  -34.0992 H   0  0  0  0  0  0  0  0  0  0  0  0
   -1.1160   18.8745  -34.0992 H   0  0  0  0  0  0  0  0  0  0  0  0
   -5.0520   20.3270  -33.3230 C   0  0  0  0  0  0  0  0  0  0  0  0
   -4.4805   21.2669  -33.3212 H   0  0  0  0  0  0  0  0  0  0  0  0
   -6.3660   20.3110  -32.8120 C   0  0  0  0  0  0  0  0  0  0  0  0
   -5.3610   25.6390  -30.5180 C   0  0  0  0  0  0  0  0  0  0  0  0
   -4.7880   26.2877  -29.8391 H   0  0  0  0  0  0  0  0  0  0  0  0
   -5.7620   26.2367  -31.3499 H   0  0  0  0  0  0  0  0  0  0  0  0
   -4.5100   24.6280  -31.0340 O   0  0  0  0  0  0  0  0  0  0  0  0
   -3.5580   24.1840  -30.0830 C   0  0  0  0  0  0  0  0  0  0  0  0
   -3.5540   24.8769  -29.2287 H   0  0  0  0  0  0  0  0  0  0  0  0
   -2.5697   24.1577  -30.5652 H   0  0  0  0  0  0  0  0  0  0  0  0
   -3.8920   22.7740  -29.5820 C   0  0  0  0  0  0  0  0  0  0  0  0
   -4.9107   22.7719  -29.1669 H   0  0  0  0  0  0  0  0  0  0  0  0
   -3.1600   22.4945  -28.8100 H   0  0  0  0  0  0  0  0  0  0  0  0
   -3.8160   21.7870  -30.6820 N   0  0  0  0  0  0  0  0  0  0  0  0
   -3.0420   22.3040  -31.8350 C   0  0  0  0  0  0  0  0  0  0  0  0
   -2.7107   23.3289  -31.6119 H   0  0  0  0  0  0  0  0  0  0  0  0
   -3.6923   22.2858  -32.7220 H   0  0  0  0  0  0  0  0  0  0  0  0
   -1.8160   21.4380  -32.1230 C   0  0  0  0  0  0  0  0  0  0  0  0
   -1.3623   21.1175  -31.1736 H   0  0  0  0  0  0  0  0  0  0  0  0
   -2.1199   20.5530  -32.7014 H   0  0  0  0  0  0  0  0  0  0  0  0
   -1.0835   22.0202  -32.7014 H   0  0  0  0  0  0  0  0  0  0  0  0
   -3.3850   20.4480  -30.2130 C   0  0  0  0  0  0  0  0  0  0  0  0
   -4.2688   19.7941  -30.1773 H   0  0  0  0  0  0  0  0  0  0  0  0
   -2.6220   20.0952  -30.9225 H   0  0  0  0  0  0  0  0  0  0  0  0
   -2.7300   20.4480  -28.8250 C   0  0  0  0  0  0  0  0  0  0  0  0
   -2.5735   19.4109  -28.4934 H   0  0  0  0  0  0  0  0  0  0  0  0
   -1.7613   20.9665  -28.8767 H   0  0  0  0  0  0  0  0  0  0  0  0
   -3.3858   20.9665  -28.1101 H   0  0  0  0  0  0  0  0  0  0  0  0
  1  2  1  0
  2  3  2  0
  3  4  1  0
  3  5  1  0
  5  6  1  0
  5  7  1  0
  5  8  1  0
  8  9  1  0
  8 10  1  0
  8 11  1  0
 11 12  2  0
 12 13  1  0
 12 14  1  0
 14 15  1  0
 14 16  2  0
 16 17  1  0
 17 18  2  0
 18 19  1  0
 18 20  1  0
 20 21  1  0
 21 22  1  0
 22 23  1  0
 22 24  1  0
 22 25  1  0
 20 26  2  0
 26 27  1  0
 27 28  1  0
 28 29  1  0
 28 30  1  0
 28 31  1  0
 26 32  1  0
 32 33  1  0
 32 34  2  0
  2 35  1  0
 35 36  1  0
 35 37  1  0
 35 38  1  0
 38 39  1  0
 39 40  1  0
 39 41  1  0
 39 42  1  0
 42 43  1  0
 42 44  1  0
 42 45  1  0
 45 46  1  0
 46 47  1  0
 46 48  1  0
 46 49  1  0
 49 50  1  0
 49 51  1  0
 49 52  1  0
 45 53  1  0
 53 54  1  0
 53 55  1  0
 53 56  1  0
 56 57  1  0
 56 58  1  0
 56 59  1  0
 34 11  1  0
 34 17  1  0
M  CHG  1   8   1
M  END
>  <UniqueID>  (8) 
8

>  <SMILES>  (8) 
CCN(CC)CCOC/C=C/C[NH2+]c1ccnc2cc(OC)c(OC)cc12

>  <Energy>  (8) 
61.85802094483812

>  <Genealogy>  (8) 
CCN(CC)CCOCC=CC[NH2+]c1ccnc2cc(OC)c(OC)cc12 (protonated)
CCN(CC)CCOC/C=C/C[NH2+]c1ccnc2cc(OC)c(OC)cc12 (cis-trans isomerization)
CCN(CC)CCOC/C=C/C[NH2+]c1ccnc2cc(OC)c(OC)cc12 (3D coordinates assigned)
CCN(CC)CCOC/C=C/C[NH2+]c1ccnc2cc(OC)c(OC)cc12 (optimized conformer: 61.85802094483812 kcal/mol)

>  <smiles>  (8) 
CCN(CC)CCOCC=CCNc1ccnc2cc(OC)c(OC)cc12

>  <score_type>  (8) 
oracle

>  <origin>  (8) 
adg

>  <m_score__min__energy>  (8) 
-6.8499999999999996

>  <m_primary>  (8) 
energy

$$$$
8:0
     RDKit          3D

 45 49  0  0  0  0  0  0  0  0999 V2000
   -0.4900   24.7470  -25.8040 C   0  0  0  0  0  0  0  0  0  0  0  0
   -0.9270   24.6080  -27.1860 N   0  0  0  0  0  0  0  0  0  0  0  0
   -2.2050   24.5950  -27.6100 C   0  0  0  0  0  0  0  0  0  0  0  0
   -2.1930   24.3710  -28.9690 C   0  0  0  0  0  0  0  0  0  0  0  0
   -3.3520   24.2730  -29.8610 C   0  0  0  0  0  0  0  0  0  0  0  0
   -4.0230   23.1320  -30.1040 N   0  0  0  0  0  0  0  0  0  0  0  0
   -4.9640   23.5580  -30.9720 C   0  0  0  0  0  0  0  0  0  0  0  0
   -6.0740   22.6800  -31.4970 C   0  0  0  0  0  0  0  0  0  0  0  0
   -5.5070   21.4100  -32.1160 C   0  0  0  0  0  0  0  0  0  0  0  0
   -6.2410   20.2130  -32.1010 C   0  0  0  0  0  0  0  0  0  0  0  0
   -5.7490   19.0720  -32.7350 C   0  0  0  0  0  0  0  0  0  0  0  0
   -4.5300   19.1360  -33.4300 C   0  0  0  0  0  0  0  0  0  0  0  0
   -3.9570   17.9500  -34.1200 C   0  0  0  0  0  0  0  0  0  0  0  0
   -2.6180   17.9500  -34.5380 C   0  0  0  0  0  0  0  0  0  0  0  0
   -2.0970   16.8690  -35.1730 N   0  0  0  0  0  0  0  0  0  0  0  0
   -2.8570   15.7730  -35.4250 C   0  0  0  0  0  0  0  0  0  0  0  0
   -2.3360   14.7560  -36.0320 N   0  0  0  0  0  0  0  0  0  0  0  0
   -4.1610   15.7490  -35.0440 N   0  0  0  0  0  0  0  0  0  0  0  0
   -4.7230   16.8060  -34.4030 C   0  0  0  0  0  0  0  0  0  0  0  0
   -3.8560   20.3180  -33.4710 N   0  0  0  0  0  0  0  0  0  0  0  0
   -4.3130   21.4410  -32.8560 C   0  0  0  0  0  0  0  0  0  0  0  0
   -7.2060   22.4550  -30.4730 C   0  0  0  0  0  0  0  0  0  0  0  0
   -8.1690   23.2440  -31.3450 C   0  0  0  0  0  0  0  0  0  0  0  0
   -7.0780   23.4420  -32.3860 C   0  0  0  0  0  0  0  0  0  0  0  0
   -4.8850   24.8830  -31.2100 N   0  0  0  0  0  0  0  0  0  0  0  0
   -3.8670   25.2860  -30.5110 O   0  0  0  0  0  0  0  0  0  0  0  0
   -0.8590   24.2420  -29.3100 C   0  0  0  0  0  0  0  0  0  0  0  0
   -0.1060   24.3820  -28.2010 N   0  0  0  0  0  0  0  0  0  0  0  0
   -1.3180   24.4836  -25.1294 H   0  0  0  0  0  0  0  0  0  0  0  0
    0.3613   24.0753  -25.6193 H   0  0  0  0  0  0  0  0  0  0  0  0
   -0.1832   25.7871  -25.6193 H   0  0  0  0  0  0  0  0  0  0  0  0
   -3.0980   24.7376  -26.9837 H   0  0  0  0  0  0  0  0  0  0  0  0
   -7.2118   20.1747  -31.5851 H   0  0  0  0  0  0  0  0  0  0  0  0
   -6.3121   18.1281  -32.6910 H   0  0  0  0  0  0  0  0  0  0  0  0
   -1.9865   18.8309  -34.3502 H   0  0  0  0  0  0  0  0  0  0  0  0
   -1.4810   14.8540  -36.6260 H   0  0  0  0  0  0  0  0  0  0  0  0
   -5.7809   16.7668  -34.1043 H   0  0  0  0  0  0  0  0  0  0  0  0
   -3.7448   22.3793  -32.9382 H   0  0  0  0  0  0  0  0  0  0  0  0
   -7.4854   21.3994  -30.3400 H   0  0  0  0  0  0  0  0  0  0  0  0
   -7.0607   22.7333  -29.4187 H   0  0  0  0  0  0  0  0  0  0  0  0
   -9.0294   22.6600  -31.7036 H   0  0  0  0  0  0  0  0  0  0  0  0
   -8.7054   24.1115  -30.9330 H   0  0  0  0  0  0  0  0  0  0  0  0
   -7.2844   22.9519  -33.3489 H   0  0  0  0  0  0  0  0  0  0  0  0
   -6.8382   24.4520  -32.7499 H   0  0  0  0  0  0  0  0  0  0  0  0
   -0.4743   24.0552  -30.3235 H   0  0  0  0  0  0  0  0  0  0  0  0
  1  2  1  0
  2  3  1  0
  3  4  2  0
  4  5  1  0
  5  6  2  0
  6  7  1  0
  7  8  1  0
  8  9  1  0
  9 10  2  0
 10 11  1  0
 11 12  2  0
 12 13  1  0
 13 14  1  0
 14 15  2  0
 15 16  1  0
 16 17  2  3
 16 18  1  0
 18 19  1  0
 12 20  1  0
 20 21  2  0
  8 22  1  0
 22 23  1  0
 23 24  1  0
  7 25  2  0
 25 26  1  0
  4 27  1  0
 27 28  2  0
 28  2  1  0
 26  5  1  0
 24  8  1  0
 21  9  1  0
 19 13  2  0
  1 29  1  0
  1 30  1  0
  1 31  1  0
  3 32  1  0
 10 33  1  0
 11 34  1  0
 14 35  1  0
 17 36  1  0
 19 37  1  0
 21 38  1  0
 22 39  1  0
 22 40  1  0
 23 41  1  0
 23 42  1  0
 24 43  1  0
 24 44  1  0
 27 45  1  0
M  CHG  1  18  -1
M  END
>  <UniqueID>  (9) 
9

>  <SMILES>  (9) 
Cn1cc(-c2nc(C3(c4ccc(-c5cnc(=N)[n-]c5)nc4)CCC3)no2)cn1

>  <Energy>  (9) 
180.19877215057824

>  <Genealogy>  (9) 
Cn1cc(-c2nc(C3(c4ccc(-c5cnc(=N)[n-]c5)nc4)CCC3)no2)cn1 (protonated)
Cn1cc(-c2nc(C3(c4ccc(-c5cnc(=N)[n-]c5)nc4)CCC3)no2)cn1 (3D coordinates assigned)
Cn1cc(-c2nc(C3(c4ccc(-c5cnc(=N)[n-]c5)nc4)CCC3)no2)cn1 (nonaromatic ring conformer: 180.19877215057824 kcal/mol)

>  <smiles>  (9) 
Cn1cc(-c2nc(C3(c4ccc(-c5cnc(=N)[nH]c5)nc4)CCC3)no2)cn1

>  <score_type>  (9) 
oracle

>  <origin>  (9) 
adg

>  <m_score__min__energy>  (9) 
-9.1799999999999997

>  <m_primary>  (9) 
energy

$$$$
9:0
     RDKit          3D

 60 62  0  0  0  0  0  0  0  0999 V2000
   -2.6840   20.5080  -28.0070 C   0  0  0  0  0  0  0  0  0  0  0  0
   -2.4970   20.9410  -29.4580 C   0  0  0  0  0  0  0  0  0  0  0  0
   -3.4250   21.9570  -29.7910 O   0  0  0  0  0  0  0  0  0  0  0  0
   -3.4810   22.9560  -28.7890 C   0  0  0  0  0  0  0  0  0  0  0  0
   -3.0010   24.2940  -29.3500 C   0  0  0  0  0  0  0  0  0  0  0  0
   -3.8090   24.6820  -30.4470 O   0  0  0  0  0  0  0  0  0  0  0  0
   -5.1340   24.9700  -30.0390 C   0  0  0  0  0  0  0  0  0  0  0  0
   -6.1050   24.9470  -31.2300 C   0  0  0  0  0  0  0  0  0  0  0  0
   -5.8490   23.7910  -32.2140 C   0  0  0  0  0  0  0  0  0  0  0  0
   -5.0720   22.7010  -31.5990 N   0  0  0  0  0  0  0  0  0  0  0  0
   -5.3680   21.4310  -32.2390 C   0  0  0  0  0  0  0  0  0  0  0  0
   -6.6870   20.9160  -32.2440 C   0  0  0  0  0  0  0  0  0  0  0  0
   -6.9280   19.6060  -32.7090 C   0  0  0  0  0  0  0  0  0  0  0  0
   -5.8890   18.8120  -33.1550 N   0  0  0  0  0  0  0  0  0  0  0  0
   -6.1170   17.3660  -33.3990 C   0  0  0  0  0  0  0  0  0  0  0  0
   -5.7180   16.5280  -32.1840 C   0  0  0  0  0  0  0  0  0  0  0  0
   -4.6360   19.3670  -33.3540 C   0  0  0  0  0  0  0  0  0  0  0  0
   -3.6060   18.6590  -34.0320 C   0  0  0  0  0  0  0  0  0  0  0  0
   -2.3450   19.2180  -34.2220 C   0  0  0  0  0  0  0  0  0  0  0  0
   -2.0740   20.4970  -33.7630 C   0  0  0  0  0  0  0  0  0  0  0  0
   -3.0620   21.2300  -33.1130 C   0  0  0  0  0  0  0  0  0  0  0  0
   -4.3530   20.6860  -32.8930 C   0  0  0  0  0  0  0  0  0  0  0  0
   -8.3910   19.1670  -32.7420 C   0  0  0  0  0  0  0  0  0  0  0  0
   -9.0800   19.4830  -31.4060 C   0  0  0  0  0  0  0  0  0  0  0  0
   -8.8110   20.9180  -30.8980 C   0  0  0  0  0  0  0  0  0  0  0  0
   -7.9010   21.7360  -31.8260 C   0  0  0  0  0  0  0  0  0  0  0  0
   -2.3379   21.3094  -27.3377 H   0  0  0  0  0  0  0  0  0  0  0  0
   -3.7490   20.3073  -27.8186 H   0  0  0  0  0  0  0  0  0  0  0  0
   -2.0999   19.5951  -27.8186 H   0  0  0  0  0  0  0  0  0  0  0  0
   -1.4749   21.3245  -29.5934 H   0  0  0  0  0  0  0  0  0  0  0  0
   -2.6643   20.0744  -30.1145 H   0  0  0  0  0  0  0  0  0  0  0  0
   -4.5181   23.0604  -28.4377 H   0  0  0  0  0  0  0  0  0  0  0  0
   -2.8289   22.6627  -27.9531 H   0  0  0  0  0  0  0  0  0  0  0  0
   -3.0628   25.0609  -28.5639 H   0  0  0  0  0  0  0  0  0  0  0  0
   -1.9603   24.1883  -29.6901 H   0  0  0  0  0  0  0  0  0  0  0  0
   -5.4531   24.2179  -29.3025 H   0  0  0  0  0  0  0  0  0  0  0  0
   -5.1494   25.9781  -29.5992 H   0  0  0  0  0  0  0  0  0  0  0  0
   -7.1296   24.8518  -30.8411 H   0  0  0  0  0  0  0  0  0  0  0  0
   -5.9532   25.8833  -31.7870 H   0  0  0  0  0  0  0  0  0  0  0  0
   -6.8168   23.3906  -32.5502 H   0  0  0  0  0  0  0  0  0  0  0  0
   -5.2660   24.1878  -33.0582 H   0  0  0  0  0  0  0  0  0  0  0  0
   -5.2550   22.6470  -30.5730 H   0  0  0  0  0  0  0  0  0  0  0  0
   -4.0500   22.9030  -31.6500 H   0  0  0  0  0  0  0  0  0  0  0  0
   -7.1836   17.2024  -33.6125 H   0  0  0  0  0  0  0  0  0  0  0  0
   -5.4972   17.0561  -34.2533 H   0  0  0  0  0  0  0  0  0  0  0  0
   -5.9766   17.0711  -31.2631 H   0  0  0  0  0  0  0  0  0  0  0  0
   -6.2561   15.5689  -32.2074 H   0  0  0  0  0  0  0  0  0  0  0  0
   -4.6342   16.3411  -32.2074 H   0  0  0  0  0  0  0  0  0  0  0  0
   -3.8098   17.6480  -34.4146 H   0  0  0  0  0  0  0  0  0  0  0  0
   -1.5620   18.6428  -34.7378 H   0  0  0  0  0  0  0  0  0  0  0  0
   -1.0756   20.9338  -33.9128 H   0  0  0  0  0  0  0  0  0  0  0  0
   -2.8379   22.2488  -32.7638 H   0  0  0  0  0  0  0  0  0  0  0  0
   -8.9104   19.7004  -33.5518 H   0  0  0  0  0  0  0  0  0  0  0  0
   -8.4319   18.0813  -32.9143 H   0  0  0  0  0  0  0  0  0  0  0  0
  -10.1651   19.3571  -31.5355 H   0  0  0  0  0  0  0  0  0  0  0  0
   -8.6663   18.7917  -30.6570 H   0  0  0  0  0  0  0  0  0  0  0  0
   -9.7743   21.4409  -30.8056 H   0  0  0  0  0  0  0  0  0  0  0  0
   -8.2912   20.8273  -29.9328 H   0  0  0  0  0  0  0  0  0  0  0  0
   -8.4671   22.0271  -32.7231 H   0  0  0  0  0  0  0  0  0  0  0  0
   -7.5565   22.6309  -31.2870 H   0  0  0  0  0  0  0  0  0  0  0  0
  1  2  1  0
  2  3  1  0
  3  4  1  0
  4  5  1  0
  5  6  1  0
  6  7  1  0
  7  8  1  0
  8  9  1  0
  9 10  1  0
 10 11  1  0
 11 12  2  0
 12 13  1  0
 13 14  2  0
 14 15  1  0
 15 16  1  0
 14 17  1  0
 17 18  2  0
 18 19  1  0
 19 20  2  0
 20 21  1  0
 21 22  2  0
 13 23  1  0
 23 24  1  0
 24 25  1  0
 25 26  1  0
 22 11  1  0
 26 12  1  0
 22 17  1  0
  1 27  1  0
  1 28  1  0
  1 29  1  0
  2 30  1  0
  2 31  1  0
  4 32  1  0
  4 33  1  0
  5 34  1  0
  5 35  1  0
  7 36  1  0
  7 37  1  0
  8 38  1  0
  8 39  1  0
  9 40  1  0
  9 41  1  0
 10 42  1  0
 10 43  1  0
 15 44  1  0
 15 45  1  0
 16 46  1  0
 16 47  1  0
 16 48  1  0
 18 49  1  0
 19 50  1  0
 20 51  1  0
 21 52  1  0
 23 53  1  0
 23 54  1  0
 24 55  1  0
 24 56  1  0
 25 57  1  0
 25 58  1  0
 26 59  1  0
 26 60  1  0
M  CHG  2  10   1  14   1
M  END
>  <UniqueID>  (10) 
10

>  <SMILES>  (10) 
CCOCCOCCC[NH2+]c1c2c([n+](CC)c3ccccc13)CCCC2

>  <Energy>  (10) 
85.85201344781605

>  <Genealogy>  (10) 
CCOCCOCCC[NH2+]c1c2c([n+](CC)c3ccccc13)CCCC2 (protonated)
CCOCCOCCC[NH2+]c1c2c([n+](CC)c3ccccc13)CCCC2 (3D coordinates assigned)
CCOCCOCCC[NH2+]c1c2c([n+](CC)c3ccccc13)CCCC2 (nonaromatic ring conformer: 85.85201344781605 kcal/mol)

>  <smiles>  (10) 
CCOCCOCCCNc1c2c([n+](CC)c3ccccc13)CCCC2

>  <score_type>  (10) 
oracle

>  <origin>  (10) 
adg

>  <m_score__min__energy>  (10) 
-8.6300000000000008

>  <m_primary>  (10) 
energy

$$$$
10:0
     RDKit          3D

 55 55  0  0  0  0  0  0  0  0999 V2000
   -2.0840   21.2590  -33.3610 C   0  0  0  0  0  0  0  0  0  0  0  0
   -3.4820   21.8010  -33.0800 C   0  0  0  0  0  0  0  0  0  0  0  0
   -3.9110   21.4230  -31.7850 O   0  0  0  0  0  0  0  0  0  0  0  0
   -3.1400   22.0520  -30.7750 C   0  0  0  0  0  0  0  0  0  0  0  0
   -3.8860   23.2600  -30.2140 C   0  0  0  0  0  0  0  0  0  0  0  0
   -4.6880   23.8300  -31.2280 O   0  0  0  0  0  0  0  0  0  0  0  0
   -5.6030   24.7610  -30.6800 C   0  0  0  0  0  0  0  0  0  0  0  0
   -6.8710   24.0540  -30.1980 C   0  0  0  0  0  0  0  0  0  0  0  0
   -7.3670   22.7830  -31.3460 S   0  0  0  0  0  0  0  0  0  0  0  0
   -6.3500   21.4530  -31.2180 O   0  0  0  0  0  0  0  0  0  0  0  0
   -9.0530   22.2890  -31.0570 C   0  0  0  0  0  0  0  0  0  0  0  0
   -9.4260   21.1310  -31.9810 C   0  0  0  0  0  0  0  0  0  0  0  0
   -8.7250   19.8330  -31.5450 C   0  0  0  0  0  0  0  0  0  0  0  0
   -8.0500   19.1290  -32.6560 N   0  0  0  0  0  0  0  0  0  0  0  0
   -7.5050   17.7940  -32.3340 C   0  0  0  0  0  0  0  0  0  0  0  0
   -5.9900   17.7910  -32.0040 C   0  0  0  0  0  0  0  0  0  0  0  0
   -5.2310   18.9290  -32.5830 N   0  0  0  0  0  0  0  0  0  0  0  0
   -3.8130   18.5400  -32.7900 C   0  0  0  0  0  0  0  0  0  0  0  0
   -3.5330   18.0550  -34.2190 C   0  0  0  0  0  0  0  0  0  0  0  0
   -5.8530   19.3900  -33.8390 C   0  0  0  0  0  0  0  0  0  0  0  0
   -7.2390   19.9820  -33.5490 C   0  0  0  0  0  0  0  0  0  0  0  0
   -1.5699   21.0597  -32.4092 H   0  0  0  0  0  0  0  0  0  0  0  0
   -2.1617   20.3258  -33.9382 H   0  0  0  0  0  0  0  0  0  0  0  0
   -1.5124   22.0007  -33.9382 H   0  0  0  0  0  0  0  0  0  0  0  0
   -3.4650   22.8987  -33.1493 H   0  0  0  0  0  0  0  0  0  0  0  0
   -4.1800   21.3841  -33.8210 H   0  0  0  0  0  0  0  0  0  0  0  0
   -2.9499   21.3340  -29.9636 H   0  0  0  0  0  0  0  0  0  0  0  0
   -2.1878   22.3899  -31.2100 H   0  0  0  0  0  0  0  0  0  0  0  0
   -4.5247   22.9406  -29.3773 H   0  0  0  0  0  0  0  0  0  0  0  0
   -3.1606   24.0059  -29.8571 H   0  0  0  0  0  0  0  0  0  0  0  0
   -5.1302   25.2740  -29.8295 H   0  0  0  0  0  0  0  0  0  0  0  0
   -5.8777   25.4872  -31.4592 H   0  0  0  0  0  0  0  0  0  0  0  0
   -6.6774   23.5969  -29.2164 H   0  0  0  0  0  0  0  0  0  0  0  0
   -7.6801   24.7956  -30.1239 H   0  0  0  0  0  0  0  0  0  0  0  0
   -5.4460   21.8140  -31.3970 H   0  0  0  0  0  0  0  0  0  0  0  0
   -9.1643   21.9697  -30.0103 H   0  0  0  0  0  0  0  0  0  0  0  0
   -9.7180   23.1411  -31.2609 H   0  0  0  0  0  0  0  0  0  0  0  0
  -10.5152   20.9806  -31.9482 H   0  0  0  0  0  0  0  0  0  0  0  0
   -9.1029   21.3787  -33.0029 H   0  0  0  0  0  0  0  0  0  0  0  0
   -7.9729   20.0822  -30.7819 H   0  0  0  0  0  0  0  0  0  0  0  0
   -9.5025   19.1582  -31.1575 H   0  0  0  0  0  0  0  0  0  0  0  0
   -8.0490   17.3998  -31.4630 H   0  0  0  0  0  0  0  0  0  0  0  0
   -7.6349   17.1733  -33.2328 H   0  0  0  0  0  0  0  0  0  0  0  0
   -5.8766   17.8234  -30.9103 H   0  0  0  0  0  0  0  0  0  0  0  0
   -5.5740   16.8770  -32.4528 H   0  0  0  0  0  0  0  0  0  0  0  0
   -5.2520   19.7140  -31.8900 H   0  0  0  0  0  0  0  0  0  0  0  0
   -3.1753   19.4122  -32.5834 H   0  0  0  0  0  0  0  0  0  0  0  0
   -3.5951   17.7051  -32.1077 H   0  0  0  0  0  0  0  0  0  0  0  0
   -2.9833   17.1029  -34.1820 H   0  0  0  0  0  0  0  0  0  0  0  0
   -4.4853   17.9082  -34.7496 H   0  0  0  0  0  0  0  0  0  0  0  0
   -2.9297   18.8063  -34.7496 H   0  0  0  0  0  0  0  0  0  0  0  0
   -5.2167   20.1599  -34.3000 H   0  0  0  0  0  0  0  0  0  0  0  0
   -5.9600   18.5365  -34.5247 H   0  0  0  0  0  0  0  0  0  0  0  0
   -7.1088   20.9652  -33.0732 H   0  0  0  0  0  0  0  0  0  0  0  0
   -7.7731   20.0603  -34.5075 H   0  0  0  0  0  0  0  0  0  0  0  0
  1  2  1  0
  2  3  1  0
  3  4  1  0
  4  5  1  0
  5  6  1  0
  6  7  1  0
  7  8  1  0
  8  9  1  0
  9 10  1  1
  9 11  1  0
 11 12  1  0
 12 13  1  0
 13 14  1  0
 14 15  1  0
 15 16  1  0
 16 17  1  0
 17 18  1  0
 18 19  1  0
 17 20  1  0
 20 21  1  0
 21 14  1  0
  1 22  1  0
  1 23  1  0
  1 24  1  0
  2 25  1  0
  2 26  1  0
  4 27  1  0
  4 28  1  0
  5 29  1  0
  5 30  1  0
  7 31  1  0
  7 32  1  0
  8 33  1  0
  8 34  1  0
 10 35  1  0
 11 36  1  0
 11 37  1  0
 12 38  1  0
 12 39  1  0
 13 40  1  0
 13 41  1  0
 15 42  1  0
 15 43  1  0
 16 44  1  0
 16 45  1  0
 17 46  1  0
 18 47  1  0
 18 48  1  0
 19 49  1  0
 19 50  1  0
 19 51  1  0
 20 52  1  0
 20 53  1  0
 21 54  1  0
 21 55  1  0
M  CHG  2   9   1  17   1
M  END
>  <UniqueID>  (11) 
11

>  <SMILES>  (11) 
CCOCCOCC[S@@+](O)CCCN1CC[NH+](CC)CC1

>  <Energy>  (11) 
55.477132620442944

>  <Genealogy>  (11) 
CCOCCOCC[S+](O)CCCN1CC[NH+](CC)CC1 (protonated)
CCOCCOCC[S@@+](O)CCCN1CC[NH+](CC)CC1 (chirality)
CCOCCOCC[S@@+](O)CCCN1CC[NH+](CC)CC1 (3D coordinates assigned)
CCOCCOCC[S@@+](O)CCCN1CC[NH+](CC)CC1 (nonaromatic ring conformer: 55.477132620442944 kcal/mol)

>  <smiles>  (11) 
CCOCCOCC[S+]([O-])CCCN1CCN(CC)CC1

>  <score_type>  (11) 
oracle

>  <origin>  (11) 
adg

>  <m_score__min__energy>  (11) 
-6.6299999999999999

>  <m_primary>  (11) 
energy

$$$$
11:0
     RDKit          3D

 34 36  0  0  0  0  0  0  0  0999 V2000
   -6.5660   20.7900  -33.1090 C   0  0  0  0  0  0  0  0  0  0  0  0
   -7.4610   19.7690  -32.5660 N   0  0  0  0  0  0  0  0  0  0  0  0
   -8.6280   19.9580  -31.9170 C   0  0  0  0  0  0  0  0  0  0  0  0
   -9.3800   21.5550  -31.5770 S   0  0  0  0  0  0  0  0  0  0  0  0
   -7.9930   22.1830  -30.5600 C   0  0  0  0  0  0  0  0  0  0  0  0
   -7.3540   23.4320  -31.1750 C   0  0  0  0  0  0  0  0  0  0  0  0
   -5.8950   23.5580  -30.8240 C   0  0  0  0  0  0  0  0  0  0  0  0
   -5.1440   22.4230  -30.4830 C   0  0  0  0  0  0  0  0  0  0  0  0
   -3.7980   22.5550  -30.1370 C   0  0  0  0  0  0  0  0  0  0  0  0
   -3.2120   23.8220  -30.1380 C   0  0  0  0  0  0  0  0  0  0  0  0
   -3.9500   24.9130  -30.4740 N   0  0  0  0  0  0  0  0  0  0  0  0
   -5.2630   24.8110  -30.8140 C   0  0  0  0  0  0  0  0  0  0  0  0
   -9.1850   18.7910  -31.5490 N   0  0  0  0  0  0  0  0  0  0  0  0
   -8.3660   17.8310  -31.9490 N   0  0  0  0  0  0  0  0  0  0  0  0
   -7.3200   18.4220  -32.5610 C   0  0  0  0  0  0  0  0  0  0  0  0
   -6.1930   17.6480  -33.1240 C   0  0  0  0  0  0  0  0  0  0  0  0
   -5.5170   16.6330  -32.4540 C   0  0  0  0  0  0  0  0  0  0  0  0
   -4.4810   16.0590  -33.2010 C   0  0  0  0  0  0  0  0  0  0  0  0
   -4.3280   16.6160  -34.4630 C   0  0  0  0  0  0  0  0  0  0  0  0
   -5.4860   17.8210  -34.6430 S   0  0  0  0  0  0  0  0  0  0  0  0
   -6.0877   21.3356  -32.2822 H   0  0  0  0  0  0  0  0  0  0  0  0
   -5.7931   20.3092  -33.7266 H   0  0  0  0  0  0  0  0  0  0  0  0
   -7.1439   21.4933  -33.7266 H   0  0  0  0  0  0  0  0  0  0  0  0
   -8.3716   22.4338  -29.5581 H   0  0  0  0  0  0  0  0  0  0  0  0
   -7.2249   21.3972  -30.5082 H   0  0  0  0  0  0  0  0  0  0  0  0
   -7.4513   23.3771  -32.2693 H   0  0  0  0  0  0  0  0  0  0  0  0
   -7.8753   24.3117  -30.7695 H   0  0  0  0  0  0  0  0  0  0  0  0
   -5.6157   21.4293  -30.4883 H   0  0  0  0  0  0  0  0  0  0  0  0
   -3.2048   21.6691  -29.8662 H   0  0  0  0  0  0  0  0  0  0  0  0
   -2.1523   23.9376  -29.8667 H   0  0  0  0  0  0  0  0  0  0  0  0
   -5.8315   25.7138  -31.0821 H   0  0  0  0  0  0  0  0  0  0  0  0
   -5.7724   16.3117  -31.4334 H   0  0  0  0  0  0  0  0  0  0  0  0
   -3.8476   15.2429  -32.8230 H   0  0  0  0  0  0  0  0  0  0  0  0
   -3.5802   16.3207  -35.2137 H   0  0  0  0  0  0  0  0  0  0  0  0
  1  2  1  0
  2  3  1  0
  3  4  1  0
  4  5  1  0
  5  6  1  0
  6  7  1  0
  7  8  2  0
  8  9  1  0
  9 10  2  0
 10 11  1  0
 11 12  2  0
  3 13  2  0
 13 14  1  0
 14 15  2  0
 15 16  1  0
 16 17  2  0
 17 18  1  0
 18 19  2  0
 19 20  1  0
 15  2  1  0
 20 16  1  0
 12  7  1  0
  1 21  1  0
  1 22  1  0
  1 23  1  0
  5 24  1  0
  5 25  1  0
  6 26  1  0
  6 27  1  0
  8 28  1  0
  9 29  1  0
 10 30  1  0
 12 31  1  0
 17 32  1  0
 18 33  1  0
 19 34  1  0
M  END
>  <UniqueID>  (12) 
12

>  <SMILES>  (12) 
Cn1c(SCCc2cccnc2)nnc1-c1cccs1

>  <Energy>  (12) 
93.10510985195529

>  <Genealogy>  (12) 
Cn1c(SCCc2cccnc2)nnc1-c1cccs1 (3D coordinates assigned)
Cn1c(SCCc2cccnc2)nnc1-c1cccs1 (optimized conformer: 93.10510985195529 kcal/mol)

>  <smiles>  (12) 
Cn1c(SCCc2cccnc2)nnc1-c1cccs1

>  <score_type>  (12) 
oracle

>  <origin>  (12) 
adg

>  <m_score__min__energy>  (12) 
-7.9500000000000002

>  <m_primary>  (12) 
energy

$$$$
12:0
     RDKit          3D

 63 66  0  0  0  0  0  0  0  0999 V2000
   -3.8030   18.5850  -26.1060 C   0  0  0  0  0  0  0  0  0  0  0  0
   -2.3230   18.8050  -26.3990 C   0  0  0  0  0  0  0  0  0  0  0  0
   -2.1340   19.2630  -27.7410 O   0  0  0  0  0  0  0  0  0  0  0  0
   -2.2570   20.5940  -28.1870 C   0  0  0  0  0  0  0  0  0  0  0  0
   -3.1280   21.5130  -27.5700 C   0  0  0  0  0  0  0  0  0  0  0  0
   -3.2290   22.8250  -28.0440 C   0  0  0  0  0  0  0  0  0  0  0  0
   -2.4640   23.2490  -29.1450 C   0  0  0  0  0  0  0  0  0  0  0  0
   -2.5690   24.6000  -29.6360 N   0  0  0  0  0  0  0  0  0  0  0  0
   -3.4860   24.9240  -30.4210 O   0  0  0  0  0  0  0  0  0  0  0  0
   -1.6540   25.5590  -29.2530 O   0  0  0  0  0  0  0  0  0  0  0  0
   -1.5970   22.3330  -29.7640 C   0  0  0  0  0  0  0  0  0  0  0  0
   -1.4860   21.0120  -29.2940 C   0  0  0  0  0  0  0  0  0  0  0  0
   -0.5670   20.0380  -30.0040 C   0  0  0  0  0  0  0  0  0  0  0  0
   -0.2900   20.4570  -31.3890 N   0  0  0  0  0  0  0  0  0  0  0  0
   -1.3820   20.0820  -32.2960 C   0  0  0  0  0  0  0  0  0  0  0  0
   -2.0250   21.3420  -32.8830 C   0  0  0  0  0  0  0  0  0  0  0  0
   -3.4500   21.5490  -32.3460 C   0  0  0  0  0  0  0  0  0  0  0  0
   -4.4660   21.5910  -33.4200 N   0  0  0  0  0  0  0  0  0  0  0  0
   -5.6300   20.7610  -33.1230 C   0  0  0  0  0  0  0  0  0  0  0  0
   -5.6400   19.3650  -33.4150 C   0  0  0  0  0  0  0  0  0  0  0  0
   -4.5440   18.7140  -34.0430 C   0  0  0  0  0  0  0  0  0  0  0  0
   -4.5980   17.3640  -34.3780 C   0  0  0  0  0  0  0  0  0  0  0  0
   -5.7400   16.6250  -34.1070 C   0  0  0  0  0  0  0  0  0  0  0  0
   -6.8220   17.2230  -33.4740 C   0  0  0  0  0  0  0  0  0  0  0  0
   -6.7880   18.5870  -33.0790 C   0  0  0  0  0  0  0  0  0  0  0  0
   -7.8470   19.1560  -32.4020 N   0  0  0  0  0  0  0  0  0  0  0  0
   -8.8830   18.2870  -31.7970 C   0  0  0  0  0  0  0  0  0  0  0  0
   -7.9310   20.5260  -32.2720 C   0  0  0  0  0  0  0  0  0  0  0  0
   -9.1300   21.1520  -31.8400 C   0  0  0  0  0  0  0  0  0  0  0  0
   -9.1960   22.5270  -31.6330 C   0  0  0  0  0  0  0  0  0  0  0  0
   -8.0810   23.3200  -31.8700 C   0  0  0  0  0  0  0  0  0  0  0  0
   -6.9060   22.7460  -32.3470 C   0  0  0  0  0  0  0  0  0  0  0  0
   -6.8100   21.3500  -32.5820 C   0  0  0  0  0  0  0  0  0  0  0  0
   -3.9618   18.5614  -25.0178 H   0  0  0  0  0  0  0  0  0  0  0  0
   -4.3895   19.4058  -26.5444 H   0  0  0  0  0  0  0  0  0  0  0  0
   -4.1254   17.6291  -26.5444 H   0  0  0  0  0  0  0  0  0  0  0  0
   -1.9251   19.5570  -25.7018 H   0  0  0  0  0  0  0  0  0  0  0  0
   -1.7928   17.8493  -26.2744 H   0  0  0  0  0  0  0  0  0  0  0  0
   -3.7338   21.1962  -26.7082 H   0  0  0  0  0  0  0  0  0  0  0  0
   -3.9130   23.5315  -27.5511 H   0  0  0  0  0  0  0  0  0  0  0  0
   -0.9966   22.6534  -30.6282 H   0  0  0  0  0  0  0  0  0  0  0  0
    0.3833   19.9791  -29.4531 H   0  0  0  0  0  0  0  0  0  0  0  0
   -1.0667   19.0586  -30.0367 H   0  0  0  0  0  0  0  0  0  0  0  0
    0.5970   20.0110  -31.7210 H   0  0  0  0  0  0  0  0  0  0  0  0
   -0.9823   19.4620  -33.1120 H   0  0  0  0  0  0  0  0  0  0  0  0
   -2.1401   19.5145  -31.7364 H   0  0  0  0  0  0  0  0  0  0  0  0
   -1.4115   22.2147  -32.6146 H   0  0  0  0  0  0  0  0  0  0  0  0
   -2.0813   21.2242  -33.9752 H   0  0  0  0  0  0  0  0  0  0  0  0
   -3.6928   20.7203  -31.6646 H   0  0  0  0  0  0  0  0  0  0  0  0
   -3.4721   22.5205  -31.8306 H   0  0  0  0  0  0  0  0  0  0  0  0
   -4.0310   21.2730  -34.3140 H   0  0  0  0  0  0  0  0  0  0  0  0
   -4.7130   22.5780  -33.6450 H   0  0  0  0  0  0  0  0  0  0  0  0
   -3.6339   19.2889  -34.2691 H   0  0  0  0  0  0  0  0  0  0  0  0
   -3.7335   16.8825  -34.8584 H   0  0  0  0  0  0  0  0  0  0  0  0
   -5.7888   15.5641  -34.3937 H   0  0  0  0  0  0  0  0  0  0  0  0
   -7.7249   16.6274  -33.2742 H   0  0  0  0  0  0  0  0  0  0  0  0
   -8.8149   18.3441  -30.7006 H   0  0  0  0  0  0  0  0  0  0  0  0
   -9.8789   18.6239  -32.1206 H   0  0  0  0  0  0  0  0  0  0  0  0
   -8.7245   17.2477  -32.1206 H   0  0  0  0  0  0  0  0  0  0  0  0
  -10.0255   20.5376  -31.6652 H   0  0  0  0  0  0  0  0  0  0  0  0
  -10.1320   22.9856  -31.2815 H   0  0  0  0  0  0  0  0  0  0  0  0
   -8.1263   24.4026  -31.6807 H   0  0  0  0  0  0  0  0  0  0  0  0
   -6.0347   23.3873  -32.5457 H   0  0  0  0  0  0  0  0  0  0  0  0
  1  2  1  0
  2  3  1  0
  3  4  1  0
  4  5  2  0
  5  6  1  0
  6  7  2  0
  7  8  1  0
  8  9  2  0
  8 10  1  0
  7 11  1  0
 11 12  2  0
 12 13  1  0
 13 14  1  0
 14 15  1  0
 15 16  1  0
 16 17  1  0
 17 18  1  0
 18 19  1  0
 19 20  1  0
 20 21  2  0
 21 22  1  0
 22 23  2  0
 23 24  1  0
 24 25  2  0
 25 26  1  0
 26 27  1  0
 26 28  2  0
 28 29  1  0
 29 30  2  0
 30 31  1  0
 31 32  2  0
 32 33  1  0
 12  4  1  0
 33 19  2  0
 25 20  1  0
 33 28  1  0
  1 34  1  0
  1 35  1  0
  1 36  1  0
  2 37  1  0
  2 38  1  0
  5 39  1  0
  6 40  1  0
 11 41  1  0
 13 42  1  0
 13 43  1  0
 14 44  1  0
 15 45  1  0
 15 46  1  0
 16 47  1  0
 16 48  1  0
 17 49  1  0
 17 50  1  0
 18 51  1  0
 18 52  1  0
 21 53  1  0
 22 54  1  0
 23 55  1  0
 24 56  1  0
 27 57  1  0
 27 58  1  0
 27 59  1  0
 29 60  1  0
 30 61  1  0
 31 62  1  0
 32 63  1  0
M  CHG  4   8   1  10  -1  18   1  26   1
M  END
>  <UniqueID>  (13) 
13

>  <SMILES>  (13) 
CCOc1ccc([N+](=O)[O-])cc1CNCCC[NH2+]c1c2ccccc2[n+](C)c2ccccc12

>  <Energy>  (13) 
92.73393931311304

>  <Genealogy>  (13) 
CCOc1ccc([N+](=O)[O-])cc1CNCCC[NH2+]c1c2ccccc2[n+](C)c2ccccc12 (protonated)
CCOc1ccc([N+](=O)[O-])cc1CNCCC[NH2+]c1c2ccccc2[n+](C)c2ccccc12 (3D coordinates assigned)
CCOc1ccc([N+](=O)[O-])cc1CNCCC[NH2+]c1c2ccccc2[n+](C)c2ccccc12 (optimized conformer: 92.73393931311304 kcal/mol)

>  <smiles>  (13) 
CCOc1ccc([N+](=O)[O-])cc1CNCCCNc1c2ccccc2[n+](C)c2ccccc12

>  <score_type>  (13) 
oracle

>  <origin>  (13) 
adg

>  <m_score__min__energy>  (13) 
-10.16

>  <m_primary>  (13) 
energy

$$$$
13:0
     RDKit          3D

 62 64  0  0  0  0  0  0  0  0999 V2000
   -2.2500   20.2940  -28.2620 C   0  0  0  0  0  0  0  0  0  0  0  0
   -3.0970   21.3090  -29.0390 C   0  0  0  0  0  0  0  0  0  0  0  0
   -2.4770   21.6700  -30.3460 N   0  0  0  0  0  0  0  0  0  0  0  0
   -1.0760   22.1270  -30.1310 C   0  0  0  0  0  0  0  0  0  0  0  0
   -1.0020   23.4210  -29.3110 C   0  0  0  0  0  0  0  0  0  0  0  0
   -2.5120   20.5110  -31.2800 C   0  0  0  0  0  0  0  0  0  0  0  0
   -2.3030   20.9260  -32.7540 C   0  0  0  0  0  0  0  0  0  0  0  0
   -3.5730   21.2130  -33.4300 N   0  0  0  0  0  0  0  0  0  0  0  0
   -4.8300   20.6570  -33.0020 C   0  0  0  0  0  0  0  0  0  0  0  0
   -5.2220   19.3860  -33.4560 C   0  0  0  0  0  0  0  0  0  0  0  0
   -4.3490   18.5880  -34.2260 C   0  0  0  0  0  0  0  0  0  0  0  0
   -4.7380   17.3240  -34.6620 C   0  0  0  0  0  0  0  0  0  0  0  0
   -5.9950   16.8310  -34.3330 C   0  0  0  0  0  0  0  0  0  0  0  0
   -6.8790   17.6060  -33.5830 C   0  0  0  0  0  0  0  0  0  0  0  0
   -6.5250   18.9100  -33.1530 C   0  0  0  0  0  0  0  0  0  0  0  0
   -7.4110   19.7130  -32.4590 N   0  0  0  0  0  0  0  0  0  0  0  0
   -8.8460   19.3570  -32.4120 C   0  0  0  0  0  0  0  0  0  0  0  0
   -6.9570   20.8580  -31.8320 C   0  0  0  0  0  0  0  0  0  0  0  0
   -7.7390   21.5370  -30.8720 C   0  0  0  0  0  0  0  0  0  0  0  0
   -7.2870   22.7080  -30.2670 C   0  0  0  0  0  0  0  0  0  0  0  0
   -6.0310   23.2570  -30.5830 C   0  0  0  0  0  0  0  0  0  0  0  0
   -5.5380   24.5400  -29.8790 C   0  0  0  0  0  0  0  0  0  0  0  0
   -4.7710   24.1960  -28.5800 C   0  0  0  0  0  0  0  0  0  0  0  0
   -6.7050   25.4790  -29.4820 C   0  0  0  0  0  0  0  0  0  0  0  0
   -4.6000   25.2990  -30.8320 C   0  0  0  0  0  0  0  0  0  0  0  0
   -5.2080   22.5250  -31.4620 C   0  0  0  0  0  0  0  0  0  0  0  0
   -5.6630   21.3580  -32.1110 C   0  0  0  0  0  0  0  0  0  0  0  0
   -2.3842   20.4548  -27.1821 H   0  0  0  0  0  0  0  0  0  0  0  0
   -2.5687   19.2741  -28.5232 H   0  0  0  0  0  0  0  0  0  0  0  0
   -1.1895   20.4250  -28.5232 H   0  0  0  0  0  0  0  0  0  0  0  0
   -4.0901   20.8742  -29.2251 H   0  0  0  0  0  0  0  0  0  0  0  0
   -3.1704   22.2244  -28.4335 H   0  0  0  0  0  0  0  0  0  0  0  0
   -3.0190   22.4570  -30.7710 H   0  0  0  0  0  0  0  0  0  0  0  0
   -0.5253   21.3385  -29.5971 H   0  0  0  0  0  0  0  0  0  0  0  0
   -0.6344   22.3298  -31.1178 H   0  0  0  0  0  0  0  0  0  0  0  0
   -1.0160   23.1768  -28.2385 H   0  0  0  0  0  0  0  0  0  0  0  0
   -0.0718   23.9559  -29.5532 H   0  0  0  0  0  0  0  0  0  0  0  0
   -1.8652   24.0584  -29.5532 H   0  0  0  0  0  0  0  0  0  0  0  0
   -1.7161   19.8065  -30.9966 H   0  0  0  0  0  0  0  0  0  0  0  0
   -3.5086   20.0518  -31.2023 H   0  0  0  0  0  0  0  0  0  0  0  0
   -1.6736   21.8277  -32.7832 H   0  0  0  0  0  0  0  0  0  0  0  0
   -1.8215   20.0872  -33.2779 H   0  0  0  0  0  0  0  0  0  0  0  0
   -3.5780   21.9080  -34.2090 H   0  0  0  0  0  0  0  0  0  0  0  0
   -3.3500   18.9688  -34.4847 H   0  0  0  0  0  0  0  0  0  0  0  0
   -4.0500   16.7154  -35.2672 H   0  0  0  0  0  0  0  0  0  0  0  0
   -6.2937   15.8259  -34.6654 H   0  0  0  0  0  0  0  0  0  0  0  0
   -7.8668   17.1992  -33.3207 H   0  0  0  0  0  0  0  0  0  0  0  0
   -9.1697   19.2767  -31.3638 H   0  0  0  0  0  0  0  0  0  0  0  0
   -9.4340   20.1365  -32.9186 H   0  0  0  0  0  0  0  0  0  0  0  0
   -9.0014   18.3931  -32.9186 H   0  0  0  0  0  0  0  0  0  0  0  0
   -8.7245   21.1335  -30.5963 H   0  0  0  0  0  0  0  0  0  0  0  0
   -7.9253   23.2134  -29.5273 H   0  0  0  0  0  0  0  0  0  0  0  0
   -5.3837   24.4708  -27.7087 H   0  0  0  0  0  0  0  0  0  0  0  0
   -4.5596   23.1168  -28.5539 H   0  0  0  0  0  0  0  0  0  0  0  0
   -3.8245   24.7558  -28.5539 H   0  0  0  0  0  0  0  0  0  0  0  0
   -6.7741   25.5346  -28.3856 H   0  0  0  0  0  0  0  0  0  0  0  0
   -6.5216   26.4842  -29.8893 H   0  0  0  0  0  0  0  0  0  0  0  0
   -7.6477   25.0847  -29.8893 H   0  0  0  0  0  0  0  0  0  0  0  0
   -3.8766   25.8843  -30.2454 H   0  0  0  0  0  0  0  0  0  0  0  0
   -4.0612   24.5796  -31.4662 H   0  0  0  0  0  0  0  0  0  0  0  0
   -5.1911   25.9760  -31.4662 H   0  0  0  0  0  0  0  0  0  0  0  0
   -4.1813   22.8736  -31.6474 H   0  0  0  0  0  0  0  0  0  0  0  0
  1  2  1  0
  2  3  1  0
  3  4  1  0
  4  5  1  0
  3  6  1  0
  6  7  1  0
  7  8  1  0
  8  9  1  0
  9 10  2  0
 10 11  1  0
 11 12  2  0
 12 13  1  0
 13 14  2  0
 14 15  1  0
 15 16  2  0
 16 17  1  0
 16 18  1  0
 18 19  2  0
 19 20  1  0
 20 21  2  0
 21 22  1  0
 22 23  1  0
 22 24  1  0
 22 25  1  0
 21 26  1  0
 26 27  2  0
 27  9  1  0
 15 10  1  0
 27 18  1  0
  1 28  1  0
  1 29  1  0
  1 30  1  0
  2 31  1  0
  2 32  1  0
  3 33  1  0
  4 34  1  0
  4 35  1  0
  5 36  1  0
  5 37  1  0
  5 38  1  0
  6 39  1  0
  6 40  1  0
  7 41  1  0
  7 42  1  0
  8 43  1  0
 11 44  1  0
 12 45  1  0
 13 46  1  0
 14 47  1  0
 17 48  1  0
 17 49  1  0
 17 50  1  0
 19 51  1  0
 20 52  1  0
 23 53  1  0
 23 54  1  0
 23 55  1  0
 24 56  1  0
 24 57  1  0
 24 58  1  0
 25 59  1  0
 25 60  1  0
 25 61  1  0
 26 62  1  0
M  CHG  2   3   1  16   1
M  END
>  <UniqueID>  (14) 
14

>  <SMILES>  (14) 
CC[NH+](CC)CCNc1c2ccccc2[n+](C)c2ccc(C(C)(C)C)cc12

>  <Energy>  (14) 
88.81030073859364

>  <Genealogy>  (14) 
CC[NH+](CC)CCNc1c2ccccc2[n+](C)c2ccc(C(C)(C)C)cc12 (protonated)
CC[NH+](CC)CCNc1c2ccccc2[n+](C)c2ccc(C(C)(C)C)cc12 (3D coordinates assigned)
CC[NH+](CC)CCNc1c2ccccc2[n+](C)c2ccc(C(C)(C)C)cc12 (optimized conformer: 88.81030073859364 kcal/mol)

>  <smiles>  (14) 
CCN(CC)CCNc1c2ccccc2[n+](C)c2ccc(C(C)(C)C)cc12

>  <score_type>  (14) 
oracle

>  <origin>  (14) 
adg

>  <m_score__min__energy>  (14) 
-7.9800000000000004

>  <m_primary>  (14) 
energy

$$$$
14:0
     RDKit          3D

 52 54  0  0  0  0  0  0  0  0999 V2000
   -6.6210   25.1800  -29.7240 C   0  0  0  0  0  0  0  0  0  0  0  0
   -5.3940   25.7640  -30.4160 C   0  0  0  0  0  0  0  0  0  0  0  0
   -4.6050   24.6990  -31.0520 N   0  0  0  0  0  0  0  0  0  0  0  0
   -3.6410   24.1110  -30.1100 C   0  0  0  0  0  0  0  0  0  0  0  0
   -4.0430   22.6750  -29.7350 C   0  0  0  0  0  0  0  0  0  0  0  0
   -3.7860   21.6300  -30.8340 C   0  0  0  0  0  0  0  0  0  0  0  0
   -3.2880   22.2560  -32.1500 C   0  0  0  0  0  0  0  0  0  0  0  0
   -4.2530   22.1180  -33.2680 N   0  0  0  0  0  0  0  0  0  0  0  0
   -5.1840   21.0130  -33.0630 C   0  0  0  0  0  0  0  0  0  0  0  0
   -4.7640   19.6680  -33.3100 C   0  0  0  0  0  0  0  0  0  0  0  0
   -3.4470   19.3520  -33.7370 C   0  0  0  0  0  0  0  0  0  0  0  0
   -3.0560   18.0380  -33.9810 C   0  0  0  0  0  0  0  0  0  0  0  0
   -3.9490   16.9990  -33.7820 C   0  0  0  0  0  0  0  0  0  0  0  0
   -5.2390   17.2660  -33.3410 C   0  0  0  0  0  0  0  0  0  0  0  0
   -5.6800   18.5970  -33.1110 C   0  0  0  0  0  0  0  0  0  0  0  0
   -6.9530   18.8480  -32.6550 N   0  0  0  0  0  0  0  0  0  0  0  0
   -7.9810   17.7820  -32.6980 C   0  0  0  0  0  0  0  0  0  0  0  0
   -7.2800   20.0930  -32.1680 C   0  0  0  0  0  0  0  0  0  0  0  0
   -8.3930   20.2540  -31.3080 C   0  0  0  0  0  0  0  0  0  0  0  0
   -8.7860   21.5080  -30.8680 C   0  0  0  0  0  0  0  0  0  0  0  0
   -8.1310   22.6360  -31.3270 C   0  0  0  0  0  0  0  0  0  0  0  0
   -7.0290   22.5270  -32.1820 C   0  0  0  0  0  0  0  0  0  0  0  0
   -6.5950   23.7350  -32.8090 N   0  0  0  0  0  0  0  0  0  0  0  0
   -6.4890   21.2330  -32.5030 C   0  0  0  0  0  0  0  0  0  0  0  0
   -6.4911   25.2418  -28.6335 H   0  0  0  0  0  0  0  0  0  0  0  0
   -7.5145   25.7494  -30.0197 H   0  0  0  0  0  0  0  0  0  0  0  0
   -6.7425   24.1275  -30.0197 H   0  0  0  0  0  0  0  0  0  0  0  0
   -5.7189   26.4814  -31.1840 H   0  0  0  0  0  0  0  0  0  0  0  0
   -4.7690   26.2691  -29.6648 H   0  0  0  0  0  0  0  0  0  0  0  0
   -5.2760   23.9430  -31.3270 H   0  0  0  0  0  0  0  0  0  0  0  0
   -2.6452   24.0955  -30.5771 H   0  0  0  0  0  0  0  0  0  0  0  0
   -3.6279   24.7216  -29.1951 H   0  0  0  0  0  0  0  0  0  0  0  0
   -3.4720   22.3811  -28.8419 H   0  0  0  0  0  0  0  0  0  0  0  0
   -5.1300   22.6896  -29.5670 H   0  0  0  0  0  0  0  0  0  0  0  0
   -3.0268   20.9204  -30.4733 H   0  0  0  0  0  0  0  0  0  0  0  0
   -4.7433   21.1315  -31.0465 H   0  0  0  0  0  0  0  0  0  0  0  0
   -3.1027   23.3267  -31.9790 H   0  0  0  0  0  0  0  0  0  0  0  0
   -2.3736   21.7181  -32.4409 H   0  0  0  0  0  0  0  0  0  0  0  0
   -3.7400   21.9910  -34.1660 H   0  0  0  0  0  0  0  0  0  0  0  0
   -4.7480   23.0130  -33.4650 H   0  0  0  0  0  0  0  0  0  0  0  0
   -2.7187   20.1642  -33.8783 H   0  0  0  0  0  0  0  0  0  0  0  0
   -2.0356   17.8252  -34.3325 H   0  0  0  0  0  0  0  0  0  0  0  0
   -3.6370   15.9616  -33.9732 H   0  0  0  0  0  0  0  0  0  0  0  0
   -5.9328   16.4304  -33.1664 H   0  0  0  0  0  0  0  0  0  0  0  0
   -8.2563   17.4965  -31.6720 H   0  0  0  0  0  0  0  0  0  0  0  0
   -8.8715   18.1525  -33.2270 H   0  0  0  0  0  0  0  0  0  0  0  0
   -7.5785   16.9056  -33.2270 H   0  0  0  0  0  0  0  0  0  0  0  0
   -8.9565   19.3670  -30.9829 H   0  0  0  0  0  0  0  0  0  0  0  0
   -9.6177   21.6059  -30.1547 H   0  0  0  0  0  0  0  0  0  0  0  0
   -8.4808   23.6315  -31.0160 H   0  0  0  0  0  0  0  0  0  0  0  0
   -6.3990   24.5830  -32.2310 H   0  0  0  0  0  0  0  0  0  0  0  0
   -6.8150   23.9000  -33.8120 H   0  0  0  0  0  0  0  0  0  0  0  0
  1  2  1  0
  2  3  1  0
  3  4  1  0
  4  5  1  0
  5  6  1  0
  6  7  1  0
  7  8  1  0
  8  9  1  0
  9 10  2  0
 10 11  1  0
 11 12  2  0
 12 13  1  0
 13 14  2  0
 14 15  1  0
 15 16  2  0
 16 17  1  0
 16 18  1  0
 18 19  2  0
 19 20  1  0
 20 21  2  0
 21 22  1  0
 22 23  1  0
 22 24  2  0
 24  9  1  0
 15 10  1  0
 24 18  1  0
  1 25  1  0
  1 26  1  0
  1 27  1  0
  2 28  1  0
  2 29  1  0
  3 30  1  0
  4 31  1  0
  4 32  1  0
  5 33  1  0
  5 34  1  0
  6 35  1  0
  6 36  1  0
  7 37  1  0
  7 38  1  0
  8 39  1  0
  8 40  1  0
 11 41  1  0
 12 42  1  0
 13 43  1  0
 14 44  1  0
 17 45  1  0
 17 46  1  0
 17 47  1  0
 19 48  1  0
 20 49  1  0
 21 50  1  0
 23 51  1  0
 23 52  1  0
M  CHG  2   8   1  16   1
M  END
>  <UniqueID>  (15) 
15

>  <SMILES>  (15) 
CCNCCCC[NH2+]c1c2ccccc2[n+](C)c2cccc(N)c12

>  <Energy>  (15) 
92.89972056355046

>  <Genealogy>  (15) 
CCNCCCC[NH2+]c1c2ccccc2[n+](C)c2cccc(N)c12 (protonated)
CCNCCCC[NH2+]c1c2ccccc2[n+](C)c2cccc(N)c12 (3D coordinates assigned)
CCNCCCC[NH2+]c1c2ccccc2[n+](C)c2cccc(N)c12 (optimized conformer: 92.89972056355046 kcal/mol)

>  <smiles>  (15) 
CCNCCCCNc1c2ccccc2[n+](C)c2cccc(N)c12

>  <score_type>  (15) 
oracle

>  <origin>  (15) 
adg

>  <m_score__min__energy>  (15) 
-8.6099999999999994

>  <m_primary>  (15) 
energy

$$$$
