0:0
     RDKit          3D

 47 50  0  0  0  0  0  0  0  0999 V2000
    0.9630   24.5190  -26.2930 C   0  0  0  0  0  0  0  0  0  0  0  0
    1.0730   24.1630  -27.7740 C   0  0  0  0  0  0  0  0  0  0  0  0
   -0.1410   24.5530  -28.5200 N   0  0  0  0  0  0  0  0  0  0  0  0
   -1.0740   25.3760  -27.7210 C   0  0  0  0  0  0  0  0  0  0  0  0
   -2.4380   24.6920  -27.9190 C   0  0  2  0  0  0  0  0  0  0  0  0
   -2.4200   23.3880  -27.0970 C   0  0  0  0  0  0  0  0  0  0  0  0
   -1.4490   22.5090  -27.8940 C   0  0  0  0  0  0  0  0  0  0  0  0
   -1.0010   23.4570  -29.0340 C   0  0  1  0  0  0  0  0  0  0  0  0
   -2.2830   24.2050  -29.3480 C   0  0  1  0  0  0  0  0  0  0  0  0
   -3.3910   23.3560  -29.8100 N   0  0  0  0  0  0  0  0  0  0  0  0
   -4.4830   23.8880  -30.5730 C   0  0  0  0  0  0  0  0  0  0  0  0
   -4.5170   25.1190  -30.8430 O   0  0  0  0  0  0  0  0  0  0  0  0
   -5.6230   23.0380  -30.9850 C   0  0  0  0  0  0  0  0  0  0  0  0
   -6.9470   23.4670  -30.9150 C   0  0  0  0  0  0  0  0  0  0  0  0
   -7.6890   22.4320  -31.4320 C   0  0  0  0  0  0  0  0  0  0  0  0
   -9.0610   22.3070  -31.6280 C   0  0  0  0  0  0  0  0  0  0  0  0
   -9.5280   21.1630  -32.2070 N   0  0  0  0  0  0  0  0  0  0  0  0
   -8.6870   20.1550  -32.5980 C   0  0  0  0  0  0  0  0  0  0  0  0
   -7.2990   20.2700  -32.4120 C   0  0  0  0  0  0  0  0  0  0  0  0
   -6.8270   21.4390  -31.8060 C   0  0  0  0  0  0  0  0  0  0  0  0
   -5.5490   21.7910  -31.5390 N   0  0  0  0  0  0  0  0  0  0  0  0
   -4.3530   21.0150  -31.8870 C   0  0  0  0  0  0  0  0  0  0  0  0
   -3.6480   21.6150  -33.1020 C   0  0  0  0  0  0  0  0  0  0  0  0
    1.2335   23.6436  -25.6844 H   0  0  0  0  0  0  0  0  0  0  0  0
    1.6462   25.3501  -26.0639 H   0  0  0  0  0  0  0  0  0  0  0  0
   -0.0700   24.8198  -26.0639 H   0  0  0  0  0  0  0  0  0  0  0  0
    1.9394   24.6872  -28.2035 H   0  0  0  0  0  0  0  0  0  0  0  0
    1.1919   23.0726  -27.8573 H   0  0  0  0  0  0  0  0  0  0  0  0
   -0.7861   25.3739  -26.6593 H   0  0  0  0  0  0  0  0  0  0  0  0
   -1.0806   26.4310  -28.0324 H   0  0  0  0  0  0  0  0  0  0  0  0
   -3.3078   25.3200  -27.6758 H   0  0  0  0  0  0  0  0  0  0  0  0
   -2.0496   23.5660  -26.0767 H   0  0  0  0  0  0  0  0  0  0  0  0
   -3.4148   22.9371  -26.9668 H   0  0  0  0  0  0  0  0  0  0  0  0
   -0.5940   22.1986  -27.2755 H   0  0  0  0  0  0  0  0  0  0  0  0
   -1.8986   21.5716  -28.2532 H   0  0  0  0  0  0  0  0  0  0  0  0
   -0.4952   22.8929  -29.8315 H   0  0  0  0  0  0  0  0  0  0  0  0
   -2.2725   24.9401  -30.1662 H   0  0  0  0  0  0  0  0  0  0  0  0
   -3.4790   22.3950  -29.4160 H   0  0  0  0  0  0  0  0  0  0  0  0
   -7.3185   24.4277  -30.5289 H   0  0  0  0  0  0  0  0  0  0  0  0
   -9.7504   23.1086  -31.3244 H   0  0  0  0  0  0  0  0  0  0  0  0
   -9.1018   19.2478  -33.0616 H   0  0  0  0  0  0  0  0  0  0  0  0
   -6.6112   19.4727  -32.7302 H   0  0  0  0  0  0  0  0  0  0  0  0
   -3.6611   21.0169  -31.0319 H   0  0  0  0  0  0  0  0  0  0  0  0
   -4.6598   19.9872  -32.1309 H   0  0  0  0  0  0  0  0  0  0  0  0
   -2.8506   22.2937  -32.7651 H   0  0  0  0  0  0  0  0  0  0  0  0
   -3.2108   20.8077  -33.7079 H   0  0  0  0  0  0  0  0  0  0  0  0
   -4.3750   22.1757  -33.7079 H   0  0  0  0  0  0  0  0  0  0  0  0
  1  2  1  0
  2  3  1  0
  3  4  1  0
  4  5  1  0
  5  6  1  0
  6  7  1  0
  7  8  1  0
  8  9  1  0
  9 10  1  0
 10 11  1  0
 11 12  2  0
 11 13  1  0
 13 14  2  0
 14 15  1  0
 15 16  2  0
 16 17  1  0
 17 18  2  0
 18 19  1  0
 19 20  2  0
 20 21  1  0
 21 22  1  0
 22 23  1  0
  8  3  1  0
 21 13  1  0
  9  5  1  0
 20 15  1  0
  1 24  1  0
  1 25  1  0
  1 26  1  0
  2 27  1  0
  2 28  1  0
  4 29  1  0
  4 30  1  0
  5 31  1  6
  6 32  1  0
  6 33  1  0
  7 34  1  0
  7 35  1  0
  8 36  1  6
  9 37  1  6
 10 38  1  0
 14 39  1  0
 16 40  1  0
 18 41  1  0
 19 42  1  0
 22 43  1  0
 22 44  1  0
 23 45  1  0
 23 46  1  0
 23 47  1  0
M  END
>  <UniqueID>  (1) 
1

>  <SMILES>  (1) 
CCN1C[C@@H]2CC[C@H]1C2NC(=O)c1cc2cnccc2n1CC

>  <Energy>  (1) 
115.88623920103028

>  <Genealogy>  (1) 
CCN1CC2CCC1C2NC(=O)c1cc2cnccc2n1CC (protonated)
CCN1C[C@@H]2CC[C@H]1C2NC(=O)c1cc2cnccc2n1CC (chirality)
CCN1C[C@@H]2CC[C@H]1C2NC(=O)c1cc2cnccc2n1CC (3D coordinates assigned)
CCN1C[C@@H]2CC[C@H]1C2NC(=O)c1cc2cnccc2n1CC (nonaromatic ring conformer: 115.88623920103028 kcal/mol)

>  <smiles>  (1) 
CCn1c(C(=O)NC2C3CCC2[N+](CC)C3)cc2cnccc21

>  <score_type>  (1) 
oracle

>  <origin>  (1) 
adg

>  <m_score__min__energy>  (1) 
-8.1999999999999993

>  <m_primary>  (1) 
energy

$$$$
1:0
     RDKit          3D

 60 62  0  0  0  0  0  0  0  0999 V2000
   -3.0530   18.9180  -26.3380 C   0  0  0  0  0  0  0  0  0  0  0  0
   -2.1420   19.9810  -26.9470 C   0  0  0  0  0  0  0  0  0  0  0  0
   -1.6700   19.5570  -28.2120 O   0  0  0  0  0  0  0  0  0  0  0  0
   -0.5160   18.7560  -28.0680 C   0  0  0  0  0  0  0  0  0  0  0  0
    0.2390   18.7290  -29.3880 C   0  0  0  0  0  0  0  0  0  0  0  0
    0.4690   20.0560  -29.8180 O   0  0  0  0  0  0  0  0  0  0  0  0
    0.1290   20.2050  -31.1830 C   0  0  0  0  0  0  0  0  0  0  0  0
   -1.1730   21.0040  -31.3160 C   0  0  0  0  0  0  0  0  0  0  0  0
   -1.8090   21.2010  -30.0030 N   0  0  0  0  0  0  0  0  0  0  0  0
   -2.1080   22.6060  -29.7910 C   0  0  0  0  0  0  0  0  0  0  0  0
   -3.1650   23.2400  -30.5090 C   0  0  0  0  0  0  0  0  0  0  0  0
   -4.0200   22.5010  -31.5240 C   0  0  0  0  0  0  0  0  0  0  0  0
   -4.7210   21.3030  -30.8740 C   0  0  0  0  0  0  0  0  0  0  0  0
   -4.1770   20.0940  -31.3740 O   0  0  0  0  0  0  0  0  0  0  0  0
   -4.8110   19.6870  -32.5760 C   0  0  0  0  0  0  0  0  0  0  0  0
   -6.3000   19.5530  -32.3820 C   0  0  0  0  0  0  0  0  0  0  0  0
   -6.8350   18.3780  -31.8320 C   0  0  0  0  0  0  0  0  0  0  0  0
   -8.2200   18.2260  -31.7100 C   0  0  0  0  0  0  0  0  0  0  0  0
   -9.0780   19.2400  -32.1390 C   0  0  0  0  0  0  0  0  0  0  0  0
   -8.5530   20.4120  -32.6910 C   0  0  0  0  0  0  0  0  0  0  0  0
   -7.1680   20.5680  -32.8130 C   0  0  0  0  0  0  0  0  0  0  0  0
   -3.4680   24.5880  -30.2310 C   0  0  0  0  0  0  0  0  0  0  0  0
   -4.4220   25.1670  -30.8170 O   0  0  0  0  0  0  0  0  0  0  0  0
   -2.7390   25.2820  -29.3280 N   0  0  0  0  0  0  0  0  0  0  0  0
   -1.6950   24.7360  -28.6600 C   0  0  0  0  0  0  0  0  0  0  0  0
   -0.9810   25.5270  -27.7510 C   0  0  0  0  0  0  0  0  0  0  0  0
    0.1080   24.9950  -27.0620 C   0  0  0  0  0  0  0  0  0  0  0  0
    0.4950   23.6760  -27.2840 C   0  0  0  0  0  0  0  0  0  0  0  0
   -0.2120   22.8740  -28.1870 C   0  0  0  0  0  0  0  0  0  0  0  0
   -1.3340   23.3860  -28.8810 C   0  0  0  0  0  0  0  0  0  0  0  0
   -3.0026   18.9768  -25.2407 H   0  0  0  0  0  0  0  0  0  0  0  0
   -4.0884   19.0901  -26.6672 H   0  0  0  0  0  0  0  0  0  0  0  0
   -2.7244   17.9212  -26.6672 H   0  0  0  0  0  0  0  0  0  0  0  0
   -2.7062   20.9178  -27.0655 H   0  0  0  0  0  0  0  0  0  0  0  0
   -1.2824   20.1407  -26.2795 H   0  0  0  0  0  0  0  0  0  0  0  0
    0.1293   19.1774  -27.2831 H   0  0  0  0  0  0  0  0  0  0  0  0
   -0.8075   17.7333  -27.7869 H   0  0  0  0  0  0  0  0  0  0  0  0
    1.2015   18.2144  -29.2511 H   0  0  0  0  0  0  0  0  0  0  0  0
   -0.3548   18.1930  -30.1430 H   0  0  0  0  0  0  0  0  0  0  0  0
    0.9381   20.7381  -31.7037 H   0  0  0  0  0  0  0  0  0  0  0  0
   -0.0112   19.2099  -31.6305 H   0  0  0  0  0  0  0  0  0  0  0  0
   -0.9486   21.9861  -31.7577 H   0  0  0  0  0  0  0  0  0  0  0  0
   -1.8651   20.4406  -31.9591 H   0  0  0  0  0  0  0  0  0  0  0  0
   -2.6740   20.6210  -29.9330 H   0  0  0  0  0  0  0  0  0  0  0  0
   -1.1960   20.8360  -29.2410 H   0  0  0  0  0  0  0  0  0  0  0  0
   -4.7788   23.1887  -31.9256 H   0  0  0  0  0  0  0  0  0  0  0  0
   -3.3705   22.1341  -32.3324 H   0  0  0  0  0  0  0  0  0  0  0  0
   -4.5772   21.3440  -29.7842 H   0  0  0  0  0  0  0  0  0  0  0  0
   -5.7947   21.3409  -31.1101 H   0  0  0  0  0  0  0  0  0  0  0  0
   -4.6159   20.4363  -33.3573 H   0  0  0  0  0  0  0  0  0  0  0  0
   -4.4063   18.7079  -32.8719 H   0  0  0  0  0  0  0  0  0  0  0  0
   -6.1633   17.5744  -31.4959 H   0  0  0  0  0  0  0  0  0  0  0  0
   -8.6343   17.3047  -31.2747 H   0  0  0  0  0  0  0  0  0  0  0  0
  -10.1668   19.1168  -32.0427 H   0  0  0  0  0  0  0  0  0  0  0  0
   -9.2286   21.2114  -33.0294 H   0  0  0  0  0  0  0  0  0  0  0  0
   -6.7574   21.4907  -33.2489 H   0  0  0  0  0  0  0  0  0  0  0  0
   -1.2805   26.5716  -27.5801 H   0  0  0  0  0  0  0  0  0  0  0  0
    0.6614   25.6171  -26.3432 H   0  0  0  0  0  0  0  0  0  0  0  0
    1.3611   23.2622  -26.7467 H   0  0  0  0  0  0  0  0  0  0  0  0
    0.1075   21.8356  -28.3590 H   0  0  0  0  0  0  0  0  0  0  0  0
  1  2  1  0
  2  3  1  0
  3  4  1  0
  4  5  1  0
  5  6  1  0
  6  7  1  0
  7  8  1  0
  8  9  1  0
  9 10  1  0
 10 11  2  0
 11 12  1  0
 12 13  1  0
 13 14  1  0
 14 15  1  0
 15 16  1  0
 16 17  2  0
 17 18  1  0
 18 19  2  0
 19 20  1  0
 20 21  2  0
 11 22  1  0
 22 23  2  0
 22 24  1  0
 24 25  1  0
 25 26  2  0
 26 27  1  0
 27 28  2  0
 28 29  1  0
 29 30  2  0
 30 10  1  0
 21 16  1  0
 30 25  1  0
  1 31  1  0
  1 32  1  0
  1 33  1  0
  2 34  1  0
  2 35  1  0
  4 36  1  0
  4 37  1  0
  5 38  1  0
  5 39  1  0
  7 40  1  0
  7 41  1  0
  8 42  1  0
  8 43  1  0
  9 44  1  0
  9 45  1  0
 12 46  1  0
 12 47  1  0
 13 48  1  0
 13 49  1  0
 15 50  1  0
 15 51  1  0
 17 52  1  0
 18 53  1  0
 19 54  1  0
 20 55  1  0
 21 56  1  0
 26 57  1  0
 27 58  1  0
 28 59  1  0
 29 60  1  0
M  CHG  2   9   1  24  -1
M  END
>  <UniqueID>  (2) 
2

>  <SMILES>  (2) 
CCOCCOCC[NH2+]c1c(CCOCc2ccccc2)c(=O)[n-]c2ccccc12

>  <Energy>  (2) 
69.8547283340314

>  <Genealogy>  (2) 
CCOCCOCC[NH2+]c1c(CCOCc2ccccc2)c(=O)[n-]c2ccccc12 (protonated)
CCOCCOCC[NH2+]c1c(CCOCc2ccccc2)c(=O)[n-]c2ccccc12 (3D coordinates assigned)
CCOCCOCC[NH2+]c1c(CCOCc2ccccc2)c(=O)[n-]c2ccccc12 (optimized conformer: 69.8547283340314 kcal/mol)

>  <smiles>  (2) 
CCOCCOCCNc1c(CCOCc2ccccc2)c(=O)[nH]c2ccccc12

>  <score_type>  (2) 
oracle

>  <origin>  (2) 
adg

>  <m_score__min__energy>  (2) 
-9.0299999999999994

>  <m_primary>  (2) 
energy

$$$$
2:0
     RDKit          3D

 41 43  0  0  0  0  0  0  0  0999 V2000
   -2.7160   24.4470  -29.3330 C   0  0  0  0  0  0  0  0  0  0  0  0
   -3.5440   24.9080  -30.3960 O   0  0  0  0  0  0  0  0  0  0  0  0
   -4.7440   24.2970  -30.7870 C   0  0  0  0  0  0  0  0  0  0  0  0
   -4.6760   23.1370  -31.5660 C   0  0  0  0  0  0  0  0  0  0  0  0
   -5.8440   22.4950  -31.9880 C   0  0  0  0  0  0  0  0  0  0  0  0
   -7.1000   23.0030  -31.6370 C   0  0  0  0  0  0  0  0  0  0  0  0
   -8.2390   22.3330  -32.1010 O   0  0  0  0  0  0  0  0  0  0  0  0
   -9.0710   21.4930  -31.3070 C   0  0  0  0  0  0  0  0  0  0  0  0
   -8.7160   20.0270  -31.5670 C   0  0  0  0  0  0  0  0  0  0  0  0
   -7.5910   19.8050  -32.9960 S   0  0  0  0  0  0  0  0  0  0  0  0
   -6.7570   18.3400  -32.3700 C   0  0  0  0  0  0  0  0  0  0  0  0
   -6.8180   17.9630  -31.0810 N   0  0  0  0  0  0  0  0  0  0  0  0
   -6.1060   16.8530  -30.9930 N   0  0  0  0  0  0  0  0  0  0  0  0
   -5.6230   16.5460  -32.2120 C   0  0  0  0  0  0  0  0  0  0  0  0
   -4.7850   15.2930  -32.4120 C   0  0  0  0  0  0  0  0  0  0  0  0
   -3.5000   15.5160  -33.1920 C   0  0  0  0  0  0  0  0  0  0  0  0
   -4.5890   14.6210  -33.7630 C   0  0  0  0  0  0  0  0  0  0  0  0
   -6.0150   17.4860  -33.1150 N   0  0  0  0  0  0  0  0  0  0  0  0
   -5.8240   17.5530  -34.5650 C   0  0  0  0  0  0  0  0  0  0  0  0
   -7.1740   24.1640  -30.8450 C   0  0  0  0  0  0  0  0  0  0  0  0
   -6.0060   24.8070  -30.4260 C   0  0  0  0  0  0  0  0  0  0  0  0
   -3.1792   24.7049  -28.3692 H   0  0  0  0  0  0  0  0  0  0  0  0
   -2.6015   23.3553  -29.4044 H   0  0  0  0  0  0  0  0  0  0  0  0
   -1.7277   24.9247  -29.4044 H   0  0  0  0  0  0  0  0  0  0  0  0
   -3.6954   22.7266  -31.8488 H   0  0  0  0  0  0  0  0  0  0  0  0
   -5.7753   21.5839  -32.6004 H   0  0  0  0  0  0  0  0  0  0  0  0
   -8.9159   21.7243  -30.2428 H   0  0  0  0  0  0  0  0  0  0  0  0
  -10.1246   21.6666  -31.5712 H   0  0  0  0  0  0  0  0  0  0  0  0
   -8.2270   19.6203  -30.6695 H   0  0  0  0  0  0  0  0  0  0  0  0
   -9.6520   19.4983  -31.8001 H   0  0  0  0  0  0  0  0  0  0  0  0
   -5.9640   16.3130  -30.1100 H   0  0  0  0  0  0  0  0  0  0  0  0
   -5.1085   14.8886  -31.4416 H   0  0  0  0  0  0  0  0  0  0  0  0
   -3.2974   16.4957  -33.6494 H   0  0  0  0  0  0  0  0  0  0  0  0
   -2.4283   15.3951  -32.9757 H   0  0  0  0  0  0  0  0  0  0  0  0
   -5.1744   14.9534  -34.6329 H   0  0  0  0  0  0  0  0  0  0  0  0
   -4.6318   13.5850  -34.1304 H   0  0  0  0  0  0  0  0  0  0  0  0
   -4.8069   17.9098  -34.7848 H   0  0  0  0  0  0  0  0  0  0  0  0
   -5.9635   16.5523  -34.9998 H   0  0  0  0  0  0  0  0  0  0  0  0
   -6.5581   18.2473  -34.9998 H   0  0  0  0  0  0  0  0  0  0  0  0
   -8.1554   24.5671  -30.5545 H   0  0  0  0  0  0  0  0  0  0  0  0
   -6.0729   25.7165  -29.8108 H   0  0  0  0  0  0  0  0  0  0  0  0
  1  2  1  0
  2  3  1  0
  3  4  2  0
  4  5  1  0
  5  6  2  0
  6  7  1  0
  7  8  1  0
  8  9  1  0
  9 10  1  0
 10 11  1  0
 11 12  2  0
 12 13  1  0
 13 14  2  0
 14 15  1  0
 15 16  1  0
 16 17  1  0
 14 18  1  0
 18 19  1  0
  6 20  1  0
 20 21  2  0
 21  3  1  0
 18 11  1  0
 17 15  1  0
  1 22  1  0
  1 23  1  0
  1 24  1  0
  4 25  1  0
  5 26  1  0
  8 27  1  0
  8 28  1  0
  9 29  1  0
  9 30  1  0
 13 31  1  0
 15 32  1  0
 16 33  1  0
 16 34  1  0
 17 35  1  0
 17 36  1  0
 19 37  1  0
 19 38  1  0
 19 39  1  0
 20 40  1  0
 21 41  1  0
M  CHG  1  13   1
M  END
>  <UniqueID>  (3) 
3

>  <SMILES>  (3) 
COc1ccc(OCCSc2n[nH+]c(C3CC3)n2C)cc1

>  <Energy>  (3) 
340.3721498651953

>  <Genealogy>  (3) 
COc1ccc(OCCSc2n[nH+]c(C3CC3)n2C)cc1 (protonated)
COc1ccc(OCCSc2n[nH+]c(C3CC3)n2C)cc1 (3D coordinates assigned)
COc1ccc(OCCSc2n[nH+]c(C3CC3)n2C)cc1 (nonaromatic ring conformer: 340.3721498651953 kcal/mol)

>  <smiles>  (3) 
COc1ccc(OCCSc2nnc(C3CC3)n2C)cc1

>  <score_type>  (3) 
oracle

>  <origin>  (3) 
adg

>  <m_score__min__energy>  (3) 
-7.2400000000000002

>  <m_primary>  (3) 
energy

$$$$
3:0
     RDKit          3D

 65 68  0  0  0  0  0  0  0  0999 V2000
   -1.1590   21.1070  -33.8270 C   0  0  0  0  0  0  0  0  0  0  0  0
   -1.4870   21.0420  -32.3960 N   0  0  0  0  0  0  0  0  0  0  0  0
   -0.2820   21.3200  -31.5960 C   0  0  0  0  0  0  0  0  0  0  0  0
   -2.0700   19.7260  -32.0510 C   0  0  0  0  0  0  0  0  0  0  0  0
   -3.5850   19.6870  -32.3460 C   0  0  0  0  0  0  0  0  0  0  0  0
   -4.1290   21.0060  -32.7320 N   0  0  0  0  0  0  0  0  0  0  0  0
   -5.3450   21.3600  -32.0010 C   0  0  0  0  0  0  0  0  0  0  0  0
   -6.5010   20.5510  -32.1150 C   0  0  0  0  0  0  0  0  0  0  0  0
   -6.4140   19.1600  -32.3520 C   0  0  0  0  0  0  0  0  0  0  0  0
   -7.5640   18.3850  -32.4770 C   0  0  0  0  0  0  0  0  0  0  0  0
   -8.8170   18.9690  -32.3450 C   0  0  0  0  0  0  0  0  0  0  0  0
   -8.9290   20.3320  -32.0840 C   0  0  0  0  0  0  0  0  0  0  0  0
   -7.7780   21.1520  -31.9720 C   0  0  0  0  0  0  0  0  0  0  0  0
   -7.8760   22.5060  -31.7390 N   0  0  0  0  0  0  0  0  0  0  0  0
   -9.1560   23.2080  -31.9810 C   0  0  0  0  0  0  0  0  0  0  0  0
   -6.7780   23.1990  -31.2710 C   0  0  0  0  0  0  0  0  0  0  0  0
   -6.9100   24.4970  -30.7220 C   0  0  0  0  0  0  0  0  0  0  0  0
   -5.8030   25.1990  -30.2610 C   0  0  0  0  0  0  0  0  0  0  0  0
   -4.5490   24.6080  -30.2700 C   0  0  0  0  0  0  0  0  0  0  0  0
   -4.3760   23.3100  -30.7640 C   0  0  0  0  0  0  0  0  0  0  0  0
   -3.1220   22.6590  -30.5190 N   0  0  0  0  0  0  0  0  0  0  0  0
   -2.0690   23.2650  -29.7030 C   0  0  0  0  0  0  0  0  0  0  0  0
   -2.2450   22.9120  -28.2190 C   0  0  0  0  0  0  0  0  0  0  0  0
   -0.9630   22.3880  -27.5500 C   0  0  0  0  0  0  0  0  0  0  0  0
   -0.9980   20.9280  -27.3840 N   0  0  0  0  0  0  0  0  0  0  0  0
    0.0070   20.1640  -27.9130 C   0  0  0  0  0  0  0  0  0  0  0  0
   -0.0200   18.7720  -27.7920 C   0  0  0  0  0  0  0  0  0  0  0  0
   -1.0820   18.1640  -27.1260 C   0  0  0  0  0  0  0  0  0  0  0  0
   -2.1010   18.9480  -26.5880 C   0  0  0  0  0  0  0  0  0  0  0  0
   -2.0420   20.3370  -26.7240 C   0  0  0  0  0  0  0  0  0  0  0  0
   -5.4800   22.6100  -31.3320 C   0  0  0  0  0  0  0  0  0  0  0  0
   -0.0865   21.3195  -33.9481 H   0  0  0  0  0  0  0  0  0  0  0  0
   -1.3979   20.1440  -34.3020 H   0  0  0  0  0  0  0  0  0  0  0  0
   -1.7471   21.9061  -34.3020 H   0  0  0  0  0  0  0  0  0  0  0  0
   -0.5309   21.2626  -30.5261 H   0  0  0  0  0  0  0  0  0  0  0  0
    0.4943   20.5774  -31.8322 H   0  0  0  0  0  0  0  0  0  0  0  0
    0.0905   22.3277  -31.8322 H   0  0  0  0  0  0  0  0  0  0  0  0
   -1.5696   18.9462  -32.6439 H   0  0  0  0  0  0  0  0  0  0  0  0
   -1.9220   19.5529  -30.9748 H   0  0  0  0  0  0  0  0  0  0  0  0
   -3.7645   18.9788  -33.1683 H   0  0  0  0  0  0  0  0  0  0  0  0
   -4.0939   19.3773  -31.4213 H   0  0  0  0  0  0  0  0  0  0  0  0
   -4.2880   21.0420  -33.7600 H   0  0  0  0  0  0  0  0  0  0  0  0
   -3.3590   21.6880  -32.5650 H   0  0  0  0  0  0  0  0  0  0  0  0
   -5.4260   18.6843  -32.4387 H   0  0  0  0  0  0  0  0  0  0  0  0
   -7.4798   17.3073  -32.6808 H   0  0  0  0  0  0  0  0  0  0  0  0
   -9.7229   18.3534  -32.4469 H   0  0  0  0  0  0  0  0  0  0  0  0
   -9.9264   20.7797  -31.9628 H   0  0  0  0  0  0  0  0  0  0  0  0
   -9.6219   23.4635  -31.0178 H   0  0  0  0  0  0  0  0  0  0  0  0
   -8.9669   24.1287  -32.5525 H   0  0  0  0  0  0  0  0  0  0  0  0
   -9.8307   22.5537  -32.5525 H   0  0  0  0  0  0  0  0  0  0  0  0
   -7.9067   24.9582  -30.6592 H   0  0  0  0  0  0  0  0  0  0  0  0
   -5.9220   26.2269  -29.8878 H   0  0  0  0  0  0  0  0  0  0  0  0
   -3.6817   25.1645  -29.8852 H   0  0  0  0  0  0  0  0  0  0  0  0
   -2.9480   21.7380  -30.9750 H   0  0  0  0  0  0  0  0  0  0  0  0
   -1.0914   22.8955  -30.0463 H   0  0  0  0  0  0  0  0  0  0  0  0
   -2.1299   24.3580  -29.8109 H   0  0  0  0  0  0  0  0  0  0  0  0
   -2.5711   23.8159  -27.6837 H   0  0  0  0  0  0  0  0  0  0  0  0
   -2.9875   22.1020  -28.1679 H   0  0  0  0  0  0  0  0  0  0  0  0
   -0.0987   22.6557  -28.1756 H   0  0  0  0  0  0  0  0  0  0  0  0
   -0.8829   22.8461  -26.5531 H   0  0  0  0  0  0  0  0  0  0  0  0
    0.8429   20.6497  -28.4377 H   0  0  0  0  0  0  0  0  0  0  0  0
    0.7898   18.1620  -28.2187 H   0  0  0  0  0  0  0  0  0  0  0  0
   -1.1161   17.0692  -27.0252 H   0  0  0  0  0  0  0  0  0  0  0  0
   -2.9441   18.4773  -26.0611 H   0  0  0  0  0  0  0  0  0  0  0  0
   -2.8409   20.9612  -26.2973 H   0  0  0  0  0  0  0  0  0  0  0  0
  1  2  1  0
  2  3  1  0
  2  4  1  0
  4  5  1  0
  5  6  1  0
  6  7  1  0
  7  8  2  0
  8  9  1  0
  9 10  2  0
 10 11  1  0
 11 12  2  0
 12 13  1  0
 13 14  2  0
 14 15  1  0
 14 16  1  0
 16 17  2  0
 17 18  1  0
 18 19  2  0
 19 20  1  0
 20 21  1  0
 21 22  1  0
 22 23  1  0
 23 24  1  0
 24 25  1  0
 25 26  2  0
 26 27  1  0
 27 28  2  0
 28 29  1  0
 29 30  2  0
 20 31  2  0
 31  7  1  0
 13  8  1  0
 31 16  1  0
 30 25  1  0
  1 32  1  0
  1 33  1  0
  1 34  1  0
  3 35  1  0
  3 36  1  0
  3 37  1  0
  4 38  1  0
  4 39  1  0
  5 40  1  0
  5 41  1  0
  6 42  1  0
  6 43  1  0
  9 44  1  0
 10 45  1  0
 11 46  1  0
 12 47  1  0
 15 48  1  0
 15 49  1  0
 15 50  1  0
 17 51  1  0
 18 52  1  0
 19 53  1  0
 21 54  1  0
 22 55  1  0
 22 56  1  0
 23 57  1  0
 23 58  1  0
 24 59  1  0
 24 60  1  0
 26 61  1  0
 27 62  1  0
 28 63  1  0
 29 64  1  0
 30 65  1  0
M  CHG  3   6   1  14   1  25   1
M  END
>  <UniqueID>  (4) 
4

>  <SMILES>  (4) 
CN(C)CC[NH2+]c1c2ccccc2[n+](C)c2cccc(NCCC[n+]3ccccc3)c12

>  <Energy>  (4) 
104.1941245605836

>  <Genealogy>  (4) 
CN(C)CC[NH2+]c1c2ccccc2[n+](C)c2cccc(NCCC[n+]3ccccc3)c12 (protonated)
CN(C)CC[NH2+]c1c2ccccc2[n+](C)c2cccc(NCCC[n+]3ccccc3)c12 (3D coordinates assigned)
CN(C)CC[NH2+]c1c2ccccc2[n+](C)c2cccc(NCCC[n+]3ccccc3)c12 (optimized conformer: 104.1941245605836 kcal/mol)

>  <smiles>  (4) 
CN(C)CCNc1c2ccccc2[n+](C)c2cccc(NCCC[n+]3ccccc3)c12

>  <score_type>  (4) 
oracle

>  <origin>  (4) 
adg

>  <m_score__min__energy>  (4) 
-7.1600000000000001

>  <m_primary>  (4) 
energy

$$$$
4:0
     RDKit          3D

 46 48  0  0  0  0  0  0  0  0999 V2000
   -6.8280   24.6520  -29.7880 C   0  0  0  0  0  0  0  0  0  0  0  0
   -6.2690   23.5760  -30.6080 N   0  0  0  0  0  0  0  0  0  0  0  0
   -4.9740   23.3930  -30.9680 C   0  0  0  0  0  0  0  0  0  0  0  0
   -3.8350   24.1780  -30.4670 C   0  0  0  0  0  0  0  0  0  0  0  0
   -3.9130   25.4340  -30.4490 O   0  0  0  0  0  0  0  0  0  0  0  0
   -2.6250   23.5450  -30.0320 N   0  0  0  0  0  0  0  0  0  0  0  0
   -2.5610   22.5460  -28.9670 C   0  0  0  0  0  0  0  0  0  0  0  0
   -2.4630   23.2350  -27.5950 C   0  0  0  0  0  0  0  0  0  0  0  0
   -2.5770   24.7180  -27.6190 N   0  0  0  0  0  0  0  0  0  0  0  0
   -3.2370   25.3030  -26.4240 C   0  0  0  0  0  0  0  0  0  0  0  0
   -2.2400   25.7930  -25.3680 C   0  0  0  0  0  0  0  0  0  0  0  0
   -1.3050   26.6760  -25.9430 O   0  0  0  0  0  0  0  0  0  0  0  0
   -0.5000   25.9630  -26.8530 C   0  0  0  0  0  0  0  0  0  0  0  0
   -1.3300   25.4210  -28.0290 C   0  0  0  0  0  0  0  0  0  0  0  0
   -4.8510   22.2900  -31.8000 C   0  0  0  0  0  0  0  0  0  0  0  0
   -6.1240   21.7720  -31.9170 C   0  0  0  0  0  0  0  0  0  0  0  0
   -6.9700   22.5920  -31.2070 C   0  0  0  0  0  0  0  0  0  0  0  0
   -8.4330   22.3030  -31.0160 C   0  0  0  0  0  0  0  0  0  0  0  0
   -8.9300   21.2830  -32.0590 C   0  0  0  0  0  0  0  0  0  0  0  0
   -7.9510   20.1010  -32.2130 C   0  0  0  0  0  0  0  0  0  0  0  0
   -6.5670   20.5750  -32.6990 C   0  0  0  0  0  0  0  0  0  0  0  0
   -6.7002   24.4060  -28.7235 H   0  0  0  0  0  0  0  0  0  0  0  0
   -6.3049   25.5934  -30.0121 H   0  0  0  0  0  0  0  0  0  0  0  0
   -7.8990   24.7652  -30.0121 H   0  0  0  0  0  0  0  0  0  0  0  0
   -3.4681   21.9246  -28.9972 H   0  0  0  0  0  0  0  0  0  0  0  0
   -1.6699   21.9188  -29.1173 H   0  0  0  0  0  0  0  0  0  0  0  0
   -3.2701   22.8423  -26.9591 H   0  0  0  0  0  0  0  0  0  0  0  0
   -1.4549   23.0135  -27.2146 H   0  0  0  0  0  0  0  0  0  0  0  0
   -3.2480   24.8910  -28.4070 H   0  0  0  0  0  0  0  0  0  0  0  0
   -3.8533   26.1553  -26.7461 H   0  0  0  0  0  0  0  0  0  0  0  0
   -3.8424   24.5096  -25.9614 H   0  0  0  0  0  0  0  0  0  0  0  0
   -2.7867   26.3151  -24.5689 H   0  0  0  0  0  0  0  0  0  0  0  0
   -1.7031   24.9255  -24.9566 H   0  0  0  0  0  0  0  0  0  0  0  0
    0.2793   26.6339  -27.2437 H   0  0  0  0  0  0  0  0  0  0  0  0
   -0.0502   25.1100  -26.3237 H   0  0  0  0  0  0  0  0  0  0  0  0
   -1.6067   26.2668  -28.6755 H   0  0  0  0  0  0  0  0  0  0  0  0
   -0.7026   24.6796  -28.5454 H   0  0  0  0  0  0  0  0  0  0  0  0
   -3.9315   21.9086  -32.2681 H   0  0  0  0  0  0  0  0  0  0  0  0
   -8.5911   21.8935  -30.0074 H   0  0  0  0  0  0  0  0  0  0  0  0
   -8.9967   23.2392  -31.1418 H   0  0  0  0  0  0  0  0  0  0  0  0
   -9.9090   20.8957  -31.7404 H   0  0  0  0  0  0  0  0  0  0  0  0
   -9.0052   21.7945  -33.0299 H   0  0  0  0  0  0  0  0  0  0  0  0
   -7.8366   19.6021  -31.2393 H   0  0  0  0  0  0  0  0  0  0  0  0
   -8.3614   19.4075  -32.9618 H   0  0  0  0  0  0  0  0  0  0  0  0
   -5.8373   19.7630  -32.5641 H   0  0  0  0  0  0  0  0  0  0  0  0
   -6.6351   20.8474  -33.7625 H   0  0  0  0  0  0  0  0  0  0  0  0
  1  2  1  0
  2  3  1  0
  3  4  1  0
  4  5  2  0
  4  6  1  0
  6  7  1  0
  7  8  1  0
  8  9  1  0
  9 10  1  0
 10 11  1  0
 11 12  1  0
 12 13  1  0
 13 14  1  0
  3 15  2  0
 15 16  1  0
 16 17  2  0
 17 18  1  0
 18 19  1  0
 19 20  1  0
 20 21  1  0
 17  2  1  0
 14  9  1  0
 21 16  1  0
  1 22  1  0
  1 23  1  0
  1 24  1  0
  7 25  1  0
  7 26  1  0
  8 27  1  0
  8 28  1  0
  9 29  1  0
 10 30  1  0
 10 31  1  0
 11 32  1  0
 11 33  1  0
 13 34  1  0
 13 35  1  0
 14 36  1  0
 14 37  1  0
 15 38  1  0
 18 39  1  0
 18 40  1  0
 19 41  1  0
 19 42  1  0
 20 43  1  0
 20 44  1  0
 21 45  1  0
 21 46  1  0
M  CHG  2   6  -1   9   1
M  END
>  <UniqueID>  (5) 
5

>  <SMILES>  (5) 
Cn1c(C(=O)[N-]CC[NH+]2CCOCC2)cc2c1CCCC2

>  <Energy>  (5) 
84.61998240205382

>  <Genealogy>  (5) 
Cn1c(C(=O)[N-]CC[NH+]2CCOCC2)cc2c1CCCC2 (protonated)
Cn1c(C(=O)[N-]CC[NH+]2CCOCC2)cc2c1CCCC2 (3D coordinates assigned)
Cn1c(C(=O)[N-]CC[NH+]2CCOCC2)cc2c1CCCC2 (nonaromatic ring conformer: 84.61998240205382 kcal/mol)

>  <smiles>  (5) 
Cn1c(C(=O)NCCN2CCOCC2)cc2c1CCCC2

>  <score_type>  (5) 
oracle

>  <origin>  (5) 
adg

>  <m_score__min__energy>  (5) 
-7.7999999999999998

>  <m_primary>  (5) 
energy

$$$$
5:0
     RDKit          3D

 32 33  0  0  0  0  0  0  0  0999 V2000
   -5.5050   17.4390  -33.5720 C   0  0  0  0  0  0  0  0  0  0  0  0
   -4.5850   18.5760  -33.5410 C   0  0  0  0  0  0  0  0  0  0  0  0
   -3.8270   19.5130  -33.5150 C   0  0  0  0  0  0  0  0  0  0  0  0
   -2.9070   20.6490  -33.4840 C   0  0  0  0  0  0  0  0  0  0  0  0
   -3.4640   21.6680  -32.6750 O   0  0  0  0  0  0  0  0  0  0  0  0
   -4.5570   22.2120  -33.3010 N   0  0  0  0  0  0  0  0  0  0  0  0
   -5.5120   22.6550  -32.3130 C   0  0  0  0  0  0  0  0  0  0  0  0
   -5.2400   23.7980  -31.6280 N   0  0  0  0  0  0  0  0  0  0  0  0
   -6.0830   24.2990  -30.6940 C   0  0  0  0  0  0  0  0  0  0  0  0
   -5.7370   25.5650  -29.9770 C   0  0  0  0  0  0  0  0  0  0  0  0
   -7.2740   23.6360  -30.4230 C   0  0  0  0  0  0  0  0  0  0  0  0
   -7.5690   22.4620  -31.1220 C   0  0  0  0  0  0  0  0  0  0  0  0
   -8.7720   21.7890  -30.8500 C   0  0  0  0  0  0  0  0  0  0  0  0
   -9.0780   20.6210  -31.5380 C   0  0  0  0  0  0  0  0  0  0  0  0
   -8.1910   20.1300  -32.4880 C   0  0  0  0  0  0  0  0  0  0  0  0
   -7.0010   20.8130  -32.7420 C   0  0  0  0  0  0  0  0  0  0  0  0
   -6.6880   21.9710  -32.0670 N   0  0  0  0  0  0  0  0  0  0  0  0
   -5.7494   17.1369  -32.5429 H   0  0  0  0  0  0  0  0  0  0  0  0
   -6.4269   17.7275  -34.0982 H   0  0  0  0  0  0  0  0  0  0  0  0
   -5.0305   16.5976  -34.0982 H   0  0  0  0  0  0  0  0  0  0  0  0
   -1.9413   20.3308  -33.0643 H   0  0  0  0  0  0  0  0  0  0  0  0
   -2.7484   21.0281  -34.5044 H   0  0  0  0  0  0  0  0  0  0  0  0
   -4.2370   23.0340  -33.8610 H   0  0  0  0  0  0  0  0  0  0  0  0
   -5.0030   21.5570  -33.9910 H   0  0  0  0  0  0  0  0  0  0  0  0
   -5.7833   25.3958  -28.8911 H   0  0  0  0  0  0  0  0  0  0  0  0
   -4.7203   25.8784  -30.2563 H   0  0  0  0  0  0  0  0  0  0  0  0
   -6.4530   26.3520  -30.2563 H   0  0  0  0  0  0  0  0  0  0  0  0
   -7.9734   24.0289  -29.6704 H   0  0  0  0  0  0  0  0  0  0  0  0
   -9.4683   22.1848  -30.0960 H   0  0  0  0  0  0  0  0  0  0  0  0
  -10.0178   20.0879  -31.3315 H   0  0  0  0  0  0  0  0  0  0  0  0
   -8.4259   19.2066  -33.0377 H   0  0  0  0  0  0  0  0  0  0  0  0
   -6.3014   20.4194  -33.4942 H   0  0  0  0  0  0  0  0  0  0  0  0
  1  2  1  0
  2  3  3  0
  3  4  1  0
  4  5  1  0
  5  6  1  0
  6  7  1  0
  7  8  2  0
  8  9  1  0
  9 10  1  0
  9 11  2  0
 11 12  1  0
 12 13  2  0
 13 14  1  0
 14 15  2  0
 15 16  1  0
 16 17  2  0
 17  7  1  0
 17 12  1  0
  1 18  1  0
  1 19  1  0
  1 20  1  0
  4 21  1  0
  4 22  1  0
  6 23  1  0
  6 24  1  0
 10 25  1  0
 10 26  1  0
 10 27  1  0
 11 28  1  0
 13 29  1  0
 14 30  1  0
 15 31  1  0
 16 32  1  0
M  CHG  2   6   1  17   1
M  END
>  <UniqueID>  (6) 
6

>  <SMILES>  (6) 
CC#CCO[NH2+]c1nc(C)cc2cccc[n+]12

>  <Energy>  (6) 
37.01845269238472

>  <Genealogy>  (6) 
CC#CCO[NH2+]c1nc(C)cc2cccc[n+]12 (protonated)
CC#CCO[NH2+]c1nc(C)cc2cccc[n+]12 (3D coordinates assigned)
CC#CCO[NH2+]c1nc(C)cc2cccc[n+]12 (optimized conformer: 37.01845269238472 kcal/mol)

>  <smiles>  (6) 
CC#CCONc1nc(C)cc2cccc[n+]12

>  <score_type>  (6) 
oracle

>  <origin>  (6) 
adg

>  <m_score__min__energy>  (6) 
-5.6900000000000004

>  <m_primary>  (6) 
energy

$$$$
6:0
     RDKit          3D

 47 48  0  0  0  0  0  0  0  0999 V2000
   -6.3100   17.5160  -31.8120 C   0  0  0  0  0  0  0  0  0  0  0  0
   -6.4700   17.7620  -33.3030 C   0  0  0  0  0  0  0  0  0  0  0  0
   -6.5130   19.1650  -33.5520 O   0  0  0  0  0  0  0  0  0  0  0  0
   -7.3610   20.0690  -32.8920 C   0  0  0  0  0  0  0  0  0  0  0  0
   -8.7220   19.7780  -32.6630 C   0  0  0  0  0  0  0  0  0  0  0  0
   -9.5430   20.7010  -32.0110 C   0  0  0  0  0  0  0  0  0  0  0  0
   -9.0220   21.9230  -31.5840 C   0  0  0  0  0  0  0  0  0  0  0  0
   -7.6770   22.2250  -31.8030 C   0  0  0  0  0  0  0  0  0  0  0  0
   -6.8350   21.3030  -32.4480 C   0  0  0  0  0  0  0  0  0  0  0  0
   -5.3920   21.6710  -32.7010 C   0  0  0  0  0  0  0  0  0  0  0  0
   -4.4670   21.1250  -31.6050 C   0  0  0  0  0  0  0  0  0  0  0  0
   -3.9780   22.2000  -30.7270 N   0  0  0  0  0  0  0  0  0  0  0  0
   -4.7170   22.2860  -29.4560 C   0  0  0  0  0  0  0  0  0  0  0  0
   -5.7330   23.4370  -29.4490 C   0  0  0  0  0  0  0  0  0  0  0  0
   -5.1690   24.7810  -30.4830 S   0  0  0  0  0  0  0  0  0  0  0  0
   -5.8580   26.0460  -30.0580 O   0  0  0  0  0  0  0  0  0  0  0  0
   -5.4920   24.5170  -31.9280 O   0  0  0  0  0  0  0  0  0  0  0  0
   -3.4570   24.9920  -30.2950 N   0  0  0  0  0  0  0  0  0  0  0  0
   -2.6900   24.6150  -29.1440 C   0  0  0  0  0  0  0  0  0  0  0  0
   -3.2500   24.5530  -27.8530 C   0  0  0  0  0  0  0  0  0  0  0  0
   -2.4590   24.1830  -26.7600 C   0  0  0  0  0  0  0  0  0  0  0  0
   -1.1100   23.8660  -26.9430 C   0  0  0  0  0  0  0  0  0  0  0  0
   -0.0350   23.3600  -25.4490 Br  0  0  0  0  0  0  0  0  0  0  0  0
   -0.5500   23.9230  -28.2230 C   0  0  0  0  0  0  0  0  0  0  0  0
   -1.3370   24.2950  -29.3180 C   0  0  0  0  0  0  0  0  0  0  0  0
   -6.8262   18.3097  -31.2520 H   0  0  0  0  0  0  0  0  0  0  0  0
   -6.7469   16.5404  -31.5524 H   0  0  0  0  0  0  0  0  0  0  0  0
   -5.2411   17.5198  -31.5524 H   0  0  0  0  0  0  0  0  0  0  0  0
   -5.6182   17.3202  -33.8408 H   0  0  0  0  0  0  0  0  0  0  0  0
   -7.4047   17.2991  -33.6524 H   0  0  0  0  0  0  0  0  0  0  0  0
   -9.1396   18.8178  -33.0001 H   0  0  0  0  0  0  0  0  0  0  0  0
  -10.6025   20.4641  -31.8338 H   0  0  0  0  0  0  0  0  0  0  0  0
   -9.6721   22.6492  -31.0741 H   0  0  0  0  0  0  0  0  0  0  0  0
   -7.2731   23.1918  -31.4683 H   0  0  0  0  0  0  0  0  0  0  0  0
   -5.0820   21.2530  -33.6701 H   0  0  0  0  0  0  0  0  0  0  0  0
   -5.3127   22.7681  -32.7018 H   0  0  0  0  0  0  0  0  0  0  0  0
   -5.0229   20.3940  -30.9995 H   0  0  0  0  0  0  0  0  0  0  0  0
   -3.5992   20.6533  -32.0892 H   0  0  0  0  0  0  0  0  0  0  0  0
   -4.0430   23.1130  -31.2350 H   0  0  0  0  0  0  0  0  0  0  0  0
   -5.2537   21.3395  -29.2942 H   0  0  0  0  0  0  0  0  0  0  0  0
   -3.9875   22.4764  -28.6550 H   0  0  0  0  0  0  0  0  0  0  0  0
   -6.6980   23.0696  -29.8283 H   0  0  0  0  0  0  0  0  0  0  0  0
   -5.8442   23.8053  -28.4185 H   0  0  0  0  0  0  0  0  0  0  0  0
   -4.3123   24.7962  -27.7038 H   0  0  0  0  0  0  0  0  0  0  0  0
   -2.9002   24.1414  -25.7532 H   0  0  0  0  0  0  0  0  0  0  0  0
    0.5116   23.6748  -28.3692 H   0  0  0  0  0  0  0  0  0  0  0  0
   -0.8906   24.3366  -30.3225 H   0  0  0  0  0  0  0  0  0  0  0  0
  1  2  1  0
  2  3  1  0
  3  4  1  0
  4  5  2  0
  5  6  1  0
  6  7  2  0
  7  8  1  0
  8  9  2  0
  9 10  1  0
 10 11  1  0
 11 12  1  0
 12 13  1  0
 13 14  1  0
 14 15  1  0
 15 16  2  0
 15 17  2  0
 15 18  1  0
 18 19  1  0
 19 20  2  0
 20 21  1  0
 21 22  2  0
 22 23  1  0
 22 24  1  0
 24 25  2  0
  9  4  1  0
 25 19  1  0
  1 26  1  0
  1 27  1  0
  1 28  1  0
  2 29  1  0
  2 30  1  0
  5 31  1  0
  6 32  1  0
  7 33  1  0
  8 34  1  0
 10 35  1  0
 10 36  1  0
 11 37  1  0
 11 38  1  0
 12 39  1  0
 13 40  1  0
 13 41  1  0
 14 42  1  0
 14 43  1  0
 20 44  1  0
 21 45  1  0
 24 46  1  0
 25 47  1  0
M  CHG  1  18  -1
M  END
>  <UniqueID>  (7) 
7

>  <SMILES>  (7) 
CCOc1ccccc1CCNCCS(=O)(=O)[N-]c1ccc(Br)cc1

>  <Energy>  (7) 
38.79242104188172

>  <Genealogy>  (7) 
CCOc1ccccc1CCNCCS(=O)(=O)[N-]c1ccc(Br)cc1 (protonated)
CCOc1ccccc1CCNCCS(=O)(=O)[N-]c1ccc(Br)cc1 (3D coordinates assigned)
CCOc1ccccc1CCNCCS(=O)(=O)[N-]c1ccc(Br)cc1 (optimized conformer: 38.79242104188172 kcal/mol)

>  <smiles>  (7) 
CCOc1ccccc1CCNCCS(=O)(=O)Nc1ccc(Br)cc1

>  <score_type>  (7) 
oracle

>  <origin>  (7) 
adg

>  <m_score__min__energy>  (7) 
-10.050000000000001

>  <m_primary>  (7) 
energy

$$$$
7:0
     RDKit          3D

 80 82  0  0  0  0  0  0  0  0999 V2000
   -2.7380   19.4900  -26.8180 C   0  0  0  0  0  0  0  0  0  0  0  0
   -2.0360   20.6790  -27.4720 C   0  0  0  0  0  0  0  0  0  0  0  0
   -2.8750   21.3230  -28.5890 C   0  0  0  0  0  0  0  0  0  0  0  0
   -2.1020   22.3950  -29.3750 C   0  0  0  0  0  0  0  0  0  0  0  0
   -2.8570   23.6780  -29.3940 N   0  0  0  0  0  0  0  0  0  0  0  0
   -3.8120   23.7110  -30.5380 C   0  0  0  0  0  0  0  0  0  0  0  0
   -4.7030   24.9710  -30.4660 C   0  0  0  0  0  0  0  0  0  0  0  0
   -6.0790   24.7610  -31.1280 C   0  0  0  0  0  0  0  0  0  0  0  0
   -6.4010   23.2670  -31.3000 C   0  0  0  0  0  0  0  0  0  0  0  0
   -6.1900   22.7850  -32.6830 N   0  0  0  0  0  0  0  0  0  0  0  0
   -5.9720   21.3440  -32.7300 C   0  0  0  0  0  0  0  0  0  0  0  0
   -4.6570   20.8280  -32.9360 C   0  0  0  0  0  0  0  0  0  0  0  0
   -3.5270   21.6880  -33.0290 C   0  0  0  0  0  0  0  0  0  0  0  0
   -2.2410   21.1780  -33.1870 C   0  0  0  0  0  0  0  0  0  0  0  0
   -2.0360   19.8070  -33.2600 C   0  0  0  0  0  0  0  0  0  0  0  0
   -3.1190   18.9400  -33.1870 C   0  0  0  0  0  0  0  0  0  0  0  0
   -4.4530   19.4210  -33.0470 C   0  0  0  0  0  0  0  0  0  0  0  0
   -5.5310   18.5550  -33.0070 N   0  0  0  0  0  0  0  0  0  0  0  0
   -5.3460   17.1340  -33.3870 C   0  0  0  0  0  0  0  0  0  0  0  0
   -6.7800   19.0150  -32.6260 C   0  0  0  0  0  0  0  0  0  0  0  0
   -7.8320   18.1090  -32.3090 C   0  0  0  0  0  0  0  0  0  0  0  0
   -9.1100   18.5640  -31.9970 C   0  0  0  0  0  0  0  0  0  0  0  0
   -9.3750   19.9240  -31.9760 C   0  0  0  0  0  0  0  0  0  0  0  0
   -8.3630   20.8410  -32.2350 C   0  0  0  0  0  0  0  0  0  0  0  0
   -7.0390   20.4170  -32.5350 C   0  0  0  0  0  0  0  0  0  0  0  0
   -3.5300   23.8740  -28.0830 C   0  0  0  0  0  0  0  0  0  0  0  0
   -2.8220   24.8990  -27.1670 C   0  0  0  0  0  0  0  0  0  0  0  0
   -1.7850   25.5990  -27.8620 O   0  0  0  0  0  0  0  0  0  0  0  0
   -0.4840   25.7410  -27.3530 C   0  0  0  0  0  0  0  0  0  0  0  0
    0.4700   25.0800  -27.8530 O   0  0  0  0  0  0  0  0  0  0  0  0
   -0.2660   26.5810  -26.1160 C   0  0  0  0  0  0  0  0  0  0  0  0
   -0.0010   25.8140  -24.8580 N   0  0  0  0  0  0  0  0  0  0  0  0
    1.4410   25.8490  -24.5130 C   0  0  0  0  0  0  0  0  0  0  0  0
   -0.4520   24.4040  -24.9730 C   0  0  0  0  0  0  0  0  0  0  0  0
   -0.7670   26.4590  -23.7600 C   0  0  0  0  0  0  0  0  0  0  0  0
   -2.6808   19.5869  -25.7238 H   0  0  0  0  0  0  0  0  0  0  0  0
   -3.7927   19.4701  -27.1297 H   0  0  0  0  0  0  0  0  0  0  0  0
   -2.2459   18.5569  -27.1297 H   0  0  0  0  0  0  0  0  0  0  0  0
   -1.8358   21.4372  -26.7006 H   0  0  0  0  0  0  0  0  0  0  0  0
   -1.1065   20.3066  -27.9274 H   0  0  0  0  0  0  0  0  0  0  0  0
   -3.1922   20.5354  -29.2883 H   0  0  0  0  0  0  0  0  0  0  0  0
   -3.7344   21.8179  -28.1130 H   0  0  0  0  0  0  0  0  0  0  0  0
   -1.1243   22.5581  -28.8981 H   0  0  0  0  0  0  0  0  0  0  0  0
   -1.9676   22.0475  -30.4100 H   0  0  0  0  0  0  0  0  0  0  0  0
   -3.2461   23.7218  -31.4812 H   0  0  0  0  0  0  0  0  0  0  0  0
   -4.4542   22.8192  -30.4899 H   0  0  0  0  0  0  0  0  0  0  0  0
   -4.8568   25.2341  -29.4091 H   0  0  0  0  0  0  0  0  0  0  0  0
   -4.1888   25.7750  -31.0129 H   0  0  0  0  0  0  0  0  0  0  0  0
   -6.8530   25.2229  -30.4975 H   0  0  0  0  0  0  0  0  0  0  0  0
   -6.0563   25.2256  -32.1248 H   0  0  0  0  0  0  0  0  0  0  0  0
   -5.7531   22.6889  -30.6247 H   0  0  0  0  0  0  0  0  0  0  0  0
   -7.4666   23.1310  -31.0634 H   0  0  0  0  0  0  0  0  0  0  0  0
   -6.9500   23.1140  -33.3140 H   0  0  0  0  0  0  0  0  0  0  0  0
   -5.3610   23.2720  -33.0880 H   0  0  0  0  0  0  0  0  0  0  0  0
   -3.6723   22.7770  -32.9750 H   0  0  0  0  0  0  0  0  0  0  0  0
   -1.3840   21.8643  -33.2543 H   0  0  0  0  0  0  0  0  0  0  0  0
   -1.0176   19.4077  -33.3755 H   0  0  0  0  0  0  0  0  0  0  0  0
   -2.9424   17.8555  -33.2385 H   0  0  0  0  0  0  0  0  0  0  0  0
   -5.2659   16.5189  -32.4785 H   0  0  0  0  0  0  0  0  0  0  0  0
   -6.2080   16.7984  -33.9822 H   0  0  0  0  0  0  0  0  0  0  0  0
   -4.4268   17.0303  -33.9822 H   0  0  0  0  0  0  0  0  0  0  0  0
   -7.6306   17.0276  -32.3107 H   0  0  0  0  0  0  0  0  0  0  0  0
   -9.9094   17.8442  -31.7672 H   0  0  0  0  0  0  0  0  0  0  0  0
  -10.3917   20.2798  -31.7532 H   0  0  0  0  0  0  0  0  0  0  0  0
   -8.5909   21.9168  -32.2074 H   0  0  0  0  0  0  0  0  0  0  0  0
   -4.5559   24.2248  -28.2685 H   0  0  0  0  0  0  0  0  0  0  0  0
   -3.5048   22.9059  -27.5612 H   0  0  0  0  0  0  0  0  0  0  0  0
   -3.5635   25.6266  -26.8056 H   0  0  0  0  0  0  0  0  0  0  0  0
   -2.3659   24.3530  -26.3280 H   0  0  0  0  0  0  0  0  0  0  0  0
    0.5959   27.2392  -26.3002 H   0  0  0  0  0  0  0  0  0  0  0  0
   -1.2081   27.1233  -25.9478 H   0  0  0  0  0  0  0  0  0  0  0  0
    1.5563   25.8518  -23.4191 H   0  0  0  0  0  0  0  0  0  0  0  0
    1.9399   24.9627  -24.9320 H   0  0  0  0  0  0  0  0  0  0  0  0
    1.8963   26.7585  -24.9320 H   0  0  0  0  0  0  0  0  0  0  0  0
   -0.5878   23.9793  -23.9674 H   0  0  0  0  0  0  0  0  0  0  0  0
   -1.4066   24.3677  -25.5184 H   0  0  0  0  0  0  0  0  0  0  0  0
    0.3043   23.8204  -25.5184 H   0  0  0  0  0  0  0  0  0  0  0  0
   -0.3699   26.1246  -22.7902 H   0  0  0  0  0  0  0  0  0  0  0  0
   -0.6706   27.5519  -23.8385 H   0  0  0  0  0  0  0  0  0  0  0  0
   -1.8276   26.1779  -23.8385 H   0  0  0  0  0  0  0  0  0  0  0  0
  1  2  1  0
  2  3  1  0
  3  4  1  0
  4  5  1  0
  5  6  1  0
  6  7  1  0
  7  8  1  0
  8  9  1  0
  9 10  1  0
 10 11  1  0
 11 12  2  0
 12 13  1  0
 13 14  2  0
 14 15  1  0
 15 16  2  0
 16 17  1  0
 17 18  2  0
 18 19  1  0
 18 20  1  0
 20 21  2  0
 21 22  1  0
 22 23  2  0
 23 24  1  0
 24 25  2  0
  5 26  1  0
 26 27  1  0
 27 28  1  0
 28 29  1  0
 29 30  2  0
 29 31  1  0
 31 32  1  0
 32 33  1  0
 32 34  1  0
 32 35  1  0
 25 11  1  0
 17 12  1  0
 25 20  1  0
  1 36  1  0
  1 37  1  0
  1 38  1  0
  2 39  1  0
  2 40  1  0
  3 41  1  0
  3 42  1  0
  4 43  1  0
  4 44  1  0
  6 45  1  0
  6 46  1  0
  7 47  1  0
  7 48  1  0
  8 49  1  0
  8 50  1  0
  9 51  1  0
  9 52  1  0
 10 53  1  0
 10 54  1  0
 13 55  1  0
 14 56  1  0
 15 57  1  0
 16 58  1  0
 19 59  1  0
 19 60  1  0
 19 61  1  0
 21 62  1  0
 22 63  1  0
 23 64  1  0
 24 65  1  0
 26 66  1  0
 26 67  1  0
 27 68  1  0
 27 69  1  0
 31 70  1  0
 31 71  1  0
 33 72  1  0
 33 73  1  0
 33 74  1  0
 34 75  1  0
 34 76  1  0
 34 77  1  0
 35 78  1  0
 35 79  1  0
 35 80  1  0
M  CHG  3  10   1  18   1  32   1
M  END
>  <UniqueID>  (8) 
8

>  <SMILES>  (8) 
CCCCN(CCCC[NH2+]c1c2ccccc2[n+](C)c2ccccc12)CCOC(=O)C[N+](C)(C)C

>  <Energy>  (8) 
110.75057989995797

>  <Genealogy>  (8) 
CCCCN(CCCC[NH2+]c1c2ccccc2[n+](C)c2ccccc12)CCOC(=O)C[N+](C)(C)C (protonated)
CCCCN(CCCC[NH2+]c1c2ccccc2[n+](C)c2ccccc12)CCOC(=O)C[N+](C)(C)C (3D coordinates assigned)
CCCCN(CCCC[NH2+]c1c2ccccc2[n+](C)c2ccccc12)CCOC(=O)C[N+](C)(C)C (optimized conformer: 110.75057989995797 kcal/mol)

>  <smiles>  (8) 
CCCCN(CCCCNc1c2ccccc2[n+](C)c2ccccc12)CCOC(=O)C[N+](C)(C)C

>  <score_type>  (8) 
oracle

>  <origin>  (8) 
adg

>  <m_score__min__energy>  (8) 
-8.9199999999999999

>  <m_primary>  (8) 
energy

$$$$
8:0
     RDKit          3D

 42 44  0  0  0  0  0  0  0  0999 V2000
   -2.8000   22.3280  -28.5180 C   0  0  0  0  0  0  0  0  0  0  0  0
   -2.4080   22.0490  -29.9440 C   0  0  0  0  0  0  0  0  0  0  0  0
   -1.1300   21.5390  -30.2220 C   0  0  0  0  0  0  0  0  0  0  0  0
   -0.7420   21.2680  -31.5340 C   0  0  0  0  0  0  0  0  0  0  0  0
   -1.6280   21.4860  -32.5990 C   0  0  0  0  0  0  0  0  0  0  0  0
   -1.2280   21.1910  -33.9510 N   0  0  0  0  0  0  0  0  0  0  0  0
   -1.7710   20.2670  -34.5900 O   0  0  0  0  0  0  0  0  0  0  0  0
   -0.2390   21.9280  -34.5630 O   0  0  0  0  0  0  0  0  0  0  0  0
   -2.9130   21.9860  -32.3250 C   0  0  0  0  0  0  0  0  0  0  0  0
   -3.3100   22.2780  -31.0070 C   0  0  0  0  0  0  0  0  0  0  0  0
   -4.6440   22.7510  -30.7430 N   0  0  0  0  0  0  0  0  0  0  0  0
   -5.0200   24.1350  -30.8140 C   0  0  0  0  0  0  0  0  0  0  0  0
   -4.1390   25.0380  -30.8410 O   0  0  0  0  0  0  0  0  0  0  0  0
   -6.4680   24.5160  -30.8080 C   0  0  0  0  0  0  0  0  0  0  0  0
   -7.2870   23.3560  -30.6880 O   0  0  0  0  0  0  0  0  0  0  0  0
   -8.0010   22.8020  -31.7590 C   0  0  0  0  0  0  0  0  0  0  0  0
   -8.9000   23.4790  -32.3300 O   0  0  0  0  0  0  0  0  0  0  0  0
   -7.6910   21.4240  -32.2150 C   0  0  0  0  0  0  0  0  0  0  0  0
   -6.3820   21.1000  -32.6060 C   0  0  0  0  0  0  0  0  0  0  0  0
   -6.0830   19.8060  -33.0410 C   0  0  0  0  0  0  0  0  0  0  0  0
   -4.7870   19.4480  -33.4390 C   0  0  0  0  0  0  0  0  0  0  0  0
   -4.5260   18.1430  -33.8690 C   0  0  0  0  0  0  0  0  0  0  0  0
   -5.5540   17.1940  -33.9040 C   0  0  0  0  0  0  0  0  0  0  0  0
   -6.8480   17.5480  -33.5080 C   0  0  0  0  0  0  0  0  0  0  0  0
   -7.1180   18.8520  -33.0760 C   0  0  0  0  0  0  0  0  0  0  0  0
   -8.3480   19.1840  -32.7010 O   0  0  0  0  0  0  0  0  0  0  0  0
   -8.6710   20.4050  -32.2820 C   0  0  0  0  0  0  0  0  0  0  0  0
   -9.8630   20.6330  -31.9450 O   0  0  0  0  0  0  0  0  0  0  0  0
   -2.0949   21.8262  -27.8390 H   0  0  0  0  0  0  0  0  0  0  0  0
   -2.7750   23.4126  -28.3364 H   0  0  0  0  0  0  0  0  0  0  0  0
   -3.8166   21.9491  -28.3364 H   0  0  0  0  0  0  0  0  0  0  0  0
   -0.4274   21.3512  -29.3967 H   0  0  0  0  0  0  0  0  0  0  0  0
    0.2675   20.8800  -31.7351 H   0  0  0  0  0  0  0  0  0  0  0  0
   -3.6182   22.1513  -33.1528 H   0  0  0  0  0  0  0  0  0  0  0  0
   -5.3750   22.0620  -30.4620 H   0  0  0  0  0  0  0  0  0  0  0  0
   -6.6627   25.1865  -29.9580 H   0  0  0  0  0  0  0  0  0  0  0  0
   -6.7067   25.0248  -31.7536 H   0  0  0  0  0  0  0  0  0  0  0  0
   -5.5920   21.8645  -32.5699 H   0  0  0  0  0  0  0  0  0  0  0  0
   -3.9772   20.1920  -33.4131 H   0  0  0  0  0  0  0  0  0  0  0  0
   -3.5093   17.8616  -34.1807 H   0  0  0  0  0  0  0  0  0  0  0  0
   -5.3442   16.1689  -34.2432 H   0  0  0  0  0  0  0  0  0  0  0  0
   -7.6547   16.8007  -33.5361 H   0  0  0  0  0  0  0  0  0  0  0  0
  1  2  1  0
  2  3  2  0
  3  4  1  0
  4  5  2  0
  5  6  1  0
  6  7  2  0
  6  8  1  0
  5  9  1  0
  9 10  2  0
 10 11  1  0
 11 12  1  0
 12 13  2  0
 12 14  1  0
 14 15  1  0
 15 16  1  0
 16 17  2  0
 16 18  1  0
 18 19  2  0
 19 20  1  0
 20 21  2  0
 21 22  1  0
 22 23  2  0
 23 24  1  0
 24 25  2  0
 25 26  1  0
 26 27  1  0
 27 28  2  0
 10  2  1  0
 27 18  1  0
 25 20  1  0
  1 29  1  0
  1 30  1  0
  1 31  1  0
  3 32  1  0
  4 33  1  0
  9 34  1  0
 11 35  1  0
 14 36  1  0
 14 37  1  0
 19 38  1  0
 21 39  1  0
 22 40  1  0
 23 41  1  0
 24 42  1  0
M  CHG  2   6   1   8  -1
M  END
>  <UniqueID>  (9) 
9

>  <SMILES>  (9) 
Cc1ccc([N+](=O)[O-])cc1NC(=O)COC(=O)c1cc2ccccc2oc1=O

>  <Energy>  (9) 
53.15728541424573

>  <Genealogy>  (9) 
Cc1ccc([N+](=O)[O-])cc1NC(=O)COC(=O)c1cc2ccccc2oc1=O (3D coordinates assigned)
Cc1ccc([N+](=O)[O-])cc1NC(=O)COC(=O)c1cc2ccccc2oc1=O (optimized conformer: 53.15728541424573 kcal/mol)

>  <smiles>  (9) 
Cc1ccc([N+](=O)[O-])cc1NC(=O)COC(=O)c1cc2ccccc2oc1=O

>  <score_type>  (9) 
oracle

>  <origin>  (9) 
adg

>  <m_score__min__energy>  (9) 
-9.25

>  <m_primary>  (9) 
energy

$$$$
9:0
     RDKit          3D

 52 54  0  0  0  0  0  0  0  0999 V2000
   -3.8620   22.4930  -29.1850 C   0  0  0  0  0  0  0  0  0  0  0  0
   -3.0490   23.1990  -30.2640 C   0  0  0  0  0  0  0  0  0  0  0  0
   -3.9350   24.0130  -31.1030 N   0  0  0  0  0  0  0  0  0  0  0  0
   -5.2360   24.2370  -30.4570 C   0  0  0  0  0  0  0  0  0  0  0  0
   -6.3650   23.5980  -31.2690 C   0  0  0  0  0  0  0  0  0  0  0  0
   -5.8440   22.9940  -32.4970 N   0  0  0  0  0  0  0  0  0  0  0  0
   -5.9030   21.5720  -32.7050 C   0  0  0  0  0  0  0  0  0  0  0  0
   -7.1040   20.8760  -32.4830 C   0  0  0  0  0  0  0  0  0  0  0  0
   -8.2360   21.5370  -31.9580 C   0  0  0  0  0  0  0  0  0  0  0  0
   -9.4110   20.8380  -31.6970 C   0  0  0  0  0  0  0  0  0  0  0  0
   -9.4730   19.4690  -31.9310 C   0  0  0  0  0  0  0  0  0  0  0  0
   -8.3680   18.7940  -32.4450 C   0  0  0  0  0  0  0  0  0  0  0  0
   -7.1680   19.4850  -32.7600 C   0  0  0  0  0  0  0  0  0  0  0  0
   -6.0760   18.8360  -33.3070 N   0  0  0  0  0  0  0  0  0  0  0  0
   -6.2280   17.4720  -33.8650 C   0  0  0  0  0  0  0  0  0  0  0  0
   -4.8480   19.4690  -33.3560 C   0  0  0  0  0  0  0  0  0  0  0  0
   -3.6580   18.7670  -33.6720 C   0  0  0  0  0  0  0  0  0  0  0  0
   -2.4380   19.4300  -33.7980 C   0  0  0  0  0  0  0  0  0  0  0  0
   -2.3530   20.8080  -33.5780 C   0  0  0  0  0  0  0  0  0  0  0  0
   -1.1050   21.5050  -33.7720 N   0  0  0  0  0  0  0  0  0  0  0  0
   -0.0250   20.5370  -34.0170 C   0  0  0  0  0  0  0  0  0  0  0  0
    0.6950   20.1820  -32.7180 C   0  0  0  0  0  0  0  0  0  0  0  0
   -3.5070   21.5120  -33.2130 C   0  0  0  0  0  0  0  0  0  0  0  0
   -4.7510   20.8600  -33.0840 C   0  0  0  0  0  0  0  0  0  0  0  0
   -3.5033   22.8045  -28.1929 H   0  0  0  0  0  0  0  0  0  0  0  0
   -4.9236   22.7607  -29.2917 H   0  0  0  0  0  0  0  0  0  0  0  0
   -3.7458   21.4044  -29.2917 H   0  0  0  0  0  0  0  0  0  0  0  0
   -2.2983   23.8479  -29.7893 H   0  0  0  0  0  0  0  0  0  0  0  0
   -2.5470   22.4467  -30.8902 H   0  0  0  0  0  0  0  0  0  0  0  0
   -3.4760   24.9470  -31.2280 H   0  0  0  0  0  0  0  0  0  0  0  0
   -5.2199   23.7929  -29.4508 H   0  0  0  0  0  0  0  0  0  0  0  0
   -5.4164   25.3204  -30.3954 H   0  0  0  0  0  0  0  0  0  0  0  0
   -6.8502   22.8196  -30.6618 H   0  0  0  0  0  0  0  0  0  0  0  0
   -7.0904   24.3792  -31.5402 H   0  0  0  0  0  0  0  0  0  0  0  0
   -5.6650   23.6160  -33.3180 H   0  0  0  0  0  0  0  0  0  0  0  0
   -8.1887   22.6167  -31.7529 H   0  0  0  0  0  0  0  0  0  0  0  0
  -10.2911   21.3691  -31.3053 H   0  0  0  0  0  0  0  0  0  0  0  0
  -10.3981   18.9166  -31.7094 H   0  0  0  0  0  0  0  0  0  0  0  0
   -8.4260   17.7079  -32.6096 H   0  0  0  0  0  0  0  0  0  0  0  0
   -6.3089   16.7462  -33.0424 H   0  0  0  0  0  0  0  0  0  0  0  0
   -7.1366   17.4280  -34.4835 H   0  0  0  0  0  0  0  0  0  0  0  0
   -5.3514   17.2291  -34.4835 H   0  0  0  0  0  0  0  0  0  0  0  0
   -3.6977   17.6778  -33.8207 H   0  0  0  0  0  0  0  0  0  0  0  0
   -1.5354   18.8645  -34.0726 H   0  0  0  0  0  0  0  0  0  0  0  0
   -1.1890   22.1540  -34.5900 H   0  0  0  0  0  0  0  0  0  0  0  0
   -0.8800   22.0800  -32.9260 H   0  0  0  0  0  0  0  0  0  0  0  0
   -0.4534   19.6223  -34.4527 H   0  0  0  0  0  0  0  0  0  0  0  0
    0.7012   20.9889  -34.7086 H   0  0  0  0  0  0  0  0  0  0  0  0
    0.0766   20.4869  -31.8609 H   0  0  0  0  0  0  0  0  0  0  0  0
    0.8663   19.0961  -32.6787 H   0  0  0  0  0  0  0  0  0  0  0  0
    1.6607   20.7072  -32.6787 H   0  0  0  0  0  0  0  0  0  0  0  0
   -3.4422   22.5936  -33.0234 H   0  0  0  0  0  0  0  0  0  0  0  0
  1  2  1  0
  2  3  1  0
  3  4  1  0
  4  5  1  0
  5  6  1  0
  6  7  1  0
  7  8  2  0
  8  9  1  0
  9 10  2  0
 10 11  1  0
 11 12  2  0
 12 13  1  0
 13 14  2  0
 14 15  1  0
 14 16  1  0
 16 17  2  0
 17 18  1  0
 18 19  2  0
 19 20  1  0
 20 21  1  0
 21 22  1  0
 19 23  1  0
 23 24  2  0
 24  7  1  0
 13  8  1  0
 24 16  1  0
  1 25  1  0
  1 26  1  0
  1 27  1  0
  2 28  1  0
  2 29  1  0
  3 30  1  0
  4 31  1  0
  4 32  1  0
  5 33  1  0
  5 34  1  0
  6 35  1  0
  9 36  1  0
 10 37  1  0
 11 38  1  0
 12 39  1  0
 15 40  1  0
 15 41  1  0
 15 42  1  0
 17 43  1  0
 18 44  1  0
 20 45  1  0
 20 46  1  0
 21 47  1  0
 21 48  1  0
 22 49  1  0
 22 50  1  0
 22 51  1  0
 23 52  1  0
M  CHG  2  14   1  20   1
M  END
>  <UniqueID>  (10) 
10

>  <SMILES>  (10) 
CCNCCNc1c2ccccc2[n+](C)c2ccc([NH2+]CC)cc12

>  <Energy>  (10) 
70.94531566434803

>  <Genealogy>  (10) 
CCNCCNc1c2ccccc2[n+](C)c2ccc([NH2+]CC)cc12 (protonated)
CCNCCNc1c2ccccc2[n+](C)c2ccc([NH2+]CC)cc12 (3D coordinates assigned)
CCNCCNc1c2ccccc2[n+](C)c2ccc([NH2+]CC)cc12 (optimized conformer: 70.94531566434803 kcal/mol)

>  <smiles>  (10) 
CCNCCNc1c2ccccc2[n+](C)c2ccc(NCC)cc12

>  <score_type>  (10) 
oracle

>  <origin>  (10) 
adg

>  <m_score__min__energy>  (10) 
-8.5299999999999994

>  <m_primary>  (10) 
energy

$$$$
10:0
     RDKit          3D

 71 75  0  0  0  0  0  0  0  0999 V2000
   -8.7580   20.9770  -31.0520 C   0  0  0  0  0  0  0  0  0  0  0  0
   -9.2420   20.7390  -32.4820 C   0  0  0  0  0  0  0  0  0  0  0  0
   -8.5380   19.5950  -33.0890 N   0  0  0  0  0  0  0  0  0  0  0  0
   -7.7100   18.8640  -32.1120 C   0  0  0  0  0  0  0  0  0  0  0  0
   -6.2320   19.3010  -32.1590 C   0  0  0  0  0  0  0  0  0  0  0  0
   -5.9720   20.3400  -33.2560 C   0  0  0  0  0  0  0  0  0  0  0  0
   -4.6570   20.9650  -33.1100 N   0  0  0  0  0  0  0  0  0  0  0  0
   -4.2540   21.5090  -31.8450 C   0  0  0  0  0  0  0  0  0  0  0  0
   -5.0200   22.5350  -31.2650 C   0  0  0  0  0  0  0  0  0  0  0  0
   -6.1110   23.1060  -31.9590 C   0  0  0  0  0  0  0  0  0  0  0  0
   -6.8460   24.1490  -31.4000 C   0  0  0  0  0  0  0  0  0  0  0  0
   -6.5000   24.6520  -30.1510 C   0  0  0  0  0  0  0  0  0  0  0  0
   -5.4280   24.1050  -29.4480 C   0  0  0  0  0  0  0  0  0  0  0  0
   -4.6800   23.0210  -29.9780 C   0  0  0  0  0  0  0  0  0  0  0  0
   -3.6320   22.4550  -29.2820 N   0  0  0  0  0  0  0  0  0  0  0  0
   -3.4720   22.7340  -27.8370 C   0  0  0  0  0  0  0  0  0  0  0  0
   -2.7450   21.6140  -29.9290 C   0  0  0  0  0  0  0  0  0  0  0  0
   -1.5000   21.2760  -29.3450 C   0  0  0  0  0  0  0  0  0  0  0  0
   -0.6230   20.4040  -29.9750 C   0  0  0  0  0  0  0  0  0  0  0  0
   -0.9640   19.8230  -31.1850 C   0  0  0  0  0  0  0  0  0  0  0  0
   -2.1930   20.1150  -31.8020 C   0  0  0  0  0  0  0  0  0  0  0  0
   -2.5620   19.4600  -32.9920 O   0  0  0  0  0  0  0  0  0  0  0  0
   -1.7750   19.3650  -34.1850 C   0  0  0  0  0  0  0  0  0  0  0  0
   -1.5670   17.9050  -34.6090 C   0  0  0  0  0  0  0  0  0  0  0  0
   -2.5320   17.0120  -33.9690 N   0  0  0  0  0  0  0  0  0  0  0  0
   -2.2540   15.9520  -33.1660 C   0  0  0  0  0  0  0  0  0  0  0  0
   -3.3710   15.2630  -32.8270 N   0  0  0  0  0  0  0  0  0  0  0  0
   -3.4430   14.0300  -32.0470 C   0  0  0  0  0  0  0  0  0  0  0  0
   -4.3800   15.9160  -33.4320 C   0  0  0  0  0  0  0  0  0  0  0  0
   -5.7390   15.5980  -33.4560 C   0  0  0  0  0  0  0  0  0  0  0  0
   -6.5860   16.4200  -34.2230 C   0  0  0  0  0  0  0  0  0  0  0  0
   -6.0630   17.5180  -34.9420 C   0  0  0  0  0  0  0  0  0  0  0  0
   -4.6860   17.8100  -34.9000 C   0  0  0  0  0  0  0  0  0  0  0  0
   -3.8720   16.9810  -34.1240 C   0  0  0  0  0  0  0  0  0  0  0  0
   -3.0640   21.0760  -31.2110 C   0  0  0  0  0  0  0  0  0  0  0  0
   -9.5127   20.6059  -30.3429 H   0  0  0  0  0  0  0  0  0  0  0  0
   -7.8102   20.4422  -30.8919 H   0  0  0  0  0  0  0  0  0  0  0  0
   -8.6028   22.0542  -30.8919 H   0  0  0  0  0  0  0  0  0  0  0  0
  -10.3221   20.5313  -32.4673 H   0  0  0  0  0  0  0  0  0  0  0  0
   -9.0334   21.6388  -33.0793 H   0  0  0  0  0  0  0  0  0  0  0  0
   -7.9390   19.9280  -33.8830 H   0  0  0  0  0  0  0  0  0  0  0  0
   -9.2470   18.9280  -33.4790 H   0  0  0  0  0  0  0  0  0  0  0  0
   -8.1034   19.0531  -31.1023 H   0  0  0  0  0  0  0  0  0  0  0  0
   -7.7542   17.7944  -32.3649 H   0  0  0  0  0  0  0  0  0  0  0  0
   -5.9599   19.7367  -31.1863 H   0  0  0  0  0  0  0  0  0  0  0  0
   -5.6232   18.4126  -32.3830 H   0  0  0  0  0  0  0  0  0  0  0  0
   -6.0238   19.8437  -34.2363 H   0  0  0  0  0  0  0  0  0  0  0  0
   -6.7364   21.1265  -33.1710 H   0  0  0  0  0  0  0  0  0  0  0  0
   -3.9530   20.9210  -33.8820 H   0  0  0  0  0  0  0  0  0  0  0  0
   -6.3831   22.7219  -32.9532 H   0  0  0  0  0  0  0  0  0  0  0  0
   -7.7002   24.5746  -31.9469 H   0  0  0  0  0  0  0  0  0  0  0  0
   -7.0738   25.4838  -29.7164 H   0  0  0  0  0  0  0  0  0  0  0  0
   -5.1570   24.5202  -28.4661 H   0  0  0  0  0  0  0  0  0  0  0  0
   -3.9360   21.9249  -27.2538 H   0  0  0  0  0  0  0  0  0  0  0  0
   -2.4014   22.7954  -27.5917 H   0  0  0  0  0  0  0  0  0  0  0  0
   -3.9597   23.6890  -27.5917 H   0  0  0  0  0  0  0  0  0  0  0  0
   -1.2228   21.7126  -28.3741 H   0  0  0  0  0  0  0  0  0  0  0  0
    0.3473   20.1733  -29.5111 H   0  0  0  0  0  0  0  0  0  0  0  0
   -0.2651   19.1249  -31.6689 H   0  0  0  0  0  0  0  0  0  0  0  0
   -2.2889   19.9025  -34.9956 H   0  0  0  0  0  0  0  0  0  0  0  0
   -0.7889   19.8088  -33.9832 H   0  0  0  0  0  0  0  0  0  0  0  0
   -1.6826   17.8311  -35.7004 H   0  0  0  0  0  0  0  0  0  0  0  0
   -0.5577   17.5984  -34.2972 H   0  0  0  0  0  0  0  0  0  0  0  0
   -1.2413   15.6843  -32.8303 H   0  0  0  0  0  0  0  0  0  0  0  0
   -3.4288   14.2733  -30.9743 H   0  0  0  0  0  0  0  0  0  0  0  0
   -4.3738   13.4965  -32.2896 H   0  0  0  0  0  0  0  0  0  0  0  0
   -2.5806   13.3917  -32.2896 H   0  0  0  0  0  0  0  0  0  0  0  0
   -6.1334   14.7370  -32.8963 H   0  0  0  0  0  0  0  0  0  0  0  0
   -7.6642   16.2057  -34.2629 H   0  0  0  0  0  0  0  0  0  0  0  0
   -6.7368   18.1498  -35.5394 H   0  0  0  0  0  0  0  0  0  0  0  0
   -4.2664   18.6601  -35.4580 H   0  0  0  0  0  0  0  0  0  0  0  0
  1  2  1  0
  2  3  1  0
  3  4  1  0
  4  5  1  0
  5  6  1  0
  6  7  1  0
  7  8  1  0
  8  9  2  0
  9 10  1  0
 10 11  2  0
 11 12  1  0
 12 13  2  0
 13 14  1  0
 14 15  2  0
 15 16  1  0
 15 17  1  0
 17 18  2  0
 18 19  1  0
 19 20  2  0
 20 21  1  0
 21 22  1  0
 22 23  1  0
 23 24  1  0
 24 25  1  0
 25 26  2  0
 26 27  1  0
 27 28  1  0
 27 29  1  0
 29 30  2  0
 30 31  1  0
 31 32  2  0
 32 33  1  0
 33 34  2  0
 21 35  2  0
 35  8  1  0
 14  9  1  0
 35 17  1  0
 34 25  1  0
 34 29  1  0
  1 36  1  0
  1 37  1  0
  1 38  1  0
  2 39  1  0
  2 40  1  0
  3 41  1  0
  3 42  1  0
  4 43  1  0
  4 44  1  0
  5 45  1  0
  5 46  1  0
  6 47  1  0
  6 48  1  0
  7 49  1  0
 10 50  1  0
 11 51  1  0
 12 52  1  0
 13 53  1  0
 16 54  1  0
 16 55  1  0
 16 56  1  0
 18 57  1  0
 19 58  1  0
 20 59  1  0
 23 60  1  0
 23 61  1  0
 24 62  1  0
 24 63  1  0
 26 64  1  0
 28 65  1  0
 28 66  1  0
 28 67  1  0
 30 68  1  0
 31 69  1  0
 32 70  1  0
 33 71  1  0
M  CHG  3   3   1  15   1  25   1
M  END
>  <UniqueID>  (11) 
11

>  <SMILES>  (11) 
CC[NH2+]CCCNc1c2ccccc2[n+](C)c2cccc(OCC[n+]3cn(C)c4ccccc43)c12

>  <Energy>  (11) 
132.40868543046935

>  <Genealogy>  (11) 
CC[NH2+]CCCNc1c2ccccc2[n+](C)c2cccc(OCC[n+]3cn(C)c4ccccc43)c12 (protonated)
CC[NH2+]CCCNc1c2ccccc2[n+](C)c2cccc(OCC[n+]3cn(C)c4ccccc43)c12 (3D coordinates assigned)
CC[NH2+]CCCNc1c2ccccc2[n+](C)c2cccc(OCC[n+]3cn(C)c4ccccc43)c12 (optimized conformer: 132.40868543046935 kcal/mol)

>  <smiles>  (11) 
CCNCCCNc1c2ccccc2[n+](C)c2cccc(OCC[n+]3cn(C)c4ccccc43)c12

>  <score_type>  (11) 
oracle

>  <origin>  (11) 
adg

>  <m_score__min__energy>  (11) 
-8.5099999999999998

>  <m_primary>  (11) 
energy

$$$$
11:0
     RDKit          3D

 54 57  0  0  0  0  0  0  0  0999 V2000
   -2.6330   24.9840  -26.6900 C   0  0  0  0  0  0  0  0  0  0  0  0
   -1.6150   25.6540  -27.6080 C   0  0  0  0  0  0  0  0  0  0  0  0
   -1.9910   25.5020  -28.9770 O   0  0  0  0  0  0  0  0  0  0  0  0
   -2.1900   24.2800  -29.6440 C   0  0  0  0  0  0  0  0  0  0  0  0
   -1.2880   23.2080  -29.5440 C   0  0  0  0  0  0  0  0  0  0  0  0
   -1.5210   22.0030  -30.2230 C   0  0  0  0  0  0  0  0  0  0  0  0
   -2.6490   21.8740  -31.0670 C   0  0  0  0  0  0  0  0  0  0  0  0
   -3.5660   22.9400  -31.1270 C   0  0  0  0  0  0  0  0  0  0  0  0
   -3.3360   24.1420  -30.4350 C   0  0  0  0  0  0  0  0  0  0  0  0
   -4.2310   25.2220  -30.5050 O   0  0  0  0  0  0  0  0  0  0  0  0
   -5.5400   25.2290  -29.9410 C   0  0  0  0  0  0  0  0  0  0  0  0
   -6.4820   24.4390  -30.8340 C   0  0  0  0  0  0  0  0  0  0  0  0
   -2.9370   20.5320  -31.7530 C   0  0  1  0  0  0  0  0  0  0  0  0
   -3.7280   20.6240  -33.0940 C   0  0  0  0  0  0  0  0  0  0  0  0
   -5.2170   20.3790  -32.9610 C   0  0  0  0  0  0  0  0  0  0  0  0
   -5.7570   19.0920  -33.2230 C   0  0  0  0  0  0  0  0  0  0  0  0
   -7.1330   18.8470  -33.0720 C   0  0  0  0  0  0  0  0  0  0  0  0
   -7.9340   19.8950  -32.6340 C   0  0  0  0  0  0  0  0  0  0  0  0
   -7.4250   21.1200  -32.3510 C   0  0  0  0  0  0  0  0  0  0  0  0
   -6.0700   21.4050  -32.4890 C   0  0  0  0  0  0  0  0  0  0  0  0
   -8.4410   21.9550  -31.9270 O   0  0  0  0  0  0  0  0  0  0  0  0
   -9.6650   21.2090  -31.9500 C   0  0  0  0  0  0  0  0  0  0  0  0
   -9.2970   19.8990  -32.4060 O   0  0  0  0  0  0  0  0  0  0  0  0
   -1.6900   19.7460  -31.9480 N   0  0  0  0  0  0  0  0  0  0  0  0
   -0.7940   20.2960  -32.9890 C   0  0  0  0  0  0  0  0  0  0  0  0
   -0.9880   19.5650  -30.6640 C   0  0  0  0  0  0  0  0  0  0  0  0
   -0.5030   20.8990  -30.0820 C   0  0  0  0  0  0  0  0  0  0  0  0
   -2.3564   25.1660  -25.6410 H   0  0  0  0  0  0  0  0  0  0  0  0
   -3.6320   25.4017  -26.8836 H   0  0  0  0  0  0  0  0  0  0  0  0
   -2.6445   23.9012  -26.8836 H   0  0  0  0  0  0  0  0  0  0  0  0
   -1.5608   26.7256  -27.3655 H   0  0  0  0  0  0  0  0  0  0  0  0
   -0.6353   25.1775  -27.4560 H   0  0  0  0  0  0  0  0  0  0  0  0
   -0.3856   23.3150  -28.9241 H   0  0  0  0  0  0  0  0  0  0  0  0
   -4.4811   22.8305  -31.7275 H   0  0  0  0  0  0  0  0  0  0  0  0
   -5.5110   24.7698  -28.9419 H   0  0  0  0  0  0  0  0  0  0  0  0
   -5.8975   26.2660  -29.8584 H   0  0  0  0  0  0  0  0  0  0  0  0
   -7.1763   23.8567  -30.2104 H   0  0  0  0  0  0  0  0  0  0  0  0
   -7.0529   25.1324  -31.4690 H   0  0  0  0  0  0  0  0  0  0  0  0
   -5.8987   23.7560  -31.4690 H   0  0  0  0  0  0  0  0  0  0  0  0
   -3.6057   20.0104  -31.0525 H   0  0  0  0  0  0  0  0  0  0  0  0
   -3.5811   21.6310  -33.5116 H   0  0  0  0  0  0  0  0  0  0  0  0
   -3.3361   19.8283  -33.7446 H   0  0  0  0  0  0  0  0  0  0  0  0
   -5.0917   18.2783  -33.5475 H   0  0  0  0  0  0  0  0  0  0  0  0
   -7.5617   17.8584  -33.2932 H   0  0  0  0  0  0  0  0  0  0  0  0
   -5.6730   22.3998  -32.2383 H   0  0  0  0  0  0  0  0  0  0  0  0
  -10.1048   21.1578  -30.9431 H   0  0  0  0  0  0  0  0  0  0  0  0
  -10.4190   21.6750  -32.6014 H   0  0  0  0  0  0  0  0  0  0  0  0
    0.0499   20.8140  -32.5100 H   0  0  0  0  0  0  0  0  0  0  0  0
   -0.4130   19.4760  -33.6155 H   0  0  0  0  0  0  0  0  0  0  0  0
   -1.3527   21.0069  -33.6155 H   0  0  0  0  0  0  0  0  0  0  0  0
   -1.6756   19.0934  -29.9465 H   0  0  0  0  0  0  0  0  0  0  0  0
   -0.1065   18.9322  -30.8446 H   0  0  0  0  0  0  0  0  0  0  0  0
   -0.2840   20.7573  -29.0134 H   0  0  0  0  0  0  0  0  0  0  0  0
    0.3923   21.2002  -30.6457 H   0  0  0  0  0  0  0  0  0  0  0  0
  1  2  1  0
  2  3  1  0
  3  4  1  0
  4  5  2  0
  5  6  1  0
  6  7  2  0
  7  8  1  0
  8  9  2  0
  9 10  1  0
 10 11  1  0
 11 12  1  0
  7 13  1  0
 13 14  1  0
 14 15  1  0
 15 16  2  0
 16 17  1  0
 17 18  2  0
 18 19  1  0
 19 20  2  0
 19 21  1  0
 21 22  1  0
 22 23  1  0
 13 24  1  0
 24 25  1  0
 24 26  1  0
 26 27  1  0
  9  4  1  0
 20 15  1  0
 27  6  1  0
 23 18  1  0
  1 28  1  0
  1 29  1  0
  1 30  1  0
  2 31  1  0
  2 32  1  0
  5 33  1  0
  8 34  1  0
 11 35  1  0
 11 36  1  0
 12 37  1  0
 12 38  1  0
 12 39  1  0
 13 40  1  1
 14 41  1  0
 14 42  1  0
 16 43  1  0
 17 44  1  0
 20 45  1  0
 22 46  1  0
 22 47  1  0
 25 48  1  0
 25 49  1  0
 25 50  1  0
 26 51  1  0
 26 52  1  0
 27 53  1  0
 27 54  1  0
M  END
>  <UniqueID>  (12) 
12

>  <SMILES>  (12) 
CCOc1cc2c(cc1OCC)[C@@H](Cc1ccc3c(c1)OCO3)N(C)CC2

>  <Energy>  (12) 
90.6842968849105

>  <Genealogy>  (12) 
CCOc1cc2c(cc1OCC)[C@@H](Cc1ccc3c(c1)OCO3)N(C)CC2 (chirality)
CCOc1cc2c(cc1OCC)[C@@H](Cc1ccc3c(c1)OCO3)N(C)CC2 (3D coordinates assigned)
CCOc1cc2c(cc1OCC)[C@@H](Cc1ccc3c(c1)OCO3)N(C)CC2 (nonaromatic ring conformer: 90.6842968849105 kcal/mol)

>  <smiles>  (12) 
CCOc1cc2c(cc1OCC)C(Cc1ccc3c(c1)OCO3)N(C)CC2

>  <score_type>  (12) 
oracle

>  <origin>  (12) 
adg

>  <m_score__min__energy>  (12) 
-8.7699999999999996

>  <m_primary>  (12) 
energy

$$$$
12:0
     RDKit          3D

 26 26  0  0  0  0  0  0  0  0999 V2000
   -3.1541   22.6226  -32.3583 H   0  0  0  0  0  0  0  0  0  0  0  0
   -4.2240   22.6700  -32.1070 C   0  0  0  0  0  0  0  0  0  0  0  0
   -4.6110   23.3580  -31.0740 N   0  0  0  0  0  0  0  0  0  0  0  0
   -4.3800   24.7120  -30.8940 O   0  0  0  0  0  0  0  0  0  0  0  0
   -5.4110   25.6680  -30.6600 C   0  0  0  0  0  0  0  0  0  0  0  0
   -6.1140   25.6631  -31.5060 H   0  0  0  0  0  0  0  0  0  0  0  0
   -4.9659   26.6687  -30.5579 H   0  0  0  0  0  0  0  0  0  0  0  0
   -6.1540   25.3120  -29.3820 C   0  0  0  0  0  0  0  0  0  0  0  0
   -5.5471   25.6028  -28.5119 H   0  0  0  0  0  0  0  0  0  0  0  0
   -7.1143   25.8478  -29.3548 H   0  0  0  0  0  0  0  0  0  0  0  0
   -6.3381   24.2279  -29.3548 H   0  0  0  0  0  0  0  0  0  0  0  0
   -5.1750   21.9720  -32.9230 N   0  0  0  0  0  0  0  0  0  0  0  0
   -4.8410   21.5930  -33.8370 H   0  0  0  0  0  0  0  0  0  0  0  0
   -6.5550   21.7910  -32.5640 C   0  0  0  0  0  0  0  0  0  0  0  0
   -7.2830   22.8690  -32.0270 C   0  0  0  0  0  0  0  0  0  0  0  0
   -6.8132   23.8609  -31.9542 H   0  0  0  0  0  0  0  0  0  0  0  0
   -8.5950   22.6920  -31.5860 C   0  0  0  0  0  0  0  0  0  0  0  0
   -9.1578   23.5450  -31.1789 H   0  0  0  0  0  0  0  0  0  0  0  0
   -9.1930   21.4350  -31.6610 C   0  0  0  0  0  0  0  0  0  0  0  0
  -10.2259   21.2964  -31.3091 H   0  0  0  0  0  0  0  0  0  0  0  0
   -8.4830   20.3520  -32.1820 C   0  0  0  0  0  0  0  0  0  0  0  0
   -8.9595   19.3617  -32.2302 H   0  0  0  0  0  0  0  0  0  0  0  0
   -7.1650   20.5130  -32.6460 C   0  0  0  0  0  0  0  0  0  0  0  0
   -6.4780   19.3850  -33.2170 N   0  0  0  0  0  0  0  0  0  0  0  0
   -6.6040   18.2450  -32.7260 O   0  0  0  0  0  0  0  0  0  0  0  0
   -5.5460   19.5760  -34.2120 O   0  0  0  0  0  0  0  0  0  0  0  0
  1  2  1  0
  2  3  2  0
  3  4  1  0
  4  5  1  0
  5  6  1  0
  5  7  1  0
  5  8  1  0
  8  9  1  0
  8 10  1  0
  8 11  1  0
  2 12  1  0
 12 13  1  0
 12 14  1  0
 14 15  2  0
 15 16  1  0
 15 17  1  0
 17 18  1  0
 17 19  2  0
 19 20  1  0
 19 21  1  0
 21 22  1  0
 21 23  2  0
 23 24  1  0
 24 25  2  0
 24 26  1  0
 23 14  1  0
M  CHG  2  24   1  26  -1
M  END
>  <UniqueID>  (13) 
13

>  <SMILES>  (13) 
CCO/N=C/Nc1ccccc1[N+](=O)[O-]

>  <Energy>  (13) 
29.409922743031206

>  <Genealogy>  (13) 
CCO/N=C/Nc1ccccc1[N+](=O)[O-] (cis-trans isomerization)
CCO/N=C/Nc1ccccc1[N+](=O)[O-] (3D coordinates assigned)
CCO/N=C/Nc1ccccc1[N+](=O)[O-] (optimized conformer: 29.409922743031206 kcal/mol)

>  <smiles>  (13) 
CCON=CNc1ccccc1[N+](=O)[O-]

>  <score_type>  (13) 
oracle

>  <origin>  (13) 
adg

>  <m_score__min__energy>  (13) 
-6

>  <m_primary>  (13) 
energy

$$$$
13:0
     RDKit          3D

 87 90  0  0  0  0  0  0  0  0999 V2000
   -0.0160   21.2210  -35.5690 C   0  0  0  0  0  0  0  0  0  0  0  0
    1.0130   20.7790  -34.5250 C   0  0  0  0  0  0  0  0  0  0  0  0
    0.4550   19.8280  -33.5470 N   0  0  0  0  0  0  0  0  0  0  0  0
    0.8600   18.4360  -33.8240 C   0  0  0  0  0  0  0  0  0  0  0  0
    0.0260   17.4320  -33.0080 C   0  0  0  0  0  0  0  0  0  0  0  0
   -0.2170   17.9080  -31.5660 C   0  0  0  0  0  0  0  0  0  0  0  0
   -0.9020   19.1460  -31.5540 O   0  0  0  0  0  0  0  0  0  0  0  0
   -0.5430   19.9100  -30.4200 C   0  0  0  0  0  0  0  0  0  0  0  0
   -0.5360   21.3860  -30.7960 C   0  0  0  0  0  0  0  0  0  0  0  0
   -0.8560   21.5200  -32.1640 O   0  0  0  0  0  0  0  0  0  0  0  0
   -2.2040   21.9230  -32.3250 C   0  0  0  0  0  0  0  0  0  0  0  0
   -3.0270   20.8020  -32.9710 C   0  0  0  0  0  0  0  0  0  0  0  0
   -4.3500   21.2890  -33.3590 N   0  0  0  0  0  0  0  0  0  0  0  0
   -5.5280   20.5400  -33.0270 C   0  0  0  0  0  0  0  0  0  0  0  0
   -5.5920   19.1790  -33.3760 C   0  0  0  0  0  0  0  0  0  0  0  0
   -4.5010   18.5480  -34.0140 C   0  0  0  0  0  0  0  0  0  0  0  0
   -4.5840   17.2150  -34.4120 C   0  0  0  0  0  0  0  0  0  0  0  0
   -5.7520   16.4960  -34.1950 C   0  0  0  0  0  0  0  0  0  0  0  0
   -6.8360   17.0930  -33.5510 C   0  0  0  0  0  0  0  0  0  0  0  0
   -6.7650   18.4350  -33.0930 C   0  0  0  0  0  0  0  0  0  0  0  0
   -7.8080   19.0230  -32.4050 N   0  0  0  0  0  0  0  0  0  0  0  0
   -8.8950   18.1810  -31.8540 C   0  0  0  0  0  0  0  0  0  0  0  0
   -7.8190   20.3910  -32.1950 C   0  0  0  0  0  0  0  0  0  0  0  0
   -8.9900   21.0520  -31.7530 C   0  0  0  0  0  0  0  0  0  0  0  0
   -8.9860   22.4120  -31.4730 C   0  0  0  0  0  0  0  0  0  0  0  0
   -7.8260   23.1540  -31.6210 C   0  0  0  0  0  0  0  0  0  0  0  0
   -6.6450   22.5550  -32.0920 C   0  0  0  0  0  0  0  0  0  0  0  0
   -5.4620   23.3080  -32.2170 O   0  0  0  0  0  0  0  0  0  0  0  0
   -4.5920   23.7110  -31.1590 C   0  0  0  0  0  0  0  0  0  0  0  0
   -4.8960   22.9080  -29.8730 C   0  0  0  0  0  0  0  0  0  0  0  0
   -3.7330   22.7330  -28.9410 N   0  0  0  0  0  0  0  0  0  0  0  0
   -3.2660   21.3210  -28.9900 C   0  0  0  0  0  0  0  0  0  0  0  0
   -2.6070   23.6460  -29.3370 C   0  0  0  0  0  0  0  0  0  0  0  0
   -1.7390   24.0860  -28.1490 C   0  0  0  0  0  0  0  0  0  0  0  0
   -2.5680   24.8850  -27.1290 C   0  0  0  0  0  0  0  0  0  0  0  0
   -4.0510   24.4800  -27.1310 C   0  0  0  0  0  0  0  0  0  0  0  0
   -4.2120   23.0080  -27.5400 C   0  0  0  0  0  0  0  0  0  0  0  0
   -6.6510   21.1710  -32.4390 C   0  0  0  0  0  0  0  0  0  0  0  0
   -0.9122   21.6060  -35.0604 H   0  0  0  0  0  0  0  0  0  0  0  0
    0.4169   22.0125  -36.1983 H   0  0  0  0  0  0  0  0  0  0  0  0
   -0.2920   20.3621  -36.1983 H   0  0  0  0  0  0  0  0  0  0  0  0
    1.8560   20.2980  -35.0427 H   0  0  0  0  0  0  0  0  0  0  0  0
    1.3339   21.6748  -33.9732 H   0  0  0  0  0  0  0  0  0  0  0  0
   -0.5890   19.9030  -33.5920 H   0  0  0  0  0  0  0  0  0  0  0  0
    0.7570   20.0980  -32.5810 H   0  0  0  0  0  0  0  0  0  0  0  0
    0.7198   18.2296  -34.8953 H   0  0  0  0  0  0  0  0  0  0  0  0
    1.9157   18.3206  -33.5375 H   0  0  0  0  0  0  0  0  0  0  0  0
   -0.9465   17.2952  -33.5036 H   0  0  0  0  0  0  0  0  0  0  0  0
    0.5896   16.4886  -32.9596 H   0  0  0  0  0  0  0  0  0  0  0  0
   -0.8204   17.1569  -31.0352 H   0  0  0  0  0  0  0  0  0  0  0  0
    0.7557   18.0386  -31.0693 H   0  0  0  0  0  0  0  0  0  0  0  0
   -1.2720   19.7385  -29.6143 H   0  0  0  0  0  0  0  0  0  0  0  0
    0.4571   19.6110  -30.0729 H   0  0  0  0  0  0  0  0  0  0  0  0
   -1.2805   21.9231  -30.1901 H   0  0  0  0  0  0  0  0  0  0  0  0
    0.4615   21.8097  -30.6075 H   0  0  0  0  0  0  0  0  0  0  0  0
   -2.6301   22.1630  -31.3397 H   0  0  0  0  0  0  0  0  0  0  0  0
   -2.2349   22.8079  -32.9776 H   0  0  0  0  0  0  0  0  0  0  0  0
   -2.5003   20.4368  -33.8650 H   0  0  0  0  0  0  0  0  0  0  0  0
   -3.1501   19.9884  -32.2410 H   0  0  0  0  0  0  0  0  0  0  0  0
   -4.4690   22.2280  -33.8040 H   0  0  0  0  0  0  0  0  0  0  0  0
   -3.5764   19.1146  -34.1986 H   0  0  0  0  0  0  0  0  0  0  0  0
   -3.7237   16.7321  -34.8984 H   0  0  0  0  0  0  0  0  0  0  0  0
   -5.8228   15.4514  -34.5323 H   0  0  0  0  0  0  0  0  0  0  0  0
   -7.7593   16.5155  -33.3958 H   0  0  0  0  0  0  0  0  0  0  0  0
   -8.8591   18.2088  -30.7549 H   0  0  0  0  0  0  0  0  0  0  0  0
   -9.8666   18.5645  -32.1989 H   0  0  0  0  0  0  0  0  0  0  0  0
   -8.7666   17.1444  -32.1989 H   0  0  0  0  0  0  0  0  0  0  0  0
   -9.9201   20.4779  -31.6291 H   0  0  0  0  0  0  0  0  0  0  0  0
   -9.9094   22.9028  -31.1317 H   0  0  0  0  0  0  0  0  0  0  0  0
   -7.8290   24.2243  -31.3670 H   0  0  0  0  0  0  0  0  0  0  0  0
   -3.5492   23.5319  -31.4597 H   0  0  0  0  0  0  0  0  0  0  0  0
   -4.7496   24.7806  -30.9564 H   0  0  0  0  0  0  0  0  0  0  0  0
   -5.6950   23.4302  -29.3263 H   0  0  0  0  0  0  0  0  0  0  0  0
   -5.1785   21.8974  -30.2029 H   0  0  0  0  0  0  0  0  0  0  0  0
   -3.1402   20.9406  -27.9655 H   0  0  0  0  0  0  0  0  0  0  0  0
   -4.0090   20.7073  -29.5203 H   0  0  0  0  0  0  0  0  0  0  0  0
   -2.3036   21.2713  -29.5203 H   0  0  0  0  0  0  0  0  0  0  0  0
   -1.9678   23.1193  -30.0609 H   0  0  0  0  0  0  0  0  0  0  0  0
   -3.0571   24.5530  -29.7668 H   0  0  0  0  0  0  0  0  0  0  0  0
   -1.3242   23.1942  -27.6563 H   0  0  0  0  0  0  0  0  0  0  0  0
   -0.9296   24.7292  -28.5246 H   0  0  0  0  0  0  0  0  0  0  0  0
   -2.1556   24.7099  -26.1244 H   0  0  0  0  0  0  0  0  0  0  0  0
   -2.5107   25.9471  -27.4096 H   0  0  0  0  0  0  0  0  0  0  0  0
   -4.4652   24.6216  -26.1219 H   0  0  0  0  0  0  0  0  0  0  0  0
   -4.5881   25.1090  -27.8561 H   0  0  0  0  0  0  0  0  0  0  0  0
   -3.6332   22.3847  -26.8425 H   0  0  0  0  0  0  0  0  0  0  0  0
   -5.2858   22.7716  -27.5060 H   0  0  0  0  0  0  0  0  0  0  0  0
  1  2  1  0
  2  3  1  0
  3  4  1  0
  4  5  1  0
  5  6  1  0
  6  7  1  0
  7  8  1  0
  8  9  1  0
  9 10  1  0
 10 11  1  0
 11 12  1  0
 12 13  1  0
 13 14  1  0
 14 15  2  0
 15 16  1  0
 16 17  2  0
 17 18  1  0
 18 19  2  0
 19 20  1  0
 20 21  2  0
 21 22  1  0
 21 23  1  0
 23 24  2  0
 24 25  1  0
 25 26  2  0
 26 27  1  0
 27 28  1  0
 28 29  1  0
 29 30  1  0
 30 31  1  0
 31 32  1  0
 31 33  1  0
 33 34  1  0
 34 35  1  0
 35 36  1  0
 36 37  1  0
 27 38  2  0
 38 14  1  0
 20 15  1  0
 38 23  1  0
 37 31  1  0
  1 39  1  0
  1 40  1  0
  1 41  1  0
  2 42  1  0
  2 43  1  0
  3 44  1  0
  3 45  1  0
  4 46  1  0
  4 47  1  0
  5 48  1  0
  5 49  1  0
  6 50  1  0
  6 51  1  0
  8 52  1  0
  8 53  1  0
  9 54  1  0
  9 55  1  0
 11 56  1  0
 11 57  1  0
 12 58  1  0
 12 59  1  0
 13 60  1  0
 16 61  1  0
 17 62  1  0
 18 63  1  0
 19 64  1  0
 22 65  1  0
 22 66  1  0
 22 67  1  0
 24 68  1  0
 25 69  1  0
 26 70  1  0
 29 71  1  0
 29 72  1  0
 30 73  1  0
 30 74  1  0
 32 75  1  0
 32 76  1  0
 32 77  1  0
 33 78  1  0
 33 79  1  0
 34 80  1  0
 34 81  1  0
 35 82  1  0
 35 83  1  0
 36 84  1  0
 36 85  1  0
 37 86  1  0
 37 87  1  0
M  CHG  3   3   1  21   1  31   1
M  END
>  <UniqueID>  (14) 
14

>  <SMILES>  (14) 
CC[NH2+]CCCOCCOCCNc1c2ccccc2[n+](C)c2cccc(OCC[N+]3(C)CCCCC3)c12

>  <Energy>  (14) 
129.00799632845147

>  <Genealogy>  (14) 
CC[NH2+]CCCOCCOCCNc1c2ccccc2[n+](C)c2cccc(OCC[N+]3(C)CCCCC3)c12 (protonated)
CC[NH2+]CCCOCCOCCNc1c2ccccc2[n+](C)c2cccc(OCC[N+]3(C)CCCCC3)c12 (3D coordinates assigned)
CC[NH2+]CCCOCCOCCNc1c2ccccc2[n+](C)c2cccc(OCC[N+]3(C)CCCCC3)c12 (nonaromatic ring conformer: 129.00799632845147 kcal/mol)

>  <smiles>  (14) 
CCNCCCOCCOCCNc1c2ccccc2[n+](C)c2cccc(OCC[N+]3(C)CCCCC3)c12

>  <score_type>  (14) 
oracle

>  <origin>  (14) 
adg

>  <m_score__min__energy>  (14) 
-8.4399999999999995

>  <m_primary>  (14) 
energy

$$$$
14:0
     RDKit          3D

 50 53  0  0  0  0  0  0  0  0999 V2000
   -9.0930   22.3360  -31.3480 C   0  0  0  0  0  0  0  0  0  0  0  0
   -7.9420   21.6960  -31.9850 N   0  0  0  0  0  0  0  0  0  0  0  0
   -6.8030   22.2900  -32.4370 C   0  0  0  0  0  0  0  0  0  0  0  0
   -6.5170   23.7660  -32.3630 C   0  0  0  0  0  0  0  0  0  0  0  0
   -5.2790   24.0220  -31.5990 N   0  0  0  0  0  0  0  0  0  0  0  0
   -4.9140   22.8530  -30.7570 C   0  0  0  0  0  0  0  0  0  0  0  0
   -3.9610   23.2410  -29.6210 C   0  0  0  0  0  0  0  0  0  0  0  0
   -4.6240   24.2480  -28.6670 C   0  0  0  0  0  0  0  0  0  0  0  0
   -5.6900   25.1110  -29.3650 C   0  0  0  0  0  0  0  0  0  0  0  0
   -5.3560   25.3070  -30.8500 C   0  0  0  0  0  0  0  0  0  0  0  0
   -5.8950   21.4090  -32.9310 N   0  0  0  0  0  0  0  0  0  0  0  0
   -6.5030   20.2200  -32.7670 C   0  0  0  0  0  0  0  0  0  0  0  0
   -6.0020   18.9640  -33.0970 C   0  0  0  0  0  0  0  0  0  0  0  0
   -6.7950   17.8320  -32.8070 C   0  0  0  0  0  0  0  0  0  0  0  0
   -6.3080   16.5260  -33.1610 N   0  0  0  0  0  0  0  0  0  0  0  0
   -4.9610   16.0860  -32.9240 C   0  0  0  0  0  0  0  0  0  0  0  0
   -4.0410   16.9380  -32.7850 O   0  0  0  0  0  0  0  0  0  0  0  0
   -4.6270   14.6410  -32.8910 C   0  0  0  0  0  0  0  0  0  0  0  0
   -4.3430   13.9520  -34.0850 C   0  0  0  0  0  0  0  0  0  0  0  0
   -4.0200   12.5920  -34.0590 C   0  0  0  0  0  0  0  0  0  0  0  0
   -3.9710   11.9050  -32.8440 C   0  0  0  0  0  0  0  0  0  0  0  0
   -4.2410   12.5800  -31.6510 C   0  0  0  0  0  0  0  0  0  0  0  0
   -4.5640   13.9400  -31.6710 C   0  0  0  0  0  0  0  0  0  0  0  0
   -8.0770   18.0080  -32.2210 C   0  0  0  0  0  0  0  0  0  0  0  0
   -8.5510   19.2930  -31.8980 C   0  0  0  0  0  0  0  0  0  0  0  0
   -7.7290   20.3830  -32.1900 C   0  0  0  0  0  0  0  0  0  0  0  0
   -8.9868   22.2770  -30.2547 H   0  0  0  0  0  0  0  0  0  0  0  0
   -9.1424   23.3911  -31.6551 H   0  0  0  0  0  0  0  0  0  0  0  0
  -10.0153   21.8212  -31.6551 H   0  0  0  0  0  0  0  0  0  0  0  0
   -6.4003   24.1624  -33.3824 H   0  0  0  0  0  0  0  0  0  0  0  0
   -7.3555   24.2628  -31.8530 H   0  0  0  0  0  0  0  0  0  0  0  0
   -5.8307   22.4279  -30.3224 H   0  0  0  0  0  0  0  0  0  0  0  0
   -4.4008   22.1197  -31.3965 H   0  0  0  0  0  0  0  0  0  0  0  0
   -3.6868   22.3374  -29.0568 H   0  0  0  0  0  0  0  0  0  0  0  0
   -3.0661   23.7082  -30.0578 H   0  0  0  0  0  0  0  0  0  0  0  0
   -5.1019   23.6934  -27.8460 H   0  0  0  0  0  0  0  0  0  0  0  0
   -3.8385   24.9234  -28.2971 H   0  0  0  0  0  0  0  0  0  0  0  0
   -6.6675   24.6138  -29.2791 H   0  0  0  0  0  0  0  0  0  0  0  0
   -5.7142   26.0975  -28.8790 H   0  0  0  0  0  0  0  0  0  0  0  0
   -6.1368   25.9333  -31.3061 H   0  0  0  0  0  0  0  0  0  0  0  0
   -4.3660   25.7830  -30.9066 H   0  0  0  0  0  0  0  0  0  0  0  0
   -5.0152   18.8561  -33.5708 H   0  0  0  0  0  0  0  0  0  0  0  0
   -6.9360   15.9070  -33.7230 H   0  0  0  0  0  0  0  0  0  0  0  0
   -4.3754   14.4873  -35.0454 H   0  0  0  0  0  0  0  0  0  0  0  0
   -3.8039   12.0616  -34.9981 H   0  0  0  0  0  0  0  0  0  0  0  0
   -3.7202   10.8341  -32.8264 H   0  0  0  0  0  0  0  0  0  0  0  0
   -4.1993   12.0400  -30.6936 H   0  0  0  0  0  0  0  0  0  0  0  0
   -4.7704   14.4663  -30.7274 H   0  0  0  0  0  0  0  0  0  0  0  0
   -8.7067   17.1294  -32.0173 H   0  0  0  0  0  0  0  0  0  0  0  0
   -9.5368   19.4340  -31.4308 H   0  0  0  0  0  0  0  0  0  0  0  0
  1  2  1  0
  2  3  1  0
  3  4  1  0
  4  5  1  0
  5  6  1  0
  6  7  1  0
  7  8  1  0
  8  9  1  0
  9 10  1  0
  3 11  2  0
 11 12  1  0
 12 13  2  0
 13 14  1  0
 14 15  1  0
 15 16  1  0
 16 17  2  0
 16 18  1  0
 18 19  2  0
 19 20  1  0
 20 21  2  0
 21 22  1  0
 22 23  2  0
 14 24  2  0
 24 25  1  0
 25 26  2  0
 26  2  1  0
 10  5  1  0
 26 12  1  0
 23 18  1  0
  1 27  1  0
  1 28  1  0
  1 29  1  0
  4 30  1  0
  4 31  1  0
  6 32  1  0
  6 33  1  0
  7 34  1  0
  7 35  1  0
  8 36  1  0
  8 37  1  0
  9 38  1  0
  9 39  1  0
 10 40  1  0
 10 41  1  0
 13 42  1  0
 15 43  1  0
 19 44  1  0
 20 45  1  0
 21 46  1  0
 22 47  1  0
 23 48  1  0
 24 49  1  0
 25 50  1  0
M  END
>  <UniqueID>  (15) 
15

>  <SMILES>  (15) 
Cn1c(CN2CCCCC2)nc2cc(NC(=O)c3ccccc3)ccc21

>  <Energy>  (15) 
103.06128574678178

>  <Genealogy>  (15) 
Cn1c(CN2CCCCC2)nc2cc(NC(=O)c3ccccc3)ccc21 (3D coordinates assigned)
Cn1c(CN2CCCCC2)nc2cc(NC(=O)c3ccccc3)ccc21 (nonaromatic ring conformer: 103.06128574678178 kcal/mol)

>  <smiles>  (15) 
Cn1c(CN2CCCCC2)nc2cc(NC(=O)c3ccccc3)ccc21

>  <score_type>  (15) 
oracle

>  <origin>  (15) 
adg

>  <m_score__min__energy>  (15) 
-8.8100000000000005

>  <m_primary>  (15) 
energy

$$$$
15:0
     RDKit          3D

 61 63  0  0  0  0  0  0  0  0999 V2000
   -3.2828   24.7423  -27.5078 H   0  0  0  0  0  0  0  0  0  0  0  0
   -3.2730   24.1900  -28.4590 C   0  0  0  0  0  0  0  0  0  0  0  0
   -2.3460   24.4150  -29.3220 N   0  0  0  0  0  0  0  0  0  0  0  0
   -0.9500   24.2620  -28.9960 C   0  0  0  0  0  0  0  0  0  0  0  0
   -0.8281   24.2486  -27.9029 H   0  0  0  0  0  0  0  0  0  0  0  0
   -0.5762   23.3175  -29.4182 H   0  0  0  0  0  0  0  0  0  0  0  0
   -0.3805   25.1031  -29.4182 H   0  0  0  0  0  0  0  0  0  0  0  0
   -4.3390   23.1780  -28.7460 C   0  0  0  0  0  0  0  0  0  0  0  0
   -5.3212   23.6039  -28.4933 H   0  0  0  0  0  0  0  0  0  0  0  0
   -4.1513   22.2789  -28.1407 H   0  0  0  0  0  0  0  0  0  0  0  0
   -4.3220   22.8110  -30.1610 N   0  0  0  0  0  0  0  0  0  0  0  0
   -3.4270   22.4620  -30.5650 H   0  0  0  0  0  0  0  0  0  0  0  0
   -5.5150   22.7110  -30.9550 C   0  0  0  0  0  0  0  0  0  0  0  0
   -6.3260   23.8500  -31.0490 C   0  0  0  0  0  0  0  0  0  0  0  0
   -5.9498   24.8159  -30.6808 H   0  0  0  0  0  0  0  0  0  0  0  0
   -7.5920   23.7760  -31.5980 C   0  0  0  0  0  0  0  0  0  0  0  0
   -8.1914   24.6899  -31.7224 H   0  0  0  0  0  0  0  0  0  0  0  0
   -8.1070   22.5510  -31.9920 C   0  0  0  0  0  0  0  0  0  0  0  0
   -9.1321   22.4987  -32.3876 H   0  0  0  0  0  0  0  0  0  0  0  0
   -7.3390   21.3660  -31.8950 C   0  0  0  0  0  0  0  0  0  0  0  0
   -5.9710   21.4630  -31.4980 C   0  0  0  0  0  0  0  0  0  0  0  0
   -5.1200   20.3330  -31.7190 C   0  0  0  0  0  0  0  0  0  0  0  0
   -3.6670   20.4510  -31.6470 N   0  0  0  0  0  0  0  0  0  0  0  0
   -3.2460   19.6210  -31.1790 H   0  0  0  0  0  0  0  0  0  0  0  0
   -3.4200   21.1970  -30.9560 H   0  0  0  0  0  0  0  0  0  0  0  0
   -2.9600   20.7280  -32.9290 C   0  0  0  0  0  0  0  0  0  0  0  0
   -3.6509   21.2849  -33.5790 H   0  0  0  0  0  0  0  0  0  0  0  0
   -2.6634   19.7430  -33.3186 H   0  0  0  0  0  0  0  0  0  0  0  0
   -1.6530   21.5400  -32.8280 C   0  0  0  0  0  0  0  0  0  0  0  0
   -1.6798   22.3745  -33.5442 H   0  0  0  0  0  0  0  0  0  0  0  0
   -0.7930   20.8950  -33.0613 H   0  0  0  0  0  0  0  0  0  0  0  0
   -1.5320   22.0450  -31.5150 O   0  0  0  0  0  0  0  0  0  0  0  0
   -0.4550   21.4100  -30.8600 C   0  0  0  0  0  0  0  0  0  0  0  0
    0.2958   22.1615  -30.5744 H   0  0  0  0  0  0  0  0  0  0  0  0
    0.0044   20.6737  -31.5359 H   0  0  0  0  0  0  0  0  0  0  0  0
   -0.9690   20.7050  -29.6120 C   0  0  0  0  0  0  0  0  0  0  0  0
   -0.5256   21.1697  -28.7190 H   0  0  0  0  0  0  0  0  0  0  0  0
   -0.6885   19.6420  -29.6486 H   0  0  0  0  0  0  0  0  0  0  0  0
   -2.3740   20.8200  -29.5540 O   0  0  0  0  0  0  0  0  0  0  0  0
   -2.8260   20.4310  -28.2750 C   0  0  0  0  0  0  0  0  0  0  0  0
   -3.6631   19.7250  -28.3793 H   0  0  0  0  0  0  0  0  0  0  0  0
   -3.1656   21.3162  -27.7173 H   0  0  0  0  0  0  0  0  0  0  0  0
   -1.6840   19.7600  -27.5250 C   0  0  0  0  0  0  0  0  0  0  0  0
   -1.8495   19.8572  -26.4419 H   0  0  0  0  0  0  0  0  0  0  0  0
   -1.6436   18.6946  -27.7956 H   0  0  0  0  0  0  0  0  0  0  0  0
   -0.7336   20.2433  -27.7956 H   0  0  0  0  0  0  0  0  0  0  0  0
   -5.6950   19.1240  -32.2020 C   0  0  0  0  0  0  0  0  0  0  0  0
   -4.9030   17.9700  -32.4400 C   0  0  0  0  0  0  0  0  0  0  0  0
   -3.8271   17.9982  -32.2128 H   0  0  0  0  0  0  0  0  0  0  0  0
   -5.4610   16.8040  -32.9550 C   0  0  0  0  0  0  0  0  0  0  0  0
   -4.8289   15.9191  -33.1203 H   0  0  0  0  0  0  0  0  0  0  0  0
   -6.8120   16.7560  -33.2600 C   0  0  0  0  0  0  0  0  0  0  0  0
   -7.2467   15.8407  -33.6881 H   0  0  0  0  0  0  0  0  0  0  0  0
   -7.6190   17.8650  -33.0250 C   0  0  0  0  0  0  0  0  0  0  0  0
   -8.6877   17.8181  -33.2812 H   0  0  0  0  0  0  0  0  0  0  0  0
   -7.0900   19.0560  -32.4610 C   0  0  0  0  0  0  0  0  0  0  0  0
   -7.8960   20.1430  -32.2040 N   0  0  0  0  0  0  0  0  0  0  0  0
   -9.3700   19.9890  -32.2220 C   0  0  0  0  0  0  0  0  0  0  0  0
   -9.7472   19.9496  -31.1894 H   0  0  0  0  0  0  0  0  0  0  0  0
   -9.8217   20.8448  -32.7450 H   0  0  0  0  0  0  0  0  0  0  0  0
   -9.6351   19.0583  -32.7450 H   0  0  0  0  0  0  0  0  0  0  0  0
  1  2  1  0
  2  3  2  0
  3  4  1  0
  4  5  1  0
  4  6  1  0
  4  7  1  0
  2  8  1  0
  8  9  1  0
  8 10  1  0
  8 11  1  0
 11 12  1  0
 11 13  1  0
 13 14  2  0
 14 15  1  0
 14 16  1  0
 16 17  1  0
 16 18  2  0
 18 19  1  0
 18 20  1  0
 20 21  2  0
 21 22  1  0
 22 23  1  0
 23 24  1  0
 23 25  1  0
 23 26  1  0
 26 27  1  0
 26 28  1  0
 26 29  1  0
 29 30  1  0
 29 31  1  0
 29 32  1  0
 32 33  1  0
 33 34  1  0
 33 35  1  0
 33 36  1  0
 36 37  1  0
 36 38  1  0
 36 39  1  0
 39 40  1  0
 40 41  1  0
 40 42  1  0
 40 43  1  0
 43 44  1  0
 43 45  1  0
 43 46  1  0
 22 47  2  0
 47 48  1  0
 48 49  1  0
 48 50  2  0
 50 51  1  0
 50 52  1  0
 52 53  1  0
 52 54  2  0
 54 55  1  0
 54 56  1  0
 56 57  2  0
 57 58  1  0
 58 59  1  0
 58 60  1  0
 58 61  1  0
 21 13  1  0
 56 47  1  0
 57 20  1  0
M  CHG  2  23   1  57   1
M  END
>  <UniqueID>  (16) 
16

>  <SMILES>  (16) 
CCOCCOCC[NH2+]c1c2ccccc2[n+](C)c2cccc(NC/C=N/C)c12

>  <Energy>  (16) 
99.21133468680875

>  <Genealogy>  (16) 
CCOCCOCC[NH2+]c1c2ccccc2[n+](C)c2cccc(NCC=NC)c12 (protonated)
CCOCCOCC[NH2+]c1c2ccccc2[n+](C)c2cccc(NC/C=N/C)c12 (cis-trans isomerization)
CCOCCOCC[NH2+]c1c2ccccc2[n+](C)c2cccc(NC/C=N/C)c12 (3D coordinates assigned)
CCOCCOCC[NH2+]c1c2ccccc2[n+](C)c2cccc(NC/C=N/C)c12 (optimized conformer: 99.21133468680875 kcal/mol)

>  <smiles>  (16) 
CCOCCOCCNc1c2ccccc2[n+](C)c2cccc(NCC=NC)c12

>  <score_type>  (16) 
oracle

>  <origin>  (16) 
adg

>  <m_score__min__energy>  (16) 
-8.0999999999999996

>  <m_primary>  (16) 
energy

$$$$
16:0
     RDKit          3D

 62 66  0  0  0  0  0  0  0  0999 V2000
   -3.8570   21.5620  -32.0260 C   0  0  0  0  0  0  0  0  0  0  0  0
   -2.6700   21.7940  -31.4550 C   0  0  0  0  0  0  0  0  0  0  0  0
   -2.6400   22.4130  -30.0760 C   0  0  0  0  0  0  0  0  0  0  0  0
   -1.4220   21.8850  -32.2870 C   0  0  1  0  0  0  0  0  0  0  0  0
   -0.1980   21.0300  -31.8900 C   0  0  1  0  0  0  0  0  0  0  0  0
   -0.2340   19.8830  -30.8250 C   0  0  1  0  0  0  0  0  0  0  0  0
   -1.4890   19.7690  -30.1760 O   0  0  0  0  0  0  0  0  0  0  0  0
   -1.3520   19.7280  -28.7730 C   0  0  0  0  0  0  0  0  0  0  0  0
    0.2360   18.5050  -31.3600 C   0  0  2  0  0  0  0  0  0  0  0  0
    1.4560   18.5500  -32.3250 C   0  0  0  0  0  0  0  0  0  0  0  0
    1.2060   18.1540  -33.7910 C   0  0  0  0  0  0  0  0  0  0  0  0
    0.2270   19.0800  -34.5970 C   0  0  2  0  0  0  0  0  0  0  0  0
   -0.0330   18.4250  -35.9930 C   0  0  0  0  0  0  0  0  0  0  0  0
    0.9130   20.4610  -34.8600 C   0  0  0  0  0  0  0  0  0  0  0  0
   -0.0510   21.5330  -34.3840 C   0  0  0  0  0  0  0  0  0  0  0  0
   -0.8530   20.8510  -33.2860 C   0  0  2  0  0  0  0  0  0  0  0  0
   -1.1070   19.4030  -33.8250 C   0  0  2  0  0  0  0  0  0  0  0  0
   -1.8030   18.2410  -32.9990 C   0  0  2  0  0  0  0  0  0  0  0  0
   -2.0750   17.0360  -33.9320 C   0  0  0  0  0  0  0  0  0  0  0  0
   -3.3050   16.6430  -34.3000 C   0  0  0  0  0  0  0  0  0  0  0  0
   -4.5260   17.3260  -33.7370 C   0  0  0  0  0  0  0  0  0  0  0  0
   -5.6110   17.3990  -34.8300 C   0  0  0  0  0  0  0  0  0  0  0  0
   -5.0410   16.5410  -32.5220 C   0  0  0  0  0  0  0  0  0  0  0  0
   -4.1290   18.7420  -33.3230 C   0  0  0  0  0  0  0  0  0  0  0  0
   -3.0270   18.7230  -32.4060 O   0  0  0  0  0  0  0  0  0  0  0  0
   -0.9410   17.6400  -31.8500 C   0  0  0  0  0  0  0  0  0  0  0  0
   -3.9065   21.1125  -33.0287 H   0  0  0  0  0  0  0  0  0  0  0  0
   -4.7837   21.8207  -31.4929 H   0  0  0  0  0  0  0  0  0  0  0  0
   -2.6785   21.6183  -29.3164 H   0  0  0  0  0  0  0  0  0  0  0  0
   -1.7127   22.9921  -29.9541 H   0  0  0  0  0  0  0  0  0  0  0  0
   -3.5069   23.0790  -29.9541 H   0  0  0  0  0  0  0  0  0  0  0  0
   -1.6938   22.9422  -32.4226 H   0  0  0  0  0  0  0  0  0  0  0  0
    0.8042   21.2686  -31.5044 H   0  0  0  0  0  0  0  0  0  0  0  0
    0.5065   20.1956  -30.0740 H   0  0  0  0  0  0  0  0  0  0  0  0
   -2.3048   20.0131  -28.3031 H   0  0  0  0  0  0  0  0  0  0  0  0
   -1.0797   18.7090  -28.4608 H   0  0  0  0  0  0  0  0  0  0  0  0
   -0.5647   20.4299  -28.4608 H   0  0  0  0  0  0  0  0  0  0  0  0
    0.6525   17.9813  -30.4869 H   0  0  0  0  0  0  0  0  0  0  0  0
    1.8434   19.5795  -32.3214 H   0  0  0  0  0  0  0  0  0  0  0  0
    2.1514   17.7897  -31.9398 H   0  0  0  0  0  0  0  0  0  0  0  0
    2.1757   18.1566  -34.3103 H   0  0  0  0  0  0  0  0  0  0  0  0
    0.7183   17.1688  -33.7529 H   0  0  0  0  0  0  0  0  0  0  0  0
   -0.4355   17.4109  -35.8530 H   0  0  0  0  0  0  0  0  0  0  0  0
   -0.7580   19.0330  -36.5540 H   0  0  0  0  0  0  0  0  0  0  0  0
    0.9116   18.3703  -36.5540 H   0  0  0  0  0  0  0  0  0  0  0  0
    1.8574   20.5265  -34.2999 H   0  0  0  0  0  0  0  0  0  0  0  0
    1.1446   20.5873  -35.9279 H   0  0  0  0  0  0  0  0  0  0  0  0
    0.4956   22.4008  -33.9865 H   0  0  0  0  0  0  0  0  0  0  0  0
   -0.6876   21.9178  -35.1944 H   0  0  0  0  0  0  0  0  0  0  0  0
   -2.0264   19.4236  -34.4286 H   0  0  0  0  0  0  0  0  0  0  0  0
   -1.2127   16.4703  -34.3147 H   0  0  0  0  0  0  0  0  0  0  0  0
   -3.4229   15.8172  -35.0170 H   0  0  0  0  0  0  0  0  0  0  0  0
   -6.6026   17.4657  -34.3585 H   0  0  0  0  0  0  0  0  0  0  0  0
   -5.4420   18.2878  -35.4557 H   0  0  0  0  0  0  0  0  0  0  0  0
   -5.5626   16.4956  -35.4557 H   0  0  0  0  0  0  0  0  0  0  0  0
   -4.7138   17.0397  -31.5977 H   0  0  0  0  0  0  0  0  0  0  0  0
   -6.1400   16.5031  -32.5489 H   0  0  0  0  0  0  0  0  0  0  0  0
   -4.6381   15.5178  -32.5489 H   0  0  0  0  0  0  0  0  0  0  0  0
   -3.8404   19.3106  -34.2194 H   0  0  0  0  0  0  0  0  0  0  0  0
   -4.9889   19.2140  -32.8253 H   0  0  0  0  0  0  0  0  0  0  0  0
   -1.6048   17.4589  -30.9917 H   0  0  0  0  0  0  0  0  0  0  0  0
   -0.4845   16.7309  -32.2685 H   0  0  0  0  0  0  0  0  0  0  0  0
  1  2  2  0
  2  3  1  0
  2  4  1  0
  4  5  1  0
  5  6  1  0
  6  7  1  0
  7  8  1  0
  6  9  1  0
  9 10  1  0
 10 11  1  0
 11 12  1  0
 12 13  1  6
 12 14  1  0
 14 15  1  0
 16 15  1  6
 16 17  1  0
 17 18  1  0
 18 19  1  0
 19 20  2  0
 20 21  1  0
 21 22  1  0
 21 23  1  0
 21 24  1  0
 24 25  1  0
 18 26  1  0
 16  4  1  0
 18 25  1  1
 16  5  1  0
 26  9  1  0
 17 12  1  0
  1 27  1  0
  1 28  1  0
  3 29  1  0
  3 30  1  0
  3 31  1  0
  4 32  1  6
  5 33  1  6
  6 34  1  1
  8 35  1  0
  8 36  1  0
  8 37  1  0
  9 38  1  1
 10 39  1  0
 10 40  1  0
 11 41  1  0
 11 42  1  0
 13 43  1  0
 13 44  1  0
 13 45  1  0
 14 46  1  0
 14 47  1  0
 15 48  1  0
 15 49  1  0
 17 50  1  6
 19 51  1  0
 20 52  1  0
 22 53  1  0
 22 54  1  0
 22 55  1  0
 23 56  1  0
 23 57  1  0
 23 58  1  0
 24 59  1  0
 24 60  1  0
 26 61  1  0
 26 62  1  0
M  END
>  <UniqueID>  (17) 
17

>  <SMILES>  (17) 
C=C(C)[C@H]1[C@H]2C(OC)C3CCC4(C)CCC21C4C1(C=CC(C)(C)CO1)C3

>  <Energy>  (17) 
421.17963782055995

>  <Genealogy>  (17) 
C=C(C)[C@H]1[C@H]2C(OC)C3CCC4(C)CCC21C4C1(C=CC(C)(C)CO1)C3 (chirality)
C=C(C)[C@H]1[C@H]2C(OC)C3CCC4(C)CCC21C4C1(C=CC(C)(C)CO1)C3 (3D coordinates assigned)
C=C(C)[C@H]1[C@H]2C(OC)C3CCC4(C)CCC21C4C1(C=CC(C)(C)CO1)C3 (nonaromatic ring conformer: 421.17963782055995 kcal/mol)

>  <smiles>  (17) 
C=C(C)C1C2C(OC)C3CCC4(C)CCC12C4C1(C=CC(C)(C)CO1)C3

>  <score_type>  (17) 
oracle

>  <origin>  (17) 
adg

>  <m_score__min__energy>  (17) 
-3.8999999999999999

>  <m_primary>  (17) 
energy

$$$$
17:0
     RDKit          3D

 58 59  0  0  1  0  0  0  0  0999 V2000
   -4.5960   14.0270  -31.7840 C   0  0  0  0  0  0  0  0  0  0  0  0
   -4.9930   15.3600  -32.3240 C   0  0  0  0  0  0  0  0  0  0  0  0
   -5.5880   15.3050  -33.7140 C   0  0  0  0  0  0  0  0  0  0  0  0
   -6.8510   16.0820  -33.8810 C   0  0  0  0  0  0  0  0  0  0  0  0
   -6.6420   17.4730  -33.4490 C   0  0  0  0  0  0  0  0  0  0  0  0
   -7.5300   18.0990  -32.6170 N   0  0  0  0  0  0  0  0  0  0  0  0
   -7.1180   19.3600  -32.4520 C   0  0  0  0  0  0  0  0  0  0  0  0
   -7.6510   20.4230  -31.7120 C   0  0  0  0  0  0  0  0  0  0  0  0
   -7.0890   21.6620  -31.6550 C   0  0  0  0  0  0  0  0  0  0  0  0
   -7.1330   24.0420  -30.9780 C   0  0  0  0  0  0  0  0  0  0  0  0
   -6.1150   24.8020  -30.3070 C   0  0  0  0  0  0  0  0  0  0  0  0
   -7.4210   22.7860  -30.8490 C   0  0  0  0  0  0  0  0  0  0  0  0
   -6.1930   25.5190  -29.1470 O   0  0  0  0  0  0  0  0  0  0  0  0
   -4.9400   24.8230  -30.8720 N   0  0  0  0  0  0  0  0  0  0  0  0
   -3.8280   25.2790  -30.2280 O   0  0  0  0  0  0  0  0  0  0  0  0
   -5.9090   21.8040  -32.4140 C   0  0  0  0  0  0  0  0  0  0  0  0
   -5.4220   20.7370  -33.1250 C   0  0  0  0  0  0  0  0  0  0  0  0
   -6.0000   19.5230  -33.1580 N   0  0  0  0  0  0  0  0  0  0  0  0
   -5.6600   18.3560  -33.8040 C   0  0  0  0  0  0  0  0  0  0  0  0
   -4.4440   18.2600  -34.6000 C   0  0  0  0  0  0  0  0  0  0  0  0
   -3.1860   18.1270  -34.0480 N   0  0  0  0  0  0  0  0  0  0  0  0
   -2.5030   16.9110  -33.9690 C   0  0  0  0  0  0  0  0  0  0  0  0
   -2.7030   19.1240  -33.1430 C   0  0  0  0  0  0  0  0  0  0  0  0
   -2.1140   20.3250  -33.8520 C   0  0  0  0  0  0  0  0  0  0  0  0
   -1.5790   21.3100  -32.9600 N   0  0  0  0  0  0  0  0  0  0  0  0
   -0.2450   21.0580  -32.5140 C   0  0  0  0  0  0  0  0  0  0  0  0
   -2.4620   21.4130  -31.8140 C   0  0  0  0  0  0  0  0  0  0  0  0
   -4.6056   14.0592  -30.6845 H   0  0  0  0  0  0  0  0  0  0  0  0
   -5.3056   13.2632  -32.1347 H   0  0  0  0  0  0  0  0  0  0  0  0
   -3.5841   13.7759  -32.1347 H   0  0  0  0  0  0  0  0  0  0  0  0
   -5.7381   15.8009  -31.6454 H   0  0  0  0  0  0  0  0  0  0  0  0
   -4.0757   15.9632  -32.3926 H   0  0  0  0  0  0  0  0  0  0  0  0
   -4.8449   15.7022  -34.4211 H   0  0  0  0  0  0  0  0  0  0  0  0
   -5.8432   14.2517  -33.9021 H   0  0  0  0  0  0  0  0  0  0  0  0
   -7.1501   16.0695  -34.9395 H   0  0  0  0  0  0  0  0  0  0  0  0
   -7.6415   15.6261  -33.2668 H   0  0  0  0  0  0  0  0  0  0  0  0
   -8.5766   20.2469  -31.1444 H   0  0  0  0  0  0  0  0  0  0  0  0
   -8.0273   22.5470  -29.9628 H   0  0  0  0  0  0  0  0  0  0  0  0
   -7.7498   24.6013  -31.6969 H   0  0  0  0  0  0  0  0  0  0  0  0
   -5.3650   26.0460  -28.8530 H   0  0  0  0  0  0  0  0  0  0  0  0
   -3.9110   25.4200  -29.2170 H   0  0  0  0  0  0  0  0  0  0  0  0
   -5.3803   22.7684  -32.4358 H   0  0  0  0  0  0  0  0  0  0  0  0
   -4.4993   20.8836  -33.7056 H   0  0  0  0  0  0  0  0  0  0  0  0
   -4.5801   17.3865  -35.2546 H   0  0  0  0  0  0  0  0  0  0  0  0
   -4.3862   19.2706  -35.0306 H   0  0  0  0  0  0  0  0  0  0  0  0
   -2.3524   16.6430  -32.9128 H   0  0  0  0  0  0  0  0  0  0  0  0
   -3.0924   16.1264  -34.4660 H   0  0  0  0  0  0  0  0  0  0  0  0
   -1.5263   17.0061  -34.4660 H   0  0  0  0  0  0  0  0  0  0  0  0
   -3.5396   19.4626  -32.5142 H   0  0  0  0  0  0  0  0  0  0  0  0
   -1.9012   18.6670  -32.5445 H   0  0  0  0  0  0  0  0  0  0  0  0
   -1.3057   19.9776  -34.5122 H   0  0  0  0  0  0  0  0  0  0  0  0
   -2.9318   20.8043  -34.4100 H   0  0  0  0  0  0  0  0  0  0  0  0
   -0.2208   21.0534  -31.4143 H   0  0  0  0  0  0  0  0  0  0  0  0
    0.0896   20.0808  -32.8922 H   0  0  0  0  0  0  0  0  0  0  0  0
    0.4230   21.8458  -32.8922 H   0  0  0  0  0  0  0  0  0  0  0  0
   -1.8713   21.3441  -30.8886 H   0  0  0  0  0  0  0  0  0  0  0  0
   -2.9881   22.3786  -31.8421 H   0  0  0  0  0  0  0  0  0  0  0  0
   -3.1963   20.5944  -31.8421 H   0  0  0  0  0  0  0  0  0  0  0  0
  1  2  1  0
  2  3  1  0
  3  4  1  0
  4  5  1  0
  5  6  1  0
  6  7  2  0
  7  8  1  0
  8  9  2  0
  9 10  1  0
 10 11  2  0
 11 12  1  0
 12 13  1  0
 12 14  2  0
 14 15  1  0
  9 16  1  0
 16 17  2  0
 17 18  1  0
 18 19  1  0
 19 20  1  0
 20 21  1  0
 21 22  1  0
 21 23  1  0
 23 24  1  0
 24 25  1  0
 25 26  1  0
 25 27  1  0
 19  5  2  0
 18  7  1  0
  1 28  1  0
  1 29  1  0
  1 30  1  0
  2 31  1  0
  2 32  1  0
  3 33  1  0
  3 34  1  0
  4 35  1  0
  4 36  1  0
  8 37  1  0
 10 38  1  0
 11 39  1  0
 13 40  1  0
 15 41  1  0
 16 42  1  0
 17 43  1  0
 20 44  1  0
 20 45  1  0
 22 46  1  0
 22 47  1  0
 22 48  1  0
 23 49  1  0
 23 50  1  0
 24 51  1  0
 24 52  1  0
 26 53  1  0
 26 54  1  0
 26 55  1  0
 27 56  1  0
 27 57  1  0
 27 58  1  0
M  END
>  <smiles>  (18) 
CCCCc1nc2cc(C=CC(O)=NO)ccn2c1CN(C)CCN(C)C

>  <score_type>  (18) 
oracle

>  <origin>  (18) 
adg

>  <m_score__min__energy>  (18) 
-8.6099999999999994

>  <m_primary>  (18) 
energy

$$$$
18:0
     RDKit          3D

 72 72  0  0  0  0  0  0  0  0999 V2000
   -0.1840   21.2240  -34.5120 C   0  0  0  0  0  0  0  0  0  0  0  0
   -0.9580   21.2140  -33.1970 C   0  0  0  0  0  0  0  0  0  0  0  0
   -2.4090   20.7620  -33.4090 C   0  0  0  0  0  0  0  0  0  0  0  0
   -3.4340   21.8210  -32.9400 C   0  0  0  0  0  0  0  0  0  0  0  0
   -4.8460   21.2510  -32.7140 C   0  0  0  0  0  0  0  0  0  0  0  0
   -4.8960   20.0260  -31.7830 C   0  0  0  0  0  0  0  0  0  0  0  0
   -5.0830   18.6850  -32.5290 C   0  0  0  0  0  0  0  0  0  0  0  0
   -6.2340   17.8420  -31.9580 C   0  0  0  0  0  0  0  0  0  0  0  0
   -7.5520   18.1480  -32.6820 C   0  0  0  0  0  0  0  0  0  0  0  0
   -8.7300   18.3610  -31.7170 C   0  0  0  0  0  0  0  0  0  0  0  0
   -9.1100   19.8440  -31.5610 C   0  0  0  0  0  0  0  0  0  0  0  0
   -8.1560   20.7880  -32.3160 C   0  0  0  0  0  0  0  0  0  0  0  0
   -8.2610   22.2780  -31.9220 C   0  0  0  0  0  0  0  0  0  0  0  0
   -7.5590   22.6740  -30.6040 C   0  0  0  0  0  0  0  0  0  0  0  0
   -6.2350   23.4390  -30.7860 C   0  0  0  0  0  0  0  0  0  0  0  0
   -6.2810   24.8590  -30.1920 C   0  0  0  0  0  0  0  0  0  0  0  0
   -5.4430   24.9750  -28.9840 N   0  0  0  0  0  0  0  0  0  0  0  0
   -4.4010   23.9740  -28.9750 C   0  0  0  0  0  0  0  0  0  0  0  0
   -3.3210   24.0680  -29.8710 C   0  0  0  0  0  0  0  0  0  0  0  0
   -2.3350   23.0790  -29.8990 C   0  0  0  0  0  0  0  0  0  0  0  0
   -2.4080   21.9730  -29.0330 C   0  0  0  0  0  0  0  0  0  0  0  0
   -1.3700   20.9190  -29.0620 C   0  0  0  0  0  0  0  0  0  0  0  0
   -0.8780   20.5430  -30.1630 O   0  0  0  0  0  0  0  0  0  0  0  0
   -0.9340   20.3380  -27.8660 O   0  0  0  0  0  0  0  0  0  0  0  0
   -1.2600   19.0030  -27.4950 C   0  0  0  0  0  0  0  0  0  0  0  0
   -2.4660   19.0140  -26.5690 C   0  0  0  0  0  0  0  0  0  0  0  0
   -3.4840   21.8810  -28.1340 C   0  0  0  0  0  0  0  0  0  0  0  0
   -4.4690   22.8750  -28.1020 C   0  0  0  0  0  0  0  0  0  0  0  0
    0.8957   21.2380  -34.3019 H   0  0  0  0  0  0  0  0  0  0  0  0
   -0.4332   20.3226  -35.0910 H   0  0  0  0  0  0  0  0  0  0  0  0
   -0.4565   22.1187  -35.0910 H   0  0  0  0  0  0  0  0  0  0  0  0
   -0.4659   20.5231  -32.4966 H   0  0  0  0  0  0  0  0  0  0  0  0
   -0.9680   22.2365  -32.7916 H   0  0  0  0  0  0  0  0  0  0  0  0
   -2.5656   20.5699  -34.4807 H   0  0  0  0  0  0  0  0  0  0  0  0
   -2.5675   19.8544  -32.8080 H   0  0  0  0  0  0  0  0  0  0  0  0
   -3.0782   22.2549  -31.9939 H   0  0  0  0  0  0  0  0  0  0  0  0
   -3.5124   22.5719  -33.7400 H   0  0  0  0  0  0  0  0  0  0  0  0
   -5.4703   22.0428  -32.2745 H   0  0  0  0  0  0  0  0  0  0  0  0
   -5.2092   20.9139  -33.6960 H   0  0  0  0  0  0  0  0  0  0  0  0
   -3.9532   19.9805  -31.2182 H   0  0  0  0  0  0  0  0  0  0  0  0
   -5.7714   20.1548  -31.1294 H   0  0  0  0  0  0  0  0  0  0  0  0
   -5.2946   18.8979  -33.5872 H   0  0  0  0  0  0  0  0  0  0  0  0
   -4.1558   18.1058  -32.4071 H   0  0  0  0  0  0  0  0  0  0  0  0
   -5.9947   16.7755  -32.0821 H   0  0  0  0  0  0  0  0  0  0  0  0
   -6.3540   18.0888  -30.8928 H   0  0  0  0  0  0  0  0  0  0  0  0
   -7.4195   19.0611  -33.2809 H   0  0  0  0  0  0  0  0  0  0  0  0
   -7.7932   17.2776  -33.3099 H   0  0  0  0  0  0  0  0  0  0  0  0
   -9.6029   17.8127  -32.1010 H   0  0  0  0  0  0  0  0  0  0  0  0
   -8.4201   17.9919  -30.7282 H   0  0  0  0  0  0  0  0  0  0  0  0
  -10.1285   19.9885  -31.9507 H   0  0  0  0  0  0  0  0  0  0  0  0
   -9.0428   20.0920  -30.4914 H   0  0  0  0  0  0  0  0  0  0  0  0
   -7.1251   20.4563  -32.1231 H   0  0  0  0  0  0  0  0  0  0  0  0
   -8.4435   20.7304  -33.3762 H   0  0  0  0  0  0  0  0  0  0  0  0
   -7.8176   22.8741  -32.7333 H   0  0  0  0  0  0  0  0  0  0  0  0
   -9.3319   22.4705  -31.7606 H   0  0  0  0  0  0  0  0  0  0  0  0
   -8.2462   23.3105  -30.0273 H   0  0  0  0  0  0  0  0  0  0  0  0
   -7.3073   21.7341  -30.0910 H   0  0  0  0  0  0  0  0  0  0  0  0
   -5.4320   22.8755  -30.2883 H   0  0  0  0  0  0  0  0  0  0  0  0
   -6.0546   23.5372  -31.8666 H   0  0  0  0  0  0  0  0  0  0  0  0
   -5.9185   25.5725  -30.9466 H   0  0  0  0  0  0  0  0  0  0  0  0
   -7.3212   25.0775  -29.9087 H   0  0  0  0  0  0  0  0  0  0  0  0
   -4.9990   25.9230  -28.9720 H   0  0  0  0  0  0  0  0  0  0  0  0
   -6.0340   24.9040  -28.1220 H   0  0  0  0  0  0  0  0  0  0  0  0
   -3.2523   24.9268  -30.5549 H   0  0  0  0  0  0  0  0  0  0  0  0
   -1.4949   23.1658  -30.6038 H   0  0  0  0  0  0  0  0  0  0  0  0
   -1.4956   18.4190  -28.3969 H   0  0  0  0  0  0  0  0  0  0  0  0
   -0.4037   18.5473  -26.9762 H   0  0  0  0  0  0  0  0  0  0  0  0
   -2.1253   19.0109  -25.5231 H   0  0  0  0  0  0  0  0  0  0  0  0
   -3.0644   19.9176  -26.7570 H   0  0  0  0  0  0  0  0  0  0  0  0
   -3.0808   18.1214  -26.7570 H   0  0  0  0  0  0  0  0  0  0  0  0
   -3.5527   21.0218  -27.4506 H   0  0  0  0  0  0  0  0  0  0  0  0
   -5.3023   22.7953  -27.3883 H   0  0  0  0  0  0  0  0  0  0  0  0
  1  2  1  0
  2  3  1  0
  3  4  1  0
  4  5  1  0
  5  6  1  0
  6  7  1  0
  7  8  1  0
  8  9  1  0
  9 10  1  0
 10 11  1  0
 11 12  1  0
 12 13  1  0
 13 14  1  0
 14 15  1  0
 15 16  1  0
 16 17  1  0
 17 18  1  0
 18 19  2  0
 19 20  1  0
 20 21  2  0
 21 22  1  0
 22 23  2  0
 22 24  1  0
 24 25  1  0
 25 26  1  0
 21 27  1  0
 27 28  2  0
 28 18  1  0
  1 29  1  0
  1 30  1  0
  1 31  1  0
  2 32  1  0
  2 33  1  0
  3 34  1  0
  3 35  1  0
  4 36  1  0
  4 37  1  0
  5 38  1  0
  5 39  1  0
  6 40  1  0
  6 41  1  0
  7 42  1  0
  7 43  1  0
  8 44  1  0
  8 45  1  0
  9 46  1  0
  9 47  1  0
 10 48  1  0
 10 49  1  0
 11 50  1  0
 11 51  1  0
 12 52  1  0
 12 53  1  0
 13 54  1  0
 13 55  1  0
 14 56  1  0
 14 57  1  0
 15 58  1  0
 15 59  1  0
 16 60  1  0
 16 61  1  0
 17 62  1  0
 17 63  1  0
 19 64  1  0
 20 65  1  0
 25 66  1  0
 25 67  1  0
 26 68  1  0
 26 69  1  0
 26 70  1  0
 27 71  1  0
 28 72  1  0
M  CHG  1  17   1
M  END
>  <UniqueID>  (19) 
18

>  <SMILES>  (19) 
CCCCCCCCCCCCCCCC[NH2+]c1ccc(C(=O)OCC)cc1

>  <Energy>  (19) 
46.4046644429806

>  <Genealogy>  (19) 
CCCCCCCCCCCCCCCC[NH2+]c1ccc(C(=O)OCC)cc1 (protonated)
CCCCCCCCCCCCCCCC[NH2+]c1ccc(C(=O)OCC)cc1 (3D coordinates assigned)
CCCCCCCCCCCCCCCC[NH2+]c1ccc(C(=O)OCC)cc1 (optimized conformer: 46.4046644429806 kcal/mol)

>  <smiles>  (19) 
CCCCCCCCCCCCCCCCNc1ccc(C(=O)OCC)cc1

>  <score_type>  (19) 
oracle

>  <origin>  (19) 
adg

>  <m_score__min__energy>  (19) 
-7.3899999999999997

>  <m_primary>  (19) 
energy

$$$$
19:0
     RDKit          3D

 74 77  0  0  0  0  0  0  0  0999 V2000
    1.4660   19.6470  -32.4560 C   0  0  0  0  0  0  0  0  0  0  0  0
    0.3520   19.2040  -31.5100 C   0  0  0  0  0  0  0  0  0  0  0  0
   -0.6290   20.2120  -31.3970 O   0  0  0  0  0  0  0  0  0  0  0  0
   -0.5730   20.8580  -30.1380 C   0  0  0  0  0  0  0  0  0  0  0  0
   -1.9690   20.9380  -29.5220 C   0  0  0  0  0  0  0  0  0  0  0  0
   -2.9290   20.7630  -30.5430 O   0  0  0  0  0  0  0  0  0  0  0  0
   -3.9340   21.7520  -30.4490 C   0  0  0  0  0  0  0  0  0  0  0  0
   -3.8110   22.7120  -31.6360 C   0  0  0  0  0  0  0  0  0  0  0  0
   -4.5280   22.1890  -32.8020 N   0  0  0  0  0  0  0  0  0  0  0  0
   -5.4960   21.1480  -32.6710 C   0  0  0  0  0  0  0  0  0  0  0  0
   -6.8240   21.5310  -32.3920 C   0  0  0  0  0  0  0  0  0  0  0  0
   -7.1570   22.8910  -32.1830 C   0  0  0  0  0  0  0  0  0  0  0  0
   -8.4760   23.2820  -31.9700 C   0  0  0  0  0  0  0  0  0  0  0  0
   -9.4870   22.3330  -31.9690 C   0  0  0  0  0  0  0  0  0  0  0  0
   -9.1840   20.9860  -32.1500 C   0  0  0  0  0  0  0  0  0  0  0  0
   -7.8410   20.5530  -32.3240 C   0  0  0  0  0  0  0  0  0  0  0  0
   -7.5180   19.2200  -32.4440 N   0  0  0  0  0  0  0  0  0  0  0  0
   -8.5160   18.1870  -32.0690 C   0  0  0  0  0  0  0  0  0  0  0  0
   -6.2620   18.8390  -32.8780 C   0  0  0  0  0  0  0  0  0  0  0  0
   -6.0350   17.5150  -33.3210 C   0  0  0  0  0  0  0  0  0  0  0  0
   -4.7750   17.0750  -33.6740 C   0  0  0  0  0  0  0  0  0  0  0  0
   -3.6940   17.9210  -33.5700 C   0  0  0  0  0  0  0  0  0  0  0  0
   -3.8410   19.2640  -33.1780 C   0  0  0  0  0  0  0  0  0  0  0  0
   -2.5980   19.9910  -32.9550 N   0  0  0  0  0  0  0  0  0  0  0  0
   -1.7880   20.1220  -34.1820 C   0  0  0  0  0  0  0  0  0  0  0  0
   -0.9740   21.4280  -34.2280 C   0  0  0  0  0  0  0  0  0  0  0  0
    0.1910   21.4170  -35.2450 C   0  0  0  0  0  0  0  0  0  0  0  0
    0.9790   22.6700  -35.3590 N   0  0  0  0  0  0  0  0  0  0  0  0
    2.3800   22.5060  -35.7850 C   0  0  0  0  0  0  0  0  0  0  0  0
    3.1390   23.8400  -35.5970 C   0  0  0  0  0  0  0  0  0  0  0  0
    2.2770   24.9370  -35.3410 O   0  0  0  0  0  0  0  0  0  0  0  0
    1.2290   24.9570  -36.2880 C   0  0  0  0  0  0  0  0  0  0  0  0
    0.2870   23.7570  -36.0790 C   0  0  0  0  0  0  0  0  0  0  0  0
   -5.1740   19.7750  -32.9040 C   0  0  0  0  0  0  0  0  0  0  0  0
    2.3304   19.9908  -31.8690 H   0  0  0  0  0  0  0  0  0  0  0  0
    1.7669   18.8001  -33.0902 H   0  0  0  0  0  0  0  0  0  0  0  0
    1.1031   20.4692  -33.0902 H   0  0  0  0  0  0  0  0  0  0  0  0
   -0.1135   18.2879  -31.9025 H   0  0  0  0  0  0  0  0  0  0  0  0
    0.7833   19.0137  -30.5161 H   0  0  0  0  0  0  0  0  0  0  0  0
    0.0879   20.2894  -29.4672 H   0  0  0  0  0  0  0  0  0  0  0  0
   -0.1829   21.8773  -30.2752 H   0  0  0  0  0  0  0  0  0  0  0  0
   -2.0852   20.1473  -28.7661 H   0  0  0  0  0  0  0  0  0  0  0  0
   -2.1094   21.9176  -29.0416 H   0  0  0  0  0  0  0  0  0  0  0  0
   -4.9240   21.2727  -30.4649 H   0  0  0  0  0  0  0  0  0  0  0  0
   -3.8149   22.3107  -29.5090 H   0  0  0  0  0  0  0  0  0  0  0  0
   -4.2373   23.6870  -31.3575 H   0  0  0  0  0  0  0  0  0  0  0  0
   -2.7473   22.8202  -31.8944 H   0  0  0  0  0  0  0  0  0  0  0  0
   -4.2380   22.4620  -33.7670 H   0  0  0  0  0  0  0  0  0  0  0  0
   -6.3613   23.6505  -32.1890 H   0  0  0  0  0  0  0  0  0  0  0  0
   -8.7159   24.3424  -31.8027 H   0  0  0  0  0  0  0  0  0  0  0  0
  -10.5318   22.6453  -31.8247 H   0  0  0  0  0  0  0  0  0  0  0  0
   -9.9969   20.2449  -32.1585 H   0  0  0  0  0  0  0  0  0  0  0  0
   -8.5805   18.1203  -30.9729 H   0  0  0  0  0  0  0  0  0  0  0  0
   -9.4995   18.4617  -32.4781 H   0  0  0  0  0  0  0  0  0  0  0  0
   -8.2076   17.2136  -32.4781 H   0  0  0  0  0  0  0  0  0  0  0  0
   -6.8838   16.8184  -33.3859 H   0  0  0  0  0  0  0  0  0  0  0  0
   -4.6346   16.0468  -34.0389 H   0  0  0  0  0  0  0  0  0  0  0  0
   -2.6891   17.5368  -33.7994 H   0  0  0  0  0  0  0  0  0  0  0  0
   -1.9980   19.6450  -32.1940 H   0  0  0  0  0  0  0  0  0  0  0  0
   -2.8370   20.9600  -32.6360 H   0  0  0  0  0  0  0  0  0  0  0  0
   -1.0912   19.2725  -34.2346 H   0  0  0  0  0  0  0  0  0  0  0  0
   -2.4823   20.1365  -35.0350 H   0  0  0  0  0  0  0  0  0  0  0  0
   -1.6556   22.2494  -34.4940 H   0  0  0  0  0  0  0  0  0  0  0  0
   -0.5220   21.5523  -33.2329 H   0  0  0  0  0  0  0  0  0  0  0  0
    0.8821   20.6123  -34.9537 H   0  0  0  0  0  0  0  0  0  0  0  0
   -0.2810   21.2779  -36.2288 H   0  0  0  0  0  0  0  0  0  0  0  0
    2.8583   21.7239  -35.1771 H   0  0  0  0  0  0  0  0  0  0  0  0
    2.4077   22.2164  -36.8458 H   0  0  0  0  0  0  0  0  0  0  0  0
    3.8313   23.7329  -34.7489 H   0  0  0  0  0  0  0  0  0  0  0  0
    3.6703   24.0514  -36.5367 H   0  0  0  0  0  0  0  0  0  0  0  0
    0.6570   25.8897  -36.1746 H   0  0  0  0  0  0  0  0  0  0  0  0
    1.6619   24.8966  -37.2974 H   0  0  0  0  0  0  0  0  0  0  0  0
   -0.5854   24.0806  -35.4923 H   0  0  0  0  0  0  0  0  0  0  0  0
   -0.0324   23.3825  -37.0627 H   0  0  0  0  0  0  0  0  0  0  0  0
  1  2  1  0
  2  3  1  0
  3  4  1  0
  4  5  1  0
  5  6  1  0
  6  7  1  0
  7  8  1  0
  8  9  1  0
  9 10  1  0
 10 11  2  0
 11 12  1  0
 12 13  2  0
 13 14  1  0
 14 15  2  0
 15 16  1  0
 16 17  2  0
 17 18  1  0
 17 19  1  0
 19 20  2  0
 20 21  1  0
 21 22  2  0
 22 23  1  0
 23 24  1  0
 24 25  1  0
 25 26  1  0
 26 27  1  0
 27 28  1  0
 28 29  1  0
 29 30  1  0
 30 31  1  0
 31 32  1  0
 32 33  1  0
 23 34  2  0
 34 10  1  0
 16 11  1  0
 34 19  1  0
 33 28  1  0
  1 35  1  0
  1 36  1  0
  1 37  1  0
  2 38  1  0
  2 39  1  0
  4 40  1  0
  4 41  1  0
  5 42  1  0
  5 43  1  0
  7 44  1  0
  7 45  1  0
  8 46  1  0
  8 47  1  0
  9 48  1  0
 12 49  1  0
 13 50  1  0
 14 51  1  0
 15 52  1  0
 18 53  1  0
 18 54  1  0
 18 55  1  0
 20 56  1  0
 21 57  1  0
 22 58  1  0
 24 59  1  0
 24 60  1  0
 25 61  1  0
 25 62  1  0
 26 63  1  0
 26 64  1  0
 27 65  1  0
 27 66  1  0
 29 67  1  0
 29 68  1  0
 30 69  1  0
 30 70  1  0
 32 71  1  0
 32 72  1  0
 33 73  1  0
 33 74  1  0
M  CHG  2  17   1  24   1
M  END
>  <UniqueID>  (20) 
19

>  <SMILES>  (20) 
CCOCCOCCNc1c2ccccc2[n+](C)c2cccc([NH2+]CCCN3CCOCC3)c12

>  <Energy>  (20) 
129.63802006197201

>  <Genealogy>  (20) 
CCOCCOCCNc1c2ccccc2[n+](C)c2cccc([NH2+]CCCN3CCOCC3)c12 (protonated)
CCOCCOCCNc1c2ccccc2[n+](C)c2cccc([NH2+]CCCN3CCOCC3)c12 (3D coordinates assigned)
CCOCCOCCNc1c2ccccc2[n+](C)c2cccc([NH2+]CCCN3CCOCC3)c12 (nonaromatic ring conformer: 129.63802006197201 kcal/mol)

>  <smiles>  (20) 
CCOCCOCCNc1c2ccccc2[n+](C)c2cccc(NCCCN3CCOCC3)c12

>  <score_type>  (20) 
oracle

>  <origin>  (20) 
adg

>  <m_score__min__energy>  (20) 
-9.1099999999999994

>  <m_primary>  (20) 
energy

$$$$
20:0
     RDKit          3D

 52 55  0  0  0  0  0  0  0  0999 V2000
   -0.9931   20.6415  -30.6868 H   0  0  0  0  0  0  0  0  0  0  0  0
   -1.5360   21.0390  -31.5570 C   0  0  0  0  0  0  0  0  0  0  0  0
   -2.8730   21.1400  -31.5030 C   0  0  0  0  0  0  0  0  0  0  0  0
   -3.4535   20.3499  -31.0041 H   0  0  0  0  0  0  0  0  0  0  0  0
   -3.5940   22.3120  -32.1110 C   0  0  0  0  0  0  0  0  0  0  0  0
   -4.3540   22.6739  -31.4029 H   0  0  0  0  0  0  0  0  0  0  0  0
   -2.8602   23.1030  -32.3252 H   0  0  0  0  0  0  0  0  0  0  0  0
   -4.2520   21.9290  -33.3690 N   0  0  0  0  0  0  0  0  0  0  0  0
   -3.5480   21.4630  -33.9870 H   0  0  0  0  0  0  0  0  0  0  0  0
   -4.5750   22.7670  -33.9030 H   0  0  0  0  0  0  0  0  0  0  0  0
   -5.3630   21.0370  -33.1030 C   0  0  0  0  0  0  0  0  0  0  0  0
   -5.2330   19.6650  -33.3500 C   0  0  0  0  0  0  0  0  0  0  0  0
   -6.2670   18.7910  -33.0730 C   0  0  0  0  0  0  0  0  0  0  0  0
   -7.4460   19.1960  -32.5060 N   0  0  0  0  0  0  0  0  0  0  0  0
   -8.4430   18.1960  -32.0830 C   0  0  0  0  0  0  0  0  0  0  0  0
   -8.4809   18.1580  -30.9843 H   0  0  0  0  0  0  0  0  0  0  0  0
   -9.4321   18.4760  -32.4745 H   0  0  0  0  0  0  0  0  0  0  0  0
   -8.1600   17.2078  -32.4745 H   0  0  0  0  0  0  0  0  0  0  0  0
   -7.6610   20.5550  -32.3310 C   0  0  0  0  0  0  0  0  0  0  0  0
   -8.9210   21.0530  -31.9170 C   0  0  0  0  0  0  0  0  0  0  0  0
   -9.7595   20.3546  -31.7788 H   0  0  0  0  0  0  0  0  0  0  0  0
   -9.1160   22.4120  -31.6820 C   0  0  0  0  0  0  0  0  0  0  0  0
  -10.1018   22.7756  -31.3564 H   0  0  0  0  0  0  0  0  0  0  0  0
   -8.0710   23.3100  -31.8570 C   0  0  0  0  0  0  0  0  0  0  0  0
   -8.2249   24.3778  -31.6421 H   0  0  0  0  0  0  0  0  0  0  0  0
   -6.8300   22.8650  -32.3030 C   0  0  0  0  0  0  0  0  0  0  0  0
   -6.0123   23.5876  -32.4420 H   0  0  0  0  0  0  0  0  0  0  0  0
   -6.6060   21.4960  -32.5800 C   0  0  0  0  0  0  0  0  0  0  0  0
   -5.8340   17.4600  -33.4830 C   0  0  0  0  0  0  0  0  0  0  0  0
   -6.5370   16.2990  -33.5180 N   0  0  0  0  0  0  0  0  0  0  0  0
   -5.9500   15.1630  -33.9960 C   0  0  0  0  0  0  0  0  0  0  0  0
   -6.5133   14.2182  -34.0045 H   0  0  0  0  0  0  0  0  0  0  0  0
   -4.6280   15.1940  -34.4780 C   0  0  0  0  0  0  0  0  0  0  0  0
   -4.1550   14.2755  -34.8555 H   0  0  0  0  0  0  0  0  0  0  0  0
   -3.9170   16.4040  -34.4740 C   0  0  0  0  0  0  0  0  0  0  0  0
   -2.8882   16.4555  -34.8599 H   0  0  0  0  0  0  0  0  0  0  0  0
   -4.5490   17.5390  -33.9680 C   0  0  0  0  0  0  0  0  0  0  0  0
   -4.0380   18.9420  -33.9240 C   0  0  0  0  0  0  0  0  0  0  0  0
   -3.1587   19.0315  -33.2692 H   0  0  0  0  0  0  0  0  0  0  0  0
   -3.6954   19.3308  -34.8943 H   0  0  0  0  0  0  0  0  0  0  0  0
   -0.7610   21.4550  -32.7760 C   0  0  0  0  0  0  0  0  0  0  0  0
    0.2295   20.9768  -32.7567 H   0  0  0  0  0  0  0  0  0  0  0  0
   -0.6518   22.5496  -32.7736 H   0  0  0  0  0  0  0  0  0  0  0  0
   -1.4710   21.0490  -33.9960 N   0  0  0  0  0  0  0  0  0  0  0  0
   -1.8490   21.9040  -34.4680 H   0  0  0  0  0  0  0  0  0  0  0  0
   -0.6160   20.3060  -34.9410 C   0  0  0  0  0  0  0  0  0  0  0  0
   -1.2608   19.7261  -35.6176 H   0  0  0  0  0  0  0  0  0  0  0  0
    0.0441   19.6543  -34.3497 H   0  0  0  0  0  0  0  0  0  0  0  0
    0.2750   21.2260  -35.7820 C   0  0  0  0  0  0  0  0  0  0  0  0
    0.8842   21.8551  -35.1164 H   0  0  0  0  0  0  0  0  0  0  0  0
    0.9354   20.6169  -36.4167 H   0  0  0  0  0  0  0  0  0  0  0  0
   -0.3550   21.8665  -36.4167 H   0  0  0  0  0  0  0  0  0  0  0  0
  1  2  1  0
  2  3  2  0
  3  4  1  0
  3  5  1  0
  5  6  1  0
  5  7  1  0
  5  8  1  0
  8  9  1  0
  8 10  1  0
  8 11  1  0
 11 12  2  0
 12 13  1  0
 13 14  2  0
 14 15  1  0
 15 16  1  0
 15 17  1  0
 15 18  1  0
 14 19  1  0
 19 20  2  0
 20 21  1  0
 20 22  1  0
 22 23  1  0
 22 24  2  0
 24 25  1  0
 24 26  1  0
 26 27  1  0
 26 28  2  0
 13 29  1  0
 29 30  2  0
 30 31  1  0
 31 32  1  0
 31 33  2  0
 33 34  1  0
 33 35  1  0
 35 36  1  0
 35 37  2  0
 37 38  1  0
 38 39  1  0
 38 40  1  0
  2 41  1  0
 41 42  1  0
 41 43  1  0
 41 44  1  0
 44 45  1  0
 44 46  1  0
 46 47  1  0
 46 48  1  0
 46 49  1  0
 49 50  1  0
 49 51  1  0
 49 52  1  0
 28 11  1  0
 37 29  1  0
 38 12  1  0
 28 19  1  0
M  CHG  2   8   1  14   1
M  END
>  <UniqueID>  (21) 
20

>  <SMILES>  (21) 
CCNC/C=C/C[NH2+]c1c2c([n+](C)c3ccccc13)-c1ncccc1C2

>  <Energy>  (21) 
90.28342912249771

>  <Genealogy>  (21) 
CCNCC=CC[NH2+]c1c2c([n+](C)c3ccccc13)-c1ncccc1C2 (protonated)
CCNC/C=C/C[NH2+]c1c2c([n+](C)c3ccccc13)-c1ncccc1C2 (cis-trans isomerization)
CCNC/C=C/C[NH2+]c1c2c([n+](C)c3ccccc13)-c1ncccc1C2 (3D coordinates assigned)
CCNC/C=C/C[NH2+]c1c2c([n+](C)c3ccccc13)-c1ncccc1C2 (nonaromatic ring conformer: 90.28342912249771 kcal/mol)

>  <smiles>  (21) 
CCNCC=CCNc1c2c([n+](C)c3ccccc13)-c1ncccc1C2

>  <score_type>  (21) 
oracle

>  <origin>  (21) 
adg

>  <m_score__min__energy>  (21) 
-9.4000000000000004

>  <m_primary>  (21) 
energy

$$$$
21:0
     RDKit          3D

 57 60  0  0  0  0  0  0  0  0999 V2000
   -6.7880   16.7930  -33.6810 C   0  0  0  0  0  0  0  0  0  0  0  0
   -6.0140   18.0480  -33.6070 N   0  0  0  0  0  0  0  0  0  0  0  0
   -6.6480   19.2480  -33.3630 C   0  0  0  0  0  0  0  0  0  0  0  0
   -8.0860   19.3430  -33.1990 N   0  0  0  0  0  0  0  0  0  0  0  0
   -8.4240   19.6520  -31.8000 C   0  0  0  0  0  0  0  0  0  0  0  0
   -8.7920   21.1410  -31.5820 C   0  0  0  0  0  0  0  0  0  0  0  0
   -7.6560   22.0740  -31.3860 N   0  0  0  0  0  0  0  0  0  0  0  0
   -7.5530   23.1620  -32.3700 C   0  0  0  0  0  0  0  0  0  0  0  0
   -6.1500   23.7990  -32.3120 C   0  0  0  0  0  0  0  0  0  0  0  0
   -5.5270   23.7430  -30.9650 N   0  0  0  0  0  0  0  0  0  0  0  0
   -4.5680   22.6250  -30.8260 C   0  0  0  0  0  0  0  0  0  0  0  0
   -3.3190   23.0980  -30.1320 C   0  0  0  0  0  0  0  0  0  0  0  0
   -2.2520   22.1920  -29.9050 C   0  0  0  0  0  0  0  0  0  0  0  0
   -1.0830   22.6160  -29.2460 C   0  0  0  0  0  0  0  0  0  0  0  0
   -1.0170   23.9420  -28.8300 C   0  0  0  0  0  0  0  0  0  0  0  0
   -2.0340   24.8140  -29.0420 C   0  0  0  0  0  0  0  0  0  0  0  0
   -3.2070   24.4360  -29.6900 C   0  0  0  0  0  0  0  0  0  0  0  0
   -1.6970   26.0500  -28.5260 O   0  0  0  0  0  0  0  0  0  0  0  0
   -0.3850   25.9470  -27.9530 C   0  0  0  0  0  0  0  0  0  0  0  0
    0.0110   24.5850  -28.1690 O   0  0  0  0  0  0  0  0  0  0  0  0
   -6.5390   23.7380  -29.8890 C   0  0  0  0  0  0  0  0  0  0  0  0
   -7.4790   22.5200  -29.9880 C   0  0  0  0  0  0  0  0  0  0  0  0
   -5.8950   20.4240  -33.3100 C   0  0  0  0  0  0  0  0  0  0  0  0
   -4.5180   20.3670  -33.4650 C   0  0  0  0  0  0  0  0  0  0  0  0
   -3.8560   21.4410  -33.4350 O   0  0  0  0  0  0  0  0  0  0  0  0
   -3.8970   19.1630  -33.6450 N   0  0  0  0  0  0  0  0  0  0  0  0
   -2.4340   19.1090  -33.8210 C   0  0  0  0  0  0  0  0  0  0  0  0
   -4.6420   18.0130  -33.7370 C   0  0  0  0  0  0  0  0  0  0  0  0
   -4.0560   16.9120  -33.9430 O   0  0  0  0  0  0  0  0  0  0  0  0
   -7.0075   16.4371  -32.6636 H   0  0  0  0  0  0  0  0  0  0  0  0
   -7.7310   16.9749  -34.2173 H   0  0  0  0  0  0  0  0  0  0  0  0
   -6.2021   16.0320  -34.2173 H   0  0  0  0  0  0  0  0  0  0  0  0
   -8.5180   18.4260  -33.4660 H   0  0  0  0  0  0  0  0  0  0  0  0
   -8.4840   20.0630  -33.8390 H   0  0  0  0  0  0  0  0  0  0  0  0
   -9.2816   19.0314  -31.5011 H   0  0  0  0  0  0  0  0  0  0  0  0
   -7.5326   19.4403  -31.1912 H   0  0  0  0  0  0  0  0  0  0  0  0
   -9.3564   21.4798  -32.4633 H   0  0  0  0  0  0  0  0  0  0  0  0
   -9.3617   21.1689  -30.6414 H   0  0  0  0  0  0  0  0  0  0  0  0
   -7.7277   22.7583  -33.3782 H   0  0  0  0  0  0  0  0  0  0  0  0
   -8.3062   23.9293  -32.1379 H   0  0  0  0  0  0  0  0  0  0  0  0
   -5.4970   23.2671  -33.0196 H   0  0  0  0  0  0  0  0  0  0  0  0
   -6.2674   24.8620  -32.5692 H   0  0  0  0  0  0  0  0  0  0  0  0
   -5.0302   21.8206  -30.2349 H   0  0  0  0  0  0  0  0  0  0  0  0
   -4.3043   22.2505  -31.8261 H   0  0  0  0  0  0  0  0  0  0  0  0
   -2.3387   21.1500  -30.2466 H   0  0  0  0  0  0  0  0  0  0  0  0
   -0.2489   21.9219  -29.0658 H   0  0  0  0  0  0  0  0  0  0  0  0
   -4.0218   25.1567  -29.8530 H   0  0  0  0  0  0  0  0  0  0  0  0
    0.3107   26.6357  -28.4547 H   0  0  0  0  0  0  0  0  0  0  0  0
   -0.3791   26.2138  -26.8859 H   0  0  0  0  0  0  0  0  0  0  0  0
   -6.0244   23.7117  -28.9172 H   0  0  0  0  0  0  0  0  0  0  0  0
   -7.1488   24.6478  -29.9910 H   0  0  0  0  0  0  0  0  0  0  0  0
   -7.0524   21.6927  -29.4019 H   0  0  0  0  0  0  0  0  0  0  0  0
   -8.4636   22.8159  -29.5968 H   0  0  0  0  0  0  0  0  0  0  0  0
   -6.3925   21.3912  -33.1460 H   0  0  0  0  0  0  0  0  0  0  0  0
   -1.9465   19.0910  -32.8351 H   0  0  0  0  0  0  0  0  0  0  0  0
   -2.1652   18.2003  -34.3796 H   0  0  0  0  0  0  0  0  0  0  0  0
   -2.0989   19.9954  -34.3796 H   0  0  0  0  0  0  0  0  0  0  0  0
  1  2  1  0
  2  3  1  0
  3  4  1  0
  4  5  1  0
  5  6  1  0
  6  7  1  0
  7  8  1  0
  8  9  1  0
  9 10  1  0
 10 11  1  0
 11 12  1  0
 12 13  2  0
 13 14  1  0
 14 15  2  0
 15 16  1  0
 16 17  2  0
 16 18  1  0
 18 19  1  0
 19 20  1  0
 10 21  1  0
 21 22  1  0
  3 23  2  0
 23 24  1  0
 24 25  2  0
 24 26  1  0
 26 27  1  0
 26 28  1  0
 28 29  2  0
 28  2  1  0
 22  7  1  0
 17 12  1  0
 20 15  1  0
  1 30  1  0
  1 31  1  0
  1 32  1  0
  4 33  1  0
  4 34  1  0
  5 35  1  0
  5 36  1  0
  6 37  1  0
  6 38  1  0
  8 39  1  0
  8 40  1  0
  9 41  1  0
  9 42  1  0
 11 43  1  0
 11 44  1  0
 13 45  1  0
 14 46  1  0
 17 47  1  0
 19 48  1  0
 19 49  1  0
 21 50  1  0
 21 51  1  0
 22 52  1  0
 22 53  1  0
 23 54  1  0
 27 55  1  0
 27 56  1  0
 27 57  1  0
M  CHG  1   4   1
M  END
>  <UniqueID>  (22) 
21

>  <SMILES>  (22) 
Cn1c([NH2+]CCN2CCN(Cc3ccc4c(c3)OCO4)CC2)cc(=O)n(C)c1=O

>  <Energy>  (22) 
113.0724217099877

>  <Genealogy>  (22) 
Cn1c([NH2+]CCN2CCN(Cc3ccc4c(c3)OCO4)CC2)cc(=O)n(C)c1=O (protonated)
Cn1c([NH2+]CCN2CCN(Cc3ccc4c(c3)OCO4)CC2)cc(=O)n(C)c1=O (3D coordinates assigned)
Cn1c([NH2+]CCN2CCN(Cc3ccc4c(c3)OCO4)CC2)cc(=O)n(C)c1=O (nonaromatic ring conformer: 113.0724217099877 kcal/mol)

>  <smiles>  (22) 
Cn1c(NCCN2CCN(Cc3ccc4c(c3)OCO4)CC2)cc(=O)n(C)c1=O

>  <score_type>  (22) 
oracle

>  <origin>  (22) 
adg

>  <m_score__min__energy>  (22) 
-8.2200000000000006

>  <m_primary>  (22) 
energy

$$$$
