0:0
     RDKit          3D

 49 50  0  0  0  0  0  0  0  0999 V2000
   -9.4930   21.6210  -31.2580 C   0  0  0  0  0  0  0  0  0  0  0  0
   -8.5530   22.6890  -31.2100 O   0  0  0  0  0  0  0  0  0  0  0  0
   -7.1950   22.5670  -31.5400 C   0  0  0  0  0  0  0  0  0  0  0  0
   -6.3040   23.5250  -31.0480 C   0  0  0  0  0  0  0  0  0  0  0  0
   -4.9330   23.4420  -31.3370 C   0  0  0  0  0  0  0  0  0  0  0  0
   -4.0130   24.4280  -30.8550 N   0  0  0  0  0  0  0  0  0  0  0  0
   -3.4650   24.4910  -29.5320 C   0  0  0  0  0  0  0  0  0  0  0  0
   -2.5250   25.2970  -29.3010 O   0  0  0  0  0  0  0  0  0  0  0  0
   -3.8850   23.5300  -28.4490 C   0  0  0  0  0  0  0  0  0  0  0  0
   -3.0790   22.2150  -28.4930 C   0  0  0  0  0  0  0  0  0  0  0  0
   -2.4540   21.9270  -29.8110 N   0  0  0  0  0  0  0  0  0  0  0  0
   -2.5880   20.5040  -30.1860 C   0  0  0  0  0  0  0  0  0  0  0  0
   -2.1660   20.3110  -31.6460 C   0  0  0  0  0  0  0  0  0  0  0  0
   -0.9630   21.0940  -31.9640 N   0  0  0  0  0  0  0  0  0  0  0  0
   -0.4530   21.1120  -33.3160 C   0  0  0  0  0  0  0  0  0  0  0  0
   -1.2940   20.6610  -34.4730 C   0  0  0  0  0  0  0  0  0  0  0  0
    0.7160   21.5220  -33.5470 O   0  0  0  0  0  0  0  0  0  0  0  0
   -0.1550   21.6540  -30.8690 C   0  0  0  0  0  0  0  0  0  0  0  0
   -1.0230   22.3200  -29.7750 C   0  0  0  0  0  0  0  0  0  0  0  0
   -4.4630   22.4200  -32.1680 C   0  0  0  0  0  0  0  0  0  0  0  0
   -5.3450   21.4430  -32.6660 C   0  0  0  0  0  0  0  0  0  0  0  0
   -4.9130   20.3840  -33.4770 O   0  0  0  0  0  0  0  0  0  0  0  0
   -5.7200   19.2700  -33.8430 C   0  0  0  0  0  0  0  0  0  0  0  0
   -6.7060   21.5220  -32.3460 C   0  0  0  0  0  0  0  0  0  0  0  0
   -9.7582   21.3197  -30.2339 H   0  0  0  0  0  0  0  0  0  0  0  0
  -10.3978   21.9524  -31.7886 H   0  0  0  0  0  0  0  0  0  0  0  0
   -9.0494   20.7656  -31.7886 H   0  0  0  0  0  0  0  0  0  0  0  0
   -6.6809   24.3520  -30.4283 H   0  0  0  0  0  0  0  0  0  0  0  0
   -3.7294   24.0084  -27.4708 H   0  0  0  0  0  0  0  0  0  0  0  0
   -4.9447   23.2824  -28.6091 H   0  0  0  0  0  0  0  0  0  0  0  0
   -2.2809   22.2742  -27.7383 H   0  0  0  0  0  0  0  0  0  0  0  0
   -3.7919   21.4006  -28.2965 H   0  0  0  0  0  0  0  0  0  0  0  0
   -2.9190   22.5160  -30.5420 H   0  0  0  0  0  0  0  0  0  0  0  0
   -1.9447   19.8928  -29.5359 H   0  0  0  0  0  0  0  0  0  0  0  0
   -3.6366   20.1938  -30.0666 H   0  0  0  0  0  0  0  0  0  0  0  0
   -1.9559   19.2454  -31.8201 H   0  0  0  0  0  0  0  0  0  0  0  0
   -2.9858   20.6576  -32.2923 H   0  0  0  0  0  0  0  0  0  0  0  0
   -2.2047   20.1726  -34.0960 H   0  0  0  0  0  0  0  0  0  0  0  0
   -1.5715   21.5313  -35.0858 H   0  0  0  0  0  0  0  0  0  0  0  0
   -0.7226   19.9483  -35.0858 H   0  0  0  0  0  0  0  0  0  0  0  0
    0.4293   20.8425  -30.4107 H   0  0  0  0  0  0  0  0  0  0  0  0
    0.4975   22.4293  -31.2969 H   0  0  0  0  0  0  0  0  0  0  0  0
   -0.6134   22.0418  -28.7927 H   0  0  0  0  0  0  0  0  0  0  0  0
   -0.9880   23.4038  -29.9598 H   0  0  0  0  0  0  0  0  0  0  0  0
   -3.3965   22.3796  -32.4342 H   0  0  0  0  0  0  0  0  0  0  0  0
   -6.0843   18.7671  -32.9351 H   0  0  0  0  0  0  0  0  0  0  0  0
   -6.5770   19.6179  -34.4384 H   0  0  0  0  0  0  0  0  0  0  0  0
   -5.1223   18.5641  -34.4384 H   0  0  0  0  0  0  0  0  0  0  0  0
   -7.4002   20.7593  -32.7286 H   0  0  0  0  0  0  0  0  0  0  0  0
  1  2  1  0
  2  3  1  0
  3  4  2  0
  4  5  1  0
  5  6  1  0
  6  7  1  0
  7  8  2  0
  7  9  1  0
  9 10  1  0
 10 11  1  0
 11 12  1  0
 12 13  1  0
 13 14  1  0
 14 15  1  0
 15 16  1  0
 15 17  2  0
 14 18  1  0
 18 19  1  0
  5 20  2  0
 20 21  1  0
 21 22  1  0
 22 23  1  0
 21 24  2  0
 24  3  1  0
 19 11  1  0
  1 25  1  0
  1 26  1  0
  1 27  1  0
  4 28  1  0
  9 29  1  0
  9 30  1  0
 10 31  1  0
 10 32  1  0
 11 33  1  0
 12 34  1  0
 12 35  1  0
 13 36  1  0
 13 37  1  0
 16 38  1  0
 16 39  1  0
 16 40  1  0
 18 41  1  0
 18 42  1  0
 19 43  1  0
 19 44  1  0
 20 45  1  0
 23 46  1  0
 23 47  1  0
 23 48  1  0
 24 49  1  0
M  CHG  2   6  -1  11   1
M  END
>  <UniqueID>  (1) 
1

>  <SMILES>  (1) 
COc1cc([N-]C(=O)CC[NH+]2CCN(C(C)=O)CC2)cc(OC)c1

>  <Energy>  (1) 
54.35462949395001

>  <Genealogy>  (1) 
COc1cc([N-]C(=O)CC[NH+]2CCN(C(C)=O)CC2)cc(OC)c1 (protonated)
COc1cc([N-]C(=O)CC[NH+]2CCN(C(C)=O)CC2)cc(OC)c1 (3D coordinates assigned)
COc1cc([N-]C(=O)CC[NH+]2CCN(C(C)=O)CC2)cc(OC)c1 (nonaromatic ring conformer: 54.35462949395001 kcal/mol)

>  <smiles>  (1) 
COc1cc(NC(=O)CCN2CCN(C(C)=O)CC2)cc(OC)c1

>  <score_type>  (1) 
oracle

>  <origin>  (1) 
adg

>  <m_score__min__energy>  (1) 
-8.4800000000000004

>  <m_primary>  (1) 
energy

$$$$
1:0
     RDKit          3D

 69 74  0  0  0  0  0  0  0  0999 V2000
   -4.3650   24.4239  -25.7650 H   0  0  0  0  0  0  0  0  0  0  0  0
   -3.8420   24.3860  -26.7320 C   0  0  0  0  0  0  0  0  0  0  0  0
   -2.4600   24.1750  -26.7710 C   0  0  0  0  0  0  0  0  0  0  0  0
   -1.8941   24.0671  -25.8339 H   0  0  0  0  0  0  0  0  0  0  0  0
   -1.7960   24.1010  -28.0010 C   0  0  0  0  0  0  0  0  0  0  0  0
   -0.0340   23.7670  -28.0770 S   0  0  0  0  0  0  0  0  0  0  0  0
   -0.2590   22.0030  -28.3370 C   0  0  0  0  0  0  0  0  0  0  0  0
   -0.2440   21.1180  -27.2420 C   0  0  0  0  0  0  0  0  0  0  0  0
   -0.0656   21.5061  -26.2283 H   0  0  0  0  0  0  0  0  0  0  0  0
   -0.4560   19.7380  -27.4360 C   0  0  0  0  0  0  0  0  0  0  0  0
   -0.4179   19.0462  -26.5816 H   0  0  0  0  0  0  0  0  0  0  0  0
   -0.7160   19.2530  -28.7270 C   0  0  0  0  0  0  0  0  0  0  0  0
   -0.8995   18.1830  -28.9044 H   0  0  0  0  0  0  0  0  0  0  0  0
   -0.7340   20.1440  -29.7490 N   0  0  0  0  0  0  0  0  0  0  0  0
   -1.0420   19.9030  -31.0070 N   0  0  0  0  0  0  0  0  0  0  0  0
   -0.9710   21.1140  -31.6060 C   0  0  0  0  0  0  0  0  0  0  0  0
   -1.2850   21.2900  -32.8560 N   0  0  0  0  0  0  0  0  0  0  0  0
   -0.5230   20.8200  -33.9780 C   0  0  0  0  0  0  0  0  0  0  0  0
   -0.5690   19.4780  -34.3780 C   0  0  0  0  0  0  0  0  0  0  0  0
   -1.1482   18.7542  -33.7859 H   0  0  0  0  0  0  0  0  0  0  0  0
    0.1180   19.0440  -35.5300 C   0  0  0  0  0  0  0  0  0  0  0  0
    0.1090   17.6910  -35.9050 O   0  0  0  0  0  0  0  0  0  0  0  0
    0.0910   16.5950  -34.9990 C   0  0  0  0  0  0  0  0  0  0  0  0
    0.0972   16.9730  -33.9660 H   0  0  0  0  0  0  0  0  0  0  0  0
   -0.8171   15.9968  -35.1651 H   0  0  0  0  0  0  0  0  0  0  0  0
    0.9790   15.9674  -35.1651 H   0  0  0  0  0  0  0  0  0  0  0  0
    0.8350   19.9920  -36.3050 C   0  0  0  0  0  0  0  0  0  0  0  0
    1.4950   19.6700  -37.5040 O   0  0  0  0  0  0  0  0  0  0  0  0
    2.6440   18.8370  -37.6340 C   0  0  0  0  0  0  0  0  0  0  0  0
    3.0162   18.5672  -36.6347 H   0  0  0  0  0  0  0  0  0  0  0  0
    2.3742   17.9233  -38.1838 H   0  0  0  0  0  0  0  0  0  0  0  0
    3.4285   19.3776  -38.1838 H   0  0  0  0  0  0  0  0  0  0  0  0
    0.9100   21.3280  -35.8780 C   0  0  0  0  0  0  0  0  0  0  0  0
    1.6830   22.2260  -36.6340 O   0  0  0  0  0  0  0  0  0  0  0  0
    2.4360   23.3050  -36.0830 C   0  0  0  0  0  0  0  0  0  0  0  0
    2.4003   23.2538  -34.9848 H   0  0  0  0  0  0  0  0  0  0  0  0
    3.4807   23.2326  -36.4197 H   0  0  0  0  0  0  0  0  0  0  0  0
    2.0077   24.2606  -36.4197 H   0  0  0  0  0  0  0  0  0  0  0  0
    0.2170   21.7360  -34.7240 C   0  0  0  0  0  0  0  0  0  0  0  0
    0.2594   22.7885  -34.4070 H   0  0  0  0  0  0  0  0  0  0  0  0
   -0.6380   22.1260  -30.7590 N   0  0  0  0  0  0  0  0  0  0  0  0
   -0.5010   21.4550  -29.6000 C   0  0  0  0  0  0  0  0  0  0  0  0
   -2.5140   24.2620  -29.1910 C   0  0  0  0  0  0  0  0  0  0  0  0
   -1.9901   24.2010  -30.1563 H   0  0  0  0  0  0  0  0  0  0  0  0
   -3.8990   24.5010  -29.1640 C   0  0  0  0  0  0  0  0  0  0  0  0
   -4.6380   24.7410  -30.4230 C   0  0  0  0  0  0  0  0  0  0  0  0
   -4.2840   25.6740  -31.1920 O   0  0  0  0  0  0  0  0  0  0  0  0
   -5.7010   23.8530  -30.7980 N   0  0  0  0  0  0  0  0  0  0  0  0
   -5.6200   22.6250  -31.5430 C   0  0  0  0  0  0  0  0  0  0  0  0
   -4.3770   22.2550  -32.0680 C   0  0  0  0  0  0  0  0  0  0  0  0
   -3.4978   22.8905  -31.8860 H   0  0  0  0  0  0  0  0  0  0  0  0
   -4.2420   21.0880  -32.8200 C   0  0  0  0  0  0  0  0  0  0  0  0
   -3.2633   20.8222  -33.2460 H   0  0  0  0  0  0  0  0  0  0  0  0
   -5.3460   20.2520  -33.0360 C   0  0  0  0  0  0  0  0  0  0  0  0
   -5.1910   19.0130  -33.8230 C   0  0  0  0  0  0  0  0  0  0  0  0
   -4.0100   18.4180  -34.0860 N   0  0  0  0  0  0  0  0  0  0  0  0
   -4.4080   17.3450  -34.7990 C   0  0  0  0  0  0  0  0  0  0  0  0
   -3.4660   16.3560  -35.3940 C   0  0  0  0  0  0  0  0  0  0  0  0
   -2.9485   15.8127  -34.5897 H   0  0  0  0  0  0  0  0  0  0  0  0
   -4.0273   15.6431  -36.0158 H   0  0  0  0  0  0  0  0  0  0  0  0
   -2.7266   16.8820  -36.0158 H   0  0  0  0  0  0  0  0  0  0  0  0
   -5.7410   17.3040  -34.9790 N   0  0  0  0  0  0  0  0  0  0  0  0
   -6.1900   18.3490  -34.3530 O   0  0  0  0  0  0  0  0  0  0  0  0
   -6.5910   20.6040  -32.4860 C   0  0  0  0  0  0  0  0  0  0  0  0
   -7.4626   19.9515  -32.6427 H   0  0  0  0  0  0  0  0  0  0  0  0
   -6.7270   21.7790  -31.7410 C   0  0  0  0  0  0  0  0  0  0  0  0
   -7.7030   22.0433  -31.3079 H   0  0  0  0  0  0  0  0  0  0  0  0
   -4.5600   24.5490  -27.9220 C   0  0  0  0  0  0  0  0  0  0  0  0
   -5.6467   24.7155  -27.8868 H   0  0  0  0  0  0  0  0  0  0  0  0
  1  2  1  0
  2  3  2  0
  3  4  1  0
  3  5  1  0
  5  6  1  0
  6  7  1  0
  7  8  2  0
  8  9  1  0
  8 10  1  0
 10 11  1  0
 10 12  2  0
 12 13  1  0
 12 14  1  0
 14 15  1  0
 15 16  1  0
 16 17  2  0
 17 18  1  0
 18 19  2  0
 19 20  1  0
 19 21  1  0
 21 22  1  0
 22 23  1  0
 23 24  1  0
 23 25  1  0
 23 26  1  0
 21 27  2  0
 27 28  1  0
 28 29  1  0
 29 30  1  0
 29 31  1  0
 29 32  1  0
 27 33  1  0
 33 34  1  0
 34 35  1  0
 35 36  1  0
 35 37  1  0
 35 38  1  0
 33 39  2  0
 39 40  1  0
 16 41  1  0
 41 42  2  0
  5 43  2  0
 43 44  1  0
 43 45  1  0
 45 46  1  0
 46 47  2  0
 46 48  1  0
 48 49  1  0
 49 50  2  0
 50 51  1  0
 50 52  1  0
 52 53  1  0
 52 54  2  0
 54 55  1  0
 55 56  2  0
 56 57  1  0
 57 58  1  0
 58 59  1  0
 58 60  1  0
 58 61  1  0
 57 62  2  0
 62 63  1  0
 54 64  1  0
 64 65  1  0
 64 66  2  0
 66 67  1  0
 45 68  2  0
 68 69  1  0
 68  2  1  0
 42  7  1  0
 66 49  1  0
 42 14  1  0
 63 55  1  0
 39 18  1  0
M  CHG  2  15  -1  48  -1
M  END
>  <UniqueID>  (2) 
2

>  <SMILES>  (2) 
COc1cc(/N=c2\nc3c(Sc4cccc(C(=O)[N-]c5ccc(-c6nc(C)no6)cc5)c4)cccn3[n-]2)cc(OC)c1OC

>  <Energy>  (2) 
149.60760974562635

>  <Genealogy>  (2) 
COc1cc(N=c2nc3c(Sc4cccc(C(=O)[N-]c5ccc(-c6nc(C)no6)cc5)c4)cccn3[n-]2)cc(OC)c1OC (protonated)
COc1cc(/N=c2\nc3c(Sc4cccc(C(=O)[N-]c5ccc(-c6nc(C)no6)cc5)c4)cccn3[n-]2)cc(OC)c1OC (cis-trans isomerization)
COc1cc(/N=c2\nc3c(Sc4cccc(C(=O)[N-]c5ccc(-c6nc(C)no6)cc5)c4)cccn3[n-]2)cc(OC)c1OC (3D coordinates assigned)
COc1cc(/N=c2\nc3c(Sc4cccc(C(=O)[N-]c5ccc(-c6nc(C)no6)cc5)c4)cccn3[n-]2)cc(OC)c1OC (optimized conformer: 149.60760974562635 kcal/mol)

>  <smiles>  (2) 
COc1cc(N=c2nc3c(Sc4cccc(C(=O)Nc5ccc(-c6nc(C)no6)cc5)c4)cccn3[nH]2)cc(OC)c1OC

>  <score_type>  (2) 
oracle

>  <origin>  (2) 
adg

>  <m_score__min__energy>  (2) 
-11.74

>  <m_primary>  (2) 
energy

$$$$
2:0
     RDKit          3D

 41 43  0  0  0  0  0  0  0  0999 V2000
   -6.1110   18.5410  -33.8610 C   0  0  0  0  0  0  0  0  0  0  0  0
   -7.0100   19.4040  -33.0320 C   0  0  0  0  0  0  0  0  0  0  0  0
   -8.1810   18.8770  -32.4740 C   0  0  0  0  0  0  0  0  0  0  0  0
   -9.0300   19.7170  -31.7490 C   0  0  0  0  0  0  0  0  0  0  0  0
   -8.7060   21.0630  -31.5840 C   0  0  0  0  0  0  0  0  0  0  0  0
   -7.5180   21.5600  -32.1440 C   0  0  0  0  0  0  0  0  0  0  0  0
   -7.1550   22.9850  -32.0330 C   0  0  0  0  0  0  0  0  0  0  0  0
   -7.5760   23.7950  -32.9060 O   0  0  0  0  0  0  0  0  0  0  0  0
   -6.3170   23.4730  -30.9710 N   0  0  0  0  0  0  0  0  0  0  0  0
   -6.4170   24.8300  -30.4700 C   0  0  0  0  0  0  0  0  0  0  0  0
   -5.4190   24.9170  -29.3240 C   0  0  0  0  0  0  0  0  0  0  0  0
   -4.4760   23.7280  -29.4870 C   0  0  0  0  0  0  0  0  0  0  0  0
   -5.2000   22.7310  -30.3970 C   0  0  2  0  0  0  0  0  0  0  0  0
   -4.2730   22.2180  -31.4770 C   0  0  0  0  0  0  0  0  0  0  0  0
   -4.5670   22.2520  -32.7940 N   0  0  0  0  0  0  0  0  0  0  0  0
   -3.5070   21.8350  -33.4690 N   0  0  0  0  0  0  0  0  0  0  0  0
   -2.5640   21.5530  -32.5470 C   0  0  0  0  0  0  0  0  0  0  0  0
   -1.1870   21.0860  -32.8970 C   0  0  0  0  0  0  0  0  0  0  0  0
   -2.9980   21.8090  -31.2900 N   0  0  0  0  0  0  0  0  0  0  0  0
   -2.2500   21.6590  -30.0470 C   0  0  0  0  0  0  0  0  0  0  0  0
   -6.7180   20.7220  -32.8630 N   0  0  0  0  0  0  0  0  0  0  0  0
   -5.4764   17.9318  -33.2006 H   0  0  0  0  0  0  0  0  0  0  0  0
   -6.7199   17.8806  -34.4958 H   0  0  0  0  0  0  0  0  0  0  0  0
   -5.4760   19.1764  -34.4958 H   0  0  0  0  0  0  0  0  0  0  0  0
   -8.4298   17.8135  -32.6049 H   0  0  0  0  0  0  0  0  0  0  0  0
   -9.9546   19.3162  -31.3081 H   0  0  0  0  0  0  0  0  0  0  0  0
   -9.3750   21.7297  -31.0202 H   0  0  0  0  0  0  0  0  0  0  0  0
   -6.1589   25.5510  -31.2597 H   0  0  0  0  0  0  0  0  0  0  0  0
   -7.4388   25.0678  -30.1392 H   0  0  0  0  0  0  0  0  0  0  0  0
   -4.8559   25.8603  -29.3799 H   0  0  0  0  0  0  0  0  0  0  0  0
   -5.9269   24.8941  -28.3485 H   0  0  0  0  0  0  0  0  0  0  0  0
   -3.5317   24.0507  -29.9498 H   0  0  0  0  0  0  0  0  0  0  0  0
   -4.2276   23.2768  -28.5150 H   0  0  0  0  0  0  0  0  0  0  0  0
   -5.5450   21.8455  -29.8430 H   0  0  0  0  0  0  0  0  0  0  0  0
   -5.4600   22.5700  -33.2330 H   0  0  0  0  0  0  0  0  0  0  0  0
   -0.6196   20.8936  -31.9745 H   0  0  0  0  0  0  0  0  0  0  0  0
   -1.2528   20.1599  -33.4870 H   0  0  0  0  0  0  0  0  0  0  0  0
   -0.6759   21.8610  -33.4870 H   0  0  0  0  0  0  0  0  0  0  0  0
   -2.9286   21.7951  -29.1920 H   0  0  0  0  0  0  0  0  0  0  0  0
   -1.8052   20.6538  -30.0057 H   0  0  0  0  0  0  0  0  0  0  0  0
   -1.4520   22.4150  -30.0057 H   0  0  0  0  0  0  0  0  0  0  0  0
  1  2  1  0
  2  3  2  0
  3  4  1  0
  4  5  2  0
  5  6  1  0
  6  7  1  0
  7  8  2  0
  7  9  1  0
  9 10  1  0
 10 11  1  0
 11 12  1  0
 12 13  1  0
 13 14  1  0
 14 15  2  0
 15 16  1  0
 16 17  2  0
 17 18  1  0
 17 19  1  0
 19 20  1  0
  6 21  2  0
 21  2  1  0
 13  9  1  0
 19 14  1  0
  1 22  1  0
  1 23  1  0
  1 24  1  0
  3 25  1  0
  4 26  1  0
  5 27  1  0
 10 28  1  0
 10 29  1  0
 11 30  1  0
 11 31  1  0
 12 32  1  0
 12 33  1  0
 13 34  1  1
 15 35  1  0
 18 36  1  0
 18 37  1  0
 18 38  1  0
 20 39  1  0
 20 40  1  0
 20 41  1  0
M  CHG  1  15   1
M  END
>  <UniqueID>  (3) 
3

>  <SMILES>  (3) 
Cc1cccc(C(=O)N2CCC[C@@H]2c2[nH+]nc(C)n2C)n1

>  <Energy>  (3) 
79.45512214677566

>  <Genealogy>  (3) 
Cc1cccc(C(=O)N2CCCC2c2[nH+]nc(C)n2C)n1 (protonated)
Cc1cccc(C(=O)N2CCC[C@@H]2c2[nH+]nc(C)n2C)n1 (chirality)
Cc1cccc(C(=O)N2CCC[C@@H]2c2[nH+]nc(C)n2C)n1 (3D coordinates assigned)
Cc1cccc(C(=O)N2CCC[C@@H]2c2[nH+]nc(C)n2C)n1 (nonaromatic ring conformer: 79.45512214677566 kcal/mol)

>  <smiles>  (3) 
Cc1cccc(C(=O)N2CCCC2c2nnc(C)n2C)n1

>  <score_type>  (3) 
oracle

>  <origin>  (3) 
adg

>  <m_score__min__energy>  (3) 
-7.2300000000000004

>  <m_primary>  (3) 
energy

$$$$
3:0
     RDKit          3D

 47 49  0  0  0  0  0  0  0  0999 V2000
   -8.6360   22.2580  -30.5480 O   0  0  0  0  0  0  0  0  0  0  0  0
   -8.3950   21.8400  -31.7130 C   0  0  0  0  0  0  0  0  0  0  0  0
   -9.3320   20.8510  -32.3380 C   0  0  0  0  0  0  0  0  0  0  0  0
   -9.0800   19.1810  -31.6360 S   0  0  0  0  0  0  0  0  0  0  0  0
   -7.6220   18.7980  -32.6120 C   0  0  0  0  0  0  0  0  0  0  0  0
   -7.0090   17.5430  -32.5010 C   0  0  0  0  0  0  0  0  0  0  0  0
   -5.8710   17.2690  -33.2630 C   0  0  0  0  0  0  0  0  0  0  0  0
   -5.3640   18.2400  -34.1280 C   0  0  0  0  0  0  0  0  0  0  0  0
   -6.0090   19.4780  -34.2190 C   0  0  0  0  0  0  0  0  0  0  0  0
   -7.1140   19.7270  -33.4670 N   0  0  0  0  0  0  0  0  0  0  0  0
   -7.2000   22.2350  -32.4080 N   0  0  0  0  0  0  0  0  0  0  0  0
   -6.0090   22.6840  -31.7400 C   0  0  0  0  0  0  0  0  0  0  0  0
   -6.0060   23.8240  -30.9190 C   0  0  0  0  0  0  0  0  0  0  0  0
   -4.8500   24.1860  -30.2210 C   0  0  0  0  0  0  0  0  0  0  0  0
   -3.6830   23.4200  -30.3430 C   0  0  0  0  0  0  0  0  0  0  0  0
   -2.2620   23.8050  -29.3690 S   0  0  0  0  0  0  0  0  0  0  0  0
   -1.0240   23.3610  -30.0980 O   0  0  0  0  0  0  0  0  0  0  0  0
   -2.1800   25.2930  -29.1740 O   0  0  0  0  0  0  0  0  0  0  0  0
   -2.3370   23.0210  -27.8060 N   0  0  0  0  0  0  0  0  0  0  0  0
   -0.9840   22.6040  -27.3750 C   0  0  0  0  0  0  0  0  0  0  0  0
   -1.0490   21.5680  -26.2480 C   0  0  0  0  0  0  0  0  0  0  0  0
   -1.7660   20.2850  -26.7120 C   0  0  0  0  0  0  0  0  0  0  0  0
   -2.7370   20.5350  -27.8770 C   0  0  0  0  0  0  0  0  0  0  0  0
   -3.3530   21.9390  -27.7890 C   0  0  0  0  0  0  0  0  0  0  0  0
   -3.6660   22.3220  -31.2120 C   0  0  0  0  0  0  0  0  0  0  0  0
   -4.8180   21.9610  -31.9120 C   0  0  0  0  0  0  0  0  0  0  0  0
  -10.3684   21.1682  -32.1502 H   0  0  0  0  0  0  0  0  0  0  0  0
   -9.1325   20.8120  -33.4191 H   0  0  0  0  0  0  0  0  0  0  0  0
   -7.4195   16.7819  -31.8212 H   0  0  0  0  0  0  0  0  0  0  0  0
   -5.3755   16.2903  -33.1816 H   0  0  0  0  0  0  0  0  0  0  0  0
   -4.4675   18.0341  -34.7313 H   0  0  0  0  0  0  0  0  0  0  0  0
   -5.6219   20.2507  -34.8995 H   0  0  0  0  0  0  0  0  0  0  0  0
   -7.0960   21.9140  -33.3970 H   0  0  0  0  0  0  0  0  0  0  0  0
   -6.9165   24.4340  -30.8250 H   0  0  0  0  0  0  0  0  0  0  0  0
   -4.8566   25.0754  -29.5737 H   0  0  0  0  0  0  0  0  0  0  0  0
   -0.4545   22.1655  -28.2337 H   0  0  0  0  0  0  0  0  0  0  0  0
   -0.4526   23.4907  -26.9990 H   0  0  0  0  0  0  0  0  0  0  0  0
   -0.0257   21.3139  -25.9345 H   0  0  0  0  0  0  0  0  0  0  0  0
   -1.6151   22.0000  -25.4096 H   0  0  0  0  0  0  0  0  0  0  0  0
   -1.0084   19.5562  -27.0358 H   0  0  0  0  0  0  0  0  0  0  0  0
   -2.3561   19.9092  -25.8631 H   0  0  0  0  0  0  0  0  0  0  0  0
   -2.1906   20.4409  -28.8271 H   0  0  0  0  0  0  0  0  0  0  0  0
   -3.5473   19.7930  -27.8230 H   0  0  0  0  0  0  0  0  0  0  0  0
   -4.0288   22.0794  -28.6455 H   0  0  0  0  0  0  0  0  0  0  0  0
   -3.8867   22.0043  -26.8293 H   0  0  0  0  0  0  0  0  0  0  0  0
   -2.7408   21.7417  -31.3434 H   0  0  0  0  0  0  0  0  0  0  0  0
   -4.7927   21.1051  -32.6025 H   0  0  0  0  0  0  0  0  0  0  0  0
  1  2  2  0
  2  3  1  0
  3  4  1  0
  4  5  1  0
  5  6  2  0
  6  7  1  0
  7  8  2  0
  8  9  1  0
  9 10  2  0
  2 11  1  0
 11 12  1  0
 12 13  2  0
 13 14  1  0
 14 15  2  0
 15 16  1  0
 16 17  2  0
 16 18  2  0
 16 19  1  0
 19 20  1  0
 20 21  1  0
 21 22  1  0
 22 23  1  0
 23 24  1  0
 15 25  1  0
 25 26  2  0
 10  5  1  0
 26 12  1  0
 24 19  1  0
  3 27  1  0
  3 28  1  0
  6 29  1  0
  7 30  1  0
  8 31  1  0
  9 32  1  0
 11 33  1  0
 13 34  1  0
 14 35  1  0
 20 36  1  0
 20 37  1  0
 21 38  1  0
 21 39  1  0
 22 40  1  0
 22 41  1  0
 23 42  1  0
 23 43  1  0
 24 44  1  0
 24 45  1  0
 25 46  1  0
 26 47  1  0
M  END
>  <UniqueID>  (4) 
4

>  <SMILES>  (4) 
O=C(CSc1ccccn1)Nc1ccc(S(=O)(=O)N2CCCCC2)cc1

>  <Energy>  (4) 
49.88849082925178

>  <Genealogy>  (4) 
O=C(CSc1ccccn1)Nc1ccc(S(=O)(=O)N2CCCCC2)cc1 (3D coordinates assigned)
O=C(CSc1ccccn1)Nc1ccc(S(=O)(=O)N2CCCCC2)cc1 (nonaromatic ring conformer: 49.88849082925178 kcal/mol)

>  <smiles>  (4) 
O=C(CSc1ccccn1)Nc1ccc(S(=O)(=O)N2CCCCC2)cc1

>  <score_type>  (4) 
oracle

>  <origin>  (4) 
adg

>  <m_score__min__energy>  (4) 
-9.0099999999999998

>  <m_primary>  (4) 
energy

$$$$
4:0
     RDKit          3D

 36 38  0  0  0  0  0  0  0  0999 V2000
   -0.1240   25.9010  -27.3580 C   0  0  0  0  0  0  0  0  0  0  0  0
   -0.9080   24.9920  -28.2320 C   0  0  0  0  0  0  0  0  0  0  0  0
   -0.7410   23.6790  -28.4780 N   0  0  0  0  0  0  0  0  0  0  0  0
   -1.6850   23.2790  -29.3300 C   0  0  0  0  0  0  0  0  0  0  0  0
   -1.9810   22.0990  -29.8980 N   0  0  0  0  0  0  0  0  0  0  0  0
   -3.0200   21.9790  -30.7420 C   0  0  0  0  0  0  0  0  0  0  0  0
   -3.3280   20.6670  -31.3520 C   0  0  0  0  0  0  0  0  0  0  0  0
   -3.8090   23.0640  -31.0470 C   0  0  0  0  0  0  0  0  0  0  0  0
   -4.9730   23.0110  -31.9640 C   0  0  0  0  0  0  0  0  0  0  0  0
   -6.2240   22.9810  -31.1350 C   0  0  0  0  0  0  0  0  0  0  0  0
   -7.1860   21.9500  -31.5930 C   0  0  0  0  0  0  0  0  0  0  0  0
   -6.8260   20.8440  -32.3340 C   0  0  0  0  0  0  0  0  0  0  0  0
   -7.7780   19.8990  -32.7350 C   0  0  0  0  0  0  0  0  0  0  0  0
   -9.0930   20.1020  -32.3680 C   0  0  0  0  0  0  0  0  0  0  0  0
   -9.4530   21.2070  -31.6280 C   0  0  0  0  0  0  0  0  0  0  0  0
   -8.5250   22.1370  -31.2300 C   0  0  0  0  0  0  0  0  0  0  0  0
   -3.5010   24.2930  -30.4570 C   0  0  0  0  0  0  0  0  0  0  0  0
   -4.1750   25.3280  -30.6850 O   0  0  0  0  0  0  0  0  0  0  0  0
   -2.4500   24.3600  -29.6160 N   0  0  0  0  0  0  0  0  0  0  0  0
   -1.9760   25.4150  -28.9450 N   0  0  0  0  0  0  0  0  0  0  0  0
   -0.3291   25.6632  -26.3038 H   0  0  0  0  0  0  0  0  0  0  0  0
    0.9491   25.7700  -27.5614 H   0  0  0  0  0  0  0  0  0  0  0  0
   -0.4112   26.9432  -27.5614 H   0  0  0  0  0  0  0  0  0  0  0  0
   -3.5021   19.9255  -30.5584 H   0  0  0  0  0  0  0  0  0  0  0  0
   -4.2298   20.7552  -31.9756 H   0  0  0  0  0  0  0  0  0  0  0  0
   -2.4811   20.3447  -31.9756 H   0  0  0  0  0  0  0  0  0  0  0  0
   -4.9771   23.9000  -32.6118 H   0  0  0  0  0  0  0  0  0  0  0  0
   -4.9162   22.1136  -32.5976 H   0  0  0  0  0  0  0  0  0  0  0  0
   -5.9500   22.7684  -30.0911 H   0  0  0  0  0  0  0  0  0  0  0  0
   -6.7133   23.9612  -31.2341 H   0  0  0  0  0  0  0  0  0  0  0  0
   -5.7721   20.7018  -32.6150 H   0  0  0  0  0  0  0  0  0  0  0  0
   -7.4859   19.0187  -33.3264 H   0  0  0  0  0  0  0  0  0  0  0  0
   -9.8611   19.3745  -32.6693 H   0  0  0  0  0  0  0  0  0  0  0  0
  -10.5080   21.3472  -31.3498 H   0  0  0  0  0  0  0  0  0  0  0  0
   -8.8278   23.0126  -30.6370 H   0  0  0  0  0  0  0  0  0  0  0  0
   -2.3630   26.3890  -28.9700 H   0  0  0  0  0  0  0  0  0  0  0  0
  1  2  1  0
  2  3  2  0
  3  4  1  0
  4  5  2  0
  5  6  1  0
  6  7  1  0
  6  8  2  0
  8  9  1  0
  9 10  1  0
 10 11  1  0
 11 12  2  0
 12 13  1  0
 13 14  2  0
 14 15  1  0
 15 16  2  0
  8 17  1  0
 17 18  2  0
 17 19  1  0
 19 20  1  0
 20  2  1  0
 19  4  1  0
 16 11  1  0
  1 21  1  0
  1 22  1  0
  1 23  1  0
  7 24  1  0
  7 25  1  0
  7 26  1  0
  9 27  1  0
  9 28  1  0
 10 29  1  0
 10 30  1  0
 12 31  1  0
 13 32  1  0
 14 33  1  0
 15 34  1  0
 16 35  1  0
 20 36  1  0
M  END
>  <smiles>  (5) 
Cc1nc2nc(C)c(CCc3ccccc3)c(=O)n2[nH]1

>  <score_type>  (5) 
oracle

>  <origin>  (5) 
adg

>  <m_score__min__energy>  (5) 
-8.2200000000000006

>  <m_primary>  (5) 
energy

$$$$
5:0
     RDKit          3D

 58 58  0  0  0  0  0  0  0  0999 V2000
   -4.6510   19.6900  -33.4270 C   0  0  0  0  0  0  0  0  0  0  0  0
   -6.0210   19.2360  -33.9590 C   0  0  0  0  0  0  0  0  0  0  0  0
   -7.1800   19.7770  -33.2010 N   0  0  0  0  0  0  0  0  0  0  0  0
   -7.5250   18.8960  -32.0540 C   0  0  0  0  0  0  0  0  0  0  0  0
   -9.0330   18.6680  -31.9190 C   0  0  0  0  0  0  0  0  0  0  0  0
   -6.9610   21.1960  -32.7920 C   0  0  0  0  0  0  0  0  0  0  0  0
   -6.9960   21.3620  -31.2580 C   0  0  0  0  0  0  0  0  0  0  0  0
   -7.6550   22.6770  -30.8110 C   0  0  0  0  0  0  0  0  0  0  0  0
   -6.6420   23.7000  -30.2780 C   0  0  0  0  0  0  0  0  0  0  0  0
   -6.0060   24.4880  -31.4280 C   0  0  0  0  0  0  0  0  0  0  0  0
   -4.6100   24.8050  -31.1310 N   0  0  0  0  0  0  0  0  0  0  0  0
   -3.7320   23.9790  -30.3380 C   0  0  0  0  0  0  0  0  0  0  0  0
   -3.1400   22.8070  -30.8480 C   0  0  0  0  0  0  0  0  0  0  0  0
   -2.3070   22.0260  -30.0410 C   0  0  0  0  0  0  0  0  0  0  0  0
   -2.0400   22.4080  -28.7200 C   0  0  0  0  0  0  0  0  0  0  0  0
   -1.1830   21.6080  -27.8900 N   0  0  0  0  0  0  0  0  0  0  0  0
   -1.7530   20.8280  -26.7840 C   0  0  0  0  0  0  0  0  0  0  0  0
   -2.6140   19.6960  -27.3290 C   0  0  0  0  0  0  0  0  0  0  0  0
   -3.1650   18.6480  -26.0000 Cl  0  0  0  0  0  0  0  0  0  0  0  0
    0.2260   21.4390  -28.2630 C   0  0  0  0  0  0  0  0  0  0  0  0
    0.5920   19.9570  -28.2880 C   0  0  0  0  0  0  0  0  0  0  0  0
    0.0990   19.2270  -29.8370 Cl  0  0  0  0  0  0  0  0  0  0  0  0
   -2.6090   23.5830  -28.2140 C   0  0  0  0  0  0  0  0  0  0  0  0
   -3.4530   24.3580  -29.0140 C   0  0  0  0  0  0  0  0  0  0  0  0
   -4.6649   19.6854  -32.3271 H   0  0  0  0  0  0  0  0  0  0  0  0
   -3.8717   19.0021  -33.7867 H   0  0  0  0  0  0  0  0  0  0  0  0
   -4.4367   20.7072  -33.7867 H   0  0  0  0  0  0  0  0  0  0  0  0
   -6.1103   19.5633  -35.0054 H   0  0  0  0  0  0  0  0  0  0  0  0
   -6.0553   18.1420  -33.8497 H   0  0  0  0  0  0  0  0  0  0  0  0
   -7.9810   19.7290  -33.8760 H   0  0  0  0  0  0  0  0  0  0  0  0
   -7.0330   17.9226  -32.1971 H   0  0  0  0  0  0  0  0  0  0  0  0
   -7.1800   19.3941  -31.1359 H   0  0  0  0  0  0  0  0  0  0  0  0
   -9.3037   18.6271  -30.8536 H   0  0  0  0  0  0  0  0  0  0  0  0
   -9.5736   19.4946  -32.4032 H   0  0  0  0  0  0  0  0  0  0  0  0
   -9.3051   17.7185  -32.4032 H   0  0  0  0  0  0  0  0  0  0  0  0
   -5.9798   21.5263  -33.1636 H   0  0  0  0  0  0  0  0  0  0  0  0
   -7.7712   21.8044  -33.2204 H   0  0  0  0  0  0  0  0  0  0  0  0
   -7.5615   20.5225  -30.8274 H   0  0  0  0  0  0  0  0  0  0  0  0
   -5.9543   21.3794  -30.9051 H   0  0  0  0  0  0  0  0  0  0  0  0
   -8.1793   23.1175  -31.6718 H   0  0  0  0  0  0  0  0  0  0  0  0
   -8.3469   22.4379  -29.9899 H   0  0  0  0  0  0  0  0  0  0  0  0
   -7.1573   24.3996  -29.6034 H   0  0  0  0  0  0  0  0  0  0  0  0
   -5.8485   23.1616  -29.7390 H   0  0  0  0  0  0  0  0  0  0  0  0
   -6.0512   23.8848  -32.3467 H   0  0  0  0  0  0  0  0  0  0  0  0
   -6.5607   25.4287  -31.5597 H   0  0  0  0  0  0  0  0  0  0  0  0
   -4.2150   25.6620  -31.5790 H   0  0  0  0  0  0  0  0  0  0  0  0
   -3.3342   22.5043  -31.8875 H   0  0  0  0  0  0  0  0  0  0  0  0
   -1.8589   21.1065  -30.4457 H   0  0  0  0  0  0  0  0  0  0  0  0
   -0.9373   20.4054  -26.1790 H   0  0  0  0  0  0  0  0  0  0  0  0
   -2.3774   21.4876  -26.1635 H   0  0  0  0  0  0  0  0  0  0  0  0
   -3.4887   20.1202  -27.8437 H   0  0  0  0  0  0  0  0  0  0  0  0
   -2.0170   19.0983  -28.0335 H   0  0  0  0  0  0  0  0  0  0  0  0
    0.3917   21.8708  -29.2610 H   0  0  0  0  0  0  0  0  0  0  0  0
    0.8569   21.9515  -27.5219 H   0  0  0  0  0  0  0  0  0  0  0  0
    1.6799   19.8493  -28.1656 H   0  0  0  0  0  0  0  0  0  0  0  0
    0.0690   19.4444  -27.4672 H   0  0  0  0  0  0  0  0  0  0  0  0
   -2.3908   23.8973  -27.1827 H   0  0  0  0  0  0  0  0  0  0  0  0
   -3.9033   25.2737  -28.6032 H   0  0  0  0  0  0  0  0  0  0  0  0
  1  2  1  0
  2  3  1  0
  3  4  1  0
  4  5  1  0
  3  6  1  0
  6  7  1  0
  7  8  1  0
  8  9  1  0
  9 10  1  0
 10 11  1  0
 11 12  1  0
 12 13  2  0
 13 14  1  0
 14 15  2  0
 15 16  1  0
 16 17  1  0
 17 18  1  0
 18 19  1  0
 16 20  1  0
 20 21  1  0
 21 22  1  0
 15 23  1  0
 23 24  2  0
 24 12  1  0
  1 25  1  0
  1 26  1  0
  1 27  1  0
  2 28  1  0
  2 29  1  0
  3 30  1  0
  4 31  1  0
  4 32  1  0
  5 33  1  0
  5 34  1  0
  5 35  1  0
  6 36  1  0
  6 37  1  0
  7 38  1  0
  7 39  1  0
  8 40  1  0
  8 41  1  0
  9 42  1  0
  9 43  1  0
 10 44  1  0
 10 45  1  0
 11 46  1  0
 13 47  1  0
 14 48  1  0
 17 49  1  0
 17 50  1  0
 18 51  1  0
 18 52  1  0
 20 53  1  0
 20 54  1  0
 21 55  1  0
 21 56  1  0
 23 57  1  0
 24 58  1  0
M  CHG  1   3   1
M  END
>  <UniqueID>  (6) 
5

>  <SMILES>  (6) 
CC[NH+](CC)CCCCCNc1ccc(N(CCCl)CCCl)cc1

>  <Energy>  (6) 
49.339279931403915

>  <Genealogy>  (6) 
CC[NH+](CC)CCCCCNc1ccc(N(CCCl)CCCl)cc1 (protonated)
CC[NH+](CC)CCCCCNc1ccc(N(CCCl)CCCl)cc1 (3D coordinates assigned)
CC[NH+](CC)CCCCCNc1ccc(N(CCCl)CCCl)cc1 (optimized conformer: 49.339279931403915 kcal/mol)

>  <smiles>  (6) 
CCN(CC)CCCCCNc1ccc(N(CCCl)CCCl)cc1

>  <score_type>  (6) 
oracle

>  <origin>  (6) 
adg

>  <m_score__min__energy>  (6) 
-7.0300000000000002

>  <m_primary>  (6) 
energy

$$$$
6:0
     RDKit          3D

 46 48  0  0  0  0  0  0  0  0999 V2000
    0.6850   27.9440  -23.6480 C   0  0  0  0  0  0  0  0  0  0  0  0
    1.7990   27.1360  -23.1210 N   0  0  0  0  0  0  0  0  0  0  0  0
    2.9290   27.9920  -22.7160 C   0  0  0  0  0  0  0  0  0  0  0  0
    2.2090   26.0470  -24.0420 C   0  0  0  0  0  0  0  0  0  0  0  0
    1.1880   25.7060  -25.1560 C   0  0  0  0  0  0  0  0  0  0  0  0
    0.0540   24.9480  -24.6050 N   0  0  0  0  0  0  0  0  0  0  0  0
   -1.2170   25.6510  -24.8260 C   0  0  0  0  0  0  0  0  0  0  0  0
   -1.8100   25.2570  -26.1430 C   0  0  0  0  0  0  0  0  0  0  0  0
   -1.1070   25.0450  -27.3230 C   0  0  0  0  0  0  0  0  0  0  0  0
   -1.9230   24.6420  -28.3870 C   0  0  0  0  0  0  0  0  0  0  0  0
   -3.2670   24.5310  -28.0410 C   0  0  0  0  0  0  0  0  0  0  0  0
   -4.3660   24.1240  -28.9310 C   0  0  0  0  0  0  0  0  0  0  0  0
   -5.3660   24.9450  -29.4390 C   0  0  0  0  0  0  0  0  0  0  0  0
   -6.2790   24.2720  -30.2620 C   0  0  0  0  0  0  0  0  0  0  0  0
   -6.0050   22.9090  -30.4100 C   0  0  0  0  0  0  0  0  0  0  0  0
   -6.7800   21.9260  -31.2100 C   0  0  0  0  0  0  0  0  0  0  0  0
   -6.1130   20.9360  -31.9580 C   0  0  0  0  0  0  0  0  0  0  0  0
   -6.8350   20.0070  -32.7130 C   0  0  0  0  0  0  0  0  0  0  0  0
   -8.2300   20.0540  -32.7350 C   0  0  0  0  0  0  0  0  0  0  0  0
   -8.9060   21.0320  -32.0010 C   0  0  0  0  0  0  0  0  0  0  0  0
  -10.2600   21.0790  -32.0270 F   0  0  0  0  0  0  0  0  0  0  0  0
   -8.1880   21.9630  -31.2430 C   0  0  0  0  0  0  0  0  0  0  0  0
   -4.6230   22.5650  -29.5050 S   0  0  0  0  0  0  0  0  0  0  0  0
   -3.4370   24.9320  -26.4130 S   0  0  0  0  0  0  0  0  0  0  0  0
    0.1076   28.3628  -22.8106 H   0  0  0  0  0  0  0  0  0  0  0  0
    1.0853   28.7632  -24.2634 H   0  0  0  0  0  0  0  0  0  0  0  0
    0.0306   27.3091  -24.2634 H   0  0  0  0  0  0  0  0  0  0  0  0
    1.4490   26.6720  -22.2490 H   0  0  0  0  0  0  0  0  0  0  0  0
    2.9829   28.0329  -21.6181 H   0  0  0  0  0  0  0  0  0  0  0  0
    3.8659   27.5750  -23.1139 H   0  0  0  0  0  0  0  0  0  0  0  0
    2.7812   29.0068  -23.1139 H   0  0  0  0  0  0  0  0  0  0  0  0
    3.1515   26.3458  -24.5241 H   0  0  0  0  0  0  0  0  0  0  0  0
    2.2995   25.1419  -23.4234 H   0  0  0  0  0  0  0  0  0  0  0  0
    0.8157   26.6395  -25.6031 H   0  0  0  0  0  0  0  0  0  0  0  0
    1.6880   25.0914  -25.9191 H   0  0  0  0  0  0  0  0  0  0  0  0
    0.1880   24.8690  -23.5710 H   0  0  0  0  0  0  0  0  0  0  0  0
   -1.9194   25.3915  -24.0202 H   0  0  0  0  0  0  0  0  0  0  0  0
   -1.0290   26.7348  -24.8296 H   0  0  0  0  0  0  0  0  0  0  0  0
   -0.0190   25.1802  -27.4121 H   0  0  0  0  0  0  0  0  0  0  0  0
   -1.5399   24.4336  -29.3969 H   0  0  0  0  0  0  0  0  0  0  0  0
   -5.4342   26.0201  -29.2163 H   0  0  0  0  0  0  0  0  0  0  0  0
   -7.1319   24.7698  -30.7465 H   0  0  0  0  0  0  0  0  0  0  0  0
   -5.0139   20.8935  -31.9479 H   0  0  0  0  0  0  0  0  0  0  0  0
   -6.3027   19.2373  -33.2910 H   0  0  0  0  0  0  0  0  0  0  0  0
   -8.7963   19.3220  -33.3295 H   0  0  0  0  0  0  0  0  0  0  0  0
   -8.7271   22.7303  -30.6680 H   0  0  0  0  0  0  0  0  0  0  0  0
  1  2  1  0
  2  3  1  0
  2  4  1  0
  4  5  1  0
  5  6  1  0
  6  7  1  0
  7  8  1  0
  8  9  2  0
  9 10  1  0
 10 11  2  0
 11 12  1  0
 12 13  2  0
 13 14  1  0
 14 15  2  0
 15 16  1  0
 16 17  2  0
 17 18  1  0
 18 19  2  0
 19 20  1  0
 20 21  1  0
 20 22  2  0
 15 23  1  0
 11 24  1  0
 24  8  1  0
 23 12  1  0
 22 16  1  0
  1 25  1  0
  1 26  1  0
  1 27  1  0
  2 28  1  0
  3 29  1  0
  3 30  1  0
  3 31  1  0
  4 32  1  0
  4 33  1  0
  5 34  1  0
  5 35  1  0
  6 36  1  0
  7 37  1  0
  7 38  1  0
  9 39  1  0
 10 40  1  0
 13 41  1  0
 14 42  1  0
 17 43  1  0
 18 44  1  0
 19 45  1  0
 22 46  1  0
M  CHG  1   2   1
M  END
>  <UniqueID>  (7) 
6

>  <SMILES>  (7) 
C[NH+](C)CCNCc1ccc(-c2ccc(-c3cccc(F)c3)s2)s1

>  <Energy>  (7) 
104.62563737295744

>  <Genealogy>  (7) 
C[NH+](C)CCNCc1ccc(-c2ccc(-c3cccc(F)c3)s2)s1 (protonated)
C[NH+](C)CCNCc1ccc(-c2ccc(-c3cccc(F)c3)s2)s1 (3D coordinates assigned)
C[NH+](C)CCNCc1ccc(-c2ccc(-c3cccc(F)c3)s2)s1 (optimized conformer: 104.62563737295744 kcal/mol)

>  <smiles>  (7) 
CN(C)CCNCc1ccc(-c2ccc(-c3cccc(F)c3)s2)s1

>  <score_type>  (7) 
oracle

>  <origin>  (7) 
adg

>  <m_score__min__energy>  (7) 
-8.1899999999999995

>  <m_primary>  (7) 
energy

$$$$
7:0
     RDKit          3D

 45 47  0  0  0  0  0  0  0  0999 V2000
   -4.5550   13.9960  -32.4160 C   0  0  0  0  0  0  0  0  0  0  0  0
   -4.1730   15.1190  -33.2030 O   0  0  0  0  0  0  0  0  0  0  0  0
   -4.9310   16.2920  -33.3290 C   0  0  0  0  0  0  0  0  0  0  0  0
   -4.8820   17.1030  -34.4780 C   0  0  0  0  0  0  0  0  0  0  0  0
   -5.6580   18.2640  -34.5560 C   0  0  0  0  0  0  0  0  0  0  0  0
   -6.4970   18.6340  -33.4910 C   0  0  0  0  0  0  0  0  0  0  0  0
   -7.3130   19.8230  -33.5730 N   0  0  0  0  0  0  0  0  0  0  0  0
   -7.7620   20.2690  -32.2360 C   0  0  2  0  0  0  0  0  0  0  0  0
   -8.9400   21.2810  -32.3430 C   0  0  0  0  0  0  0  0  0  0  0  0
   -8.9240   22.3120  -31.2140 C   0  0  0  0  0  0  0  0  0  0  0  0
   -7.6350   23.1400  -31.2830 C   0  0  0  0  0  0  0  0  0  0  0  0
   -6.4630   22.2980  -31.5650 N   0  0  0  0  0  0  0  0  0  0  0  0
   -5.1750   22.9300  -31.7010 C   0  0  0  0  0  0  0  0  0  0  0  0
   -5.0770   24.1750  -31.5220 O   0  0  0  0  0  0  0  0  0  0  0  0
   -3.9740   22.1560  -32.0860 C   0  0  0  0  0  0  0  0  0  0  0  0
   -2.7790   22.2660  -31.3540 C   0  0  0  0  0  0  0  0  0  0  0  0
   -1.6590   21.5340  -31.7560 C   0  0  0  0  0  0  0  0  0  0  0  0
   -1.7310   20.7100  -32.8790 C   0  0  0  0  0  0  0  0  0  0  0  0
   -2.9310   20.6310  -33.5890 C   0  0  0  0  0  0  0  0  0  0  0  0
   -4.0100   21.3500  -33.1830 N   0  0  0  0  0  0  0  0  0  0  0  0
   -6.5700   20.8380  -31.4170 C   0  0  0  0  0  0  0  0  0  0  0  0
   -6.5410   17.8210  -32.3440 C   0  0  0  0  0  0  0  0  0  0  0  0
   -5.7640   16.6620  -32.2680 C   0  0  0  0  0  0  0  0  0  0  0  0
   -4.4687   14.2496  -31.3491 H   0  0  0  0  0  0  0  0  0  0  0  0
   -5.5960   13.7246  -32.6454 H   0  0  0  0  0  0  0  0  0  0  0  0
   -3.8954   13.1461  -32.6454 H   0  0  0  0  0  0  0  0  0  0  0  0
   -4.2304   16.8225  -35.3187 H   0  0  0  0  0  0  0  0  0  0  0  0
   -5.6113   18.8922  -35.4577 H   0  0  0  0  0  0  0  0  0  0  0  0
   -6.7390   20.5740  -34.0250 H   0  0  0  0  0  0  0  0  0  0  0  0
   -8.1420   19.6550  -34.1910 H   0  0  0  0  0  0  0  0  0  0  0  0
   -8.1460   19.3943  -31.6906 H   0  0  0  0  0  0  0  0  0  0  0  0
   -8.8664   21.8090  -33.3052 H   0  0  0  0  0  0  0  0  0  0  0  0
   -9.8791   20.7133  -32.2669 H   0  0  0  0  0  0  0  0  0  0  0  0
   -9.7924   22.9794  -31.3169 H   0  0  0  0  0  0  0  0  0  0  0  0
   -8.9688   21.7908  -30.2463 H   0  0  0  0  0  0  0  0  0  0  0  0
   -7.7354   23.8903  -32.0811 H   0  0  0  0  0  0  0  0  0  0  0  0
   -7.4841   23.6222  -30.3059 H   0  0  0  0  0  0  0  0  0  0  0  0
   -2.7262   22.9223  -30.4728 H   0  0  0  0  0  0  0  0  0  0  0  0
   -0.7205   21.6075  -31.1869 H   0  0  0  0  0  0  0  0  0  0  0  0
   -0.8538   20.1298  -33.2013 H   0  0  0  0  0  0  0  0  0  0  0  0
   -3.0027   19.9863  -34.4774 H   0  0  0  0  0  0  0  0  0  0  0  0
   -5.6382   20.3734  -31.7719 H   0  0  0  0  0  0  0  0  0  0  0  0
   -6.7409   20.6101  -30.3545 H   0  0  0  0  0  0  0  0  0  0  0  0
   -7.1912   18.0993  -31.5015 H   0  0  0  0  0  0  0  0  0  0  0  0
   -5.8079   16.0348  -31.3654 H   0  0  0  0  0  0  0  0  0  0  0  0
  1  2  1  0
  2  3  1  0
  3  4  2  0
  4  5  1  0
  5  6  2  0
  6  7  1  0
  7  8  1  0
  8  9  1  0
  9 10  1  0
 10 11  1  0
 11 12  1  0
 12 13  1  0
 13 14  2  0
 13 15  1  0
 15 16  2  0
 16 17  1  0
 17 18  2  0
 18 19  1  0
 19 20  2  0
 12 21  1  0
  6 22  1  0
 22 23  2  0
 23  3  1  0
 21  8  1  0
 20 15  1  0
  1 24  1  0
  1 25  1  0
  1 26  1  0
  4 27  1  0
  5 28  1  0
  7 29  1  0
  7 30  1  0
  8 31  1  1
  9 32  1  0
  9 33  1  0
 10 34  1  0
 10 35  1  0
 11 36  1  0
 11 37  1  0
 16 38  1  0
 17 39  1  0
 18 40  1  0
 19 41  1  0
 21 42  1  0
 21 43  1  0
 22 44  1  0
 23 45  1  0
M  CHG  1   7   1
M  END
>  <UniqueID>  (8) 
7

>  <SMILES>  (8) 
COc1ccc([NH2+][C@@H]2CCCN(C(=O)c3ccccn3)C2)cc1

>  <Energy>  (8) 
54.052314791421864

>  <Genealogy>  (8) 
COc1ccc([NH2+]C2CCCN(C(=O)c3ccccn3)C2)cc1 (protonated)
COc1ccc([NH2+][C@@H]2CCCN(C(=O)c3ccccn3)C2)cc1 (chirality)
COc1ccc([NH2+][C@@H]2CCCN(C(=O)c3ccccn3)C2)cc1 (3D coordinates assigned)
COc1ccc([NH2+][C@@H]2CCCN(C(=O)c3ccccn3)C2)cc1 (nonaromatic ring conformer: 54.052314791421864 kcal/mol)

>  <smiles>  (8) 
COc1ccc(NC2CCCN(C(=O)c3ccccn3)C2)cc1

>  <score_type>  (8) 
oracle

>  <origin>  (8) 
adg

>  <m_score__min__energy>  (8) 
-6.96

>  <m_primary>  (8) 
energy

$$$$
8:0
     RDKit          3D

 52 55  0  0  0  0  0  0  0  0999 V2000
    0.2430   19.1460  -35.7110 C   0  0  0  0  0  0  0  0  0  0  0  0
    0.8550   20.4360  -36.2500 C   0  0  0  0  0  0  0  0  0  0  0  0
    0.7020   21.5260  -35.2600 N   0  0  0  0  0  0  0  0  0  0  0  0
    1.5170   22.7150  -35.6080 C   0  0  0  0  0  0  0  0  0  0  0  0
    0.7020   23.9290  -36.0820 C   0  0  0  0  0  0  0  0  0  0  0  0
    0.8940   21.0420  -33.8700 C   0  0  0  0  0  0  0  0  0  0  0  0
   -0.3800   21.2060  -33.0220 C   0  0  0  0  0  0  0  0  0  0  0  0
   -1.5690   21.4300  -33.8460 N   0  0  0  0  0  0  0  0  0  0  0  0
   -2.9180   21.1810  -33.4020 C   0  0  0  0  0  0  0  0  0  0  0  0
   -3.6980   22.2280  -32.8200 C   0  0  0  0  0  0  0  0  0  0  0  0
   -5.0260   22.0050  -32.3870 C   0  0  0  0  0  0  0  0  0  0  0  0
   -5.5570   20.7270  -32.5370 C   0  0  0  0  0  0  0  0  0  0  0  0
   -4.7980   19.7340  -33.0910 C   0  0  0  0  0  0  0  0  0  0  0  0
   -5.4850   18.5620  -33.1910 C   0  0  0  0  0  0  0  0  0  0  0  0
   -4.9230   17.4600  -33.7510 N   0  0  0  0  0  0  0  0  0  0  0  0
   -3.6350   17.5410  -34.2170 C   0  0  0  0  0  0  0  0  0  0  0  0
   -2.8990   18.7530  -34.1240 C   0  0  0  0  0  0  0  0  0  0  0  0
   -3.4990   19.8920  -33.5380 C   0  0  0  0  0  0  0  0  0  0  0  0
   -6.8200   18.7970  -32.6510 C   0  0  0  0  0  0  0  0  0  0  0  0
   -7.9170   17.9510  -32.5200 C   0  0  0  0  0  0  0  0  0  0  0  0
   -9.0910   18.4790  -31.9590 C   0  0  0  0  0  0  0  0  0  0  0  0
   -9.1490   19.8270  -31.5430 C   0  0  0  0  0  0  0  0  0  0  0  0
   -8.0260   20.6770  -31.6850 C   0  0  0  0  0  0  0  0  0  0  0  0
   -8.0340   22.0220  -31.2910 O   0  0  0  0  0  0  0  0  0  0  0  0
   -8.7590   23.0480  -31.9620 C   0  0  0  0  0  0  0  0  0  0  0  0
   -6.8700   20.1290  -32.2460 C   0  0  0  0  0  0  0  0  0  0  0  0
    0.2530   19.1670  -34.6112 H   0  0  0  0  0  0  0  0  0  0  0  0
   -0.7940   19.0556  -36.0666 H   0  0  0  0  0  0  0  0  0  0  0  0
    0.8289   18.2856  -36.0666 H   0  0  0  0  0  0  0  0  0  0  0  0
    1.9244   20.2748  -36.4508 H   0  0  0  0  0  0  0  0  0  0  0  0
    0.3374   20.7187  -37.1785 H   0  0  0  0  0  0  0  0  0  0  0  0
    2.0895   23.0121  -34.7169 H   0  0  0  0  0  0  0  0  0  0  0  0
    2.1579   22.4193  -36.4517 H   0  0  0  0  0  0  0  0  0  0  0  0
    0.3293   24.4841  -35.2085 H   0  0  0  0  0  0  0  0  0  0  0  0
    1.3424   24.5864  -36.6883 H   0  0  0  0  0  0  0  0  0  0  0  0
   -0.1490   23.5852  -36.6883 H   0  0  0  0  0  0  0  0  0  0  0  0
    1.1667   19.9767  -33.8992 H   0  0  0  0  0  0  0  0  0  0  0  0
    1.6903   21.6436  -33.4073 H   0  0  0  0  0  0  0  0  0  0  0  0
   -0.5288   20.2932  -32.4264 H   0  0  0  0  0  0  0  0  0  0  0  0
   -0.2452   22.0874  -32.3779 H   0  0  0  0  0  0  0  0  0  0  0  0
   -1.4110   21.7970  -34.8100 H   0  0  0  0  0  0  0  0  0  0  0  0
   -3.2559   23.2288  -32.7064 H   0  0  0  0  0  0  0  0  0  0  0  0
   -5.6215   22.8174  -31.9449 H   0  0  0  0  0  0  0  0  0  0  0  0
   -5.4610   16.5700  -33.8310 H   0  0  0  0  0  0  0  0  0  0  0  0
   -3.1654   16.6550  -34.6691 H   0  0  0  0  0  0  0  0  0  0  0  0
   -1.8686   18.8051  -34.5055 H   0  0  0  0  0  0  0  0  0  0  0  0
   -7.8661   16.9016  -32.8457 H   0  0  0  0  0  0  0  0  0  0  0  0
   -9.9753   17.8353  -31.8423 H   0  0  0  0  0  0  0  0  0  0  0  0
  -10.0772   20.2211  -31.1036 H   0  0  0  0  0  0  0  0  0  0  0  0
   -9.2276   23.7112  -31.2200 H   0  0  0  0  0  0  0  0  0  0  0  0
   -8.0712   23.6309  -32.5921 H   0  0  0  0  0  0  0  0  0  0  0  0
   -9.5382   22.5943  -32.5921 H   0  0  0  0  0  0  0  0  0  0  0  0
  1  2  1  0
  2  3  1  0
  3  4  1  0
  4  5  1  0
  3  6  1  0
  6  7  1  0
  7  8  1  0
  8  9  1  0
  9 10  2  0
 10 11  1  0
 11 12  2  0
 12 13  1  0
 13 14  2  0
 14 15  1  0
 15 16  2  0
 16 17  1  0
 17 18  2  0
 14 19  1  0
 19 20  2  0
 20 21  1  0
 21 22  2  0
 22 23  1  0
 23 24  1  0
 24 25  1  0
 23 26  2  0
 18  9  1  0
 26 19  1  0
 26 12  1  0
 18 13  1  0
  1 27  1  0
  1 28  1  0
  1 29  1  0
  2 30  1  0
  2 31  1  0
  4 32  1  0
  4 33  1  0
  5 34  1  0
  5 35  1  0
  5 36  1  0
  6 37  1  0
  6 38  1  0
  7 39  1  0
  7 40  1  0
  8 41  1  0
 10 42  1  0
 11 43  1  0
 15 44  1  0
 16 45  1  0
 17 46  1  0
 20 47  1  0
 21 48  1  0
 22 49  1  0
 25 50  1  0
 25 51  1  0
 25 52  1  0
M  CHG  1  15   1
M  END
>  <UniqueID>  (9) 
8

>  <SMILES>  (9) 
CCN(CC)CCNc1ccc2c3c([nH+]ccc13)-c1cccc(OC)c1-2

>  <Energy>  (9) 
102.83910780885698

>  <Genealogy>  (9) 
CCN(CC)CCNc1ccc2c3c([nH+]ccc13)-c1cccc(OC)c1-2 (protonated)
CCN(CC)CCNc1ccc2c3c([nH+]ccc13)-c1cccc(OC)c1-2 (3D coordinates assigned)
CCN(CC)CCNc1ccc2c3c([nH+]ccc13)-c1cccc(OC)c1-2 (optimized conformer: 102.83910780885698 kcal/mol)

>  <smiles>  (9) 
CCN(CC)CCNc1ccc2c3c(nccc13)-c1cccc(OC)c1-2

>  <score_type>  (9) 
oracle

>  <origin>  (9) 
adg

>  <m_score__min__energy>  (9) 
-7.6799999999999997

>  <m_primary>  (9) 
energy

$$$$
9:0
     RDKit          3D

 25 26  0  0  0  0  0  0  0  0999 V2000
   -8.8580   23.2020  -31.9760 C   0  0  0  0  0  0  0  0  0  0  0  0
   -7.3800   22.9430  -31.9870 C   0  0  0  0  0  0  0  0  0  0  0  0
   -6.4880   23.9350  -31.5650 C   0  0  0  0  0  0  0  0  0  0  0  0
   -5.1070   23.7020  -31.5340 C   0  0  0  0  0  0  0  0  0  0  0  0
   -4.2930   24.7560  -31.1080 O   0  0  0  0  0  0  0  0  0  0  0  0
   -4.6020   22.4340  -31.9260 C   0  0  0  0  0  0  0  0  0  0  0  0
   -3.2250   22.1220  -31.9220 C   0  0  0  0  0  0  0  0  0  0  0  0
   -2.7840   20.8900  -32.3150 N   0  0  0  0  0  0  0  0  0  0  0  0
   -1.3510   20.5860  -32.2670 C   0  0  0  0  0  0  0  0  0  0  0  0
   -3.6640   19.9160  -32.6870 C   0  0  0  0  0  0  0  0  0  0  0  0
   -5.0330   20.1680  -32.7090 C   0  0  0  0  0  0  0  0  0  0  0  0
   -5.5120   21.4270  -32.3340 C   0  0  0  0  0  0  0  0  0  0  0  0
   -6.8890   21.6860  -32.3550 C   0  0  0  0  0  0  0  0  0  0  0  0
   -9.2117   23.2640  -30.9362 H   0  0  0  0  0  0  0  0  0  0  0  0
   -9.0679   24.1506  -32.4918 H   0  0  0  0  0  0  0  0  0  0  0  0
   -9.3779   22.3813  -32.4918 H   0  0  0  0  0  0  0  0  0  0  0  0
   -6.8779   24.9148  -31.2522 H   0  0  0  0  0  0  0  0  0  0  0  0
   -4.1940   25.6370  -31.5910 H   0  0  0  0  0  0  0  0  0  0  0  0
   -2.4976   22.8809  -31.5982 H   0  0  0  0  0  0  0  0  0  0  0  0
   -1.0257   20.5170  -31.2185 H   0  0  0  0  0  0  0  0  0  0  0  0
   -1.1623   19.6278  -32.7733 H   0  0  0  0  0  0  0  0  0  0  0  0
   -0.7895   21.3850  -32.7733 H   0  0  0  0  0  0  0  0  0  0  0  0
   -3.2883   18.9223  -32.9722 H   0  0  0  0  0  0  0  0  0  0  0  0
   -5.7348   19.3801  -33.0200 H   0  0  0  0  0  0  0  0  0  0  0  0
   -7.5888   20.8952  -32.6631 H   0  0  0  0  0  0  0  0  0  0  0  0
  1  2  1  0
  2  3  2  0
  3  4  1  0
  4  5  1  0
  4  6  2  0
  6  7  1  0
  7  8  2  0
  8  9  1  0
  8 10  1  0
 10 11  2  0
 11 12  1  0
 12 13  2  0
 13  2  1  0
 12  6  1  0
  1 14  1  0
  1 15  1  0
  1 16  1  0
  3 17  1  0
  5 18  1  0
  7 19  1  0
  9 20  1  0
  9 21  1  0
  9 22  1  0
 10 23  1  0
 11 24  1  0
 13 25  1  0
M  CHG  1   8   1
M  END
>  <UniqueID>  (10) 
9

>  <SMILES>  (10) 
Cc1cc(O)c2c[n+](C)ccc2c1

>  <Energy>  (10) 
31.057407844672184

>  <Genealogy>  (10) 
Cc1cc(O)c2c[n+](C)ccc2c1 (3D coordinates assigned)
Cc1cc(O)c2c[n+](C)ccc2c1 (optimized conformer: 31.057407844672184 kcal/mol)

>  <smiles>  (10) 
Cc1cc(O)c2c[n+](C)ccc2c1

>  <score_type>  (10) 
oracle

>  <origin>  (10) 
adg

>  <m_score__min__energy>  (10) 
-5.3300000000000001

>  <m_primary>  (10) 
energy

$$$$
10:0
     RDKit          3D

 39 40  0  0  0  0  0  0  0  0999 V2000
   -3.4950   21.0590  -33.2460 C   0  0  0  0  0  0  0  0  0  0  0  0
   -4.9530   20.7460  -33.0760 C   0  0  0  0  0  0  0  0  0  0  0  0
   -5.4740   19.5500  -33.5800 C   0  0  0  0  0  0  0  0  0  0  0  0
   -6.8120   19.2190  -33.3640 C   0  0  0  0  0  0  0  0  0  0  0  0
   -7.6570   20.0770  -32.6410 C   0  0  0  0  0  0  0  0  0  0  0  0
   -9.0800   19.6470  -32.3870 C   0  0  0  0  0  0  0  0  0  0  0  0
   -7.1500   21.3140  -32.1610 C   0  0  0  0  0  0  0  0  0  0  0  0
   -8.0100   22.2940  -31.3850 C   0  0  0  0  0  0  0  0  0  0  0  0
   -7.2310   22.7880  -29.8000 S   0  0  0  0  0  0  0  0  0  0  0  0
   -7.0810   24.5890  -30.1240 C   0  0  0  0  0  0  0  0  0  0  0  0
   -5.8720   24.9480  -30.9960 C   0  0  0  0  0  0  0  0  0  0  0  0
   -4.6810   25.2210  -30.1890 N   0  0  0  0  0  0  0  0  0  0  0  0
   -3.5260   24.3710  -30.2580 C   0  0  0  0  0  0  0  0  0  0  0  0
   -3.4490   23.4860  -31.1530 O   0  0  0  0  0  0  0  0  0  0  0  0
   -2.4270   24.4940  -29.2870 C   0  0  0  0  0  0  0  0  0  0  0  0
   -1.6840   23.4650  -28.7330 C   0  0  0  0  0  0  0  0  0  0  0  0
   -0.7630   24.0700  -27.9050 C   0  0  0  0  0  0  0  0  0  0  0  0
   -1.0000   25.4240  -28.0070 C   0  0  0  0  0  0  0  0  0  0  0  0
   -0.0320   26.7910  -27.0970 Br  0  0  0  0  0  0  0  0  0  0  0  0
   -1.9940   25.6480  -28.8330 O   0  0  0  0  0  0  0  0  0  0  0  0
   -5.7850   21.6090  -32.3510 C   0  0  0  0  0  0  0  0  0  0  0  0
   -3.0240   21.1601  -32.2571 H   0  0  0  0  0  0  0  0  0  0  0  0
   -3.0077   20.2450  -33.8027 H   0  0  0  0  0  0  0  0  0  0  0  0
   -3.3847   22.0013  -33.8027 H   0  0  0  0  0  0  0  0  0  0  0  0
   -4.8260   18.8673  -34.1492 H   0  0  0  0  0  0  0  0  0  0  0  0
   -7.2099   18.2750  -33.7646 H   0  0  0  0  0  0  0  0  0  0  0  0
   -9.2588   19.5930  -31.3030 H   0  0  0  0  0  0  0  0  0  0  0  0
   -9.7694   20.3769  -32.8364 H   0  0  0  0  0  0  0  0  0  0  0  0
   -9.2498   18.6574  -32.8364 H   0  0  0  0  0  0  0  0  0  0  0  0
   -8.1660   23.1931  -31.9993 H   0  0  0  0  0  0  0  0  0  0  0  0
   -8.9647   21.7988  -31.1541 H   0  0  0  0  0  0  0  0  0  0  0  0
   -7.9938   24.9294  -30.6349 H   0  0  0  0  0  0  0  0  0  0  0  0
   -6.9415   25.0851  -29.1522 H   0  0  0  0  0  0  0  0  0  0  0  0
   -5.6587   24.1072  -31.6724 H   0  0  0  0  0  0  0  0  0  0  0  0
   -6.1173   25.8586  -31.5622 H   0  0  0  0  0  0  0  0  0  0  0  0
   -4.6830   26.0350  -29.5360 H   0  0  0  0  0  0  0  0  0  0  0  0
   -1.8041   22.3870  -28.9160 H   0  0  0  0  0  0  0  0  0  0  0  0
    0.0028   23.5747  -27.2900 H   0  0  0  0  0  0  0  0  0  0  0  0
   -5.3662   22.5318  -31.9231 H   0  0  0  0  0  0  0  0  0  0  0  0
  1  2  1  0
  2  3  2  0
  3  4  1  0
  4  5  2  0
  5  6  1  0
  5  7  1  0
  7  8  1  0
  8  9  1  0
  9 10  1  0
 10 11  1  0
 11 12  1  0
 12 13  1  0
 13 14  2  0
 13 15  1  0
 15 16  2  0
 16 17  1  0
 17 18  2  0
 18 19  1  0
 18 20  1  0
  7 21  2  0
 21  2  1  0
 20 15  1  0
  1 22  1  0
  1 23  1  0
  1 24  1  0
  3 25  1  0
  4 26  1  0
  6 27  1  0
  6 28  1  0
  6 29  1  0
  8 30  1  0
  8 31  1  0
 10 32  1  0
 10 33  1  0
 11 34  1  0
 11 35  1  0
 12 36  1  0
 16 37  1  0
 17 38  1  0
 21 39  1  0
M  END
>  <UniqueID>  (11) 
10

>  <SMILES>  (11) 
Cc1ccc(C)c(CSCCNC(=O)c2ccc(Br)o2)c1

>  <Energy>  (11) 
55.84598594085409

>  <Genealogy>  (11) 
Cc1ccc(C)c(CSCCNC(=O)c2ccc(Br)o2)c1 (3D coordinates assigned)
Cc1ccc(C)c(CSCCNC(=O)c2ccc(Br)o2)c1 (optimized conformer: 55.84598594085409 kcal/mol)

>  <smiles>  (11) 
Cc1ccc(C)c(CSCCNC(=O)c2ccc(Br)o2)c1

>  <score_type>  (11) 
oracle

>  <origin>  (11) 
adg

>  <m_score__min__energy>  (11) 
-8.9800000000000004

>  <m_primary>  (11) 
energy

$$$$
11:0
     RDKit          3D

 62 65  0  0  0  0  0  0  0  0999 V2000
   -5.9286   20.4231  -31.8490 H   0  0  0  0  0  0  0  0  0  0  0  0
   -7.0150   20.3560  -32.0080 C   0  0  0  0  0  0  0  0  0  0  0  0
   -7.8670   21.4520  -31.9700 C   0  0  0  0  0  0  0  0  0  0  0  0
   -7.4460   22.8160  -31.8370 N   0  0  0  0  0  0  0  0  0  0  0  0
   -6.4570   23.2660  -31.1200 C   0  0  0  0  0  0  0  0  0  0  0  0
   -5.2140   22.6870  -31.1690 N   0  0  0  0  0  0  0  0  0  0  0  0
   -4.2130   23.2180  -30.4200 C   0  0  0  0  0  0  0  0  0  0  0  0
   -4.4280   24.2880  -29.6080 C   0  0  0  0  0  0  0  0  0  0  0  0
   -5.6770   24.8850  -29.5490 C   0  0  0  0  0  0  0  0  0  0  0  0
   -5.8615   25.7541  -28.9004 H   0  0  0  0  0  0  0  0  0  0  0  0
   -6.6700   24.3590  -30.3220 N   0  0  0  0  0  0  0  0  0  0  0  0
   -3.2650   24.5420  -28.9280 C   0  0  0  0  0  0  0  0  0  0  0  0
   -3.0788   25.3372  -28.1912 H   0  0  0  0  0  0  0  0  0  0  0  0
   -2.3710   23.5720  -29.3750 C   0  0  0  0  0  0  0  0  0  0  0  0
   -1.0370   23.4060  -28.7770 C   0  0  0  0  0  0  0  0  0  0  0  0
   -0.1580   24.2800  -29.0110 O   0  0  0  0  0  0  0  0  0  0  0  0
   -0.7230   22.2660  -27.9530 N   0  0  0  0  0  0  0  0  0  0  0  0
    0.6130   22.1580  -27.3590 C   0  0  0  0  0  0  0  0  0  0  0  0
    0.5283   22.1648  -26.2623 H   0  0  0  0  0  0  0  0  0  0  0  0
    1.0842   21.2188  -27.6845 H   0  0  0  0  0  0  0  0  0  0  0  0
    1.2289   23.0093  -27.6845 H   0  0  0  0  0  0  0  0  0  0  0  0
   -1.7330   21.2350  -27.6920 C   0  0  0  0  0  0  0  0  0  0  0  0
   -1.8563   21.1091  -26.6062 H   0  0  0  0  0  0  0  0  0  0  0  0
   -2.6917   21.5399  -28.1370 H   0  0  0  0  0  0  0  0  0  0  0  0
   -1.4085   20.2828  -28.1370 H   0  0  0  0  0  0  0  0  0  0  0  0
   -2.9360   22.7680  -30.3300 N   0  0  0  0  0  0  0  0  0  0  0  0
   -2.3920   21.5720  -31.0190 C   0  0  0  0  0  0  0  0  0  0  0  0
   -2.6982   20.7560  -30.3479 H   0  0  0  0  0  0  0  0  0  0  0  0
   -2.9330   21.4360  -32.4460 C   0  0  0  0  0  0  0  0  0  0  0  0
   -3.8620   20.8470  -32.4439 H   0  0  0  0  0  0  0  0  0  0  0  0
   -3.1615   22.4222  -32.8764 H   0  0  0  0  0  0  0  0  0  0  0  0
   -1.8580   20.7190  -33.2610 C   0  0  0  0  0  0  0  0  0  0  0  0
   -2.1964   19.7068  -33.5272 H   0  0  0  0  0  0  0  0  0  0  0  0
   -1.6461   21.2576  -34.1964 H   0  0  0  0  0  0  0  0  0  0  0  0
   -0.6190   20.6430  -32.3810 C   0  0  0  0  0  0  0  0  0  0  0  0
   -0.4702   19.6154  -32.0177 H   0  0  0  0  0  0  0  0  0  0  0  0
    0.2879   20.9265  -32.9353 H   0  0  0  0  0  0  0  0  0  0  0  0
   -0.8770   21.5830  -31.2160 C   0  0  0  0  0  0  0  0  0  0  0  0
   -0.3677   21.2229  -30.3099 H   0  0  0  0  0  0  0  0  0  0  0  0
   -0.4958   22.5958  -31.4133 H   0  0  0  0  0  0  0  0  0  0  0  0
   -9.3980   20.8750  -32.3240 S   0  0  0  0  0  0  0  0  0  0  0  0
   -9.0330   19.2620  -32.4710 N   0  0  0  0  0  0  0  0  0  0  0  0
   -9.6990   18.4910  -32.7010 H   0  0  0  0  0  0  0  0  0  0  0  0
   -7.6940   19.1450  -32.2730 C   0  0  0  0  0  0  0  0  0  0  0  0
   -6.9990   17.8210  -32.3850 C   0  0  0  0  0  0  0  0  0  0  0  0
   -7.6068   17.0463  -31.8947 H   0  0  0  0  0  0  0  0  0  0  0  0
   -6.0156   17.8833  -31.8961 H   0  0  0  0  0  0  0  0  0  0  0  0
   -6.8160   17.4730  -33.8110 N   0  0  0  0  0  0  0  0  0  0  0  0
   -6.0670   18.5320  -34.5260 C   0  0  0  0  0  0  0  0  0  0  0  0
   -6.6545   19.4619  -34.5157 H   0  0  0  0  0  0  0  0  0  0  0  0
   -5.8916   18.2083  -35.5626 H   0  0  0  0  0  0  0  0  0  0  0  0
   -4.7220   18.7790  -33.8490 C   0  0  0  0  0  0  0  0  0  0  0  0
   -4.8514   18.7552  -32.7569 H   0  0  0  0  0  0  0  0  0  0  0  0
   -4.0103   17.9965  -34.1510 H   0  0  0  0  0  0  0  0  0  0  0  0
   -4.3347   19.7633  -34.1510 H   0  0  0  0  0  0  0  0  0  0  0  0
   -6.1620   16.1530  -33.9590 C   0  0  0  0  0  0  0  0  0  0  0  0
   -6.9299   15.3808  -34.1140 H   0  0  0  0  0  0  0  0  0  0  0  0
   -5.4825   16.1803  -34.8236 H   0  0  0  0  0  0  0  0  0  0  0  0
   -5.3620   15.8260  -32.7010 C   0  0  0  0  0  0  0  0  0  0  0  0
   -5.9611   16.0709  -31.8115 H   0  0  0  0  0  0  0  0  0  0  0  0
   -5.1140   14.7544  -32.6924 H   0  0  0  0  0  0  0  0  0  0  0  0
   -4.4344   16.4171  -32.6924 H   0  0  0  0  0  0  0  0  0  0  0  0
  1  2  1  0
  2  3  2  0
  3  4  1  0
  4  5  2  0
  5  6  1  0
  6  7  2  0
  7  8  1  0
  8  9  2  0
  9 10  1  0
  9 11  1  0
  8 12  1  0
 12 13  1  0
 12 14  2  0
 14 15  1  0
 15 16  2  0
 15 17  1  0
 17 18  1  0
 18 19  1  0
 18 20  1  0
 18 21  1  0
 17 22  1  0
 22 23  1  0
 22 24  1  0
 22 25  1  0
 14 26  1  0
 26 27  1  0
 27 28  1  0
 27 29  1  0
 29 30  1  0
 29 31  1  0
 29 32  1  0
 32 33  1  0
 32 34  1  0
 32 35  1  0
 35 36  1  0
 35 37  1  0
 35 38  1  0
 38 39  1  0
 38 40  1  0
  3 41  1  0
 41 42  1  0
 42 43  1  0
 42 44  2  0
 44 45  1  0
 45 46  1  0
 45 47  1  0
 45 48  1  0
 48 49  1  0
 49 50  1  0
 49 51  1  0
 49 52  1  0
 52 53  1  0
 52 54  1  0
 52 55  1  0
 48 56  1  0
 56 57  1  0
 56 58  1  0
 56 59  1  0
 59 60  1  0
 59 61  1  0
 59 62  1  0
 44  2  1  0
 11  5  1  0
 38 27  1  0
 26  7  1  0
M  CHG  2  11  -1  42   1
M  END
>  <UniqueID>  (12) 
11

>  <SMILES>  (12) 
CCN(CC)Cc1cc(/N=c2\nc3c(c[n-]2)cc(C(=O)N(C)C)n3C2CCCC2)s[nH+]1

>  <Energy>  (12) 
143.97097924278822

>  <Genealogy>  (12) 
CCN(CC)Cc1cc(N=c2nc3c(c[n-]2)cc(C(=O)N(C)C)n3C2CCCC2)s[nH+]1 (protonated)
CCN(CC)Cc1cc(/N=c2\nc3c(c[n-]2)cc(C(=O)N(C)C)n3C2CCCC2)s[nH+]1 (cis-trans isomerization)
CCN(CC)Cc1cc(/N=c2\nc3c(c[n-]2)cc(C(=O)N(C)C)n3C2CCCC2)s[nH+]1 (3D coordinates assigned)
CCN(CC)Cc1cc(/N=c2\nc3c(c[n-]2)cc(C(=O)N(C)C)n3C2CCCC2)s[nH+]1 (nonaromatic ring conformer: 143.97097924278822 kcal/mol)

>  <smiles>  (12) 
CCN(CC)Cc1cc(N=c2nc3c(c[nH]2)cc(C(=O)N(C)C)n3C2CCCC2)sn1

>  <score_type>  (12) 
oracle

>  <origin>  (12) 
adg

>  <m_score__min__energy>  (12) 
-9.6600000000000001

>  <m_primary>  (12) 
energy

$$$$
12:0
     RDKit          3D

 38 40  0  0  0  0  0  0  0  0999 V2000
   -3.1270   18.3700  -25.6090 C   0  0  0  0  0  0  0  0  0  0  0  0
   -2.2450   19.0310  -26.6270 C   0  0  0  0  0  0  0  0  0  0  0  0
   -1.0190   18.4500  -26.9810 C   0  0  0  0  0  0  0  0  0  0  0  0
   -0.1810   19.0740  -27.9150 C   0  0  0  0  0  0  0  0  0  0  0  0
    1.1460   18.4650  -28.2630 C   0  0  0  0  0  0  0  0  0  0  0  0
   -0.5540   20.3100  -28.4620 C   0  0  0  0  0  0  0  0  0  0  0  0
   -1.7720   20.9160  -28.1040 C   0  0  0  0  0  0  0  0  0  0  0  0
   -2.1520   22.1880  -28.6690 N   0  0  0  0  0  0  0  0  0  0  0  0
   -1.4540   23.3430  -28.5920 C   0  0  0  0  0  0  0  0  0  0  0  0
   -2.1340   24.3510  -29.2440 C   0  0  0  0  0  0  0  0  0  0  0  0
   -3.2910   23.7820  -29.7450 C   0  0  0  0  0  0  0  0  0  0  0  0
   -4.3810   24.4630  -30.4750 C   0  0  0  0  0  0  0  0  0  0  0  0
   -4.2170   25.6630  -30.8250 O   0  0  0  0  0  0  0  0  0  0  0  0
   -5.6480   23.7810  -30.8200 C   0  0  0  0  0  0  0  0  0  0  0  0
   -6.3920   23.1360  -29.8170 C   0  0  0  0  0  0  0  0  0  0  0  0
   -7.5820   22.4740  -30.1340 C   0  0  0  0  0  0  0  0  0  0  0  0
   -8.0340   22.4360  -31.4560 C   0  0  0  0  0  0  0  0  0  0  0  0
   -9.5260   21.6020  -31.8520 Cl  0  0  0  0  0  0  0  0  0  0  0  0
   -7.2900   23.0570  -32.4640 C   0  0  0  0  0  0  0  0  0  0  0  0
   -6.1010   23.7210  -32.1510 C   0  0  0  0  0  0  0  0  0  0  0  0
   -3.2770   22.4530  -29.3660 C   0  0  0  0  0  0  0  0  0  0  0  0
   -2.6100   20.2680  -27.1790 C   0  0  0  0  0  0  0  0  0  0  0  0
   -2.7795   18.6305  -24.5984 H   0  0  0  0  0  0  0  0  0  0  0  0
   -4.1627   18.7162  -25.7411 H   0  0  0  0  0  0  0  0  0  0  0  0
   -3.0855   17.2788  -25.7411 H   0  0  0  0  0  0  0  0  0  0  0  0
   -0.7129   17.4981  -26.5226 H   0  0  0  0  0  0  0  0  0  0  0  0
    1.6887   18.2159  -27.3392 H   0  0  0  0  0  0  0  0  0  0  0  0
    0.9863   17.5501  -28.8524 H   0  0  0  0  0  0  0  0  0  0  0  0
    1.7355   19.1827  -28.8524 H   0  0  0  0  0  0  0  0  0  0  0  0
    0.1130   20.8112  -29.1788 H   0  0  0  0  0  0  0  0  0  0  0  0
   -0.4856   23.4619  -28.0839 H   0  0  0  0  0  0  0  0  0  0  0  0
   -1.8184   25.3999  -29.3454 H   0  0  0  0  0  0  0  0  0  0  0  0
   -6.0359   23.1521  -28.7764 H   0  0  0  0  0  0  0  0  0  0  0  0
   -8.1640   21.9818  -29.3409 H   0  0  0  0  0  0  0  0  0  0  0  0
   -7.6415   23.0227  -33.5058 H   0  0  0  0  0  0  0  0  0  0  0  0
   -5.5156   24.1997  -32.9498 H   0  0  0  0  0  0  0  0  0  0  0  0
   -4.0647   21.7209  -29.5977 H   0  0  0  0  0  0  0  0  0  0  0  0
   -3.5613   20.7358  -26.8853 H   0  0  0  0  0  0  0  0  0  0  0  0
  1  2  1  0
  2  3  2  0
  3  4  1  0
  4  5  1  0
  4  6  2  0
  6  7  1  0
  7  8  1  0
  8  9  1  0
  9 10  2  0
 10 11  1  0
 11 12  1  0
 12 13  2  0
 12 14  1  0
 14 15  2  0
 15 16  1  0
 16 17  2  0
 17 18  1  0
 17 19  1  0
 19 20  2  0
 11 21  2  0
  7 22  2  0
 22  2  1  0
 21  8  1  0
 20 14  1  0
  1 23  1  0
  1 24  1  0
  1 25  1  0
  3 26  1  0
  5 27  1  0
  5 28  1  0
  5 29  1  0
  6 30  1  0
  9 31  1  0
 10 32  1  0
 15 33  1  0
 16 34  1  0
 19 35  1  0
 20 36  1  0
 21 37  1  0
 22 38  1  0
M  END
>  <UniqueID>  (13) 
12

>  <SMILES>  (13) 
Cc1cc(C)cc(-n2ccc(C(=O)c3ccc(Cl)cc3)c2)c1

>  <Energy>  (13) 
72.64976556206864

>  <Genealogy>  (13) 
Cc1cc(C)cc(-n2ccc(C(=O)c3ccc(Cl)cc3)c2)c1 (3D coordinates assigned)
Cc1cc(C)cc(-n2ccc(C(=O)c3ccc(Cl)cc3)c2)c1 (optimized conformer: 72.64976556206864 kcal/mol)

>  <smiles>  (13) 
Cc1cc(C)cc(-n2ccc(C(=O)c3ccc(Cl)cc3)c2)c1

>  <score_type>  (13) 
oracle

>  <origin>  (13) 
adg

>  <m_score__min__energy>  (13) 
-8.8000000000000007

>  <m_primary>  (13) 
energy

$$$$
13:0
     RDKit          3D

 43 46  0  0  0  0  0  0  0  0999 V2000
   -2.9570   21.4130  -31.8600 C   0  0  0  0  0  0  0  0  0  0  0  0
   -3.9860   22.0120  -32.6390 O   0  0  0  0  0  0  0  0  0  0  0  0
   -5.3630   21.8540  -32.4130 C   0  0  0  0  0  0  0  0  0  0  0  0
   -5.9750   20.5880  -32.5240 C   0  0  0  0  0  0  0  0  0  0  0  0
   -7.3480   20.4280  -32.2920 C   0  0  0  0  0  0  0  0  0  0  0  0
   -7.9940   19.0810  -32.4590 C   0  0  0  0  0  0  0  0  0  0  0  0
   -7.0220   18.1260  -32.9740 N   0  0  0  0  0  0  0  0  0  0  0  0
   -6.4110   17.1340  -32.3070 C   0  0  0  0  0  0  0  0  0  0  0  0
   -5.5190   16.5310  -33.1160 N   0  0  0  0  0  0  0  0  0  0  0  0
   -5.5970   17.1810  -34.2700 N   0  0  0  0  0  0  0  0  0  0  0  0
   -6.4970   18.1490  -34.1860 N   0  0  0  0  0  0  0  0  0  0  0  0
   -8.1260   21.5460  -31.9700 C   0  0  0  0  0  0  0  0  0  0  0  0
   -7.5340   22.8030  -31.8560 C   0  0  0  0  0  0  0  0  0  0  0  0
   -6.1610   22.9780  -32.0710 C   0  0  0  0  0  0  0  0  0  0  0  0
   -5.6630   24.2860  -31.9300 O   0  0  0  0  0  0  0  0  0  0  0  0
   -5.6550   25.0660  -30.7390 C   0  0  0  0  0  0  0  0  0  0  0  0
   -4.7440   24.4280  -29.7400 C   0  0  0  0  0  0  0  0  0  0  0  0
   -5.0700   23.2700  -29.0380 C   0  0  0  0  0  0  0  0  0  0  0  0
   -3.7590   22.8820  -28.0620 S   0  0  0  0  0  0  0  0  0  0  0  0
   -2.8290   24.1910  -28.5740 C   0  0  0  0  0  0  0  0  0  0  0  0
   -1.4610   24.5170  -28.1120 C   0  0  0  0  0  0  0  0  0  0  0  0
   -1.2620   25.4500  -27.0790 C   0  0  0  0  0  0  0  0  0  0  0  0
    0.0300   25.7530  -26.6470 C   0  0  0  0  0  0  0  0  0  0  0  0
    1.1190   25.1230  -27.2490 C   0  0  0  0  0  0  0  0  0  0  0  0
    0.9170   24.2230  -28.2470 N   0  0  0  0  0  0  0  0  0  0  0  0
   -0.3310   23.9070  -28.6870 C   0  0  0  0  0  0  0  0  0  0  0  0
   -3.5030   24.9280  -29.4860 N   0  0  0  0  0  0  0  0  0  0  0  0
   -3.1825   21.5443  -30.7914 H   0  0  0  0  0  0  0  0  0  0  0  0
   -2.8983   20.3396  -32.0932 H   0  0  0  0  0  0  0  0  0  0  0  0
   -1.9946   21.8920  -32.0932 H   0  0  0  0  0  0  0  0  0  0  0  0
   -5.3659   19.7136  -32.7966 H   0  0  0  0  0  0  0  0  0  0  0  0
   -8.3674   18.7322  -31.4849 H   0  0  0  0  0  0  0  0  0  0  0  0
   -8.8301   19.1656  -33.1688 H   0  0  0  0  0  0  0  0  0  0  0  0
   -6.6085   16.8565  -31.2611 H   0  0  0  0  0  0  0  0  0  0  0  0
   -9.2078   21.4325  -31.8064 H   0  0  0  0  0  0  0  0  0  0  0  0
   -8.1554   23.6717  -31.5929 H   0  0  0  0  0  0  0  0  0  0  0  0
   -5.2982   26.0814  -30.9665 H   0  0  0  0  0  0  0  0  0  0  0  0
   -6.6735   25.1226  -30.3273 H   0  0  0  0  0  0  0  0  0  0  0  0
   -6.0146   22.7109  -29.1097 H   0  0  0  0  0  0  0  0  0  0  0  0
   -2.1268   25.9423  -26.6102 H   0  0  0  0  0  0  0  0  0  0  0  0
    0.1881   26.4823  -25.8388 H   0  0  0  0  0  0  0  0  0  0  0  0
    2.1415   25.3546  -26.9160 H   0  0  0  0  0  0  0  0  0  0  0  0
   -0.4571   23.1718  -29.4954 H   0  0  0  0  0  0  0  0  0  0  0  0
  1  2  1  0
  2  3  1  0
  3  4  2  0
  4  5  1  0
  5  6  1  0
  6  7  1  0
  7  8  1  0
  8  9  2  0
  9 10  1  0
 10 11  2  0
  5 12  2  0
 12 13  1  0
 13 14  2  0
 14 15  1  0
 15 16  1  0
 16 17  1  0
 17 18  2  0
 18 19  1  0
 19 20  1  0
 20 21  1  0
 21 22  2  0
 22 23  1  0
 23 24  2  0
 24 25  1  0
 25 26  2  0
 20 27  2  0
 14  3  1  0
 27 17  1  0
 11  7  1  0
 26 21  1  0
  1 28  1  0
  1 29  1  0
  1 30  1  0
  4 31  1  0
  6 32  1  0
  6 33  1  0
  8 34  1  0
 12 35  1  0
 13 36  1  0
 16 37  1  0
 16 38  1  0
 18 39  1  0
 22 40  1  0
 23 41  1  0
 24 42  1  0
 26 43  1  0
M  END
>  <UniqueID>  (14) 
13

>  <SMILES>  (14) 
COc1cc(Cn2cnnn2)ccc1OCc1csc(-c2cccnc2)n1

>  <Energy>  (14) 
117.66284668509147

>  <Genealogy>  (14) 
COc1cc(Cn2cnnn2)ccc1OCc1csc(-c2cccnc2)n1 (3D coordinates assigned)
COc1cc(Cn2cnnn2)ccc1OCc1csc(-c2cccnc2)n1 (optimized conformer: 117.66284668509147 kcal/mol)

>  <smiles>  (14) 
COc1cc(Cn2cnnn2)ccc1OCc1csc(-c2cccnc2)n1

>  <score_type>  (14) 
oracle

>  <origin>  (14) 
adg

>  <m_score__min__energy>  (14) 
-9.7300000000000004

>  <m_primary>  (14) 
energy

$$$$
14:0
     RDKit          3D

 28 29  0  0  0  0  0  0  0  0999 V2000
   -8.7200   20.0620  -32.2800 C   0  0  0  0  0  0  0  0  0  0  0  0
   -7.4950   20.6320  -32.7290 O   0  0  0  0  0  0  0  0  0  0  0  0
   -6.9300   21.8040  -32.2070 C   0  0  0  0  0  0  0  0  0  0  0  0
   -7.6930   22.7910  -31.5600 C   0  0  0  0  0  0  0  0  0  0  0  0
   -7.0730   23.9370  -31.0600 C   0  0  0  0  0  0  0  0  0  0  0  0
   -5.6830   24.0890  -31.1960 C   0  0  0  0  0  0  0  0  0  0  0  0
   -4.9830   25.2890  -30.6920 C   0  0  0  0  0  0  0  0  0  0  0  0
   -5.6480   26.3340  -30.4660 O   0  0  0  0  0  0  0  0  0  0  0  0
   -3.5770   25.2940  -30.4070 N   0  0  0  0  0  0  0  0  0  0  0  0
   -2.9250   24.5750  -29.3500 C   0  0  0  0  0  0  0  0  0  0  0  0
   -3.6420   23.5940  -28.6550 C   0  0  0  0  0  0  0  0  0  0  0  0
   -3.0410   22.8850  -27.6100 C   0  0  0  0  0  0  0  0  0  0  0  0
   -1.7220   23.1650  -27.2440 C   0  0  0  0  0  0  0  0  0  0  0  0
   -1.0050   24.1570  -27.9170 C   0  0  0  0  0  0  0  0  0  0  0  0
   -1.6040   24.8680  -28.9630 C   0  0  0  0  0  0  0  0  0  0  0  0
   -4.9700   23.1260  -31.8410 N   0  0  0  0  0  0  0  0  0  0  0  0
   -5.5530   22.0030  -32.3390 C   0  0  0  0  0  0  0  0  0  0  0  0
   -8.7389   20.0532  -31.1802 H   0  0  0  0  0  0  0  0  0  0  0  0
   -9.5626   20.6605  -32.6565 H   0  0  0  0  0  0  0  0  0  0  0  0
   -8.8048   19.0319  -32.6565 H   0  0  0  0  0  0  0  0  0  0  0  0
   -8.7794   22.6602  -31.4476 H   0  0  0  0  0  0  0  0  0  0  0  0
   -7.6689   24.7164  -30.5625 H   0  0  0  0  0  0  0  0  0  0  0  0
   -4.6846   23.3794  -28.9325 H   0  0  0  0  0  0  0  0  0  0  0  0
   -3.6066   22.1070  -27.0763 H   0  0  0  0  0  0  0  0  0  0  0  0
   -1.2479   22.6038  -26.4253 H   0  0  0  0  0  0  0  0  0  0  0  0
    0.0318   24.3796  -27.6244 H   0  0  0  0  0  0  0  0  0  0  0  0
   -1.0415   25.6571  -29.4835 H   0  0  0  0  0  0  0  0  0  0  0  0
   -4.9374   21.2471  -32.8485 H   0  0  0  0  0  0  0  0  0  0  0  0
  1  2  1  0
  2  3  1  0
  3  4  2  0
  4  5  1  0
  5  6  2  0
  6  7  1  0
  7  8  2  0
  7  9  1  0
  9 10  1  0
 10 11  2  0
 11 12  1  0
 12 13  2  0
 13 14  1  0
 14 15  2  0
  6 16  1  0
 16 17  2  0
 17  3  1  0
 15 10  1  0
  1 18  1  0
  1 19  1  0
  1 20  1  0
  4 21  1  0
  5 22  1  0
 11 23  1  0
 12 24  1  0
 13 25  1  0
 14 26  1  0
 15 27  1  0
 17 28  1  0
M  CHG  1   9  -1
M  END
>  <UniqueID>  (15) 
14

>  <SMILES>  (15) 
COc1ccc(C(=O)[N-]c2ccccc2)nc1

>  <Energy>  (15) 
34.906283563600105

>  <Genealogy>  (15) 
COc1ccc(C(=O)[N-]c2ccccc2)nc1 (protonated)
COc1ccc(C(=O)[N-]c2ccccc2)nc1 (3D coordinates assigned)
COc1ccc(C(=O)[N-]c2ccccc2)nc1 (optimized conformer: 34.906283563600105 kcal/mol)

>  <smiles>  (15) 
COc1ccc(C(=O)Nc2ccccc2)nc1

>  <score_type>  (15) 
oracle

>  <origin>  (15) 
adg

>  <m_score__min__energy>  (15) 
-7.75

>  <m_primary>  (15) 
energy

$$$$
15:0
     RDKit          3D

 39 41  0  0  0  0  0  0  0  0999 V2000
   -4.2150   22.4840  -27.8240 C   0  0  0  0  0  0  0  0  0  0  0  0
   -4.2000   23.4010  -28.9660 N   0  0  0  0  0  0  0  0  0  0  0  0
   -5.1760   23.6150  -29.8750 C   0  0  0  0  0  0  0  0  0  0  0  0
   -6.4860   22.8850  -29.9330 C   0  0  0  0  0  0  0  0  0  0  0  0
   -7.5190   23.7590  -30.4940 N   0  0  0  0  0  0  0  0  0  0  0  0
   -8.0280   23.1440  -32.0370 S   0  0  0  0  0  0  0  0  0  0  0  0
   -7.1860   23.7610  -33.1180 O   0  0  0  0  0  0  0  0  0  0  0  0
   -9.4650   23.5160  -32.2790 O   0  0  0  0  0  0  0  0  0  0  0  0
   -7.8320   21.3930  -32.0860 C   0  0  0  0  0  0  0  0  0  0  0  0
   -6.6900   20.8150  -32.6590 C   0  0  0  0  0  0  0  0  0  0  0  0
   -6.5600   19.4230  -32.7130 C   0  0  0  0  0  0  0  0  0  0  0  0
   -7.5700   18.6040  -32.1990 C   0  0  0  0  0  0  0  0  0  0  0  0
   -8.7120   19.1770  -31.6320 C   0  0  0  0  0  0  0  0  0  0  0  0
   -8.8450   20.5670  -31.5760 C   0  0  0  0  0  0  0  0  0  0  0  0
   -4.8100   24.5410  -30.7810 N   0  0  0  0  0  0  0  0  0  0  0  0
   -3.5880   24.9360  -30.4600 N   0  0  0  0  0  0  0  0  0  0  0  0
   -3.2150   24.2350  -29.3710 C   0  0  0  0  0  0  0  0  0  0  0  0
   -1.8910   24.3930  -28.7320 C   0  0  0  0  0  0  0  0  0  0  0  0
   -0.9760   23.3270  -28.7580 C   0  0  0  0  0  0  0  0  0  0  0  0
    0.2730   23.4510  -28.1410 C   0  0  0  0  0  0  0  0  0  0  0  0
    0.6120   24.6350  -27.4800 C   0  0  0  0  0  0  0  0  0  0  0  0
   -0.3000   25.6920  -27.4290 C   0  0  0  0  0  0  0  0  0  0  0  0
   -1.5490   25.5710  -28.0440 C   0  0  0  0  0  0  0  0  0  0  0  0
   -4.2055   23.0629  -26.8887 H   0  0  0  0  0  0  0  0  0  0  0  0
   -5.1234   21.8649  -27.8628 H   0  0  0  0  0  0  0  0  0  0  0  0
   -3.3273   21.8355  -27.8628 H   0  0  0  0  0  0  0  0  0  0  0  0
   -6.3787   21.9930  -30.5677 H   0  0  0  0  0  0  0  0  0  0  0  0
   -6.7787   22.5846  -28.9161 H   0  0  0  0  0  0  0  0  0  0  0  0
   -7.0970   24.6980  -30.6730 H   0  0  0  0  0  0  0  0  0  0  0  0
   -5.8952   21.4570  -33.0666 H   0  0  0  0  0  0  0  0  0  0  0  0
   -5.6619   18.9722  -33.1605 H   0  0  0  0  0  0  0  0  0  0  0  0
   -7.4660   17.5097  -32.2408 H   0  0  0  0  0  0  0  0  0  0  0  0
   -9.5074   18.5327  -31.2292 H   0  0  0  0  0  0  0  0  0  0  0  0
   -9.7460   21.0146  -31.1311 H   0  0  0  0  0  0  0  0  0  0  0  0
   -1.2437   22.3892  -29.2668 H   0  0  0  0  0  0  0  0  0  0  0  0
    0.9888   22.6165  -28.1759 H   0  0  0  0  0  0  0  0  0  0  0  0
    1.5968   24.7345  -27.0000 H   0  0  0  0  0  0  0  0  0  0  0  0
   -0.0345   26.6213  -26.9037 H   0  0  0  0  0  0  0  0  0  0  0  0
   -2.2684   26.4014  -27.9897 H   0  0  0  0  0  0  0  0  0  0  0  0
  1  2  1  0
  2  3  1  0
  3  4  1  0
  4  5  1  0
  5  6  1  0
  6  7  2  0
  6  8  2  0
  6  9  1  0
  9 10  2  0
 10 11  1  0
 11 12  2  0
 12 13  1  0
 13 14  2  0
  3 15  2  0
 15 16  1  0
 16 17  2  0
 17 18  1  0
 18 19  2  0
 19 20  1  0
 20 21  2  0
 21 22  1  0
 22 23  2  0
 17  2  1  0
 23 18  1  0
 14  9  1  0
  1 24  1  0
  1 25  1  0
  1 26  1  0
  4 27  1  0
  4 28  1  0
  5 29  1  0
 10 30  1  0
 11 31  1  0
 12 32  1  0
 13 33  1  0
 14 34  1  0
 19 35  1  0
 20 36  1  0
 21 37  1  0
 22 38  1  0
 23 39  1  0
M  END
>  <UniqueID>  (16) 
15

>  <SMILES>  (16) 
Cn1c(CNS(=O)(=O)c2ccccc2)nnc1-c1ccccc1

>  <Energy>  (16) 
76.9935602285101

>  <Genealogy>  (16) 
Cn1c(CNS(=O)(=O)c2ccccc2)nnc1-c1ccccc1 (3D coordinates assigned)
Cn1c(CNS(=O)(=O)c2ccccc2)nnc1-c1ccccc1 (optimized conformer: 76.9935602285101 kcal/mol)

>  <smiles>  (16) 
Cn1c(CNS(=O)(=O)c2ccccc2)nnc1-c1ccccc1

>  <score_type>  (16) 
oracle

>  <origin>  (16) 
adg

>  <m_score__min__energy>  (16) 
-9.1199999999999992

>  <m_primary>  (16) 
energy

$$$$
16:0
     RDKit          3D

 51 54  0  0  0  0  0  0  0  0999 V2000
   -7.2970   17.4380  -33.0430 C   0  0  0  0  0  0  0  0  0  0  0  0
   -6.2500   18.4150  -33.3340 N   0  0  0  0  0  0  0  0  0  0  0  0
   -6.3170   19.7700  -33.2080 C   0  0  0  0  0  0  0  0  0  0  0  0
   -7.5350   20.5230  -32.7610 C   0  0  0  0  0  0  0  0  0  0  0  0
   -7.1270   21.6960  -31.9630 N   0  0  0  0  0  0  0  0  0  0  0  0
   -7.2230   21.5520  -30.4940 C   0  0  0  0  0  0  0  0  0  0  0  0
   -7.7150   22.7980  -29.7120 C   0  0  0  0  0  0  0  0  0  0  0  0
   -6.8100   24.0390  -29.7590 C   0  0  0  0  0  0  0  0  0  0  0  0
   -5.9070   24.0800  -30.9260 N   0  0  0  0  0  0  0  0  0  0  0  0
   -4.4970   24.3010  -30.7100 C   0  0  0  0  0  0  0  0  0  0  0  0
   -4.0360   25.4750  -30.7520 O   0  0  0  0  0  0  0  0  0  0  0  0
   -3.5780   23.1840  -30.4120 C   0  0  0  0  0  0  0  0  0  0  0  0
   -3.9260   21.8760  -30.7890 C   0  0  0  0  0  0  0  0  0  0  0  0
   -3.0680   20.8090  -30.5080 C   0  0  0  0  0  0  0  0  0  0  0  0
   -1.8640   21.0370  -29.8390 C   0  0  0  0  0  0  0  0  0  0  0  0
   -1.5190   22.3320  -29.4410 C   0  0  0  0  0  0  0  0  0  0  0  0
   -2.3730   23.4040  -29.7200 C   0  0  0  0  0  0  0  0  0  0  0  0
   -2.0420   24.6450  -29.2810 F   0  0  0  0  0  0  0  0  0  0  0  0
   -6.4280   24.1110  -32.2990 C   0  0  0  0  0  0  0  0  0  0  0  0
   -7.4760   23.0130  -32.5360 C   0  0  0  0  0  0  0  0  0  0  0  0
   -5.1240   20.3740  -33.4380 N   0  0  0  0  0  0  0  0  0  0  0  0
   -4.2850   19.3610  -33.7040 C   0  0  0  0  0  0  0  0  0  0  0  0
   -2.9190   19.4240  -33.9730 C   0  0  0  0  0  0  0  0  0  0  0  0
   -2.2370   18.2100  -34.1760 C   0  0  0  0  0  0  0  0  0  0  0  0
   -2.9280   16.9790  -34.0970 C   0  0  0  0  0  0  0  0  0  0  0  0
   -4.3070   16.9490  -33.8170 C   0  0  0  0  0  0  0  0  0  0  0  0
   -4.9570   18.1730  -33.6330 C   0  0  0  0  0  0  0  0  0  0  0  0
   -7.4087   17.3338  -31.9537 H   0  0  0  0  0  0  0  0  0  0  0  0
   -8.2480   17.7791  -33.4781 H   0  0  0  0  0  0  0  0  0  0  0  0
   -7.0225   16.4657  -33.4781 H   0  0  0  0  0  0  0  0  0  0  0  0
   -8.1016   20.8588  -33.6420 H   0  0  0  0  0  0  0  0  0  0  0  0
   -8.1662   19.8646  -32.1461 H   0  0  0  0  0  0  0  0  0  0  0  0
   -7.9196   20.7272  -30.2829 H   0  0  0  0  0  0  0  0  0  0  0  0
   -6.1935   21.3766  -30.1486 H   0  0  0  0  0  0  0  0  0  0  0  0
   -8.6953   23.0837  -30.1212 H   0  0  0  0  0  0  0  0  0  0  0  0
   -7.7324   22.4905  -28.6560 H   0  0  0  0  0  0  0  0  0  0  0  0
   -7.4502   24.9331  -29.7855 H   0  0  0  0  0  0  0  0  0  0  0  0
   -6.1717   24.0013  -28.8640 H   0  0  0  0  0  0  0  0  0  0  0  0
   -4.8782   21.6908  -31.3077 H   0  0  0  0  0  0  0  0  0  0  0  0
   -3.3417   19.7886  -30.8143 H   0  0  0  0  0  0  0  0  0  0  0  0
   -1.1865   20.1973  -29.6249 H   0  0  0  0  0  0  0  0  0  0  0  0
   -0.5736   22.5083  -28.9071 H   0  0  0  0  0  0  0  0  0  0  0  0
   -6.8919   25.0915  -32.4818 H   0  0  0  0  0  0  0  0  0  0  0  0
   -5.5881   23.9366  -32.9876 H   0  0  0  0  0  0  0  0  0  0  0  0
   -8.4250   23.3418  -32.0874 H   0  0  0  0  0  0  0  0  0  0  0  0
   -7.5397   22.8724  -33.6251 H   0  0  0  0  0  0  0  0  0  0  0  0
   -4.8990   21.3920  -33.3830 H   0  0  0  0  0  0  0  0  0  0  0  0
   -2.3926   20.3885  -34.0248 H   0  0  0  0  0  0  0  0  0  0  0  0
   -1.1596   18.2188  -34.3975 H   0  0  0  0  0  0  0  0  0  0  0  0
   -2.3832   16.0367  -34.2557 H   0  0  0  0  0  0  0  0  0  0  0  0
   -4.8535   15.9970  -33.7455 H   0  0  0  0  0  0  0  0  0  0  0  0
  1  2  1  0
  2  3  1  0
  3  4  1  0
  4  5  1  0
  5  6  1  0
  6  7  1  0
  7  8  1  0
  8  9  1  0
  9 10  1  0
 10 11  2  0
 10 12  1  0
 12 13  2  0
 13 14  1  0
 14 15  2  0
 15 16  1  0
 16 17  2  0
 17 18  1  0
  9 19  1  0
 19 20  1  0
  3 21  2  0
 21 22  1  0
 22 23  2  0
 23 24  1  0
 24 25  2  0
 25 26  1  0
 26 27  2  0
 27  2  1  0
 20  5  1  0
 27 22  1  0
 17 12  1  0
  1 28  1  0
  1 29  1  0
  1 30  1  0
  4 31  1  0
  4 32  1  0
  6 33  1  0
  6 34  1  0
  7 35  1  0
  7 36  1  0
  8 37  1  0
  8 38  1  0
 13 39  1  0
 14 40  1  0
 15 41  1  0
 16 42  1  0
 19 43  1  0
 19 44  1  0
 20 45  1  0
 20 46  1  0
 21 47  1  0
 23 48  1  0
 24 49  1  0
 25 50  1  0
 26 51  1  0
M  CHG  1  21   1
M  END
>  <UniqueID>  (17) 
16

>  <SMILES>  (17) 
Cn1c(CN2CCCN(C(=O)c3ccccc3F)CC2)[nH+]c2ccccc21

>  <Energy>  (17) 
114.4142604080436

>  <Genealogy>  (17) 
Cn1c(CN2CCCN(C(=O)c3ccccc3F)CC2)[nH+]c2ccccc21 (protonated)
Cn1c(CN2CCCN(C(=O)c3ccccc3F)CC2)[nH+]c2ccccc21 (3D coordinates assigned)
Cn1c(CN2CCCN(C(=O)c3ccccc3F)CC2)[nH+]c2ccccc21 (nonaromatic ring conformer: 114.4142604080436 kcal/mol)

>  <smiles>  (17) 
Cn1c(CN2CCCN(C(=O)c3ccccc3F)CC2)nc2ccccc21

>  <score_type>  (17) 
oracle

>  <origin>  (17) 
adg

>  <m_score__min__energy>  (17) 
-6.3200000000000003

>  <m_primary>  (17) 
energy

$$$$
17:0
     RDKit          3D

 34 35  0  0  0  0  0  0  0  0999 V2000
   -2.2760   24.1350  -28.3210 C   0  0  0  0  0  0  0  0  0  0  0  0
   -3.2900   23.8870  -29.3990 C   0  0  0  0  0  0  0  0  0  0  0  0
   -3.0020   23.0030  -30.4470 C   0  0  0  0  0  0  0  0  0  0  0  0
   -3.9620   22.7260  -31.4330 C   0  0  0  0  0  0  0  0  0  0  0  0
   -3.6350   21.7690  -32.5470 C   0  0  0  0  0  0  0  0  0  0  0  0
   -5.2310   23.3370  -31.3640 C   0  0  0  0  0  0  0  0  0  0  0  0
   -6.2150   23.0480  -32.3700 N   0  0  0  0  0  0  0  0  0  0  0  0
   -7.2130   22.0210  -32.2270 C   0  0  0  0  0  0  0  0  0  0  0  0
   -8.5120   22.3160  -31.7730 C   0  0  0  0  0  0  0  0  0  0  0  0
   -9.4590   21.2960  -31.6370 C   0  0  0  0  0  0  0  0  0  0  0  0
   -9.1210   19.9770  -31.9450 C   0  0  0  0  0  0  0  0  0  0  0  0
   -7.8280   19.6710  -32.3880 C   0  0  0  0  0  0  0  0  0  0  0  0
   -7.4770   18.3100  -32.7020 C   0  0  0  0  0  0  0  0  0  0  0  0
   -7.1950   17.2170  -32.9550 N   0  0  0  0  0  0  0  0  0  0  0  0
   -6.8780   20.6900  -32.5260 C   0  0  0  0  0  0  0  0  0  0  0  0
   -5.5190   24.2420  -30.3160 C   0  0  0  0  0  0  0  0  0  0  0  0
   -6.8570   24.9240  -30.2180 C   0  0  0  0  0  0  0  0  0  0  0  0
   -4.5530   24.4850  -29.3280 C   0  0  0  0  0  0  0  0  0  0  0  0
   -2.7519   24.0186  -27.3361 H   0  0  0  0  0  0  0  0  0  0  0  0
   -1.4530   23.4117  -28.4183 H   0  0  0  0  0  0  0  0  0  0  0  0
   -1.8798   25.1565  -28.4183 H   0  0  0  0  0  0  0  0  0  0  0  0
   -2.0143   22.5214  -30.4977 H   0  0  0  0  0  0  0  0  0  0  0  0
   -3.3070   20.8092  -32.1214 H   0  0  0  0  0  0  0  0  0  0  0  0
   -4.5293   21.6087  -33.1670 H   0  0  0  0  0  0  0  0  0  0  0  0
   -2.8296   22.1895  -33.1670 H   0  0  0  0  0  0  0  0  0  0  0  0
   -6.1500   23.5700  -33.2730 H   0  0  0  0  0  0  0  0  0  0  0  0
   -8.7834   23.3526  -31.5242 H   0  0  0  0  0  0  0  0  0  0  0  0
  -10.4740   21.5339  -31.2860 H   0  0  0  0  0  0  0  0  0  0  0  0
   -9.8699   19.1782  -31.8398 H   0  0  0  0  0  0  0  0  0  0  0  0
   -5.8622   20.4467  -32.8710 H   0  0  0  0  0  0  0  0  0  0  0  0
   -7.1228   25.0595  -29.1592 H   0  0  0  0  0  0  0  0  0  0  0  0
   -6.8052   25.9057  -30.7116 H   0  0  0  0  0  0  0  0  0  0  0  0
   -7.6209   24.3053  -30.7116 H   0  0  0  0  0  0  0  0  0  0  0  0
   -4.7913   25.1535  -28.4876 H   0  0  0  0  0  0  0  0  0  0  0  0
  1  2  1  0
  2  3  2  0
  3  4  1  0
  4  5  1  0
  4  6  2  0
  6  7  1  0
  7  8  1  0
  8  9  2  0
  9 10  1  0
 10 11  2  0
 11 12  1  0
 12 13  1  0
 13 14  3  0
 12 15  2  0
  6 16  1  0
 16 17  1  0
 16 18  2  0
 18  2  1  0
 15  8  1  0
  1 19  1  0
  1 20  1  0
  1 21  1  0
  3 22  1  0
  5 23  1  0
  5 24  1  0
  5 25  1  0
  7 26  1  0
  9 27  1  0
 10 28  1  0
 11 29  1  0
 15 30  1  0
 17 31  1  0
 17 32  1  0
 17 33  1  0
 18 34  1  0
M  END
>  <UniqueID>  (18) 
17

>  <SMILES>  (18) 
Cc1cc(C)c(Nc2cccc(C#N)c2)c(C)c1

>  <Energy>  (18) 
39.47218339190879

>  <Genealogy>  (18) 
Cc1cc(C)c(Nc2cccc(C#N)c2)c(C)c1 (3D coordinates assigned)
Cc1cc(C)c(Nc2cccc(C#N)c2)c(C)c1 (optimized conformer: 39.47218339190879 kcal/mol)

>  <smiles>  (18) 
Cc1cc(C)c(Nc2cccc(C#N)c2)c(C)c1

>  <score_type>  (18) 
oracle

>  <origin>  (18) 
adg

>  <m_score__min__energy>  (18) 
-7.5899999999999999

>  <m_primary>  (18) 
energy

$$$$
18:0
     RDKit          3D

 54 57  0  0  0  0  0  0  0  0999 V2000
    0.6070   24.9150  -36.0920 C   0  0  0  0  0  0  0  0  0  0  0  0
    1.4950   23.7280  -36.4710 C   0  0  0  0  0  0  0  0  0  0  0  0
    2.0000   23.0100  -35.2880 N   0  0  0  0  0  0  0  0  0  0  0  0
    2.0770   21.5570  -35.4930 C   0  0  0  0  0  0  0  0  0  0  0  0
    1.0300   20.8120  -34.6420 C   0  0  0  0  0  0  0  0  0  0  0  0
   -0.1170   21.6560  -34.2590 N   0  0  0  0  0  0  0  0  0  0  0  0
   -0.5170   21.5010  -32.8520 C   0  0  0  0  0  0  0  0  0  0  0  0
   -1.9730   21.1350  -32.7390 C   0  0  0  0  0  0  0  0  0  0  0  0
   -2.6290   20.5170  -33.8150 C   0  0  0  0  0  0  0  0  0  0  0  0
   -3.9720   20.1490  -33.7050 C   0  0  0  0  0  0  0  0  0  0  0  0
   -4.6790   20.3960  -32.5180 C   0  0  0  0  0  0  0  0  0  0  0  0
   -6.0890   19.9740  -32.3890 C   0  0  0  0  0  0  0  0  0  0  0  0
   -6.6210   18.7060  -32.6280 C   0  0  0  0  0  0  0  0  0  0  0  0
   -5.8830   17.4650  -32.9480 C   0  0  0  0  0  0  0  0  0  0  0  0
   -5.3990   17.2180  -34.2470 C   0  0  0  0  0  0  0  0  0  0  0  0
   -4.7000   16.0410  -34.5270 C   0  0  0  0  0  0  0  0  0  0  0  0
   -4.4650   15.1070  -33.5160 C   0  0  0  0  0  0  0  0  0  0  0  0
   -4.9240   15.3520  -32.2190 C   0  0  0  0  0  0  0  0  0  0  0  0
   -4.6880   14.4490  -31.2360 F   0  0  0  0  0  0  0  0  0  0  0  0
   -5.6230   16.5290  -31.9340 C   0  0  0  0  0  0  0  0  0  0  0  0
   -7.9700   18.7450  -32.5060 N   0  0  0  0  0  0  0  0  0  0  0  0
   -8.2260   20.0300  -32.1900 C   0  0  0  0  0  0  0  0  0  0  0  0
   -9.4900   20.5750  -31.9790 C   0  0  0  0  0  0  0  0  0  0  0  0
   -9.5710   21.9480  -31.6960 C   0  0  0  0  0  0  0  0  0  0  0  0
   -8.4030   22.7320  -31.6420 C   0  0  0  0  0  0  0  0  0  0  0  0
   -7.1560   22.1300  -31.8650 C   0  0  0  0  0  0  0  0  0  0  0  0
   -7.1210   20.7930  -32.1140 N   0  0  0  0  0  0  0  0  0  0  0  0
   -4.0260   21.0190  -31.4440 C   0  0  0  0  0  0  0  0  0  0  0  0
   -2.6820   21.3850  -31.5530 C   0  0  0  0  0  0  0  0  0  0  0  0
    0.5481   24.9938  -34.9964 H   0  0  0  0  0  0  0  0  0  0  0  0
    1.0364   25.8403  -36.5036 H   0  0  0  0  0  0  0  0  0  0  0  0
   -0.4019   24.7643  -36.5036 H   0  0  0  0  0  0  0  0  0  0  0  0
    0.9087   23.0292  -37.0858 H   0  0  0  0  0  0  0  0  0  0  0  0
    2.3619   24.1183  -37.0244 H   0  0  0  0  0  0  0  0  0  0  0  0
    1.3870   23.2100  -34.4620 H   0  0  0  0  0  0  0  0  0  0  0  0
    1.8976   21.3356  -36.5555 H   0  0  0  0  0  0  0  0  0  0  0  0
    3.0772   21.2170  -35.1865 H   0  0  0  0  0  0  0  0  0  0  0  0
    0.6552   19.9550  -35.2209 H   0  0  0  0  0  0  0  0  0  0  0  0
    1.5284   20.4981  -33.7130 H   0  0  0  0  0  0  0  0  0  0  0  0
    0.0990   22.6660  -34.4380 H   0  0  0  0  0  0  0  0  0  0  0  0
    0.0896   20.7073  -32.3915 H   0  0  0  0  0  0  0  0  0  0  0  0
   -0.3568   22.4591  -32.3359 H   0  0  0  0  0  0  0  0  0  0  0  0
   -2.0828   20.3215  -34.7496 H   0  0  0  0  0  0  0  0  0  0  0  0
   -4.4778   19.6634  -34.5526 H   0  0  0  0  0  0  0  0  0  0  0  0
   -5.5720   17.9550  -35.0450 H   0  0  0  0  0  0  0  0  0  0  0  0
   -4.3339   15.8497  -35.5465 H   0  0  0  0  0  0  0  0  0  0  0  0
   -3.9189   14.1789  -33.7403 H   0  0  0  0  0  0  0  0  0  0  0  0
   -5.9715   16.7230  -30.9088 H   0  0  0  0  0  0  0  0  0  0  0  0
  -10.3944   19.9511  -32.0322 H   0  0  0  0  0  0  0  0  0  0  0  0
  -10.5514   22.4130  -31.5157 H   0  0  0  0  0  0  0  0  0  0  0  0
   -8.4679   23.8087  -31.4265 H   0  0  0  0  0  0  0  0  0  0  0  0
   -6.2302   22.7236  -31.8392 H   0  0  0  0  0  0  0  0  0  0  0  0
   -4.5745   21.2202  -30.5120 H   0  0  0  0  0  0  0  0  0  0  0  0
   -2.1768   21.8714  -30.7055 H   0  0  0  0  0  0  0  0  0  0  0  0
  1  2  1  0
  2  3  1  0
  3  4  1  0
  4  5  1  0
  5  6  1  0
  6  7  1  0
  7  8  1  0
  8  9  2  0
  9 10  1  0
 10 11  2  0
 11 12  1  0
 12 13  2  0
 13 14  1  0
 14 15  2  0
 15 16  1  0
 16 17  2  0
 17 18  1  0
 18 19  1  0
 18 20  2  0
 13 21  1  0
 21 22  2  0
 22 23  1  0
 23 24  2  0
 24 25  1  0
 25 26  2  0
 26 27  1  0
 11 28  1  0
 28 29  2  0
 29  8  1  0
 27 12  1  0
 20 14  1  0
 27 22  1  0
  1 30  1  0
  1 31  1  0
  1 32  1  0
  2 33  1  0
  2 34  1  0
  3 35  1  0
  4 36  1  0
  4 37  1  0
  5 38  1  0
  5 39  1  0
  6 40  1  0
  7 41  1  0
  7 42  1  0
  9 43  1  0
 10 44  1  0
 15 45  1  0
 16 46  1  0
 17 47  1  0
 20 48  1  0
 23 49  1  0
 24 50  1  0
 25 51  1  0
 26 52  1  0
 28 53  1  0
 29 54  1  0
M  END
>  <UniqueID>  (19) 
18

>  <SMILES>  (19) 
CCNCCNCc1ccc(-c2c(-c3cccc(F)c3)nc3ccccn23)cc1

>  <Energy>  (19) 
100.63170771766076

>  <Genealogy>  (19) 
CCNCCNCc1ccc(-c2c(-c3cccc(F)c3)nc3ccccn23)cc1 (3D coordinates assigned)
CCNCCNCc1ccc(-c2c(-c3cccc(F)c3)nc3ccccn23)cc1 (optimized conformer: 100.63170771766076 kcal/mol)

>  <smiles>  (19) 
CCNCCNCc1ccc(-c2c(-c3cccc(F)c3)nc3ccccn23)cc1

>  <score_type>  (19) 
oracle

>  <origin>  (19) 
adg

>  <m_score__min__energy>  (19) 
-9.25

>  <m_primary>  (19) 
energy

$$$$
19:0
     RDKit          3D

 46 48  0  0  0  0  0  0  0  0999 V2000
   -8.6940   18.4630  -32.2090 C   0  0  0  0  0  0  0  0  0  0  0  0
   -8.4280   19.9140  -31.9340 C   0  0  0  0  0  0  0  0  0  0  0  0
   -9.1620   20.5310  -30.9660 N   0  0  0  0  0  0  0  0  0  0  0  0
   -8.9860   21.8390  -30.6430 C   0  0  0  0  0  0  0  0  0  0  0  0
   -8.0260   22.5970  -31.3070 C   0  0  0  0  0  0  0  0  0  0  0  0
   -7.2530   22.0010  -32.3020 C   0  0  0  0  0  0  0  0  0  0  0  0
   -7.4420   20.6510  -32.6360 C   0  0  0  0  0  0  0  0  0  0  0  0
   -6.5840   20.0490  -33.7290 C   0  0  0  0  0  0  0  0  0  0  0  0
   -5.6930   19.0050  -33.1770 N   0  0  0  0  0  0  0  0  0  0  0  0
   -4.9220   19.4860  -32.0040 C   0  0  0  0  0  0  0  0  0  0  0  0
   -4.1090   20.7640  -32.2740 C   0  0  0  0  0  0  0  0  0  0  0  0
   -2.8160   20.5140  -33.0240 C   0  0  0  0  0  0  0  0  0  0  0  0
   -1.8740   21.5530  -33.0810 C   0  0  0  0  0  0  0  0  0  0  0  0
   -0.7200   21.4030  -33.7780 N   0  0  0  0  0  0  0  0  0  0  0  0
   -0.4500   20.2530  -34.4440 C   0  0  0  0  0  0  0  0  0  0  0  0
    0.8420   20.1100  -35.2020 C   0  0  0  0  0  0  0  0  0  0  0  0
    1.1280   21.3720  -36.0210 C   0  0  0  0  0  0  0  0  0  0  0  0
    0.8040   18.8700  -36.1010 C   0  0  0  0  0  0  0  0  0  0  0  0
   -1.3500   19.2370  -34.4230 N   0  0  0  0  0  0  0  0  0  0  0  0
   -2.5320   19.3310  -33.7550 C   0  0  0  0  0  0  0  0  0  0  0  0
   -3.4280   18.1150  -33.7760 C   0  0  0  0  0  0  0  0  0  0  0  0
   -4.8600   18.4160  -34.2480 C   0  0  0  0  0  0  0  0  0  0  0  0
   -8.7933   17.9215  -31.2567 H   0  0  0  0  0  0  0  0  0  0  0  0
   -9.6253   18.3639  -32.7860 H   0  0  0  0  0  0  0  0  0  0  0  0
   -7.8584   18.0400  -32.7860 H   0  0  0  0  0  0  0  0  0  0  0  0
   -9.6024   22.2989  -29.8565 H   0  0  0  0  0  0  0  0  0  0  0  0
   -7.8787   23.6561  -31.0491 H   0  0  0  0  0  0  0  0  0  0  0  0
   -6.4898   22.5926  -32.8289 H   0  0  0  0  0  0  0  0  0  0  0  0
   -7.2351   19.6009  -34.4940 H   0  0  0  0  0  0  0  0  0  0  0  0
   -5.9662   20.8437  -34.1726 H   0  0  0  0  0  0  0  0  0  0  0  0
   -5.6281   19.6910  -31.1858 H   0  0  0  0  0  0  0  0  0  0  0  0
   -4.2000   18.6958  -31.7506 H   0  0  0  0  0  0  0  0  0  0  0  0
   -4.7287   21.4511  -32.8689 H   0  0  0  0  0  0  0  0  0  0  0  0
   -3.8375   21.1861  -31.2952 H   0  0  0  0  0  0  0  0  0  0  0  0
   -2.0736   22.4984  -32.5552 H   0  0  0  0  0  0  0  0  0  0  0  0
    1.6593   19.9812  -34.4771 H   0  0  0  0  0  0  0  0  0  0  0  0
    1.3191   22.2151  -35.3408 H   0  0  0  0  0  0  0  0  0  0  0  0
    2.0111   21.2052  -36.6553 H   0  0  0  0  0  0  0  0  0  0  0  0
    0.2593   21.6022  -36.6553 H   0  0  0  0  0  0  0  0  0  0  0  0
    0.7763   17.9650  -35.4764 H   0  0  0  0  0  0  0  0  0  0  0  0
   -0.0935   18.9049  -36.7360 H   0  0  0  0  0  0  0  0  0  0  0  0
    1.7019   18.8499  -36.7360 H   0  0  0  0  0  0  0  0  0  0  0  0
   -2.9873   17.3696  -34.4543 H   0  0  0  0  0  0  0  0  0  0  0  0
   -3.4989   17.7476  -32.7416 H   0  0  0  0  0  0  0  0  0  0  0  0
   -4.8137   19.1233  -35.0892 H   0  0  0  0  0  0  0  0  0  0  0  0
   -5.3221   17.4639  -34.5479 H   0  0  0  0  0  0  0  0  0  0  0  0
  1  2  1  0
  2  3  2  0
  3  4  1  0
  4  5  2  0
  5  6  1  0
  6  7  2  0
  7  8  1  0
  8  9  1  0
  9 10  1  0
 10 11  1  0
 11 12  1  0
 12 13  2  0
 13 14  1  0
 14 15  2  0
 15 16  1  0
 16 17  1  0
 16 18  1  0
 15 19  1  0
 19 20  2  0
 20 21  1  0
 21 22  1  0
  7  2  1  0
 22  9  1  0
 20 12  1  0
  1 23  1  0
  1 24  1  0
  1 25  1  0
  4 26  1  0
  5 27  1  0
  6 28  1  0
  8 29  1  0
  8 30  1  0
 10 31  1  0
 10 32  1  0
 11 33  1  0
 11 34  1  0
 13 35  1  0
 16 36  1  0
 17 37  1  0
 17 38  1  0
 17 39  1  0
 18 40  1  0
 18 41  1  0
 18 42  1  0
 21 43  1  0
 21 44  1  0
 22 45  1  0
 22 46  1  0
M  END
>  <UniqueID>  (20) 
19

>  <SMILES>  (20) 
Cc1ncccc1CN1CCc2cnc(C(C)C)nc2CC1

>  <Energy>  (20) 
56.18518007265902

>  <Genealogy>  (20) 
Cc1ncccc1CN1CCc2cnc(C(C)C)nc2CC1 (3D coordinates assigned)
Cc1ncccc1CN1CCc2cnc(C(C)C)nc2CC1 (nonaromatic ring conformer: 56.18518007265902 kcal/mol)

>  <smiles>  (20) 
Cc1ncccc1CN1CCc2cnc(C(C)C)nc2CC1

>  <score_type>  (20) 
oracle

>  <origin>  (20) 
adg

>  <m_score__min__energy>  (20) 
-6.9299999999999997

>  <m_primary>  (20) 
energy

$$$$
20:0
     RDKit          3D

 55 57  0  0  0  0  0  0  0  0999 V2000
   -0.3730   23.8530  -28.3780 C   0  0  0  0  0  0  0  0  0  0  0  0
   -1.8550   23.6650  -28.5190 C   0  0  0  0  0  0  0  0  0  0  0  0
   -2.5130   22.6680  -27.7840 C   0  0  0  0  0  0  0  0  0  0  0  0
   -3.8980   22.5120  -27.8940 C   0  0  0  0  0  0  0  0  0  0  0  0
   -4.6370   23.3610  -28.7220 C   0  0  0  0  0  0  0  0  0  0  0  0
   -3.9950   24.3840  -29.4380 C   0  0  0  0  0  0  0  0  0  0  0  0
   -4.7880   25.2820  -30.3500 C   0  0  0  0  0  0  0  0  0  0  0  0
   -6.2490   24.8200  -30.4230 C   0  0  0  0  0  0  0  0  0  0  0  0
   -6.5000   23.8950  -31.6220 C   0  0  0  0  0  0  0  0  0  0  0  0
   -6.8500   22.5340  -31.1870 N   0  0  0  0  0  0  0  0  0  0  0  0
   -7.9590   21.9490  -31.9630 C   0  0  0  0  0  0  0  0  0  0  0  0
   -7.8070   20.4490  -32.1390 C   0  0  0  0  0  0  0  0  0  0  0  0
   -8.8220   19.6170  -31.6280 C   0  0  0  0  0  0  0  0  0  0  0  0
   -8.7160   18.2290  -31.7040 C   0  0  0  0  0  0  0  0  0  0  0  0
   -7.5940   17.6450  -32.2840 C   0  0  0  0  0  0  0  0  0  0  0  0
   -6.5770   18.4480  -32.8010 C   0  0  0  0  0  0  0  0  0  0  0  0
   -6.6690   19.8520  -32.7530 C   0  0  0  0  0  0  0  0  0  0  0  0
   -5.5370   20.6550  -33.3760 C   0  0  0  0  0  0  0  0  0  0  0  0
   -4.6670   21.2660  -32.3440 N   0  0  0  0  0  0  0  0  0  0  0  0
   -4.1230   20.2880  -31.3960 C   0  0  0  0  0  0  0  0  0  0  0  0
   -2.8500   20.8980  -30.8310 C   0  0  0  0  0  0  0  0  0  0  0  0
   -2.3960   21.9070  -31.8750 C   0  0  0  0  0  0  0  0  0  0  0  0
   -3.4920   21.9200  -32.9350 C   0  0  0  0  0  0  0  0  0  0  0  0
   -2.6020   24.5280  -29.3370 C   0  0  0  0  0  0  0  0  0  0  0  0
   -0.1075   23.8867  -27.3110 H   0  0  0  0  0  0  0  0  0  0  0  0
    0.1505   23.0141  -28.8598 H   0  0  0  0  0  0  0  0  0  0  0  0
   -0.0755   24.7961  -28.8598 H   0  0  0  0  0  0  0  0  0  0  0  0
   -1.9377   22.0069  -27.1191 H   0  0  0  0  0  0  0  0  0  0  0  0
   -4.4073   21.7187  -27.3272 H   0  0  0  0  0  0  0  0  0  0  0  0
   -5.7251   23.2275  -28.8131 H   0  0  0  0  0  0  0  0  0  0  0  0
   -4.7529   26.3115  -29.9642 H   0  0  0  0  0  0  0  0  0  0  0  0
   -4.3510   25.2395  -31.3586 H   0  0  0  0  0  0  0  0  0  0  0  0
   -6.4968   24.2781  -29.4984 H   0  0  0  0  0  0  0  0  0  0  0  0
   -6.8819   25.7116  -30.5432 H   0  0  0  0  0  0  0  0  0  0  0  0
   -7.3273   24.3028  -32.2214 H   0  0  0  0  0  0  0  0  0  0  0  0
   -5.5761   23.8411  -32.2166 H   0  0  0  0  0  0  0  0  0  0  0  0
   -7.1070   22.5670  -30.1740 H   0  0  0  0  0  0  0  0  0  0  0  0
   -8.9040   22.1500  -31.4371 H   0  0  0  0  0  0  0  0  0  0  0  0
   -7.9513   22.4087  -32.9623 H   0  0  0  0  0  0  0  0  0  0  0  0
   -9.7105   20.0685  -31.1626 H   0  0  0  0  0  0  0  0  0  0  0  0
   -9.5208   17.5943  -31.3047 H   0  0  0  0  0  0  0  0  0  0  0  0
   -7.5089   16.5495  -32.3349 H   0  0  0  0  0  0  0  0  0  0  0  0
   -5.6910   17.9776  -33.2524 H   0  0  0  0  0  0  0  0  0  0  0  0
   -4.9297   19.9870  -34.0044 H   0  0  0  0  0  0  0  0  0  0  0  0
   -5.9796   21.4645  -33.9749 H   0  0  0  0  0  0  0  0  0  0  0  0
   -5.2040   21.9920  -31.8090 H   0  0  0  0  0  0  0  0  0  0  0  0
   -4.8452   20.0992  -30.5881 H   0  0  0  0  0  0  0  0  0  0  0  0
   -3.9189   19.3262  -31.8892 H   0  0  0  0  0  0  0  0  0  0  0  0
   -3.0540   21.3989  -29.8731 H   0  0  0  0  0  0  0  0  0  0  0  0
   -2.0813   20.1366  -30.6324 H   0  0  0  0  0  0  0  0  0  0  0  0
   -2.2864   22.9041  -31.4235 H   0  0  0  0  0  0  0  0  0  0  0  0
   -1.4187   21.6390  -32.3027 H   0  0  0  0  0  0  0  0  0  0  0  0
   -3.7361   22.9557  -33.2137 H   0  0  0  0  0  0  0  0  0  0  0  0
   -3.1655   21.3944  -33.8445 H   0  0  0  0  0  0  0  0  0  0  0  0
   -2.0924   25.3221  -29.9024 H   0  0  0  0  0  0  0  0  0  0  0  0
  1  2  1  0
  2  3  2  0
  3  4  1  0
  4  5  2  0
  5  6  1  0
  6  7  1  0
  7  8  1  0
  8  9  1  0
  9 10  1  0
 10 11  1  0
 11 12  1  0
 12 13  2  0
 13 14  1  0
 14 15  2  0
 15 16  1  0
 16 17  2  0
 17 18  1  0
 18 19  1  0
 19 20  1  0
 20 21  1  0
 21 22  1  0
 22 23  1  0
  6 24  2  0
 24  2  1  0
 17 12  1  0
 23 19  1  0
  1 25  1  0
  1 26  1  0
  1 27  1  0
  3 28  1  0
  4 29  1  0
  5 30  1  0
  7 31  1  0
  7 32  1  0
  8 33  1  0
  8 34  1  0
  9 35  1  0
  9 36  1  0
 10 37  1  0
 11 38  1  0
 11 39  1  0
 13 40  1  0
 14 41  1  0
 15 42  1  0
 16 43  1  0
 18 44  1  0
 18 45  1  0
 19 46  1  0
 20 47  1  0
 20 48  1  0
 21 49  1  0
 21 50  1  0
 22 51  1  0
 22 52  1  0
 23 53  1  0
 23 54  1  0
 24 55  1  0
M  CHG  1  19   1
M  END
>  <UniqueID>  (21) 
20

>  <SMILES>  (21) 
Cc1cccc(CCCNCc2ccccc2C[NH+]2CCCC2)c1

>  <Energy>  (21) 
57.16981623835301

>  <Genealogy>  (21) 
Cc1cccc(CCCNCc2ccccc2C[NH+]2CCCC2)c1 (protonated)
Cc1cccc(CCCNCc2ccccc2C[NH+]2CCCC2)c1 (3D coordinates assigned)
Cc1cccc(CCCNCc2ccccc2C[NH+]2CCCC2)c1 (nonaromatic ring conformer: 57.16981623835301 kcal/mol)

>  <smiles>  (21) 
Cc1cccc(CCCNCc2ccccc2CN2CCCC2)c1

>  <score_type>  (21) 
oracle

>  <origin>  (21) 
adg

>  <m_score__min__energy>  (21) 
-8.3499999999999996

>  <m_primary>  (21) 
energy

$$$$
21:0
     RDKit          3D

 21 22  0  0  0  0  0  0  0  0999 V2000
   -2.3340   24.3780  -29.0350 C   0  0  0  0  0  0  0  0  0  0  0  0
   -3.1320   24.9190  -30.0830 O   0  0  0  0  0  0  0  0  0  0  0  0
   -4.4640   24.5560  -30.3440 C   0  0  0  0  0  0  0  0  0  0  0  0
   -5.5460   25.2910  -29.8190 C   0  0  0  0  0  0  0  0  0  0  0  0
   -6.8630   24.9110  -30.0900 C   0  0  0  0  0  0  0  0  0  0  0  0
   -7.1240   23.7980  -30.8870 C   0  0  0  0  0  0  0  0  0  0  0  0
   -6.0660   23.0510  -31.4200 C   0  0  0  0  0  0  0  0  0  0  0  0
   -6.3120   21.9280  -32.2220 C   0  0  0  0  0  0  0  0  0  0  0  0
   -5.2770   21.2140  -32.7330 N   0  0  0  0  0  0  0  0  0  0  0  0
   -3.9830   21.5530  -32.4900 C   0  0  0  0  0  0  0  0  0  0  0  0
   -3.6830   22.6630  -31.6970 C   0  0  0  0  0  0  0  0  0  0  0  0
   -4.7270   23.4290  -31.1500 C   0  0  0  0  0  0  0  0  0  0  0  0
   -2.7603   24.6670  -28.0630 H   0  0  0  0  0  0  0  0  0  0  0  0
   -2.3166   23.2811  -29.1162 H   0  0  0  0  0  0  0  0  0  0  0  0
   -1.3087   24.7680  -29.1162 H   0  0  0  0  0  0  0  0  0  0  0  0
   -5.3518   26.1722  -29.1899 H   0  0  0  0  0  0  0  0  0  0  0  0
   -7.6977   25.4931  -29.6723 H   0  0  0  0  0  0  0  0  0  0  0  0
   -8.1632   23.5056  -31.0979 H   0  0  0  0  0  0  0  0  0  0  0  0
   -7.3470   21.6245  -32.4379 H   0  0  0  0  0  0  0  0  0  0  0  0
   -3.1690   20.9507  -32.9197 H   0  0  0  0  0  0  0  0  0  0  0  0
   -2.6355   22.9362  -31.5016 H   0  0  0  0  0  0  0  0  0  0  0  0
  1  2  1  0
  2  3  1  0
  3  4  2  0
  4  5  1  0
  5  6  2  0
  6  7  1  0
  7  8  2  0
  8  9  1  0
  9 10  2  0
 10 11  1  0
 11 12  2  0
 12  3  1  0
 12  7  1  0
  1 13  1  0
  1 14  1  0
  1 15  1  0
  4 16  1  0
  5 17  1  0
  6 18  1  0
  8 19  1  0
 10 20  1  0
 11 21  1  0
M  END
>  <UniqueID>  (22) 
21

>  <SMILES>  (22) 
COc1cccc2cnccc12

>  <Energy>  (22) 
25.794519215516022

>  <Genealogy>  (22) 
COc1cccc2cnccc12 (3D coordinates assigned)
COc1cccc2cnccc12 (optimized conformer: 25.794519215516022 kcal/mol)

>  <smiles>  (22) 
COc1cccc2cnccc12

>  <score_type>  (22) 
oracle

>  <origin>  (22) 
adg

>  <m_score__min__energy>  (22) 
-5.3799999999999999

>  <m_primary>  (22) 
energy

$$$$
22:0
     RDKit          3D

 48 50  0  0  0  0  0  0  0  0999 V2000
   -4.2550   24.9230  -26.3080 C   0  0  0  0  0  0  0  0  0  0  0  0
   -3.2220   24.5200  -27.2700 N   0  0  0  0  0  0  0  0  0  0  0  0
   -1.8420   24.9750  -27.0580 C   0  0  0  0  0  0  0  0  0  0  0  0
   -3.5580   23.6790  -28.4060 C   0  0  0  0  0  0  0  0  0  0  0  0
   -3.1580   22.3250  -28.4500 C   0  0  0  0  0  0  0  0  0  0  0  0
   -3.4730   21.5220  -29.5490 C   0  0  0  0  0  0  0  0  0  0  0  0
   -4.2000   22.0450  -30.6250 C   0  0  0  0  0  0  0  0  0  0  0  0
   -4.5180   21.2200  -31.7600 N   0  0  0  0  0  0  0  0  0  0  0  0
   -5.4430   21.7130  -32.7880 C   0  0  0  0  0  0  0  0  0  0  0  0
   -6.8610   21.4220  -32.3810 C   0  0  0  0  0  0  0  0  0  0  0  0
   -7.5970   20.4260  -33.0450 C   0  0  0  0  0  0  0  0  0  0  0  0
   -8.8980   20.1200  -32.6320 C   0  0  0  0  0  0  0  0  0  0  0  0
   -9.4650   20.7890  -31.5450 C   0  0  0  0  0  0  0  0  0  0  0  0
   -8.7310   21.7690  -30.8680 C   0  0  0  0  0  0  0  0  0  0  0  0
   -7.4330   22.0830  -31.2810 C   0  0  0  0  0  0  0  0  0  0  0  0
   -3.8620   19.9190  -31.9180 C   0  0  0  0  0  0  0  0  0  0  0  0
   -4.8420   18.9160  -32.4630 C   0  0  0  0  0  0  0  0  0  0  0  0
   -4.8880   18.6490  -33.8410 C   0  0  0  0  0  0  0  0  0  0  0  0
   -5.8270   17.7480  -34.3530 C   0  0  0  0  0  0  0  0  0  0  0  0
   -6.7310   17.1150  -33.4940 C   0  0  0  0  0  0  0  0  0  0  0  0
   -6.7020   17.3870  -32.1220 C   0  0  0  0  0  0  0  0  0  0  0  0
   -5.7640   18.2890  -31.6080 C   0  0  0  0  0  0  0  0  0  0  0  0
   -4.6070   23.3840  -30.5920 C   0  0  0  0  0  0  0  0  0  0  0  0
   -4.2890   24.1930  -29.4970 C   0  0  0  0  0  0  0  0  0  0  0  0
   -3.8799   24.7766  -25.2844 H   0  0  0  0  0  0  0  0  0  0  0  0
   -4.5032   25.9839  -26.4594 H   0  0  0  0  0  0  0  0  0  0  0  0
   -5.1560   24.3104  -26.4594 H   0  0  0  0  0  0  0  0  0  0  0  0
   -1.6396   25.0417  -25.9788 H   0  0  0  0  0  0  0  0  0  0  0  0
   -1.1451   24.2591  -27.5182 H   0  0  0  0  0  0  0  0  0  0  0  0
   -1.7076   25.9650  -27.5182 H   0  0  0  0  0  0  0  0  0  0  0  0
   -2.5919   21.8978  -27.6091 H   0  0  0  0  0  0  0  0  0  0  0  0
   -3.1475   20.4715  -29.5690 H   0  0  0  0  0  0  0  0  0  0  0  0
   -5.3126   22.7989  -32.9057 H   0  0  0  0  0  0  0  0  0  0  0  0
   -5.2284   21.2078  -33.7413 H   0  0  0  0  0  0  0  0  0  0  0  0
   -7.1489   19.8855  -33.8918 H   0  0  0  0  0  0  0  0  0  0  0  0
   -9.4760   19.3505  -33.1647 H   0  0  0  0  0  0  0  0  0  0  0  0
  -10.4878   20.5456  -31.2214 H   0  0  0  0  0  0  0  0  0  0  0  0
   -9.1760   22.2932  -30.0094 H   0  0  0  0  0  0  0  0  0  0  0  0
   -6.8573   22.8504  -30.7428 H   0  0  0  0  0  0  0  0  0  0  0  0
   -3.0164   20.0188  -32.6144 H   0  0  0  0  0  0  0  0  0  0  0  0
   -3.4976   19.5751  -30.9387 H   0  0  0  0  0  0  0  0  0  0  0  0
   -4.1828   19.1505  -34.5201 H   0  0  0  0  0  0  0  0  0  0  0  0
   -5.8546   17.5370  -35.4322 H   0  0  0  0  0  0  0  0  0  0  0  0
   -7.4656   16.4025  -33.8975 H   0  0  0  0  0  0  0  0  0  0  0  0
   -7.4163   16.8920  -31.4477 H   0  0  0  0  0  0  0  0  0  0  0  0
   -5.7483   18.5082  -30.5302 H   0  0  0  0  0  0  0  0  0  0  0  0
   -5.1804   23.8021  -31.4325 H   0  0  0  0  0  0  0  0  0  0  0  0
   -4.6132   25.2441  -29.4863 H   0  0  0  0  0  0  0  0  0  0  0  0
  1  2  1  0
  2  3  1  0
  2  4  1  0
  4  5  2  0
  5  6  1  0
  6  7  2  0
  7  8  1  0
  8  9  1  0
  9 10  1  0
 10 11  2  0
 11 12  1  0
 12 13  2  0
 13 14  1  0
 14 15  2  0
  8 16  1  0
 16 17  1  0
 17 18  2  0
 18 19  1  0
 19 20  2  0
 20 21  1  0
 21 22  2  0
  7 23  1  0
 23 24  2  0
 24  4  1  0
 15 10  1  0
 22 17  1  0
  1 25  1  0
  1 26  1  0
  1 27  1  0
  3 28  1  0
  3 29  1  0
  3 30  1  0
  5 31  1  0
  6 32  1  0
  9 33  1  0
  9 34  1  0
 11 35  1  0
 12 36  1  0
 13 37  1  0
 14 38  1  0
 15 39  1  0
 16 40  1  0
 16 41  1  0
 18 42  1  0
 19 43  1  0
 20 44  1  0
 21 45  1  0
 22 46  1  0
 23 47  1  0
 24 48  1  0
M  END
>  <UniqueID>  (23) 
22

>  <SMILES>  (23) 
CN(C)c1ccc(N(Cc2ccccc2)Cc2ccccc2)cc1

>  <Energy>  (23) 
51.97681076558947

>  <Genealogy>  (23) 
CN(C)c1ccc(N(Cc2ccccc2)Cc2ccccc2)cc1 (3D coordinates assigned)
CN(C)c1ccc(N(Cc2ccccc2)Cc2ccccc2)cc1 (optimized conformer: 51.97681076558947 kcal/mol)

>  <smiles>  (23) 
CN(C)c1ccc(N(Cc2ccccc2)Cc2ccccc2)cc1

>  <score_type>  (23) 
oracle

>  <origin>  (23) 
adg

>  <m_score__min__energy>  (23) 
-7.4100000000000001

>  <m_primary>  (23) 
energy

$$$$
23:0
     RDKit          3D

 61 64  0  0  0  0  0  0  0  0999 V2000
    1.4960   19.3490  -32.4580 C   0  0  0  0  0  0  0  0  0  0  0  0
    0.7720   20.5080  -32.8600 O   0  0  0  0  0  0  0  0  0  0  0  0
   -0.5960   20.7070  -32.6270 C   0  0  0  0  0  0  0  0  0  0  0  0
   -1.1630   20.6200  -31.3400 C   0  0  0  0  0  0  0  0  0  0  0  0
   -2.5310   20.8350  -31.1580 C   0  0  0  0  0  0  0  0  0  0  0  0
   -3.3530   21.1470  -32.2520 C   0  0  0  0  0  0  0  0  0  0  0  0
   -4.8070   21.3790  -32.0560 C   0  0  0  0  0  0  0  0  0  0  0  0
   -5.2640   22.5630  -31.4370 C   0  0  0  0  0  0  0  0  0  0  0  0
   -4.1130   23.8180  -30.8370 S   0  0  0  0  0  0  0  0  0  0  0  0
   -4.1450   23.2810  -29.0880 C   0  0  0  0  0  0  0  0  0  0  0  0
   -3.2630   24.1720  -28.2120 C   0  0  0  0  0  0  0  0  0  0  0  0
   -2.0910   24.6550  -28.9780 N   0  0  0  0  0  0  0  0  0  0  0  0
   -1.3190   25.6260  -28.1840 C   0  0  0  0  0  0  0  0  0  0  0  0
   -1.2130   23.5320  -29.3610 C   0  0  0  0  0  0  0  0  0  0  0  0
   -6.5970   22.7830  -31.2790 N   0  0  0  0  0  0  0  0  0  0  0  0
   -7.5330   21.8810  -31.6840 C   0  0  0  0  0  0  0  0  0  0  0  0
   -8.8980   22.1550  -31.4930 C   0  0  0  0  0  0  0  0  0  0  0  0
   -9.8680   21.2440  -31.9150 C   0  0  0  0  0  0  0  0  0  0  0  0
   -9.4860   20.0530  -32.5310 C   0  0  0  0  0  0  0  0  0  0  0  0
   -8.1320   19.7640  -32.7270 C   0  0  0  0  0  0  0  0  0  0  0  0
   -7.1360   20.6700  -32.3000 C   0  0  0  0  0  0  0  0  0  0  0  0
   -5.7550   20.4180  -32.4840 C   0  0  0  0  0  0  0  0  0  0  0  0
   -5.2940   19.1770  -33.1500 C   0  0  0  0  0  0  0  0  0  0  0  0
   -5.5850   18.9560  -34.5050 C   0  0  0  0  0  0  0  0  0  0  0  0
   -5.1400   17.7930  -35.1400 C   0  0  0  0  0  0  0  0  0  0  0  0
   -4.3920   16.8380  -34.4240 C   0  0  0  0  0  0  0  0  0  0  0  0
   -3.9320   15.6480  -35.0080 O   0  0  0  0  0  0  0  0  0  0  0  0
   -2.7140   15.5290  -35.7300 C   0  0  0  0  0  0  0  0  0  0  0  0
   -4.0950   17.0740  -33.0770 C   0  0  0  0  0  0  0  0  0  0  0  0
   -4.5450   18.2330  -32.4410 C   0  0  0  0  0  0  0  0  0  0  0  0
   -2.7900   21.2210  -33.5380 C   0  0  0  0  0  0  0  0  0  0  0  0
   -1.4220   21.0060  -33.7190 C   0  0  0  0  0  0  0  0  0  0  0  0
    1.5273   19.2989  -31.3596 H   0  0  0  0  0  0  0  0  0  0  0  0
    0.9982   18.4507  -32.8520 H   0  0  0  0  0  0  0  0  0  0  0  0
    2.5216   19.4024  -32.8520 H   0  0  0  0  0  0  0  0  0  0  0  0
   -0.5259   20.3819  -30.4755 H   0  0  0  0  0  0  0  0  0  0  0  0
   -2.9669   20.7593  -30.1509 H   0  0  0  0  0  0  0  0  0  0  0  0
   -5.1799   23.3285  -28.7184 H   0  0  0  0  0  0  0  0  0  0  0  0
   -3.7573   22.2529  -29.0354 H   0  0  0  0  0  0  0  0  0  0  0  0
   -3.8505   25.0354  -27.8665 H   0  0  0  0  0  0  0  0  0  0  0  0
   -2.9086   23.5858  -27.3513 H   0  0  0  0  0  0  0  0  0  0  0  0
   -1.4748   25.4301  -27.1128 H   0  0  0  0  0  0  0  0  0  0  0  0
   -0.2498   25.5276  -28.4231 H   0  0  0  0  0  0  0  0  0  0  0  0
   -1.6559   26.6455  -28.4231 H   0  0  0  0  0  0  0  0  0  0  0  0
   -0.8291   23.0410  -28.4546 H   0  0  0  0  0  0  0  0  0  0  0  0
   -1.7853   22.8058  -29.9569 H   0  0  0  0  0  0  0  0  0  0  0  0
   -0.3702   23.9122  -29.9569 H   0  0  0  0  0  0  0  0  0  0  0  0
   -6.9020   23.6730  -30.8240 H   0  0  0  0  0  0  0  0  0  0  0  0
   -9.2042   23.0935  -31.0078 H   0  0  0  0  0  0  0  0  0  0  0  0
  -10.9344   21.4660  -31.7614 H   0  0  0  0  0  0  0  0  0  0  0  0
  -10.2527   19.3380  -32.8641 H   0  0  0  0  0  0  0  0  0  0  0  0
   -7.8402   18.8237  -33.2176 H   0  0  0  0  0  0  0  0  0  0  0  0
   -6.1654   19.7007  -35.0694 H   0  0  0  0  0  0  0  0  0  0  0  0
   -5.3744   17.6232  -36.2012 H   0  0  0  0  0  0  0  0  0  0  0  0
   -1.8752   15.4471  -35.0231 H   0  0  0  0  0  0  0  0  0  0  0  0
   -2.7493   14.6300  -36.3629 H   0  0  0  0  0  0  0  0  0  0  0  0
   -2.5746   16.4178  -36.3629 H   0  0  0  0  0  0  0  0  0  0  0  0
   -3.5012   16.3393  -32.5135 H   0  0  0  0  0  0  0  0  0  0  0  0
   -4.3097   18.4036  -31.3801 H   0  0  0  0  0  0  0  0  0  0  0  0
   -3.4287   21.4489  -34.4041 H   0  0  0  0  0  0  0  0  0  0  0  0
   -0.9888   21.0719  -34.7280 H   0  0  0  0  0  0  0  0  0  0  0  0
  1  2  1  0
  2  3  1  0
  3  4  2  0
  4  5  1  0
  5  6  2  0
  6  7  1  0
  7  8  2  0
  8  9  1  0
  9 10  1  0
 10 11  1  0
 11 12  1  0
 12 13  1  0
 12 14  1  0
  8 15  1  0
 15 16  2  0
 16 17  1  0
 17 18  2  0
 18 19  1  0
 19 20  2  0
 20 21  1  0
 21 22  2  0
 22 23  1  0
 23 24  2  0
 24 25  1  0
 25 26  2  0
 26 27  1  0
 27 28  1  0
 26 29  1  0
 29 30  2  0
  6 31  1  0
 31 32  2  0
 32  3  1  0
 22  7  1  0
 30 23  1  0
 21 16  1  0
  1 33  1  0
  1 34  1  0
  1 35  1  0
  4 36  1  0
  5 37  1  0
 10 38  1  0
 10 39  1  0
 11 40  1  0
 11 41  1  0
 13 42  1  0
 13 43  1  0
 13 44  1  0
 14 45  1  0
 14 46  1  0
 14 47  1  0
 15 48  1  0
 17 49  1  0
 18 50  1  0
 19 51  1  0
 20 52  1  0
 24 53  1  0
 25 54  1  0
 28 55  1  0
 28 56  1  0
 28 57  1  0
 29 58  1  0
 30 59  1  0
 31 60  1  0
 32 61  1  0
M  CHG  1  15   1
M  END
>  <UniqueID>  (24) 
23

>  <SMILES>  (24) 
COc1ccc(-c2c(SCCN(C)C)[nH+]c3ccccc3c2-c2ccc(OC)cc2)cc1

>  <Energy>  (24) 
77.51160484953274

>  <Genealogy>  (24) 
COc1ccc(-c2c(SCCN(C)C)[nH+]c3ccccc3c2-c2ccc(OC)cc2)cc1 (protonated)
COc1ccc(-c2c(SCCN(C)C)[nH+]c3ccccc3c2-c2ccc(OC)cc2)cc1 (3D coordinates assigned)
COc1ccc(-c2c(SCCN(C)C)[nH+]c3ccccc3c2-c2ccc(OC)cc2)cc1 (optimized conformer: 77.51160484953274 kcal/mol)

>  <smiles>  (24) 
COc1ccc(-c2c(SCCN(C)C)nc3ccccc3c2-c2ccc(OC)cc2)cc1

>  <score_type>  (24) 
oracle

>  <origin>  (24) 
adg

>  <m_score__min__energy>  (24) 
-9.2799999999999994

>  <m_primary>  (24) 
energy

$$$$
24:0
     RDKit          3D

 41 44  0  0  0  0  0  0  0  0999 V2000
   -1.9140   24.9220  -28.2000 C   0  0  0  0  0  0  0  0  0  0  0  0
   -2.6590   25.2970  -29.3430 O   0  0  0  0  0  0  0  0  0  0  0  0
   -3.7630   24.5760  -29.7690 C   0  0  0  0  0  0  0  0  0  0  0  0
   -5.0650   24.9510  -29.5120 C   0  0  0  0  0  0  0  0  0  0  0  0
   -6.1050   24.1490  -29.9900 C   0  0  0  0  0  0  0  0  0  0  0  0
   -5.8550   22.9930  -30.7110 C   0  0  0  0  0  0  0  0  0  0  0  0
   -6.9320   22.1490  -31.2210 C   0  0  0  0  0  0  0  0  0  0  0  0
   -8.1970   22.6130  -31.5010 C   0  0  0  0  0  0  0  0  0  0  0  0
   -9.1660   21.7380  -31.9790 C   0  0  0  0  0  0  0  0  0  0  0  0
   -8.8570   20.3910  -32.1760 C   0  0  0  0  0  0  0  0  0  0  0  0
   -9.5340   19.3160  -32.5880 N   0  0  0  0  0  0  0  0  0  0  0  0
   -8.7890   18.2310  -32.5860 N   0  0  0  0  0  0  0  0  0  0  0  0
   -7.5400   18.5590  -32.1570 C   0  0  0  0  0  0  0  0  0  0  0  0
   -6.4940   17.5810  -32.0140 C   0  0  0  0  0  0  0  0  0  0  0  0
   -6.3490   17.0540  -30.8710 O   0  0  0  0  0  0  0  0  0  0  0  0
   -5.5810   17.1220  -33.0460 C   0  0  0  0  0  0  0  0  0  0  0  0
   -4.9170   15.9000  -32.9220 C   0  0  0  0  0  0  0  0  0  0  0  0
   -4.0490   15.4120  -33.8680 C   0  0  0  0  0  0  0  0  0  0  0  0
   -3.8470   16.2070  -34.9970 C   0  0  0  0  0  0  0  0  0  0  0  0
   -4.4860   17.4160  -35.1510 C   0  0  0  0  0  0  0  0  0  0  0  0
   -5.3660   17.9020  -34.1810 C   0  0  0  0  0  0  0  0  0  0  0  0
   -7.5750   19.9050  -31.8980 C   0  0  0  0  0  0  0  0  0  0  0  0
   -6.6710   20.8180  -31.4290 C   0  0  0  0  0  0  0  0  0  0  0  0
   -4.5410   22.6470  -30.9480 C   0  0  0  0  0  0  0  0  0  0  0  0
   -3.4800   23.4130  -30.4940 C   0  0  0  0  0  0  0  0  0  0  0  0
   -2.2040   23.0400  -30.7460 F   0  0  0  0  0  0  0  0  0  0  0  0
   -2.4693   25.2015  -27.2925 H   0  0  0  0  0  0  0  0  0  0  0  0
   -1.7506   23.8342  -28.2095 H   0  0  0  0  0  0  0  0  0  0  0  0
   -0.9430   25.4387  -28.2095 H   0  0  0  0  0  0  0  0  0  0  0  0
   -5.2813   25.8657  -28.9406 H   0  0  0  0  0  0  0  0  0  0  0  0
   -7.1459   24.4425  -29.7890 H   0  0  0  0  0  0  0  0  0  0  0  0
   -8.4411   23.6744  -31.3469 H   0  0  0  0  0  0  0  0  0  0  0  0
  -10.1777   22.1077  -32.2023 H   0  0  0  0  0  0  0  0  0  0  0  0
  -10.5470   19.3640  -32.8730 H   0  0  0  0  0  0  0  0  0  0  0  0
   -5.0984   15.2970  -32.0201 H   0  0  0  0  0  0  0  0  0  0  0  0
   -3.5397   14.4451  -33.7423 H   0  0  0  0  0  0  0  0  0  0  0  0
   -3.1604   15.8588  -35.7828 H   0  0  0  0  0  0  0  0  0  0  0  0
   -4.3000   18.0120  -36.0566 H   0  0  0  0  0  0  0  0  0  0  0  0
   -5.8732   18.8697  -34.3089 H   0  0  0  0  0  0  0  0  0  0  0  0
   -5.6570   20.4577  -31.2011 H   0  0  0  0  0  0  0  0  0  0  0  0
   -4.3282   21.7304  -31.5177 H   0  0  0  0  0  0  0  0  0  0  0  0
  1  2  1  0
  2  3  1  0
  3  4  2  0
  4  5  1  0
  5  6  2  0
  6  7  1  0
  7  8  2  0
  8  9  1  0
  9 10  2  0
 10 11  1  0
 11 12  1  0
 12 13  2  0
 13 14  1  0
 14 15  2  0
 14 16  1  0
 16 17  2  0
 17 18  1  0
 18 19  2  0
 19 20  1  0
 20 21  2  0
 13 22  1  0
 22 23  2  0
  6 24  1  0
 24 25  2  0
 25 26  1  0
 25  3  1  0
 23  7  1  0
 22 10  1  0
 21 16  1  0
  1 27  1  0
  1 28  1  0
  1 29  1  0
  4 30  1  0
  5 31  1  0
  8 32  1  0
  9 33  1  0
 11 34  1  0
 17 35  1  0
 18 36  1  0
 19 37  1  0
 20 38  1  0
 21 39  1  0
 23 40  1  0
 24 41  1  0
M  END
>  <smiles>  (25) 
COc1ccc(-c2ccc3[nH]nc(C(=O)c4ccccc4)c3c2)cc1F

>  <score_type>  (25) 
oracle

>  <origin>  (25) 
adg

>  <m_score__min__energy>  (25) 
-9.5999999999999996

>  <m_primary>  (25) 
energy

$$$$
25:0
     RDKit          3D

 50 52  0  0  0  0  0  0  0  0999 V2000
    0.8906   23.7190  -28.1109 H   0  0  0  0  0  0  0  0  0  0  0  0
   -0.0560   23.4080  -28.5770 C   0  0  0  0  0  0  0  0  0  0  0  0
   -0.2780   22.0580  -28.8780 C   0  0  0  0  0  0  0  0  0  0  0  0
    0.6610   21.0590  -28.5770 O   0  0  0  0  0  0  0  0  0  0  0  0
    0.3280   19.7410  -28.1530 C   0  0  0  0  0  0  0  0  0  0  0  0
    0.3179   19.7010  -27.0538 H   0  0  0  0  0  0  0  0  0  0  0  0
   -0.6663   19.4719  -28.5388 H   0  0  0  0  0  0  0  0  0  0  0  0
    1.0752   19.0319  -28.5388 H   0  0  0  0  0  0  0  0  0  0  0  0
   -1.4750   21.6770  -29.4960 C   0  0  0  0  0  0  0  0  0  0  0  0
   -1.6499   20.6121  -29.7093 H   0  0  0  0  0  0  0  0  0  0  0  0
   -2.4680   22.6220  -29.8550 C   0  0  0  0  0  0  0  0  0  0  0  0
   -3.7040   22.3160  -30.5310 C   0  0  0  0  0  0  0  0  0  0  0  0
   -4.0150   21.1720  -31.0930 N   0  0  0  0  0  0  0  0  0  0  0  0
   -3.7170   20.5180  -32.3660 C   0  0  0  0  0  0  0  0  0  0  0  0
   -2.7676   20.9124  -32.7574 H   0  0  0  0  0  0  0  0  0  0  0  0
   -3.6467   19.4344  -32.1905 H   0  0  0  0  0  0  0  0  0  0  0  0
   -4.8280   20.7700  -33.4000 C   0  0  0  0  0  0  0  0  0  0  0  0
   -5.2164   21.7891  -33.2564 H   0  0  0  0  0  0  0  0  0  0  0  0
   -4.3858   20.6370  -34.3984 H   0  0  0  0  0  0  0  0  0  0  0  0
   -6.0000   19.7750  -33.2770 C   0  0  0  0  0  0  0  0  0  0  0  0
   -6.8227   20.1303  -33.9149 H   0  0  0  0  0  0  0  0  0  0  0  0
   -5.6146   18.7924  -33.5869 H   0  0  0  0  0  0  0  0  0  0  0  0
   -6.5180   19.6140  -31.8960 N   0  0  0  0  0  0  0  0  0  0  0  0
   -5.8700   20.0740  -31.2160 H   0  0  0  0  0  0  0  0  0  0  0  0
   -7.8630   20.2010  -31.7400 C   0  0  0  0  0  0  0  0  0  0  0  0
   -8.0967   20.3030  -30.6700 H   0  0  0  0  0  0  0  0  0  0  0  0
   -7.8882   21.1919  -32.2169 H   0  0  0  0  0  0  0  0  0  0  0  0
   -8.6067   19.5456  -32.2169 H   0  0  0  0  0  0  0  0  0  0  0  0
   -6.5640   18.1820  -31.5510 C   0  0  0  0  0  0  0  0  0  0  0  0
   -6.5677   18.0684  -30.4569 H   0  0  0  0  0  0  0  0  0  0  0  0
   -7.4770   17.7332  -31.9693 H   0  0  0  0  0  0  0  0  0  0  0  0
   -5.6817   17.6755  -31.9693 H   0  0  0  0  0  0  0  0  0  0  0  0
   -4.6680   23.3480  -30.6610 C   0  0  0  0  0  0  0  0  0  0  0  0
   -4.3650   24.6500  -30.2520 C   0  0  0  0  0  0  0  0  0  0  0  0
   -3.1650   24.9310  -29.6990 N   0  0  0  0  0  0  0  0  0  0  0  0
   -2.2290   23.9760  -29.4810 C   0  0  0  0  0  0  0  0  0  0  0  0
   -1.0310   24.3540  -28.8670 C   0  0  0  0  0  0  0  0  0  0  0  0
   -0.8591   25.4100  -28.6113 H   0  0  0  0  0  0  0  0  0  0  0  0
   -5.3550   25.7510  -30.4940 C   0  0  0  0  0  0  0  0  0  0  0  0
   -5.3397   26.0231  -31.5597 H   0  0  0  0  0  0  0  0  0  0  0  0
   -5.0792   26.6180  -29.8758 H   0  0  0  0  0  0  0  0  0  0  0  0
   -6.7710   25.2990  -30.1090 C   0  0  0  0  0  0  0  0  0  0  0  0
   -7.4899   26.0056  -30.5493 H   0  0  0  0  0  0  0  0  0  0  0  0
   -6.8081   25.2810  -29.0098 H   0  0  0  0  0  0  0  0  0  0  0  0
   -7.1370   23.8720  -30.5890 C   0  0  0  0  0  0  0  0  0  0  0  0
   -8.0040   23.9481  -31.2617 H   0  0  0  0  0  0  0  0  0  0  0  0
   -7.3436   23.2820  -29.6839 H   0  0  0  0  0  0  0  0  0  0  0  0
   -6.0090   23.1390  -31.3400 C   0  0  0  0  0  0  0  0  0  0  0  0
   -5.9538   23.5248  -32.3687 H   0  0  0  0  0  0  0  0  0  0  0  0
   -6.2342   22.0623  -31.3397 H   0  0  0  0  0  0  0  0  0  0  0  0
  1  2  1  0
  2  3  2  0
  3  4  1  0
  4  5  1  0
  5  6  1  0
  5  7  1  0
  5  8  1  0
  3  9  1  0
  9 10  1  0
  9 11  2  0
 11 12  1  0
 12 13  2  0
 13 14  1  0
 14 15  1  0
 14 16  1  0
 14 17  1  0
 17 18  1  0
 17 19  1  0
 17 20  1  0
 20 21  1  0
 20 22  1  0
 20 23  1  0
 23 24  1  0
 23 25  1  0
 25 26  1  0
 25 27  1  0
 25 28  1  0
 23 29  1  0
 29 30  1  0
 29 31  1  0
 29 32  1  0
 12 33  1  0
 33 34  2  0
 34 35  1  0
 35 36  1  0
 36 37  2  0
 37 38  1  0
 34 39  1  0
 39 40  1  0
 39 41  1  0
 39 42  1  0
 42 43  1  0
 42 44  1  0
 42 45  1  0
 45 46  1  0
 45 47  1  0
 45 48  1  0
 48 49  1  0
 48 50  1  0
 37  2  1  0
 36 11  1  0
 48 33  1  0
M  CHG  2  23   1  35  -1
M  END
>  <UniqueID>  (26) 
24

>  <SMILES>  (26) 
COc1ccc2[n-]c3c(/c(=N/CCC[NH+](C)C)c2c1)CCCC3

>  <Energy>  (26) 
75.48202357020122

>  <Genealogy>  (26) 
COc1ccc2[n-]c3c(c(=NCCC[NH+](C)C)c2c1)CCCC3 (protonated)
COc1ccc2[n-]c3c(/c(=N/CCC[NH+](C)C)c2c1)CCCC3 (cis-trans isomerization)
COc1ccc2[n-]c3c(/c(=N/CCC[NH+](C)C)c2c1)CCCC3 (3D coordinates assigned)
COc1ccc2[n-]c3c(/c(=N/CCC[NH+](C)C)c2c1)CCCC3 (nonaromatic ring conformer: 75.48202357020122 kcal/mol)

>  <smiles>  (26) 
COc1ccc2[nH]c3c(c(=NCCCN(C)C)c2c1)CCCC3

>  <score_type>  (26) 
oracle

>  <origin>  (26) 
adg

>  <m_score__min__energy>  (26) 
-8.4100000000000001

>  <m_primary>  (26) 
energy

$$$$
26:0
     RDKit          3D

 41 44  0  0  0  0  0  0  0  0999 V2000
  -10.0965   19.6277  -32.4089 H   0  0  0  0  0  0  0  0  0  0  0  0
   -9.2330   20.2920  -32.2570 C   0  0  0  0  0  0  0  0  0  0  0  0
   -9.4030   21.5180  -31.6160 C   0  0  0  0  0  0  0  0  0  0  0  0
  -10.4005   21.8165  -31.2611 H   0  0  0  0  0  0  0  0  0  0  0  0
   -8.3120   22.3700  -31.4220 C   0  0  0  0  0  0  0  0  0  0  0  0
   -8.4585   23.3363  -30.9172 H   0  0  0  0  0  0  0  0  0  0  0  0
   -7.0230   22.0020  -31.8680 C   0  0  0  0  0  0  0  0  0  0  0  0
   -5.8880   22.8410  -31.6850 C   0  0  0  0  0  0  0  0  0  0  0  0
   -5.9610   24.1760  -30.9770 C   0  0  0  0  0  0  0  0  0  0  0  0
   -6.7642   24.1444  -30.2261 H   0  0  0  0  0  0  0  0  0  0  0  0
   -6.1669   24.9619  -31.7186 H   0  0  0  0  0  0  0  0  0  0  0  0
   -4.6620   24.4790  -30.2970 C   0  0  0  0  0  0  0  0  0  0  0  0
   -3.8610   25.2950  -30.8300 O   0  0  0  0  0  0  0  0  0  0  0  0
   -4.3800   23.8890  -29.0210 N   0  0  0  0  0  0  0  0  0  0  0  0
   -3.5890   22.8860  -28.7690 C   0  0  0  0  0  0  0  0  0  0  0  0
   -2.0600   22.7330  -29.4730 S   0  0  0  0  0  0  0  0  0  0  0  0
   -1.7340   21.3160  -28.6320 C   0  0  0  0  0  0  0  0  0  0  0  0
   -0.5880   20.5270  -28.6710 C   0  0  0  0  0  0  0  0  0  0  0  0
    0.2564   20.7954  -29.3229 H   0  0  0  0  0  0  0  0  0  0  0  0
   -0.5320   19.3800  -27.8600 C   0  0  0  0  0  0  0  0  0  0  0  0
    0.6260   18.5910  -27.9070 O   0  0  0  0  0  0  0  0  0  0  0  0
    0.6280   17.1680  -27.9530 C   0  0  0  0  0  0  0  0  0  0  0  0
    0.6286   16.7680  -26.9283 H   0  0  0  0  0  0  0  0  0  0  0  0
   -0.2697   16.8170  -28.4831 H   0  0  0  0  0  0  0  0  0  0  0  0
    1.5266   16.8195  -28.4831 H   0  0  0  0  0  0  0  0  0  0  0  0
   -1.6350   19.0590  -27.0250 C   0  0  0  0  0  0  0  0  0  0  0  0
   -1.5939   18.1627  -26.3887 H   0  0  0  0  0  0  0  0  0  0  0  0
   -2.7790   19.8760  -27.0040 C   0  0  0  0  0  0  0  0  0  0  0  0
   -3.6319   19.6277  -26.3552 H   0  0  0  0  0  0  0  0  0  0  0  0
   -2.8140   21.0070  -27.8200 C   0  0  0  0  0  0  0  0  0  0  0  0
   -3.8510   21.8820  -27.8900 N   0  0  0  0  0  0  0  0  0  0  0  0
   -4.7070   21.7890  -27.3010 H   0  0  0  0  0  0  0  0  0  0  0  0
   -4.6300   22.3980  -32.1340 C   0  0  0  0  0  0  0  0  0  0  0  0
   -3.7448   23.0324  -31.9795 H   0  0  0  0  0  0  0  0  0  0  0  0
   -4.4900   21.1660  -32.7720 C   0  0  0  0  0  0  0  0  0  0  0  0
   -3.4999   20.8413  -33.1244 H   0  0  0  0  0  0  0  0  0  0  0  0
   -5.5980   20.3450  -32.9650 C   0  0  0  0  0  0  0  0  0  0  0  0
   -5.4790   19.3756  -33.4711 H   0  0  0  0  0  0  0  0  0  0  0  0
   -6.8640   20.7470  -32.5180 C   0  0  0  0  0  0  0  0  0  0  0  0
   -7.9710   19.9060  -32.7060 C   0  0  0  0  0  0  0  0  0  0  0  0
   -7.8425   18.9369  -33.2104 H   0  0  0  0  0  0  0  0  0  0  0  0
  1  2  1  0
  2  3  2  0
  3  4  1  0
  3  5  1  0
  5  6  1  0
  5  7  2  0
  7  8  1  0
  8  9  1  0
  9 10  1  0
  9 11  1  0
  9 12  1  0
 12 13  2  0
 12 14  1  0
 14 15  2  0
 15 16  1  0
 16 17  1  0
 17 18  2  0
 18 19  1  0
 18 20  1  0
 20 21  1  0
 21 22  1  0
 22 23  1  0
 22 24  1  0
 22 25  1  0
 20 26  2  0
 26 27  1  0
 26 28  1  0
 28 29  1  0
 28 30  2  0
 30 31  1  0
 31 32  1  0
  8 33  2  0
 33 34  1  0
 33 35  1  0
 35 36  1  0
 35 37  2  0
 37 38  1  0
 37 39  1  0
 39 40  2  0
 40 41  1  0
 40  2  1  0
 39  7  1  0
 31 15  1  0
 30 17  1  0
M  END
>  <UniqueID>  (27) 
25

>  <SMILES>  (27) 
COc1ccc2[nH]/c(=N\C(=O)Cc3cccc4ccccc34)sc2c1

>  <Energy>  (27) 
88.32129019422936

>  <Genealogy>  (27) 
COc1ccc2[nH]/c(=N\C(=O)Cc3cccc4ccccc34)sc2c1 (cis-trans isomerization)
COc1ccc2[nH]/c(=N\C(=O)Cc3cccc4ccccc34)sc2c1 (3D coordinates assigned)
COc1ccc2[nH]/c(=N\C(=O)Cc3cccc4ccccc34)sc2c1 (optimized conformer: 88.32129019422936 kcal/mol)

>  <smiles>  (27) 
COc1ccc2[nH]c(=NC(=O)Cc3cccc4ccccc34)sc2c1

>  <score_type>  (27) 
oracle

>  <origin>  (27) 
adg

>  <m_score__min__energy>  (27) 
-9.7400000000000002

>  <m_primary>  (27) 
energy

$$$$
27:0
     RDKit          3D

 46 47  0  0  0  0  0  0  0  0999 V2000
   -3.8090   20.2030  -31.5490 C   0  0  0  0  0  0  0  0  0  0  0  0
   -3.0970   20.5160  -30.3560 O   0  0  0  0  0  0  0  0  0  0  0  0
   -2.6810   21.8060  -29.9970 C   0  0  0  0  0  0  0  0  0  0  0  0
   -1.5050   22.0440  -29.2640 C   0  0  0  0  0  0  0  0  0  0  0  0
   -1.1370   23.3480  -28.9240 C   0  0  0  0  0  0  0  0  0  0  0  0
   -1.9320   24.4410  -29.3230 C   0  0  0  0  0  0  0  0  0  0  0  0
   -1.6160   25.7600  -28.9610 O   0  0  0  0  0  0  0  0  0  0  0  0
   -1.0070   26.1370  -27.7300 C   0  0  0  0  0  0  0  0  0  0  0  0
   -3.0860   24.2040  -30.0930 C   0  0  0  0  0  0  0  0  0  0  0  0
   -3.9230   25.2800  -30.5330 N   0  0  0  0  0  0  0  0  0  0  0  0
   -5.3530   25.2510  -30.6300 C   0  0  0  0  0  0  0  0  0  0  0  0
   -6.0170   26.1450  -30.0430 O   0  0  0  0  0  0  0  0  0  0  0  0
   -6.0930   24.1490  -31.3460 C   0  0  0  0  0  0  0  0  0  0  0  0
   -6.8400   23.2230  -30.3740 C   0  0  0  0  0  0  0  0  0  0  0  0
   -7.3820   22.0420  -31.0870 N   0  0  0  0  0  0  0  0  0  0  0  0
   -8.8500   22.1290  -31.2630 C   0  0  0  0  0  0  0  0  0  0  0  0
   -9.3830   21.1000  -32.2860 C   0  0  0  0  0  0  0  0  0  0  0  0
   -8.4390   19.9920  -32.5250 N   0  0  0  0  0  0  0  0  0  0  0  0
   -8.3350   19.0900  -31.3640 C   0  0  0  0  0  0  0  0  0  0  0  0
   -7.1150   20.4740  -32.9830 C   0  0  0  0  0  0  0  0  0  0  0  0
   -6.7220   21.8430  -32.3880 C   0  0  0  0  0  0  0  0  0  0  0  0
   -3.4700   22.8910  -30.3920 C   0  0  0  0  0  0  0  0  0  0  0  0
   -4.7876   19.7728  -31.2898 H   0  0  0  0  0  0  0  0  0  0  0  0
   -3.9561   21.1194  -32.1394 H   0  0  0  0  0  0  0  0  0  0  0  0
   -3.2332   19.4750  -32.1394 H   0  0  0  0  0  0  0  0  0  0  0  0
   -0.8714   21.1990  -28.9567 H   0  0  0  0  0  0  0  0  0  0  0  0
   -0.2207   23.5228  -28.3410 H   0  0  0  0  0  0  0  0  0  0  0  0
   -1.6124   25.7622  -26.8915 H   0  0  0  0  0  0  0  0  0  0  0  0
    0.0036   25.7063  -27.6739 H   0  0  0  0  0  0  0  0  0  0  0  0
   -0.9419   27.2336  -27.6739 H   0  0  0  0  0  0  0  0  0  0  0  0
   -6.8218   24.6013  -32.0347 H   0  0  0  0  0  0  0  0  0  0  0  0
   -5.3524   23.5423  -31.8877 H   0  0  0  0  0  0  0  0  0  0  0  0
   -6.1449   22.8847  -29.5915 H   0  0  0  0  0  0  0  0  0  0  0  0
   -7.6762   23.7805  -29.9269 H   0  0  0  0  0  0  0  0  0  0  0  0
   -9.3337   21.9451  -30.2923 H   0  0  0  0  0  0  0  0  0  0  0  0
   -9.0829   23.1337  -31.6456 H   0  0  0  0  0  0  0  0  0  0  0  0
  -10.3267   20.6821  -31.9055 H   0  0  0  0  0  0  0  0  0  0  0  0
   -9.5263   21.6258  -33.2415 H   0  0  0  0  0  0  0  0  0  0  0  0
   -8.4027   19.6772  -30.4363 H   0  0  0  0  0  0  0  0  0  0  0  0
   -9.1546   18.3570  -31.3946 H   0  0  0  0  0  0  0  0  0  0  0  0
   -7.3701   18.5627  -31.3946 H   0  0  0  0  0  0  0  0  0  0  0  0
   -6.3545   19.7352  -32.6902 H   0  0  0  0  0  0  0  0  0  0  0  0
   -7.1744   20.5990  -34.0743 H   0  0  0  0  0  0  0  0  0  0  0  0
   -5.6312   21.8797  -32.2511 H   0  0  0  0  0  0  0  0  0  0  0  0
   -7.0418   22.6384  -33.0773 H   0  0  0  0  0  0  0  0  0  0  0  0
   -4.4039   22.7107  -30.9445 H   0  0  0  0  0  0  0  0  0  0  0  0
  1  2  1  0
  2  3  1  0
  3  4  2  0
  4  5  1  0
  5  6  2  0
  6  7  1  0
  7  8  1  0
  6  9  1  0
  9 10  1  0
 10 11  1  0
 11 12  2  0
 11 13  1  0
 13 14  1  0
 14 15  1  0
 15 16  1  0
 16 17  1  0
 17 18  1  0
 18 19  1  0
 18 20  1  0
 20 21  1  0
  9 22  2  0
 22  3  1  0
 21 15  1  0
  1 23  1  0
  1 24  1  0
  1 25  1  0
  4 26  1  0
  5 27  1  0
  8 28  1  0
  8 29  1  0
  8 30  1  0
 13 31  1  0
 13 32  1  0
 14 33  1  0
 14 34  1  0
 16 35  1  0
 16 36  1  0
 17 37  1  0
 17 38  1  0
 19 39  1  0
 19 40  1  0
 19 41  1  0
 20 42  1  0
 20 43  1  0
 21 44  1  0
 21 45  1  0
 22 46  1  0
M  CHG  1  10  -1
M  END
>  <UniqueID>  (28) 
26

>  <SMILES>  (28) 
COc1ccc(OC)c([N-]C(=O)CCN2CCN(C)CC2)c1

>  <Energy>  (28) 
58.067593072678285

>  <Genealogy>  (28) 
COc1ccc(OC)c([N-]C(=O)CCN2CCN(C)CC2)c1 (protonated)
COc1ccc(OC)c([N-]C(=O)CCN2CCN(C)CC2)c1 (3D coordinates assigned)
COc1ccc(OC)c([N-]C(=O)CCN2CCN(C)CC2)c1 (nonaromatic ring conformer: 58.067593072678285 kcal/mol)

>  <smiles>  (28) 
COc1ccc(OC)c(NC(=O)CCN2CCN(C)CC2)c1

>  <score_type>  (28) 
oracle

>  <origin>  (28) 
adg

>  <m_score__min__energy>  (28) 
-9.3399999999999999

>  <m_primary>  (28) 
energy

$$$$
28:0
     RDKit          3D

 55 56  0  0  0  0  0  0  0  0999 V2000
   -9.1440   18.6020  -32.0710 C   0  0  0  0  0  0  0  0  0  0  0  0
   -9.0730   19.8550  -31.2000 C   0  0  0  0  0  0  0  0  0  0  0  0
   -9.4820   21.1220  -31.9640 C   0  0  0  0  0  0  0  0  0  0  0  0
   -8.1810   22.4130  -31.9420 S   0  0  0  0  0  0  0  0  0  0  0  0
   -6.7250   21.2990  -31.8700 C   0  0  0  0  0  0  0  0  0  0  0  0
   -6.6350   20.4200  -33.1290 C   0  0  0  0  0  0  0  0  0  0  0  0
   -5.7080   19.1980  -32.9810 C   0  0  0  0  0  0  0  0  0  0  0  0
   -4.4970   19.1980  -33.9370 C   0  0  0  0  0  0  0  0  0  0  0  0
   -3.1580   19.3120  -33.1910 C   0  0  0  0  0  0  0  0  0  0  0  0
   -2.0380   19.3890  -34.1430 N   0  0  0  0  0  0  0  0  0  0  0  0
   -0.7350   19.2950  -33.4640 C   0  0  0  0  0  0  0  0  0  0  0  0
   -0.3570   20.6220  -32.7760 C   0  0  0  0  0  0  0  0  0  0  0  0
   -0.4520   20.5380  -31.3080 N   0  0  0  0  0  0  0  0  0  0  0  0
   -1.8330   20.3270  -30.8420 C   0  0  0  0  0  0  0  0  0  0  0  0
   -1.9640   20.7320  -29.3700 C   0  0  0  0  0  0  0  0  0  0  0  0
   -1.8620   22.2280  -29.2240 C   0  0  0  0  0  0  0  0  0  0  0  0
   -0.7470   22.8050  -28.5820 C   0  0  0  0  0  0  0  0  0  0  0  0
   -0.6160   24.2040  -28.4860 C   0  0  0  0  0  0  0  0  0  0  0  0
   -1.5910   25.0510  -29.0400 C   0  0  0  0  0  0  0  0  0  0  0  0
   -1.4570   26.4320  -28.9490 O   0  0  0  0  0  0  0  0  0  0  0  0
   -2.6900   24.4810  -29.6880 C   0  0  0  0  0  0  0  0  0  0  0  0
   -3.6870   25.1960  -30.2740 N   0  0  0  0  0  0  0  0  0  0  0  0
   -4.6010   24.3670  -30.8300 C   0  0  0  0  0  0  0  0  0  0  0  0
   -5.6240   24.7860  -31.4350 O   0  0  0  0  0  0  0  0  0  0  0  0
   -4.2260   22.7320  -30.6270 S   0  0  0  0  0  0  0  0  0  0  0  0
   -2.8150   23.0970  -29.7780 C   0  0  0  0  0  0  0  0  0  0  0  0
   -9.1945   17.7109  -31.4280 H   0  0  0  0  0  0  0  0  0  0  0  0
  -10.0410   18.6472  -32.7061 H   0  0  0  0  0  0  0  0  0  0  0  0
   -8.2476   18.5456  -32.7061 H   0  0  0  0  0  0  0  0  0  0  0  0
   -9.7481   19.7269  -30.3410 H   0  0  0  0  0  0  0  0  0  0  0  0
   -8.0291   19.9803  -30.8767 H   0  0  0  0  0  0  0  0  0  0  0  0
   -9.6906   20.8505  -33.0094 H   0  0  0  0  0  0  0  0  0  0  0  0
  -10.3706   21.5376  -31.4663 H   0  0  0  0  0  0  0  0  0  0  0  0
   -5.8116   21.9068  -31.7906 H   0  0  0  0  0  0  0  0  0  0  0  0
   -6.8313   20.6427  -30.9936 H   0  0  0  0  0  0  0  0  0  0  0  0
   -7.6456   20.0591  -33.3708 H   0  0  0  0  0  0  0  0  0  0  0  0
   -6.2056   21.0483  -33.9232 H   0  0  0  0  0  0  0  0  0  0  0  0
   -5.3309   19.1752  -31.9479 H   0  0  0  0  0  0  0  0  0  0  0  0
   -6.3103   18.3139  -33.2369 H   0  0  0  0  0  0  0  0  0  0  0  0
   -4.5016   18.2603  -34.5121 H   0  0  0  0  0  0  0  0  0  0  0  0
   -4.5895   20.0757  -34.5935 H   0  0  0  0  0  0  0  0  0  0  0  0
   -3.1669   20.2195  -32.5695 H   0  0  0  0  0  0  0  0  0  0  0  0
   -3.0266   18.4198  -32.5611 H   0  0  0  0  0  0  0  0  0  0  0  0
   -2.0970   18.5630  -34.7840 H   0  0  0  0  0  0  0  0  0  0  0  0
   -0.7845   18.5006  -32.7047 H   0  0  0  0  0  0  0  0  0  0  0  0
    0.0315   19.0685  -34.2198 H   0  0  0  0  0  0  0  0  0  0  0  0
    0.6767   20.8802  -33.0493 H   0  0  0  0  0  0  0  0  0  0  0  0
   -1.0665   21.3910  -33.1156 H   0  0  0  0  0  0  0  0  0  0  0  0
    0.1550   19.7590  -30.9570 H   0  0  0  0  0  0  0  0  0  0  0  0
   -2.5182   20.9372  -31.4488 H   0  0  0  0  0  0  0  0  0  0  0  0
   -2.0869   19.2616  -30.9445 H   0  0  0  0  0  0  0  0  0  0  0  0
   -2.9393   20.3965  -28.9875 H   0  0  0  0  0  0  0  0  0  0  0  0
   -1.1506   20.2621  -28.7977 H   0  0  0  0  0  0  0  0  0  0  0  0
    0.0291   22.1552  -28.1514 H   0  0  0  0  0  0  0  0  0  0  0  0
    0.2559   24.6368  -27.9736 H   0  0  0  0  0  0  0  0  0  0  0  0
  1  2  1  0
  2  3  1  0
  3  4  1  0
  4  5  1  0
  5  6  1  0
  6  7  1  0
  7  8  1  0
  8  9  1  0
  9 10  1  0
 10 11  1  0
 11 12  1  0
 12 13  1  0
 13 14  1  0
 14 15  1  0
 15 16  1  0
 16 17  2  0
 17 18  1  0
 18 19  2  0
 19 20  1  0
 19 21  1  0
 21 22  1  0
 22 23  1  0
 23 24  2  0
 23 25  1  0
 25 26  1  0
 26 16  1  0
 26 21  2  0
  1 27  1  0
  1 28  1  0
  1 29  1  0
  2 30  1  0
  2 31  1  0
  3 32  1  0
  3 33  1  0
  5 34  1  0
  5 35  1  0
  6 36  1  0
  6 37  1  0
  7 38  1  0
  7 39  1  0
  8 40  1  0
  8 41  1  0
  9 42  1  0
  9 43  1  0
 10 44  1  0
 11 45  1  0
 11 46  1  0
 12 47  1  0
 12 48  1  0
 13 49  1  0
 14 50  1  0
 14 51  1  0
 15 52  1  0
 15 53  1  0
 17 54  1  0
 18 55  1  0
M  CHG  2  20  -1  22  -1
M  END
>  <UniqueID>  (29) 
27

>  <SMILES>  (29) 
CCCSCCCCCNCCNCCc1ccc([O-])c2[n-]c(=O)sc12

>  <Energy>  (29) 
78.07869015502322

>  <Genealogy>  (29) 
CCCSCCCCCNCCNCCc1ccc([O-])c2[n-]c(=O)sc12 (protonated)
CCCSCCCCCNCCNCCc1ccc([O-])c2[n-]c(=O)sc12 (3D coordinates assigned)
CCCSCCCCCNCCNCCc1ccc([O-])c2[n-]c(=O)sc12 (optimized conformer: 78.07869015502322 kcal/mol)

>  <smiles>  (29) 
CCCSCCCCCNCCNCCc1ccc(O)c2[nH]c(=O)sc12

>  <score_type>  (29) 
oracle

>  <origin>  (29) 
adg

>  <m_score__min__energy>  (29) 
-11.51

>  <m_primary>  (29) 
energy

$$$$
29:0
     RDKit          3D

 48 50  0  0  0  0  0  0  0  0999 V2000
   -6.1170   25.6360  -29.5960 C   0  0  0  0  0  0  0  0  0  0  0  0
   -6.3670   24.3590  -30.3330 C   0  0  0  0  0  0  0  0  0  0  0  0
   -7.5740   23.8980  -30.5760 O   0  0  0  0  0  0  0  0  0  0  0  0
   -7.4500   22.7810  -31.2460 C   0  0  0  0  0  0  0  0  0  0  0  0
   -8.4910   21.9880  -31.7140 C   0  0  0  0  0  0  0  0  0  0  0  0
   -8.1720   20.8280  -32.4280 C   0  0  0  0  0  0  0  0  0  0  0  0
   -6.8280   20.4720  -32.6440 C   0  0  0  0  0  0  0  0  0  0  0  0
   -5.7680   21.2690  -32.1450 C   0  0  0  0  0  0  0  0  0  0  0  0
   -4.4050   20.8150  -32.3230 N   0  0  0  0  0  0  0  0  0  0  0  0
   -4.3400   19.4720  -32.9260 C   0  0  0  0  0  0  0  0  0  0  0  0
   -3.0090   19.2270  -33.6570 C   0  0  0  0  0  0  0  0  0  0  0  0
   -2.0980   20.3820  -33.5150 N   0  0  0  0  0  0  0  0  0  0  0  0
   -1.4290   20.3340  -32.2040 C   0  0  0  0  0  0  0  0  0  0  0  0
   -1.0790   20.3890  -34.5810 C   0  0  0  0  0  0  0  0  0  0  0  0
   -6.1220   22.4590  -31.4570 C   0  0  0  0  0  0  0  0  0  0  0  0
   -5.4020   23.4940  -30.8510 C   0  0  0  0  0  0  0  0  0  0  0  0
   -3.9520   23.7530  -30.8500 C   0  0  0  0  0  0  0  0  0  0  0  0
   -3.2140   23.0480  -31.5860 O   0  0  0  0  0  0  0  0  0  0  0  0
   -3.3630   24.8660  -30.1600 N   0  0  0  0  0  0  0  0  0  0  0  0
   -2.6060   24.9010  -28.9380 C   0  0  0  0  0  0  0  0  0  0  0  0
   -1.2670   25.3310  -28.8770 C   0  0  0  0  0  0  0  0  0  0  0  0
   -0.5920   25.3660  -27.6530 C   0  0  0  0  0  0  0  0  0  0  0  0
   -1.2460   24.9850  -26.4790 C   0  0  0  0  0  0  0  0  0  0  0  0
   -0.3220   25.0400  -24.8070 Br  0  0  0  0  0  0  0  0  0  0  0  0
   -2.5800   24.5730  -26.5280 C   0  0  0  0  0  0  0  0  0  0  0  0
   -3.2560   24.5370  -27.7510 C   0  0  0  0  0  0  0  0  0  0  0  0
   -6.1539   25.4475  -28.5129 H   0  0  0  0  0  0  0  0  0  0  0  0
   -5.1252   26.0273  -29.8665 H   0  0  0  0  0  0  0  0  0  0  0  0
   -6.8880   26.3725  -29.8665 H   0  0  0  0  0  0  0  0  0  0  0  0
   -9.5390   22.2654  -31.5278 H   0  0  0  0  0  0  0  0  0  0  0  0
   -8.9767   20.1904  -32.8229 H   0  0  0  0  0  0  0  0  0  0  0  0
   -6.5959   19.5582  -33.2106 H   0  0  0  0  0  0  0  0  0  0  0  0
   -3.8660   20.8150  -31.4360 H   0  0  0  0  0  0  0  0  0  0  0  0
   -3.9180   21.4850  -32.9620 H   0  0  0  0  0  0  0  0  0  0  0  0
   -4.4506   18.7207  -32.1302 H   0  0  0  0  0  0  0  0  0  0  0  0
   -5.1506   19.3943  -33.6655 H   0  0  0  0  0  0  0  0  0  0  0  0
   -2.5256   18.3350  -33.2320 H   0  0  0  0  0  0  0  0  0  0  0  0
   -3.2218   19.0820  -34.7264 H   0  0  0  0  0  0  0  0  0  0  0  0
   -2.1833   20.3881  -31.4052 H   0  0  0  0  0  0  0  0  0  0  0  0
   -0.8662   19.3932  -32.1137 H   0  0  0  0  0  0  0  0  0  0  0  0
   -0.7377   21.1849  -32.1137 H   0  0  0  0  0  0  0  0  0  0  0  0
   -0.0760   20.3959  -34.1294 H   0  0  0  0  0  0  0  0  0  0  0  0
   -1.1943   19.4900  -35.2044 H   0  0  0  0  0  0  0  0  0  0  0  0
   -1.2066   21.2863  -35.2044 H   0  0  0  0  0  0  0  0  0  0  0  0
   -0.7492   25.6410  -29.7967 H   0  0  0  0  0  0  0  0  0  0  0  0
    0.4571   25.6945  -27.6145 H   0  0  0  0  0  0  0  0  0  0  0  0
   -3.0984   24.2769  -25.6041 H   0  0  0  0  0  0  0  0  0  0  0  0
   -4.3088   24.2198  -27.7820 H   0  0  0  0  0  0  0  0  0  0  0  0
  1  2  1  0
  2  3  1  0
  3  4  1  0
  4  5  2  0
  5  6  1  0
  6  7  2  0
  7  8  1  0
  8  9  1  0
  9 10  1  0
 10 11  1  0
 11 12  1  0
 12 13  1  0
 12 14  1  0
  8 15  2  0
 15 16  1  0
 16 17  1  0
 17 18  2  0
 17 19  1  0
 19 20  1  0
 20 21  2  0
 21 22  1  0
 22 23  2  0
 23 24  1  0
 23 25  1  0
 25 26  2  0
 16  2  2  0
 26 20  1  0
 15  4  1  0
  1 27  1  0
  1 28  1  0
  1 29  1  0
  5 30  1  0
  6 31  1  0
  7 32  1  0
  9 33  1  0
  9 34  1  0
 10 35  1  0
 10 36  1  0
 11 37  1  0
 11 38  1  0
 13 39  1  0
 13 40  1  0
 13 41  1  0
 14 42  1  0
 14 43  1  0
 14 44  1  0
 21 45  1  0
 22 46  1  0
 25 47  1  0
 26 48  1  0
M  CHG  2   9   1  19  -1
M  END
>  <UniqueID>  (30) 
28

>  <SMILES>  (30) 
Cc1oc2cccc([NH2+]CCN(C)C)c2c1C(=O)[N-]c1ccc(Br)cc1

>  <Energy>  (30) 
93.89747601417933

>  <Genealogy>  (30) 
Cc1oc2cccc([NH2+]CCN(C)C)c2c1C(=O)[N-]c1ccc(Br)cc1 (protonated)
Cc1oc2cccc([NH2+]CCN(C)C)c2c1C(=O)[N-]c1ccc(Br)cc1 (3D coordinates assigned)
Cc1oc2cccc([NH2+]CCN(C)C)c2c1C(=O)[N-]c1ccc(Br)cc1 (optimized conformer: 93.89747601417933 kcal/mol)

>  <smiles>  (30) 
Cc1oc2cccc(NCCN(C)C)c2c1C(=O)Nc1ccc(Br)cc1

>  <score_type>  (30) 
oracle

>  <origin>  (30) 
adg

>  <m_score__min__energy>  (30) 
-8.5399999999999991

>  <m_primary>  (30) 
energy

$$$$
30:0
     RDKit          3D

 39 41  0  0  0  0  0  0  0  0999 V2000
   -4.9990   17.0420  -33.4370 C   0  0  0  0  0  0  0  0  0  0  0  0
   -6.0850   17.9440  -33.0700 N   0  0  0  0  0  0  0  0  0  0  0  0
   -7.3810   17.6910  -33.2220 N   0  0  0  0  0  0  0  0  0  0  0  0
   -8.1360   18.6770  -32.7400 N   0  0  0  0  0  0  0  0  0  0  0  0
   -7.2650   19.5840  -32.2600 C   0  0  0  0  0  0  0  0  0  0  0  0
   -7.5280   20.7940  -31.6350 C   0  0  0  0  0  0  0  0  0  0  0  0
   -6.4280   21.5760  -31.2050 C   0  0  0  0  0  0  0  0  0  0  0  0
   -6.7090   22.8970  -30.5880 C   0  0  0  0  0  0  0  0  0  0  0  0
   -7.5090   22.9610  -29.6180 O   0  0  0  0  0  0  0  0  0  0  0  0
   -6.0550   24.0990  -31.0190 N   0  0  0  0  0  0  0  0  0  0  0  0
   -5.5170   25.0090  -30.2590 C   0  0  0  0  0  0  0  0  0  0  0  0
   -6.1610   25.3530  -29.0320 N   0  0  0  0  0  0  0  0  0  0  0  0
   -4.3210   25.7020  -30.6370 N   0  0  0  0  0  0  0  0  0  0  0  0
   -5.0910   21.0870  -31.3910 C   0  0  0  0  0  0  0  0  0  0  0  0
   -3.9560   21.8000  -30.8720 N   0  0  0  0  0  0  0  0  0  0  0  0
   -3.8260   22.1560  -29.4700 C   0  0  0  0  0  0  0  0  0  0  0  0
   -2.4920   22.8760  -29.3590 C   0  0  0  0  0  0  0  0  0  0  0  0
   -1.6940   22.4690  -30.5950 C   0  0  0  0  0  0  0  0  0  0  0  0
   -2.7170   21.9790  -31.6130 C   0  0  0  0  0  0  0  0  0  0  0  0
   -4.8800   19.8450  -32.0360 C   0  0  0  0  0  0  0  0  0  0  0  0
   -5.9970   19.1350  -32.4590 C   0  0  0  0  0  0  0  0  0  0  0  0
   -4.5253   16.6485  -32.5255 H   0  0  0  0  0  0  0  0  0  0  0  0
   -5.4002   16.2077  -34.0311 H   0  0  0  0  0  0  0  0  0  0  0  0
   -4.2525   17.5895  -34.0311 H   0  0  0  0  0  0  0  0  0  0  0  0
   -7.7670   16.8240  -33.6570 H   0  0  0  0  0  0  0  0  0  0  0  0
   -8.5614   21.1366  -31.4777 H   0  0  0  0  0  0  0  0  0  0  0  0
   -7.0350   24.8610  -28.7360 H   0  0  0  0  0  0  0  0  0  0  0  0
   -5.7600   26.0870  -28.4090 H   0  0  0  0  0  0  0  0  0  0  0  0
   -3.9390   25.6630  -31.6060 H   0  0  0  0  0  0  0  0  0  0  0  0
   -3.8650   26.3570  -29.9630 H   0  0  0  0  0  0  0  0  0  0  0  0
   -4.6482   22.8194  -29.1634 H   0  0  0  0  0  0  0  0  0  0  0  0
   -3.8693   21.2716  -28.8174 H   0  0  0  0  0  0  0  0  0  0  0  0
   -2.6450   23.9652  -29.3437 H   0  0  0  0  0  0  0  0  0  0  0  0
   -1.9645   22.6092  -28.4313 H   0  0  0  0  0  0  0  0  0  0  0  0
   -1.1408   23.3320  -30.9941 H   0  0  0  0  0  0  0  0  0  0  0  0
   -0.9552   21.6890  -30.3588 H   0  0  0  0  0  0  0  0  0  0  0  0
   -2.8515   22.7244  -32.4106 H   0  0  0  0  0  0  0  0  0  0  0  0
   -2.3940   21.0446  -32.0953 H   0  0  0  0  0  0  0  0  0  0  0  0
   -3.8644   19.4543  -32.1972 H   0  0  0  0  0  0  0  0  0  0  0  0
  1  2  1  0
  2  3  1  0
  3  4  2  0
  4  5  1  0
  5  6  2  0
  6  7  1  0
  7  8  1  0
  8  9  2  0
  8 10  1  0
 10 11  2  3
 11 12  1  0
 11 13  1  0
  7 14  2  0
 14 15  1  0
 15 16  1  0
 16 17  1  0
 17 18  1  0
 18 19  1  0
 14 20  1  0
 20 21  2  0
 21  2  1  0
 21  5  1  0
 19 15  1  0
  1 22  1  0
  1 23  1  0
  1 24  1  0
  3 25  1  0
  6 26  1  0
 12 27  1  0
 12 28  1  0
 13 29  1  0
 13 30  1  0
 16 31  1  0
 16 32  1  0
 17 33  1  0
 17 34  1  0
 18 35  1  0
 18 36  1  0
 19 37  1  0
 19 38  1  0
 20 39  1  0
M  CHG  1   3   1
M  END
>  <UniqueID>  (31) 
29

>  <SMILES>  (31) 
Cn1[nH+]nc2cc(C(=O)N=C(N)N)c(N3CCCC3)cc21

>  <Energy>  (31) 
95.54258997971239

>  <Genealogy>  (31) 
Cn1[nH+]nc2cc(C(=O)N=C(N)N)c(N3CCCC3)cc21 (protonated)
Cn1[nH+]nc2cc(C(=O)N=C(N)N)c(N3CCCC3)cc21 (3D coordinates assigned)
Cn1[nH+]nc2cc(C(=O)N=C(N)N)c(N3CCCC3)cc21 (nonaromatic ring conformer: 95.54258997971239 kcal/mol)

>  <smiles>  (31) 
Cn1nnc2cc(C(=O)N=C(N)N)c(N3CCCC3)cc21

>  <score_type>  (31) 
oracle

>  <origin>  (31) 
adg

>  <m_score__min__energy>  (31) 
-8.5199999999999996

>  <m_primary>  (31) 
energy

$$$$
31:0
     RDKit          3D

 35 35  0  0  0  0  0  0  0  0999 V2000
   -5.0410   20.4370  -33.1180 C   0  0  0  0  0  0  0  0  0  0  0  0
   -6.4380   20.9640  -32.7780 C   0  0  0  0  0  0  0  0  0  0  0  0
   -6.4570   22.4200  -32.5400 N   0  0  0  0  0  0  0  0  0  0  0  0
   -7.5610   22.8930  -31.6790 C   0  0  0  0  0  0  0  0  0  0  0  0
   -7.1050   23.8100  -30.5280 C   0  0  0  0  0  0  0  0  0  0  0  0
   -5.8370   24.5000  -30.8410 N   0  0  0  0  0  0  0  0  0  0  0  0
   -5.7260   25.7710  -30.1090 C   0  0  0  0  0  0  0  0  0  0  0  0
   -4.4860   23.4730  -30.4230 S   0  0  0  0  0  0  0  0  0  0  0  0
   -4.9850   22.0900  -30.1100 O   0  0  0  0  0  0  0  0  0  0  0  0
   -3.5460   23.3720  -31.5930 O   0  0  0  0  0  0  0  0  0  0  0  0
   -3.6130   24.1070  -29.0260 C   0  0  0  0  0  0  0  0  0  0  0  0
   -2.2830   24.5320  -29.1590 C   0  0  0  0  0  0  0  0  0  0  0  0
   -1.5870   25.0210  -28.0500 C   0  0  0  0  0  0  0  0  0  0  0  0
   -2.2150   25.0880  -26.8020 C   0  0  0  0  0  0  0  0  0  0  0  0
   -1.2640   25.7560  -25.2870 Br  0  0  0  0  0  0  0  0  0  0  0  0
   -3.5410   24.6640  -26.6640 C   0  0  0  0  0  0  0  0  0  0  0  0
   -4.2380   24.1750  -27.7740 C   0  0  0  0  0  0  0  0  0  0  0  0
   -4.4911   20.2295  -32.1882 H   0  0  0  0  0  0  0  0  0  0  0  0
   -5.1312   19.5111  -33.7050 H   0  0  0  0  0  0  0  0  0  0  0  0
   -4.4972   21.1918  -33.7050 H   0  0  0  0  0  0  0  0  0  0  0  0
   -7.1133   20.7359  -33.6158 H   0  0  0  0  0  0  0  0  0  0  0  0
   -6.7607   20.4720  -31.8486 H   0  0  0  0  0  0  0  0  0  0  0  0
   -5.5430   22.7010  -32.1130 H   0  0  0  0  0  0  0  0  0  0  0  0
   -6.5240   22.9120  -33.4620 H   0  0  0  0  0  0  0  0  0  0  0  0
   -8.2738   23.4504  -32.3045 H   0  0  0  0  0  0  0  0  0  0  0  0
   -8.0114   22.0015  -31.2182 H   0  0  0  0  0  0  0  0  0  0  0  0
   -7.8842   24.5644  -30.3447 H   0  0  0  0  0  0  0  0  0  0  0  0
   -6.9411   23.1839  -29.6386 H   0  0  0  0  0  0  0  0  0  0  0  0
   -5.7432   25.5737  -29.0270 H   0  0  0  0  0  0  0  0  0  0  0  0
   -4.7811   26.2668  -30.3763 H   0  0  0  0  0  0  0  0  0  0  0  0
   -6.5706   26.4231  -30.3763 H   0  0  0  0  0  0  0  0  0  0  0  0
   -1.7862   24.4803  -30.1391 H   0  0  0  0  0  0  0  0  0  0  0  0
   -0.5441   25.3536  -28.1588 H   0  0  0  0  0  0  0  0  0  0  0  0
   -4.0355   24.7151  -25.6828 H   0  0  0  0  0  0  0  0  0  0  0  0
   -5.2807   23.8426  -27.6634 H   0  0  0  0  0  0  0  0  0  0  0  0
  1  2  1  0
  2  3  1  0
  3  4  1  0
  4  5  1  0
  5  6  1  0
  6  7  1  0
  6  8  1  0
  8  9  2  0
  8 10  2  0
  8 11  1  0
 11 12  2  0
 12 13  1  0
 13 14  2  0
 14 15  1  0
 14 16  1  0
 16 17  2  0
 17 11  1  0
  1 18  1  0
  1 19  1  0
  1 20  1  0
  2 21  1  0
  2 22  1  0
  3 23  1  0
  3 24  1  0
  4 25  1  0
  4 26  1  0
  5 27  1  0
  5 28  1  0
  7 29  1  0
  7 30  1  0
  7 31  1  0
 12 32  1  0
 13 33  1  0
 16 34  1  0
 17 35  1  0
M  CHG  1   3   1
M  END
>  <UniqueID>  (32) 
30

>  <SMILES>  (32) 
CC[NH2+]CCN(C)S(=O)(=O)c1ccc(Br)cc1

>  <Energy>  (32) 
29.721015227665994

>  <Genealogy>  (32) 
CC[NH2+]CCN(C)S(=O)(=O)c1ccc(Br)cc1 (protonated)
CC[NH2+]CCN(C)S(=O)(=O)c1ccc(Br)cc1 (3D coordinates assigned)
CC[NH2+]CCN(C)S(=O)(=O)c1ccc(Br)cc1 (optimized conformer: 29.721015227665994 kcal/mol)

>  <smiles>  (32) 
CCNCCN(C)S(=O)(=O)c1ccc(Br)cc1

>  <score_type>  (32) 
oracle

>  <origin>  (32) 
adg

>  <m_score__min__energy>  (32) 
-6.1500000000000004

>  <m_primary>  (32) 
energy

$$$$
32:0
     RDKit          3D

 36 37  0  0  0  0  0  0  0  0999 V2000
   -8.7785   23.1624  -31.4909 H   0  0  0  0  0  0  0  0  0  0  0  0
   -9.1910   22.2440  -31.9340 C   0  0  0  0  0  0  0  0  0  0  0  0
  -10.1978   22.2512  -32.3771 H   0  0  0  0  0  0  0  0  0  0  0  0
   -8.4700   21.1210  -31.9340 C   0  0  0  0  0  0  0  0  0  0  0  0
   -7.1360   21.1220  -31.2850 C   0  0  0  0  0  0  0  0  0  0  0  0
   -7.0836   20.7915  -30.2371 H   0  0  0  0  0  0  0  0  0  0  0  0
   -5.9890   21.4930  -31.8720 C   0  0  0  0  0  0  0  0  0  0  0  0
   -5.8572   21.2478  -32.9362 H   0  0  0  0  0  0  0  0  0  0  0  0
   -4.8860   22.2100  -31.1890 C   0  0  0  0  0  0  0  0  0  0  0  0
   -4.9110   23.6150  -31.0730 C   0  0  0  0  0  0  0  0  0  0  0  0
   -6.0790   24.4030  -31.6250 C   0  0  0  0  0  0  0  0  0  0  0  0
   -6.6756   24.8055  -30.7931 H   0  0  0  0  0  0  0  0  0  0  0  0
   -5.7029   25.2327  -32.2416 H   0  0  0  0  0  0  0  0  0  0  0  0
   -6.7075   23.7436  -32.2416 H   0  0  0  0  0  0  0  0  0  0  0  0
   -3.8290   24.2880  -30.4690 C   0  0  0  0  0  0  0  0  0  0  0  0
   -3.8570   25.6790  -30.3960 O   0  0  0  0  0  0  0  0  0  0  0  0
   -2.7280   23.5640  -29.9480 C   0  0  0  0  0  0  0  0  0  0  0  0
   -1.6360   24.2140  -29.3100 C   0  0  0  0  0  0  0  0  0  0  0  0
   -1.6340   25.6130  -29.1720 O   0  0  0  0  0  0  0  0  0  0  0  0
   -0.9990   26.3300  -28.1180 C   0  0  0  0  0  0  0  0  0  0  0  0
   -1.3444   25.9400  -27.1492 H   0  0  0  0  0  0  0  0  0  0  0  0
    0.0913   26.2064  -28.1954 H   0  0  0  0  0  0  0  0  0  0  0  0
   -1.2534   27.3974  -28.1954 H   0  0  0  0  0  0  0  0  0  0  0  0
   -0.5640   23.4420  -28.8180 C   0  0  0  0  0  0  0  0  0  0  0  0
    0.2828   23.9402  -28.3233 H   0  0  0  0  0  0  0  0  0  0  0  0
   -0.5650   22.0580  -28.9510 C   0  0  0  0  0  0  0  0  0  0  0  0
    0.2795   21.4705  -28.5617 H   0  0  0  0  0  0  0  0  0  0  0  0
   -1.6270   21.4130  -29.5730 C   0  0  0  0  0  0  0  0  0  0  0  0
   -1.6171   20.3176  -29.6726 H   0  0  0  0  0  0  0  0  0  0  0  0
   -2.7140   22.1490  -30.0760 C   0  0  0  0  0  0  0  0  0  0  0  0
   -3.7810   21.4860  -30.7080 C   0  0  0  0  0  0  0  0  0  0  0  0
   -3.7420   20.1030  -30.8740 O   0  0  0  0  0  0  0  0  0  0  0  0
   -9.0500   19.8720  -32.5450 C   0  0  0  0  0  0  0  0  0  0  0  0
   -9.3683   19.1865  -31.7457 H   0  0  0  0  0  0  0  0  0  0  0  0
   -9.9172   20.1370  -33.1677 H   0  0  0  0  0  0  0  0  0  0  0  0
   -8.2880   19.3805  -33.1677 H   0  0  0  0  0  0  0  0  0  0  0  0
  1  2  1  0
  2  3  1  0
  2  4  2  0
  4  5  1  0
  5  6  1  0
  5  7  2  0
  7  8  1  0
  7  9  1  0
  9 10  2  0
 10 11  1  0
 11 12  1  0
 11 13  1  0
 11 14  1  0
 10 15  1  0
 15 16  1  0
 15 17  2  0
 17 18  1  0
 18 19  1  0
 19 20  1  0
 20 21  1  0
 20 22  1  0
 20 23  1  0
 18 24  2  0
 24 25  1  0
 24 26  1  0
 26 27  1  0
 26 28  2  0
 28 29  1  0
 28 30  1  0
 30 31  2  0
 31 32  1  0
  4 33  1  0
 33 34  1  0
 33 35  1  0
 33 36  1  0
 31  9  1  0
 30 17  1  0
M  CHG  2  16  -1  32  -1
M  END
>  <UniqueID>  (33) 
31

>  <SMILES>  (33) 
C=C(C)/C=C\c1c(C)c([O-])c2c(OC)cccc2c1[O-]

>  <Energy>  (33) 
53.41945548749084

>  <Genealogy>  (33) 
C=C(C)C=Cc1c(C)c([O-])c2c(OC)cccc2c1[O-] (protonated)
C=C(C)/C=C\c1c(C)c([O-])c2c(OC)cccc2c1[O-] (cis-trans isomerization)
C=C(C)/C=C\c1c(C)c([O-])c2c(OC)cccc2c1[O-] (3D coordinates assigned)
C=C(C)/C=C\c1c(C)c([O-])c2c(OC)cccc2c1[O-] (optimized conformer: 53.41945548749084 kcal/mol)

>  <smiles>  (33) 
C=C(C)C=Cc1c(C)c(O)c2c(OC)cccc2c1O

>  <score_type>  (33) 
oracle

>  <origin>  (33) 
adg

>  <m_score__min__energy>  (33) 
-10.68

>  <m_primary>  (33) 
energy

$$$$
33:0
     RDKit          3D

 49 52  0  0  0  0  0  0  0  0999 V2000
   -9.1350   19.2910  -31.9780 C   0  0  0  0  0  0  0  0  0  0  0  0
   -7.7230   19.0110  -32.3990 C   0  0  0  0  0  0  0  0  0  0  0  0
   -7.1220   19.7740  -33.4100 C   0  0  0  0  0  0  0  0  0  0  0  0
   -5.8190   19.4910  -33.8280 C   0  0  0  0  0  0  0  0  0  0  0  0
   -5.1040   18.4310  -33.2500 C   0  0  0  0  0  0  0  0  0  0  0  0
   -3.7580   18.1490  -33.6700 N   0  0  0  0  0  0  0  0  0  0  0  0
   -2.6580   18.9270  -33.5450 C   0  0  0  0  0  0  0  0  0  0  0  0
   -2.6060   20.1640  -32.8120 N   0  0  0  0  0  0  0  0  0  0  0  0
   -2.8280   21.4490  -33.4830 C   0  0  0  0  0  0  0  0  0  0  0  0
   -4.1370   22.0640  -32.9870 C   0  0  0  0  0  0  0  0  0  0  0  0
   -4.1850   22.0370  -31.5180 N   0  0  0  0  0  0  0  0  0  0  0  0
   -4.7850   23.1320  -30.8010 C   0  0  0  0  0  0  0  0  0  0  0  0
   -5.8640   23.8460  -31.3510 C   0  0  0  0  0  0  0  0  0  0  0  0
   -6.4420   24.9070  -30.6460 C   0  0  0  0  0  0  0  0  0  0  0  0
   -5.9500   25.2610  -29.3880 C   0  0  0  0  0  0  0  0  0  0  0  0
   -4.8810   24.5560  -28.8310 C   0  0  0  0  0  0  0  0  0  0  0  0
   -4.3000   23.4950  -29.5330 C   0  0  0  0  0  0  0  0  0  0  0  0
   -3.9250   20.7600  -30.8400 C   0  0  0  0  0  0  0  0  0  0  0  0
   -2.6150   20.1570  -31.3480 C   0  0  0  0  0  0  0  0  0  0  0  0
   -1.5880   18.3960  -34.1720 N   0  0  0  0  0  0  0  0  0  0  0  0
   -2.0080   17.2610  -34.7070 N   0  0  0  0  0  0  0  0  0  0  0  0
   -3.3140   17.1150  -34.4170 C   0  0  0  0  0  0  0  0  0  0  0  0
   -4.1480   15.9660  -34.8950 C   0  0  0  0  0  0  0  0  0  0  0  0
   -5.7110   17.6570  -32.2490 C   0  0  0  0  0  0  0  0  0  0  0  0
   -7.0150   17.9400  -31.8310 C   0  0  0  0  0  0  0  0  0  0  0  0
   -9.1946   19.3028  -30.8797 H   0  0  0  0  0  0  0  0  0  0  0  0
   -9.4483   20.2688  -32.3728 H   0  0  0  0  0  0  0  0  0  0  0  0
   -9.7977   18.5068  -32.3728 H   0  0  0  0  0  0  0  0  0  0  0  0
   -7.6791   20.5998  -33.8766 H   0  0  0  0  0  0  0  0  0  0  0  0
   -5.3515   20.1022  -34.6140 H   0  0  0  0  0  0  0  0  0  0  0  0
   -1.9942   22.1297  -33.2565 H   0  0  0  0  0  0  0  0  0  0  0  0
   -2.8866   21.2896  -34.5698 H   0  0  0  0  0  0  0  0  0  0  0  0
   -4.2036   23.1058  -33.3338 H   0  0  0  0  0  0  0  0  0  0  0  0
   -4.9811   21.4816  -33.3849 H   0  0  0  0  0  0  0  0  0  0  0  0
   -6.2557   23.5689  -32.3408 H   0  0  0  0  0  0  0  0  0  0  0  0
   -7.2847   25.4629  -31.0829 H   0  0  0  0  0  0  0  0  0  0  0  0
   -6.4050   26.0961  -28.8352 H   0  0  0  0  0  0  0  0  0  0  0  0
   -4.4956   24.8354  -27.8393 H   0  0  0  0  0  0  0  0  0  0  0  0
   -3.4588   22.9416  -29.0901 H   0  0  0  0  0  0  0  0  0  0  0  0
   -3.8512   20.9313  -29.7559 H   0  0  0  0  0  0  0  0  0  0  0  0
   -4.7498   20.0636  -31.0517 H   0  0  0  0  0  0  0  0  0  0  0  0
   -1.7688   20.7520  -30.9739 H   0  0  0  0  0  0  0  0  0  0  0  0
   -2.5254   19.1217  -30.9872 H   0  0  0  0  0  0  0  0  0  0  0  0
   -1.4130   16.6150  -35.2710 H   0  0  0  0  0  0  0  0  0  0  0  0
   -4.5465   15.4170  -34.0291 H   0  0  0  0  0  0  0  0  0  0  0  0
   -4.9818   16.3463  -35.5034 H   0  0  0  0  0  0  0  0  0  0  0  0
   -3.5281   15.2911  -35.5034 H   0  0  0  0  0  0  0  0  0  0  0  0
   -5.1582   16.8236  -31.7910 H   0  0  0  0  0  0  0  0  0  0  0  0
   -7.4879   17.3211  -31.0542 H   0  0  0  0  0  0  0  0  0  0  0  0
  1  2  1  0
  2  3  2  0
  3  4  1  0
  4  5  2  0
  5  6  1  0
  6  7  1  0
  7  8  1  0
  8  9  1  0
  9 10  1  0
 10 11  1  0
 11 12  1  0
 12 13  2  0
 13 14  1  0
 14 15  2  0
 15 16  1  0
 16 17  2  0
 11 18  1  0
 18 19  1  0
  7 20  2  0
 20 21  1  0
 21 22  2  0
 22 23  1  0
  5 24  1  0
 24 25  2  0
 25  2  1  0
 22  6  1  0
 19  8  1  0
 17 12  1  0
  1 26  1  0
  1 27  1  0
  1 28  1  0
  3 29  1  0
  4 30  1  0
  9 31  1  0
  9 32  1  0
 10 33  1  0
 10 34  1  0
 13 35  1  0
 14 36  1  0
 15 37  1  0
 16 38  1  0
 17 39  1  0
 18 40  1  0
 18 41  1  0
 19 42  1  0
 19 43  1  0
 21 44  1  0
 23 45  1  0
 23 46  1  0
 23 47  1  0
 24 48  1  0
 25 49  1  0
M  CHG  1  21   1
M  END
>  <UniqueID>  (34) 
32

>  <SMILES>  (34) 
Cc1ccc(-n2c(N3CCN(c4ccccc4)CC3)n[nH+]c2C)cc1

>  <Energy>  (34) 
97.40106086759474

>  <Genealogy>  (34) 
Cc1ccc(-n2c(N3CCN(c4ccccc4)CC3)n[nH+]c2C)cc1 (protonated)
Cc1ccc(-n2c(N3CCN(c4ccccc4)CC3)n[nH+]c2C)cc1 (3D coordinates assigned)
Cc1ccc(-n2c(N3CCN(c4ccccc4)CC3)n[nH+]c2C)cc1 (nonaromatic ring conformer: 97.40106086759474 kcal/mol)

>  <smiles>  (34) 
Cc1ccc(-n2c(C)nnc2N2CCN(c3ccccc3)CC2)cc1

>  <score_type>  (34) 
oracle

>  <origin>  (34) 
adg

>  <m_score__min__energy>  (34) 
-7.4500000000000002

>  <m_primary>  (34) 
energy

$$$$
34:0
     RDKit          3D

 46 48  0  0  0  0  0  0  0  0999 V2000
   -5.7830   16.7610  -32.8320 C   0  0  0  0  0  0  0  0  0  0  0  0
   -4.9210   17.7830  -32.3430 O   0  0  0  0  0  0  0  0  0  0  0  0
   -5.1990   19.1570  -32.4070 C   0  0  0  0  0  0  0  0  0  0  0  0
   -6.3190   19.7230  -31.7720 C   0  0  0  0  0  0  0  0  0  0  0  0
   -6.5730   21.0990  -31.8580 C   0  0  0  0  0  0  0  0  0  0  0  0
   -5.6780   21.9290  -32.5600 C   0  0  0  0  0  0  0  0  0  0  0  0
   -4.5700   21.3630  -33.2060 C   0  0  0  0  0  0  0  0  0  0  0  0
   -4.3220   19.9800  -33.1290 C   0  0  0  0  0  0  0  0  0  0  0  0
   -3.2150   19.3850  -33.7570 O   0  0  0  0  0  0  0  0  0  0  0  0
   -2.1500   18.7350  -33.0720 C   0  0  0  0  0  0  0  0  0  0  0  0
   -5.9510   23.4080  -32.7170 C   0  0  0  0  0  0  0  0  0  0  0  0
   -6.8350   23.9470  -31.6580 N   0  0  2  0  0  0  0  0  0  0  0  0
   -6.1330   24.1010  -30.3570 C   0  0  0  0  0  0  0  0  0  0  0  0
   -5.2740   25.3450  -30.3260 C   0  0  0  0  0  0  0  0  0  0  0  0
   -5.8130   26.4530  -30.0700 O   0  0  0  0  0  0  0  0  0  0  0  0
   -3.8490   25.2900  -30.4800 N   0  0  0  0  0  0  0  0  0  0  0  0
   -2.9600   24.4290  -29.7580 C   0  0  0  0  0  0  0  0  0  0  0  0
   -2.2830   24.9310  -28.6400 C   0  0  0  0  0  0  0  0  0  0  0  0
   -1.3990   24.1150  -27.9270 C   0  0  0  0  0  0  0  0  0  0  0  0
   -1.1720   22.7990  -28.3420 C   0  0  0  0  0  0  0  0  0  0  0  0
   -1.8190   22.3030  -29.4790 C   0  0  0  0  0  0  0  0  0  0  0  0
   -1.4850   20.5160  -30.0630 Br  0  0  0  0  0  0  0  0  0  0  0  0
   -2.7030   23.1190  -30.1930 C   0  0  0  0  0  0  0  0  0  0  0  0
   -8.0560   23.1220  -31.5340 C   0  0  0  0  0  0  0  0  0  0  0  0
   -7.7480   21.6770  -31.1140 C   0  0  0  0  0  0  0  0  0  0  0  0
   -6.2347   16.2255  -31.9840 H   0  0  0  0  0  0  0  0  0  0  0  0
   -6.5767   17.2130  -33.4449 H   0  0  0  0  0  0  0  0  0  0  0  0
   -5.2036   16.0549  -33.4449 H   0  0  0  0  0  0  0  0  0  0  0  0
   -7.0037   19.0785  -31.2012 H   0  0  0  0  0  0  0  0  0  0  0  0
   -3.8870   22.0070  -33.7793 H   0  0  0  0  0  0  0  0  0  0  0  0
   -2.3017   18.8276  -31.9864 H   0  0  0  0  0  0  0  0  0  0  0  0
   -2.1305   17.6709  -33.3501 H   0  0  0  0  0  0  0  0  0  0  0  0
   -1.1947   19.2042  -33.3501 H   0  0  0  0  0  0  0  0  0  0  0  0
   -4.9929   23.9473  -32.6824 H   0  0  0  0  0  0  0  0  0  0  0  0
   -6.4655   23.5482  -33.6791 H   0  0  0  0  0  0  0  0  0  0  0  0
   -7.1550   24.8930  -31.9740 H   0  0  0  0  0  0  0  0  0  0  0  0
   -6.8818   24.1653  -29.5538 H   0  0  0  0  0  0  0  0  0  0  0  0
   -5.4771   23.2291  -30.2172 H   0  0  0  0  0  0  0  0  0  0  0  0
   -2.4470   25.9710  -28.3213 H   0  0  0  0  0  0  0  0  0  0  0  0
   -0.8820   24.5085  -27.0394 H   0  0  0  0  0  0  0  0  0  0  0  0
   -0.4849   22.1540  -27.7746 H   0  0  0  0  0  0  0  0  0  0  0  0
   -3.1976   22.7336  -31.0968 H   0  0  0  0  0  0  0  0  0  0  0  0
   -8.7139   23.5765  -30.7786 H   0  0  0  0  0  0  0  0  0  0  0  0
   -8.5386   23.0878  -32.5219 H   0  0  0  0  0  0  0  0  0  0  0  0
   -7.5255   21.6624  -30.0368 H   0  0  0  0  0  0  0  0  0  0  0  0
   -8.6296   21.0640  -31.3528 H   0  0  0  0  0  0  0  0  0  0  0  0
  1  2  1  0
  2  3  1  0
  3  4  2  0
  4  5  1  0
  5  6  2  0
  6  7  1  0
  7  8  2  0
  8  9  1  0
  9 10  1  0
  6 11  1  0
 11 12  1  0
 12 13  1  0
 13 14  1  0
 14 15  2  0
 14 16  1  0
 16 17  1  0
 17 18  2  0
 18 19  1  0
 19 20  2  0
 20 21  1  0
 21 22  1  0
 21 23  2  0
 12 24  1  0
 24 25  1  0
  8  3  1  0
 23 17  1  0
 25  5  1  0
  1 26  1  0
  1 27  1  0
  1 28  1  0
  4 29  1  0
  7 30  1  0
 10 31  1  0
 10 32  1  0
 10 33  1  0
 11 34  1  0
 11 35  1  0
 12 36  1  6
 13 37  1  0
 13 38  1  0
 18 39  1  0
 19 40  1  0
 20 41  1  0
 23 42  1  0
 24 43  1  0
 24 44  1  0
 25 45  1  0
 25 46  1  0
M  CHG  2  12   1  16  -1
M  END
>  <UniqueID>  (35) 
33

>  <SMILES>  (35) 
COc1cc2c(cc1OC)C[N@H+](CC(=O)[N-]c1cccc(Br)c1)CC2

>  <Energy>  (35) 
57.407572588982475

>  <Genealogy>  (35) 
COc1cc2c(cc1OC)C[NH+](CC(=O)[N-]c1cccc(Br)c1)CC2 (protonated)
COc1cc2c(cc1OC)C[N@H+](CC(=O)[N-]c1cccc(Br)c1)CC2 (chirality)
COc1cc2c(cc1OC)C[N@H+](CC(=O)[N-]c1cccc(Br)c1)CC2 (3D coordinates assigned)
COc1cc2c(cc1OC)C[N@H+](CC(=O)[N-]c1cccc(Br)c1)CC2 (nonaromatic ring conformer: 57.407572588982475 kcal/mol)

>  <smiles>  (35) 
COc1cc2c(cc1OC)CN(CC(=O)Nc1cccc(Br)c1)CC2

>  <score_type>  (35) 
oracle

>  <origin>  (35) 
adg

>  <m_score__min__energy>  (35) 
-8.0800000000000001

>  <m_primary>  (35) 
energy

$$$$
35:0
     RDKit          3D

 37 40  0  0  0  0  0  0  0  0999 V2000
    0.4600   19.7770  -31.4850 C   0  0  0  0  0  0  0  0  0  0  0  0
   -0.1530   21.0590  -31.5640 O   0  0  0  0  0  0  0  0  0  0  0  0
   -1.3750   21.3930  -30.9640 C   0  0  0  0  0  0  0  0  0  0  0  0
   -1.5220   21.1750  -29.5900 C   0  0  0  0  0  0  0  0  0  0  0  0
   -2.7200   21.4900  -28.9460 C   0  0  0  0  0  0  0  0  0  0  0  0
   -3.7860   22.0270  -29.6700 C   0  0  0  0  0  0  0  0  0  0  0  0
   -3.6600   22.2590  -31.0520 C   0  0  0  0  0  0  0  0  0  0  0  0
   -4.8150   22.8350  -31.8450 C   0  0  1  0  0  0  0  0  0  0  0  0
   -5.7660   21.7170  -32.2780 C   0  0  0  0  0  0  0  0  0  0  0  0
   -5.3070   20.7450  -33.1840 C   0  0  0  0  0  0  0  0  0  0  0  0
   -6.1350   19.6900  -33.5730 C   0  0  0  0  0  0  0  0  0  0  0  0
   -7.4310   19.5890  -33.0650 C   0  0  0  0  0  0  0  0  0  0  0  0
   -7.9110   20.5470  -32.1700 C   0  0  0  0  0  0  0  0  0  0  0  0
   -7.0940   21.6150  -31.7710 C   0  0  0  0  0  0  0  0  0  0  0  0
   -7.6180   22.6130  -30.8760 N   0  0  0  0  0  0  0  0  0  0  0  0
   -6.8020   23.7380  -30.5680 C   0  0  0  0  0  0  0  0  0  0  0  0
   -7.1140   24.8540  -29.8240 C   0  0  0  0  0  0  0  0  0  0  0  0
   -6.0660   25.6540  -29.8220 O   0  0  0  0  0  0  0  0  0  0  0  0
   -5.1060   25.0960  -30.5320 C   0  0  0  0  0  0  0  0  0  0  0  0
   -3.8570   25.6740  -30.7320 O   0  0  0  0  0  0  0  0  0  0  0  0
   -5.5300   23.8780  -31.0290 C   0  0  0  0  0  0  0  0  0  0  0  0
   -2.4520   21.9350  -31.6940 C   0  0  0  0  0  0  0  0  0  0  0  0
    0.5931   19.4987  -30.4292 H   0  0  0  0  0  0  0  0  0  0  0  0
   -0.1799   19.0333  -31.9824 H   0  0  0  0  0  0  0  0  0  0  0  0
    1.4406   19.8082  -31.9824 H   0  0  0  0  0  0  0  0  0  0  0  0
   -0.6869   20.7520  -29.0123 H   0  0  0  0  0  0  0  0  0  0  0  0
   -2.8242   21.3146  -27.8651 H   0  0  0  0  0  0  0  0  0  0  0  0
   -4.7287   22.2698  -29.1577 H   0  0  0  0  0  0  0  0  0  0  0  0
   -4.4274   23.3197  -32.7532 H   0  0  0  0  0  0  0  0  0  0  0  0
   -4.2871   20.8161  -33.5899 H   0  0  0  0  0  0  0  0  0  0  0  0
   -5.7644   18.9356  -34.2826 H   0  0  0  0  0  0  0  0  0  0  0  0
   -8.0762   18.7521  -33.3707 H   0  0  0  0  0  0  0  0  0  0  0  0
   -8.9346   20.4638  -31.7759 H   0  0  0  0  0  0  0  0  0  0  0  0
   -8.5880   22.5470  -30.4950 H   0  0  0  0  0  0  0  0  0  0  0  0
   -8.0722   25.0450  -29.3186 H   0  0  0  0  0  0  0  0  0  0  0  0
   -3.3400   25.5230  -31.5900 H   0  0  0  0  0  0  0  0  0  0  0  0
   -2.3464   22.1060  -32.7755 H   0  0  0  0  0  0  0  0  0  0  0  0
  1  2  1  0
  2  3  1  0
  3  4  2  0
  4  5  1  0
  5  6  2  0
  6  7  1  0
  7  8  1  0
  8  9  1  0
  9 10  2  0
 10 11  1  0
 11 12  2  0
 12 13  1  0
 13 14  2  0
 14 15  1  0
 15 16  1  0
 16 17  2  0
 17 18  1  0
 18 19  1  0
 19 20  1  0
 19 21  2  0
  7 22  2  0
 22  3  1  0
 21  8  1  0
 14  9  1  0
 21 16  1  0
  1 23  1  0
  1 24  1  0
  1 25  1  0
  4 26  1  0
  5 27  1  0
  6 28  1  0
  8 29  1  6
 10 30  1  0
 11 31  1  0
 12 32  1  0
 13 33  1  0
 15 34  1  0
 17 35  1  0
 20 36  1  0
 22 37  1  0
M  END
>  <UniqueID>  (36) 
34

>  <SMILES>  (36) 
COc1cccc([C@H]2c3ccccc3Nc3coc(O)c32)c1

>  <Energy>  (36) 
73.61753855189687

>  <Genealogy>  (36) 
COc1cccc([C@H]2c3ccccc3Nc3coc(O)c32)c1 (chirality)
COc1cccc([C@H]2c3ccccc3Nc3coc(O)c32)c1 (3D coordinates assigned)
COc1cccc([C@H]2c3ccccc3Nc3coc(O)c32)c1 (nonaromatic ring conformer: 73.61753855189687 kcal/mol)

>  <smiles>  (36) 
COc1cccc(C2c3ccccc3Nc3coc(O)c32)c1

>  <score_type>  (36) 
oracle

>  <origin>  (36) 
adg

>  <m_score__min__energy>  (36) 
-8.5899999999999999

>  <m_primary>  (36) 
energy

$$$$
36:0
     RDKit          3D

 31 31  0  0  0  0  0  0  0  0999 V2000
   -5.7340   18.1790  -34.7300 C   0  0  0  0  0  0  0  0  0  0  0  0
   -6.5210   17.4180  -33.6520 C   0  0  0  0  0  0  0  0  0  0  0  0
   -6.8800   18.2230  -32.4550 N   0  0  2  0  0  0  0  0  0  0  0  0
   -6.3980   17.5890  -31.2120 C   0  0  0  0  0  0  0  0  0  0  0  0
   -8.3260   18.5420  -32.3370 C   0  0  0  0  0  0  0  0  0  0  0  0
   -8.6210   20.0560  -32.3480 C   0  0  0  0  0  0  0  0  0  0  0  0
   -7.4890   20.8090  -32.7850 O   0  0  0  0  0  0  0  0  0  0  0  0
   -6.9550   21.9360  -32.1400 C   0  0  0  0  0  0  0  0  0  0  0  0
   -7.7600   22.8690  -31.4540 C   0  0  0  0  0  0  0  0  0  0  0  0
   -7.1800   23.9780  -30.8320 C   0  0  0  0  0  0  0  0  0  0  0  0
   -5.7990   24.1690  -30.8830 C   0  0  0  0  0  0  0  0  0  0  0  0
   -4.9920   23.2510  -31.5590 C   0  0  0  0  0  0  0  0  0  0  0  0
   -5.5650   22.1380  -32.1840 C   0  0  0  0  0  0  0  0  0  0  0  0
   -4.5300   21.0070  -33.0420 Cl  0  0  0  0  0  0  0  0  0  0  0  0
   -5.0231   18.8664  -34.2483 H   0  0  0  0  0  0  0  0  0  0  0  0
   -5.1834   17.4620  -35.3568 H   0  0  0  0  0  0  0  0  0  0  0  0
   -6.4321   18.7534  -35.3568 H   0  0  0  0  0  0  0  0  0  0  0  0
   -7.4516   17.0469  -34.1061 H   0  0  0  0  0  0  0  0  0  0  0  0
   -5.8598   16.6140  -33.2966 H   0  0  0  0  0  0  0  0  0  0  0  0
   -6.3630   19.1320  -32.5360 H   0  0  0  0  0  0  0  0  0  0  0  0
   -6.8068   18.1267  -30.3438 H   0  0  0  0  0  0  0  0  0  0  0  0
   -6.7290   16.5404  -31.1830 H   0  0  0  0  0  0  0  0  0  0  0  0
   -5.2991   17.6275  -31.1830 H   0  0  0  0  0  0  0  0  0  0  0  0
   -8.8559   18.0771  -33.1815 H   0  0  0  0  0  0  0  0  0  0  0  0
   -8.6672   18.1512  -31.3670 H   0  0  0  0  0  0  0  0  0  0  0  0
   -9.4634   20.2506  -33.0281 H   0  0  0  0  0  0  0  0  0  0  0  0
   -8.8652   20.3664  -31.3213 H   0  0  0  0  0  0  0  0  0  0  0  0
   -8.8493   22.7231  -31.4083 H   0  0  0  0  0  0  0  0  0  0  0  0
   -7.8144   24.7026  -30.3005 H   0  0  0  0  0  0  0  0  0  0  0  0
   -5.3458   25.0422  -30.3910 H   0  0  0  0  0  0  0  0  0  0  0  0
   -3.9034   23.4034  -31.6001 H   0  0  0  0  0  0  0  0  0  0  0  0
  1  2  1  0
  2  3  1  0
  3  4  1  0
  3  5  1  0
  5  6  1  0
  6  7  1  0
  7  8  1  0
  8  9  2  0
  9 10  1  0
 10 11  2  0
 11 12  1  0
 12 13  2  0
 13 14  1  0
 13  8  1  0
  1 15  1  0
  1 16  1  0
  1 17  1  0
  2 18  1  0
  2 19  1  0
  3 20  1  6
  4 21  1  0
  4 22  1  0
  4 23  1  0
  5 24  1  0
  5 25  1  0
  6 26  1  0
  6 27  1  0
  9 28  1  0
 10 29  1  0
 11 30  1  0
 12 31  1  0
M  CHG  1   3   1
M  END
>  <UniqueID>  (37) 
35

>  <SMILES>  (37) 
CC[N@H+](C)CCOc1ccccc1Cl

>  <Energy>  (37) 
31.015880248146807

>  <Genealogy>  (37) 
CC[NH+](C)CCOc1ccccc1Cl (protonated)
CC[N@H+](C)CCOc1ccccc1Cl (chirality)
CC[N@H+](C)CCOc1ccccc1Cl (3D coordinates assigned)
CC[N@H+](C)CCOc1ccccc1Cl (optimized conformer: 31.015880248146807 kcal/mol)

>  <smiles>  (37) 
CCN(C)CCOc1ccccc1Cl

>  <score_type>  (37) 
oracle

>  <origin>  (37) 
adg

>  <m_score__min__energy>  (37) 
-4.4100000000000001

>  <m_primary>  (37) 
energy

$$$$
37:0
     RDKit          3D

 49 51  0  0  0  0  0  0  0  0999 V2000
   -2.2150   20.1010  -26.7470 C   0  0  0  0  0  0  0  0  0  0  0  0
   -2.0150   20.9160  -27.9910 C   0  0  0  0  0  0  0  0  0  0  0  0
   -2.3580   20.3860  -29.2410 C   0  0  0  0  0  0  0  0  0  0  0  0
   -2.2000   21.1550  -30.4070 C   0  0  0  0  0  0  0  0  0  0  0  0
   -2.4870   20.6220  -31.7090 N   0  0  0  0  0  0  0  0  0  0  0  0
   -3.2410   21.2720  -32.7400 C   0  0  0  0  0  0  0  0  0  0  0  0
   -2.6510   21.9160  -33.6510 O   0  0  0  0  0  0  0  0  0  0  0  0
   -4.6850   21.1840  -32.7260 N   0  0  0  0  0  0  0  0  0  0  0  0
   -5.1290   19.9500  -33.4170 C   0  0  0  0  0  0  0  0  0  0  0  0
   -6.5120   19.5280  -32.9760 C   0  0  0  0  0  0  0  0  0  0  0  0
   -7.5920   20.4220  -33.0710 C   0  0  0  0  0  0  0  0  0  0  0  0
   -8.8590   20.0480  -32.6080 C   0  0  0  0  0  0  0  0  0  0  0  0
   -9.0540   18.7810  -32.0510 C   0  0  0  0  0  0  0  0  0  0  0  0
   -7.9840   17.8870  -31.9530 C   0  0  0  0  0  0  0  0  0  0  0  0
   -6.7170   18.2580  -32.4110 C   0  0  0  0  0  0  0  0  0  0  0  0
   -5.1720   21.2340  -31.3270 C   0  0  0  0  0  0  0  0  0  0  0  0
   -5.3360   22.6540  -30.8370 C   0  0  0  0  0  0  0  0  0  0  0  0
   -5.9430   23.6250  -31.6520 C   0  0  0  0  0  0  0  0  0  0  0  0
   -6.0720   24.9430  -31.2010 C   0  0  0  0  0  0  0  0  0  0  0  0
   -5.5960   25.3000  -29.9370 C   0  0  0  0  0  0  0  0  0  0  0  0
   -4.9880   24.3410  -29.1220 C   0  0  0  0  0  0  0  0  0  0  0  0
   -4.8580   23.0230  -29.5680 C   0  0  0  0  0  0  0  0  0  0  0  0
   -1.6780   22.4500  -30.3120 C   0  0  0  0  0  0  0  0  0  0  0  0
   -1.3520   23.0050  -29.0620 C   0  0  0  0  0  0  0  0  0  0  0  0
   -0.8380   24.3460  -28.9660 N   0  0  0  0  0  0  0  0  0  0  0  0
    0.3280   24.5550  -28.5680 O   0  0  0  0  0  0  0  0  0  0  0  0
   -1.6230   25.4230  -29.3100 O   0  0  0  0  0  0  0  0  0  0  0  0
   -1.5340   22.2300  -27.9030 C   0  0  0  0  0  0  0  0  0  0  0  0
   -2.0590   20.7368  -25.8631 H   0  0  0  0  0  0  0  0  0  0  0  0
   -3.2386   19.6984  -26.7330 H   0  0  0  0  0  0  0  0  0  0  0  0
   -1.4941   19.2703  -26.7330 H   0  0  0  0  0  0  0  0  0  0  0  0
   -2.7534   19.3619  -29.3108 H   0  0  0  0  0  0  0  0  0  0  0  0
   -5.0670   22.0140  -33.2390 H   0  0  0  0  0  0  0  0  0  0  0  0
   -5.1414   20.1337  -34.5015 H   0  0  0  0  0  0  0  0  0  0  0  0
   -4.4268   19.1428  -33.1615 H   0  0  0  0  0  0  0  0  0  0  0  0
   -7.4413   21.4190  -33.5106 H   0  0  0  0  0  0  0  0  0  0  0  0
   -9.7014   20.7514  -32.6826 H   0  0  0  0  0  0  0  0  0  0  0  0
  -10.0504   18.4871  -31.6894 H   0  0  0  0  0  0  0  0  0  0  0  0
   -8.1395   16.8901  -31.5148 H   0  0  0  0  0  0  0  0  0  0  0  0
   -5.8767   17.5529  -32.3289 H   0  0  0  0  0  0  0  0  0  0  0  0
   -6.1450   20.7240  -31.2709 H   0  0  0  0  0  0  0  0  0  0  0  0
   -4.4262   20.7375  -30.6888 H   0  0  0  0  0  0  0  0  0  0  0  0
   -6.3180   23.3476  -32.6482 H   0  0  0  0  0  0  0  0  0  0  0  0
   -6.5487   25.6990  -31.8423 H   0  0  0  0  0  0  0  0  0  0  0  0
   -5.6998   26.3363  -29.5830 H   0  0  0  0  0  0  0  0  0  0  0  0
   -4.6113   24.6241  -28.1281 H   0  0  0  0  0  0  0  0  0  0  0  0
   -4.3795   22.2712  -28.9231 H   0  0  0  0  0  0  0  0  0  0  0  0
   -1.5208   23.0409  -31.2264 H   0  0  0  0  0  0  0  0  0  0  0  0
   -1.2968   22.6586  -26.9181 H   0  0  0  0  0  0  0  0  0  0  0  0
  1  2  1  0
  2  3  2  0
  3  4  1  0
  4  5  1  0
  5  6  1  0
  6  7  2  0
  6  8  1  0
  8  9  1  0
  9 10  1  0
 10 11  2  0
 11 12  1  0
 12 13  2  0
 13 14  1  0
 14 15  2  0
  8 16  1  0
 16 17  1  0
 17 18  2  0
 18 19  1  0
 19 20  2  0
 20 21  1  0
 21 22  2  0
  4 23  2  0
 23 24  1  0
 24 25  1  0
 25 26  2  0
 25 27  1  0
 24 28  2  0
 28  2  1  0
 15 10  1  0
 22 17  1  0
  1 29  1  0
  1 30  1  0
  1 31  1  0
  3 32  1  0
  8 33  1  0
  9 34  1  0
  9 35  1  0
 11 36  1  0
 12 37  1  0
 13 38  1  0
 14 39  1  0
 15 40  1  0
 16 41  1  0
 16 42  1  0
 18 43  1  0
 19 44  1  0
 20 45  1  0
 21 46  1  0
 22 47  1  0
 23 48  1  0
 28 49  1  0
M  CHG  4   5  -1   8   1  25   1  27  -1
M  END
>  <UniqueID>  (38) 
36

>  <SMILES>  (38) 
Cc1cc([N-]C(=O)[NH+](Cc2ccccc2)Cc2ccccc2)cc([N+](=O)[O-])c1

>  <Energy>  (38) 
56.534975339312766

>  <Genealogy>  (38) 
Cc1cc([N-]C(=O)[NH+](Cc2ccccc2)Cc2ccccc2)cc([N+](=O)[O-])c1 (protonated)
Cc1cc([N-]C(=O)[NH+](Cc2ccccc2)Cc2ccccc2)cc([N+](=O)[O-])c1 (3D coordinates assigned)
Cc1cc([N-]C(=O)[NH+](Cc2ccccc2)Cc2ccccc2)cc([N+](=O)[O-])c1 (optimized conformer: 56.534975339312766 kcal/mol)

>  <smiles>  (38) 
Cc1cc(NC(=O)N(Cc2ccccc2)Cc2ccccc2)cc([N+](=O)[O-])c1

>  <score_type>  (38) 
oracle

>  <origin>  (38) 
adg

>  <m_score__min__energy>  (38) 
-9.2699999999999996

>  <m_primary>  (38) 
energy

$$$$
38:0
     RDKit          3D

 36 39  0  0  0  0  0  0  0  0999 V2000
   -1.6310   22.8640  -28.8220 C   0  0  0  0  0  0  0  0  0  0  0  0
   -2.7890   22.2070  -28.4040 C   0  0  0  0  0  0  0  0  0  0  0  0
   -4.0230   22.8530  -28.4850 C   0  0  0  0  0  0  0  0  0  0  0  0
   -4.0810   24.1660  -28.9800 C   0  0  0  0  0  0  0  0  0  0  0  0
   -5.3920   24.8740  -29.1130 C   0  0  0  0  0  0  0  0  0  0  0  0
   -5.6460   25.3590  -30.8510 S   0  0  0  0  0  0  0  0  0  0  0  0
   -6.0970   23.7030  -31.3710 C   0  0  0  0  0  0  0  0  0  0  0  0
   -7.3930   23.2100  -31.1070 C   0  0  0  0  0  0  0  0  0  0  0  0
   -7.7640   21.9130  -31.5090 C   0  0  0  0  0  0  0  0  0  0  0  0
   -6.8110   21.1270  -32.1790 C   0  0  0  0  0  0  0  0  0  0  0  0
   -5.5560   21.6230  -32.4290 C   0  0  0  0  0  0  0  0  0  0  0  0
   -5.1610   22.9030  -32.0460 C   0  0  0  0  0  0  0  0  0  0  0  0
   -4.8230   20.7060  -33.0740 N   0  0  0  0  0  0  0  0  0  0  0  0
   -5.6500   19.6480  -33.2100 C   0  0  0  0  0  0  0  0  0  0  0  0
   -6.8800   19.8590  -32.6760 N   0  0  0  0  0  0  0  0  0  0  0  0
   -7.9330   18.8240  -32.7190 C   0  0  0  0  0  0  0  0  0  0  0  0
   -9.3680   19.3130  -32.6760 C   0  0  0  0  0  0  0  0  0  0  0  0
   -8.7470   18.6310  -31.4540 C   0  0  0  0  0  0  0  0  0  0  0  0
   -2.9370   24.7800  -29.3930 N   0  0  0  0  0  0  0  0  0  0  0  0
   -1.7260   24.1640  -29.3210 C   0  0  0  0  0  0  0  0  0  0  0  0
   -0.6539   22.3627  -28.7589 H   0  0  0  0  0  0  0  0  0  0  0  0
   -2.7290   21.1813  -28.0112 H   0  0  0  0  0  0  0  0  0  0  0  0
   -4.9412   22.3391  -28.1644 H   0  0  0  0  0  0  0  0  0  0  0  0
   -6.2047   24.2035  -28.7968 H   0  0  0  0  0  0  0  0  0  0  0  0
   -5.3900   25.7722  -28.4780 H   0  0  0  0  0  0  0  0  0  0  0  0
   -8.1207   23.8460  -30.5816 H   0  0  0  0  0  0  0  0  0  0  0  0
   -8.7728   21.5251  -31.3042 H   0  0  0  0  0  0  0  0  0  0  0  0
   -4.1492   23.2747  -32.2652 H   0  0  0  0  0  0  0  0  0  0  0  0
   -3.8330   20.7880  -33.4000 H   0  0  0  0  0  0  0  0  0  0  0  0
   -5.3569   18.7097  -33.7036 H   0  0  0  0  0  0  0  0  0  0  0  0
   -7.3607   18.1582  -33.3817 H   0  0  0  0  0  0  0  0  0  0  0  0
   -9.5820   20.3918  -32.6554 H   0  0  0  0  0  0  0  0  0  0  0  0
  -10.2667   19.1477  -33.2884 H   0  0  0  0  0  0  0  0  0  0  0  0
   -8.5141   19.2190  -30.5540 H   0  0  0  0  0  0  0  0  0  0  0  0
   -9.0132   17.7711  -30.8218 H   0  0  0  0  0  0  0  0  0  0  0  0
   -0.8207   24.6912  -29.6565 H   0  0  0  0  0  0  0  0  0  0  0  0
  1  2  2  0
  2  3  1  0
  3  4  2  0
  4  5  1  0
  5  6  1  0
  6  7  1  0
  7  8  2  0
  8  9  1  0
  9 10  2  0
 10 11  1  0
 11 12  2  0
 11 13  1  0
 13 14  2  0
 14 15  1  0
 15 16  1  0
 16 17  1  0
 17 18  1  0
  4 19  1  0
 19 20  2  0
 20  1  1  0
 12  7  1  0
 18 16  1  0
 15 10  1  0
  1 21  1  0
  2 22  1  0
  3 23  1  0
  5 24  1  0
  5 25  1  0
  8 26  1  0
  9 27  1  0
 12 28  1  0
 13 29  1  0
 14 30  1  0
 16 31  1  0
 17 32  1  0
 17 33  1  0
 18 34  1  0
 18 35  1  0
 20 36  1  0
M  CHG  1  13   1
M  END
>  <UniqueID>  (39) 
37

>  <SMILES>  (39) 
c1ccc(CSc2ccc3c(c2)[nH+]cn3C2CC2)nc1

>  <Energy>  (39) 
346.8306913983734

>  <Genealogy>  (39) 
c1ccc(CSc2ccc3c(c2)[nH+]cn3C2CC2)nc1 (protonated)
c1ccc(CSc2ccc3c(c2)[nH+]cn3C2CC2)nc1 (3D coordinates assigned)
c1ccc(CSc2ccc3c(c2)[nH+]cn3C2CC2)nc1 (nonaromatic ring conformer: 346.8306913983734 kcal/mol)

>  <smiles>  (39) 
c1ccc(CSc2ccc3c(c2)ncn3C2CC2)nc1

>  <score_type>  (39) 
oracle

>  <origin>  (39) 
adg

>  <m_score__min__energy>  (39) 
-7.2999999999999998

>  <m_primary>  (39) 
energy

$$$$
39:0
     RDKit          3D

 49 52  0  0  0  0  0  0  0  0999 V2000
   -3.3450   19.0310  -26.3470 C   0  0  0  0  0  0  0  0  0  0  0  0
   -2.0100   19.4870  -26.8600 C   0  0  0  0  0  0  0  0  0  0  0  0
   -1.1750   18.5990  -27.5530 C   0  0  0  0  0  0  0  0  0  0  0  0
    0.0600   19.0320  -28.0440 C   0  0  0  0  0  0  0  0  0  0  0  0
    0.4660   20.3570  -27.8570 C   0  0  0  0  0  0  0  0  0  0  0  0
   -0.3740   21.2630  -27.1920 C   0  0  0  0  0  0  0  0  0  0  0  0
    0.0740   22.6820  -26.9590 C   0  0  0  0  0  0  0  0  0  0  0  0
   -1.0480   23.8860  -27.7600 S   0  0  0  0  0  0  0  0  0  0  0  0
   -1.3180   22.9190  -29.2530 C   0  0  0  0  0  0  0  0  0  0  0  0
   -0.2880   22.3950  -29.9700 N   0  0  0  0  0  0  0  0  0  0  0  0
   -0.9140   21.7900  -30.9960 C   0  0  0  0  0  0  0  0  0  0  0  0
   -0.3300   21.1100  -32.0630 C   0  0  0  0  0  0  0  0  0  0  0  0
   -1.1840   20.5770  -33.0470 C   0  0  0  0  0  0  0  0  0  0  0  0
   -2.5850   20.7390  -32.9440 C   0  0  0  0  0  0  0  0  0  0  0  0
   -3.1440   21.4320  -31.8550 C   0  0  0  0  0  0  0  0  0  0  0  0
   -2.2670   21.9450  -30.8950 C   0  0  0  0  0  0  0  0  0  0  0  0
   -2.5410   22.6510  -29.7840 N   0  0  0  0  0  0  0  0  0  0  0  0
   -3.8500   23.0960  -29.3000 C   0  0  0  0  0  0  0  0  0  0  0  0
   -4.5610   23.8930  -30.3610 C   0  0  0  0  0  0  0  0  0  0  0  0
   -4.0790   25.0060  -30.7140 O   0  0  0  0  0  0  0  0  0  0  0  0
   -5.7470   23.3990  -31.0110 N   0  0  0  0  0  0  0  0  0  0  0  0
   -6.3120   22.0720  -30.8040 C   0  0  0  0  0  0  0  0  0  0  0  0
   -7.3930   21.9170  -31.8670 C   0  0  0  0  0  0  0  0  0  0  0  0
   -7.7060   23.3330  -32.3480 C   0  0  0  0  0  0  0  0  0  0  0  0
   -6.4880   24.1770  -31.9880 C   0  0  0  0  0  0  0  0  0  0  0  0
   -1.6150   20.8240  -26.7000 C   0  0  0  0  0  0  0  0  0  0  0  0
   -3.3357   19.0342  -25.2470 H   0  0  0  0  0  0  0  0  0  0  0  0
   -4.1291   19.7123  -26.7090 H   0  0  0  0  0  0  0  0  0  0  0  0
   -3.5485   18.0124  -26.7090 H   0  0  0  0  0  0  0  0  0  0  0  0
   -1.4930   17.5579  -27.7108 H   0  0  0  0  0  0  0  0  0  0  0  0
    0.7145   18.3283  -28.5791 H   0  0  0  0  0  0  0  0  0  0  0  0
    1.4453   20.6895  -28.2318 H   0  0  0  0  0  0  0  0  0  0  0  0
    0.0921   22.8770  -25.8766 H   0  0  0  0  0  0  0  0  0  0  0  0
    1.0755   22.8019  -27.3978 H   0  0  0  0  0  0  0  0  0  0  0  0
    0.7615   20.9936  -32.1339 H   0  0  0  0  0  0  0  0  0  0  0  0
   -0.7586   20.0308  -33.9018 H   0  0  0  0  0  0  0  0  0  0  0  0
   -3.2420   20.3203  -33.7206 H   0  0  0  0  0  0  0  0  0  0  0  0
   -4.2319   21.5654  -31.7622 H   0  0  0  0  0  0  0  0  0  0  0  0
   -4.4577   22.2169  -29.0394 H   0  0  0  0  0  0  0  0  0  0  0  0
   -3.7046   23.7322  -28.4145 H   0  0  0  0  0  0  0  0  0  0  0  0
   -5.5374   21.3010  -30.9287 H   0  0  0  0  0  0  0  0  0  0  0  0
   -6.7196   21.9568  -29.7888 H   0  0  0  0  0  0  0  0  0  0  0  0
   -7.0253   21.3012  -32.7010 H   0  0  0  0  0  0  0  0  0  0  0  0
   -8.2874   21.4173  -31.4666 H   0  0  0  0  0  0  0  0  0  0  0  0
   -7.8681   23.3402  -33.4360 H   0  0  0  0  0  0  0  0  0  0  0  0
   -8.6209   23.7250  -31.8798 H   0  0  0  0  0  0  0  0  0  0  0  0
   -5.8711   24.3606  -32.8801 H   0  0  0  0  0  0  0  0  0  0  0  0
   -6.7783   25.1601  -31.5891 H   0  0  0  0  0  0  0  0  0  0  0  0
   -2.2810   21.5329  -26.1862 H   0  0  0  0  0  0  0  0  0  0  0  0
  1  2  1  0
  2  3  2  0
  3  4  1  0
  4  5  2  0
  5  6  1  0
  6  7  1  0
  7  8  1  0
  8  9  1  0
  9 10  2  0
 10 11  1  0
 11 12  2  0
 12 13  1  0
 13 14  2  0
 14 15  1  0
 15 16  2  0
 16 17  1  0
 17 18  1  0
 18 19  1  0
 19 20  2  0
 19 21  1  0
 21 22  1  0
 22 23  1  0
 23 24  1  0
 24 25  1  0
  6 26  2  0
 26  2  1  0
 17  9  1  0
 25 21  1  0
 16 11  1  0
  1 27  1  0
  1 28  1  0
  1 29  1  0
  3 30  1  0
  4 31  1  0
  5 32  1  0
  7 33  1  0
  7 34  1  0
 12 35  1  0
 13 36  1  0
 14 37  1  0
 15 38  1  0
 18 39  1  0
 18 40  1  0
 22 41  1  0
 22 42  1  0
 23 43  1  0
 23 44  1  0
 24 45  1  0
 24 46  1  0
 25 47  1  0
 25 48  1  0
 26 49  1  0
M  END
>  <UniqueID>  (40) 
38

>  <SMILES>  (40) 
Cc1cccc(CSc2nc3ccccc3n2CC(=O)N2CCCC2)c1

>  <Energy>  (40) 
79.40005753623126

>  <Genealogy>  (40) 
Cc1cccc(CSc2nc3ccccc3n2CC(=O)N2CCCC2)c1 (3D coordinates assigned)
Cc1cccc(CSc2nc3ccccc3n2CC(=O)N2CCCC2)c1 (nonaromatic ring conformer: 79.40005753623126 kcal/mol)

>  <smiles>  (40) 
Cc1cccc(CSc2nc3ccccc3n2CC(=O)N2CCCC2)c1

>  <score_type>  (40) 
oracle

>  <origin>  (40) 
adg

>  <m_score__min__energy>  (40) 
-9.1199999999999992

>  <m_primary>  (40) 
energy

$$$$
40:0
     RDKit          3D

 54 57  0  0  0  0  0  0  0  0999 V2000
    0.6050   21.1630  -33.4400 C   0  0  0  0  0  0  0  0  0  0  0  0
    0.1360   20.2790  -34.4530 O   0  0  0  0  0  0  0  0  0  0  0  0
   -1.0040   19.4680  -34.3330 C   0  0  0  0  0  0  0  0  0  0  0  0
   -0.8930   18.1170  -34.6770 C   0  0  0  0  0  0  0  0  0  0  0  0
   -1.9940   17.2670  -34.5670 C   0  0  0  0  0  0  0  0  0  0  0  0
   -3.2210   17.7610  -34.1180 C   0  0  0  0  0  0  0  0  0  0  0  0
   -3.3630   19.1190  -33.7820 C   0  0  0  0  0  0  0  0  0  0  0  0
   -4.6750   19.6240  -33.3020 C   0  0  0  0  0  0  0  0  0  0  0  0
   -4.9020   20.9930  -33.0850 C   0  0  0  0  0  0  0  0  0  0  0  0
   -6.1460   21.4370  -32.6160 C   0  0  0  0  0  0  0  0  0  0  0  0
   -6.3210   22.8810  -32.3490 C   0  0  0  0  0  0  0  0  0  0  0  0
   -7.1550   23.5310  -33.0370 O   0  0  0  0  0  0  0  0  0  0  0  0
   -5.5360   23.5530  -31.3460 N   0  0  0  0  0  0  0  0  0  0  0  0
   -4.1980   23.0590  -30.9970 C   0  0  0  0  0  0  0  0  0  0  0  0
   -3.4170   24.1170  -30.2070 C   0  0  0  0  0  0  0  0  0  0  0  0
   -4.1680   24.6050  -29.0240 N   0  0  0  0  0  0  0  0  0  0  0  0
   -3.9400   23.7440  -27.8420 C   0  0  0  0  0  0  0  0  0  0  0  0
   -2.6530   24.1300  -27.1070 C   0  0  0  0  0  0  0  0  0  0  0  0
   -2.1260   25.3070  -27.6540 O   0  0  0  0  0  0  0  0  0  0  0  0
   -5.6200   24.8430  -29.2710 C   0  0  0  0  0  0  0  0  0  0  0  0
   -6.0070   24.8090  -30.7550 C   0  0  0  0  0  0  0  0  0  0  0  0
   -7.1830   20.4980  -32.4080 C   0  0  0  0  0  0  0  0  0  0  0  0
   -8.4810   20.8740  -32.0010 C   0  0  0  0  0  0  0  0  0  0  0  0
   -9.4680   19.9040  -31.8010 C   0  0  0  0  0  0  0  0  0  0  0  0
   -9.1830   18.5550  -32.0200 C   0  0  0  0  0  0  0  0  0  0  0  0
   -7.9110   18.1680  -32.4470 C   0  0  0  0  0  0  0  0  0  0  0  0
   -6.9140   19.1290  -32.6470 C   0  0  0  0  0  0  0  0  0  0  0  0
   -5.6860   18.7410  -33.0800 N   0  0  0  0  0  0  0  0  0  0  0  0
   -2.2420   19.9670  -33.8810 C   0  0  0  0  0  0  0  0  0  0  0  0
    0.3800   20.7389  -32.4503 H   0  0  0  0  0  0  0  0  0  0  0  0
    1.6921   21.2956  -33.5436 H   0  0  0  0  0  0  0  0  0  0  0  0
    0.1053   22.1374  -33.5436 H   0  0  0  0  0  0  0  0  0  0  0  0
    0.0686   17.7219  -35.0366 H   0  0  0  0  0  0  0  0  0  0  0  0
   -1.8954   16.2046  -34.8347 H   0  0  0  0  0  0  0  0  0  0  0  0
   -4.0823   17.0829  -34.0266 H   0  0  0  0  0  0  0  0  0  0  0  0
   -4.1004   21.7195  -33.2839 H   0  0  0  0  0  0  0  0  0  0  0  0
   -4.2971   22.1511  -30.3839 H   0  0  0  0  0  0  0  0  0  0  0  0
   -3.6508   22.8359  -31.9248 H   0  0  0  0  0  0  0  0  0  0  0  0
   -2.4687   23.6756  -29.8665 H   0  0  0  0  0  0  0  0  0  0  0  0
   -3.2446   24.9750  -30.8734 H   0  0  0  0  0  0  0  0  0  0  0  0
   -4.7908   23.8501  -27.1529 H   0  0  0  0  0  0  0  0  0  0  0  0
   -3.8425   22.7038  -28.1861 H   0  0  0  0  0  0  0  0  0  0  0  0
   -2.8755   24.2907  -26.0418 H   0  0  0  0  0  0  0  0  0  0  0  0
   -1.9173   23.3194  -27.2152 H   0  0  0  0  0  0  0  0  0  0  0  0
   -2.9040   25.8900  -27.8530 H   0  0  0  0  0  0  0  0  0  0  0  0
   -6.1937   24.0659  -28.7447 H   0  0  0  0  0  0  0  0  0  0  0  0
   -5.8471   25.8544  -28.9028 H   0  0  0  0  0  0  0  0  0  0  0  0
   -7.1008   24.8740  -30.8518 H   0  0  0  0  0  0  0  0  0  0  0  0
   -5.5454   25.6599  -31.2774 H   0  0  0  0  0  0  0  0  0  0  0  0
   -8.7175   21.9362  -31.8402 H   0  0  0  0  0  0  0  0  0  0  0  0
  -10.4729   20.2050  -31.4698 H   0  0  0  0  0  0  0  0  0  0  0  0
   -9.9617   17.7956  -31.8559 H   0  0  0  0  0  0  0  0  0  0  0  0
   -7.6923   17.1050  -32.6265 H   0  0  0  0  0  0  0  0  0  0  0  0
   -2.3340   21.0273  -33.6031 H   0  0  0  0  0  0  0  0  0  0  0  0
  1  2  1  0
  2  3  1  0
  3  4  2  0
  4  5  1  0
  5  6  2  0
  6  7  1  0
  7  8  1  0
  8  9  2  0
  9 10  1  0
 10 11  1  0
 11 12  2  0
 11 13  1  0
 13 14  1  0
 14 15  1  0
 15 16  1  0
 16 17  1  0
 17 18  1  0
 18 19  1  0
 16 20  1  0
 20 21  1  0
 10 22  2  0
 22 23  1  0
 23 24  2  0
 24 25  1  0
 25 26  2  0
 26 27  1  0
 27 28  2  0
  7 29  2  0
 29  3  1  0
 28  8  1  0
 21 13  1  0
 27 22  1  0
  1 30  1  0
  1 31  1  0
  1 32  1  0
  4 33  1  0
  5 34  1  0
  6 35  1  0
  9 36  1  0
 14 37  1  0
 14 38  1  0
 15 39  1  0
 15 40  1  0
 17 41  1  0
 17 42  1  0
 18 43  1  0
 18 44  1  0
 19 45  1  0
 20 46  1  0
 20 47  1  0
 21 48  1  0
 21 49  1  0
 23 50  1  0
 24 51  1  0
 25 52  1  0
 26 53  1  0
 29 54  1  0
M  END
>  <UniqueID>  (41) 
39

>  <SMILES>  (41) 
COc1cccc(-c2cc(C(=O)N3CCN(CCO)CC3)c3ccccc3n2)c1

>  <Energy>  (41) 
76.52689165316994

>  <Genealogy>  (41) 
COc1cccc(-c2cc(C(=O)N3CCN(CCO)CC3)c3ccccc3n2)c1 (3D coordinates assigned)
COc1cccc(-c2cc(C(=O)N3CCN(CCO)CC3)c3ccccc3n2)c1 (nonaromatic ring conformer: 76.52689165316994 kcal/mol)

>  <smiles>  (41) 
COc1cccc(-c2cc(C(=O)N3CCN(CCO)CC3)c3ccccc3n2)c1

>  <score_type>  (41) 
oracle

>  <origin>  (41) 
adg

>  <m_score__min__energy>  (41) 
-8.8399999999999999

>  <m_primary>  (41) 
energy

$$$$
41:0
     RDKit          3D

 64 68  0  0  0  0  0  0  0  0999 V2000
   -0.5920   14.1560  -33.8880 C   0  0  0  0  0  0  0  0  0  0  0  0
   -0.5960   13.9620  -35.4030 C   0  0  0  0  0  0  0  0  0  0  0  0
   -0.5350   15.2950  -36.1660 C   0  0  0  0  0  0  0  0  0  0  0  0
   -1.3780   16.3250  -35.5250 N   0  0  0  0  0  0  0  0  0  0  0  0
   -0.7940   17.3760  -34.8510 C   0  0  0  0  0  0  0  0  0  0  0  0
    0.4590   17.5030  -34.7830 O   0  0  0  0  0  0  0  0  0  0  0  0
   -1.6170   18.2960  -34.2260 C   0  0  0  0  0  0  0  0  0  0  0  0
   -1.2740   19.3520  -33.4750 N   0  0  0  0  0  0  0  0  0  0  0  0
   -2.4850   19.8350  -33.0890 C   0  0  0  0  0  0  0  0  0  0  0  0
   -2.6250   20.9630  -32.1610 C   0  0  0  0  0  0  0  0  0  0  0  0
   -1.8540   21.1710  -31.0220 C   0  0  0  0  0  0  0  0  0  0  0  0
   -2.2940   22.2470  -30.2450 C   0  0  0  0  0  0  0  0  0  0  0  0
   -3.4070   22.8840  -30.7780 C   0  0  0  0  0  0  0  0  0  0  0  0
   -4.3010   24.1840  -30.0070 S   0  0  0  0  0  0  0  0  0  0  0  0
   -4.2100   25.4190  -30.8550 O   0  0  0  0  0  0  0  0  0  0  0  0
   -3.6730   24.4800  -28.6740 O   0  0  0  0  0  0  0  0  0  0  0  0
   -5.9790   23.7490  -29.7620 N   0  0  0  0  0  0  0  0  0  0  0  0
   -6.1580   22.2960  -29.9820 C   0  0  0  0  0  0  0  0  0  0  0  0
   -7.6480   21.9310  -30.0920 C   0  0  0  0  0  0  0  0  0  0  0  0
   -8.3590   22.6870  -31.1600 N   0  0  0  0  0  0  0  0  0  0  0  0
   -8.8210   21.8080  -32.2540 C   0  0  0  0  0  0  0  0  0  0  0  0
   -8.1310   20.4710  -32.1850 C   0  0  0  0  0  0  0  0  0  0  0  0
   -6.8230   20.3140  -32.6760 C   0  0  0  0  0  0  0  0  0  0  0  0
   -6.1980   19.0640  -32.6280 C   0  0  0  0  0  0  0  0  0  0  0  0
   -6.8720   17.9640  -32.0920 C   0  0  0  0  0  0  0  0  0  0  0  0
   -6.2660   16.7510  -32.0500 F   0  0  0  0  0  0  0  0  0  0  0  0
   -8.1740   18.1110  -31.6030 C   0  0  0  0  0  0  0  0  0  0  0  0
   -8.8040   19.3590  -31.6530 C   0  0  0  0  0  0  0  0  0  0  0  0
   -7.5750   23.8140  -31.7070 C   0  0  0  0  0  0  0  0  0  0  0  0
   -6.8890   24.5970  -30.5790 C   0  0  0  0  0  0  0  0  0  0  0  0
   -3.8470   22.1220  -32.2130 S   0  0  0  0  0  0  0  0  0  0  0  0
   -3.5490   19.1310  -33.5580 N   0  0  0  0  0  0  0  0  0  0  0  0
   -2.9570   18.1640  -34.2770 C   0  0  0  0  0  0  0  0  0  0  0  0
   -3.5630   17.1360  -34.9320 N   0  0  0  0  0  0  0  0  0  0  0  0
   -5.0270   17.0070  -34.9670 C   0  0  0  0  0  0  0  0  0  0  0  0
   -2.7600   16.2100  -35.5630 C   0  0  0  0  0  0  0  0  0  0  0  0
   -3.2930   15.2450  -36.1800 O   0  0  0  0  0  0  0  0  0  0  0  0
   -0.6122   13.1741  -33.3926 H   0  0  0  0  0  0  0  0  0  0  0  0
    0.3175   14.6983  -33.5902 H   0  0  0  0  0  0  0  0  0  0  0  0
   -1.4784   14.7353  -33.5902 H   0  0  0  0  0  0  0  0  0  0  0  0
    0.2771   13.3545  -35.6834 H   0  0  0  0  0  0  0  0  0  0  0  0
   -1.5385   13.4638  -35.6742 H   0  0  0  0  0  0  0  0  0  0  0  0
    0.5067   15.6477  -36.1865 H   0  0  0  0  0  0  0  0  0  0  0  0
   -0.9116   15.1265  -37.1857 H   0  0  0  0  0  0  0  0  0  0  0  0
   -0.9846   20.5507  -30.7587 H   0  0  0  0  0  0  0  0  0  0  0  0
   -1.8085   22.5571  -29.3079 H   0  0  0  0  0  0  0  0  0  0  0  0
   -6.1830   23.9380  -28.7510 H   0  0  0  0  0  0  0  0  0  0  0  0
   -5.6482   22.0084  -30.9133 H   0  0  0  0  0  0  0  0  0  0  0  0
   -5.7293   21.7577  -29.1238 H   0  0  0  0  0  0  0  0  0  0  0  0
   -7.7296   20.8561  -30.3109 H   0  0  0  0  0  0  0  0  0  0  0  0
   -8.1210   22.1943  -29.1344 H   0  0  0  0  0  0  0  0  0  0  0  0
   -9.9073   21.6596  -32.1646 H   0  0  0  0  0  0  0  0  0  0  0  0
   -8.5805   22.2827  -33.2167 H   0  0  0  0  0  0  0  0  0  0  0  0
   -6.2893   21.1776  -33.0995 H   0  0  0  0  0  0  0  0  0  0  0  0
   -5.1742   18.9467  -33.0128 H   0  0  0  0  0  0  0  0  0  0  0  0
   -8.7030   17.2448  -31.1788 H   0  0  0  0  0  0  0  0  0  0  0  0
   -9.8307   19.4699  -31.2741 H   0  0  0  0  0  0  0  0  0  0  0  0
   -6.8088   23.4218  -32.3919 H   0  0  0  0  0  0  0  0  0  0  0  0
   -8.2564   24.4909  -32.2432 H   0  0  0  0  0  0  0  0  0  0  0  0
   -6.3030   25.4146  -31.0241 H   0  0  0  0  0  0  0  0  0  0  0  0
   -7.6767   24.9773  -29.9120 H   0  0  0  0  0  0  0  0  0  0  0  0
   -5.4167   16.9727  -33.9389 H   0  0  0  0  0  0  0  0  0  0  0  0
   -5.4587   17.8706  -35.4941 H   0  0  0  0  0  0  0  0  0  0  0  0
   -5.3010   16.0812  -35.4941 H   0  0  0  0  0  0  0  0  0  0  0  0
  1  2  1  0
  2  3  1  0
  3  4  1  0
  4  5  1  0
  5  6  2  0
  5  7  1  0
  7  8  1  0
  8  9  2  0
  9 10  1  0
 10 11  2  0
 11 12  1  0
 12 13  2  0
 13 14  1  0
 14 15  2  0
 14 16  2  0
 14 17  1  0
 17 18  1  0
 18 19  1  0
 19 20  1  0
 20 21  1  0
 21 22  1  0
 22 23  2  0
 23 24  1  0
 24 25  2  0
 25 26  1  0
 25 27  1  0
 27 28  2  0
 20 29  1  0
 29 30  1  0
 13 31  1  0
  9 32  1  0
 32 33  1  0
 33 34  1  0
 34 35  1  0
 34 36  1  0
 36 37  2  0
 36  4  1  0
 33  7  2  0
 31 10  1  0
 30 17  1  0
 28 22  1  0
  1 38  1  0
  1 39  1  0
  1 40  1  0
  2 41  1  0
  2 42  1  0
  3 43  1  0
  3 44  1  0
 11 45  1  0
 12 46  1  0
 17 47  1  0
 18 48  1  0
 18 49  1  0
 19 50  1  0
 19 51  1  0
 21 52  1  0
 21 53  1  0
 23 54  1  0
 24 55  1  0
 27 56  1  0
 28 57  1  0
 29 58  1  0
 29 59  1  0
 30 60  1  0
 30 61  1  0
 35 62  1  0
 35 63  1  0
 35 64  1  0
M  CHG  2  17   1  32  -1
M  END
>  <UniqueID>  (42) 
40

>  <SMILES>  (42) 
CCCn1c(=O)c2nc(-c3ccc(S(=O)(=O)[NH+]4CCN(Cc5ccc(F)cc5)CC4)s3)[n-]c2n(C)c1=O

>  <Energy>  (42) 
143.30678678253517

>  <Genealogy>  (42) 
CCCn1c(=O)c2nc(-c3ccc(S(=O)(=O)[NH+]4CCN(Cc5ccc(F)cc5)CC4)s3)[n-]c2n(C)c1=O (protonated)
CCCn1c(=O)c2nc(-c3ccc(S(=O)(=O)[NH+]4CCN(Cc5ccc(F)cc5)CC4)s3)[n-]c2n(C)c1=O (3D coordinates assigned)
CCCn1c(=O)c2nc(-c3ccc(S(=O)(=O)[NH+]4CCN(Cc5ccc(F)cc5)CC4)s3)[n-]c2n(C)c1=O (nonaromatic ring conformer: 143.30678678253517 kcal/mol)

>  <smiles>  (42) 
CCCn1c(=O)c2nc(-c3ccc(S(=O)(=O)N4CCN(Cc5ccc(F)cc5)CC4)s3)[nH]c2n(C)c1=O

>  <score_type>  (42) 
oracle

>  <origin>  (42) 
adg

>  <m_score__min__energy>  (42) 
-10.33

>  <m_primary>  (42) 
energy

$$$$
42:0
     RDKit          3D

 50 53  0  0  0  0  0  0  0  0999 V2000
   -0.2380   18.2920  -27.7260 C   0  0  0  0  0  0  0  0  0  0  0  0
   -1.0430   19.2440  -27.0370 O   0  0  0  0  0  0  0  0  0  0  0  0
   -1.1160   20.6060  -27.3670 C   0  0  0  0  0  0  0  0  0  0  0  0
   -0.0040   21.2070  -27.9650 C   0  0  0  0  0  0  0  0  0  0  0  0
   -0.0400   22.5530  -28.3430 C   0  0  0  0  0  0  0  0  0  0  0  0
   -1.1910   23.3280  -28.1180 C   0  0  0  0  0  0  0  0  0  0  0  0
   -1.2360   24.7510  -28.5310 C   0  0  0  0  0  0  0  0  0  0  0  0
   -0.2820   25.5190  -28.2360 O   0  0  0  0  0  0  0  0  0  0  0  0
   -2.3210   25.2300  -29.3370 N   0  0  0  0  0  0  0  0  0  0  0  0
   -3.3030   24.4250  -30.0060 C   0  0  0  0  0  0  0  0  0  0  0  0
   -2.8630   23.3500  -30.8100 C   0  0  0  0  0  0  0  0  0  0  0  0
   -3.7850   22.5120  -31.4600 C   0  0  0  0  0  0  0  0  0  0  0  0
   -5.1480   22.7500  -31.2800 C   0  0  0  0  0  0  0  0  0  0  0  0
   -6.1430   22.0030  -31.8230 N   0  0  0  0  0  0  0  0  0  0  0  0
   -7.3620   22.4500  -31.4450 C   0  0  0  0  0  0  0  0  0  0  0  0
   -8.8990   21.6880  -31.9650 S   0  0  0  0  0  0  0  0  0  0  0  0
   -8.2970   19.9800  -31.7290 C   0  0  0  0  0  0  0  0  0  0  0  0
   -7.3960   19.5560  -32.8610 C   0  0  0  0  0  0  0  0  0  0  0  0
   -7.2360   20.3380  -33.8370 O   0  0  0  0  0  0  0  0  0  0  0  0
   -6.6970   18.3010  -32.8410 N   0  0  0  0  0  0  0  0  0  0  0  0
   -5.9110   17.8220  -33.9650 C   0  0  0  0  0  0  0  0  0  0  0  0
   -5.3760   16.4620  -33.5420 C   0  0  0  0  0  0  0  0  0  0  0  0
   -5.5360   16.4060  -32.0250 C   0  0  0  0  0  0  0  0  0  0  0  0
   -6.6180   17.4200  -31.6870 C   0  0  0  0  0  0  0  0  0  0  0  0
   -7.2590   23.7920  -30.4200 S   0  0  0  0  0  0  0  0  0  0  0  0
   -5.5780   23.7910  -30.4740 C   0  0  0  0  0  0  0  0  0  0  0  0
   -4.6880   24.6420  -29.8260 C   0  0  0  0  0  0  0  0  0  0  0  0
   -2.3020   22.7280  -27.4950 C   0  0  0  0  0  0  0  0  0  0  0  0
   -2.2690   21.3790  -27.1250 C   0  0  0  0  0  0  0  0  0  0  0  0
    0.2931   17.6639  -26.9957 H   0  0  0  0  0  0  0  0  0  0  0  0
   -0.8786   17.6585  -28.3572 H   0  0  0  0  0  0  0  0  0  0  0  0
    0.4931   18.8184  -28.3572 H   0  0  0  0  0  0  0  0  0  0  0  0
    0.9071   20.6159  -28.1396 H   0  0  0  0  0  0  0  0  0  0  0  0
    0.8398   23.0091  -28.8204 H   0  0  0  0  0  0  0  0  0  0  0  0
   -1.7849   23.1665  -30.9288 H   0  0  0  0  0  0  0  0  0  0  0  0
   -3.4392   21.6852  -32.0978 H   0  0  0  0  0  0  0  0  0  0  0  0
   -5.9900   21.1800  -32.4480 H   0  0  0  0  0  0  0  0  0  0  0  0
   -7.7359   19.9250  -30.7845 H   0  0  0  0  0  0  0  0  0  0  0  0
   -9.1657   19.3056  -31.7051 H   0  0  0  0  0  0  0  0  0  0  0  0
   -6.5421   17.7244  -34.8607 H   0  0  0  0  0  0  0  0  0  0  0  0
   -5.0976   18.5179  -34.2181 H   0  0  0  0  0  0  0  0  0  0  0  0
   -5.9554   15.6574  -34.0183 H   0  0  0  0  0  0  0  0  0  0  0  0
   -4.3268   16.3278  -33.8438 H   0  0  0  0  0  0  0  0  0  0  0  0
   -5.8428   15.3981  -31.7087 H   0  0  0  0  0  0  0  0  0  0  0  0
   -4.5916   16.6330  -31.5087 H   0  0  0  0  0  0  0  0  0  0  0  0
   -7.5810   16.9145  -31.5223 H   0  0  0  0  0  0  0  0  0  0  0  0
   -6.3856   17.9737  -30.7653 H   0  0  0  0  0  0  0  0  0  0  0  0
   -5.0528   25.4622  -29.1902 H   0  0  0  0  0  0  0  0  0  0  0  0
   -3.2043   23.3253  -27.2973 H   0  0  0  0  0  0  0  0  0  0  0  0
   -3.1456   20.9206  -26.6439 H   0  0  0  0  0  0  0  0  0  0  0  0
  1  2  1  0
  2  3  1  0
  3  4  2  0
  4  5  1  0
  5  6  2  0
  6  7  1  0
  7  8  2  0
  7  9  1  0
  9 10  1  0
 10 11  2  0
 11 12  1  0
 12 13  2  0
 13 14  1  0
 14 15  2  0
 15 16  1  0
 16 17  1  0
 17 18  1  0
 18 19  2  0
 18 20  1  0
 20 21  1  0
 21 22  1  0
 22 23  1  0
 23 24  1  0
 15 25  1  0
 25 26  1  0
 26 27  2  0
  6 28  1  0
 28 29  2  0
 29  3  1  0
 27 10  1  0
 26 13  1  0
 24 20  1  0
  1 30  1  0
  1 31  1  0
  1 32  1  0
  4 33  1  0
  5 34  1  0
 11 35  1  0
 12 36  1  0
 14 37  1  0
 17 38  1  0
 17 39  1  0
 21 40  1  0
 21 41  1  0
 22 42  1  0
 22 43  1  0
 23 44  1  0
 23 45  1  0
 24 46  1  0
 24 47  1  0
 27 48  1  0
 28 49  1  0
 29 50  1  0
M  CHG  2   9  -1  14   1
M  END
>  <UniqueID>  (43) 
41

>  <SMILES>  (43) 
COc1ccc(C(=O)[N-]c2ccc3[nH+]c(SCC(=O)N4CCCC4)sc3c2)cc1

>  <Energy>  (43) 
84.91982321087889

>  <Genealogy>  (43) 
COc1ccc(C(=O)[N-]c2ccc3[nH+]c(SCC(=O)N4CCCC4)sc3c2)cc1 (protonated)
COc1ccc(C(=O)[N-]c2ccc3[nH+]c(SCC(=O)N4CCCC4)sc3c2)cc1 (3D coordinates assigned)
COc1ccc(C(=O)[N-]c2ccc3[nH+]c(SCC(=O)N4CCCC4)sc3c2)cc1 (nonaromatic ring conformer: 84.91982321087889 kcal/mol)

>  <smiles>  (43) 
COc1ccc(C(=O)Nc2ccc3nc(SCC(=O)N4CCCC4)sc3c2)cc1

>  <score_type>  (43) 
oracle

>  <origin>  (43) 
adg

>  <m_score__min__energy>  (43) 
-10.869999999999999

>  <m_primary>  (43) 
energy

$$$$
43:0
     RDKit          3D

 40 42  0  0  0  0  0  0  0  0999 V2000
   -2.8940   20.7590  -33.2700 C   0  0  0  0  0  0  0  0  0  0  0  0
   -4.3830   20.6810  -33.1690 C   0  0  0  0  0  0  0  0  0  0  0  0
   -5.0940   21.6300  -32.4300 C   0  0  0  0  0  0  0  0  0  0  0  0
   -6.4920   21.5320  -32.3630 C   0  0  0  0  0  0  0  0  0  0  0  0
   -7.2850   22.5800  -31.5950 C   0  0  0  0  0  0  0  0  0  0  0  0
   -7.2440   22.2940  -30.0760 C   0  0  0  0  0  0  0  0  0  0  0  0
   -5.9100   22.7090  -29.4350 C   0  0  0  0  0  0  0  0  0  0  0  0
   -5.4290   24.0010  -29.9560 N   0  0  0  0  0  0  0  0  0  0  0  0
   -4.0250   24.3360  -29.8920 C   0  0  0  0  0  0  0  0  0  0  0  0
   -3.5040   24.9930  -30.8340 O   0  0  0  0  0  0  0  0  0  0  0  0
   -3.1750   23.9250  -28.7500 C   0  0  0  0  0  0  0  0  0  0  0  0
   -2.8740   22.5700  -28.5300 C   0  0  0  0  0  0  0  0  0  0  0  0
   -2.0550   22.2140  -27.4560 C   0  0  0  0  0  0  0  0  0  0  0  0
   -1.5380   23.2010  -26.6170 C   0  0  0  0  0  0  0  0  0  0  0  0
   -1.8480   24.5390  -26.8680 C   0  0  0  0  0  0  0  0  0  0  0  0
   -2.6470   24.8670  -27.9170 N   0  0  0  0  0  0  0  0  0  0  0  0
   -6.3460   24.8290  -30.7490 C   0  0  0  0  0  0  0  0  0  0  0  0
   -6.8630   24.0350  -31.9550 C   0  0  0  0  0  0  0  0  0  0  0  0
   -7.1180   20.5270  -33.0450 N   0  0  0  0  0  0  0  0  0  0  0  0
   -6.4090   19.6170  -33.7630 C   0  0  0  0  0  0  0  0  0  0  0  0
   -5.0550   19.6980  -33.8220 N   0  0  0  0  0  0  0  0  0  0  0  0
   -2.4587   20.7818  -32.2601 H   0  0  0  0  0  0  0  0  0  0  0  0
   -2.5167   19.8794  -33.8121 H   0  0  0  0  0  0  0  0  0  0  0  0
   -2.6107   21.6732  -33.8121 H   0  0  0  0  0  0  0  0  0  0  0  0
   -4.5656   22.4418  -31.9086 H   0  0  0  0  0  0  0  0  0  0  0  0
   -8.3356   22.5018  -31.9116 H   0  0  0  0  0  0  0  0  0  0  0  0
   -8.0578   22.8521  -29.5898 H   0  0  0  0  0  0  0  0  0  0  0  0
   -7.3585   21.2089  -29.9369 H   0  0  0  0  0  0  0  0  0  0  0  0
   -6.0492   22.7937  -28.3471 H   0  0  0  0  0  0  0  0  0  0  0  0
   -5.1605   21.9420  -29.6801 H   0  0  0  0  0  0  0  0  0  0  0  0
   -3.2800   21.7962  -29.1981 H   0  0  0  0  0  0  0  0  0  0  0  0
   -1.8179   21.1557  -27.2720 H   0  0  0  0  0  0  0  0  0  0  0  0
   -0.8939   22.9286  -25.7679 H   0  0  0  0  0  0  0  0  0  0  0  0
   -1.4452   25.3282  -26.2161 H   0  0  0  0  0  0  0  0  0  0  0  0
   -7.1968   25.1329  -30.1215 H   0  0  0  0  0  0  0  0  0  0  0  0
   -5.8087   25.7194  -31.1074 H   0  0  0  0  0  0  0  0  0  0  0  0
   -7.7358   24.5596  -32.3710 H   0  0  0  0  0  0  0  0  0  0  0  0
   -6.0384   23.9668  -32.6798 H   0  0  0  0  0  0  0  0  0  0  0  0
   -8.1570   20.4370  -33.0280 H   0  0  0  0  0  0  0  0  0  0  0  0
   -6.9338   18.8120  -34.2983 H   0  0  0  0  0  0  0  0  0  0  0  0
  1  2  1  0
  2  3  2  0
  3  4  1  0
  4  5  1  0
  5  6  1  0
  6  7  1  0
  7  8  1  0
  8  9  1  0
  9 10  2  0
  9 11  1  0
 11 12  2  0
 12 13  1  0
 13 14  2  0
 14 15  1  0
 15 16  2  0
  8 17  1  0
 17 18  1  0
  4 19  2  0
 19 20  1  0
 20 21  2  0
 21  2  1  0
 18  5  1  0
 16 11  1  0
  1 22  1  0
  1 23  1  0
  1 24  1  0
  3 25  1  0
  5 26  1  0
  6 27  1  0
  6 28  1  0
  7 29  1  0
  7 30  1  0
 12 31  1  0
 13 32  1  0
 14 33  1  0
 15 34  1  0
 17 35  1  0
 17 36  1  0
 18 37  1  0
 18 38  1  0
 19 39  1  0
 20 40  1  0
M  CHG  1  19   1
M  END
>  <UniqueID>  (44) 
42

>  <SMILES>  (44) 
Cc1cc(C2CCN(C(=O)c3ccccn3)CC2)[nH+]cn1

>  <Energy>  (44) 
48.98674795309156

>  <Genealogy>  (44) 
Cc1cc(C2CCN(C(=O)c3ccccn3)CC2)[nH+]cn1 (protonated)
Cc1cc(C2CCN(C(=O)c3ccccn3)CC2)[nH+]cn1 (3D coordinates assigned)
Cc1cc(C2CCN(C(=O)c3ccccn3)CC2)[nH+]cn1 (nonaromatic ring conformer: 48.98674795309156 kcal/mol)

>  <smiles>  (44) 
Cc1cc(C2CCN(C(=O)c3ccccn3)CC2)ncn1

>  <score_type>  (44) 
oracle

>  <origin>  (44) 
adg

>  <m_score__min__energy>  (44) 
-7.0499999999999998

>  <m_primary>  (44) 
energy

$$$$
44:0
     RDKit          3D

 73 76  0  0  0  0  0  0  0  0999 V2000
   -8.3420   20.2790  -31.5750 C   0  0  0  0  0  0  0  0  0  0  0  0
   -8.2840   19.2660  -32.7220 C   0  0  0  0  0  0  0  0  0  0  0  0
   -7.1100   18.3600  -32.6760 N   0  0  0  0  0  0  0  0  0  0  0  0
   -6.3240   18.4240  -31.4190 C   0  0  0  0  0  0  0  0  0  0  0  0
   -6.1040   17.0650  -30.7360 C   0  0  0  0  0  0  0  0  0  0  0  0
   -7.3340   17.0080  -33.2330 C   0  0  0  0  0  0  0  0  0  0  0  0
   -6.0590   16.4790  -33.9040 C   0  0  0  0  0  0  0  0  0  0  0  0
   -5.5790   17.4360  -35.0100 C   0  0  0  0  0  0  0  0  0  0  0  0
   -4.1090   17.4730  -35.1140 N   0  0  0  0  0  0  0  0  0  0  0  0
   -3.5350   18.4010  -34.1650 C   0  0  0  0  0  0  0  0  0  0  0  0
   -2.2020   18.2540  -33.7540 C   0  0  0  0  0  0  0  0  0  0  0  0
   -1.6290   19.1670  -32.8690 C   0  0  0  0  0  0  0  0  0  0  0  0
   -2.3780   20.2500  -32.3790 C   0  0  0  0  0  0  0  0  0  0  0  0
   -3.7220   20.4040  -32.7790 C   0  0  0  0  0  0  0  0  0  0  0  0
   -4.2900   19.4750  -33.6690 C   0  0  0  0  0  0  0  0  0  0  0  0
   -4.5210   21.5420  -32.2650 C   0  0  0  0  0  0  0  0  0  0  0  0
   -5.7310   21.6710  -32.6030 O   0  0  0  0  0  0  0  0  0  0  0  0
   -3.9030   22.5260  -31.3430 C   0  0  0  0  0  0  0  0  0  0  0  0
   -4.6520   23.6070  -30.8440 C   0  0  0  0  0  0  0  0  0  0  0  0
   -4.0650   24.5350  -29.9800 C   0  0  0  0  0  0  0  0  0  0  0  0
   -2.7220   24.4130  -29.6180 C   0  0  0  0  0  0  0  0  0  0  0  0
   -2.1470   25.3690  -28.7150 N   0  0  0  0  0  0  0  0  0  0  0  0
   -1.8850   25.1420  -27.3260 C   0  0  0  0  0  0  0  0  0  0  0  0
   -2.7170   25.5550  -26.4770 O   0  0  0  0  0  0  0  0  0  0  0  0
   -0.5890   24.4980  -26.8580 C   0  0  0  0  0  0  0  0  0  0  0  0
   -0.6330   23.0050  -26.7240 N   0  0  0  0  0  0  0  0  0  0  0  0
   -0.3290   22.6960  -25.2960 C   0  0  0  0  0  0  0  0  0  0  0  0
    0.4020   22.3670  -27.5980 C   0  0  0  0  0  0  0  0  0  0  0  0
    0.0210   20.9390  -28.0420 C   0  0  0  0  0  0  0  0  0  0  0  0
   -0.7900   20.3040  -27.0770 O   0  0  0  0  0  0  0  0  0  0  0  0
   -2.0570   20.9330  -27.0020 C   0  0  0  0  0  0  0  0  0  0  0  0
   -1.9890   22.4800  -27.0620 C   0  0  0  0  0  0  0  0  0  0  0  0
   -1.9750   23.3200  -30.0840 C   0  0  0  0  0  0  0  0  0  0  0  0
   -2.5560   22.3770  -30.9520 C   0  0  0  0  0  0  0  0  0  0  0  0
   -1.7630   21.2310  -31.4550 C   0  0  0  0  0  0  0  0  0  0  0  0
   -0.5630   21.0930  -31.0980 O   0  0  0  0  0  0  0  0  0  0  0  0
   -8.3115   19.7460  -30.6132 H   0  0  0  0  0  0  0  0  0  0  0  0
   -7.4814   20.9606  -31.6439 H   0  0  0  0  0  0  0  0  0  0  0  0
   -9.2748   20.8580  -31.6439 H   0  0  0  0  0  0  0  0  0  0  0  0
   -9.1955   18.6513  -32.6855 H   0  0  0  0  0  0  0  0  0  0  0  0
   -8.1980   19.8470  -33.6521 H   0  0  0  0  0  0  0  0  0  0  0  0
   -5.3391   18.8555  -31.6510 H   0  0  0  0  0  0  0  0  0  0  0  0
   -6.9069   19.0371  -30.7160 H   0  0  0  0  0  0  0  0  0  0  0  0
   -6.1252   17.1958  -29.6440 H   0  0  0  0  0  0  0  0  0  0  0  0
   -6.9013   16.3697  -31.0376 H   0  0  0  0  0  0  0  0  0  0  0  0
   -5.1281   16.6568  -31.0376 H   0  0  0  0  0  0  0  0  0  0  0  0
   -7.6236   16.3260  -32.4199 H   0  0  0  0  0  0  0  0  0  0  0  0
   -8.1329   17.0643  -33.9870 H   0  0  0  0  0  0  0  0  0  0  0  0
   -5.2682   16.3802  -33.1458 H   0  0  0  0  0  0  0  0  0  0  0  0
   -6.2819   15.5024  -34.3585 H   0  0  0  0  0  0  0  0  0  0  0  0
   -5.9941   17.1020  -35.9724 H   0  0  0  0  0  0  0  0  0  0  0  0
   -5.9254   18.4484  -34.7548 H   0  0  0  0  0  0  0  0  0  0  0  0
   -3.8490   17.7770  -36.0820 H   0  0  0  0  0  0  0  0  0  0  0  0
   -3.7130   16.5120  -34.9790 H   0  0  0  0  0  0  0  0  0  0  0  0
   -1.6039   17.4121  -34.1327 H   0  0  0  0  0  0  0  0  0  0  0  0
   -0.5834   19.0383  -32.5524 H   0  0  0  0  0  0  0  0  0  0  0  0
   -5.3386   19.5916  -33.9801 H   0  0  0  0  0  0  0  0  0  0  0  0
   -5.7063   23.7225  -31.1358 H   0  0  0  0  0  0  0  0  0  0  0  0
   -4.6647   25.3670  -29.5824 H   0  0  0  0  0  0  0  0  0  0  0  0
    0.1988   24.7521  -27.5824 H   0  0  0  0  0  0  0  0  0  0  0  0
   -0.3988   24.8908  -25.8483 H   0  0  0  0  0  0  0  0  0  0  0  0
   -0.9503   23.3275  -24.6439 H   0  0  0  0  0  0  0  0  0  0  0  0
   -0.5466   21.6365  -25.0958 H   0  0  0  0  0  0  0  0  0  0  0  0
    0.7339   22.8963  -25.0958 H   0  0  0  0  0  0  0  0  0  0  0  0
    0.5345   22.9892  -28.4954 H   0  0  0  0  0  0  0  0  0  0  0  0
    1.3281   22.2918  -27.0092 H   0  0  0  0  0  0  0  0  0  0  0  0
   -0.5289   20.9936  -28.9931 H   0  0  0  0  0  0  0  0  0  0  0  0
    0.9444   20.3531  -28.1611 H   0  0  0  0  0  0  0  0  0  0  0  0
   -2.6706   20.5795  -27.8437 H   0  0  0  0  0  0  0  0  0  0  0  0
   -2.4903   20.6679  -26.0263 H   0  0  0  0  0  0  0  0  0  0  0  0
   -2.2500   22.8056  -28.0798 H   0  0  0  0  0  0  0  0  0  0  0  0
   -2.6961   22.8753  -26.3178 H   0  0  0  0  0  0  0  0  0  0  0  0
   -0.9281   23.1997  -29.7685 H   0  0  0  0  0  0  0  0  0  0  0  0
  1  2  1  0
  2  3  1  0
  3  4  1  0
  4  5  1  0
  3  6  1  0
  6  7  1  0
  7  8  1  0
  8  9  1  0
  9 10  1  0
 10 11  2  0
 11 12  1  0
 12 13  2  0
 13 14  1  0
 14 15  2  0
 14 16  1  0
 16 17  2  0
 16 18  1  0
 18 19  2  0
 19 20  1  0
 20 21  2  0
 21 22  1  0
 22 23  1  0
 23 24  2  0
 23 25  1  0
 25 26  1  0
 26 27  1  0
 26 28  1  0
 28 29  1  0
 29 30  1  0
 30 31  1  0
 31 32  1  0
 21 33  1  0
 33 34  2  0
 34 35  1  0
 35 36  2  0
 15 10  1  0
 34 18  1  0
 35 13  1  0
 32 26  1  0
  1 37  1  0
  1 38  1  0
  1 39  1  0
  2 40  1  0
  2 41  1  0
  4 42  1  0
  4 43  1  0
  5 44  1  0
  5 45  1  0
  5 46  1  0
  6 47  1  0
  6 48  1  0
  7 49  1  0
  7 50  1  0
  8 51  1  0
  8 52  1  0
  9 53  1  0
  9 54  1  0
 11 55  1  0
 12 56  1  0
 15 57  1  0
 19 58  1  0
 20 59  1  0
 25 60  1  0
 25 61  1  0
 27 62  1  0
 27 63  1  0
 27 64  1  0
 28 65  1  0
 28 66  1  0
 29 67  1  0
 29 68  1  0
 31 69  1  0
 31 70  1  0
 32 71  1  0
 32 72  1  0
 33 73  1  0
M  CHG  3   9   1  22  -1  26   1
M  END
>  <UniqueID>  (45) 
43

>  <SMILES>  (45) 
CCN(CC)CCC[NH2+]c1ccc2c(c1)C(=O)c1ccc([N-]C(=O)C[N+]3(C)CCOCC3)cc1C2=O

>  <Energy>  (45) 
111.30603773347318

>  <Genealogy>  (45) 
CCN(CC)CCC[NH2+]c1ccc2c(c1)C(=O)c1ccc([N-]C(=O)C[N+]3(C)CCOCC3)cc1C2=O (protonated)
CCN(CC)CCC[NH2+]c1ccc2c(c1)C(=O)c1ccc([N-]C(=O)C[N+]3(C)CCOCC3)cc1C2=O (3D coordinates assigned)
CCN(CC)CCC[NH2+]c1ccc2c(c1)C(=O)c1ccc([N-]C(=O)C[N+]3(C)CCOCC3)cc1C2=O (nonaromatic ring conformer: 111.30603773347318 kcal/mol)

>  <smiles>  (45) 
CCN(CC)CCCNc1ccc2c(c1)C(=O)c1ccc(NC(=O)C[N+]3(C)CCOCC3)cc1C2=O

>  <score_type>  (45) 
oracle

>  <origin>  (45) 
adg

>  <m_score__min__energy>  (45) 
-10.42

>  <m_primary>  (45) 
energy

$$$$
45:0
     RDKit          3D

 44 47  0  0  0  0  0  0  0  0999 V2000
   -4.8300   24.7150  -28.5980 O   0  0  0  0  0  0  0  0  0  0  0  0
   -4.5590   24.1090  -29.9480 S   0  0  0  0  0  0  0  0  0  0  0  0
   -3.9560   25.1590  -30.8390 O   0  0  0  0  0  0  0  0  0  0  0  0
   -6.0590   23.5180  -30.6560 C   0  0  0  0  0  0  0  0  0  0  0  0
   -6.8950   22.6580  -29.9270 C   0  0  0  0  0  0  0  0  0  0  0  0
   -8.0860   22.1890  -30.4920 C   0  0  0  0  0  0  0  0  0  0  0  0
   -8.4440   22.5720  -31.7880 C   0  0  0  0  0  0  0  0  0  0  0  0
   -7.6110   23.4210  -32.5220 C   0  0  0  0  0  0  0  0  0  0  0  0
   -6.4200   23.8920  -31.9600 C   0  0  0  0  0  0  0  0  0  0  0  0
   -3.4280   22.7810  -29.7390 C   0  0  0  0  0  0  0  0  0  0  0  0
   -3.3800   22.1260  -28.5510 N   0  0  0  0  0  0  0  0  0  0  0  0
   -2.5500   21.0690  -28.3650 C   0  0  0  0  0  0  0  0  0  0  0  0
   -2.5300   20.4080  -27.1330 C   0  0  0  0  0  0  0  0  0  0  0  0
   -1.6890   19.3090  -26.9400 C   0  0  0  0  0  0  0  0  0  0  0  0
   -0.8590   18.8720  -27.9770 C   0  0  0  0  0  0  0  0  0  0  0  0
   -0.8700   19.5280  -29.2110 C   0  0  0  0  0  0  0  0  0  0  0  0
   -1.7230   20.6280  -29.4210 C   0  0  0  0  0  0  0  0  0  0  0  0
   -1.8090   21.3080  -30.6540 C   0  0  0  0  0  0  0  0  0  0  0  0
   -0.8810   20.7710  -32.1060 S   0  0  0  0  0  0  0  0  0  0  0  0
   -2.1720   21.2570  -33.3080 C   0  0  0  0  0  0  0  0  0  0  0  0
   -3.4580   20.5200  -33.0580 C   0  0  0  0  0  0  0  0  0  0  0  0
   -3.4650   19.1210  -32.9310 C   0  0  0  0  0  0  0  0  0  0  0  0
   -4.6710   18.4350  -32.7610 C   0  0  0  0  0  0  0  0  0  0  0  0
   -5.8770   19.1390  -32.7140 C   0  0  0  0  0  0  0  0  0  0  0  0
   -7.0470   18.4720  -32.5610 F   0  0  0  0  0  0  0  0  0  0  0  0
   -5.8780   20.5320  -32.8340 C   0  0  0  0  0  0  0  0  0  0  0  0
   -4.6750   21.2220  -33.0090 C   0  0  0  0  0  0  0  0  0  0  0  0
   -2.6450   22.3750  -30.7750 N   0  0  0  0  0  0  0  0  0  0  0  0
   -6.6131   22.3519  -28.9087 H   0  0  0  0  0  0  0  0  0  0  0  0
   -8.7410   21.5186  -29.9162 H   0  0  0  0  0  0  0  0  0  0  0  0
   -9.3819   22.2049  -32.2303 H   0  0  0  0  0  0  0  0  0  0  0  0
   -7.8924   23.7191  -33.5428 H   0  0  0  0  0  0  0  0  0  0  0  0
   -5.7645   24.5572  -32.5413 H   0  0  0  0  0  0  0  0  0  0  0  0
   -3.1777   20.7539  -26.3140 H   0  0  0  0  0  0  0  0  0  0  0  0
   -1.6798   18.7872  -25.9717 H   0  0  0  0  0  0  0  0  0  0  0  0
   -0.1951   18.0089  -27.8210 H   0  0  0  0  0  0  0  0  0  0  0  0
   -0.2100   19.1837  -30.0208 H   0  0  0  0  0  0  0  0  0  0  0  0
   -2.3556   22.3379  -33.2189 H   0  0  0  0  0  0  0  0  0  0  0  0
   -1.8181   21.0037  -34.3182 H   0  0  0  0  0  0  0  0  0  0  0  0
   -2.5176   18.5631  -32.9655 H   0  0  0  0  0  0  0  0  0  0  0  0
   -4.6706   17.3393  -32.6641 H   0  0  0  0  0  0  0  0  0  0  0  0
   -6.8273   21.0860  -32.7906 H   0  0  0  0  0  0  0  0  0  0  0  0
   -4.6806   22.3175  -33.1087 H   0  0  0  0  0  0  0  0  0  0  0  0
   -2.7090   22.8700  -31.6930 H   0  0  0  0  0  0  0  0  0  0  0  0
  1  2  2  0
  2  3  2  0
  2  4  1  0
  4  5  2  0
  5  6  1  0
  6  7  2  0
  7  8  1  0
  8  9  2  0
  2 10  1  0
 10 11  2  0
 11 12  1  0
 12 13  2  0
 13 14  1  0
 14 15  2  0
 15 16  1  0
 16 17  2  0
 17 18  1  0
 18 19  1  0
 19 20  1  0
 20 21  1  0
 21 22  2  0
 22 23  1  0
 23 24  2  0
 24 25  1  0
 24 26  1  0
 26 27  2  0
 18 28  2  0
  9  4  1  0
 28 10  1  0
 17 12  1  0
 27 21  1  0
  5 29  1  0
  6 30  1  0
  7 31  1  0
  8 32  1  0
  9 33  1  0
 13 34  1  0
 14 35  1  0
 15 36  1  0
 16 37  1  0
 20 38  1  0
 20 39  1  0
 22 40  1  0
 23 41  1  0
 26 42  1  0
 27 43  1  0
 28 44  1  0
M  CHG  1  28   1
M  END
>  <UniqueID>  (46) 
44

>  <SMILES>  (46) 
O=S(=O)(c1ccccc1)c1nc2ccccc2c(SCc2ccc(F)cc2)[nH+]1

>  <Energy>  (46) 
47.51581618703426

>  <Genealogy>  (46) 
O=S(=O)(c1ccccc1)c1nc2ccccc2c(SCc2ccc(F)cc2)[nH+]1 (protonated)
O=S(=O)(c1ccccc1)c1nc2ccccc2c(SCc2ccc(F)cc2)[nH+]1 (3D coordinates assigned)
O=S(=O)(c1ccccc1)c1nc2ccccc2c(SCc2ccc(F)cc2)[nH+]1 (optimized conformer: 47.51581618703426 kcal/mol)

>  <smiles>  (46) 
O=S(=O)(c1ccccc1)c1nc(SCc2ccc(F)cc2)c2ccccc2n1

>  <score_type>  (46) 
oracle

>  <origin>  (46) 
adg

>  <m_score__min__energy>  (46) 
-9.0700000000000003

>  <m_primary>  (46) 
energy

$$$$
46:0
     RDKit          3D

 44 44  0  0  0  0  0  0  0  0999 V2000
   -6.2360   25.3000  -29.6410 C   0  0  0  0  0  0  0  0  0  0  0  0
   -5.3340   25.6770  -30.8110 C   0  0  0  0  0  0  0  0  0  0  0  0
   -3.9910   25.2570  -30.5720 O   0  0  0  0  0  0  0  0  0  0  0  0
   -3.5990   24.0830  -29.9030 C   0  0  0  0  0  0  0  0  0  0  0  0
   -3.1160   24.1080  -28.5780 C   0  0  0  0  0  0  0  0  0  0  0  0
   -2.7300   22.9280  -27.9430 C   0  0  0  0  0  0  0  0  0  0  0  0
   -2.8180   21.7120  -28.6150 C   0  0  0  0  0  0  0  0  0  0  0  0
   -3.2900   21.6690  -29.9280 C   0  0  0  0  0  0  0  0  0  0  0  0
   -3.6810   22.8510  -30.5890 C   0  0  0  0  0  0  0  0  0  0  0  0
   -4.1780   22.8230  -31.9450 N   0  0  0  0  0  0  0  0  0  0  0  0
   -4.1350   21.6540  -32.8260 C   0  0  0  0  0  0  0  0  0  0  0  0
   -5.2060   20.6340  -32.4200 C   0  0  0  0  0  0  0  0  0  0  0  0
   -6.6140   21.1590  -32.7230 C   0  0  0  0  0  0  0  0  0  0  0  0
   -7.4900   20.9770  -31.5420 N   0  0  0  0  0  0  0  0  0  0  0  0
   -8.7210   20.2340  -31.8990 C   0  0  0  0  0  0  0  0  0  0  0  0
   -8.3760   18.8120  -32.3330 C   0  0  0  0  0  0  0  0  0  0  0  0
   -7.8140   22.2770  -30.9100 C   0  0  0  0  0  0  0  0  0  0  0  0
   -7.9120   23.3680  -31.9710 C   0  0  0  0  0  0  0  0  0  0  0  0
   -5.7186   25.5162  -28.6947 H   0  0  0  0  0  0  0  0  0  0  0  0
   -7.1664   25.8846  -29.6921 H   0  0  0  0  0  0  0  0  0  0  0  0
   -6.4737   24.2272  -29.6921 H   0  0  0  0  0  0  0  0  0  0  0  0
   -5.7066   25.1909  -31.7247 H   0  0  0  0  0  0  0  0  0  0  0  0
   -5.3458   26.7708  -30.9269 H   0  0  0  0  0  0  0  0  0  0  0  0
   -3.0433   25.0655  -28.0415 H   0  0  0  0  0  0  0  0  0  0  0  0
   -2.3553   22.9581  -26.9092 H   0  0  0  0  0  0  0  0  0  0  0  0
   -2.5149   20.7829  -28.1102 H   0  0  0  0  0  0  0  0  0  0  0  0
   -3.3574   20.7040  -30.4516 H   0  0  0  0  0  0  0  0  0  0  0  0
   -4.6160   23.6860  -32.3420 H   0  0  0  0  0  0  0  0  0  0  0  0
   -4.3158   21.9752  -33.8624 H   0  0  0  0  0  0  0  0  0  0  0  0
   -3.1450   21.1820  -32.7418 H   0  0  0  0  0  0  0  0  0  0  0  0
   -5.0430   19.7007  -32.9789 H   0  0  0  0  0  0  0  0  0  0  0  0
   -5.1257   20.4565  -31.3374 H   0  0  0  0  0  0  0  0  0  0  0  0
   -6.5575   22.2288  -32.9728 H   0  0  0  0  0  0  0  0  0  0  0  0
   -7.0326   20.5982  -33.5717 H   0  0  0  0  0  0  0  0  0  0  0  0
   -9.3873   20.1947  -31.0246 H   0  0  0  0  0  0  0  0  0  0  0  0
   -9.2210   20.7503  -32.7317 H   0  0  0  0  0  0  0  0  0  0  0  0
   -8.2236   18.1838  -31.4430 H   0  0  0  0  0  0  0  0  0  0  0  0
   -9.2007   18.4019  -32.9344 H   0  0  0  0  0  0  0  0  0  0  0  0
   -7.4551   18.8254  -32.9344 H   0  0  0  0  0  0  0  0  0  0  0  0
   -8.7760   22.1951  -30.3830 H   0  0  0  0  0  0  0  0  0  0  0  0
   -7.0172   22.5388  -30.1983 H   0  0  0  0  0  0  0  0  0  0  0  0
   -8.0001   24.3490  -31.4812 H   0  0  0  0  0  0  0  0  0  0  0  0
   -7.0087   23.3513  -32.5986 H   0  0  0  0  0  0  0  0  0  0  0  0
   -8.7978   23.1906  -32.5986 H   0  0  0  0  0  0  0  0  0  0  0  0
  1  2  1  0
  2  3  1  0
  3  4  1  0
  4  5  2  0
  5  6  1  0
  6  7  2  0
  7  8  1  0
  8  9  2  0
  9 10  1  0
 10 11  1  0
 11 12  1  0
 12 13  1  0
 13 14  1  0
 14 15  1  0
 15 16  1  0
 14 17  1  0
 17 18  1  0
  9  4  1  0
  1 19  1  0
  1 20  1  0
  1 21  1  0
  2 22  1  0
  2 23  1  0
  5 24  1  0
  6 25  1  0
  7 26  1  0
  8 27  1  0
 10 28  1  0
 11 29  1  0
 11 30  1  0
 12 31  1  0
 12 32  1  0
 13 33  1  0
 13 34  1  0
 15 35  1  0
 15 36  1  0
 16 37  1  0
 16 38  1  0
 16 39  1  0
 17 40  1  0
 17 41  1  0
 18 42  1  0
 18 43  1  0
 18 44  1  0
M  END
>  <UniqueID>  (47) 
45

>  <SMILES>  (47) 
CCOc1ccccc1NCCCN(CC)CC

>  <Energy>  (47) 
34.75079425576671

>  <Genealogy>  (47) 
CCOc1ccccc1NCCCN(CC)CC (3D coordinates assigned)
CCOc1ccccc1NCCCN(CC)CC (optimized conformer: 34.75079425576671 kcal/mol)

>  <smiles>  (47) 
CCOc1ccccc1NCCCN(CC)CC

>  <score_type>  (47) 
oracle

>  <origin>  (47) 
adg

>  <m_score__min__energy>  (47) 
-6.29

>  <m_primary>  (47) 
energy

$$$$
47:0
     RDKit          3D

 66 69  0  0  1  0  0  0  0  0999 V2000
   -0.8510   24.7870  -26.6470 C   0  0  0  0  0  0  0  0  0  0  0  0
   -1.9880   25.2940  -27.4870 C   0  0  0  0  0  0  0  0  0  0  0  0
   -2.7280   24.2360  -28.0600 N   0  0  0  0  0  0  0  0  0  0  0  0
   -3.9590   23.8380  -27.3240 C   0  0  0  0  0  0  0  0  0  0  0  0
   -4.2020   24.9370  -26.3270 C   0  0  0  0  0  0  0  0  0  0  0  0
   -2.4470   23.4500  -29.2000 C   0  0  0  0  0  0  0  0  0  0  0  0
   -1.2150   22.8640  -29.3590 C   0  0  0  0  0  0  0  0  0  0  0  0
   -1.2690   22.1730  -30.5200 C   0  0  0  0  0  0  0  0  0  0  0  0
   -0.3020   21.4690  -31.1400 N   0  0  0  0  0  0  0  0  0  0  0  0
   -0.4920   20.8590  -32.3300 C   0  0  0  0  0  0  0  0  0  0  0  0
   -1.7440   20.9820  -32.8860 C   0  0  0  0  0  0  0  0  0  0  0  0
   -2.6850   21.7100  -32.1970 C   0  0  0  0  0  0  0  0  0  0  0  0
   -3.8790   21.5300  -32.5360 N   0  0  0  0  0  0  0  0  0  0  0  0
   -5.0320   20.9930  -32.1760 C   0  0  0  0  0  0  0  0  0  0  0  0
   -5.2490   20.0490  -33.5020 C   0  0  0  0  0  0  0  0  0  0  0  0
   -6.6030   19.4990  -33.4320 C   0  0  0  0  0  0  0  0  0  0  0  0
   -7.1420   19.6730  -32.1020 N   0  0  0  0  0  0  0  0  0  0  0  0
   -8.2850   18.8630  -31.8140 C   0  0  0  0  0  0  0  0  0  0  0  0
   -7.5140   21.0880  -32.0410 C   0  0  0  0  0  0  0  0  0  0  0  0
   -6.2560   21.9180  -32.3800 C   0  0  0  0  0  0  0  0  0  0  0  0
   -2.5160   22.3400  -31.0370 N   0  0  0  0  0  0  0  0  0  0  0  0
   -3.2880   23.1100  -30.3080 C   0  0  0  0  0  0  0  0  0  0  0  0
   -4.5330   23.8450  -30.3390 C   0  0  0  0  0  0  0  0  0  0  0  0
   -4.1960   25.2350  -30.7630 O   0  0  0  0  0  0  0  0  0  0  0  0
   -5.3710   25.9340  -30.5190 C   0  0  0  0  0  0  0  0  0  0  0  0
   -2.0400   20.3530  -34.1970 C   0  0  0  0  0  0  0  0  0  0  0  0
   -0.7850   20.0160  -34.9340 C   0  0  0  0  0  0  0  0  0  0  0  0
    0.1990   19.2740  -34.0420 C   0  0  0  0  0  0  0  0  0  0  0  0
    0.6500   20.1370  -32.9080 C   0  0  0  0  0  0  0  0  0  0  0  0
   -1.1032   24.8995  -25.5822 H   0  0  0  0  0  0  0  0  0  0  0  0
   -0.6743   23.7248  -26.8718 H   0  0  0  0  0  0  0  0  0  0  0  0
    0.0573   25.3654  -26.8718 H   0  0  0  0  0  0  0  0  0  0  0  0
   -2.6576   25.8955  -26.8546 H   0  0  0  0  0  0  0  0  0  0  0  0
   -1.5672   25.8990  -28.3036 H   0  0  0  0  0  0  0  0  0  0  0  0
   -4.8098   23.7512  -28.0159 H   0  0  0  0  0  0  0  0  0  0  0  0
   -3.8441   22.8598  -26.8342 H   0  0  0  0  0  0  0  0  0  0  0  0
   -4.1128   24.5336  -25.3076 H   0  0  0  0  0  0  0  0  0  0  0  0
   -3.4585   25.7346  -26.4720 H   0  0  0  0  0  0  0  0  0  0  0  0
   -5.2125   25.3468  -26.4720 H   0  0  0  0  0  0  0  0  0  0  0  0
   -0.3552   22.9414  -28.6773 H   0  0  0  0  0  0  0  0  0  0  0  0
    0.6400   21.3830  -30.6920 H   0  0  0  0  0  0  0  0  0  0  0  0
   -4.9886   20.6261  -31.1399 H   0  0  0  0  0  0  0  0  0  0  0  0
   -5.1349   20.6517  -34.4151 H   0  0  0  0  0  0  0  0  0  0  0  0
   -4.5030   19.2411  -33.5293 H   0  0  0  0  0  0  0  0  0  0  0  0
   -7.2456   20.0212  -34.1561 H   0  0  0  0  0  0  0  0  0  0  0  0
   -6.5680   18.4253  -33.6685 H   0  0  0  0  0  0  0  0  0  0  0  0
   -8.4076   18.7761  -30.7243 H   0  0  0  0  0  0  0  0  0  0  0  0
   -9.1825   19.3278  -32.2481 H   0  0  0  0  0  0  0  0  0  0  0  0
   -8.1439   17.8622  -32.2481 H   0  0  0  0  0  0  0  0  0  0  0  0
   -8.3097   21.2982  -32.7708 H   0  0  0  0  0  0  0  0  0  0  0  0
   -7.8879   21.3458  -31.0391 H   0  0  0  0  0  0  0  0  0  0  0  0
   -6.3001   22.2606  -33.4243 H   0  0  0  0  0  0  0  0  0  0  0  0
   -6.1874   22.8063  -31.7348 H   0  0  0  0  0  0  0  0  0  0  0  0
   -5.2269   23.3862  -31.0587 H   0  0  0  0  0  0  0  0  0  0  0  0
   -5.0227   23.8381  -29.3541 H   0  0  0  0  0  0  0  0  0  0  0  0
   -5.5246   26.0254  -29.4336 H   0  0  0  0  0  0  0  0  0  0  0  0
   -5.3003   26.9370  -30.9651 H   0  0  0  0  0  0  0  0  0  0  0  0
   -6.2187   25.3932  -30.9651 H   0  0  0  0  0  0  0  0  0  0  0  0
   -2.6159   19.4308  -34.0299 H   0  0  0  0  0  0  0  0  0  0  0  0
   -2.6164   21.0680  -34.8025 H   0  0  0  0  0  0  0  0  0  0  0  0
   -1.0357   19.3809  -35.7964 H   0  0  0  0  0  0  0  0  0  0  0  0
   -0.3144   20.9538  -35.2642 H   0  0  0  0  0  0  0  0  0  0  0  0
   -0.2892   18.3750  -33.6378 H   0  0  0  0  0  0  0  0  0  0  0  0
    1.0778   18.9980  -34.6433 H   0  0  0  0  0  0  0  0  0  0  0  0
    1.1103   19.5064  -32.1331 H   0  0  0  0  0  0  0  0  0  0  0  0
    1.3816   20.8674  -33.2837 H   0  0  0  0  0  0  0  0  0  0  0  0
  1  2  1  0
  2  3  1  0
  3  4  1  0
  4  5  1  0
  3  6  1  0
  6  7  1  0
  7  8  2  0
  8  9  1  0
  9 10  1  0
 10 11  2  0
 11 12  1  0
 12 13  2  0
 13 14  1  0
 14 15  1  0
 15 16  1  0
 16 17  1  0
 17 18  1  0
 17 19  1  0
 19 20  1  0
 12 21  1  0
 21 22  1  0
 22 23  1  0
 23 24  1  0
 24 25  1  0
 11 26  1  0
 26 27  1  0
 27 28  1  0
 28 29  1  0
 22  6  2  0
 21  8  1  0
 29 10  1  0
 20 14  1  0
  1 30  1  0
  1 31  1  0
  1 32  1  0
  2 33  1  0
  2 34  1  0
  4 35  1  0
  4 36  1  0
  5 37  1  0
  5 38  1  0
  5 39  1  0
  7 40  1  0
  9 41  1  0
 14 42  1  0
 15 43  1  0
 15 44  1  0
 16 45  1  0
 16 46  1  0
 18 47  1  0
 18 48  1  0
 18 49  1  0
 19 50  1  0
 19 51  1  0
 20 52  1  0
 20 53  1  0
 23 54  1  0
 23 55  1  0
 25 56  1  0
 25 57  1  0
 25 58  1  0
 26 59  1  0
 26 60  1  0
 27 61  1  0
 27 62  1  0
 28 63  1  0
 28 64  1  0
 29 65  1  0
 29 66  1  0
M  END
>  <smiles>  (48) 
CCN(CC)c1cc2[nH]c3c(c(=NC4CCN(C)CC4)n2c1COC)CCCC3

>  <score_type>  (48) 
oracle

>  <origin>  (48) 
adg

>  <m_score__min__energy>  (48) 
-8.6600000000000001

>  <m_primary>  (48) 
energy

$$$$
48:0
     RDKit          3D

 45 46  0  0  0  0  0  0  0  0999 V2000
   -3.8660   19.1310  -33.6460 C   0  0  0  0  0  0  0  0  0  0  0  0
   -5.2730   18.7620  -33.3950 N   0  0  0  0  0  0  0  0  0  0  0  0
   -6.0650   18.9910  -34.6170 C   0  0  0  0  0  0  0  0  0  0  0  0
   -5.4080   17.3440  -32.9720 C   0  0  0  0  0  0  0  0  0  0  0  0
   -6.0950   17.1710  -31.5980 C   0  0  0  0  0  0  0  0  0  0  0  0
   -6.8790   18.3560  -31.2220 N   0  0  0  0  0  0  0  0  0  0  0  0
   -8.0890   18.5070  -32.0410 C   0  0  0  0  0  0  0  0  0  0  0  0
   -8.8080   19.8050  -31.6470 C   0  0  0  0  0  0  0  0  0  0  0  0
   -8.1200   21.0480  -32.2280 C   0  0  0  0  0  0  0  0  0  0  0  0
   -6.7350   21.0820  -31.8740 O   0  0  0  0  0  0  0  0  0  0  0  0
   -6.0250   22.2400  -31.5070 C   0  0  0  0  0  0  0  0  0  0  0  0
   -6.5860   23.5190  -31.6420 C   0  0  0  0  0  0  0  0  0  0  0  0
   -5.8400   24.6440  -31.2980 C   0  0  0  0  0  0  0  0  0  0  0  0
   -4.5700   24.5200  -30.8280 N   0  0  0  0  0  0  0  0  0  0  0  0
   -3.8760   25.6670  -30.5130 O   0  0  0  0  0  0  0  0  0  0  0  0
   -3.9900   23.2890  -30.6720 C   0  0  0  0  0  0  0  0  0  0  0  0
   -2.6700   23.1680  -30.1970 C   0  0  0  0  0  0  0  0  0  0  0  0
   -2.0790   21.9090  -30.0600 C   0  0  0  0  0  0  0  0  0  0  0  0
   -0.4270   21.7740  -29.4860 Cl  0  0  0  0  0  0  0  0  0  0  0  0
   -2.7980   20.7590  -30.3870 C   0  0  0  0  0  0  0  0  0  0  0  0
   -4.1110   20.8580  -30.8520 C   0  0  0  0  0  0  0  0  0  0  0  0
   -4.7190   22.1180  -31.0020 C   0  0  0  0  0  0  0  0  0  0  0  0
   -3.3459   19.2674  -32.6864 H   0  0  0  0  0  0  0  0  0  0  0  0
   -3.3739   18.3315  -34.2193 H   0  0  0  0  0  0  0  0  0  0  0  0
   -3.8296   20.0691  -34.2193 H   0  0  0  0  0  0  0  0  0  0  0  0
   -5.6570   19.3880  -32.6470 H   0  0  0  0  0  0  0  0  0  0  0  0
   -7.0879   19.2868  -34.3409 H   0  0  0  0  0  0  0  0  0  0  0  0
   -5.5996   19.7914  -35.2110 H   0  0  0  0  0  0  0  0  0  0  0  0
   -6.0985   18.0658  -35.2110 H   0  0  0  0  0  0  0  0  0  0  0  0
   -6.0030   16.8107  -33.7280 H   0  0  0  0  0  0  0  0  0  0  0  0
   -4.3904   16.9372  -32.8774 H   0  0  0  0  0  0  0  0  0  0  0  0
   -6.7662   16.3007  -31.6435 H   0  0  0  0  0  0  0  0  0  0  0  0
   -5.3099   17.0284  -30.8408 H   0  0  0  0  0  0  0  0  0  0  0  0
   -6.2810   19.2030  -31.3680 H   0  0  0  0  0  0  0  0  0  0  0  0
   -7.8104   18.5492  -33.1043 H   0  0  0  0  0  0  0  0  0  0  0  0
   -8.7573   17.6495  -31.8736 H   0  0  0  0  0  0  0  0  0  0  0  0
   -9.8417   19.7649  -32.0209 H   0  0  0  0  0  0  0  0  0  0  0  0
   -8.7819   19.8861  -30.5503 H   0  0  0  0  0  0  0  0  0  0  0  0
   -8.2104   21.0294  -33.3241 H   0  0  0  0  0  0  0  0  0  0  0  0
   -8.6084   21.9430  -31.8152 H   0  0  0  0  0  0  0  0  0  0  0  0
   -7.6131   23.6331  -32.0188 H   0  0  0  0  0  0  0  0  0  0  0  0
   -6.2835   25.6446  -31.4079 H   0  0  0  0  0  0  0  0  0  0  0  0
   -2.1000   24.0707  -29.9319 H   0  0  0  0  0  0  0  0  0  0  0  0
   -2.3286   19.7701  -30.2781 H   0  0  0  0  0  0  0  0  0  0  0  0
   -4.6729   19.9461  -31.1024 H   0  0  0  0  0  0  0  0  0  0  0  0
  1  2  1  0
  2  3  1  0
  2  4  1  0
  4  5  1  0
  5  6  1  0
  6  7  1  0
  7  8  1  0
  8  9  1  0
  9 10  1  0
 10 11  1  0
 11 12  2  0
 12 13  1  0
 13 14  2  0
 14 15  1  0
 14 16  1  0
 16 17  2  0
 17 18  1  0
 18 19  1  0
 18 20  2  0
 20 21  1  0
 21 22  2  0
 22 11  1  0
 22 16  1  0
  1 23  1  0
  1 24  1  0
  1 25  1  0
  2 26  1  0
  3 27  1  0
  3 28  1  0
  3 29  1  0
  4 30  1  0
  4 31  1  0
  5 32  1  0
  5 33  1  0
  6 34  1  0
  7 35  1  0
  7 36  1  0
  8 37  1  0
  8 38  1  0
  9 39  1  0
  9 40  1  0
 12 41  1  0
 13 42  1  0
 17 43  1  0
 20 44  1  0
 21 45  1  0
M  CHG  3   2   1  14   1  15  -1
M  END
>  <UniqueID>  (49) 
46

>  <SMILES>  (49) 
C[NH+](C)CCNCCCOc1cc[n+]([O-])c2cc(Cl)ccc12

>  <Energy>  (49) 
44.38154925012265

>  <Genealogy>  (49) 
C[NH+](C)CCNCCCOc1cc[n+]([O-])c2cc(Cl)ccc12 (protonated)
C[NH+](C)CCNCCCOc1cc[n+]([O-])c2cc(Cl)ccc12 (3D coordinates assigned)
C[NH+](C)CCNCCCOc1cc[n+]([O-])c2cc(Cl)ccc12 (optimized conformer: 44.38154925012265 kcal/mol)

>  <smiles>  (49) 
CN(C)CCNCCCOc1cc[n+]([O-])c2cc(Cl)ccc12

>  <score_type>  (49) 
oracle

>  <origin>  (49) 
adg

>  <m_score__min__energy>  (49) 
-7.79

>  <m_primary>  (49) 
energy

$$$$
