0:0
     RDKit          3D

 61 63  0  0  0  0  0  0  0  0999 V2000
   -3.3550   23.0090  -28.6650 C   0  0  0  0  0  0  0  0  0  0  0  0
   -2.4270   23.3760  -29.8120 C   0  0  0  0  0  0  0  0  0  0  0  0
   -1.6070   22.2700  -30.1210 O   0  0  0  0  0  0  0  0  0  0  0  0
   -0.8960   21.8810  -28.9660 C   0  0  0  0  0  0  0  0  0  0  0  0
   -1.0130   20.3740  -28.7850 C   0  0  0  0  0  0  0  0  0  0  0  0
   -1.4710   19.8000  -29.9920 O   0  0  0  0  0  0  0  0  0  0  0  0
   -0.4310   19.0730  -30.6240 C   0  0  0  0  0  0  0  0  0  0  0  0
    0.1930   19.8860  -31.7700 C   0  0  0  0  0  0  0  0  0  0  0  0
   -0.5700   21.1190  -32.0290 N   0  0  0  0  0  0  0  0  0  0  0  0
   -1.0790   21.1820  -33.4110 C   0  0  0  0  0  0  0  0  0  0  0  0
   -2.5740   21.5370  -33.4690 C   0  0  0  0  0  0  0  0  0  0  0  0
   -3.2650   21.0640  -32.2720 N   0  0  0  0  0  0  0  0  0  0  0  0
   -4.6590   20.7270  -32.3250 C   0  0  0  0  0  0  0  0  0  0  0  0
   -5.0670   19.4870  -32.8400 C   0  0  0  0  0  0  0  0  0  0  0  0
   -4.1230   18.5830  -33.3740 C   0  0  0  0  0  0  0  0  0  0  0  0
   -4.5320   17.3730  -33.9260 C   0  0  0  0  0  0  0  0  0  0  0  0
   -5.8830   17.0510  -33.9690 C   0  0  0  0  0  0  0  0  0  0  0  0
   -6.8320   17.9260  -33.4430 C   0  0  0  0  0  0  0  0  0  0  0  0
   -6.4440   19.1490  -32.8400 C   0  0  0  0  0  0  0  0  0  0  0  0
   -7.3690   20.0100  -32.2760 N   0  0  0  0  0  0  0  0  0  0  0  0
   -8.7520   19.5450  -32.0170 C   0  0  0  0  0  0  0  0  0  0  0  0
   -6.9960   21.2960  -31.9320 C   0  0  0  0  0  0  0  0  0  0  0  0
   -7.9520   22.2900  -31.6070 C   0  0  0  0  0  0  0  0  0  0  0  0
   -7.5590   23.5690  -31.2120 C   0  0  0  0  0  0  0  0  0  0  0  0
   -6.2060   23.8980  -31.1270 C   0  0  0  0  0  0  0  0  0  0  0  0
   -5.7870   25.2860  -30.7330 C   0  0  0  0  0  0  0  0  0  0  0  0
   -5.2450   22.9520  -31.4980 C   0  0  0  0  0  0  0  0  0  0  0  0
   -5.6240   21.6590  -31.9160 C   0  0  0  0  0  0  0  0  0  0  0  0
   -2.8512   23.2082  -27.7077 H   0  0  0  0  0  0  0  0  0  0  0  0
   -4.2729   23.6118  -28.7287 H   0  0  0  0  0  0  0  0  0  0  0  0
   -3.6123   21.9414  -28.7287 H   0  0  0  0  0  0  0  0  0  0  0  0
   -3.0240   23.6487  -30.6947 H   0  0  0  0  0  0  0  0  0  0  0  0
   -1.7986   24.2299  -29.5186 H   0  0  0  0  0  0  0  0  0  0  0  0
    0.1632   22.1564  -29.0767 H   0  0  0  0  0  0  0  0  0  0  0  0
   -1.3160   22.3908  -28.0864 H   0  0  0  0  0  0  0  0  0  0  0  0
   -0.0286   19.9559  -28.5280 H   0  0  0  0  0  0  0  0  0  0  0  0
   -1.7226   20.1510  -27.9746 H   0  0  0  0  0  0  0  0  0  0  0  0
    0.3475   18.8409  -29.8824 H   0  0  0  0  0  0  0  0  0  0  0  0
   -0.8544   18.1475  -31.0414 H   0  0  0  0  0  0  0  0  0  0  0  0
    1.2250   20.1535  -31.4989 H   0  0  0  0  0  0  0  0  0  0  0  0
    0.1771   19.2701  -32.6813 H   0  0  0  0  0  0  0  0  0  0  0  0
   -1.3650   21.2000  -31.3510 H   0  0  0  0  0  0  0  0  0  0  0  0
    0.0600   21.9430  -31.8870 H   0  0  0  0  0  0  0  0  0  0  0  0
   -0.5125   21.9474  -33.9616 H   0  0  0  0  0  0  0  0  0  0  0  0
   -0.9529   20.1861  -33.8608 H   0  0  0  0  0  0  0  0  0  0  0  0
   -2.6830   22.6292  -33.5408 H   0  0  0  0  0  0  0  0  0  0  0  0
   -3.0188   21.0498  -34.3493 H   0  0  0  0  0  0  0  0  0  0  0  0
   -2.7390   20.8690  -31.3890 H   0  0  0  0  0  0  0  0  0  0  0  0
   -3.0531   18.8379  -33.3534 H   0  0  0  0  0  0  0  0  0  0  0  0
   -3.7861   16.6716  -34.3282 H   0  0  0  0  0  0  0  0  0  0  0  0
   -6.2052   16.1010  -34.4203 H   0  0  0  0  0  0  0  0  0  0  0  0
   -7.8989   17.6634  -33.4966 H   0  0  0  0  0  0  0  0  0  0  0  0
   -8.9224   19.4877  -30.9318 H   0  0  0  0  0  0  0  0  0  0  0  0
   -9.4663   20.2524  -32.4635 H   0  0  0  0  0  0  0  0  0  0  0  0
   -8.8939   18.5497  -32.4635 H   0  0  0  0  0  0  0  0  0  0  0  0
   -9.0235   22.0488  -31.6672 H   0  0  0  0  0  0  0  0  0  0  0  0
   -8.3211   24.3231  -30.9659 H   0  0  0  0  0  0  0  0  0  0  0  0
   -5.7633   25.3644  -29.6361 H   0  0  0  0  0  0  0  0  0  0  0  0
   -4.7856   25.4954  -31.1372 H   0  0  0  0  0  0  0  0  0  0  0  0
   -6.5053   26.0145  -31.1372 H   0  0  0  0  0  0  0  0  0  0  0  0
   -4.1787   23.2199  -31.4634 H   0  0  0  0  0  0  0  0  0  0  0  0
  1  2  1  0
  2  3  1  0
  3  4  1  0
  4  5  1  0
  5  6  1  0
  6  7  1  0
  7  8  1  0
  8  9  1  0
  9 10  1  0
 10 11  1  0
 11 12  1  0
 12 13  1  0
 13 14  2  0
 14 15  1  0
 15 16  2  0
 16 17  1  0
 17 18  2  0
 18 19  1  0
 19 20  2  0
 20 21  1  0
 20 22  1  0
 22 23  2  0
 23 24  1  0
 24 25  2  0
 25 26  1  0
 25 27  1  0
 27 28  2  0
 28 13  1  0
 19 14  1  0
 28 22  1  0
  1 29  1  0
  1 30  1  0
  1 31  1  0
  2 32  1  0
  2 33  1  0
  4 34  1  0
  4 35  1  0
  5 36  1  0
  5 37  1  0
  7 38  1  0
  7 39  1  0
  8 40  1  0
  8 41  1  0
  9 42  1  0
  9 43  1  0
 10 44  1  0
 10 45  1  0
 11 46  1  0
 11 47  1  0
 12 48  1  0
 15 49  1  0
 16 50  1  0
 17 51  1  0
 18 52  1  0
 21 53  1  0
 21 54  1  0
 21 55  1  0
 23 56  1  0
 24 57  1  0
 26 58  1  0
 26 59  1  0
 26 60  1  0
 27 61  1  0
M  CHG  2   9   1  20   1
M  END
>  <UniqueID>  (1) 
1

>  <SMILES>  (1) 
CCOCCOCC[NH2+]CCNc1c2ccccc2[n+](C)c2ccc(C)cc12

>  <Energy>  (1) 
82.00972012405248

>  <Genealogy>  (1) 
CCOCCOCC[NH2+]CCNc1c2ccccc2[n+](C)c2ccc(C)cc12 (protonated)
CCOCCOCC[NH2+]CCNc1c2ccccc2[n+](C)c2ccc(C)cc12 (3D coordinates assigned)
CCOCCOCC[NH2+]CCNc1c2ccccc2[n+](C)c2ccc(C)cc12 (optimized conformer: 82.00972012405248 kcal/mol)

>  <smiles>  (1) 
CCOCCOCCNCCNc1c2ccccc2[n+](C)c2ccc(C)cc12

>  <score_type>  (1) 
oracle

>  <origin>  (1) 
adg

>  <m_score__min__energy>  (1) 
-8.1199999999999992

>  <m_primary>  (1) 
energy

$$$$
1:0
     RDKit          3D

 34 34  0  0  0  0  0  0  0  0999 V2000
   -9.1010   21.4910  -30.8740 C   0  0  0  0  0  0  0  0  0  0  0  0
   -9.0940   22.5450  -31.9710 C   0  0  0  0  0  0  0  0  0  0  0  0
   -7.7580   22.8660  -32.2930 O   0  0  0  0  0  0  0  0  0  0  0  0
   -7.2620   23.8100  -31.3660 C   0  0  0  0  0  0  0  0  0  0  0  0
   -5.7800   23.5250  -31.0680 C   0  0  2  0  0  0  0  0  0  0  0  0
   -5.1690   24.6980  -30.2810 C   0  0  0  0  0  0  0  0  0  0  0  0
   -5.0600   23.2870  -32.3370 N   0  0  0  0  0  0  0  0  0  0  0  0
   -3.9810   22.2840  -32.2620 C   0  0  0  0  0  0  0  0  0  0  0  0
   -3.9790   21.2850  -33.4400 C   0  0  0  0  0  0  0  0  0  0  0  0
   -5.1680   20.4310  -33.4290 N   0  0  0  0  0  0  0  0  0  0  0  0
   -5.1960   19.1040  -33.6600 C   0  0  0  0  0  0  0  0  0  0  0  0
   -6.4900   18.6560  -33.4840 C   0  0  0  0  0  0  0  0  0  0  0  0
   -7.2120   19.7790  -33.1220 C   0  0  0  0  0  0  0  0  0  0  0  0
   -6.3810   20.8350  -33.0890 N   0  0  0  0  0  0  0  0  0  0  0  0
   -9.0977   21.9848  -29.8911 H   0  0  0  0  0  0  0  0  0  0  0  0
  -10.0033   20.8690  -30.9689 H   0  0  0  0  0  0  0  0  0  0  0  0
   -8.2070   20.8571  -30.9689 H   0  0  0  0  0  0  0  0  0  0  0  0
   -9.6039   22.1520  -32.8630 H   0  0  0  0  0  0  0  0  0  0  0  0
   -9.6186   23.4468  -31.6225 H   0  0  0  0  0  0  0  0  0  0  0  0
   -7.3611   24.8213  -31.7874 H   0  0  0  0  0  0  0  0  0  0  0  0
   -7.8389   23.7371  -30.4323 H   0  0  0  0  0  0  0  0  0  0  0  0
   -5.6889   22.6217  -30.4469 H   0  0  0  0  0  0  0  0  0  0  0  0
   -5.2684   24.5071  -29.2023 H   0  0  0  0  0  0  0  0  0  0  0  0
   -4.1044   24.7977  -30.5391 H   0  0  0  0  0  0  0  0  0  0  0  0
   -5.6975   25.6276  -30.5391 H   0  0  0  0  0  0  0  0  0  0  0  0
   -5.7420   22.9750  -33.0680 H   0  0  0  0  0  0  0  0  0  0  0  0
   -3.0161   22.8120  -32.2528 H   0  0  0  0  0  0  0  0  0  0  0  0
   -4.1484   21.6997  -31.3452 H   0  0  0  0  0  0  0  0  0  0  0  0
   -3.9535   21.8481  -34.3846 H   0  0  0  0  0  0  0  0  0  0  0  0
   -3.0933   20.6402  -33.3407 H   0  0  0  0  0  0  0  0  0  0  0  0
   -4.3333   18.4823  -33.9414 H   0  0  0  0  0  0  0  0  0  0  0  0
   -6.8653   17.6291  -33.6053 H   0  0  0  0  0  0  0  0  0  0  0  0
   -8.2887   19.8038  -32.8981 H   0  0  0  0  0  0  0  0  0  0  0  0
   -6.6380   21.8110  -32.8220 H   0  0  0  0  0  0  0  0  0  0  0  0
  1  2  1  0
  2  3  1  0
  3  4  1  0
  4  5  1  0
  5  6  1  0
  5  7  1  0
  7  8  1  0
  8  9  1  0
  9 10  1  0
 10 11  1  0
 11 12  2  0
 12 13  1  0
 13 14  2  0
 14 10  1  0
  1 15  1  0
  1 16  1  0
  1 17  1  0
  2 18  1  0
  2 19  1  0
  4 20  1  0
  4 21  1  0
  5 22  1  1
  6 23  1  0
  6 24  1  0
  6 25  1  0
  7 26  1  0
  8 27  1  0
  8 28  1  0
  9 29  1  0
  9 30  1  0
 11 31  1  0
 12 32  1  0
 13 33  1  0
 14 34  1  0
M  CHG  1  14   1
M  END
>  <UniqueID>  (2) 
2

>  <SMILES>  (2) 
CCOC[C@H](C)NCCn1ccc[nH+]1

>  <Energy>  (2) 
57.277659298351935

>  <Genealogy>  (2) 
CCOCC(C)NCCn1ccc[nH+]1 (protonated)
CCOC[C@H](C)NCCn1ccc[nH+]1 (chirality)
CCOC[C@H](C)NCCn1ccc[nH+]1 (3D coordinates assigned)
CCOC[C@H](C)NCCn1ccc[nH+]1 (optimized conformer: 57.277659298351935 kcal/mol)

>  <smiles>  (2) 
CCOCC(C)NCCn1cccn1

>  <score_type>  (2) 
oracle

>  <origin>  (2) 
adg

>  <m_score__min__energy>  (2) 
-5.6200000000000001

>  <m_primary>  (2) 
energy

$$$$
2:0
     RDKit          3D

 52 54  0  0  0  0  0  0  0  0999 V2000
   -8.7840   18.5440  -31.6130 C   0  0  0  0  0  0  0  0  0  0  0  0
   -7.7090   18.6270  -32.6910 C   0  0  0  0  0  0  0  0  0  0  0  0
   -6.9480   19.8690  -32.5560 N   0  0  0  0  0  0  0  0  0  0  0  0
   -7.4570   21.0720  -32.1960 C   0  0  0  0  0  0  0  0  0  0  0  0
   -6.4630   22.0450  -32.2400 C   0  0  0  0  0  0  0  0  0  0  0  0
   -6.6430   23.5130  -31.9940 C   0  0  0  0  0  0  0  0  0  0  0  0
   -7.3150   23.7510  -30.6300 C   0  0  0  0  0  0  0  0  0  0  0  0
   -6.3310   23.9690  -29.5410 N   0  0  1  0  0  0  0  0  0  0  0  0
   -5.4430   22.7840  -29.3690 C   0  0  0  0  0  0  0  0  0  0  0  0
   -4.1030   23.1580  -28.7220 C   0  0  0  0  0  0  0  0  0  0  0  0
   -3.2710   24.1190  -29.6220 C   0  0  2  0  0  0  0  0  0  0  0  0
   -2.3150   24.9370  -28.8100 N   0  0  0  0  0  0  0  0  0  0  0  0
   -0.9200   24.4610  -28.9630 C   0  0  0  0  0  0  0  0  0  0  0  0
   -2.6580   24.8880  -27.3710 C   0  0  0  0  0  0  0  0  0  0  0  0
   -4.2360   25.0000  -30.4760 C   0  0  0  0  0  0  0  0  0  0  0  0
   -5.5750   25.2350  -29.7610 C   0  0  0  0  0  0  0  0  0  0  0  0
   -5.3200   21.4010  -32.6730 C   0  0  0  0  0  0  0  0  0  0  0  0
   -4.0410   21.8870  -32.9400 C   0  0  0  0  0  0  0  0  0  0  0  0
   -3.0740   20.9760  -33.4020 C   0  0  0  0  0  0  0  0  0  0  0  0
   -3.4050   19.6170  -33.5880 C   0  0  0  0  0  0  0  0  0  0  0  0
   -4.7080   19.1550  -33.3180 C   0  0  0  0  0  0  0  0  0  0  0  0
   -5.6480   20.0800  -32.8550 C   0  0  0  0  0  0  0  0  0  0  0  0
   -8.3114   18.5805  -30.6204 H   0  0  0  0  0  0  0  0  0  0  0  0
   -9.4772   19.3913  -31.7205 H   0  0  0  0  0  0  0  0  0  0  0  0
   -9.3389   17.6003  -31.7205 H   0  0  0  0  0  0  0  0  0  0  0  0
   -7.0263   17.7705  -32.5891 H   0  0  0  0  0  0  0  0  0  0  0  0
   -8.1918   18.6093  -33.6792 H   0  0  0  0  0  0  0  0  0  0  0  0
   -8.5037   21.2532  -31.9105 H   0  0  0  0  0  0  0  0  0  0  0  0
   -5.6594   24.0053  -32.0041 H   0  0  0  0  0  0  0  0  0  0  0  0
   -7.2835   23.9310  -32.7846 H   0  0  0  0  0  0  0  0  0  0  0  0
   -7.9603   24.6387  -30.7050 H   0  0  0  0  0  0  0  0  0  0  0  0
   -7.8939   22.8493  -30.3812 H   0  0  0  0  0  0  0  0  0  0  0  0
   -6.8720   24.0920  -28.6500 H   0  0  0  0  0  0  0  0  0  0  0  0
   -5.2487   22.3397  -30.3563 H   0  0  0  0  0  0  0  0  0  0  0  0
   -5.9533   22.0710  -28.7048 H   0  0  0  0  0  0  0  0  0  0  0  0
   -3.5223   22.2396  -28.5506 H   0  0  0  0  0  0  0  0  0  0  0  0
   -4.3148   23.6761  -27.7751 H   0  0  0  0  0  0  0  0  0  0  0  0
   -2.6527   23.5252  -30.3113 H   0  0  0  0  0  0  0  0  0  0  0  0
   -0.4735   24.3086  -27.9693 H   0  0  0  0  0  0  0  0  0  0  0  0
   -0.9155   23.5105  -29.5166 H   0  0  0  0  0  0  0  0  0  0  0  0
   -0.3355   25.2105  -29.5166 H   0  0  0  0  0  0  0  0  0  0  0  0
   -1.7448   25.0185  -26.7718 H   0  0  0  0  0  0  0  0  0  0  0  0
   -3.3691   25.6937  -27.1359 H   0  0  0  0  0  0  0  0  0  0  0  0
   -3.1150   23.9154  -27.1359 H   0  0  0  0  0  0  0  0  0  0  0  0
   -4.4275   24.4934  -31.4335 H   0  0  0  0  0  0  0  0  0  0  0  0
   -3.7568   25.9772  -30.6353 H   0  0  0  0  0  0  0  0  0  0  0  0
   -6.1890   25.9113  -30.3739 H   0  0  0  0  0  0  0  0  0  0  0  0
   -5.3570   25.6714  -28.7751 H   0  0  0  0  0  0  0  0  0  0  0  0
   -3.7958   22.9493  -32.7940 H   0  0  0  0  0  0  0  0  0  0  0  0
   -2.0538   21.3250  -33.6196 H   0  0  0  0  0  0  0  0  0  0  0  0
   -2.6397   18.9130  -33.9466 H   0  0  0  0  0  0  0  0  0  0  0  0
   -4.9774   18.0990  -33.4669 H   0  0  0  0  0  0  0  0  0  0  0  0
  1  2  1  0
  2  3  1  0
  3  4  1  0
  4  5  2  0
  5  6  1  0
  6  7  1  0
  7  8  1  0
  8  9  1  0
  9 10  1  0
 10 11  1  0
 11 12  1  0
 12 13  1  0
 12 14  1  0
 11 15  1  0
 15 16  1  0
  5 17  1  0
 17 18  2  0
 18 19  1  0
 19 20  2  0
 20 21  1  0
 21 22  2  0
 22  3  1  0
 16  8  1  0
 22 17  1  0
  1 23  1  0
  1 24  1  0
  1 25  1  0
  2 26  1  0
  2 27  1  0
  4 28  1  0
  6 29  1  0
  6 30  1  0
  7 31  1  0
  7 32  1  0
  8 33  1  1
  9 34  1  0
  9 35  1  0
 10 36  1  0
 10 37  1  0
 11 38  1  6
 13 39  1  0
 13 40  1  0
 13 41  1  0
 14 42  1  0
 14 43  1  0
 14 44  1  0
 15 45  1  0
 15 46  1  0
 16 47  1  0
 16 48  1  0
 18 49  1  0
 19 50  1  0
 20 51  1  0
 21 52  1  0
M  CHG  1   8   1
M  END
>  <UniqueID>  (3) 
3

>  <SMILES>  (3) 
CCn1cc(CC[NH+]2CCC(N(C)C)CC2)c2ccccc21

>  <Energy>  (3) 
97.01919685094605

>  <Genealogy>  (3) 
CCn1cc(CC[NH+]2CCC(N(C)C)CC2)c2ccccc21 (protonated)
CCn1cc(CC[NH+]2CCC(N(C)C)CC2)c2ccccc21 (3D coordinates assigned)
CCn1cc(CC[NH+]2CCC(N(C)C)CC2)c2ccccc21 (nonaromatic ring conformer: 97.01919685094605 kcal/mol)

>  <smiles>  (3) 
CCn1cc(CCN2CCC(N(C)C)CC2)c2ccccc21

>  <score_type>  (3) 
oracle

>  <origin>  (3) 
adg

>  <m_score__min__energy>  (3) 
-7.4900000000000002

>  <m_primary>  (3) 
energy

$$$$
3:0
     RDKit          3D

 47 50  0  0  0  0  0  0  0  0999 V2000
   -2.1680   20.1610  -34.1900 C   0  0  0  0  0  0  0  0  0  0  0  0
   -1.2520   21.1090  -33.4210 C   0  0  0  0  0  0  0  0  0  0  0  0
   -1.2900   20.8100  -31.9820 N   0  0  0  0  0  0  0  0  0  0  0  0
   -0.8690   21.9680  -31.1830 C   0  0  0  0  0  0  0  0  0  0  0  0
   -2.0940   22.6720  -30.6020 C   0  0  0  0  0  0  0  0  0  0  0  0
   -3.2160   22.5940  -31.5380 N   0  0  0  0  0  0  0  0  0  0  0  0
   -4.5200   23.0470  -31.1570 C   0  0  0  0  0  0  0  0  0  0  0  0
   -5.6300   22.3190  -31.3780 C   0  0  0  0  0  0  0  0  0  0  0  0
   -6.9590   22.9040  -31.2910 C   0  0  0  0  0  0  0  0  0  0  0  0
   -7.1870   24.1370  -30.8290 C   0  0  0  0  0  0  0  0  0  0  0  0
   -6.0540   24.9780  -30.2920 C   0  0  0  0  0  0  0  0  0  0  0  0
   -4.6840   24.4180  -30.6150 C   0  0  0  0  0  0  0  0  0  0  0  0
   -3.6670   25.1310  -30.4040 O   0  0  0  0  0  0  0  0  0  0  0  0
   -7.9200   21.9410  -31.8400 C   0  0  0  0  0  0  0  0  0  0  0  0
   -9.3330   22.1590  -31.9320 N   0  0  0  0  0  0  0  0  0  0  0  0
   -7.2650   20.8280  -32.2020 C   0  0  0  0  0  0  0  0  0  0  0  0
   -7.7880   19.5630  -32.7500 C   0  0  0  0  0  0  0  0  0  0  0  0
   -8.9880   19.4470  -33.1150 O   0  0  0  0  0  0  0  0  0  0  0  0
   -6.8440   18.4290  -32.8730 C   0  0  0  0  0  0  0  0  0  0  0  0
   -7.2700   17.1920  -33.3860 C   0  0  0  0  0  0  0  0  0  0  0  0
   -6.3760   16.1240  -33.4870 C   0  0  0  0  0  0  0  0  0  0  0  0
   -5.0510   16.2770  -33.0770 C   0  0  0  0  0  0  0  0  0  0  0  0
   -4.6110   17.5000  -32.5650 C   0  0  0  0  0  0  0  0  0  0  0  0
   -5.4950   18.5880  -32.4570 C   0  0  0  0  0  0  0  0  0  0  0  0
   -5.0120   19.8910  -31.9130 C   0  0  0  0  0  0  0  0  0  0  0  0
   -3.7280   19.9770  -31.3870 O   0  0  0  0  0  0  0  0  0  0  0  0
   -5.8360   20.9540  -31.8940 C   0  0  0  0  0  0  0  0  0  0  0  0
   -2.7512   19.5574  -33.4789 H   0  0  0  0  0  0  0  0  0  0  0  0
   -2.8524   20.7452  -34.8227 H   0  0  0  0  0  0  0  0  0  0  0  0
   -1.5606   19.4970  -34.8227 H   0  0  0  0  0  0  0  0  0  0  0  0
   -0.2214   20.9927  -33.7875 H   0  0  0  0  0  0  0  0  0  0  0  0
   -1.5971   22.1416  -33.5783 H   0  0  0  0  0  0  0  0  0  0  0  0
   -2.2830   20.5970  -31.7300 H   0  0  0  0  0  0  0  0  0  0  0  0
   -0.2201   21.6283  -30.3623 H   0  0  0  0  0  0  0  0  0  0  0  0
   -0.3185   22.6706  -31.8259 H   0  0  0  0  0  0  0  0  0  0  0  0
   -2.3764   22.1872  -29.6558 H   0  0  0  0  0  0  0  0  0  0  0  0
   -1.8485   23.7295  -30.4250 H   0  0  0  0  0  0  0  0  0  0  0  0
   -3.1590   21.8600  -32.2790 H   0  0  0  0  0  0  0  0  0  0  0  0
   -8.2093   24.5428  -30.8401 H   0  0  0  0  0  0  0  0  0  0  0  0
   -6.1306   25.9852  -30.7274 H   0  0  0  0  0  0  0  0  0  0  0  0
   -6.1498   24.9905  -29.1962 H   0  0  0  0  0  0  0  0  0  0  0  0
   -9.9570   21.4230  -32.3250 H   0  0  0  0  0  0  0  0  0  0  0  0
   -9.7830   23.0500  -31.6340 H   0  0  0  0  0  0  0  0  0  0  0  0
   -8.3135   17.0643  -33.7098 H   0  0  0  0  0  0  0  0  0  0  0  0
   -6.7172   15.1594  -33.8909 H   0  0  0  0  0  0  0  0  0  0  0  0
   -4.3510   15.4322  -33.1572 H   0  0  0  0  0  0  0  0  0  0  0  0
   -3.5650   17.6127  -32.2439 H   0  0  0  0  0  0  0  0  0  0  0  0
  1  2  1  0
  2  3  1  0
  3  4  1  0
  4  5  1  0
  5  6  1  0
  6  7  1  0
  7  8  2  0
  8  9  1  0
  9 10  2  0
 10 11  1  0
 11 12  1  0
 12 13  2  0
  9 14  1  0
 14 15  1  0
 14 16  2  0
 16 17  1  0
 17 18  2  0
 17 19  1  0
 19 20  2  0
 20 21  1  0
 21 22  2  0
 22 23  1  0
 23 24  2  0
 24 25  1  0
 25 26  1  0
 25 27  2  0
 12  7  1  0
 27 16  1  0
 27  8  1  0
 24 19  1  0
  1 28  1  0
  1 29  1  0
  1 30  1  0
  2 31  1  0
  2 32  1  0
  3 33  1  0
  4 34  1  0
  4 35  1  0
  5 36  1  0
  5 37  1  0
  6 38  1  0
 10 39  1  0
 11 40  1  0
 11 41  1  0
 15 42  1  0
 15 43  1  0
 20 44  1  0
 21 45  1  0
 22 46  1  0
 23 47  1  0
M  CHG  1  26  -1
M  END
>  <UniqueID>  (4) 
4

>  <SMILES>  (4) 
CCNCCNC1=C2C(=CCC1=O)C(N)=C1C(=O)c3ccccc3C([O-])=C12

>  <Energy>  (4) 
87.54723674363525

>  <Genealogy>  (4) 
CCNCCNC1=C2C(=CCC1=O)C(N)=C1C(=O)c3ccccc3C([O-])=C12 (protonated)
CCNCCNC1=C2C(=CCC1=O)C(N)=C1C(=O)c3ccccc3C([O-])=C12 (3D coordinates assigned)
CCNCCNC1=C2C(=CCC1=O)C(N)=C1C(=O)c3ccccc3C([O-])=C12 (nonaromatic ring conformer: 87.54723674363525 kcal/mol)

>  <smiles>  (4) 
CCNCCNC1=C2C(=CCC1=O)C(N)=C1C(=O)c3ccccc3C(O)=C12

>  <score_type>  (4) 
oracle

>  <origin>  (4) 
adg

>  <m_score__min__energy>  (4) 
-10.220000000000001

>  <m_primary>  (4) 
energy

$$$$
4:0
     RDKit          3D

 40 43  0  0  0  0  0  0  0  0999 V2000
   -6.4850   25.6610  -29.4000 C   0  0  0  0  0  0  0  0  0  0  0  0
   -6.5670   24.1910  -29.8000 C   0  0  0  0  0  0  0  0  0  0  0  0
   -5.1750   23.5600  -29.8840 C   0  0  0  0  0  0  0  0  0  0  0  0
   -4.6070   23.7770  -31.2190 N   0  0  0  0  0  0  0  0  0  0  0  0
   -5.5520   23.4060  -32.2870 C   0  0  0  0  0  0  0  0  0  0  0  0
   -5.5940   21.8950  -32.5310 C   0  0  0  0  0  0  0  0  0  0  0  0
   -6.7970   21.1430  -32.3580 C   0  0  0  0  0  0  0  0  0  0  0  0
   -8.0180   21.7170  -31.9200 C   0  0  0  0  0  0  0  0  0  0  0  0
   -9.1670   20.9350  -31.7760 C   0  0  0  0  0  0  0  0  0  0  0  0
   -9.1330   19.5730  -32.0600 C   0  0  0  0  0  0  0  0  0  0  0  0
   -7.9450   18.9820  -32.4840 C   0  0  0  0  0  0  0  0  0  0  0  0
   -6.7850   19.7500  -32.6310 C   0  0  0  0  0  0  0  0  0  0  0  0
   -5.6470   19.1370  -33.0330 N   0  0  0  0  0  0  0  0  0  0  0  0
   -4.4800   19.8010  -33.1890 C   0  0  0  0  0  0  0  0  0  0  0  0
   -3.3410   19.0830  -33.6000 C   0  0  0  0  0  0  0  0  0  0  0  0
   -2.1490   19.7760  -33.7460 C   0  0  0  0  0  0  0  0  0  0  0  0
   -2.0600   21.1060  -33.5050 C   0  0  0  0  0  0  0  0  0  0  0  0
   -3.1550   21.8600  -33.0980 C   0  0  0  0  0  0  0  0  0  0  0  0
   -4.4110   21.2060  -32.9360 C   0  0  0  0  0  0  0  0  0  0  0  0
   -0.7630   21.5260  -33.7230 O   0  0  0  0  0  0  0  0  0  0  0  0
    0.0100   20.3880  -34.1280 C   0  0  0  0  0  0  0  0  0  0  0  0
   -0.9140   19.2930  -34.1290 O   0  0  0  0  0  0  0  0  0  0  0  0
   -6.4804   25.7428  -28.3031 H   0  0  0  0  0  0  0  0  0  0  0  0
   -5.5610   26.1000  -29.8043 H   0  0  0  0  0  0  0  0  0  0  0  0
   -7.3545   26.2001  -29.8043 H   0  0  0  0  0  0  0  0  0  0  0  0
   -7.1620   23.6482  -29.0508 H   0  0  0  0  0  0  0  0  0  0  0  0
   -7.0384   24.1264  -30.7918 H   0  0  0  0  0  0  0  0  0  0  0  0
   -4.5199   24.0205  -29.1299 H   0  0  0  0  0  0  0  0  0  0  0  0
   -5.2560   22.4791  -29.6967 H   0  0  0  0  0  0  0  0  0  0  0  0
   -3.7350   23.2040  -31.3090 H   0  0  0  0  0  0  0  0  0  0  0  0
   -6.5585   23.7458  -32.0017 H   0  0  0  0  0  0  0  0  0  0  0  0
   -5.2126   23.8863  -33.2166 H   0  0  0  0  0  0  0  0  0  0  0  0
   -8.0609   22.7920  -31.6907 H   0  0  0  0  0  0  0  0  0  0  0  0
  -10.1046   21.3990  -31.4359 H   0  0  0  0  0  0  0  0  0  0  0  0
  -10.0426   18.9643  -31.9499 H   0  0  0  0  0  0  0  0  0  0  0  0
   -7.9188   17.9047  -32.7046 H   0  0  0  0  0  0  0  0  0  0  0  0
   -3.3952   18.0026  -33.7997 H   0  0  0  0  0  0  0  0  0  0  0  0
   -3.0541   22.9383  -32.9051 H   0  0  0  0  0  0  0  0  0  0  0  0
    0.4275   20.5424  -35.1339 H   0  0  0  0  0  0  0  0  0  0  0  0
    0.8629   20.2081  -33.4571 H   0  0  0  0  0  0  0  0  0  0  0  0
  1  2  1  0
  2  3  1  0
  3  4  1  0
  4  5  1  0
  5  6  1  0
  6  7  2  0
  7  8  1  0
  8  9  2  0
  9 10  1  0
 10 11  2  0
 11 12  1  0
 12 13  2  0
 13 14  1  0
 14 15  2  0
 15 16  1  0
 16 17  2  0
 17 18  1  0
 18 19  2  0
 17 20  1  0
 20 21  1  0
 21 22  1  0
 19  6  1  0
 12  7  1  0
 19 14  1  0
 22 16  1  0
  1 23  1  0
  1 24  1  0
  1 25  1  0
  2 26  1  0
  2 27  1  0
  3 28  1  0
  3 29  1  0
  4 30  1  0
  5 31  1  0
  5 32  1  0
  8 33  1  0
  9 34  1  0
 10 35  1  0
 11 36  1  0
 15 37  1  0
 18 38  1  0
 21 39  1  0
 21 40  1  0
M  END
>  <UniqueID>  (5) 
5

>  <SMILES>  (5) 
CCCNCc1c2ccccc2nc2cc3c(cc12)OCO3

>  <Energy>  (5) 
79.49159147748236

>  <Genealogy>  (5) 
CCCNCc1c2ccccc2nc2cc3c(cc12)OCO3 (3D coordinates assigned)
CCCNCc1c2ccccc2nc2cc3c(cc12)OCO3 (nonaromatic ring conformer: 79.49159147748236 kcal/mol)

>  <smiles>  (5) 
CCCNCc1c2ccccc2nc2cc3c(cc12)OCO3

>  <score_type>  (5) 
oracle

>  <origin>  (5) 
adg

>  <m_score__min__energy>  (5) 
-8.0399999999999991

>  <m_primary>  (5) 
energy

$$$$
5:0
     RDKit          3D

 75 78  0  0  0  0  0  0  0  0999 V2000
   -6.0900   25.2590  -29.4560 C   0  0  0  0  0  0  0  0  0  0  0  0
   -5.5210   25.6600  -30.8170 C   0  0  0  0  0  0  0  0  0  0  0  0
   -4.2830   24.9400  -31.1480 N   0  0  0  0  0  0  0  0  0  0  0  0
   -3.6630   24.3240  -29.9680 C   0  0  0  0  0  0  0  0  0  0  0  0
   -3.5700   22.8080  -30.1480 C   0  0  0  0  0  0  0  0  0  0  0  0
   -3.1940   22.4650  -31.5210 N   0  0  0  0  0  0  0  0  0  0  0  0
   -3.8990   21.4410  -32.2350 C   0  0  0  0  0  0  0  0  0  0  0  0
   -5.3050   21.4250  -32.2000 C   0  0  0  0  0  0  0  0  0  0  0  0
   -6.0180   22.3510  -31.4090 C   0  0  0  0  0  0  0  0  0  0  0  0
   -7.4090   22.3160  -31.3480 C   0  0  0  0  0  0  0  0  0  0  0  0
   -8.1130   21.3490  -32.0570 C   0  0  0  0  0  0  0  0  0  0  0  0
   -9.8640   21.2870  -31.9470 Cl  0  0  0  0  0  0  0  0  0  0  0  0
   -7.4280   20.4160  -32.8400 C   0  0  0  0  0  0  0  0  0  0  0  0
   -6.0140   20.4520  -32.9490 C   0  0  0  0  0  0  0  0  0  0  0  0
   -5.3260   19.5520  -33.7370 N   0  0  0  0  0  0  0  0  0  0  0  0
   -6.0540   18.7450  -34.7410 C   0  0  0  0  0  0  0  0  0  0  0  0
   -3.9580   19.4200  -33.6030 C   0  0  0  0  0  0  0  0  0  0  0  0
   -3.2770   18.3040  -34.1450 C   0  0  0  0  0  0  0  0  0  0  0  0
   -1.8950   18.1950  -34.0660 C   0  0  0  0  0  0  0  0  0  0  0  0
   -1.1510   19.1890  -33.4520 C   0  0  0  0  0  0  0  0  0  0  0  0
   -1.7810   20.2970  -32.8590 C   0  0  0  0  0  0  0  0  0  0  0  0
   -1.0020   21.3150  -32.2830 O   0  0  0  0  0  0  0  0  0  0  0  0
    0.1180   21.1130  -31.4190 C   0  0  0  0  0  0  0  0  0  0  0  0
    0.0270   19.7490  -30.6910 C   0  0  0  0  0  0  0  0  0  0  0  0
    0.3220   19.7360  -29.2180 N   0  0  0  0  0  0  0  0  0  0  0  0
    1.7870   19.6030  -28.9900 C   0  0  0  0  0  0  0  0  0  0  0  0
   -0.3520   18.5230  -28.6370 C   0  0  0  0  0  0  0  0  0  0  0  0
   -0.7700   18.7250  -27.1650 C   0  0  0  0  0  0  0  0  0  0  0  0
   -1.7780   19.8220  -27.0110 N   0  0  0  0  0  0  0  0  0  0  0  0
   -1.6140   20.4380  -25.6700 C   0  0  0  0  0  0  0  0  0  0  0  0
   -3.1500   19.2600  -27.0860 C   0  0  0  0  0  0  0  0  0  0  0  0
   -1.6220   20.8720  -28.0680 C   0  0  0  0  0  0  0  0  0  0  0  0
   -0.1650   20.9900  -28.5490 C   0  0  0  0  0  0  0  0  0  0  0  0
   -3.2020   20.4010  -32.8970 C   0  0  0  0  0  0  0  0  0  0  0  0
   -5.4717   25.6947  -28.6573 H   0  0  0  0  0  0  0  0  0  0  0  0
   -7.1212   25.6310  -29.3657 H   0  0  0  0  0  0  0  0  0  0  0  0
   -6.0865   24.1627  -29.3657 H   0  0  0  0  0  0  0  0  0  0  0  0
   -6.2722   25.4426  -31.5905 H   0  0  0  0  0  0  0  0  0  0  0  0
   -5.2806   26.7325  -30.7740 H   0  0  0  0  0  0  0  0  0  0  0  0
   -3.6030   25.6050  -31.5830 H   0  0  0  0  0  0  0  0  0  0  0  0
   -2.6521   24.7361  -29.8324 H   0  0  0  0  0  0  0  0  0  0  0  0
   -4.2805   24.5423  -29.0842 H   0  0  0  0  0  0  0  0  0  0  0  0
   -2.8123   22.4095  -29.4573 H   0  0  0  0  0  0  0  0  0  0  0  0
   -4.5554   22.3684  -29.9341 H   0  0  0  0  0  0  0  0  0  0  0  0
   -2.4550   23.0050  -32.0270 H   0  0  0  0  0  0  0  0  0  0  0  0
   -5.4682   23.1101  -30.8333 H   0  0  0  0  0  0  0  0  0  0  0  0
   -7.9511   23.0539  -30.7384 H   0  0  0  0  0  0  0  0  0  0  0  0
   -7.9936   19.6422  -33.3798 H   0  0  0  0  0  0  0  0  0  0  0  0
   -6.7058   18.0225  -34.2280 H   0  0  0  0  0  0  0  0  0  0  0  0
   -6.6656   19.4079  -35.3707 H   0  0  0  0  0  0  0  0  0  0  0  0
   -5.3318   18.2047  -35.3707 H   0  0  0  0  0  0  0  0  0  0  0  0
   -3.8536   17.5077  -34.6383 H   0  0  0  0  0  0  0  0  0  0  0  0
   -1.3893   17.3162  -34.4925 H   0  0  0  0  0  0  0  0  0  0  0  0
   -0.0541   19.1105  -33.4281 H   0  0  0  0  0  0  0  0  0  0  0  0
    1.0412   21.1396  -32.0166 H   0  0  0  0  0  0  0  0  0  0  0  0
    0.1217   21.9114  -30.6623 H   0  0  0  0  0  0  0  0  0  0  0  0
   -0.9963   19.3690  -30.8269 H   0  0  0  0  0  0  0  0  0  0  0  0
    0.8174   19.1325  -31.1440 H   0  0  0  0  0  0  0  0  0  0  0  0
    1.9897   19.5846  -27.9090 H   0  0  0  0  0  0  0  0  0  0  0  0
    2.1458   18.6686  -29.4463 H   0  0  0  0  0  0  0  0  0  0  0  0
    2.3082   20.4575  -29.4463 H   0  0  0  0  0  0  0  0  0  0  0  0
   -1.2506   18.3006  -29.2312 H   0  0  0  0  0  0  0  0  0  0  0  0
    0.3699   17.6936  -28.6678 H   0  0  0  0  0  0  0  0  0  0  0  0
   -1.2054   17.7878  -26.7881 H   0  0  0  0  0  0  0  0  0  0  0  0
    0.1269   19.0065  -26.5938 H   0  0  0  0  0  0  0  0  0  0  0  0
   -1.8145   19.6850  -24.8936 H   0  0  0  0  0  0  0  0  0  0  0  0
   -0.5851   20.8116  -25.5615 H   0  0  0  0  0  0  0  0  0  0  0  0
   -2.3209   21.2737  -25.5615 H   0  0  0  0  0  0  0  0  0  0  0  0
   -3.5374   19.1013  -26.0688 H   0  0  0  0  0  0  0  0  0  0  0  0
   -3.8051   19.9622  -27.6224 H   0  0  0  0  0  0  0  0  0  0  0  0
   -3.1242   18.3000  -27.6224 H   0  0  0  0  0  0  0  0  0  0  0  0
   -2.2595   20.6109  -28.9255 H   0  0  0  0  0  0  0  0  0  0  0  0
   -1.9172   21.8388  -27.6343 H   0  0  0  0  0  0  0  0  0  0  0  0
   -0.0960   21.8219  -29.2654 H   0  0  0  0  0  0  0  0  0  0  0  0
    0.4662   21.1648  -27.6653 H   0  0  0  0  0  0  0  0  0  0  0  0
  1  2  1  0
  2  3  1  0
  3  4  1  0
  4  5  1  0
  5  6  1  0
  6  7  1  0
  7  8  2  0
  8  9  1  0
  9 10  2  0
 10 11  1  0
 11 12  1  0
 11 13  2  0
 13 14  1  0
 14 15  2  0
 15 16  1  0
 15 17  1  0
 17 18  2  0
 18 19  1  0
 19 20  2  0
 20 21  1  0
 21 22  1  0
 22 23  1  0
 23 24  1  0
 24 25  1  0
 25 26  1  0
 25 27  1  0
 27 28  1  0
 28 29  1  0
 29 30  1  0
 29 31  1  0
 29 32  1  0
 32 33  1  0
 21 34  2  0
 34  7  1  0
 14  8  1  0
 34 17  1  0
 33 25  1  0
  1 35  1  0
  1 36  1  0
  1 37  1  0
  2 38  1  0
  2 39  1  0
  3 40  1  0
  4 41  1  0
  4 42  1  0
  5 43  1  0
  5 44  1  0
  6 45  1  0
  9 46  1  0
 10 47  1  0
 13 48  1  0
 16 49  1  0
 16 50  1  0
 16 51  1  0
 18 52  1  0
 19 53  1  0
 20 54  1  0
 23 55  1  0
 23 56  1  0
 24 57  1  0
 24 58  1  0
 26 59  1  0
 26 60  1  0
 26 61  1  0
 27 62  1  0
 27 63  1  0
 28 64  1  0
 28 65  1  0
 30 66  1  0
 30 67  1  0
 30 68  1  0
 31 69  1  0
 31 70  1  0
 31 71  1  0
 32 72  1  0
 32 73  1  0
 33 74  1  0
 33 75  1  0
M  CHG  3  15   1  25   1  29   1
M  END
>  <UniqueID>  (6) 
6

>  <SMILES>  (6) 
CCNCCNc1c2ccc(Cl)cc2[n+](C)c2cccc(OCC[N+]3(C)CC[N+](C)(C)CC3)c12

>  <Energy>  (6) 
132.97210104402734

>  <Genealogy>  (6) 
CCNCCNc1c2ccc(Cl)cc2[n+](C)c2cccc(OCC[N+]3(C)CC[N+](C)(C)CC3)c12 (3D coordinates assigned)
CCNCCNc1c2ccc(Cl)cc2[n+](C)c2cccc(OCC[N+]3(C)CC[N+](C)(C)CC3)c12 (nonaromatic ring conformer: 132.97210104402734 kcal/mol)

>  <smiles>  (6) 
CCNCCNc1c2ccc(Cl)cc2[n+](C)c2cccc(OCC[N+]3(C)CC[N+](C)(C)CC3)c12

>  <score_type>  (6) 
oracle

>  <origin>  (6) 
adg

>  <m_score__min__energy>  (6) 
-7.7800000000000002

>  <m_primary>  (6) 
energy

$$$$
6:0
     RDKit          3D

 47 49  0  0  0  0  0  0  0  0999 V2000
   -5.2650   18.1220  -33.9850 C   0  0  0  0  0  0  0  0  0  0  0  0
   -6.0930   19.2090  -33.3770 C   0  0  0  0  0  0  0  0  0  0  0  0
   -7.3920   19.0990  -33.1880 O   0  0  0  0  0  0  0  0  0  0  0  0
   -7.8130   20.2130  -32.6460 C   0  0  0  0  0  0  0  0  0  0  0  0
   -9.1190   20.5160  -32.2730 C   0  0  0  0  0  0  0  0  0  0  0  0
   -9.3620   21.7620  -31.6790 C   0  0  0  0  0  0  0  0  0  0  0  0
   -8.3050   22.6710  -31.4610 C   0  0  0  0  0  0  0  0  0  0  0  0
   -6.9800   22.3440  -31.8430 C   0  0  0  0  0  0  0  0  0  0  0  0
   -5.8950   23.2020  -31.6060 O   0  0  0  0  0  0  0  0  0  0  0  0
   -5.5220   23.7270  -30.3330 C   0  0  0  0  0  0  0  0  0  0  0  0
   -4.8880   25.0750  -30.4850 C   0  0  0  0  0  0  0  0  0  0  0  0
   -5.5840   26.0550  -30.8650 O   0  0  0  0  0  0  0  0  0  0  0  0
   -3.4890   25.2330  -30.2250 N   0  0  0  0  0  0  0  0  0  0  0  0
   -2.7300   24.3830  -29.3110 C   0  0  0  0  0  0  0  0  0  0  0  0
   -1.5520   25.1630  -28.7210 C   0  0  0  0  0  0  0  0  0  0  0  0
   -2.2330   23.1530  -30.0710 C   0  0  0  0  0  0  0  0  0  0  0  0
   -6.7750   21.0980  -32.4620 C   0  0  0  0  0  0  0  0  0  0  0  0
   -5.6380   20.4550  -32.9370 C   0  0  0  0  0  0  0  0  0  0  0  0
   -4.2500   20.9560  -33.0060 C   0  0  0  0  0  0  0  0  0  0  0  0
   -4.0180   22.1230  -33.4170 O   0  0  0  0  0  0  0  0  0  0  0  0
   -3.1710   20.1130  -32.5820 N   0  0  0  0  0  0  0  0  0  0  0  0
   -1.7790   20.2880  -32.8790 C   0  0  0  0  0  0  0  0  0  0  0  0
   -0.7890   20.2420  -31.8780 C   0  0  0  0  0  0  0  0  0  0  0  0
    0.5550   20.4420  -32.2090 C   0  0  0  0  0  0  0  0  0  0  0  0
    0.9200   20.7050  -33.5310 C   0  0  0  0  0  0  0  0  0  0  0  0
   -0.0590   20.7760  -34.5250 C   0  0  0  0  0  0  0  0  0  0  0  0
   -1.4040   20.5780  -34.1980 C   0  0  0  0  0  0  0  0  0  0  0  0
   -4.8065   17.5201  -33.1865 H   0  0  0  0  0  0  0  0  0  0  0  0
   -5.9042   17.4790  -34.6078 H   0  0  0  0  0  0  0  0  0  0  0  0
   -4.4753   18.5674  -34.6078 H   0  0  0  0  0  0  0  0  0  0  0  0
   -9.9364   19.7989  -32.4394 H   0  0  0  0  0  0  0  0  0  0  0  0
  -10.3852   22.0335  -31.3803 H   0  0  0  0  0  0  0  0  0  0  0  0
   -8.5115   23.6433  -30.9898 H   0  0  0  0  0  0  0  0  0  0  0  0
   -6.4188   23.8181  -29.7025 H   0  0  0  0  0  0  0  0  0  0  0  0
   -4.7968   23.0443  -29.8661 H   0  0  0  0  0  0  0  0  0  0  0  0
   -3.3766   24.0604  -28.4816 H   0  0  0  0  0  0  0  0  0  0  0  0
   -1.6031   25.1292  -27.6227 H   0  0  0  0  0  0  0  0  0  0  0  0
   -0.6074   24.7113  -29.0582 H   0  0  0  0  0  0  0  0  0  0  0  0
   -1.5991   26.2090  -29.0582 H   0  0  0  0  0  0  0  0  0  0  0  0
   -1.9207   22.3800  -29.3534 H   0  0  0  0  0  0  0  0  0  0  0  0
   -3.0431   22.7605  -30.7032 H   0  0  0  0  0  0  0  0  0  0  0  0
   -1.3776   23.4335  -30.7032 H   0  0  0  0  0  0  0  0  0  0  0  0
   -1.0737   20.0483  -30.8333 H   0  0  0  0  0  0  0  0  0  0  0  0
    1.3263   20.3920  -31.4263 H   0  0  0  0  0  0  0  0  0  0  0  0
    1.9784   20.8563  -33.7897 H   0  0  0  0  0  0  0  0  0  0  0  0
    0.2284   20.9878  -35.5655 H   0  0  0  0  0  0  0  0  0  0  0  0
   -2.1730   20.6503  -34.9812 H   0  0  0  0  0  0  0  0  0  0  0  0
  1  2  1  0
  2  3  1  0
  3  4  1  0
  4  5  2  0
  5  6  1  0
  6  7  2  0
  7  8  1  0
  8  9  1  0
  9 10  1  0
 10 11  1  0
 11 12  2  0
 11 13  1  0
 13 14  1  0
 14 15  1  0
 14 16  1  0
  8 17  2  0
 17 18  1  0
 18 19  1  0
 19 20  2  0
 19 21  1  0
 21 22  1  0
 22 23  2  0
 23 24  1  0
 24 25  2  0
 25 26  1  0
 26 27  2  0
 18  2  2  0
 27 22  1  0
 17  4  1  0
  1 28  1  0
  1 29  1  0
  1 30  1  0
  5 31  1  0
  6 32  1  0
  7 33  1  0
 10 34  1  0
 10 35  1  0
 14 36  1  0
 15 37  1  0
 15 38  1  0
 15 39  1  0
 16 40  1  0
 16 41  1  0
 16 42  1  0
 23 43  1  0
 24 44  1  0
 25 45  1  0
 26 46  1  0
 27 47  1  0
M  CHG  2  13  -1  21  -1
M  END
>  <UniqueID>  (7) 
7

>  <SMILES>  (7) 
Cc1oc2cccc(OCC(=O)[N-]C(C)C)c2c1C(=O)[N-]c1ccccc1

>  <Energy>  (7) 
80.97274766045207

>  <Genealogy>  (7) 
Cc1oc2cccc(OCC(=O)[N-]C(C)C)c2c1C(=O)[N-]c1ccccc1 (protonated)
Cc1oc2cccc(OCC(=O)[N-]C(C)C)c2c1C(=O)[N-]c1ccccc1 (3D coordinates assigned)
Cc1oc2cccc(OCC(=O)[N-]C(C)C)c2c1C(=O)[N-]c1ccccc1 (optimized conformer: 80.97274766045207 kcal/mol)

>  <smiles>  (7) 
Cc1oc2cccc(OCC(=O)NC(C)C)c2c1C(=O)Nc1ccccc1

>  <score_type>  (7) 
oracle

>  <origin>  (7) 
adg

>  <m_score__min__energy>  (7) 
-9.9800000000000004

>  <m_primary>  (7) 
energy

$$$$
7:0
     RDKit          3D

 38 40  0  0  0  0  0  0  0  0999 V2000
   -0.4060   24.3620  -25.9150 C   0  0  0  0  0  0  0  0  0  0  0  0
    0.5010   24.0830  -27.1070 C   0  0  0  0  0  0  0  0  0  0  0  0
    0.1010   24.9170  -28.2470 N   0  0  0  0  0  0  0  0  0  0  0  0
   -1.3220   25.2830  -28.1750 C   0  0  0  0  0  0  0  0  0  0  0  0
   -2.1850   24.2640  -28.9290 C   0  0  0  0  0  0  0  0  0  0  0  0
   -3.0850   24.9150  -29.8260 O   0  0  0  0  0  0  0  0  0  0  0  0
   -4.3170   24.4040  -30.2650 C   0  0  0  0  0  0  0  0  0  0  0  0
   -5.4640   25.2040  -30.4220 C   0  0  0  0  0  0  0  0  0  0  0  0
   -6.6660   24.6430  -30.8640 C   0  0  0  0  0  0  0  0  0  0  0  0
   -6.7430   23.2700  -31.1520 C   0  0  0  0  0  0  0  0  0  0  0  0
   -7.9310   22.6650  -31.5990 C   0  0  0  0  0  0  0  0  0  0  0  0
   -8.9780   23.3530  -31.7560 O   0  0  0  0  0  0  0  0  0  0  0  0
   -7.9390   21.2850  -31.8680 C   0  0  0  0  0  0  0  0  0  0  0  0
   -9.0930   20.6160  -32.3180 C   0  0  0  0  0  0  0  0  0  0  0  0
   -9.0530   19.2420  -32.5730 C   0  0  0  0  0  0  0  0  0  0  0  0
   -7.8690   18.5250  -32.3830 C   0  0  0  0  0  0  0  0  0  0  0  0
   -6.7170   19.1780  -31.9370 C   0  0  0  0  0  0  0  0  0  0  0  0
   -6.7430   20.5530  -31.6780 C   0  0  0  0  0  0  0  0  0  0  0  0
   -5.6410   21.1620  -31.2540 O   0  0  0  0  0  0  0  0  0  0  0  0
   -5.5940   22.4640  -30.9890 C   0  0  0  0  0  0  0  0  0  0  0  0
   -4.3960   23.0340  -30.5480 C   0  0  0  0  0  0  0  0  0  0  0  0
    0.1512   24.1906  -24.9822 H   0  0  0  0  0  0  0  0  0  0  0  0
   -0.7480   25.4069  -25.9511 H   0  0  0  0  0  0  0  0  0  0  0  0
   -1.2761   23.6900  -25.9511 H   0  0  0  0  0  0  0  0  0  0  0  0
    1.5417   24.3127  -26.8347 H   0  0  0  0  0  0  0  0  0  0  0  0
    0.4145   23.0227  -27.3868 H   0  0  0  0  0  0  0  0  0  0  0  0
    0.6580   25.8040  -28.1990 H   0  0  0  0  0  0  0  0  0  0  0  0
   -1.6345   25.3103  -27.1207 H   0  0  0  0  0  0  0  0  0  0  0  0
   -1.4560   26.2710  -28.6397 H   0  0  0  0  0  0  0  0  0  0  0  0
   -1.5291   23.5927  -29.5027 H   0  0  0  0  0  0  0  0  0  0  0  0
   -2.7745   23.6950  -28.1950 H   0  0  0  0  0  0  0  0  0  0  0  0
   -5.4145   26.2792  -30.1952 H   0  0  0  0  0  0  0  0  0  0  0  0
   -7.5550   25.2792  -30.9868 H   0  0  0  0  0  0  0  0  0  0  0  0
  -10.0280   21.1754  -32.4693 H   0  0  0  0  0  0  0  0  0  0  0  0
   -9.9572   18.7234  -32.9246 H   0  0  0  0  0  0  0  0  0  0  0  0
   -7.8437   17.4440  -32.5850 H   0  0  0  0  0  0  0  0  0  0  0  0
   -5.7869   18.6096  -31.7890 H   0  0  0  0  0  0  0  0  0  0  0  0
   -3.5059   22.4001  -30.4218 H   0  0  0  0  0  0  0  0  0  0  0  0
  1  2  1  0
  2  3  1  0
  3  4  1  0
  4  5  1  0
  5  6  1  0
  6  7  1  0
  7  8  2  0
  8  9  1  0
  9 10  2  0
 10 11  1  0
 11 12  2  0
 11 13  1  0
 13 14  2  0
 14 15  1  0
 15 16  2  0
 16 17  1  0
 17 18  2  0
 18 19  1  0
 19 20  1  0
 20 21  2  0
 21  7  1  0
 20 10  1  0
 18 13  1  0
  1 22  1  0
  1 23  1  0
  1 24  1  0
  2 25  1  0
  2 26  1  0
  3 27  1  0
  4 28  1  0
  4 29  1  0
  5 30  1  0
  5 31  1  0
  8 32  1  0
  9 33  1  0
 14 34  1  0
 15 35  1  0
 16 36  1  0
 17 37  1  0
 21 38  1  0
M  END
>  <UniqueID>  (8) 
8

>  <SMILES>  (8) 
CCNCCOc1ccc2c(=O)c3ccccc3oc2c1

>  <Energy>  (8) 
44.50678994605673

>  <Genealogy>  (8) 
CCNCCOc1ccc2c(=O)c3ccccc3oc2c1 (3D coordinates assigned)
CCNCCOc1ccc2c(=O)c3ccccc3oc2c1 (optimized conformer: 44.50678994605673 kcal/mol)

>  <smiles>  (8) 
CCNCCOc1ccc2c(=O)c3ccccc3oc2c1

>  <score_type>  (8) 
oracle

>  <origin>  (8) 
adg

>  <m_score__min__energy>  (8) 
-8.2799999999999994

>  <m_primary>  (8) 
energy

$$$$
8:0
     RDKit          3D

 66 68  0  0  0  0  0  0  0  0999 V2000
   -3.0090   18.9670  -26.3530 C   0  0  0  0  0  0  0  0  0  0  0  0
   -1.8790   19.3420  -27.3070 C   0  0  0  0  0  0  0  0  0  0  0  0
   -1.8870   20.8440  -27.6190 C   0  0  0  0  0  0  0  0  0  0  0  0
   -3.0100   21.1650  -28.5320 N   0  0  0  0  0  0  0  0  0  0  0  0
   -3.7780   22.3690  -28.1320 C   0  0  0  0  0  0  0  0  0  0  0  0
   -2.8420   23.5130  -27.7110 C   0  0  0  0  0  0  0  0  0  0  0  0
   -2.3980   24.3980  -28.8740 C   0  0  0  0  0  0  0  0  0  0  0  0
   -2.5980   21.1780  -29.9580 C   0  0  0  0  0  0  0  0  0  0  0  0
   -3.7520   21.4680  -30.9470 C   0  0  0  0  0  0  0  0  0  0  0  0
   -3.2160   21.7190  -32.3630 C   0  0  0  0  0  0  0  0  0  0  0  0
   -4.3220   21.8230  -33.3330 N   0  0  0  0  0  0  0  0  0  0  0  0
   -5.4390   20.9750  -32.9440 C   0  0  0  0  0  0  0  0  0  0  0  0
   -5.4040   19.5840  -33.2480 C   0  0  0  0  0  0  0  0  0  0  0  0
   -4.2380   18.9620  -33.7710 C   0  0  0  0  0  0  0  0  0  0  0  0
   -4.2390   17.6210  -34.1420 C   0  0  0  0  0  0  0  0  0  0  0  0
   -5.3920   16.8640  -34.0120 C   0  0  0  0  0  0  0  0  0  0  0  0
   -6.5400   17.4330  -33.4700 C   0  0  0  0  0  0  0  0  0  0  0  0
   -6.5580   18.7840  -33.0320 C   0  0  0  0  0  0  0  0  0  0  0  0
   -7.6770   19.3240  -32.4350 N   0  0  0  0  0  0  0  0  0  0  0  0
   -8.7540   18.4300  -31.9470 C   0  0  0  0  0  0  0  0  0  0  0  0
   -7.7760   20.6880  -32.2430 C   0  0  0  0  0  0  0  0  0  0  0  0
   -9.0230   21.2790  -31.9280 C   0  0  0  0  0  0  0  0  0  0  0  0
   -9.1250   22.6260  -31.6230 C   0  0  0  0  0  0  0  0  0  0  0  0
   -7.9920   23.4160  -31.5880 C   0  0  0  0  0  0  0  0  0  0  0  0
   -6.7330   22.8910  -31.9240 C   0  0  0  0  0  0  0  0  0  0  0  0
   -5.5850   23.6890  -31.7850 O   0  0  0  0  0  0  0  0  0  0  0  0
   -5.4900   24.9480  -31.1140 C   0  0  0  0  0  0  0  0  0  0  0  0
   -5.7490   24.7880  -29.6200 C   0  0  0  0  0  0  0  0  0  0  0  0
   -6.6300   21.5290  -32.3740 C   0  0  0  0  0  0  0  0  0  0  0  0
   -2.6651   19.0811  -25.3144 H   0  0  0  0  0  0  0  0  0  0  0  0
   -3.8712   19.6272  -26.5284 H   0  0  0  0  0  0  0  0  0  0  0  0
   -3.3054   17.9223  -26.5284 H   0  0  0  0  0  0  0  0  0  0  0  0
   -0.9168   19.0775  -26.8441 H   0  0  0  0  0  0  0  0  0  0  0  0
   -2.0229   18.7915  -28.2484 H   0  0  0  0  0  0  0  0  0  0  0  0
   -2.0048   21.4100  -26.6832 H   0  0  0  0  0  0  0  0  0  0  0  0
   -0.9379   21.1178  -28.1030 H   0  0  0  0  0  0  0  0  0  0  0  0
   -4.3911   22.7020  -28.9824 H   0  0  0  0  0  0  0  0  0  0  0  0
   -4.4138   22.1064  -27.2736 H   0  0  0  0  0  0  0  0  0  0  0  0
   -3.3684   24.1410  -26.9771 H   0  0  0  0  0  0  0  0  0  0  0  0
   -1.9357   23.0512  -27.2922 H   0  0  0  0  0  0  0  0  0  0  0  0
   -1.9373   25.3163  -28.4809 H   0  0  0  0  0  0  0  0  0  0  0  0
   -1.6657   23.8548  -29.4893 H   0  0  0  0  0  0  0  0  0  0  0  0
   -3.2712   24.6603  -29.4893 H   0  0  0  0  0  0  0  0  0  0  0  0
   -1.8286   21.9534  -30.0881 H   0  0  0  0  0  0  0  0  0  0  0  0
   -2.2278   20.1685  -30.1901 H   0  0  0  0  0  0  0  0  0  0  0  0
   -4.4325   20.6040  -30.9683 H   0  0  0  0  0  0  0  0  0  0  0  0
   -4.2831   22.3702  -30.6094 H   0  0  0  0  0  0  0  0  0  0  0  0
   -2.6415   22.6571  -32.3697 H   0  0  0  0  0  0  0  0  0  0  0  0
   -2.5739   20.8735  -32.6510 H   0  0  0  0  0  0  0  0  0  0  0  0
   -3.9790   21.5720  -34.2870 H   0  0  0  0  0  0  0  0  0  0  0  0
   -4.6260   22.8100  -33.4740 H   0  0  0  0  0  0  0  0  0  0  0  0
   -3.3168   19.5523  -33.8847 H   0  0  0  0  0  0  0  0  0  0  0  0
   -3.3223   17.1609  -34.5394 H   0  0  0  0  0  0  0  0  0  0  0  0
   -5.3998   15.8132  -34.3373 H   0  0  0  0  0  0  0  0  0  0  0  0
   -7.4518   16.8245  -33.3789 H   0  0  0  0  0  0  0  0  0  0  0  0
   -8.7577   18.4269  -30.8470 H   0  0  0  0  0  0  0  0  0  0  0  0
   -9.7254   18.7909  -32.3159 H   0  0  0  0  0  0  0  0  0  0  0  0
   -8.5781   17.4087  -32.3159 H   0  0  0  0  0  0  0  0  0  0  0  0
   -9.9294   20.6558  -31.9254 H   0  0  0  0  0  0  0  0  0  0  0  0
  -10.1093   23.0676  -31.4083 H   0  0  0  0  0  0  0  0  0  0  0  0
   -8.0771   24.4722  -31.2925 H   0  0  0  0  0  0  0  0  0  0  0  0
   -4.4811   25.3603  -31.2627 H   0  0  0  0  0  0  0  0  0  0  0  0
   -6.2476   25.6274  -31.5317 H   0  0  0  0  0  0  0  0  0  0  0  0
   -4.9467   25.2836  -29.0536 H   0  0  0  0  0  0  0  0  0  0  0  0
   -6.7156   25.2466  -29.3643 H   0  0  0  0  0  0  0  0  0  0  0  0
   -5.7715   23.7184  -29.3643 H   0  0  0  0  0  0  0  0  0  0  0  0
  1  2  1  0
  2  3  1  0
  3  4  1  0
  4  5  1  0
  5  6  1  0
  6  7  1  0
  4  8  1  0
  8  9  1  0
  9 10  1  0
 10 11  1  0
 11 12  1  0
 12 13  2  0
 13 14  1  0
 14 15  2  0
 15 16  1  0
 16 17  2  0
 17 18  1  0
 18 19  2  0
 19 20  1  0
 19 21  1  0
 21 22  2  0
 22 23  1  0
 23 24  2  0
 24 25  1  0
 25 26  1  0
 26 27  1  0
 27 28  1  0
 25 29  2  0
 29 12  1  0
 18 13  1  0
 29 21  1  0
  1 30  1  0
  1 31  1  0
  1 32  1  0
  2 33  1  0
  2 34  1  0
  3 35  1  0
  3 36  1  0
  5 37  1  0
  5 38  1  0
  6 39  1  0
  6 40  1  0
  7 41  1  0
  7 42  1  0
  7 43  1  0
  8 44  1  0
  8 45  1  0
  9 46  1  0
  9 47  1  0
 10 48  1  0
 10 49  1  0
 11 50  1  0
 11 51  1  0
 14 52  1  0
 15 53  1  0
 16 54  1  0
 17 55  1  0
 20 56  1  0
 20 57  1  0
 20 58  1  0
 22 59  1  0
 23 60  1  0
 24 61  1  0
 27 62  1  0
 27 63  1  0
 28 64  1  0
 28 65  1  0
 28 66  1  0
M  CHG  2  11   1  19   1
M  END
>  <UniqueID>  (9) 
9

>  <SMILES>  (9) 
CCCN(CCC)CCC[NH2+]c1c2ccccc2[n+](C)c2cccc(OCC)c12

>  <Energy>  (9) 
95.61014657533511

>  <Genealogy>  (9) 
CCCN(CCC)CCC[NH2+]c1c2ccccc2[n+](C)c2cccc(OCC)c12 (protonated)
CCCN(CCC)CCC[NH2+]c1c2ccccc2[n+](C)c2cccc(OCC)c12 (3D coordinates assigned)
CCCN(CCC)CCC[NH2+]c1c2ccccc2[n+](C)c2cccc(OCC)c12 (optimized conformer: 95.61014657533511 kcal/mol)

>  <smiles>  (9) 
CCCN(CCC)CCCNc1c2ccccc2[n+](C)c2cccc(OCC)c12

>  <score_type>  (9) 
oracle

>  <origin>  (9) 
adg

>  <m_score__min__energy>  (9) 
-8.1899999999999995

>  <m_primary>  (9) 
energy

$$$$
9:0
     RDKit          3D

 38 40  0  0  0  0  0  0  0  0999 V2000
   -9.5070   21.5620  -30.8810 C   0  0  0  0  0  0  0  0  0  0  0  0
   -8.8900   22.4910  -31.9210 C   0  0  0  0  0  0  0  0  0  0  0  0
   -7.4260   22.3940  -31.8920 N   0  0  0  0  0  0  0  0  0  0  0  0
   -6.6190   21.5310  -32.5730 C   0  0  0  0  0  0  0  0  0  0  0  0
   -7.1290   20.4260  -33.4680 C   0  0  0  0  0  0  0  0  0  0  0  0
   -6.6440   19.0770  -33.0020 C   0  0  0  0  0  0  0  0  0  0  0  0
   -6.0980   18.1620  -33.9190 C   0  0  0  0  0  0  0  0  0  0  0  0
   -5.6460   16.9120  -33.4840 C   0  0  0  0  0  0  0  0  0  0  0  0
   -5.7420   16.5630  -32.1350 C   0  0  0  0  0  0  0  0  0  0  0  0
   -6.2930   17.4620  -31.2180 C   0  0  0  0  0  0  0  0  0  0  0  0
   -6.7470   18.7120  -31.6480 C   0  0  0  0  0  0  0  0  0  0  0  0
   -5.2970   21.7790  -32.3450 N   0  0  0  0  0  0  0  0  0  0  0  0
   -4.1460   21.0240  -32.8420 C   0  0  0  0  0  0  0  0  0  0  0  0
   -5.2880   22.8120  -31.4760 C   0  0  0  0  0  0  0  0  0  0  0  0
   -4.1980   23.4530  -30.8800 C   0  0  0  0  0  0  0  0  0  0  0  0
   -4.4640   24.5190  -30.0010 C   0  0  0  0  0  0  0  0  0  0  0  0
   -5.7940   24.9140  -29.7370 C   0  0  0  0  0  0  0  0  0  0  0  0
   -6.8710   24.2460  -30.3460 C   0  0  0  0  0  0  0  0  0  0  0  0
   -6.5760   23.1910  -31.2130 C   0  0  0  0  0  0  0  0  0  0  0  0
   -9.2640   21.9278  -29.8725 H   0  0  0  0  0  0  0  0  0  0  0  0
  -10.5992   21.5409  -31.0102 H   0  0  0  0  0  0  0  0  0  0  0  0
   -9.1029   20.5471  -31.0102 H   0  0  0  0  0  0  0  0  0  0  0  0
   -9.2520   22.2071  -32.9202 H   0  0  0  0  0  0  0  0  0  0  0  0
   -9.1828   23.5263  -31.6918 H   0  0  0  0  0  0  0  0  0  0  0  0
   -8.2289   20.4348  -33.4572 H   0  0  0  0  0  0  0  0  0  0  0  0
   -6.7488   20.5995  -34.4855 H   0  0  0  0  0  0  0  0  0  0  0  0
   -6.0260   18.4303  -34.9833 H   0  0  0  0  0  0  0  0  0  0  0  0
   -5.2142   16.2026  -34.2054 H   0  0  0  0  0  0  0  0  0  0  0  0
   -5.3838   15.5803  -31.7944 H   0  0  0  0  0  0  0  0  0  0  0  0
   -6.3696   17.1855  -30.1561 H   0  0  0  0  0  0  0  0  0  0  0  0
   -7.1869   19.4135  -30.9238 H   0  0  0  0  0  0  0  0  0  0  0  0
   -3.5631   20.6417  -31.9911 H   0  0  0  0  0  0  0  0  0  0  0  0
   -4.4975   20.1804  -33.4542 H   0  0  0  0  0  0  0  0  0  0  0  0
   -3.5123   21.6824  -33.4542 H   0  0  0  0  0  0  0  0  0  0  0  0
   -3.1665   23.1346  -31.0912 H   0  0  0  0  0  0  0  0  0  0  0  0
   -3.6305   25.0483  -29.5162 H   0  0  0  0  0  0  0  0  0  0  0  0
   -5.9888   25.7505  -29.0498 H   0  0  0  0  0  0  0  0  0  0  0  0
   -7.9109   24.5441  -30.1465 H   0  0  0  0  0  0  0  0  0  0  0  0
  1  2  1  0
  2  3  1  0
  3  4  2  0
  4  5  1  0
  5  6  1  0
  6  7  2  0
  7  8  1  0
  8  9  2  0
  9 10  1  0
 10 11  2  0
  4 12  1  0
 12 13  1  0
 12 14  1  0
 14 15  2  0
 15 16  1  0
 16 17  2  0
 17 18  1  0
 18 19  2  0
 19  3  1  0
 11  6  1  0
 19 14  1  0
  1 20  1  0
  1 21  1  0
  1 22  1  0
  2 23  1  0
  2 24  1  0
  5 25  1  0
  5 26  1  0
  7 27  1  0
  8 28  1  0
  9 29  1  0
 10 30  1  0
 11 31  1  0
 13 32  1  0
 13 33  1  0
 13 34  1  0
 15 35  1  0
 16 36  1  0
 17 37  1  0
 18 38  1  0
M  CHG  1   3   1
M  END
>  <UniqueID>  (10) 
10

>  <SMILES>  (10) 
CC[n+]1c(Cc2ccccc2)n(C)c2ccccc21

>  <Energy>  (10) 
75.31640967560753

>  <Genealogy>  (10) 
CC[n+]1c(Cc2ccccc2)n(C)c2ccccc21 (3D coordinates assigned)
CC[n+]1c(Cc2ccccc2)n(C)c2ccccc21 (optimized conformer: 75.31640967560753 kcal/mol)

>  <smiles>  (10) 
CC[n+]1c(Cc2ccccc2)n(C)c2ccccc21

>  <score_type>  (10) 
oracle

>  <origin>  (10) 
adg

>  <m_score__min__energy>  (10) 
-6.8600000000000003

>  <m_primary>  (10) 
energy

$$$$
10:0
     RDKit          3D

 55 57  0  0  0  0  0  0  0  0999 V2000
   -0.7730   21.1480  -31.8840 C   0  0  0  0  0  0  0  0  0  0  0  0
   -0.6410   21.8460  -30.5310 C   0  0  0  0  0  0  0  0  0  0  0  0
   -1.8950   21.6470  -29.6770 C   0  0  0  0  0  0  0  0  0  0  0  0
   -1.7620   22.4280  -28.4250 N   0  0  0  0  0  0  0  0  0  0  0  0
   -1.6800   21.5840  -27.2120 C   0  0  0  0  0  0  0  0  0  0  0  0
   -2.6590   20.4030  -27.2920 C   0  0  0  0  0  0  0  0  0  0  0  0
   -2.0380   19.1130  -26.7600 C   0  0  0  0  0  0  0  0  0  0  0  0
   -2.7650   23.5110  -28.3110 C   0  0  0  0  0  0  0  0  0  0  0  0
   -2.5940   24.5930  -29.3460 C   0  0  0  0  0  0  0  0  0  0  0  0
   -1.6250   25.3950  -29.2610 O   0  0  0  0  0  0  0  0  0  0  0  0
   -3.5090   24.6580  -30.4490 N   0  0  0  0  0  0  0  0  0  0  0  0
   -4.3410   23.6030  -30.9560 C   0  0  0  0  0  0  0  0  0  0  0  0
   -3.8780   22.6620  -31.8910 C   0  0  0  0  0  0  0  0  0  0  0  0
   -4.7220   21.6490  -32.3570 C   0  0  0  0  0  0  0  0  0  0  0  0
   -6.0430   21.5600  -31.8920 C   0  0  0  0  0  0  0  0  0  0  0  0
   -6.5410   22.5660  -31.0340 C   0  0  0  0  0  0  0  0  0  0  0  0
   -5.6800   23.5610  -30.5520 C   0  0  0  0  0  0  0  0  0  0  0  0
   -7.9880   22.5220  -30.5810 C   0  0  0  0  0  0  0  0  0  0  0  0
   -8.9220   21.9260  -31.6530 C   0  0  0  0  0  0  0  0  0  0  0  0
   -8.2980   20.6980  -32.2410 C   0  0  0  0  0  0  0  0  0  0  0  0
   -8.9650   19.6150  -32.6750 N   0  0  0  0  0  0  0  0  0  0  0  0
   -8.0470   18.7330  -33.0440 N   0  0  0  0  0  0  0  0  0  0  0  0
   -6.8370   19.2960  -32.8330 C   0  0  0  0  0  0  0  0  0  0  0  0
   -5.5580   18.5260  -33.0060 C   0  0  0  0  0  0  0  0  0  0  0  0
   -5.3720   18.0690  -34.4550 C   0  0  0  0  0  0  0  0  0  0  0  0
   -6.1180   18.8700  -35.3300 O   0  0  0  0  0  0  0  0  0  0  0  0
   -6.9680   20.5560  -32.3530 N   0  0  0  0  0  0  0  0  0  0  0  0
   -0.9753   20.0783  -31.7265 H   0  0  0  0  0  0  0  0  0  0  0  0
   -1.6019   21.5985  -32.4497 H   0  0  0  0  0  0  0  0  0  0  0  0
    0.1631   21.2647  -32.4497 H   0  0  0  0  0  0  0  0  0  0  0  0
    0.2259   21.4303  -29.9966 H   0  0  0  0  0  0  0  0  0  0  0  0
   -0.5095   22.9237  -30.7081 H   0  0  0  0  0  0  0  0  0  0  0  0
   -2.7781   21.9930  -30.2342 H   0  0  0  0  0  0  0  0  0  0  0  0
   -2.0119   20.5801  -29.4359 H   0  0  0  0  0  0  0  0  0  0  0  0
   -0.6557   21.1953  -27.1135 H   0  0  0  0  0  0  0  0  0  0  0  0
   -1.9459   22.1994  -26.3399 H   0  0  0  0  0  0  0  0  0  0  0  0
   -3.5523   20.6403  -26.6956 H   0  0  0  0  0  0  0  0  0  0  0  0
   -2.9190   20.2461  -28.3492 H   0  0  0  0  0  0  0  0  0  0  0  0
   -2.0456   19.1288  -25.6601 H   0  0  0  0  0  0  0  0  0  0  0  0
   -2.6198   18.2510  -27.1184 H   0  0  0  0  0  0  0  0  0  0  0  0
   -1.0013   19.0301  -27.1184 H   0  0  0  0  0  0  0  0  0  0  0  0
   -3.7671   23.0724  -28.4267 H   0  0  0  0  0  0  0  0  0  0  0  0
   -2.6287   23.9789  -27.3248 H   0  0  0  0  0  0  0  0  0  0  0  0
   -2.8433   22.7226  -32.2594 H   0  0  0  0  0  0  0  0  0  0  0  0
   -4.3490   20.9193  -33.0907 H   0  0  0  0  0  0  0  0  0  0  0  0
   -6.0606   24.3166  -29.8490 H   0  0  0  0  0  0  0  0  0  0  0  0
   -8.0550   21.9059  -29.6722 H   0  0  0  0  0  0  0  0  0  0  0  0
   -8.3116   23.5562  -30.3919 H   0  0  0  0  0  0  0  0  0  0  0  0
   -9.8853   21.6617  -31.1924 H   0  0  0  0  0  0  0  0  0  0  0  0
   -9.0837   22.6685  -32.4483 H   0  0  0  0  0  0  0  0  0  0  0  0
   -4.7120   19.1693  -32.7224 H   0  0  0  0  0  0  0  0  0  0  0  0
   -5.6023   17.6333  -32.3648 H   0  0  0  0  0  0  0  0  0  0  0  0
   -4.3070   18.1394  -34.7213 H   0  0  0  0  0  0  0  0  0  0  0  0
   -5.7216   17.0299  -34.5442 H   0  0  0  0  0  0  0  0  0  0  0  0
   -7.0380   18.9140  -34.9600 H   0  0  0  0  0  0  0  0  0  0  0  0
  1  2  1  0
  2  3  1  0
  3  4  1  0
  4  5  1  0
  5  6  1  0
  6  7  1  0
  4  8  1  0
  8  9  1  0
  9 10  2  0
  9 11  1  0
 11 12  1  0
 12 13  2  0
 13 14  1  0
 14 15  2  0
 15 16  1  0
 16 17  2  0
 16 18  1  0
 18 19  1  0
 19 20  1  0
 20 21  2  0
 21 22  1  0
 22 23  2  0
 23 24  1  0
 24 25  1  0
 25 26  1  0
 23 27  1  0
 17 12  1  0
 27 20  1  0
 27 15  1  0
  1 28  1  0
  1 29  1  0
  1 30  1  0
  2 31  1  0
  2 32  1  0
  3 33  1  0
  3 34  1  0
  5 35  1  0
  5 36  1  0
  6 37  1  0
  6 38  1  0
  7 39  1  0
  7 40  1  0
  7 41  1  0
  8 42  1  0
  8 43  1  0
 13 44  1  0
 14 45  1  0
 17 46  1  0
 18 47  1  0
 18 48  1  0
 19 49  1  0
 19 50  1  0
 24 51  1  0
 24 52  1  0
 25 53  1  0
 25 54  1  0
 26 55  1  0
M  CHG  1  11  -1
M  END
>  <UniqueID>  (11) 
11

>  <SMILES>  (11) 
CCCN(CCC)CC(=O)[N-]c1ccc2c(c1)CCc1nnc(CCO)n1-2

>  <Energy>  (11) 
96.218152510083

>  <Genealogy>  (11) 
CCCN(CCC)CC(=O)[N-]c1ccc2c(c1)CCc1nnc(CCO)n1-2 (protonated)
CCCN(CCC)CC(=O)[N-]c1ccc2c(c1)CCc1nnc(CCO)n1-2 (3D coordinates assigned)
CCCN(CCC)CC(=O)[N-]c1ccc2c(c1)CCc1nnc(CCO)n1-2 (nonaromatic ring conformer: 96.218152510083 kcal/mol)

>  <smiles>  (11) 
CCCN(CCC)CC(=O)Nc1ccc2c(c1)CCc1nnc(CCO)n1-2

>  <score_type>  (11) 
oracle

>  <origin>  (11) 
adg

>  <m_score__min__energy>  (11) 
-10.119999999999999

>  <m_primary>  (11) 
energy

$$$$
11:0
     RDKit          3D

 55 58  0  0  0  0  0  0  0  0999 V2000
   -3.2140   15.9460  -35.6280 C   0  0  0  0  0  0  0  0  0  0  0  0
   -3.1080   17.2950  -34.8960 C   0  0  0  0  0  0  0  0  0  0  0  0
   -3.2110   17.2400  -33.4080 N   0  0  0  0  0  0  0  0  0  0  0  0
   -1.9230   16.9100  -32.7400 C   0  0  0  0  0  0  0  0  0  0  0  0
   -0.9100   18.0600  -32.6900 C   0  0  0  0  0  0  0  0  0  0  0  0
   -4.3440   16.4400  -32.8710 C   0  0  0  0  0  0  0  0  0  0  0  0
   -5.6550   17.2460  -32.7740 C   0  0  0  0  0  0  0  0  0  0  0  0
   -5.5370   18.5550  -33.4210 N   0  0  0  0  0  0  0  0  0  0  0  0
   -5.7680   19.8000  -32.7350 C   0  0  0  0  0  0  0  0  0  0  0  0
   -7.0750   20.2900  -32.4860 C   0  0  0  0  0  0  0  0  0  0  0  0
   -8.2120   19.5850  -32.9330 C   0  0  0  0  0  0  0  0  0  0  0  0
   -9.4940   20.0490  -32.6480 C   0  0  0  0  0  0  0  0  0  0  0  0
   -9.6720   21.2150  -31.9120 C   0  0  0  0  0  0  0  0  0  0  0  0
   -8.5690   21.9490  -31.4790 C   0  0  0  0  0  0  0  0  0  0  0  0
   -7.2490   21.5340  -31.7830 C   0  0  0  0  0  0  0  0  0  0  0  0
   -6.1450   22.2870  -31.4070 N   0  0  0  0  0  0  0  0  0  0  0  0
   -6.2750   23.6760  -30.9350 C   0  0  0  0  0  0  0  0  0  0  0  0
   -4.9040   21.7240  -31.5570 C   0  0  0  0  0  0  0  0  0  0  0  0
   -4.7050   20.5380  -32.2250 C   0  0  0  0  0  0  0  0  0  0  0  0
   -3.4270   20.2240  -32.2670 O   0  0  0  0  0  0  0  0  0  0  0  0
   -2.7780   21.1690  -31.6230 C   0  0  0  0  0  0  0  0  0  0  0  0
   -1.4070   21.2280  -31.3990 C   0  0  0  0  0  0  0  0  0  0  0  0
   -0.9070   22.2890  -30.6290 C   0  0  0  0  0  0  0  0  0  0  0  0
   -1.7790   23.2630  -30.0770 C   0  0  0  0  0  0  0  0  0  0  0  0
   -1.2520   24.3240  -29.2590 N   0  0  0  0  0  0  0  0  0  0  0  0
   -1.9360   25.3390  -29.0130 O   0  0  0  0  0  0  0  0  0  0  0  0
    0.0220   24.2420  -28.7450 O   0  0  0  0  0  0  0  0  0  0  0  0
   -3.1710   23.1730  -30.3270 C   0  0  0  0  0  0  0  0  0  0  0  0
   -3.6390   22.1320  -31.1380 C   0  0  0  0  0  0  0  0  0  0  0  0
   -3.2779   15.1326  -34.8903 H   0  0  0  0  0  0  0  0  0  0  0  0
   -4.1153   15.9408  -36.2585 H   0  0  0  0  0  0  0  0  0  0  0  0
   -2.3246   15.8001  -36.2585 H   0  0  0  0  0  0  0  0  0  0  0  0
   -2.1349   17.7406  -35.1501 H   0  0  0  0  0  0  0  0  0  0  0  0
   -3.9736   17.8846  -35.2323 H   0  0  0  0  0  0  0  0  0  0  0  0
   -3.3860   18.2300  -33.1100 H   0  0  0  0  0  0  0  0  0  0  0  0
   -2.1425   16.6025  -31.7069 H   0  0  0  0  0  0  0  0  0  0  0  0
   -1.4581   16.1145  -33.3409 H   0  0  0  0  0  0  0  0  0  0  0  0
   -0.6901   18.3096  -31.6415 H   0  0  0  0  0  0  0  0  0  0  0  0
    0.0174   17.7540  -33.1963 H   0  0  0  0  0  0  0  0  0  0  0  0
   -1.3305   18.9414  -33.1963 H   0  0  0  0  0  0  0  0  0  0  0  0
   -4.5102   15.5780  -33.5338 H   0  0  0  0  0  0  0  0  0  0  0  0
   -4.0730   16.1267  -31.8520 H   0  0  0  0  0  0  0  0  0  0  0  0
   -6.4595   16.6778  -33.2638 H   0  0  0  0  0  0  0  0  0  0  0  0
   -5.8784   17.4093  -31.7094 H   0  0  0  0  0  0  0  0  0  0  0  0
   -5.2130   18.5720  -34.4140 H   0  0  0  0  0  0  0  0  0  0  0  0
   -8.0849   18.6589  -33.5128 H   0  0  0  0  0  0  0  0  0  0  0  0
  -10.3705   19.4898  -33.0072 H   0  0  0  0  0  0  0  0  0  0  0  0
  -10.6882   21.5599  -31.6702 H   0  0  0  0  0  0  0  0  0  0  0  0
   -8.7261   22.8656  -30.8915 H   0  0  0  0  0  0  0  0  0  0  0  0
   -6.2764   23.6909  -29.8351 H   0  0  0  0  0  0  0  0  0  0  0  0
   -5.4286   24.2710  -31.3087 H   0  0  0  0  0  0  0  0  0  0  0  0
   -7.2171   24.1036  -31.3087 H   0  0  0  0  0  0  0  0  0  0  0  0
   -0.7331   20.4641  -31.8140 H   0  0  0  0  0  0  0  0  0  0  0  0
    0.1757   22.3669  -30.4508 H   0  0  0  0  0  0  0  0  0  0  0  0
   -3.8684   23.9049  -29.8935 H   0  0  0  0  0  0  0  0  0  0  0  0
  1  2  1  0
  2  3  1  0
  3  4  1  0
  4  5  1  0
  3  6  1  0
  6  7  1  0
  7  8  1  0
  8  9  1  0
  9 10  2  0
 10 11  1  0
 11 12  2  0
 12 13  1  0
 13 14  2  0
 14 15  1  0
 15 16  2  0
 16 17  1  0
 16 18  1  0
 18 19  2  0
 19 20  1  0
 20 21  1  0
 21 22  2  0
 22 23  1  0
 23 24  2  0
 24 25  1  0
 25 26  2  0
 25 27  1  0
 24 28  1  0
 28 29  2  0
 19  9  1  0
 29 21  1  0
 15 10  1  0
 29 18  1  0
  1 30  1  0
  1 31  1  0
  1 32  1  0
  2 33  1  0
  2 34  1  0
  3 35  1  0
  4 36  1  0
  4 37  1  0
  5 38  1  0
  5 39  1  0
  5 40  1  0
  6 41  1  0
  6 42  1  0
  7 43  1  0
  7 44  1  0
  8 45  1  0
 11 46  1  0
 12 47  1  0
 13 48  1  0
 14 49  1  0
 17 50  1  0
 17 51  1  0
 17 52  1  0
 22 53  1  0
 23 54  1  0
 28 55  1  0
M  CHG  4   3   1  16   1  25   1  27  -1
M  END
>  <UniqueID>  (12) 
12

>  <SMILES>  (12) 
CC[NH+](CC)CCNc1c2ccccc2[n+](C)c2c1oc1ccc([N+](=O)[O-])cc12

>  <Energy>  (12) 
125.59437990329462

>  <Genealogy>  (12) 
CC[NH+](CC)CCNc1c2ccccc2[n+](C)c2c1oc1ccc([N+](=O)[O-])cc12 (protonated)
CC[NH+](CC)CCNc1c2ccccc2[n+](C)c2c1oc1ccc([N+](=O)[O-])cc12 (3D coordinates assigned)
CC[NH+](CC)CCNc1c2ccccc2[n+](C)c2c1oc1ccc([N+](=O)[O-])cc12 (optimized conformer: 125.59437990329462 kcal/mol)

>  <smiles>  (12) 
CCN(CC)CCNc1c2ccccc2[n+](C)c2c1oc1ccc([N+](=O)[O-])cc12

>  <score_type>  (12) 
oracle

>  <origin>  (12) 
adg

>  <m_score__min__energy>  (12) 
-7.8899999999999997

>  <m_primary>  (12) 
energy

$$$$
12:0
     RDKit          3D

 42 44  0  0  0  0  0  0  0  0999 V2000
   -5.5920   17.6760  -34.9720 C   0  0  0  0  0  0  0  0  0  0  0  0
   -5.7190   16.7510  -33.7540 C   0  0  0  0  0  0  0  0  0  0  0  0
   -5.3550   15.3060  -34.1290 C   0  0  0  0  0  0  0  0  0  0  0  0
   -7.1100   16.8470  -33.0900 C   0  0  0  0  0  0  0  0  0  0  0  0
   -7.4940   18.2470  -32.7030 C   0  0  0  0  0  0  0  0  0  0  0  0
   -8.7670   18.7210  -32.7160 N   0  0  0  0  0  0  0  0  0  0  0  0
   -8.7320   20.0010  -32.3570 N   0  0  0  0  0  0  0  0  0  0  0  0
   -9.9040   20.8620  -32.2720 C   0  0  0  0  0  0  0  0  0  0  0  0
   -7.4530   20.3440  -32.1240 C   0  0  0  0  0  0  0  0  0  0  0  0
   -6.9700   21.5580  -31.7590 N   0  0  0  0  0  0  0  0  0  0  0  0
   -5.6120   21.6930  -31.5850 C   0  0  0  0  0  0  0  0  0  0  0  0
   -5.0370   22.9580  -31.1910 N   0  0  0  0  0  0  0  0  0  0  0  0
   -5.7360   24.2180  -31.4700 C   0  0  0  0  0  0  0  0  0  0  0  0
   -5.3040   25.2990  -30.4760 C   0  0  0  0  0  0  0  0  0  0  0  0
   -3.8950   25.3930  -30.4130 O   0  0  0  0  0  0  0  0  0  0  0  0
   -3.3670   24.1970  -29.8740 C   0  0  0  0  0  0  0  0  0  0  0  0
   -3.6180   23.0180  -30.8190 C   0  0  0  0  0  0  0  0  0  0  0  0
   -4.7890   20.6120  -31.7950 N   0  0  0  0  0  0  0  0  0  0  0  0
   -5.2760   19.3920  -32.1670 C   0  0  0  0  0  0  0  0  0  0  0  0
   -6.6470   19.2740  -32.3300 C   0  0  0  0  0  0  0  0  0  0  0  0
   -5.4497   18.7124  -34.6321 H   0  0  0  0  0  0  0  0  0  0  0  0
   -4.7278   17.3671  -35.5785 H   0  0  0  0  0  0  0  0  0  0  0  0
   -6.5074   17.6115  -35.5785 H   0  0  0  0  0  0  0  0  0  0  0  0
   -4.9966   17.0935  -32.9985 H   0  0  0  0  0  0  0  0  0  0  0  0
   -5.2063   14.7158  -33.2128 H   0  0  0  0  0  0  0  0  0  0  0  0
   -6.1700   14.8645  -34.7214 H   0  0  0  0  0  0  0  0  0  0  0  0
   -4.4281   15.3033  -34.7214 H   0  0  0  0  0  0  0  0  0  0  0  0
   -7.8604   16.4629  -33.7967 H   0  0  0  0  0  0  0  0  0  0  0  0
   -7.0679   16.2553  -32.1637 H   0  0  0  0  0  0  0  0  0  0  0  0
  -10.1502   21.0429  -31.2153 H   0  0  0  0  0  0  0  0  0  0  0  0
   -9.6916   21.8204  -32.7683 H   0  0  0  0  0  0  0  0  0  0  0  0
  -10.7551   20.3728  -32.7683 H   0  0  0  0  0  0  0  0  0  0  0  0
   -7.6220   22.3630  -31.6400 H   0  0  0  0  0  0  0  0  0  0  0  0
   -5.4952   24.5477  -32.4914 H   0  0  0  0  0  0  0  0  0  0  0  0
   -6.8193   24.0547  -31.3712 H   0  0  0  0  0  0  0  0  0  0  0  0
   -5.7155   26.2676  -30.7961 H   0  0  0  0  0  0  0  0  0  0  0  0
   -5.6830   25.0309  -29.4788 H   0  0  0  0  0  0  0  0  0  0  0  0
   -2.2836   24.3158  -29.7252 H   0  0  0  0  0  0  0  0  0  0  0  0
   -3.8647   23.9924  -28.9146 H   0  0  0  0  0  0  0  0  0  0  0  0
   -3.0097   23.1443  -31.7267 H   0  0  0  0  0  0  0  0  0  0  0  0
   -3.3417   22.0839  -30.3079 H   0  0  0  0  0  0  0  0  0  0  0  0
   -4.6056   18.5354  -32.3311 H   0  0  0  0  0  0  0  0  0  0  0  0
  1  2  1  0
  2  3  1  0
  2  4  1  0
  4  5  1  0
  5  6  2  0
  6  7  1  0
  7  8  1  0
  7  9  1  0
  9 10  2  0
 10 11  1  0
 11 12  1  0
 12 13  1  0
 13 14  1  0
 14 15  1  0
 15 16  1  0
 16 17  1  0
 11 18  2  0
 18 19  1  0
 19 20  2  0
 20  5  1  0
 20  9  1  0
 17 12  1  0
  1 21  1  0
  1 22  1  0
  1 23  1  0
  2 24  1  0
  3 25  1  0
  3 26  1  0
  3 27  1  0
  4 28  1  0
  4 29  1  0
  8 30  1  0
  8 31  1  0
  8 32  1  0
 10 33  1  0
 13 34  1  0
 13 35  1  0
 14 36  1  0
 14 37  1  0
 16 38  1  0
 16 39  1  0
 17 40  1  0
 17 41  1  0
 19 42  1  0
M  CHG  1  10   1
M  END
>  <UniqueID>  (13) 
13

>  <SMILES>  (13) 
CC(C)Cc1nn(C)c2[nH+]c(N3CCOCC3)ncc12

>  <Energy>  (13) 
80.84747868778712

>  <Genealogy>  (13) 
CC(C)Cc1nn(C)c2[nH+]c(N3CCOCC3)ncc12 (protonated)
CC(C)Cc1nn(C)c2[nH+]c(N3CCOCC3)ncc12 (3D coordinates assigned)
CC(C)Cc1nn(C)c2[nH+]c(N3CCOCC3)ncc12 (nonaromatic ring conformer: 80.84747868778712 kcal/mol)

>  <smiles>  (13) 
CC(C)Cc1nn(C)c2nc(N3CCOCC3)ncc12

>  <score_type>  (13) 
oracle

>  <origin>  (13) 
adg

>  <m_score__min__energy>  (13) 
-7.1200000000000001

>  <m_primary>  (13) 
energy

$$$$
13:0
     RDKit          3D

 50 52  0  0  0  0  0  0  0  0999 V2000
   -6.1100   25.4220  -29.3500 C   0  0  0  0  0  0  0  0  0  0  0  0
   -5.4130   25.9330  -30.6020 C   0  0  0  0  0  0  0  0  0  0  0  0
   -4.2210   25.2000  -30.8010 O   0  0  0  0  0  0  0  0  0  0  0  0
   -3.9050   24.4430  -29.6480 C   0  0  0  0  0  0  0  0  0  0  0  0
   -3.3460   23.0720  -30.0390 C   0  0  0  0  0  0  0  0  0  0  0  0
   -3.6060   22.7970  -31.4030 O   0  0  0  0  0  0  0  0  0  0  0  0
   -2.5640   22.0230  -31.9610 C   0  0  0  0  0  0  0  0  0  0  0  0
   -3.1550   21.0780  -33.0100 C   0  0  0  0  0  0  0  0  0  0  0  0
   -4.4640   21.5340  -33.5210 N   0  0  0  0  0  0  0  0  0  0  0  0
   -5.5720   20.7150  -33.0390 C   0  0  0  0  0  0  0  0  0  0  0  0
   -6.6020   21.2660  -32.2240 C   0  0  0  0  0  0  0  0  0  0  0  0
   -6.5730   22.6110  -31.7710 C   0  0  0  0  0  0  0  0  0  0  0  0
   -7.5600   23.1110  -30.9270 C   0  0  0  0  0  0  0  0  0  0  0  0
   -8.5940   22.2940  -30.5010 C   0  0  0  0  0  0  0  0  0  0  0  0
   -8.6660   20.9770  -30.9420 C   0  0  0  0  0  0  0  0  0  0  0  0
   -7.7020   20.4450  -31.8390 C   0  0  0  0  0  0  0  0  0  0  0  0
   -7.8170   19.1580  -32.3200 N   0  0  0  0  0  0  0  0  0  0  0  0
   -9.1040   18.4340  -32.1990 C   0  0  0  0  0  0  0  0  0  0  0  0
   -6.7440   18.5530  -32.9400 C   0  0  0  0  0  0  0  0  0  0  0  0
   -6.7250   17.1540  -33.1720 C   0  0  0  0  0  0  0  0  0  0  0  0
   -5.6750   16.5480  -33.8550 C   0  0  0  0  0  0  0  0  0  0  0  0
   -4.6120   17.3120  -34.3140 C   0  0  0  0  0  0  0  0  0  0  0  0
   -3.1760   16.4750  -35.2570 Br  0  0  0  0  0  0  0  0  0  0  0  0
   -4.5780   18.6820  -34.0640 C   0  0  0  0  0  0  0  0  0  0  0  0
   -5.6230   19.3270  -33.3510 C   0  0  0  0  0  0  0  0  0  0  0  0
   -5.5897   25.8035  -28.4591 H   0  0  0  0  0  0  0  0  0  0  0  0
   -7.1532   25.7709  -29.3428 H   0  0  0  0  0  0  0  0  0  0  0  0
   -6.0911   24.3222  -29.3428 H   0  0  0  0  0  0  0  0  0  0  0  0
   -6.0748   25.8026  -31.4709 H   0  0  0  0  0  0  0  0  0  0  0  0
   -5.1756   27.0005  -30.4838 H   0  0  0  0  0  0  0  0  0  0  0  0
   -3.1529   24.9843  -29.0553 H   0  0  0  0  0  0  0  0  0  0  0  0
   -4.8218   24.2967  -29.0580 H   0  0  0  0  0  0  0  0  0  0  0  0
   -2.2592   23.0633  -29.8695 H   0  0  0  0  0  0  0  0  0  0  0  0
   -3.8340   22.3020  -29.4234 H   0  0  0  0  0  0  0  0  0  0  0  0
   -1.8253   22.6857  -32.4355 H   0  0  0  0  0  0  0  0  0  0  0  0
   -2.0690   21.4396  -31.1707 H   0  0  0  0  0  0  0  0  0  0  0  0
   -2.4535   21.0079  -33.8544 H   0  0  0  0  0  0  0  0  0  0  0  0
   -3.3108   20.1027  -32.5257 H   0  0  0  0  0  0  0  0  0  0  0  0
   -4.5970   22.5500  -33.3350 H   0  0  0  0  0  0  0  0  0  0  0  0
   -4.4490   21.5080  -34.5660 H   0  0  0  0  0  0  0  0  0  0  0  0
   -5.7542   23.2710  -32.0935 H   0  0  0  0  0  0  0  0  0  0  0  0
   -7.5188   24.1595  -30.5968 H   0  0  0  0  0  0  0  0  0  0  0  0
   -9.3581   22.6867  -29.8140 H   0  0  0  0  0  0  0  0  0  0  0  0
   -9.4861   20.3345  -30.5889 H   0  0  0  0  0  0  0  0  0  0  0  0
   -9.3487   18.2964  -31.1354 H   0  0  0  0  0  0  0  0  0  0  0  0
   -9.8998   19.0168  -32.6859 H   0  0  0  0  0  0  0  0  0  0  0  0
   -9.0191   17.4513  -32.6859 H   0  0  0  0  0  0  0  0  0  0  0  0
   -7.5571   16.5355  -32.8046 H   0  0  0  0  0  0  0  0  0  0  0  0
   -5.6879   15.4623  -34.0311 H   0  0  0  0  0  0  0  0  0  0  0  0
   -3.7254   19.2755  -34.4258 H   0  0  0  0  0  0  0  0  0  0  0  0
  1  2  1  0
  2  3  1  0
  3  4  1  0
  4  5  1  0
  5  6  1  0
  6  7  1  0
  7  8  1  0
  8  9  1  0
  9 10  1  0
 10 11  2  0
 11 12  1  0
 12 13  2  0
 13 14  1  0
 14 15  2  0
 15 16  1  0
 16 17  2  0
 17 18  1  0
 17 19  1  0
 19 20  2  0
 20 21  1  0
 21 22  2  0
 22 23  1  0
 22 24  1  0
 24 25  2  0
 25 10  1  0
 16 11  1  0
 25 19  1  0
  1 26  1  0
  1 27  1  0
  1 28  1  0
  2 29  1  0
  2 30  1  0
  4 31  1  0
  4 32  1  0
  5 33  1  0
  5 34  1  0
  7 35  1  0
  7 36  1  0
  8 37  1  0
  8 38  1  0
  9 39  1  0
  9 40  1  0
 12 41  1  0
 13 42  1  0
 14 43  1  0
 15 44  1  0
 18 45  1  0
 18 46  1  0
 18 47  1  0
 20 48  1  0
 21 49  1  0
 24 50  1  0
M  CHG  2   9   1  17   1
M  END
>  <UniqueID>  (14) 
14

>  <SMILES>  (14) 
CCOCCOCC[NH2+]c1c2ccccc2[n+](C)c2ccc(Br)cc12

>  <Energy>  (14) 
78.8459031022986

>  <Genealogy>  (14) 
CCOCCOCC[NH2+]c1c2ccccc2[n+](C)c2ccc(Br)cc12 (protonated)
CCOCCOCC[NH2+]c1c2ccccc2[n+](C)c2ccc(Br)cc12 (3D coordinates assigned)
CCOCCOCC[NH2+]c1c2ccccc2[n+](C)c2ccc(Br)cc12 (optimized conformer: 78.8459031022986 kcal/mol)

>  <smiles>  (14) 
CCOCCOCCNc1c2ccccc2[n+](C)c2ccc(Br)cc12

>  <score_type>  (14) 
oracle

>  <origin>  (14) 
adg

>  <m_score__min__energy>  (14) 
-8.4900000000000002

>  <m_primary>  (14) 
energy

$$$$
14:0
     RDKit          3D

 73 76  0  0  0  0  0  0  0  0999 V2000
   -1.6900   25.6120  -26.5830 C   0  0  0  0  0  0  0  0  0  0  0  0
   -0.9100   26.0800  -27.8040 C   0  0  0  0  0  0  0  0  0  0  0  0
   -1.6190   25.7200  -28.9710 O   0  0  0  0  0  0  0  0  0  0  0  0
   -2.4120   24.5820  -28.7080 C   0  0  0  0  0  0  0  0  0  0  0  0
   -3.1020   24.1460  -29.9990 C   0  0  0  0  0  0  0  0  0  0  0  0
   -3.9160   25.1900  -30.5000 O   0  0  0  0  0  0  0  0  0  0  0  0
   -5.2450   25.0440  -30.0450 C   0  0  0  0  0  0  0  0  0  0  0  0
   -6.1640   24.7550  -31.2310 C   0  0  0  0  0  0  0  0  0  0  0  0
   -6.0850   23.3440  -31.6120 N   0  0  0  0  0  0  0  0  0  0  0  0
   -4.9430   22.6660  -31.8690 C   0  0  0  0  0  0  0  0  0  0  0  0
   -5.2260   21.3620  -32.2590 C   0  0  0  0  0  0  0  0  0  0  0  0
   -4.2170   20.3540  -32.6390 C   0  0  0  0  0  0  0  0  0  0  0  0
   -4.3480   19.5780  -33.7940 C   0  0  0  0  0  0  0  0  0  0  0  0
   -3.3510   18.6610  -34.1230 C   0  0  0  0  0  0  0  0  0  0  0  0
   -2.2060   18.5270  -33.3140 C   0  0  0  0  0  0  0  0  0  0  0  0
   -1.1800   17.5960  -33.6080 C   0  0  0  0  0  0  0  0  0  0  0  0
   -1.2530   16.6820  -34.8040 C   0  0  0  0  0  0  0  0  0  0  0  0
   -0.0690   17.5130  -32.7580 C   0  0  0  0  0  0  0  0  0  0  0  0
    0.0400   18.3390  -31.6410 C   0  0  0  0  0  0  0  0  0  0  0  0
   -0.9500   19.2840  -31.3410 C   0  0  0  0  0  0  0  0  0  0  0  0
   -0.7640   20.1230  -30.1820 N   0  0  0  0  0  0  0  0  0  0  0  0
    0.3110   19.9280  -29.2030 C   0  0  0  0  0  0  0  0  0  0  0  0
    0.3070   21.0260  -28.1290 C   0  0  0  0  0  0  0  0  0  0  0  0
   -0.8630   20.8770  -27.1430 C   0  0  0  0  0  0  0  0  0  0  0  0
   -2.0530   20.3350  -27.8350 N   0  0  0  0  0  0  0  0  0  0  0  0
   -3.0740   21.3790  -28.0320 C   0  0  0  0  0  0  0  0  0  0  0  0
   -2.6340   19.2260  -27.0610 C   0  0  0  0  0  0  0  0  0  0  0  0
   -2.0910   19.3660  -32.1720 C   0  0  0  0  0  0  0  0  0  0  0  0
   -3.0970   20.2330  -31.8790 N   0  0  0  0  0  0  0  0  0  0  0  0
   -6.6100   21.2500  -32.2180 C   0  0  0  0  0  0  0  0  0  0  0  0
   -7.4610   20.1630  -32.4330 C   0  0  0  0  0  0  0  0  0  0  0  0
   -8.8450   20.3700  -32.3010 C   0  0  0  0  0  0  0  0  0  0  0  0
   -9.3480   21.6390  -31.9460 C   0  0  0  0  0  0  0  0  0  0  0  0
   -8.4720   22.7100  -31.7020 C   0  0  0  0  0  0  0  0  0  0  0  0
   -7.0980   22.4800  -31.8360 C   0  0  0  0  0  0  0  0  0  0  0  0
   -1.1647   25.9272  -25.6694 H   0  0  0  0  0  0  0  0  0  0  0  0
   -2.6965   26.0555  -26.5988 H   0  0  0  0  0  0  0  0  0  0  0  0
   -1.7723   24.5152  -26.5988 H   0  0  0  0  0  0  0  0  0  0  0  0
   -0.7904   27.1729  -27.7681 H   0  0  0  0  0  0  0  0  0  0  0  0
    0.0831   25.6071  -27.8130 H   0  0  0  0  0  0  0  0  0  0  0  0
   -1.7742   23.7660  -28.3372 H   0  0  0  0  0  0  0  0  0  0  0  0
   -3.1681   24.8244  -27.9467 H   0  0  0  0  0  0  0  0  0  0  0  0
   -2.3392   23.8894  -30.7489 H   0  0  0  0  0  0  0  0  0  0  0  0
   -3.7339   23.2707  -29.7879 H   0  0  0  0  0  0  0  0  0  0  0  0
   -5.2975   24.2101  -29.3295 H   0  0  0  0  0  0  0  0  0  0  0  0
   -5.5664   25.9732  -29.5518 H   0  0  0  0  0  0  0  0  0  0  0  0
   -7.2004   24.9968  -30.9526 H   0  0  0  0  0  0  0  0  0  0  0  0
   -5.8457   25.3712  -32.0848 H   0  0  0  0  0  0  0  0  0  0  0  0
   -3.9309   23.0879  -31.7815 H   0  0  0  0  0  0  0  0  0  0  0  0
   -5.2319   19.6901  -34.4391 H   0  0  0  0  0  0  0  0  0  0  0  0
   -3.4595   18.0367  -35.0222 H   0  0  0  0  0  0  0  0  0  0  0  0
   -1.3363   15.6392  -34.4640 H   0  0  0  0  0  0  0  0  0  0  0  0
   -2.1333   16.9413  -35.4105 H   0  0  0  0  0  0  0  0  0  0  0  0
   -0.3427   16.7983  -35.4105 H   0  0  0  0  0  0  0  0  0  0  0  0
    0.7276   16.7862  -32.9754 H   0  0  0  0  0  0  0  0  0  0  0  0
    0.9176   18.2476  -30.9841 H   0  0  0  0  0  0  0  0  0  0  0  0
   -1.5590   20.7510  -29.9220 H   0  0  0  0  0  0  0  0  0  0  0  0
    0.1760   18.9515  -28.7150 H   0  0  0  0  0  0  0  0  0  0  0  0
    1.2724   19.9728  -29.7357 H   0  0  0  0  0  0  0  0  0  0  0  0
    1.2513   20.9740  -27.5672 H   0  0  0  0  0  0  0  0  0  0  0  0
    0.1944   21.9939  -28.6393 H   0  0  0  0  0  0  0  0  0  0  0  0
   -0.5704   20.1916  -26.3339 H   0  0  0  0  0  0  0  0  0  0  0  0
   -1.1097   21.8658  -26.7291 H   0  0  0  0  0  0  0  0  0  0  0  0
   -3.4250   21.7379  -27.0532 H   0  0  0  0  0  0  0  0  0  0  0  0
   -2.6375   22.2172  -28.5949 H   0  0  0  0  0  0  0  0  0  0  0  0
   -3.9217   20.9613  -28.5949 H   0  0  0  0  0  0  0  0  0  0  0  0
   -2.5257   19.4328  -25.9861 H   0  0  0  0  0  0  0  0  0  0  0  0
   -3.7009   19.1250  -27.3093 H   0  0  0  0  0  0  0  0  0  0  0  0
   -2.1097   18.2914  -27.3093 H   0  0  0  0  0  0  0  0  0  0  0  0
   -7.0595   19.1737  -32.6979 H   0  0  0  0  0  0  0  0  0  0  0  0
   -9.5409   19.5362  -32.4758 H   0  0  0  0  0  0  0  0  0  0  0  0
  -10.4340   21.7913  -31.8595 H   0  0  0  0  0  0  0  0  0  0  0  0
   -8.8548   23.7002  -31.4141 H   0  0  0  0  0  0  0  0  0  0  0  0
  1  2  1  0
  2  3  1  0
  3  4  1  0
  4  5  1  0
  5  6  1  0
  6  7  1  0
  7  8  1  0
  8  9  1  0
  9 10  1  0
 10 11  2  0
 11 12  1  0
 12 13  2  0
 13 14  1  0
 14 15  2  0
 15 16  1  0
 16 17  1  0
 16 18  2  0
 18 19  1  0
 19 20  2  0
 20 21  1  0
 21 22  1  0
 22 23  1  0
 23 24  1  0
 24 25  1  0
 25 26  1  0
 25 27  1  0
 20 28  1  0
 28 29  2  0
 11 30  1  0
 30 31  2  0
 31 32  1  0
 32 33  2  0
 33 34  1  0
 34 35  2  0
 35  9  1  0
 29 12  1  0
 35 30  1  0
 28 15  1  0
  1 36  1  0
  1 37  1  0
  1 38  1  0
  2 39  1  0
  2 40  1  0
  4 41  1  0
  4 42  1  0
  5 43  1  0
  5 44  1  0
  7 45  1  0
  7 46  1  0
  8 47  1  0
  8 48  1  0
 10 49  1  0
 13 50  1  0
 14 51  1  0
 17 52  1  0
 17 53  1  0
 17 54  1  0
 18 55  1  0
 19 56  1  0
 21 57  1  0
 22 58  1  0
 22 59  1  0
 23 60  1  0
 23 61  1  0
 24 62  1  0
 24 63  1  0
 26 64  1  0
 26 65  1  0
 26 66  1  0
 27 67  1  0
 27 68  1  0
 27 69  1  0
 31 70  1  0
 32 71  1  0
 33 72  1  0
 34 73  1  0
M  END
>  <UniqueID>  (15) 
15

>  <SMILES>  (15) 
CCOCCOCCn1cc(-c2ccc3c(C)ccc(NCCCN(C)C)c3n2)c2ccccc21

>  <Energy>  (15) 
112.97446244564041

>  <Genealogy>  (15) 
CCOCCOCCn1cc(-c2ccc3c(C)ccc(NCCCN(C)C)c3n2)c2ccccc21 (3D coordinates assigned)
CCOCCOCCn1cc(-c2ccc3c(C)ccc(NCCCN(C)C)c3n2)c2ccccc21 (optimized conformer: 112.97446244564041 kcal/mol)

>  <smiles>  (15) 
CCOCCOCCn1cc(-c2ccc3c(C)ccc(NCCCN(C)C)c3n2)c2ccccc21

>  <score_type>  (15) 
oracle

>  <origin>  (15) 
adg

>  <m_score__min__energy>  (15) 
-10.94

>  <m_primary>  (15) 
energy

$$$$
15:0
     RDKit          3D

 76 79  0  0  0  0  0  0  0  0999 V2000
    1.7130   23.3820  -36.0690 C   0  0  0  0  0  0  0  0  0  0  0  0
    0.9830   22.0760  -35.7360 C   0  0  0  0  0  0  0  0  0  0  0  0
   -0.0020   22.2500  -34.6460 N   0  0  0  0  0  0  0  0  0  0  0  0
    0.0840   21.2030  -33.6130 C   0  0  0  0  0  0  0  0  0  0  0  0
   -1.1480   20.2740  -33.6190 C   0  0  0  0  0  0  0  0  0  0  0  0
   -1.8190   20.2030  -32.3010 N   0  0  0  0  0  0  0  0  0  0  0  0
   -3.2580   20.4400  -32.3950 C   0  0  0  0  0  0  0  0  0  0  0  0
   -4.0940   19.6120  -33.2010 C   0  0  0  0  0  0  0  0  0  0  0  0
   -3.5740   18.5500  -33.9880 C   0  0  0  0  0  0  0  0  0  0  0  0
   -4.4030   17.7590  -34.7770 C   0  0  0  0  0  0  0  0  0  0  0  0
   -5.7650   18.0010  -34.8170 C   0  0  0  0  0  0  0  0  0  0  0  0
   -6.3110   19.0340  -34.0620 C   0  0  0  0  0  0  0  0  0  0  0  0
   -5.5020   19.8470  -33.2260 C   0  0  0  0  0  0  0  0  0  0  0  0
   -6.0540   20.8620  -32.4740 N   0  0  0  0  0  0  0  0  0  0  0  0
   -7.5230   20.9380  -32.3040 C   0  0  0  0  0  0  0  0  0  0  0  0
   -5.2400   21.7980  -31.8740 C   0  0  0  0  0  0  0  0  0  0  0  0
   -5.7650   23.0270  -31.4020 C   0  0  0  0  0  0  0  0  0  0  0  0
   -4.9690   23.9410  -30.7180 C   0  0  0  0  0  0  0  0  0  0  0  0
   -5.7370   25.5840  -30.1100 Br  0  0  0  0  0  0  0  0  0  0  0  0
   -3.6310   23.6510  -30.4580 C   0  0  0  0  0  0  0  0  0  0  0  0
   -2.8740   24.5800  -29.7210 O   0  0  0  0  0  0  0  0  0  0  0  0
   -2.6930   24.5700  -28.3030 C   0  0  0  0  0  0  0  0  0  0  0  0
   -1.2720   25.0880  -27.9590 C   0  0  0  0  0  0  0  0  0  0  0  0
   -0.8650   25.0180  -26.5160 N   0  0  0  0  0  0  0  0  0  0  0  0
   -0.8920   23.6070  -26.0490 C   0  0  0  0  0  0  0  0  0  0  0  0
    0.5170   25.5710  -26.3140 C   0  0  0  0  0  0  0  0  0  0  0  0
    0.5110   27.0840  -26.0250 C   0  0  0  0  0  0  0  0  0  0  0  0
   -0.2060   27.4150  -24.7500 N   0  0  0  0  0  0  0  0  0  0  0  0
   -0.7880   28.7780  -24.8620 C   0  0  0  0  0  0  0  0  0  0  0  0
    0.7640   27.4310  -23.6270 C   0  0  0  0  0  0  0  0  0  0  0  0
   -1.2910   26.4260  -24.4470 C   0  0  0  0  0  0  0  0  0  0  0  0
   -1.8800   25.7960  -25.7260 C   0  0  0  0  0  0  0  0  0  0  0  0
   -3.0760   22.4670  -30.9690 C   0  0  0  0  0  0  0  0  0  0  0  0
   -3.8470   21.5590  -31.7380 C   0  0  0  0  0  0  0  0  0  0  0  0
    1.9976   23.8911  -35.1363 H   0  0  0  0  0  0  0  0  0  0  0  0
    2.6166   23.1579  -36.6548 H   0  0  0  0  0  0  0  0  0  0  0  0
    1.0487   24.0343  -36.6548 H   0  0  0  0  0  0  0  0  0  0  0  0
    0.4573   21.7243  -36.6360 H   0  0  0  0  0  0  0  0  0  0  0  0
    1.7335   21.3452  -35.4002 H   0  0  0  0  0  0  0  0  0  0  0  0
   -0.9840   22.3030  -35.0130 H   0  0  0  0  0  0  0  0  0  0  0  0
    0.9844   20.5982  -33.7961 H   0  0  0  0  0  0  0  0  0  0  0  0
    0.1271   21.6996  -32.6324 H   0  0  0  0  0  0  0  0  0  0  0  0
   -1.8683   20.6502  -34.3604 H   0  0  0  0  0  0  0  0  0  0  0  0
   -0.7981   19.2612  -33.8677 H   0  0  0  0  0  0  0  0  0  0  0  0
   -1.3910   20.9070  -31.6570 H   0  0  0  0  0  0  0  0  0  0  0  0
   -1.5760   19.3100  -31.8260 H   0  0  0  0  0  0  0  0  0  0  0  0
   -2.4927   18.3487  -33.9733 H   0  0  0  0  0  0  0  0  0  0  0  0
   -3.9744   16.9384  -35.3711 H   0  0  0  0  0  0  0  0  0  0  0  0
   -6.4161   17.3763  -35.4461 H   0  0  0  0  0  0  0  0  0  0  0  0
   -7.3931   19.2248  -34.1141 H   0  0  0  0  0  0  0  0  0  0  0  0
   -7.7678   20.9507  -31.2317 H   0  0  0  0  0  0  0  0  0  0  0  0
   -7.8998   21.8568  -32.7770 H   0  0  0  0  0  0  0  0  0  0  0  0
   -7.9926   20.0629  -32.7770 H   0  0  0  0  0  0  0  0  0  0  0  0
   -6.8244   23.2635  -31.5801 H   0  0  0  0  0  0  0  0  0  0  0  0
   -3.4444   25.2215  -27.8329 H   0  0  0  0  0  0  0  0  0  0  0  0
   -2.8101   23.5433  -27.9258 H   0  0  0  0  0  0  0  0  0  0  0  0
   -0.5503   24.4941  -28.5390 H   0  0  0  0  0  0  0  0  0  0  0  0
   -1.2850   26.1598  -28.2062 H   0  0  0  0  0  0  0  0  0  0  0  0
   -0.8924   23.5847  -24.9492 H   0  0  0  0  0  0  0  0  0  0  0  0
   -1.7998   23.1133  -26.4261 H   0  0  0  0  0  0  0  0  0  0  0  0
   -0.0038   23.0789  -26.4261 H   0  0  0  0  0  0  0  0  0  0  0  0
    0.9840   25.0515  -25.4643 H   0  0  0  0  0  0  0  0  0  0  0  0
    1.0802   25.4110  -27.2452 H   0  0  0  0  0  0  0  0  0  0  0  0
    1.5510   27.4339  -25.9475 H   0  0  0  0  0  0  0  0  0  0  0  0
   -0.0192   27.5829  -26.8496 H   0  0  0  0  0  0  0  0  0  0  0  0
   -0.9623   29.1861  -23.8555 H   0  0  0  0  0  0  0  0  0  0  0  0
   -0.0902   29.4310  -25.4067 H   0  0  0  0  0  0  0  0  0  0  0  0
   -1.7422   28.7256  -25.4067 H   0  0  0  0  0  0  0  0  0  0  0  0
    0.2190   27.4220  -22.6716 H   0  0  0  0  0  0  0  0  0  0  0  0
    1.4108   26.5434  -23.6885 H   0  0  0  0  0  0  0  0  0  0  0  0
    1.3812   28.3394  -23.6885 H   0  0  0  0  0  0  0  0  0  0  0  0
   -0.8750   25.6257  -23.8173 H   0  0  0  0  0  0  0  0  0  0  0  0
   -2.1013   26.9617  -23.9308 H   0  0  0  0  0  0  0  0  0  0  0  0
   -2.6966   25.1172  -25.4389 H   0  0  0  0  0  0  0  0  0  0  0  0
   -2.2361   26.6177  -26.3648 H   0  0  0  0  0  0  0  0  0  0  0  0
   -2.0189   22.2386  -30.7682 H   0  0  0  0  0  0  0  0  0  0  0  0
  1  2  1  0
  2  3  1  0
  3  4  1  0
  4  5  1  0
  5  6  1  0
  6  7  1  0
  7  8  2  0
  8  9  1  0
  9 10  2  0
 10 11  1  0
 11 12  2  0
 12 13  1  0
 13 14  2  0
 14 15  1  0
 14 16  1  0
 16 17  2  0
 17 18  1  0
 18 19  1  0
 18 20  2  0
 20 21  1  0
 21 22  1  0
 22 23  1  0
 23 24  1  0
 24 25  1  0
 24 26  1  0
 26 27  1  0
 27 28  1  0
 28 29  1  0
 28 30  1  0
 28 31  1  0
 31 32  1  0
 20 33  1  0
 33 34  2  0
 34  7  1  0
 13  8  1  0
 34 16  1  0
 32 24  1  0
  1 35  1  0
  1 36  1  0
  1 37  1  0
  2 38  1  0
  2 39  1  0
  3 40  1  0
  4 41  1  0
  4 42  1  0
  5 43  1  0
  5 44  1  0
  6 45  1  0
  6 46  1  0
  9 47  1  0
 10 48  1  0
 11 49  1  0
 12 50  1  0
 15 51  1  0
 15 52  1  0
 15 53  1  0
 17 54  1  0
 22 55  1  0
 22 56  1  0
 23 57  1  0
 23 58  1  0
 25 59  1  0
 25 60  1  0
 25 61  1  0
 26 62  1  0
 26 63  1  0
 27 64  1  0
 27 65  1  0
 29 66  1  0
 29 67  1  0
 29 68  1  0
 30 69  1  0
 30 70  1  0
 30 71  1  0
 31 72  1  0
 31 73  1  0
 32 74  1  0
 32 75  1  0
 33 76  1  0
M  CHG  4   6   1  14   1  24   1  28   1
M  END
>  <UniqueID>  (16) 
16

>  <SMILES>  (16) 
CCNCC[NH2+]c1c2ccccc2[n+](C)c2cc(Br)c(OCC[N+]3(C)CC[N+](C)(C)CC3)cc12

>  <Energy>  (16) 
135.29322989267004

>  <Genealogy>  (16) 
CCNCC[NH2+]c1c2ccccc2[n+](C)c2cc(Br)c(OCC[N+]3(C)CC[N+](C)(C)CC3)cc12 (protonated)
CCNCC[NH2+]c1c2ccccc2[n+](C)c2cc(Br)c(OCC[N+]3(C)CC[N+](C)(C)CC3)cc12 (3D coordinates assigned)
CCNCC[NH2+]c1c2ccccc2[n+](C)c2cc(Br)c(OCC[N+]3(C)CC[N+](C)(C)CC3)cc12 (nonaromatic ring conformer: 135.29322989267004 kcal/mol)

>  <smiles>  (16) 
CCNCCNc1c2ccccc2[n+](C)c2cc(Br)c(OCC[N+]3(C)CC[N+](C)(C)CC3)cc12

>  <score_type>  (16) 
oracle

>  <origin>  (16) 
adg

>  <m_score__min__energy>  (16) 
-8.25

>  <m_primary>  (16) 
energy

$$$$
16:0
     RDKit          3D

 53 56  0  0  0  0  0  0  0  0999 V2000
   -6.1410   25.3520  -29.9030 C   0  0  0  0  0  0  0  0  0  0  0  0
   -5.0230   24.7630  -30.7740 C   0  0  0  0  0  0  0  0  0  0  0  0
   -4.8400   23.3060  -30.5610 N   0  0  2  0  0  0  0  0  0  0  0  0
   -5.5910   22.8530  -29.3700 C   0  0  0  0  0  0  0  0  0  0  0  0
   -3.3930   22.9860  -30.4280 C   0  0  0  0  0  0  0  0  0  0  0  0
   -3.0270   21.5540  -30.8830 C   0  0  0  0  0  0  0  0  0  0  0  0
   -2.1790   21.5080  -32.1750 C   0  0  0  0  0  0  0  0  0  0  0  0
   -3.0280   21.3120  -33.3520 N   0  0  0  0  0  0  0  0  0  0  0  0
   -4.0890   20.3460  -33.3650 C   0  0  0  0  0  0  0  0  0  0  0  0
   -3.8800   19.0020  -33.7530 C   0  0  0  0  0  0  0  0  0  0  0  0
   -2.6230   18.5720  -34.2210 C   0  0  0  0  0  0  0  0  0  0  0  0
   -2.4290   17.2520  -34.6240 C   0  0  0  0  0  0  0  0  0  0  0  0
   -0.8590   16.7390  -35.2160 Cl  0  0  0  0  0  0  0  0  0  0  0  0
   -3.4830   16.3440  -34.5770 C   0  0  0  0  0  0  0  0  0  0  0  0
   -4.7330   16.7360  -34.0980 C   0  0  0  0  0  0  0  0  0  0  0  0
   -4.9570   18.0560  -33.6410 C   0  0  0  0  0  0  0  0  0  0  0  0
   -6.1770   18.4440  -33.1030 N   0  0  0  0  0  0  0  0  0  0  0  0
   -7.1980   17.4630  -32.7010 C   0  0  0  0  0  0  0  0  0  0  0  0
   -6.3810   19.7810  -32.8800 C   0  0  0  0  0  0  0  0  0  0  0  0
   -5.3700   20.7090  -32.9740 C   0  0  0  0  0  0  0  0  0  0  0  0
   -5.7870   21.9120  -32.6430 O   0  0  0  0  0  0  0  0  0  0  0  0
   -7.0630   21.8040  -32.3470 C   0  0  0  0  0  0  0  0  0  0  0  0
   -7.9190   22.8330  -31.9610 C   0  0  0  0  0  0  0  0  0  0  0  0
   -9.2690   22.5190  -31.7350 C   0  0  0  0  0  0  0  0  0  0  0  0
   -9.7350   21.2010  -31.9140 C   0  0  0  0  0  0  0  0  0  0  0  0
   -8.8550   20.1760  -32.3040 C   0  0  0  0  0  0  0  0  0  0  0  0
   -7.5050   20.5010  -32.4840 C   0  0  0  0  0  0  0  0  0  0  0  0
   -5.8874   25.2184  -28.8410 H   0  0  0  0  0  0  0  0  0  0  0  0
   -6.2498   26.4245  -30.1219 H   0  0  0  0  0  0  0  0  0  0  0  0
   -7.0871   24.8353  -30.1219 H   0  0  0  0  0  0  0  0  0  0  0  0
   -5.2724   24.9357  -31.8313 H   0  0  0  0  0  0  0  0  0  0  0  0
   -4.0838   25.2611  -30.4916 H   0  0  0  0  0  0  0  0  0  0  0  0
   -5.2190   22.8160  -31.3990 H   0  0  0  0  0  0  0  0  0  0  0  0
   -5.0621   23.1720  -28.4598 H   0  0  0  0  0  0  0  0  0  0  0  0
   -6.5986   23.2941  -29.3822 H   0  0  0  0  0  0  0  0  0  0  0  0
   -5.6708   21.7560  -29.3822 H   0  0  0  0  0  0  0  0  0  0  0  0
   -2.8220   23.7007  -31.0388 H   0  0  0  0  0  0  0  0  0  0  0  0
   -3.1461   23.0557  -29.3583 H   0  0  0  0  0  0  0  0  0  0  0  0
   -2.4574   21.0687  -30.0767 H   0  0  0  0  0  0  0  0  0  0  0  0
   -3.9723   21.0355  -31.1013 H   0  0  0  0  0  0  0  0  0  0  0  0
   -1.6314   22.4562  -32.2801 H   0  0  0  0  0  0  0  0  0  0  0  0
   -1.4770   20.6641  -32.1042 H   0  0  0  0  0  0  0  0  0  0  0  0
   -2.7580   21.7850  -34.2440 H   0  0  0  0  0  0  0  0  0  0  0  0
   -1.7865   19.2848  -34.2689 H   0  0  0  0  0  0  0  0  0  0  0  0
   -3.3291   15.3102  -34.9200 H   0  0  0  0  0  0  0  0  0  0  0  0
   -5.5571   16.0077  -34.0752 H   0  0  0  0  0  0  0  0  0  0  0  0
   -7.2481   17.4149  -31.6032 H   0  0  0  0  0  0  0  0  0  0  0  0
   -8.1767   17.7681  -33.0997 H   0  0  0  0  0  0  0  0  0  0  0  0
   -6.9322   16.4728  -33.0997 H   0  0  0  0  0  0  0  0  0  0  0  0
   -7.5484   23.8612  -31.8369 H   0  0  0  0  0  0  0  0  0  0  0  0
   -9.9673   23.3069  -31.4162 H   0  0  0  0  0  0  0  0  0  0  0  0
  -10.7978   20.9719  -31.7469 H   0  0  0  0  0  0  0  0  0  0  0  0
   -9.2164   19.1493  -32.4630 H   0  0  0  0  0  0  0  0  0  0  0  0
  1  2  1  0
  2  3  1  0
  3  4  1  0
  3  5  1  0
  5  6  1  0
  6  7  1  0
  7  8  1  0
  8  9  1  0
  9 10  2  0
 10 11  1  0
 11 12  2  0
 12 13  1  0
 12 14  1  0
 14 15  2  0
 15 16  1  0
 16 17  2  0
 17 18  1  0
 17 19  1  0
 19 20  2  0
 20 21  1  0
 21 22  1  0
 22 23  2  0
 23 24  1  0
 24 25  2  0
 25 26  1  0
 26 27  2  0
 20  9  1  0
 27 22  1  0
 16 10  1  0
 27 19  1  0
  1 28  1  0
  1 29  1  0
  1 30  1  0
  2 31  1  0
  2 32  1  0
  3 33  1  6
  4 34  1  0
  4 35  1  0
  4 36  1  0
  5 37  1  0
  5 38  1  0
  6 39  1  0
  6 40  1  0
  7 41  1  0
  7 42  1  0
  8 43  1  0
 11 44  1  0
 14 45  1  0
 15 46  1  0
 18 47  1  0
 18 48  1  0
 18 49  1  0
 23 50  1  0
 24 51  1  0
 25 52  1  0
 26 53  1  0
M  CHG  2   3   1  17   1
M  END
>  <UniqueID>  (17) 
17

>  <SMILES>  (17) 
CC[N@H+](C)CCCNc1c2cc(Cl)ccc2[n+](C)c2c1oc1ccccc12

>  <Energy>  (17) 
115.44414820313435

>  <Genealogy>  (17) 
CC[NH+](C)CCCNc1c2cc(Cl)ccc2[n+](C)c2c1oc1ccccc12 (protonated)
CC[N@H+](C)CCCNc1c2cc(Cl)ccc2[n+](C)c2c1oc1ccccc12 (chirality)
CC[N@H+](C)CCCNc1c2cc(Cl)ccc2[n+](C)c2c1oc1ccccc12 (3D coordinates assigned)
CC[N@H+](C)CCCNc1c2cc(Cl)ccc2[n+](C)c2c1oc1ccccc12 (optimized conformer: 115.44414820313435 kcal/mol)

>  <smiles>  (17) 
CCN(C)CCCNc1c2cc(Cl)ccc2[n+](C)c2c1oc1ccccc12

>  <score_type>  (17) 
oracle

>  <origin>  (17) 
adg

>  <m_score__min__energy>  (17) 
-7.0300000000000002

>  <m_primary>  (17) 
energy

$$$$
17:0
     RDKit          3D

 89 92  0  0  0  0  0  0  0  0999 V2000
   -3.2180   22.9030  -29.6680 C   0  0  0  0  0  0  0  0  0  0  0  0
   -3.4360   21.5210  -29.0380 C   0  0  0  0  0  0  0  0  0  0  0  0
   -2.3430   20.5600  -29.3240 N   0  0  0  0  0  0  0  0  0  0  0  0
   -1.8530   19.8810  -28.1050 C   0  0  0  0  0  0  0  0  0  0  0  0
   -2.9980   19.5780  -27.1450 C   0  0  0  0  0  0  0  0  0  0  0  0
   -1.2620   21.1390  -30.1630 C   0  0  0  0  0  0  0  0  0  0  0  0
   -1.1260   20.3890  -31.4200 N   0  0  0  0  0  0  0  0  0  0  0  0
   -0.8450   21.2900  -32.5470 C   0  0  0  0  0  0  0  0  0  0  0  0
   -1.9520   21.1740  -33.6050 C   0  0  0  0  0  0  0  0  0  0  0  0
   -3.2930   21.6990  -33.0900 C   0  0  0  0  0  0  0  0  0  0  0  0
   -3.8650   20.8040  -32.0830 N   0  0  0  0  0  0  0  0  0  0  0  0
   -5.1880   20.2610  -32.2260 C   0  0  0  0  0  0  0  0  0  0  0  0
   -6.3020   21.1070  -32.0670 C   0  0  0  0  0  0  0  0  0  0  0  0
   -6.1420   22.5020  -31.9090 C   0  0  0  0  0  0  0  0  0  0  0  0
   -7.2490   23.3400  -31.7890 C   0  0  0  0  0  0  0  0  0  0  0  0
   -8.5290   22.8100  -31.8420 C   0  0  0  0  0  0  0  0  0  0  0  0
   -8.7120   21.4330  -31.9940 C   0  0  0  0  0  0  0  0  0  0  0  0
   -7.6050   20.5490  -32.0790 C   0  0  0  0  0  0  0  0  0  0  0  0
   -7.7730   19.1820  -32.1890 N   0  0  0  0  0  0  0  0  0  0  0  0
   -9.0830   18.5680  -31.8800 C   0  0  0  0  0  0  0  0  0  0  0  0
   -6.7130   18.3870  -32.5830 C   0  0  0  0  0  0  0  0  0  0  0  0
   -6.9170   17.0550  -33.0100 C   0  0  0  0  0  0  0  0  0  0  0  0
   -5.8530   16.2540  -33.4100 C   0  0  0  0  0  0  0  0  0  0  0  0
   -4.5610   16.7560  -33.4160 C   0  0  0  0  0  0  0  0  0  0  0  0
   -4.3040   18.0740  -33.0090 C   0  0  0  0  0  0  0  0  0  0  0  0
   -2.9970   18.5780  -33.0250 O   0  0  0  0  0  0  0  0  0  0  0  0
   -1.8320   17.9100  -33.5060 C   0  0  0  0  0  0  0  0  0  0  0  0
   -1.2730   17.0400  -32.3610 C   0  0  0  0  0  0  0  0  0  0  0  0
    0.2220   16.9370  -32.3010 N   0  0  0  0  0  0  0  0  0  0  0  0
    0.7200   16.1900  -33.4820 C   0  0  0  0  0  0  0  0  0  0  0  0
    0.8330   18.3110  -32.2700 C   0  0  0  0  0  0  0  0  0  0  0  0
    2.0820   18.3950  -31.3700 C   0  0  0  0  0  0  0  0  0  0  0  0
    1.7760   18.0650  -29.9410 N   0  0  0  0  0  0  0  0  0  0  0  0
    1.3590   19.2980  -29.2190 C   0  0  0  0  0  0  0  0  0  0  0  0
    3.0140   17.5570  -29.2930 C   0  0  0  0  0  0  0  0  0  0  0  0
    0.6930   17.0350  -29.8240 C   0  0  0  0  0  0  0  0  0  0  0  0
    0.5910   16.1480  -31.0780 C   0  0  0  0  0  0  0  0  0  0  0  0
   -5.3850   18.9060  -32.5900 C   0  0  0  0  0  0  0  0  0  0  0  0
   -3.0996   23.6539  -28.8729 H   0  0  0  0  0  0  0  0  0  0  0  0
   -2.3119   22.8830  -30.2914 H   0  0  0  0  0  0  0  0  0  0  0  0
   -4.0863   23.1629  -30.2914 H   0  0  0  0  0  0  0  0  0  0  0  0
   -3.5146   21.6441  -27.9477 H   0  0  0  0  0  0  0  0  0  0  0  0
   -4.3544   21.1062  -29.4790 H   0  0  0  0  0  0  0  0  0  0  0  0
   -1.3654   18.9374  -28.3912 H   0  0  0  0  0  0  0  0  0  0  0  0
   -1.1400   20.5475  -27.5976 H   0  0  0  0  0  0  0  0  0  0  0  0
   -2.6421   19.6722  -26.1084 H   0  0  0  0  0  0  0  0  0  0  0  0
   -3.8188   20.2899  -27.3170 H   0  0  0  0  0  0  0  0  0  0  0  0
   -3.3593   18.5533  -27.3170 H   0  0  0  0  0  0  0  0  0  0  0  0
   -1.5039   22.1874  -30.3917 H   0  0  0  0  0  0  0  0  0  0  0  0
   -0.3130   21.0799  -29.6099 H   0  0  0  0  0  0  0  0  0  0  0  0
   -2.0310   19.8960  -31.6090 H   0  0  0  0  0  0  0  0  0  0  0  0
   -0.7986   22.3264  -32.1813 H   0  0  0  0  0  0  0  0  0  0  0  0
    0.1170   21.0094  -33.0007 H   0  0  0  0  0  0  0  0  0  0  0  0
   -1.6591   21.7564  -34.4910 H   0  0  0  0  0  0  0  0  0  0  0  0
   -2.0759   20.1093  -33.8522 H   0  0  0  0  0  0  0  0  0  0  0  0
   -3.1404   22.6917  -32.6414 H   0  0  0  0  0  0  0  0  0  0  0  0
   -3.9910   21.7574  -33.9382 H   0  0  0  0  0  0  0  0  0  0  0  0
   -3.2840   20.5090  -31.2660 H   0  0  0  0  0  0  0  0  0  0  0  0
   -5.1301   22.9323  -31.8803 H   0  0  0  0  0  0  0  0  0  0  0  0
   -7.1072   24.4222  -31.6522 H   0  0  0  0  0  0  0  0  0  0  0  0
   -9.4021   23.4746  -31.7643 H   0  0  0  0  0  0  0  0  0  0  0  0
   -9.7328   21.0268  -32.0488 H   0  0  0  0  0  0  0  0  0  0  0  0
   -9.2115   18.5078  -30.7892 H   0  0  0  0  0  0  0  0  0  0  0  0
   -9.8869   19.1831  -32.3105 H   0  0  0  0  0  0  0  0  0  0  0  0
   -9.1246   17.5566  -32.3105 H   0  0  0  0  0  0  0  0  0  0  0  0
   -7.9372   16.6441  -33.0262 H   0  0  0  0  0  0  0  0  0  0  0  0
   -6.0377   15.2159  -33.7235 H   0  0  0  0  0  0  0  0  0  0  0  0
   -3.7291   16.1149  -33.7430 H   0  0  0  0  0  0  0  0  0  0  0  0
   -2.0943   17.2738  -34.3641 H   0  0  0  0  0  0  0  0  0  0  0  0
   -1.0788   18.6427  -33.8313 H   0  0  0  0  0  0  0  0  0  0  0  0
   -1.6220   17.4669  -31.4092 H   0  0  0  0  0  0  0  0  0  0  0  0
   -1.6393   16.0200  -32.5494 H   0  0  0  0  0  0  0  0  0  0  0  0
    1.3011   15.3184  -33.1463 H   0  0  0  0  0  0  0  0  0  0  0  0
   -0.1332   15.8506  -34.0877 H   0  0  0  0  0  0  0  0  0  0  0  0
    1.3614   16.8470  -34.0877 H   0  0  0  0  0  0  0  0  0  0  0  0
    1.1199   18.5902  -33.2946 H   0  0  0  0  0  0  0  0  0  0  0  0
    0.0804   18.9963  -31.8530 H   0  0  0  0  0  0  0  0  0  0  0  0
    2.8354   17.6858  -31.7434 H   0  0  0  0  0  0  0  0  0  0  0  0
    2.4528   19.4300  -31.4045 H   0  0  0  0  0  0  0  0  0  0  0  0
    1.4174   19.1252  -28.1342 H   0  0  0  0  0  0  0  0  0  0  0  0
    2.0265   20.1278  -29.4946 H   0  0  0  0  0  0  0  0  0  0  0  0
    0.3249   19.5523  -29.4946 H   0  0  0  0  0  0  0  0  0  0  0  0
    2.9011   17.6033  -28.1998 H   0  0  0  0  0  0  0  0  0  0  0  0
    3.1874   16.5150  -29.5999 H   0  0  0  0  0  0  0  0  0  0  0  0
    3.8693   18.1768  -29.5999 H   0  0  0  0  0  0  0  0  0  0  0  0
    0.9059   16.3953  -28.9548 H   0  0  0  0  0  0  0  0  0  0  0  0
   -0.2639   17.5651  -29.7086 H   0  0  0  0  0  0  0  0  0  0  0  0
    1.5634   15.6630  -31.2491 H   0  0  0  0  0  0  0  0  0  0  0  0
   -0.2011   15.4050  -30.9032 H   0  0  0  0  0  0  0  0  0  0  0  0
  1  2  1  0
  2  3  1  0
  3  4  1  0
  4  5  1  0
  3  6  1  0
  6  7  1  0
  7  8  1  0
  8  9  1  0
  9 10  1  0
 10 11  1  0
 11 12  1  0
 12 13  2  0
 13 14  1  0
 14 15  2  0
 15 16  1  0
 16 17  2  0
 17 18  1  0
 18 19  2  0
 19 20  1  0
 19 21  1  0
 21 22  2  0
 22 23  1  0
 23 24  2  0
 24 25  1  0
 25 26  1  0
 26 27  1  0
 27 28  1  0
 28 29  1  0
 29 30  1  0
 29 31  1  0
 31 32  1  0
 32 33  1  0
 33 34  1  0
 33 35  1  0
 33 36  1  0
 36 37  1  0
 25 38  2  0
 38 12  1  0
 18 13  1  0
 38 21  1  0
 37 29  1  0
  1 39  1  0
  1 40  1  0
  1 41  1  0
  2 42  1  0
  2 43  1  0
  4 44  1  0
  4 45  1  0
  5 46  1  0
  5 47  1  0
  5 48  1  0
  6 49  1  0
  6 50  1  0
  7 51  1  0
  8 52  1  0
  8 53  1  0
  9 54  1  0
  9 55  1  0
 10 56  1  0
 10 57  1  0
 11 58  1  0
 14 59  1  0
 15 60  1  0
 16 61  1  0
 17 62  1  0
 20 63  1  0
 20 64  1  0
 20 65  1  0
 22 66  1  0
 23 67  1  0
 24 68  1  0
 27 69  1  0
 27 70  1  0
 28 71  1  0
 28 72  1  0
 30 73  1  0
 30 74  1  0
 30 75  1  0
 31 76  1  0
 31 77  1  0
 32 78  1  0
 32 79  1  0
 34 80  1  0
 34 81  1  0
 34 82  1  0
 35 83  1  0
 35 84  1  0
 35 85  1  0
 36 86  1  0
 36 87  1  0
 37 88  1  0
 37 89  1  0
M  CHG  3  19   1  29   1  33   1
M  END
>  <UniqueID>  (18) 
18

>  <SMILES>  (18) 
CCN(CC)CNCCCNc1c2ccccc2[n+](C)c2cccc(OCC[N+]3(C)CC[N+](C)(C)CC3)c12

>  <Energy>  (18) 
141.06935237767988

>  <Genealogy>  (18) 
CCN(CC)CNCCCNc1c2ccccc2[n+](C)c2cccc(OCC[N+]3(C)CC[N+](C)(C)CC3)c12 (3D coordinates assigned)
CCN(CC)CNCCCNc1c2ccccc2[n+](C)c2cccc(OCC[N+]3(C)CC[N+](C)(C)CC3)c12 (nonaromatic ring conformer: 141.06935237767988 kcal/mol)

>  <smiles>  (18) 
CCN(CC)CNCCCNc1c2ccccc2[n+](C)c2cccc(OCC[N+]3(C)CC[N+](C)(C)CC3)c12

>  <score_type>  (18) 
oracle

>  <origin>  (18) 
adg

>  <m_score__min__energy>  (18) 
-8.3300000000000001

>  <m_primary>  (18) 
energy

$$$$
18:0
     RDKit          3D

 61 63  0  0  0  0  0  0  0  0999 V2000
    3.0780   21.0690  -34.6270 C   0  0  0  0  0  0  0  0  0  0  0  0
    2.7120   22.0220  -35.7590 C   0  0  0  0  0  0  0  0  0  0  0  0
    1.4830   22.7680  -35.4040 N   0  0  0  0  0  0  0  0  0  0  0  0
    1.6180   24.2100  -35.7110 C   0  0  0  0  0  0  0  0  0  0  0  0
    0.2910   24.7710  -36.2110 C   0  0  0  0  0  0  0  0  0  0  0  0
    0.2820   22.1870  -36.0490 C   0  0  0  0  0  0  0  0  0  0  0  0
    0.0690   20.7310  -35.6120 C   0  0  0  0  0  0  0  0  0  0  0  0
   -0.4100   20.6340  -34.1500 C   0  0  0  0  0  0  0  0  0  0  0  0
   -1.4490   21.6260  -33.8330 N   0  0  0  0  0  0  0  0  0  0  0  0
   -1.9030   21.5440  -32.4360 C   0  0  0  0  0  0  0  0  0  0  0  0
   -3.4250   21.7980  -32.3460 C   0  0  0  0  0  0  0  0  0  0  0  0
   -4.2550   21.2210  -33.4400 N   0  0  0  0  0  0  0  0  0  0  0  0
   -5.4520   20.5030  -33.0260 C   0  0  0  0  0  0  0  0  0  0  0  0
   -6.5730   21.2430  -32.5520 C   0  0  0  0  0  0  0  0  0  0  0  0
   -6.4890   22.6370  -32.3030 C   0  0  0  0  0  0  0  0  0  0  0  0
   -7.6020   23.3700  -31.9030 C   0  0  0  0  0  0  0  0  0  0  0  0
   -8.8270   22.7410  -31.7500 C   0  0  0  0  0  0  0  0  0  0  0  0
   -8.9360   21.3700  -31.9570 C   0  0  0  0  0  0  0  0  0  0  0  0
   -7.8070   20.5850  -32.3130 C   0  0  0  0  0  0  0  0  0  0  0  0
   -7.9050   19.2200  -32.4590 N   0  0  0  0  0  0  0  0  0  0  0  0
   -9.0980   18.5070  -31.9450 C   0  0  0  0  0  0  0  0  0  0  0  0
   -6.8810   18.5030  -33.0430 C   0  0  0  0  0  0  0  0  0  0  0  0
   -7.0980   17.1730  -33.4810 C   0  0  0  0  0  0  0  0  0  0  0  0
   -6.0640   16.3930  -33.9660 C   0  0  0  0  0  0  0  0  0  0  0  0
   -4.7800   16.8990  -34.0070 C   0  0  0  0  0  0  0  0  0  0  0  0
   -4.5140   18.2170  -33.6310 C   0  0  0  0  0  0  0  0  0  0  0  0
   -2.7840   18.5690  -33.5460 Cl  0  0  0  0  0  0  0  0  0  0  0  0
   -5.5880   19.0900  -33.2310 C   0  0  0  0  0  0  0  0  0  0  0  0
    2.8899   21.5587  -33.6602 H   0  0  0  0  0  0  0  0  0  0  0  0
    2.4657   20.1583  -34.7020 H   0  0  0  0  0  0  0  0  0  0  0  0
    4.1425   20.8023  -34.7020 H   0  0  0  0  0  0  0  0  0  0  0  0
    3.5368   22.7316  -35.9210 H   0  0  0  0  0  0  0  0  0  0  0  0
    2.5358   21.4452  -36.6789 H   0  0  0  0  0  0  0  0  0  0  0  0
    1.9195   24.7483  -34.8003 H   0  0  0  0  0  0  0  0  0  0  0  0
    2.3792   24.3394  -36.4945 H   0  0  0  0  0  0  0  0  0  0  0  0
   -0.3412   25.0383  -35.3515 H   0  0  0  0  0  0  0  0  0  0  0  0
    0.4783   25.6669  -36.8211 H   0  0  0  0  0  0  0  0  0  0  0  0
   -0.2212   24.0124  -36.8211 H   0  0  0  0  0  0  0  0  0  0  0  0
   -0.6002   22.7798  -35.7655 H   0  0  0  0  0  0  0  0  0  0  0  0
    0.4273   22.2066  -37.1392 H   0  0  0  0  0  0  0  0  0  0  0  0
   -0.6869   20.2706  -36.2652 H   0  0  0  0  0  0  0  0  0  0  0  0
    1.0330   20.2070  -35.6904 H   0  0  0  0  0  0  0  0  0  0  0  0
   -0.8187   19.6273  -33.9783 H   0  0  0  0  0  0  0  0  0  0  0  0
    0.4544   20.8345  -33.5000 H   0  0  0  0  0  0  0  0  0  0  0  0
   -2.2660   21.4890  -34.4730 H   0  0  0  0  0  0  0  0  0  0  0  0
   -1.6791   20.5422  -32.0408 H   0  0  0  0  0  0  0  0  0  0  0  0
   -1.3788   22.3101  -31.8459 H   0  0  0  0  0  0  0  0  0  0  0  0
   -3.7803   21.3730  -31.3957 H   0  0  0  0  0  0  0  0  0  0  0  0
   -3.5464   22.8881  -32.4288 H   0  0  0  0  0  0  0  0  0  0  0  0
   -4.5220   21.9900  -34.0960 H   0  0  0  0  0  0  0  0  0  0  0  0
   -3.6790   20.6410  -34.0840 H   0  0  0  0  0  0  0  0  0  0  0  0
   -5.5237   23.1492  -32.4288 H   0  0  0  0  0  0  0  0  0  0  0  0
   -7.5094   24.4487  -31.7083 H   0  0  0  0  0  0  0  0  0  0  0  0
   -9.7137   23.3262  -31.4647 H   0  0  0  0  0  0  0  0  0  0  0  0
   -9.9161   20.8839  -31.8427 H   0  0  0  0  0  0  0  0  0  0  0  0
   -9.0844   18.5151  -30.8451 H   0  0  0  0  0  0  0  0  0  0  0  0
  -10.0084   19.0092  -32.3042 H   0  0  0  0  0  0  0  0  0  0  0  0
   -9.0868   17.4673  -32.3042 H   0  0  0  0  0  0  0  0  0  0  0  0
   -8.1127   16.7510  -33.4342 H   0  0  0  0  0  0  0  0  0  0  0  0
   -6.2644   15.3705  -34.3187 H   0  0  0  0  0  0  0  0  0  0  0  0
   -3.9540   16.2539  -34.3410 H   0  0  0  0  0  0  0  0  0  0  0  0
  1  2  1  0
  2  3  1  0
  3  4  1  0
  4  5  1  0
  3  6  1  0
  6  7  1  0
  7  8  1  0
  8  9  1  0
  9 10  1  0
 10 11  1  0
 11 12  1  0
 12 13  1  0
 13 14  2  0
 14 15  1  0
 15 16  2  0
 16 17  1  0
 17 18  2  0
 18 19  1  0
 19 20  2  0
 20 21  1  0
 20 22  1  0
 22 23  2  0
 23 24  1  0
 24 25  2  0
 25 26  1  0
 26 27  1  0
 26 28  2  0
 28 13  1  0
 19 14  1  0
 28 22  1  0
  1 29  1  0
  1 30  1  0
  1 31  1  0
  2 32  1  0
  2 33  1  0
  4 34  1  0
  4 35  1  0
  5 36  1  0
  5 37  1  0
  5 38  1  0
  6 39  1  0
  6 40  1  0
  7 41  1  0
  7 42  1  0
  8 43  1  0
  8 44  1  0
  9 45  1  0
 10 46  1  0
 10 47  1  0
 11 48  1  0
 11 49  1  0
 12 50  1  0
 12 51  1  0
 15 52  1  0
 16 53  1  0
 17 54  1  0
 18 55  1  0
 21 56  1  0
 21 57  1  0
 21 58  1  0
 23 59  1  0
 24 60  1  0
 25 61  1  0
M  CHG  2  12   1  20   1
M  END
>  <UniqueID>  (19) 
19

>  <SMILES>  (19) 
CCN(CC)CCCNCC[NH2+]c1c2ccccc2[n+](C)c2cccc(Cl)c12

>  <Energy>  (19) 
97.9262011645104

>  <Genealogy>  (19) 
CCN(CC)CCCNCC[NH2+]c1c2ccccc2[n+](C)c2cccc(Cl)c12 (protonated)
CCN(CC)CCCNCC[NH2+]c1c2ccccc2[n+](C)c2cccc(Cl)c12 (3D coordinates assigned)
CCN(CC)CCCNCC[NH2+]c1c2ccccc2[n+](C)c2cccc(Cl)c12 (optimized conformer: 97.9262011645104 kcal/mol)

>  <smiles>  (19) 
CCN(CC)CCCNCCNc1c2ccccc2[n+](C)c2cccc(Cl)c12

>  <score_type>  (19) 
oracle

>  <origin>  (19) 
adg

>  <m_score__min__energy>  (19) 
-8.4600000000000009

>  <m_primary>  (19) 
energy

$$$$
19:0
     RDKit          3D

 38 39  0  0  0  0  0  0  0  0999 V2000
   -3.4430   24.1060  -28.1320 C   0  0  0  0  0  0  0  0  0  0  0  0
   -3.1000   24.5520  -29.5530 C   0  0  0  0  0  0  0  0  0  0  0  0
   -4.2480   24.4090  -30.4770 N   0  0  0  0  0  0  0  0  0  0  0  0
   -5.1700   25.5770  -30.4930 C   0  0  0  0  0  0  0  0  0  0  0  0
   -6.4910   25.3670  -29.7390 C   0  0  0  0  0  0  0  0  0  0  0  0
   -4.9430   23.1250  -30.2440 C   0  0  0  0  0  0  0  0  0  0  0  0
   -4.7200   22.2030  -31.3540 N   0  0  0  0  0  0  0  0  0  0  0  0
   -5.6570   21.4270  -31.8860 N   0  0  0  0  0  0  0  0  0  0  0  0
   -5.0580   20.7510  -32.8950 C   0  0  0  0  0  0  0  0  0  0  0  0
   -5.7540   19.7110  -33.7180 C   0  0  0  0  0  0  0  0  0  0  0  0
   -7.0290   19.3020  -33.0550 C   0  0  0  0  0  0  0  0  0  0  0  0
   -8.2000   20.0500  -33.0150 C   0  0  0  0  0  0  0  0  0  0  0  0
   -9.2160   19.4420  -32.2670 C   0  0  0  0  0  0  0  0  0  0  0  0
   -8.8460   18.2250  -31.7090 C   0  0  0  0  0  0  0  0  0  0  0  0
   -7.2520   17.9060  -32.1450 S   0  0  0  0  0  0  0  0  0  0  0  0
   -3.7520   21.0830  -32.9940 N   0  0  0  0  0  0  0  0  0  0  0  0
   -2.7880   20.5880  -33.8870 N   0  0  0  0  0  0  0  0  0  0  0  0
   -3.5740   21.9920  -32.0250 C   0  0  0  0  0  0  0  0  0  0  0  0
   -2.4820   22.5670  -31.7750 O   0  0  0  0  0  0  0  0  0  0  0  0
   -2.9375   24.7634  -27.4093 H   0  0  0  0  0  0  0  0  0  0  0  0
   -4.5312   24.1644  -27.9820 H   0  0  0  0  0  0  0  0  0  0  0  0
   -3.1073   23.0693  -27.9820 H   0  0  0  0  0  0  0  0  0  0  0  0
   -2.7945   25.6084  -29.5286 H   0  0  0  0  0  0  0  0  0  0  0  0
   -2.2877   23.9085  -29.9219 H   0  0  0  0  0  0  0  0  0  0  0  0
   -4.6479   26.4310  -30.0367 H   0  0  0  0  0  0  0  0  0  0  0  0
   -5.4388   25.7440  -31.5465 H   0  0  0  0  0  0  0  0  0  0  0  0
   -6.3035   25.3968  -28.6555 H   0  0  0  0  0  0  0  0  0  0  0  0
   -7.1989   26.1639  -30.0107 H   0  0  0  0  0  0  0  0  0  0  0  0
   -6.9169   24.3899  -30.0107 H   0  0  0  0  0  0  0  0  0  0  0  0
   -4.5613   22.6719  -29.3172 H   0  0  0  0  0  0  0  0  0  0  0  0
   -6.0224   23.3197  -30.1602 H   0  0  0  0  0  0  0  0  0  0  0  0
   -5.9771   20.1234  -34.7131 H   0  0  0  0  0  0  0  0  0  0  0  0
   -5.1003   18.8317  -33.8159 H   0  0  0  0  0  0  0  0  0  0  0  0
   -8.3167   21.0205  -33.5194 H   0  0  0  0  0  0  0  0  0  0  0  0
  -10.2133   19.8865  -32.1339 H   0  0  0  0  0  0  0  0  0  0  0  0
   -9.4854   17.5801  -31.0883 H   0  0  0  0  0  0  0  0  0  0  0  0
   -2.5020   19.5850  -33.8680 H   0  0  0  0  0  0  0  0  0  0  0  0
   -2.3420   21.2210  -34.5880 H   0  0  0  0  0  0  0  0  0  0  0  0
  1  2  1  0
  2  3  1  0
  3  4  1  0
  4  5  1  0
  3  6  1  0
  6  7  1  0
  7  8  1  0
  8  9  2  0
  9 10  1  0
 10 11  1  0
 11 12  2  0
 12 13  1  0
 13 14  2  0
 14 15  1  0
  9 16  1  0
 16 17  1  0
 16 18  1  0
 18 19  2  0
 18  7  1  0
 15 11  1  0
  1 20  1  0
  1 21  1  0
  1 22  1  0
  2 23  1  0
  2 24  1  0
  4 25  1  0
  4 26  1  0
  5 27  1  0
  5 28  1  0
  5 29  1  0
  6 30  1  0
  6 31  1  0
 10 32  1  0
 10 33  1  0
 12 34  1  0
 13 35  1  0
 14 36  1  0
 17 37  1  0
 17 38  1  0
M  END
>  <UniqueID>  (20) 
20

>  <SMILES>  (20) 
CCN(CC)Cn1nc(Cc2cccs2)n(N)c1=O

>  <Energy>  (20) 
100.56286386263636

>  <Genealogy>  (20) 
CCN(CC)Cn1nc(Cc2cccs2)n(N)c1=O (3D coordinates assigned)
CCN(CC)Cn1nc(Cc2cccs2)n(N)c1=O (optimized conformer: 100.56286386263636 kcal/mol)

>  <smiles>  (20) 
CCN(CC)Cn1nc(Cc2cccs2)n(N)c1=O

>  <score_type>  (20) 
oracle

>  <origin>  (20) 
adg

>  <m_score__min__energy>  (20) 
-6.5199999999999996

>  <m_primary>  (20) 
energy

$$$$
20:0
     RDKit          3D

 65 68  0  0  0  0  0  0  0  0999 V2000
   -4.2490   23.9460  -28.3240 C   0  0  0  0  0  0  0  0  0  0  0  0
   -3.2420   24.4910  -29.3420 C   0  0  0  0  0  0  0  0  0  0  0  0
   -3.8810   25.2810  -30.4060 N   0  0  0  0  0  0  0  0  0  0  0  0
   -5.3460   25.1950  -30.3560 C   0  0  0  0  0  0  0  0  0  0  0  0
   -5.8510   24.3440  -31.5250 C   0  0  0  0  0  0  0  0  0  0  0  0
   -5.0980   23.0020  -31.6010 C   0  0  0  0  0  0  0  0  0  0  0  0
   -5.3650   22.2830  -32.8630 N   0  0  0  0  0  0  0  0  0  0  0  0
   -5.4070   20.8350  -32.6820 C   0  0  0  0  0  0  0  0  0  0  0  0
   -6.6180   20.1940  -32.3290 C   0  0  0  0  0  0  0  0  0  0  0  0
   -7.6130   20.8510  -31.5670 C   0  0  0  0  0  0  0  0  0  0  0  0
   -8.8030   20.2060  -31.2370 C   0  0  0  0  0  0  0  0  0  0  0  0
   -9.0150   18.8910  -31.6320 C   0  0  0  0  0  0  0  0  0  0  0  0
   -8.0380   18.2120  -32.3580 C   0  0  0  0  0  0  0  0  0  0  0  0
   -6.8300   18.8510  -32.7340 C   0  0  0  0  0  0  0  0  0  0  0  0
   -5.8710   18.1980  -33.4760 N   0  0  0  0  0  0  0  0  0  0  0  0
   -6.2230   16.9730  -34.2240 C   0  0  0  0  0  0  0  0  0  0  0  0
   -4.5800   18.6870  -33.4990 C   0  0  0  0  0  0  0  0  0  0  0  0
   -3.5020   17.8890  -33.9590 C   0  0  0  0  0  0  0  0  0  0  0  0
   -2.2010   18.3800  -33.9760 C   0  0  0  0  0  0  0  0  0  0  0  0
   -1.9270   19.6470  -33.4810 C   0  0  0  0  0  0  0  0  0  0  0  0
   -2.9540   20.4510  -32.9810 C   0  0  0  0  0  0  0  0  0  0  0  0
   -2.5790   21.6330  -32.2670 N   0  0  0  0  0  0  0  0  0  0  0  0
   -1.4560   21.5920  -31.3310 C   0  0  0  0  0  0  0  0  0  0  0  0
   -1.9220   21.2870  -29.9020 C   0  0  0  0  0  0  0  0  0  0  0  0
   -0.9370   20.4080  -29.1070 C   0  0  0  0  0  0  0  0  0  0  0  0
   -1.5970   19.7480  -27.9810 N   0  0  0  0  0  0  0  0  0  0  0  0
   -2.8050   20.0480  -27.4710 C   0  0  0  0  0  0  0  0  0  0  0  0
   -3.0720   19.1460  -26.4650 C   0  0  0  0  0  0  0  0  0  0  0  0
   -2.0460   18.2770  -26.3510 N   0  0  0  0  0  0  0  0  0  0  0  0
   -1.1650   18.6730  -27.2940 C   0  0  0  0  0  0  0  0  0  0  0  0
   -4.3070   20.0090  -33.0440 C   0  0  0  0  0  0  0  0  0  0  0  0
   -3.8840   24.1436  -27.3053 H   0  0  0  0  0  0  0  0  0  0  0  0
   -5.2205   24.4415  -28.4679 H   0  0  0  0  0  0  0  0  0  0  0  0
   -4.3655   22.8617  -28.4679 H   0  0  0  0  0  0  0  0  0  0  0  0
   -2.5195   25.1309  -28.8143 H   0  0  0  0  0  0  0  0  0  0  0  0
   -2.7509   23.6292  -29.8175 H   0  0  0  0  0  0  0  0  0  0  0  0
   -3.5490   24.9380  -31.3390 H   0  0  0  0  0  0  0  0  0  0  0  0
   -5.6533   24.7321  -29.4066 H   0  0  0  0  0  0  0  0  0  0  0  0
   -5.7739   26.2058  -30.4284 H   0  0  0  0  0  0  0  0  0  0  0  0
   -6.9244   24.1463  -31.3879 H   0  0  0  0  0  0  0  0  0  0  0  0
   -5.6756   24.8961  -32.4601 H   0  0  0  0  0  0  0  0  0  0  0  0
   -4.0180   23.1971  -31.5261 H   0  0  0  0  0  0  0  0  0  0  0  0
   -5.4493   22.3704  -30.7718 H   0  0  0  0  0  0  0  0  0  0  0  0
   -6.2490   22.6230  -33.2950 H   0  0  0  0  0  0  0  0  0  0  0  0
   -4.6110   22.5790  -33.5200 H   0  0  0  0  0  0  0  0  0  0  0  0
   -7.4447   21.8847  -31.2307 H   0  0  0  0  0  0  0  0  0  0  0  0
   -9.5756   20.7385  -30.6630 H   0  0  0  0  0  0  0  0  0  0  0  0
   -9.9560   18.3846  -31.3712 H   0  0  0  0  0  0  0  0  0  0  0  0
   -8.2072   17.1633  -32.6438 H   0  0  0  0  0  0  0  0  0  0  0  0
   -6.4553   16.1646  -33.5151 H   0  0  0  0  0  0  0  0  0  0  0  0
   -7.1011   17.1694  -34.8568 H   0  0  0  0  0  0  0  0  0  0  0  0
   -5.3746   16.6733  -34.8568 H   0  0  0  0  0  0  0  0  0  0  0  0
   -3.6980   16.8645  -34.3082 H   0  0  0  0  0  0  0  0  0  0  0  0
   -1.3869   17.7623  -34.3830 H   0  0  0  0  0  0  0  0  0  0  0  0
   -0.8926   20.0213  -33.4823 H   0  0  0  0  0  0  0  0  0  0  0  0
   -2.8390   22.5530  -32.6860 H   0  0  0  0  0  0  0  0  0  0  0  0
   -0.7526   20.8094  -31.6516 H   0  0  0  0  0  0  0  0  0  0  0  0
   -0.9720   22.5798  -31.3313 H   0  0  0  0  0  0  0  0  0  0  0  0
   -2.0484   22.2395  -29.3666 H   0  0  0  0  0  0  0  0  0  0  0  0
   -2.8639   20.7246  -29.9827 H   0  0  0  0  0  0  0  0  0  0  0  0
   -0.5211   19.6412  -29.7771 H   0  0  0  0  0  0  0  0  0  0  0  0
   -0.1404   21.0543  -28.7098 H   0  0  0  0  0  0  0  0  0  0  0  0
   -3.4620   20.8671  -27.7987 H   0  0  0  0  0  0  0  0  0  0  0  0
   -3.9829   19.1356  -25.8484 H   0  0  0  0  0  0  0  0  0  0  0  0
   -0.2026   18.1739  -27.4804 H   0  0  0  0  0  0  0  0  0  0  0  0
  1  2  1  0
  2  3  1  0
  3  4  1  0
  4  5  1  0
  5  6  1  0
  6  7  1  0
  7  8  1  0
  8  9  2  0
  9 10  1  0
 10 11  2  0
 11 12  1  0
 12 13  2  0
 13 14  1  0
 14 15  2  0
 15 16  1  0
 15 17  1  0
 17 18  2  0
 18 19  1  0
 19 20  2  0
 20 21  1  0
 21 22  1  0
 22 23  1  0
 23 24  1  0
 24 25  1  0
 25 26  1  0
 26 27  1  0
 27 28  2  0
 28 29  1  0
 29 30  2  0
 21 31  2  0
 31  8  1  0
 14  9  1  0
 31 17  1  0
 30 26  1  0
  1 32  1  0
  1 33  1  0
  1 34  1  0
  2 35  1  0
  2 36  1  0
  3 37  1  0
  4 38  1  0
  4 39  1  0
  5 40  1  0
  5 41  1  0
  6 42  1  0
  6 43  1  0
  7 44  1  0
  7 45  1  0
 10 46  1  0
 11 47  1  0
 12 48  1  0
 13 49  1  0
 16 50  1  0
 16 51  1  0
 16 52  1  0
 18 53  1  0
 19 54  1  0
 20 55  1  0
 22 56  1  0
 23 57  1  0
 23 58  1  0
 24 59  1  0
 24 60  1  0
 25 61  1  0
 25 62  1  0
 27 63  1  0
 28 64  1  0
 30 65  1  0
M  CHG  2   7   1  15   1
M  END
>  <UniqueID>  (21) 
21

>  <SMILES>  (21) 
CCNCCC[NH2+]c1c2ccccc2[n+](C)c2cccc(NCCCn3ccnc3)c12

>  <Energy>  (21) 
131.64396930224675

>  <Genealogy>  (21) 
CCNCCC[NH2+]c1c2ccccc2[n+](C)c2cccc(NCCCn3ccnc3)c12 (protonated)
CCNCCC[NH2+]c1c2ccccc2[n+](C)c2cccc(NCCCn3ccnc3)c12 (3D coordinates assigned)
CCNCCC[NH2+]c1c2ccccc2[n+](C)c2cccc(NCCCn3ccnc3)c12 (optimized conformer: 131.64396930224675 kcal/mol)

>  <smiles>  (21) 
CCNCCCNc1c2ccccc2[n+](C)c2cccc(NCCCn3ccnc3)c12

>  <score_type>  (21) 
oracle

>  <origin>  (21) 
adg

>  <m_score__min__energy>  (21) 
-8.9100000000000001

>  <m_primary>  (21) 
energy

$$$$
21:0
     RDKit          3D

 46 48  0  0  0  0  0  0  0  0999 V2000
   -7.5520   23.7970  -31.5330 C   0  0  0  0  0  0  0  0  0  0  0  0
   -7.8600   22.5010  -31.9740 N   0  0  0  0  0  0  0  0  0  0  0  0
   -7.5650   21.4860  -31.3090 C   0  0  0  0  0  0  0  0  0  0  0  0
   -8.5840   20.9910  -32.0280 C   0  0  0  0  0  0  0  0  0  0  0  0
   -7.8670   19.4160  -32.7500 C   0  0  0  0  0  0  0  0  0  0  0  0
   -8.4170   18.1500  -32.0830 N   0  0  0  0  0  0  0  0  0  0  0  0
   -5.9290   17.3050  -32.3160 C   0  0  0  0  0  0  0  0  0  0  0  0
   -4.1430   17.3080  -32.8050 C   0  0  0  0  0  0  0  0  0  0  0  0
   -3.3410   18.2280  -34.1670 N   0  0  0  0  0  0  0  0  0  0  0  0
   -3.0520   19.8380  -33.7370 C   0  0  0  0  0  0  0  0  0  0  0  0
   -3.6070   20.7560  -32.3120 C   0  0  0  0  0  0  0  0  0  0  0  0
   -3.5750   22.1600  -32.4140 O   0  0  0  0  0  0  0  0  0  0  0  0
   -4.5320   22.7470  -31.5500 C   0  0  0  0  0  0  0  0  0  0  0  0
   -4.0170   23.7210  -30.4620 C   0  0  0  0  0  0  0  0  0  0  0  0
   -4.7130   25.0740  -30.4550 C   0  0  0  0  0  0  0  0  0  0  0  0
   -4.7640   24.1880  -29.2110 C   0  0  0  0  0  0  0  0  0  0  0  0
   -5.7960   18.2470  -34.9180 C   0  0  0  0  0  0  0  0  0  0  0  0
   -6.3410   19.3390  -33.5890 C   0  0  0  0  0  0  0  0  0  0  0  0
   -9.4870   21.5050  -30.5160 C   0  0  0  0  0  0  0  0  0  0  0  0
   -9.0990   21.9950  -31.8460 N   0  0  0  0  0  0  0  0  0  0  0  0
   -7.5469   23.8185  -30.4332 H   0  0  0  0  0  0  0  0  0  0  0  0
   -6.5600   24.0865  -31.9100 H   0  0  0  0  0  0  0  0  0  0  0  0
   -8.3076   24.5019  -31.9100 H   0  0  0  0  0  0  0  0  0  0  0  0
   -6.8475   21.1661  -30.5391 H   0  0  0  0  0  0  0  0  0  0  0  0
   -8.1075   19.3804  -33.8228 H   0  0  0  0  0  0  0  0  0  0  0  0
   -6.7813   19.4367  -32.5745 H   0  0  0  0  0  0  0  0  0  0  0  0
   -5.7551   17.1560  -31.2401 H   0  0  0  0  0  0  0  0  0  0  0  0
   -6.1631   17.0616  -33.3629 H   0  0  0  0  0  0  0  0  0  0  0  0
   -3.6089   17.6325  -31.8998 H   0  0  0  0  0  0  0  0  0  0  0  0
   -4.0918   16.2985  -33.2388 H   0  0  0  0  0  0  0  0  0  0  0  0
   -1.9554   19.9132  -33.6956 H   0  0  0  0  0  0  0  0  0  0  0  0
   -3.7103   20.3096  -34.4814 H   0  0  0  0  0  0  0  0  0  0  0  0
   -4.6467   20.4599  -32.1087 H   0  0  0  0  0  0  0  0  0  0  0  0
   -2.8944   20.5074  -31.5117 H   0  0  0  0  0  0  0  0  0  0  0  0
   -5.2445   23.3024  -32.1776 H   0  0  0  0  0  0  0  0  0  0  0  0
   -4.9556   21.9013  -30.9884 H   0  0  0  0  0  0  0  0  0  0  0  0
   -3.0147   23.2776  -30.5558 H   0  0  0  0  0  0  0  0  0  0  0  0
   -4.1169   25.9984  -30.4470 H   0  0  0  0  0  0  0  0  0  0  0  0
   -5.4652   25.5635  -31.0910 H   0  0  0  0  0  0  0  0  0  0  0  0
   -4.2031   24.4726  -28.3086 H   0  0  0  0  0  0  0  0  0  0  0  0
   -5.5650   23.7738  -28.5810 H   0  0  0  0  0  0  0  0  0  0  0  0
   -5.9375   18.6815  -35.9186 H   0  0  0  0  0  0  0  0  0  0  0  0
   -6.3077   17.2802  -35.0343 H   0  0  0  0  0  0  0  0  0  0  0  0
   -5.4899   19.5489  -32.9245 H   0  0  0  0  0  0  0  0  0  0  0  0
   -6.7216   20.2697  -34.0351 H   0  0  0  0  0  0  0  0  0  0  0  0
   -9.9276   21.4740  -29.5086 H   0  0  0  0  0  0  0  0  0  0  0  0
  1  2  1  0
  2  3  1  0
  3  4  2  0
  4  5  1  0
  5  6  1  0
  6  7  1  0
  7  8  1  0
  8  9  1  0
  9 10  1  0
 10 11  1  0
 11 12  1  0
 12 13  1  0
 13 14  1  0
 14 15  1  0
 15 16  1  0
  9 17  1  0
 17 18  1  0
  4 19  1  0
 19 20  2  0
 20  2  1  0
 18  6  1  0
 16 14  1  0
  1 21  1  0
  1 22  1  0
  1 23  1  0
  3 24  1  0
  5 25  1  0
  5 26  1  0
  7 27  1  0
  7 28  1  0
  8 29  1  0
  8 30  1  0
 10 31  1  0
 10 32  1  0
 11 33  1  0
 11 34  1  0
 13 35  1  0
 13 36  1  0
 14 37  1  0
 15 38  1  0
 15 39  1  0
 16 40  1  0
 16 41  1  0
 17 42  1  0
 17 43  1  0
 18 44  1  0
 18 45  1  0
 19 46  1  0
M  END
>  <UniqueID>  (22) 
22

>  <SMILES>  (22) 
Cn1cc(CN2CCN(CCOCC3CC3)CC2)cn1

>  <Energy>  (22) 
6626.759809614615

>  <Genealogy>  (22) 
Cn1cc(CN2CCN(CCOCC3CC3)CC2)cn1 (3D coordinates assigned)
Cn1cc(CN2CCN(CCOCC3CC3)CC2)cn1 (nonaromatic ring conformer: 6626.759809614615 kcal/mol)

>  <smiles>  (22) 
Cn1cc(CN2CCN(CCOCC3CC3)CC2)cn1

>  <score_type>  (22) 
oracle

>  <origin>  (22) 
adg

>  <m_score__min__energy>  (22) 
-7.1799999999999997

>  <m_primary>  (22) 
energy

$$$$
22:0
     RDKit          3D

 67 69  0  0  0  0  0  0  0  0999 V2000
   -2.1390   24.5530  -27.7340 C   0  0  0  0  0  0  0  0  0  0  0  0
   -1.3170   23.6200  -28.6310 C   0  0  0  0  0  0  0  0  0  0  0  0
   -2.0420   22.3850  -28.9800 N   0  0  0  0  0  0  0  0  0  0  0  0
   -2.8640   21.8930  -27.8660 C   0  0  0  0  0  0  0  0  0  0  0  0
   -2.8080   20.3620  -27.8180 C   0  0  0  0  0  0  0  0  0  0  0  0
   -1.4190   19.8560  -27.4250 C   0  0  0  0  0  0  0  0  0  0  0  0
   -0.4780   20.2450  -28.4070 O   0  0  0  0  0  0  0  0  0  0  0  0
   -0.0460   19.1240  -29.1570 C   0  0  0  0  0  0  0  0  0  0  0  0
   -0.1790   19.3930  -30.6620 C   0  0  0  0  0  0  0  0  0  0  0  0
   -0.7950   20.6440  -30.9030 O   0  0  0  0  0  0  0  0  0  0  0  0
   -0.8820   20.9000  -32.2920 C   0  0  0  0  0  0  0  0  0  0  0  0
   -2.3210   21.2710  -32.6480 C   0  0  0  0  0  0  0  0  0  0  0  0
   -3.1840   21.2060  -31.4690 N   0  0  0  0  0  0  0  0  0  0  0  0
   -4.5750   21.5370  -31.5690 C   0  0  0  0  0  0  0  0  0  0  0  0
   -5.4650   20.6360  -32.1660 C   0  0  0  0  0  0  0  0  0  0  0  0
   -6.8280   20.9690  -32.2810 C   0  0  0  0  0  0  0  0  0  0  0  0
   -7.3170   22.1440  -31.7380 N   0  0  0  0  0  0  0  0  0  0  0  0
   -8.7800   22.3710  -31.6670 C   0  0  0  0  0  0  0  0  0  0  0  0
   -9.4120   21.5480  -30.5440 C   0  0  0  0  0  0  0  0  0  0  0  0
   -6.4330   23.0870  -31.2310 C   0  0  0  0  0  0  0  0  0  0  0  0
   -6.8600   24.3810  -30.8270 C   0  0  0  0  0  0  0  0  0  0  0  0
   -5.9600   25.3060  -30.2980 C   0  0  0  0  0  0  0  0  0  0  0  0
   -4.6140   24.9810  -30.1730 C   0  0  0  0  0  0  0  0  0  0  0  0
   -4.1560   23.7350  -30.5900 C   0  0  0  0  0  0  0  0  0  0  0  0
   -5.0470   22.7820  -31.1240 C   0  0  0  0  0  0  0  0  0  0  0  0
   -7.6740   19.9940  -33.0940 C   0  0  0  0  0  0  0  0  0  0  0  0
   -7.4630   18.5470  -32.6140 C   0  0  0  0  0  0  0  0  0  0  0  0
   -5.9840   18.1920  -32.3230 C   0  0  0  0  0  0  0  0  0  0  0  0
   -4.9990   19.3020  -32.7170 C   0  0  0  0  0  0  0  0  0  0  0  0
   -1.9345   24.3209  -26.6784 H   0  0  0  0  0  0  0  0  0  0  0  0
   -1.8622   25.5975  -27.9400 H   0  0  0  0  0  0  0  0  0  0  0  0
   -3.2100   24.4100  -27.9400 H   0  0  0  0  0  0  0  0  0  0  0  0
   -1.0653   24.1548  -29.5587 H   0  0  0  0  0  0  0  0  0  0  0  0
   -0.4150   23.3301  -28.0722 H   0  0  0  0  0  0  0  0  0  0  0  0
   -1.3520   21.6440  -29.2480 H   0  0  0  0  0  0  0  0  0  0  0  0
   -2.4802   22.3026  -26.9200 H   0  0  0  0  0  0  0  0  0  0  0  0
   -3.9057   22.2145  -28.0128 H   0  0  0  0  0  0  0  0  0  0  0  0
   -3.5400   20.0020  -27.0800 H   0  0  0  0  0  0  0  0  0  0  0  0
   -3.0391   19.9799  -28.8233 H   0  0  0  0  0  0  0  0  0  0  0  0
   -1.1338   20.2862  -26.4536 H   0  0  0  0  0  0  0  0  0  0  0  0
   -1.4371   18.7587  -27.3501 H   0  0  0  0  0  0  0  0  0  0  0  0
    1.0075   18.9151  -28.9194 H   0  0  0  0  0  0  0  0  0  0  0  0
   -0.6752   18.2604  -28.8956 H   0  0  0  0  0  0  0  0  0  0  0  0
    0.8224   19.3920  -31.1171 H   0  0  0  0  0  0  0  0  0  0  0  0
   -0.8052   18.6041  -31.1041 H   0  0  0  0  0  0  0  0  0  0  0  0
   -0.2122   21.7320  -32.5549 H   0  0  0  0  0  0  0  0  0  0  0  0
   -0.5840   20.0012  -32.8517 H   0  0  0  0  0  0  0  0  0  0  0  0
   -2.3397   22.2940  -33.0520 H   0  0  0  0  0  0  0  0  0  0  0  0
   -2.6935   20.5555  -33.3959 H   0  0  0  0  0  0  0  0  0  0  0  0
   -2.7800   21.0590  -30.5170 H   0  0  0  0  0  0  0  0  0  0  0  0
   -8.9691   23.4384  -31.4800 H   0  0  0  0  0  0  0  0  0  0  0  0
   -9.2281   22.0599  -32.6222 H   0  0  0  0  0  0  0  0  0  0  0  0
   -9.0996   21.9548  -29.5709 H   0  0  0  0  0  0  0  0  0  0  0  0
  -10.5079   21.5956  -30.6266 H   0  0  0  0  0  0  0  0  0  0  0  0
   -9.0832   20.5016  -30.6266 H   0  0  0  0  0  0  0  0  0  0  0  0
   -7.9192   24.6580  -30.9334 H   0  0  0  0  0  0  0  0  0  0  0  0
   -6.3165   26.2964  -29.9785 H   0  0  0  0  0  0  0  0  0  0  0  0
   -3.9104   25.7096  -29.7440 H   0  0  0  0  0  0  0  0  0  0  0  0
   -3.0870   23.4910  -30.5020 H   0  0  0  0  0  0  0  0  0  0  0  0
   -8.7357   20.2589  -32.9818 H   0  0  0  0  0  0  0  0  0  0  0  0
   -7.3693   20.0611  -34.1488 H   0  0  0  0  0  0  0  0  0  0  0  0
   -8.0425   18.4004  -31.6906 H   0  0  0  0  0  0  0  0  0  0  0  0
   -7.7950   17.8882  -33.4300 H   0  0  0  0  0  0  0  0  0  0  0  0
   -5.8778   17.9986  -31.2453 H   0  0  0  0  0  0  0  0  0  0  0  0
   -5.7373   17.3094  -32.9314 H   0  0  0  0  0  0  0  0  0  0  0  0
   -4.0050   19.0675  -32.3085 H   0  0  0  0  0  0  0  0  0  0  0  0
   -4.9491   19.3646  -33.8141 H   0  0  0  0  0  0  0  0  0  0  0  0
  1  2  1  0
  2  3  1  0
  3  4  1  0
  4  5  1  0
  5  6  1  0
  6  7  1  0
  7  8  1  0
  8  9  1  0
  9 10  1  0
 10 11  1  0
 11 12  1  0
 12 13  1  0
 13 14  1  0
 14 15  2  0
 15 16  1  0
 16 17  2  0
 17 18  1  0
 18 19  1  0
 17 20  1  0
 20 21  2  0
 21 22  1  0
 22 23  2  0
 23 24  1  0
 24 25  2  0
 16 26  1  0
 26 27  1  0
 27 28  1  0
 28 29  1  0
 25 14  1  0
 29 15  1  0
 25 20  1  0
  1 30  1  0
  1 31  1  0
  1 32  1  0
  2 33  1  0
  2 34  1  0
  3 35  1  0
  4 36  1  0
  4 37  1  0
  5 38  1  0
  5 39  1  0
  6 40  1  0
  6 41  1  0
  8 42  1  0
  8 43  1  0
  9 44  1  0
  9 45  1  0
 11 46  1  0
 11 47  1  0
 12 48  1  0
 12 49  1  0
 13 50  1  0
 18 51  1  0
 18 52  1  0
 19 53  1  0
 19 54  1  0
 19 55  1  0
 21 56  1  0
 22 57  1  0
 23 58  1  0
 24 59  1  0
 26 60  1  0
 26 61  1  0
 27 62  1  0
 27 63  1  0
 28 64  1  0
 28 65  1  0
 29 66  1  0
 29 67  1  0
M  CHG  1  17   1
M  END
>  <UniqueID>  (23) 
23

>  <SMILES>  (23) 
CCNCCCOCCOCCNc1c2c([n+](CC)c3ccccc13)CCCC2

>  <Energy>  (23) 
85.99215433543107

>  <Genealogy>  (23) 
CCNCCCOCCOCCNc1c2c([n+](CC)c3ccccc13)CCCC2 (3D coordinates assigned)
CCNCCCOCCOCCNc1c2c([n+](CC)c3ccccc13)CCCC2 (nonaromatic ring conformer: 85.99215433543107 kcal/mol)

>  <smiles>  (23) 
CCNCCCOCCOCCNc1c2c([n+](CC)c3ccccc13)CCCC2

>  <score_type>  (23) 
oracle

>  <origin>  (23) 
adg

>  <m_score__min__energy>  (23) 
-10.050000000000001

>  <m_primary>  (23) 
energy

$$$$
24:0
     RDKit          3D

 52 55  0  0  0  0  0  0  0  0999 V2000
   -3.3510   24.0810  -27.7130 C   0  0  0  0  0  0  0  0  0  0  0  0
   -2.2720   24.2730  -28.7800 C   0  0  0  0  0  0  0  0  0  0  0  0
   -2.2960   23.2110  -29.8030 N   0  0  0  0  0  0  0  0  0  0  0  0
   -3.0050   22.0050  -29.3520 C   0  0  0  0  0  0  0  0  0  0  0  0
   -2.7300   20.8420  -30.3110 C   0  0  0  0  0  0  0  0  0  0  0  0
   -1.8130   21.2710  -31.4670 C   0  0  0  0  0  0  0  0  0  0  0  0
   -1.9820   20.3730  -32.7040 C   0  0  0  0  0  0  0  0  0  0  0  0
   -3.0660   20.8610  -33.5620 N   0  0  0  0  0  0  0  0  0  0  0  0
   -4.4290   20.8550  -33.1130 C   0  0  0  0  0  0  0  0  0  0  0  0
   -5.2700   19.7260  -33.2440 C   0  0  0  0  0  0  0  0  0  0  0  0
   -4.8370   18.5840  -33.9420 C   0  0  0  0  0  0  0  0  0  0  0  0
   -5.6400   17.4470  -34.0090 C   0  0  0  0  0  0  0  0  0  0  0  0
   -6.8810   17.4290  -33.3810 C   0  0  0  0  0  0  0  0  0  0  0  0
   -7.3510   18.5600  -32.7120 C   0  0  0  0  0  0  0  0  0  0  0  0
   -6.5850   19.7490  -32.6620 C   0  0  0  0  0  0  0  0  0  0  0  0
   -7.0620   20.9020  -32.0520 N   0  0  0  0  0  0  0  0  0  0  0  0
   -8.4740   21.0530  -31.6600 C   0  0  0  0  0  0  0  0  0  0  0  0
   -6.1870   21.9440  -31.8760 C   0  0  0  0  0  0  0  0  0  0  0  0
   -4.9210   21.9430  -32.4120 C   0  0  0  0  0  0  0  0  0  0  0  0
   -4.2690   23.0470  -32.1110 O   0  0  0  0  0  0  0  0  0  0  0  0
   -5.0690   23.7700  -31.3620 C   0  0  0  0  0  0  0  0  0  0  0  0
   -4.7790   25.0000  -30.7810 C   0  0  0  0  0  0  0  0  0  0  0  0
   -5.7510   25.5860  -29.9530 C   0  0  0  0  0  0  0  0  0  0  0  0
   -6.9740   24.9280  -29.7100 C   0  0  0  0  0  0  0  0  0  0  0  0
   -7.2470   23.6820  -30.3050 C   0  0  0  0  0  0  0  0  0  0  0  0
   -6.2840   23.1360  -31.1640 C   0  0  0  0  0  0  0  0  0  0  0  0
   -2.8974   24.1617  -26.7141 H   0  0  0  0  0  0  0  0  0  0  0  0
   -4.1231   24.8559  -27.8288 H   0  0  0  0  0  0  0  0  0  0  0  0
   -3.8084   23.0873  -27.8288 H   0  0  0  0  0  0  0  0  0  0  0  0
   -2.4325   25.2427  -29.2739 H   0  0  0  0  0  0  0  0  0  0  0  0
   -1.2939   24.2326  -28.2782 H   0  0  0  0  0  0  0  0  0  0  0  0
   -2.7490   23.5730  -30.6740 H   0  0  0  0  0  0  0  0  0  0  0  0
   -2.6580   21.7348  -28.3437 H   0  0  0  0  0  0  0  0  0  0  0  0
   -4.0858   22.2087  -29.3342 H   0  0  0  0  0  0  0  0  0  0  0  0
   -2.2456   20.0263  -29.7542 H   0  0  0  0  0  0  0  0  0  0  0  0
   -3.6890   20.5103  -30.7357 H   0  0  0  0  0  0  0  0  0  0  0  0
   -2.0547   22.3074  -31.7455 H   0  0  0  0  0  0  0  0  0  0  0  0
   -0.7717   21.1821  -31.1239 H   0  0  0  0  0  0  0  0  0  0  0  0
   -1.0431   20.3694  -33.2772 H   0  0  0  0  0  0  0  0  0  0  0  0
   -2.2314   19.3558  -32.3678 H   0  0  0  0  0  0  0  0  0  0  0  0
   -2.8060   21.5780  -34.2760 H   0  0  0  0  0  0  0  0  0  0  0  0
   -3.8559   18.5885  -34.4393 H   0  0  0  0  0  0  0  0  0  0  0  0
   -5.2914   16.5612  -34.5601 H   0  0  0  0  0  0  0  0  0  0  0  0
   -7.4959   16.5174  -33.4119 H   0  0  0  0  0  0  0  0  0  0  0  0
   -8.3322   18.5268  -32.2158 H   0  0  0  0  0  0  0  0  0  0  0  0
   -8.5510   21.0612  -30.5627 H   0  0  0  0  0  0  0  0  0  0  0  0
   -8.8671   21.9983  -32.0623 H   0  0  0  0  0  0  0  0  0  0  0  0
   -9.0581   20.2122  -32.0623 H   0  0  0  0  0  0  0  0  0  0  0  0
   -3.8163   25.4996  -30.9645 H   0  0  0  0  0  0  0  0  0  0  0  0
   -5.5565   26.5651  -29.4910 H   0  0  0  0  0  0  0  0  0  0  0  0
   -7.7213   25.3924  -29.0497 H   0  0  0  0  0  0  0  0  0  0  0  0
   -8.1892   23.1521  -30.1015 H   0  0  0  0  0  0  0  0  0  0  0  0
  1  2  1  0
  2  3  1  0
  3  4  1  0
  4  5  1  0
  5  6  1  0
  6  7  1  0
  7  8  1  0
  8  9  1  0
  9 10  2  0
 10 11  1  0
 11 12  2  0
 12 13  1  0
 13 14  2  0
 14 15  1  0
 15 16  2  0
 16 17  1  0
 16 18  1  0
 18 19  2  0
 19 20  1  0
 20 21  1  0
 21 22  2  0
 22 23  1  0
 23 24  2  0
 24 25  1  0
 25 26  2  0
 19  9  1  0
 26 21  1  0
 15 10  1  0
 26 18  1  0
  1 27  1  0
  1 28  1  0
  1 29  1  0
  2 30  1  0
  2 31  1  0
  3 32  1  0
  4 33  1  0
  4 34  1  0
  5 35  1  0
  5 36  1  0
  6 37  1  0
  6 38  1  0
  7 39  1  0
  7 40  1  0
  8 41  1  0
 11 42  1  0
 12 43  1  0
 13 44  1  0
 14 45  1  0
 17 46  1  0
 17 47  1  0
 17 48  1  0
 22 49  1  0
 23 50  1  0
 24 51  1  0
 25 52  1  0
M  CHG  1  16   1
M  END
>  <UniqueID>  (24) 
24

>  <SMILES>  (24) 
CCNCCCCNc1c2ccccc2[n+](C)c2c1oc1ccccc12

>  <Energy>  (24) 
107.34177104016109

>  <Genealogy>  (24) 
CCNCCCCNc1c2ccccc2[n+](C)c2c1oc1ccccc12 (3D coordinates assigned)
CCNCCCCNc1c2ccccc2[n+](C)c2c1oc1ccccc12 (optimized conformer: 107.34177104016109 kcal/mol)

>  <smiles>  (24) 
CCNCCCCNc1c2ccccc2[n+](C)c2c1oc1ccccc12

>  <score_type>  (24) 
oracle

>  <origin>  (24) 
adg

>  <m_score__min__energy>  (24) 
-9.6400000000000006

>  <m_primary>  (24) 
energy

$$$$
25:0
     RDKit          3D

 49 51  0  0  0  0  0  0  0  0999 V2000
   -6.8270   25.6450  -29.3860 C   0  0  0  0  0  0  0  0  0  0  0  0
   -6.5740   24.4740  -30.3340 C   0  0  0  0  0  0  0  0  0  0  0  0
   -5.3240   24.6700  -31.2170 C   0  0  0  0  0  0  0  0  0  0  0  0
   -4.1150   25.0590  -30.4710 N   0  0  0  0  0  0  0  0  0  0  0  0
   -3.2120   23.9280  -30.2220 C   0  0  0  0  0  0  0  0  0  0  0  0
   -3.8780   22.6310  -30.6870 C   0  0  0  0  0  0  0  0  0  0  0  0
   -3.2770   22.1440  -32.0110 C   0  0  0  0  0  0  0  0  0  0  0  0
   -4.3310   21.7380  -32.9430 N   0  0  0  0  0  0  0  0  0  0  0  0
   -4.7760   20.3740  -33.0440 C   0  0  0  0  0  0  0  0  0  0  0  0
   -3.9070   19.3730  -33.5140 C   0  0  0  0  0  0  0  0  0  0  0  0
   -2.5570   19.6660  -33.8050 C   0  0  0  0  0  0  0  0  0  0  0  0
   -1.7180   18.6930  -34.3430 C   0  0  0  0  0  0  0  0  0  0  0  0
   -2.2080   17.4190  -34.6040 C   0  0  0  0  0  0  0  0  0  0  0  0
   -3.5260   17.0960  -34.2830 C   0  0  0  0  0  0  0  0  0  0  0  0
   -4.3910   18.0480  -33.6850 C   0  0  0  0  0  0  0  0  0  0  0  0
   -5.6720   17.7180  -33.2820 N   0  0  0  0  0  0  0  0  0  0  0  0
   -6.0770   16.2970  -33.1990 C   0  0  0  0  0  0  0  0  0  0  0  0
   -6.5620   18.7110  -32.9150 C   0  0  0  0  0  0  0  0  0  0  0  0
   -7.9420   18.4460  -32.7230 C   0  0  0  0  0  0  0  0  0  0  0  0
   -8.8170   19.4450  -32.2970 C   0  0  0  0  0  0  0  0  0  0  0  0
   -8.3480   20.7320  -32.0590 C   0  0  0  0  0  0  0  0  0  0  0  0
   -9.4510   21.9800  -31.5110 Cl  0  0  0  0  0  0  0  0  0  0  0  0
   -7.0060   21.0350  -32.2810 C   0  0  0  0  0  0  0  0  0  0  0  0
   -6.1080   20.0460  -32.7380 C   0  0  0  0  0  0  0  0  0  0  0  0
   -6.7518   25.2970  -28.3452 H   0  0  0  0  0  0  0  0  0  0  0  0
   -6.0778   26.4302  -29.5651 H   0  0  0  0  0  0  0  0  0  0  0  0
   -7.8336   26.0509  -29.5651 H   0  0  0  0  0  0  0  0  0  0  0  0
   -6.4400   23.5612  -29.7350 H   0  0  0  0  0  0  0  0  0  0  0  0
   -7.4422   24.4019  -31.0056 H   0  0  0  0  0  0  0  0  0  0  0  0
   -5.1182   23.7239  -31.7390 H   0  0  0  0  0  0  0  0  0  0  0  0
   -5.5500   25.4961  -31.9073 H   0  0  0  0  0  0  0  0  0  0  0  0
   -4.3810   25.5030  -29.5620 H   0  0  0  0  0  0  0  0  0  0  0  0
   -2.2745   24.0783  -30.7774 H   0  0  0  0  0  0  0  0  0  0  0  0
   -2.9944   23.8628  -29.1457 H   0  0  0  0  0  0  0  0  0  0  0  0
   -3.7308   21.8567  -29.9196 H   0  0  0  0  0  0  0  0  0  0  0  0
   -4.9498   22.8250  -30.8409 H   0  0  0  0  0  0  0  0  0  0  0  0
   -2.6909   22.9583  -32.4620 H   0  0  0  0  0  0  0  0  0  0  0  0
   -2.6331   21.2757  -31.8074 H   0  0  0  0  0  0  0  0  0  0  0  0
   -4.7200   22.4450  -33.6070 H   0  0  0  0  0  0  0  0  0  0  0  0
   -2.1635   20.6735  -33.6047 H   0  0  0  0  0  0  0  0  0  0  0  0
   -0.6670   18.9331  -34.5614 H   0  0  0  0  0  0  0  0  0  0  0  0
   -1.5546   16.6636  -35.0649 H   0  0  0  0  0  0  0  0  0  0  0  0
   -3.9017   16.0846  -34.4974 H   0  0  0  0  0  0  0  0  0  0  0  0
   -6.1614   16.0009  -32.1430 H   0  0  0  0  0  0  0  0  0  0  0  0
   -7.0491   16.1631  -33.6962 H   0  0  0  0  0  0  0  0  0  0  0  0
   -5.3216   15.6708  -33.6962 H   0  0  0  0  0  0  0  0  0  0  0  0
   -8.3292   17.4342  -32.9135 H   0  0  0  0  0  0  0  0  0  0  0  0
   -9.8822   19.2138  -32.1488 H   0  0  0  0  0  0  0  0  0  0  0  0
   -6.6420   22.0568  -32.0980 H   0  0  0  0  0  0  0  0  0  0  0  0
  1  2  1  0
  2  3  1  0
  3  4  1  0
  4  5  1  0
  5  6  1  0
  6  7  1  0
  7  8  1  0
  8  9  1  0
  9 10  2  0
 10 11  1  0
 11 12  2  0
 12 13  1  0
 13 14  2  0
 14 15  1  0
 15 16  2  0
 16 17  1  0
 16 18  1  0
 18 19  2  0
 19 20  1  0
 20 21  2  0
 21 22  1  0
 21 23  1  0
 23 24  2  0
 24  9  1  0
 15 10  1  0
 24 18  1  0
  1 25  1  0
  1 26  1  0
  1 27  1  0
  2 28  1  0
  2 29  1  0
  3 30  1  0
  3 31  1  0
  4 32  1  0
  5 33  1  0
  5 34  1  0
  6 35  1  0
  6 36  1  0
  7 37  1  0
  7 38  1  0
  8 39  1  0
 11 40  1  0
 12 41  1  0
 13 42  1  0
 14 43  1  0
 17 44  1  0
 17 45  1  0
 17 46  1  0
 19 47  1  0
 20 48  1  0
 23 49  1  0
M  CHG  1  16   1
M  END
>  <UniqueID>  (25) 
25

>  <SMILES>  (25) 
CCCNCCCNc1c2ccccc2[n+](C)c2ccc(Cl)cc12

>  <Energy>  (25) 
69.39066626188612

>  <Genealogy>  (25) 
CCCNCCCNc1c2ccccc2[n+](C)c2ccc(Cl)cc12 (3D coordinates assigned)
CCCNCCCNc1c2ccccc2[n+](C)c2ccc(Cl)cc12 (optimized conformer: 69.39066626188612 kcal/mol)

>  <smiles>  (25) 
CCCNCCCNc1c2ccccc2[n+](C)c2ccc(Cl)cc12

>  <score_type>  (25) 
oracle

>  <origin>  (25) 
adg

>  <m_score__min__energy>  (25) 
-9.3000000000000007

>  <m_primary>  (25) 
energy

$$$$
26:0
     RDKit          3D

 59 61  0  0  0  0  0  0  0  0999 V2000
    1.6560   26.8400  -26.6040 C   0  0  0  0  0  0  0  0  0  0  0  0
    0.3670   27.1480  -25.8200 C   0  0  0  0  0  0  0  0  0  0  0  0
   -0.5610   25.9900  -25.5920 N   0  0  0  0  0  0  0  0  0  0  0  0
   -0.2560   25.4750  -24.2280 C   0  0  0  0  0  0  0  0  0  0  0  0
   -0.3170   24.8760  -26.5690 C   0  0  0  0  0  0  0  0  0  0  0  0
   -1.3040   24.8810  -27.7560 C   0  0  0  0  0  0  0  0  0  0  0  0
   -2.7230   24.8030  -27.3270 N   0  0  0  0  0  0  0  0  0  0  0  0
   -3.2940   23.4500  -27.4980 C   0  0  0  0  0  0  0  0  0  0  0  0
   -4.6300   23.5240  -28.2500 C   0  0  0  0  0  0  0  0  0  0  0  0
   -4.9150   24.9060  -28.6740 N   0  0  0  0  0  0  0  0  0  0  0  0
   -6.2320   25.0330  -29.3240 C   0  0  0  0  0  0  0  0  0  0  0  0
   -6.1380   24.9870  -30.8590 C   0  0  0  0  0  0  0  0  0  0  0  0
   -5.8050   23.6250  -31.3130 N   0  0  0  0  0  0  0  0  0  0  0  0
   -4.4180   23.2330  -31.4060 C   0  0  0  0  0  0  0  0  0  0  0  0
   -3.5010   23.9930  -30.9900 O   0  0  0  0  0  0  0  0  0  0  0  0
   -4.0540   21.9270  -32.0390 C   0  0  0  0  0  0  0  0  0  0  0  0
   -5.0250   20.8410  -31.5840 C   0  0  0  0  0  0  0  0  0  0  0  0
   -6.4570   21.2710  -31.7710 C   0  0  0  0  0  0  0  0  0  0  0  0
   -7.4380   20.3000  -32.0270 C   0  0  0  0  0  0  0  0  0  0  0  0
   -8.7800   20.6620  -32.1300 C   0  0  0  0  0  0  0  0  0  0  0  0
   -9.1590   21.9920  -31.9610 C   0  0  0  0  0  0  0  0  0  0  0  0
   -8.1970   22.9680  -31.6880 C   0  0  0  0  0  0  0  0  0  0  0  0
   -6.8300   22.6280  -31.5890 C   0  0  0  0  0  0  0  0  0  0  0  0
   -2.9560   25.3100  -25.9550 C   0  0  0  0  0  0  0  0  0  0  0  0
   -1.9860   26.4510  -25.6070 C   0  0  0  0  0  0  0  0  0  0  0  0
    2.4765   26.6439  -25.8981 H   0  0  0  0  0  0  0  0  0  0  0  0
    1.4974   25.9545  -27.2370 H   0  0  0  0  0  0  0  0  0  0  0  0
    1.9149   27.7016  -27.2370 H   0  0  0  0  0  0  0  0  0  0  0  0
    0.6588   27.5435  -24.8359 H   0  0  0  0  0  0  0  0  0  0  0  0
   -0.1953   27.8583  -26.4439 H   0  0  0  0  0  0  0  0  0  0  0  0
   -0.6649   26.1654  -23.4755 H   0  0  0  0  0  0  0  0  0  0  0  0
   -0.7117   24.4820  -24.1006 H   0  0  0  0  0  0  0  0  0  0  0  0
    0.8338   25.3973  -24.1006 H   0  0  0  0  0  0  0  0  0  0  0  0
    0.7050   24.9748  -26.9637 H   0  0  0  0  0  0  0  0  0  0  0  0
   -0.4613   23.9292  -26.0279 H   0  0  0  0  0  0  0  0  0  0  0  0
   -1.1607   25.8097  -28.3279 H   0  0  0  0  0  0  0  0  0  0  0  0
   -1.0934   23.9892  -28.3645 H   0  0  0  0  0  0  0  0  0  0  0  0
   -2.5896   22.8291  -28.0709 H   0  0  0  0  0  0  0  0  0  0  0  0
   -3.4671   23.0078  -26.5058 H   0  0  0  0  0  0  0  0  0  0  0  0
   -4.5803   22.8771  -29.1383 H   0  0  0  0  0  0  0  0  0  0  0  0
   -5.4329   23.1886  -27.5770 H   0  0  0  0  0  0  0  0  0  0  0  0
   -4.1650   25.2440  -29.3210 H   0  0  0  0  0  0  0  0  0  0  0  0
   -4.9170   25.5210  -27.8270 H   0  0  0  0  0  0  0  0  0  0  0  0
   -6.8740   24.2066  -28.9849 H   0  0  0  0  0  0  0  0  0  0  0  0
   -6.6502   26.0110  -29.0438 H   0  0  0  0  0  0  0  0  0  0  0  0
   -7.1045   25.2866  -31.2904 H   0  0  0  0  0  0  0  0  0  0  0  0
   -5.3467   25.6763  -31.1887 H   0  0  0  0  0  0  0  0  0  0  0  0
   -4.1038   22.0256  -33.1334 H   0  0  0  0  0  0  0  0  0  0  0  0
   -3.0332   21.6500  -31.7368 H   0  0  0  0  0  0  0  0  0  0  0  0
   -4.8449   19.9299  -32.1735 H   0  0  0  0  0  0  0  0  0  0  0  0
   -4.8569   20.6525  -30.5134 H   0  0  0  0  0  0  0  0  0  0  0  0
   -7.1456   19.2464  -32.1471 H   0  0  0  0  0  0  0  0  0  0  0  0
   -9.5406   19.8969  -32.3449 H   0  0  0  0  0  0  0  0  0  0  0  0
  -10.2189   22.2747  -32.0427 H   0  0  0  0  0  0  0  0  0  0  0  0
   -8.5083   24.0138  -31.5485 H   0  0  0  0  0  0  0  0  0  0  0  0
   -3.9883   25.6828  -25.8816 H   0  0  0  0  0  0  0  0  0  0  0  0
   -2.7881   24.4846  -25.2475 H   0  0  0  0  0  0  0  0  0  0  0  0
   -2.0933   27.2494  -26.3561 H   0  0  0  0  0  0  0  0  0  0  0  0
   -2.2364   26.8149  -24.5996 H   0  0  0  0  0  0  0  0  0  0  0  0
  1  2  1  0
  2  3  1  0
  3  4  1  0
  3  5  1  0
  5  6  1  0
  6  7  1  0
  7  8  1  0
  8  9  1  0
  9 10  1  0
 10 11  1  0
 11 12  1  0
 12 13  1  0
 13 14  1  0
 14 15  2  0
 14 16  1  0
 16 17  1  0
 17 18  1  0
 18 19  2  0
 19 20  1  0
 20 21  2  0
 21 22  1  0
 22 23  2  0
  7 24  1  0
 24 25  1  0
 25  3  1  0
 23 13  1  0
 23 18  1  0
  1 26  1  0
  1 27  1  0
  1 28  1  0
  2 29  1  0
  2 30  1  0
  4 31  1  0
  4 32  1  0
  4 33  1  0
  5 34  1  0
  5 35  1  0
  6 36  1  0
  6 37  1  0
  8 38  1  0
  8 39  1  0
  9 40  1  0
  9 41  1  0
 10 42  1  0
 10 43  1  0
 11 44  1  0
 11 45  1  0
 12 46  1  0
 12 47  1  0
 16 48  1  0
 16 49  1  0
 17 50  1  0
 17 51  1  0
 19 52  1  0
 20 53  1  0
 21 54  1  0
 22 55  1  0
 24 56  1  0
 24 57  1  0
 25 58  1  0
 25 59  1  0
M  CHG  2   3   1  10   1
M  END
>  <UniqueID>  (26) 
26

>  <SMILES>  (26) 
CC[N+]1(C)CCN(CC[NH2+]CCN2C(=O)CCc3ccccc32)CC1

>  <Energy>  (26) 
82.0306306100635

>  <Genealogy>  (26) 
CC[N+]1(C)CCN(CC[NH2+]CCN2C(=O)CCc3ccccc32)CC1 (protonated)
CC[N+]1(C)CCN(CC[NH2+]CCN2C(=O)CCc3ccccc32)CC1 (3D coordinates assigned)
CC[N+]1(C)CCN(CC[NH2+]CCN2C(=O)CCc3ccccc32)CC1 (nonaromatic ring conformer: 82.0306306100635 kcal/mol)

>  <smiles>  (26) 
CC[N+]1(C)CCN(CCNCCN2C(=O)CCc3ccccc32)CC1

>  <score_type>  (26) 
oracle

>  <origin>  (26) 
adg

>  <m_score__min__energy>  (26) 
-6.9900000000000002

>  <m_primary>  (26) 
energy

$$$$
