0:0
     RDKit          3D

 30 32  0  0  0  0  0  0  0  0999 V2000
   -4.6070   22.7090  -33.5290 H   0  0  0  0  0  0  0  0  0  0  0  0
   -4.6820   21.8760  -32.9100 N   0  0  0  0  0  0  0  0  0  0  0  0
   -5.6060   20.9560  -32.9320 C   0  0  0  0  0  0  0  0  0  0  0  0
   -6.9480   21.2110  -32.5220 C   0  0  0  0  0  0  0  0  0  0  0  0
   -7.8590   20.1160  -32.4710 C   0  0  0  0  0  0  0  0  0  0  0  0
   -7.4790   18.8850  -32.9210 N   0  0  0  0  0  0  0  0  0  0  0  0
   -8.1840   18.1150  -32.8920 H   0  0  0  0  0  0  0  0  0  0  0  0
   -6.2180   18.6260  -33.3800 C   0  0  0  0  0  0  0  0  0  0  0  0
   -5.8590   17.3270  -33.8410 C   0  0  0  0  0  0  0  0  0  0  0  0
   -6.8480   16.1900  -33.8720 C   0  0  0  0  0  0  0  0  0  0  0  0
   -7.1026   15.8973  -32.8427 H   0  0  0  0  0  0  0  0  0  0  0  0
   -7.7592   16.5109  -34.3980 H   0  0  0  0  0  0  0  0  0  0  0  0
   -6.4039   15.3320  -34.3980 H   0  0  0  0  0  0  0  0  0  0  0  0
   -4.5480   17.0870  -34.2790 C   0  0  0  0  0  0  0  0  0  0  0  0
   -4.2680   16.0845  -34.6348 H   0  0  0  0  0  0  0  0  0  0  0  0
   -3.5990   18.1030  -34.2680 C   0  0  0  0  0  0  0  0  0  0  0  0
   -2.5744   17.8992  -34.6124 H   0  0  0  0  0  0  0  0  0  0  0  0
   -3.9400   19.3770  -33.8230 C   0  0  0  0  0  0  0  0  0  0  0  0
   -3.1805   20.1727  -33.8186 H   0  0  0  0  0  0  0  0  0  0  0  0
   -5.2500   19.6600  -33.3770 C   0  0  0  0  0  0  0  0  0  0  0  0
   -9.1000   20.2690  -31.9630 C   0  0  0  0  0  0  0  0  0  0  0  0
   -9.8205   19.4416  -32.0430 H   0  0  0  0  0  0  0  0  0  0  0  0
   -9.5170   21.5430  -31.2920 C   0  0  0  0  0  0  0  0  0  0  0  0
  -10.6097   21.6490  -31.3607 H   0  0  0  0  0  0  0  0  0  0  0  0
   -9.2084   21.5105  -30.2367 H   0  0  0  0  0  0  0  0  0  0  0  0
   -8.8520   22.7360  -31.9680 C   0  0  0  0  0  0  0  0  0  0  0  0
   -9.3512   22.9319  -32.9284 H   0  0  0  0  0  0  0  0  0  0  0  0
   -8.9394   23.6118  -31.3082 H   0  0  0  0  0  0  0  0  0  0  0  0
   -7.3940   22.4590  -32.2160 C   0  0  0  0  0  0  0  0  0  0  0  0
   -6.6714   23.2856  -32.1482 H   0  0  0  0  0  0  0  0  0  0  0  0
  1  2  1  0
  2  3  2  0
  3  4  1  0
  4  5  1  0
  5  6  1  0
  6  7  1  0
  6  8  1  0
  8  9  2  0
  9 10  1  0
 10 11  1  0
 10 12  1  0
 10 13  1  0
  9 14  1  0
 14 15  1  0
 14 16  2  0
 16 17  1  0
 16 18  1  0
 18 19  1  0
 18 20  2  0
  5 21  2  0
 21 22  1  0
 21 23  1  0
 23 24  1  0
 23 25  1  0
 23 26  1  0
 26 27  1  0
 26 28  1  0
 26 29  1  0
 29 30  1  0
 20  3  1  0
 29  4  2  0
 20  8  1  0
M  END
>  <UniqueID>  (1) 
1

>  <SMILES>  (1) 
[H]/N=c1\c2c([nH]c3c(C)cccc13)=CCCC=2

>  <Energy>  (1) 
50.93632433092879

>  <Genealogy>  (1) 
[H]/N=c1\c2c([nH]c3c(C)cccc13)=CCCC=2 (cis-trans isomerization)
[H]/N=c1\c2c([nH]c3c(C)cccc13)=CCCC=2 (3D coordinates assigned)
[H]/N=c1\c2c([nH]c3c(C)cccc13)=CCCC=2 (nonaromatic ring conformer: 50.93632433092879 kcal/mol)

>  <smiles>  (1) 
Cc1cccc2c(=N)c3c([nH]c12)=CCCC=3

>  <score_type>  (1) 
oracle

>  <origin>  (1) 
adg

>  <m_score__min__energy>  (1) 
-7.2000000000000002

>  <m_primary>  (1) 
energy

$$$$
1:0
     RDKit          3D

 28 29  0  0  0  0  0  0  0  0999 V2000
   -2.5230   24.5700  -28.9200 C   0  0  0  0  0  0  0  0  0  0  0  0
   -3.8130   24.4240  -29.6600 C   0  0  0  0  0  0  0  0  0  0  0  0
   -3.8390   23.7840  -30.8580 N   0  0  0  0  0  0  0  0  0  0  0  0
   -4.9850   23.6070  -31.5160 N   0  0  0  0  0  0  0  0  0  0  0  0
   -6.1620   24.0550  -31.0100 C   0  0  0  0  0  0  0  0  0  0  0  0
   -7.4460   23.7980  -31.7440 C   0  0  0  0  0  0  0  0  0  0  0  0
   -7.3590   22.5730  -32.5560 N   0  0  0  0  0  0  0  0  0  0  0  0
   -8.1010   21.4470  -31.9650 C   0  0  0  0  0  0  0  0  0  0  0  0
   -7.5660   20.1340  -32.4610 C   0  0  0  0  0  0  0  0  0  0  0  0
   -6.5600   20.0360  -33.4360 C   0  0  0  0  0  0  0  0  0  0  0  0
   -6.2420   18.7280  -33.7720 C   0  0  0  0  0  0  0  0  0  0  0  0
   -7.2060   17.7030  -32.8520 S   0  0  0  0  0  0  0  0  0  0  0  0
   -8.0330   18.9020  -32.0170 C   0  0  0  0  0  0  0  0  0  0  0  0
   -6.1510   24.7180  -29.7800 C   0  0  0  0  0  0  0  0  0  0  0  0
   -4.9750   24.8830  -29.1210 N   0  0  0  0  0  0  0  0  0  0  0  0
   -2.7168   24.5481  -27.8374 H   0  0  0  0  0  0  0  0  0  0  0  0
   -1.8503   23.7423  -29.1889 H   0  0  0  0  0  0  0  0  0  0  0  0
   -2.0523   25.5271  -29.1889 H   0  0  0  0  0  0  0  0  0  0  0  0
   -8.2609   23.6871  -31.0135 H   0  0  0  0  0  0  0  0  0  0  0  0
   -7.6397   24.6478  -32.4151 H   0  0  0  0  0  0  0  0  0  0  0  0
   -6.3500   22.2970  -32.5870 H   0  0  0  0  0  0  0  0  0  0  0  0
   -8.0024   21.4857  -30.8701 H   0  0  0  0  0  0  0  0  0  0  0  0
   -9.1579   21.5296  -32.2585 H   0  0  0  0  0  0  0  0  0  0  0  0
   -6.0716   20.9112  -33.8892 H   0  0  0  0  0  0  0  0  0  0  0  0
   -5.4900   18.4159  -34.5116 H   0  0  0  0  0  0  0  0  0  0  0  0
   -8.8079   18.7411  -31.2531 H   0  0  0  0  0  0  0  0  0  0  0  0
   -7.0870   25.1030  -29.3491 H   0  0  0  0  0  0  0  0  0  0  0  0
   -4.9730   25.3620  -28.1920 H   0  0  0  0  0  0  0  0  0  0  0  0
  1  2  1  0
  2  3  2  0
  3  4  1  0
  4  5  2  0
  5  6  1  0
  6  7  1  0
  7  8  1  0
  8  9  1  0
  9 10  1  0
 10 11  2  0
 11 12  1  0
 12 13  1  0
  5 14  1  0
 14 15  2  0
 15  2  1  0
 13  9  2  0
  1 16  1  0
  1 17  1  0
  1 18  1  0
  6 19  1  0
  6 20  1  0
  7 21  1  0
  8 22  1  0
  8 23  1  0
 10 24  1  0
 11 25  1  0
 13 26  1  0
 14 27  1  0
 15 28  1  0
M  CHG  1  15   1
M  END
>  <UniqueID>  (2) 
2

>  <SMILES>  (2) 
Cc1nnc(CNCc2ccsc2)c[nH+]1

>  <Energy>  (2) 
50.19505377677712

>  <Genealogy>  (2) 
Cc1nnc(CNCc2ccsc2)c[nH+]1 (protonated)
Cc1nnc(CNCc2ccsc2)c[nH+]1 (3D coordinates assigned)
Cc1nnc(CNCc2ccsc2)c[nH+]1 (optimized conformer: 50.19505377677712 kcal/mol)

>  <smiles>  (2) 
Cc1ncc(CNCc2ccsc2)nn1

>  <score_type>  (2) 
oracle

>  <origin>  (2) 
adg

>  <m_score__min__energy>  (2) 
-5.4800000000000004

>  <m_primary>  (2) 
energy

$$$$
2:0
     RDKit          3D

 37 39  0  0  1  0  0  0  0  0999 V2000
   -2.8180   17.2260  -33.2930 C   0  0  0  0  0  0  0  0  0  0  0  0
   -2.8260   18.5200  -33.8130 O   0  0  0  0  0  0  0  0  0  0  0  0
   -3.1810   19.6740  -33.1280 C   0  0  0  0  0  0  0  0  0  0  0  0
   -3.1250   20.8820  -33.8130 C   0  0  0  0  0  0  0  0  0  0  0  0
   -3.4650   22.0610  -33.1800 C   0  0  0  0  0  0  0  0  0  0  0  0
   -3.8690   22.0740  -31.8610 C   0  0  0  0  0  0  0  0  0  0  0  0
   -4.2350   23.3120  -31.1680 C   0  0  0  0  0  0  0  0  0  0  0  0
   -3.3040   24.2150  -30.7560 N   0  0  0  0  0  0  0  0  0  0  0  0
   -3.9570   25.2140  -30.1690 N   0  0  0  0  0  0  0  0  0  0  0  0
   -5.2670   24.9260  -30.2230 C   0  0  0  0  0  0  0  0  0  0  0  0
   -6.4500   25.8750  -29.6230 S   0  0  0  0  0  0  0  0  0  0  0  0
   -5.4700   23.7550  -30.8360 N   0  0  0  0  0  0  0  0  0  0  0  0
   -6.6340   23.0620  -31.1180 N   0  0  0  0  0  0  0  0  0  0  0  0
   -6.8590   22.3490  -32.1550 C   0  0  0  0  0  0  0  0  0  0  0  0
   -7.3380   20.9710  -32.1140 C   0  0  0  0  0  0  0  0  0  0  0  0
   -6.7270   19.9730  -32.8690 C   0  0  0  0  0  0  0  0  0  0  0  0
   -7.1920   18.6750  -32.8190 C   0  0  0  0  0  0  0  0  0  0  0  0
   -6.3250   17.3400  -33.8690 Br  0  0  0  0  0  0  0  0  0  0  0  0
   -8.2700   18.3860  -32.0110 C   0  0  0  0  0  0  0  0  0  0  0  0
   -8.9080   19.3540  -31.2420 C   0  0  0  0  0  0  0  0  0  0  0  0
   -8.4180   20.6400  -31.3150 C   0  0  0  0  0  0  0  0  0  0  0  0
   -9.0440   21.6220  -30.5520 O   0  0  0  0  0  0  0  0  0  0  0  0
   -3.9280   20.8770  -31.1710 C   0  0  0  0  0  0  0  0  0  0  0  0
   -3.5830   19.6800  -31.8080 C   0  0  0  0  0  0  0  0  0  0  0  0
   -2.8183   17.2725  -32.1940 H   0  0  0  0  0  0  0  0  0  0  0  0
   -3.7128   16.6869  -33.6374 H   0  0  0  0  0  0  0  0  0  0  0  0
   -1.9166   16.6980  -33.6374 H   0  0  0  0  0  0  0  0  0  0  0  0
   -2.8078   20.8989  -34.8661 H   0  0  0  0  0  0  0  0  0  0  0  0
   -3.4128   23.0076  -33.7378 H   0  0  0  0  0  0  0  0  0  0  0  0
   -3.4880   26.0530  -29.7560 H   0  0  0  0  0  0  0  0  0  0  0  0
   -6.6802   22.8030  -33.1409 H   0  0  0  0  0  0  0  0  0  0  0  0
   -5.8679   20.2212  -33.5095 H   0  0  0  0  0  0  0  0  0  0  0  0
   -8.6401   17.3509  -31.9725 H   0  0  0  0  0  0  0  0  0  0  0  0
   -9.7673   19.1035  -30.6026 H   0  0  0  0  0  0  0  0  0  0  0  0
   -8.5970   22.5020  -30.3180 H   0  0  0  0  0  0  0  0  0  0  0  0
   -4.2471   20.8659  -30.1184 H   0  0  0  0  0  0  0  0  0  0  0  0
   -3.6328   18.7332  -31.2503 H   0  0  0  0  0  0  0  0  0  0  0  0
  1  2  1  0
  2  3  1  0
  3  4  2  0
  4  5  1  0
  5  6  2  0
  6  7  1  0
  7  8  2  0
  8  9  1  0
  9 10  1  0
 10 11  2  0
 10 12  1  0
 12 13  1  0
 13 14  2  0
 14 15  1  0
 15 16  2  0
 16 17  1  0
 17 18  1  0
 17 19  2  0
 19 20  1  0
 20 21  2  0
 21 22  1  0
  6 23  1  0
 23 24  2  0
 24  3  1  0
 12  7  1  0
 21 15  1  0
  1 25  1  0
  1 26  1  0
  1 27  1  0
  4 28  1  0
  5 29  1  0
  9 30  1  0
 14 31  1  0
 16 32  1  0
 19 33  1  0
 20 34  1  0
 22 35  1  0
 23 36  1  0
 24 37  1  0
M  END
>  <smiles>  (3) 
COc1ccc(-c2n[nH]c(=S)n2N=Cc2cc(Br)ccc2O)cc1

>  <score_type>  (3) 
oracle

>  <origin>  (3) 
adg

>  <m_score__min__energy>  (3) 
-9.1799999999999997

>  <m_primary>  (3) 
energy

$$$$
3:0
     RDKit          3D

 30 32  0  0  0  0  0  0  0  0999 V2000
   -3.8570   24.6880  -30.8050 O   0  0  0  0  0  0  0  0  0  0  0  0
   -5.0590   25.0210  -30.7300 N   0  0  0  0  0  0  0  0  0  0  0  0
   -5.3660   26.3380  -30.4780 O   0  0  0  0  0  0  0  0  0  0  0  0
   -6.1040   24.0470  -30.9070 C   0  0  0  0  0  0  0  0  0  0  0  0
   -6.6550   23.8090  -32.1800 C   0  0  0  0  0  0  0  0  0  0  0  0
   -7.6770   22.8680  -32.3460 C   0  0  0  0  0  0  0  0  0  0  0  0
   -8.1630   22.1470  -31.2450 C   0  0  0  0  0  0  0  0  0  0  0  0
   -9.3030   21.1800  -31.4190 C   0  0  0  0  0  0  0  0  0  0  0  0
   -8.7190   19.4530  -31.2920 S   0  0  0  0  0  0  0  0  0  0  0  0
   -7.2100   19.7450  -32.2110 C   0  0  0  0  0  0  0  0  0  0  0  0
   -7.0750   19.5360  -33.5320 N   0  0  0  0  0  0  0  0  0  0  0  0
   -5.8360   19.8930  -33.8370 N   0  0  0  0  0  0  0  0  0  0  0  0
   -5.2700   20.3060  -32.6870 C   0  0  0  0  0  0  0  0  0  0  0  0
   -3.9010   20.8110  -32.5780 C   0  0  0  0  0  0  0  0  0  0  0  0
   -2.8510   20.4790  -33.4110 C   0  0  0  0  0  0  0  0  0  0  0  0
   -1.7650   21.1790  -32.9310 C   0  0  0  0  0  0  0  0  0  0  0  0
   -2.2190   21.8920  -31.8400 C   0  0  0  0  0  0  0  0  0  0  0  0
   -3.4970   21.6520  -31.6550 O   0  0  0  0  0  0  0  0  0  0  0  0
   -6.1060   20.2120  -31.6820 O   0  0  0  0  0  0  0  0  0  0  0  0
   -7.6120   22.3800  -29.9750 C   0  0  0  0  0  0  0  0  0  0  0  0
   -6.5940   23.3220  -29.8070 C   0  0  0  0  0  0  0  0  0  0  0  0
   -6.2795   24.3667  -33.0506 H   0  0  0  0  0  0  0  0  0  0  0  0
   -8.1018   22.6925  -33.3454 H   0  0  0  0  0  0  0  0  0  0  0  0
  -10.0542   21.3645  -30.6369 H   0  0  0  0  0  0  0  0  0  0  0  0
   -9.7417   21.3300  -32.4165 H   0  0  0  0  0  0  0  0  0  0  0  0
   -2.8760   19.7992  -34.2754 H   0  0  0  0  0  0  0  0  0  0  0  0
   -0.7423   21.1710  -33.3360 H   0  0  0  0  0  0  0  0  0  0  0  0
   -1.6037   22.5601  -31.2194 H   0  0  0  0  0  0  0  0  0  0  0  0
   -7.9843   21.8171  -29.1063 H   0  0  0  0  0  0  0  0  0  0  0  0
   -6.1727   23.4977  -28.8062 H   0  0  0  0  0  0  0  0  0  0  0  0
  1  2  2  0
  2  3  1  0
  2  4  1  0
  4  5  2  0
  5  6  1  0
  6  7  2  0
  7  8  1  0
  8  9  1  0
  9 10  1  0
 10 11  2  0
 11 12  1  0
 12 13  2  0
 13 14  1  0
 14 15  2  0
 15 16  1  0
 16 17  2  0
 17 18  1  0
 13 19  1  0
  7 20  1  0
 20 21  2  0
 21  4  1  0
 19 10  1  0
 18 14  1  0
  5 22  1  0
  6 23  1  0
  8 24  1  0
  8 25  1  0
 15 26  1  0
 16 27  1  0
 17 28  1  0
 20 29  1  0
 21 30  1  0
M  CHG  2   2   1   3  -1
M  END
>  <UniqueID>  (4) 
3

>  <SMILES>  (4) 
O=[N+]([O-])c1ccc(CSc2nnc(-c3ccco3)o2)cc1

>  <Energy>  (4) 
87.95745715165948

>  <Genealogy>  (4) 
O=[N+]([O-])c1ccc(CSc2nnc(-c3ccco3)o2)cc1 (3D coordinates assigned)
O=[N+]([O-])c1ccc(CSc2nnc(-c3ccco3)o2)cc1 (optimized conformer: 87.95745715165948 kcal/mol)

>  <smiles>  (4) 
O=[N+]([O-])c1ccc(CSc2nnc(-c3ccco3)o2)cc1

>  <score_type>  (4) 
oracle

>  <origin>  (4) 
adg

>  <m_score__min__energy>  (4) 
-8.1999999999999993

>  <m_primary>  (4) 
energy

$$$$
4:0
     RDKit          3D

 30 30  0  0  0  0  0  0  0  0999 V2000
   -6.1910   25.4980  -29.4070 C   0  0  0  0  0  0  0  0  0  0  0  0
   -5.3760   25.5760  -30.6930 C   0  0  0  0  0  0  0  0  0  0  0  0
   -4.3020   24.5710  -30.6770 N   0  0  0  0  0  0  0  0  0  0  0  0
   -4.7370   23.2580  -31.1850 C   0  0  0  0  0  0  0  0  0  0  0  0
   -6.0940   23.3080  -31.9130 C   0  0  0  0  0  0  0  0  0  0  0  0
   -6.5530   21.9690  -32.2930 N   0  0  0  0  0  0  0  0  0  0  0  0
   -5.8940   21.1760  -33.1250 N   0  0  0  0  0  0  0  0  0  0  0  0
   -6.5580   20.0100  -33.2220 C   0  0  0  0  0  0  0  0  0  0  0  0
   -6.0740   18.8280  -33.9940 C   0  0  0  0  0  0  0  0  0  0  0  0
   -7.6740   20.0470  -32.4070 C   0  0  0  0  0  0  0  0  0  0  0  0
   -7.6490   21.3130  -31.8460 C   0  0  0  0  0  0  0  0  0  0  0  0
   -8.6220   21.8240  -30.8290 C   0  0  0  0  0  0  0  0  0  0  0  0
   -5.5162   25.5626  -28.5407 H   0  0  0  0  0  0  0  0  0  0  0  0
   -6.9080   26.3316  -29.3762 H   0  0  0  0  0  0  0  0  0  0  0  0
   -6.7369   24.5435  -29.3762 H   0  0  0  0  0  0  0  0  0  0  0  0
   -6.0358   25.3887  -31.5530 H   0  0  0  0  0  0  0  0  0  0  0  0
   -4.9284   26.5776  -30.7734 H   0  0  0  0  0  0  0  0  0  0  0  0
   -3.4870   24.9220  -31.2290 H   0  0  0  0  0  0  0  0  0  0  0  0
   -3.9769   22.8857  -31.8876 H   0  0  0  0  0  0  0  0  0  0  0  0
   -4.8566   22.5945  -30.3158 H   0  0  0  0  0  0  0  0  0  0  0  0
   -6.8400   23.7650  -31.2462 H   0  0  0  0  0  0  0  0  0  0  0  0
   -5.9701   23.9021  -32.8305 H   0  0  0  0  0  0  0  0  0  0  0  0
   -4.9950   21.4200  -33.5990 H   0  0  0  0  0  0  0  0  0  0  0  0
   -5.7518   18.0412  -33.2961 H   0  0  0  0  0  0  0  0  0  0  0  0
   -6.8879   18.4455  -34.6274 H   0  0  0  0  0  0  0  0  0  0  0  0
   -5.2256   19.1262  -34.6274 H   0  0  0  0  0  0  0  0  0  0  0  0
   -8.4146   19.2507  -32.2415 H   0  0  0  0  0  0  0  0  0  0  0  0
   -8.2366   21.6216  -29.8188 H   0  0  0  0  0  0  0  0  0  0  0  0
   -8.7545   22.9080  -30.9606 H   0  0  0  0  0  0  0  0  0  0  0  0
   -9.5897   21.3177  -30.9606 H   0  0  0  0  0  0  0  0  0  0  0  0
  1  2  1  0
  2  3  1  0
  3  4  1  0
  4  5  1  0
  5  6  1  0
  6  7  1  0
  7  8  2  0
  8  9  1  0
  8 10  1  0
 10 11  2  0
 11 12  1  0
 11  6  1  0
  1 13  1  0
  1 14  1  0
  1 15  1  0
  2 16  1  0
  2 17  1  0
  3 18  1  0
  4 19  1  0
  4 20  1  0
  5 21  1  0
  5 22  1  0
  7 23  1  0
  9 24  1  0
  9 25  1  0
  9 26  1  0
 10 27  1  0
 12 28  1  0
 12 29  1  0
 12 30  1  0
M  CHG  1   7   1
M  END
>  <UniqueID>  (5) 
4

>  <SMILES>  (5) 
CCNCCn1[nH+]c(C)cc1C

>  <Energy>  (5) 
52.16307902503154

>  <Genealogy>  (5) 
CCNCCn1[nH+]c(C)cc1C (protonated)
CCNCCn1[nH+]c(C)cc1C (3D coordinates assigned)
CCNCCn1[nH+]c(C)cc1C (optimized conformer: 52.16307902503154 kcal/mol)

>  <smiles>  (5) 
CCNCCn1nc(C)cc1C

>  <score_type>  (5) 
oracle

>  <origin>  (5) 
adg

>  <m_score__min__energy>  (5) 
-5.3499999999999996

>  <m_primary>  (5) 
energy

$$$$
5:0
     RDKit          3D

 18 18  0  0  0  0  0  0  0  0999 V2000
    0.7710   26.7210  -22.9790 N   0  0  0  0  0  0  0  0  0  0  0  0
   -0.6410   26.8270  -23.3450 C   0  0  0  0  0  0  0  0  0  0  0  0
   -0.8260   26.5950  -24.8220 C   0  0  0  0  0  0  0  0  0  0  0  0
   -1.6130   25.5240  -25.2780 C   0  0  0  0  0  0  0  0  0  0  0  0
   -1.8110   25.3300  -26.6490 C   0  0  0  0  0  0  0  0  0  0  0  0
   -1.2350   26.2070  -27.5720 C   0  0  0  0  0  0  0  0  0  0  0  0
   -1.4290   26.0170  -28.9000 F   0  0  0  0  0  0  0  0  0  0  0  0
   -0.4630   27.2830  -27.1250 C   0  0  0  0  0  0  0  0  0  0  0  0
   -0.2620   27.4810  -25.7550 C   0  0  0  0  0  0  0  0  0  0  0  0
    1.3650   27.2030  -23.6940 H   0  0  0  0  0  0  0  0  0  0  0  0
    0.9190   27.1790  -22.0520 H   0  0  0  0  0  0  0  0  0  0  0  0
    1.0480   25.7150  -22.9080 H   0  0  0  0  0  0  0  0  0  0  0  0
   -1.2166   26.0744  -22.7862 H   0  0  0  0  0  0  0  0  0  0  0  0
   -0.9958   27.8385  -23.0983 H   0  0  0  0  0  0  0  0  0  0  0  0
   -2.0748   24.8360  -24.5546 H   0  0  0  0  0  0  0  0  0  0  0  0
   -2.4213   24.4854  -27.0013 H   0  0  0  0  0  0  0  0  0  0  0  0
   -0.0128   27.9752  -27.8517 H   0  0  0  0  0  0  0  0  0  0  0  0
    0.3398   28.3335  -25.4069 H   0  0  0  0  0  0  0  0  0  0  0  0
  1  2  1  0
  2  3  1  0
  3  4  2  0
  4  5  1  0
  5  6  2  0
  6  7  1  0
  6  8  1  0
  8  9  2  0
  9  3  1  0
  1 10  1  0
  1 11  1  0
  1 12  1  0
  2 13  1  0
  2 14  1  0
  4 15  1  0
  5 16  1  0
  8 17  1  0
  9 18  1  0
M  CHG  1   1   1
M  END
>  <UniqueID>  (6) 
5

>  <SMILES>  (6) 
[NH3+]Cc1ccc(F)cc1

>  <Energy>  (6) 
14.565751707892055

>  <Genealogy>  (6) 
[NH3+]Cc1ccc(F)cc1 (protonated)
[NH3+]Cc1ccc(F)cc1 (3D coordinates assigned)
[NH3+]Cc1ccc(F)cc1 (optimized conformer: 14.565751707892055 kcal/mol)

>  <smiles>  (6) 
NCc1ccc(F)cc1

>  <score_type>  (6) 
oracle

>  <origin>  (6) 
adg

>  <m_score__min__energy>  (6) 
-4.6299999999999999

>  <m_primary>  (6) 
energy

$$$$
6:0
     RDKit          3D

 38 40  0  0  0  0  0  0  0  0999 V2000
   -1.2380   26.8010  -24.4620 C   0  0  0  0  0  0  0  0  0  0  0  0
   -0.8930   25.3540  -24.7950 C   0  0  0  0  0  0  0  0  0  0  0  0
   -0.9080   25.1490  -26.2430 N   0  0  0  0  0  0  0  0  0  0  0  0
    0.1620   25.1510  -27.0760 C   0  0  0  0  0  0  0  0  0  0  0  0
   -0.1620   24.8620  -28.3640 N   0  0  0  0  0  0  0  0  0  0  0  0
   -1.4930   24.6670  -28.3050 C   0  0  0  0  0  0  0  0  0  0  0  0
   -2.3460   24.3270  -29.3520 C   0  0  0  0  0  0  0  0  0  0  0  0
   -3.7210   24.1430  -29.0630 C   0  0  0  0  0  0  0  0  0  0  0  0
   -4.6640   23.7860  -30.1500 C   0  0  0  0  0  0  0  0  0  0  0  0
   -4.7900   24.5590  -31.1390 O   0  0  0  0  0  0  0  0  0  0  0  0
   -5.3970   22.5500  -30.1140 N   0  0  0  0  0  0  0  0  0  0  0  0
   -6.5960   22.3100  -30.8720 C   0  0  0  0  0  0  0  0  0  0  0  0
   -7.4600   23.3610  -31.2260 C   0  0  0  0  0  0  0  0  0  0  0  0
   -8.6220   23.1010  -31.9550 C   0  0  0  0  0  0  0  0  0  0  0  0
   -8.9450   21.7930  -32.3210 C   0  0  0  0  0  0  0  0  0  0  0  0
   -8.1200   20.7230  -31.9350 C   0  0  0  0  0  0  0  0  0  0  0  0
   -8.4460   19.3140  -32.3610 C   0  0  0  0  0  0  0  0  0  0  0  0
   -9.6230   19.2810  -33.0890 F   0  0  0  0  0  0  0  0  0  0  0  0
   -7.4180   18.8270  -33.1460 F   0  0  0  0  0  0  0  0  0  0  0  0
   -8.5990   18.4940  -31.2560 F   0  0  0  0  0  0  0  0  0  0  0  0
   -6.9370   20.9950  -31.2230 C   0  0  0  0  0  0  0  0  0  0  0  0
   -4.1810   24.3210  -27.7280 C   0  0  0  0  0  0  0  0  0  0  0  0
   -3.2890   24.6650  -26.6970 C   0  0  0  0  0  0  0  0  0  0  0  0
   -1.9460   24.8310  -27.0310 C   0  0  0  0  0  0  0  0  0  0  0  0
   -1.2684   26.9287  -23.3699 H   0  0  0  0  0  0  0  0  0  0  0  0
   -0.4736   27.4675  -24.8879 H   0  0  0  0  0  0  0  0  0  0  0  0
   -2.2209   27.0509  -24.8879 H   0  0  0  0  0  0  0  0  0  0  0  0
    0.1092   25.1211  -24.4059 H   0  0  0  0  0  0  0  0  0  0  0  0
   -1.6400   24.6924  -24.3322 H   0  0  0  0  0  0  0  0  0  0  0  0
    1.1884   25.3649  -26.7430 H   0  0  0  0  0  0  0  0  0  0  0  0
   -1.9627   24.2046  -30.3758 H   0  0  0  0  0  0  0  0  0  0  0  0
   -4.9760   21.7450  -29.5990 H   0  0  0  0  0  0  0  0  0  0  0  0
   -7.2196   24.3921  -30.9275 H   0  0  0  0  0  0  0  0  0  0  0  0
   -9.2856   23.9300  -32.2421 H   0  0  0  0  0  0  0  0  0  0  0  0
   -9.8504   21.5990  -32.9149 H   0  0  0  0  0  0  0  0  0  0  0  0
   -6.2716   20.1667  -30.9382 H   0  0  0  0  0  0  0  0  0  0  0  0
   -5.2488   24.1877  -27.4997 H   0  0  0  0  0  0  0  0  0  0  0  0
   -3.6389   24.7985  -25.6627 H   0  0  0  0  0  0  0  0  0  0  0  0
  1  2  1  0
  2  3  1  0
  3  4  1  0
  4  5  2  0
  5  6  1  0
  6  7  2  0
  7  8  1  0
  8  9  1  0
  9 10  2  0
  9 11  1  0
 11 12  1  0
 12 13  2  0
 13 14  1  0
 14 15  2  0
 15 16  1  0
 16 17  1  0
 17 18  1  0
 17 19  1  0
 17 20  1  0
 16 21  2  0
  8 22  2  0
 22 23  1  0
 23 24  2  0
 24  3  1  0
 24  6  1  0
 21 12  1  0
  1 25  1  0
  1 26  1  0
  1 27  1  0
  2 28  1  0
  2 29  1  0
  4 30  1  0
  7 31  1  0
 11 32  1  0
 13 33  1  0
 14 34  1  0
 15 35  1  0
 21 36  1  0
 22 37  1  0
 23 38  1  0
M  END
>  <UniqueID>  (7) 
6

>  <SMILES>  (7) 
CCn1cnc2cc(C(=O)Nc3cccc(C(F)(F)F)c3)ccc21

>  <Energy>  (7) 
80.15743322422944

>  <Genealogy>  (7) 
CCn1cnc2cc(C(=O)Nc3cccc(C(F)(F)F)c3)ccc21 (3D coordinates assigned)
CCn1cnc2cc(C(=O)Nc3cccc(C(F)(F)F)c3)ccc21 (optimized conformer: 80.15743322422944 kcal/mol)

>  <smiles>  (7) 
CCn1cnc2cc(C(=O)Nc3cccc(C(F)(F)F)c3)ccc21

>  <score_type>  (7) 
oracle

>  <origin>  (7) 
adg

>  <m_score__min__energy>  (7) 
-7.7400000000000002

>  <m_primary>  (7) 
energy

$$$$
7:0
     RDKit          3D

 24 26  0  0  0  0  0  0  0  0999 V2000
   -5.3600   17.8590  -34.9660 Cl  0  0  0  0  0  0  0  0  0  0  0  0
   -6.4020   18.4380  -33.6790 C   0  0  0  0  0  0  0  0  0  0  0  0
   -7.2390   17.5460  -33.0030 C   0  0  0  0  0  0  0  0  0  0  0  0
   -8.0760   18.0070  -31.9840 C   0  0  0  0  0  0  0  0  0  0  0  0
   -8.0730   19.3610  -31.6330 C   0  0  0  0  0  0  0  0  0  0  0  0
   -7.2220   20.2620  -32.2940 C   0  0  0  0  0  0  0  0  0  0  0  0
   -7.2240   21.6990  -31.9450 C   0  0  0  0  0  0  0  0  0  0  0  0
   -8.3330   22.5320  -31.9300 C   0  0  0  0  0  0  0  0  0  0  0  0
   -7.9710   23.7790  -31.5440 N   0  0  0  0  0  0  0  0  0  0  0  0
   -6.6410   23.6710  -31.3430 C   0  0  0  0  0  0  0  0  0  0  0  0
   -5.7850   24.6980  -30.9590 C   0  0  0  0  0  0  0  0  0  0  0  0
   -4.4540   24.4150  -30.8460 N   0  0  0  0  0  0  0  0  0  0  0  0
   -3.9620   23.1670  -31.1070 C   0  0  0  0  0  0  0  0  0  0  0  0
   -4.8350   22.1420  -31.4960 C   0  0  0  0  0  0  0  0  0  0  0  0
   -6.1600   22.4390  -31.5790 N   0  0  0  0  0  0  0  0  0  0  0  0
   -6.3980   19.7930  -33.3310 C   0  0  0  0  0  0  0  0  0  0  0  0
   -7.2387   16.4798  -33.2736 H   0  0  0  0  0  0  0  0  0  0  0  0
   -8.7382   17.3044  -31.4570 H   0  0  0  0  0  0  0  0  0  0  0  0
   -8.7399   19.7217  -30.8360 H   0  0  0  0  0  0  0  0  0  0  0  0
   -9.3561   22.2251  -32.1929 H   0  0  0  0  0  0  0  0  0  0  0  0
   -6.1689   25.7080  -30.7525 H   0  0  0  0  0  0  0  0  0  0  0  0
   -2.8844   22.9677  -31.0121 H   0  0  0  0  0  0  0  0  0  0  0  0
   -4.4621   21.1331  -31.7261 H   0  0  0  0  0  0  0  0  0  0  0  0
   -5.7464   20.4949  -33.8720 H   0  0  0  0  0  0  0  0  0  0  0  0
  1  2  1  0
  2  3  2  0
  3  4  1  0
  4  5  2  0
  5  6  1  0
  6  7  1  0
  7  8  2  0
  8  9  1  0
  9 10  2  0
 10 11  1  0
 11 12  2  0
 12 13  1  0
 13 14  2  0
 14 15  1  0
  6 16  2  0
 16  2  1  0
 15  7  1  0
 15 10  1  0
  3 17  1  0
  4 18  1  0
  5 19  1  0
  8 20  1  0
 11 21  1  0
 13 22  1  0
 14 23  1  0
 16 24  1  0
M  END
>  <UniqueID>  (8) 
7

>  <SMILES>  (8) 
Clc1cccc(-c2cnc3cnccn23)c1

>  <Energy>  (8) 
68.84562722054035

>  <Genealogy>  (8) 
Clc1cccc(-c2cnc3cnccn23)c1 (3D coordinates assigned)
Clc1cccc(-c2cnc3cnccn23)c1 (optimized conformer: 68.84562722054035 kcal/mol)

>  <smiles>  (8) 
Clc1cccc(-c2cnc3cnccn23)c1

>  <score_type>  (8) 
oracle

>  <origin>  (8) 
adg

>  <m_score__min__energy>  (8) 
-7.1799999999999997

>  <m_primary>  (8) 
energy

$$$$
8:0
     RDKit          3D

 40 41  0  0  0  0  0  0  0  0999 V2000
   -9.0860   21.6410  -31.9160 C   0  0  0  0  0  0  0  0  0  0  0  0
   -8.7370   20.2570  -31.3630 C   0  0  0  0  0  0  0  0  0  0  0  0
   -7.4100   19.7470  -31.7840 N   0  0  0  0  0  0  0  0  0  0  0  0
   -7.2230   18.2860  -31.6040 C   0  0  0  0  0  0  0  0  0  0  0  0
   -6.8980   17.5190  -32.8970 C   0  0  0  0  0  0  0  0  0  0  0  0
   -6.8700   20.2980  -33.0480 C   0  0  0  0  0  0  0  0  0  0  0  0
   -5.4110   20.7660  -32.9100 C   0  0  0  0  0  0  0  0  0  0  0  0
   -5.0390   20.9810  -31.5030 N   0  0  0  0  0  0  0  0  0  0  0  0
   -5.0080   22.3930  -31.2110 C   0  0  0  0  0  0  0  0  0  0  0  0
   -6.1380   23.1930  -31.4630 C   0  0  0  0  0  0  0  0  0  0  0  0
   -6.1250   24.5570  -31.1540 C   0  0  0  0  0  0  0  0  0  0  0  0
   -4.9910   25.1350  -30.5770 C   0  0  0  0  0  0  0  0  0  0  0  0
   -3.8660   24.3510  -30.3130 C   0  0  0  0  0  0  0  0  0  0  0  0
   -3.8680   22.9830  -30.6280 C   0  0  0  0  0  0  0  0  0  0  0  0
   -2.7390   22.2050  -30.3300 O   0  0  0  0  0  0  0  0  0  0  0  0
   -1.4510   22.7640  -30.0560 C   0  0  0  0  0  0  0  0  0  0  0  0
   -1.5580   24.1320  -29.4460 C   0  0  0  0  0  0  0  0  0  0  0  0
   -0.5920   24.6130  -28.7960 O   0  0  0  0  0  0  0  0  0  0  0  0
   -2.7250   24.9210  -29.6700 N   0  0  0  0  0  0  0  0  0  0  0  0
   -9.2612   22.3358  -31.0814 H   0  0  0  0  0  0  0  0  0  0  0  0
   -8.2529   22.0105  -32.5320 H   0  0  0  0  0  0  0  0  0  0  0  0
   -9.9947   21.5713  -32.5320 H   0  0  0  0  0  0  0  0  0  0  0  0
   -8.7522   20.3114  -30.2645 H   0  0  0  0  0  0  0  0  0  0  0  0
   -9.4848   19.5591  -31.7676 H   0  0  0  0  0  0  0  0  0  0  0  0
   -6.3960   18.1305  -30.8955 H   0  0  0  0  0  0  0  0  0  0  0  0
   -8.1828   17.8910  -31.2395 H   0  0  0  0  0  0  0  0  0  0  0  0
   -6.4804   16.5334  -32.6436 H   0  0  0  0  0  0  0  0  0  0  0  0
   -7.8176   17.3871  -33.4861 H   0  0  0  0  0  0  0  0  0  0  0  0
   -6.1636   18.0879  -33.4861 H   0  0  0  0  0  0  0  0  0  0  0  0
   -6.9187   19.5181  -33.8222 H   0  0  0  0  0  0  0  0  0  0  0  0
   -7.4782   21.1739  -33.3180 H   0  0  0  0  0  0  0  0  0  0  0  0
   -4.7489   20.0005  -33.3408 H   0  0  0  0  0  0  0  0  0  0  0  0
   -5.3062   21.7229  -33.4423 H   0  0  0  0  0  0  0  0  0  0  0  0
   -4.0980   20.5580  -31.3210 H   0  0  0  0  0  0  0  0  0  0  0  0
   -5.7260   20.5100  -30.8690 H   0  0  0  0  0  0  0  0  0  0  0  0
   -7.0382   22.7422  -31.9063 H   0  0  0  0  0  0  0  0  0  0  0  0
   -7.0093   25.1761  -31.3656 H   0  0  0  0  0  0  0  0  0  0  0  0
   -4.9846   26.2071  -30.3309 H   0  0  0  0  0  0  0  0  0  0  0  0
   -0.9167   22.1030  -29.3577 H   0  0  0  0  0  0  0  0  0  0  0  0
   -0.9067   22.8543  -31.0076 H   0  0  0  0  0  0  0  0  0  0  0  0
  1  2  1  0
  2  3  1  0
  3  4  1  0
  4  5  1  0
  3  6  1  0
  6  7  1  0
  7  8  1  0
  8  9  1  0
  9 10  2  0
 10 11  1  0
 11 12  2  0
 12 13  1  0
 13 14  2  0
 14 15  1  0
 15 16  1  0
 16 17  1  0
 17 18  2  0
 17 19  1  0
 14  9  1  0
 19 13  1  0
  1 20  1  0
  1 21  1  0
  1 22  1  0
  2 23  1  0
  2 24  1  0
  4 25  1  0
  4 26  1  0
  5 27  1  0
  5 28  1  0
  5 29  1  0
  6 30  1  0
  6 31  1  0
  7 32  1  0
  7 33  1  0
  8 34  1  0
  8 35  1  0
 10 36  1  0
 11 37  1  0
 12 38  1  0
 16 39  1  0
 16 40  1  0
M  CHG  2   8   1  19  -1
M  END
>  <UniqueID>  (9) 
8

>  <SMILES>  (9) 
CCN(CC)CC[NH2+]c1cccc2c1OCC(=O)[N-]2

>  <Energy>  (9) 
46.70561088123407

>  <Genealogy>  (9) 
CCN(CC)CC[NH2+]c1cccc2c1OCC(=O)[N-]2 (protonated)
CCN(CC)CC[NH2+]c1cccc2c1OCC(=O)[N-]2 (3D coordinates assigned)
CCN(CC)CC[NH2+]c1cccc2c1OCC(=O)[N-]2 (nonaromatic ring conformer: 46.70561088123407 kcal/mol)

>  <smiles>  (9) 
CCN(CC)CCNc1cccc2c1OCC(=O)N2

>  <score_type>  (9) 
oracle

>  <origin>  (9) 
adg

>  <m_score__min__energy>  (9) 
-7.0899999999999999

>  <m_primary>  (9) 
energy

$$$$
9:0
     RDKit          3D

 39 41  0  0  0  0  0  0  0  0999 V2000
   -9.1060   19.2260  -32.3580 C   0  0  0  0  0  0  0  0  0  0  0  0
   -8.7760   20.4780  -31.5480 C   0  0  0  0  0  0  0  0  0  0  0  0
   -7.9260   21.4920  -32.3330 C   0  0  0  0  0  0  0  0  0  0  0  0
   -7.0740   22.2820  -31.4420 N   0  0  0  0  0  0  0  0  0  0  0  0
   -7.4720   22.9280  -30.3270 C   0  0  0  0  0  0  0  0  0  0  0  0
   -6.4550   23.5760  -29.7300 N   0  0  0  0  0  0  0  0  0  0  0  0
   -5.3730   23.3570  -30.5010 C   0  0  0  0  0  0  0  0  0  0  0  0
   -4.0550   23.9680  -30.2300 C   0  0  0  0  0  0  0  0  0  0  0  0
   -3.8640   25.1710  -30.5530 O   0  0  0  0  0  0  0  0  0  0  0  0
   -2.9340   23.2010  -29.5890 C   0  0  0  0  0  0  0  0  0  0  0  0
   -2.2540   22.1940  -30.5060 C   0  0  0  0  0  0  0  0  0  0  0  0
   -3.1930   21.7110  -29.4170 C   0  0  0  0  0  0  0  0  0  0  0  0
   -5.7520   22.5420  -31.5610 C   0  0  0  0  0  0  0  0  0  0  0  0
   -4.6990   21.9560  -32.9020 S   0  0  0  0  0  0  0  0  0  0  0  0
   -5.2840   20.2630  -32.8070 C   0  0  0  0  0  0  0  0  0  0  0  0
   -5.6630   19.5940  -33.9770 C   0  0  0  0  0  0  0  0  0  0  0  0
   -6.1090   18.2700  -33.9160 C   0  0  0  0  0  0  0  0  0  0  0  0
   -6.1650   17.6070  -32.6860 C   0  0  0  0  0  0  0  0  0  0  0  0
   -5.7710   18.2660  -31.5180 C   0  0  0  0  0  0  0  0  0  0  0  0
   -5.3250   19.5900  -31.5770 C   0  0  0  0  0  0  0  0  0  0  0  0
   -9.3254   18.3935  -31.6733 H   0  0  0  0  0  0  0  0  0  0  0  0
   -9.9836   19.4203  -32.9921 H   0  0  0  0  0  0  0  0  0  0  0  0
   -8.2466   18.9624  -32.9921 H   0  0  0  0  0  0  0  0  0  0  0  0
   -9.7179   20.9635  -31.2529 H   0  0  0  0  0  0  0  0  0  0  0  0
   -8.1879   20.1605  -30.6743 H   0  0  0  0  0  0  0  0  0  0  0  0
   -7.2896   20.9483  -33.0467 H   0  0  0  0  0  0  0  0  0  0  0  0
   -8.6059   22.1786  -32.8586 H   0  0  0  0  0  0  0  0  0  0  0  0
   -8.5055   22.9255  -29.9503 H   0  0  0  0  0  0  0  0  0  0  0  0
   -6.5120   24.1640  -28.8690 H   0  0  0  0  0  0  0  0  0  0  0  0
   -2.5959   24.0140  -28.9297 H   0  0  0  0  0  0  0  0  0  0  0  0
   -2.5537   22.1222  -31.5619 H   0  0  0  0  0  0  0  0  0  0  0  0
   -1.2126   21.9778  -30.7864 H   0  0  0  0  0  0  0  0  0  0  0  0
   -4.1732   21.2891  -29.6837 H   0  0  0  0  0  0  0  0  0  0  0  0
   -3.1137   20.9998  -28.5816 H   0  0  0  0  0  0  0  0  0  0  0  0
   -5.6098   20.1110  -34.9465 H   0  0  0  0  0  0  0  0  0  0  0  0
   -6.4158   17.7501  -34.8355 H   0  0  0  0  0  0  0  0  0  0  0  0
   -6.5192   16.5667  -32.6377 H   0  0  0  0  0  0  0  0  0  0  0  0
   -5.8118   17.7426  -30.5514 H   0  0  0  0  0  0  0  0  0  0  0  0
   -5.0061   20.1041  -30.6583 H   0  0  0  0  0  0  0  0  0  0  0  0
  1  2  1  0
  2  3  1  0
  3  4  1  0
  4  5  1  0
  5  6  2  0
  6  7  1  0
  7  8  1  0
  8  9  2  0
  8 10  1  0
 10 11  1  0
 11 12  1  0
  7 13  2  0
 13 14  1  0
 14 15  1  0
 15 16  2  0
 16 17  1  0
 17 18  2  0
 18 19  1  0
 19 20  2  0
 13  4  1  0
 20 15  1  0
 12 10  1  0
  1 21  1  0
  1 22  1  0
  1 23  1  0
  2 24  1  0
  2 25  1  0
  3 26  1  0
  3 27  1  0
  5 28  1  0
  6 29  1  0
 10 30  1  0
 11 31  1  0
 11 32  1  0
 12 33  1  0
 12 34  1  0
 16 35  1  0
 17 36  1  0
 18 37  1  0
 19 38  1  0
 20 39  1  0
M  CHG  1   6   1
M  END
>  <UniqueID>  (10) 
9

>  <SMILES>  (10) 
CCCn1c[nH+]c(C(=O)C2CC2)c1Sc1ccccc1

>  <Energy>  (10) 
326.6240104006109

>  <Genealogy>  (10) 
CCCn1c[nH+]c(C(=O)C2CC2)c1Sc1ccccc1 (protonated)
CCCn1c[nH+]c(C(=O)C2CC2)c1Sc1ccccc1 (3D coordinates assigned)
CCCn1c[nH+]c(C(=O)C2CC2)c1Sc1ccccc1 (nonaromatic ring conformer: 326.6240104006109 kcal/mol)

>  <smiles>  (10) 
CCCn1cnc(C(=O)C2CC2)c1Sc1ccccc1

>  <score_type>  (10) 
oracle

>  <origin>  (10) 
adg

>  <m_score__min__energy>  (10) 
-7.3600000000000003

>  <m_primary>  (10) 
energy

$$$$
10:0
     RDKit          3D

 38 40  0  0  0  0  0  0  0  0999 V2000
   -6.5050   15.5320  -34.0540 C   0  0  0  0  0  0  0  0  0  0  0  0
   -6.3770   16.9310  -33.5580 C   0  0  0  0  0  0  0  0  0  0  0  0
   -5.2920   17.7050  -33.7810 N   0  0  0  0  0  0  0  0  0  0  0  0
   -5.4500   18.9670  -33.2940 C   0  0  0  0  0  0  0  0  0  0  0  0
   -4.3760   19.9930  -33.4820 C   0  0  0  0  0  0  0  0  0  0  0  0
   -6.6850   19.2000  -32.6660 C   0  0  0  0  0  0  0  0  0  0  0  0
   -7.1930   20.4480  -32.0620 C   0  0  0  0  0  0  0  0  0  0  0  0
   -8.4880   20.9200  -32.3070 C   0  0  0  0  0  0  0  0  0  0  0  0
   -8.8870   22.1150  -31.7120 C   0  0  0  0  0  0  0  0  0  0  0  0
   -8.0230   22.8100  -30.9250 N   0  0  0  0  0  0  0  0  0  0  0  0
   -6.7520   22.3600  -30.7210 C   0  0  0  0  0  0  0  0  0  0  0  0
   -5.7960   23.1260  -29.8380 C   0  0  0  0  0  0  0  0  0  0  0  0
   -6.1230   24.6410  -29.8230 C   0  0  0  0  0  0  0  0  0  0  0  0
   -5.2190   25.4240  -30.7850 C   0  0  0  0  0  0  0  0  0  0  0  0
   -3.7860   25.2800  -30.4590 N   0  0  0  0  0  0  0  0  0  0  0  0
   -3.4200   23.9950  -29.8290 C   0  0  0  0  0  0  0  0  0  0  0  0
   -4.3400   22.8510  -30.2700 C   0  0  0  0  0  0  0  0  0  0  0  0
   -6.3570   21.1860  -31.2860 N   0  0  0  0  0  0  0  0  0  0  0  0
   -7.5940   17.7870  -32.7800 S   0  0  0  0  0  0  0  0  0  0  0  0
   -6.5680   14.8439  -33.1981 H   0  0  0  0  0  0  0  0  0  0  0  0
   -7.4152   15.4414  -34.6650 H   0  0  0  0  0  0  0  0  0  0  0  0
   -5.6264   15.2778  -34.6650 H   0  0  0  0  0  0  0  0  0  0  0  0
   -4.0188   20.3342  -32.4992 H   0  0  0  0  0  0  0  0  0  0  0  0
   -3.5396   19.5499  -34.0425 H   0  0  0  0  0  0  0  0  0  0  0  0
   -4.7805   20.8487  -34.0425 H   0  0  0  0  0  0  0  0  0  0  0  0
   -9.1765   20.3589  -32.9560 H   0  0  0  0  0  0  0  0  0  0  0  0
   -9.9046   22.4976  -31.8795 H   0  0  0  0  0  0  0  0  0  0  0  0
   -8.3470   23.7000  -30.4860 H   0  0  0  0  0  0  0  0  0  0  0  0
   -5.9162   22.7726  -28.8033 H   0  0  0  0  0  0  0  0  0  0  0  0
   -7.1716   24.7828  -30.1235 H   0  0  0  0  0  0  0  0  0  0  0  0
   -5.9514   25.0198  -28.8047 H   0  0  0  0  0  0  0  0  0  0  0  0
   -5.3871   25.0536  -31.8070 H   0  0  0  0  0  0  0  0  0  0  0  0
   -5.4769   26.4894  -30.6930 H   0  0  0  0  0  0  0  0  0  0  0  0
   -3.5150   26.0500  -29.8030 H   0  0  0  0  0  0  0  0  0  0  0  0
   -2.3857   23.7455  -30.1082 H   0  0  0  0  0  0  0  0  0  0  0  0
   -3.5238   24.1111  -28.7401 H   0  0  0  0  0  0  0  0  0  0  0  0
   -4.2998   22.7567  -31.3652 H   0  0  0  0  0  0  0  0  0  0  0  0
   -3.9995   21.9193  -29.7946 H   0  0  0  0  0  0  0  0  0  0  0  0
  1  2  1  0
  2  3  2  0
  3  4  1  0
  4  5  1  0
  4  6  2  0
  6  7  1  0
  7  8  2  0
  8  9  1  0
  9 10  2  0
 10 11  1  0
 11 12  1  0
 12 13  1  0
 13 14  1  0
 14 15  1  0
 15 16  1  0
 16 17  1  0
 11 18  2  0
  6 19  1  0
 19  2  1  0
 18  7  1  0
 17 12  1  0
  1 20  1  0
  1 21  1  0
  1 22  1  0
  5 23  1  0
  5 24  1  0
  5 25  1  0
  8 26  1  0
  9 27  1  0
 10 28  1  0
 12 29  1  0
 13 30  1  0
 13 31  1  0
 14 32  1  0
 14 33  1  0
 15 34  1  0
 16 35  1  0
 16 36  1  0
 17 37  1  0
 17 38  1  0
M  CHG  1  10   1
M  END
>  <UniqueID>  (11) 
10

>  <SMILES>  (11) 
Cc1nc(C)c(-c2cc[nH+]c(C3CCNCC3)n2)s1

>  <Energy>  (11) 
75.61977761909905

>  <Genealogy>  (11) 
Cc1nc(C)c(-c2cc[nH+]c(C3CCNCC3)n2)s1 (protonated)
Cc1nc(C)c(-c2cc[nH+]c(C3CCNCC3)n2)s1 (3D coordinates assigned)
Cc1nc(C)c(-c2cc[nH+]c(C3CCNCC3)n2)s1 (nonaromatic ring conformer: 75.61977761909905 kcal/mol)

>  <smiles>  (11) 
Cc1nc(C)c(-c2ccnc(C3CCNCC3)n2)s1

>  <score_type>  (11) 
oracle

>  <origin>  (11) 
adg

>  <m_score__min__energy>  (11) 
-8.0099999999999998

>  <m_primary>  (11) 
energy

$$$$
11:0
     RDKit          3D

 38 39  0  0  0  0  0  0  0  0999 V2000
   -8.5326   23.0046  -29.7261 H   0  0  0  0  0  0  0  0  0  0  0  0
   -8.3140   22.2830  -30.5270 C   0  0  0  0  0  0  0  0  0  0  0  0
   -9.3760   21.6760  -31.2320 C   0  0  0  0  0  0  0  0  0  0  0  0
  -10.4158   21.9296  -30.9782 H   0  0  0  0  0  0  0  0  0  0  0  0
   -9.1130   20.7490  -32.2570 C   0  0  0  0  0  0  0  0  0  0  0  0
   -9.9327   20.2672  -32.8101 H   0  0  0  0  0  0  0  0  0  0  0  0
   -7.7800   20.4600  -32.5500 C   0  0  0  0  0  0  0  0  0  0  0  0
   -6.7490   21.0540  -31.8670 C   0  0  0  0  0  0  0  0  0  0  0  0
   -6.9780   21.9720  -30.8410 C   0  0  0  0  0  0  0  0  0  0  0  0
   -6.1427   22.4365  -30.2964 H   0  0  0  0  0  0  0  0  0  0  0  0
   -5.5740   20.5490  -32.3900 C   0  0  0  0  0  0  0  0  0  0  0  0
   -4.1780   20.8430  -31.9200 C   0  0  0  0  0  0  0  0  0  0  0  0
   -3.4603   20.3109  -32.5617 H   0  0  0  0  0  0  0  0  0  0  0  0
   -4.0752   20.5075  -30.8775 H   0  0  0  0  0  0  0  0  0  0  0  0
   -3.8960   22.3460  -31.9870 C   0  0  0  0  0  0  0  0  0  0  0  0
   -4.8137   22.8738  -32.2858 H   0  0  0  0  0  0  0  0  0  0  0  0
   -3.0988   22.5266  -32.7231 H   0  0  0  0  0  0  0  0  0  0  0  0
   -3.4580   22.8420  -30.6830 N   0  0  0  0  0  0  0  0  0  0  0  0
   -2.9150   22.1980  -30.0660 H   0  0  0  0  0  0  0  0  0  0  0  0
   -3.8100   24.1430  -30.1860 C   0  0  0  0  0  0  0  0  0  0  0  0
   -4.5600   24.9270  -30.9110 N   0  0  0  0  0  0  0  0  0  0  0  0
   -6.0080   25.0990  -30.8050 C   0  0  0  0  0  0  0  0  0  0  0  0
   -6.4994   24.1285  -30.9683 H   0  0  0  0  0  0  0  0  0  0  0  0
   -6.3334   25.8254  -31.5643 H   0  0  0  0  0  0  0  0  0  0  0  0
   -6.3910   25.6280  -29.4260 C   0  0  0  0  0  0  0  0  0  0  0  0
   -5.9334   24.9959  -28.6507 H   0  0  0  0  0  0  0  0  0  0  0  0
   -6.0304   26.6614  -29.3166 H   0  0  0  0  0  0  0  0  0  0  0  0
   -7.4854   25.6080  -29.3166 H   0  0  0  0  0  0  0  0  0  0  0  0
   -3.3210   24.5470  -28.9000 N   0  0  0  0  0  0  0  0  0  0  0  0
   -2.7340   23.8910  -28.3390 H   0  0  0  0  0  0  0  0  0  0  0  0
   -3.5100   25.4880  -28.4930 H   0  0  0  0  0  0  0  0  0  0  0  0
   -5.9680   19.6370  -33.3710 C   0  0  0  0  0  0  0  0  0  0  0  0
   -5.0500   18.8090  -34.2120 C   0  0  0  0  0  0  0  0  0  0  0  0
   -4.3917   18.2153  -33.5608 H   0  0  0  0  0  0  0  0  0  0  0  0
   -5.6430   18.1344  -34.8470 H   0  0  0  0  0  0  0  0  0  0  0  0
   -4.4399   19.4682  -34.8470 H   0  0  0  0  0  0  0  0  0  0  0  0
   -7.3170   19.5960  -33.4700 N   0  0  0  0  0  0  0  0  0  0  0  0
   -7.8860   19.0060  -34.1180 H   0  0  0  0  0  0  0  0  0  0  0  0
  1  2  1  0
  2  3  2  0
  3  4  1  0
  3  5  1  0
  5  6  1  0
  5  7  2  0
  7  8  1  0
  8  9  2  0
  9 10  1  0
  8 11  1  0
 11 12  1  0
 12 13  1  0
 12 14  1  0
 12 15  1  0
 15 16  1  0
 15 17  1  0
 15 18  1  0
 18 19  1  0
 18 20  1  0
 20 21  2  0
 21 22  1  0
 22 23  1  0
 22 24  1  0
 22 25  1  0
 25 26  1  0
 25 27  1  0
 25 28  1  0
 20 29  1  0
 29 30  1  0
 29 31  1  0
 11 32  2  0
 32 33  1  0
 33 34  1  0
 33 35  1  0
 33 36  1  0
 32 37  1  0
 37 38  1  0
  9  2  1  0
 37  7  1  0
M  END
>  <UniqueID>  (12) 
11

>  <SMILES>  (12) 
CC/N=C(\N)NCCc1c(C)[nH]c2ccccc12

>  <Energy>  (12) 
60.229691267685155

>  <Genealogy>  (12) 
CC/N=C(\N)NCCc1c(C)[nH]c2ccccc12 (cis-trans isomerization)
CC/N=C(\N)NCCc1c(C)[nH]c2ccccc12 (3D coordinates assigned)
CC/N=C(\N)NCCc1c(C)[nH]c2ccccc12 (optimized conformer: 60.229691267685155 kcal/mol)

>  <smiles>  (12) 
CCN=C(N)NCCc1c(C)[nH]c2ccccc12

>  <score_type>  (12) 
oracle

>  <origin>  (12) 
adg

>  <m_score__min__energy>  (12) 
-7.5499999999999998

>  <m_primary>  (12) 
energy

$$$$
12:0
     RDKit          3D

 27 28  0  0  0  0  0  0  0  0999 V2000
   -5.7180   25.1210  -30.0370 C   0  0  0  0  0  0  0  0  0  0  0  0
   -5.0650   24.6610  -31.2150 O   0  0  0  0  0  0  0  0  0  0  0  0
   -5.2850   23.3890  -31.7500 C   0  0  0  0  0  0  0  0  0  0  0  0
   -4.2560   22.6180  -32.2170 N   0  0  0  0  0  0  0  0  0  0  0  0
   -4.4770   21.3680  -32.7360 C   0  0  0  0  0  0  0  0  0  0  0  0
   -5.7450   20.8580  -32.8010 N   0  0  0  0  0  0  0  0  0  0  0  0
   -6.7660   21.6280  -32.3430 C   0  0  0  0  0  0  0  0  0  0  0  0
   -6.5660   22.8620  -31.8230 C   0  0  0  0  0  0  0  0  0  0  0  0
   -7.7310   23.4020  -31.4190 N   0  0  0  0  0  0  0  0  0  0  0  0
   -8.6340   22.4300  -31.7240 C   0  0  0  0  0  0  0  0  0  0  0  0
   -8.0730   21.3320  -32.2930 N   0  0  0  0  0  0  0  0  0  0  0  0
   -8.7610   20.1070  -32.7030 C   0  0  0  0  0  0  0  0  0  0  0  0
   -8.7210   19.0450  -31.5960 C   0  0  0  0  0  0  0  0  0  0  0  0
   -7.4930   18.1390  -31.6850 C   0  0  0  0  0  0  0  0  0  0  0  0
   -6.8800   18.2690  -32.9190 F   0  0  0  0  0  0  0  0  0  0  0  0
   -5.1845   24.7452  -29.1515 H   0  0  0  0  0  0  0  0  0  0  0  0
   -5.7199   26.2209  -30.0245 H   0  0  0  0  0  0  0  0  0  0  0  0
   -6.7543   24.7524  -30.0245 H   0  0  0  0  0  0  0  0  0  0  0  0
   -3.6289   20.7711  -33.1026 H   0  0  0  0  0  0  0  0  0  0  0  0
   -5.9070   19.9040  -33.1880 H   0  0  0  0  0  0  0  0  0  0  0  0
   -9.7124   22.5247  -31.5287 H   0  0  0  0  0  0  0  0  0  0  0  0
   -9.8100   20.3454  -32.9325 H   0  0  0  0  0  0  0  0  0  0  0  0
   -8.2497   19.7028  -33.5891 H   0  0  0  0  0  0  0  0  0  0  0  0
   -8.7114   19.5544  -30.6211 H   0  0  0  0  0  0  0  0  0  0  0  0
   -9.6101   18.4087  -31.7167 H   0  0  0  0  0  0  0  0  0  0  0  0
   -6.7796   18.4185  -30.8957 H   0  0  0  0  0  0  0  0  0  0  0  0
   -7.8129   17.0945  -31.5563 H   0  0  0  0  0  0  0  0  0  0  0  0
  1  2  1  0
  2  3  1  0
  3  4  2  0
  4  5  1  0
  5  6  2  0
  6  7  1  0
  7  8  2  0
  8  9  1  0
  9 10  2  0
 10 11  1  0
 11 12  1  0
 12 13  1  0
 13 14  1  0
 14 15  1  0
  8  3  1  0
 11  7  1  0
  1 16  1  0
  1 17  1  0
  1 18  1  0
  5 19  1  0
  6 20  1  0
 10 21  1  0
 12 22  1  0
 12 23  1  0
 13 24  1  0
 13 25  1  0
 14 26  1  0
 14 27  1  0
M  CHG  1   6   1
M  END
>  <UniqueID>  (13) 
12

>  <SMILES>  (13) 
COc1nc[nH+]c2c1ncn2CCCF

>  <Energy>  (13) 
60.32748282644013

>  <Genealogy>  (13) 
COc1nc[nH+]c2c1ncn2CCCF (protonated)
COc1nc[nH+]c2c1ncn2CCCF (3D coordinates assigned)
COc1nc[nH+]c2c1ncn2CCCF (optimized conformer: 60.32748282644013 kcal/mol)

>  <smiles>  (13) 
COc1ncnc2c1ncn2CCCF

>  <score_type>  (13) 
oracle

>  <origin>  (13) 
adg

>  <m_score__min__energy>  (13) 
-4.3399999999999999

>  <m_primary>  (13) 
energy

$$$$
13:0
     RDKit          3D

 55 57  0  0  0  0  0  0  0  0999 V2000
   -4.6200   14.0910  -32.4400 C   0  0  0  0  0  0  0  0  0  0  0  0
   -5.0760   15.8520  -32.3190 S   0  0  0  0  0  0  0  0  0  0  0  0
   -6.0100   15.9210  -33.8950 C   0  0  0  0  0  0  0  0  0  0  0  0
   -6.0840   17.3420  -34.4750 C   0  0  0  0  0  0  0  0  0  0  0  0
   -4.7200   17.9630  -34.8340 C   0  0  0  0  0  0  0  0  0  0  0  0
   -3.8910   18.2030  -33.6390 N   0  0  0  0  0  0  0  0  0  0  0  0
   -3.0180   19.3860  -33.7790 C   0  0  0  0  0  0  0  0  0  0  0  0
   -3.2890   20.5290  -32.7710 C   0  0  1  0  0  0  0  0  0  0  0  0
   -2.0920   21.1120  -32.3910 F   0  0  0  0  0  0  0  0  0  0  0  0
   -4.2510   21.6300  -33.2600 C   0  0  0  0  0  0  0  0  0  0  0  0
   -5.2650   22.0140  -32.2550 N   0  0  0  0  0  0  0  0  0  0  0  0
   -6.4730   21.2390  -32.1340 C   0  0  0  0  0  0  0  0  0  0  0  0
   -6.4240   19.8350  -32.0810 C   0  0  0  0  0  0  0  0  0  0  0  0
   -7.6020   19.0880  -31.9970 C   0  0  0  0  0  0  0  0  0  0  0  0
   -7.5440   17.7350  -31.9480 F   0  0  0  0  0  0  0  0  0  0  0  0
   -8.8370   19.7370  -31.9590 C   0  0  0  0  0  0  0  0  0  0  0  0
   -8.8970   21.1310  -31.9990 C   0  0  0  0  0  0  0  0  0  0  0  0
   -7.7160   21.8870  -32.0940 C   0  0  0  0  0  0  0  0  0  0  0  0
   -7.7620   23.3850  -32.0680 C   0  0  0  0  0  0  0  0  0  0  0  0
   -7.2570   23.8840  -30.7190 C   0  0  0  0  0  0  0  0  0  0  0  0
   -5.7610   23.7610  -30.4830 C   0  0  0  0  0  0  0  0  0  0  0  0
   -5.2420   24.5490  -29.4390 C   0  0  0  0  0  0  0  0  0  0  0  0
   -3.8880   24.5160  -29.1180 C   0  0  0  0  0  0  0  0  0  0  0  0
   -3.0370   23.6860  -29.8400 C   0  0  0  0  0  0  0  0  0  0  0  0
   -1.5820   23.6100  -29.5050 C   0  0  0  0  0  0  0  0  0  0  0  0
   -3.5430   22.9030  -30.8270 N   0  0  0  0  0  0  0  0  0  0  0  0
   -4.8620   22.8960  -31.1800 C   0  0  0  0  0  0  0  0  0  0  0  0
   -4.5110   13.6702  -31.4295 H   0  0  0  0  0  0  0  0  0  0  0  0
   -5.4064   13.5450  -32.9817 H   0  0  0  0  0  0  0  0  0  0  0  0
   -3.6674   13.9953  -32.9817 H   0  0  0  0  0  0  0  0  0  0  0  0
   -5.5145   15.2667  -34.6274 H   0  0  0  0  0  0  0  0  0  0  0  0
   -7.0387   15.5912  -33.6879 H   0  0  0  0  0  0  0  0  0  0  0  0
   -6.6959   17.3078  -35.3884 H   0  0  0  0  0  0  0  0  0  0  0  0
   -6.5167   17.9767  -33.6877 H   0  0  0  0  0  0  0  0  0  0  0  0
   -4.1836   17.2774  -35.5065 H   0  0  0  0  0  0  0  0  0  0  0  0
   -4.9052   18.9326  -35.3194 H   0  0  0  0  0  0  0  0  0  0  0  0
   -4.4870   18.2780  -32.7850 H   0  0  0  0  0  0  0  0  0  0  0  0
   -3.2570   17.3820  -33.5040 H   0  0  0  0  0  0  0  0  0  0  0  0
   -1.9764   19.0574  -33.6487 H   0  0  0  0  0  0  0  0  0  0  0  0
   -3.2264   19.8025  -34.7755 H   0  0  0  0  0  0  0  0  0  0  0  0
   -3.7964   20.0445  -31.9237 H   0  0  0  0  0  0  0  0  0  0  0  0
   -3.6593   22.5212  -33.5161 H   0  0  0  0  0  0  0  0  0  0  0  0
   -4.7919   21.2257  -34.1283 H   0  0  0  0  0  0  0  0  0  0  0  0
   -5.4518   19.3210  -32.1058 H   0  0  0  0  0  0  0  0  0  0  0  0
   -9.7646   19.1490  -31.8974 H   0  0  0  0  0  0  0  0  0  0  0  0
   -9.8715   21.6394  -31.9560 H   0  0  0  0  0  0  0  0  0  0  0  0
   -7.1242   23.7857  -32.8696 H   0  0  0  0  0  0  0  0  0  0  0  0
   -8.7975   23.7234  -32.2206 H   0  0  0  0  0  0  0  0  0  0  0  0
   -7.5257   24.9470  -30.6309 H   0  0  0  0  0  0  0  0  0  0  0  0
   -7.7311   23.2371  -29.9661 H   0  0  0  0  0  0  0  0  0  0  0  0
   -5.9176   25.2020  -28.8670 H   0  0  0  0  0  0  0  0  0  0  0  0
   -3.4951   25.1399  -28.3017 H   0  0  0  0  0  0  0  0  0  0  0  0
   -1.4572   23.6035  -28.4121 H   0  0  0  0  0  0  0  0  0  0  0  0
   -1.1560   22.6884  -29.9282 H   0  0  0  0  0  0  0  0  0  0  0  0
   -1.0623   24.4822  -29.9282 H   0  0  0  0  0  0  0  0  0  0  0  0
  1  2  1  0
  2  3  1  0
  3  4  1  0
  4  5  1  0
  5  6  1  0
  6  7  1  0
  7  8  1  0
  8  9  1  0
  8 10  1  0
 10 11  1  0
 11 12  1  0
 12 13  2  0
 13 14  1  0
 14 15  1  0
 14 16  2  0
 16 17  1  0
 17 18  2  0
 18 19  1  0
 19 20  1  0
 20 21  1  0
 21 22  2  0
 22 23  1  0
 23 24  2  0
 24 25  1  0
 24 26  1  0
 26 27  2  0
 27 11  1  0
 18 12  1  0
 27 21  1  0
  1 28  1  0
  1 29  1  0
  1 30  1  0
  3 31  1  0
  3 32  1  0
  4 33  1  0
  4 34  1  0
  5 35  1  0
  5 36  1  0
  6 37  1  0
  6 38  1  0
  7 39  1  0
  7 40  1  0
  8 41  1  1
 10 42  1  0
 10 43  1  0
 13 44  1  0
 16 45  1  0
 17 46  1  0
 19 47  1  0
 19 48  1  0
 20 49  1  0
 20 50  1  0
 22 51  1  0
 23 52  1  0
 25 53  1  0
 25 54  1  0
 25 55  1  0
M  CHG  1   6   1
M  END
>  <UniqueID>  (14) 
13

>  <SMILES>  (14) 
CSCCC[NH2+]C[C@@H](F)CN1c2cc(F)ccc2CCc2ccc(C)nc21

>  <Energy>  (14) 
65.16285601799618

>  <Genealogy>  (14) 
CSCCC[NH2+]CC(F)CN1c2cc(F)ccc2CCc2ccc(C)nc21 (protonated)
CSCCC[NH2+]C[C@@H](F)CN1c2cc(F)ccc2CCc2ccc(C)nc21 (chirality)
CSCCC[NH2+]C[C@@H](F)CN1c2cc(F)ccc2CCc2ccc(C)nc21 (3D coordinates assigned)
CSCCC[NH2+]C[C@@H](F)CN1c2cc(F)ccc2CCc2ccc(C)nc21 (nonaromatic ring conformer: 65.16285601799618 kcal/mol)

>  <smiles>  (14) 
CSCCCNCC(F)CN1c2cc(F)ccc2CCc2ccc(C)nc21

>  <score_type>  (14) 
oracle

>  <origin>  (14) 
adg

>  <m_score__min__energy>  (14) 
-6.0499999999999998

>  <m_primary>  (14) 
energy

$$$$
14:0
     RDKit          3D

 57 60  0  0  0  0  0  0  0  0999 V2000
   -0.5760   26.0150  -23.9800 C   0  0  0  0  0  0  0  0  0  0  0  0
   -1.6360   25.6300  -24.8480 O   0  0  0  0  0  0  0  0  0  0  0  0
   -1.4620   24.9820  -26.0790 C   0  0  0  0  0  0  0  0  0  0  0  0
   -0.4810   23.9950  -26.1690 C   0  0  0  0  0  0  0  0  0  0  0  0
   -0.2670   23.3150  -27.3660 C   0  0  0  0  0  0  0  0  0  0  0  0
   -1.0440   23.5990  -28.5020 C   0  0  0  0  0  0  0  0  0  0  0  0
   -0.7810   22.8330  -29.7840 C   0  0  0  0  0  0  0  0  0  0  0  0
   -1.5640   21.5830  -29.9130 N   0  0  0  0  0  0  0  0  0  0  0  0
   -3.0250   21.7080  -29.7540 C   0  0  0  0  0  0  0  0  0  0  0  0
   -3.7590   21.9800  -31.0880 C   0  0  0  0  0  0  0  0  0  0  0  0
   -2.9400   21.6610  -32.2800 N   0  0  0  0  0  0  0  0  0  0  0  0
   -3.8190   21.5420  -33.4650 C   0  0  0  0  0  0  0  0  0  0  0  0
   -4.9800   20.6170  -33.2010 C   0  0  0  0  0  0  0  0  0  0  0  0
   -4.8500   19.2270  -33.4410 C   0  0  0  0  0  0  0  0  0  0  0  0
   -5.9200   18.3490  -33.1800 C   0  0  0  0  0  0  0  0  0  0  0  0
   -5.7400   16.4720  -33.4880 Br  0  0  0  0  0  0  0  0  0  0  0  0
   -7.1020   18.8940  -32.6760 C   0  0  0  0  0  0  0  0  0  0  0  0
   -8.2940   18.2940  -32.3220 C   0  0  0  0  0  0  0  0  0  0  0  0
   -9.1130   19.3270  -31.8830 C   0  0  0  0  0  0  0  0  0  0  0  0
   -8.4620   20.5110  -31.9590 N   0  0  0  0  0  0  0  0  0  0  0  0
   -8.9950   21.8190  -31.5890 C   0  0  0  0  0  0  0  0  0  0  0  0
   -7.2370   20.2380  -32.4450 C   0  0  0  0  0  0  0  0  0  0  0  0
   -6.1960   21.1320  -32.7000 C   0  0  0  0  0  0  0  0  0  0  0  0
   -2.1840   20.4170  -32.0510 C   0  0  0  0  0  0  0  0  0  0  0  0
   -1.1250   20.6400  -30.9640 C   0  0  0  0  0  0  0  0  0  0  0  0
   -2.0180   24.6180  -28.4360 C   0  0  0  0  0  0  0  0  0  0  0  0
   -2.7400   24.9440  -29.5950 O   0  0  0  0  0  0  0  0  0  0  0  0
   -4.1450   24.7780  -29.7540 C   0  0  0  0  0  0  0  0  0  0  0  0
   -2.2270   25.2970  -27.2180 C   0  0  0  0  0  0  0  0  0  0  0  0
   -0.8974   25.8982  -22.9345 H   0  0  0  0  0  0  0  0  0  0  0  0
    0.3010   25.3780  -24.1673 H   0  0  0  0  0  0  0  0  0  0  0  0
   -0.3122   27.0664  -24.1673 H   0  0  0  0  0  0  0  0  0  0  0  0
    0.1294   23.7511  -25.2870 H   0  0  0  0  0  0  0  0  0  0  0  0
    0.5188   22.5473  -27.4225 H   0  0  0  0  0  0  0  0  0  0  0  0
   -1.0300   23.4858  -30.6337 H   0  0  0  0  0  0  0  0  0  0  0  0
    0.2798   22.5425  -29.7679 H   0  0  0  0  0  0  0  0  0  0  0  0
   -3.4120   20.7715  -29.3260 H   0  0  0  0  0  0  0  0  0  0  0  0
   -3.2110   22.5693  -29.0956 H   0  0  0  0  0  0  0  0  0  0  0  0
   -4.6715   21.3664  -31.1164 H   0  0  0  0  0  0  0  0  0  0  0  0
   -3.9835   23.0562  -31.1241 H   0  0  0  0  0  0  0  0  0  0  0  0
   -4.2073   22.5382  -33.7235 H   0  0  0  0  0  0  0  0  0  0  0  0
   -3.2272   21.1254  -34.2933 H   0  0  0  0  0  0  0  0  0  0  0  0
   -3.9034   18.8291  -33.8354 H   0  0  0  0  0  0  0  0  0  0  0  0
   -8.5428   17.2239  -32.3761 H   0  0  0  0  0  0  0  0  0  0  0  0
  -10.1451   19.2003  -31.5242 H   0  0  0  0  0  0  0  0  0  0  0  0
   -9.0297   21.9041  -30.4928 H   0  0  0  0  0  0  0  0  0  0  0  0
   -8.3467   22.6081  -31.9977 H   0  0  0  0  0  0  0  0  0  0  0  0
  -10.0102   21.9302  -31.9977 H   0  0  0  0  0  0  0  0  0  0  0  0
   -6.3193   22.2094  -32.5156 H   0  0  0  0  0  0  0  0  0  0  0  0
   -2.8755   19.6244  -31.7289 H   0  0  0  0  0  0  0  0  0  0  0  0
   -1.6856   20.1198  -32.9855 H   0  0  0  0  0  0  0  0  0  0  0  0
   -0.8969   19.6723  -30.4933 H   0  0  0  0  0  0  0  0  0  0  0  0
   -0.2416   21.0788  -31.4510 H   0  0  0  0  0  0  0  0  0  0  0  0
   -4.6219   24.7217  -28.7643 H   0  0  0  0  0  0  0  0  0  0  0  0
   -4.5547   25.6340  -30.3103 H   0  0  0  0  0  0  0  0  0  0  0  0
   -4.3440   23.8501  -30.3103 H   0  0  0  0  0  0  0  0  0  0  0  0
   -2.9960   26.0812  -27.1572 H   0  0  0  0  0  0  0  0  0  0  0  0
  1  2  1  0
  2  3  1  0
  3  4  2  0
  4  5  1  0
  5  6  2  0
  6  7  1  0
  7  8  1  0
  8  9  1  0
  9 10  1  0
 10 11  1  0
 11 12  1  0
 12 13  1  0
 13 14  2  0
 14 15  1  0
 15 16  1  0
 15 17  2  0
 17 18  1  0
 18 19  2  0
 19 20  1  0
 20 21  1  0
 20 22  1  0
 22 23  2  0
 11 24  1  0
 24 25  1  0
  6 26  1  0
 26 27  1  0
 27 28  1  0
 26 29  2  0
 29  3  1  0
 25  8  1  0
 23 13  1  0
 22 17  1  0
  1 30  1  0
  1 31  1  0
  1 32  1  0
  4 33  1  0
  5 34  1  0
  7 35  1  0
  7 36  1  0
  9 37  1  0
  9 38  1  0
 10 39  1  0
 10 40  1  0
 12 41  1  0
 12 42  1  0
 14 43  1  0
 18 44  1  0
 19 45  1  0
 21 46  1  0
 21 47  1  0
 21 48  1  0
 23 49  1  0
 24 50  1  0
 24 51  1  0
 25 52  1  0
 25 53  1  0
 28 54  1  0
 28 55  1  0
 28 56  1  0
 29 57  1  0
M  END
>  <UniqueID>  (15) 
14

>  <SMILES>  (15) 
COc1ccc(CN2CCN(Cc3cc(Br)c4ccn(C)c4c3)CC2)c(OC)c1

>  <Energy>  (15) 
102.92578931892494

>  <Genealogy>  (15) 
COc1ccc(CN2CCN(Cc3cc(Br)c4ccn(C)c4c3)CC2)c(OC)c1 (3D coordinates assigned)
COc1ccc(CN2CCN(Cc3cc(Br)c4ccn(C)c4c3)CC2)c(OC)c1 (nonaromatic ring conformer: 102.92578931892494 kcal/mol)

>  <smiles>  (15) 
COc1ccc(CN2CCN(Cc3cc(Br)c4ccn(C)c4c3)CC2)c(OC)c1

>  <score_type>  (15) 
oracle

>  <origin>  (15) 
adg

>  <m_score__min__energy>  (15) 
-9.2200000000000006

>  <m_primary>  (15) 
energy

$$$$
15:0
     RDKit          3D

 53 56  0  0  0  0  0  0  0  0999 V2000
    2.2740   23.7625  -26.3621 H   0  0  0  0  0  0  0  0  0  0  0  0
    1.3770   24.1110  -26.8950 C   0  0  0  0  0  0  0  0  0  0  0  0
    0.6640   23.2460  -27.6640 N   0  0  0  0  0  0  0  0  0  0  0  0
   -0.4550   23.6190  -28.3460 C   0  0  0  0  0  0  0  0  0  0  0  0
   -1.1980   22.7070  -29.1480 C   0  0  0  0  0  0  0  0  0  0  0  0
   -0.8810   21.4430  -29.2920 N   0  0  0  0  0  0  0  0  0  0  0  0
   -1.3130   20.2410  -28.5740 C   0  0  1  0  0  0  0  0  0  0  0  0
   -1.7716   19.5422  -29.2891 H   0  0  0  0  0  0  0  0  0  0  0  0
   -0.1080   19.5460  -27.9060 C   0  0  0  0  0  0  0  0  0  0  0  0
    0.3286   20.2308  -27.1641 H   0  0  0  0  0  0  0  0  0  0  0  0
    0.6155   19.2946  -28.6955 H   0  0  0  0  0  0  0  0  0  0  0  0
   -0.4900   18.2910  -27.2270 N   0  0  0  0  0  0  0  0  0  0  0  0
   -0.3730   17.4990  -27.9020 H   0  0  0  0  0  0  0  0  0  0  0  0
   -1.8800   18.2630  -26.7290 C   0  0  0  0  0  0  0  0  0  0  0  0
   -1.9305   17.5925  -25.8584 H   0  0  0  0  0  0  0  0  0  0  0  0
   -2.5237   17.9078  -27.5473 H   0  0  0  0  0  0  0  0  0  0  0  0
   -2.3760   19.6520  -26.3110 C   0  0  0  0  0  0  0  0  0  0  0  0
   -1.7358   20.0315  -25.5010 H   0  0  0  0  0  0  0  0  0  0  0  0
   -3.4192   19.5594  -25.9745 H   0  0  0  0  0  0  0  0  0  0  0  0
   -2.3340   20.6440  -27.4890 C   0  0  0  0  0  0  0  0  0  0  0  0
   -2.0624   21.6374  -27.1024 H   0  0  0  0  0  0  0  0  0  0  0  0
   -3.3300   20.6462  -27.9559 H   0  0  0  0  0  0  0  0  0  0  0  0
   -2.3460   23.1860  -29.8380 C   0  0  0  0  0  0  0  0  0  0  0  0
   -3.1840   22.2580  -30.6950 C   0  0  0  0  0  0  0  0  0  0  0  0
   -3.7796   21.5984  -30.0468 H   0  0  0  0  0  0  0  0  0  0  0  0
   -3.8568   22.8530  -31.3300 H   0  0  0  0  0  0  0  0  0  0  0  0
   -2.5236   21.6492  -31.3300 H   0  0  0  0  0  0  0  0  0  0  0  0
   -2.7120   24.5500  -29.7200 C   0  0  0  0  0  0  0  0  0  0  0  0
   -3.8500   25.0890  -30.4180 N   0  0  0  0  0  0  0  0  0  0  0  0
   -3.7140   25.6620  -31.2790 H   0  0  0  0  0  0  0  0  0  0  0  0
   -5.2130   24.8740  -29.9270 C   0  0  0  0  0  0  0  0  0  0  0  0
   -5.2499   23.9177  -29.3846 H   0  0  0  0  0  0  0  0  0  0  0  0
   -5.4756   25.7125  -29.2653 H   0  0  0  0  0  0  0  0  0  0  0  0
   -6.2300   24.8340  -31.0760 C   0  0  0  0  0  0  0  0  0  0  0  0
   -7.1346   25.3809  -30.7715 H   0  0  0  0  0  0  0  0  0  0  0  0
   -5.7693   25.2989  -31.9601 H   0  0  0  0  0  0  0  0  0  0  0  0
   -6.6100   23.4180  -31.4310 C   0  0  0  0  0  0  0  0  0  0  0  0
   -7.7740   22.8370  -30.8980 C   0  0  0  0  0  0  0  0  0  0  0  0
   -8.4023   23.4099  -30.2001 H   0  0  0  0  0  0  0  0  0  0  0  0
   -8.1360   21.5330  -31.2520 C   0  0  0  0  0  0  0  0  0  0  0  0
   -9.0463   21.0817  -30.8304 H   0  0  0  0  0  0  0  0  0  0  0  0
   -7.3420   20.8030  -32.1410 C   0  0  0  0  0  0  0  0  0  0  0  0
   -7.6275   19.7774  -32.4180 H   0  0  0  0  0  0  0  0  0  0  0  0
   -6.1860   21.3750  -32.6780 C   0  0  0  0  0  0  0  0  0  0  0  0
   -5.5627   20.7993  -33.3781 H   0  0  0  0  0  0  0  0  0  0  0  0
   -5.8200   22.6780  -32.3270 C   0  0  0  0  0  0  0  0  0  0  0  0
   -4.9103   23.1255  -32.7538 H   0  0  0  0  0  0  0  0  0  0  0  0
   -1.9760   25.3770  -28.9330 N   0  0  0  0  0  0  0  0  0  0  0  0
   -0.8830   24.9590  -28.2550 C   0  0  0  0  0  0  0  0  0  0  0  0
   -0.1650   25.8650  -27.4680 C   0  0  0  0  0  0  0  0  0  0  0  0
   -0.4963   26.9111  -27.3907 H   0  0  0  0  0  0  0  0  0  0  0  0
    0.9710   25.4400  -26.7820 C   0  0  0  0  0  0  0  0  0  0  0  0
    1.5408   26.1448  -26.1586 H   0  0  0  0  0  0  0  0  0  0  0  0
  1  2  1  0
  2  3  2  0
  3  4  1  0
  4  5  1  0
  5  6  2  0
  6  7  1  0
  7  8  1  6
  7  9  1  0
  9 10  1  0
  9 11  1  0
  9 12  1  0
 12 13  1  0
 12 14  1  0
 14 15  1  0
 14 16  1  0
 14 17  1  0
 17 18  1  0
 17 19  1  0
 17 20  1  0
 20 21  1  0
 20 22  1  0
  5 23  1  0
 23 24  1  0
 24 25  1  0
 24 26  1  0
 24 27  1  0
 23 28  2  0
 28 29  1  0
 29 30  1  0
 29 31  1  0
 31 32  1  0
 31 33  1  0
 31 34  1  0
 34 35  1  0
 34 36  1  0
 34 37  1  0
 37 38  2  0
 38 39  1  0
 38 40  1  0
 40 41  1  0
 40 42  2  0
 42 43  1  0
 42 44  1  0
 44 45  1  0
 44 46  2  0
 46 47  1  0
 28 48  1  0
 48 49  1  0
 49 50  1  0
 50 51  1  0
 50 52  2  0
 52 53  1  0
 52  2  1  0
 49  4  2  0
 20  7  1  0
 46 37  1  0
M  CHG  1  48  -1
M  END
>  <UniqueID>  (16) 
15

>  <SMILES>  (16) 
Cc1c(NCCc2ccccc2)[n-]c2cccnc2/c1=N\[C@@H]1CCCNC1

>  <Energy>  (16) 
71.45068211989975

>  <Genealogy>  (16) 
Cc1c(NCCc2ccccc2)[n-]c2cccnc2c1=NC1CCCNC1 (protonated)
Cc1c(NCCc2ccccc2)[n-]c2cccnc2c1=N[C@@H]1CCCNC1 (chirality)
Cc1c(NCCc2ccccc2)[n-]c2cccnc2/c1=N\[C@@H]1CCCNC1 (cis-trans isomerization)
Cc1c(NCCc2ccccc2)[n-]c2cccnc2/c1=N\[C@@H]1CCCNC1 (3D coordinates assigned)
Cc1c(NCCc2ccccc2)[n-]c2cccnc2/c1=N\[C@@H]1CCCNC1 (nonaromatic ring conformer: 71.45068211989975 kcal/mol)

>  <smiles>  (16) 
Cc1c(NCCc2ccccc2)[nH]c2cccnc2c1=NC1CCCNC1

>  <score_type>  (16) 
oracle

>  <origin>  (16) 
adg

>  <m_score__min__energy>  (16) 
-10.92

>  <m_primary>  (16) 
energy

$$$$
16:0
     RDKit          3D

 39 40  0  0  0  0  0  0  0  0999 V2000
   -5.3620   19.4720  -32.0660 C   0  0  0  0  0  0  0  0  0  0  0  0
   -6.5420   19.2300  -32.9140 N   0  0  0  0  0  0  0  0  0  0  0  0
   -6.1100   18.6290  -34.1890 C   0  0  0  0  0  0  0  0  0  0  0  0
   -7.5040   18.3500  -32.2160 C   0  0  0  0  0  0  0  0  0  0  0  0
   -8.9300   18.9260  -32.3130 C   0  0  0  0  0  0  0  0  0  0  0  0
   -8.9330   20.3210  -32.7980 N   0  0  0  0  0  0  0  0  0  0  0  0
   -9.1030   21.3100  -31.7220 C   0  0  0  0  0  0  0  0  0  0  0  0
   -7.8390   22.0840  -31.4600 C   0  0  0  0  0  0  0  0  0  0  0  0
   -7.6220   22.7010  -30.2220 C   0  0  0  0  0  0  0  0  0  0  0  0
   -6.4740   23.4730  -30.0330 C   0  0  0  0  0  0  0  0  0  0  0  0
   -5.5600   23.6440  -31.0870 C   0  0  0  0  0  0  0  0  0  0  0  0
   -4.3520   24.4080  -30.9390 N   0  0  0  0  0  0  0  0  0  0  0  0
   -3.3120   24.0880  -30.2260 C   0  0  0  0  0  0  0  0  0  0  0  0
   -2.7470   22.8520  -30.3130 N   0  0  0  0  0  0  0  0  0  0  0  0
   -1.6760   22.5130  -29.5480 C   0  0  0  0  0  0  0  0  0  0  0  0
   -1.1450   23.4370  -28.6490 C   0  0  0  0  0  0  0  0  0  0  0  0
    0.3580   22.9890  -27.5600 Br  0  0  0  0  0  0  0  0  0  0  0  0
   -1.7390   24.6950  -28.5620 C   0  0  0  0  0  0  0  0  0  0  0  0
   -2.8090   24.9940  -29.3460 N   0  0  0  0  0  0  0  0  0  0  0  0
   -5.8000   22.9800  -32.2940 C   0  0  0  0  0  0  0  0  0  0  0  0
   -6.9270   22.2370  -32.4580 N   0  0  0  0  0  0  0  0  0  0  0  0
   -5.6531   19.4123  -31.0069 H   0  0  0  0  0  0  0  0  0  0  0  0
   -4.5954   18.7124  -32.2789 H   0  0  0  0  0  0  0  0  0  0  0  0
   -4.9563   20.4720  -32.2789 H   0  0  0  0  0  0  0  0  0  0  0  0
   -5.4791   17.7512  -33.9854 H   0  0  0  0  0  0  0  0  0  0  0  0
   -6.9936   18.3195  -34.7664 H   0  0  0  0  0  0  0  0  0  0  0  0
   -5.5350   19.3679  -34.7664 H   0  0  0  0  0  0  0  0  0  0  0  0
   -7.4841   17.3524  -32.6791 H   0  0  0  0  0  0  0  0  0  0  0  0
   -7.2192   18.2813  -31.1557 H   0  0  0  0  0  0  0  0  0  0  0  0
   -9.5161   18.3073  -33.0085 H   0  0  0  0  0  0  0  0  0  0  0  0
   -9.3688   18.9167  -31.3044 H   0  0  0  0  0  0  0  0  0  0  0  0
   -8.0690   20.5390  -33.3500 H   0  0  0  0  0  0  0  0  0  0  0  0
   -9.8972   22.0145  -32.0100 H   0  0  0  0  0  0  0  0  0  0  0  0
   -9.3653   20.7677  -30.8016 H   0  0  0  0  0  0  0  0  0  0  0  0
   -8.3492   22.5787  -29.4058 H   0  0  0  0  0  0  0  0  0  0  0  0
   -6.2848   23.9476  -29.0588 H   0  0  0  0  0  0  0  0  0  0  0  0
   -1.2291   21.5119  -29.6379 H   0  0  0  0  0  0  0  0  0  0  0  0
   -1.3430   25.4442  -27.8607 H   0  0  0  0  0  0  0  0  0  0  0  0
   -5.0729   23.0592  -33.1156 H   0  0  0  0  0  0  0  0  0  0  0  0
  1  2  1  0
  2  3  1  0
  2  4  1  0
  4  5  1  0
  5  6  1  0
  6  7  1  0
  7  8  1  0
  8  9  2  0
  9 10  1  0
 10 11  2  0
 11 12  1  0
 12 13  2  3
 13 14  1  0
 14 15  2  0
 15 16  1  0
 16 17  1  0
 16 18  2  0
 18 19  1  0
 11 20  1  0
 20 21  2  0
 21  8  1  0
 19 13  1  0
  1 22  1  0
  1 23  1  0
  1 24  1  0
  3 25  1  0
  3 26  1  0
  3 27  1  0
  4 28  1  0
  4 29  1  0
  5 30  1  0
  5 31  1  0
  6 32  1  0
  7 33  1  0
  7 34  1  0
  9 35  1  0
 10 36  1  0
 15 37  1  0
 18 38  1  0
 20 39  1  0
M  CHG  1  19  -1
M  END
>  <UniqueID>  (17) 
16

>  <SMILES>  (17) 
CN(C)CCNCc1ccc(N=c2ncc(Br)c[n-]2)cn1

>  <Energy>  (17) 
46.45771663996251

>  <Genealogy>  (17) 
CN(C)CCNCc1ccc(N=c2ncc(Br)c[n-]2)cn1 (protonated)
CN(C)CCNCc1ccc(N=c2ncc(Br)c[n-]2)cn1 (3D coordinates assigned)
CN(C)CCNCc1ccc(N=c2ncc(Br)c[n-]2)cn1 (optimized conformer: 46.45771663996251 kcal/mol)

>  <smiles>  (17) 
CN(C)CCNCc1ccc(N=c2ncc(Br)c[nH]2)cn1

>  <score_type>  (17) 
oracle

>  <origin>  (17) 
adg

>  <m_score__min__energy>  (17) 
-8.3699999999999992

>  <m_primary>  (17) 
energy

$$$$
17:0
     RDKit          3D

 35 36  0  0  0  0  0  0  0  0999 V2000
   -3.0990   20.8950  -29.8930 C   0  0  0  0  0  0  0  0  0  0  0  0
   -2.6260   21.9360  -31.3090 S   0  0  0  0  0  0  0  0  0  0  0  0
   -4.0350   23.0380  -31.1250 C   0  0  0  0  0  0  0  0  0  0  0  0
   -3.8610   24.1860  -30.4140 N   0  0  0  0  0  0  0  0  0  0  0  0
   -4.8630   25.0850  -30.2380 C   0  0  0  0  0  0  0  0  0  0  0  0
   -6.1210   24.8460  -30.7890 C   0  0  0  0  0  0  0  0  0  0  0  0
   -6.3340   23.6770  -31.5190 C   0  0  0  0  0  0  0  0  0  0  0  0
   -5.2920   22.7560  -31.7060 C   0  0  0  0  0  0  0  0  0  0  0  0
   -5.5510   21.5060  -32.4550 C   0  0  0  0  0  0  0  0  0  0  0  0
   -4.8400   21.2410  -33.4630 O   0  0  0  0  0  0  0  0  0  0  0  0
   -6.5870   20.5850  -32.0470 N   0  0  0  0  0  0  0  0  0  0  0  0
   -7.8620   21.1390  -31.5390 C   0  0  0  0  0  0  0  0  0  0  0  0
   -9.0940   20.7520  -32.3780 C   0  0  0  0  0  0  0  0  0  0  0  0
   -9.2410   19.2380  -32.6280 C   0  0  0  0  0  0  0  0  0  0  0  0
   -8.7480   18.3300  -31.4900 C   0  0  0  0  0  0  0  0  0  0  0  0
   -7.2210   18.2470  -31.3670 C   0  0  0  0  0  0  0  0  0  0  0  0
   -6.4260   19.1460  -32.3360 C   0  0  0  0  0  0  0  0  0  0  0  0
   -2.8605   21.4199  -28.9562 H   0  0  0  0  0  0  0  0  0  0  0  0
   -4.1789   20.6895  -29.9335 H   0  0  0  0  0  0  0  0  0  0  0  0
   -2.5435   19.9464  -29.9335 H   0  0  0  0  0  0  0  0  0  0  0  0
   -4.6820   26.0031  -29.6599 H   0  0  0  0  0  0  0  0  0  0  0  0
   -6.9363   25.5712  -30.6496 H   0  0  0  0  0  0  0  0  0  0  0  0
   -7.3254   23.4756  -31.9510 H   0  0  0  0  0  0  0  0  0  0  0  0
   -8.0136   20.7723  -30.5131 H   0  0  0  0  0  0  0  0  0  0  0  0
   -7.7747   22.2343  -31.5900 H   0  0  0  0  0  0  0  0  0  0  0  0
   -9.9936   21.1032  -31.8513 H   0  0  0  0  0  0  0  0  0  0  0  0
   -8.9645   21.2229  -33.3636 H   0  0  0  0  0  0  0  0  0  0  0  0
  -10.3069   19.0238  -32.7953 H   0  0  0  0  0  0  0  0  0  0  0  0
   -8.6026   19.0109  -33.4945 H   0  0  0  0  0  0  0  0  0  0  0  0
   -9.1498   18.7166  -30.5418 H   0  0  0  0  0  0  0  0  0  0  0  0
   -9.1018   17.3143  -31.7208 H   0  0  0  0  0  0  0  0  0  0  0  0
   -6.9480   18.5313  -30.3401 H   0  0  0  0  0  0  0  0  0  0  0  0
   -6.9533   17.2123  -31.6272 H   0  0  0  0  0  0  0  0  0  0  0  0
   -5.3592   18.8894  -32.2577 H   0  0  0  0  0  0  0  0  0  0  0  0
   -6.8166   18.9667  -33.3486 H   0  0  0  0  0  0  0  0  0  0  0  0
  1  2  1  0
  2  3  1  0
  3  4  2  0
  4  5  1  0
  5  6  2  0
  6  7  1  0
  7  8  2  0
  8  9  1  0
  9 10  2  0
  9 11  1  0
 11 12  1  0
 12 13  1  0
 13 14  1  0
 14 15  1  0
 15 16  1  0
 16 17  1  0
  8  3  1  0
 17 11  1  0
  1 18  1  0
  1 19  1  0
  1 20  1  0
  5 21  1  0
  6 22  1  0
  7 23  1  0
 12 24  1  0
 12 25  1  0
 13 26  1  0
 13 27  1  0
 14 28  1  0
 14 29  1  0
 15 30  1  0
 15 31  1  0
 16 32  1  0
 16 33  1  0
 17 34  1  0
 17 35  1  0
M  END
>  <UniqueID>  (18) 
17

>  <SMILES>  (18) 
CSc1ncccc1C(=O)N1CCCCCC1

>  <Energy>  (18) 
42.77251670608659

>  <Genealogy>  (18) 
CSc1ncccc1C(=O)N1CCCCCC1 (3D coordinates assigned)
CSc1ncccc1C(=O)N1CCCCCC1 (nonaromatic ring conformer: 42.77251670608659 kcal/mol)

>  <smiles>  (18) 
CSc1ncccc1C(=O)N1CCCCCC1

>  <score_type>  (18) 
oracle

>  <origin>  (18) 
adg

>  <m_score__min__energy>  (18) 
-5.2599999999999998

>  <m_primary>  (18) 
energy

$$$$
18:0
     RDKit          3D

 33 35  0  0  0  0  0  0  0  0999 V2000
   -5.4710   24.9700  -28.7210 O   0  0  0  0  0  0  0  0  0  0  0  0
   -5.1920   25.0140  -30.1970 S   0  0  0  0  0  0  0  0  0  0  0  0
   -5.7090   26.3090  -30.7580 O   0  0  0  0  0  0  0  0  0  0  0  0
   -3.4800   24.9210  -30.4570 N   0  0  0  0  0  0  0  0  0  0  0  0
   -2.5510   24.2420  -29.6020 C   0  0  0  0  0  0  0  0  0  0  0  0
   -1.8980   24.8920  -28.5380 C   0  0  0  0  0  0  0  0  0  0  0  0
   -0.9930   24.1890  -27.7350 C   0  0  0  0  0  0  0  0  0  0  0  0
   -0.7350   22.8390  -27.9830 C   0  0  0  0  0  0  0  0  0  0  0  0
    0.1420   22.1610  -27.2020 F   0  0  0  0  0  0  0  0  0  0  0  0
   -1.3830   22.1870  -29.0360 C   0  0  0  0  0  0  0  0  0  0  0  0
   -2.2870   22.8860  -29.8410 C   0  0  0  0  0  0  0  0  0  0  0  0
   -5.9870   23.6560  -30.9690 C   0  0  0  0  0  0  0  0  0  0  0  0
   -7.3110   23.6190  -31.3750 C   0  0  0  0  0  0  0  0  0  0  0  0
   -7.6770   22.3920  -31.9420 C   0  0  0  0  0  0  0  0  0  0  0  0
   -6.6380   21.4590  -31.9830 C   0  0  0  0  0  0  0  0  0  0  0  0
   -6.7060   20.0740  -32.5180 C   0  0  0  0  0  0  0  0  0  0  0  0
   -5.9260   19.6830  -33.6260 C   0  0  0  0  0  0  0  0  0  0  0  0
   -6.0000   18.3770  -34.1200 C   0  0  0  0  0  0  0  0  0  0  0  0
   -6.8490   17.4460  -33.5210 C   0  0  0  0  0  0  0  0  0  0  0  0
   -7.6300   17.8200  -32.4250 C   0  0  0  0  0  0  0  0  0  0  0  0
   -7.5610   19.1240  -31.9260 C   0  0  0  0  0  0  0  0  0  0  0  0
   -5.2670   22.1800  -31.3070 S   0  0  0  0  0  0  0  0  0  0  0  0
   -2.0995   25.9546  -28.3373 H   0  0  0  0  0  0  0  0  0  0  0  0
   -0.4831   24.7013  -26.9058 H   0  0  0  0  0  0  0  0  0  0  0  0
   -1.1815   21.1234  -29.2312 H   0  0  0  0  0  0  0  0  0  0  0  0
   -2.7950   22.3684  -30.6681 H   0  0  0  0  0  0  0  0  0  0  0  0
   -8.0036   24.4663  -31.2635 H   0  0  0  0  0  0  0  0  0  0  0  0
   -8.6885   22.1823  -32.3200 H   0  0  0  0  0  0  0  0  0  0  0  0
   -5.2545   20.4107  -34.1051 H   0  0  0  0  0  0  0  0  0  0  0  0
   -5.3865   18.0825  -34.9842 H   0  0  0  0  0  0  0  0  0  0  0  0
   -6.9033   16.4190  -33.9112 H   0  0  0  0  0  0  0  0  0  0  0  0
   -8.3009   17.0868  -31.9535 H   0  0  0  0  0  0  0  0  0  0  0  0
   -8.1801   19.4108  -31.0632 H   0  0  0  0  0  0  0  0  0  0  0  0
  1  2  2  0
  2  3  2  0
  2  4  1  0
  4  5  1  0
  5  6  2  0
  6  7  1  0
  7  8  2  0
  8  9  1  0
  8 10  1  0
 10 11  2  0
  2 12  1  0
 12 13  2  0
 13 14  1  0
 14 15  2  0
 15 16  1  0
 16 17  2  0
 17 18  1  0
 18 19  2  0
 19 20  1  0
 20 21  2  0
 15 22  1  0
 11  5  1  0
 22 12  1  0
 21 16  1  0
  6 23  1  0
  7 24  1  0
 10 25  1  0
 11 26  1  0
 13 27  1  0
 14 28  1  0
 17 29  1  0
 18 30  1  0
 19 31  1  0
 20 32  1  0
 21 33  1  0
M  CHG  1   4  -1
M  END
>  <UniqueID>  (19) 
18

>  <SMILES>  (19) 
O=S(=O)([N-]c1ccc(F)cc1)c1ccc(-c2ccccc2)s1

>  <Energy>  (19) 
67.37802721471544

>  <Genealogy>  (19) 
O=S(=O)([N-]c1ccc(F)cc1)c1ccc(-c2ccccc2)s1 (protonated)
O=S(=O)([N-]c1ccc(F)cc1)c1ccc(-c2ccccc2)s1 (3D coordinates assigned)
O=S(=O)([N-]c1ccc(F)cc1)c1ccc(-c2ccccc2)s1 (optimized conformer: 67.37802721471544 kcal/mol)

>  <smiles>  (19) 
O=S(=O)(Nc1ccc(F)cc1)c1ccc(-c2ccccc2)s1

>  <score_type>  (19) 
oracle

>  <origin>  (19) 
adg

>  <m_score__min__energy>  (19) 
-9.8399999999999999

>  <m_primary>  (19) 
energy

$$$$
19:0
     RDKit          3D

 25 26  0  0  0  0  0  0  0  0999 V2000
   -9.3124   21.3381  -30.4619 H   0  0  0  0  0  0  0  0  0  0  0  0
   -8.3320   21.6250  -30.8700 C   0  0  0  0  0  0  0  0  0  0  0  0
   -7.6310   22.6990  -30.3120 C   0  0  0  0  0  0  0  0  0  0  0  0
   -8.0614   23.2546  -29.4658 H   0  0  0  0  0  0  0  0  0  0  0  0
   -6.3820   23.0690  -30.8280 C   0  0  0  0  0  0  0  0  0  0  0  0
   -5.5230   24.4380  -30.1280 S   0  0  0  0  0  0  0  0  0  0  0  0
   -6.4810   25.3890  -29.4670 O   0  0  0  0  0  0  0  0  0  0  0  0
   -4.7950   25.1680  -31.2200 O   0  0  0  0  0  0  0  0  0  0  0  0
   -4.3800   23.8700  -28.9570 N   0  0  0  0  0  0  0  0  0  0  0  0
   -3.2880   24.5120  -28.6860 C   0  0  0  0  0  0  0  0  0  0  0  0
   -2.6290   25.2620  -29.5370 O   0  0  0  0  0  0  0  0  0  0  0  0
   -1.5780   25.7800  -28.9690 N   0  0  0  0  0  0  0  0  0  0  0  0
   -1.5610   25.3280  -27.6970 C   0  0  0  0  0  0  0  0  0  0  0  0
   -0.5500   25.7390  -26.6800 C   0  0  0  0  0  0  0  0  0  0  0  0
   -0.9565   25.5738  -25.6713 H   0  0  0  0  0  0  0  0  0  0  0  0
    0.3642   25.1411  -26.8094 H   0  0  0  0  0  0  0  0  0  0  0  0
   -0.3123   26.8052  -26.8094 H   0  0  0  0  0  0  0  0  0  0  0  0
   -2.6540   24.5150  -27.4660 C   0  0  0  0  0  0  0  0  0  0  0  0
   -2.9442   23.9994  -26.5386 H   0  0  0  0  0  0  0  0  0  0  0  0
   -5.8410   22.3590  -31.9090 C   0  0  0  0  0  0  0  0  0  0  0  0
   -4.8627   22.6486  -32.3202 H   0  0  0  0  0  0  0  0  0  0  0  0
   -6.5410   21.2830  -32.4670 C   0  0  0  0  0  0  0  0  0  0  0  0
   -6.0080   20.6040  -33.5130 F   0  0  0  0  0  0  0  0  0  0  0  0
   -7.7890   20.9150  -31.9460 C   0  0  0  0  0  0  0  0  0  0  0  0
   -8.6780   19.5690  -32.6390 Cl  0  0  0  0  0  0  0  0  0  0  0  0
  1  2  1  0
  2  3  2  0
  3  4  1  0
  3  5  1  0
  5  6  1  0
  6  7  2  0
  6  8  2  0
  6  9  1  0
  9 10  2  0
 10 11  1  0
 11 12  1  0
 12 13  1  0
 13 14  1  0
 14 15  1  0
 14 16  1  0
 14 17  1  0
 13 18  2  0
 18 19  1  0
  5 20  2  0
 20 21  1  0
 20 22  1  0
 22 23  1  0
 22 24  2  0
 24 25  1  0
 24  2  1  0
 18 10  1  0
M  CHG  1  12  -1
M  END
>  <UniqueID>  (20) 
19

>  <SMILES>  (20) 
Cc1c/c(=N/S(=O)(=O)c2ccc(Cl)c(F)c2)o[n-]1

>  <Energy>  (20) 
57.87958399666683

>  <Genealogy>  (20) 
Cc1cc(=NS(=O)(=O)c2ccc(Cl)c(F)c2)o[n-]1 (protonated)
Cc1c/c(=N/S(=O)(=O)c2ccc(Cl)c(F)c2)o[n-]1 (cis-trans isomerization)
Cc1c/c(=N/S(=O)(=O)c2ccc(Cl)c(F)c2)o[n-]1 (3D coordinates assigned)
Cc1c/c(=N/S(=O)(=O)c2ccc(Cl)c(F)c2)o[n-]1 (optimized conformer: 57.87958399666683 kcal/mol)

>  <smiles>  (20) 
Cc1cc(=NS(=O)(=O)c2ccc(Cl)c(F)c2)o[nH]1

>  <score_type>  (20) 
oracle

>  <origin>  (20) 
adg

>  <m_score__min__energy>  (20) 
-10.4

>  <m_primary>  (20) 
energy

$$$$
20:0
     RDKit          3D

 32 33  0  0  0  0  0  0  0  0999 V2000
   -3.4870   22.5430  -31.4350 C   0  0  0  0  0  0  0  0  0  0  0  0
   -4.7870   23.1690  -31.1550 N   0  0  0  0  0  0  0  0  0  0  0  0
   -4.8600   24.5510  -30.7470 C   0  0  0  0  0  0  0  0  0  0  0  0
   -3.8140   25.2020  -30.4740 O   0  0  0  0  0  0  0  0  0  0  0  0
   -6.1850   25.2500  -30.7090 C   0  0  0  0  0  0  0  0  0  0  0  0
   -7.2390   24.3370  -30.4100 O   0  0  0  0  0  0  0  0  0  0  0  0
   -7.2250   23.0080  -30.8430 C   0  0  0  0  0  0  0  0  0  0  0  0
   -8.4160   22.2770  -30.8500 C   0  0  0  0  0  0  0  0  0  0  0  0
   -8.4230   20.9520  -31.2860 C   0  0  0  0  0  0  0  0  0  0  0  0
   -7.2370   20.3440  -31.7120 C   0  0  0  0  0  0  0  0  0  0  0  0
   -7.2470   18.6630  -32.2520 S   0  0  0  0  0  0  0  0  0  0  0  0
   -6.5140   17.8160  -31.2490 O   0  0  0  0  0  0  0  0  0  0  0  0
   -8.6670   18.1740  -32.3220 O   0  0  0  0  0  0  0  0  0  0  0  0
   -6.4950   18.4880  -33.8190 N   0  0  0  0  0  0  0  0  0  0  0  0
   -5.1180   18.9960  -33.7720 C   0  0  0  0  0  0  0  0  0  0  0  0
   -6.5020   17.0770  -34.2200 C   0  0  0  0  0  0  0  0  0  0  0  0
   -6.0380   21.0700  -31.6920 C   0  0  0  0  0  0  0  0  0  0  0  0
   -6.0170   22.4100  -31.2490 C   0  0  0  0  0  0  0  0  0  0  0  0
   -2.9847   22.3011  -30.4868 H   0  0  0  0  0  0  0  0  0  0  0  0
   -3.6414   21.6205  -32.0139 H   0  0  0  0  0  0  0  0  0  0  0  0
   -2.8620   23.2389  -32.0139 H   0  0  0  0  0  0  0  0  0  0  0  0
   -6.1567   26.0317  -29.9356 H   0  0  0  0  0  0  0  0  0  0  0  0
   -6.3755   25.6915  -31.6983 H   0  0  0  0  0  0  0  0  0  0  0  0
   -9.3505   22.7478  -30.5108 H   0  0  0  0  0  0  0  0  0  0  0  0
   -9.3644   20.3830  -31.2949 H   0  0  0  0  0  0  0  0  0  0  0  0
   -4.8053   19.1114  -32.7237 H   0  0  0  0  0  0  0  0  0  0  0  0
   -4.4477   18.2860  -34.2785 H   0  0  0  0  0  0  0  0  0  0  0  0
   -5.0695   19.9712  -34.2785 H   0  0  0  0  0  0  0  0  0  0  0  0
   -6.5052   16.4408  -33.3226 H   0  0  0  0  0  0  0  0  0  0  0  0
   -7.4012   16.8705  -34.8190 H   0  0  0  0  0  0  0  0  0  0  0  0
   -5.6049   16.8616  -34.8190 H   0  0  0  0  0  0  0  0  0  0  0  0
   -5.1052   20.5911  -32.0245 H   0  0  0  0  0  0  0  0  0  0  0  0
  1  2  1  0
  2  3  1  0
  3  4  2  0
  3  5  1  0
  5  6  1  0
  6  7  1  0
  7  8  2  0
  8  9  1  0
  9 10  2  0
 10 11  1  0
 11 12  2  0
 11 13  2  0
 11 14  1  0
 14 15  1  0
 14 16  1  0
 10 17  1  0
 17 18  2  0
 18  2  1  0
 18  7  1  0
  1 19  1  0
  1 20  1  0
  1 21  1  0
  5 22  1  0
  5 23  1  0
  8 24  1  0
  9 25  1  0
 15 26  1  0
 15 27  1  0
 15 28  1  0
 16 29  1  0
 16 30  1  0
 16 31  1  0
 17 32  1  0
M  END
>  <UniqueID>  (21) 
20

>  <SMILES>  (21) 
CN1C(=O)COc2ccc(S(=O)(=O)N(C)C)cc21

>  <Energy>  (21) 
33.433124272406104

>  <Genealogy>  (21) 
CN1C(=O)COc2ccc(S(=O)(=O)N(C)C)cc21 (3D coordinates assigned)
CN1C(=O)COc2ccc(S(=O)(=O)N(C)C)cc21 (nonaromatic ring conformer: 33.433124272406104 kcal/mol)

>  <smiles>  (21) 
CN1C(=O)COc2ccc(S(=O)(=O)N(C)C)cc21

>  <score_type>  (21) 
oracle

>  <origin>  (21) 
adg

>  <m_score__min__energy>  (21) 
-7.21

>  <m_primary>  (21) 
energy

$$$$
21:0
     RDKit          3D

 49 51  0  0  0  0  0  0  0  0999 V2000
   -5.2720   17.6510  -34.8480 C   0  0  0  0  0  0  0  0  0  0  0  0
   -5.9190   18.5090  -33.8020 C   0  0  0  0  0  0  0  0  0  0  0  0
   -7.1300   18.1110  -33.2190 C   0  0  0  0  0  0  0  0  0  0  0  0
   -7.7550   18.9150  -32.2550 C   0  0  0  0  0  0  0  0  0  0  0  0
   -9.0630   18.4930  -31.6530 C   0  0  0  0  0  0  0  0  0  0  0  0
   -7.1830   20.1470  -31.9060 C   0  0  0  0  0  0  0  0  0  0  0  0
   -5.9830   20.5690  -32.5000 C   0  0  0  0  0  0  0  0  0  0  0  0
   -5.3510   21.8780  -32.0960 C   0  0  0  0  0  0  0  0  0  0  0  0
   -5.7160   22.2240  -30.7170 N   0  0  0  0  0  0  0  0  0  0  0  0
   -6.7190   23.2960  -30.7040 C   0  0  0  0  0  0  0  0  0  0  0  0
   -6.0970   24.6170  -31.1730 C   0  0  0  0  0  0  0  0  0  0  0  0
   -5.3450   25.3520  -30.0550 C   0  0  0  0  0  0  0  0  0  0  0  0
   -3.9010   25.3040  -30.2840 N   0  0  0  0  0  0  0  0  0  0  0  0
   -3.0180   24.4690  -29.5200 C   0  0  0  0  0  0  0  0  0  0  0  0
   -1.7230   24.9110  -29.2200 C   0  0  0  0  0  0  0  0  0  0  0  0
   -0.8740   24.1060  -28.4540 C   0  0  0  0  0  0  0  0  0  0  0  0
    0.2870   24.5170  -28.1820 O   0  0  0  0  0  0  0  0  0  0  0  0
   -1.3220   22.8530  -28.0000 C   0  0  0  0  0  0  0  0  0  0  0  0
   -0.5100   22.0040  -27.2240 C   0  0  0  0  0  0  0  0  0  0  0  0
   -0.9940   20.7610  -26.8030 C   0  0  0  0  0  0  0  0  0  0  0  0
   -2.2810   20.3510  -27.1560 C   0  0  0  0  0  0  0  0  0  0  0  0
   -3.0950   21.1820  -27.9300 C   0  0  0  0  0  0  0  0  0  0  0  0
   -2.6290   22.4360  -28.3430 C   0  0  0  0  0  0  0  0  0  0  0  0
   -3.4320   23.2500  -29.0790 N   0  0  0  0  0  0  0  0  0  0  0  0
   -5.3540   19.7430  -33.4450 C   0  0  0  0  0  0  0  0  0  0  0  0
   -4.6783   16.8636  -34.3606 H   0  0  0  0  0  0  0  0  0  0  0  0
   -6.0487   17.1892  -35.4753 H   0  0  0  0  0  0  0  0  0  0  0  0
   -4.6145   18.2708  -35.4753 H   0  0  0  0  0  0  0  0  0  0  0  0
   -7.5939   17.1602  -33.5202 H   0  0  0  0  0  0  0  0  0  0  0  0
   -8.9866   18.5176  -30.5559 H   0  0  0  0  0  0  0  0  0  0  0  0
   -9.8564   19.1808  -31.9809 H   0  0  0  0  0  0  0  0  0  0  0  0
   -9.3049   17.4712  -31.9809 H   0  0  0  0  0  0  0  0  0  0  0  0
   -7.6783   20.7874  -31.1613 H   0  0  0  0  0  0  0  0  0  0  0  0
   -4.2570   21.7890  -32.1689 H   0  0  0  0  0  0  0  0  0  0  0  0
   -5.7140   22.6695  -32.7682 H   0  0  0  0  0  0  0  0  0  0  0  0
   -4.8610   22.5830  -30.2300 H   0  0  0  0  0  0  0  0  0  0  0  0
   -7.5464   23.0262  -31.3767 H   0  0  0  0  0  0  0  0  0  0  0  0
   -7.0922   23.4225  -29.6770 H   0  0  0  0  0  0  0  0  0  0  0  0
   -5.3911   24.4026  -31.9890 H   0  0  0  0  0  0  0  0  0  0  0  0
   -6.9181   25.2700  -31.5037 H   0  0  0  0  0  0  0  0  0  0  0  0
   -5.6718   26.4020  -30.0300 H   0  0  0  0  0  0  0  0  0  0  0  0
   -5.5674   24.8598  -29.0967 H   0  0  0  0  0  0  0  0  0  0  0  0
   -3.4870   26.0340  -30.9090 H   0  0  0  0  0  0  0  0  0  0  0  0
   -1.3750   25.8883  -29.5858 H   0  0  0  0  0  0  0  0  0  0  0  0
    0.5072   22.3189  -26.9482 H   0  0  0  0  0  0  0  0  0  0  0  0
   -0.3581   20.1040  -26.1914 H   0  0  0  0  0  0  0  0  0  0  0  0
   -2.6551   19.3713  -26.8240 H   0  0  0  0  0  0  0  0  0  0  0  0
   -4.1042   20.8503  -28.2155 H   0  0  0  0  0  0  0  0  0  0  0  0
   -4.4105   20.0657  -33.9094 H   0  0  0  0  0  0  0  0  0  0  0  0
  1  2  1  0
  2  3  2  0
  3  4  1  0
  4  5  1  0
  4  6  2  0
  6  7  1  0
  7  8  1  0
  8  9  1  0
  9 10  1  0
 10 11  1  0
 11 12  1  0
 12 13  1  0
 13 14  1  0
 14 15  2  0
 15 16  1  0
 16 17  2  0
 16 18  1  0
 18 19  2  0
 19 20  1  0
 20 21  2  0
 21 22  1  0
 22 23  2  0
 23 24  1  0
  7 25  2  0
 25  2  1  0
 24 14  1  0
 23 18  1  0
  1 26  1  0
  1 27  1  0
  1 28  1  0
  3 29  1  0
  5 30  1  0
  5 31  1  0
  5 32  1  0
  6 33  1  0
  8 34  1  0
  8 35  1  0
  9 36  1  0
 10 37  1  0
 10 38  1  0
 11 39  1  0
 11 40  1  0
 12 41  1  0
 12 42  1  0
 13 43  1  0
 15 44  1  0
 19 45  1  0
 20 46  1  0
 21 47  1  0
 22 48  1  0
 25 49  1  0
M  CHG  1  24  -1
M  END
>  <UniqueID>  (22) 
21

>  <SMILES>  (22) 
Cc1cc(C)cc(CNCCCNc2cc(=O)c3ccccc3[n-]2)c1

>  <Energy>  (22) 
44.76417588075638

>  <Genealogy>  (22) 
Cc1cc(C)cc(CNCCCNc2cc(=O)c3ccccc3[n-]2)c1 (protonated)
Cc1cc(C)cc(CNCCCNc2cc(=O)c3ccccc3[n-]2)c1 (3D coordinates assigned)
Cc1cc(C)cc(CNCCCNc2cc(=O)c3ccccc3[n-]2)c1 (optimized conformer: 44.76417588075638 kcal/mol)

>  <smiles>  (22) 
Cc1cc(C)cc(CNCCCNc2cc(=O)c3ccccc3[nH]2)c1

>  <score_type>  (22) 
oracle

>  <origin>  (22) 
adg

>  <m_score__min__energy>  (22) 
-11.18

>  <m_primary>  (22) 
energy

$$$$
22:0
     RDKit          3D

 46 47  0  0  0  0  0  0  0  0999 V2000
   -0.8690   20.8560  -28.1710 C   0  0  0  0  0  0  0  0  0  0  0  0
   -1.3950   22.2620  -28.0340 C   0  0  0  0  0  0  0  0  0  0  0  0
   -1.2560   22.9230  -26.8020 C   0  0  0  0  0  0  0  0  0  0  0  0
   -1.7160   24.2270  -26.6420 C   0  0  0  0  0  0  0  0  0  0  0  0
   -2.3400   24.8830  -27.7000 C   0  0  0  0  0  0  0  0  0  0  0  0
   -2.5220   24.2380  -28.9310 C   0  0  0  0  0  0  0  0  0  0  0  0
   -3.1730   24.9240  -30.0100 N   0  0  0  0  0  0  0  0  0  0  0  0
   -4.5850   24.9680  -30.2520 C   0  0  0  0  0  0  0  0  0  0  0  0
   -5.0100   25.6590  -31.2150 O   0  0  0  0  0  0  0  0  0  0  0  0
   -5.5570   24.1030  -29.4920 C   0  0  0  0  0  0  0  0  0  0  0  0
   -5.4560   22.6350  -29.9310 C   0  0  0  0  0  0  0  0  0  0  0  0
   -6.0960   22.4160  -31.2510 N   0  0  0  0  0  0  0  0  0  0  0  0
   -7.5720   22.6110  -31.1970 C   0  0  0  0  0  0  0  0  0  0  0  0
   -8.3450   21.2880  -31.1550 C   0  0  0  0  0  0  0  0  0  0  0  0
   -8.0710   20.4580  -32.4280 C   0  0  0  0  0  0  0  0  0  0  0  0
   -8.3670   19.0020  -32.1680 C   0  0  0  0  0  0  0  0  0  0  0  0
   -9.1420   18.6120  -31.0330 N   0  0  0  0  0  0  0  0  0  0  0  0
   -7.8990   18.1140  -32.9330 O   0  0  0  0  0  0  0  0  0  0  0  0
   -6.6330   20.6660  -32.9600 C   0  0  0  0  0  0  0  0  0  0  0  0
   -5.6820   21.1160  -31.8440 C   0  0  0  0  0  0  0  0  0  0  0  0
   -2.0030   22.9350  -29.1250 C   0  0  0  0  0  0  0  0  0  0  0  0
   -2.1510   22.2400  -30.4590 C   0  0  0  0  0  0  0  0  0  0  0  0
   -0.7080   20.4257  -27.1715 H   0  0  0  0  0  0  0  0  0  0  0  0
   -1.5988   20.2434  -28.7207 H   0  0  0  0  0  0  0  0  0  0  0  0
    0.0836   20.8728  -28.7207 H   0  0  0  0  0  0  0  0  0  0  0  0
   -0.7794   22.4054  -25.9564 H   0  0  0  0  0  0  0  0  0  0  0  0
   -1.5863   24.7403  -25.6778 H   0  0  0  0  0  0  0  0  0  0  0  0
   -2.6932   25.9164  -27.5685 H   0  0  0  0  0  0  0  0  0  0  0  0
   -5.3340   24.1720  -28.4171 H   0  0  0  0  0  0  0  0  0  0  0  0
   -6.5766   24.4592  -29.7007 H   0  0  0  0  0  0  0  0  0  0  0  0
   -4.3945   22.3543  -29.9977 H   0  0  0  0  0  0  0  0  0  0  0  0
   -5.9793   22.0161  -29.1873 H   0  0  0  0  0  0  0  0  0  0  0  0
   -7.8172   23.1901  -30.2945 H   0  0  0  0  0  0  0  0  0  0  0  0
   -7.8699   23.1396  -32.1145 H   0  0  0  0  0  0  0  0  0  0  0  0
   -8.0284   20.7122  -30.2729 H   0  0  0  0  0  0  0  0  0  0  0  0
   -9.4214   21.5077  -31.0997 H   0  0  0  0  0  0  0  0  0  0  0  0
   -8.7455   20.8141  -33.2206 H   0  0  0  0  0  0  0  0  0  0  0  0
   -9.5000   19.3230  -30.3610 H   0  0  0  0  0  0  0  0  0  0  0  0
   -9.3380   17.6020  -30.8530 H   0  0  0  0  0  0  0  0  0  0  0  0
   -6.2669   19.7182  -33.3814 H   0  0  0  0  0  0  0  0  0  0  0  0
   -6.6593   21.4516  -33.7295 H   0  0  0  0  0  0  0  0  0  0  0  0
   -5.6747   20.3511  -31.0535 H   0  0  0  0  0  0  0  0  0  0  0  0
   -4.6810   21.2450  -32.2814 H   0  0  0  0  0  0  0  0  0  0  0  0
   -2.3775   21.1761  -30.2950 H   0  0  0  0  0  0  0  0  0  0  0  0
   -2.9700   22.7061  -31.0264 H   0  0  0  0  0  0  0  0  0  0  0  0
   -1.2131   22.3320  -31.0264 H   0  0  0  0  0  0  0  0  0  0  0  0
  1  2  1  0
  2  3  2  0
  3  4  1  0
  4  5  2  0
  5  6  1  0
  6  7  1  0
  7  8  1  0
  8  9  2  0
  8 10  1  0
 10 11  1  0
 11 12  1  0
 12 13  1  0
 13 14  1  0
 14 15  1  0
 15 16  1  0
 16 17  1  0
 16 18  2  0
 15 19  1  0
 19 20  1  0
  6 21  2  0
 21 22  1  0
 21  2  1  0
 20 12  1  0
  1 23  1  0
  1 24  1  0
  1 25  1  0
  3 26  1  0
  4 27  1  0
  5 28  1  0
 10 29  1  0
 10 30  1  0
 11 31  1  0
 11 32  1  0
 13 33  1  0
 13 34  1  0
 14 35  1  0
 14 36  1  0
 15 37  1  0
 17 38  1  0
 17 39  1  0
 19 40  1  0
 19 41  1  0
 20 42  1  0
 20 43  1  0
 22 44  1  0
 22 45  1  0
 22 46  1  0
M  CHG  1   7  -1
M  END
>  <UniqueID>  (23) 
22

>  <SMILES>  (23) 
Cc1cccc([N-]C(=O)CCN2CCC(C(N)=O)CC2)c1C

>  <Energy>  (23) 
54.055342679584655

>  <Genealogy>  (23) 
Cc1cccc([N-]C(=O)CCN2CCC(C(N)=O)CC2)c1C (protonated)
Cc1cccc([N-]C(=O)CCN2CCC(C(N)=O)CC2)c1C (3D coordinates assigned)
Cc1cccc([N-]C(=O)CCN2CCC(C(N)=O)CC2)c1C (nonaromatic ring conformer: 54.055342679584655 kcal/mol)

>  <smiles>  (23) 
Cc1cccc(NC(=O)CCN2CCC(C(N)=O)CC2)c1C

>  <score_type>  (23) 
oracle

>  <origin>  (23) 
adg

>  <m_score__min__energy>  (23) 
-9.7799999999999994

>  <m_primary>  (23) 
energy

$$$$
23:0
     RDKit          3D

 48 51  0  0  0  0  0  0  0  0999 V2000
   -3.2030   20.1280  -33.0920 C   0  0  0  0  0  0  0  0  0  0  0  0
   -4.1640   19.4980  -32.2530 O   0  0  0  0  0  0  0  0  0  0  0  0
   -5.0270   18.4670  -32.6590 C   0  0  0  0  0  0  0  0  0  0  0  0
   -4.5520   17.1790  -32.9790 C   0  0  0  0  0  0  0  0  0  0  0  0
   -5.4440   16.1690  -33.3480 C   0  0  0  0  0  0  0  0  0  0  0  0
   -6.8140   16.4310  -33.4010 C   0  0  0  0  0  0  0  0  0  0  0  0
   -7.2960   17.7030  -33.0910 C   0  0  0  0  0  0  0  0  0  0  0  0
   -6.4090   18.7290  -32.7330 C   0  0  0  0  0  0  0  0  0  0  0  0
   -6.9160   20.0350  -32.4150 N   0  0  0  0  0  0  0  0  0  0  0  0
   -8.0080   20.1810  -31.4460 C   0  0  0  0  0  0  0  0  0  0  0  0
   -8.0400   21.6070  -30.8850 C   0  0  0  0  0  0  0  0  0  0  0  0
   -6.6550   22.0920  -30.7320 N   0  0  0  0  0  0  0  0  0  0  0  0
   -6.6160   23.3160  -29.9060 C   0  0  0  0  0  0  0  0  0  0  0  0
   -5.1950   23.6510  -29.5230 C   0  0  0  0  0  0  0  0  0  0  0  0
   -4.5880   23.0360  -28.4210 C   0  0  0  0  0  0  0  0  0  0  0  0
   -3.3200   23.3690  -28.0670 N   0  0  0  0  0  0  0  0  0  0  0  0
   -2.6160   24.3010  -28.7630 C   0  0  0  0  0  0  0  0  0  0  0  0
   -1.2780   24.6370  -28.3700 N   0  0  0  0  0  0  0  0  0  0  0  0
   -0.8960   25.6540  -27.5780 C   0  0  0  0  0  0  0  0  0  0  0  0
    0.4740   25.6090  -27.4630 C   0  0  0  0  0  0  0  0  0  0  0  0
    0.9550   24.5710  -28.1770 N   0  0  0  0  0  0  0  0  0  0  0  0
   -0.1420   24.0000  -28.7180 C   0  0  0  0  0  0  0  0  0  0  0  0
   -3.1890   24.9160  -29.8330 N   0  0  0  0  0  0  0  0  0  0  0  0
   -4.4540   24.6170  -30.2250 C   0  0  0  0  0  0  0  0  0  0  0  0
   -4.9520   25.2130  -31.2170 O   0  0  0  0  0  0  0  0  0  0  0  0
   -6.0210   22.3160  -32.0560 C   0  0  0  0  0  0  0  0  0  0  0  0
   -6.3860   21.2260  -33.0860 C   0  0  0  0  0  0  0  0  0  0  0  0
   -2.4439   20.6256  -32.4706 H   0  0  0  0  0  0  0  0  0  0  0  0
   -2.7187   19.3716  -33.7270 H   0  0  0  0  0  0  0  0  0  0  0  0
   -3.7035   20.8738  -33.7270 H   0  0  0  0  0  0  0  0  0  0  0  0
   -3.4732   16.9680  -32.9380 H   0  0  0  0  0  0  0  0  0  0  0  0
   -5.0663   15.1663  -33.5970 H   0  0  0  0  0  0  0  0  0  0  0  0
   -7.5149   15.6331  -33.6877 H   0  0  0  0  0  0  0  0  0  0  0  0
   -8.3772   17.9024  -33.1275 H   0  0  0  0  0  0  0  0  0  0  0  0
   -8.9651   19.9662  -31.9439 H   0  0  0  0  0  0  0  0  0  0  0  0
   -7.8453   19.4760  -30.6174 H   0  0  0  0  0  0  0  0  0  0  0  0
   -8.5868   22.2639  -31.5774 H   0  0  0  0  0  0  0  0  0  0  0  0
   -8.5464   21.6119  -29.9085 H   0  0  0  0  0  0  0  0  0  0  0  0
   -7.0433   24.1526  -30.4783 H   0  0  0  0  0  0  0  0  0  0  0  0
   -7.2003   23.1453  -28.9898 H   0  0  0  0  0  0  0  0  0  0  0  0
   -5.1395   22.2815  -27.8409 H   0  0  0  0  0  0  0  0  0  0  0  0
   -1.5613   26.3916  -27.1055 H   0  0  0  0  0  0  0  0  0  0  0  0
    1.0843   26.3126  -26.8777 H   0  0  0  0  0  0  0  0  0  0  0  0
   -0.1123   23.1143  -29.3697 H   0  0  0  0  0  0  0  0  0  0  0  0
   -6.3519   23.2908  -32.4437 H   0  0  0  0  0  0  0  0  0  0  0  0
   -4.9311   22.2831  -31.9111 H   0  0  0  0  0  0  0  0  0  0  0  0
   -7.1471   21.6208  -33.7751 H   0  0  0  0  0  0  0  0  0  0  0  0
   -5.4782   20.9450  -33.6400 H   0  0  0  0  0  0  0  0  0  0  0  0
  1  2  1  0
  2  3  1  0
  3  4  2  0
  4  5  1  0
  5  6  2  0
  6  7  1  0
  7  8  2  0
  8  9  1  0
  9 10  1  0
 10 11  1  0
 11 12  1  0
 12 13  1  0
 13 14  1  0
 14 15  2  0
 15 16  1  0
 16 17  1  0
 17 18  1  0
 18 19  1  0
 19 20  2  0
 20 21  1  0
 21 22  2  0
 17 23  2  0
 23 24  1  0
 24 25  2  0
 12 26  1  0
 26 27  1  0
  8  3  1  0
 27  9  1  0
 24 14  1  0
 22 18  1  0
  1 28  1  0
  1 29  1  0
  1 30  1  0
  4 31  1  0
  5 32  1  0
  6 33  1  0
  7 34  1  0
 10 35  1  0
 10 36  1  0
 11 37  1  0
 11 38  1  0
 13 39  1  0
 13 40  1  0
 15 41  1  0
 19 42  1  0
 20 43  1  0
 22 44  1  0
 26 45  1  0
 26 46  1  0
 27 47  1  0
 27 48  1  0
M  CHG  1  16  -1
M  END
>  <UniqueID>  (24) 
23

>  <SMILES>  (24) 
COc1ccccc1N1CCN(Cc2c[n-]c(-n3ccnc3)nc2=O)CC1

>  <Energy>  (24) 
91.9310460524722

>  <Genealogy>  (24) 
COc1ccccc1N1CCN(Cc2c[n-]c(-n3ccnc3)nc2=O)CC1 (protonated)
COc1ccccc1N1CCN(Cc2c[n-]c(-n3ccnc3)nc2=O)CC1 (3D coordinates assigned)
COc1ccccc1N1CCN(Cc2c[n-]c(-n3ccnc3)nc2=O)CC1 (nonaromatic ring conformer: 91.9310460524722 kcal/mol)

>  <smiles>  (24) 
COc1ccccc1N1CCN(Cc2c[nH]c(-n3ccnc3)nc2=O)CC1

>  <score_type>  (24) 
oracle

>  <origin>  (24) 
adg

>  <m_score__min__energy>  (24) 
-9.8300000000000001

>  <m_primary>  (24) 
energy

$$$$
24:0
     RDKit          3D

 50 52  0  0  0  0  0  0  0  0999 V2000
   -7.6020   17.4230  -32.4660 C   0  0  0  0  0  0  0  0  0  0  0  0
   -7.7920   18.8870  -32.3230 C   0  0  0  0  0  0  0  0  0  0  0  0
   -8.8710   19.4200  -31.7350 N   0  0  0  0  0  0  0  0  0  0  0  0
   -8.7330   20.7810  -31.7710 C   0  0  0  0  0  0  0  0  0  0  0  0
   -9.7970   21.6440  -31.1900 C   0  0  0  0  0  0  0  0  0  0  0  0
   -7.5830   21.1120  -32.3730 N   0  0  0  0  0  0  0  0  0  0  0  0
   -7.0110   22.3960  -32.6980 C   0  0  0  0  0  0  0  0  0  0  0  0
   -5.6980   22.7320  -32.1360 C   0  0  1  0  0  0  0  0  0  0  0  0
   -5.5110   24.1240  -31.8850 O   0  0  0  0  0  0  0  0  0  0  0  0
   -5.4470   22.1420  -30.7290 C   0  0  0  0  0  0  0  0  0  0  0  0
   -4.5230   22.7360  -30.0210 O   0  0  0  0  0  0  0  0  0  0  0  0
   -3.6200   23.3170  -29.3290 C   0  0  0  0  0  0  0  0  0  0  0  0
   -2.8980   22.7530  -28.2780 C   0  0  0  0  0  0  0  0  0  0  0  0
   -1.9370   23.4580  -27.5810 C   0  0  0  0  0  0  0  0  0  0  0  0
   -1.2130   22.9090  -26.5380 C   0  0  0  0  0  0  0  0  0  0  0  0
   -0.2500   23.6470  -25.8560 C   0  0  0  0  0  0  0  0  0  0  0  0
   -0.0370   24.9550  -26.2540 C   0  0  0  0  0  0  0  0  0  0  0  0
   -0.7630   25.5200  -27.3060 C   0  0  0  0  0  0  0  0  0  0  0  0
   -1.6960   24.7630  -27.9480 C   0  0  0  0  0  0  0  0  0  0  0  0
   -2.3680   25.3000  -28.9290 O   0  0  0  0  0  0  0  0  0  0  0  0
   -3.2770   24.6630  -29.6040 C   0  0  0  0  0  0  0  0  0  0  0  0
   -3.8590   25.2860  -30.5280 O   0  0  0  0  0  0  0  0  0  0  0  0
   -6.9650   19.9350  -32.7340 C   0  0  0  0  0  0  0  0  0  0  0  0
   -5.6990   19.7470  -33.4730 C   0  0  0  0  0  0  0  0  0  0  0  0
   -4.5380   19.4810  -32.5330 C   0  0  0  0  0  0  0  0  0  0  0  0
   -5.7640   18.8210  -34.6390 C   0  0  0  0  0  0  0  0  0  0  0  0
   -7.5422   16.9619  -31.4691 H   0  0  0  0  0  0  0  0  0  0  0  0
   -8.4521   16.9951  -33.0175 H   0  0  0  0  0  0  0  0  0  0  0  0
   -6.6708   17.2262  -33.0175 H   0  0  0  0  0  0  0  0  0  0  0  0
   -9.7447   21.6016  -30.0921 H   0  0  0  0  0  0  0  0  0  0  0  0
   -9.6506   22.6817  -31.5242 H   0  0  0  0  0  0  0  0  0  0  0  0
  -10.7822   21.2866  -31.5242 H   0  0  0  0  0  0  0  0  0  0  0  0
   -6.9192   22.4445  -33.7931 H   0  0  0  0  0  0  0  0  0  0  0  0
   -7.6976   23.1239  -32.2411 H   0  0  0  0  0  0  0  0  0  0  0  0
   -5.0327   22.3282  -32.9134 H   0  0  0  0  0  0  0  0  0  0  0  0
   -5.3400   24.2560  -30.9010 H   0  0  0  0  0  0  0  0  0  0  0  0
   -6.3908   22.1966  -30.1666 H   0  0  0  0  0  0  0  0  0  0  0  0
   -5.0844   21.1168  -30.8946 H   0  0  0  0  0  0  0  0  0  0  0  0
   -3.1011   21.7098  -27.9942 H   0  0  0  0  0  0  0  0  0  0  0  0
   -1.4024   21.8669  -26.2412 H   0  0  0  0  0  0  0  0  0  0  0  0
    0.3230   23.2049  -25.0277 H   0  0  0  0  0  0  0  0  0  0  0  0
    0.7181   25.5616  -25.7325 H   0  0  0  0  0  0  0  0  0  0  0  0
   -0.5836   26.5614  -27.6114 H   0  0  0  0  0  0  0  0  0  0  0  0
   -5.5039   20.7138  -33.9600 H   0  0  0  0  0  0  0  0  0  0  0  0
   -4.8837   19.5602  -31.4917 H   0  0  0  0  0  0  0  0  0  0  0  0
   -4.1449   18.4695  -32.7129 H   0  0  0  0  0  0  0  0  0  0  0  0
   -3.7437   20.2204  -32.7129 H   0  0  0  0  0  0  0  0  0  0  0  0
   -5.8368   17.7838  -34.2799 H   0  0  0  0  0  0  0  0  0  0  0  0
   -6.6475   19.0608  -35.2488 H   0  0  0  0  0  0  0  0  0  0  0  0
   -4.8556   18.9350  -35.2488 H   0  0  0  0  0  0  0  0  0  0  0  0
  1  2  1  0
  2  3  1  0
  3  4  2  0
  4  5  1  0
  4  6  1  0
  6  7  1  0
  7  8  1  0
  8  9  1  0
  8 10  1  0
 10 11  1  0
 11 12  1  0
 12 13  2  0
 13 14  1  0
 14 15  2  0
 15 16  1  0
 16 17  2  0
 17 18  1  0
 18 19  2  0
 19 20  1  0
 20 21  1  0
 21 22  2  0
  6 23  1  0
 23 24  1  0
 24 25  1  0
 24 26  1  0
 23  2  2  0
 21 12  1  0
 19 14  1  0
  1 27  1  0
  1 28  1  0
  1 29  1  0
  5 30  1  0
  5 31  1  0
  5 32  1  0
  7 33  1  0
  7 34  1  0
  8 35  1  6
  9 36  1  0
 10 37  1  0
 10 38  1  0
 13 39  1  0
 15 40  1  0
 16 41  1  0
 17 42  1  0
 18 43  1  0
 24 44  1  0
 25 45  1  0
 25 46  1  0
 25 47  1  0
 26 48  1  0
 26 49  1  0
 26 50  1  0
M  END
>  <UniqueID>  (25) 
24

>  <SMILES>  (25) 
Cc1nc(C)n(C[C@@H](O)COc2cc3ccccc3oc2=O)c1C(C)C

>  <Energy>  (25) 
192.91856128413914

>  <Genealogy>  (25) 
Cc1nc(C)n(C[C@@H](O)COc2cc3ccccc3oc2=O)c1C(C)C (chirality)
Cc1nc(C)n(C[C@@H](O)COc2cc3ccccc3oc2=O)c1C(C)C (3D coordinates assigned)
Cc1nc(C)n(C[C@@H](O)COc2cc3ccccc3oc2=O)c1C(C)C (optimized conformer: 192.91856128413914 kcal/mol)

>  <smiles>  (25) 
Cc1nc(C)n(CC(O)COc2cc3ccccc3oc2=O)c1C(C)C

>  <score_type>  (25) 
oracle

>  <origin>  (25) 
adg

>  <m_score__min__energy>  (25) 
-8.8100000000000005

>  <m_primary>  (25) 
energy

$$$$
25:0
     RDKit          3D

 48 51  0  0  0  0  0  0  0  0999 V2000
   -0.1020   22.1940  -23.2500 C   0  0  0  0  0  0  0  0  0  0  0  0
   -0.2610   23.2190  -24.2740 N   0  0  0  0  0  0  0  0  0  0  0  0
   -0.0700   24.5200  -24.0920 N   0  0  0  0  0  0  0  0  0  0  0  0
   -0.2580   25.2020  -25.2190 N   0  0  0  0  0  0  0  0  0  0  0  0
   -0.5820   24.2790  -26.1480 C   0  0  0  0  0  0  0  0  0  0  0  0
   -0.5590   23.0430  -25.5730 C   0  0  0  0  0  0  0  0  0  0  0  0
   -0.9100   21.7810  -26.2860 C   0  0  0  0  0  0  0  0  0  0  0  0
   -0.9230   22.0230  -27.8130 C   0  0  0  0  0  0  0  0  0  0  0  0
   -1.5270   23.3260  -28.2060 N   0  0  0  0  0  0  0  0  0  0  0  0
   -3.0120   23.3430  -28.3010 C   0  0  0  0  0  0  0  0  0  0  0  0
   -3.5370   21.9700  -28.8040 C   0  0  0  0  0  0  0  0  0  0  0  0
   -4.1330   21.9960  -30.2230 C   0  0  0  0  0  0  0  0  0  0  0  0
   -5.0880   23.1010  -30.3950 N   0  0  0  0  0  0  0  0  0  0  0  0
   -5.9180   23.1350  -31.5700 C   0  0  0  0  0  0  0  0  0  0  0  0
   -5.8920   24.1530  -32.3130 O   0  0  0  0  0  0  0  0  0  0  0  0
   -6.7970   21.9940  -31.9230 C   0  0  0  0  0  0  0  0  0  0  0  0
   -6.2980   20.9090  -32.6720 C   0  0  0  0  0  0  0  0  0  0  0  0
   -7.1300   19.8290  -32.9940 C   0  0  0  0  0  0  0  0  0  0  0  0
   -8.4630   19.8180  -32.5670 C   0  0  0  0  0  0  0  0  0  0  0  0
   -8.9660   20.8840  -31.8110 C   0  0  0  0  0  0  0  0  0  0  0  0
   -8.1370   21.9660  -31.4850 C   0  0  0  0  0  0  0  0  0  0  0  0
   -5.0310   24.2750  -29.5150 C   0  0  0  0  0  0  0  0  0  0  0  0
   -3.5840   24.5430  -29.1000 C   0  0  0  0  0  0  0  0  0  0  0  0
   -0.8730   24.5130  -27.5970 C   0  0  0  0  0  0  0  0  0  0  0  0
   -0.1737   22.6561  -22.2544 H   0  0  0  0  0  0  0  0  0  0  0  0
   -0.8937   21.4385  -23.3614 H   0  0  0  0  0  0  0  0  0  0  0  0
    0.8814   21.7138  -23.3614 H   0  0  0  0  0  0  0  0  0  0  0  0
    0.1970   24.9610  -23.1830 H   0  0  0  0  0  0  0  0  0  0  0  0
   -0.1654   21.0077  -26.0460 H   0  0  0  0  0  0  0  0  0  0  0  0
   -1.9084   21.4499  -25.9642 H   0  0  0  0  0  0  0  0  0  0  0  0
    0.1144   21.9967  -28.1779 H   0  0  0  0  0  0  0  0  0  0  0  0
   -1.5442   21.2324  -28.2591 H   0  0  0  0  0  0  0  0  0  0  0  0
   -3.3948   23.5027  -27.2822 H   0  0  0  0  0  0  0  0  0  0  0  0
   -2.6987   21.2578  -28.7963 H   0  0  0  0  0  0  0  0  0  0  0  0
   -4.3537   21.6799  -28.1267 H   0  0  0  0  0  0  0  0  0  0  0  0
   -3.3161   22.1152  -30.9500 H   0  0  0  0  0  0  0  0  0  0  0  0
   -4.6718   21.0507  -30.3845 H   0  0  0  0  0  0  0  0  0  0  0  0
   -5.2497   20.9104  -33.0054 H   0  0  0  0  0  0  0  0  0  0  0  0
   -6.7352   18.9883  -33.5833 H   0  0  0  0  0  0  0  0  0  0  0  0
   -9.1159   18.9713  -32.8255 H   0  0  0  0  0  0  0  0  0  0  0  0
  -10.0126   20.8721  -31.4727 H   0  0  0  0  0  0  0  0  0  0  0  0
   -8.5338   22.7977  -30.8843 H   0  0  0  0  0  0  0  0  0  0  0  0
   -5.4256   25.1515  -30.0498 H   0  0  0  0  0  0  0  0  0  0  0  0
   -5.6366   24.0846  -28.6167 H   0  0  0  0  0  0  0  0  0  0  0  0
   -2.9732   24.7010  -30.0011 H   0  0  0  0  0  0  0  0  0  0  0  0
   -3.5592   25.4378  -28.4607 H   0  0  0  0  0  0  0  0  0  0  0  0
    0.0703   24.7150  -28.1255 H   0  0  0  0  0  0  0  0  0  0  0  0
   -1.5543   25.3722  -27.6838 H   0  0  0  0  0  0  0  0  0  0  0  0
  1  2  1  0
  2  3  1  0
  3  4  2  0
  4  5  1  0
  5  6  2  0
  6  7  1  0
  7  8  1  0
  8  9  1  0
  9 10  1  0
 10 11  1  0
 11 12  1  0
 12 13  1  0
 13 14  1  0
 14 15  2  0
 14 16  1  0
 16 17  2  0
 17 18  1  0
 18 19  2  0
 19 20  1  0
 20 21  2  0
 13 22  1  0
 22 23  1  0
  9 24  1  0
  6  2  1  0
 23 10  1  0
 24  5  1  0
 21 16  1  0
  1 25  1  0
  1 26  1  0
  1 27  1  0
  3 28  1  0
  7 29  1  0
  7 30  1  0
  8 31  1  0
  8 32  1  0
 10 33  1  0
 11 34  1  0
 11 35  1  0
 12 36  1  0
 12 37  1  0
 17 38  1  0
 18 39  1  0
 19 40  1  0
 20 41  1  0
 21 42  1  0
 22 43  1  0
 22 44  1  0
 23 45  1  0
 23 46  1  0
 24 47  1  0
 24 48  1  0
M  CHG  1   3   1
M  END
>  <UniqueID>  (26) 
25

>  <SMILES>  (26) 
Cn1[nH+]nc2c1CCN(C1CCN(C(=O)c3ccccc3)CC1)C2

>  <Energy>  (26) 
108.67733787754004

>  <Genealogy>  (26) 
Cn1[nH+]nc2c1CCN(C1CCN(C(=O)c3ccccc3)CC1)C2 (protonated)
Cn1[nH+]nc2c1CCN(C1CCN(C(=O)c3ccccc3)CC1)C2 (3D coordinates assigned)
Cn1[nH+]nc2c1CCN(C1CCN(C(=O)c3ccccc3)CC1)C2 (nonaromatic ring conformer: 108.67733787754004 kcal/mol)

>  <smiles>  (26) 
Cn1nnc2c1CCN(C1CCN(C(=O)c3ccccc3)CC1)C2

>  <score_type>  (26) 
oracle

>  <origin>  (26) 
adg

>  <m_score__min__energy>  (26) 
-9.2100000000000009

>  <m_primary>  (26) 
energy

$$$$
26:0
     RDKit          3D

 54 56  0  0  0  0  0  0  0  0999 V2000
   -8.2220   18.3610  -31.5980 C   0  0  0  0  0  0  0  0  0  0  0  0
   -6.8390   17.7560  -31.8180 C   0  0  0  0  0  0  0  0  0  0  0  0
   -5.7360   18.6980  -31.3160 C   0  0  0  0  0  0  0  0  0  0  0  0
   -5.4880   19.7830  -32.2760 N   0  0  0  0  0  0  0  0  0  0  0  0
   -4.7940   19.5150  -33.5420 C   0  0  0  0  0  0  0  0  0  0  0  0
   -5.7310   18.8950  -34.5870 C   0  0  0  0  0  0  0  0  0  0  0  0
   -5.1300   17.7760  -35.2120 O   0  0  0  0  0  0  0  0  0  0  0  0
   -3.9110   17.4530  -34.5790 C   0  0  0  0  0  0  0  0  0  0  0  0
   -6.0800   21.0750  -32.0650 C   0  0  0  0  0  0  0  0  0  0  0  0
   -7.4340   21.2210  -32.1750 N   0  0  0  0  0  0  0  0  0  0  0  0
   -8.0650   22.4010  -31.8740 C   0  0  0  0  0  0  0  0  0  0  0  0
   -9.5500   22.4960  -31.9790 C   0  0  0  0  0  0  0  0  0  0  0  0
   -7.3480   23.4640  -31.4020 N   0  0  0  0  0  0  0  0  0  0  0  0
   -6.0050   23.3260  -31.2910 C   0  0  0  0  0  0  0  0  0  0  0  0
   -5.0500   24.2170  -30.8650 C   0  0  0  0  0  0  0  0  0  0  0  0
   -5.2640   25.6340  -30.4490 C   0  0  0  0  0  0  0  0  0  0  0  0
   -3.8370   23.6280  -30.9930 N   0  0  0  0  0  0  0  0  0  0  0  0
   -4.0190   22.3940  -31.4610 N   0  0  0  0  0  0  0  0  0  0  0  0
   -2.9270   21.5440  -31.8320 C   0  0  0  0  0  0  0  0  0  0  0  0
   -2.2990   20.7500  -30.8640 C   0  0  0  0  0  0  0  0  0  0  0  0
   -1.2370   19.9170  -31.2210 C   0  0  0  0  0  0  0  0  0  0  0  0
   -0.7830   19.8840  -32.5430 C   0  0  0  0  0  0  0  0  0  0  0  0
   -1.3830   20.7040  -33.5180 C   0  0  0  0  0  0  0  0  0  0  0  0
   -0.9590   20.7180  -34.8550 O   0  0  0  0  0  0  0  0  0  0  0  0
    0.2600   21.3000  -35.3050 C   0  0  0  0  0  0  0  0  0  0  0  0
   -2.4430   21.5410  -33.1480 C   0  0  0  0  0  0  0  0  0  0  0  0
   -5.3460   22.1900  -31.6360 C   0  0  0  0  0  0  0  0  0  0  0  0
   -8.4174   18.4465  -30.5189 H   0  0  0  0  0  0  0  0  0  0  0  0
   -8.2630   19.3592  -32.0582 H   0  0  0  0  0  0  0  0  0  0  0  0
   -8.9829   17.7135  -32.0582 H   0  0  0  0  0  0  0  0  0  0  0  0
   -6.7731   16.8031  -31.2724 H   0  0  0  0  0  0  0  0  0  0  0  0
   -6.6962   17.5954  -32.8968 H   0  0  0  0  0  0  0  0  0  0  0  0
   -6.0457   19.1332  -30.3544 H   0  0  0  0  0  0  0  0  0  0  0  0
   -4.8089   18.1180  -31.1978 H   0  0  0  0  0  0  0  0  0  0  0  0
   -4.3968   20.4616  -33.9373 H   0  0  0  0  0  0  0  0  0  0  0  0
   -3.9839   18.7983  -33.3420 H   0  0  0  0  0  0  0  0  0  0  0  0
   -6.6591   18.5740  -34.0915 H   0  0  0  0  0  0  0  0  0  0  0  0
   -5.9445   19.6514  -35.3565 H   0  0  0  0  0  0  0  0  0  0  0  0
   -4.0440   17.4882  -33.4876 H   0  0  0  0  0  0  0  0  0  0  0  0
   -3.5994   16.4413  -34.8779 H   0  0  0  0  0  0  0  0  0  0  0  0
   -3.1393   18.1777  -34.8779 H   0  0  0  0  0  0  0  0  0  0  0  0
   -9.9879   22.5240  -30.9703 H   0  0  0  0  0  0  0  0  0  0  0  0
   -9.8212   23.4133  -32.5221 H   0  0  0  0  0  0  0  0  0  0  0  0
   -9.9359   21.6207  -32.5221 H   0  0  0  0  0  0  0  0  0  0  0  0
   -5.2734   25.6963  -29.3508 H   0  0  0  0  0  0  0  0  0  0  0  0
   -4.4501   26.2592  -30.8448 H   0  0  0  0  0  0  0  0  0  0  0  0
   -6.2262   25.9910  -30.8448 H   0  0  0  0  0  0  0  0  0  0  0  0
   -2.6434   20.7828  -29.8198 H   0  0  0  0  0  0  0  0  0  0  0  0
   -0.7561   19.2848  -30.4600 H   0  0  0  0  0  0  0  0  0  0  0  0
    0.0450   19.2158  -32.8222 H   0  0  0  0  0  0  0  0  0  0  0  0
    0.8697   21.5911  -34.4370 H   0  0  0  0  0  0  0  0  0  0  0  0
    0.8130   20.5688  -35.9129 H   0  0  0  0  0  0  0  0  0  0  0  0
    0.0391   22.1898  -35.9129 H   0  0  0  0  0  0  0  0  0  0  0  0
   -2.9008   22.2031  -33.8977 H   0  0  0  0  0  0  0  0  0  0  0  0
  1  2  1  0
  2  3  1  0
  3  4  1  0
  4  5  1  0
  5  6  1  0
  6  7  1  0
  7  8  1  0
  4  9  1  0
  9 10  2  0
 10 11  1  0
 11 12  1  0
 11 13  2  0
 13 14  1  0
 14 15  1  0
 15 16  1  0
 15 17  2  0
 17 18  1  0
 18 19  1  0
 19 20  2  0
 20 21  1  0
 21 22  2  0
 22 23  1  0
 23 24  1  0
 24 25  1  0
 23 26  2  0
 18 27  1  0
 27  9  1  0
 27 14  2  0
 26 19  1  0
  1 28  1  0
  1 29  1  0
  1 30  1  0
  2 31  1  0
  2 32  1  0
  3 33  1  0
  3 34  1  0
  5 35  1  0
  5 36  1  0
  6 37  1  0
  6 38  1  0
  8 39  1  0
  8 40  1  0
  8 41  1  0
 12 42  1  0
 12 43  1  0
 12 44  1  0
 16 45  1  0
 16 46  1  0
 16 47  1  0
 20 48  1  0
 21 49  1  0
 22 50  1  0
 25 51  1  0
 25 52  1  0
 25 53  1  0
 26 54  1  0
M  END
>  <UniqueID>  (27) 
26

>  <SMILES>  (27) 
CCCN(CCOC)c1nc(C)nc2c(C)nn(-c3cccc(OC)c3)c12

>  <Energy>  (27) 
99.38537332199222

>  <Genealogy>  (27) 
CCCN(CCOC)c1nc(C)nc2c(C)nn(-c3cccc(OC)c3)c12 (3D coordinates assigned)
CCCN(CCOC)c1nc(C)nc2c(C)nn(-c3cccc(OC)c3)c12 (optimized conformer: 99.38537332199222 kcal/mol)

>  <smiles>  (27) 
CCCN(CCOC)c1nc(C)nc2c(C)nn(-c3cccc(OC)c3)c12

>  <score_type>  (27) 
oracle

>  <origin>  (27) 
adg

>  <m_score__min__energy>  (27) 
-7.5300000000000002

>  <m_primary>  (27) 
energy

$$$$
27:0
     RDKit          3D

 47 49  0  0  0  0  0  0  0  0999 V2000
   -4.2400   17.1530  -35.3500 C   0  0  0  0  0  0  0  0  0  0  0  0
   -5.2600   18.1450  -35.2760 O   0  0  0  0  0  0  0  0  0  0  0  0
   -5.9080   18.5270  -34.0920 C   0  0  0  0  0  0  0  0  0  0  0  0
   -6.8580   17.6570  -33.5460 C   0  0  0  0  0  0  0  0  0  0  0  0
   -7.5270   17.9900  -32.3670 C   0  0  0  0  0  0  0  0  0  0  0  0
   -7.2560   19.1980  -31.7230 C   0  0  0  0  0  0  0  0  0  0  0  0
   -6.3170   20.0950  -32.2590 C   0  0  0  0  0  0  0  0  0  0  0  0
   -6.0090   21.3800  -31.5840 C   0  0  0  0  0  0  0  0  0  0  0  0
   -4.7660   21.7470  -31.1030 C   0  0  0  0  0  0  0  0  0  0  0  0
   -4.8890   23.0350  -30.6220 C   0  0  0  0  0  0  0  0  0  0  0  0
   -3.7810   23.7870  -29.9950 C   0  0  0  0  0  0  0  0  0  0  0  0
   -3.4930   24.9230  -30.4620 O   0  0  0  0  0  0  0  0  0  0  0  0
   -2.9460   23.1800  -28.9740 N   0  0  0  0  0  0  0  0  0  0  0  0
   -2.9120   23.9910  -27.7370 C   0  0  0  0  0  0  0  0  0  0  0  0
   -2.0050   25.2410  -27.8620 C   0  0  0  0  0  0  0  0  0  0  0  0
   -1.1760   25.2200  -29.0100 O   0  0  0  0  0  0  0  0  0  0  0  0
   -0.5540   23.9610  -29.1260 C   0  0  0  0  0  0  0  0  0  0  0  0
   -1.5890   22.8830  -29.4970 C   0  0  0  0  0  0  0  0  0  0  0  0
   -6.1460   23.4930  -30.8310 N   0  0  0  0  0  0  0  0  0  0  0  0
   -6.6570   24.8360  -30.5500 C   0  0  0  0  0  0  0  0  0  0  0  0
   -6.8410   22.4780  -31.3940 C   0  0  0  0  0  0  0  0  0  0  0  0
   -8.5540   22.6100  -31.9400 S   0  0  0  0  0  0  0  0  0  0  0  0
   -9.2000   21.5470  -30.6100 C   0  0  0  0  0  0  0  0  0  0  0  0
   -5.6380   19.7480  -33.4400 C   0  0  0  0  0  0  0  0  0  0  0  0
   -3.9389   16.8602  -34.3334 H   0  0  0  0  0  0  0  0  0  0  0  0
   -4.6230   16.2726  -35.8869 H   0  0  0  0  0  0  0  0  0  0  0  0
   -3.3706   17.5603  -35.8869 H   0  0  0  0  0  0  0  0  0  0  0  0
   -7.0792   16.7042  -34.0492 H   0  0  0  0  0  0  0  0  0  0  0  0
   -8.2702   17.2980  -31.9442 H   0  0  0  0  0  0  0  0  0  0  0  0
   -7.7810   19.4495  -30.7897 H   0  0  0  0  0  0  0  0  0  0  0  0
   -3.8545   21.1312  -31.1035 H   0  0  0  0  0  0  0  0  0  0  0  0
   -3.3720   22.2600  -28.7150 H   0  0  0  0  0  0  0  0  0  0  0  0
   -3.9353   24.3213  -27.5053 H   0  0  0  0  0  0  0  0  0  0  0  0
   -2.4960   23.3590  -26.9385 H   0  0  0  0  0  0  0  0  0  0  0  0
   -2.6458   26.1337  -27.9106 H   0  0  0  0  0  0  0  0  0  0  0  0
   -1.3436   25.2524  -26.9831 H   0  0  0  0  0  0  0  0  0  0  0  0
    0.2167   24.0083  -29.9094 H   0  0  0  0  0  0  0  0  0  0  0  0
   -0.0963   23.6989  -28.1607 H   0  0  0  0  0  0  0  0  0  0  0  0
   -1.6434   22.8114  -30.5933 H   0  0  0  0  0  0  0  0  0  0  0  0
   -1.2591   21.9381  -29.0406 H   0  0  0  0  0  0  0  0  0  0  0  0
   -6.7142   24.9863  -29.4618 H   0  0  0  0  0  0  0  0  0  0  0  0
   -5.9809   25.5847  -30.9885 H   0  0  0  0  0  0  0  0  0  0  0  0
   -7.6598   24.9459  -30.9885 H   0  0  0  0  0  0  0  0  0  0  0  0
   -8.9367   21.9803  -29.6338 H   0  0  0  0  0  0  0  0  0  0  0  0
  -10.2943   21.4758  -30.6964 H   0  0  0  0  0  0  0  0  0  0  0  0
   -8.7592   20.5429  -30.6964 H   0  0  0  0  0  0  0  0  0  0  0  0
   -4.8888   20.4355  -33.8596 H   0  0  0  0  0  0  0  0  0  0  0  0
  1  2  1  0
  2  3  1  0
  3  4  2  0
  4  5  1  0
  5  6  2  0
  6  7  1  0
  7  8  1  0
  8  9  1  0
  9 10  2  0
 10 11  1  0
 11 12  2  0
 11 13  1  0
 13 14  1  0
 14 15  1  0
 15 16  1  0
 16 17  1  0
 17 18  1  0
 10 19  1  0
 19 20  1  0
 19 21  1  0
 21 22  1  0
 22 23  1  0
  7 24  2  0
 24  3  1  0
 21  8  2  0
 18 13  1  0
  1 25  1  0
  1 26  1  0
  1 27  1  0
  4 28  1  0
  5 29  1  0
  6 30  1  0
  9 31  1  0
 13 32  1  0
 14 33  1  0
 14 34  1  0
 15 35  1  0
 15 36  1  0
 17 37  1  0
 17 38  1  0
 18 39  1  0
 18 40  1  0
 20 41  1  0
 20 42  1  0
 20 43  1  0
 23 44  1  0
 23 45  1  0
 23 46  1  0
 24 47  1  0
M  CHG  1  13   1
M  END
>  <UniqueID>  (28) 
27

>  <SMILES>  (28) 
COc1cccc(-c2cc(C(=O)[NH+]3CCOCC3)n(C)c2SC)c1

>  <Energy>  (28) 
93.77836104961163

>  <Genealogy>  (28) 
COc1cccc(-c2cc(C(=O)[NH+]3CCOCC3)n(C)c2SC)c1 (protonated)
COc1cccc(-c2cc(C(=O)[NH+]3CCOCC3)n(C)c2SC)c1 (3D coordinates assigned)
COc1cccc(-c2cc(C(=O)[NH+]3CCOCC3)n(C)c2SC)c1 (nonaromatic ring conformer: 93.77836104961163 kcal/mol)

>  <smiles>  (28) 
COc1cccc(-c2cc(C(=O)N3CCOCC3)n(C)c2SC)c1

>  <score_type>  (28) 
oracle

>  <origin>  (28) 
adg

>  <m_score__min__energy>  (28) 
-8.0700000000000003

>  <m_primary>  (28) 
energy

$$$$
28:0
     RDKit          3D

 45 48  0  0  0  0  0  0  0  0999 V2000
   -0.0270   23.8930  -28.4890 C   0  0  0  0  0  0  0  0  0  0  0  0
   -0.8640   24.7580  -29.3240 N   0  0  0  0  0  0  0  0  0  0  0  0
   -2.1910   24.9540  -28.7270 C   0  0  0  0  0  0  0  0  0  0  0  0
   -3.1870   24.0100  -29.3360 C   0  0  0  0  0  0  0  0  0  0  0  0
   -4.5620   24.1810  -29.1320 C   0  0  0  0  0  0  0  0  0  0  0  0
   -5.4610   23.2980  -29.7310 C   0  0  0  0  0  0  0  0  0  0  0  0
   -4.9880   22.2570  -30.5450 C   0  0  0  0  0  0  0  0  0  0  0  0
   -5.9120   21.2950  -31.1810 C   0  0  0  0  0  0  0  0  0  0  0  0
   -5.5380   20.0540  -31.5740 N   0  0  0  0  0  0  0  0  0  0  0  0
   -6.5970   19.4450  -32.0980 N   0  0  0  0  0  0  0  0  0  0  0  0
   -6.5800   18.0630  -32.5730 C   0  0  0  0  0  0  0  0  0  0  0  0
   -5.3450   17.8170  -33.3950 C   0  0  0  0  0  0  0  0  0  0  0  0
   -5.2450   16.6560  -34.1770 C   0  0  0  0  0  0  0  0  0  0  0  0
   -4.1080   16.4480  -34.9570 C   0  0  0  0  0  0  0  0  0  0  0  0
   -3.0830   17.3950  -34.9550 C   0  0  0  0  0  0  0  0  0  0  0  0
   -3.2130   18.5400  -34.1680 C   0  0  0  0  0  0  0  0  0  0  0  0
   -4.3290   18.7310  -33.4120 N   0  0  0  0  0  0  0  0  0  0  0  0
   -7.6510   20.2810  -32.0400 C   0  0  0  0  0  0  0  0  0  0  0  0
   -8.9600   20.0770  -32.4830 C   0  0  0  0  0  0  0  0  0  0  0  0
   -9.8720   21.1380  -32.3430 C   0  0  0  0  0  0  0  0  0  0  0  0
   -9.4590   22.3680  -31.7860 C   0  0  0  0  0  0  0  0  0  0  0  0
   -8.1340   22.5460  -31.3500 C   0  0  0  0  0  0  0  0  0  0  0  0
   -7.2570   21.4660  -31.4760 C   0  0  0  0  0  0  0  0  0  0  0  0
   -3.6030   22.1110  -30.7100 C   0  0  0  0  0  0  0  0  0  0  0  0
   -2.7460   22.9860  -30.1170 N   0  0  0  0  0  0  0  0  0  0  0  0
   -0.2286   24.1013  -27.4279 H   0  0  0  0  0  0  0  0  0  0  0  0
   -0.2574   22.8395  -28.7061 H   0  0  0  0  0  0  0  0  0  0  0  0
    1.0335   24.0886  -28.7061 H   0  0  0  0  0  0  0  0  0  0  0  0
   -0.9970   24.2670  -30.2410 H   0  0  0  0  0  0  0  0  0  0  0  0
   -2.1317   24.7685  -27.6444 H   0  0  0  0  0  0  0  0  0  0  0  0
   -2.5176   25.9869  -28.9178 H   0  0  0  0  0  0  0  0  0  0  0  0
   -4.9305   25.0055  -28.5040 H   0  0  0  0  0  0  0  0  0  0  0  0
   -6.5418   23.4178  -29.5651 H   0  0  0  0  0  0  0  0  0  0  0  0
   -6.5850   17.3810  -31.7099 H   0  0  0  0  0  0  0  0  0  0  0  0
   -7.4694   17.8839  -33.1950 H   0  0  0  0  0  0  0  0  0  0  0  0
   -6.0580   15.9151  -34.1747 H   0  0  0  0  0  0  0  0  0  0  0  0
   -4.0193   15.5403  -35.5720 H   0  0  0  0  0  0  0  0  0  0  0  0
   -2.1823   17.2406  -35.5672 H   0  0  0  0  0  0  0  0  0  0  0  0
   -2.4100   19.2918  -34.1584 H   0  0  0  0  0  0  0  0  0  0  0  0
   -4.3950   19.5980  -32.8340 H   0  0  0  0  0  0  0  0  0  0  0  0
   -9.2670   19.1184  -32.9265 H   0  0  0  0  0  0  0  0  0  0  0  0
  -10.9144   21.0089  -32.6697 H   0  0  0  0  0  0  0  0  0  0  0  0
  -10.1797   23.1938  -31.6924 H   0  0  0  0  0  0  0  0  0  0  0  0
   -7.7994   23.5034  -30.9241 H   0  0  0  0  0  0  0  0  0  0  0  0
   -3.2079   21.2861  -31.3211 H   0  0  0  0  0  0  0  0  0  0  0  0
  1  2  1  0
  2  3  1  0
  3  4  1  0
  4  5  2  0
  5  6  1  0
  6  7  2  0
  7  8  1  0
  8  9  2  0
  9 10  1  0
 10 11  1  0
 11 12  1  0
 12 13  2  0
 13 14  1  0
 14 15  2  0
 15 16  1  0
 16 17  2  0
 10 18  1  0
 18 19  2  0
 19 20  1  0
 20 21  2  0
 21 22  1  0
 22 23  2  0
  7 24  1  0
 24 25  2  0
 25  4  1  0
 23  8  1  0
 17 12  1  0
 23 18  1  0
  1 26  1  0
  1 27  1  0
  1 28  1  0
  2 29  1  0
  3 30  1  0
  3 31  1  0
  5 32  1  0
  6 33  1  0
 11 34  1  0
 11 35  1  0
 13 36  1  0
 14 37  1  0
 15 38  1  0
 16 39  1  0
 17 40  1  0
 19 41  1  0
 20 42  1  0
 21 43  1  0
 22 44  1  0
 24 45  1  0
M  CHG  1  17   1
M  END
>  <UniqueID>  (29) 
28

>  <SMILES>  (29) 
CNCc1ccc(-c2nn(Cc3cccc[nH+]3)c3ccccc23)cn1

>  <Energy>  (29) 
89.6259927806876

>  <Genealogy>  (29) 
CNCc1ccc(-c2nn(Cc3cccc[nH+]3)c3ccccc23)cn1 (protonated)
CNCc1ccc(-c2nn(Cc3cccc[nH+]3)c3ccccc23)cn1 (3D coordinates assigned)
CNCc1ccc(-c2nn(Cc3cccc[nH+]3)c3ccccc23)cn1 (optimized conformer: 89.6259927806876 kcal/mol)

>  <smiles>  (29) 
CNCc1ccc(-c2nn(Cc3ccccn3)c3ccccc23)cn1

>  <score_type>  (29) 
oracle

>  <origin>  (29) 
adg

>  <m_score__min__energy>  (29) 
-7.8499999999999996

>  <m_primary>  (29) 
energy

$$$$
29:0
     RDKit          3D

 34 36  0  0  0  0  0  0  0  0999 V2000
   -4.5210   21.8540  -28.1620 H   0  0  0  0  0  0  0  0  0  0  0  0
   -4.0510   22.1900  -29.0300 N   0  0  0  0  0  0  0  0  0  0  0  0
   -4.3290   23.3290  -29.5850 C   0  0  0  0  0  0  0  0  0  0  0  0
   -5.3160   23.5700  -30.5350 C   0  0  0  0  0  0  0  0  0  0  0  0
   -6.3180   22.6450  -31.1040 C   0  0  0  0  0  0  0  0  0  0  0  0
   -5.9450   21.6590  -32.0310 C   0  0  0  0  0  0  0  0  0  0  0  0
   -4.8965   21.5811  -32.3543 H   0  0  0  0  0  0  0  0  0  0  0  0
   -6.8990   20.7750  -32.5460 C   0  0  0  0  0  0  0  0  0  0  0  0
   -6.5970   20.0051  -33.2712 H   0  0  0  0  0  0  0  0  0  0  0  0
   -8.2380   20.8660  -32.1420 C   0  0  0  0  0  0  0  0  0  0  0  0
   -9.2520   19.8920  -32.6650 C   0  0  0  0  0  0  0  0  0  0  0  0
   -9.7606   19.4035  -31.8208 H   0  0  0  0  0  0  0  0  0  0  0  0
   -9.9916   20.4269  -33.2788 H   0  0  0  0  0  0  0  0  0  0  0  0
   -8.7473   19.1314  -33.2788 H   0  0  0  0  0  0  0  0  0  0  0  0
   -8.6060   21.8250  -31.1870 C   0  0  0  0  0  0  0  0  0  0  0  0
   -9.6491   21.8829  -30.8425 H   0  0  0  0  0  0  0  0  0  0  0  0
   -7.6520   22.7080  -30.6710 C   0  0  0  0  0  0  0  0  0  0  0  0
   -7.9487   23.4564  -29.9214 H   0  0  0  0  0  0  0  0  0  0  0  0
   -5.1800   24.9160  -30.8330 C   0  0  0  0  0  0  0  0  0  0  0  0
   -5.7860   25.4729  -31.5628 H   0  0  0  0  0  0  0  0  0  0  0  0
   -4.1860   25.4330  -30.0850 N   0  0  0  0  0  0  0  0  0  0  0  0
   -3.8620   26.4260  -30.1080 H   0  0  0  0  0  0  0  0  0  0  0  0
   -3.6620   24.4770  -29.3320 N   0  0  0  0  0  0  0  0  0  0  0  0
   -2.5680   24.6810  -28.4190 C   0  0  0  0  0  0  0  0  0  0  0  0
   -2.8230   24.9130  -27.0570 C   0  0  0  0  0  0  0  0  0  0  0  0
   -3.8601   24.9295  -26.6907 H   0  0  0  0  0  0  0  0  0  0  0  0
   -1.7680   25.1230  -26.1640 C   0  0  0  0  0  0  0  0  0  0  0  0
   -1.9771   25.2979  -25.0983 H   0  0  0  0  0  0  0  0  0  0  0  0
   -0.4490   25.1110  -26.6230 C   0  0  0  0  0  0  0  0  0  0  0  0
    0.3802   25.2730  -25.9186 H   0  0  0  0  0  0  0  0  0  0  0  0
   -0.1830   24.8930  -27.9780 C   0  0  0  0  0  0  0  0  0  0  0  0
    0.8557   24.8874  -28.3399 H   0  0  0  0  0  0  0  0  0  0  0  0
   -1.2360   24.6820  -28.8740 C   0  0  0  0  0  0  0  0  0  0  0  0
   -1.0221   24.5159  -29.9401 H   0  0  0  0  0  0  0  0  0  0  0  0
  1  2  1  0
  2  3  2  0
  3  4  1  0
  4  5  1  0
  5  6  2  0
  6  7  1  0
  6  8  1  0
  8  9  1  0
  8 10  2  0
 10 11  1  0
 11 12  1  0
 11 13  1  0
 11 14  1  0
 10 15  1  0
 15 16  1  0
 15 17  2  0
 17 18  1  0
  4 19  2  0
 19 20  1  0
 19 21  1  0
 21 22  1  0
 21 23  1  0
 23 24  1  0
 24 25  2  0
 25 26  1  0
 25 27  1  0
 27 28  1  0
 27 29  2  0
 29 30  1  0
 29 31  1  0
 31 32  1  0
 31 33  2  0
 33 34  1  0
 23  3  1  0
 33 24  1  0
 17  5  1  0
M  END
>  <UniqueID>  (30) 
29

>  <SMILES>  (30) 
[H]/N=c1\c(-c2ccc(C)cc2)c[nH]n1-c1ccccc1

>  <Energy>  (30) 
79.03911282934266

>  <Genealogy>  (30) 
[H]/N=c1\c(-c2ccc(C)cc2)c[nH]n1-c1ccccc1 (cis-trans isomerization)
[H]/N=c1\c(-c2ccc(C)cc2)c[nH]n1-c1ccccc1 (3D coordinates assigned)
[H]/N=c1\c(-c2ccc(C)cc2)c[nH]n1-c1ccccc1 (optimized conformer: 79.03911282934266 kcal/mol)

>  <smiles>  (30) 
Cc1ccc(-c2c[nH]n(-c3ccccc3)c2=N)cc1

>  <score_type>  (30) 
oracle

>  <origin>  (30) 
adg

>  <m_score__min__energy>  (30) 
-7.2800000000000002

>  <m_primary>  (30) 
energy

$$$$
30:0
     RDKit          3D

 46 48  0  0  0  0  0  0  0  0999 V2000
   -5.6920   25.2530  -30.7030 C   0  0  0  0  0  0  0  0  0  0  0  0
   -5.4140   24.6030  -29.3490 C   0  0  0  0  0  0  0  0  0  0  0  0
   -4.5380   23.4200  -29.5130 N   0  0  0  0  0  0  0  0  0  0  0  0
   -3.9070   23.0380  -28.2290 C   0  0  0  0  0  0  0  0  0  0  0  0
   -3.9050   24.2180  -27.2590 C   0  0  0  0  0  0  0  0  0  0  0  0
   -3.5260   23.6270  -30.5810 C   0  0  0  0  0  0  0  0  0  0  0  0
   -3.6140   22.5030  -31.6160 C   0  0  0  0  0  0  0  0  0  0  0  0
   -4.3490   21.3530  -31.0910 N   0  0  0  0  0  0  0  0  0  0  0  0
   -5.3360   20.6950  -31.9000 C   0  0  0  0  0  0  0  0  0  0  0  0
   -6.7060   20.9970  -31.7390 C   0  0  0  0  0  0  0  0  0  0  0  0
   -7.1500   21.9580  -30.8060 C   0  0  0  0  0  0  0  0  0  0  0  0
   -8.5120   22.2340  -30.6700 C   0  0  0  0  0  0  0  0  0  0  0  0
   -9.4460   21.5660  -31.4610 C   0  0  0  0  0  0  0  0  0  0  0  0
   -9.0240   20.6200  -32.3970 C   0  0  0  0  0  0  0  0  0  0  0  0
   -7.6580   20.3300  -32.5460 C   0  0  0  0  0  0  0  0  0  0  0  0
   -7.2540   19.4140  -33.4710 N   0  0  0  0  0  0  0  0  0  0  0  0
   -5.9390   19.1020  -33.6440 C   0  0  0  0  0  0  0  0  0  0  0  0
   -5.5640   18.1450  -34.6020 C   0  0  0  0  0  0  0  0  0  0  0  0
   -4.2210   17.8070  -34.7740 C   0  0  0  0  0  0  0  0  0  0  0  0
   -3.2410   18.4130  -33.9890 C   0  0  0  0  0  0  0  0  0  0  0  0
   -3.5970   19.3670  -33.0330 C   0  0  0  0  0  0  0  0  0  0  0  0
   -4.9470   19.7330  -32.8560 C   0  0  0  0  0  0  0  0  0  0  0  0
   -6.1202   26.2543  -30.5480 H   0  0  0  0  0  0  0  0  0  0  0  0
   -4.7522   25.3396  -31.2680 H   0  0  0  0  0  0  0  0  0  0  0  0
   -6.4038   24.6332  -31.2680 H   0  0  0  0  0  0  0  0  0  0  0  0
   -4.9181   25.3326  -28.6919 H   0  0  0  0  0  0  0  0  0  0  0  0
   -6.3679   24.2813  -28.9056 H   0  0  0  0  0  0  0  0  0  0  0  0
   -4.4699   22.2046  -27.7834 H   0  0  0  0  0  0  0  0  0  0  0  0
   -2.8671   22.7351  -28.4211 H   0  0  0  0  0  0  0  0  0  0  0  0
   -3.9056   23.8427  -26.2250 H   0  0  0  0  0  0  0  0  0  0  0  0
   -3.0058   24.8290  -27.4267 H   0  0  0  0  0  0  0  0  0  0  0  0
   -4.8021   24.8321  -27.4267 H   0  0  0  0  0  0  0  0  0  0  0  0
   -3.7115   24.5919  -31.0755 H   0  0  0  0  0  0  0  0  0  0  0  0
   -2.5224   23.6232  -30.1307 H   0  0  0  0  0  0  0  0  0  0  0  0
   -4.1304   22.8799  -32.5111 H   0  0  0  0  0  0  0  0  0  0  0  0
   -2.5925   22.1784  -31.8634 H   0  0  0  0  0  0  0  0  0  0  0  0
   -4.4460   21.2660  -30.0550 H   0  0  0  0  0  0  0  0  0  0  0  0
   -6.4188   22.4929  -30.1821 H   0  0  0  0  0  0  0  0  0  0  0  0
   -8.8493   22.9810  -29.9363 H   0  0  0  0  0  0  0  0  0  0  0  0
  -10.5180   21.7849  -31.3472 H   0  0  0  0  0  0  0  0  0  0  0  0
   -9.7652   20.0991  -33.0209 H   0  0  0  0  0  0  0  0  0  0  0  0
   -7.9730   18.9350  -34.0610 H   0  0  0  0  0  0  0  0  0  0  0  0
   -6.3335   17.6594  -35.2200 H   0  0  0  0  0  0  0  0  0  0  0  0
   -3.9351   17.0611  -35.5303 H   0  0  0  0  0  0  0  0  0  0  0  0
   -2.1842   18.1389  -34.1230 H   0  0  0  0  0  0  0  0  0  0  0  0
   -2.8184   19.8362  -32.4136 H   0  0  0  0  0  0  0  0  0  0  0  0
  1  2  1  0
  2  3  1  0
  3  4  1  0
  4  5  1  0
  3  6  1  0
  6  7  1  0
  7  8  1  0
  8  9  1  0
  9 10  2  0
 10 11  1  0
 11 12  2  0
 12 13  1  0
 13 14  2  0
 14 15  1  0
 15 16  2  0
 16 17  1  0
 17 18  2  0
 18 19  1  0
 19 20  2  0
 20 21  1  0
 21 22  2  0
 22  9  1  0
 15 10  1  0
 22 17  1  0
  1 23  1  0
  1 24  1  0
  1 25  1  0
  2 26  1  0
  2 27  1  0
  4 28  1  0
  4 29  1  0
  5 30  1  0
  5 31  1  0
  5 32  1  0
  6 33  1  0
  6 34  1  0
  7 35  1  0
  7 36  1  0
  8 37  1  0
 11 38  1  0
 12 39  1  0
 13 40  1  0
 14 41  1  0
 16 42  1  0
 18 43  1  0
 19 44  1  0
 20 45  1  0
 21 46  1  0
M  CHG  1  16   1
M  END
>  <UniqueID>  (31) 
30

>  <SMILES>  (31) 
CCN(CC)CCNc1c2ccccc2[nH+]c2ccccc12

>  <Energy>  (31) 
59.44417112312949

>  <Genealogy>  (31) 
CCN(CC)CCNc1c2ccccc2[nH+]c2ccccc12 (protonated)
CCN(CC)CCNc1c2ccccc2[nH+]c2ccccc12 (3D coordinates assigned)
CCN(CC)CCNc1c2ccccc2[nH+]c2ccccc12 (optimized conformer: 59.44417112312949 kcal/mol)

>  <smiles>  (31) 
CCN(CC)CCNc1c2ccccc2nc2ccccc12

>  <score_type>  (31) 
oracle

>  <origin>  (31) 
adg

>  <m_score__min__energy>  (31) 
-8.1099999999999994

>  <m_primary>  (31) 
energy

$$$$
31:0
     RDKit          3D

 50 52  0  0  0  0  0  0  0  0999 V2000
   -1.6740   25.3310  -27.7320 C   0  0  0  0  0  0  0  0  0  0  0  0
   -2.3490   25.5480  -28.9660 O   0  0  0  0  0  0  0  0  0  0  0  0
   -2.9870   24.5390  -29.7030 C   0  0  0  0  0  0  0  0  0  0  0  0
   -4.2980   24.7640  -30.1400 C   0  0  0  0  0  0  0  0  0  0  0  0
   -4.9800   23.7850  -30.8640 C   0  0  0  0  0  0  0  0  0  0  0  0
   -4.3540   22.5660  -31.1750 C   0  0  0  0  0  0  0  0  0  0  0  0
   -5.0590   21.5460  -31.8990 N   0  0  0  0  0  0  0  0  0  0  0  0
   -6.5220   21.4800  -31.8010 C   0  0  0  0  0  0  0  0  0  0  0  0
   -7.1060   20.8490  -33.0740 C   0  0  0  0  0  0  0  0  0  0  0  0
   -6.4690   19.5440  -33.3810 N   0  0  0  0  0  0  0  0  0  0  0  0
   -6.7120   18.4890  -32.3940 C   0  0  0  0  0  0  0  0  0  0  0  0
   -6.3780   18.6620  -31.2300 O   0  0  0  0  0  0  0  0  0  0  0  0
   -7.2430   17.1120  -32.7460 C   0  0  0  0  0  0  0  0  0  0  0  0
   -7.0180   16.8250  -34.1270 O   0  0  0  0  0  0  0  0  0  0  0  0
   -5.8040   17.0750  -34.7800 C   0  0  0  0  0  0  0  0  0  0  0  0
   -5.7340   17.9580  -35.6770 O   0  0  0  0  0  0  0  0  0  0  0  0
   -4.6040   16.3090  -34.3880 C   0  0  0  0  0  0  0  0  0  0  0  0
   -3.3280   16.8360  -34.3340 C   0  0  0  0  0  0  0  0  0  0  0  0
   -2.4900   15.8060  -33.9580 C   0  0  0  0  0  0  0  0  0  0  0  0
   -3.2850   14.6890  -33.7970 C   0  0  0  0  0  0  0  0  0  0  0  0
   -4.5700   14.9970  -34.0560 N   0  0  0  0  0  0  0  0  0  0  0  0
   -5.6940   14.0630  -33.9770 C   0  0  0  0  0  0  0  0  0  0  0  0
   -5.0200   19.7670  -33.6100 C   0  0  0  0  0  0  0  0  0  0  0  0
   -4.3310   20.3650  -32.3700 C   0  0  0  0  0  0  0  0  0  0  0  0
   -3.0380   22.3440  -30.7490 C   0  0  0  0  0  0  0  0  0  0  0  0
   -2.3580   23.3200  -30.0150 C   0  0  0  0  0  0  0  0  0  0  0  0
   -2.3562   25.5503  -26.8974 H   0  0  0  0  0  0  0  0  0  0  0  0
   -1.3469   24.2824  -27.6724 H   0  0  0  0  0  0  0  0  0  0  0  0
   -0.7972   25.9925  -27.6724 H   0  0  0  0  0  0  0  0  0  0  0  0
   -4.7938   25.7189  -29.9111 H   0  0  0  0  0  0  0  0  0  0  0  0
   -6.0134   23.9687  -31.1931 H   0  0  0  0  0  0  0  0  0  0  0  0
   -6.8015   20.8688  -30.9302 H   0  0  0  0  0  0  0  0  0  0  0  0
   -6.9225   22.4981  -31.6863 H   0  0  0  0  0  0  0  0  0  0  0  0
   -8.1858   20.6942  -32.9322 H   0  0  0  0  0  0  0  0  0  0  0  0
   -6.9130   21.5314  -33.9149 H   0  0  0  0  0  0  0  0  0  0  0  0
   -6.8690   19.1930  -34.2840 H   0  0  0  0  0  0  0  0  0  0  0  0
   -6.7289   16.3582  -32.1316 H   0  0  0  0  0  0  0  0  0  0  0  0
   -8.3252   17.0882  -32.5503 H   0  0  0  0  0  0  0  0  0  0  0  0
   -3.0366   17.8747  -34.5489 H   0  0  0  0  0  0  0  0  0  0  0  0
   -1.4009   15.8638  -33.8146 H   0  0  0  0  0  0  0  0  0  0  0  0
   -2.9221   13.6937  -33.5007 H   0  0  0  0  0  0  0  0  0  0  0  0
   -5.9325   13.8648  -32.9216 H   0  0  0  0  0  0  0  0  0  0  0  0
   -6.5711   14.5019  -34.4750 H   0  0  0  0  0  0  0  0  0  0  0  0
   -5.4231   13.1203  -34.4750 H   0  0  0  0  0  0  0  0  0  0  0  0
   -4.5454   18.8045  -33.8517 H   0  0  0  0  0  0  0  0  0  0  0  0
   -4.9107   20.4809  -34.4397 H   0  0  0  0  0  0  0  0  0  0  0  0
   -4.3078   19.6108  -31.5696 H   0  0  0  0  0  0  0  0  0  0  0  0
   -3.3070   20.6622  -32.6402 H   0  0  0  0  0  0  0  0  0  0  0  0
   -2.5368   21.3959  -30.9936 H   0  0  0  0  0  0  0  0  0  0  0  0
   -1.3269   23.1341  -29.6800 H   0  0  0  0  0  0  0  0  0  0  0  0
  1  2  1  0
  2  3  1  0
  3  4  2  0
  4  5  1  0
  5  6  2  0
  6  7  1  0
  7  8  1  0
  8  9  1  0
  9 10  1  0
 10 11  1  0
 11 12  2  0
 11 13  1  0
 13 14  1  0
 14 15  1  0
 15 16  2  0
 15 17  1  0
 17 18  2  0
 18 19  1  0
 19 20  2  0
 20 21  1  0
 21 22  1  0
 10 23  1  0
 23 24  1  0
  6 25  1  0
 25 26  2  0
 26  3  1  0
 24  7  1  0
 21 17  1  0
  1 27  1  0
  1 28  1  0
  1 29  1  0
  4 30  1  0
  5 31  1  0
  8 32  1  0
  8 33  1  0
  9 34  1  0
  9 35  1  0
 10 36  1  0
 13 37  1  0
 13 38  1  0
 18 39  1  0
 19 40  1  0
 20 41  1  0
 22 42  1  0
 22 43  1  0
 22 44  1  0
 23 45  1  0
 23 46  1  0
 24 47  1  0
 24 48  1  0
 25 49  1  0
 26 50  1  0
M  CHG  1  10   1
M  END
>  <UniqueID>  (32) 
31

>  <SMILES>  (32) 
COc1ccc(N2CC[NH+](C(=O)COC(=O)c3cccn3C)CC2)cc1

>  <Energy>  (32) 
88.62198023477387

>  <Genealogy>  (32) 
COc1ccc(N2CC[NH+](C(=O)COC(=O)c3cccn3C)CC2)cc1 (protonated)
COc1ccc(N2CC[NH+](C(=O)COC(=O)c3cccn3C)CC2)cc1 (3D coordinates assigned)
COc1ccc(N2CC[NH+](C(=O)COC(=O)c3cccn3C)CC2)cc1 (nonaromatic ring conformer: 88.62198023477387 kcal/mol)

>  <smiles>  (32) 
COc1ccc(N2CCN(C(=O)COC(=O)c3cccn3C)CC2)cc1

>  <score_type>  (32) 
oracle

>  <origin>  (32) 
adg

>  <m_score__min__energy>  (32) 
-7.5499999999999998

>  <m_primary>  (32) 
energy

$$$$
32:0
     RDKit          3D

 50 53  0  0  0  0  0  0  0  0999 V2000
   -5.4330   17.1840  -34.3130 C   0  0  0  0  0  0  0  0  0  0  0  0
   -5.7430   18.5860  -34.8230 C   0  0  0  0  0  0  0  0  0  0  0  0
   -6.1370   19.4520  -33.7120 N   0  0  0  0  0  0  0  0  0  0  0  0
   -7.3770   19.5500  -33.2450 N   0  0  0  0  0  0  0  0  0  0  0  0
   -7.4070   20.4810  -32.2630 C   0  0  0  0  0  0  0  0  0  0  0  0
   -8.6190   20.8310  -31.4530 C   0  0  0  0  0  0  0  0  0  0  0  0
   -9.0910   22.2690  -31.6070 C   0  0  0  0  0  0  0  0  0  0  0  0
   -9.8630   21.1420  -32.2700 C   0  0  0  0  0  0  0  0  0  0  0  0
   -6.1290   20.9800  -32.1060 C   0  0  0  0  0  0  0  0  0  0  0  0
   -5.5930   21.9340  -31.2440 C   0  0  0  0  0  0  0  0  0  0  0  0
   -4.2170   22.2240  -31.3600 C   0  0  0  0  0  0  0  0  0  0  0  0
   -3.4590   23.4050  -30.2950 S   0  0  0  0  0  0  0  0  0  0  0  0
   -3.8860   24.7960  -30.6760 O   0  0  0  0  0  0  0  0  0  0  0  0
   -1.9680   23.2970  -30.4630 O   0  0  0  0  0  0  0  0  0  0  0  0
   -3.9020   23.0770  -28.6350 N   0  0  0  0  0  0  0  0  0  0  0  0
   -3.5280   24.2100  -27.7530 C   0  0  0  0  0  0  0  0  0  0  0  0
   -2.1910   24.9060  -28.1000 C   0  0  0  0  0  0  0  0  0  0  0  0
   -0.8990   24.1340  -27.7270 C   0  0  0  0  0  0  0  0  0  0  0  0
   -0.9170   22.6280  -28.0410 C   0  0  0  0  0  0  0  0  0  0  0  0
   -2.0860   21.8510  -27.3980 C   0  0  0  0  0  0  0  0  0  0  0  0
   -3.3730   21.7570  -28.2380 C   0  0  0  0  0  0  0  0  0  0  0  0
   -3.4280   21.5510  -32.3250 C   0  0  0  0  0  0  0  0  0  0  0  0
   -4.0000   20.5880  -33.1770 C   0  0  0  0  0  0  0  0  0  0  0  0
   -5.3640   20.3250  -33.0340 C   0  0  0  0  0  0  0  0  0  0  0  0
   -5.4333   17.1856  -33.2130 H   0  0  0  0  0  0  0  0  0  0  0  0
   -6.1979   16.4833  -34.6789 H   0  0  0  0  0  0  0  0  0  0  0  0
   -4.4440   16.8711  -34.6789 H   0  0  0  0  0  0  0  0  0  0  0  0
   -4.8479   19.0022  -35.3084 H   0  0  0  0  0  0  0  0  0  0  0  0
   -6.5705   18.5303  -35.5456 H   0  0  0  0  0  0  0  0  0  0  0  0
   -8.1900   18.9910  -33.5890 H   0  0  0  0  0  0  0  0  0  0  0  0
   -8.3885   20.1709  -30.6038 H   0  0  0  0  0  0  0  0  0  0  0  0
   -9.5242   22.8007  -30.7470 H   0  0  0  0  0  0  0  0  0  0  0  0
   -8.6305   23.2057  -31.9543 H   0  0  0  0  0  0  0  0  0  0  0  0
  -10.8554   20.8577  -31.8902 H   0  0  0  0  0  0  0  0  0  0  0  0
  -10.1932   20.9248  -33.2965 H   0  0  0  0  0  0  0  0  0  0  0  0
   -6.2209   22.4438  -30.4984 H   0  0  0  0  0  0  0  0  0  0  0  0
   -4.3277   24.9631  -27.8100 H   0  0  0  0  0  0  0  0  0  0  0  0
   -3.3957   23.7819  -26.7484 H   0  0  0  0  0  0  0  0  0  0  0  0
   -2.1757   25.0805  -29.1860 H   0  0  0  0  0  0  0  0  0  0  0  0
   -2.1709   25.8231  -27.4930 H   0  0  0  0  0  0  0  0  0  0  0  0
   -0.0620   24.5860  -28.2794 H   0  0  0  0  0  0  0  0  0  0  0  0
   -0.8020   24.2149  -26.6343 H   0  0  0  0  0  0  0  0  0  0  0  0
   -0.9830   22.5059  -29.1322 H   0  0  0  0  0  0  0  0  0  0  0  0
    0.0069   22.2098  -27.6149 H   0  0  0  0  0  0  0  0  0  0  0  0
   -1.7395   20.8267  -27.1963 H   0  0  0  0  0  0  0  0  0  0  0  0
   -2.3598   22.4176  -26.4958 H   0  0  0  0  0  0  0  0  0  0  0  0
   -3.1558   21.1785  -29.1481 H   0  0  0  0  0  0  0  0  0  0  0  0
   -4.1376   21.2708  -27.6142 H   0  0  0  0  0  0  0  0  0  0  0  0
   -2.3562   21.7837  -32.4093 H   0  0  0  0  0  0  0  0  0  0  0  0
   -3.3942   20.0611  -33.9289 H   0  0  0  0  0  0  0  0  0  0  0  0
  1  2  1  0
  2  3  1  0
  3  4  1  0
  4  5  2  0
  5  6  1  0
  6  7  1  0
  7  8  1  0
  5  9  1  0
  9 10  2  0
 10 11  1  0
 11 12  1  0
 12 13  2  0
 12 14  2  0
 12 15  1  0
 15 16  1  0
 16 17  1  0
 17 18  1  0
 18 19  1  0
 19 20  1  0
 20 21  1  0
 11 22  2  0
 22 23  1  0
 23 24  2  0
 24  3  1  0
  8  6  1  0
 24  9  1  0
 21 15  1  0
  1 25  1  0
  1 26  1  0
  1 27  1  0
  2 28  1  0
  2 29  1  0
  4 30  1  0
  6 31  1  0
  7 32  1  0
  7 33  1  0
  8 34  1  0
  8 35  1  0
 10 36  1  0
 16 37  1  0
 16 38  1  0
 17 39  1  0
 17 40  1  0
 18 41  1  0
 18 42  1  0
 19 43  1  0
 19 44  1  0
 20 45  1  0
 20 46  1  0
 21 47  1  0
 21 48  1  0
 22 49  1  0
 23 50  1  0
M  CHG  1   4   1
M  END
>  <UniqueID>  (33) 
32

>  <SMILES>  (33) 
CCn1[nH+]c(C2CC2)c2cc(S(=O)(=O)N3CCCCCC3)ccc21

>  <Energy>  (33) 
362.59443451446225

>  <Genealogy>  (33) 
CCn1[nH+]c(C2CC2)c2cc(S(=O)(=O)N3CCCCCC3)ccc21 (protonated)
CCn1[nH+]c(C2CC2)c2cc(S(=O)(=O)N3CCCCCC3)ccc21 (3D coordinates assigned)
CCn1[nH+]c(C2CC2)c2cc(S(=O)(=O)N3CCCCCC3)ccc21 (nonaromatic ring conformer: 362.59443451446225 kcal/mol)

>  <smiles>  (33) 
CCn1nc(C2CC2)c2cc(S(=O)(=O)N3CCCCCC3)ccc21

>  <score_type>  (33) 
oracle

>  <origin>  (33) 
adg

>  <m_score__min__energy>  (33) 
-7.6200000000000001

>  <m_primary>  (33) 
energy

$$$$
33:0
     RDKit          3D

 63 65  0  0  0  0  0  0  0  0999 V2000
    3.3010   25.3230  -23.5880 C   0  0  0  0  0  0  0  0  0  0  0  0
    2.8680   26.7870  -23.7550 C   0  0  0  0  0  0  0  0  0  0  0  0
    1.6380   26.9630  -24.5700 N   0  0  0  0  0  0  0  0  0  0  0  0
    1.8690   27.2250  -26.0120 C   0  0  0  0  0  0  0  0  0  0  0  0
    1.8190   25.9380  -26.8390 C   0  0  0  0  0  0  0  0  0  0  0  0
    0.6870   27.9330  -23.9730 C   0  0  0  0  0  0  0  0  0  0  0  0
   -0.5300   27.1710  -23.4290 C   0  0  0  0  0  0  0  0  0  0  0  0
   -0.2860   25.7200  -23.3400 N   0  0  0  0  0  0  0  0  0  0  0  0
   -0.6760   25.0410  -24.5530 C   0  0  0  0  0  0  0  0  0  0  0  0
   -0.2220   23.7360  -24.8240 C   0  0  0  0  0  0  0  0  0  0  0  0
   -0.6180   23.0780  -25.9910 C   0  0  0  0  0  0  0  0  0  0  0  0
   -1.4660   23.7160  -26.9130 C   0  0  0  0  0  0  0  0  0  0  0  0
   -1.8620   23.0450  -28.1230 N   0  0  0  0  0  0  0  0  0  0  0  0
   -2.1860   21.6120  -28.1030 C   0  0  0  0  0  0  0  0  0  0  0  0
   -3.4550   21.3540  -28.9250 C   0  0  0  0  0  0  0  0  0  0  0  0
   -3.4270   22.0940  -30.1930 N   0  0  0  0  0  0  0  0  0  0  0  0
   -4.6020   22.1210  -31.0140 C   0  0  0  0  0  0  0  0  0  0  0  0
   -5.1330   20.9220  -31.5130 C   0  0  0  0  0  0  0  0  0  0  0  0
   -6.2750   20.9400  -32.3200 C   0  0  0  0  0  0  0  0  0  0  0  0
   -6.8990   22.1540  -32.6230 C   0  0  0  0  0  0  0  0  0  0  0  0
   -6.3750   23.3560  -32.1310 C   0  0  0  0  0  0  0  0  0  0  0  0
   -5.2120   23.3500  -31.3300 C   0  0  0  0  0  0  0  0  0  0  0  0
   -4.6380   24.5370  -30.8370 O   0  0  0  0  0  0  0  0  0  0  0  0
   -5.3580   25.5530  -30.1440 C   0  0  0  0  0  0  0  0  0  0  0  0
   -2.2550   22.8850  -30.5710 C   0  0  0  0  0  0  0  0  0  0  0  0
   -1.8490   23.7830  -29.3970 C   0  0  0  0  0  0  0  0  0  0  0  0
   -1.9210   25.0160  -26.6410 C   0  0  0  0  0  0  0  0  0  0  0  0
   -1.5330   25.6700  -25.4690 C   0  0  0  0  0  0  0  0  0  0  0  0
    3.3724   25.0816  -22.5172 H   0  0  0  0  0  0  0  0  0  0  0  0
    2.5591   24.6647  -24.0636 H   0  0  0  0  0  0  0  0  0  0  0  0
    4.2816   25.1741  -24.0636 H   0  0  0  0  0  0  0  0  0  0  0  0
    2.6849   27.2099  -22.7562 H   0  0  0  0  0  0  0  0  0  0  0  0
    3.6807   27.3009  -24.2893 H   0  0  0  0  0  0  0  0  0  0  0  0
    1.0928   27.9134  -26.3775 H   0  0  0  0  0  0  0  0  0  0  0  0
    2.8714   27.6641  -26.1233 H   0  0  0  0  0  0  0  0  0  0  0  0
    1.7853   25.0698  -26.1644 H   0  0  0  0  0  0  0  0  0  0  0  0
    0.9204   25.9445  -27.4735 H   0  0  0  0  0  0  0  0  0  0  0  0
    2.7154   25.8748  -27.4735 H   0  0  0  0  0  0  0  0  0  0  0  0
    1.1797   28.4749  -23.1523 H   0  0  0  0  0  0  0  0  0  0  0  0
    0.3623   28.6535  -24.7381 H   0  0  0  0  0  0  0  0  0  0  0  0
   -0.7665   27.5524  -22.4247 H   0  0  0  0  0  0  0  0  0  0  0  0
   -1.3663   27.3301  -24.1257 H   0  0  0  0  0  0  0  0  0  0  0  0
   -0.7840   25.3130  -22.5130 H   0  0  0  0  0  0  0  0  0  0  0  0
    0.7360   25.5640  -23.1810 H   0  0  0  0  0  0  0  0  0  0  0  0
    0.4485   23.2316  -24.1126 H   0  0  0  0  0  0  0  0  0  0  0  0
   -0.2645   22.0554  -26.1894 H   0  0  0  0  0  0  0  0  0  0  0  0
   -1.3496   21.0426  -28.5344 H   0  0  0  0  0  0  0  0  0  0  0  0
   -2.3554   21.2927  -27.0641 H   0  0  0  0  0  0  0  0  0  0  0  0
   -3.5308   20.2778  -29.1394 H   0  0  0  0  0  0  0  0  0  0  0  0
   -4.3228   21.6958  -28.3418 H   0  0  0  0  0  0  0  0  0  0  0  0
   -4.6495   19.9647  -31.2687 H   0  0  0  0  0  0  0  0  0  0  0  0
   -6.6826   19.9985  -32.7166 H   0  0  0  0  0  0  0  0  0  0  0  0
   -7.8034   22.1650  -33.2491 H   0  0  0  0  0  0  0  0  0  0  0  0
   -6.8712   24.3083  -32.3694 H   0  0  0  0  0  0  0  0  0  0  0  0
   -5.2517   25.4029  -29.0595 H   0  0  0  0  0  0  0  0  0  0  0  0
   -4.9563   26.5395  -30.4188 H   0  0  0  0  0  0  0  0  0  0  0  0
   -6.4218   25.5008  -30.4188 H   0  0  0  0  0  0  0  0  0  0  0  0
   -1.4228   22.2112  -30.8230 H   0  0  0  0  0  0  0  0  0  0  0  0
   -2.4974   23.5081  -31.4445 H   0  0  0  0  0  0  0  0  0  0  0  0
   -0.8345   24.1687  -29.5762 H   0  0  0  0  0  0  0  0  0  0  0  0
   -2.5744   24.6068  -29.3259 H   0  0  0  0  0  0  0  0  0  0  0  0
   -2.5870   25.5227  -27.3550 H   0  0  0  0  0  0  0  0  0  0  0  0
   -1.9020   26.6855  -25.2627 H   0  0  0  0  0  0  0  0  0  0  0  0
  1  2  1  0
  2  3  1  0
  3  4  1  0
  4  5  1  0
  3  6  1  0
  6  7  1  0
  7  8  1  0
  8  9  1  0
  9 10  2  0
 10 11  1  0
 11 12  2  0
 12 13  1  0
 13 14  1  0
 14 15  1  0
 15 16  1  0
 16 17  1  0
 17 18  2  0
 18 19  1  0
 19 20  2  0
 20 21  1  0
 21 22  2  0
 22 23  1  0
 23 24  1  0
 16 25  1  0
 25 26  1  0
 12 27  1  0
 27 28  2  0
 28  9  1  0
 26 13  1  0
 22 17  1  0
  1 29  1  0
  1 30  1  0
  1 31  1  0
  2 32  1  0
  2 33  1  0
  4 34  1  0
  4 35  1  0
  5 36  1  0
  5 37  1  0
  5 38  1  0
  6 39  1  0
  6 40  1  0
  7 41  1  0
  7 42  1  0
  8 43  1  0
  8 44  1  0
 10 45  1  0
 11 46  1  0
 14 47  1  0
 14 48  1  0
 15 49  1  0
 15 50  1  0
 18 51  1  0
 19 52  1  0
 20 53  1  0
 21 54  1  0
 24 55  1  0
 24 56  1  0
 24 57  1  0
 25 58  1  0
 25 59  1  0
 26 60  1  0
 26 61  1  0
 27 62  1  0
 28 63  1  0
M  CHG  1   8   1
M  END
>  <UniqueID>  (34) 
33

>  <SMILES>  (34) 
CCN(CC)CC[NH2+]c1ccc(N2CCN(c3ccccc3OC)CC2)cc1

>  <Energy>  (34) 
75.1158273575145

>  <Genealogy>  (34) 
CCN(CC)CC[NH2+]c1ccc(N2CCN(c3ccccc3OC)CC2)cc1 (protonated)
CCN(CC)CC[NH2+]c1ccc(N2CCN(c3ccccc3OC)CC2)cc1 (3D coordinates assigned)
CCN(CC)CC[NH2+]c1ccc(N2CCN(c3ccccc3OC)CC2)cc1 (nonaromatic ring conformer: 75.1158273575145 kcal/mol)

>  <smiles>  (34) 
CCN(CC)CCNc1ccc(N2CCN(c3ccccc3OC)CC2)cc1

>  <score_type>  (34) 
oracle

>  <origin>  (34) 
adg

>  <m_score__min__energy>  (34) 
-7.0800000000000001

>  <m_primary>  (34) 
energy

$$$$
34:0
     RDKit          3D

 40 42  0  0  0  0  0  0  0  0999 V2000
   -8.7800   18.5920  -31.6370 C   0  0  0  0  0  0  0  0  0  0  0  0
   -7.3780   18.7770  -32.1390 C   0  0  0  0  0  0  0  0  0  0  0  0
   -6.8920   17.9770  -33.1860 C   0  0  0  0  0  0  0  0  0  0  0  0
   -5.6000   18.1700  -33.6820 C   0  0  0  0  0  0  0  0  0  0  0  0
   -4.7780   19.1760  -33.1470 C   0  0  0  0  0  0  0  0  0  0  0  0
   -3.4720   19.4040  -33.6180 C   0  0  0  0  0  0  0  0  0  0  0  0
   -2.9870   18.7020  -34.5470 O   0  0  0  0  0  0  0  0  0  0  0  0
   -2.6980   20.4230  -33.0540 C   0  0  0  0  0  0  0  0  0  0  0  0
   -3.2310   21.2100  -32.0240 C   0  0  0  0  0  0  0  0  0  0  0  0
   -2.4290   22.3200  -31.4110 C   0  0  0  0  0  0  0  0  0  0  0  0
   -1.9930   21.9280  -29.6780 S   0  0  0  0  0  0  0  0  0  0  0  0
   -3.0430   23.1950  -28.8810 C   0  0  0  0  0  0  0  0  0  0  0  0
   -2.9310   24.5050  -29.5930 C   0  0  0  0  0  0  0  0  0  0  0  0
   -1.9600   25.2690  -29.3450 O   0  0  0  0  0  0  0  0  0  0  0  0
   -3.9020   24.8530  -30.5880 N   0  0  0  0  0  0  0  0  0  0  0  0
   -5.1770   24.2250  -30.7840 C   0  0  0  0  0  0  0  0  0  0  0  0
   -5.5410   23.8310  -32.0790 C   0  0  0  0  0  0  0  0  0  0  0  0
   -6.7660   23.1950  -32.3070 C   0  0  0  0  0  0  0  0  0  0  0  0
   -7.6280   22.9350  -31.2380 C   0  0  0  0  0  0  0  0  0  0  0  0
   -7.2640   23.3010  -29.9400 C   0  0  0  0  0  0  0  0  0  0  0  0
   -6.0400   23.9380  -29.7090 C   0  0  0  0  0  0  0  0  0  0  0  0
   -4.4950   20.9760  -31.5800 N   0  0  0  0  0  0  0  0  0  0  0  0
   -5.2740   19.9930  -32.1040 C   0  0  0  0  0  0  0  0  0  0  0  0
   -6.5690   19.7950  -31.6120 C   0  0  0  0  0  0  0  0  0  0  0  0
   -8.7786   18.5922  -30.5370 H   0  0  0  0  0  0  0  0  0  0  0  0
   -9.4120   19.4145  -32.0030 H   0  0  0  0  0  0  0  0  0  0  0  0
   -9.1771   17.6337  -32.0030 H   0  0  0  0  0  0  0  0  0  0  0  0
   -7.5322   17.1938  -33.6182 H   0  0  0  0  0  0  0  0  0  0  0  0
   -5.2247   17.5313  -34.4952 H   0  0  0  0  0  0  0  0  0  0  0  0
   -1.6759   20.6060  -33.4170 H   0  0  0  0  0  0  0  0  0  0  0  0
   -1.5056   22.4608  -31.9919 H   0  0  0  0  0  0  0  0  0  0  0  0
   -3.0334   23.2390  -31.4227 H   0  0  0  0  0  0  0  0  0  0  0  0
   -4.0908   22.8609  -28.9040 H   0  0  0  0  0  0  0  0  0  0  0  0
   -2.7054   23.3291  -27.8427 H   0  0  0  0  0  0  0  0  0  0  0  0
   -4.8595   24.0230  -32.9208 H   0  0  0  0  0  0  0  0  0  0  0  0
   -7.0508   22.8996  -33.3276 H   0  0  0  0  0  0  0  0  0  0  0  0
   -8.5943   22.4415  -31.4190 H   0  0  0  0  0  0  0  0  0  0  0  0
   -7.9402   23.0882  -29.0989 H   0  0  0  0  0  0  0  0  0  0  0  0
   -5.7509   24.2155  -28.6846 H   0  0  0  0  0  0  0  0  0  0  0  0
   -6.9543   20.4402  -30.8087 H   0  0  0  0  0  0  0  0  0  0  0  0
  1  2  1  0
  2  3  2  0
  3  4  1  0
  4  5  2  0
  5  6  1  0
  6  7  2  0
  6  8  1  0
  8  9  2  0
  9 10  1  0
 10 11  1  0
 11 12  1  0
 12 13  1  0
 13 14  2  0
 13 15  1  0
 15 16  1  0
 16 17  2  0
 17 18  1  0
 18 19  2  0
 19 20  1  0
 20 21  2  0
  9 22  1  0
 22 23  1  0
 23 24  2  0
 24  2  1  0
 23  5  1  0
 21 16  1  0
  1 25  1  0
  1 26  1  0
  1 27  1  0
  3 28  1  0
  4 29  1  0
  8 30  1  0
 10 31  1  0
 10 32  1  0
 12 33  1  0
 12 34  1  0
 17 35  1  0
 18 36  1  0
 19 37  1  0
 20 38  1  0
 21 39  1  0
 24 40  1  0
M  CHG  2  15  -1  22  -1
M  END
>  <UniqueID>  (35) 
34

>  <SMILES>  (35) 
Cc1ccc2c(=O)cc(CSCC(=O)[N-]c3ccccc3)[n-]c2c1

>  <Energy>  (35) 
44.355964433936705

>  <Genealogy>  (35) 
Cc1ccc2c(=O)cc(CSCC(=O)[N-]c3ccccc3)[n-]c2c1 (protonated)
Cc1ccc2c(=O)cc(CSCC(=O)[N-]c3ccccc3)[n-]c2c1 (3D coordinates assigned)
Cc1ccc2c(=O)cc(CSCC(=O)[N-]c3ccccc3)[n-]c2c1 (optimized conformer: 44.355964433936705 kcal/mol)

>  <smiles>  (35) 
Cc1ccc2c(=O)cc(CSCC(=O)Nc3ccccc3)[nH]c2c1

>  <score_type>  (35) 
oracle

>  <origin>  (35) 
adg

>  <m_score__min__energy>  (35) 
-10.57

>  <m_primary>  (35) 
energy

$$$$
35:0
     RDKit          3D

 19 19  0  0  0  0  0  0  0  0999 V2000
   -2.1772   19.3596  -28.8170 H   0  0  0  0  0  0  0  0  0  0  0  0
   -2.2610   20.2430  -28.1670 C   0  0  0  0  0  0  0  0  0  0  0  0
   -2.0600   20.1190  -26.8880 N   0  0  0  0  0  0  0  0  0  0  0  0
   -2.4010   19.0050  -26.1370 O   0  0  0  0  0  0  0  0  0  0  0  0
   -3.7440   18.5920  -25.9000 C   0  0  0  0  0  0  0  0  0  0  0  0
   -3.9247   18.5364  -24.8164 H   0  0  0  0  0  0  0  0  0  0  0  0
   -4.4360   19.3188  -26.3503 H   0  0  0  0  0  0  0  0  0  0  0  0
   -3.9080   17.6019  -26.3503 H   0  0  0  0  0  0  0  0  0  0  0  0
   -2.6000   21.5520  -28.7590 C   0  0  0  0  0  0  0  0  0  0  0  0
   -1.8950   22.6950  -28.3510 C   0  0  0  0  0  0  0  0  0  0  0  0
   -1.0990   22.6052  -27.5971 H   0  0  0  0  0  0  0  0  0  0  0  0
   -2.1970   23.9480  -28.8960 C   0  0  0  0  0  0  0  0  0  0  0  0
   -1.2140   25.4850  -28.3170 Br  0  0  0  0  0  0  0  0  0  0  0  0
   -3.2090   24.0690  -29.8570 C   0  0  0  0  0  0  0  0  0  0  0  0
   -3.5100   25.3140  -30.4000 O   0  0  0  0  0  0  0  0  0  0  0  0
   -3.9190   22.9340  -30.2700 C   0  0  0  0  0  0  0  0  0  0  0  0
   -5.3060   23.0740  -31.5810 Br  0  0  0  0  0  0  0  0  0  0  0  0
   -3.6150   21.6820  -29.7240 C   0  0  0  0  0  0  0  0  0  0  0  0
   -4.1738   20.7931  -30.0518 H   0  0  0  0  0  0  0  0  0  0  0  0
  1  2  1  0
  2  3  2  0
  3  4  1  0
  4  5  1  0
  5  6  1  0
  5  7  1  0
  5  8  1  0
  2  9  1  0
  9 10  2  0
 10 11  1  0
 10 12  1  0
 12 13  1  0
 12 14  2  0
 14 15  1  0
 14 16  1  0
 16 17  1  0
 16 18  2  0
 18 19  1  0
 18  9  1  0
M  CHG  1  15  -1
M  END
>  <UniqueID>  (36) 
35

>  <SMILES>  (36) 
CO/N=C/c1cc(Br)c([O-])c(Br)c1

>  <Energy>  (36) 
18.221397382578527

>  <Genealogy>  (36) 
CON=Cc1cc(Br)c([O-])c(Br)c1 (protonated)
CO/N=C/c1cc(Br)c([O-])c(Br)c1 (cis-trans isomerization)
CO/N=C/c1cc(Br)c([O-])c(Br)c1 (3D coordinates assigned)
CO/N=C/c1cc(Br)c([O-])c(Br)c1 (optimized conformer: 18.221397382578527 kcal/mol)

>  <smiles>  (36) 
CON=Cc1cc(Br)c(O)c(Br)c1

>  <score_type>  (36) 
oracle

>  <origin>  (36) 
adg

>  <m_score__min__energy>  (36) 
-8.2200000000000006

>  <m_primary>  (36) 
energy

$$$$
36:0
     RDKit          3D

 37 39  0  0  0  0  0  0  0  0999 V2000
   -9.8800   21.2490  -31.9660 C   0  0  0  0  0  0  0  0  0  0  0  0
   -8.3980   21.1060  -32.1060 C   0  0  0  0  0  0  0  0  0  0  0  0
   -7.5840   22.1170  -31.7060 N   0  0  0  0  0  0  0  0  0  0  0  0
   -6.2330   22.0390  -31.8320 C   0  0  0  0  0  0  0  0  0  0  0  0
   -5.4110   23.1400  -31.3840 N   0  0  0  0  0  0  0  0  0  0  0  0
   -5.9470   24.5070  -31.4410 C   0  0  0  0  0  0  0  0  0  0  0  0
   -5.2690   25.3880  -30.3880 C   0  0  0  0  0  0  0  0  0  0  0  0
   -3.8620   25.2970  -30.4890 O   0  0  0  0  0  0  0  0  0  0  0  0
   -3.4480   23.9870  -30.1580 C   0  0  0  0  0  0  0  0  0  0  0  0
   -3.9630   22.9750  -31.1860 C   0  0  0  0  0  0  0  0  0  0  0  0
   -5.6700   20.8890  -32.4050 C   0  0  0  0  0  0  0  0  0  0  0  0
   -6.5170   19.8510  -32.8250 C   0  0  0  0  0  0  0  0  0  0  0  0
   -5.9540   18.6190  -33.4340 C   0  0  0  0  0  0  0  0  0  0  0  0
   -6.6080   17.3840  -33.2710 C   0  0  0  0  0  0  0  0  0  0  0  0
   -6.0800   16.2230  -33.8450 C   0  0  0  0  0  0  0  0  0  0  0  0
   -4.8980   16.2820  -34.5870 C   0  0  0  0  0  0  0  0  0  0  0  0
   -4.2410   17.5020  -34.7570 C   0  0  0  0  0  0  0  0  0  0  0  0
   -4.7630   18.6670  -34.1850 C   0  0  0  0  0  0  0  0  0  0  0  0
   -7.8650   19.9840  -32.6640 N   0  0  0  0  0  0  0  0  0  0  0  0
  -10.1467   21.2747  -30.8991 H   0  0  0  0  0  0  0  0  0  0  0  0
  -10.2054   22.1827  -32.4479 H   0  0  0  0  0  0  0  0  0  0  0  0
  -10.3780   20.3947  -32.4479 H   0  0  0  0  0  0  0  0  0  0  0  0
   -5.7618   24.9280  -32.4402 H   0  0  0  0  0  0  0  0  0  0  0  0
   -7.0280   24.4762  -31.2395 H   0  0  0  0  0  0  0  0  0  0  0  0
   -5.5748   26.4335  -30.5411 H   0  0  0  0  0  0  0  0  0  0  0  0
   -5.5742   25.0426  -29.3892 H   0  0  0  0  0  0  0  0  0  0  0  0
   -2.3488   23.9512  -30.1368 H   0  0  0  0  0  0  0  0  0  0  0  0
   -3.8599   23.7268  -29.1718 H   0  0  0  0  0  0  0  0  0  0  0  0
   -3.4454   23.1349  -32.1433 H   0  0  0  0  0  0  0  0  0  0  0  0
   -3.7661   21.9579  -30.8163 H   0  0  0  0  0  0  0  0  0  0  0  0
   -4.5799   20.8017  -32.5236 H   0  0  0  0  0  0  0  0  0  0  0  0
   -7.5398   17.3312  -32.6888 H   0  0  0  0  0  0  0  0  0  0  0  0
   -6.5968   15.2611  -33.7118 H   0  0  0  0  0  0  0  0  0  0  0  0
   -4.4849   15.3673  -35.0373 H   0  0  0  0  0  0  0  0  0  0  0  0
   -3.3106   17.5473  -35.3421 H   0  0  0  0  0  0  0  0  0  0  0  0
   -4.2409   19.6254  -34.3223 H   0  0  0  0  0  0  0  0  0  0  0  0
   -8.5090   19.2300  -32.9950 H   0  0  0  0  0  0  0  0  0  0  0  0
  1  2  1  0
  2  3  2  0
  3  4  1  0
  4  5  1  0
  5  6  1  0
  6  7  1  0
  7  8  1  0
  8  9  1  0
  9 10  1  0
  4 11  2  0
 11 12  1  0
 12 13  1  0
 13 14  2  0
 14 15  1  0
 15 16  2  0
 16 17  1  0
 17 18  2  0
 12 19  2  0
 19  2  1  0
 10  5  1  0
 18 13  1  0
  1 20  1  0
  1 21  1  0
  1 22  1  0
  6 23  1  0
  6 24  1  0
  7 25  1  0
  7 26  1  0
  9 27  1  0
  9 28  1  0
 10 29  1  0
 10 30  1  0
 11 31  1  0
 14 32  1  0
 15 33  1  0
 16 34  1  0
 17 35  1  0
 18 36  1  0
 19 37  1  0
M  CHG  1  19   1
M  END
>  <UniqueID>  (37) 
36

>  <SMILES>  (37) 
Cc1nc(N2CCOCC2)cc(-c2ccccc2)[nH+]1

>  <Energy>  (37) 
46.245991873446386

>  <Genealogy>  (37) 
Cc1nc(N2CCOCC2)cc(-c2ccccc2)[nH+]1 (protonated)
Cc1nc(N2CCOCC2)cc(-c2ccccc2)[nH+]1 (3D coordinates assigned)
Cc1nc(N2CCOCC2)cc(-c2ccccc2)[nH+]1 (nonaromatic ring conformer: 46.245991873446386 kcal/mol)

>  <smiles>  (37) 
Cc1nc(-c2ccccc2)cc(N2CCOCC2)n1

>  <score_type>  (37) 
oracle

>  <origin>  (37) 
adg

>  <m_score__min__energy>  (37) 
-7.7699999999999996

>  <m_primary>  (37) 
energy

$$$$
37:0
     RDKit          3D

 57 59  0  0  0  0  0  0  0  0999 V2000
   -2.3540   25.5620  -26.2910 C   0  0  0  0  0  0  0  0  0  0  0  0
   -1.0760   25.4310  -27.1170 C   0  0  0  0  0  0  0  0  0  0  0  0
   -1.3560   25.3080  -28.6230 C   0  0  0  0  0  0  0  0  0  0  0  0
   -2.1500   24.0630  -28.9510 C   0  0  0  0  0  0  0  0  0  0  0  0
   -1.8080   22.8600  -28.3280 C   0  0  0  0  0  0  0  0  0  0  0  0
   -2.4960   21.6780  -28.6250 C   0  0  0  0  0  0  0  0  0  0  0  0
   -2.1220   20.4080  -27.9530 C   0  0  0  0  0  0  0  0  0  0  0  0
   -2.9880   19.8080  -27.0250 C   0  0  0  0  0  0  0  0  0  0  0  0
   -2.6250   18.6070  -26.4170 C   0  0  0  0  0  0  0  0  0  0  0  0
   -1.4370   18.0160  -26.7150 N   0  0  0  0  0  0  0  0  0  0  0  0
   -0.5610   18.5750  -27.6010 C   0  0  0  0  0  0  0  0  0  0  0  0
    0.6810   17.9140  -27.9070 N   0  0  0  0  0  0  0  0  0  0  0  0
    1.7780   18.6650  -28.5310 C   0  0  0  0  0  0  0  0  0  0  0  0
    3.1090   17.9210  -28.3560 C   0  0  0  0  0  0  0  0  0  0  0  0
    3.1870   17.3110  -27.0210 N   0  0  0  0  0  0  0  0  0  0  0  0
    2.1650   16.2640  -26.8160 C   0  0  0  0  0  0  0  0  0  0  0  0
    0.8750   16.4860  -27.6310 C   0  0  0  0  0  0  0  0  0  0  0  0
   -0.8990   19.7790  -28.2390 C   0  0  0  0  0  0  0  0  0  0  0  0
   -3.5380   21.7100  -29.5630 C   0  0  0  0  0  0  0  0  0  0  0  0
   -3.9080   22.9040  -30.2300 C   0  0  0  0  0  0  0  0  0  0  0  0
   -5.0520   22.9230  -31.2820 C   0  0  0  0  0  0  0  0  0  0  0  0
   -5.7740   24.2920  -31.3720 C   0  0  0  0  0  0  0  0  0  0  0  0
   -6.1270   21.8750  -30.9130 C   0  0  0  0  0  0  0  0  0  0  0  0
   -4.4840   22.6210  -32.6880 C   0  0  0  0  0  0  0  0  0  0  0  0
   -3.1910   24.0880  -29.9010 C   0  0  0  0  0  0  0  0  0  0  0  0
   -3.4990   25.2980  -30.5140 O   0  0  0  0  0  0  0  0  0  0  0  0
   -2.1029   25.5363  -25.2204 H   0  0  0  0  0  0  0  0  0  0  0  0
   -2.8482   26.5155  -26.5289 H   0  0  0  0  0  0  0  0  0  0  0  0
   -3.0314   24.7286  -26.5289 H   0  0  0  0  0  0  0  0  0  0  0  0
   -0.4531   26.3214  -26.9460 H   0  0  0  0  0  0  0  0  0  0  0  0
   -0.5651   24.5110  -26.7968 H   0  0  0  0  0  0  0  0  0  0  0  0
   -1.9258   26.1897  -28.9516 H   0  0  0  0  0  0  0  0  0  0  0  0
   -0.3897   25.2424  -29.1444 H   0  0  0  0  0  0  0  0  0  0  0  0
   -0.9879   22.8417  -27.5951 H   0  0  0  0  0  0  0  0  0  0  0  0
   -3.9489   20.2835  -26.7787 H   0  0  0  0  0  0  0  0  0  0  0  0
   -3.3038   18.1345  -25.6917 H   0  0  0  0  0  0  0  0  0  0  0  0
   -1.1940   17.1210  -26.2340 H   0  0  0  0  0  0  0  0  0  0  0  0
    1.5693   18.7853  -29.6043 H   0  0  0  0  0  0  0  0  0  0  0  0
    1.8551   19.6493  -28.0461 H   0  0  0  0  0  0  0  0  0  0  0  0
    3.1859   17.1325  -29.1192 H   0  0  0  0  0  0  0  0  0  0  0  0
    3.9349   18.6390  -28.4675 H   0  0  0  0  0  0  0  0  0  0  0  0
    3.0480   18.0630  -26.3050 H   0  0  0  0  0  0  0  0  0  0  0  0
    2.5973   15.2955  -27.1077 H   0  0  0  0  0  0  0  0  0  0  0  0
    1.8823   16.2957  -25.7534 H   0  0  0  0  0  0  0  0  0  0  0  0
    0.9499   15.9402  -28.5831 H   0  0  0  0  0  0  0  0  0  0  0  0
    0.0181   16.1166  -27.0485 H   0  0  0  0  0  0  0  0  0  0  0  0
   -0.2053   20.2303  -28.9637 H   0  0  0  0  0  0  0  0  0  0  0  0
   -4.0837   20.7816  -29.7873 H   0  0  0  0  0  0  0  0  0  0  0  0
   -5.9728   24.6690  -30.3579 H   0  0  0  0  0  0  0  0  0  0  0  0
   -5.1363   25.0081  -31.9110 H   0  0  0  0  0  0  0  0  0  0  0  0
   -6.7251   24.1702  -31.9110 H   0  0  0  0  0  0  0  0  0  0  0  0
   -6.2047   21.7992  -29.8184 H   0  0  0  0  0  0  0  0  0  0  0  0
   -7.0975   22.1832  -31.3290 H   0  0  0  0  0  0  0  0  0  0  0  0
   -5.8436   20.8969  -31.3290 H   0  0  0  0  0  0  0  0  0  0  0  0
   -3.5166   22.1067  -32.5899 H   0  0  0  0  0  0  0  0  0  0  0  0
   -5.1873   21.9777  -33.2372 H   0  0  0  0  0  0  0  0  0  0  0  0
   -4.3440   23.5638  -33.2372 H   0  0  0  0  0  0  0  0  0  0  0  0
  1  2  1  0
  2  3  1  0
  3  4  1  0
  4  5  2  0
  5  6  1  0
  6  7  1  0
  7  8  2  0
  8  9  1  0
  9 10  2  0
 10 11  1  0
 11 12  1  0
 12 13  1  0
 13 14  1  0
 14 15  1  0
 15 16  1  0
 16 17  1  0
 11 18  2  0
  6 19  2  0
 19 20  1  0
 20 21  1  0
 21 22  1  0
 21 23  1  0
 21 24  1  0
 20 25  2  0
 25 26  1  0
 25  4  1  0
 18  7  1  0
 17 12  1  0
  1 27  1  0
  1 28  1  0
  1 29  1  0
  2 30  1  0
  2 31  1  0
  3 32  1  0
  3 33  1  0
  5 34  1  0
  8 35  1  0
  9 36  1  0
 10 37  1  0
 13 38  1  0
 13 39  1  0
 14 40  1  0
 14 41  1  0
 15 42  1  0
 16 43  1  0
 16 44  1  0
 17 45  1  0
 17 46  1  0
 18 47  1  0
 19 48  1  0
 22 49  1  0
 22 50  1  0
 22 51  1  0
 23 52  1  0
 23 53  1  0
 23 54  1  0
 24 55  1  0
 24 56  1  0
 24 57  1  0
M  CHG  2  10   1  26  -1
M  END
>  <UniqueID>  (38) 
37

>  <SMILES>  (38) 
CCCc1cc(-c2cc[nH+]c(N3CCNCC3)c2)cc(C(C)(C)C)c1[O-]

>  <Energy>  (38) 
71.30945774356074

>  <Genealogy>  (38) 
CCCc1cc(-c2cc[nH+]c(N3CCNCC3)c2)cc(C(C)(C)C)c1[O-] (protonated)
CCCc1cc(-c2cc[nH+]c(N3CCNCC3)c2)cc(C(C)(C)C)c1[O-] (3D coordinates assigned)
CCCc1cc(-c2cc[nH+]c(N3CCNCC3)c2)cc(C(C)(C)C)c1[O-] (nonaromatic ring conformer: 71.30945774356074 kcal/mol)

>  <smiles>  (38) 
CCCc1cc(-c2ccnc(N3CCNCC3)c2)cc(C(C)(C)C)c1O

>  <score_type>  (38) 
oracle

>  <origin>  (38) 
adg

>  <m_score__min__energy>  (38) 
-10.99

>  <m_primary>  (38) 
energy

$$$$
38:0
     RDKit          3D

 48 49  0  0  0  0  0  0  0  0999 V2000
   -0.9680   26.6220  -24.2050 C   0  0  0  0  0  0  0  0  0  0  0  0
   -1.9070   26.2520  -25.3490 C   0  0  0  0  0  0  0  0  0  0  0  0
   -1.3250   25.1150  -26.1930 C   0  0  0  0  0  0  0  0  0  0  0  0
   -0.7200   25.7330  -27.7580 S   0  0  0  0  0  0  0  0  0  0  0  0
   -0.1980   27.1300  -27.5740 O   0  0  0  0  0  0  0  0  0  0  0  0
    0.4150   24.8560  -28.2070 O   0  0  0  0  0  0  0  0  0  0  0  0
   -1.9840   25.6570  -28.9650 N   0  0  0  0  0  0  0  0  0  0  0  0
   -2.6260   24.3440  -29.1970 C   0  0  0  0  0  0  0  0  0  0  0  0
   -3.4650   24.5030  -30.4600 C   0  0  0  0  0  0  0  0  0  0  0  0
   -3.5010   23.5660  -31.3050 O   0  0  0  0  0  0  0  0  0  0  0  0
   -4.2650   25.6740  -30.6680 N   0  0  0  0  0  0  0  0  0  0  0  0
   -5.6500   25.8180  -30.2270 C   0  0  0  0  0  0  0  0  0  0  0  0
   -6.5260   24.6940  -30.7990 C   0  0  2  0  0  0  0  0  0  0  0  0
   -6.6630   23.5090  -29.8580 C   0  0  0  0  0  0  0  0  0  0  0  0
   -6.9010   22.3750  -30.8050 C   0  0  0  0  0  0  0  0  0  0  0  0
   -6.2210   22.8410  -32.0810 C   0  0  0  0  0  0  0  0  0  0  0  0
   -5.9730   24.2270  -32.0090 O   0  0  0  0  0  0  0  0  0  0  0  0
   -3.5460   23.9810  -27.9800 C   0  0  0  0  0  0  0  0  0  0  0  0
   -3.3630   22.5400  -27.4690 C   0  0  0  0  0  0  0  0  0  0  0  0
   -3.3190   21.5350  -28.6240 C   0  0  0  0  0  0  0  0  0  0  0  0
   -2.2030   21.8360  -29.6470 C   0  0  0  0  0  0  0  0  0  0  0  0
   -1.5720   23.2330  -29.4850 C   0  0  0  0  0  0  0  0  0  0  0  0
   -1.4659   26.4258  -23.2439 H   0  0  0  0  0  0  0  0  0  0  0  0
   -0.0513   26.0179  -24.2731 H   0  0  0  0  0  0  0  0  0  0  0  0
   -0.7098   27.6891  -24.2731 H   0  0  0  0  0  0  0  0  0  0  0  0
   -2.8731   25.9317  -24.9317 H   0  0  0  0  0  0  0  0  0  0  0  0
   -2.0379   27.1340  -25.9932 H   0  0  0  0  0  0  0  0  0  0  0  0
   -0.4943   24.6471  -25.6444 H   0  0  0  0  0  0  0  0  0  0  0  0
   -2.1181   24.3780  -26.3873 H   0  0  0  0  0  0  0  0  0  0  0  0
   -5.6843   25.7778  -29.1283 H   0  0  0  0  0  0  0  0  0  0  0  0
   -6.0356   26.7829  -30.5880 H   0  0  0  0  0  0  0  0  0  0  0  0
   -7.5250   25.1281  -30.9520 H   0  0  0  0  0  0  0  0  0  0  0  0
   -5.7429   23.3548  -29.2752 H   0  0  0  0  0  0  0  0  0  0  0  0
   -7.4591   23.6314  -29.1088 H   0  0  0  0  0  0  0  0  0  0  0  0
   -6.4449   21.4464  -30.4313 H   0  0  0  0  0  0  0  0  0  0  0  0
   -7.9677   22.1448  -30.9435 H   0  0  0  0  0  0  0  0  0  0  0  0
   -5.2683   22.3051  -32.2042 H   0  0  0  0  0  0  0  0  0  0  0  0
   -6.8761   22.6325  -32.9397 H   0  0  0  0  0  0  0  0  0  0  0  0
   -3.3188   24.6726  -27.1554 H   0  0  0  0  0  0  0  0  0  0  0  0
   -4.5858   24.0672  -28.3283 H   0  0  0  0  0  0  0  0  0  0  0  0
   -2.4205   22.4779  -26.9053 H   0  0  0  0  0  0  0  0  0  0  0  0
   -4.2209   22.2903  -26.8274 H   0  0  0  0  0  0  0  0  0  0  0  0
   -3.1508   20.5307  -28.2079 H   0  0  0  0  0  0  0  0  0  0  0  0
   -4.2791   21.6051  -29.1562 H   0  0  0  0  0  0  0  0  0  0  0  0
   -1.4111   21.0817  -29.5286 H   0  0  0  0  0  0  0  0  0  0  0  0
   -2.6658   21.8068  -30.6445 H   0  0  0  0  0  0  0  0  0  0  0  0
   -0.8581   23.2010  -28.6487 H   0  0  0  0  0  0  0  0  0  0  0  0
   -1.0780   23.4846  -30.4351 H   0  0  0  0  0  0  0  0  0  0  0  0
  1  2  1  0
  2  3  1  0
  3  4  1  0
  4  5  2  0
  4  6  2  0
  4  7  1  0
  7  8  1  0
  8  9  1  0
  9 10  2  0
  9 11  1  0
 11 12  1  0
 12 13  1  0
 13 14  1  0
 14 15  1  0
 15 16  1  0
 16 17  1  0
  8 18  1  0
 18 19  1  0
 19 20  1  0
 20 21  1  0
 21 22  1  0
 22  8  1  0
 17 13  1  0
  1 23  1  0
  1 24  1  0
  1 25  1  0
  2 26  1  0
  2 27  1  0
  3 28  1  0
  3 29  1  0
 12 30  1  0
 12 31  1  0
 13 32  1  6
 14 33  1  0
 14 34  1  0
 15 35  1  0
 15 36  1  0
 16 37  1  0
 16 38  1  0
 18 39  1  0
 18 40  1  0
 19 41  1  0
 19 42  1  0
 20 43  1  0
 20 44  1  0
 21 45  1  0
 21 46  1  0
 22 47  1  0
 22 48  1  0
M  CHG  2   7  -1  11  -1
M  END
>  <UniqueID>  (39) 
38

>  <SMILES>  (39) 
CCCS(=O)(=O)[N-]C1(C(=O)[N-]C[C@@H]2CCCO2)CCCCC1

>  <Energy>  (39) 
44.25495225228277

>  <Genealogy>  (39) 
CCCS(=O)(=O)[N-]C1(C(=O)[N-]CC2CCCO2)CCCCC1 (protonated)
CCCS(=O)(=O)[N-]C1(C(=O)[N-]C[C@@H]2CCCO2)CCCCC1 (chirality)
CCCS(=O)(=O)[N-]C1(C(=O)[N-]C[C@@H]2CCCO2)CCCCC1 (3D coordinates assigned)
CCCS(=O)(=O)[N-]C1(C(=O)[N-]C[C@@H]2CCCO2)CCCCC1 (nonaromatic ring conformer: 44.25495225228277 kcal/mol)

>  <smiles>  (39) 
CCCS(=O)(=O)NC1(C(=O)NCC2CCCO2)CCCCC1

>  <score_type>  (39) 
oracle

>  <origin>  (39) 
adg

>  <m_score__min__energy>  (39) 
-11.31

>  <m_primary>  (39) 
energy

$$$$
39:0
     RDKit          3D

 17 18  0  0  0  0  0  0  0  0999 V2000
   -3.4700   22.9480  -31.0820 Cl  0  0  0  0  0  0  0  0  0  0  0  0
   -5.1720   22.5780  -31.3070 C   0  0  0  0  0  0  0  0  0  0  0  0
   -5.5170   21.3360  -31.7420 N   0  0  0  0  0  0  0  0  0  0  0  0
   -6.8140   20.9770  -31.9380 C   0  0  0  0  0  0  0  0  0  0  0  0
   -7.1270   19.6890  -32.3870 C   0  0  0  0  0  0  0  0  0  0  0  0
   -8.4630   19.3240  -32.5880 C   0  0  0  0  0  0  0  0  0  0  0  0
   -9.4880   20.2440  -32.3420 C   0  0  0  0  0  0  0  0  0  0  0  0
   -9.1840   21.5330  -31.8950 C   0  0  0  0  0  0  0  0  0  0  0  0
   -7.8480   21.9080  -31.6900 C   0  0  0  0  0  0  0  0  0  0  0  0
   -7.5110   23.1900  -31.2430 C   0  0  0  0  0  0  0  0  0  0  0  0
   -6.1690   23.5330  -31.0480 C   0  0  0  0  0  0  0  0  0  0  0  0
   -5.7390   25.2960  -30.4350 Br  0  0  0  0  0  0  0  0  0  0  0  0
   -6.3232   18.9638  -32.5819 H   0  0  0  0  0  0  0  0  0  0  0  0
   -8.7079   18.3111  -32.9403 H   0  0  0  0  0  0  0  0  0  0  0  0
  -10.5366   19.9519  -32.5009 H   0  0  0  0  0  0  0  0  0  0  0  0
   -9.9928   22.2536  -31.7039 H   0  0  0  0  0  0  0  0  0  0  0  0
   -8.3016   23.9286  -31.0448 H   0  0  0  0  0  0  0  0  0  0  0  0
  1  2  1  0
  2  3  2  0
  3  4  1  0
  4  5  2  0
  5  6  1  0
  6  7  2  0
  7  8  1  0
  8  9  2  0
  9 10  1  0
 10 11  2  0
 11 12  1  0
 11  2  1  0
  9  4  1  0
  5 13  1  0
  6 14  1  0
  7 15  1  0
  8 16  1  0
 10 17  1  0
M  END
>  <UniqueID>  (40) 
39

>  <SMILES>  (40) 
Clc1nc2ccccc2cc1Br

>  <Energy>  (40) 
21.826773363035272

>  <Genealogy>  (40) 
Clc1nc2ccccc2cc1Br (3D coordinates assigned)
Clc1nc2ccccc2cc1Br (optimized conformer: 21.826773363035272 kcal/mol)

>  <smiles>  (40) 
Clc1nc2ccccc2cc1Br

>  <score_type>  (40) 
oracle

>  <origin>  (40) 
adg

>  <m_score__min__energy>  (40) 
-6.3499999999999996

>  <m_primary>  (40) 
energy

$$$$
40:0
     RDKit          3D

 36 38  0  0  0  0  0  0  0  0999 V2000
   -1.9600   20.0340  -27.0350 C   0  0  0  0  0  0  0  0  0  0  0  0
   -2.3010   20.9530  -28.1110 N   0  0  0  0  0  0  0  0  0  0  0  0
   -3.3200   21.8320  -28.1000 C   0  0  0  0  0  0  0  0  0  0  0  0
   -3.2510   22.5630  -29.2630 C   0  0  0  0  0  0  0  0  0  0  0  0
   -4.2890   23.8930  -29.7410 S   0  0  0  0  0  0  0  0  0  0  0  0
   -3.4760   24.9280  -30.4670 O   0  0  0  0  0  0  0  0  0  0  0  0
   -4.8860   24.5080  -28.5070 O   0  0  0  0  0  0  0  0  0  0  0  0
   -5.5490   23.3090  -30.7740 N   0  0  0  0  0  0  0  0  0  0  0  0
   -5.3390   22.3870  -31.8730 C   0  0  0  0  0  0  0  0  0  0  0  0
   -6.7320   22.1910  -32.5280 C   0  0  1  0  0  0  0  0  0  0  0  0
   -7.2640   20.7880  -32.3010 C   0  0  0  0  0  0  0  0  0  0  0  0
   -8.6480   20.5660  -32.1910 C   0  0  0  0  0  0  0  0  0  0  0  0
   -9.1430   19.2750  -31.9800 C   0  0  0  0  0  0  0  0  0  0  0  0
   -8.2640   18.1950  -31.8760 C   0  0  0  0  0  0  0  0  0  0  0  0
   -6.8860   18.4020  -31.9810 C   0  0  0  0  0  0  0  0  0  0  0  0
   -6.3860   19.6910  -32.1920 C   0  0  0  0  0  0  0  0  0  0  0  0
   -7.6670   23.2620  -31.9180 C   0  0  0  0  0  0  0  0  0  0  0  0
   -6.8570   23.8360  -30.8250 C   0  0  0  0  0  0  0  0  0  0  0  0
   -7.2750   24.7210  -30.0310 O   0  0  0  0  0  0  0  0  0  0  0  0
   -2.1420   22.0910  -29.9370 C   0  0  0  0  0  0  0  0  0  0  0  0
   -1.5740   21.1090  -29.2080 N   0  0  0  0  0  0  0  0  0  0  0  0
   -2.1408   20.5213  -26.0655 H   0  0  0  0  0  0  0  0  0  0  0  0
   -2.5828   19.1307  -27.1132 H   0  0  0  0  0  0  0  0  0  0  0  0
   -0.8987   19.7556  -27.1132 H   0  0  0  0  0  0  0  0  0  0  0  0
   -4.0718   21.9453  -27.3050 H   0  0  0  0  0  0  0  0  0  0  0  0
   -4.6298   22.8109  -32.5992 H   0  0  0  0  0  0  0  0  0  0  0  0
   -4.9148   21.4328  -31.5273 H   0  0  0  0  0  0  0  0  0  0  0  0
   -6.6673   22.3107  -33.6196 H   0  0  0  0  0  0  0  0  0  0  0  0
   -9.3456   21.4127  -32.2714 H   0  0  0  0  0  0  0  0  0  0  0  0
  -10.2273   19.1101  -31.8958 H   0  0  0  0  0  0  0  0  0  0  0  0
   -8.6565   17.1807  -31.7113 H   0  0  0  0  0  0  0  0  0  0  0  0
   -6.1943   17.5508  -31.8977 H   0  0  0  0  0  0  0  0  0  0  0  0
   -5.3005   19.8496  -32.2734 H   0  0  0  0  0  0  0  0  0  0  0  0
   -7.9254   24.0297  -32.6622 H   0  0  0  0  0  0  0  0  0  0  0  0
   -8.6265   22.8498  -31.5724 H   0  0  0  0  0  0  0  0  0  0  0  0
   -1.7809   22.4564  -30.9097 H   0  0  0  0  0  0  0  0  0  0  0  0
  1  2  1  0
  2  3  1  0
  3  4  2  0
  4  5  1  0
  5  6  2  0
  5  7  2  0
  5  8  1  0
  8  9  1  0
  9 10  1  0
 10 11  1  0
 11 12  2  0
 12 13  1  0
 13 14  2  0
 14 15  1  0
 15 16  2  0
 10 17  1  0
 17 18  1  0
 18 19  2  0
  4 20  1  0
 20 21  2  0
 21  2  1  0
 18  8  1  0
 16 11  1  0
  1 22  1  0
  1 23  1  0
  1 24  1  0
  3 25  1  0
  9 26  1  0
  9 27  1  0
 10 28  1  6
 12 29  1  0
 13 30  1  0
 14 31  1  0
 15 32  1  0
 16 33  1  0
 17 34  1  0
 17 35  1  0
 20 36  1  0
M  END
>  <UniqueID>  (41) 
40

>  <SMILES>  (41) 
Cn1cc(S(=O)(=O)N2C[C@@H](c3ccccc3)CC2=O)cn1

>  <Energy>  (41) 
76.13914806522367

>  <Genealogy>  (41) 
Cn1cc(S(=O)(=O)N2C[C@@H](c3ccccc3)CC2=O)cn1 (chirality)
Cn1cc(S(=O)(=O)N2C[C@@H](c3ccccc3)CC2=O)cn1 (3D coordinates assigned)
Cn1cc(S(=O)(=O)N2C[C@@H](c3ccccc3)CC2=O)cn1 (nonaromatic ring conformer: 76.13914806522367 kcal/mol)

>  <smiles>  (41) 
Cn1cc(S(=O)(=O)N2CC(c3ccccc3)CC2=O)cn1

>  <score_type>  (41) 
oracle

>  <origin>  (41) 
adg

>  <m_score__min__energy>  (41) 
-8.1799999999999997

>  <m_primary>  (41) 
energy

$$$$
41:0
     RDKit          3D

 51 54  0  0  0  0  0  0  0  0999 V2000
   -9.4820   21.0940  -31.9940 C   0  0  0  0  0  0  0  0  0  0  0  0
   -8.5610   19.9500  -32.0410 N   0  0  0  0  0  0  0  0  0  0  0  0
   -9.1120   18.5930  -31.9310 C   0  0  0  0  0  0  0  0  0  0  0  0
   -7.1330   20.1570  -32.1900 C   0  0  0  0  0  0  0  0  0  0  0  0
   -6.2150   19.1290  -31.8890 C   0  0  0  0  0  0  0  0  0  0  0  0
   -4.8410   19.3290  -32.0350 C   0  0  0  0  0  0  0  0  0  0  0  0
   -4.3460   20.5580  -32.4930 C   0  0  0  0  0  0  0  0  0  0  0  0
   -2.8920   20.7740  -32.6550 C   0  0  0  0  0  0  0  0  0  0  0  0
   -2.2270   20.3320  -33.8170 C   0  0  0  0  0  0  0  0  0  0  0  0
   -0.8400   20.5320  -33.9480 C   0  0  0  0  0  0  0  0  0  0  0  0
   -0.1330   21.1380  -32.9490 N   0  0  0  0  0  0  0  0  0  0  0  0
   -0.7760   21.5470  -31.8280 C   0  0  0  0  0  0  0  0  0  0  0  0
   -2.1190   21.3940  -31.6620 C   0  0  0  0  0  0  0  0  0  0  0  0
   -2.5090   21.9050  -30.3180 C   0  0  0  0  0  0  0  0  0  0  0  0
   -1.1420   22.3560  -29.6940 C   0  0  2  0  0  0  0  0  0  0  0  0
   -0.7520   21.4890  -28.4880 C   0  0  0  0  0  0  0  0  0  0  0  0
   -1.1460   23.8350  -29.3370 C   0  0  0  0  0  0  0  0  0  0  0  0
   -0.0600   24.3780  -28.9960 O   0  0  0  0  0  0  0  0  0  0  0  0
   -2.3180   24.6620  -29.3980 N   0  0  0  0  0  0  0  0  0  0  0  0
   -3.5240   24.5400  -28.5900 C   0  0  0  0  0  0  0  0  0  0  0  0
   -4.6950   24.3230  -29.4880 C   0  0  0  0  0  0  0  0  0  0  0  0
   -5.6550   23.3280  -29.3500 C   0  0  0  0  0  0  0  0  0  0  0  0
   -6.6800   23.4200  -30.2990 C   0  0  0  0  0  0  0  0  0  0  0  0
   -6.5390   24.4920  -31.1710 C   0  0  0  0  0  0  0  0  0  0  0  0
   -5.1380   25.3280  -30.7600 S   0  0  0  0  0  0  0  0  0  0  0  0
   -0.1790   22.1230  -30.7290 O   0  0  0  0  0  0  0  0  0  0  0  0
   -5.2470   21.5920  -32.7810 C   0  0  0  0  0  0  0  0  0  0  0  0
   -6.6230   21.3950  -32.6360 C   0  0  0  0  0  0  0  0  0  0  0  0
   -9.6910   21.3536  -30.9457 H   0  0  0  0  0  0  0  0  0  0  0  0
   -9.0226   21.9556  -32.5006 H   0  0  0  0  0  0  0  0  0  0  0  0
  -10.4218   20.8292  -32.5006 H   0  0  0  0  0  0  0  0  0  0  0  0
   -9.2203   18.3262  -30.8694 H   0  0  0  0  0  0  0  0  0  0  0  0
  -10.0963   18.5561  -32.4206 H   0  0  0  0  0  0  0  0  0  0  0  0
   -8.4320   17.8803  -32.4206 H   0  0  0  0  0  0  0  0  0  0  0  0
   -6.5869   18.1564  -31.5344 H   0  0  0  0  0  0  0  0  0  0  0  0
   -4.1418   18.5163  -31.7889 H   0  0  0  0  0  0  0  0  0  0  0  0
   -2.7905   19.8324  -34.6188 H   0  0  0  0  0  0  0  0  0  0  0  0
   -0.3228   20.1985  -34.8597 H   0  0  0  0  0  0  0  0  0  0  0  0
    0.8980   21.2720  -33.0420 H   0  0  0  0  0  0  0  0  0  0  0  0
   -3.2020   22.7548  -30.4052 H   0  0  0  0  0  0  0  0  0  0  0  0
   -3.0348   21.1557  -29.7080 H   0  0  0  0  0  0  0  0  0  0  0  0
   -0.9930   22.0248  -27.5580 H   0  0  0  0  0  0  0  0  0  0  0  0
   -1.3109   20.5421  -28.5211 H   0  0  0  0  0  0  0  0  0  0  0  0
    0.3273   21.2790  -28.5211 H   0  0  0  0  0  0  0  0  0  0  0  0
   -3.4228   23.6859  -27.9042 H   0  0  0  0  0  0  0  0  0  0  0  0
   -3.6719   25.4597  -28.0049 H   0  0  0  0  0  0  0  0  0  0  0  0
   -5.6138   22.5484  -28.5750 H   0  0  0  0  0  0  0  0  0  0  0  0
   -7.5186   22.7099  -30.3494 H   0  0  0  0  0  0  0  0  0  0  0  0
   -7.2260   24.7502  -31.9903 H   0  0  0  0  0  0  0  0  0  0  0  0
   -4.8683   22.5662  -33.1238 H   0  0  0  0  0  0  0  0  0  0  0  0
   -7.3171   22.2150  -32.8724 H   0  0  0  0  0  0  0  0  0  0  0  0
  1  2  1  0
  2  3  1  0
  2  4  1  0
  4  5  2  0
  5  6  1  0
  6  7  2  0
  7  8  1  0
  8  9  2  0
  9 10  1  0
 10 11  2  0
 11 12  1  0
 12 13  2  0
 13 14  1  0
 14 15  1  0
 15 16  1  1
 15 17  1  0
 17 18  2  0
 17 19  1  0
 19 20  1  0
 20 21  1  0
 21 22  2  0
 22 23  1  0
 23 24  2  0
 24 25  1  0
 15 26  1  0
  7 27  1  0
 27 28  2  0
 28  4  1  0
 13  8  1  0
 25 21  1  0
 26 12  1  0
  1 29  1  0
  1 30  1  0
  1 31  1  0
  3 32  1  0
  3 33  1  0
  3 34  1  0
  5 35  1  0
  6 36  1  0
  9 37  1  0
 10 38  1  0
 11 39  1  0
 14 40  1  0
 14 41  1  0
 16 42  1  0
 16 43  1  0
 16 44  1  0
 20 45  1  0
 20 46  1  0
 22 47  1  0
 23 48  1  0
 24 49  1  0
 27 50  1  0
 28 51  1  0
M  CHG  2  11   1  19  -1
M  END
>  <UniqueID>  (42) 
41

>  <SMILES>  (42) 
CN(C)c1ccc(-c2cc[nH+]c3c2C[C@](C)(C(=O)[N-]Cc2cccs2)O3)cc1

>  <Energy>  (42) 
103.17437231241459

>  <Genealogy>  (42) 
CN(C)c1ccc(-c2cc[nH+]c3c2CC(C)(C(=O)[N-]Cc2cccs2)O3)cc1 (protonated)
CN(C)c1ccc(-c2cc[nH+]c3c2C[C@](C)(C(=O)[N-]Cc2cccs2)O3)cc1 (chirality)
CN(C)c1ccc(-c2cc[nH+]c3c2C[C@](C)(C(=O)[N-]Cc2cccs2)O3)cc1 (3D coordinates assigned)
CN(C)c1ccc(-c2cc[nH+]c3c2C[C@](C)(C(=O)[N-]Cc2cccs2)O3)cc1 (nonaromatic ring conformer: 103.17437231241459 kcal/mol)

>  <smiles>  (42) 
CN(C)c1ccc(-c2ccnc3c2CC(C)(C(=O)NCc2cccs2)O3)cc1

>  <score_type>  (42) 
oracle

>  <origin>  (42) 
adg

>  <m_score__min__energy>  (42) 
-9.4499999999999993

>  <m_primary>  (42) 
energy

$$$$
42:0
     RDKit          3D

 44 46  0  0  0  0  0  0  0  0999 V2000
   -9.4370   19.3250  -32.4790 C   0  0  0  0  0  0  0  0  0  0  0  0
   -8.4810   20.4390  -32.1790 C   0  0  0  0  0  0  0  0  0  0  0  0
   -8.8550   21.6020  -31.5360 C   0  0  0  0  0  0  0  0  0  0  0  0
   -7.7910   22.4140  -31.4060 N   0  0  0  0  0  0  0  0  0  0  0  0
   -6.7820   21.7220  -31.9770 C   0  0  0  0  0  0  0  0  0  0  0  0
   -5.4710   22.1860  -32.0730 C   0  0  0  0  0  0  0  0  0  0  0  0
   -5.1360   23.5080  -31.5960 C   0  0  0  0  0  0  0  0  0  0  0  0
   -4.8680   24.5660  -31.2140 N   0  0  0  0  0  0  0  0  0  0  0  0
   -4.5110   21.3610  -32.6890 C   0  0  0  0  0  0  0  0  0  0  0  0
   -3.1500   21.8130  -32.8120 N   0  0  0  0  0  0  0  0  0  0  0  0
   -2.2570   21.9310  -31.6580 C   0  0  0  0  0  0  0  0  0  0  0  0
   -1.1570   20.8620  -31.7090 C   0  0  0  0  0  0  0  0  0  0  0  0
   -0.0910   21.1780  -32.7700 C   0  0  0  0  0  0  0  0  0  0  0  0
   -0.6830   21.1630  -34.1250 N   0  0  0  0  0  0  0  0  0  0  0  0
   -0.8430   19.7770  -34.5950 C   0  0  0  0  0  0  0  0  0  0  0  0
    0.1560   21.9110  -35.0770 C   0  0  0  0  0  0  0  0  0  0  0  0
   -4.9030   20.1010  -33.2180 C   0  0  0  0  0  0  0  0  0  0  0  0
   -3.9630   19.2540  -33.8410 C   0  0  0  0  0  0  0  0  0  0  0  0
   -4.3480   18.0120  -34.3410 C   0  0  0  0  0  0  0  0  0  0  0  0
   -5.6690   17.5940  -34.2290 C   0  0  0  0  0  0  0  0  0  0  0  0
   -6.6200   18.4100  -33.6150 C   0  0  0  0  0  0  0  0  0  0  0  0
   -6.2610   19.6740  -33.0930 C   0  0  0  0  0  0  0  0  0  0  0  0
   -7.1520   20.5150  -32.4660 N   0  0  0  0  0  0  0  0  0  0  0  0
   -9.8062   18.8948  -31.5363 H   0  0  0  0  0  0  0  0  0  0  0  0
  -10.2849   19.7161  -33.0605 H   0  0  0  0  0  0  0  0  0  0  0  0
   -8.9218   18.5463  -33.0605 H   0  0  0  0  0  0  0  0  0  0  0  0
   -9.8714   21.8303  -31.1828 H   0  0  0  0  0  0  0  0  0  0  0  0
   -2.7280   21.8810  -33.7650 H   0  0  0  0  0  0  0  0  0  0  0  0
   -1.7918   22.9278  -31.6624 H   0  0  0  0  0  0  0  0  0  0  0  0
   -2.8460   21.7876  -30.7401 H   0  0  0  0  0  0  0  0  0  0  0  0
   -0.6709   20.8062  -30.7238 H   0  0  0  0  0  0  0  0  0  0  0  0
   -1.6278   19.9047  -31.9772 H   0  0  0  0  0  0  0  0  0  0  0  0
    0.3321   22.1738  -32.5716 H   0  0  0  0  0  0  0  0  0  0  0  0
    0.6969   20.4121  -32.7194 H   0  0  0  0  0  0  0  0  0  0  0  0
   -0.9208   19.1029  -33.7292 H   0  0  0  0  0  0  0  0  0  0  0  0
   -1.7561   19.6993  -35.2035 H   0  0  0  0  0  0  0  0  0  0  0  0
    0.0284   19.4933  -35.2035 H   0  0  0  0  0  0  0  0  0  0  0  0
    0.8652   22.5432  -34.5226 H   0  0  0  0  0  0  0  0  0  0  0  0
    0.7124   21.2038  -35.7097 H   0  0  0  0  0  0  0  0  0  0  0  0
   -0.4830   22.5446  -35.7097 H   0  0  0  0  0  0  0  0  0  0  0  0
   -2.9156   19.5772  -33.9330 H   0  0  0  0  0  0  0  0  0  0  0  0
   -3.6053   17.3609  -34.8253 H   0  0  0  0  0  0  0  0  0  0  0  0
   -5.9669   16.6128  -34.6273 H   0  0  0  0  0  0  0  0  0  0  0  0
   -7.6617   18.0656  -33.5361 H   0  0  0  0  0  0  0  0  0  0  0  0
  1  2  1  0
  2  3  2  0
  3  4  1  0
  4  5  2  0
  5  6  1  0
  6  7  1  0
  7  8  3  0
  6  9  2  0
  9 10  1  0
 10 11  1  0
 11 12  1  0
 12 13  1  0
 13 14  1  0
 14 15  1  0
 14 16  1  0
  9 17  1  0
 17 18  2  0
 18 19  1  0
 19 20  2  0
 20 21  1  0
 21 22  2  0
 22 23  1  0
 23  2  1  0
 23  5  1  0
 22 17  1  0
  1 24  1  0
  1 25  1  0
  1 26  1  0
  3 27  1  0
 10 28  1  0
 11 29  1  0
 11 30  1  0
 12 31  1  0
 12 32  1  0
 13 33  1  0
 13 34  1  0
 15 35  1  0
 15 36  1  0
 15 37  1  0
 16 38  1  0
 16 39  1  0
 16 40  1  0
 18 41  1  0
 19 42  1  0
 20 43  1  0
 21 44  1  0
M  END
>  <UniqueID>  (43) 
42

>  <SMILES>  (43) 
Cc1cnc2c(C#N)c(NCCCN(C)C)c3ccccc3n12

>  <Energy>  (43) 
91.29220191264828

>  <Genealogy>  (43) 
Cc1cnc2c(C#N)c(NCCCN(C)C)c3ccccc3n12 (3D coordinates assigned)
Cc1cnc2c(C#N)c(NCCCN(C)C)c3ccccc3n12 (optimized conformer: 91.29220191264828 kcal/mol)

>  <smiles>  (43) 
Cc1cnc2c(C#N)c(NCCCN(C)C)c3ccccc3n12

>  <score_type>  (43) 
oracle

>  <origin>  (43) 
adg

>  <m_score__min__energy>  (43) 
-8.0800000000000001

>  <m_primary>  (43) 
energy

$$$$
43:0
     RDKit          3D

 36 38  0  0  0  0  0  0  0  0999 V2000
   -3.9650   25.6720  -30.8400 O   0  0  0  0  0  0  0  0  0  0  0  0
   -3.4730   24.8900  -29.9850 C   0  0  0  0  0  0  0  0  0  0  0  0
   -2.3000   25.2400  -29.3260 O   0  0  0  0  0  0  0  0  0  0  0  0
   -4.1630   23.6080  -29.6530 C   0  0  0  0  0  0  0  0  0  0  0  0
   -4.6660   22.7400  -31.1760 S   0  0  0  0  0  0  0  0  0  0  0  0
   -3.0300   22.0830  -31.5150 C   0  0  0  0  0  0  0  0  0  0  0  0
   -1.8890   22.6500  -31.0870 N   0  0  0  0  0  0  0  0  0  0  0  0
   -0.8780   21.9010  -31.5000 N   0  0  0  0  0  0  0  0  0  0  0  0
   -1.4240   20.8650  -32.1720 C   0  0  0  0  0  0  0  0  0  0  0  0
   -0.6080   19.8290  -32.8880 C   0  0  0  0  0  0  0  0  0  0  0  0
   -0.0440   20.3970  -34.1580 C   0  0  0  0  0  0  0  0  0  0  0  0
    0.1450   19.5920  -35.2880 C   0  0  0  0  0  0  0  0  0  0  0  0
    0.6330   20.1840  -36.4540 C   0  0  0  0  0  0  0  0  0  0  0  0
    0.8080   19.4910  -37.4900 O   0  0  0  0  0  0  0  0  0  0  0  0
    0.9200   21.5120  -36.4710 N   0  0  0  0  0  0  0  0  0  0  0  0
    0.7350   22.2790  -35.3660 C   0  0  0  0  0  0  0  0  0  0  0  0
    1.0060   23.5080  -35.4020 O   0  0  0  0  0  0  0  0  0  0  0  0
    0.2550   21.7240  -34.2230 N   0  0  0  0  0  0  0  0  0  0  0  0
   -2.7740   20.9530  -32.2000 N   0  0  0  0  0  0  0  0  0  0  0  0
   -3.7150   20.0770  -32.8370 C   0  0  0  0  0  0  0  0  0  0  0  0
   -4.9710   20.5580  -33.2350 C   0  0  0  0  0  0  0  0  0  0  0  0
   -5.8930   19.6960  -33.8370 C   0  0  0  0  0  0  0  0  0  0  0  0
   -5.5650   18.3540  -34.0450 C   0  0  0  0  0  0  0  0  0  0  0  0
   -4.3130   17.8720  -33.6560 C   0  0  0  0  0  0  0  0  0  0  0  0
   -3.3870   18.7310  -33.0560 C   0  0  0  0  0  0  0  0  0  0  0  0
   -3.4778   22.9660  -29.0800 H   0  0  0  0  0  0  0  0  0  0  0  0
   -5.0607   23.8311  -29.0578 H   0  0  0  0  0  0  0  0  0  0  0  0
   -1.7930   23.5280  -30.5310 H   0  0  0  0  0  0  0  0  0  0  0  0
    0.2175   19.5040  -32.2377 H   0  0  0  0  0  0  0  0  0  0  0  0
   -1.2529   18.9726  -33.1342 H   0  0  0  0  0  0  0  0  0  0  0  0
   -0.0860   18.5170  -35.2575 H   0  0  0  0  0  0  0  0  0  0  0  0
   -5.2311   21.6145  -33.0734 H   0  0  0  0  0  0  0  0  0  0  0  0
   -6.8779   20.0751  -34.1472 H   0  0  0  0  0  0  0  0  0  0  0  0
   -6.2930   17.6766  -34.5153 H   0  0  0  0  0  0  0  0  0  0  0  0
   -4.0552   16.8156  -33.8218 H   0  0  0  0  0  0  0  0  0  0  0  0
   -2.3997   18.3505  -32.7553 H   0  0  0  0  0  0  0  0  0  0  0  0
  1  2  2  0
  2  3  1  0
  2  4  1  0
  4  5  1  0
  5  6  1  0
  6  7  2  0
  7  8  1  0
  8  9  2  0
  9 10  1  0
 10 11  1  0
 11 12  2  0
 12 13  1  0
 13 14  2  0
 13 15  1  0
 15 16  1  0
 16 17  2  0
 16 18  1  0
  9 19  1  0
 19 20  1  0
 20 21  2  0
 21 22  1  0
 22 23  2  0
 23 24  1  0
 24 25  2  0
 19  6  1  0
 25 20  1  0
 18 11  1  0
  4 26  1  0
  4 27  1  0
  7 28  1  0
 10 29  1  0
 10 30  1  0
 12 31  1  0
 21 32  1  0
 22 33  1  0
 23 34  1  0
 24 35  1  0
 25 36  1  0
M  CHG  4   3  -1   7   1  15  -1  18  -1
M  END
>  <UniqueID>  (44) 
43

>  <SMILES>  (44) 
O=C([O-])CSc1[nH+]nc(Cc2cc(=O)[n-]c(=O)[n-]2)n1-c1ccccc1

>  <Energy>  (44) 
72.87454777384643

>  <Genealogy>  (44) 
O=C([O-])CSc1[nH+]nc(Cc2cc(=O)[n-]c(=O)[n-]2)n1-c1ccccc1 (protonated)
O=C([O-])CSc1[nH+]nc(Cc2cc(=O)[n-]c(=O)[n-]2)n1-c1ccccc1 (3D coordinates assigned)
O=C([O-])CSc1[nH+]nc(Cc2cc(=O)[n-]c(=O)[n-]2)n1-c1ccccc1 (optimized conformer: 72.87454777384643 kcal/mol)

>  <smiles>  (44) 
O=C(O)CSc1nnc(Cc2cc(=O)[nH]c(=O)[nH]2)n1-c1ccccc1

>  <score_type>  (44) 
oracle

>  <origin>  (44) 
adg

>  <m_score__min__energy>  (44) 
-10.619999999999999

>  <m_primary>  (44) 
energy

$$$$
44:0
     RDKit          3D

 42 45  0  0  0  0  0  0  0  0999 V2000
   -6.5300   14.4200  -34.2370 C   0  0  0  0  0  0  0  0  0  0  0  0
   -5.8840   15.6480  -34.5560 O   0  0  0  0  0  0  0  0  0  0  0  0
   -6.1840   16.8830  -33.9600 C   0  0  0  0  0  0  0  0  0  0  0  0
   -7.2390   17.0310  -33.0400 C   0  0  0  0  0  0  0  0  0  0  0  0
   -7.5080   18.2750  -32.4660 C   0  0  0  0  0  0  0  0  0  0  0  0
   -6.7300   19.3970  -32.7960 C   0  0  0  0  0  0  0  0  0  0  0  0
   -7.0160   20.7170  -32.1790 C   0  0  0  0  0  0  0  0  0  0  0  0
   -8.3360   21.1680  -32.0260 C   0  0  0  0  0  0  0  0  0  0  0  0
   -8.5860   22.3850  -31.4760 N   0  0  0  0  0  0  0  0  0  0  0  0
   -7.5870   23.1990  -31.0480 C   0  0  0  0  0  0  0  0  0  0  0  0
   -6.2500   22.7930  -31.1570 C   0  0  0  0  0  0  0  0  0  0  0  0
   -5.1610   23.6810  -30.6970 C   0  0  0  0  0  0  0  0  0  0  0  0
   -4.9900   25.0220  -31.0360 C   0  0  0  0  0  0  0  0  0  0  0  0
   -3.9070   25.5050  -30.4580 O   0  0  0  0  0  0  0  0  0  0  0  0
   -3.3670   24.5420  -29.7500 C   0  0  0  0  0  0  0  0  0  0  0  0
   -2.2200   24.6130  -28.9630 C   0  0  0  0  0  0  0  0  0  0  0  0
   -1.8350   23.4610  -28.2550 C   0  0  0  0  0  0  0  0  0  0  0  0
   -2.6040   22.2790  -28.3410 C   0  0  0  0  0  0  0  0  0  0  0  0
   -3.7570   22.2360  -29.1450 C   0  0  0  0  0  0  0  0  0  0  0  0
   -4.1010   23.3880  -29.8560 C   0  0  0  0  0  0  0  0  0  0  0  0
   -5.9710   21.5490  -31.7420 C   0  0  0  0  0  0  0  0  0  0  0  0
   -5.6780   19.2480  -33.7160 C   0  0  0  0  0  0  0  0  0  0  0  0
   -5.4010   17.9970  -34.2990 C   0  0  0  0  0  0  0  0  0  0  0  0
   -4.3570   17.8190  -35.2210 O   0  0  0  0  0  0  0  0  0  0  0  0
   -3.2010   17.0210  -34.9890 C   0  0  0  0  0  0  0  0  0  0  0  0
   -6.5882   14.3094  -33.1441 H   0  0  0  0  0  0  0  0  0  0  0  0
   -7.5453   14.4191  -34.6602 H   0  0  0  0  0  0  0  0  0  0  0  0
   -5.9556   13.5828  -34.6602 H   0  0  0  0  0  0  0  0  0  0  0  0
   -7.8557   16.1606  -32.7714 H   0  0  0  0  0  0  0  0  0  0  0  0
   -8.3362   18.3773  -31.7493 H   0  0  0  0  0  0  0  0  0  0  0  0
   -9.1726   20.5330  -32.3530 H   0  0  0  0  0  0  0  0  0  0  0  0
   -7.8280   24.1807  -30.6141 H   0  0  0  0  0  0  0  0  0  0  0  0
   -5.6618   25.5955  -31.6916 H   0  0  0  0  0  0  0  0  0  0  0  0
   -1.6337   25.5414  -28.8975 H   0  0  0  0  0  0  0  0  0  0  0  0
   -0.9297   23.4801  -27.6304 H   0  0  0  0  0  0  0  0  0  0  0  0
   -2.2988   21.3863  -27.7753 H   0  0  0  0  0  0  0  0  0  0  0  0
   -4.3685   21.3241  -29.2118 H   0  0  0  0  0  0  0  0  0  0  0  0
   -4.9272   21.2224  -31.8595 H   0  0  0  0  0  0  0  0  0  0  0  0
   -5.0633   20.1200  -33.9839 H   0  0  0  0  0  0  0  0  0  0  0  0
   -3.0424   16.9115  -33.9060 H   0  0  0  0  0  0  0  0  0  0  0  0
   -3.3440   16.0283  -35.4409 H   0  0  0  0  0  0  0  0  0  0  0  0
   -2.3235   17.5066  -35.4409 H   0  0  0  0  0  0  0  0  0  0  0  0
  1  2  1  0
  2  3  1  0
  3  4  2  0
  4  5  1  0
  5  6  2  0
  6  7  1  0
  7  8  2  0
  8  9  1  0
  9 10  2  0
 10 11  1  0
 11 12  1  0
 12 13  2  0
 13 14  1  0
 14 15  1  0
 15 16  2  0
 16 17  1  0
 17 18  2  0
 18 19  1  0
 19 20  2  0
 11 21  2  0
  6 22  1  0
 22 23  2  0
 23 24  1  0
 24 25  1  0
 23  3  1  0
 21  7  1  0
 20 12  1  0
 20 15  1  0
  1 26  1  0
  1 27  1  0
  1 28  1  0
  4 29  1  0
  5 30  1  0
  8 31  1  0
 10 32  1  0
 13 33  1  0
 16 34  1  0
 17 35  1  0
 18 36  1  0
 19 37  1  0
 21 38  1  0
 22 39  1  0
 25 40  1  0
 25 41  1  0
 25 42  1  0
M  END
>  <UniqueID>  (45) 
44

>  <SMILES>  (45) 
COc1ccc(-c2cncc(-c3coc4ccccc34)c2)cc1OC

>  <Energy>  (45) 
90.20785684206383

>  <Genealogy>  (45) 
COc1ccc(-c2cncc(-c3coc4ccccc34)c2)cc1OC (3D coordinates assigned)
COc1ccc(-c2cncc(-c3coc4ccccc34)c2)cc1OC (optimized conformer: 90.20785684206383 kcal/mol)

>  <smiles>  (45) 
COc1ccc(-c2cncc(-c3coc4ccccc34)c2)cc1OC

>  <score_type>  (45) 
oracle

>  <origin>  (45) 
adg

>  <m_score__min__energy>  (45) 
-8.8499999999999996

>  <m_primary>  (45) 
energy

$$$$
45:0
     RDKit          3D

 56 60  0  0  1  0  0  0  0  0999 V2000
    2.2310   19.2430  -33.0630 C   0  0  0  0  0  0  0  0  0  0  0  0
    1.4640   20.4140  -32.9840 O   0  0  0  0  0  0  0  0  0  0  0  0
    0.0860   20.4440  -32.8580 C   0  0  0  0  0  0  0  0  0  0  0  0
   -0.5590   20.2070  -31.6620 C   0  0  0  0  0  0  0  0  0  0  0  0
   -1.9350   20.2510  -31.6030 C   0  0  0  0  0  0  0  0  0  0  0  0
   -2.7080   20.5350  -32.7350 C   0  0  0  0  0  0  0  0  0  0  0  0
   -4.1420   20.5610  -32.5360 C   0  0  0  0  0  0  0  0  0  0  0  0
   -4.9460   19.5410  -32.9440 N   0  0  0  0  0  0  0  0  0  0  0  0
   -6.1970   19.8540  -32.6310 C   0  0  0  0  0  0  0  0  0  0  0  0
   -7.3990   19.1780  -32.8210 C   0  0  0  0  0  0  0  0  0  0  0  0
   -8.6090   19.7060  -32.4090 C   0  0  0  0  0  0  0  0  0  0  0  0
   -8.6120   20.9450  -31.7910 C   0  0  0  0  0  0  0  0  0  0  0  0
   -9.8680   21.5940  -31.3130 C   0  0  0  0  0  0  0  0  0  0  0  0
   -7.4040   21.5880  -31.6190 C   0  0  0  0  0  0  0  0  0  0  0  0
   -6.2270   21.0570  -32.0280 N   0  0  0  0  0  0  0  0  0  0  0  0
   -4.9470   21.5130  -31.9600 C   0  0  0  0  0  0  0  0  0  0  0  0
   -4.6120   22.7880  -31.3660 C   0  0  0  0  0  0  0  0  0  0  0  0
   -5.3840   23.9170  -31.4180 C   0  0  0  0  0  0  0  0  0  0  0  0
   -4.9840   25.0930  -30.8260 C   0  0  0  0  0  0  0  0  0  0  0  0
   -3.8050   25.1590  -30.1730 N   0  0  0  0  0  0  0  0  0  0  0  0
   -3.0390   24.0530  -30.1170 C   0  0  0  0  0  0  0  0  0  0  0  0
   -1.8980   24.0760  -29.5090 N   0  0  0  0  0  0  0  0  0  0  0  0
   -1.6080   23.1810  -28.4440 C   0  0  0  0  0  0  0  0  0  0  0  0
   -1.1020   23.7470  -27.2850 C   0  0  0  0  0  0  0  0  0  0  0  0
   -0.7760   23.0020  -26.1720 C   0  0  0  0  0  0  0  0  0  0  0  0
   -0.9810   21.6300  -26.2630 C   0  0  0  0  0  0  0  0  0  0  0  0
   -1.4840   21.0430  -27.4060 C   0  0  0  0  0  0  0  0  0  0  0  0
   -1.6610   19.6590  -27.4190 O   0  0  0  0  0  0  0  0  0  0  0  0
   -2.7230   19.1420  -26.6600 C   0  0  0  0  0  0  0  0  0  0  0  0
   -1.8010   21.8220  -28.5090 C   0  0  0  0  0  0  0  0  0  0  0  0
   -3.4260   22.8930  -30.6960 N   0  0  0  0  0  0  0  0  0  0  0  0
   -2.0710   20.7710  -33.9270 C   0  0  0  0  0  0  0  0  0  0  0  0
   -0.6810   20.7220  -33.9730 C   0  0  0  0  0  0  0  0  0  0  0  0
    2.4636   18.8879  -32.0482 H   0  0  0  0  0  0  0  0  0  0  0  0
    1.6643   18.4691  -33.6014 H   0  0  0  0  0  0  0  0  0  0  0  0
    3.1669   19.4533  -33.6014 H   0  0  0  0  0  0  0  0  0  0  0  0
    0.0242   19.9832  -30.7566 H   0  0  0  0  0  0  0  0  0  0  0  0
   -2.4378   20.0584  -30.6438 H   0  0  0  0  0  0  0  0  0  0  0  0
   -7.3860   18.1945  -33.3135 H   0  0  0  0  0  0  0  0  0  0  0  0
   -9.5472   19.1544  -32.5686 H   0  0  0  0  0  0  0  0  0  0  0  0
   -9.8815   21.6010  -30.2131 H   0  0  0  0  0  0  0  0  0  0  0  0
   -9.9118   22.6276  -31.6868 H   0  0  0  0  0  0  0  0  0  0  0  0
  -10.7364   21.0318  -31.6868 H   0  0  0  0  0  0  0  0  0  0  0  0
   -7.3961   22.5730  -31.1293 H   0  0  0  0  0  0  0  0  0  0  0  0
   -6.3483   23.8834  -31.9462 H   0  0  0  0  0  0  0  0  0  0  0  0
   -5.6279   25.9829  -30.8853 H   0  0  0  0  0  0  0  0  0  0  0  0
   -3.5050   26.0500  -29.7270 H   0  0  0  0  0  0  0  0  0  0  0  0
   -0.9542   24.8365  -27.2516 H   0  0  0  0  0  0  0  0  0  0  0  0
   -0.3749   23.4684  -25.2601 H   0  0  0  0  0  0  0  0  0  0  0  0
   -0.7353   20.9944  -25.3995 H   0  0  0  0  0  0  0  0  0  0  0  0
   -2.4963   19.2524  -25.5893 H   0  0  0  0  0  0  0  0  0  0  0  0
   -3.6455   19.6918  -26.8980 H   0  0  0  0  0  0  0  0  0  0  0  0
   -2.8593   18.0767  -26.8980 H   0  0  0  0  0  0  0  0  0  0  0  0
   -2.2012   21.3585  -29.4228 H   0  0  0  0  0  0  0  0  0  0  0  0
   -2.6512   20.9959  -34.8341 H   0  0  0  0  0  0  0  0  0  0  0  0
   -0.1750   20.9113  -34.9312 H   0  0  0  0  0  0  0  0  0  0  0  0
  1  2  1  0
  2  3  1  0
  3  4  2  0
  4  5  1  0
  5  6  2  0
  6  7  1  0
  7  8  1  0
  8  9  2  0
  9 10  1  0
 10 11  2  0
 11 12  1  0
 12 13  1  0
 12 14  2  0
 14 15  1  0
 15 16  1  0
 16 17  1  0
 17 18  1  0
 18 19  2  0
 19 20  1  0
 20 21  1  0
 21 22  2  0
 22 23  1  0
 23 24  2  0
 24 25  1  0
 25 26  2  0
 26 27  1  0
 27 28  1  0
 28 29  1  0
 27 30  2  0
 21 31  1  0
  6 32  1  0
 32 33  2  0
 33  3  1  0
 16  7  2  0
 31 17  2  0
 15  9  1  0
 30 23  1  0
  1 34  1  0
  1 35  1  0
  1 36  1  0
  4 37  1  0
  5 38  1  0
 10 39  1  0
 11 40  1  0
 13 41  1  0
 13 42  1  0
 13 43  1  0
 14 44  1  0
 18 45  1  0
 19 46  1  0
 20 47  1  0
 24 48  1  0
 25 49  1  0
 26 50  1  0
 29 51  1  0
 29 52  1  0
 29 53  1  0
 30 54  1  0
 32 55  1  0
 33 56  1  0
M  END
>  <smiles>  (46) 
COc1ccc(-c2nc3ccc(C)cn3c2-c2cc[nH]c(=Nc3cccc(OC)c3)n2)cc1

>  <score_type>  (46) 
oracle

>  <origin>  (46) 
adg

>  <m_score__min__energy>  (46) 
-9.9800000000000004

>  <m_primary>  (46) 
energy

$$$$
46:0
     RDKit          3D

 47 49  0  0  0  0  0  0  0  0999 V2000
    0.2540   25.3290  -28.6560 H   0  0  0  0  0  0  0  0  0  0  0  0
    0.7610   25.0070  -27.8660 O   0  0  0  0  0  0  0  0  0  0  0  0
    0.0040   25.3450  -26.7350 C   0  0  0  0  0  0  0  0  0  0  0  0
    0.4545   26.2218  -26.2470 H   0  0  0  0  0  0  0  0  0  0  0  0
   -0.0048   24.4887  -26.0446 H   0  0  0  0  0  0  0  0  0  0  0  0
   -1.4380   25.6750  -27.1320 C   0  0  0  0  0  0  0  0  0  0  0  0
   -1.6985   26.6700  -26.7420 H   0  0  0  0  0  0  0  0  0  0  0  0
   -2.1002   24.9059  -26.7078 H   0  0  0  0  0  0  0  0  0  0  0  0
   -1.6010   25.6750  -28.5870 N   0  0  0  0  0  0  0  0  0  0  0  0
   -2.0750   24.7160  -29.3330 C   0  0  0  0  0  0  0  0  0  0  0  0
   -3.3010   24.8810  -29.8970 N   0  0  0  0  0  0  0  0  0  0  0  0
   -3.8770   23.9340  -30.6830 C   0  0  0  0  0  0  0  0  0  0  0  0
   -4.8707   24.1149  -31.1187 H   0  0  0  0  0  0  0  0  0  0  0  0
   -3.2100   22.7250  -30.9420 C   0  0  0  0  0  0  0  0  0  0  0  0
   -3.8280   21.6790  -31.7990 C   0  0  0  0  0  0  0  0  0  0  0  0
   -5.2110   21.6730  -32.0270 C   0  0  0  0  0  0  0  0  0  0  0  0
   -5.8476   22.4317  -31.5483 H   0  0  0  0  0  0  0  0  0  0  0  0
   -5.7840   20.7110  -32.8570 C   0  0  0  0  0  0  0  0  0  0  0  0
   -6.8715   20.7164  -33.0226 H   0  0  0  0  0  0  0  0  0  0  0  0
   -4.9960   19.7380  -33.4830 C   0  0  0  0  0  0  0  0  0  0  0  0
   -5.8330   18.5950  -34.6040 S   0  0  0  0  0  0  0  0  0  0  0  0
   -5.3880   17.1260  -33.6650 C   0  0  0  0  0  0  0  0  0  0  0  0
   -4.6930   16.0900  -34.3020 C   0  0  0  0  0  0  0  0  0  0  0  0
   -4.4135   16.1897  -35.3612 H   0  0  0  0  0  0  0  0  0  0  0  0
   -4.3530   14.9320  -33.6010 C   0  0  0  0  0  0  0  0  0  0  0  0
   -3.8205   14.1160  -34.1115 H   0  0  0  0  0  0  0  0  0  0  0  0
   -4.6890   14.8100  -32.2520 C   0  0  0  0  0  0  0  0  0  0  0  0
   -4.4287   13.8934  -31.7024 H   0  0  0  0  0  0  0  0  0  0  0  0
   -5.3550   15.8490  -31.5980 C   0  0  0  0  0  0  0  0  0  0  0  0
   -5.6102   15.7501  -30.5326 H   0  0  0  0  0  0  0  0  0  0  0  0
   -5.7020   17.0240  -32.2960 C   0  0  0  0  0  0  0  0  0  0  0  0
   -6.3480   18.0990  -31.6650 O   0  0  0  0  0  0  0  0  0  0  0  0
   -7.7600   18.2820  -31.6270 C   0  0  0  0  0  0  0  0  0  0  0  0
   -8.0961   18.3256  -30.5805 H   0  0  0  0  0  0  0  0  0  0  0  0
   -8.0218   19.2216  -32.1356 H   0  0  0  0  0  0  0  0  0  0  0  0
   -8.2527   17.4402  -32.1356 H   0  0  0  0  0  0  0  0  0  0  0  0
   -3.6040   19.6780  -33.2030 C   0  0  0  0  0  0  0  0  0  0  0  0
   -2.6800   18.6290  -33.7940 C   0  0  0  0  0  0  0  0  0  0  0  0
   -2.5490   17.5300  -32.9660 F   0  0  0  0  0  0  0  0  0  0  0  0
   -3.1740   18.2250  -35.0210 F   0  0  0  0  0  0  0  0  0  0  0  0
   -1.4120   19.1530  -33.9830 F   0  0  0  0  0  0  0  0  0  0  0  0
   -3.0360   20.6800  -32.3890 C   0  0  0  0  0  0  0  0  0  0  0  0
   -1.9503   20.6792  -32.2125 H   0  0  0  0  0  0  0  0  0  0  0  0
   -1.9440   22.5300  -30.3710 C   0  0  0  0  0  0  0  0  0  0  0  0
   -1.3985   21.5933  -30.5580 H   0  0  0  0  0  0  0  0  0  0  0  0
   -1.3720   23.5170  -29.5670 C   0  0  0  0  0  0  0  0  0  0  0  0
   -0.3796   23.3603  -29.1191 H   0  0  0  0  0  0  0  0  0  0  0  0
  1  2  1  0
  2  3  1  0
  3  4  1  0
  3  5  1  0
  3  6  1  0
  6  7  1  0
  6  8  1  0
  6  9  1  0
  9 10  2  0
 10 11  1  0
 11 12  1  0
 12 13  1  0
 12 14  2  0
 14 15  1  0
 15 16  2  0
 16 17  1  0
 16 18  1  0
 18 19  1  0
 18 20  2  0
 20 21  1  0
 21 22  1  0
 22 23  2  0
 23 24  1  0
 23 25  1  0
 25 26  1  0
 25 27  2  0
 27 28  1  0
 27 29  1  0
 29 30  1  0
 29 31  2  0
 31 32  1  0
 32 33  1  0
 33 34  1  0
 33 35  1  0
 33 36  1  0
 20 37  1  0
 37 38  1  0
 38 39  1  0
 38 40  1  0
 38 41  1  0
 37 42  2  0
 42 43  1  0
 14 44  1  0
 44 45  1  0
 44 46  2  0
 46 47  1  0
 46 10  1  0
 42 15  1  0
 31 22  1  0
M  CHG  1  11  -1
M  END
>  <UniqueID>  (47) 
45

>  <SMILES>  (47) 
COc1ccccc1Sc1ccc(-c2cc/c(=N\CCO)[n-]c2)cc1C(F)(F)F

>  <Energy>  (47) 
55.06787013848762

>  <Genealogy>  (47) 
COc1ccccc1Sc1ccc(-c2ccc(=NCCO)[n-]c2)cc1C(F)(F)F (protonated)
COc1ccccc1Sc1ccc(-c2cc/c(=N\CCO)[n-]c2)cc1C(F)(F)F (cis-trans isomerization)
COc1ccccc1Sc1ccc(-c2cc/c(=N\CCO)[n-]c2)cc1C(F)(F)F (3D coordinates assigned)
COc1ccccc1Sc1ccc(-c2cc/c(=N\CCO)[n-]c2)cc1C(F)(F)F (optimized conformer: 55.06787013848762 kcal/mol)

>  <smiles>  (47) 
COc1ccccc1Sc1ccc(-c2ccc(=NCCO)[nH]c2)cc1C(F)(F)F

>  <score_type>  (47) 
oracle

>  <origin>  (47) 
adg

>  <m_score__min__energy>  (47) 
-8.7599999999999998

>  <m_primary>  (47) 
energy

$$$$
47:0
     RDKit          3D

 41 43  0  0  0  0  0  0  0  0999 V2000
   -6.0600   25.6700  -29.7500 C   0  0  0  0  0  0  0  0  0  0  0  0
   -5.0850   25.1710  -30.7620 C   0  0  0  0  0  0  0  0  0  0  0  0
   -3.9310   25.6730  -30.8150 O   0  0  0  0  0  0  0  0  0  0  0  0
   -5.4800   24.1490  -31.6800 N   0  0  0  0  0  0  0  0  0  0  0  0
   -5.8650   22.5260  -31.2040 S   0  0  0  0  0  0  0  0  0  0  0  0
   -7.1950   22.1110  -31.7690 O   0  0  0  0  0  0  0  0  0  0  0  0
   -5.9300   22.4740  -29.7030 O   0  0  0  0  0  0  0  0  0  0  0  0
   -4.6220   21.4160  -31.8050 C   0  0  0  0  0  0  0  0  0  0  0  0
   -4.9080   20.6270  -32.9300 C   0  0  0  0  0  0  0  0  0  0  0  0
   -3.9730   19.7100  -33.4130 C   0  0  0  0  0  0  0  0  0  0  0  0
   -2.7390   19.5680  -32.7760 C   0  0  0  0  0  0  0  0  0  0  0  0
   -2.4340   20.3500  -31.6620 C   0  0  0  0  0  0  0  0  0  0  0  0
   -3.3590   21.2880  -31.1730 C   0  0  0  0  0  0  0  0  0  0  0  0
   -2.9810   22.1030  -30.0020 C   0  0  0  0  0  0  0  0  0  0  0  0
   -3.0920   21.5810  -28.7070 C   0  0  0  0  0  0  0  0  0  0  0  0
   -2.6840   22.3360  -27.6050 C   0  0  0  0  0  0  0  0  0  0  0  0
   -2.1780   23.6360  -27.7780 C   0  0  0  0  0  0  0  0  0  0  0  0
   -1.7240   24.4010  -26.5930 C   0  0  0  0  0  0  0  0  0  0  0  0
   -2.3520   25.5930  -26.1960 C   0  0  0  0  0  0  0  0  0  0  0  0
   -1.9050   26.2560  -25.0950 N   0  0  0  0  0  0  0  0  0  0  0  0
   -0.8590   25.7790  -24.3610 C   0  0  0  0  0  0  0  0  0  0  0  0
   -0.4380   26.4150  -23.3140 N   0  0  0  0  0  0  0  0  0  0  0  0
   -0.2420   24.5850  -24.7460 C   0  0  0  0  0  0  0  0  0  0  0  0
   -0.6900   23.9260  -25.8460 N   0  0  0  0  0  0  0  0  0  0  0  0
   -2.0810   24.1650  -29.0810 C   0  0  0  0  0  0  0  0  0  0  0  0
   -1.5360   25.3870  -29.3020 F   0  0  0  0  0  0  0  0  0  0  0  0
   -2.4880   23.4030  -30.1810 C   0  0  0  0  0  0  0  0  0  0  0  0
   -5.6732   25.4720  -28.7395 H   0  0  0  0  0  0  0  0  0  0  0  0
   -6.2038   26.7525  -29.8820 H   0  0  0  0  0  0  0  0  0  0  0  0
   -7.0222   25.1535  -29.8820 H   0  0  0  0  0  0  0  0  0  0  0  0
   -5.8789   20.7324  -33.4362 H   0  0  0  0  0  0  0  0  0  0  0  0
   -4.2088   19.0986  -34.2965 H   0  0  0  0  0  0  0  0  0  0  0  0
   -2.0066   18.8389  -33.1529 H   0  0  0  0  0  0  0  0  0  0  0  0
   -1.4613   20.2315  -31.1621 H   0  0  0  0  0  0  0  0  0  0  0  0
   -3.5025   20.5715  -28.5571 H   0  0  0  0  0  0  0  0  0  0  0  0
   -2.7592   21.9099  -26.5937 H   0  0  0  0  0  0  0  0  0  0  0  0
   -3.2012   25.9887  -26.7724 H   0  0  0  0  0  0  0  0  0  0  0  0
   -2.3860   27.1410  -24.8150 H   0  0  0  0  0  0  0  0  0  0  0  0
    0.2570   25.9980  -22.6550 H   0  0  0  0  0  0  0  0  0  0  0  0
    0.5994   24.1825  -24.1629 H   0  0  0  0  0  0  0  0  0  0  0  0
   -2.4208   23.8269  -31.1938 H   0  0  0  0  0  0  0  0  0  0  0  0
  1  2  1  0
  2  3  2  0
  2  4  1  0
  4  5  1  0
  5  6  2  0
  5  7  2  0
  5  8  1  0
  8  9  2  0
  9 10  1  0
 10 11  2  0
 11 12  1  0
 12 13  2  0
 13 14  1  0
 14 15  2  0
 15 16  1  0
 16 17  2  0
 17 18  1  0
 18 19  2  0
 19 20  1  0
 20 21  1  0
 21 22  2  3
 21 23  1  0
 23 24  2  0
 17 25  1  0
 25 26  1  0
 25 27  2  0
 13  8  1  0
 27 14  1  0
 24 18  1  0
  1 28  1  0
  1 29  1  0
  1 30  1  0
  9 31  1  0
 10 32  1  0
 11 33  1  0
 12 34  1  0
 15 35  1  0
 16 36  1  0
 19 37  1  0
 20 38  1  0
 22 39  1  0
 23 40  1  0
 27 41  1  0
M  CHG  1   4  -1
M  END
>  <UniqueID>  (48) 
46

>  <SMILES>  (48) 
CC(=O)[N-]S(=O)(=O)c1ccccc1-c1ccc(-c2c[nH]c(=N)cn2)c(F)c1

>  <Energy>  (48) 
57.576413370629744

>  <Genealogy>  (48) 
CC(=O)[N-]S(=O)(=O)c1ccccc1-c1ccc(-c2c[nH]c(=N)cn2)c(F)c1 (protonated)
CC(=O)[N-]S(=O)(=O)c1ccccc1-c1ccc(-c2c[nH]c(=N)cn2)c(F)c1 (3D coordinates assigned)
CC(=O)[N-]S(=O)(=O)c1ccccc1-c1ccc(-c2c[nH]c(=N)cn2)c(F)c1 (optimized conformer: 57.576413370629744 kcal/mol)

>  <smiles>  (48) 
CC(=O)NS(=O)(=O)c1ccccc1-c1ccc(-c2c[nH]c(=N)cn2)c(F)c1

>  <score_type>  (48) 
oracle

>  <origin>  (48) 
adg

>  <m_score__min__energy>  (48) 
-9.7799999999999994

>  <m_primary>  (48) 
energy

$$$$
