0:0
     RDKit          3D

 49 52  0  0  0  0  0  0  0  0999 V2000
   -7.2360   22.5380  -29.8700 C   0  0  0  0  0  0  0  0  0  0  0  0
   -7.6090   23.5370  -30.9640 C   0  0  0  0  0  0  0  0  0  0  0  0
   -7.1970   23.0530  -32.3620 C   0  0  0  0  0  0  0  0  0  0  0  0
   -7.0950   21.5820  -32.4160 N   0  0  0  0  0  0  0  0  0  0  0  0
   -8.1930   20.7670  -32.2260 C   0  0  0  0  0  0  0  0  0  0  0  0
   -9.3190   21.2850  -31.9820 O   0  0  0  0  0  0  0  0  0  0  0  0
   -8.0740   19.3900  -32.2990 N   0  0  0  0  0  0  0  0  0  0  0  0
   -9.2570   18.5410  -32.0860 C   0  0  0  0  0  0  0  0  0  0  0  0
   -6.8420   18.8100  -32.5080 C   0  0  0  0  0  0  0  0  0  0  0  0
   -6.7090   17.5560  -32.5480 O   0  0  0  0  0  0  0  0  0  0  0  0
   -5.7450   19.6430  -32.6830 C   0  0  0  0  0  0  0  0  0  0  0  0
   -5.8920   20.9870  -32.6410 C   0  0  0  0  0  0  0  0  0  0  0  0
   -4.7240   21.6070  -32.8960 N   0  0  0  0  0  0  0  0  0  0  0  0
   -3.8710   20.5700  -33.0970 C   0  0  0  0  0  0  0  0  0  0  0  0
   -2.4720   20.7820  -33.5070 C   0  0  0  0  0  0  0  0  0  0  0  0
   -1.4640   21.0310  -32.6560 C   0  0  0  0  0  0  0  0  0  0  0  0
   -1.5660   21.8490  -31.4230 C   0  0  0  0  0  0  0  0  0  0  0  0
   -0.5580   21.7770  -30.4530 C   0  0  0  0  0  0  0  0  0  0  0  0
   -0.6660   22.5480  -29.2940 C   0  0  0  0  0  0  0  0  0  0  0  0
   -1.7730   23.3790  -29.1060 C   0  0  0  0  0  0  0  0  0  0  0  0
   -2.7750   23.4230  -30.0890 C   0  0  0  0  0  0  0  0  0  0  0  0
   -3.9300   24.2710  -29.9640 N   0  0  0  0  0  0  0  0  0  0  0  0
   -4.7890   24.3770  -28.9330 C   0  0  0  0  0  0  0  0  0  0  0  0
   -5.7320   25.3090  -29.1770 N   0  0  0  0  0  0  0  0  0  0  0  0
   -5.3920   25.7540  -30.4060 C   0  0  0  0  0  0  0  0  0  0  0  0
   -4.3020   25.1340  -30.8920 N   0  0  0  0  0  0  0  0  0  0  0  0
   -2.6430   22.6520  -31.2020 N   0  0  0  0  0  0  0  0  0  0  0  0
   -4.4600   19.3500  -32.9530 N   0  0  0  0  0  0  0  0  0  0  0  0
   -3.8540   18.0250  -33.0980 C   0  0  0  0  0  0  0  0  0  0  0  0
   -7.4062   22.9940  -28.8835 H   0  0  0  0  0  0  0  0  0  0  0  0
   -7.8580   21.6362  -29.9694 H   0  0  0  0  0  0  0  0  0  0  0  0
   -6.1752   22.2645  -29.9694 H   0  0  0  0  0  0  0  0  0  0  0  0
   -8.6986   23.6874  -30.9488 H   0  0  0  0  0  0  0  0  0  0  0  0
   -7.0706   24.4744  -30.7608 H   0  0  0  0  0  0  0  0  0  0  0  0
   -7.9494   23.3863  -33.0919 H   0  0  0  0  0  0  0  0  0  0  0  0
   -6.2094   23.4766  -32.5970 H   0  0  0  0  0  0  0  0  0  0  0  0
   -9.4298   18.4170  -31.0068 H   0  0  0  0  0  0  0  0  0  0  0  0
  -10.1364   19.0154  -32.5460 H   0  0  0  0  0  0  0  0  0  0  0  0
   -9.0891   17.5560  -32.5460 H   0  0  0  0  0  0  0  0  0  0  0  0
   -2.2380   20.7331  -34.5807 H   0  0  0  0  0  0  0  0  0  0  0  0
   -0.4831   20.5929  -32.8923 H   0  0  0  0  0  0  0  0  0  0  0  0
    0.3107   21.1191  -30.6030 H   0  0  0  0  0  0  0  0  0  0  0  0
    0.1218   22.5010  -28.5278 H   0  0  0  0  0  0  0  0  0  0  0  0
   -1.8590   23.9927  -28.1972 H   0  0  0  0  0  0  0  0  0  0  0  0
   -4.7292   23.7804  -28.0108 H   0  0  0  0  0  0  0  0  0  0  0  0
   -5.9444   26.5355  -30.9484 H   0  0  0  0  0  0  0  0  0  0  0  0
   -3.6595   17.5998  -32.1023 H   0  0  0  0  0  0  0  0  0  0  0  0
   -4.5404   17.3663  -33.6503 H   0  0  0  0  0  0  0  0  0  0  0  0
   -2.9068   18.1134  -33.6503 H   0  0  0  0  0  0  0  0  0  0  0  0
  1  2  1  0
  2  3  1  0
  3  4  1  0
  4  5  1  0
  5  6  2  0
  5  7  1  0
  7  8  1  0
  7  9  1  0
  9 10  2  0
  9 11  1  0
 11 12  2  0
 12 13  1  0
 13 14  2  0
 14 15  1  0
 15 16  2  3
 16 17  1  0
 17 18  2  0
 18 19  1  0
 19 20  2  0
 20 21  1  0
 21 22  1  0
 22 23  1  0
 23 24  2  0
 24 25  1  0
 25 26  2  0
 21 27  2  0
 14 28  1  0
 28 29  1  0
 12  4  1  0
 27 17  1  0
 28 11  1  0
 26 22  1  0
  1 30  1  0
  1 31  1  0
  1 32  1  0
  2 33  1  0
  2 34  1  0
  3 35  1  0
  3 36  1  0
  8 37  1  0
  8 38  1  0
  8 39  1  0
 15 40  1  0
 16 41  1  0
 18 42  1  0
 19 43  1  0
 20 44  1  0
 23 45  1  0
 25 46  1  0
 29 47  1  0
 29 48  1  0
 29 49  1  0
M  END
>  <UniqueID>  (1) 
1

>  <SMILES>  (1) 
CCCn1c(=O)n(C)c(=O)c2c1nc(C=Cc1cccc(-n3cncn3)n1)n2C

>  <Energy>  (1) 
133.44239471155657

>  <Genealogy>  (1) 
CCCn1c(=O)n(C)c(=O)c2c1nc(C=Cc1cccc(-n3cncn3)n1)n2C (3D coordinates assigned)
CCCn1c(=O)n(C)c(=O)c2c1nc(C=Cc1cccc(-n3cncn3)n1)n2C (optimized conformer: 133.44239471155657 kcal/mol)

>  <smiles>  (1) 
CCCn1c(=O)n(C)c(=O)c2c1nc(C=Cc1cccc(-n3cncn3)n1)n2C

>  <score_type>  (1) 
oracle

>  <origin>  (1) 
adg

>  <m_score__min__energy>  (1) 
-8.4199999999999999

>  <m_primary>  (1) 
energy

$$$$
1:0
     RDKit          3D

 57 61  0  0  0  0  0  0  0  0999 V2000
   -5.6970   17.7010  -34.7250 C   0  0  0  0  0  0  0  0  0  0  0  0
   -6.4250   16.8340  -33.7000 C   0  0  0  0  0  0  0  0  0  0  0  0
   -6.0120   17.1350  -32.2530 C   0  0  0  0  0  0  0  0  0  0  0  0
   -6.8510   18.2170  -31.6820 N   0  0  0  0  0  0  0  0  0  0  0  0
   -6.3900   19.5780  -32.0690 C   0  0  0  0  0  0  0  0  0  0  0  0
   -7.3180   20.2460  -33.0970 C   0  0  0  0  0  0  0  0  0  0  0  0
   -8.7110   20.3680  -32.5990 N   0  0  0  0  0  0  0  0  0  0  0  0
   -8.9480   21.6910  -31.9790 C   0  0  0  0  0  0  0  0  0  0  0  0
   -7.7260   22.1550  -31.1670 C   0  0  0  0  0  0  0  0  0  0  0  0
   -7.0440   23.3820  -31.7920 C   0  0  0  0  0  0  0  0  0  0  0  0
   -5.7280   23.6330  -31.1780 N   0  0  0  0  0  0  0  0  0  0  0  0
   -5.6050   24.6700  -30.2950 C   0  0  0  0  0  0  0  0  0  0  0  0
   -4.4230   24.9180  -29.6760 N   0  0  0  0  0  0  0  0  0  0  0  0
   -3.3320   24.1490  -29.9090 C   0  0  0  0  0  0  0  0  0  0  0  0
   -3.4160   23.0720  -30.8120 C   0  0  0  0  0  0  0  0  0  0  0  0
   -2.2740   22.2790  -31.0380 C   0  0  0  0  0  0  0  0  0  0  0  0
   -1.1110   22.5530  -30.3880 N   0  0  0  0  0  0  0  0  0  0  0  0
   -1.0120   23.5880  -29.5130 C   0  0  0  0  0  0  0  0  0  0  0  0
    0.1550   23.8420  -28.8720 N   0  0  0  0  0  0  0  0  0  0  0  0
    0.2550   24.8550  -28.0090 N   0  0  0  0  0  0  0  0  0  0  0  0
   -0.8100   25.6630  -27.7470 C   0  0  0  0  0  0  0  0  0  0  0  0
   -0.6780   26.7690  -26.7930 C   0  0  0  0  0  0  0  0  0  0  0  0
   -0.1630   27.9760  -27.1140 N   0  0  0  0  0  0  0  0  0  0  0  0
   -0.1480   28.8220  -26.0500 C   0  0  0  0  0  0  0  0  0  0  0  0
   -0.6550   28.2950  -24.8690 C   0  0  0  0  0  0  0  0  0  0  0  0
   -1.1330   26.7110  -25.1730 S   0  0  0  0  0  0  0  0  0  0  0  0
   -1.9940   25.4350  -28.3730 N   0  0  0  0  0  0  0  0  0  0  0  0
   -2.1210   24.4090  -29.2560 C   0  0  0  0  0  0  0  0  0  0  0  0
   -4.6460   22.8300  -31.4460 C   0  0  0  0  0  0  0  0  0  0  0  0
   -4.7530   21.8670  -32.2570 O   0  0  0  0  0  0  0  0  0  0  0  0
   -9.1040   19.2580  -31.6910 C   0  0  0  0  0  0  0  0  0  0  0  0
   -8.2880   17.9870  -31.9520 C   0  0  0  0  0  0  0  0  0  0  0  0
   -5.0746   18.4422  -34.2023 H   0  0  0  0  0  0  0  0  0  0  0  0
   -5.0582   17.0651  -35.3555 H   0  0  0  0  0  0  0  0  0  0  0  0
   -6.4338   18.2202  -35.3555 H   0  0  0  0  0  0  0  0  0  0  0  0
   -7.5065   17.0092  -33.7988 H   0  0  0  0  0  0  0  0  0  0  0  0
   -6.1560   15.7876  -33.9063 H   0  0  0  0  0  0  0  0  0  0  0  0
   -6.1336   16.2256  -31.6463 H   0  0  0  0  0  0  0  0  0  0  0  0
   -4.9615   17.4612  -32.2459 H   0  0  0  0  0  0  0  0  0  0  0  0
   -6.3522   20.2069  -31.1673 H   0  0  0  0  0  0  0  0  0  0  0  0
   -5.3980   19.4746  -32.5330 H   0  0  0  0  0  0  0  0  0  0  0  0
   -6.9326   21.2516  -33.3213 H   0  0  0  0  0  0  0  0  0  0  0  0
   -7.3353   19.6139  -33.9971 H   0  0  0  0  0  0  0  0  0  0  0  0
   -9.1521   22.4265  -32.7711 H   0  0  0  0  0  0  0  0  0  0  0  0
   -9.8064   21.6057  -31.2964 H   0  0  0  0  0  0  0  0  0  0  0  0
   -8.0543   22.4126  -30.1492 H   0  0  0  0  0  0  0  0  0  0  0  0
   -6.9959   21.3323  -31.1567 H   0  0  0  0  0  0  0  0  0  0  0  0
   -6.9093   23.2071  -32.8696 H   0  0  0  0  0  0  0  0  0  0  0  0
   -7.6822   24.2608  -31.6175 H   0  0  0  0  0  0  0  0  0  0  0  0
   -6.4741   25.3105  -30.0841 H   0  0  0  0  0  0  0  0  0  0  0  0
   -2.3229   21.4355  -31.7424 H   0  0  0  0  0  0  0  0  0  0  0  0
    0.2378   29.8498  -26.1193 H   0  0  0  0  0  0  0  0  0  0  0  0
   -0.7306   28.8204  -23.9056 H   0  0  0  0  0  0  0  0  0  0  0  0
   -8.9427   19.5762  -30.6505 H   0  0  0  0  0  0  0  0  0  0  0  0
  -10.1632   19.0260  -31.8763 H   0  0  0  0  0  0  0  0  0  0  0  0
   -8.6536   17.1833  -31.2959 H   0  0  0  0  0  0  0  0  0  0  0  0
   -8.4062   17.7043  -33.0085 H   0  0  0  0  0  0  0  0  0  0  0  0
  1  2  1  0
  2  3  1  0
  3  4  1  0
  4  5  1  0
  5  6  1  0
  6  7  1  0
  7  8  1  0
  8  9  1  0
  9 10  1  0
 10 11  1  0
 11 12  1  0
 12 13  2  0
 13 14  1  0
 14 15  2  0
 15 16  1  0
 16 17  2  0
 17 18  1  0
 18 19  2  0
 19 20  1  0
 20 21  2  0
 21 22  1  0
 22 23  2  0
 23 24  1  0
 24 25  2  0
 25 26  1  0
 21 27  1  0
 27 28  2  0
 15 29  1  0
 29 30  2  0
  7 31  1  0
 31 32  1  0
 32  4  1  0
 29 11  1  0
 28 14  1  0
 28 18  1  0
 26 22  1  0
  1 33  1  0
  1 34  1  0
  1 35  1  0
  2 36  1  0
  2 37  1  0
  3 38  1  0
  3 39  1  0
  5 40  1  0
  5 41  1  0
  6 42  1  0
  6 43  1  0
  8 44  1  0
  8 45  1  0
  9 46  1  0
  9 47  1  0
 10 48  1  0
 10 49  1  0
 12 50  1  0
 16 51  1  0
 24 52  1  0
 25 53  1  0
 31 54  1  0
 31 55  1  0
 32 56  1  0
 32 57  1  0
M  END
>  <UniqueID>  (2) 
2

>  <SMILES>  (2) 
CCCN1CCN(CCCn2cnc3c(cnc4nnc(-c5nccs5)nc43)c2=O)CC1

>  <Energy>  (2) 
110.46147630966169

>  <Genealogy>  (2) 
CCCN1CCN(CCCn2cnc3c(cnc4nnc(-c5nccs5)nc43)c2=O)CC1 (3D coordinates assigned)
CCCN1CCN(CCCn2cnc3c(cnc4nnc(-c5nccs5)nc43)c2=O)CC1 (nonaromatic ring conformer: 110.46147630966169 kcal/mol)

>  <smiles>  (2) 
CCCN1CCN(CCCn2cnc3c(cnc4nnc(-c5nccs5)nc43)c2=O)CC1

>  <score_type>  (2) 
oracle

>  <origin>  (2) 
adg

>  <m_score__min__energy>  (2) 
-10.119999999999999

>  <m_primary>  (2) 
energy

$$$$
2:0
     RDKit          3D

 15 15  0  0  0  0  0  0  0  0999 V2000
   -3.6100   22.6710  -31.6220 C   0  0  0  0  0  0  0  0  0  0  0  0
   -4.8320   23.3830  -31.1150 C   0  0  0  0  0  0  0  0  0  0  0  0
   -6.0950   22.7700  -31.1900 C   0  0  0  0  0  0  0  0  0  0  0  0
   -7.2300   23.4350  -30.7170 C   0  0  0  0  0  0  0  0  0  0  0  0
   -7.1160   24.7130  -30.1680 C   0  0  0  0  0  0  0  0  0  0  0  0
   -5.8650   25.3310  -30.0900 C   0  0  0  0  0  0  0  0  0  0  0  0
   -4.7230   24.6720  -30.5600 C   0  0  0  0  0  0  0  0  0  0  0  0
   -3.4860   25.3020  -30.4740 O   0  0  0  0  0  0  0  0  0  0  0  0
   -3.0094   22.3211  -30.7695 H   0  0  0  0  0  0  0  0  0  0  0  0
   -3.9151   21.8093  -32.2339 H   0  0  0  0  0  0  0  0  0  0  0  0
   -3.0108   23.3614  -32.2339 H   0  0  0  0  0  0  0  0  0  0  0  0
   -6.1905   21.7631  -31.6226 H   0  0  0  0  0  0  0  0  0  0  0  0
   -8.2153   22.9498  -30.7777 H   0  0  0  0  0  0  0  0  0  0  0  0
   -8.0109   25.2339  -29.7967 H   0  0  0  0  0  0  0  0  0  0  0  0
   -5.7775   26.3387  -29.6578 H   0  0  0  0  0  0  0  0  0  0  0  0
  1  2  1  0
  2  3  2  0
  3  4  1  0
  4  5  2  0
  5  6  1  0
  6  7  2  0
  7  8  1  0
  7  2  1  0
  1  9  1  0
  1 10  1  0
  1 11  1  0
  3 12  1  0
  4 13  1  0
  5 14  1  0
  6 15  1  0
M  CHG  1   8  -1
M  END
>  <UniqueID>  (3) 
3

>  <SMILES>  (3) 
Cc1ccccc1[O-]

>  <Energy>  (3) 
13.370399492830886

>  <Genealogy>  (3) 
Cc1ccccc1[O-] (protonated)
Cc1ccccc1[O-] (3D coordinates assigned)
Cc1ccccc1[O-] (optimized conformer: 13.370399492830886 kcal/mol)

>  <smiles>  (3) 
Cc1ccccc1O

>  <score_type>  (3) 
oracle

>  <origin>  (3) 
adg

>  <m_score__min__energy>  (3) 
-7.3499999999999996

>  <m_primary>  (3) 
energy

$$$$
3:0
     RDKit          3D

 56 58  0  0  0  0  0  0  0  0999 V2000
    1.1130   23.4240  -27.1110 C   0  0  0  0  0  0  0  0  0  0  0  0
    1.7060   24.7750  -26.7280 C   0  0  0  0  0  0  0  0  0  0  0  0
    1.0860   25.8090  -27.4680 O   0  0  0  0  0  0  0  0  0  0  0  0
    0.7880   26.9180  -26.6400 C   0  0  2  0  0  0  0  0  0  0  0  0
    0.3620   26.3950  -25.2610 C   0  0  0  0  0  0  0  0  0  0  0  0
   -1.1130   26.7010  -24.9670 C   0  0  0  0  0  0  0  0  0  0  0  0
   -1.9210   25.5480  -25.2020 O   0  0  0  0  0  0  0  0  0  0  0  0
   -2.4840   25.1840  -26.4380 C   0  0  0  0  0  0  0  0  0  0  0  0
   -3.8560   24.9160  -26.4840 C   0  0  0  0  0  0  0  0  0  0  0  0
   -4.4700   24.5460  -27.6840 C   0  0  0  0  0  0  0  0  0  0  0  0
   -3.7180   24.4470  -28.8660 C   0  0  0  0  0  0  0  0  0  0  0  0
   -4.3460   24.0510  -30.1000 N   0  0  0  0  0  0  0  0  0  0  0  0
   -5.5740   24.7340  -30.5420 C   0  0  0  0  0  0  0  0  0  0  0  0
   -6.2220   24.0080  -31.7270 C   0  0  0  0  0  0  0  0  0  0  0  0
   -6.2030   22.5570  -31.4960 N   0  0  0  0  0  0  0  0  0  0  0  0
   -7.4410   21.8360  -31.3850 C   0  0  0  0  0  0  0  0  0  0  0  0
   -8.4050   22.3470  -30.7550 O   0  0  0  0  0  0  0  0  0  0  0  0
   -7.6150   20.5010  -31.9820 C   0  0  0  0  0  0  0  0  0  0  0  0
   -8.7360   19.6960  -31.8900 C   0  0  0  0  0  0  0  0  0  0  0  0
   -8.4250   18.5420  -32.5770 C   0  0  0  0  0  0  0  0  0  0  0  0
   -7.1360   18.7140  -33.0370 C   0  0  0  0  0  0  0  0  0  0  0  0
   -6.1450   17.4460  -34.0570 Br  0  0  0  0  0  0  0  0  0  0  0  0
   -6.6760   19.8860  -32.6660 O   0  0  0  0  0  0  0  0  0  0  0  0
   -4.9420   21.8970  -31.1120 C   0  0  0  0  0  0  0  0  0  0  0  0
   -3.8240   22.9200  -30.8790 C   0  0  0  0  0  0  0  0  0  0  0  0
   -2.3410   24.7180  -28.8220 C   0  0  0  0  0  0  0  0  0  0  0  0
   -1.7270   25.0860  -27.6210 C   0  0  0  0  0  0  0  0  0  0  0  0
   -0.2980   27.6320  -27.2120 O   0  0  0  0  0  0  0  0  0  0  0  0
   -0.1110   29.0240  -27.0700 C   0  0  0  0  0  0  0  0  0  0  0  0
    0.8656   22.8604  -26.1993 H   0  0  0  0  0  0  0  0  0  0  0  0
    0.2003   23.5793  -27.7050 H   0  0  0  0  0  0  0  0  0  0  0  0
    1.8451   22.8573  -27.7050 H   0  0  0  0  0  0  0  0  0  0  0  0
    1.5458   24.9507  -25.6540 H   0  0  0  0  0  0  0  0  0  0  0  0
    2.7830   24.7702  -26.9516 H   0  0  0  0  0  0  0  0  0  0  0  0
    1.6661   27.5738  -26.5456 H   0  0  0  0  0  0  0  0  0  0  0  0
    0.5127   25.3058  -25.2310 H   0  0  0  0  0  0  0  0  0  0  0  0
    0.9746   26.8996  -24.4994 H   0  0  0  0  0  0  0  0  0  0  0  0
   -1.2163   27.0068  -23.9154 H   0  0  0  0  0  0  0  0  0  0  0  0
   -1.4472   27.5104  -25.6328 H   0  0  0  0  0  0  0  0  0  0  0  0
   -4.4578   24.9972  -25.5668 H   0  0  0  0  0  0  0  0  0  0  0  0
   -5.5486   24.3311  -27.7027 H   0  0  0  0  0  0  0  0  0  0  0  0
   -6.2882   24.7629  -29.7059 H   0  0  0  0  0  0  0  0  0  0  0  0
   -5.3078   25.7519  -30.8631 H   0  0  0  0  0  0  0  0  0  0  0  0
   -7.2629   24.3462  -31.8368 H   0  0  0  0  0  0  0  0  0  0  0  0
   -5.6581   24.2361  -32.6435 H   0  0  0  0  0  0  0  0  0  0  0  0
   -9.6800   19.9284  -31.3753 H   0  0  0  0  0  0  0  0  0  0  0  0
   -9.0715   17.6648  -32.7274 H   0  0  0  0  0  0  0  0  0  0  0  0
   -5.1042   21.3267  -30.1855 H   0  0  0  0  0  0  0  0  0  0  0  0
   -4.6362   21.2305  -31.9319 H   0  0  0  0  0  0  0  0  0  0  0  0
   -3.0010   22.4435  -30.3262 H   0  0  0  0  0  0  0  0  0  0  0  0
   -3.4537   23.2840  -31.8487 H   0  0  0  0  0  0  0  0  0  0  0  0
   -1.7402   24.6401  -29.7402 H   0  0  0  0  0  0  0  0  0  0  0  0
   -0.6482   25.2998  -27.6003 H   0  0  0  0  0  0  0  0  0  0  0  0
   -0.0763   29.2822  -26.0013 H   0  0  0  0  0  0  0  0  0  0  0  0
    0.8347   29.3177  -27.5490 H   0  0  0  0  0  0  0  0  0  0  0  0
   -0.9456   29.5568  -27.5490 H   0  0  0  0  0  0  0  0  0  0  0  0
  1  2  1  0
  2  3  1  0
  3  4  1  0
  4  5  1  0
  5  6  1  0
  6  7  1  0
  7  8  1  0
  8  9  2  0
  9 10  1  0
 10 11  2  0
 11 12  1  0
 12 13  1  0
 13 14  1  0
 14 15  1  0
 15 16  1  0
 16 17  2  0
 16 18  1  0
 18 19  2  0
 19 20  1  0
 20 21  2  0
 21 22  1  0
 21 23  1  0
 15 24  1  0
 24 25  1  0
 11 26  1  0
 26 27  2  0
  4 28  1  0
 28 29  1  0
 27  8  1  0
 25 12  1  0
 23 18  1  0
  1 30  1  0
  1 31  1  0
  1 32  1  0
  2 33  1  0
  2 34  1  0
  4 35  1  1
  5 36  1  0
  5 37  1  0
  6 38  1  0
  6 39  1  0
  9 40  1  0
 10 41  1  0
 13 42  1  0
 13 43  1  0
 14 44  1  0
 14 45  1  0
 19 46  1  0
 20 47  1  0
 24 48  1  0
 24 49  1  0
 25 50  1  0
 25 51  1  0
 26 52  1  0
 27 53  1  0
 29 54  1  0
 29 55  1  0
 29 56  1  0
M  END
>  <UniqueID>  (4) 
4

>  <SMILES>  (4) 
CCO[C@H](CCOc1ccc(N2CCN(C(=O)c3ccc(Br)o3)CC2)cc1)OC

>  <Energy>  (4) 
90.32687204232299

>  <Genealogy>  (4) 
CCO[C@H](CCOc1ccc(N2CCN(C(=O)c3ccc(Br)o3)CC2)cc1)OC (chirality)
CCO[C@H](CCOc1ccc(N2CCN(C(=O)c3ccc(Br)o3)CC2)cc1)OC (3D coordinates assigned)
CCO[C@H](CCOc1ccc(N2CCN(C(=O)c3ccc(Br)o3)CC2)cc1)OC (nonaromatic ring conformer: 90.32687204232299 kcal/mol)

>  <smiles>  (4) 
CCOC(CCOc1ccc(N2CCN(C(=O)c3ccc(Br)o3)CC2)cc1)OC

>  <score_type>  (4) 
oracle

>  <origin>  (4) 
adg

>  <m_score__min__energy>  (4) 
-7.5099999999999998

>  <m_primary>  (4) 
energy

$$$$
4:0
     RDKit          3D

 32 31  0  0  0  0  0  0  0  0999 V2000
   -8.8600   21.8440  -31.5900 C   0  0  0  0  0  0  0  0  0  0  0  0
   -8.0320   23.0780  -31.9450 C   0  0  0  0  0  0  0  0  0  0  0  0
   -6.5620   22.9600  -31.5050 C   0  0  0  0  0  0  0  0  0  0  0  0
   -5.7760   24.2780  -31.5720 C   0  0  0  0  0  0  0  0  0  0  0  0
   -4.8670   24.4550  -30.3950 C   0  0  0  0  0  0  0  0  0  0  0  0
   -3.8660   25.2160  -30.4830 O   0  0  0  0  0  0  0  0  0  0  0  0
   -5.1530   23.7880  -29.1990 O   0  0  0  0  0  0  0  0  0  0  0  0
   -4.3930   22.6770  -28.7370 C   0  0  0  0  0  0  0  0  0  0  0  0
   -3.3240   23.1410  -27.7350 C   0  0  0  0  0  0  0  0  0  0  0  0
   -3.3690   24.5990  -27.4680 N   0  0  0  0  0  0  0  0  0  0  0  0
   -4.2170   24.9210  -26.3050 C   0  0  0  0  0  0  0  0  0  0  0  0
   -2.0030   25.1040  -27.2370 C   0  0  0  0  0  0  0  0  0  0  0  0
   -8.9244   21.7480  -30.4961 H   0  0  0  0  0  0  0  0  0  0  0  0
   -9.8717   21.9482  -32.0092 H   0  0  0  0  0  0  0  0  0  0  0  0
   -8.3800   20.9474  -32.0092 H   0  0  0  0  0  0  0  0  0  0  0  0
   -8.0617   23.2187  -33.0356 H   0  0  0  0  0  0  0  0  0  0  0  0
   -8.4690   23.9338  -31.4097 H   0  0  0  0  0  0  0  0  0  0  0  0
   -6.5409   22.5984  -30.4663 H   0  0  0  0  0  0  0  0  0  0  0  0
   -6.0767   22.2670  -32.2080 H   0  0  0  0  0  0  0  0  0  0  0  0
   -5.1711   24.2834  -32.4907 H   0  0  0  0  0  0  0  0  0  0  0  0
   -6.5017   25.1047  -31.5656 H   0  0  0  0  0  0  0  0  0  0  0  0
   -5.0642   21.9580  -28.2445 H   0  0  0  0  0  0  0  0  0  0  0  0
   -3.8960   22.2018  -29.5956 H   0  0  0  0  0  0  0  0  0  0  0  0
   -3.4786   22.6066  -26.7860 H   0  0  0  0  0  0  0  0  0  0  0  0
   -2.3418   22.9194  -28.1780 H   0  0  0  0  0  0  0  0  0  0  0  0
   -3.7520   25.0930  -28.3090 H   0  0  0  0  0  0  0  0  0  0  0  0
   -3.6633   24.7108  -25.3781 H   0  0  0  0  0  0  0  0  0  0  0  0
   -4.4912   25.9858  -26.3348 H   0  0  0  0  0  0  0  0  0  0  0  0
   -5.1289   24.3065  -26.3348 H   0  0  0  0  0  0  0  0  0  0  0  0
   -1.8157   25.1732  -26.1553 H   0  0  0  0  0  0  0  0  0  0  0  0
   -1.2757   24.4153  -27.6917 H   0  0  0  0  0  0  0  0  0  0  0  0
   -1.8986   26.1002  -27.6917 H   0  0  0  0  0  0  0  0  0  0  0  0
  1  2  1  0
  2  3  1  0
  3  4  1  0
  4  5  1  0
  5  6  2  0
  5  7  1  0
  7  8  1  0
  8  9  1  0
  9 10  1  0
 10 11  1  0
 10 12  1  0
  1 13  1  0
  1 14  1  0
  1 15  1  0
  2 16  1  0
  2 17  1  0
  3 18  1  0
  3 19  1  0
  4 20  1  0
  4 21  1  0
  8 22  1  0
  8 23  1  0
  9 24  1  0
  9 25  1  0
 10 26  1  0
 11 27  1  0
 11 28  1  0
 11 29  1  0
 12 30  1  0
 12 31  1  0
 12 32  1  0
M  CHG  1  10   1
M  END
>  <UniqueID>  (5) 
5

>  <SMILES>  (5) 
CCCCC(=O)OCC[NH+](C)C

>  <Energy>  (5) 
17.330492629572852

>  <Genealogy>  (5) 
CCCCC(=O)OCC[NH+](C)C (protonated)
CCCCC(=O)OCC[NH+](C)C (3D coordinates assigned)
CCCCC(=O)OCC[NH+](C)C (optimized conformer: 17.330492629572852 kcal/mol)

>  <smiles>  (5) 
CCCCC(=O)OCCN(C)C

>  <score_type>  (5) 
oracle

>  <origin>  (5) 
adg

>  <m_score__min__energy>  (5) 
-3.6600000000000001

>  <m_primary>  (5) 
energy

$$$$
5:0
     RDKit          3D

 36 38  0  0  0  0  0  0  0  0999 V2000
   -4.5880   20.4730  -33.3480 C   0  0  0  0  0  0  0  0  0  0  0  0
   -5.9360   20.8470  -32.8070 C   0  0  0  0  0  0  0  0  0  0  0  0
   -7.0540   20.0080  -32.9800 C   0  0  0  0  0  0  0  0  0  0  0  0
   -8.2830   20.3850  -32.4920 N   0  0  0  0  0  0  0  0  0  0  0  0
   -9.4430   19.5190  -32.7070 C   0  0  0  0  0  0  0  0  0  0  0  0
   -8.4470   21.5950  -31.8700 C   0  0  0  0  0  0  0  0  0  0  0  0
   -7.3350   22.4170  -31.7220 C   0  0  0  0  0  0  0  0  0  0  0  0
   -7.2330   23.6620  -31.1440 C   0  0  0  0  0  0  0  0  0  0  0  0
   -5.8860   23.9750  -31.3040 C   0  0  0  0  0  0  0  0  0  0  0  0
   -5.2250   25.2330  -30.8350 C   0  0  0  0  0  0  0  0  0  0  0  0
   -3.8320   24.9730  -30.4690 N   0  0  0  0  0  0  0  0  0  0  0  0
   -3.3930   23.8470  -29.6850 C   0  0  0  0  0  0  0  0  0  0  0  0
   -4.0010   23.5990  -28.4420 C   0  0  0  0  0  0  0  0  0  0  0  0
   -3.6000   22.5130  -27.6590 C   0  0  0  0  0  0  0  0  0  0  0  0
   -2.5880   21.6610  -28.1080 C   0  0  0  0  0  0  0  0  0  0  0  0
   -1.9730   21.8980  -29.3380 C   0  0  0  0  0  0  0  0  0  0  0  0
   -2.3680   22.9840  -30.1250 C   0  0  0  0  0  0  0  0  0  0  0  0
   -5.2360   22.9730  -31.9400 N   0  0  0  0  0  0  0  0  0  0  0  0
   -6.1380   22.0370  -32.1820 N   0  0  0  0  0  0  0  0  0  0  0  0
   -3.8980   20.2816  -32.5130 H   0  0  0  0  0  0  0  0  0  0  0  0
   -4.6788   19.5661  -33.9639 H   0  0  0  0  0  0  0  0  0  0  0  0
   -4.1986   21.2970  -33.9639 H   0  0  0  0  0  0  0  0  0  0  0  0
   -6.9437   19.0487  -33.5069 H   0  0  0  0  0  0  0  0  0  0  0  0
   -9.8557   19.2109  -31.7350 H   0  0  0  0  0  0  0  0  0  0  0  0
  -10.2099   20.0673  -33.2738 H   0  0  0  0  0  0  0  0  0  0  0  0
   -9.1353   18.6279  -33.2738 H   0  0  0  0  0  0  0  0  0  0  0  0
   -9.4333   21.9082  -31.4972 H   0  0  0  0  0  0  0  0  0  0  0  0
   -8.0234   24.2632  -30.6709 H   0  0  0  0  0  0  0  0  0  0  0  0
   -5.2541   25.9800  -31.6419 H   0  0  0  0  0  0  0  0  0  0  0  0
   -5.7613   25.6091  -29.9513 H   0  0  0  0  0  0  0  0  0  0  0  0
   -3.1210   25.6730  -30.7780 H   0  0  0  0  0  0  0  0  0  0  0  0
   -4.7991   24.2653  -28.0826 H   0  0  0  0  0  0  0  0  0  0  0  0
   -4.0820   22.3288  -26.6876 H   0  0  0  0  0  0  0  0  0  0  0  0
   -2.2763   20.8042  -27.4926 H   0  0  0  0  0  0  0  0  0  0  0  0
   -1.1746   21.2280  -29.6896 H   0  0  0  0  0  0  0  0  0  0  0  0
   -1.8768   23.1662  -31.0922 H   0  0  0  0  0  0  0  0  0  0  0  0
  1  2  1  0
  2  3  2  0
  3  4  1  0
  4  5  1  0
  4  6  2  0
  6  7  1  0
  7  8  2  0
  8  9  1  0
  9 10  1  0
 10 11  1  0
 11 12  1  0
 12 13  2  0
 13 14  1  0
 14 15  2  0
 15 16  1  0
 16 17  2  0
  9 18  2  0
 18 19  1  0
 19  2  1  0
 19  7  1  0
 17 12  1  0
  1 20  1  0
  1 21  1  0
  1 22  1  0
  3 23  1  0
  5 24  1  0
  5 25  1  0
  5 26  1  0
  6 27  1  0
  8 28  1  0
 10 29  1  0
 10 30  1  0
 11 31  1  0
 13 32  1  0
 14 33  1  0
 15 34  1  0
 16 35  1  0
 17 36  1  0
M  CHG  1   4   1
M  END
>  <UniqueID>  (6) 
6

>  <SMILES>  (6) 
Cc1c[n+](C)cc2cc(CNc3ccccc3)nn12

>  <Energy>  (6) 
71.99013690815885

>  <Genealogy>  (6) 
Cc1c[n+](C)cc2cc(CNc3ccccc3)nn12 (3D coordinates assigned)
Cc1c[n+](C)cc2cc(CNc3ccccc3)nn12 (optimized conformer: 71.99013690815885 kcal/mol)

>  <smiles>  (6) 
Cc1c[n+](C)cc2cc(CNc3ccccc3)nn12

>  <score_type>  (6) 
oracle

>  <origin>  (6) 
adg

>  <m_score__min__energy>  (6) 
-7.04

>  <m_primary>  (6) 
energy

$$$$
6:0
     RDKit          3D

 30 31  0  0  0  0  0  0  0  0999 V2000
   -7.8912   21.3808  -33.2779 H   0  0  0  0  0  0  0  0  0  0  0  0
   -7.6460   21.9060  -32.3430 C   0  0  0  0  0  0  0  0  0  0  0  0
   -6.7690   23.3370  -32.2170 S   0  0  0  0  0  0  0  0  0  0  0  0
   -6.8320   23.4410  -30.5400 C   0  0  0  0  0  0  0  0  0  0  0  0
   -6.2760   24.5650  -29.7200 C   0  0  0  0  0  0  0  0  0  0  0  0
   -5.4639   24.1785  -29.0867 H   0  0  0  0  0  0  0  0  0  0  0  0
   -7.0878   24.9789  -29.1038 H   0  0  0  0  0  0  0  0  0  0  0  0
   -5.7270   25.6820  -30.6060 C   0  0  0  0  0  0  0  0  0  0  0  0
   -6.0617   26.6540  -30.2146 H   0  0  0  0  0  0  0  0  0  0  0  0
   -6.0988   25.5420  -31.6317 H   0  0  0  0  0  0  0  0  0  0  0  0
   -4.2660   25.6440  -30.6190 N   0  0  0  0  0  0  0  0  0  0  0  0
   -3.5640   24.5630  -30.4620 C   0  0  0  0  0  0  0  0  0  0  0  0
   -2.5850   24.5340  -29.5210 N   0  0  0  0  0  0  0  0  0  0  0  0
   -1.8270   23.4230  -29.3240 C   0  0  0  0  0  0  0  0  0  0  0  0
   -0.7580   23.4230  -28.2790 C   0  0  0  0  0  0  0  0  0  0  0  0
   -0.4958   22.3859  -28.0227 H   0  0  0  0  0  0  0  0  0  0  0  0
    0.1320   23.9415  -28.6649 H   0  0  0  0  0  0  0  0  0  0  0  0
   -1.1236   23.9415  -27.3804 H   0  0  0  0  0  0  0  0  0  0  0  0
   -2.0570   22.2840  -30.1010 C   0  0  0  0  0  0  0  0  0  0  0  0
   -1.4555   21.3747  -29.9548 H   0  0  0  0  0  0  0  0  0  0  0  0
   -3.0680   22.3230  -31.0690 C   0  0  0  0  0  0  0  0  0  0  0  0
   -3.3480   21.1230  -31.9250 C   0  0  0  0  0  0  0  0  0  0  0  0
   -2.1940   20.3830  -32.1180 F   0  0  0  0  0  0  0  0  0  0  0  0
   -4.2940   20.3230  -31.3110 F   0  0  0  0  0  0  0  0  0  0  0  0
   -3.8280   21.5320  -33.1560 F   0  0  0  0  0  0  0  0  0  0  0  0
   -3.7970   23.4600  -31.2270 N   0  0  0  0  0  0  0  0  0  0  0  0
   -7.5590   22.3620  -30.0540 C   0  0  0  0  0  0  0  0  0  0  0  0
   -7.7620   22.1997  -28.9851 H   0  0  0  0  0  0  0  0  0  0  0  0
   -8.0070   21.5020  -31.0640 C   0  0  0  0  0  0  0  0  0  0  0  0
   -8.5904   20.5913  -30.8633 H   0  0  0  0  0  0  0  0  0  0  0  0
  1  2  1  0
  2  3  1  0
  3  4  1  0
  4  5  1  0
  5  6  1  0
  5  7  1  0
  5  8  1  0
  8  9  1  0
  8 10  1  0
  8 11  1  0
 11 12  2  0
 12 13  1  0
 13 14  2  0
 14 15  1  0
 15 16  1  0
 15 17  1  0
 15 18  1  0
 14 19  1  0
 19 20  1  0
 19 21  2  0
 21 22  1  0
 22 23  1  0
 22 24  1  0
 22 25  1  0
 21 26  1  0
  4 27  2  0
 27 28  1  0
 27 29  1  0
 29 30  1  0
 29  2  2  0
 26 12  1  0
M  CHG  1  26  -1
M  END
>  <UniqueID>  (7) 
7

>  <SMILES>  (7) 
Cc1cc(C(F)(F)F)[n-]/c(=N\CCc2cccs2)n1

>  <Energy>  (7) 
50.574852793299996

>  <Genealogy>  (7) 
Cc1cc(C(F)(F)F)[n-]c(=NCCc2cccs2)n1 (protonated)
Cc1cc(C(F)(F)F)[n-]/c(=N\CCc2cccs2)n1 (cis-trans isomerization)
Cc1cc(C(F)(F)F)[n-]/c(=N\CCc2cccs2)n1 (3D coordinates assigned)
Cc1cc(C(F)(F)F)[n-]/c(=N\CCc2cccs2)n1 (optimized conformer: 50.574852793299996 kcal/mol)

>  <smiles>  (7) 
Cc1cc(C(F)(F)F)[nH]c(=NCCc2cccs2)n1

>  <score_type>  (7) 
oracle

>  <origin>  (7) 
adg

>  <m_score__min__energy>  (7) 
-7.3200000000000003

>  <m_primary>  (7) 
energy

$$$$
7:0
     RDKit          3D

 44 46  0  0  0  0  0  0  0  0999 V2000
   -4.8170   17.1650  -34.9190 C   0  0  0  0  0  0  0  0  0  0  0  0
   -5.2350   18.6010  -34.5570 C   0  0  0  0  0  0  0  0  0  0  0  0
   -4.2620   19.1030  -33.5670 C   0  0  0  0  0  0  0  0  0  0  0  0
   -4.7040   20.2070  -32.7320 N   0  0  0  0  0  0  0  0  0  0  0  0
   -3.6180   21.0870  -32.6370 C   0  0  0  0  0  0  0  0  0  0  0  0
   -3.4750   21.9910  -31.5110 C   0  0  0  0  0  0  0  0  0  0  0  0
   -3.7480   23.2940  -31.5250 N   0  0  0  0  0  0  0  0  0  0  0  0
   -3.5990   24.0870  -30.4470 C   0  0  0  0  0  0  0  0  0  0  0  0
   -3.8580   25.3040  -30.4730 O   0  0  0  0  0  0  0  0  0  0  0  0
   -3.1460   23.5620  -29.2500 C   0  0  0  0  0  0  0  0  0  0  0  0
   -2.8760   24.0150  -27.9900 C   0  0  0  0  0  0  0  0  0  0  0  0
   -2.4550   22.9850  -27.2650 N   0  0  0  0  0  0  0  0  0  0  0  0
   -2.4320   21.8630  -27.9870 N   0  0  0  0  0  0  0  0  0  0  0  0
   -2.0330   20.5280  -27.5560 C   0  0  0  0  0  0  0  0  0  0  0  0
   -2.8600   22.2050  -29.2270 C   0  0  0  0  0  0  0  0  0  0  0  0
   -3.0300   21.4780  -30.3360 N   0  0  0  0  0  0  0  0  0  0  0  0
   -5.6150   19.9590  -31.7290 C   0  0  0  0  0  0  0  0  0  0  0  0
   -7.0670   20.0600  -31.9190 C   0  0  0  0  0  0  0  0  0  0  0  0
   -7.9150   19.0390  -32.2460 C   0  0  0  0  0  0  0  0  0  0  0  0
   -7.3250   17.4110  -32.4350 Cl  0  0  0  0  0  0  0  0  0  0  0  0
   -9.2860   19.2280  -32.4590 C   0  0  0  0  0  0  0  0  0  0  0  0
   -9.8550   20.4770  -32.3460 C   0  0  0  0  0  0  0  0  0  0  0  0
   -9.0160   21.5180  -32.0170 C   0  0  0  0  0  0  0  0  0  0  0  0
   -7.6730   21.3260  -31.8100 C   0  0  0  0  0  0  0  0  0  0  0  0
   -6.7180   22.7530  -31.4200 Cl  0  0  0  0  0  0  0  0  0  0  0  0
   -4.6492   16.5886  -33.9973 H   0  0  0  0  0  0  0  0  0  0  0  0
   -5.6138   16.6889  -35.5093 H   0  0  0  0  0  0  0  0  0  0  0  0
   -3.8891   17.1910  -35.5093 H   0  0  0  0  0  0  0  0  0  0  0  0
   -5.2199   19.2356  -35.4554 H   0  0  0  0  0  0  0  0  0  0  0  0
   -6.2549   18.6185  -34.1453 H   0  0  0  0  0  0  0  0  0  0  0  0
   -3.9969   18.2664  -32.9037 H   0  0  0  0  0  0  0  0  0  0  0  0
   -3.4220   19.4993  -34.1564 H   0  0  0  0  0  0  0  0  0  0  0  0
   -2.7111   20.4647  -32.6534 H   0  0  0  0  0  0  0  0  0  0  0  0
   -3.7967   21.7769  -33.4749 H   0  0  0  0  0  0  0  0  0  0  0  0
   -2.9877   25.0510  -27.6376 H   0  0  0  0  0  0  0  0  0  0  0  0
   -2.0205   20.4860  -26.4569 H   0  0  0  0  0  0  0  0  0  0  0  0
   -2.7493   19.7884  -27.9430 H   0  0  0  0  0  0  0  0  0  0  0  0
   -1.0283   20.3028  -27.9430 H   0  0  0  0  0  0  0  0  0  0  0  0
   -2.8030   20.4610  -30.2740 H   0  0  0  0  0  0  0  0  0  0  0  0
   -5.4249   18.9279  -31.3964 H   0  0  0  0  0  0  0  0  0  0  0  0
   -5.4251   20.8024  -31.0489 H   0  0  0  0  0  0  0  0  0  0  0  0
   -9.9177   18.3663  -32.7204 H   0  0  0  0  0  0  0  0  0  0  0  0
  -10.9309   20.6358  -32.5111 H   0  0  0  0  0  0  0  0  0  0  0  0
   -9.4334   22.5308  -31.9174 H   0  0  0  0  0  0  0  0  0  0  0  0
  1  2  1  0
  2  3  1  0
  3  4  1  0
  4  5  1  0
  5  6  1  0
  6  7  2  0
  7  8  1  0
  8  9  2  0
  8 10  1  0
 10 11  1  0
 11 12  2  0
 12 13  1  0
 13 14  1  0
 13 15  1  0
 15 16  1  0
  4 17  1  0
 17 18  1  0
 18 19  2  0
 19 20  1  0
 19 21  1  0
 21 22  2  0
 22 23  1  0
 23 24  2  0
 24 25  1  0
 16  6  1  0
 24 18  1  0
 15 10  2  0
  1 26  1  0
  1 27  1  0
  1 28  1  0
  2 29  1  0
  2 30  1  0
  3 31  1  0
  3 32  1  0
  5 33  1  0
  5 34  1  0
 11 35  1  0
 14 36  1  0
 14 37  1  0
 14 38  1  0
 16 39  1  0
 17 40  1  0
 17 41  1  0
 21 42  1  0
 22 43  1  0
 23 44  1  0
M  END
>  <smiles>  (8) 
CCCN(Cc1nc(=O)c2cnn(C)c2[nH]1)Cc1c(Cl)cccc1Cl

>  <score_type>  (8) 
oracle

>  <origin>  (8) 
adg

>  <m_score__min__energy>  (8) 
-8.6300000000000008

>  <m_primary>  (8) 
energy

$$$$
8:0
     RDKit          3D

 36 38  0  0  1  0  0  0  0  0999 V2000
   -4.8500   24.5570  -28.4600 N   0  0  0  0  0  0  0  0  0  0  0  0
   -5.3330   25.0560  -30.0620 S   0  0  0  0  0  0  0  0  0  0  0  0
   -4.1990   25.6690  -30.8190 O   0  0  0  0  0  0  0  0  0  0  0  0
   -6.4800   26.0240  -29.8500 O   0  0  0  0  0  0  0  0  0  0  0  0
   -5.9780   23.6280  -30.8390 C   0  0  0  0  0  0  0  0  0  0  0  0
   -7.0650   23.7470  -31.7000 C   0  0  0  0  0  0  0  0  0  0  0  0
   -7.5690   22.6060  -32.3110 C   0  0  0  0  0  0  0  0  0  0  0  0
   -6.9990   21.3590  -32.0690 C   0  0  0  0  0  0  0  0  0  0  0  0
   -7.5730   20.2430  -32.7330 N   0  0  0  0  0  0  0  0  0  0  0  0
   -6.7560   19.3360  -33.1790 C   0  0  0  0  0  0  0  0  0  0  0  0
   -5.4510   19.6170  -33.3480 N   0  0  0  0  0  0  0  0  0  0  0  0
   -4.5950   18.6700  -33.8140 C   0  0  0  0  0  0  0  0  0  0  0  0
   -3.1790   18.9670  -34.0010 C   0  0  0  0  0  0  0  0  0  0  0  0
   -2.6230   20.2050  -33.8010 C   0  0  0  0  0  0  0  0  0  0  0  0
   -1.2760   20.4380  -33.9910 C   0  0  0  0  0  0  0  0  0  0  0  0
   -0.4300   19.4000  -34.3990 C   0  0  0  0  0  0  0  0  0  0  0  0
   -1.0330   18.1710  -34.5860 C   0  0  0  0  0  0  0  0  0  0  0  0
   -2.3610   17.9740  -34.3920 N   0  0  0  0  0  0  0  0  0  0  0  0
   -5.1460   17.4400  -34.0920 C   0  0  0  0  0  0  0  0  0  0  0  0
   -6.4950   17.1600  -33.9130 C   0  0  0  0  0  0  0  0  0  0  0  0
   -7.2990   18.1360  -33.4490 N   0  0  0  0  0  0  0  0  0  0  0  0
   -5.9340   21.2730  -31.2200 C   0  0  0  0  0  0  0  0  0  0  0  0
   -5.4010   22.3900  -30.5900 C   0  0  0  0  0  0  0  0  0  0  0  0
   -4.6380   25.4440  -27.9500 H   0  0  0  0  0  0  0  0  0  0  0  0
   -5.7050   24.1600  -27.9840 H   0  0  0  0  0  0  0  0  0  0  0  0
   -7.5184   24.7303  -31.8938 H   0  0  0  0  0  0  0  0  0  0  0  0
   -8.4278   22.6885  -32.9935 H   0  0  0  0  0  0  0  0  0  0  0  0
   -3.2690   21.0355  -33.4801 H   0  0  0  0  0  0  0  0  0  0  0  0
   -0.8652   21.4442  -33.8210 H   0  0  0  0  0  0  0  0  0  0  0  0
    0.6472   19.5532  -34.5606 H   0  0  0  0  0  0  0  0  0  0  0  0
   -0.4127   17.3201  -34.9042 H   0  0  0  0  0  0  0  0  0  0  0  0
   -4.4896   16.6436  -34.4726 H   0  0  0  0  0  0  0  0  0  0  0  0
   -6.8977   16.1630  -34.1451 H   0  0  0  0  0  0  0  0  0  0  0  0
   -8.3180   17.9610  -33.3020 H   0  0  0  0  0  0  0  0  0  0  0  0
   -5.4835   20.2879  -31.0286 H   0  0  0  0  0  0  0  0  0  0  0  0
   -4.5418   22.2961  -29.9096 H   0  0  0  0  0  0  0  0  0  0  0  0
  1  2  1  0
  2  3  2  0
  2  4  2  0
  2  5  1  0
  5  6  2  0
  6  7  1  0
  7  8  2  0
  8  9  1  0
  9 10  2  0
 10 11  1  0
 11 12  2  0
 12 13  1  0
 13 14  2  0
 14 15  1  0
 15 16  2  0
 16 17  1  0
 17 18  2  0
 12 19  1  0
 19 20  2  0
 20 21  1  0
  8 22  1  0
 22 23  2  0
 23  5  1  0
 21 10  1  0
 18 13  1  0
  1 24  1  0
  1 25  1  0
  6 26  1  0
  7 27  1  0
 14 28  1  0
 15 29  1  0
 16 30  1  0
 17 31  1  0
 19 32  1  0
 20 33  1  0
 21 34  1  0
 22 35  1  0
 23 36  1  0
M  END
>  <smiles>  (9) 
NS(=O)(=O)c1ccc(N=c2nc(-c3ccccn3)cc[nH]2)cc1

>  <score_type>  (9) 
oracle

>  <origin>  (9) 
adg

>  <m_score__min__energy>  (9) 
-8.7699999999999996

>  <m_primary>  (9) 
energy

$$$$
9:0
     RDKit          3D

 44 46  0  0  0  0  0  0  0  0999 V2000
    1.4950   28.3350  -22.9920 C   0  0  0  0  0  0  0  0  0  0  0  0
    0.9930   26.9540  -23.0750 N   0  0  0  0  0  0  0  0  0  0  0  0
   -0.4730   26.9290  -22.9670 C   0  0  0  0  0  0  0  0  0  0  0  0
    1.4010   26.3200  -24.3120 C   0  0  0  0  0  0  0  0  0  0  0  0
    2.5830   25.8940  -24.4490 O   0  0  0  0  0  0  0  0  0  0  0  0
    0.4840   26.2240  -25.4660 C   0  0  0  0  0  0  0  0  0  0  0  0
   -0.5020   25.2780  -25.6650 C   0  0  0  0  0  0  0  0  0  0  0  0
   -1.1190   25.5720  -26.8200 N   0  0  0  0  0  0  0  0  0  0  0  0
   -2.2750   24.8910  -27.3980 C   0  0  0  0  0  0  0  0  0  0  0  0
   -1.8200   23.7730  -28.3000 C   0  0  0  0  0  0  0  0  0  0  0  0
   -0.9140   22.8120  -27.8190 C   0  0  0  0  0  0  0  0  0  0  0  0
   -0.4530   21.7940  -28.6570 C   0  0  0  0  0  0  0  0  0  0  0  0
   -0.8870   21.7280  -29.9820 C   0  0  0  0  0  0  0  0  0  0  0  0
   -1.7760   22.6860  -30.4750 C   0  0  0  0  0  0  0  0  0  0  0  0
   -2.2350   23.7230  -29.6460 C   0  0  0  0  0  0  0  0  0  0  0  0
   -3.1290   24.6890  -30.1290 O   0  0  0  0  0  0  0  0  0  0  0  0
   -4.4940   24.4750  -30.3770 C   0  0  0  0  0  0  0  0  0  0  0  0
   -5.4950   25.2600  -29.7750 C   0  0  0  0  0  0  0  0  0  0  0  0
   -6.8450   24.9950  -30.0300 C   0  0  0  0  0  0  0  0  0  0  0  0
   -7.2040   23.9440  -30.8780 C   0  0  0  0  0  0  0  0  0  0  0  0
   -6.2140   23.1510  -31.4650 C   0  0  0  0  0  0  0  0  0  0  0  0
   -4.8650   23.4140  -31.2120 C   0  0  0  0  0  0  0  0  0  0  0  0
   -0.5170   26.6810  -27.2910 C   0  0  0  0  0  0  0  0  0  0  0  0
    0.4750   27.1110  -26.4840 N   0  0  0  0  0  0  0  0  0  0  0  0
    1.6001   28.6241  -21.9359 H   0  0  0  0  0  0  0  0  0  0  0  0
    2.4742   28.3997  -23.4890 H   0  0  0  0  0  0  0  0  0  0  0  0
    0.7860   29.0134  -23.4890 H   0  0  0  0  0  0  0  0  0  0  0  0
    1.3960   26.4330  -22.2610 H   0  0  0  0  0  0  0  0  0  0  0  0
   -0.7624   26.9241  -21.9058 H   0  0  0  0  0  0  0  0  0  0  0  0
   -0.8920   27.8201  -23.4572 H   0  0  0  0  0  0  0  0  0  0  0  0
   -0.8614   26.0241  -23.4572 H   0  0  0  0  0  0  0  0  0  0  0  0
   -0.7388   24.4361  -24.9978 H   0  0  0  0  0  0  0  0  0  0  0  0
   -2.8949   24.4766  -26.5893 H   0  0  0  0  0  0  0  0  0  0  0  0
   -2.8607   25.6126  -27.9865 H   0  0  0  0  0  0  0  0  0  0  0  0
   -0.5660   22.8619  -26.7767 H   0  0  0  0  0  0  0  0  0  0  0  0
    0.2530   21.0433  -28.2722 H   0  0  0  0  0  0  0  0  0  0  0  0
   -0.5288   20.9212  -30.6383 H   0  0  0  0  0  0  0  0  0  0  0  0
   -2.1187   22.6280  -31.5186 H   0  0  0  0  0  0  0  0  0  0  0  0
   -5.2153   26.0841  -29.1022 H   0  0  0  0  0  0  0  0  0  0  0  0
   -7.6244   25.6146  -29.5625 H   0  0  0  0  0  0  0  0  0  0  0  0
   -8.2654   23.7408  -31.0835 H   0  0  0  0  0  0  0  0  0  0  0  0
   -6.4969   22.3191  -32.1267 H   0  0  0  0  0  0  0  0  0  0  0  0
   -4.0897   22.7835  -31.6717 H   0  0  0  0  0  0  0  0  0  0  0  0
   -0.8022   27.1803  -28.2287 H   0  0  0  0  0  0  0  0  0  0  0  0
  1  2  1  0
  2  3  1  0
  2  4  1  0
  4  5  2  0
  4  6  1  0
  6  7  2  0
  7  8  1  0
  8  9  1  0
  9 10  1  0
 10 11  2  0
 11 12  1  0
 12 13  2  0
 13 14  1  0
 14 15  2  0
 15 16  1  0
 16 17  1  0
 17 18  2  0
 18 19  1  0
 19 20  2  0
 20 21  1  0
 21 22  2  0
  8 23  1  0
 23 24  2  0
 24  6  1  0
 15 10  1  0
 22 17  1  0
  1 25  1  0
  1 26  1  0
  1 27  1  0
  2 28  1  0
  3 29  1  0
  3 30  1  0
  3 31  1  0
  7 32  1  0
  9 33  1  0
  9 34  1  0
 11 35  1  0
 12 36  1  0
 13 37  1  0
 14 38  1  0
 18 39  1  0
 19 40  1  0
 20 41  1  0
 21 42  1  0
 22 43  1  0
 23 44  1  0
M  CHG  1   2   1
M  END
>  <UniqueID>  (10) 
8

>  <SMILES>  (10) 
C[NH+](C)C(=O)c1cn(Cc2ccccc2Oc2ccccc2)cn1

>  <Energy>  (10) 
78.36384285108767

>  <Genealogy>  (10) 
C[NH+](C)C(=O)c1cn(Cc2ccccc2Oc2ccccc2)cn1 (protonated)
C[NH+](C)C(=O)c1cn(Cc2ccccc2Oc2ccccc2)cn1 (3D coordinates assigned)
C[NH+](C)C(=O)c1cn(Cc2ccccc2Oc2ccccc2)cn1 (optimized conformer: 78.36384285108767 kcal/mol)

>  <smiles>  (10) 
CN(C)C(=O)c1cn(Cc2ccccc2Oc2ccccc2)cn1

>  <score_type>  (10) 
oracle

>  <origin>  (10) 
adg

>  <m_score__min__energy>  (10) 
-7.4100000000000001

>  <m_primary>  (10) 
energy

$$$$
10:0
     RDKit          3D

 39 41  0  0  0  0  0  0  0  0999 V2000
   -0.3370   19.5300  -34.2070 C   0  0  0  0  0  0  0  0  0  0  0  0
   -1.4020   20.2900  -33.4730 C   0  0  0  0  0  0  0  0  0  0  0  0
   -2.6800   20.4350  -34.0320 C   0  0  0  0  0  0  0  0  0  0  0  0
   -3.6620   21.1750  -33.3650 C   0  0  0  0  0  0  0  0  0  0  0  0
   -3.3690   21.8050  -32.1440 C   0  0  0  0  0  0  0  0  0  0  0  0
   -4.3950   22.5770  -31.4090 C   0  0  0  0  0  0  0  0  0  0  0  0
   -5.6570   22.2150  -31.1710 C   0  0  0  0  0  0  0  0  0  0  0  0
   -6.3770   21.0300  -31.6880 C   0  0  0  0  0  0  0  0  0  0  0  0
   -5.7900   19.7570  -31.5960 C   0  0  0  0  0  0  0  0  0  0  0  0
   -6.4690   18.6310  -32.0720 C   0  0  0  0  0  0  0  0  0  0  0  0
   -7.7410   18.7650  -32.6340 C   0  0  0  0  0  0  0  0  0  0  0  0
   -8.3380   20.0260  -32.7180 C   0  0  0  0  0  0  0  0  0  0  0  0
   -7.6640   21.1540  -32.2410 C   0  0  0  0  0  0  0  0  0  0  0  0
   -6.2550   23.2810  -30.3820 C   0  0  0  0  0  0  0  0  0  0  0  0
   -7.4480   23.3100  -29.9770 O   0  0  0  0  0  0  0  0  0  0  0  0
   -5.2410   24.3560  -30.1640 C   0  0  0  0  0  0  0  0  0  0  0  0
   -4.9180   24.5250  -28.6760 C   0  0  0  0  0  0  0  0  0  0  0  0
   -5.6780   25.6750  -30.8070 C   0  0  0  0  0  0  0  0  0  0  0  0
   -4.1130   23.8270  -30.8540 O   0  0  0  0  0  0  0  0  0  0  0  0
   -2.0920   21.6510  -31.5830 C   0  0  0  0  0  0  0  0  0  0  0  0
   -1.1110   20.9120  -32.2490 C   0  0  0  0  0  0  0  0  0  0  0  0
    0.3363   19.0495  -33.4819 H   0  0  0  0  0  0  0  0  0  0  0  0
   -0.8049   18.7605  -34.8386 H   0  0  0  0  0  0  0  0  0  0  0  0
    0.2385   20.2227  -34.8386 H   0  0  0  0  0  0  0  0  0  0  0  0
   -2.9112   19.9648  -34.9992 H   0  0  0  0  0  0  0  0  0  0  0  0
   -4.6689   21.2641  -33.7988 H   0  0  0  0  0  0  0  0  0  0  0  0
   -4.7918   19.6455  -31.1475 H   0  0  0  0  0  0  0  0  0  0  0  0
   -6.0007   17.6380  -32.0038 H   0  0  0  0  0  0  0  0  0  0  0  0
   -8.2725   17.8784  -33.0102 H   0  0  0  0  0  0  0  0  0  0  0  0
   -9.3397   20.1310  -33.1601 H   0  0  0  0  0  0  0  0  0  0  0  0
   -8.1424   22.1428  -32.2985 H   0  0  0  0  0  0  0  0  0  0  0  0
   -5.7332   24.0985  -28.0731 H   0  0  0  0  0  0  0  0  0  0  0  0
   -3.9781   24.0031  -28.4433 H   0  0  0  0  0  0  0  0  0  0  0  0
   -4.8108   25.5947  -28.4433 H   0  0  0  0  0  0  0  0  0  0  0  0
   -5.9196   26.4043  -30.0198 H   0  0  0  0  0  0  0  0  0  0  0  0
   -4.8616   26.0666  -31.4316 H   0  0  0  0  0  0  0  0  0  0  0  0
   -6.5667   25.5017  -31.4316 H   0  0  0  0  0  0  0  0  0  0  0  0
   -1.8619   22.1151  -30.6126 H   0  0  0  0  0  0  0  0  0  0  0  0
   -0.1060   20.8172  -31.8120 H   0  0  0  0  0  0  0  0  0  0  0  0
  1  2  1  0
  2  3  2  0
  3  4  1  0
  4  5  2  0
  5  6  1  0
  6  7  2  0
  7  8  1  0
  8  9  2  0
  9 10  1  0
 10 11  2  0
 11 12  1  0
 12 13  2  0
  7 14  1  0
 14 15  2  0
 14 16  1  0
 16 17  1  0
 16 18  1  0
 16 19  1  0
  5 20  1  0
 20 21  2  0
 21  2  1  0
 19  6  1  0
 13  8  1  0
  1 22  1  0
  1 23  1  0
  1 24  1  0
  3 25  1  0
  4 26  1  0
  9 27  1  0
 10 28  1  0
 11 29  1  0
 12 30  1  0
 13 31  1  0
 17 32  1  0
 17 33  1  0
 17 34  1  0
 18 35  1  0
 18 36  1  0
 18 37  1  0
 20 38  1  0
 21 39  1  0
M  END
>  <UniqueID>  (11) 
9

>  <SMILES>  (11) 
Cc1ccc(C2=C(c3ccccc3)C(=O)C(C)(C)O2)cc1

>  <Energy>  (11) 
62.79222110620417

>  <Genealogy>  (11) 
Cc1ccc(C2=C(c3ccccc3)C(=O)C(C)(C)O2)cc1 (3D coordinates assigned)
Cc1ccc(C2=C(c3ccccc3)C(=O)C(C)(C)O2)cc1 (nonaromatic ring conformer: 62.79222110620417 kcal/mol)

>  <smiles>  (11) 
Cc1ccc(C2=C(c3ccccc3)C(=O)C(C)(C)O2)cc1

>  <score_type>  (11) 
oracle

>  <origin>  (11) 
adg

>  <m_score__min__energy>  (11) 
-7.9699999999999998

>  <m_primary>  (11) 
energy

$$$$
11:0
     RDKit          3D

 39 40  0  0  0  0  0  0  0  0999 V2000
   -6.4850   25.3870  -29.4850 C   0  0  0  0  0  0  0  0  0  0  0  0
   -5.3760   25.6900  -30.4920 C   0  0  0  0  0  0  0  0  0  0  0  0
   -4.8580   24.4420  -31.0980 N   0  0  0  0  0  0  0  0  0  0  0  0
   -4.3590   23.5070  -30.0640 C   0  0  0  0  0  0  0  0  0  0  0  0
   -3.2190   24.1350  -29.2640 C   0  0  0  0  0  0  0  0  0  0  0  0
   -5.8620   23.7990  -31.9860 C   0  0  0  0  0  0  0  0  0  0  0  0
   -6.2860   22.4460  -31.4120 C   0  0  0  0  0  0  0  0  0  0  0  0
   -7.8700   22.5720  -30.4990 S   0  0  0  0  0  0  0  0  0  0  0  0
   -8.9270   21.7900  -31.7680 C   0  0  0  0  0  0  0  0  0  0  0  0
   -8.5120   20.3740  -31.9960 C   0  0  0  0  0  0  0  0  0  0  0  0
   -9.1000   19.3180  -31.3940 N   0  0  0  0  0  0  0  0  0  0  0  0
   -8.4040   18.2640  -31.8650 C   0  0  0  0  0  0  0  0  0  0  0  0
   -7.4300   18.7250  -32.7250 C   0  0  0  0  0  0  0  0  0  0  0  0
   -6.4430   17.9240  -33.4570 C   0  0  0  0  0  0  0  0  0  0  0  0
   -6.2950   16.5460  -33.3660 C   0  0  0  0  0  0  0  0  0  0  0  0
   -5.2700   16.0480  -34.1780 C   0  0  0  0  0  0  0  0  0  0  0  0
   -4.6090   17.0270  -34.9080 C   0  0  0  0  0  0  0  0  0  0  0  0
   -5.3020   18.5160  -34.5430 S   0  0  0  0  0  0  0  0  0  0  0  0
   -7.5210   20.0280  -32.7850 O   0  0  0  0  0  0  0  0  0  0  0  0
   -6.0919   25.4944  -28.4633 H   0  0  0  0  0  0  0  0  0  0  0  0
   -7.3174   26.0906  -29.6335 H   0  0  0  0  0  0  0  0  0  0  0  0
   -6.8439   24.3579  -29.6335 H   0  0  0  0  0  0  0  0  0  0  0  0
   -5.7774   26.3366  -31.2862 H   0  0  0  0  0  0  0  0  0  0  0  0
   -4.5517   26.1943  -29.9664 H   0  0  0  0  0  0  0  0  0  0  0  0
   -5.1824   23.2543  -29.3797 H   0  0  0  0  0  0  0  0  0  0  0  0
   -3.9812   22.6020  -30.5621 H   0  0  0  0  0  0  0  0  0  0  0  0
   -3.4211   24.0237  -28.1885 H   0  0  0  0  0  0  0  0  0  0  0  0
   -2.2742   23.6301  -29.5138 H   0  0  0  0  0  0  0  0  0  0  0  0
   -3.1409   25.2034  -29.5138 H   0  0  0  0  0  0  0  0  0  0  0  0
   -6.7441   24.4510  -32.0689 H   0  0  0  0  0  0  0  0  0  0  0  0
   -5.4152   23.6433  -32.9790 H   0  0  0  0  0  0  0  0  0  0  0  0
   -6.4051   21.7288  -32.2375 H   0  0  0  0  0  0  0  0  0  0  0  0
   -5.5085   22.1092  -30.7105 H   0  0  0  0  0  0  0  0  0  0  0  0
   -9.9735   21.8103  -31.4297 H   0  0  0  0  0  0  0  0  0  0  0  0
   -8.8216   22.3472  -32.7106 H   0  0  0  0  0  0  0  0  0  0  0  0
   -8.5835   17.2101  -31.6060 H   0  0  0  0  0  0  0  0  0  0  0  0
   -6.9200   15.9107  -32.7212 H   0  0  0  0  0  0  0  0  0  0  0  0
   -5.0118   14.9801  -34.2330 H   0  0  0  0  0  0  0  0  0  0  0  0
   -3.7753   16.8580  -35.6053 H   0  0  0  0  0  0  0  0  0  0  0  0
  1  2  1  0
  2  3  1  0
  3  4  1  0
  4  5  1  0
  3  6  1  0
  6  7  1  0
  7  8  1  0
  8  9  1  0
  9 10  1  0
 10 11  2  0
 11 12  1  0
 12 13  2  0
 13 14  1  0
 14 15  2  0
 15 16  1  0
 16 17  2  0
 17 18  1  0
 13 19  1  0
 19 10  1  0
 18 14  1  0
  1 20  1  0
  1 21  1  0
  1 22  1  0
  2 23  1  0
  2 24  1  0
  4 25  1  0
  4 26  1  0
  5 27  1  0
  5 28  1  0
  5 29  1  0
  6 30  1  0
  6 31  1  0
  7 32  1  0
  7 33  1  0
  9 34  1  0
  9 35  1  0
 12 36  1  0
 15 37  1  0
 16 38  1  0
 17 39  1  0
M  END
>  <UniqueID>  (12) 
10

>  <SMILES>  (12) 
CCN(CC)CCSCc1ncc(-c2cccs2)o1

>  <Energy>  (12) 
87.223062108853

>  <Genealogy>  (12) 
CCN(CC)CCSCc1ncc(-c2cccs2)o1 (3D coordinates assigned)
CCN(CC)CCSCc1ncc(-c2cccs2)o1 (optimized conformer: 87.223062108853 kcal/mol)

>  <smiles>  (12) 
CCN(CC)CCSCc1ncc(-c2cccs2)o1

>  <score_type>  (12) 
oracle

>  <origin>  (12) 
adg

>  <m_score__min__energy>  (12) 
-6.6900000000000004

>  <m_primary>  (12) 
energy

$$$$
12:0
     RDKit          3D

 31 33  0  0  0  0  0  0  0  0999 V2000
    1.1290   24.9090  -26.5230 C   0  0  0  0  0  0  0  0  0  0  0  0
    0.8580   24.7950  -27.9160 O   0  0  0  0  0  0  0  0  0  0  0  0
   -0.2890   24.1900  -28.4530 C   0  0  0  0  0  0  0  0  0  0  0  0
   -0.3560   22.7920  -28.4680 C   0  0  0  0  0  0  0  0  0  0  0  0
   -1.4740   22.1370  -28.9910 C   0  0  0  0  0  0  0  0  0  0  0  0
   -2.5480   22.8780  -29.5100 C   0  0  0  0  0  0  0  0  0  0  0  0
   -3.6950   22.2630  -30.0430 C   0  0  0  0  0  0  0  0  0  0  0  0
   -3.8000   21.0060  -30.0460 O   0  0  0  0  0  0  0  0  0  0  0  0
   -4.7350   23.0640  -30.5540 C   0  0  0  0  0  0  0  0  0  0  0  0
   -5.9650   22.4740  -31.1410 C   0  0  0  0  0  0  0  0  0  0  0  0
   -7.2360   22.8580  -30.6760 C   0  0  0  0  0  0  0  0  0  0  0  0
   -8.3910   22.2920  -31.2260 C   0  0  0  0  0  0  0  0  0  0  0  0
   -8.2870   21.3380  -32.2420 C   0  0  0  0  0  0  0  0  0  0  0  0
   -7.0290   20.9450  -32.7070 C   0  0  0  0  0  0  0  0  0  0  0  0
   -5.8730   21.5080  -32.1580 C   0  0  0  0  0  0  0  0  0  0  0  0
   -4.5890   24.4590  -30.4930 C   0  0  0  0  0  0  0  0  0  0  0  0
   -3.4940   25.0090  -29.9770 O   0  0  0  0  0  0  0  0  0  0  0  0
   -2.4880   24.2890  -29.4960 C   0  0  0  0  0  0  0  0  0  0  0  0
   -1.3640   24.9370  -28.9700 C   0  0  0  0  0  0  0  0  0  0  0  0
    0.2634   24.5449  -25.9501 H   0  0  0  0  0  0  0  0  0  0  0  0
    2.0147   24.3072  -26.2713 H   0  0  0  0  0  0  0  0  0  0  0  0
    1.3182   25.9630  -26.2713 H   0  0  0  0  0  0  0  0  0  0  0  0
    0.4803   22.2027  -28.0638 H   0  0  0  0  0  0  0  0  0  0  0  0
   -1.5129   21.0377  -28.9962 H   0  0  0  0  0  0  0  0  0  0  0  0
   -7.3221   23.6075  -29.8755 H   0  0  0  0  0  0  0  0  0  0  0  0
   -9.3817   22.5980  -30.8586 H   0  0  0  0  0  0  0  0  0  0  0  0
   -9.1960   20.8961  -32.6760 H   0  0  0  0  0  0  0  0  0  0  0  0
   -6.9483   20.1924  -33.5052 H   0  0  0  0  0  0  0  0  0  0  0  0
   -4.8848   21.1929  -32.5244 H   0  0  0  0  0  0  0  0  0  0  0  0
   -5.3915   25.1058  -30.8773 H   0  0  0  0  0  0  0  0  0  0  0  0
   -1.3208   26.0361  -28.9607 H   0  0  0  0  0  0  0  0  0  0  0  0
  1  2  1  0
  2  3  1  0
  3  4  2  0
  4  5  1  0
  5  6  2  0
  6  7  1  0
  7  8  2  0
  7  9  1  0
  9 10  1  0
 10 11  2  0
 11 12  1  0
 12 13  2  0
 13 14  1  0
 14 15  2  0
  9 16  2  0
 16 17  1  0
 17 18  1  0
 18 19  2  0
 19  3  1  0
 18  6  1  0
 15 10  1  0
  1 20  1  0
  1 21  1  0
  1 22  1  0
  4 23  1  0
  5 24  1  0
 11 25  1  0
 12 26  1  0
 13 27  1  0
 14 28  1  0
 15 29  1  0
 16 30  1  0
 19 31  1  0
M  END
>  <UniqueID>  (13) 
11

>  <SMILES>  (13) 
COc1ccc2c(=O)c(-c3ccccc3)coc2c1

>  <Energy>  (13) 
45.34028962547703

>  <Genealogy>  (13) 
COc1ccc2c(=O)c(-c3ccccc3)coc2c1 (3D coordinates assigned)
COc1ccc2c(=O)c(-c3ccccc3)coc2c1 (optimized conformer: 45.34028962547703 kcal/mol)

>  <smiles>  (13) 
COc1ccc2c(=O)c(-c3ccccc3)coc2c1

>  <score_type>  (13) 
oracle

>  <origin>  (13) 
adg

>  <m_score__min__energy>  (13) 
-6.6699999999999999

>  <m_primary>  (13) 
energy

$$$$
13:0
     RDKit          3D

 56 59  0  0  1  0  0  0  0  0999 V2000
   -0.9110   22.5380  -30.0250 C   0  0  0  0  0  0  0  0  0  0  0  0
   -1.2880   22.2680  -28.6510 N   0  0  0  0  0  0  0  0  0  0  0  0
   -2.0360   21.0350  -28.5320 C   0  0  0  0  0  0  0  0  0  0  0  0
   -1.9890   23.3820  -28.0370 C   0  0  0  0  0  0  0  0  0  0  0  0
   -1.8110   24.6500  -28.7980 C   0  0  0  0  0  0  0  0  0  0  0  0
   -2.7680   24.9090  -29.7400 O   0  0  0  0  0  0  0  0  0  0  0  0
   -3.9790   24.3890  -30.0340 C   0  0  0  0  0  0  0  0  0  0  0  0
   -4.3710   23.0800  -29.9600 C   0  0  0  0  0  0  0  0  0  0  0  0
   -5.6490   22.6420  -30.2910 C   0  0  0  0  0  0  0  0  0  0  0  0
   -6.5880   23.5510  -30.7170 C   0  0  0  0  0  0  0  0  0  0  0  0
   -7.9700   23.1010  -31.0760 C   0  0  0  0  0  0  0  0  0  0  0  0
   -7.8090   22.3520  -32.3160 N   0  0  0  0  0  0  0  0  0  0  0  0
   -7.8050   21.0650  -32.3570 C   0  0  0  0  0  0  0  0  0  0  0  0
   -8.9080   20.3380  -32.1350 N   0  0  0  0  0  0  0  0  0  0  0  0
   -8.8420   18.9960  -32.1930 C   0  0  0  0  0  0  0  0  0  0  0  0
   -7.7140   18.3180  -32.4640 N   0  0  0  0  0  0  0  0  0  0  0  0
   -6.6000   19.0090  -32.6890 C   0  0  0  0  0  0  0  0  0  0  0  0
   -6.6410   20.3810  -32.6370 C   0  0  0  0  0  0  0  0  0  0  0  0
   -5.4000   20.7950  -32.8980 N   0  0  0  0  0  0  0  0  0  0  0  0
   -4.5590   19.7570  -33.1170 C   0  0  0  0  0  0  0  0  0  0  0  0
   -3.1570   19.9420  -33.4200 C   0  0  0  0  0  0  0  0  0  0  0  0
   -2.3380   19.0360  -34.0260 C   0  0  0  0  0  0  0  0  0  0  0  0
   -0.9860   19.2770  -34.2900 C   0  0  0  0  0  0  0  0  0  0  0  0
   -0.4100   20.4790  -33.9380 C   0  0  0  0  0  0  0  0  0  0  0  0
   -1.2240   21.4040  -33.3260 C   0  0  0  0  0  0  0  0  0  0  0  0
   -2.5540   21.1610  -33.0690 C   0  0  0  0  0  0  0  0  0  0  0  0
   -3.2530   22.1490  -32.4610 F   0  0  0  0  0  0  0  0  0  0  0  0
   -5.3120   18.6610  -32.9850 N   0  0  0  0  0  0  0  0  0  0  0  0
   -4.8910   17.3060  -33.1220 C   0  0  0  0  0  0  0  0  0  0  0  0
   -6.2330   24.8800  -30.8060 C   0  0  0  0  0  0  0  0  0  0  0  0
   -4.9640   25.2910  -30.4740 C   0  0  0  0  0  0  0  0  0  0  0  0
   -0.0168   23.1784  -30.0408 H   0  0  0  0  0  0  0  0  0  0  0  0
   -0.6922   21.5900  -30.5382 H   0  0  0  0  0  0  0  0  0  0  0  0
   -1.7381   23.0504  -30.5382 H   0  0  0  0  0  0  0  0  0  0  0  0
   -2.1813   20.7955  -27.4683 H   0  0  0  0  0  0  0  0  0  0  0  0
   -3.0155   21.1520  -29.0186 H   0  0  0  0  0  0  0  0  0  0  0  0
   -1.4798   20.2203  -29.0186 H   0  0  0  0  0  0  0  0  0  0  0  0
   -3.0619   23.1436  -27.9926 H   0  0  0  0  0  0  0  0  0  0  0  0
   -1.5688   23.5311  -27.0314 H   0  0  0  0  0  0  0  0  0  0  0  0
   -1.8108   25.4810  -28.0773 H   0  0  0  0  0  0  0  0  0  0  0  0
   -0.8652   24.5420  -29.3491 H   0  0  0  0  0  0  0  0  0  0  0  0
   -3.6365   22.3347  -29.6208 H   0  0  0  0  0  0  0  0  0  0  0  0
   -5.9065   21.5755  -30.2124 H   0  0  0  0  0  0  0  0  0  0  0  0
   -8.3852   22.4577  -30.2862 H   0  0  0  0  0  0  0  0  0  0  0  0
   -8.6649   23.9462  -31.1894 H   0  0  0  0  0  0  0  0  0  0  0  0
   -9.7860   20.8680  -31.9250 H   0  0  0  0  0  0  0  0  0  0  0  0
   -9.7620   18.4219  -32.0085 H   0  0  0  0  0  0  0  0  0  0  0  0
   -2.7625   18.0655  -34.3225 H   0  0  0  0  0  0  0  0  0  0  0  0
   -0.3785   18.5028  -34.7815 H   0  0  0  0  0  0  0  0  0  0  0  0
    0.6513   20.6888  -34.1372 H   0  0  0  0  0  0  0  0  0  0  0  0
   -0.7960   22.3735  -33.0312 H   0  0  0  0  0  0  0  0  0  0  0  0
   -4.7531   16.8623  -32.1250 H   0  0  0  0  0  0  0  0  0  0  0  0
   -5.6552   16.7386  -33.6734 H   0  0  0  0  0  0  0  0  0  0  0  0
   -3.9398   17.2715  -33.6734 H   0  0  0  0  0  0  0  0  0  0  0  0
   -6.9730   25.6194  -31.1463 H   0  0  0  0  0  0  0  0  0  0  0  0
   -4.7112   26.3585  -30.5550 H   0  0  0  0  0  0  0  0  0  0  0  0
  1  2  1  0
  2  3  1  0
  2  4  1  0
  4  5  1  0
  5  6  1  0
  6  7  1  0
  7  8  2  0
  8  9  1  0
  9 10  2  0
 10 11  1  0
 11 12  1  0
 12 13  2  0
 13 14  1  0
 14 15  1  0
 15 16  2  0
 16 17  1  0
 17 18  2  0
 18 19  1  0
 19 20  2  0
 20 21  1  0
 21 22  2  0
 22 23  1  0
 23 24  2  0
 24 25  1  0
 25 26  2  0
 26 27  1  0
 20 28  1  0
 28 29  1  0
 10 30  1  0
 30 31  2  0
 31  7  1  0
 18 13  1  0
 26 21  1  0
 28 17  1  0
  1 32  1  0
  1 33  1  0
  1 34  1  0
  3 35  1  0
  3 36  1  0
  3 37  1  0
  4 38  1  0
  4 39  1  0
  5 40  1  0
  5 41  1  0
  8 42  1  0
  9 43  1  0
 11 44  1  0
 11 45  1  0
 14 46  1  0
 15 47  1  0
 22 48  1  0
 23 49  1  0
 24 50  1  0
 25 51  1  0
 29 52  1  0
 29 53  1  0
 29 54  1  0
 30 55  1  0
 31 56  1  0
M  END
>  <smiles>  (14) 
CN(C)CCOc1ccc(CN=c2[nH]cnc3c2nc(-c2ccccc2F)n3C)cc1

>  <score_type>  (14) 
oracle

>  <origin>  (14) 
adg

>  <m_score__min__energy>  (14) 
-9.0600000000000005

>  <m_primary>  (14) 
energy

$$$$
14:0
     RDKit          3D

 64 66  0  0  0  0  0  0  0  0999 V2000
    0.2110   18.4230  -28.4410 C   0  0  0  0  0  0  0  0  0  0  0  0
   -0.9620   18.9200  -27.8110 O   0  0  0  0  0  0  0  0  0  0  0  0
   -1.5820   20.1370  -28.1350 C   0  0  0  0  0  0  0  0  0  0  0  0
   -1.0130   20.9250  -29.1460 C   0  0  0  0  0  0  0  0  0  0  0  0
   -1.5850   22.1530  -29.4950 C   0  0  0  0  0  0  0  0  0  0  0  0
   -2.7470   22.6010  -28.8480 C   0  0  0  0  0  0  0  0  0  0  0  0
   -3.4550   24.1630  -29.2660 S   0  0  0  0  0  0  0  0  0  0  0  0
   -4.4460   24.5580  -28.2050 O   0  0  0  0  0  0  0  0  0  0  0  0
   -2.3670   25.2020  -29.2920 O   0  0  0  0  0  0  0  0  0  0  0  0
   -4.2670   24.1360  -30.8160 N   0  0  0  0  0  0  0  0  0  0  0  0
   -5.3380   25.1450  -30.9180 C   0  0  0  0  0  0  0  0  0  0  0  0
   -6.6990   24.6320  -30.4190 C   0  0  0  0  0  0  0  0  0  0  0  0
   -6.8720   23.1350  -30.6940 C   0  0  0  0  0  0  0  0  0  0  0  0
   -5.9960   22.7130  -31.7160 O   0  0  0  0  0  0  0  0  0  0  0  0
   -4.6590   22.7670  -31.2390 C   0  0  1  0  0  0  0  0  0  0  0  0
   -3.7150   22.3000  -32.3560 C   0  0  0  0  0  0  0  0  0  0  0  0
   -4.3320   21.2430  -33.1590 N   0  0  0  0  0  0  0  0  0  0  0  0
   -3.6220   20.0630  -33.5650 C   0  0  0  0  0  0  0  0  0  0  0  0
   -2.3760   19.9830  -33.3810 O   0  0  0  0  0  0  0  0  0  0  0  0
   -4.3360   18.9270  -34.1700 C   0  0  0  0  0  0  0  0  0  0  0  0
   -5.4770   19.0940  -34.6770 O   0  0  0  0  0  0  0  0  0  0  0  0
   -3.7430   17.6260  -34.1480 N   0  0  0  0  0  0  0  0  0  0  0  0
   -4.5230   16.4040  -34.2950 C   0  0  0  0  0  0  0  0  0  0  0  0
   -5.5250   16.2950  -33.1400 C   0  0  0  0  0  0  0  0  0  0  0  0
   -6.9190   16.8460  -33.4940 C   0  0  0  0  0  0  0  0  0  0  0  0
   -7.5620   17.4950  -32.3220 N   0  0  0  0  0  0  0  0  0  0  0  0
   -6.5940   17.8040  -31.2450 C   0  0  0  0  0  0  0  0  0  0  0  0
   -5.8620   19.1440  -31.4920 C   0  0  0  0  0  0  0  0  0  0  0  0
   -6.6640   20.1960  -32.0340 O   0  0  0  0  0  0  0  0  0  0  0  0
   -8.0440   19.9310  -31.9060 C   0  0  0  0  0  0  0  0  0  0  0  0
   -8.4100   18.6630  -32.6890 C   0  0  0  0  0  0  0  0  0  0  0  0
   -3.3200   21.8150  -27.8370 C   0  0  0  0  0  0  0  0  0  0  0  0
   -2.7440   20.5910  -27.4820 C   0  0  0  0  0  0  0  0  0  0  0  0
    0.9369   18.1154  -27.6739 H   0  0  0  0  0  0  0  0  0  0  0  0
   -0.0484   17.5575  -29.0684 H   0  0  0  0  0  0  0  0  0  0  0  0
    0.6524   19.2114  -29.0684 H   0  0  0  0  0  0  0  0  0  0  0  0
   -0.1104   20.5749  -29.6683 H   0  0  0  0  0  0  0  0  0  0  0  0
   -1.1223   22.7698  -30.2795 H   0  0  0  0  0  0  0  0  0  0  0  0
   -5.0522   26.0209  -30.3171 H   0  0  0  0  0  0  0  0  0  0  0  0
   -5.4522   25.3958  -31.9829 H   0  0  0  0  0  0  0  0  0  0  0  0
   -6.7710   24.8066  -29.3353 H   0  0  0  0  0  0  0  0  0  0  0  0
   -7.4900   25.1746  -30.9574 H   0  0  0  0  0  0  0  0  0  0  0  0
   -6.6536   22.5711  -29.7751 H   0  0  0  0  0  0  0  0  0  0  0  0
   -7.9075   22.9512  -31.0165 H   0  0  0  0  0  0  0  0  0  0  0  0
   -4.5884   22.1117  -30.3583 H   0  0  0  0  0  0  0  0  0  0  0  0
   -3.4785   23.1544  -33.0072 H   0  0  0  0  0  0  0  0  0  0  0  0
   -2.7995   21.9001  -31.8956 H   0  0  0  0  0  0  0  0  0  0  0  0
   -5.3530   21.3210  -33.3630 H   0  0  0  0  0  0  0  0  0  0  0  0
   -5.0667   16.4289  -35.2509 H   0  0  0  0  0  0  0  0  0  0  0  0
   -3.8490   15.5348  -34.2788 H   0  0  0  0  0  0  0  0  0  0  0  0
   -5.6274   15.2350  -32.8645 H   0  0  0  0  0  0  0  0  0  0  0  0
   -5.1345   16.9012  -32.3093 H   0  0  0  0  0  0  0  0  0  0  0  0
   -6.8163   17.5865  -34.3009 H   0  0  0  0  0  0  0  0  0  0  0  0
   -7.5518   16.0046  -33.8128 H   0  0  0  0  0  0  0  0  0  0  0  0
   -7.1341   17.8652  -30.2887 H   0  0  0  0  0  0  0  0  0  0  0  0
   -5.8401   17.0032  -31.2252 H   0  0  0  0  0  0  0  0  0  0  0  0
   -5.4556   19.4897  -30.5301 H   0  0  0  0  0  0  0  0  0  0  0  0
   -5.0932   18.9314  -32.2495 H   0  0  0  0  0  0  0  0  0  0  0  0
   -8.2902   19.7869  -30.8436 H   0  0  0  0  0  0  0  0  0  0  0  0
   -8.6138   20.7812  -32.3091 H   0  0  0  0  0  0  0  0  0  0  0  0
   -9.4612   18.4132  -32.4825 H   0  0  0  0  0  0  0  0  0  0  0  0
   -8.2431   18.8721  -33.7560 H   0  0  0  0  0  0  0  0  0  0  0  0
   -4.2269   22.1632  -27.3209 H   0  0  0  0  0  0  0  0  0  0  0  0
   -3.2007   19.9803  -26.6892 H   0  0  0  0  0  0  0  0  0  0  0  0
  1  2  1  0
  2  3  1  0
  3  4  2  0
  4  5  1  0
  5  6  2  0
  6  7  1  0
  7  8  2  0
  7  9  2  0
  7 10  1  0
 10 11  1  0
 11 12  1  0
 12 13  1  0
 13 14  1  0
 14 15  1  0
 15 16  1  0
 16 17  1  0
 17 18  1  0
 18 19  2  0
 18 20  1  0
 20 21  2  0
 20 22  1  0
 22 23  1  0
 23 24  1  0
 24 25  1  0
 25 26  1  0
 26 27  1  0
 27 28  1  0
 28 29  1  0
 29 30  1  0
 30 31  1  0
  6 32  1  0
 32 33  2  0
 33  3  1  0
 15 10  1  0
 31 26  1  0
  1 34  1  0
  1 35  1  0
  1 36  1  0
  4 37  1  0
  5 38  1  0
 11 39  1  0
 11 40  1  0
 12 41  1  0
 12 42  1  0
 13 43  1  0
 13 44  1  0
 15 45  1  1
 16 46  1  0
 16 47  1  0
 17 48  1  0
 23 49  1  0
 23 50  1  0
 24 51  1  0
 24 52  1  0
 25 53  1  0
 25 54  1  0
 27 55  1  0
 27 56  1  0
 28 57  1  0
 28 58  1  0
 30 59  1  0
 30 60  1  0
 31 61  1  0
 31 62  1  0
 32 63  1  0
 33 64  1  0
M  CHG  1  22  -1
M  END
>  <UniqueID>  (15) 
12

>  <SMILES>  (15) 
COc1ccc(S(=O)(=O)N2CCCO[C@H]2CNC(=O)C(=O)[N-]CCCN2CCOCC2)cc1

>  <Energy>  (15) 
78.8923451031939

>  <Genealogy>  (15) 
COc1ccc(S(=O)(=O)N2CCCOC2CNC(=O)C(=O)[N-]CCCN2CCOCC2)cc1 (protonated)
COc1ccc(S(=O)(=O)N2CCCO[C@H]2CNC(=O)C(=O)[N-]CCCN2CCOCC2)cc1 (chirality)
COc1ccc(S(=O)(=O)N2CCCO[C@H]2CNC(=O)C(=O)[N-]CCCN2CCOCC2)cc1 (3D coordinates assigned)
COc1ccc(S(=O)(=O)N2CCCO[C@H]2CNC(=O)C(=O)[N-]CCCN2CCOCC2)cc1 (nonaromatic ring conformer: 78.8923451031939 kcal/mol)

>  <smiles>  (15) 
COc1ccc(S(=O)(=O)N2CCCOC2CNC(=O)C(=O)NCCCN2CCOCC2)cc1

>  <score_type>  (15) 
oracle

>  <origin>  (15) 
adg

>  <m_score__min__energy>  (15) 
-9.9800000000000004

>  <m_primary>  (15) 
energy

$$$$
15:0
     RDKit          3D

 38 40  0  0  0  0  0  0  0  0999 V2000
   -1.6110   25.6730  -28.9610 O   0  0  0  0  0  0  0  0  0  0  0  0
   -2.5040   24.8630  -29.3330 C   0  0  0  0  0  0  0  0  0  0  0  0
   -3.5480   25.2840  -30.2190 N   0  0  0  0  0  0  0  0  0  0  0  0
   -4.6880   24.5100  -30.6170 C   0  0  0  0  0  0  0  0  0  0  0  0
   -6.0040   24.9370  -30.3660 C   0  0  0  0  0  0  0  0  0  0  0  0
   -7.0860   24.1340  -30.7340 C   0  0  0  0  0  0  0  0  0  0  0  0
   -6.8680   22.8980  -31.3470 C   0  0  0  0  0  0  0  0  0  0  0  0
   -5.5620   22.4560  -31.5890 C   0  0  0  0  0  0  0  0  0  0  0  0
   -5.2980   20.8810  -32.3330 S   0  0  0  0  0  0  0  0  0  0  0  0
   -4.9720   19.8650  -31.2730 O   0  0  0  0  0  0  0  0  0  0  0  0
   -4.1270   20.9860  -33.2720 O   0  0  0  0  0  0  0  0  0  0  0  0
   -6.7390   20.4130  -33.2100 N   0  0  0  0  0  0  0  0  0  0  0  0
   -7.8850   20.1500  -32.3010 C   0  0  0  0  0  0  0  0  0  0  0  0
   -8.4060   18.7020  -32.3480 C   0  0  0  0  0  0  0  0  0  0  0  0
   -7.2390   17.7160  -32.3390 C   0  0  0  0  0  0  0  0  0  0  0  0
   -6.2720   17.9600  -33.5120 C   0  0  0  0  0  0  0  0  0  0  0  0
   -6.4630   19.3340  -34.1820 C   0  0  0  0  0  0  0  0  0  0  0  0
   -4.4760   23.2590  -31.2120 C   0  0  0  0  0  0  0  0  0  0  0  0
   -2.4510   23.4610  -28.8930 C   0  0  0  0  0  0  0  0  0  0  0  0
   -3.2150   22.9580  -27.8380 C   0  0  0  0  0  0  0  0  0  0  0  0
   -2.8070   21.3420  -27.7690 S   0  0  0  0  0  0  0  0  0  0  0  0
   -1.7200   21.3110  -29.0200 N   0  0  0  0  0  0  0  0  0  0  0  0
   -1.6480   22.5430  -29.5160 N   0  0  0  0  0  0  0  0  0  0  0  0
   -6.1820   25.9067  -29.8782 H   0  0  0  0  0  0  0  0  0  0  0  0
   -8.1133   24.4762  -30.5404 H   0  0  0  0  0  0  0  0  0  0  0  0
   -7.7233   22.2714  -31.6398 H   0  0  0  0  0  0  0  0  0  0  0  0
   -7.5663   20.3691  -31.2712 H   0  0  0  0  0  0  0  0  0  0  0  0
   -8.7104   20.7949  -32.6369 H   0  0  0  0  0  0  0  0  0  0  0  0
   -9.0433   18.5174  -31.4707 H   0  0  0  0  0  0  0  0  0  0  0  0
   -8.9855   18.5609  -33.2723 H   0  0  0  0  0  0  0  0  0  0  0  0
   -6.6870   17.8270  -31.3941 H   0  0  0  0  0  0  0  0  0  0  0  0
   -7.6498   16.7007  -32.4414 H   0  0  0  0  0  0  0  0  0  0  0  0
   -5.2410   17.8960  -33.1339 H   0  0  0  0  0  0  0  0  0  0  0  0
   -6.4822   17.1939  -34.2729 H   0  0  0  0  0  0  0  0  0  0  0  0
   -5.5461   19.5856  -34.7351 H   0  0  0  0  0  0  0  0  0  0  0  0
   -7.3347   19.2585  -34.8487 H   0  0  0  0  0  0  0  0  0  0  0  0
   -3.4493   22.9041  -31.3847 H   0  0  0  0  0  0  0  0  0  0  0  0
   -3.9244   23.5032  -27.1981 H   0  0  0  0  0  0  0  0  0  0  0  0
  1  2  2  0
  2  3  1  0
  3  4  1  0
  4  5  2  0
  5  6  1  0
  6  7  2  0
  7  8  1  0
  8  9  1  0
  9 10  2  0
  9 11  2  0
  9 12  1  0
 12 13  1  0
 13 14  1  0
 14 15  1  0
 15 16  1  0
 16 17  1  0
  8 18  2  0
  2 19  1  0
 19 20  2  0
 20 21  1  0
 21 22  1  0
 22 23  2  0
 18  4  1  0
 23 19  1  0
 17 12  1  0
  5 24  1  0
  6 25  1  0
  7 26  1  0
 13 27  1  0
 13 28  1  0
 14 29  1  0
 14 30  1  0
 15 31  1  0
 15 32  1  0
 16 33  1  0
 16 34  1  0
 17 35  1  0
 17 36  1  0
 18 37  1  0
 20 38  1  0
M  CHG  1   3  -1
M  END
>  <UniqueID>  (16) 
13

>  <SMILES>  (16) 
O=C([N-]c1cccc(S(=O)(=O)N2CCCCC2)c1)c1csnn1

>  <Energy>  (16) 
85.57475519512195

>  <Genealogy>  (16) 
O=C([N-]c1cccc(S(=O)(=O)N2CCCCC2)c1)c1csnn1 (protonated)
O=C([N-]c1cccc(S(=O)(=O)N2CCCCC2)c1)c1csnn1 (3D coordinates assigned)
O=C([N-]c1cccc(S(=O)(=O)N2CCCCC2)c1)c1csnn1 (nonaromatic ring conformer: 85.57475519512195 kcal/mol)

>  <smiles>  (16) 
O=C(Nc1cccc(S(=O)(=O)N2CCCCC2)c1)c1csnn1

>  <score_type>  (16) 
oracle

>  <origin>  (16) 
adg

>  <m_score__min__energy>  (16) 
-10.5

>  <m_primary>  (16) 
energy

$$$$
16:0
     RDKit          3D

 46 46  0  0  0  0  0  0  0  0999 V2000
   -9.4000   19.3360  -32.7130 C   0  0  0  0  0  0  0  0  0  0  0  0
   -8.1640   18.8470  -31.9570 C   0  0  0  0  0  0  0  0  0  0  0  0
   -7.1780   18.0780  -32.8600 C   0  0  0  0  0  0  0  0  0  0  0  0
   -5.7020   18.3140  -32.5010 C   0  0  0  0  0  0  0  0  0  0  0  0
   -5.2570   19.7100  -32.8200 C   0  0  0  0  0  0  0  0  0  0  0  0
   -5.9740   20.4320  -33.5660 O   0  0  0  0  0  0  0  0  0  0  0  0
   -4.0090   20.2030  -32.3120 N   0  0  0  0  0  0  0  0  0  0  0  0
   -3.4960   21.5340  -32.6590 C   0  0  2  0  0  0  0  0  0  0  0  0
   -2.1730   21.3990  -33.4250 C   0  0  0  0  0  0  0  0  0  0  0  0
   -3.3240   22.3720  -31.3760 C   0  0  0  0  0  0  0  0  0  0  0  0
   -4.5540   23.1940  -31.0680 C   0  0  0  0  0  0  0  0  0  0  0  0
   -5.8250   22.6900  -31.3910 C   0  0  0  0  0  0  0  0  0  0  0  0
   -6.9910   23.4180  -31.0930 C   0  0  0  0  0  0  0  0  0  0  0  0
   -8.3420   22.8910  -31.4280 C   0  0  0  0  0  0  0  0  0  0  0  0
   -8.9480   21.7360  -30.6890 C   0  0  0  0  0  0  0  0  0  0  0  0
   -9.0070   23.4200  -32.3590 O   0  0  0  0  0  0  0  0  0  0  0  0
   -6.8620   24.6680  -30.4620 C   0  0  0  0  0  0  0  0  0  0  0  0
   -5.6030   25.1740  -30.1330 C   0  0  0  0  0  0  0  0  0  0  0  0
   -4.4390   24.4440  -30.4280 C   0  0  0  0  0  0  0  0  0  0  0  0
   -3.1610   24.9250  -30.1010 O   0  0  0  0  0  0  0  0  0  0  0  0
   -2.4070   24.5170  -28.9630 C   0  0  0  0  0  0  0  0  0  0  0  0
  -10.1731   19.6419  -31.9928 H   0  0  0  0  0  0  0  0  0  0  0  0
   -9.1276   20.1941  -33.3450 H   0  0  0  0  0  0  0  0  0  0  0  0
   -9.7884   18.5238  -33.3450 H   0  0  0  0  0  0  0  0  0  0  0  0
   -7.6447   19.7182  -31.5312 H   0  0  0  0  0  0  0  0  0  0  0  0
   -8.5065   18.1541  -31.1743 H   0  0  0  0  0  0  0  0  0  0  0  0
   -7.3901   17.0024  -32.7696 H   0  0  0  0  0  0  0  0  0  0  0  0
   -7.3237   18.4486  -33.8854 H   0  0  0  0  0  0  0  0  0  0  0  0
   -5.5668   18.1367  -31.4238 H   0  0  0  0  0  0  0  0  0  0  0  0
   -5.0939   17.6207  -33.1006 H   0  0  0  0  0  0  0  0  0  0  0  0
   -3.4260   19.5670  -31.7210 H   0  0  0  0  0  0  0  0  0  0  0  0
   -4.2129   22.0522  -33.3128 H   0  0  0  0  0  0  0  0  0  0  0  0
   -1.3420   21.3142  -32.7093 H   0  0  0  0  0  0  0  0  0  0  0  0
   -2.2056   20.4995  -34.0573 H   0  0  0  0  0  0  0  0  0  0  0  0
   -2.0232   22.2865  -34.0573 H   0  0  0  0  0  0  0  0  0  0  0  0
   -3.1296   21.6937  -30.5321 H   0  0  0  0  0  0  0  0  0  0  0  0
   -2.4832   23.0638  -31.5321 H   0  0  0  0  0  0  0  0  0  0  0  0
   -5.9096   21.7107  -31.8847 H   0  0  0  0  0  0  0  0  0  0  0  0
   -8.8587   21.9062  -29.6059 H   0  0  0  0  0  0  0  0  0  0  0  0
  -10.0103   21.6444  -30.9594 H   0  0  0  0  0  0  0  0  0  0  0  0
   -8.4197   20.8099  -30.9594 H   0  0  0  0  0  0  0  0  0  0  0  0
   -7.7626   25.2534  -30.2251 H   0  0  0  0  0  0  0  0  0  0  0  0
   -5.5215   26.1531  -29.6383 H   0  0  0  0  0  0  0  0  0  0  0  0
   -2.9415   24.8062  -28.0461 H   0  0  0  0  0  0  0  0  0  0  0  0
   -2.2761   23.4250  -28.9821 H   0  0  0  0  0  0  0  0  0  0  0  0
   -1.4213   25.0048  -28.9821 H   0  0  0  0  0  0  0  0  0  0  0  0
  1  2  1  0
  2  3  1  0
  3  4  1  0
  4  5  1  0
  5  6  2  0
  5  7  1  0
  7  8  1  0
  8  9  1  0
  8 10  1  0
 10 11  1  0
 11 12  2  0
 12 13  1  0
 13 14  1  0
 14 15  1  0
 14 16  2  0
 13 17  2  0
 17 18  1  0
 18 19  2  0
 19 20  1  0
 20 21  1  0
 19 11  1  0
  1 22  1  0
  1 23  1  0
  1 24  1  0
  2 25  1  0
  2 26  1  0
  3 27  1  0
  3 28  1  0
  4 29  1  0
  4 30  1  0
  7 31  1  0
  8 32  1  6
  9 33  1  0
  9 34  1  0
  9 35  1  0
 10 36  1  0
 10 37  1  0
 12 38  1  0
 15 39  1  0
 15 40  1  0
 15 41  1  0
 17 42  1  0
 18 43  1  0
 21 44  1  0
 21 45  1  0
 21 46  1  0
M  END
>  <UniqueID>  (17) 
14

>  <SMILES>  (17) 
CCCCC(=O)N[C@H](C)Cc1cc(C(C)=O)ccc1OC

>  <Energy>  (17) 
31.60141880027109

>  <Genealogy>  (17) 
CCCCC(=O)N[C@H](C)Cc1cc(C(C)=O)ccc1OC (chirality)
CCCCC(=O)N[C@H](C)Cc1cc(C(C)=O)ccc1OC (3D coordinates assigned)
CCCCC(=O)N[C@H](C)Cc1cc(C(C)=O)ccc1OC (optimized conformer: 31.60141880027109 kcal/mol)

>  <smiles>  (17) 
CCCCC(=O)NC(C)Cc1cc(C(C)=O)ccc1OC

>  <score_type>  (17) 
oracle

>  <origin>  (17) 
adg

>  <m_score__min__energy>  (17) 
-7.79

>  <m_primary>  (17) 
energy

$$$$
17:0
     RDKit          3D

 39 41  0  0  0  0  0  0  0  0999 V2000
   -1.2410   20.8740  -31.7820 C   0  0  0  0  0  0  0  0  0  0  0  0
   -2.6800   21.2400  -31.9950 C   0  0  0  0  0  0  0  0  0  0  0  0
   -3.3070   20.9880  -33.2180 C   0  0  0  0  0  0  0  0  0  0  0  0
   -4.5950   21.3700  -33.4220 N   0  0  0  0  0  0  0  0  0  0  0  0
   -5.3220   22.0220  -32.4660 C   0  0  0  0  0  0  0  0  0  0  0  0
   -4.7180   22.3070  -31.2200 C   0  0  0  0  0  0  0  0  0  0  0  0
   -3.3920   21.9160  -31.0010 C   0  0  0  0  0  0  0  0  0  0  0  0
   -5.4010   23.0560  -30.2070 N   0  0  0  0  0  0  0  0  0  0  0  0
   -4.6310   24.4520  -29.5140 S   0  0  0  0  0  0  0  0  0  0  0  0
   -4.0040   25.2830  -30.5980 O   0  0  0  0  0  0  0  0  0  0  0  0
   -5.6570   25.2800  -28.7930 O   0  0  0  0  0  0  0  0  0  0  0  0
   -3.3670   23.9390  -28.3980 C   0  0  0  0  0  0  0  0  0  0  0  0
   -3.2720   22.6000  -27.9890 C   0  0  0  0  0  0  0  0  0  0  0  0
   -2.2310   22.1960  -27.1470 C   0  0  0  0  0  0  0  0  0  0  0  0
   -1.2820   23.1250  -26.7120 C   0  0  0  0  0  0  0  0  0  0  0  0
   -1.3700   24.4580  -27.1200 C   0  0  0  0  0  0  0  0  0  0  0  0
   -2.4080   24.8650  -27.9630 C   0  0  0  0  0  0  0  0  0  0  0  0
   -6.7120   22.6260  -29.7150 C   0  0  0  0  0  0  0  0  0  0  0  0
   -7.8490   22.9880  -30.6860 C   0  0  0  0  0  0  0  0  0  0  0  0
   -7.8520   22.1270  -31.9530 C   0  0  0  0  0  0  0  0  0  0  0  0
   -6.6760   22.4120  -32.7770 N   0  0  0  0  0  0  0  0  0  0  0  0
   -1.0320   20.8208  -30.7034 H   0  0  0  0  0  0  0  0  0  0  0  0
   -1.0393   19.8960  -32.2432 H   0  0  0  0  0  0  0  0  0  0  0  0
   -0.5965   21.6368  -32.2432 H   0  0  0  0  0  0  0  0  0  0  0  0
   -2.7546   20.4773  -34.0205 H   0  0  0  0  0  0  0  0  0  0  0  0
   -5.0300   21.1620  -34.3490 H   0  0  0  0  0  0  0  0  0  0  0  0
   -2.9073   22.1425  -30.0399 H   0  0  0  0  0  0  0  0  0  0  0  0
   -4.0175   21.8671  -28.3312 H   0  0  0  0  0  0  0  0  0  0  0  0
   -2.1591   21.1461  -26.8269 H   0  0  0  0  0  0  0  0  0  0  0  0
   -0.4651   22.8063  -26.0478 H   0  0  0  0  0  0  0  0  0  0  0  0
   -0.6218   25.1880  -26.7776 H   0  0  0  0  0  0  0  0  0  0  0  0
   -2.4728   25.9145  -28.2860 H   0  0  0  0  0  0  0  0  0  0  0  0
   -6.6978   21.5346  -29.5785 H   0  0  0  0  0  0  0  0  0  0  0  0
   -6.9022   23.1479  -28.7655 H   0  0  0  0  0  0  0  0  0  0  0  0
   -8.8094   22.8516  -30.1674 H   0  0  0  0  0  0  0  0  0  0  0  0
   -7.6950   24.0315  -30.9981 H   0  0  0  0  0  0  0  0  0  0  0  0
   -7.8436   21.0648  -31.6674 H   0  0  0  0  0  0  0  0  0  0  0  0
   -8.7558   22.3593  -32.5354 H   0  0  0  0  0  0  0  0  0  0  0  0
   -6.8490   22.8890  -33.6910 H   0  0  0  0  0  0  0  0  0  0  0  0
  1  2  1  0
  2  3  2  0
  3  4  1  0
  4  5  2  0
  5  6  1  0
  6  7  2  0
  6  8  1  0
  8  9  1  0
  9 10  2  0
  9 11  2  0
  9 12  1  0
 12 13  2  0
 13 14  1  0
 14 15  2  0
 15 16  1  0
 16 17  2  0
  8 18  1  0
 18 19  1  0
 19 20  1  0
 20 21  1  0
  7  2  1  0
 17 12  1  0
 21  5  1  0
  1 22  1  0
  1 23  1  0
  1 24  1  0
  3 25  1  0
  4 26  1  0
  7 27  1  0
 13 28  1  0
 14 29  1  0
 15 30  1  0
 16 31  1  0
 17 32  1  0
 18 33  1  0
 18 34  1  0
 19 35  1  0
 19 36  1  0
 20 37  1  0
 20 38  1  0
 21 39  1  0
M  CHG  1   4   1
M  END
>  <UniqueID>  (18) 
15

>  <SMILES>  (18) 
Cc1c[nH+]c2c(c1)N(S(=O)(=O)c1ccccc1)CCCN2

>  <Energy>  (18) 
47.51143494376296

>  <Genealogy>  (18) 
Cc1c[nH+]c2c(c1)N(S(=O)(=O)c1ccccc1)CCCN2 (protonated)
Cc1c[nH+]c2c(c1)N(S(=O)(=O)c1ccccc1)CCCN2 (3D coordinates assigned)
Cc1c[nH+]c2c(c1)N(S(=O)(=O)c1ccccc1)CCCN2 (nonaromatic ring conformer: 47.51143494376296 kcal/mol)

>  <smiles>  (18) 
Cc1cnc2c(c1)N(S(=O)(=O)c1ccccc1)CCCN2

>  <score_type>  (18) 
oracle

>  <origin>  (18) 
adg

>  <m_score__min__energy>  (18) 
-5.96

>  <m_primary>  (18) 
energy

$$$$
18:0
     RDKit          3D

 36 38  0  0  0  0  0  0  0  0999 V2000
   -6.3710   25.0463  -32.2353 H   0  0  0  0  0  0  0  0  0  0  0  0
   -6.5050   24.1730  -31.5800 C   0  0  0  0  0  0  0  0  0  0  0  0
   -7.6750   23.5190  -31.6080 C   0  0  0  0  0  0  0  0  0  0  0  0
   -8.5939   24.0789  -31.3798 H   0  0  0  0  0  0  0  0  0  0  0  0
   -7.7880   22.0860  -31.9300 C   0  0  0  0  0  0  0  0  0  0  0  0
   -8.8580   21.3440  -31.5820 N   0  0  0  0  0  0  0  0  0  0  0  0
   -8.6010   20.1450  -32.0190 O   0  0  0  0  0  0  0  0  0  0  0  0
   -7.4300   20.1240  -32.6120 C   0  0  0  0  0  0  0  0  0  0  0  0
   -6.8330   18.9110  -33.2200 C   0  0  0  0  0  0  0  0  0  0  0  0
   -5.8540   19.0480  -34.2200 C   0  0  0  0  0  0  0  0  0  0  0  0
   -5.5396   20.0517  -34.5422 H   0  0  0  0  0  0  0  0  0  0  0  0
   -5.2770   17.9180  -34.8080 C   0  0  0  0  0  0  0  0  0  0  0  0
   -4.5123   18.0351  -35.5900 H   0  0  0  0  0  0  0  0  0  0  0  0
   -5.6710   16.6410  -34.4030 C   0  0  0  0  0  0  0  0  0  0  0  0
   -5.2161   15.7528  -34.8658 H   0  0  0  0  0  0  0  0  0  0  0  0
   -6.6420   16.4910  -33.4110 C   0  0  0  0  0  0  0  0  0  0  0  0
   -6.9514   15.4843  -33.0936 H   0  0  0  0  0  0  0  0  0  0  0  0
   -7.2220   17.6180  -32.8200 C   0  0  0  0  0  0  0  0  0  0  0  0
   -7.9861   17.4938  -32.0385 H   0  0  0  0  0  0  0  0  0  0  0  0
   -6.8650   21.3480  -32.5810 N   0  0  0  0  0  0  0  0  0  0  0  0
   -5.9390   21.6470  -32.9550 H   0  0  0  0  0  0  0  0  0  0  0  0
   -5.3860   23.7640  -30.7000 C   0  0  0  0  0  0  0  0  0  0  0  0
   -5.2840   24.3520  -29.4250 C   0  0  0  0  0  0  0  0  0  0  0  0
   -6.2060   25.2580  -29.0100 F   0  0  0  0  0  0  0  0  0  0  0  0
   -4.2450   23.9940  -28.5620 C   0  0  0  0  0  0  0  0  0  0  0  0
   -4.1630   24.5540  -27.3290 F   0  0  0  0  0  0  0  0  0  0  0  0
   -3.2940   23.0570  -28.9630 C   0  0  0  0  0  0  0  0  0  0  0  0
   -2.4843   22.7692  -28.2763 H   0  0  0  0  0  0  0  0  0  0  0  0
   -3.3660   22.4830  -30.2330 C   0  0  0  0  0  0  0  0  0  0  0  0
   -2.6096   21.7468  -30.5427 H   0  0  0  0  0  0  0  0  0  0  0  0
   -4.4000   22.8390  -31.1220 C   0  0  0  0  0  0  0  0  0  0  0  0
   -4.4580   22.3170  -32.4250 O   0  0  0  0  0  0  0  0  0  0  0  0
   -3.4440   21.5180  -33.0240 C   0  0  0  0  0  0  0  0  0  0  0  0
   -2.8399   21.0420  -32.2376 H   0  0  0  0  0  0  0  0  0  0  0  0
   -3.9101   20.7418  -33.6487 H   0  0  0  0  0  0  0  0  0  0  0  0
   -2.7983   22.1527  -33.6487 H   0  0  0  0  0  0  0  0  0  0  0  0
  1  2  1  0
  2  3  2  0
  3  4  1  0
  3  5  1  0
  5  6  2  0
  6  7  1  0
  7  8  1  0
  8  9  1  0
  9 10  2  0
 10 11  1  0
 10 12  1  0
 12 13  1  0
 12 14  2  0
 14 15  1  0
 14 16  1  0
 16 17  1  0
 16 18  2  0
 18 19  1  0
  8 20  2  0
 20 21  1  0
  2 22  1  0
 22 23  2  0
 23 24  1  0
 23 25  1  0
 25 26  1  0
 25 27  2  0
 27 28  1  0
 27 29  1  0
 29 30  1  0
 29 31  2  0
 31 32  1  0
 32 33  1  0
 33 34  1  0
 33 35  1  0
 33 36  1  0
 20  5  1  0
 31 22  1  0
 18  9  1  0
M  CHG  1  20   1
M  END
>  <UniqueID>  (19) 
16

>  <SMILES>  (19) 
COc1ccc(F)c(F)c1/C=C/c1noc(-c2ccccc2)[nH+]1

>  <Energy>  (19) 
78.84672103189548

>  <Genealogy>  (19) 
COc1ccc(F)c(F)c1C=Cc1noc(-c2ccccc2)[nH+]1 (protonated)
COc1ccc(F)c(F)c1/C=C/c1noc(-c2ccccc2)[nH+]1 (cis-trans isomerization)
COc1ccc(F)c(F)c1/C=C/c1noc(-c2ccccc2)[nH+]1 (3D coordinates assigned)
COc1ccc(F)c(F)c1/C=C/c1noc(-c2ccccc2)[nH+]1 (optimized conformer: 78.84672103189548 kcal/mol)

>  <smiles>  (19) 
COc1ccc(F)c(F)c1C=Cc1noc(-c2ccccc2)n1

>  <score_type>  (19) 
oracle

>  <origin>  (19) 
adg

>  <m_score__min__energy>  (19) 
-7.6299999999999999

>  <m_primary>  (19) 
energy

$$$$
19:0
     RDKit          3D

 37 39  0  0  0  0  0  0  0  0999 V2000
   -3.9130   25.6740  -31.6050 H   0  0  0  0  0  0  0  0  0  0  0  0
   -3.8860   25.1470  -30.7040 N   0  0  0  0  0  0  0  0  0  0  0  0
   -3.9930   23.8530  -30.6510 C   0  0  0  0  0  0  0  0  0  0  0  0
   -2.9520   23.0810  -30.1010 C   0  0  0  0  0  0  0  0  0  0  0  0
   -1.7400   23.7250  -29.6360 C   0  0  0  0  0  0  0  0  0  0  0  0
   -0.7740   24.2400  -29.2640 N   0  0  0  0  0  0  0  0  0  0  0  0
   -3.0880   21.6770  -30.0570 C   0  0  0  0  0  0  0  0  0  0  0  0
   -2.0390   20.8010  -29.4750 C   0  0  0  0  0  0  0  0  0  0  0  0
   -0.9680   20.3620  -30.2690 C   0  0  0  0  0  0  0  0  0  0  0  0
   -0.9012   20.6777  -31.3206 H   0  0  0  0  0  0  0  0  0  0  0  0
    0.0150   19.5250  -29.7300 C   0  0  0  0  0  0  0  0  0  0  0  0
    0.8493   19.1833  -30.3602 H   0  0  0  0  0  0  0  0  0  0  0  0
   -0.0590   19.1200  -28.3900 C   0  0  0  0  0  0  0  0  0  0  0  0
    0.9730   18.1900  -27.8230 C   0  0  0  0  0  0  0  0  0  0  0  0
    0.9341   18.2251  -26.7242 H   0  0  0  0  0  0  0  0  0  0  0  0
    0.7695   17.1644  -28.1645 H   0  0  0  0  0  0  0  0  0  0  0  0
    1.9720   18.4988  -28.1645 H   0  0  0  0  0  0  0  0  0  0  0  0
   -1.1450   19.5340  -27.6040 C   0  0  0  0  0  0  0  0  0  0  0  0
   -1.2241   19.1984  -26.5594 H   0  0  0  0  0  0  0  0  0  0  0  0
   -2.1270   20.3710  -28.1420 C   0  0  0  0  0  0  0  0  0  0  0  0
   -2.9729   20.6942  -27.5174 H   0  0  0  0  0  0  0  0  0  0  0  0
   -4.2480   21.0880  -30.5750 C   0  0  0  0  0  0  0  0  0  0  0  0
   -4.3612   19.9940  -30.5578 H   0  0  0  0  0  0  0  0  0  0  0  0
   -5.2650   21.8860  -31.1150 C   0  0  0  0  0  0  0  0  0  0  0  0
   -6.5010   21.2620  -31.6530 C   0  0  0  0  0  0  0  0  0  0  0  0
   -6.4400   20.0600  -32.3820 C   0  0  0  0  0  0  0  0  0  0  0  0
   -5.4681   19.5750  -32.5558 H   0  0  0  0  0  0  0  0  0  0  0  0
   -7.6070   19.4780  -32.8870 C   0  0  0  0  0  0  0  0  0  0  0  0
   -7.5502   18.5391  -33.4573 H   0  0  0  0  0  0  0  0  0  0  0  0
   -8.8460   20.0880  -32.6680 C   0  0  0  0  0  0  0  0  0  0  0  0
   -9.7634   19.6283  -33.0643 H   0  0  0  0  0  0  0  0  0  0  0  0
   -8.9180   21.2810  -31.9460 C   0  0  0  0  0  0  0  0  0  0  0  0
   -9.8931   21.7602  -31.7741 H   0  0  0  0  0  0  0  0  0  0  0  0
   -7.7540   21.8680  -31.4410 C   0  0  0  0  0  0  0  0  0  0  0  0
   -7.8175   22.8089  -30.8747 H   0  0  0  0  0  0  0  0  0  0  0  0
   -5.1150   23.2430  -31.1360 N   0  0  0  0  0  0  0  0  0  0  0  0
   -5.8680   23.8310  -31.5590 H   0  0  0  0  0  0  0  0  0  0  0  0
  1  2  1  0
  2  3  2  0
  3  4  1  0
  4  5  1  0
  5  6  3  0
  4  7  2  0
  7  8  1  0
  8  9  2  0
  9 10  1  0
  9 11  1  0
 11 12  1  0
 11 13  2  0
 13 14  1  0
 14 15  1  0
 14 16  1  0
 14 17  1  0
 13 18  1  0
 18 19  1  0
 18 20  2  0
 20 21  1  0
  7 22  1  0
 22 23  1  0
 22 24  2  0
 24 25  1  0
 25 26  2  0
 26 27  1  0
 26 28  1  0
 28 29  1  0
 28 30  2  0
 30 31  1  0
 30 32  1  0
 32 33  1  0
 32 34  2  0
 34 35  1  0
 24 36  1  0
 36 37  1  0
 36  3  1  0
 20  8  1  0
 34 25  1  0
M  END
>  <UniqueID>  (20) 
17

>  <SMILES>  (20) 
[H]/N=c1\[nH]c(-c2ccccc2)cc(-c2ccc(C)cc2)c1C#N

>  <Energy>  (20) 
52.708398517613325

>  <Genealogy>  (20) 
[H]/N=c1\[nH]c(-c2ccccc2)cc(-c2ccc(C)cc2)c1C#N (cis-trans isomerization)
[H]/N=c1\[nH]c(-c2ccccc2)cc(-c2ccc(C)cc2)c1C#N (3D coordinates assigned)
[H]/N=c1\[nH]c(-c2ccccc2)cc(-c2ccc(C)cc2)c1C#N (optimized conformer: 52.708398517613325 kcal/mol)

>  <smiles>  (20) 
Cc1ccc(-c2cc(-c3ccccc3)[nH]c(=N)c2C#N)cc1

>  <score_type>  (20) 
oracle

>  <origin>  (20) 
adg

>  <m_score__min__energy>  (20) 
-7.8799999999999999

>  <m_primary>  (20) 
energy

$$$$
20:0
     RDKit          3D

 35 37  0  0  0  0  0  0  0  0999 V2000
   -9.1900   21.7580  -31.6820 C   0  0  0  0  0  0  0  0  0  0  0  0
   -7.7500   22.1630  -31.5620 C   0  0  0  0  0  0  0  0  0  0  0  0
   -6.7300   21.2700  -31.9630 C   0  0  0  0  0  0  0  0  0  0  0  0
   -5.3740   21.6410  -31.8190 C   0  0  0  0  0  0  0  0  0  0  0  0
   -4.3080   20.8130  -32.2100 O   0  0  0  0  0  0  0  0  0  0  0  0
   -4.2280   20.1060  -33.4480 C   0  0  0  0  0  0  0  0  0  0  0  0
   -5.1030   18.8810  -33.4220 C   0  0  0  0  0  0  0  0  0  0  0  0
   -5.3340   18.1600  -34.6040 C   0  0  0  0  0  0  0  0  0  0  0  0
   -6.1460   17.0250  -34.5680 C   0  0  0  0  0  0  0  0  0  0  0  0
   -6.7120   16.6160  -33.3620 C   0  0  0  0  0  0  0  0  0  0  0  0
   -6.4550   17.3480  -32.2020 C   0  0  0  0  0  0  0  0  0  0  0  0
   -5.6610   18.4530  -32.2510 N   0  0  0  0  0  0  0  0  0  0  0  0
   -5.1110   22.8570  -31.2740 N   0  0  0  0  0  0  0  0  0  0  0  0
   -3.9340   23.4600  -31.0190 C   0  0  0  0  0  0  0  0  0  0  0  0
   -4.1000   24.6830  -30.4610 N   0  0  0  0  0  0  0  0  0  0  0  0
   -5.4420   24.8370  -30.3690 C   0  0  0  0  0  0  0  0  0  0  0  0
   -6.1120   26.0500  -29.8120 C   0  0  0  0  0  0  0  0  0  0  0  0
   -6.0580   23.7120  -30.8720 C   0  0  0  0  0  0  0  0  0  0  0  0
   -7.4110   23.4040  -30.9920 C   0  0  0  0  0  0  0  0  0  0  0  0
   -9.6217   21.6366  -30.6775 H   0  0  0  0  0  0  0  0  0  0  0  0
   -9.7451   22.5349  -32.2282 H   0  0  0  0  0  0  0  0  0  0  0  0
   -9.2588   20.8057  -32.2282 H   0  0  0  0  0  0  0  0  0  0  0  0
   -6.9912   20.2888  -32.3861 H   0  0  0  0  0  0  0  0  0  0  0  0
   -4.5576   20.7673  -34.2629 H   0  0  0  0  0  0  0  0  0  0  0  0
   -3.1861   19.7916  -33.6076 H   0  0  0  0  0  0  0  0  0  0  0  0
   -4.8790   18.4866  -35.5507 H   0  0  0  0  0  0  0  0  0  0  0  0
   -6.3385   16.4551  -35.4890 H   0  0  0  0  0  0  0  0  0  0  0  0
   -7.3553   15.7245  -33.3248 H   0  0  0  0  0  0  0  0  0  0  0  0
   -6.8953   17.0313  -31.2450 H   0  0  0  0  0  0  0  0  0  0  0  0
   -5.4850   18.9780  -31.3640 H   0  0  0  0  0  0  0  0  0  0  0  0
   -2.9535   23.0121  -31.2381 H   0  0  0  0  0  0  0  0  0  0  0  0
   -6.0895   26.0092  -28.7130 H   0  0  0  0  0  0  0  0  0  0  0  0
   -5.5838   26.9513  -30.1564 H   0  0  0  0  0  0  0  0  0  0  0  0
   -7.1562   26.0828  -30.1564 H   0  0  0  0  0  0  0  0  0  0  0  0
   -8.1871   24.1061  -30.6532 H   0  0  0  0  0  0  0  0  0  0  0  0
  1  2  1  0
  2  3  1  0
  3  4  2  0
  4  5  1  0
  5  6  1  0
  6  7  1  0
  7  8  2  0
  8  9  1  0
  9 10  2  0
 10 11  1  0
 11 12  2  0
  4 13  1  0
 13 14  1  0
 14 15  2  0
 15 16  1  0
 16 17  1  0
 16 18  2  0
 18 19  1  0
 19  2  2  0
 12  7  1  0
 18 13  1  0
  1 20  1  0
  1 21  1  0
  1 22  1  0
  3 23  1  0
  6 24  1  0
  6 25  1  0
  8 26  1  0
  9 27  1  0
 10 28  1  0
 11 29  1  0
 12 30  1  0
 14 31  1  0
 17 32  1  0
 17 33  1  0
 17 34  1  0
 19 35  1  0
M  CHG  1  12   1
M  END
>  <UniqueID>  (21) 
18

>  <SMILES>  (21) 
Cc1cc(OCc2cccc[nH+]2)n2cnc(C)c2c1

>  <Energy>  (21) 
70.33027779293566

>  <Genealogy>  (21) 
Cc1cc(OCc2cccc[nH+]2)n2cnc(C)c2c1 (protonated)
Cc1cc(OCc2cccc[nH+]2)n2cnc(C)c2c1 (3D coordinates assigned)
Cc1cc(OCc2cccc[nH+]2)n2cnc(C)c2c1 (optimized conformer: 70.33027779293566 kcal/mol)

>  <smiles>  (21) 
Cc1cc(OCc2ccccn2)n2cnc(C)c2c1

>  <score_type>  (21) 
oracle

>  <origin>  (21) 
adg

>  <m_score__min__energy>  (21) 
-6.29

>  <m_primary>  (21) 
energy

$$$$
21:0
     RDKit          3D

 53 56  0  0  0  0  0  0  0  0999 V2000
    1.5590   23.5890  -26.7270 C   0  0  0  0  0  0  0  0  0  0  0  0
    1.0450   22.8950  -27.8590 O   0  0  0  0  0  0  0  0  0  0  0  0
    0.4030   21.6470  -27.8070 C   0  0  0  0  0  0  0  0  0  0  0  0
    1.1250   20.4410  -27.8980 C   0  0  0  0  0  0  0  0  0  0  0  0
    0.4620   19.2130  -27.8390 C   0  0  0  0  0  0  0  0  0  0  0  0
   -0.9230   19.1710  -27.6860 C   0  0  0  0  0  0  0  0  0  0  0  0
   -1.6530   20.3570  -27.5940 C   0  0  0  0  0  0  0  0  0  0  0  0
   -1.0050   21.6040  -27.6650 C   0  0  0  0  0  0  0  0  0  0  0  0
   -1.8270   22.8770  -27.5500 C   0  0  1  0  0  0  0  0  0  0  0  0
   -1.6340   23.4800  -26.1450 C   0  0  0  0  0  0  0  0  0  0  0  0
   -2.2440   24.8740  -26.0690 C   0  0  0  0  0  0  0  0  0  0  0  0
   -1.4920   25.8150  -27.0010 C   0  0  0  0  0  0  0  0  0  0  0  0
   -1.4000   25.2540  -28.3890 C   0  0  0  0  0  0  0  0  0  0  0  0
   -1.1660   26.0520  -29.3360 O   0  0  0  0  0  0  0  0  0  0  0  0
   -1.5120   23.8310  -28.6430 N   0  0  0  0  0  0  0  0  0  0  0  0
   -1.6280   23.3660  -30.0390 C   0  0  0  0  0  0  0  0  0  0  0  0
   -3.0480   22.9670  -30.3450 C   0  0  0  0  0  0  0  0  0  0  0  0
   -4.1040   23.8560  -30.0950 C   0  0  0  0  0  0  0  0  0  0  0  0
   -5.4170   23.5020  -30.4150 C   0  0  0  0  0  0  0  0  0  0  0  0
   -5.6970   22.2540  -30.9990 C   0  0  0  0  0  0  0  0  0  0  0  0
   -7.0930   21.8790  -31.3430 C   0  0  0  0  0  0  0  0  0  0  0  0
   -8.0630   22.8730  -31.5790 C   0  0  0  0  0  0  0  0  0  0  0  0
   -9.3770   22.5170  -31.9010 C   0  0  0  0  0  0  0  0  0  0  0  0
   -9.7370   21.1720  -31.9930 C   0  0  0  0  0  0  0  0  0  0  0  0
   -8.7830   20.1770  -31.7630 C   0  0  0  0  0  0  0  0  0  0  0  0
   -7.4690   20.5260  -31.4380 C   0  0  0  0  0  0  0  0  0  0  0  0
   -4.6350   21.3680  -31.2520 C   0  0  0  0  0  0  0  0  0  0  0  0
   -3.3220   21.7230  -30.9310 C   0  0  0  0  0  0  0  0  0  0  0  0
    1.2006   23.1051  -25.8064 H   0  0  0  0  0  0  0  0  0  0  0  0
    2.6585   23.5645  -26.7500 H   0  0  0  0  0  0  0  0  0  0  0  0
    1.2150   24.6336  -26.7500 H   0  0  0  0  0  0  0  0  0  0  0  0
    2.2183   20.4664  -28.0163 H   0  0  0  0  0  0  0  0  0  0  0  0
    1.0343   18.2765  -27.9135 H   0  0  0  0  0  0  0  0  0  0  0  0
   -1.4412   18.2019  -27.6377 H   0  0  0  0  0  0  0  0  0  0  0  0
   -2.7446   20.3165  -27.4648 H   0  0  0  0  0  0  0  0  0  0  0  0
   -2.8940   22.6386  -27.6712 H   0  0  0  0  0  0  0  0  0  0  0  0
   -2.1226   22.8311  -25.4033 H   0  0  0  0  0  0  0  0  0  0  0  0
   -0.5564   23.5536  -25.9366 H   0  0  0  0  0  0  0  0  0  0  0  0
   -3.3007   24.8276  -26.3709 H   0  0  0  0  0  0  0  0  0  0  0  0
   -2.1707   25.2479  -25.0371 H   0  0  0  0  0  0  0  0  0  0  0  0
   -2.0207   26.7788  -27.0390 H   0  0  0  0  0  0  0  0  0  0  0  0
   -0.4713   25.9443  -26.6119 H   0  0  0  0  0  0  0  0  0  0  0  0
   -1.3257   24.1775  -30.7173 H   0  0  0  0  0  0  0  0  0  0  0  0
   -0.9746   22.4922  -30.1788 H   0  0  0  0  0  0  0  0  0  0  0  0
   -3.8969   24.8378  -29.6443 H   0  0  0  0  0  0  0  0  0  0  0  0
   -6.2377   24.2047  -30.2086 H   0  0  0  0  0  0  0  0  0  0  0  0
   -7.7856   23.9352  -31.5097 H   0  0  0  0  0  0  0  0  0  0  0  0
  -10.1285   23.2995  -32.0822 H   0  0  0  0  0  0  0  0  0  0  0  0
  -10.7710   20.8951  -32.2464 H   0  0  0  0  0  0  0  0  0  0  0  0
   -9.0667   19.1169  -31.8379 H   0  0  0  0  0  0  0  0  0  0  0  0
   -6.7238   19.7378  -31.2552 H   0  0  0  0  0  0  0  0  0  0  0  0
   -4.8393   20.3873  -31.7064 H   0  0  0  0  0  0  0  0  0  0  0  0
   -2.4994   21.0230  -31.1391 H   0  0  0  0  0  0  0  0  0  0  0  0
  1  2  1  0
  2  3  1  0
  3  4  2  0
  4  5  1  0
  5  6  2  0
  6  7  1  0
  7  8  2  0
  8  9  1  0
  9 10  1  0
 10 11  1  0
 11 12  1  0
 12 13  1  0
 13 14  2  0
 13 15  1  0
 15 16  1  0
 16 17  1  0
 17 18  2  0
 18 19  1  0
 19 20  2  0
 20 21  1  0
 21 22  2  0
 22 23  1  0
 23 24  2  0
 24 25  1  0
 25 26  2  0
 20 27  1  0
 27 28  2  0
  8  3  1  0
 15  9  1  0
 28 17  1  0
 26 21  1  0
  1 29  1  0
  1 30  1  0
  1 31  1  0
  4 32  1  0
  5 33  1  0
  6 34  1  0
  7 35  1  0
  9 36  1  6
 10 37  1  0
 10 38  1  0
 11 39  1  0
 11 40  1  0
 12 41  1  0
 12 42  1  0
 16 43  1  0
 16 44  1  0
 18 45  1  0
 19 46  1  0
 22 47  1  0
 23 48  1  0
 24 49  1  0
 25 50  1  0
 26 51  1  0
 27 52  1  0
 28 53  1  0
M  END
>  <UniqueID>  (22) 
19

>  <SMILES>  (22) 
COc1ccccc1[C@H]1CCCC(=O)N1Cc1ccc(-c2ccccc2)cc1

>  <Energy>  (22) 
59.020435360795226

>  <Genealogy>  (22) 
COc1ccccc1[C@H]1CCCC(=O)N1Cc1ccc(-c2ccccc2)cc1 (chirality)
COc1ccccc1[C@H]1CCCC(=O)N1Cc1ccc(-c2ccccc2)cc1 (3D coordinates assigned)
COc1ccccc1[C@H]1CCCC(=O)N1Cc1ccc(-c2ccccc2)cc1 (nonaromatic ring conformer: 59.020435360795226 kcal/mol)

>  <smiles>  (22) 
COc1ccccc1C1CCCC(=O)N1Cc1ccc(-c2ccccc2)cc1

>  <score_type>  (22) 
oracle

>  <origin>  (22) 
adg

>  <m_score__min__energy>  (22) 
-8.5099999999999998

>  <m_primary>  (22) 
energy

$$$$
22:0
     RDKit          3D

 27 28  0  0  0  0  0  0  0  0999 V2000
   -1.0950   23.7860  -26.4460 C   0  0  0  0  0  0  0  0  0  0  0  0
   -2.4790   24.2080  -26.6120 N   0  0  0  0  0  0  0  0  0  0  0  0
   -3.0390   25.2220  -25.9800 N   0  0  0  0  0  0  0  0  0  0  0  0
   -4.3150   25.2880  -26.3340 N   0  0  0  0  0  0  0  0  0  0  0  0
   -4.6030   24.3150  -27.1880 N   0  0  0  0  0  0  0  0  0  0  0  0
   -3.4520   23.6400  -27.3460 C   0  0  0  0  0  0  0  0  0  0  0  0
   -3.2610   22.2040  -28.4070 S   0  0  0  0  0  0  0  0  0  0  0  0
   -2.1720   23.0410  -29.6110 C   0  0  0  0  0  0  0  0  0  0  0  0
   -2.4830   24.5100  -29.7060 C   0  0  0  0  0  0  0  0  0  0  0  0
   -1.7830   25.3240  -29.0490 O   0  0  0  0  0  0  0  0  0  0  0  0
   -3.5960   25.0110  -30.4620 N   0  0  0  0  0  0  0  0  0  0  0  0
   -4.8170   24.3130  -30.7290 C   0  0  0  0  0  0  0  0  0  0  0  0
   -6.0330   24.7280  -30.1650 C   0  0  0  0  0  0  0  0  0  0  0  0
   -7.2090   24.0170  -30.4250 C   0  0  0  0  0  0  0  0  0  0  0  0
   -7.1720   22.8770  -31.2350 C   0  0  0  0  0  0  0  0  0  0  0  0
   -8.7780   21.9050  -31.5880 Br  0  0  0  0  0  0  0  0  0  0  0  0
   -5.9570   22.4410  -31.7710 C   0  0  0  0  0  0  0  0  0  0  0  0
   -4.7810   23.1510  -31.5100 C   0  0  0  0  0  0  0  0  0  0  0  0
   -0.8596   23.7142  -25.3739 H   0  0  0  0  0  0  0  0  0  0  0  0
   -0.9520   22.8034  -26.9194 H   0  0  0  0  0  0  0  0  0  0  0  0
   -0.4281   24.5216  -26.9194 H   0  0  0  0  0  0  0  0  0  0  0  0
   -1.1261   22.9167  -29.2939 H   0  0  0  0  0  0  0  0  0  0  0  0
   -2.3374   22.5881  -30.5997 H   0  0  0  0  0  0  0  0  0  0  0  0
   -6.0614   25.6157  -29.5160 H   0  0  0  0  0  0  0  0  0  0  0  0
   -8.1627   24.3541  -29.9927 H   0  0  0  0  0  0  0  0  0  0  0  0
   -5.9259   21.5383  -32.3989 H   0  0  0  0  0  0  0  0  0  0  0  0
   -3.8240   22.7956  -31.9196 H   0  0  0  0  0  0  0  0  0  0  0  0
  1  2  1  0
  2  3  1  0
  3  4  2  0
  4  5  1  0
  5  6  2  0
  6  7  1  0
  7  8  1  0
  8  9  1  0
  9 10  2  0
  9 11  1  0
 11 12  1  0
 12 13  2  0
 13 14  1  0
 14 15  2  0
 15 16  1  0
 15 17  1  0
 17 18  2  0
  6  2  1  0
 18 12  1  0
  1 19  1  0
  1 20  1  0
  1 21  1  0
  8 22  1  0
  8 23  1  0
 13 24  1  0
 14 25  1  0
 17 26  1  0
 18 27  1  0
M  CHG  1  11  -1
M  END
>  <UniqueID>  (23) 
20

>  <SMILES>  (23) 
Cn1nnnc1SCC(=O)[N-]c1ccc(Br)cc1

>  <Energy>  (23) 
67.02783104003348

>  <Genealogy>  (23) 
Cn1nnnc1SCC(=O)[N-]c1ccc(Br)cc1 (protonated)
Cn1nnnc1SCC(=O)[N-]c1ccc(Br)cc1 (3D coordinates assigned)
Cn1nnnc1SCC(=O)[N-]c1ccc(Br)cc1 (optimized conformer: 67.02783104003348 kcal/mol)

>  <smiles>  (23) 
Cn1nnnc1SCC(=O)Nc1ccc(Br)cc1

>  <score_type>  (23) 
oracle

>  <origin>  (23) 
adg

>  <m_score__min__energy>  (23) 
-9.3100000000000005

>  <m_primary>  (23) 
energy

$$$$
23:0
     RDKit          3D

 48 50  0  0  0  0  0  0  0  0999 V2000
   -7.5770   17.8450  -31.9990 C   0  0  0  0  0  0  0  0  0  0  0  0
   -7.3000   19.0510  -32.8890 C   0  0  0  0  0  0  0  0  0  0  0  0
   -7.9200   20.2510  -32.3260 N   0  0  0  0  0  0  0  0  0  0  0  0
   -9.2270   20.4020  -32.0500 C   0  0  0  0  0  0  0  0  0  0  0  0
   -9.4270   21.6910  -31.6110 C   0  0  0  0  0  0  0  0  0  0  0  0
   -8.2560   22.3580  -31.6210 N   0  0  0  0  0  0  0  0  0  0  0  0
   -7.3590   21.4570  -32.0730 C   0  0  0  0  0  0  0  0  0  0  0  0
   -5.8980   21.7740  -32.2120 C   0  0  0  0  0  0  0  0  0  0  0  0
   -5.5330   22.8560  -31.2720 N   0  0  0  0  0  0  0  0  0  0  0  0
   -5.7430   24.1750  -31.8850 C   0  0  0  0  0  0  0  0  0  0  0  0
   -5.4270   25.2620  -30.8620 C   0  0  0  0  0  0  0  0  0  0  0  0
   -4.0940   25.1930  -30.3870 O   0  0  0  0  0  0  0  0  0  0  0  0
   -3.7200   23.9030  -29.9170 C   0  0  1  0  0  0  0  0  0  0  0  0
   -4.0500   23.6790  -28.4200 C   0  0  0  0  0  0  0  0  0  0  0  0
   -3.0020   24.1430  -27.5050 N   0  0  0  0  0  0  0  0  0  0  0  0
   -3.0520   25.2870  -26.8410 N   0  0  0  0  0  0  0  0  0  0  0  0
   -1.9660   25.3720  -26.0510 C   0  0  0  0  0  0  0  0  0  0  0  0
   -1.6290   26.5530  -25.2030 C   0  0  0  0  0  0  0  0  0  0  0  0
   -1.1890   24.2410  -26.2120 C   0  0  0  0  0  0  0  0  0  0  0  0
   -1.8850   23.4760  -27.1320 C   0  0  0  0  0  0  0  0  0  0  0  0
   -1.4730   22.1250  -27.6280 C   0  0  0  0  0  0  0  0  0  0  0  0
   -4.1260   22.7440  -30.8590 C   0  0  0  0  0  0  0  0  0  0  0  0
   -7.5081   18.1451  -30.9430 H   0  0  0  0  0  0  0  0  0  0  0  0
   -8.5868   17.4608  -32.2059 H   0  0  0  0  0  0  0  0  0  0  0  0
   -6.8361   17.0587  -32.2059 H   0  0  0  0  0  0  0  0  0  0  0  0
   -6.2134   19.2050  -32.9636 H   0  0  0  0  0  0  0  0  0  0  0  0
   -7.7236   18.8641  -33.8868 H   0  0  0  0  0  0  0  0  0  0  0  0
  -10.0024   19.6291  -32.1566 H   0  0  0  0  0  0  0  0  0  0  0  0
  -10.3943   22.1122  -31.2997 H   0  0  0  0  0  0  0  0  0  0  0  0
   -5.3053   20.8758  -31.9841 H   0  0  0  0  0  0  0  0  0  0  0  0
   -5.6915   22.1001  -33.2421 H   0  0  0  0  0  0  0  0  0  0  0  0
   -5.0797   24.2855  -32.7555 H   0  0  0  0  0  0  0  0  0  0  0  0
   -6.7897   24.2679  -32.2103 H   0  0  0  0  0  0  0  0  0  0  0  0
   -5.5829   26.2442  -31.3322 H   0  0  0  0  0  0  0  0  0  0  0  0
   -6.0953   25.1133  -30.0010 H   0  0  0  0  0  0  0  0  0  0  0  0
   -2.6209   23.8835  -29.9578 H   0  0  0  0  0  0  0  0  0  0  0  0
   -4.9789   24.2195  -28.1854 H   0  0  0  0  0  0  0  0  0  0  0  0
   -4.1448   22.5930  -28.2728 H   0  0  0  0  0  0  0  0  0  0  0  0
   -3.8220   25.9870  -26.9110 H   0  0  0  0  0  0  0  0  0  0  0  0
   -1.7079   26.2765  -24.1412 H   0  0  0  0  0  0  0  0  0  0  0  0
   -0.6017   26.8800  -25.4214 H   0  0  0  0  0  0  0  0  0  0  0  0
   -2.3290   27.3729  -25.4214 H   0  0  0  0  0  0  0  0  0  0  0  0
   -0.2341   24.0026  -25.7207 H   0  0  0  0  0  0  0  0  0  0  0  0
   -1.2719   21.4654  -26.7710 H   0  0  0  0  0  0  0  0  0  0  0  0
   -2.2813   21.6964  -28.2387 H   0  0  0  0  0  0  0  0  0  0  0  0
   -0.5631   22.2204  -28.2387 H   0  0  0  0  0  0  0  0  0  0  0  0
   -3.4871   22.7698  -31.7541 H   0  0  0  0  0  0  0  0  0  0  0  0
   -3.9990   21.7958  -30.3160 H   0  0  0  0  0  0  0  0  0  0  0  0
  1  2  1  0
  2  3  1  0
  3  4  1  0
  4  5  2  0
  5  6  1  0
  6  7  2  0
  7  8  1  0
  8  9  1  0
  9 10  1  0
 10 11  1  0
 11 12  1  0
 12 13  1  0
 13 14  1  0
 14 15  1  0
 15 16  1  0
 16 17  2  0
 17 18  1  0
 17 19  1  0
 19 20  2  0
 20 21  1  0
 13 22  1  0
  7  3  1  0
 22  9  1  0
 20 15  1  0
  1 23  1  0
  1 24  1  0
  1 25  1  0
  2 26  1  0
  2 27  1  0
  4 28  1  0
  5 29  1  0
  8 30  1  0
  8 31  1  0
 10 32  1  0
 10 33  1  0
 11 34  1  0
 11 35  1  0
 13 36  1  1
 14 37  1  0
 14 38  1  0
 16 39  1  0
 18 40  1  0
 18 41  1  0
 18 42  1  0
 19 43  1  0
 21 44  1  0
 21 45  1  0
 21 46  1  0
 22 47  1  0
 22 48  1  0
M  CHG  1  16   1
M  END
>  <UniqueID>  (24) 
21

>  <SMILES>  (24) 
CCn1ccnc1CN1CCO[C@@H](Cn2[nH+]c(C)cc2C)C1

>  <Energy>  (24) 
106.56925464136981

>  <Genealogy>  (24) 
CCn1ccnc1CN1CCOC(Cn2[nH+]c(C)cc2C)C1 (protonated)
CCn1ccnc1CN1CCO[C@@H](Cn2[nH+]c(C)cc2C)C1 (chirality)
CCn1ccnc1CN1CCO[C@@H](Cn2[nH+]c(C)cc2C)C1 (3D coordinates assigned)
CCn1ccnc1CN1CCO[C@@H](Cn2[nH+]c(C)cc2C)C1 (nonaromatic ring conformer: 106.56925464136981 kcal/mol)

>  <smiles>  (24) 
CCn1ccnc1CN1CCOC(Cn2nc(C)cc2C)C1

>  <score_type>  (24) 
oracle

>  <origin>  (24) 
adg

>  <m_score__min__energy>  (24) 
-7.8099999999999996

>  <m_primary>  (24) 
energy

$$$$
24:0
     RDKit          3D

 47 50  0  0  0  0  0  0  0  0999 V2000
   -0.2703   25.1247  -27.8907 H   0  0  0  0  0  0  0  0  0  0  0  0
   -1.3130   24.8900  -28.1510 C   0  0  0  0  0  0  0  0  0  0  0  0
   -1.8840   25.3010  -29.3150 N   0  0  0  0  0  0  0  0  0  0  0  0
   -3.1710   24.9070  -29.4100 C   0  0  0  0  0  0  0  0  0  0  0  0
   -3.8930   25.1560  -30.4630 N   0  0  0  0  0  0  0  0  0  0  0  0
   -5.2770   24.8290  -30.6520 C   0  0  0  0  0  0  0  0  0  0  0  0
   -6.0330   25.6840  -31.1870 O   0  0  0  0  0  0  0  0  0  0  0  0
   -5.8580   23.5230  -30.1820 C   0  0  0  0  0  0  0  0  0  0  0  0
   -6.9417   23.6425  -30.0358 H   0  0  0  0  0  0  0  0  0  0  0  0
   -5.3719   23.2417  -29.2362 H   0  0  0  0  0  0  0  0  0  0  0  0
   -5.6140   22.4340  -31.1910 C   0  0  0  0  0  0  0  0  0  0  0  0
   -6.5580   21.8170  -32.0160 C   0  0  0  0  0  0  0  0  0  0  0  0
   -8.0380   22.0670  -31.9720 C   0  0  0  0  0  0  0  0  0  0  0  0
   -8.3694   22.1230  -30.9246 H   0  0  0  0  0  0  0  0  0  0  0  0
   -8.2648   23.0162  -32.4796 H   0  0  0  0  0  0  0  0  0  0  0  0
   -8.5640   21.2450  -32.4796 H   0  0  0  0  0  0  0  0  0  0  0  0
   -5.9560   20.8950  -32.8150 N   0  0  0  0  0  0  0  0  0  0  0  0
   -6.6120   20.0400  -33.8130 C   0  0  0  0  0  0  0  0  0  0  0  0
   -7.7022   20.1610  -33.7302 H   0  0  0  0  0  0  0  0  0  0  0  0
   -6.2673   20.3395  -34.8137 H   0  0  0  0  0  0  0  0  0  0  0  0
   -6.2580   18.5900  -33.5950 C   0  0  0  0  0  0  0  0  0  0  0  0
   -5.8050   17.7990  -34.6650 C   0  0  0  0  0  0  0  0  0  0  0  0
   -5.7128   18.2380  -35.6694 H   0  0  0  0  0  0  0  0  0  0  0  0
   -5.4710   16.4570  -34.4590 C   0  0  0  0  0  0  0  0  0  0  0  0
   -5.1227   15.8420  -35.3019 H   0  0  0  0  0  0  0  0  0  0  0  0
   -5.5790   15.8960  -33.1840 C   0  0  0  0  0  0  0  0  0  0  0  0
   -5.2560   14.5940  -32.9860 F   0  0  0  0  0  0  0  0  0  0  0  0
   -6.0180   16.6780  -32.1120 C   0  0  0  0  0  0  0  0  0  0  0  0
   -6.1009   16.2365  -31.1079 H   0  0  0  0  0  0  0  0  0  0  0  0
   -6.3520   18.0210  -32.3140 C   0  0  0  0  0  0  0  0  0  0  0  0
   -6.6899   18.6346  -31.4659 H   0  0  0  0  0  0  0  0  0  0  0  0
   -4.6350   20.9570  -32.5270 C   0  0  0  0  0  0  0  0  0  0  0  0
   -3.5890   20.2280  -33.1020 C   0  0  0  0  0  0  0  0  0  0  0  0
   -3.7851   19.4813  -33.8856 H   0  0  0  0  0  0  0  0  0  0  0  0
   -2.2810   20.4750  -32.6520 C   0  0  0  0  0  0  0  0  0  0  0  0
   -1.4398   19.9217  -33.0949 H   0  0  0  0  0  0  0  0  0  0  0  0
   -2.0340   21.4280  -31.6350 C   0  0  0  0  0  0  0  0  0  0  0  0
   -0.6290   21.7130  -31.1970 C   0  0  0  0  0  0  0  0  0  0  0  0
   -0.5823   21.7225  -30.0980 H   0  0  0  0  0  0  0  0  0  0  0  0
    0.0417   20.9326  -31.5858 H   0  0  0  0  0  0  0  0  0  0  0  0
   -0.3154   22.6931  -31.5858 H   0  0  0  0  0  0  0  0  0  0  0  0
   -3.1070   22.1580  -31.0840 C   0  0  0  0  0  0  0  0  0  0  0  0
   -2.9329   22.9203  -30.3103 H   0  0  0  0  0  0  0  0  0  0  0  0
   -4.3950   21.8880  -31.5460 C   0  0  0  0  0  0  0  0  0  0  0  0
   -3.6420   24.0070  -28.0610 S   0  0  0  0  0  0  0  0  0  0  0  0
   -2.1420   24.1520  -27.3140 C   0  0  0  0  0  0  0  0  0  0  0  0
   -1.8653   23.7356  -26.3342 H   0  0  0  0  0  0  0  0  0  0  0  0
  1  2  1  0
  2  3  1  0
  3  4  1  0
  4  5  2  0
  5  6  1  0
  6  7  2  0
  6  8  1  0
  8  9  1  0
  8 10  1  0
  8 11  1  0
 11 12  2  0
 12 13  1  0
 13 14  1  0
 13 15  1  0
 13 16  1  0
 12 17  1  0
 17 18  1  0
 18 19  1  0
 18 20  1  0
 18 21  1  0
 21 22  2  0
 22 23  1  0
 22 24  1  0
 24 25  1  0
 24 26  2  0
 26 27  1  0
 26 28  1  0
 28 29  1  0
 28 30  2  0
 30 31  1  0
 17 32  1  0
 32 33  2  0
 33 34  1  0
 33 35  1  0
 35 36  1  0
 35 37  2  0
 37 38  1  0
 38 39  1  0
 38 40  1  0
 38 41  1  0
 37 42  1  0
 42 43  1  0
 42 44  2  0
  4 45  1  0
 45 46  1  0
 46 47  1  0
 46  2  2  0
 44 11  1  0
 30 21  1  0
 44 32  1  0
M  CHG  1   3  -1
M  END
>  <UniqueID>  (25) 
22

>  <SMILES>  (25) 
Cc1ccc2c(c1)c(CC(=O)/N=c1/[n-]ccs1)c(C)n2Cc1ccc(F)cc1

>  <Energy>  (25) 
117.98054178225881

>  <Genealogy>  (25) 
Cc1ccc2c(c1)c(CC(=O)N=c1[n-]ccs1)c(C)n2Cc1ccc(F)cc1 (protonated)
Cc1ccc2c(c1)c(CC(=O)/N=c1/[n-]ccs1)c(C)n2Cc1ccc(F)cc1 (cis-trans isomerization)
Cc1ccc2c(c1)c(CC(=O)/N=c1/[n-]ccs1)c(C)n2Cc1ccc(F)cc1 (3D coordinates assigned)
Cc1ccc2c(c1)c(CC(=O)/N=c1/[n-]ccs1)c(C)n2Cc1ccc(F)cc1 (optimized conformer: 117.98054178225881 kcal/mol)

>  <smiles>  (25) 
Cc1ccc2c(c1)c(CC(=O)N=c1[nH]ccs1)c(C)n2Cc1ccc(F)cc1

>  <score_type>  (25) 
oracle

>  <origin>  (25) 
adg

>  <m_score__min__energy>  (25) 
-11.19

>  <m_primary>  (25) 
energy

$$$$
25:0
     RDKit          3D

 55 58  0  0  0  0  0  0  0  0999 V2000
   -1.5160   17.4790  -33.5760 C   0  0  0  0  0  0  0  0  0  0  0  0
   -2.5470   16.4310  -33.1640 C   0  0  0  0  0  0  0  0  0  0  0  0
   -3.3130   15.9670  -34.3420 N   0  0  0  0  0  0  0  0  0  0  0  0
   -3.6040   17.0670  -35.3040 C   0  0  0  0  0  0  0  0  0  0  0  0
   -5.0780   17.5190  -35.3200 C   0  0  0  0  0  0  0  0  0  0  0  0
   -5.6700   17.3840  -33.9880 N   0  0  0  0  0  0  0  0  0  0  0  0
   -6.1910   18.5350  -33.3080 C   0  0  0  0  0  0  0  0  0  0  0  0
   -7.5580   18.6240  -32.9950 C   0  0  0  0  0  0  0  0  0  0  0  0
   -8.0380   19.7890  -32.3580 C   0  0  0  0  0  0  0  0  0  0  0  0
   -9.4880   19.9120  -32.0150 C   0  0  0  0  0  0  0  0  0  0  0  0
   -7.1800   20.8050  -32.0500 N   0  0  0  0  0  0  0  0  0  0  0  0
   -5.8690   20.6820  -32.3740 C   0  0  0  0  0  0  0  0  0  0  0  0
   -4.8340   21.5600  -32.1060 C   0  0  0  0  0  0  0  0  0  0  0  0
   -4.9220   22.8780  -31.4390 C   0  0  0  0  0  0  0  0  0  0  0  0
   -6.1000   23.6400  -31.5100 C   0  0  0  0  0  0  0  0  0  0  0  0
   -6.1710   24.8880  -30.8860 C   0  0  0  0  0  0  0  0  0  0  0  0
   -5.0670   25.3890  -30.1940 C   0  0  0  0  0  0  0  0  0  0  0  0
   -3.8810   24.6520  -30.1180 C   0  0  0  0  0  0  0  0  0  0  0  0
   -2.7990   25.2030  -29.4170 O   0  0  0  0  0  0  0  0  0  0  0  0
   -2.1850   24.6010  -28.2810 C   0  0  0  0  0  0  0  0  0  0  0  0
   -3.8130   23.3920  -30.7450 C   0  0  0  0  0  0  0  0  0  0  0  0
   -3.7080   20.8890  -32.6020 C   0  0  0  0  0  0  0  0  0  0  0  0
   -2.2910   21.3660  -32.5790 C   0  0  0  0  0  0  0  0  0  0  0  0
   -4.0820   19.6900  -33.1050 N   0  0  0  0  0  0  0  0  0  0  0  0
   -5.3930   19.5820  -32.9710 N   0  0  0  0  0  0  0  0  0  0  0  0
   -5.5570   16.1100  -33.2740 C   0  0  0  0  0  0  0  0  0  0  0  0
   -4.5190   15.2040  -33.9520 C   0  0  0  0  0  0  0  0  0  0  0  0
   -1.0721   17.9302  -32.6763 H   0  0  0  0  0  0  0  0  0  0  0  0
   -0.7263   17.0011  -34.1743 H   0  0  0  0  0  0  0  0  0  0  0  0
   -2.0068   18.2608  -34.1743 H   0  0  0  0  0  0  0  0  0  0  0  0
   -2.0298   15.5740  -32.7079 H   0  0  0  0  0  0  0  0  0  0  0  0
   -3.2434   16.8816  -32.4415 H   0  0  0  0  0  0  0  0  0  0  0  0
   -2.9805   17.9329  -35.0368 H   0  0  0  0  0  0  0  0  0  0  0  0
   -3.3823   16.6759  -36.3079 H   0  0  0  0  0  0  0  0  0  0  0  0
   -5.1304   18.5718  -35.6345 H   0  0  0  0  0  0  0  0  0  0  0  0
   -5.6370   16.8848  -36.0238 H   0  0  0  0  0  0  0  0  0  0  0  0
   -8.2429   17.7995  -33.2422 H   0  0  0  0  0  0  0  0  0  0  0  0
   -9.6065   19.9221  -30.9215 H   0  0  0  0  0  0  0  0  0  0  0  0
   -9.8862   20.8472  -32.4356 H   0  0  0  0  0  0  0  0  0  0  0  0
  -10.0381   19.0573  -32.4356 H   0  0  0  0  0  0  0  0  0  0  0  0
   -6.9705   23.2523  -32.0594 H   0  0  0  0  0  0  0  0  0  0  0  0
   -7.0985   25.4769  -30.9401 H   0  0  0  0  0  0  0  0  0  0  0  0
   -5.1305   26.3719  -29.7043 H   0  0  0  0  0  0  0  0  0  0  0  0
   -2.6174   25.0250  -27.3627 H   0  0  0  0  0  0  0  0  0  0  0  0
   -2.3605   23.5153  -28.3016 H   0  0  0  0  0  0  0  0  0  0  0  0
   -1.1030   24.7979  -28.3016 H   0  0  0  0  0  0  0  0  0  0  0  0
   -2.8840   22.8055  -30.6909 H   0  0  0  0  0  0  0  0  0  0  0  0
   -1.9587   21.4779  -31.5364 H   0  0  0  0  0  0  0  0  0  0  0  0
   -1.6494   20.6343  -33.0918 H   0  0  0  0  0  0  0  0  0  0  0  0
   -2.2225   22.3367  -33.0918 H   0  0  0  0  0  0  0  0  0  0  0  0
   -3.4500   18.9600  -33.5020 H   0  0  0  0  0  0  0  0  0  0  0  0
   -5.2466   16.3028  -32.2365 H   0  0  0  0  0  0  0  0  0  0  0  0
   -6.5343   15.6053  -33.2898 H   0  0  0  0  0  0  0  0  0  0  0  0
   -4.2279   14.4066  -33.2524 H   0  0  0  0  0  0  0  0  0  0  0  0
   -4.9699   14.7788  -34.8608 H   0  0  0  0  0  0  0  0  0  0  0  0
  1  2  1  0
  2  3  1  0
  3  4  1  0
  4  5  1  0
  5  6  1  0
  6  7  1  0
  7  8  2  0
  8  9  1  0
  9 10  1  0
  9 11  2  0
 11 12  1  0
 12 13  2  0
 13 14  1  0
 14 15  2  0
 15 16  1  0
 16 17  2  0
 17 18  1  0
 18 19  1  0
 19 20  1  0
 18 21  2  0
 13 22  1  0
 22 23  1  0
 22 24  2  0
 24 25  1  0
  6 26  1  0
 26 27  1  0
 27  3  1  0
 25  7  1  0
 25 12  1  0
 21 14  1  0
  1 28  1  0
  1 29  1  0
  1 30  1  0
  2 31  1  0
  2 32  1  0
  4 33  1  0
  4 34  1  0
  5 35  1  0
  5 36  1  0
  8 37  1  0
 10 38  1  0
 10 39  1  0
 10 40  1  0
 15 41  1  0
 16 42  1  0
 17 43  1  0
 20 44  1  0
 20 45  1  0
 20 46  1  0
 21 47  1  0
 23 48  1  0
 23 49  1  0
 23 50  1  0
 24 51  1  0
 26 52  1  0
 26 53  1  0
 27 54  1  0
 27 55  1  0
M  CHG  1  24   1
M  END
>  <UniqueID>  (26) 
23

>  <SMILES>  (26) 
CCN1CCN(c2cc(C)nc3c(-c4cccc(OC)c4)c(C)[nH+]n23)CC1

>  <Energy>  (26) 
108.32341908535098

>  <Genealogy>  (26) 
CCN1CCN(c2cc(C)nc3c(-c4cccc(OC)c4)c(C)[nH+]n23)CC1 (protonated)
CCN1CCN(c2cc(C)nc3c(-c4cccc(OC)c4)c(C)[nH+]n23)CC1 (3D coordinates assigned)
CCN1CCN(c2cc(C)nc3c(-c4cccc(OC)c4)c(C)[nH+]n23)CC1 (nonaromatic ring conformer: 108.32341908535098 kcal/mol)

>  <smiles>  (26) 
CCN1CCN(c2cc(C)nc3c(-c4cccc(OC)c4)c(C)nn23)CC1

>  <score_type>  (26) 
oracle

>  <origin>  (26) 
adg

>  <m_score__min__energy>  (26) 
-9.0199999999999996

>  <m_primary>  (26) 
energy

$$$$
26:0
     RDKit          3D

 72 75  0  0  0  0  0  0  0  0999 V2000
   -6.9850   20.0260  -33.3370 C   0  0  0  0  0  0  0  0  0  0  0  0
   -5.8100   19.0870  -33.3640 C   0  0  0  0  0  0  0  0  0  0  0  0
   -6.0530   17.7020  -33.5290 C   0  0  0  0  0  0  0  0  0  0  0  0
   -4.9930   16.7580  -33.6580 C   0  0  0  0  0  0  0  0  0  0  0  0
   -5.2380   15.2410  -33.8070 C   0  0  0  0  0  0  0  0  0  0  0  0
   -4.9870   14.4510  -32.4990 C   0  0  0  0  0  0  0  0  0  0  0  0
   -6.7040   14.9940  -34.2290 C   0  0  0  0  0  0  0  0  0  0  0  0
   -4.2890   14.6730  -34.8850 C   0  0  0  0  0  0  0  0  0  0  0  0
   -3.6640   17.2440  -33.6470 C   0  0  0  0  0  0  0  0  0  0  0  0
   -3.4440   18.6030  -33.4770 C   0  0  0  0  0  0  0  0  0  0  0  0
   -2.2470   19.2040  -33.4140 N   0  0  0  0  0  0  0  0  0  0  0  0
   -2.5560   20.5010  -33.1780 C   0  0  0  0  0  0  0  0  0  0  0  0
   -1.5070   21.5790  -33.0330 C   0  0  0  0  0  0  0  0  0  0  0  0
   -1.0950   21.8620  -31.5770 C   0  0  0  0  0  0  0  0  0  0  0  0
   -0.5970   20.6260  -30.8640 C   0  0  0  0  0  0  0  0  0  0  0  0
    0.2320   19.7080  -31.5280 C   0  0  0  0  0  0  0  0  0  0  0  0
    0.6830   18.5590  -30.8720 C   0  0  0  0  0  0  0  0  0  0  0  0
    0.3150   18.3070  -29.5370 C   0  0  0  0  0  0  0  0  0  0  0  0
    0.7800   17.0790  -28.8390 C   0  0  0  0  0  0  0  0  0  0  0  0
    0.9770   17.0800  -27.4440 C   0  0  0  0  0  0  0  0  0  0  0  0
    1.4170   15.9260  -26.7890 C   0  0  0  0  0  0  0  0  0  0  0  0
    1.6610   14.7570  -27.5130 C   0  0  0  0  0  0  0  0  0  0  0  0
    1.4660   14.7410  -28.8960 C   0  0  0  0  0  0  0  0  0  0  0  0
    1.0280   15.8930  -29.5580 C   0  0  0  0  0  0  0  0  0  0  0  0
   -0.5140   19.2310  -28.8760 C   0  0  0  0  0  0  0  0  0  0  0  0
   -0.9700   20.3750  -29.5350 C   0  0  0  0  0  0  0  0  0  0  0  0
   -3.9000   20.7290  -33.1120 N   0  0  0  0  0  0  0  0  0  0  0  0
   -4.5250   22.0020  -32.7210 C   0  0  0  0  0  0  0  0  0  0  0  0
   -4.8620   22.0340  -31.2220 C   0  0  0  0  0  0  0  0  0  0  0  0
   -3.7200   22.5160  -30.4350 N   0  0  0  0  0  0  0  0  0  0  0  0
   -4.1080   22.8730  -29.0580 C   0  0  0  0  0  0  0  0  0  0  0  0
   -3.0570   23.7960  -28.4310 C   0  0  0  0  0  0  0  0  0  0  0  0
   -2.6890   24.9210  -29.3450 C   0  0  0  0  0  0  0  0  0  0  0  0
   -1.6350   25.5800  -29.1460 O   0  0  0  0  0  0  0  0  0  0  0  0
   -3.5260   25.2620  -30.4010 O   0  0  0  0  0  0  0  0  0  0  0  0
   -4.4580   19.5060  -33.3120 C   0  0  0  0  0  0  0  0  0  0  0  0
   -7.2568   20.2432  -32.2935 H   0  0  0  0  0  0  0  0  0  0  0  0
   -6.7180   20.9623  -33.8489 H   0  0  0  0  0  0  0  0  0  0  0  0
   -7.8394   19.5591  -33.8489 H   0  0  0  0  0  0  0  0  0  0  0  0
   -7.0924   17.3433  -33.5586 H   0  0  0  0  0  0  0  0  0  0  0  0
   -5.1928   15.0988  -31.6341 H   0  0  0  0  0  0  0  0  0  0  0  0
   -5.6509   13.5745  -32.4669 H   0  0  0  0  0  0  0  0  0  0  0  0
   -3.9390   14.1185  -32.4669 H   0  0  0  0  0  0  0  0  0  0  0  0
   -7.3311   14.8883  -33.3314 H   0  0  0  0  0  0  0  0  0  0  0  0
   -7.0614   15.8446  -34.8280 H   0  0  0  0  0  0  0  0  0  0  0  0
   -6.7630   14.0733  -34.8280 H   0  0  0  0  0  0  0  0  0  0  0  0
   -3.4426   14.1664  -34.3982 H   0  0  0  0  0  0  0  0  0  0  0  0
   -4.8355   13.9534  -35.5123 H   0  0  0  0  0  0  0  0  0  0  0  0
   -3.9130   15.4947  -35.5123 H   0  0  0  0  0  0  0  0  0  0  0  0
   -2.8169   16.5535  -33.7716 H   0  0  0  0  0  0  0  0  0  0  0  0
   -0.6118   21.2674  -33.5912 H   0  0  0  0  0  0  0  0  0  0  0  0
   -1.9493   22.5072  -33.4241 H   0  0  0  0  0  0  0  0  0  0  0  0
   -0.2936   22.6155  -31.5776 H   0  0  0  0  0  0  0  0  0  0  0  0
   -1.9869   22.2193  -31.0415 H   0  0  0  0  0  0  0  0  0  0  0  0
    0.5285   19.8940  -32.5708 H   0  0  0  0  0  0  0  0  0  0  0  0
    1.3307   17.8461  -31.4033 H   0  0  0  0  0  0  0  0  0  0  0  0
    0.7832   17.9956  -26.8659 H   0  0  0  0  0  0  0  0  0  0  0  0
    1.5715   15.9388  -25.7000 H   0  0  0  0  0  0  0  0  0  0  0  0
    2.0062   13.8502  -26.9949 H   0  0  0  0  0  0  0  0  0  0  0  0
    1.6574   13.8200  -29.4662 H   0  0  0  0  0  0  0  0  0  0  0  0
    0.8762   15.8727  -30.6473 H   0  0  0  0  0  0  0  0  0  0  0  0
   -0.8059   19.0512  -27.8308 H   0  0  0  0  0  0  0  0  0  0  0  0
   -1.6259   21.0839  -29.0085 H   0  0  0  0  0  0  0  0  0  0  0  0
   -3.8305   22.8244  -32.9477 H   0  0  0  0  0  0  0  0  0  0  0  0
   -5.4629   22.1106  -33.2853 H   0  0  0  0  0  0  0  0  0  0  0  0
   -5.7187   22.7047  -31.0604 H   0  0  0  0  0  0  0  0  0  0  0  0
   -5.1052   21.0119  -30.8961 H   0  0  0  0  0  0  0  0  0  0  0  0
   -3.3510   23.3790  -30.9020 H   0  0  0  0  0  0  0  0  0  0  0  0
   -5.0792   23.3892  -29.0770 H   0  0  0  0  0  0  0  0  0  0  0  0
   -4.1810   21.9543  -28.4575 H   0  0  0  0  0  0  0  0  0  0  0  0
   -3.4617   24.2137  -27.4973 H   0  0  0  0  0  0  0  0  0  0  0  0
   -2.1515   23.2018  -28.2387 H   0  0  0  0  0  0  0  0  0  0  0  0
  1  2  1  0
  2  3  2  0
  3  4  1  0
  4  5  1  0
  5  6  1  0
  5  7  1  0
  5  8  1  0
  4  9  2  0
  9 10  1  0
 10 11  1  0
 11 12  2  0
 12 13  1  0
 13 14  1  0
 14 15  1  0
 15 16  2  0
 16 17  1  0
 17 18  2  0
 18 19  1  0
 19 20  2  0
 20 21  1  0
 21 22  2  0
 22 23  1  0
 23 24  2  0
 18 25  1  0
 25 26  2  0
 12 27  1  0
 27 28  1  0
 28 29  1  0
 29 30  1  0
 30 31  1  0
 31 32  1  0
 32 33  1  0
 33 34  2  0
 33 35  1  0
 27 36  1  0
 36  2  1  0
 36 10  2  0
 26 15  1  0
 24 19  1  0
  1 37  1  0
  1 38  1  0
  1 39  1  0
  3 40  1  0
  6 41  1  0
  6 42  1  0
  6 43  1  0
  7 44  1  0
  7 45  1  0
  7 46  1  0
  8 47  1  0
  8 48  1  0
  8 49  1  0
  9 50  1  0
 13 51  1  0
 13 52  1  0
 14 53  1  0
 14 54  1  0
 16 55  1  0
 17 56  1  0
 20 57  1  0
 21 58  1  0
 22 59  1  0
 23 60  1  0
 24 61  1  0
 25 62  1  0
 26 63  1  0
 28 64  1  0
 28 65  1  0
 29 66  1  0
 29 67  1  0
 30 68  1  0
 31 69  1  0
 31 70  1  0
 32 71  1  0
 32 72  1  0
M  CHG  1  35  -1
M  END
>  <UniqueID>  (27) 
24

>  <SMILES>  (27) 
Cc1cc(C(C)(C)C)cc2nc(CCc3ccc(-c4ccccc4)cc3)n(CCNCCC(=O)[O-])c12

>  <Energy>  (27) 
116.09207118549953

>  <Genealogy>  (27) 
Cc1cc(C(C)(C)C)cc2nc(CCc3ccc(-c4ccccc4)cc3)n(CCNCCC(=O)[O-])c12 (protonated)
Cc1cc(C(C)(C)C)cc2nc(CCc3ccc(-c4ccccc4)cc3)n(CCNCCC(=O)[O-])c12 (3D coordinates assigned)
Cc1cc(C(C)(C)C)cc2nc(CCc3ccc(-c4ccccc4)cc3)n(CCNCCC(=O)[O-])c12 (optimized conformer: 116.09207118549953 kcal/mol)

>  <smiles>  (27) 
Cc1cc(C(C)(C)C)cc2nc(CCc3ccc(-c4ccccc4)cc3)n(CCNCCC(=O)O)c12

>  <score_type>  (27) 
oracle

>  <origin>  (27) 
adg

>  <m_score__min__energy>  (27) 
-12.51

>  <m_primary>  (27) 
energy

$$$$
27:0
     RDKit          3D

 31 32  0  0  0  0  0  0  0  0999 V2000
   -7.7590   18.2720  -32.0780 C   0  0  0  0  0  0  0  0  0  0  0  0
   -8.1150   19.7010  -32.1220 N   0  0  0  0  0  0  0  0  0  0  0  0
   -9.4860   19.8500  -32.6340 C   0  0  0  0  0  0  0  0  0  0  0  0
   -7.1720   20.4510  -32.9780 C   0  0  0  0  0  0  0  0  0  0  0  0
   -6.1650   21.1910  -32.1380 C   0  0  0  0  0  0  0  0  0  0  0  0
   -4.8310   20.7620  -32.1000 C   0  0  0  0  0  0  0  0  0  0  0  0
   -3.8860   21.4540  -31.3370 C   0  0  0  0  0  0  0  0  0  0  0  0
   -4.2600   22.5890  -30.5980 C   0  0  0  0  0  0  0  0  0  0  0  0
   -3.2620   23.3340  -29.7940 C   0  0  0  0  0  0  0  0  0  0  0  0
   -2.2840   22.7640  -28.9940 C   0  0  0  0  0  0  0  0  0  0  0  0
   -1.5640   23.8100  -28.4430 C   0  0  0  0  0  0  0  0  0  0  0  0
   -2.1190   24.9760  -28.9300 C   0  0  0  0  0  0  0  0  0  0  0  0
   -3.1470   24.6760  -29.7400 N   0  0  0  0  0  0  0  0  0  0  0  0
   -3.8630   25.5920  -30.4760 O   0  0  0  0  0  0  0  0  0  0  0  0
   -5.5940   23.0270  -30.6510 C   0  0  0  0  0  0  0  0  0  0  0  0
   -6.5390   22.3320  -31.4130 C   0  0  0  0  0  0  0  0  0  0  0  0
   -7.6779   17.9464  -31.0304 H   0  0  0  0  0  0  0  0  0  0  0  0
   -8.5382   17.6842  -32.5854 H   0  0  0  0  0  0  0  0  0  0  0  0
   -6.7952   18.1185  -32.5854 H   0  0  0  0  0  0  0  0  0  0  0  0
  -10.1866   19.9261  -31.7894 H   0  0  0  0  0  0  0  0  0  0  0  0
   -9.5513   20.7605  -33.2477 H   0  0  0  0  0  0  0  0  0  0  0  0
   -9.7453   18.9748  -33.2477 H   0  0  0  0  0  0  0  0  0  0  0  0
   -6.6442   19.7464  -33.6376 H   0  0  0  0  0  0  0  0  0  0  0  0
   -7.7392   21.1803  -33.5750 H   0  0  0  0  0  0  0  0  0  0  0  0
   -4.5258   19.8749  -32.6744 H   0  0  0  0  0  0  0  0  0  0  0  0
   -2.8422   21.1075  -31.3150 H   0  0  0  0  0  0  0  0  0  0  0  0
   -2.1133   21.6899  -28.8291 H   0  0  0  0  0  0  0  0  0  0  0  0
   -0.7134   23.7277  -27.7504 H   0  0  0  0  0  0  0  0  0  0  0  0
   -1.7731   25.9926  -28.6917 H   0  0  0  0  0  0  0  0  0  0  0  0
   -5.8974   23.9228  -30.0893 H   0  0  0  0  0  0  0  0  0  0  0  0
   -7.5813   22.6823  -31.4438 H   0  0  0  0  0  0  0  0  0  0  0  0
  1  2  1  0
  2  3  1  0
  2  4  1  0
  4  5  1  0
  5  6  2  0
  6  7  1  0
  7  8  2  0
  8  9  1  0
  9 10  2  0
 10 11  1  0
 11 12  2  0
 12 13  1  0
 13 14  1  0
  8 15  1  0
 15 16  2  0
 16  5  1  0
 13  9  1  0
  1 17  1  0
  1 18  1  0
  1 19  1  0
  3 20  1  0
  3 21  1  0
  3 22  1  0
  4 23  1  0
  4 24  1  0
  6 25  1  0
  7 26  1  0
 10 27  1  0
 11 28  1  0
 12 29  1  0
 15 30  1  0
 16 31  1  0
M  CHG  1  14  -1
M  END
>  <UniqueID>  (28) 
25

>  <SMILES>  (28) 
CN(C)Cc1ccc(-c2cccn2[O-])cc1

>  <Energy>  (28) 
61.42883730615789

>  <Genealogy>  (28) 
CN(C)Cc1ccc(-c2cccn2[O-])cc1 (protonated)
CN(C)Cc1ccc(-c2cccn2[O-])cc1 (3D coordinates assigned)
CN(C)Cc1ccc(-c2cccn2[O-])cc1 (optimized conformer: 61.42883730615789 kcal/mol)

>  <smiles>  (28) 
CN(C)Cc1ccc(-c2cccn2O)cc1

>  <score_type>  (28) 
oracle

>  <origin>  (28) 
adg

>  <m_score__min__energy>  (28) 
-9.25

>  <m_primary>  (28) 
energy

$$$$
28:0
     RDKit          3D

 19 19  0  0  0  0  0  0  0  0999 V2000
   -6.0420   18.9880  -34.0080 C   0  0  0  0  0  0  0  0  0  0  0  0
   -7.2850   19.5310  -33.4320 N   0  0  2  0  0  0  0  0  0  0  0  0
   -7.0060   20.7960  -32.7180 C   0  0  0  0  0  0  0  0  0  0  0  0
   -8.2470   21.3510  -31.9670 C   0  0  0  0  0  0  0  0  0  0  0  0
   -9.4110   20.4580  -32.0600 N   0  0  0  0  0  0  0  0  0  0  0  0
   -9.0580   19.0900  -31.6660 C   0  0  0  0  0  0  0  0  0  0  0  0
   -7.9290   18.5990  -32.5240 C   0  0  0  0  0  0  0  0  0  0  0  0
   -7.6030   17.4200  -32.4750 O   0  0  0  0  0  0  0  0  0  0  0  0
   -5.3613   18.6906  -33.1967 H   0  0  0  0  0  0  0  0  0  0  0  0
   -6.2780   18.1110  -34.6286 H   0  0  0  0  0  0  0  0  0  0  0  0
   -5.5589   19.7571  -34.6286 H   0  0  0  0  0  0  0  0  0  0  0  0
   -7.9480   19.7280  -34.2200 H   0  0  0  0  0  0  0  0  0  0  0  0
   -6.2040   20.6171  -31.9868 H   0  0  0  0  0  0  0  0  0  0  0  0
   -6.7136   21.5430  -33.4707 H   0  0  0  0  0  0  0  0  0  0  0  0
   -7.9873   21.4817  -30.9061 H   0  0  0  0  0  0  0  0  0  0  0  0
   -8.5217   22.3061  -32.4385 H   0  0  0  0  0  0  0  0  0  0  0  0
  -10.1440   20.8060  -31.3990 H   0  0  0  0  0  0  0  0  0  0  0  0
   -8.7477   19.0807  -30.6107 H   0  0  0  0  0  0  0  0  0  0  0  0
   -9.9309   18.4335  -31.7968 H   0  0  0  0  0  0  0  0  0  0  0  0
  1  2  1  0
  2  3  1  0
  3  4  1  0
  4  5  1  0
  5  6  1  0
  6  7  1  0
  7  8  2  0
  7  2  1  0
  1  9  1  0
  1 10  1  0
  1 11  1  0
  2 12  1  6
  3 13  1  0
  3 14  1  0
  4 15  1  0
  4 16  1  0
  5 17  1  0
  6 18  1  0
  6 19  1  0
M  CHG  1   2   1
M  END
>  <UniqueID>  (29) 
26

>  <SMILES>  (29) 
C[N@@H+]1CCNCC1=O

>  <Energy>  (29) 
23.072726426300235

>  <Genealogy>  (29) 
C[NH+]1CCNCC1=O (protonated)
C[N@@H+]1CCNCC1=O (chirality)
C[N@@H+]1CCNCC1=O (3D coordinates assigned)
C[N@@H+]1CCNCC1=O (nonaromatic ring conformer: 23.072726426300235 kcal/mol)

>  <smiles>  (29) 
CN1CCNCC1=O

>  <score_type>  (29) 
oracle

>  <origin>  (29) 
adg

>  <m_score__min__energy>  (29) 
-3.52

>  <m_primary>  (29) 
energy

$$$$
29:0
     RDKit          3D

 37 37  0  0  0  0  0  0  0  0999 V2000
   -3.8690   22.8440  -27.8390 C   0  0  0  0  0  0  0  0  0  0  0  0
   -3.5600   23.4490  -29.1400 N   0  0  0  0  0  0  0  0  0  0  0  0
   -2.2460   23.2280  -29.7510 C   0  0  0  0  0  0  0  0  0  0  0  0
   -4.5130   24.2960  -29.8270 C   0  0  0  0  0  0  0  0  0  0  0  0
   -4.1240   24.9630  -30.8270 O   0  0  0  0  0  0  0  0  0  0  0  0
   -5.9110   24.3420  -29.4280 N   0  0  1  0  0  0  0  0  0  0  0  0
   -6.5150   25.6650  -29.6760 C   0  0  0  0  0  0  0  0  0  0  0  0
   -6.6890   23.2350  -30.0390 C   0  0  0  0  0  0  0  0  0  0  0  0
   -6.9930   23.4060  -31.5500 C   0  0  0  0  0  0  0  0  0  0  0  0
   -8.2970   22.7080  -31.9640 C   0  0  0  0  0  0  0  0  0  0  0  0
   -8.0740   21.2290  -32.1320 C   0  0  0  0  0  0  0  0  0  0  0  0
   -6.8770   20.7530  -32.6930 C   0  0  0  0  0  0  0  0  0  0  0  0
   -6.6800   19.3810  -32.8770 C   0  0  0  0  0  0  0  0  0  0  0  0
   -7.6810   18.4770  -32.5120 C   0  0  0  0  0  0  0  0  0  0  0  0
   -8.8820   18.9440  -31.9680 C   0  0  0  0  0  0  0  0  0  0  0  0
   -9.0820   20.3150  -31.7830 C   0  0  0  0  0  0  0  0  0  0  0  0
   -3.5280   23.5116  -27.0339 H   0  0  0  0  0  0  0  0  0  0  0  0
   -4.9551   22.6920  -27.7540 H   0  0  0  0  0  0  0  0  0  0  0  0
   -3.3554   21.8750  -27.7540 H   0  0  0  0  0  0  0  0  0  0  0  0
   -1.4910   23.1010  -28.9611 H   0  0  0  0  0  0  0  0  0  0  0  0
   -2.2794   22.3229  -30.3752 H   0  0  0  0  0  0  0  0  0  0  0  0
   -1.9815   24.0943  -30.3752 H   0  0  0  0  0  0  0  0  0  0  0  0
   -5.9640   24.2120  -28.3920 H   0  0  0  0  0  0  0  0  0  0  0  0
   -6.7375   26.1524  -28.7153 H   0  0  0  0  0  0  0  0  0  0  0  0
   -5.8119   26.2875  -30.2488 H   0  0  0  0  0  0  0  0  0  0  0  0
   -7.4459   25.5415  -30.2488 H   0  0  0  0  0  0  0  0  0  0  0  0
   -6.1181   22.3038  -29.9087 H   0  0  0  0  0  0  0  0  0  0  0  0
   -7.6630   23.2242  -29.5280 H   0  0  0  0  0  0  0  0  0  0  0  0
   -7.0795   24.4794  -31.7743 H   0  0  0  0  0  0  0  0  0  0  0  0
   -6.1695   22.9433  -32.1138 H   0  0  0  0  0  0  0  0  0  0  0  0
   -9.0582   22.8732  -31.1873 H   0  0  0  0  0  0  0  0  0  0  0  0
   -8.6357   23.1275  -32.9228 H   0  0  0  0  0  0  0  0  0  0  0  0
   -6.0909   21.4633  -32.9889 H   0  0  0  0  0  0  0  0  0  0  0  0
   -5.7375   19.0135  -33.3089 H   0  0  0  0  0  0  0  0  0  0  0  0
   -7.5244   17.3973  -32.6526 H   0  0  0  0  0  0  0  0  0  0  0  0
   -9.6705   18.2311  -31.6853 H   0  0  0  0  0  0  0  0  0  0  0  0
  -10.0312   20.6791  -31.3630 H   0  0  0  0  0  0  0  0  0  0  0  0
  1  2  1  0
  2  3  1  0
  2  4  1  0
  4  5  2  0
  4  6  1  0
  6  7  1  0
  6  8  1  0
  8  9  1  0
  9 10  1  0
 10 11  1  0
 11 12  2  0
 12 13  1  0
 13 14  2  0
 14 15  1  0
 15 16  2  0
 16 11  1  0
  1 17  1  0
  1 18  1  0
  1 19  1  0
  3 20  1  0
  3 21  1  0
  3 22  1  0
  6 23  1  1
  7 24  1  0
  7 25  1  0
  7 26  1  0
  8 27  1  0
  8 28  1  0
  9 29  1  0
  9 30  1  0
 10 31  1  0
 10 32  1  0
 12 33  1  0
 13 34  1  0
 14 35  1  0
 15 36  1  0
 16 37  1  0
M  CHG  1   6   1
M  END
>  <UniqueID>  (30) 
27

>  <SMILES>  (30) 
CN(C)C(=O)[N@@H+](C)CCCc1ccccc1

>  <Energy>  (30) 
36.643091831294726

>  <Genealogy>  (30) 
CN(C)C(=O)[NH+](C)CCCc1ccccc1 (protonated)
CN(C)C(=O)[N@@H+](C)CCCc1ccccc1 (chirality)
CN(C)C(=O)[N@@H+](C)CCCc1ccccc1 (3D coordinates assigned)
CN(C)C(=O)[N@@H+](C)CCCc1ccccc1 (optimized conformer: 36.643091831294726 kcal/mol)

>  <smiles>  (30) 
CN(C)C(=O)N(C)CCCc1ccccc1

>  <score_type>  (30) 
oracle

>  <origin>  (30) 
adg

>  <m_score__min__energy>  (30) 
-6.54

>  <m_primary>  (30) 
energy

$$$$
30:0
     RDKit          3D

 38 38  0  0  0  0  0  0  0  0999 V2000
   -1.6201   22.2225  -26.5446 H   0  0  0  0  0  0  0  0  0  0  0  0
   -1.9500   22.9930  -27.2570 C   0  0  0  0  0  0  0  0  0  0  0  0
   -1.3230   24.2370  -27.2770 C   0  0  0  0  0  0  0  0  0  0  0  0
    0.1140   24.6140  -26.0760 Br  0  0  0  0  0  0  0  0  0  0  0  0
   -1.7480   25.1990  -28.1930 C   0  0  0  0  0  0  0  0  0  0  0  0
   -1.2559   26.1823  -28.2228 H   0  0  0  0  0  0  0  0  0  0  0  0
   -2.7690   24.9260  -29.0500 N   0  0  0  0  0  0  0  0  0  0  0  0
   -3.0620   25.6680  -29.7250 H   0  0  0  0  0  0  0  0  0  0  0  0
   -3.4200   23.7240  -29.0440 C   0  0  0  0  0  0  0  0  0  0  0  0
   -4.3840   23.5340  -29.9040 N   0  0  0  0  0  0  0  0  0  0  0  0
   -5.2570   24.5110  -30.4920 C   0  0  0  0  0  0  0  0  0  0  0  0
   -4.8050   25.5930  -30.9540 O   0  0  0  0  0  0  0  0  0  0  0  0
   -6.7180   24.2120  -30.6180 C   0  0  0  0  0  0  0  0  0  0  0  0
   -7.1793   24.9320  -31.3100 H   0  0  0  0  0  0  0  0  0  0  0  0
   -7.1908   24.2924  -29.6280 H   0  0  0  0  0  0  0  0  0  0  0  0
   -6.9080   22.8420  -31.1380 N   0  0  0  0  0  0  0  0  0  0  0  0
   -8.3390   22.5720  -31.4160 C   0  0  0  0  0  0  0  0  0  0  0  0
   -8.5424   22.7628  -32.4801 H   0  0  0  0  0  0  0  0  0  0  0  0
   -8.9525   23.2326  -30.7857 H   0  0  0  0  0  0  0  0  0  0  0  0
   -8.6890   21.1150  -31.0900 C   0  0  0  0  0  0  0  0  0  0  0  0
   -9.5078   21.1016  -30.3556 H   0  0  0  0  0  0  0  0  0  0  0  0
   -7.7878   20.6294  -30.6875 H   0  0  0  0  0  0  0  0  0  0  0  0
   -9.1280   20.3430  -32.3340 C   0  0  0  0  0  0  0  0  0  0  0  0
   -9.6506   19.4241  -32.0298 H   0  0  0  0  0  0  0  0  0  0  0  0
   -9.8054   20.9686  -32.9337 H   0  0  0  0  0  0  0  0  0  0  0  0
   -8.2440   20.0807  -32.9337 H   0  0  0  0  0  0  0  0  0  0  0  0
   -6.0710   22.6040  -32.3380 C   0  0  0  0  0  0  0  0  0  0  0  0
   -6.7200   22.4995  -33.2199 H   0  0  0  0  0  0  0  0  0  0  0  0
   -5.3879   23.4550  -32.4763 H   0  0  0  0  0  0  0  0  0  0  0  0
   -5.2490   21.3230  -32.1580 C   0  0  0  0  0  0  0  0  0  0  0  0
   -5.2080   21.0711  -31.0880 H   0  0  0  0  0  0  0  0  0  0  0  0
   -5.7327   20.5172  -32.7296 H   0  0  0  0  0  0  0  0  0  0  0  0
   -3.8270   21.4980  -32.6820 C   0  0  0  0  0  0  0  0  0  0  0  0
   -3.1317   21.5836  -31.8339 H   0  0  0  0  0  0  0  0  0  0  0  0
   -3.5523   20.6269  -33.2949 H   0  0  0  0  0  0  0  0  0  0  0  0
   -3.7717   22.4097  -33.2949 H   0  0  0  0  0  0  0  0  0  0  0  0
   -2.9960   22.7240  -28.1400 C   0  0  0  0  0  0  0  0  0  0  0  0
   -3.4875   21.7399  -28.1326 H   0  0  0  0  0  0  0  0  0  0  0  0
  1  2  1  0
  2  3  1  0
  3  4  1  0
  3  5  2  0
  5  6  1  0
  5  7  1  0
  7  8  1  0
  7  9  1  0
  9 10  2  0
 10 11  1  0
 11 12  2  0
 11 13  1  0
 13 14  1  0
 13 15  1  0
 13 16  1  0
 16 17  1  0
 17 18  1  0
 17 19  1  0
 17 20  1  0
 20 21  1  0
 20 22  1  0
 20 23  1  0
 23 24  1  0
 23 25  1  0
 23 26  1  0
 16 27  1  0
 27 28  1  0
 27 29  1  0
 27 30  1  0
 30 31  1  0
 30 32  1  0
 30 33  1  0
 33 34  1  0
 33 35  1  0
 33 36  1  0
  9 37  1  0
 37 38  1  0
 37  2  2  0
M  END
>  <UniqueID>  (31) 
28

>  <SMILES>  (31) 
CCCN(CCC)CC(=O)/N=c1\ccc(Br)c[nH]1

>  <Energy>  (31) 
35.734687747923594

>  <Genealogy>  (31) 
CCCN(CCC)CC(=O)/N=c1\ccc(Br)c[nH]1 (cis-trans isomerization)
CCCN(CCC)CC(=O)/N=c1\ccc(Br)c[nH]1 (3D coordinates assigned)
CCCN(CCC)CC(=O)/N=c1\ccc(Br)c[nH]1 (optimized conformer: 35.734687747923594 kcal/mol)

>  <smiles>  (31) 
CCCN(CCC)CC(=O)N=c1ccc(Br)c[nH]1

>  <score_type>  (31) 
oracle

>  <origin>  (31) 
adg

>  <m_score__min__energy>  (31) 
-6.9500000000000002

>  <m_primary>  (31) 
energy

$$$$
31:0
     RDKit          3D

 40 41  0  0  0  0  0  0  0  0999 V2000
   -9.0300   18.7020  -31.9550 C   0  0  0  0  0  0  0  0  0  0  0  0
   -8.2250   19.9310  -32.2330 C   0  0  0  0  0  0  0  0  0  0  0  0
   -8.5060   21.4400  -31.5410 S   0  0  0  0  0  0  0  0  0  0  0  0
   -7.1990   22.1690  -32.3060 C   0  0  0  0  0  0  0  0  0  0  0  0
   -6.5400   21.2760  -33.0760 N   0  0  0  0  0  0  0  0  0  0  0  0
   -7.0930   20.0300  -33.0450 C   0  0  0  0  0  0  0  0  0  0  0  0
   -6.4710   18.8740  -33.7810 C   0  0  0  0  0  0  0  0  0  0  0  0
   -4.9830   18.6990  -33.4530 C   0  0  0  0  0  0  0  0  0  0  0  0
   -4.2500   19.9040  -33.6930 O   0  0  0  0  0  0  0  0  0  0  0  0
   -3.5120   20.6230  -32.7370 C   0  0  0  0  0  0  0  0  0  0  0  0
   -2.2760   21.2340  -33.0270 C   0  0  0  0  0  0  0  0  0  0  0  0
   -1.5640   21.8960  -32.0230 C   0  0  0  0  0  0  0  0  0  0  0  0
   -2.0780   21.9720  -30.7210 C   0  0  0  0  0  0  0  0  0  0  0  0
   -1.2800   22.6400  -29.6300 C   0  0  0  0  0  0  0  0  0  0  0  0
   -2.0730   22.7390  -28.3190 C   0  0  0  0  0  0  0  0  0  0  0  0
   -3.0760   23.9000  -28.3320 C   0  0  0  0  0  0  0  0  0  0  0  0
   -2.6760   24.9230  -29.3470 C   0  0  0  0  0  0  0  0  0  0  0  0
   -1.6330   25.6080  -29.1790 O   0  0  0  0  0  0  0  0  0  0  0  0
   -3.4820   25.1570  -30.4540 O   0  0  0  0  0  0  0  0  0  0  0  0
   -3.3210   21.3850  -30.4380 C   0  0  0  0  0  0  0  0  0  0  0  0
   -4.0330   20.7240  -31.4420 C   0  0  0  0  0  0  0  0  0  0  0  0
   -9.1217   18.5619  -30.8678 H   0  0  0  0  0  0  0  0  0  0  0  0
  -10.0316   18.8121  -32.3963 H   0  0  0  0  0  0  0  0  0  0  0  0
   -8.5289   17.8279  -32.3963 H   0  0  0  0  0  0  0  0  0  0  0  0
   -6.9190   23.2270  -32.1950 H   0  0  0  0  0  0  0  0  0  0  0  0
   -5.6840   21.5200  -33.6220 H   0  0  0  0  0  0  0  0  0  0  0  0
   -7.0037   17.9523  -33.5042 H   0  0  0  0  0  0  0  0  0  0  0  0
   -6.5529   19.0815  -34.8581 H   0  0  0  0  0  0  0  0  0  0  0  0
   -4.8803   18.4227  -32.3932 H   0  0  0  0  0  0  0  0  0  0  0  0
   -4.5757   17.9108  -34.1033 H   0  0  0  0  0  0  0  0  0  0  0  0
   -1.8696   21.1898  -34.0482 H   0  0  0  0  0  0  0  0  0  0  0  0
   -0.5943   22.3603  -32.2558 H   0  0  0  0  0  0  0  0  0  0  0  0
   -0.3659   22.0555  -29.4493 H   0  0  0  0  0  0  0  0  0  0  0  0
   -1.0391   23.6611  -29.9605 H   0  0  0  0  0  0  0  0  0  0  0  0
   -2.6225   21.7984  -28.1659 H   0  0  0  0  0  0  0  0  0  0  0  0
   -1.3563   22.9223  -27.5049 H   0  0  0  0  0  0  0  0  0  0  0  0
   -4.0750   23.5131  -28.5815 H   0  0  0  0  0  0  0  0  0  0  0  0
   -3.0904   24.3704  -27.3377 H   0  0  0  0  0  0  0  0  0  0  0  0
   -3.7364   21.4456  -29.4213 H   0  0  0  0  0  0  0  0  0  0  0  0
   -5.0123   20.2788  -31.2125 H   0  0  0  0  0  0  0  0  0  0  0  0
  1  2  1  0
  2  3  1  0
  3  4  1  0
  4  5  2  0
  5  6  1  0
  6  7  1  0
  7  8  1  0
  8  9  1  0
  9 10  1  0
 10 11  2  0
 11 12  1  0
 12 13  2  0
 13 14  1  0
 14 15  1  0
 15 16  1  0
 16 17  1  0
 17 18  2  0
 17 19  1  0
 13 20  1  0
 20 21  2  0
  6  2  2  0
 21 10  1  0
  1 22  1  0
  1 23  1  0
  1 24  1  0
  4 25  1  0
  5 26  1  0
  7 27  1  0
  7 28  1  0
  8 29  1  0
  8 30  1  0
 11 31  1  0
 12 32  1  0
 14 33  1  0
 14 34  1  0
 15 35  1  0
 15 36  1  0
 16 37  1  0
 16 38  1  0
 20 39  1  0
 21 40  1  0
M  CHG  2   5   1  19  -1
M  END
>  <UniqueID>  (32) 
29

>  <SMILES>  (32) 
Cc1sc[nH+]c1CCOc1ccc(CCCC(=O)[O-])cc1

>  <Energy>  (32) 
57.81873222667976

>  <Genealogy>  (32) 
Cc1sc[nH+]c1CCOc1ccc(CCCC(=O)[O-])cc1 (protonated)
Cc1sc[nH+]c1CCOc1ccc(CCCC(=O)[O-])cc1 (3D coordinates assigned)
Cc1sc[nH+]c1CCOc1ccc(CCCC(=O)[O-])cc1 (optimized conformer: 57.81873222667976 kcal/mol)

>  <smiles>  (32) 
Cc1scnc1CCOc1ccc(CCCC(=O)O)cc1

>  <score_type>  (32) 
oracle

>  <origin>  (32) 
adg

>  <m_score__min__energy>  (32) 
-9.8399999999999999

>  <m_primary>  (32) 
energy

$$$$
32:0
     RDKit          3D

 52 55  0  0  0  0  0  0  0  0999 V2000
   -0.8490   23.9070  -26.0770 C   0  0  0  0  0  0  0  0  0  0  0  0
   -1.3450   22.7830  -26.9470 C   0  0  0  0  0  0  0  0  0  0  0  0
   -1.5910   21.5360  -26.3550 C   0  0  0  0  0  0  0  0  0  0  0  0
   -2.0450   20.4670  -27.1300 C   0  0  0  0  0  0  0  0  0  0  0  0
   -2.3400   19.1960  -26.5220 C   0  0  0  0  0  0  0  0  0  0  0  0
   -2.5770   18.1730  -26.0350 N   0  0  0  0  0  0  0  0  0  0  0  0
   -2.2220   20.6470  -28.5030 C   0  0  0  0  0  0  0  0  0  0  0  0
   -2.0010   21.8630  -29.0680 N   0  0  0  0  0  0  0  0  0  0  0  0
   -1.6130   22.9440  -28.3290 C   0  0  0  0  0  0  0  0  0  0  0  0
   -1.5970   24.2730  -28.9830 C   0  0  0  0  0  0  0  0  0  0  0  0
   -0.4900   24.8120  -29.2470 O   0  0  0  0  0  0  0  0  0  0  0  0
   -2.8090   24.9560  -29.3430 N   0  0  0  0  0  0  0  0  0  0  0  0
   -3.8630   24.4130  -30.1540 C   0  0  0  0  0  0  0  0  0  0  0  0
   -5.1770   24.8520  -29.9510 C   0  0  0  0  0  0  0  0  0  0  0  0
   -6.2370   24.2440  -30.6340 C   0  0  0  0  0  0  0  0  0  0  0  0
   -5.9880   23.1940  -31.5220 C   0  0  0  0  0  0  0  0  0  0  0  0
   -4.6710   22.7790  -31.7640 C   0  0  0  0  0  0  0  0  0  0  0  0
   -4.3890   21.6290  -32.6320 C   0  0  0  0  0  0  0  0  0  0  0  0
   -3.2320   21.4920  -33.1100 O   0  0  0  0  0  0  0  0  0  0  0  0
   -5.4260   20.6060  -32.8770 C   0  0  0  0  0  0  0  0  0  0  0  0
   -6.7800   20.6950  -32.5420 C   0  0  0  0  0  0  0  0  0  0  0  0
   -7.4330   19.5550  -32.8770 N   0  0  0  0  0  0  0  0  0  0  0  0
   -8.8710   19.3040  -32.6990 C   0  0  0  0  0  0  0  0  0  0  0  0
   -9.1040   18.1960  -31.6650 C   0  0  0  0  0  0  0  0  0  0  0  0
   -9.6070   20.5890  -32.3150 C   0  0  0  0  0  0  0  0  0  0  0  0
   -6.4950   18.7440  -33.4080 C   0  0  0  0  0  0  0  0  0  0  0  0
   -6.6820   17.4810  -33.8660 N   0  0  0  0  0  0  0  0  0  0  0  0
   -5.6060   16.7990  -34.3570 C   0  0  0  0  0  0  0  0  0  0  0  0
   -4.3660   17.3810  -34.3800 N   0  0  0  0  0  0  0  0  0  0  0  0
   -4.1690   18.6500  -33.9190 C   0  0  0  0  0  0  0  0  0  0  0  0
   -5.2690   19.3430  -33.4260 C   0  0  0  0  0  0  0  0  0  0  0  0
   -3.6120   23.4210  -31.1150 C   0  0  0  0  0  0  0  0  0  0  0  0
   -0.9702   23.6324  -25.0187 H   0  0  0  0  0  0  0  0  0  0  0  0
    0.2145   24.0923  -26.2883 H   0  0  0  0  0  0  0  0  0  0  0  0
   -1.4289   24.8175  -26.2883 H   0  0  0  0  0  0  0  0  0  0  0  0
   -1.4257   21.3994  -25.2761 H   0  0  0  0  0  0  0  0  0  0  0  0
   -2.5415   19.8014  -29.1298 H   0  0  0  0  0  0  0  0  0  0  0  0
   -2.1900   21.9740  -30.0900 H   0  0  0  0  0  0  0  0  0  0  0  0
   -5.3771   25.6777  -29.2523 H   0  0  0  0  0  0  0  0  0  0  0  0
   -7.2674   24.5932  -30.4715 H   0  0  0  0  0  0  0  0  0  0  0  0
   -6.8250   22.6934  -32.0308 H   0  0  0  0  0  0  0  0  0  0  0  0
   -7.2514   21.5702  -32.0710 H   0  0  0  0  0  0  0  0  0  0  0  0
   -9.2827   18.9601  -33.6593 H   0  0  0  0  0  0  0  0  0  0  0  0
   -9.0158   18.6154  -30.6519 H   0  0  0  0  0  0  0  0  0  0  0  0
  -10.1106   17.7737  -31.8006 H   0  0  0  0  0  0  0  0  0  0  0  0
   -8.3528   17.4040  -31.8006 H   0  0  0  0  0  0  0  0  0  0  0  0
   -9.6540   20.6711  -31.2191 H   0  0  0  0  0  0  0  0  0  0  0  0
   -9.0687   21.4563  -32.7249 H   0  0  0  0  0  0  0  0  0  0  0  0
  -10.6275   20.5635  -32.7249 H   0  0  0  0  0  0  0  0  0  0  0  0
   -5.7356   15.7748  -34.7369 H   0  0  0  0  0  0  0  0  0  0  0  0
   -3.1703   19.1108  -33.9368 H   0  0  0  0  0  0  0  0  0  0  0  0
   -2.5750   23.1469  -31.3591 H   0  0  0  0  0  0  0  0  0  0  0  0
  1  2  1  0
  2  3  2  0
  3  4  1  0
  4  5  1  0
  5  6  3  0
  4  7  2  0
  7  8  1  0
  8  9  2  0
  9 10  1  0
 10 11  2  0
 10 12  1  0
 12 13  1  0
 13 14  2  0
 14 15  1  0
 15 16  2  0
 16 17  1  0
 17 18  1  0
 18 19  2  0
 18 20  1  0
 20 21  2  0
 21 22  1  0
 22 23  1  0
 23 24  1  0
 23 25  1  0
 22 26  1  0
 26 27  2  0
 27 28  1  0
 28 29  2  0
 29 30  1  0
 30 31  2  0
 17 32  2  0
  9  2  1  0
 32 13  1  0
 31 20  1  0
 31 26  1  0
  1 33  1  0
  1 34  1  0
  1 35  1  0
  3 36  1  0
  7 37  1  0
  8 38  1  0
 14 39  1  0
 15 40  1  0
 16 41  1  0
 21 42  1  0
 23 43  1  0
 24 44  1  0
 24 45  1  0
 24 46  1  0
 25 47  1  0
 25 48  1  0
 25 49  1  0
 28 50  1  0
 30 51  1  0
 32 52  1  0
M  CHG  2   8   1  12  -1
M  END
>  <UniqueID>  (33) 
30

>  <SMILES>  (33) 
Cc1cc(C#N)c[nH+]c1C(=O)[N-]c1cccc(C(=O)c2cn(C(C)C)c3ncncc23)c1

>  <Energy>  (33) 
101.81230807979246

>  <Genealogy>  (33) 
Cc1cc(C#N)c[nH+]c1C(=O)[N-]c1cccc(C(=O)c2cn(C(C)C)c3ncncc23)c1 (protonated)
Cc1cc(C#N)c[nH+]c1C(=O)[N-]c1cccc(C(=O)c2cn(C(C)C)c3ncncc23)c1 (3D coordinates assigned)
Cc1cc(C#N)c[nH+]c1C(=O)[N-]c1cccc(C(=O)c2cn(C(C)C)c3ncncc23)c1 (optimized conformer: 101.81230807979246 kcal/mol)

>  <smiles>  (33) 
Cc1cc(C#N)cnc1C(=O)Nc1cccc(C(=O)c2cn(C(C)C)c3ncncc23)c1

>  <score_type>  (33) 
oracle

>  <origin>  (33) 
adg

>  <m_score__min__energy>  (33) 
-11.140000000000001

>  <m_primary>  (33) 
energy

$$$$
33:0
     RDKit          3D

 57 60  0  0  0  0  0  0  0  0999 V2000
   -9.7610   21.9140  -31.2370 C   0  0  0  0  0  0  0  0  0  0  0  0
   -8.4100   21.2540  -30.9220 C   0  0  1  0  0  0  0  0  0  0  0  0
   -8.3280   19.8620  -31.5960 C   0  0  0  0  0  0  0  0  0  0  0  0
   -6.9280   19.5440  -31.9300 N   0  0  0  0  0  0  0  0  0  0  0  0
   -6.8070   18.1340  -32.3530 C   0  0  0  0  0  0  0  0  0  0  0  0
   -5.5550   17.9240  -33.1690 C   0  0  0  0  0  0  0  0  0  0  0  0
   -4.3160   18.3950  -32.6990 C   0  0  0  0  0  0  0  0  0  0  0  0
   -3.1530   18.1830  -33.4460 C   0  0  0  0  0  0  0  0  0  0  0  0
   -3.2170   17.4960  -34.6610 C   0  0  0  0  0  0  0  0  0  0  0  0
   -4.4430   17.0180  -35.1320 C   0  0  0  0  0  0  0  0  0  0  0  0
   -5.6100   17.2290  -34.3910 C   0  0  0  0  0  0  0  0  0  0  0  0
   -6.7920   16.7520  -34.8600 F   0  0  0  0  0  0  0  0  0  0  0  0
   -6.4400   20.4620  -32.9880 C   0  0  0  0  0  0  0  0  0  0  0  0
   -6.8130   21.9300  -32.7000 C   0  0  0  0  0  0  0  0  0  0  0  0
   -7.2390   22.0880  -31.2970 N   0  0  0  0  0  0  0  0  0  0  0  0
   -7.2090   23.4710  -30.7650 C   0  0  0  0  0  0  0  0  0  0  0  0
   -5.8290   23.9620  -30.4090 C   0  0  0  0  0  0  0  0  0  0  0  0
   -5.1760   23.7850  -29.2080 C   0  0  0  0  0  0  0  0  0  0  0  0
   -3.9780   24.3880  -29.3360 N   0  0  0  0  0  0  0  0  0  0  0  0
   -2.9160   24.4670  -28.3620 C   0  0  0  0  0  0  0  0  0  0  0  0
   -3.1720   24.8470  -27.0310 C   0  0  0  0  0  0  0  0  0  0  0  0
   -2.1310   24.9160  -26.1000 C   0  0  0  0  0  0  0  0  0  0  0  0
   -0.8190   24.6090  -26.4810 C   0  0  0  0  0  0  0  0  0  0  0  0
    0.4800   24.6770  -25.2950 S   0  0  0  0  0  0  0  0  0  0  0  0
    0.1120   25.9330  -24.0900 C   0  0  0  0  0  0  0  0  0  0  0  0
    1.7750   25.0000  -25.9840 O   0  0  0  0  0  0  0  0  0  0  0  0
    0.6180   23.3500  -24.6050 O   0  0  0  0  0  0  0  0  0  0  0  0
   -0.5570   24.2270  -27.8020 C   0  0  0  0  0  0  0  0  0  0  0  0
   -1.5950   24.1620  -28.7360 C   0  0  0  0  0  0  0  0  0  0  0  0
   -3.9100   24.9090  -30.5520 N   0  0  0  0  0  0  0  0  0  0  0  0
   -5.0260   24.6690  -31.2260 N   0  0  0  0  0  0  0  0  0  0  0  0
  -10.2745   22.1649  -30.2971 H   0  0  0  0  0  0  0  0  0  0  0  0
   -9.5937   22.8319  -31.8197 H   0  0  0  0  0  0  0  0  0  0  0  0
  -10.3822   21.2179  -31.8197 H   0  0  0  0  0  0  0  0  0  0  0  0
   -8.3631   21.1411  -29.8288 H   0  0  0  0  0  0  0  0  0  0  0  0
   -8.7199   19.0999  -30.9063 H   0  0  0  0  0  0  0  0  0  0  0  0
   -8.9255   19.8728  -32.5195 H   0  0  0  0  0  0  0  0  0  0  0  0
   -6.7676   17.4920  -31.4606 H   0  0  0  0  0  0  0  0  0  0  0  0
   -7.6786   17.8761  -32.9725 H   0  0  0  0  0  0  0  0  0  0  0  0
   -4.2616   18.9320  -31.7405 H   0  0  0  0  0  0  0  0  0  0  0  0
   -2.1869   18.5574  -33.0767 H   0  0  0  0  0  0  0  0  0  0  0  0
   -2.3012   17.3311  -35.2476 H   0  0  0  0  0  0  0  0  0  0  0  0
   -4.4900   16.4748  -36.0874 H   0  0  0  0  0  0  0  0  0  0  0  0
   -5.3449   20.3802  -33.0510 H   0  0  0  0  0  0  0  0  0  0  0  0
   -6.9174   20.1710  -33.9353 H   0  0  0  0  0  0  0  0  0  0  0  0
   -5.9377   22.5694  -32.8869 H   0  0  0  0  0  0  0  0  0  0  0  0
   -7.6434   22.2224  -33.3595 H   0  0  0  0  0  0  0  0  0  0  0  0
   -7.6295   24.1438  -31.5270 H   0  0  0  0  0  0  0  0  0  0  0  0
   -7.7947   23.4662  -29.8339 H   0  0  0  0  0  0  0  0  0  0  0  0
   -5.5571   23.2567  -28.3216 H   0  0  0  0  0  0  0  0  0  0  0  0
   -4.1987   25.0915  -26.7210 H   0  0  0  0  0  0  0  0  0  0  0  0
   -2.3439   25.2131  -25.0625 H   0  0  0  0  0  0  0  0  0  0  0  0
    0.2337   25.5177  -23.0787 H   0  0  0  0  0  0  0  0  0  0  0  0
    0.7993   26.7815  -24.2231 H   0  0  0  0  0  0  0  0  0  0  0  0
   -0.9245   26.2764  -24.2231 H   0  0  0  0  0  0  0  0  0  0  0  0
    0.4701   23.9769  -28.1063 H   0  0  0  0  0  0  0  0  0  0  0  0
   -1.3765   23.8694  -29.7736 H   0  0  0  0  0  0  0  0  0  0  0  0
  1  2  1  0
  2  3  1  0
  3  4  1  0
  4  5  1  0
  5  6  1  0
  6  7  2  0
  7  8  1  0
  8  9  2  0
  9 10  1  0
 10 11  2  0
 11 12  1  0
  4 13  1  0
 13 14  1  0
 14 15  1  0
 15 16  1  0
 16 17  1  0
 17 18  2  0
 18 19  1  0
 19 20  1  0
 20 21  2  0
 21 22  1  0
 22 23  2  0
 23 24  1  0
 24 25  1  0
 24 26  2  0
 24 27  2  0
 23 28  1  0
 28 29  2  0
 19 30  1  0
 30 31  2  0
 15  2  1  0
 31 17  1  0
 11  6  1  0
 29 20  1  0
  1 32  1  0
  1 33  1  0
  1 34  1  0
  2 35  1  1
  3 36  1  0
  3 37  1  0
  5 38  1  0
  5 39  1  0
  7 40  1  0
  8 41  1  0
  9 42  1  0
 10 43  1  0
 13 44  1  0
 13 45  1  0
 14 46  1  0
 14 47  1  0
 16 48  1  0
 16 49  1  0
 18 50  1  0
 21 51  1  0
 22 52  1  0
 25 53  1  0
 25 54  1  0
 25 55  1  0
 28 56  1  0
 29 57  1  0
M  END
>  <UniqueID>  (34) 
31

>  <SMILES>  (34) 
C[C@H]1CN(Cc2ccccc2F)CCN1Cc1cn(-c2ccc(S(C)(=O)=O)cc2)nn1

>  <Energy>  (34) 
109.78571964356769

>  <Genealogy>  (34) 
C[C@H]1CN(Cc2ccccc2F)CCN1Cc1cn(-c2ccc(S(C)(=O)=O)cc2)nn1 (chirality)
C[C@H]1CN(Cc2ccccc2F)CCN1Cc1cn(-c2ccc(S(C)(=O)=O)cc2)nn1 (3D coordinates assigned)
C[C@H]1CN(Cc2ccccc2F)CCN1Cc1cn(-c2ccc(S(C)(=O)=O)cc2)nn1 (nonaromatic ring conformer: 109.78571964356769 kcal/mol)

>  <smiles>  (34) 
CC1CN(Cc2ccccc2F)CCN1Cc1cn(-c2ccc(S(C)(=O)=O)cc2)nn1

>  <score_type>  (34) 
oracle

>  <origin>  (34) 
adg

>  <m_score__min__energy>  (34) 
-10.779999999999999

>  <m_primary>  (34) 
energy

$$$$
34:0
     RDKit          3D

 46 49  0  0  0  0  0  0  0  0999 V2000
   -5.2130   25.1730  -30.5070 C   0  0  0  0  0  0  0  0  0  0  0  0
   -3.8210   24.8990  -30.5140 O   0  0  0  0  0  0  0  0  0  0  0  0
   -3.3050   23.6980  -30.0060 C   0  0  0  0  0  0  0  0  0  0  0  0
   -2.9550   23.6370  -28.6530 C   0  0  0  0  0  0  0  0  0  0  0  0
   -2.3600   22.4850  -28.1230 C   0  0  0  0  0  0  0  0  0  0  0  0
   -2.1360   21.3790  -28.9480 C   0  0  0  0  0  0  0  0  0  0  0  0
   -2.5180   21.4190  -30.2960 C   0  0  0  0  0  0  0  0  0  0  0  0
   -3.1030   22.5800  -30.8400 C   0  0  0  0  0  0  0  0  0  0  0  0
   -3.3460   22.6740  -32.2570 N   0  0  0  0  0  0  0  0  0  0  0  0
   -3.4210   21.4860  -33.1150 C   0  0  0  0  0  0  0  0  0  0  0  0
   -4.7070   20.6890  -32.9340 C   0  0  0  0  0  0  0  0  0  0  0  0
   -4.7640   19.2850  -33.1530 C   0  0  0  0  0  0  0  0  0  0  0  0
   -3.5800   18.5030  -33.5420 C   0  0  0  0  0  0  0  0  0  0  0  0
   -3.6560   17.5740  -34.5940 C   0  0  0  0  0  0  0  0  0  0  0  0
   -2.5450   16.7980  -34.9390 C   0  0  0  0  0  0  0  0  0  0  0  0
   -1.3660   16.9200  -34.1950 C   0  0  0  0  0  0  0  0  0  0  0  0
   -1.2980   17.8140  -33.1190 C   0  0  0  0  0  0  0  0  0  0  0  0
   -2.4030   18.6020  -32.7860 C   0  0  0  0  0  0  0  0  0  0  0  0
   -5.9380   18.6140  -33.0000 N   0  0  0  0  0  0  0  0  0  0  0  0
   -7.0870   19.2490  -32.6720 C   0  0  0  0  0  0  0  0  0  0  0  0
   -8.2710   18.5070  -32.5310 C   0  0  0  0  0  0  0  0  0  0  0  0
   -9.4660   19.1520  -32.2170 C   0  0  0  0  0  0  0  0  0  0  0  0
   -9.4930   20.5370  -32.0270 C   0  0  0  0  0  0  0  0  0  0  0  0
   -8.3150   21.2910  -32.1480 C   0  0  0  0  0  0  0  0  0  0  0  0
   -7.1050   20.6430  -32.4490 C   0  0  0  0  0  0  0  0  0  0  0  0
   -5.8960   21.3620  -32.5790 C   0  0  0  0  0  0  0  0  0  0  0  0
   -5.8920   22.6130  -32.3980 O   0  0  0  0  0  0  0  0  0  0  0  0
   -5.5677   25.2428  -29.4681 H   0  0  0  0  0  0  0  0  0  0  0  0
   -5.4018   26.1255  -31.0237 H   0  0  0  0  0  0  0  0  0  0  0  0
   -5.7487   24.3631  -31.0237 H   0  0  0  0  0  0  0  0  0  0  0  0
   -3.1486   24.5007  -28.0000 H   0  0  0  0  0  0  0  0  0  0  0  0
   -2.0703   22.4508  -27.0624 H   0  0  0  0  0  0  0  0  0  0  0  0
   -1.6593   20.4761  -28.5388 H   0  0  0  0  0  0  0  0  0  0  0  0
   -2.3599   20.5372  -30.9343 H   0  0  0  0  0  0  0  0  0  0  0  0
   -4.0550   23.4070  -32.5020 H   0  0  0  0  0  0  0  0  0  0  0  0
   -3.3559   21.8092  -34.1644 H   0  0  0  0  0  0  0  0  0  0  0  0
   -2.5877   20.8268  -32.8304 H   0  0  0  0  0  0  0  0  0  0  0  0
   -4.5974   17.4564  -35.1507 H   0  0  0  0  0  0  0  0  0  0  0  0
   -2.5973   16.0988  -35.7866 H   0  0  0  0  0  0  0  0  0  0  0  0
   -0.4883   16.3107  -34.4566 H   0  0  0  0  0  0  0  0  0  0  0  0
   -0.3705   17.8962  -32.5333 H   0  0  0  0  0  0  0  0  0  0  0  0
   -2.3498   19.2967  -31.9348 H   0  0  0  0  0  0  0  0  0  0  0  0
   -8.2553   17.4157  -32.6685 H   0  0  0  0  0  0  0  0  0  0  0  0
  -10.3930   18.5682  -32.1181 H   0  0  0  0  0  0  0  0  0  0  0  0
  -10.4411   21.0378  -31.7817 H   0  0  0  0  0  0  0  0  0  0  0  0
   -8.3390   22.3818  -32.0081 H   0  0  0  0  0  0  0  0  0  0  0  0
  1  2  1  0
  2  3  1  0
  3  4  2  0
  4  5  1  0
  5  6  2  0
  6  7  1  0
  7  8  2  0
  8  9  1  0
  9 10  1  0
 10 11  1  0
 11 12  2  0
 12 13  1  0
 13 14  2  0
 14 15  1  0
 15 16  2  0
 16 17  1  0
 17 18  2  0
 12 19  1  0
 19 20  1  0
 20 21  2  0
 21 22  1  0
 22 23  2  0
 23 24  1  0
 24 25  2  0
 25 26  1  0
 26 27  2  0
  8  3  1  0
 26 11  1  0
 18 13  1  0
 25 20  1  0
  1 28  1  0
  1 29  1  0
  1 30  1  0
  4 31  1  0
  5 32  1  0
  6 33  1  0
  7 34  1  0
  9 35  1  0
 10 36  1  0
 10 37  1  0
 14 38  1  0
 15 39  1  0
 16 40  1  0
 17 41  1  0
 18 42  1  0
 21 43  1  0
 22 44  1  0
 23 45  1  0
 24 46  1  0
M  CHG  1  19  -1
M  END
>  <UniqueID>  (35) 
32

>  <SMILES>  (35) 
COc1ccccc1NCc1c(-c2ccccc2)[n-]c2ccccc2c1=O

>  <Energy>  (35) 
76.14215215153088

>  <Genealogy>  (35) 
COc1ccccc1NCc1c(-c2ccccc2)[n-]c2ccccc2c1=O (protonated)
COc1ccccc1NCc1c(-c2ccccc2)[n-]c2ccccc2c1=O (3D coordinates assigned)
COc1ccccc1NCc1c(-c2ccccc2)[n-]c2ccccc2c1=O (optimized conformer: 76.14215215153088 kcal/mol)

>  <smiles>  (35) 
COc1ccccc1NCc1c(-c2ccccc2)[nH]c2ccccc2c1=O

>  <score_type>  (35) 
oracle

>  <origin>  (35) 
adg

>  <m_score__min__energy>  (35) 
-8.5800000000000001

>  <m_primary>  (35) 
energy

$$$$
35:0
     RDKit          3D

 58 60  0  0  0  0  0  0  0  0999 V2000
   -4.6200   14.4060  -32.0950 C   0  0  0  0  0  0  0  0  0  0  0  0
   -4.9860   15.7900  -32.6270 C   0  0  0  0  0  0  0  0  0  0  0  0
   -6.0080   15.7080  -33.7680 C   0  0  0  0  0  0  0  0  0  0  0  0
   -7.0540   16.6670  -33.5980 O   0  0  0  0  0  0  0  0  0  0  0  0
   -6.8810   18.0020  -33.1970 C   0  0  0  0  0  0  0  0  0  0  0  0
   -7.5860   18.5750  -32.1220 C   0  0  0  0  0  0  0  0  0  0  0  0
   -7.3670   19.9080  -31.7650 C   0  0  0  0  0  0  0  0  0  0  0  0
   -6.4240   20.6830  -32.4550 C   0  0  0  0  0  0  0  0  0  0  0  0
   -6.1570   22.3770  -32.0170 S   0  0  0  0  0  0  0  0  0  0  0  0
   -7.2910   23.1930  -32.5700 O   0  0  0  0  0  0  0  0  0  0  0  0
   -4.9050   22.8480  -32.7020 O   0  0  0  0  0  0  0  0  0  0  0  0
   -5.9930   22.6790  -30.2880 N   0  0  0  0  0  0  0  0  0  0  0  0
   -7.1420   23.4220  -29.7320 C   0  0  0  0  0  0  0  0  0  0  0  0
   -7.1550   24.9230  -30.1020 C   0  0  0  0  0  0  0  0  0  0  0  0
   -5.8190   25.4950  -30.2870 N   0  0  0  0  0  0  0  0  0  0  0  0
   -4.6250   24.7100  -30.2520 C   0  0  0  0  0  0  0  0  0  0  0  0
   -3.5130   25.2530  -30.4930 O   0  0  0  0  0  0  0  0  0  0  0  0
   -4.7130   23.2690  -29.8370 C   0  0  2  0  0  0  0  0  0  0  0  0
   -3.4910   22.4060  -30.2380 C   0  0  0  0  0  0  0  0  0  0  0  0
   -2.1980   22.9760  -29.7060 C   0  0  0  0  0  0  0  0  0  0  0  0
   -1.1890   22.9550  -30.4640 O   0  0  0  0  0  0  0  0  0  0  0  0
   -2.0850   23.5690  -28.3890 N   0  0  0  0  0  0  0  0  0  0  0  0
   -3.1310   23.4330  -27.3590 C   0  0  0  0  0  0  0  0  0  0  0  0
   -3.4220   24.7890  -26.6970 C   0  0  0  0  0  0  0  0  0  0  0  0
   -2.1590   25.6350  -26.4290 C   0  0  0  0  0  0  0  0  0  0  0  0
   -0.8620   24.8450  -26.6270 C   0  0  0  0  0  0  0  0  0  0  0  0
   -0.8200   24.2370  -28.0340 C   0  0  0  0  0  0  0  0  0  0  0  0
   -5.7450   20.1210  -33.5460 C   0  0  0  0  0  0  0  0  0  0  0  0
   -5.9630   18.7880  -33.9040 C   0  0  0  0  0  0  0  0  0  0  0  0
   -4.6245   14.4230  -30.9951 H   0  0  0  0  0  0  0  0  0  0  0  0
   -5.3542   13.6695  -32.4533 H   0  0  0  0  0  0  0  0  0  0  0  0
   -3.6177   14.1287  -32.4533 H   0  0  0  0  0  0  0  0  0  0  0  0
   -5.4143   16.3851  -31.8070 H   0  0  0  0  0  0  0  0  0  0  0  0
   -4.0716   16.2591  -33.0192 H   0  0  0  0  0  0  0  0  0  0  0  0
   -5.4961   15.9015  -34.7222 H   0  0  0  0  0  0  0  0  0  0  0  0
   -6.4544   14.7027  -33.7628 H   0  0  0  0  0  0  0  0  0  0  0  0
   -8.3131   17.9704  -31.5601 H   0  0  0  0  0  0  0  0  0  0  0  0
   -7.9384   20.3525  -30.9368 H   0  0  0  0  0  0  0  0  0  0  0  0
   -8.0672   22.9637  -30.1113 H   0  0  0  0  0  0  0  0  0  0  0  0
   -7.0604   23.3636  -28.6366 H   0  0  0  0  0  0  0  0  0  0  0  0
   -7.7179   25.0449  -31.0392 H   0  0  0  0  0  0  0  0  0  0  0  0
   -7.6202   25.4577  -29.2607 H   0  0  0  0  0  0  0  0  0  0  0  0
   -5.7460   26.5100  -30.5220 H   0  0  0  0  0  0  0  0  0  0  0  0
   -4.6902   23.2645  -28.7372 H   0  0  0  0  0  0  0  0  0  0  0  0
   -3.6247   21.3915  -29.8344 H   0  0  0  0  0  0  0  0  0  0  0  0
   -3.4302   22.3920  -31.3362 H   0  0  0  0  0  0  0  0  0  0  0  0
   -4.0517   23.0549  -27.8273 H   0  0  0  0  0  0  0  0  0  0  0  0
   -2.7788   22.7318  -26.5881 H   0  0  0  0  0  0  0  0  0  0  0  0
   -4.0892   25.3616  -27.3580 H   0  0  0  0  0  0  0  0  0  0  0  0
   -3.8790   24.5768  -25.7192 H   0  0  0  0  0  0  0  0  0  0  0  0
   -2.1572   26.4919  -27.1187 H   0  0  0  0  0  0  0  0  0  0  0  0
   -2.1932   25.9570  -25.3778 H   0  0  0  0  0  0  0  0  0  0  0  0
   -0.0027   25.5194  -26.4971 H   0  0  0  0  0  0  0  0  0  0  0  0
   -0.8196   24.0341  -25.8849 H   0  0  0  0  0  0  0  0  0  0  0  0
   -0.6267   25.0394  -28.7612 H   0  0  0  0  0  0  0  0  0  0  0  0
   -0.0217   23.4805  -28.0516 H   0  0  0  0  0  0  0  0  0  0  0  0
   -5.0366   20.7333  -34.1233 H   0  0  0  0  0  0  0  0  0  0  0  0
   -5.4087   18.3525  -34.7484 H   0  0  0  0  0  0  0  0  0  0  0  0
  1  2  1  0
  2  3  1  0
  3  4  1  0
  4  5  1  0
  5  6  2  0
  6  7  1  0
  7  8  2  0
  8  9  1  0
  9 10  2  0
  9 11  2  0
  9 12  1  0
 12 13  1  0
 13 14  1  0
 14 15  1  0
 15 16  1  0
 16 17  2  0
 16 18  1  0
 18 19  1  0
 19 20  1  0
 20 21  2  0
 20 22  1  0
 22 23  1  0
 23 24  1  0
 24 25  1  0
 25 26  1  0
 26 27  1  0
  8 28  1  0
 28 29  2  0
 29  5  1  0
 18 12  1  0
 27 22  1  0
  1 30  1  0
  1 31  1  0
  1 32  1  0
  2 33  1  0
  2 34  1  0
  3 35  1  0
  3 36  1  0
  6 37  1  0
  7 38  1  0
 13 39  1  0
 13 40  1  0
 14 41  1  0
 14 42  1  0
 15 43  1  0
 18 44  1  1
 19 45  1  0
 19 46  1  0
 23 47  1  0
 23 48  1  0
 24 49  1  0
 24 50  1  0
 25 51  1  0
 25 52  1  0
 26 53  1  0
 26 54  1  0
 27 55  1  0
 27 56  1  0
 28 57  1  0
 29 58  1  0
M  END
>  <UniqueID>  (36) 
33

>  <SMILES>  (36) 
CCCOc1ccc(S(=O)(=O)N2CCNC(=O)[C@@H]2CC(=O)N2CCCCC2)cc1

>  <Energy>  (36) 
64.03467693321035

>  <Genealogy>  (36) 
CCCOc1ccc(S(=O)(=O)N2CCNC(=O)[C@@H]2CC(=O)N2CCCCC2)cc1 (chirality)
CCCOc1ccc(S(=O)(=O)N2CCNC(=O)[C@@H]2CC(=O)N2CCCCC2)cc1 (3D coordinates assigned)
CCCOc1ccc(S(=O)(=O)N2CCNC(=O)[C@@H]2CC(=O)N2CCCCC2)cc1 (nonaromatic ring conformer: 64.03467693321035 kcal/mol)

>  <smiles>  (36) 
CCCOc1ccc(S(=O)(=O)N2CCNC(=O)C2CC(=O)N2CCCCC2)cc1

>  <score_type>  (36) 
oracle

>  <origin>  (36) 
adg

>  <m_score__min__energy>  (36) 
-9.3399999999999999

>  <m_primary>  (36) 
energy

$$$$
36:0
     RDKit          3D

 62 65  0  0  0  0  0  0  0  0999 V2000
   -0.9170   19.7760  -28.6000 C   0  0  0  0  0  0  0  0  0  0  0  0
   -1.2860   20.0830  -30.0490 C   0  0  0  0  0  0  0  0  0  0  0  0
   -1.9570   21.3960  -30.1520 N   0  0  0  0  0  0  0  0  0  0  0  0
   -1.3250   22.4620  -29.5710 C   0  0  0  0  0  0  0  0  0  0  0  0
   -1.8610   23.7570  -29.6140 C   0  0  0  0  0  0  0  0  0  0  0  0
   -1.1220   24.8810  -28.9740 C   0  0  0  0  0  0  0  0  0  0  0  0
   -1.6110   26.0420  -28.9670 O   0  0  0  0  0  0  0  0  0  0  0  0
    0.1150   24.6770  -28.3740 O   0  0  0  0  0  0  0  0  0  0  0  0
   -3.0900   23.9520  -30.2680 C   0  0  0  0  0  0  0  0  0  0  0  0
   -3.5970   25.1060  -30.3350 O   0  0  0  0  0  0  0  0  0  0  0  0
   -3.7610   22.8590  -30.8450 C   0  0  0  0  0  0  0  0  0  0  0  0
   -4.9990   23.0380  -31.4910 C   0  0  0  0  0  0  0  0  0  0  0  0
   -5.6740   21.9550  -32.0500 C   0  0  0  0  0  0  0  0  0  0  0  0
   -6.8740   22.1570  -32.6510 F   0  0  0  0  0  0  0  0  0  0  0  0
   -5.1320   20.6690  -31.9650 C   0  0  0  0  0  0  0  0  0  0  0  0
   -5.8280   19.5510  -32.5390 N   0  0  0  0  0  0  0  0  0  0  0  0
   -6.4680   19.6720  -33.8490 C   0  0  0  0  0  0  0  0  0  0  0  0
   -6.0690   18.4620  -34.6940 C   0  0  0  0  0  0  0  0  0  0  0  0
   -6.4240   17.1620  -34.0520 N   0  0  0  0  0  0  0  0  0  0  0  0
   -5.4760   16.0710  -34.4140 C   0  0  0  0  0  0  0  0  0  0  0  0
   -4.0490   16.2840  -33.9350 C   0  0  0  0  0  0  0  0  0  0  0  0
   -3.4040   15.2870  -33.1850 C   0  0  0  0  0  0  0  0  0  0  0  0
   -2.1030   15.4800  -32.7200 C   0  0  0  0  0  0  0  0  0  0  0  0
   -1.4120   16.6720  -33.0070 C   0  0  0  0  0  0  0  0  0  0  0  0
   -0.1050   16.9020  -32.5530 O   0  0  0  0  0  0  0  0  0  0  0  0
    0.2320   17.2840  -31.2240 C   0  0  0  0  0  0  0  0  0  0  0  0
   -2.0350   17.6640  -33.7770 C   0  0  0  0  0  0  0  0  0  0  0  0
   -1.3240   18.8440  -34.0440 O   0  0  0  0  0  0  0  0  0  0  0  0
   -1.8460   20.1570  -33.8730 C   0  0  0  0  0  0  0  0  0  0  0  0
   -3.3440   17.4560  -34.2570 C   0  0  0  0  0  0  0  0  0  0  0  0
   -6.7220   17.2390  -32.5930 C   0  0  0  0  0  0  0  0  0  0  0  0
   -5.8480   18.2610  -31.8420 C   0  0  0  0  0  0  0  0  0  0  0  0
   -3.8960   20.4780  -31.3330 C   0  0  0  0  0  0  0  0  0  0  0  0
   -3.1830   21.5630  -30.7680 C   0  0  0  0  0  0  0  0  0  0  0  0
   -1.5852   20.3319  -27.9258 H   0  0  0  0  0  0  0  0  0  0  0  0
   -1.0244   18.6970  -28.4150 H   0  0  0  0  0  0  0  0  0  0  0  0
    0.1245   20.0779  -28.4150 H   0  0  0  0  0  0  0  0  0  0  0  0
   -0.3709   20.0966  -30.6592 H   0  0  0  0  0  0  0  0  0  0  0  0
   -1.9750   19.3052  -30.4101 H   0  0  0  0  0  0  0  0  0  0  0  0
   -0.3677   22.2979  -29.0547 H   0  0  0  0  0  0  0  0  0  0  0  0
   -5.4384   24.0444  -31.5551 H   0  0  0  0  0  0  0  0  0  0  0  0
   -7.5610   19.6964  -33.7277 H   0  0  0  0  0  0  0  0  0  0  0  0
   -6.1462   20.6008  -34.3428 H   0  0  0  0  0  0  0  0  0  0  0  0
   -6.5836   18.5264  -35.6640 H   0  0  0  0  0  0  0  0  0  0  0  0
   -4.9752   18.4857  -34.8082 H   0  0  0  0  0  0  0  0  0  0  0  0
   -7.3310   16.8770  -34.4960 H   0  0  0  0  0  0  0  0  0  0  0  0
   -5.8485   15.1338  -33.9748 H   0  0  0  0  0  0  0  0  0  0  0  0
   -5.4344   16.0477  -35.5130 H   0  0  0  0  0  0  0  0  0  0  0  0
   -3.9290   14.3463  -32.9624 H   0  0  0  0  0  0  0  0  0  0  0  0
   -1.6137   14.6949  -32.1248 H   0  0  0  0  0  0  0  0  0  0  0  0
   -0.3218   16.6562  -30.5104 H   0  0  0  0  0  0  0  0  0  0  0  0
    1.3127   17.1513  -31.0672 H   0  0  0  0  0  0  0  0  0  0  0  0
   -0.0344   18.3397  -31.0672 H   0  0  0  0  0  0  0  0  0  0  0  0
   -1.9344   20.3795  -32.7994 H   0  0  0  0  0  0  0  0  0  0  0  0
   -1.1689   20.8850  -34.3437 H   0  0  0  0  0  0  0  0  0  0  0  0
   -2.8381   20.2213  -34.3437 H   0  0  0  0  0  0  0  0  0  0  0  0
   -3.8188   18.2196  -34.8906 H   0  0  0  0  0  0  0  0  0  0  0  0
   -7.7770   17.5238  -32.4674 H   0  0  0  0  0  0  0  0  0  0  0  0
   -6.5040   16.2494  -32.1649 H   0  0  0  0  0  0  0  0  0  0  0  0
   -6.2537   18.4057  -30.8298 H   0  0  0  0  0  0  0  0  0  0  0  0
   -4.8196   17.8734  -31.7944 H   0  0  0  0  0  0  0  0  0  0  0  0
   -3.4712   19.4650  -31.2747 H   0  0  0  0  0  0  0  0  0  0  0  0
  1  2  1  0
  2  3  1  0
  3  4  1  0
  4  5  2  0
  5  6  1  0
  6  7  2  0
  6  8  1  0
  5  9  1  0
  9 10  2  0
  9 11  1  0
 11 12  2  0
 12 13  1  0
 13 14  1  0
 13 15  2  0
 15 16  1  0
 16 17  1  0
 17 18  1  0
 18 19  1  0
 19 20  1  0
 20 21  1  0
 21 22  2  0
 22 23  1  0
 23 24  2  0
 24 25  1  0
 25 26  1  0
 24 27  1  0
 27 28  1  0
 28 29  1  0
 27 30  2  0
 19 31  1  0
 31 32  1  0
 15 33  1  0
 33 34  2  0
 34  3  1  0
 34 11  1  0
 32 16  1  0
 30 21  1  0
  1 35  1  0
  1 36  1  0
  1 37  1  0
  2 38  1  0
  2 39  1  0
  4 40  1  0
 12 41  1  0
 17 42  1  0
 17 43  1  0
 18 44  1  0
 18 45  1  0
 19 46  1  0
 20 47  1  0
 20 48  1  0
 22 49  1  0
 23 50  1  0
 26 51  1  0
 26 52  1  0
 26 53  1  0
 29 54  1  0
 29 55  1  0
 29 56  1  0
 30 57  1  0
 31 58  1  0
 31 59  1  0
 32 60  1  0
 32 61  1  0
 33 62  1  0
M  CHG  2   8  -1  19   1
M  END
>  <UniqueID>  (37) 
34

>  <SMILES>  (37) 
CCn1cc(C(=O)[O-])c(=O)c2cc(F)c(N3CC[NH+](Cc4ccc(OC)c(OC)c4)CC3)cc21

>  <Energy>  (37) 
86.84792768936597

>  <Genealogy>  (37) 
CCn1cc(C(=O)[O-])c(=O)c2cc(F)c(N3CC[NH+](Cc4ccc(OC)c(OC)c4)CC3)cc21 (protonated)
CCn1cc(C(=O)[O-])c(=O)c2cc(F)c(N3CC[NH+](Cc4ccc(OC)c(OC)c4)CC3)cc21 (3D coordinates assigned)
CCn1cc(C(=O)[O-])c(=O)c2cc(F)c(N3CC[NH+](Cc4ccc(OC)c(OC)c4)CC3)cc21 (nonaromatic ring conformer: 86.84792768936597 kcal/mol)

>  <smiles>  (37) 
CCn1cc(C(=O)O)c(=O)c2cc(F)c(N3CCN(Cc4ccc(OC)c(OC)c4)CC3)cc21

>  <score_type>  (37) 
oracle

>  <origin>  (37) 
adg

>  <m_score__min__energy>  (37) 
-9.3599999999999994

>  <m_primary>  (37) 
energy

$$$$
37:0
     RDKit          3D

 39 40  0  0  0  0  0  0  0  0999 V2000
   -3.9650   25.3000  -30.5570 N   0  0  0  0  0  0  0  0  0  0  0  0
   -4.5170   23.9530  -30.4060 C   0  0  0  0  0  0  0  0  0  0  0  0
   -4.1730   23.0420  -31.5970 C   0  0  0  0  0  0  0  0  0  0  0  0
   -5.0860   21.8000  -31.6780 C   0  0  0  0  0  0  0  0  0  0  0  0
   -5.0380   21.1500  -33.0210 N   0  0  1  0  0  0  0  0  0  0  0  0
   -4.0880   20.0050  -33.0630 C   0  0  0  0  0  0  0  0  0  0  0  0
   -4.7940   18.6770  -33.1870 C   0  0  0  0  0  0  0  0  0  0  0  0
   -4.8690   18.0220  -34.4290 C   0  0  0  0  0  0  0  0  0  0  0  0
   -5.5550   16.8100  -34.5450 C   0  0  0  0  0  0  0  0  0  0  0  0
   -6.1690   16.2420  -33.4270 C   0  0  0  0  0  0  0  0  0  0  0  0
   -6.0980   16.8860  -32.1880 C   0  0  0  0  0  0  0  0  0  0  0  0
   -5.4150   18.0990  -32.0660 C   0  0  0  0  0  0  0  0  0  0  0  0
   -6.3900   20.7300  -33.4750 C   0  0  0  0  0  0  0  0  0  0  0  0
   -7.4770   20.9720  -32.4570 C   0  0  0  0  0  0  0  0  0  0  0  0
   -8.1470   20.0020  -31.7220 C   0  0  0  0  0  0  0  0  0  0  0  0
   -9.1020   20.5320  -30.8460 C   0  0  0  0  0  0  0  0  0  0  0  0
   -9.1840   21.9180  -30.8840 C   0  0  0  0  0  0  0  0  0  0  0  0
   -8.0660   22.4830  -32.0050 S   0  0  0  0  0  0  0  0  0  0  0  0
   -4.1930   25.6660  -31.5090 H   0  0  0  0  0  0  0  0  0  0  0  0
   -4.4040   25.9340  -29.8520 H   0  0  0  0  0  0  0  0  0  0  0  0
   -4.1084   23.5045  -29.4885 H   0  0  0  0  0  0  0  0  0  0  0  0
   -5.6123   24.0426  -30.3573 H   0  0  0  0  0  0  0  0  0  0  0  0
   -4.2822   23.6206  -32.5261 H   0  0  0  0  0  0  0  0  0  0  0  0
   -3.1408   22.6880  -31.4582 H   0  0  0  0  0  0  0  0  0  0  0  0
   -4.7610   21.0717  -30.9204 H   0  0  0  0  0  0  0  0  0  0  0  0
   -6.1202   22.1296  -31.4997 H   0  0  0  0  0  0  0  0  0  0  0  0
   -4.7190   21.8520  -33.7310 H   0  0  0  0  0  0  0  0  0  0  0  0
   -3.4195   20.1319  -33.9273 H   0  0  0  0  0  0  0  0  0  0  0  0
   -3.5265   19.9997  -32.1171 H   0  0  0  0  0  0  0  0  0  0  0  0
   -4.3860   18.4651  -35.3124 H   0  0  0  0  0  0  0  0  0  0  0  0
   -5.6114   16.3024  -35.5192 H   0  0  0  0  0  0  0  0  0  0  0  0
   -6.7085   15.2880  -33.5210 H   0  0  0  0  0  0  0  0  0  0  0  0
   -6.5807   16.4369  -31.3075 H   0  0  0  0  0  0  0  0  0  0  0  0
   -5.3631   18.6032  -31.0897 H   0  0  0  0  0  0  0  0  0  0  0  0
   -6.6389   21.2908  -34.3880 H   0  0  0  0  0  0  0  0  0  0  0  0
   -6.3474   19.6442  -33.6460 H   0  0  0  0  0  0  0  0  0  0  0  0
   -7.9471   18.9246  -31.8187 H   0  0  0  0  0  0  0  0  0  0  0  0
   -9.7281   19.9096  -30.1898 H   0  0  0  0  0  0  0  0  0  0  0  0
   -9.8642   22.5396  -30.2833 H   0  0  0  0  0  0  0  0  0  0  0  0
  1  2  1  0
  2  3  1  0
  3  4  1  0
  4  5  1  0
  5  6  1  0
  6  7  1  0
  7  8  2  0
  8  9  1  0
  9 10  2  0
 10 11  1  0
 11 12  2  0
  5 13  1  0
 13 14  1  0
 14 15  2  0
 15 16  1  0
 16 17  2  0
 17 18  1  0
 12  7  1  0
 18 14  1  0
  1 19  1  0
  1 20  1  0
  2 21  1  0
  2 22  1  0
  3 23  1  0
  3 24  1  0
  4 25  1  0
  4 26  1  0
  5 27  1  6
  6 28  1  0
  6 29  1  0
  8 30  1  0
  9 31  1  0
 10 32  1  0
 11 33  1  0
 12 34  1  0
 13 35  1  0
 13 36  1  0
 15 37  1  0
 16 38  1  0
 17 39  1  0
M  CHG  1   5   1
M  END
>  <UniqueID>  (38) 
35

>  <SMILES>  (38) 
NCCC[N@@H+](Cc1ccccc1)Cc1cccs1

>  <Energy>  (38) 
66.44348998532048

>  <Genealogy>  (38) 
NCCC[NH+](Cc1ccccc1)Cc1cccs1 (protonated)
NCCC[N@@H+](Cc1ccccc1)Cc1cccs1 (chirality)
NCCC[N@@H+](Cc1ccccc1)Cc1cccs1 (3D coordinates assigned)
NCCC[N@@H+](Cc1ccccc1)Cc1cccs1 (optimized conformer: 66.44348998532048 kcal/mol)

>  <smiles>  (38) 
NCCCN(Cc1ccccc1)Cc1cccs1

>  <score_type>  (38) 
oracle

>  <origin>  (38) 
adg

>  <m_score__min__energy>  (38) 
-6.9199999999999999

>  <m_primary>  (38) 
energy

$$$$
38:0
     RDKit          3D

 41 43  0  0  0  0  0  0  0  0999 V2000
   -0.8630   27.7660  -25.0480 C   0  0  0  0  0  0  0  0  0  0  0  0
   -0.7860   26.7810  -23.5210 S   0  0  0  0  0  0  0  0  0  0  0  0
   -0.6590   25.2240  -24.4000 C   0  0  0  0  0  0  0  0  0  0  0  0
   -1.5640   24.9240  -25.3670 N   0  0  0  0  0  0  0  0  0  0  0  0
   -1.5010   23.7550  -26.0630 C   0  0  0  0  0  0  0  0  0  0  0  0
   -2.4910   23.4750  -27.0740 N   0  0  0  0  0  0  0  0  0  0  0  0
   -3.4280   24.5440  -27.4530 C   0  0  0  0  0  0  0  0  0  0  0  0
   -4.5770   24.0070  -28.3090 C   0  0  0  0  0  0  0  0  0  0  0  0
   -4.0400   23.1990  -29.4090 N   0  0  0  0  0  0  0  0  0  0  0  0
   -4.4320   23.4830  -30.7640 C   0  0  0  0  0  0  0  0  0  0  0  0
   -4.4540   24.6800  -31.1620 O   0  0  0  0  0  0  0  0  0  0  0  0
   -4.8080   22.3990  -31.6980 C   0  0  0  0  0  0  0  0  0  0  0  0
   -3.8200   21.6850  -32.4010 C   0  0  0  0  0  0  0  0  0  0  0  0
   -4.1810   20.6510  -33.2700 C   0  0  0  0  0  0  0  0  0  0  0  0
   -5.5260   20.3130  -33.4380 C   0  0  0  0  0  0  0  0  0  0  0  0
   -6.5130   21.0060  -32.7330 C   0  0  0  0  0  0  0  0  0  0  0  0
   -6.1580   22.0400  -31.8620 C   0  0  0  0  0  0  0  0  0  0  0  0
   -2.9730   22.2200  -29.1540 C   0  0  0  0  0  0  0  0  0  0  0  0
   -2.6230   22.1310  -27.6620 C   0  0  0  0  0  0  0  0  0  0  0  0
   -0.4850   22.8360  -25.7550 C   0  0  0  0  0  0  0  0  0  0  0  0
    0.4350   23.1610  -24.7580 C   0  0  0  0  0  0  0  0  0  0  0  0
    0.3360   24.3460  -24.1010 N   0  0  0  0  0  0  0  0  0  0  0  0
   -0.9464   28.8327  -24.7925 H   0  0  0  0  0  0  0  0  0  0  0  0
    0.0508   27.6005  -25.6375 H   0  0  0  0  0  0  0  0  0  0  0  0
   -1.7400   27.4605  -25.6375 H   0  0  0  0  0  0  0  0  0  0  0  0
   -3.8435   24.9951  -26.5398 H   0  0  0  0  0  0  0  0  0  0  0  0
   -2.8778   25.2908  -28.0442 H   0  0  0  0  0  0  0  0  0  0  0  0
   -5.2364   23.3845  -27.6864 H   0  0  0  0  0  0  0  0  0  0  0  0
   -5.1476   24.8514  -28.7229 H   0  0  0  0  0  0  0  0  0  0  0  0
   -2.7589   21.9416  -32.2662 H   0  0  0  0  0  0  0  0  0  0  0  0
   -3.4042   20.1023  -33.8227 H   0  0  0  0  0  0  0  0  0  0  0  0
   -5.8078   19.5015  -34.1251 H   0  0  0  0  0  0  0  0  0  0  0  0
   -7.5717   20.7374  -32.8636 H   0  0  0  0  0  0  0  0  0  0  0  0
   -6.9385   22.5758  -31.3019 H   0  0  0  0  0  0  0  0  0  0  0  0
   -3.3074   21.2310  -29.5005 H   0  0  0  0  0  0  0  0  0  0  0  0
   -2.0736   22.5467  -29.6964 H   0  0  0  0  0  0  0  0  0  0  0  0
   -3.4200   21.5844  -27.1367 H   0  0  0  0  0  0  0  0  0  0  0  0
   -1.6631   21.6043  -27.5561 H   0  0  0  0  0  0  0  0  0  0  0  0
   -0.4158   21.8774  -26.2901 H   0  0  0  0  0  0  0  0  0  0  0  0
    1.2412   22.4572  -24.5036 H   0  0  0  0  0  0  0  0  0  0  0  0
    1.0310   24.5780  -23.3560 H   0  0  0  0  0  0  0  0  0  0  0  0
  1  2  1  0
  2  3  1  0
  3  4  2  0
  4  5  1  0
  5  6  1  0
  6  7  1  0
  7  8  1  0
  8  9  1  0
  9 10  1  0
 10 11  2  0
 10 12  1  0
 12 13  2  0
 13 14  1  0
 14 15  2  0
 15 16  1  0
 16 17  2  0
  9 18  1  0
 18 19  1  0
  5 20  2  0
 20 21  1  0
 21 22  2  0
 22  3  1  0
 19  6  1  0
 17 12  1  0
  1 23  1  0
  1 24  1  0
  1 25  1  0
  7 26  1  0
  7 27  1  0
  8 28  1  0
  8 29  1  0
 13 30  1  0
 14 31  1  0
 15 32  1  0
 16 33  1  0
 17 34  1  0
 18 35  1  0
 18 36  1  0
 19 37  1  0
 19 38  1  0
 20 39  1  0
 21 40  1  0
 22 41  1  0
M  CHG  1  22   1
M  END
>  <UniqueID>  (39) 
36

>  <SMILES>  (39) 
CSc1nc(N2CCN(C(=O)c3ccccc3)CC2)cc[nH+]1

>  <Energy>  (39) 
46.56063357391403

>  <Genealogy>  (39) 
CSc1nc(N2CCN(C(=O)c3ccccc3)CC2)cc[nH+]1 (protonated)
CSc1nc(N2CCN(C(=O)c3ccccc3)CC2)cc[nH+]1 (3D coordinates assigned)
CSc1nc(N2CCN(C(=O)c3ccccc3)CC2)cc[nH+]1 (nonaromatic ring conformer: 46.56063357391403 kcal/mol)

>  <smiles>  (39) 
CSc1nccc(N2CCN(C(=O)c3ccccc3)CC2)n1

>  <score_type>  (39) 
oracle

>  <origin>  (39) 
adg

>  <m_score__min__energy>  (39) 
-7.5899999999999999

>  <m_primary>  (39) 
energy

$$$$
39:0
     RDKit          3D

 40 42  0  0  0  0  0  0  0  0999 V2000
   -3.2430   15.9660  -35.3200 C   0  0  0  0  0  0  0  0  0  0  0  0
   -4.2100   15.7720  -34.2940 O   0  0  0  0  0  0  0  0  0  0  0  0
   -5.1340   16.7470  -33.8850 C   0  0  0  0  0  0  0  0  0  0  0  0
   -5.6140   16.7060  -32.5740 C   0  0  0  0  0  0  0  0  0  0  0  0
   -6.5240   17.6640  -32.1290 C   0  0  0  0  0  0  0  0  0  0  0  0
   -6.9470   18.6740  -33.0030 C   0  0  0  0  0  0  0  0  0  0  0  0
   -7.8590   19.6880  -32.5460 N   0  0  0  0  0  0  0  0  0  0  0  0
   -9.1970   19.5670  -32.4910 C   0  0  0  0  0  0  0  0  0  0  0  0
   -9.7240   20.7820  -32.1170 C   0  0  0  0  0  0  0  0  0  0  0  0
   -8.7270   21.6700  -31.9310 N   0  0  0  0  0  0  0  0  0  0  0  0
   -7.6000   20.9710  -32.1930 C   0  0  0  0  0  0  0  0  0  0  0  0
   -6.2520   21.5670  -32.0430 C   0  0  0  0  0  0  0  0  0  0  0  0
   -5.1200   20.8320  -32.4280 C   0  0  0  0  0  0  0  0  0  0  0  0
   -3.8370   21.3820  -32.2990 C   0  0  0  0  0  0  0  0  0  0  0  0
   -2.6290   20.5700  -32.6630 C   0  0  0  0  0  0  0  0  0  0  0  0
   -3.6850   22.6660  -31.7560 C   0  0  0  0  0  0  0  0  0  0  0  0
   -4.8040   23.4180  -31.3830 C   0  0  0  0  0  0  0  0  0  0  0  0
   -4.5970   24.6990  -30.8480 O   0  0  0  0  0  0  0  0  0  0  0  0
   -5.5640   25.4210  -30.0920 C   0  0  0  0  0  0  0  0  0  0  0  0
   -6.0900   22.8720  -31.5510 C   0  0  0  0  0  0  0  0  0  0  0  0
   -6.4850   18.6880  -34.2890 N   0  0  0  0  0  0  0  0  0  0  0  0
   -5.5950   17.7630  -34.7400 C   0  0  0  0  0  0  0  0  0  0  0  0
   -2.2608   16.1630  -34.8656 H   0  0  0  0  0  0  0  0  0  0  0  0
   -3.1837   15.0619  -35.9437 H   0  0  0  0  0  0  0  0  0  0  0  0
   -3.5371   16.8230  -35.9437 H   0  0  0  0  0  0  0  0  0  0  0  0
   -5.2728   15.9149  -31.8900 H   0  0  0  0  0  0  0  0  0  0  0  0
   -6.9073   17.6271  -31.0986 H   0  0  0  0  0  0  0  0  0  0  0  0
   -9.7714   18.6542  -32.7076 H   0  0  0  0  0  0  0  0  0  0  0  0
  -10.7954   20.9959  -31.9893 H   0  0  0  0  0  0  0  0  0  0  0  0
   -5.2404   19.8168  -32.8340 H   0  0  0  0  0  0  0  0  0  0  0  0
   -2.1250   20.2312  -31.7458 H   0  0  0  0  0  0  0  0  0  0  0  0
   -2.9392   19.6963  -33.2550 H   0  0  0  0  0  0  0  0  0  0  0  0
   -1.9371   21.1871  -33.2550 H   0  0  0  0  0  0  0  0  0  0  0  0
   -2.6770   23.0855  -31.6222 H   0  0  0  0  0  0  0  0  0  0  0  0
   -5.3718   25.2775  -29.0185 H   0  0  0  0  0  0  0  0  0  0  0  0
   -5.4962   26.4913  -30.3368 H   0  0  0  0  0  0  0  0  0  0  0  0
   -6.5709   25.0519  -30.3368 H   0  0  0  0  0  0  0  0  0  0  0  0
   -6.9754   23.4724  -31.2948 H   0  0  0  0  0  0  0  0  0  0  0  0
   -6.8240   19.4180  -34.9540 H   0  0  0  0  0  0  0  0  0  0  0  0
   -5.2346   17.8104  -35.7782 H   0  0  0  0  0  0  0  0  0  0  0  0
  1  2  1  0
  2  3  1  0
  3  4  2  0
  4  5  1  0
  5  6  2  0
  6  7  1  0
  7  8  1  0
  8  9  2  0
  9 10  1  0
 10 11  2  0
 11 12  1  0
 12 13  2  0
 13 14  1  0
 14 15  1  0
 14 16  2  0
 16 17  1  0
 17 18  1  0
 18 19  1  0
 17 20  2  0
  6 21  1  0
 21 22  2  0
 22  3  1  0
 11  7  1  0
 20 12  1  0
  1 23  1  0
  1 24  1  0
  1 25  1  0
  4 26  1  0
  5 27  1  0
  8 28  1  0
  9 29  1  0
 13 30  1  0
 15 31  1  0
 15 32  1  0
 15 33  1  0
 16 34  1  0
 19 35  1  0
 19 36  1  0
 19 37  1  0
 20 38  1  0
 21 39  1  0
 22 40  1  0
M  CHG  1  21   1
M  END
>  <UniqueID>  (40) 
37

>  <SMILES>  (40) 
COc1ccc(-n2ccnc2-c2cc(C)cc(OC)c2)[nH+]c1

>  <Energy>  (40) 
77.13708387723524

>  <Genealogy>  (40) 
COc1ccc(-n2ccnc2-c2cc(C)cc(OC)c2)[nH+]c1 (protonated)
COc1ccc(-n2ccnc2-c2cc(C)cc(OC)c2)[nH+]c1 (3D coordinates assigned)
COc1ccc(-n2ccnc2-c2cc(C)cc(OC)c2)[nH+]c1 (optimized conformer: 77.13708387723524 kcal/mol)

>  <smiles>  (40) 
COc1ccc(-n2ccnc2-c2cc(C)cc(OC)c2)nc1

>  <score_type>  (40) 
oracle

>  <origin>  (40) 
adg

>  <m_score__min__energy>  (40) 
-7.3799999999999999

>  <m_primary>  (40) 
energy

$$$$
40:0
     RDKit          3D

 44 46  0  0  0  0  0  0  0  0999 V2000
   -6.1457   21.7769  -32.6313 H   0  0  0  0  0  0  0  0  0  0  0  0
   -6.1100   22.6350  -31.9440 C   0  0  0  0  0  0  0  0  0  0  0  0
   -4.8850   23.2380  -31.6420 C   0  0  0  0  0  0  0  0  0  0  0  0
   -3.9577   22.8410  -32.0807 H   0  0  0  0  0  0  0  0  0  0  0  0
   -4.8310   24.3450  -30.7840 C   0  0  0  0  0  0  0  0  0  0  0  0
   -3.5510   24.9180  -30.4710 N   0  0  0  0  0  0  0  0  0  0  0  0
   -2.7350   24.5240  -29.5340 C   0  0  0  0  0  0  0  0  0  0  0  0
   -1.8480   25.3840  -28.9650 N   0  0  0  0  0  0  0  0  0  0  0  0
   -0.9780   24.9930  -27.9980 C   0  0  0  0  0  0  0  0  0  0  0  0
   -0.0620   26.0060  -27.3730 C   0  0  0  0  0  0  0  0  0  0  0  0
    0.9333   25.9255  -27.8345 H   0  0  0  0  0  0  0  0  0  0  0  0
   -0.0003   25.8068  -26.2929 H   0  0  0  0  0  0  0  0  0  0  0  0
   -0.5580   27.3180  -27.5650 O   0  0  0  0  0  0  0  0  0  0  0  0
   -0.7580   27.9890  -26.3320 C   0  0  0  0  0  0  0  0  0  0  0  0
   -1.5237   28.7684  -26.4597 H   0  0  0  0  0  0  0  0  0  0  0  0
    0.1875   28.4498  -26.0102 H   0  0  0  0  0  0  0  0  0  0  0  0
   -1.2200   26.9930  -25.2750 C   0  0  0  0  0  0  0  0  0  0  0  0
   -1.0285   27.4059  -24.2736 H   0  0  0  0  0  0  0  0  0  0  0  0
   -2.2972   26.8051  -25.3943 H   0  0  0  0  0  0  0  0  0  0  0  0
   -0.6677   26.0492  -25.3943 H   0  0  0  0  0  0  0  0  0  0  0  0
   -0.9900   23.6680  -27.5470 C   0  0  0  0  0  0  0  0  0  0  0  0
   -0.3051   23.3524  -26.7462 H   0  0  0  0  0  0  0  0  0  0  0  0
   -1.8800   22.7400  -28.1200 C   0  0  0  0  0  0  0  0  0  0  0  0
   -1.8990   21.3620  -27.6780 N   0  0  0  0  0  0  0  0  0  0  0  0
   -0.7060   20.5650  -27.4420 C   0  0  0  0  0  0  0  0  0  0  0  0
   -0.1810   20.3730  -28.3894 H   0  0  0  0  0  0  0  0  0  0  0  0
    0.0002   21.0839  -26.7771 H   0  0  0  0  0  0  0  0  0  0  0  0
   -1.1890   19.2580  -26.8310 C   0  0  0  0  0  0  0  0  0  0  0  0
   -0.6553   18.4059  -27.2772 H   0  0  0  0  0  0  0  0  0  0  0  0
   -1.0035   19.2240  -25.7473 H   0  0  0  0  0  0  0  0  0  0  0  0
   -2.6770   19.1780  -27.1490 C   0  0  0  0  0  0  0  0  0  0  0  0
   -2.8461   18.5524  -28.0379 H   0  0  0  0  0  0  0  0  0  0  0  0
   -3.2449   18.7253  -26.3228 H   0  0  0  0  0  0  0  0  0  0  0  0
   -3.1190   20.6100  -27.4160 C   0  0  0  0  0  0  0  0  0  0  0  0
   -3.7868   20.6478  -28.2893 H   0  0  0  0  0  0  0  0  0  0  0  0
   -3.6751   21.0267  -26.5633 H   0  0  0  0  0  0  0  0  0  0  0  0
   -2.7520   23.1840  -29.1310 C   0  0  0  0  0  0  0  0  0  0  0  0
   -3.4482   22.4767  -29.6054 H   0  0  0  0  0  0  0  0  0  0  0  0
   -6.0190   24.8100  -30.1870 C   0  0  0  0  0  0  0  0  0  0  0  0
   -5.9844   25.6519  -29.4798 H   0  0  0  0  0  0  0  0  0  0  0  0
   -7.2430   24.2040  -30.4910 C   0  0  0  0  0  0  0  0  0  0  0  0
   -8.1704   24.5803  -30.0347 H   0  0  0  0  0  0  0  0  0  0  0  0
   -7.2890   23.1220  -31.3730 C   0  0  0  0  0  0  0  0  0  0  0  0
   -8.4760   22.5350  -31.6650 F   0  0  0  0  0  0  0  0  0  0  0  0
  1  2  1  0
  2  3  2  0
  3  4  1  0
  3  5  1  0
  5  6  1  0
  6  7  2  0
  7  8  1  0
  8  9  1  0
  9 10  1  0
 10 11  1  0
 10 12  1  0
 10 13  1  0
 13 14  1  0
 14 15  1  0
 14 16  1  0
 14 17  1  0
 17 18  1  0
 17 19  1  0
 17 20  1  0
  9 21  2  0
 21 22  1  0
 21 23  1  0
 23 24  1  0
 24 25  1  0
 25 26  1  0
 25 27  1  0
 25 28  1  0
 28 29  1  0
 28 30  1  0
 28 31  1  0
 31 32  1  0
 31 33  1  0
 31 34  1  0
 34 35  1  0
 34 36  1  0
 23 37  2  0
 37 38  1  0
  5 39  2  0
 39 40  1  0
 39 41  1  0
 41 42  1  0
 41 43  2  0
 43 44  1  0
 43  2  1  0
 37  7  1  0
 34 24  1  0
M  CHG  1   8  -1
M  END
>  <UniqueID>  (41) 
38

>  <SMILES>  (41) 
CCOCc1cc(N2CCCC2)c/c(=N/c2ccc(F)cc2)[n-]1

>  <Energy>  (41) 
52.00476018461764

>  <Genealogy>  (41) 
CCOCc1cc(N2CCCC2)cc(=Nc2ccc(F)cc2)[n-]1 (protonated)
CCOCc1cc(N2CCCC2)c/c(=N/c2ccc(F)cc2)[n-]1 (cis-trans isomerization)
CCOCc1cc(N2CCCC2)c/c(=N/c2ccc(F)cc2)[n-]1 (3D coordinates assigned)
CCOCc1cc(N2CCCC2)c/c(=N/c2ccc(F)cc2)[n-]1 (nonaromatic ring conformer: 52.00476018461764 kcal/mol)

>  <smiles>  (41) 
CCOCc1cc(N2CCCC2)cc(=Nc2ccc(F)cc2)[nH]1

>  <score_type>  (41) 
oracle

>  <origin>  (41) 
adg

>  <m_score__min__energy>  (41) 
-8.8800000000000008

>  <m_primary>  (41) 
energy

$$$$
41:0
     RDKit          3D

 29 30  0  0  0  0  0  0  0  0999 V2000
   -6.0740   24.9340  -30.3480 C   0  0  0  0  0  0  0  0  0  0  0  0
   -6.5390   23.4920  -30.1810 C   0  0  0  0  0  0  0  0  0  0  0  0
   -7.0500   22.9680  -31.4510 N   0  0  0  0  0  0  0  0  0  0  0  0
   -8.3340   23.4200  -31.9850 C   0  0  0  0  0  0  0  0  0  0  0  0
   -6.3610   21.8920  -32.1060 C   0  0  0  0  0  0  0  0  0  0  0  0
   -5.1130   22.1290  -32.6960 C   0  0  0  0  0  0  0  0  0  0  0  0
   -4.4500   21.1310  -33.3390 N   0  0  0  0  0  0  0  0  0  0  0  0
   -4.9650   19.8770  -33.4330 C   0  0  0  0  0  0  0  0  0  0  0  0
   -6.2070   19.5790  -32.8570 C   0  0  0  0  0  0  0  0  0  0  0  0
   -6.7440   18.2850  -32.9410 C   0  0  0  0  0  0  0  0  0  0  0  0
   -7.9780   17.9990  -32.3530 C   0  0  0  0  0  0  0  0  0  0  0  0
   -8.6800   18.9980  -31.6750 C   0  0  0  0  0  0  0  0  0  0  0  0
   -8.1560   20.2900  -31.5840 C   0  0  0  0  0  0  0  0  0  0  0  0
   -6.9180   20.5980  -32.1790 C   0  0  0  0  0  0  0  0  0  0  0  0
   -5.9273   25.3890  -29.3573 H   0  0  0  0  0  0  0  0  0  0  0  0
   -5.1248   24.9512  -30.9036 H   0  0  0  0  0  0  0  0  0  0  0  0
   -6.8344   25.5024  -30.9036 H   0  0  0  0  0  0  0  0  0  0  0  0
   -5.6915   22.8743  -29.8491 H   0  0  0  0  0  0  0  0  0  0  0  0
   -7.3452   23.4621  -29.4332 H   0  0  0  0  0  0  0  0  0  0  0  0
   -9.0132   23.6591  -31.1534 H   0  0  0  0  0  0  0  0  0  0  0  0
   -8.1791   24.3176  -32.6016 H   0  0  0  0  0  0  0  0  0  0  0  0
   -8.7756   22.6233  -32.6016 H   0  0  0  0  0  0  0  0  0  0  0  0
   -4.6650   23.1320  -32.6387 H   0  0  0  0  0  0  0  0  0  0  0  0
   -3.5220   21.3340  -33.7740 H   0  0  0  0  0  0  0  0  0  0  0  0
   -4.4047   19.0929  -33.9633 H   0  0  0  0  0  0  0  0  0  0  0  0
   -6.1920   17.4948  -33.4709 H   0  0  0  0  0  0  0  0  0  0  0  0
   -8.3979   16.9848  -32.4240 H   0  0  0  0  0  0  0  0  0  0  0  0
   -9.6499   18.7666  -31.2105 H   0  0  0  0  0  0  0  0  0  0  0  0
   -8.7135   21.0701  -31.0449 H   0  0  0  0  0  0  0  0  0  0  0  0
  1  2  1  0
  2  3  1  0
  3  4  1  0
  3  5  1  0
  5  6  2  0
  6  7  1  0
  7  8  2  0
  8  9  1  0
  9 10  2  0
 10 11  1  0
 11 12  2  0
 12 13  1  0
 13 14  2  0
 14  5  1  0
 14  9  1  0
  1 15  1  0
  1 16  1  0
  1 17  1  0
  2 18  1  0
  2 19  1  0
  4 20  1  0
  4 21  1  0
  4 22  1  0
  6 23  1  0
  7 24  1  0
  8 25  1  0
 10 26  1  0
 11 27  1  0
 12 28  1  0
 13 29  1  0
M  CHG  1   7   1
M  END
>  <UniqueID>  (42) 
39

>  <SMILES>  (42) 
CCN(C)c1c[nH+]cc2ccccc12

>  <Energy>  (42) 
33.8796191941773

>  <Genealogy>  (42) 
CCN(C)c1c[nH+]cc2ccccc12 (protonated)
CCN(C)c1c[nH+]cc2ccccc12 (3D coordinates assigned)
CCN(C)c1c[nH+]cc2ccccc12 (optimized conformer: 33.8796191941773 kcal/mol)

>  <smiles>  (42) 
CCN(C)c1cncc2ccccc12

>  <score_type>  (42) 
oracle

>  <origin>  (42) 
adg

>  <m_score__min__energy>  (42) 
-5.0899999999999999

>  <m_primary>  (42) 
energy

$$$$
42:0
     RDKit          3D

 47 49  0  0  1  0  0  0  0  0999 V2000
   -6.9840   12.8940  -35.5160 C   0  0  0  0  0  0  0  0  0  0  0  0
   -5.8520   13.4750  -34.9500 O   0  0  0  0  0  0  0  0  0  0  0  0
   -5.4430   13.3700  -33.6320 C   0  0  0  0  0  0  0  0  0  0  0  0
   -5.7550   12.2700  -32.8450 C   0  0  0  0  0  0  0  0  0  0  0  0
   -5.3420   12.1690  -31.5240 C   0  0  0  0  0  0  0  0  0  0  0  0
   -4.6000   13.1930  -30.9740 C   0  0  0  0  0  0  0  0  0  0  0  0
   -4.2910   14.2830  -31.7540 C   0  0  0  0  0  0  0  0  0  0  0  0
   -4.6960   14.4010  -33.0790 C   0  0  0  0  0  0  0  0  0  0  0  0
   -4.3690   15.5600  -33.9190 C   0  0  0  0  0  0  0  0  0  0  0  0
   -5.5260   16.2910  -34.4000 N   0  0  0  0  0  0  0  0  0  0  0  0
   -6.5210   16.3920  -33.3630 C   0  0  0  0  0  0  0  0  0  0  0  0
   -6.3210   17.5940  -32.4720 C   0  0  0  0  0  0  0  0  0  0  0  0
   -6.1350   18.8110  -33.2620 N   0  0  0  0  0  0  0  0  0  0  0  0
   -6.0020   20.0610  -32.6470 C   0  0  0  0  0  0  0  0  0  0  0  0
   -7.1070   20.7780  -32.2500 C   0  0  0  0  0  0  0  0  0  0  0  0
   -7.0240   22.0190  -31.6380 C   0  0  0  0  0  0  0  0  0  0  0  0
   -5.7280   22.5110  -31.4410 C   0  0  0  0  0  0  0  0  0  0  0  0
   -5.5540   23.8080  -30.8040 C   0  0  0  0  0  0  0  0  0  0  0  0
   -6.3900   24.2190  -29.7840 O   0  0  0  0  0  0  0  0  0  0  0  0
   -4.6150   24.6230  -31.1680 N   0  0  0  0  0  0  0  0  0  0  0  0
   -4.2400   25.6740  -30.3410 O   0  0  0  0  0  0  0  0  0  0  0  0
   -4.6140   21.7880  -31.8400 C   0  0  0  0  0  0  0  0  0  0  0  0
   -4.7570   20.5780  -32.4360 N   0  0  0  0  0  0  0  0  0  0  0  0
   -6.1020   18.6170  -34.7090 C   0  0  0  0  0  0  0  0  0  0  0  0
   -5.0770   17.5290  -34.9490 C   0  0  0  0  0  0  0  0  0  0  0  0
   -7.6570   12.5486  -34.7175 H   0  0  0  0  0  0  0  0  0  0  0  0
   -7.5047   13.6363  -36.1388 H   0  0  0  0  0  0  0  0  0  0  0  0
   -6.6844   12.0382  -36.1388 H   0  0  0  0  0  0  0  0  0  0  0  0
   -6.3480   11.4530  -33.2820 H   0  0  0  0  0  0  0  0  0  0  0  0
   -5.6028   11.2846  -30.9241 H   0  0  0  0  0  0  0  0  0  0  0  0
   -4.2609   13.1390  -29.9290 H   0  0  0  0  0  0  0  0  0  0  0  0
   -3.6980   15.0964  -31.3105 H   0  0  0  0  0  0  0  0  0  0  0  0
   -3.7464   16.2489  -33.3292 H   0  0  0  0  0  0  0  0  0  0  0  0
   -3.8496   15.1704  -34.8070 H   0  0  0  0  0  0  0  0  0  0  0  0
   -7.5125   16.4652  -33.8338 H   0  0  0  0  0  0  0  0  0  0  0  0
   -6.4325   15.4952  -32.7322 H   0  0  0  0  0  0  0  0  0  0  0  0
   -7.2049   17.7151  -31.8286 H   0  0  0  0  0  0  0  0  0  0  0  0
   -5.4190   17.4314  -31.8638 H   0  0  0  0  0  0  0  0  0  0  0  0
   -8.1032   20.3462  -32.4265 H   0  0  0  0  0  0  0  0  0  0  0  0
   -7.9176   22.5804  -31.3275 H   0  0  0  0  0  0  0  0  0  0  0  0
   -6.0830   24.3050  -28.8260 H   0  0  0  0  0  0  0  0  0  0  0  0
   -4.8620   25.8080  -29.5280 H   0  0  0  0  0  0  0  0  0  0  0  0
   -3.6074   22.1986  -31.6720 H   0  0  0  0  0  0  0  0  0  0  0  0
   -7.0897   18.3024  -35.0771 H   0  0  0  0  0  0  0  0  0  0  0  0
   -5.8428   19.5454  -35.2390 H   0  0  0  0  0  0  0  0  0  0  0  0
   -4.9217   17.4101  -36.0315 H   0  0  0  0  0  0  0  0  0  0  0  0
   -4.1337   17.8142  -34.4602 H   0  0  0  0  0  0  0  0  0  0  0  0
  1  2  1  0
  2  3  1  0
  3  4  2  0
  4  5  1  0
  5  6  2  0
  6  7  1  0
  7  8  2  0
  8  9  1  0
  9 10  1  0
 10 11  1  0
 11 12  1  0
 12 13  1  0
 13 14  1  0
 14 15  2  0
 15 16  1  0
 16 17  2  0
 17 18  1  0
 18 19  1  0
 18 20  2  0
 20 21  1  0
 17 22  1  0
 22 23  2  0
 13 24  1  0
 24 25  1  0
  8  3  1  0
 25 10  1  0
 23 14  1  0
  1 26  1  0
  1 27  1  0
  1 28  1  0
  4 29  1  0
  5 30  1  0
  6 31  1  0
  7 32  1  0
  9 33  1  0
  9 34  1  0
 11 35  1  0
 11 36  1  0
 12 37  1  0
 12 38  1  0
 15 39  1  0
 16 40  1  0
 19 41  1  0
 21 42  1  0
 22 43  1  0
 24 44  1  0
 24 45  1  0
 25 46  1  0
 25 47  1  0
M  END
>  <smiles>  (43) 
COc1ccccc1CN1CCN(c2ccc(C(O)=NO)cn2)CC1

>  <score_type>  (43) 
oracle

>  <origin>  (43) 
adg

>  <m_score__min__energy>  (43) 
-8.2699999999999996

>  <m_primary>  (43) 
energy

$$$$
43:0
     RDKit          3D

 48 51  0  0  0  0  0  0  0  0999 V2000
  -10.4680   22.1160  -31.6897 H   0  0  0  0  0  0  0  0  0  0  0  0
   -9.4400   21.7390  -31.7950 C   0  0  0  0  0  0  0  0  0  0  0  0
   -8.3590   22.6130  -31.6690 C   0  0  0  0  0  0  0  0  0  0  0  0
   -8.5360   23.6774  -31.4551 H   0  0  0  0  0  0  0  0  0  0  0  0
   -7.0520   22.1390  -31.8140 C   0  0  0  0  0  0  0  0  0  0  0  0
   -6.2041   22.8297  -31.6958 H   0  0  0  0  0  0  0  0  0  0  0  0
   -6.8140   20.7850  -32.1100 C   0  0  0  0  0  0  0  0  0  0  0  0
   -5.3830   20.2830  -32.2160 C   0  0  2  0  0  0  0  0  0  0  0  0
   -5.1936   19.5869  -31.3856 H   0  0  0  0  0  0  0  0  0  0  0  0
   -4.4240   21.3840  -32.1220 N   0  0  0  0  0  0  0  0  0  0  0  0
   -3.6410   21.8010  -31.1630 C   0  0  0  0  0  0  0  0  0  0  0  0
   -2.7930   20.8790  -30.6170 N   0  0  0  0  0  0  0  0  0  0  0  0
   -1.8760   21.1650  -29.6410 C   0  0  0  0  0  0  0  0  0  0  0  0
   -0.9930   20.0860  -29.1410 C   0  0  0  0  0  0  0  0  0  0  0  0
    0.0740   19.6550  -29.9470 C   0  0  0  0  0  0  0  0  0  0  0  0
    0.2327   20.1155  -30.9333 H   0  0  0  0  0  0  0  0  0  0  0  0
    0.9350   18.6470  -29.5070 C   0  0  0  0  0  0  0  0  0  0  0  0
    1.7713   18.3218  -30.1433 H   0  0  0  0  0  0  0  0  0  0  0  0
    0.7350   18.0530  -28.2620 C   0  0  0  0  0  0  0  0  0  0  0  0
    1.4188   17.2648  -27.9138 H   0  0  0  0  0  0  0  0  0  0  0  0
   -0.3310   18.4560  -27.4560 C   0  0  0  0  0  0  0  0  0  0  0  0
   -0.4835   17.9810  -26.4757 H   0  0  0  0  0  0  0  0  0  0  0  0
   -1.2140   19.4670  -27.8880 C   0  0  0  0  0  0  0  0  0  0  0  0
   -2.3210   19.8530  -27.1150 O   0  0  0  0  0  0  0  0  0  0  0  0
   -3.1180   18.9660  -26.3390 C   0  0  0  0  0  0  0  0  0  0  0  0
   -2.9453   19.1582  -25.2698 H   0  0  0  0  0  0  0  0  0  0  0  0
   -4.1805   19.1273  -26.5736 H   0  0  0  0  0  0  0  0  0  0  0  0
   -2.8444   17.9267  -26.5736 H   0  0  0  0  0  0  0  0  0  0  0  0
   -1.7550   22.4830  -29.1710 C   0  0  0  0  0  0  0  0  0  0  0  0
   -1.0047   22.7527  -28.4132 H   0  0  0  0  0  0  0  0  0  0  0  0
   -2.6190   23.4320  -29.7000 C   0  0  0  0  0  0  0  0  0  0  0  0
   -3.5580   23.1270  -30.6610 C   0  0  0  0  0  0  0  0  0  0  0  0
   -4.2160   24.3470  -30.8320 C   0  0  0  0  0  0  0  0  0  0  0  0
   -5.2040   24.5820  -31.5670 O   0  0  0  0  0  0  0  0  0  0  0  0
   -3.6720   25.2930  -30.0370 N   0  0  0  0  0  0  0  0  0  0  0  0
   -2.6930   24.7260  -29.3510 N   0  0  0  0  0  0  0  0  0  0  0  0
   -2.1030   25.2200  -28.6450 H   0  0  0  0  0  0  0  0  0  0  0  0
   -5.2060   19.5830  -33.5760 C   0  0  0  0  0  0  0  0  0  0  0  0
   -4.1835   19.7657  -33.9381 H   0  0  0  0  0  0  0  0  0  0  0  0
   -5.9551   19.9950  -34.2682 H   0  0  0  0  0  0  0  0  0  0  0  0
   -5.4330   18.0740  -33.4820 C   0  0  0  0  0  0  0  0  0  0  0  0
   -5.4780   17.7752  -32.4243 H   0  0  0  0  0  0  0  0  0  0  0  0
   -6.3803   17.8142  -33.9770 H   0  0  0  0  0  0  0  0  0  0  0  0
   -4.6040   17.5470  -33.9770 H   0  0  0  0  0  0  0  0  0  0  0  0
   -7.9100   19.9050  -32.2000 C   0  0  0  0  0  0  0  0  0  0  0  0
   -7.7383   18.8344  -32.3854 H   0  0  0  0  0  0  0  0  0  0  0  0
   -9.2150   20.3850  -32.0550 C   0  0  0  0  0  0  0  0  0  0  0  0
  -10.0667   19.6948  -32.1459 H   0  0  0  0  0  0  0  0  0  0  0  0
  1  2  1  0
  2  3  2  0
  3  4  1  0
  3  5  1  0
  5  6  1  0
  5  7  2  0
  7  8  1  0
  8  9  1  1
  8 10  1  0
 10 11  2  0
 11 12  1  0
 12 13  1  0
 13 14  1  0
 14 15  2  0
 15 16  1  0
 15 17  1  0
 17 18  1  0
 17 19  2  0
 19 20  1  0
 19 21  1  0
 21 22  1  0
 21 23  2  0
 23 24  1  0
 24 25  1  0
 25 26  1  0
 25 27  1  0
 25 28  1  0
 13 29  2  0
 29 30  1  0
 29 31  1  0
 31 32  2  0
 32 33  1  0
 33 34  2  0
 33 35  1  0
 35 36  1  0
 36 37  1  0
  8 38  1  0
 38 39  1  0
 38 40  1  0
 38 41  1  0
 41 42  1  0
 41 43  1  0
 41 44  1  0
  7 45  1  0
 45 46  1  0
 45 47  2  0
 47 48  1  0
 47  2  1  0
 32 11  1  0
 23 14  1  0
 36 31  1  0
M  CHG  2  12  -1  35  -1
M  END
>  <UniqueID>  (44) 
40

>  <SMILES>  (44) 
CC[C@@H](/N=c1/[n-]c(-c2ccccc2OC)cc2[nH][n-]c(=O)c12)c1ccccc1

>  <Energy>  (44) 
106.76099245677467

>  <Genealogy>  (44) 
CCC(N=c1[n-]c(-c2ccccc2OC)cc2[nH][n-]c(=O)c12)c1ccccc1 (protonated)
CC[C@@H](N=c1[n-]c(-c2ccccc2OC)cc2[nH][n-]c(=O)c12)c1ccccc1 (chirality)
CC[C@@H](/N=c1/[n-]c(-c2ccccc2OC)cc2[nH][n-]c(=O)c12)c1ccccc1 (cis-trans isomerization)
CC[C@@H](/N=c1/[n-]c(-c2ccccc2OC)cc2[nH][n-]c(=O)c12)c1ccccc1 (3D coordinates assigned)
CC[C@@H](/N=c1/[n-]c(-c2ccccc2OC)cc2[nH][n-]c(=O)c12)c1ccccc1 (optimized conformer: 106.76099245677467 kcal/mol)

>  <smiles>  (44) 
CCC(N=c1[nH]c(-c2ccccc2OC)cc2[nH][nH]c(=O)c12)c1ccccc1

>  <score_type>  (44) 
oracle

>  <origin>  (44) 
adg

>  <m_score__min__energy>  (44) 
-10.949999999999999

>  <m_primary>  (44) 
energy

$$$$
44:0
     RDKit          3D

 31 33  0  0  0  0  0  0  0  0999 V2000
   -8.4064   21.0346  -31.7295 H   0  0  0  0  0  0  0  0  0  0  0  0
   -7.7810   21.9110  -31.5040 C   0  0  0  0  0  0  0  0  0  0  0  0
   -7.1740   22.5890  -32.5130 N   0  0  0  0  0  0  0  0  0  0  0  0
   -6.3950   23.6790  -32.2760 C   0  0  0  0  0  0  0  0  0  0  0  0
   -5.9161   24.2042  -33.1155 H   0  0  0  0  0  0  0  0  0  0  0  0
   -6.2010   24.1350  -30.9620 C   0  0  0  0  0  0  0  0  0  0  0  0
   -5.3450   25.3410  -30.6800 C   0  0  0  0  0  0  0  0  0  0  0  0
   -5.5724   25.7175  -29.6718 H   0  0  0  0  0  0  0  0  0  0  0  0
   -5.5618   26.1127  -31.4333 H   0  0  0  0  0  0  0  0  0  0  0  0
   -3.9250   24.9960  -30.7550 N   0  0  0  0  0  0  0  0  0  0  0  0
   -3.2070   24.5640  -29.7620 C   0  0  0  0  0  0  0  0  0  0  0  0
   -2.1790   25.2840  -29.2550 N   0  0  0  0  0  0  0  0  0  0  0  0
   -1.5880   24.6220  -28.2270 C   0  0  0  0  0  0  0  0  0  0  0  0
   -0.5000   25.1060  -27.5020 C   0  0  0  0  0  0  0  0  0  0  0  0
   -0.0567   26.0835  -27.7427 H   0  0  0  0  0  0  0  0  0  0  0  0
    0.0200   24.3220  -26.4580 C   0  0  0  0  0  0  0  0  0  0  0  0
    0.8774   24.6922  -25.8768 H   0  0  0  0  0  0  0  0  0  0  0  0
   -0.5430   23.0660  -26.1450 C   0  0  0  0  0  0  0  0  0  0  0  0
    0.0200   22.3300  -25.0920 O   0  0  0  0  0  0  0  0  0  0  0  0
   -0.1230   22.6640  -23.7150 C   0  0  0  0  0  0  0  0  0  0  0  0
    0.2349   21.8282  -23.0959 H   0  0  0  0  0  0  0  0  0  0  0  0
    0.4685   23.5644  -23.4928 H   0  0  0  0  0  0  0  0  0  0  0  0
   -1.1828   22.8574  -23.4928 H   0  0  0  0  0  0  0  0  0  0  0  0
   -1.6470   22.5920  -26.8910 C   0  0  0  0  0  0  0  0  0  0  0  0
   -2.1038   21.6173  -26.6646 H   0  0  0  0  0  0  0  0  0  0  0  0
   -2.1410   23.3900  -27.9190 C   0  0  0  0  0  0  0  0  0  0  0  0
   -3.4250   23.0830  -28.9550 S   0  0  0  0  0  0  0  0  0  0  0  0
   -6.8180   23.4400  -29.9110 C   0  0  0  0  0  0  0  0  0  0  0  0
   -6.6758   23.7743  -28.8727 H   0  0  0  0  0  0  0  0  0  0  0  0
   -7.6120   22.3250  -30.1820 C   0  0  0  0  0  0  0  0  0  0  0  0
   -8.0998   21.7778  -29.3619 H   0  0  0  0  0  0  0  0  0  0  0  0
  1  2  1  0
  2  3  2  0
  3  4  1  0
  4  5  1  0
  4  6  2  0
  6  7  1  0
  7  8  1  0
  7  9  1  0
  7 10  1  0
 10 11  2  0
 11 12  1  0
 12 13  1  0
 13 14  2  0
 14 15  1  0
 14 16  1  0
 16 17  1  0
 16 18  2  0
 18 19  1  0
 19 20  1  0
 20 21  1  0
 20 22  1  0
 20 23  1  0
 18 24  1  0
 24 25  1  0
 24 26  2  0
 26 27  1  0
  6 28  1  0
 28 29  1  0
 28 30  2  0
 30 31  1  0
 30  2  1  0
 27 11  1  0
 26 13  1  0
M  CHG  1  12  -1
M  END
>  <UniqueID>  (45) 
41

>  <SMILES>  (45) 
COc1ccc2[n-]/c(=N/Cc3cccnc3)sc2c1

>  <Energy>  (45) 
67.93637254686013

>  <Genealogy>  (45) 
COc1ccc2[n-]c(=NCc3cccnc3)sc2c1 (protonated)
COc1ccc2[n-]/c(=N/Cc3cccnc3)sc2c1 (cis-trans isomerization)
COc1ccc2[n-]/c(=N/Cc3cccnc3)sc2c1 (3D coordinates assigned)
COc1ccc2[n-]/c(=N/Cc3cccnc3)sc2c1 (optimized conformer: 67.93637254686013 kcal/mol)

>  <smiles>  (45) 
COc1ccc2[nH]c(=NCc3cccnc3)sc2c1

>  <score_type>  (45) 
oracle

>  <origin>  (45) 
adg

>  <m_score__min__energy>  (45) 
-8.1500000000000004

>  <m_primary>  (45) 
energy

$$$$
45:0
     RDKit          3D

 85 89  0  0  0  0  0  0  0  0999 V2000
   -0.4540   30.7410  -37.0120 C   0  0  0  0  0  0  0  0  0  0  0  0
    0.1760   29.6390  -35.7580 S   0  0  0  0  0  0  0  0  0  0  0  0
    1.0080   30.4360  -34.7910 O   0  0  0  0  0  0  0  0  0  0  0  0
   -0.9820   29.0360  -35.0130 O   0  0  0  0  0  0  0  0  0  0  0  0
    1.1550   28.3650  -36.4470 N   0  0  0  0  0  0  0  0  0  0  0  0
    0.3400   27.4250  -37.2550 C   0  0  0  0  0  0  0  0  0  0  0  0
    0.1300   26.0620  -36.5790 C   0  0  0  0  0  0  0  0  0  0  0  0
    1.4220   25.4770  -36.2000 N   0  0  0  0  0  0  0  0  0  0  0  0
    1.5910   24.0420  -36.1470 C   0  0  0  0  0  0  0  0  0  0  0  0
    0.4750   23.1910  -36.0530 C   0  0  0  0  0  0  0  0  0  0  0  0
    0.6380   21.8020  -36.0240 C   0  0  0  0  0  0  0  0  0  0  0  0
    1.9230   21.2380  -36.1010 C   0  0  0  0  0  0  0  0  0  0  0  0
    2.1330   19.8180  -36.0850 N   0  0  0  0  0  0  0  0  0  0  0  0
    1.3440   18.8310  -36.7630 C   0  0  0  0  0  0  0  0  0  0  0  0
    1.0420   18.9770  -37.9790 O   0  0  0  0  0  0  0  0  0  0  0  0
    1.0130   17.5540  -36.0480 C   0  0  0  0  0  0  0  0  0  0  0  0
   -0.3020   17.6330  -35.3140 C   0  0  0  0  0  0  0  0  0  0  0  0
   -0.6270   18.7780  -34.5710 C   0  0  0  0  0  0  0  0  0  0  0  0
   -1.8490   18.8590  -33.8980 C   0  0  0  0  0  0  0  0  0  0  0  0
   -2.7700   17.8040  -33.9620 C   0  0  0  0  0  0  0  0  0  0  0  0
   -4.0200   17.9230  -33.2600 N   0  0  0  0  0  0  0  0  0  0  0  0
   -4.8120   19.1240  -33.2100 C   0  0  0  0  0  0  0  0  0  0  0  0
   -4.4200   20.1730  -33.7900 O   0  0  0  0  0  0  0  0  0  0  0  0
   -6.0690   19.1800  -32.3770 C   0  0  2  0  0  0  0  0  0  0  0  0
   -6.7370   17.7850  -32.2980 C   0  0  0  0  0  0  0  0  0  0  0  0
   -8.2630   17.8420  -32.1210 C   0  0  0  0  0  0  0  0  0  0  0  0
   -8.7160   19.0930  -31.3600 C   0  0  0  0  0  0  0  0  0  0  0  0
   -8.2430   20.3160  -32.0310 N   0  0  0  0  0  0  0  0  0  0  0  0
   -9.0100   21.5340  -31.9620 C   0  0  0  0  0  0  0  0  0  0  0  0
  -10.2180   21.5280  -32.3270 O   0  0  0  0  0  0  0  0  0  0  0  0
   -8.4110   22.8190  -31.4380 C   0  0  0  0  0  0  0  0  0  0  0  0
   -7.3120   23.3680  -32.3590 C   0  0  0  0  0  0  0  0  0  0  0  0
   -6.0010   23.5230  -31.6280 C   0  0  0  0  0  0  0  0  0  0  0  0
   -5.8010   24.5950  -30.7420 C   0  0  0  0  0  0  0  0  0  0  0  0
   -4.5740   24.7500  -30.0890 C   0  0  0  0  0  0  0  0  0  0  0  0
   -3.5370   23.8410  -30.3200 C   0  0  0  0  0  0  0  0  0  0  0  0
   -3.7250   22.7780  -31.2070 C   0  0  0  0  0  0  0  0  0  0  0  0
   -4.9500   22.6210  -31.8630 C   0  0  0  0  0  0  0  0  0  0  0  0
   -7.0410   20.2670  -32.8790 C   0  0  0  0  0  0  0  0  0  0  0  0
   -2.4230   16.6390  -34.6690 C   0  0  0  0  0  0  0  0  0  0  0  0
   -1.1990   16.5580  -35.3430 C   0  0  0  0  0  0  0  0  0  0  0  0
    3.0360   22.0800  -36.1560 C   0  0  0  0  0  0  0  0  0  0  0  0
    2.8750   23.4690  -36.1880 C   0  0  0  0  0  0  0  0  0  0  0  0
    2.5310   26.3740  -35.8520 C   0  0  0  0  0  0  0  0  0  0  0  0
    1.9910   27.7360  -35.4040 C   0  0  0  0  0  0  0  0  0  0  0  0
   -0.9452   31.6002  -36.5319 H   0  0  0  0  0  0  0  0  0  0  0  0
    0.3771   31.0968  -37.6386 H   0  0  0  0  0  0  0  0  0  0  0  0
   -1.1823   30.2053  -37.6386 H   0  0  0  0  0  0  0  0  0  0  0  0
   -0.6450   27.8815  -37.4324 H   0  0  0  0  0  0  0  0  0  0  0  0
    0.8885   27.2419  -38.1907 H   0  0  0  0  0  0  0  0  0  0  0  0
   -0.4865   26.1950  -35.6778 H   0  0  0  0  0  0  0  0  0  0  0  0
   -0.3754   25.3865  -37.2849 H   0  0  0  0  0  0  0  0  0  0  0  0
   -0.5358   23.6220  -36.0018 H   0  0  0  0  0  0  0  0  0  0  0  0
   -0.2430   21.1486  -35.9406 H   0  0  0  0  0  0  0  0  0  0  0  0
    0.9580   16.7397  -36.7855 H   0  0  0  0  0  0  0  0  0  0  0  0
    1.8027   17.3703  -35.3046 H   0  0  0  0  0  0  0  0  0  0  0  0
    0.0836   19.6160  -34.5180 H   0  0  0  0  0  0  0  0  0  0  0  0
   -2.0904   19.7586  -33.3128 H   0  0  0  0  0  0  0  0  0  0  0  0
   -4.2830   17.1410  -32.6170 H   0  0  0  0  0  0  0  0  0  0  0  0
   -5.7860   19.4684  -31.3539 H   0  0  0  0  0  0  0  0  0  0  0  0
   -6.5149   17.2400  -33.2274 H   0  0  0  0  0  0  0  0  0  0  0  0
   -6.3280   17.2816  -31.4096 H   0  0  0  0  0  0  0  0  0  0  0  0
   -8.7342   17.8430  -33.1149 H   0  0  0  0  0  0  0  0  0  0  0  0
   -8.5657   16.9632  -31.5327 H   0  0  0  0  0  0  0  0  0  0  0  0
   -9.8150   19.1089  -31.3149 H   0  0  0  0  0  0  0  0  0  0  0  0
   -8.2904   19.0612  -30.3462 H   0  0  0  0  0  0  0  0  0  0  0  0
   -9.2086   23.5716  -31.3515 H   0  0  0  0  0  0  0  0  0  0  0  0
   -7.9543   22.6033  -30.4608 H   0  0  0  0  0  0  0  0  0  0  0  0
   -7.1716   22.6737  -33.2005 H   0  0  0  0  0  0  0  0  0  0  0  0
   -7.6261   24.3598  -32.7163 H   0  0  0  0  0  0  0  0  0  0  0  0
   -6.6126   25.3151  -30.5613 H   0  0  0  0  0  0  0  0  0  0  0  0
   -4.4245   25.5883  -29.3926 H   0  0  0  0  0  0  0  0  0  0  0  0
   -2.5734   23.9627  -29.8035 H   0  0  0  0  0  0  0  0  0  0  0  0
   -2.9085   22.0638  -31.3895 H   0  0  0  0  0  0  0  0  0  0  0  0
   -5.0913   21.7872  -32.5664 H   0  0  0  0  0  0  0  0  0  0  0  0
   -7.3370   20.0380  -33.9134 H   0  0  0  0  0  0  0  0  0  0  0  0
   -6.5356   21.2431  -32.8361 H   0  0  0  0  0  0  0  0  0  0  0  0
   -3.1176   15.7864  -34.6925 H   0  0  0  0  0  0  0  0  0  0  0  0
   -0.9401   15.6447  -35.8987 H   0  0  0  0  0  0  0  0  0  0  0  0
    4.0472   21.6473  -36.1743 H   0  0  0  0  0  0  0  0  0  0  0  0
    3.7604   24.1192  -36.2457 H   0  0  0  0  0  0  0  0  0  0  0  0
    3.1156   25.9282  -35.0338 H   0  0  0  0  0  0  0  0  0  0  0  0
    3.1691   26.5149  -36.7368 H   0  0  0  0  0  0  0  0  0  0  0  0
    1.3843   27.5976  -34.4969 H   0  0  0  0  0  0  0  0  0  0  0  0
    2.8488   28.3965  -35.2091 H   0  0  0  0  0  0  0  0  0  0  0  0
  1  2  1  0
  2  3  2  0
  2  4  2  0
  2  5  1  0
  5  6  1  0
  6  7  1  0
  7  8  1  0
  8  9  1  0
  9 10  2  0
 10 11  1  0
 11 12  2  0
 12 13  1  0
 13 14  1  0
 14 15  2  0
 14 16  1  0
 16 17  1  0
 17 18  2  0
 18 19  1  0
 19 20  2  0
 20 21  1  0
 21 22  1  0
 22 23  2  0
 22 24  1  0
 24 25  1  0
 25 26  1  0
 26 27  1  0
 27 28  1  0
 28 29  1  0
 29 30  2  0
 29 31  1  0
 31 32  1  0
 32 33  1  0
 33 34  2  0
 34 35  1  0
 35 36  2  0
 36 37  1  0
 37 38  2  0
 28 39  1  0
 20 40  1  0
 40 41  2  0
 12 42  1  0
 42 43  2  0
  8 44  1  0
 44 45  1  0
 45  5  1  0
 43  9  1  0
 41 17  1  0
 39 24  1  0
 38 33  1  0
  1 46  1  0
  1 47  1  0
  1 48  1  0
  6 49  1  0
  6 50  1  0
  7 51  1  0
  7 52  1  0
 10 53  1  0
 11 54  1  0
 16 55  1  0
 16 56  1  0
 18 57  1  0
 19 58  1  0
 21 59  1  0
 24 60  1  1
 25 61  1  0
 25 62  1  0
 26 63  1  0
 26 64  1  0
 27 65  1  0
 27 66  1  0
 31 67  1  0
 31 68  1  0
 32 69  1  0
 32 70  1  0
 34 71  1  0
 35 72  1  0
 36 73  1  0
 37 74  1  0
 38 75  1  0
 39 76  1  0
 39 77  1  0
 40 78  1  0
 41 79  1  0
 42 80  1  0
 43 81  1  0
 44 82  1  0
 44 83  1  0
 45 84  1  0
 45 85  1  0
M  CHG  1  13  -1
M  END
>  <UniqueID>  (46) 
42

>  <SMILES>  (46) 
CS(=O)(=O)N1CCN(c2ccc([N-]C(=O)Cc3ccc(NC(=O)[C@@H]4CCCN(C(=O)CCc5ccccc5)C4)cc3)cc2)CC1

>  <Energy>  (46) 
98.49962856815792

>  <Genealogy>  (46) 
CS(=O)(=O)N1CCN(c2ccc([N-]C(=O)Cc3ccc(NC(=O)C4CCCN(C(=O)CCc5ccccc5)C4)cc3)cc2)CC1 (protonated)
CS(=O)(=O)N1CCN(c2ccc([N-]C(=O)Cc3ccc(NC(=O)[C@@H]4CCCN(C(=O)CCc5ccccc5)C4)cc3)cc2)CC1 (chirality)
CS(=O)(=O)N1CCN(c2ccc([N-]C(=O)Cc3ccc(NC(=O)[C@@H]4CCCN(C(=O)CCc5ccccc5)C4)cc3)cc2)CC1 (3D coordinates assigned)
CS(=O)(=O)N1CCN(c2ccc([N-]C(=O)Cc3ccc(NC(=O)[C@@H]4CCCN(C(=O)CCc5ccccc5)C4)cc3)cc2)CC1 (nonaromatic ring conformer: 98.49962856815792 kcal/mol)

>  <smiles>  (46) 
CS(=O)(=O)N1CCN(c2ccc(NC(=O)Cc3ccc(NC(=O)C4CCCN(C(=O)CCc5ccccc5)C4)cc3)cc2)CC1

>  <score_type>  (46) 
oracle

>  <origin>  (46) 
adg

>  <m_score__min__energy>  (46) 
-11.789999999999999

>  <m_primary>  (46) 
energy

$$$$
46:0
     RDKit          3D

 50 52  0  0  0  0  0  0  0  0999 V2000
   -6.7470   17.8460  -31.6520 C   0  0  0  0  0  0  0  0  0  0  0  0
   -7.0820   19.1410  -32.2660 N   0  0  0  0  0  0  0  0  0  0  0  0
   -6.4850   19.2740  -33.6030 C   0  0  0  0  0  0  0  0  0  0  0  0
   -8.5310   19.4500  -32.2310 C   0  0  0  0  0  0  0  0  0  0  0  0
   -8.8770   20.9380  -32.0030 C   0  0  0  0  0  0  0  0  0  0  0  0
   -7.7950   21.8000  -32.3590 O   0  0  0  0  0  0  0  0  0  0  0  0
   -6.8980   22.4030  -31.4610 C   0  0  0  0  0  0  0  0  0  0  0  0
   -5.6170   21.8570  -31.3460 C   0  0  0  0  0  0  0  0  0  0  0  0
   -4.6830   22.4110  -30.4660 C   0  0  0  0  0  0  0  0  0  0  0  0
   -5.0160   23.5240  -29.6760 C   0  0  0  0  0  0  0  0  0  0  0  0
   -4.0080   24.1020  -28.7500 C   0  0  0  0  0  0  0  0  0  0  0  0
   -2.6560   24.2170  -29.1010 C   0  0  0  0  0  0  0  0  0  0  0  0
   -1.7580   24.7710  -28.1930 C   0  0  0  0  0  0  0  0  0  0  0  0
   -2.2190   25.2180  -26.9500 C   0  0  0  0  0  0  0  0  0  0  0  0
   -1.3120   25.7940  -25.9910 N   0  0  0  0  0  0  0  0  0  0  0  0
   -0.9840   25.0700  -24.7560 C   0  0  0  0  0  0  0  0  0  0  0  0
   -0.3470   26.0170  -23.7280 C   0  0  0  0  0  0  0  0  0  0  0  0
   -1.0220   27.3220  -23.7440 N   0  0  0  0  0  0  0  0  0  0  0  0
   -0.8610   28.0280  -25.0310 C   0  0  0  0  0  0  0  0  0  0  0  0
   -0.6720   27.0900  -26.2400 C   0  0  0  0  0  0  0  0  0  0  0  0
   -3.5450   25.0860  -26.6550 N   0  0  0  0  0  0  0  0  0  0  0  0
   -4.4020   24.5510  -27.5260 N   0  0  0  0  0  0  0  0  0  0  0  0
   -6.3010   24.0830  -29.8040 C   0  0  0  0  0  0  0  0  0  0  0  0
   -7.2340   23.5290  -30.6860 C   0  0  0  0  0  0  0  0  0  0  0  0
   -6.7719   17.9422  -30.5565 H   0  0  0  0  0  0  0  0  0  0  0  0
   -7.4789   17.0890  -31.9703 H   0  0  0  0  0  0  0  0  0  0  0  0
   -5.7398   17.5389  -31.9703 H   0  0  0  0  0  0  0  0  0  0  0  0
   -5.4156   19.5122  -33.5050 H   0  0  0  0  0  0  0  0  0  0  0  0
   -6.6011   18.3280  -34.1522 H   0  0  0  0  0  0  0  0  0  0  0  0
   -6.9917   20.0813  -34.1522 H   0  0  0  0  0  0  0  0  0  0  0  0
   -8.9688   19.1414  -33.1918 H   0  0  0  0  0  0  0  0  0  0  0  0
   -8.9405   18.9040  -31.3683 H   0  0  0  0  0  0  0  0  0  0  0  0
   -9.7533   21.1966  -32.6155 H   0  0  0  0  0  0  0  0  0  0  0  0
   -9.0846   21.0781  -30.9319 H   0  0  0  0  0  0  0  0  0  0  0  0
   -5.3409   20.9828  -31.9539 H   0  0  0  0  0  0  0  0  0  0  0  0
   -3.6775   21.9713  -30.3913 H   0  0  0  0  0  0  0  0  0  0  0  0
   -2.3074   23.8724  -30.0857 H   0  0  0  0  0  0  0  0  0  0  0  0
   -0.6922   24.8568  -28.4513 H   0  0  0  0  0  0  0  0  0  0  0  0
   -1.9046   24.6425  -24.3321 H   0  0  0  0  0  0  0  0  0  0  0  0
   -0.2674   24.2699  -24.9933 H   0  0  0  0  0  0  0  0  0  0  0  0
   -0.4365   25.5753  -22.7246 H   0  0  0  0  0  0  0  0  0  0  0  0
    0.7127   26.1611  -23.9854 H   0  0  0  0  0  0  0  0  0  0  0  0
   -2.0440   27.1680  -23.5680 H   0  0  0  0  0  0  0  0  0  0  0  0
   -1.7584   28.6400  -25.2047 H   0  0  0  0  0  0  0  0  0  0  0  0
    0.0543   28.6328  -24.9506 H   0  0  0  0  0  0  0  0  0  0  0  0
   -1.1241   27.5516  -27.1302 H   0  0  0  0  0  0  0  0  0  0  0  0
    0.4044   26.9297  -26.4005 H   0  0  0  0  0  0  0  0  0  0  0  0
   -3.9060   25.3830  -25.7220 H   0  0  0  0  0  0  0  0  0  0  0  0
   -6.5741   24.9640  -29.2046 H   0  0  0  0  0  0  0  0  0  0  0  0
   -8.2355   23.9753  -30.7746 H   0  0  0  0  0  0  0  0  0  0  0  0
  1  2  1  0
  2  3  1  0
  2  4  1  0
  4  5  1  0
  5  6  1  0
  6  7  1  0
  7  8  2  0
  8  9  1  0
  9 10  2  0
 10 11  1  0
 11 12  2  0
 12 13  1  0
 13 14  2  0
 14 15  1  0
 15 16  1  0
 16 17  1  0
 17 18  1  0
 18 19  1  0
 19 20  1  0
 14 21  1  0
 21 22  2  0
 10 23  1  0
 23 24  2  0
 24  7  1  0
 22 11  1  0
 20 15  1  0
  1 25  1  0
  1 26  1  0
  1 27  1  0
  3 28  1  0
  3 29  1  0
  3 30  1  0
  4 31  1  0
  4 32  1  0
  5 33  1  0
  5 34  1  0
  8 35  1  0
  9 36  1  0
 12 37  1  0
 13 38  1  0
 16 39  1  0
 16 40  1  0
 17 41  1  0
 17 42  1  0
 18 43  1  0
 19 44  1  0
 19 45  1  0
 20 46  1  0
 20 47  1  0
 21 48  1  0
 23 49  1  0
 24 50  1  0
M  CHG  1  21   1
M  END
>  <UniqueID>  (47) 
43

>  <SMILES>  (47) 
CN(C)CCOc1ccc(-c2ccc(N3CCNCC3)[nH+]n2)cc1

>  <Energy>  (47) 
65.99594521650283

>  <Genealogy>  (47) 
CN(C)CCOc1ccc(-c2ccc(N3CCNCC3)[nH+]n2)cc1 (protonated)
CN(C)CCOc1ccc(-c2ccc(N3CCNCC3)[nH+]n2)cc1 (3D coordinates assigned)
CN(C)CCOc1ccc(-c2ccc(N3CCNCC3)[nH+]n2)cc1 (nonaromatic ring conformer: 65.99594521650283 kcal/mol)

>  <smiles>  (47) 
CN(C)CCOc1ccc(-c2ccc(N3CCNCC3)nn2)cc1

>  <score_type>  (47) 
oracle

>  <origin>  (47) 
adg

>  <m_score__min__energy>  (47) 
-6.8700000000000001

>  <m_primary>  (47) 
energy

$$$$
47:0
     RDKit          3D

 44 46  0  0  0  0  0  0  0  0999 V2000
   -5.3963   17.0658  -35.0045 H   0  0  0  0  0  0  0  0  0  0  0  0
   -5.6970   18.0440  -34.6010 C   0  0  0  0  0  0  0  0  0  0  0  0
   -6.1962   18.7773  -35.2514 H   0  0  0  0  0  0  0  0  0  0  0  0
   -5.4570   18.3400  -33.3270 C   0  0  0  0  0  0  0  0  0  0  0  0
   -4.9572   17.5996  -32.6852 H   0  0  0  0  0  0  0  0  0  0  0  0
   -5.8390   19.6100  -32.7740 N   0  0  0  0  0  0  0  0  0  0  0  0
   -5.0730   20.7100  -32.4900 C   0  0  0  0  0  0  0  0  0  0  0  0
   -3.7730   20.7760  -32.5610 N   0  0  0  0  0  0  0  0  0  0  0  0
   -2.7960   20.5400  -31.5040 C   0  0  0  0  0  0  0  0  0  0  0  0
   -3.1961   19.8056  -30.7895 H   0  0  0  0  0  0  0  0  0  0  0  0
   -1.8645   20.1499  -31.9400 H   0  0  0  0  0  0  0  0  0  0  0  0
   -2.5200   21.8340  -30.7940 C   0  0  0  0  0  0  0  0  0  0  0  0
   -1.4670   21.9230  -29.8740 C   0  0  0  0  0  0  0  0  0  0  0  0
   -0.8240   21.0491  -29.6928 H   0  0  0  0  0  0  0  0  0  0  0  0
   -1.2290   23.1140  -29.1860 C   0  0  0  0  0  0  0  0  0  0  0  0
   -0.3918   23.1766  -28.4753 H   0  0  0  0  0  0  0  0  0  0  0  0
   -2.0540   24.2360  -29.3960 C   0  0  0  0  0  0  0  0  0  0  0  0
   -1.8510   25.4560  -28.7290 O   0  0  0  0  0  0  0  0  0  0  0  0
   -1.6030   25.6110  -27.3310 C   0  0  0  0  0  0  0  0  0  0  0  0
   -0.6675   25.0939  -27.0712 H   0  0  0  0  0  0  0  0  0  0  0  0
   -1.5231   26.6844  -27.1041 H   0  0  0  0  0  0  0  0  0  0  0  0
   -2.7440   25.0220  -26.5100 C   0  0  0  0  0  0  0  0  0  0  0  0
   -2.5221   25.1366  -25.4387 H   0  0  0  0  0  0  0  0  0  0  0  0
   -3.6787   25.5502  -26.7494 H   0  0  0  0  0  0  0  0  0  0  0  0
   -2.8547   23.9541  -26.7494 H   0  0  0  0  0  0  0  0  0  0  0  0
   -3.1190   24.1500  -30.3070 C   0  0  0  0  0  0  0  0  0  0  0  0
   -3.9270   25.2830  -30.4950 O   0  0  0  0  0  0  0  0  0  0  0  0
   -5.3460   25.2920  -30.3780 C   0  0  0  0  0  0  0  0  0  0  0  0
   -5.6262   25.2938  -29.3143 H   0  0  0  0  0  0  0  0  0  0  0  0
   -5.7483   26.1927  -30.8647 H   0  0  0  0  0  0  0  0  0  0  0  0
   -5.7597   24.3965  -30.8647 H   0  0  0  0  0  0  0  0  0  0  0  0
   -3.3510   22.9450  -30.9980 C   0  0  0  0  0  0  0  0  0  0  0  0
   -4.1916   22.8747  -31.7040 H   0  0  0  0  0  0  0  0  0  0  0  0
   -5.7960   21.7720  -32.0520 N   0  0  0  0  0  0  0  0  0  0  0  0
   -7.0590   21.3140  -32.0710 C   0  0  0  0  0  0  0  0  0  0  0  0
   -8.2170   22.0120  -31.7360 C   0  0  0  0  0  0  0  0  0  0  0  0
   -8.1709   23.0520  -31.3808 H   0  0  0  0  0  0  0  0  0  0  0  0
   -9.4470   21.3430  -31.8670 C   0  0  0  0  0  0  0  0  0  0  0  0
  -10.3817   21.8608  -31.6058 H   0  0  0  0  0  0  0  0  0  0  0  0
   -9.4890   20.0100  -32.3320 C   0  0  0  0  0  0  0  0  0  0  0  0
  -10.4570   19.4978  -32.4352 H   0  0  0  0  0  0  0  0  0  0  0  0
   -8.3020   19.3330  -32.6640 C   0  0  0  0  0  0  0  0  0  0  0  0
   -8.3228   18.2981  -33.0362 H   0  0  0  0  0  0  0  0  0  0  0  0
   -7.0940   20.0200  -32.5050 C   0  0  0  0  0  0  0  0  0  0  0  0
  1  2  1  0
  2  3  1  0
  2  4  2  0
  4  5  1  0
  4  6  1  0
  6  7  1  0
  7  8  2  0
  8  9  1  0
  9 10  1  0
  9 11  1  0
  9 12  1  0
 12 13  2  0
 13 14  1  0
 13 15  1  0
 15 16  1  0
 15 17  2  0
 17 18  1  0
 18 19  1  0
 19 20  1  0
 19 21  1  0
 19 22  1  0
 22 23  1  0
 22 24  1  0
 22 25  1  0
 17 26  1  0
 26 27  1  0
 27 28  1  0
 28 29  1  0
 28 30  1  0
 28 31  1  0
 26 32  2  0
 32 33  1  0
  7 34  1  0
 34 35  1  0
 35 36  2  0
 36 37  1  0
 36 38  1  0
 38 39  1  0
 38 40  2  0
 40 41  1  0
 40 42  1  0
 42 43  1  0
 42 44  2  0
 44  6  1  0
 32 12  1  0
 44 35  1  0
M  CHG  1  34  -1
M  END
>  <UniqueID>  (48) 
44

>  <SMILES>  (48) 
C=Cn1/c(=N\Cc2ccc(OCC)c(OC)c2)[n-]c2ccccc21

>  <Energy>  (48) 
89.354338454234

>  <Genealogy>  (48) 
C=Cn1c(=NCc2ccc(OCC)c(OC)c2)[n-]c2ccccc21 (protonated)
C=Cn1/c(=N\Cc2ccc(OCC)c(OC)c2)[n-]c2ccccc21 (cis-trans isomerization)
C=Cn1/c(=N\Cc2ccc(OCC)c(OC)c2)[n-]c2ccccc21 (3D coordinates assigned)
C=Cn1/c(=N\Cc2ccc(OCC)c(OC)c2)[n-]c2ccccc21 (optimized conformer: 89.354338454234 kcal/mol)

>  <smiles>  (48) 
C=Cn1c(=NCc2ccc(OCC)c(OC)c2)[nH]c2ccccc21

>  <score_type>  (48) 
oracle

>  <origin>  (48) 
adg

>  <m_score__min__energy>  (48) 
-8.9399999999999995

>  <m_primary>  (48) 
energy

$$$$
