0:0
     RDKit          3D

 30 32  0  0  0  0  0  0  0  0999 V2000
   -5.0150   18.9000  -34.2170 C   0  0  0  0  0  0  0  0  0  0  0  0
   -6.2430   19.2200  -33.4340 C   0  0  0  0  0  0  0  0  0  0  0  0
   -6.6700   20.4880  -33.0920 C   0  0  0  0  0  0  0  0  0  0  0  0
   -7.8380   20.3060  -32.3800 C   0  0  0  0  0  0  0  0  0  0  0  0
   -8.6570   21.3880  -31.7960 C   0  0  0  0  0  0  0  0  0  0  0  0
   -9.7670   21.6650  -32.3220 O   0  0  0  0  0  0  0  0  0  0  0  0
   -8.2220   22.1500  -30.6620 N   0  0  0  0  0  0  0  0  0  0  0  0
   -7.0530   22.9780  -30.6020 C   0  0  0  0  0  0  0  0  0  0  0  0
   -7.1930   24.3690  -30.8280 C   0  0  0  0  0  0  0  0  0  0  0  0
   -6.0740   25.2230  -30.7800 C   0  0  0  0  0  0  0  0  0  0  0  0
   -4.8390   24.6540  -30.4890 C   0  0  0  0  0  0  0  0  0  0  0  0
   -3.6490   25.2680  -30.3850 N   0  0  0  0  0  0  0  0  0  0  0  0
   -2.7510   24.3340  -30.0830 N   0  0  0  0  0  0  0  0  0  0  0  0
   -3.3670   23.1310  -29.9940 C   0  0  0  0  0  0  0  0  0  0  0  0
   -4.7020   23.3190  -30.2510 C   0  0  0  0  0  0  0  0  0  0  0  0
   -5.7810   22.4410  -30.2890 C   0  0  0  0  0  0  0  0  0  0  0  0
   -8.0290   18.9310  -32.3030 C   0  0  0  0  0  0  0  0  0  0  0  0
   -9.1290   18.2010  -31.6010 C   0  0  0  0  0  0  0  0  0  0  0  0
   -7.0660   18.3170  -32.9520 O   0  0  0  0  0  0  0  0  0  0  0  0
   -4.1861   18.6840  -33.5269 H   0  0  0  0  0  0  0  0  0  0  0  0
   -5.2030   18.0209  -34.8508 H   0  0  0  0  0  0  0  0  0  0  0  0
   -4.7500   19.7591  -34.8508 H   0  0  0  0  0  0  0  0  0  0  0  0
   -6.1815   21.4429  -33.3360 H   0  0  0  0  0  0  0  0  0  0  0  0
   -8.1872   24.7873  -31.0435 H   0  0  0  0  0  0  0  0  0  0  0  0
   -6.1736   26.3025  -30.9662 H   0  0  0  0  0  0  0  0  0  0  0  0
   -2.8826   22.1722  -29.7574 H   0  0  0  0  0  0  0  0  0  0  0  0
   -5.6503   21.3683  -30.0832 H   0  0  0  0  0  0  0  0  0  0  0  0
   -8.9930   18.2912  -30.5132 H   0  0  0  0  0  0  0  0  0  0  0  0
  -10.0982   18.6357  -31.8867 H   0  0  0  0  0  0  0  0  0  0  0  0
   -9.1050   17.1390  -31.8867 H   0  0  0  0  0  0  0  0  0  0  0  0
  1  2  1  0
  2  3  2  0
  3  4  1  0
  4  5  1  0
  5  6  2  0
  5  7  1  0
  7  8  1  0
  8  9  2  0
  9 10  1  0
 10 11  2  0
 11 12  1  0
 12 13  1  0
 13 14  2  0
 14 15  1  0
 15 16  2  0
  4 17  2  0
 17 18  1  0
 17 19  1  0
 19  2  1  0
 16  8  1  0
 15 11  1  0
  1 20  1  0
  1 21  1  0
  1 22  1  0
  3 23  1  0
  9 24  1  0
 10 25  1  0
 14 26  1  0
 16 27  1  0
 18 28  1  0
 18 29  1  0
 18 30  1  0
M  CHG  2   7  -1  12  -1
M  END
>  <UniqueID>  (1) 
1

>  <SMILES>  (1) 
Cc1cc(C(=O)[N-]c2ccc3[n-]ncc3c2)c(C)o1

>  <Energy>  (1) 
100.35678540725235

>  <Genealogy>  (1) 
Cc1cc(C(=O)[N-]c2ccc3[n-]ncc3c2)c(C)o1 (protonated)
Cc1cc(C(=O)[N-]c2ccc3[n-]ncc3c2)c(C)o1 (3D coordinates assigned)
Cc1cc(C(=O)[N-]c2ccc3[n-]ncc3c2)c(C)o1 (optimized conformer: 100.35678540725235 kcal/mol)

>  <smiles>  (1) 
Cc1cc(C(=O)Nc2ccc3[nH]ncc3c2)c(C)o1

>  <score_type>  (1) 
oracle

>  <origin>  (1) 
adg

>  <m_score__min__energy>  (1) 
-9.0800000000000001

>  <m_primary>  (1) 
energy

$$$$
1:0
     RDKit          3D

 63 67  0  0  0  0  0  0  0  0999 V2000
   -6.2520   25.2540  -30.1000 C   0  0  0  0  0  0  0  0  0  0  0  0
   -4.9160   24.5410  -29.9160 C   0  0  0  0  0  0  0  0  0  0  0  0
   -4.4640   23.9540  -31.1860 N   0  0  0  0  0  0  0  0  0  0  0  0
   -3.6710   22.7390  -30.9620 C   0  0  0  0  0  0  0  0  0  0  0  0
   -3.3930   22.0430  -32.3010 C   0  0  0  0  0  0  0  0  0  0  0  0
   -4.5360   22.1290  -33.2310 N   0  0  0  0  0  0  0  0  0  0  0  0
   -5.5250   21.0950  -32.9870 C   0  0  0  0  0  0  0  0  0  0  0  0
   -5.2090   19.7490  -33.2110 C   0  0  0  0  0  0  0  0  0  0  0  0
   -6.1400   18.7530  -33.0210 C   0  0  0  0  0  0  0  0  0  0  0  0
   -7.3710   19.0010  -32.4700 N   0  0  0  0  0  0  0  0  0  0  0  0
   -8.1860   17.8900  -31.9470 C   0  0  0  0  0  0  0  0  0  0  0  0
   -7.7790   20.3170  -32.3350 C   0  0  0  0  0  0  0  0  0  0  0  0
   -9.1140   20.6410  -31.9900 C   0  0  0  0  0  0  0  0  0  0  0  0
   -9.5060   21.9640  -31.7960 C   0  0  0  0  0  0  0  0  0  0  0  0
   -8.5870   22.9950  -31.9470 C   0  0  0  0  0  0  0  0  0  0  0  0
   -7.2750   22.7180  -32.3220 C   0  0  0  0  0  0  0  0  0  0  0  0
   -6.8500   21.3900  -32.5540 C   0  0  0  0  0  0  0  0  0  0  0  0
   -5.4950   17.4920  -33.4080 C   0  0  0  0  0  0  0  0  0  0  0  0
   -6.0590   16.2300  -33.6320 C   0  0  0  0  0  0  0  0  0  0  0  0
   -5.2320   15.1710  -34.0780 C   0  0  0  0  0  0  0  0  0  0  0  0
   -3.8620   15.4470  -34.3360 C   0  0  0  0  0  0  0  0  0  0  0  0
   -3.3630   16.7520  -34.1590 C   0  0  0  0  0  0  0  0  0  0  0  0
   -2.1570   17.0240  -34.4100 O   0  0  0  0  0  0  0  0  0  0  0  0
   -4.2020   17.7270  -33.7200 N   0  0  0  0  0  0  0  0  0  0  0  0
   -3.8900   19.1500  -33.6110 C   0  0  0  0  0  0  0  0  0  0  0  0
   -2.9690   14.3270  -34.8090 C   0  0  0  0  0  0  0  0  0  0  0  0
   -3.6940   13.4740  -35.6890 O   0  0  0  0  0  0  0  0  0  0  0  0
   -5.0270   13.1340  -35.4420 C   0  0  0  0  0  0  0  0  0  0  0  0
   -5.6020   12.3440  -36.2350 O   0  0  0  0  0  0  0  0  0  0  0  0
   -5.7320   13.7160  -34.2250 C   0  0  1  0  0  0  0  0  0  0  0  0
   -5.3000   12.9860  -33.1010 O   0  0  0  0  0  0  0  0  0  0  0  0
   -7.2890   13.6040  -34.3410 C   0  0  0  0  0  0  0  0  0  0  0  0
   -7.8650   12.2110  -34.0390 C   0  0  0  0  0  0  0  0  0  0  0  0
   -6.6835   25.4843  -29.1147 H   0  0  0  0  0  0  0  0  0  0  0  0
   -6.0951   26.1883  -30.6590 H   0  0  0  0  0  0  0  0  0  0  0  0
   -6.9408   24.6036  -30.6590 H   0  0  0  0  0  0  0  0  0  0  0  0
   -4.1655   25.2643  -29.5646 H   0  0  0  0  0  0  0  0  0  0  0  0
   -5.0425   23.7353  -29.1778 H   0  0  0  0  0  0  0  0  0  0  0  0
   -5.3160   23.6790  -31.7290 H   0  0  0  0  0  0  0  0  0  0  0  0
   -2.7167   23.0088  -30.4861 H   0  0  0  0  0  0  0  0  0  0  0  0
   -4.2323   22.0554  -30.3080 H   0  0  0  0  0  0  0  0  0  0  0  0
   -2.5194   22.5184  -32.7709 H   0  0  0  0  0  0  0  0  0  0  0  0
   -3.2110   20.9783  -32.0927 H   0  0  0  0  0  0  0  0  0  0  0  0
   -4.9610   23.0820  -33.1660 H   0  0  0  0  0  0  0  0  0  0  0  0
   -4.1910   22.0540  -34.2140 H   0  0  0  0  0  0  0  0  0  0  0  0
   -8.1711   17.9103  -30.8473 H   0  0  0  0  0  0  0  0  0  0  0  0
   -9.2218   17.9965  -32.3017 H   0  0  0  0  0  0  0  0  0  0  0  0
   -7.7734   16.9340  -32.3017 H   0  0  0  0  0  0  0  0  0  0  0  0
   -9.8534   19.8350  -31.8733 H   0  0  0  0  0  0  0  0  0  0  0  0
  -10.5465   22.1929  -31.5224 H   0  0  0  0  0  0  0  0  0  0  0  0
   -8.8974   24.0352  -31.7694 H   0  0  0  0  0  0  0  0  0  0  0  0
   -6.5588   23.5446  -32.4394 H   0  0  0  0  0  0  0  0  0  0  0  0
   -7.1331   16.0633  -33.4632 H   0  0  0  0  0  0  0  0  0  0  0  0
   -3.1235   19.3301  -32.8428 H   0  0  0  0  0  0  0  0  0  0  0  0
   -3.4795   19.5786  -34.5372 H   0  0  0  0  0  0  0  0  0  0  0  0
   -2.1031   14.7492  -35.3400 H   0  0  0  0  0  0  0  0  0  0  0  0
   -2.6230   13.7459  -33.9415 H   0  0  0  0  0  0  0  0  0  0  0  0
   -4.4750   12.4950  -33.3580 H   0  0  0  0  0  0  0  0  0  0  0  0
   -7.7360   14.3186  -33.6342 H   0  0  0  0  0  0  0  0  0  0  0  0
   -7.5349   13.8169  -35.3918 H   0  0  0  0  0  0  0  0  0  0  0  0
   -7.9245   12.0670  -32.9501 H   0  0  0  0  0  0  0  0  0  0  0  0
   -8.8713   12.1278  -34.4754 H   0  0  0  0  0  0  0  0  0  0  0  0
   -7.2113   11.4414  -34.4754 H   0  0  0  0  0  0  0  0  0  0  0  0
  1  2  1  0
  2  3  1  0
  3  4  1  0
  4  5  1  0
  5  6  1  0
  6  7  1  0
  7  8  2  0
  8  9  1  0
  9 10  2  0
 10 11  1  0
 10 12  1  0
 12 13  2  0
 13 14  1  0
 14 15  2  0
 15 16  1  0
 16 17  2  0
  9 18  1  0
 18 19  2  0
 19 20  1  0
 20 21  2  0
 21 22  1  0
 22 23  2  0
 22 24  1  0
 24 25  1  0
 21 26  1  0
 26 27  1  0
 27 28  1  0
 28 29  2  0
 28 30  1  0
 30 31  1  1
 30 32  1  0
 32 33  1  0
 17  7  1  0
 24 18  1  0
 25  8  1  0
 17 12  1  0
 30 20  1  0
  1 34  1  0
  1 35  1  0
  1 36  1  0
  2 37  1  0
  2 38  1  0
  3 39  1  0
  4 40  1  0
  4 41  1  0
  5 42  1  0
  5 43  1  0
  6 44  1  0
  6 45  1  0
 11 46  1  0
 11 47  1  0
 11 48  1  0
 13 49  1  0
 14 50  1  0
 15 51  1  0
 16 52  1  0
 19 53  1  0
 25 54  1  0
 25 55  1  0
 26 56  1  0
 26 57  1  0
 31 58  1  0
 32 59  1  0
 32 60  1  0
 33 61  1  0
 33 62  1  0
 33 63  1  0
M  CHG  2   6   1  10   1
M  END
>  <UniqueID>  (2) 
2

>  <SMILES>  (2) 
CCNCC[NH2+]c1c2c([n+](C)c3ccccc13)-c1cc3c(c(=O)n1C2)COC(=O)[C@]3(O)CC

>  <Energy>  (2) 
118.18881523742294

>  <Genealogy>  (2) 
CCNCC[NH2+]c1c2c([n+](C)c3ccccc13)-c1cc3c(c(=O)n1C2)COC(=O)C3(O)CC (protonated)
CCNCC[NH2+]c1c2c([n+](C)c3ccccc13)-c1cc3c(c(=O)n1C2)COC(=O)[C@]3(O)CC (chirality)
CCNCC[NH2+]c1c2c([n+](C)c3ccccc13)-c1cc3c(c(=O)n1C2)COC(=O)[C@]3(O)CC (3D coordinates assigned)
CCNCC[NH2+]c1c2c([n+](C)c3ccccc13)-c1cc3c(c(=O)n1C2)COC(=O)[C@]3(O)CC (nonaromatic ring conformer: 118.18881523742294 kcal/mol)

>  <smiles>  (2) 
CCNCCNc1c2c([n+](C)c3ccccc13)-c1cc3c(c(=O)n1C2)COC(=O)C3(O)CC

>  <score_type>  (2) 
oracle

>  <origin>  (2) 
adg

>  <m_score__min__energy>  (2) 
-8.5099999999999998

>  <m_primary>  (2) 
energy

$$$$
2:0
     RDKit          3D

 59 61  0  0  0  0  0  0  0  0999 V2000
   -3.0820   18.9110  -26.0690 C   0  0  0  0  0  0  0  0  0  0  0  0
   -3.0050   19.8790  -27.2540 C   0  0  0  0  0  0  0  0  0  0  0  0
   -1.6150   20.3570  -27.5080 N   0  0  0  0  0  0  0  0  0  0  0  0
   -0.8620   19.4710  -28.4320 C   0  0  0  0  0  0  0  0  0  0  0  0
   -0.1690   18.3130  -27.7080 C   0  0  0  0  0  0  0  0  0  0  0  0
   -1.5750   21.7790  -27.9530 C   0  0  0  0  0  0  0  0  0  0  0  0
   -2.7680   22.6630  -27.5120 C   0  0  0  0  0  0  0  0  0  0  0  0
   -3.4110   23.3310  -28.6410 N   0  0  0  0  0  0  0  0  0  0  0  0
   -2.8160   24.1150  -29.5630 C   0  0  0  0  0  0  0  0  0  0  0  0
   -3.6900   24.6030  -30.4690 N   0  0  0  0  0  0  0  0  0  0  0  0
   -4.8760   24.0780  -30.0920 C   0  0  0  0  0  0  0  0  0  0  0  0
   -6.1760   24.3780  -30.7700 C   0  0  0  0  0  0  0  0  0  0  0  0
   -6.1330   23.9570  -32.2400 C   0  0  0  0  0  0  0  0  0  0  0  0
   -7.3580   23.2220  -32.5840 N   0  0  0  0  0  0  0  0  0  0  0  0
   -7.7410   22.2770  -31.5280 C   0  0  0  0  0  0  0  0  0  0  0  0
   -7.7410   20.8860  -32.0900 C   0  0  0  0  0  0  0  0  0  0  0  0
   -8.8670   20.0970  -32.2300 C   0  0  0  0  0  0  0  0  0  0  0  0
   -8.4230   18.8390  -32.5940 C   0  0  0  0  0  0  0  0  0  0  0  0
   -7.0460   18.9040  -32.6450 C   0  0  0  0  0  0  0  0  0  0  0  0
   -6.6350   20.1510  -32.3400 N   0  0  0  0  0  0  0  0  0  0  0  0
   -5.2660   20.5730  -32.2530 C   0  0  0  0  0  0  0  0  0  0  0  0
   -4.6240   21.1240  -33.3750 C   0  0  0  0  0  0  0  0  0  0  0  0
   -3.2900   21.5340  -33.2900 C   0  0  0  0  0  0  0  0  0  0  0  0
   -2.5930   21.4070  -32.0840 C   0  0  0  0  0  0  0  0  0  0  0  0
   -1.2980   21.8030  -32.0040 F   0  0  0  0  0  0  0  0  0  0  0  0
   -3.2320   20.8770  -30.9590 C   0  0  0  0  0  0  0  0  0  0  0  0
   -4.5670   20.4670  -31.0400 C   0  0  0  0  0  0  0  0  0  0  0  0
   -4.7120   23.2930  -28.9710 C   0  0  0  0  0  0  0  0  0  0  0  0
   -3.0368   19.4790  -25.1281 H   0  0  0  0  0  0  0  0  0  0  0  0
   -4.0275   18.3507  -26.1141 H   0  0  0  0  0  0  0  0  0  0  0  0
   -2.2369   18.2083  -26.1141 H   0  0  0  0  0  0  0  0  0  0  0  0
   -3.3719   19.3649  -28.1546 H   0  0  0  0  0  0  0  0  0  0  0  0
   -3.6224   20.7564  -27.0112 H   0  0  0  0  0  0  0  0  0  0  0  0
   -1.0900   20.3590  -26.5980 H   0  0  0  0  0  0  0  0  0  0  0  0
   -1.5635   19.0549  -29.1701 H   0  0  0  0  0  0  0  0  0  0  0  0
   -0.0800   20.0786  -28.9109 H   0  0  0  0  0  0  0  0  0  0  0  0
   -0.2549   18.4565  -26.6208 H   0  0  0  0  0  0  0  0  0  0  0  0
   -0.6479   17.3642  -27.9916 H   0  0  0  0  0  0  0  0  0  0  0  0
    0.8935   18.2866  -27.9916 H   0  0  0  0  0  0  0  0  0  0  0  0
   -0.6554   22.2310  -27.5529 H   0  0  0  0  0  0  0  0  0  0  0  0
   -1.6202   21.7470  -29.0516 H   0  0  0  0  0  0  0  0  0  0  0  0
   -3.5109   22.0281  -27.0070 H   0  0  0  0  0  0  0  0  0  0  0  0
   -2.3792   23.4407  -26.8382 H   0  0  0  0  0  0  0  0  0  0  0  0
   -1.7378   24.3328  -29.5755 H   0  0  0  0  0  0  0  0  0  0  0  0
   -6.9827   23.8297  -30.2615 H   0  0  0  0  0  0  0  0  0  0  0  0
   -6.3578   25.4617  -30.7192 H   0  0  0  0  0  0  0  0  0  0  0  0
   -6.0543   24.8524  -32.8740 H   0  0  0  0  0  0  0  0  0  0  0  0
   -5.2612   23.3071  -32.4060 H   0  0  0  0  0  0  0  0  0  0  0  0
   -7.1820   22.6720  -33.4570 H   0  0  0  0  0  0  0  0  0  0  0  0
   -7.0206   22.3393  -30.6990 H   0  0  0  0  0  0  0  0  0  0  0  0
   -8.7454   22.5257  -31.1547 H   0  0  0  0  0  0  0  0  0  0  0  0
   -9.9114   20.4086  -32.0811 H   0  0  0  0  0  0  0  0  0  0  0  0
   -9.0469   17.9574  -32.8025 H   0  0  0  0  0  0  0  0  0  0  0  0
   -6.3824   18.0636  -32.8970 H   0  0  0  0  0  0  0  0  0  0  0  0
   -5.1722   21.2330  -34.3224 H   0  0  0  0  0  0  0  0  0  0  0  0
   -2.7880   21.9570  -34.1727 H   0  0  0  0  0  0  0  0  0  0  0  0
   -2.6846   20.7824  -30.0096 H   0  0  0  0  0  0  0  0  0  0  0  0
   -5.0706   20.0603  -30.1506 H   0  0  0  0  0  0  0  0  0  0  0  0
   -5.5016   22.7376  -28.4437 H   0  0  0  0  0  0  0  0  0  0  0  0
  1  2  1  0
  2  3  1  0
  3  4  1  0
  4  5  1  0
  3  6  1  0
  6  7  1  0
  7  8  1  0
  8  9  1  0
  9 10  2  0
 10 11  1  0
 11 12  1  0
 12 13  1  0
 13 14  1  0
 14 15  1  0
 15 16  1  0
 16 17  2  0
 17 18  1  0
 18 19  2  0
 19 20  1  0
 20 21  1  0
 21 22  2  0
 22 23  1  0
 23 24  2  0
 24 25  1  0
 24 26  1  0
 26 27  2  0
 11 28  2  0
 28  8  1  0
 20 16  1  0
 27 21  1  0
  1 29  1  0
  1 30  1  0
  1 31  1  0
  2 32  1  0
  2 33  1  0
  3 34  1  0
  4 35  1  0
  4 36  1  0
  5 37  1  0
  5 38  1  0
  5 39  1  0
  6 40  1  0
  6 41  1  0
  7 42  1  0
  7 43  1  0
  9 44  1  0
 12 45  1  0
 12 46  1  0
 13 47  1  0
 13 48  1  0
 14 49  1  0
 15 50  1  0
 15 51  1  0
 17 52  1  0
 18 53  1  0
 19 54  1  0
 22 55  1  0
 23 56  1  0
 26 57  1  0
 27 58  1  0
 28 59  1  0
M  CHG  1   3   1
M  END
>  <UniqueID>  (3) 
3

>  <SMILES>  (3) 
CC[NH+](CC)CCn1cnc(CCNCc2cccn2-c2ccc(F)cc2)c1

>  <Energy>  (3) 
118.38016374968636

>  <Genealogy>  (3) 
CC[NH+](CC)CCn1cnc(CCNCc2cccn2-c2ccc(F)cc2)c1 (protonated)
CC[NH+](CC)CCn1cnc(CCNCc2cccn2-c2ccc(F)cc2)c1 (3D coordinates assigned)
CC[NH+](CC)CCn1cnc(CCNCc2cccn2-c2ccc(F)cc2)c1 (optimized conformer: 118.38016374968636 kcal/mol)

>  <smiles>  (3) 
CCN(CC)CCn1cnc(CCNCc2cccn2-c2ccc(F)cc2)c1

>  <score_type>  (3) 
oracle

>  <origin>  (3) 
adg

>  <m_score__min__energy>  (3) 
-7.8899999999999997

>  <m_primary>  (3) 
energy

$$$$
3:0
     RDKit          3D

 42 44  0  0  0  0  0  0  0  0999 V2000
   -7.8210   18.3070  -31.5900 C   0  0  0  0  0  0  0  0  0  0  0  0
   -6.4180   17.8120  -31.2200 C   0  0  0  0  0  0  0  0  0  0  0  0
   -5.5860   17.5060  -32.4210 N   0  0  0  0  0  0  0  0  0  0  0  0
   -5.0000   16.1410  -32.3860 C   0  0  0  0  0  0  0  0  0  0  0  0
   -5.3130   15.3280  -33.6460 C   0  0  0  0  0  0  0  0  0  0  0  0
   -6.3190   17.7570  -33.6940 C   0  0  0  0  0  0  0  0  0  0  0  0
   -6.0960   19.1440  -34.3480 C   0  0  0  0  0  0  0  0  0  0  0  0
   -5.4080   20.0840  -33.4590 N   0  0  0  0  0  0  0  0  0  0  0  0
   -4.0970   20.1050  -33.1100 C   0  0  0  0  0  0  0  0  0  0  0  0
   -3.2460   19.2800  -33.5350 O   0  0  0  0  0  0  0  0  0  0  0  0
   -3.7990   21.0820  -32.2710 O   0  0  0  0  0  0  0  0  0  0  0  0
   -4.9290   21.7120  -32.0470 C   0  0  0  0  0  0  0  0  0  0  0  0
   -5.1660   22.8180  -31.2300 C   0  0  0  0  0  0  0  0  0  0  0  0
   -4.1440   23.4410  -30.5010 C   0  0  0  0  0  0  0  0  0  0  0  0
   -4.4390   24.5460  -29.6970 C   0  0  0  0  0  0  0  0  0  0  0  0
   -5.7490   25.0310  -29.6170 C   0  0  0  0  0  0  0  0  0  0  0  0
   -6.7760   24.4160  -30.3390 C   0  0  0  0  0  0  0  0  0  0  0  0
   -6.5000   23.3060  -31.1510 C   0  0  0  0  0  0  0  0  0  0  0  0
   -7.5330   22.6700  -31.8870 C   0  0  0  0  0  0  0  0  0  0  0  0
   -7.2510   21.5580  -32.7000 C   0  0  0  0  0  0  0  0  0  0  0  0
   -5.9300   21.1110  -32.7600 C   0  0  0  0  0  0  0  0  0  0  0  0
   -8.3926   18.5087  -30.6721 H   0  0  0  0  0  0  0  0  0  0  0  0
   -7.7397   19.2307  -32.1817 H   0  0  0  0  0  0  0  0  0  0  0  0
   -8.3374   17.5368  -32.1817 H   0  0  0  0  0  0  0  0  0  0  0  0
   -5.9130   18.5910  -30.6299 H   0  0  0  0  0  0  0  0  0  0  0  0
   -6.5322   16.8808  -30.6457 H   0  0  0  0  0  0  0  0  0  0  0  0
   -4.7820   18.1780  -32.4520 H   0  0  0  0  0  0  0  0  0  0  0  0
   -3.9080   16.2298  -32.2873 H   0  0  0  0  0  0  0  0  0  0  0  0
   -5.4454   15.6113  -31.5310 H   0  0  0  0  0  0  0  0  0  0  0  0
   -5.6944   14.3373  -33.3578 H   0  0  0  0  0  0  0  0  0  0  0  0
   -6.0729   15.8541  -34.2425 H   0  0  0  0  0  0  0  0  0  0  0  0
   -4.3965   15.2087  -34.2425 H   0  0  0  0  0  0  0  0  0  0  0  0
   -6.0069   16.9901  -34.4182 H   0  0  0  0  0  0  0  0  0  0  0  0
   -7.3867   17.7228  -33.4314 H   0  0  0  0  0  0  0  0  0  0  0  0
   -5.4904   19.0114  -35.2567 H   0  0  0  0  0  0  0  0  0  0  0  0
   -7.0855   19.5665  -34.5769 H   0  0  0  0  0  0  0  0  0  0  0  0
   -3.1132   23.0618  -30.5612 H   0  0  0  0  0  0  0  0  0  0  0  0
   -3.6377   25.0363  -29.1248 H   0  0  0  0  0  0  0  0  0  0  0  0
   -5.9721   25.9013  -28.9823 H   0  0  0  0  0  0  0  0  0  0  0  0
   -7.8032   24.8035  -30.2702 H   0  0  0  0  0  0  0  0  0  0  0  0
   -8.5631   23.0501  -31.8210 H   0  0  0  0  0  0  0  0  0  0  0  0
   -8.0463   21.0562  -33.2707 H   0  0  0  0  0  0  0  0  0  0  0  0
  1  2  1  0
  2  3  1  0
  3  4  1  0
  4  5  1  0
  3  6  1  0
  6  7  1  0
  7  8  1  0
  8  9  1  0
  9 10  2  0
  9 11  1  0
 11 12  1  0
 12 13  2  0
 13 14  1  0
 14 15  2  0
 15 16  1  0
 16 17  2  0
 17 18  1  0
 18 19  2  0
 19 20  1  0
 20 21  2  0
 21  8  1  0
 21 12  1  0
 18 13  1  0
  1 22  1  0
  1 23  1  0
  1 24  1  0
  2 25  1  0
  2 26  1  0
  3 27  1  0
  4 28  1  0
  4 29  1  0
  5 30  1  0
  5 31  1  0
  5 32  1  0
  6 33  1  0
  6 34  1  0
  7 35  1  0
  7 36  1  0
 14 37  1  0
 15 38  1  0
 16 39  1  0
 17 40  1  0
 19 41  1  0
 20 42  1  0
M  CHG  1   3   1
M  END
>  <UniqueID>  (4) 
4

>  <SMILES>  (4) 
CC[NH+](CC)CCn1c(=O)oc2c3ccccc3ccc21

>  <Energy>  (4) 
91.54948549020177

>  <Genealogy>  (4) 
CC[NH+](CC)CCn1c(=O)oc2c3ccccc3ccc21 (protonated)
CC[NH+](CC)CCn1c(=O)oc2c3ccccc3ccc21 (3D coordinates assigned)
CC[NH+](CC)CCn1c(=O)oc2c3ccccc3ccc21 (optimized conformer: 91.54948549020177 kcal/mol)

>  <smiles>  (4) 
CCN(CC)CCn1c(=O)oc2c3ccccc3ccc21

>  <score_type>  (4) 
oracle

>  <origin>  (4) 
adg

>  <m_score__min__energy>  (4) 
-6.8200000000000003

>  <m_primary>  (4) 
energy

$$$$
4:0
     RDKit          3D

 54 57  0  0  0  0  0  0  0  0999 V2000
   -6.9390   25.4910  -29.3840 C   0  0  0  0  0  0  0  0  0  0  0  0
   -5.7480   26.0360  -30.1600 C   0  0  0  0  0  0  0  0  0  0  0  0
   -4.9150   24.9360  -30.6340 N   0  0  0  0  0  0  0  0  0  0  0  0
   -5.3300   23.8330  -31.2780 C   0  0  0  0  0  0  0  0  0  0  0  0
   -4.2080   23.0430  -31.4510 C   0  0  0  0  0  0  0  0  0  0  0  0
   -4.0760   21.7330  -32.1280 C   0  0  0  0  0  0  0  0  0  0  0  0
   -2.8730   21.0660  -32.2690 C   0  0  0  0  0  0  0  0  0  0  0  0
   -3.1960   19.9010  -32.9340 C   0  0  0  0  0  0  0  0  0  0  0  0
   -2.2490   18.7950  -33.2760 C   0  0  0  0  0  0  0  0  0  0  0  0
   -2.6970   17.6050  -32.7340 F   0  0  0  0  0  0  0  0  0  0  0  0
   -2.1670   18.6690  -34.6500 F   0  0  0  0  0  0  0  0  0  0  0  0
   -0.9920   19.0750  -32.7710 F   0  0  0  0  0  0  0  0  0  0  0  0
   -4.5230   19.8510  -33.1520 N   0  0  0  0  0  0  0  0  0  0  0  0
   -5.0570   20.9610  -32.6630 N   0  0  0  0  0  0  0  0  0  0  0  0
   -6.4930   21.2230  -32.7460 C   0  0  0  0  0  0  0  0  0  0  0  0
   -7.1440   21.0050  -31.3740 C   0  0  0  0  0  0  0  0  0  0  0  0
   -8.6610   20.7530  -31.4540 C   0  0  0  0  0  0  0  0  0  0  0  0
   -9.0340   19.4100  -32.1050 C   0  0  0  0  0  0  0  0  0  0  0  0
   -7.8890   18.4440  -32.1710 C   0  0  0  0  0  0  0  0  0  0  0  0
   -7.2110   18.0630  -33.3060 C   0  0  0  0  0  0  0  0  0  0  0  0
   -6.1920   17.2840  -32.8940 N   0  0  0  0  0  0  0  0  0  0  0  0
   -5.1890   16.6440  -33.7050 C   0  0  0  0  0  0  0  0  0  0  0  0
   -4.8100   17.2110  -34.9320 C   0  0  0  0  0  0  0  0  0  0  0  0
   -3.8300   16.6040  -35.7230 C   0  0  0  0  0  0  0  0  0  0  0  0
   -3.2110   15.4120  -35.3060 C   0  0  0  0  0  0  0  0  0  0  0  0
   -2.1980   14.7870  -36.1150 N   0  0  0  0  0  0  0  0  0  0  0  0
   -2.5130   14.0770  -37.0920 O   0  0  0  0  0  0  0  0  0  0  0  0
   -0.8640   14.9630  -35.8250 O   0  0  0  0  0  0  0  0  0  0  0  0
   -3.5980   14.8400  -34.0830 C   0  0  0  0  0  0  0  0  0  0  0  0
   -4.5790   15.4450  -33.2930 C   0  0  0  0  0  0  0  0  0  0  0  0
   -6.2430   17.2050  -31.5720 N   0  0  0  0  0  0  0  0  0  0  0  0
   -7.2600   17.9140  -31.1030 N   0  0  0  0  0  0  0  0  0  0  0  0
   -3.1560   23.6980  -30.9150 N   0  0  0  0  0  0  0  0  0  0  0  0
   -3.6140   24.8380  -30.4180 N   0  0  0  0  0  0  0  0  0  0  0  0
   -6.7452   25.5797  -28.3049 H   0  0  0  0  0  0  0  0  0  0  0  0
   -7.8399   26.0665  -29.6432 H   0  0  0  0  0  0  0  0  0  0  0  0
   -7.0925   24.4331  -29.6432 H   0  0  0  0  0  0  0  0  0  0  0  0
   -6.1095   26.6165  -31.0216 H   0  0  0  0  0  0  0  0  0  0  0  0
   -5.1513   26.6815  -29.4988 H   0  0  0  0  0  0  0  0  0  0  0  0
   -6.3558   23.6040  -31.6026 H   0  0  0  0  0  0  0  0  0  0  0  0
   -1.8795   21.3917  -31.9271 H   0  0  0  0  0  0  0  0  0  0  0  0
   -6.6561   22.2627  -33.0660 H   0  0  0  0  0  0  0  0  0  0  0  0
   -6.9451   20.5342  -33.4748 H   0  0  0  0  0  0  0  0  0  0  0  0
   -6.6700   20.1346  -30.8967 H   0  0  0  0  0  0  0  0  0  0  0  0
   -6.9966   21.9272  -30.7927 H   0  0  0  0  0  0  0  0  0  0  0  0
   -9.0695   20.7686  -30.4328 H   0  0  0  0  0  0  0  0  0  0  0  0
   -9.0842   21.5452  -32.0890 H   0  0  0  0  0  0  0  0  0  0  0  0
   -9.8443   18.9513  -31.5193 H   0  0  0  0  0  0  0  0  0  0  0  0
   -9.3398   19.6236  -33.1398 H   0  0  0  0  0  0  0  0  0  0  0  0
   -7.4527   18.3393  -34.3429 H   0  0  0  0  0  0  0  0  0  0  0  0
   -5.2881   18.1407  -35.2740 H   0  0  0  0  0  0  0  0  0  0  0  0
   -3.5405   17.0628  -36.6799 H   0  0  0  0  0  0  0  0  0  0  0  0
   -3.1243   13.9069  -33.7439 H   0  0  0  0  0  0  0  0  0  0  0  0
   -4.8767   14.9802  -32.3415 H   0  0  0  0  0  0  0  0  0  0  0  0
  1  2  1  0
  2  3  1  0
  3  4  1  0
  4  5  2  0
  5  6  1  0
  6  7  2  0
  7  8  1  0
  8  9  1  0
  9 10  1  0
  9 11  1  0
  9 12  1  0
  8 13  2  0
 13 14  1  0
 14 15  1  0
 15 16  1  0
 16 17  1  0
 17 18  1  0
 18 19  1  0
 19 20  2  0
 20 21  1  0
 21 22  1  0
 22 23  2  0
 23 24  1  0
 24 25  2  0
 25 26  1  0
 26 27  2  0
 26 28  1  0
 25 29  1  0
 29 30  2  0
 21 31  1  0
 31 32  2  0
  5 33  1  0
 33 34  2  0
 34  3  1  0
 14  6  1  0
 32 19  1  0
 30 22  1  0
  1 35  1  0
  1 36  1  0
  1 37  1  0
  2 38  1  0
  2 39  1  0
  4 40  1  0
  7 41  1  0
 15 42  1  0
 15 43  1  0
 16 44  1  0
 16 45  1  0
 17 46  1  0
 17 47  1  0
 18 48  1  0
 18 49  1  0
 20 50  1  0
 23 51  1  0
 24 52  1  0
 29 53  1  0
 30 54  1  0
M  CHG  2  26   1  28  -1
M  END
>  <UniqueID>  (5) 
5

>  <SMILES>  (5) 
CCn1cc(-c2cc(C(F)(F)F)nn2CCCCc2cn(-c3ccc([N+](=O)[O-])cc3)nn2)nn1

>  <Energy>  (5) 
150.88342554691837

>  <Genealogy>  (5) 
CCn1cc(-c2cc(C(F)(F)F)nn2CCCCc2cn(-c3ccc([N+](=O)[O-])cc3)nn2)nn1 (3D coordinates assigned)
CCn1cc(-c2cc(C(F)(F)F)nn2CCCCc2cn(-c3ccc([N+](=O)[O-])cc3)nn2)nn1 (optimized conformer: 150.88342554691837 kcal/mol)

>  <smiles>  (5) 
CCn1cc(-c2cc(C(F)(F)F)nn2CCCCc2cn(-c3ccc([N+](=O)[O-])cc3)nn2)nn1

>  <score_type>  (5) 
oracle

>  <origin>  (5) 
adg

>  <m_score__min__energy>  (5) 
-9.25

>  <m_primary>  (5) 
energy

$$$$
5:0
     RDKit          3D

 48 49  0  0  0  0  0  0  0  0999 V2000
   -6.0570   17.3550  -34.1580 C   0  0  0  0  0  0  0  0  0  0  0  0
   -7.0870   17.5240  -33.1900 O   0  0  0  0  0  0  0  0  0  0  0  0
   -7.5020   18.7650  -32.6820 C   0  0  0  0  0  0  0  0  0  0  0  0
   -8.7630   18.9530  -32.0890 C   0  0  0  0  0  0  0  0  0  0  0  0
   -9.1240   20.2060  -31.5910 C   0  0  0  0  0  0  0  0  0  0  0  0
   -8.2410   21.2820  -31.6840 C   0  0  0  0  0  0  0  0  0  0  0  0
   -6.9790   21.1220  -32.2910 C   0  0  0  0  0  0  0  0  0  0  0  0
   -5.9660   22.2540  -32.3780 C   0  0  1  0  0  0  0  0  0  0  0  0
   -6.2190   23.3950  -31.3660 C   0  0  0  0  0  0  0  0  0  0  0  0
   -5.0240   24.2450  -31.2370 N   0  0  0  0  0  0  0  0  0  0  0  0
   -5.1600   25.2110  -30.1390 C   0  0  0  0  0  0  0  0  0  0  0  0
   -4.7340   24.5460  -28.8160 C   0  0  0  0  0  0  0  0  0  0  0  0
   -3.7490   23.4510  -28.9690 N   0  0  0  0  0  0  0  0  0  0  0  0
   -2.3800   23.9360  -29.2030 C   0  0  0  0  0  0  0  0  0  0  0  0
   -3.7890   22.4820  -27.8630 C   0  0  0  0  0  0  0  0  0  0  0  0
   -4.5510   21.7150  -32.2650 C   0  0  0  0  0  0  0  0  0  0  0  0
   -3.7060   21.7170  -33.3910 C   0  0  0  0  0  0  0  0  0  0  0  0
   -2.4000   21.2310  -33.2970 C   0  0  0  0  0  0  0  0  0  0  0  0
   -1.9200   20.7380  -32.0810 C   0  0  0  0  0  0  0  0  0  0  0  0
   -0.1330   20.0750  -31.9550 Br  0  0  0  0  0  0  0  0  0  0  0  0
   -2.7480   20.7340  -30.9540 C   0  0  0  0  0  0  0  0  0  0  0  0
   -4.0550   21.2200  -31.0440 C   0  0  0  0  0  0  0  0  0  0  0  0
   -6.6190   19.8480  -32.7720 C   0  0  0  0  0  0  0  0  0  0  0  0
   -5.0958   17.1973  -33.6469 H   0  0  0  0  0  0  0  0  0  0  0  0
   -6.2851   16.4823  -34.7875 H   0  0  0  0  0  0  0  0  0  0  0  0
   -5.9942   18.2549  -34.7875 H   0  0  0  0  0  0  0  0  0  0  0  0
   -9.4667   18.1106  -32.0174 H   0  0  0  0  0  0  0  0  0  0  0  0
  -10.1096   20.3457  -31.1229 H   0  0  0  0  0  0  0  0  0  0  0  0
   -8.5319   22.2631  -31.2804 H   0  0  0  0  0  0  0  0  0  0  0  0
   -6.0954   22.7097  -33.3708 H   0  0  0  0  0  0  0  0  0  0  0  0
   -7.0630   24.0079  -31.7152 H   0  0  0  0  0  0  0  0  0  0  0  0
   -6.4499   22.9550  -30.3846 H   0  0  0  0  0  0  0  0  0  0  0  0
   -4.2100   23.6250  -31.0130 H   0  0  0  0  0  0  0  0  0  0  0  0
   -4.5178   26.0823  -30.3352 H   0  0  0  0  0  0  0  0  0  0  0  0
   -6.2077   25.5378  -30.0651 H   0  0  0  0  0  0  0  0  0  0  0  0
   -4.2915   25.3185  -28.1699 H   0  0  0  0  0  0  0  0  0  0  0  0
   -5.6404   24.0941  -28.3867 H   0  0  0  0  0  0  0  0  0  0  0  0
   -1.8833   24.1120  -28.2374 H   0  0  0  0  0  0  0  0  0  0  0  0
   -1.8166   23.1828  -29.7733 H   0  0  0  0  0  0  0  0  0  0  0  0
   -2.4165   24.8759  -29.7733 H   0  0  0  0  0  0  0  0  0  0  0  0
   -3.7668   23.0196  -26.9036 H   0  0  0  0  0  0  0  0  0  0  0  0
   -4.7124   21.8880  -27.9292 H   0  0  0  0  0  0  0  0  0  0  0  0
   -2.9177   21.8139  -27.9292 H   0  0  0  0  0  0  0  0  0  0  0  0
   -4.0769   22.1040  -34.3515 H   0  0  0  0  0  0  0  0  0  0  0  0
   -1.7476   21.2364  -34.1826 H   0  0  0  0  0  0  0  0  0  0  0  0
   -2.3701   20.3479  -29.9958 H   0  0  0  0  0  0  0  0  0  0  0  0
   -4.7013   21.2158  -30.1539 H   0  0  0  0  0  0  0  0  0  0  0  0
   -5.6278   19.7014  -33.2259 H   0  0  0  0  0  0  0  0  0  0  0  0
  1  2  1  0
  2  3  1  0
  3  4  2  0
  4  5  1  0
  5  6  2  0
  6  7  1  0
  7  8  1  0
  8  9  1  0
  9 10  1  0
 10 11  1  0
 11 12  1  0
 12 13  1  0
 13 14  1  0
 13 15  1  0
  8 16  1  0
 16 17  2  0
 17 18  1  0
 18 19  2  0
 19 20  1  0
 19 21  1  0
 21 22  2  0
  7 23  2  0
 23  3  1  0
 22 16  1  0
  1 24  1  0
  1 25  1  0
  1 26  1  0
  4 27  1  0
  5 28  1  0
  6 29  1  0
  8 30  1  6
  9 31  1  0
  9 32  1  0
 10 33  1  0
 11 34  1  0
 11 35  1  0
 12 36  1  0
 12 37  1  0
 14 38  1  0
 14 39  1  0
 14 40  1  0
 15 41  1  0
 15 42  1  0
 15 43  1  0
 17 44  1  0
 18 45  1  0
 21 46  1  0
 22 47  1  0
 23 48  1  0
M  END
>  <UniqueID>  (6) 
6

>  <SMILES>  (6) 
COc1cccc([C@@H](CNCCN(C)C)c2ccc(Br)cc2)c1

>  <Energy>  (6) 
48.96204588666477

>  <Genealogy>  (6) 
COc1cccc([C@@H](CNCCN(C)C)c2ccc(Br)cc2)c1 (chirality)
COc1cccc([C@@H](CNCCN(C)C)c2ccc(Br)cc2)c1 (3D coordinates assigned)
COc1cccc([C@@H](CNCCN(C)C)c2ccc(Br)cc2)c1 (optimized conformer: 48.96204588666477 kcal/mol)

>  <smiles>  (6) 
COc1cccc(C(CNCCN(C)C)c2ccc(Br)cc2)c1

>  <score_type>  (6) 
oracle

>  <origin>  (6) 
adg

>  <m_score__min__energy>  (6) 
-7.6200000000000001

>  <m_primary>  (6) 
energy

$$$$
6:0
     RDKit          3D

 37 38  0  0  0  0  0  0  0  0999 V2000
   -9.5070   21.9250  -31.5260 C   0  0  0  0  0  0  0  0  0  0  0  0
   -8.9780   20.5420  -31.8980 C   0  0  0  0  0  0  0  0  0  0  0  0
   -7.5200   20.5740  -32.1470 N   0  0  0  0  0  0  0  0  0  0  0  0
   -7.0540   19.5140  -33.0720 C   0  0  0  0  0  0  0  0  0  0  0  0
   -7.3940   18.1460  -32.4940 C   0  0  0  0  0  0  0  0  0  0  0  0
   -7.0290   21.9260  -32.5080 C   0  0  0  0  0  0  0  0  0  0  0  0
   -6.0960   22.5340  -31.4790 C   0  0  0  0  0  0  0  0  0  0  0  0
   -4.8470   23.0500  -31.8490 C   0  0  0  0  0  0  0  0  0  0  0  0
   -4.0290   23.5940  -30.9120 N   0  0  0  0  0  0  0  0  0  0  0  0
   -4.3970   23.6640  -29.6040 C   0  0  0  0  0  0  0  0  0  0  0  0
   -3.4830   24.2600  -28.5990 C   0  0  0  0  0  0  0  0  0  0  0  0
   -3.9080   24.4560  -27.2690 C   0  0  0  0  0  0  0  0  0  0  0  0
   -3.0440   25.0170  -26.3240 C   0  0  0  0  0  0  0  0  0  0  0  0
   -1.7490   25.3900  -26.6910 C   0  0  0  0  0  0  0  0  0  0  0  0
   -1.3150   25.2010  -28.0040 C   0  0  0  0  0  0  0  0  0  0  0  0
   -2.1740   24.6400  -28.9540 C   0  0  0  0  0  0  0  0  0  0  0  0
   -5.6170   23.1900  -29.2300 N   0  0  0  0  0  0  0  0  0  0  0  0
   -6.4670   22.6370  -30.1320 C   0  0  0  0  0  0  0  0  0  0  0  0
   -9.5438   22.0211  -30.4308 H   0  0  0  0  0  0  0  0  0  0  0  0
   -8.8403   22.6960  -31.9396 H   0  0  0  0  0  0  0  0  0  0  0  0
  -10.5181   22.0543  -31.9396 H   0  0  0  0  0  0  0  0  0  0  0  0
   -9.1855   19.8450  -31.0727 H   0  0  0  0  0  0  0  0  0  0  0  0
   -9.4808   20.2140  -32.8197 H   0  0  0  0  0  0  0  0  0  0  0  0
   -7.5508   19.6337  -34.0461 H   0  0  0  0  0  0  0  0  0  0  0  0
   -5.9647   19.5953  -33.2019 H   0  0  0  0  0  0  0  0  0  0  0  0
   -7.3809   18.1986  -31.3953 H   0  0  0  0  0  0  0  0  0  0  0  0
   -8.3949   17.8425  -32.8347 H   0  0  0  0  0  0  0  0  0  0  0  0
   -6.6517   17.4092  -32.8347 H   0  0  0  0  0  0  0  0  0  0  0  0
   -6.4910   21.8554  -33.4649 H   0  0  0  0  0  0  0  0  0  0  0  0
   -7.9105   22.5813  -32.5675 H   0  0  0  0  0  0  0  0  0  0  0  0
   -4.5285   23.0142  -32.9013 H   0  0  0  0  0  0  0  0  0  0  0  0
   -4.9267   24.1654  -26.9728 H   0  0  0  0  0  0  0  0  0  0  0  0
   -3.3849   25.1651  -25.2887 H   0  0  0  0  0  0  0  0  0  0  0  0
   -1.0716   25.8324  -25.9457 H   0  0  0  0  0  0  0  0  0  0  0  0
   -0.2947   25.4941  -28.2921 H   0  0  0  0  0  0  0  0  0  0  0  0
   -1.8247   24.4943  -29.9868 H   0  0  0  0  0  0  0  0  0  0  0  0
   -7.4503   22.2685  -29.8044 H   0  0  0  0  0  0  0  0  0  0  0  0
  1  2  1  0
  2  3  1  0
  3  4  1  0
  4  5  1  0
  3  6  1  0
  6  7  1  0
  7  8  2  0
  8  9  1  0
  9 10  2  0
 10 11  1  0
 11 12  2  0
 12 13  1  0
 13 14  2  0
 14 15  1  0
 15 16  2  0
 10 17  1  0
 17 18  2  0
 18  7  1  0
 16 11  1  0
  1 19  1  0
  1 20  1  0
  1 21  1  0
  2 22  1  0
  2 23  1  0
  4 24  1  0
  4 25  1  0
  5 26  1  0
  5 27  1  0
  5 28  1  0
  6 29  1  0
  6 30  1  0
  8 31  1  0
 12 32  1  0
 13 33  1  0
 14 34  1  0
 15 35  1  0
 16 36  1  0
 18 37  1  0
M  END
>  <UniqueID>  (7) 
7

>  <SMILES>  (7) 
CCN(CC)Cc1cnc(-c2ccccc2)nc1

>  <Energy>  (7) 
41.3034277564969

>  <Genealogy>  (7) 
CCN(CC)Cc1cnc(-c2ccccc2)nc1 (3D coordinates assigned)
CCN(CC)Cc1cnc(-c2ccccc2)nc1 (optimized conformer: 41.3034277564969 kcal/mol)

>  <smiles>  (7) 
CCN(CC)Cc1cnc(-c2ccccc2)nc1

>  <score_type>  (7) 
oracle

>  <origin>  (7) 
adg

>  <m_score__min__energy>  (7) 
-6.4000000000000004

>  <m_primary>  (7) 
energy

$$$$
7:0
     RDKit          3D

 52 54  0  0  0  0  0  0  0  0999 V2000
   -3.8330   22.7070  -27.8850 C   0  0  0  0  0  0  0  0  0  0  0  0
   -4.2040   24.1640  -28.1520 C   0  0  0  0  0  0  0  0  0  0  0  0
   -4.5360   24.3620  -29.5830 N   0  0  0  0  0  0  0  0  0  0  0  0
   -5.7370   25.2280  -29.7090 C   0  0  0  0  0  0  0  0  0  0  0  0
   -6.8650   24.5090  -30.4430 C   0  0  0  0  0  0  0  0  0  0  0  0
   -4.7810   23.0630  -30.2560 C   0  0  0  0  0  0  0  0  0  0  0  0
   -4.0350   22.9290  -31.5970 C   0  0  0  0  0  0  0  0  0  0  0  0
   -4.8940   22.4600  -32.6910 N   0  0  0  0  0  0  0  0  0  0  0  0
   -5.2480   21.0760  -32.8850 C   0  0  0  0  0  0  0  0  0  0  0  0
   -6.5480   20.6180  -32.6110 C   0  0  0  0  0  0  0  0  0  0  0  0
   -7.4620   21.4270  -31.9030 C   0  0  0  0  0  0  0  0  0  0  0  0
   -8.7560   20.9870  -31.6460 C   0  0  0  0  0  0  0  0  0  0  0  0
   -9.1550   19.7240  -32.0630 C   0  0  0  0  0  0  0  0  0  0  0  0
   -8.2570   18.8870  -32.7220 C   0  0  0  0  0  0  0  0  0  0  0  0
   -6.9280   19.3070  -33.0070 C   0  0  0  0  0  0  0  0  0  0  0  0
   -6.0120   18.4730  -33.6300 N   0  0  0  0  0  0  0  0  0  0  0  0
   -6.4600   17.1980  -34.2450 C   0  0  0  0  0  0  0  0  0  0  0  0
   -6.1220   16.0010  -33.3540 C   0  0  0  0  0  0  0  0  0  0  0  0
   -4.6760   18.8400  -33.6910 C   0  0  0  0  0  0  0  0  0  0  0  0
   -3.6640   17.9360  -34.1140 C   0  0  0  0  0  0  0  0  0  0  0  0
   -2.3320   18.3360  -34.2150 C   0  0  0  0  0  0  0  0  0  0  0  0
   -1.9670   19.6370  -33.8970 C   0  0  0  0  0  0  0  0  0  0  0  0
   -2.9280   20.5420  -33.4600 C   0  0  0  0  0  0  0  0  0  0  0  0
   -4.2810   20.1600  -33.3360 C   0  0  0  0  0  0  0  0  0  0  0  0
   -3.7887   22.5329  -26.7998 H   0  0  0  0  0  0  0  0  0  0  0  0
   -4.5919   22.0477  -28.3314 H   0  0  0  0  0  0  0  0  0  0  0  0
   -2.8512   22.4909  -28.3314 H   0  0  0  0  0  0  0  0  0  0  0  0
   -5.0756   24.4339  -27.5376 H   0  0  0  0  0  0  0  0  0  0  0  0
   -3.3459   24.8022  -27.8946 H   0  0  0  0  0  0  0  0  0  0  0  0
   -6.0846   25.5069  -28.7033 H   0  0  0  0  0  0  0  0  0  0  0  0
   -5.4610   26.1220  -30.2875 H   0  0  0  0  0  0  0  0  0  0  0  0
   -7.5568   24.0681  -29.7102 H   0  0  0  0  0  0  0  0  0  0  0  0
   -7.4085   25.2277  -31.0740 H   0  0  0  0  0  0  0  0  0  0  0  0
   -6.4430   23.7129  -31.0740 H   0  0  0  0  0  0  0  0  0  0  0  0
   -4.4493   22.2543  -29.5882 H   0  0  0  0  0  0  0  0  0  0  0  0
   -5.8580   23.0024  -30.4715 H   0  0  0  0  0  0  0  0  0  0  0  0
   -3.6268   23.9133  -31.8701 H   0  0  0  0  0  0  0  0  0  0  0  0
   -3.2432   22.1782  -31.4576 H   0  0  0  0  0  0  0  0  0  0  0  0
   -5.3450   23.1810  -33.2970 H   0  0  0  0  0  0  0  0  0  0  0  0
   -7.1465   22.4197  -31.5494 H   0  0  0  0  0  0  0  0  0  0  0  0
   -9.4632   21.6392  -31.1126 H   0  0  0  0  0  0  0  0  0  0  0  0
  -10.1834   19.3832  -31.8724 H   0  0  0  0  0  0  0  0  0  0  0  0
   -8.5820   17.8816  -33.0279 H   0  0  0  0  0  0  0  0  0  0  0  0
   -7.5490   17.2362  -34.3956 H   0  0  0  0  0  0  0  0  0  0  0  0
   -5.9380   17.0739  -35.2053 H   0  0  0  0  0  0  0  0  0  0  0  0
   -6.2051   16.2954  -32.2974 H   0  0  0  0  0  0  0  0  0  0  0  0
   -6.8233   15.1795  -33.5620 H   0  0  0  0  0  0  0  0  0  0  0  0
   -5.0946   15.6676  -33.5620 H   0  0  0  0  0  0  0  0  0  0  0  0
   -3.9369   16.9007  -34.3666 H   0  0  0  0  0  0  0  0  0  0  0  0
   -1.5679   17.6181  -34.5478 H   0  0  0  0  0  0  0  0  0  0  0  0
   -0.9173   19.9521  -33.9907 H   0  0  0  0  0  0  0  0  0  0  0  0
   -2.6295   21.5701  -33.2074 H   0  0  0  0  0  0  0  0  0  0  0  0
  1  2  1  0
  2  3  1  0
  3  4  1  0
  4  5  1  0
  3  6  1  0
  6  7  1  0
  7  8  1  0
  8  9  1  0
  9 10  2  0
 10 11  1  0
 11 12  2  0
 12 13  1  0
 13 14  2  0
 14 15  1  0
 15 16  2  0
 16 17  1  0
 17 18  1  0
 16 19  1  0
 19 20  2  0
 20 21  1  0
 21 22  2  0
 22 23  1  0
 23 24  2  0
 24  9  1  0
 15 10  1  0
 24 19  1  0
  1 25  1  0
  1 26  1  0
  1 27  1  0
  2 28  1  0
  2 29  1  0
  4 30  1  0
  4 31  1  0
  5 32  1  0
  5 33  1  0
  5 34  1  0
  6 35  1  0
  6 36  1  0
  7 37  1  0
  7 38  1  0
  8 39  1  0
 11 40  1  0
 12 41  1  0
 13 42  1  0
 14 43  1  0
 17 44  1  0
 17 45  1  0
 18 46  1  0
 18 47  1  0
 18 48  1  0
 20 49  1  0
 21 50  1  0
 22 51  1  0
 23 52  1  0
M  CHG  1  16   1
M  END
>  <UniqueID>  (8) 
8

>  <SMILES>  (8) 
CCN(CC)CCNc1c2ccccc2[n+](CC)c2ccccc12

>  <Energy>  (8) 
73.56016616330693

>  <Genealogy>  (8) 
CCN(CC)CCNc1c2ccccc2[n+](CC)c2ccccc12 (3D coordinates assigned)
CCN(CC)CCNc1c2ccccc2[n+](CC)c2ccccc12 (optimized conformer: 73.56016616330693 kcal/mol)

>  <smiles>  (8) 
CCN(CC)CCNc1c2ccccc2[n+](CC)c2ccccc12

>  <score_type>  (8) 
oracle

>  <origin>  (8) 
adg

>  <m_score__min__energy>  (8) 
-8.1300000000000008

>  <m_primary>  (8) 
energy

$$$$
8:0
     RDKit          3D

 48 49  0  0  0  0  0  0  0  0999 V2000
   -0.1490   21.6510  -27.0970 C   0  0  0  0  0  0  0  0  0  0  0  0
   -1.3820   21.1840  -26.3140 C   0  0  0  0  0  0  0  0  0  0  0  0
   -2.2130   20.2180  -27.0850 N   0  0  0  0  0  0  0  0  0  0  0  0
   -2.3570   18.9350  -26.3480 C   0  0  0  0  0  0  0  0  0  0  0  0
   -3.8200   18.5610  -26.0790 C   0  0  0  0  0  0  0  0  0  0  0  0
   -1.7020   20.0490  -28.4740 C   0  0  0  0  0  0  0  0  0  0  0  0
   -2.3180   21.0070  -29.5200 C   0  0  0  0  0  0  0  0  0  0  0  0
   -3.2600   21.9020  -28.9280 O   0  0  0  0  0  0  0  0  0  0  0  0
   -3.9490   22.9250  -29.6000 C   0  0  0  0  0  0  0  0  0  0  0  0
   -3.4060   24.2070  -29.8070 C   0  0  0  0  0  0  0  0  0  0  0  0
   -4.1260   25.1530  -30.4660 N   0  0  0  0  0  0  0  0  0  0  0  0
   -5.3750   24.9060  -30.9400 C   0  0  0  0  0  0  0  0  0  0  0  0
   -5.9620   23.6480  -30.7520 C   0  0  0  0  0  0  0  0  0  0  0  0
   -7.3330   23.3450  -31.2960 C   0  0  0  0  0  0  0  0  0  0  0  0
   -7.5740   21.8900  -31.2980 N   0  0  0  0  0  0  0  0  0  0  0  0
   -6.9590   21.2170  -32.4480 C   0  0  0  0  0  0  0  0  0  0  0  0
   -7.7840   19.9680  -32.7170 C   0  0  0  0  0  0  0  0  0  0  0  0
   -9.1110   20.1980  -32.0120 C   0  0  0  0  0  0  0  0  0  0  0  0
   -9.0030   21.5820  -31.3930 C   0  0  0  0  0  0  0  0  0  0  0  0
   -5.2310   22.6560  -30.0850 C   0  0  0  0  0  0  0  0  0  0  0  0
    0.6410   21.9502  -26.3925 H   0  0  0  0  0  0  0  0  0  0  0  0
    0.2163   20.8290  -27.7301 H   0  0  0  0  0  0  0  0  0  0  0  0
   -0.4199   22.5088  -27.7301 H   0  0  0  0  0  0  0  0  0  0  0  0
   -1.0475   20.6992  -25.3850 H   0  0  0  0  0  0  0  0  0  0  0  0
   -2.0021   22.0686  -26.1069 H   0  0  0  0  0  0  0  0  0  0  0  0
   -3.1710   20.6330  -27.1860 H   0  0  0  0  0  0  0  0  0  0  0  0
   -1.8941   18.1344  -26.9436 H   0  0  0  0  0  0  0  0  0  0  0  0
   -1.8635   19.0579  -25.3726 H   0  0  0  0  0  0  0  0  0  0  0  0
   -3.9935   18.5166  -24.9937 H   0  0  0  0  0  0  0  0  0  0  0  0
   -4.4803   19.3192  -26.5252 H   0  0  0  0  0  0  0  0  0  0  0  0
   -4.0354   17.5789  -26.5252 H   0  0  0  0  0  0  0  0  0  0  0  0
   -0.6145   20.2138  -28.4596 H   0  0  0  0  0  0  0  0  0  0  0  0
   -1.9867   19.0327  -28.7839 H   0  0  0  0  0  0  0  0  0  0  0  0
   -1.5117   21.5941  -29.9838 H   0  0  0  0  0  0  0  0  0  0  0  0
   -2.8466   20.4006  -30.2702 H   0  0  0  0  0  0  0  0  0  0  0  0
   -2.3981   24.4435  -29.4352 H   0  0  0  0  0  0  0  0  0  0  0  0
   -5.9263   25.6951  -31.4723 H   0  0  0  0  0  0  0  0  0  0  0  0
   -8.0896   23.8371  -30.6672 H   0  0  0  0  0  0  0  0  0  0  0  0
   -7.3987   23.7195  -32.3282 H   0  0  0  0  0  0  0  0  0  0  0  0
   -6.9748   21.8782  -33.3270 H   0  0  0  0  0  0  0  0  0  0  0  0
   -5.9095   20.9606  -32.2412 H   0  0  0  0  0  0  0  0  0  0  0  0
   -7.9407   19.8362  -33.7978 H   0  0  0  0  0  0  0  0  0  0  0  0
   -7.2805   19.0602  -32.3530 H   0  0  0  0  0  0  0  0  0  0  0  0
   -9.9412   20.1622  -32.7327 H   0  0  0  0  0  0  0  0  0  0  0  0
   -9.3122   19.4254  -31.2553 H   0  0  0  0  0  0  0  0  0  0  0  0
   -9.5090   22.3227  -32.0297 H   0  0  0  0  0  0  0  0  0  0  0  0
   -9.4808   21.6110  -30.4026 H   0  0  0  0  0  0  0  0  0  0  0  0
   -5.6701   21.6576  -29.9422 H   0  0  0  0  0  0  0  0  0  0  0  0
  1  2  1  0
  2  3  1  0
  3  4  1  0
  4  5  1  0
  3  6  1  0
  6  7  1  0
  7  8  1  0
  8  9  1  0
  9 10  2  0
 10 11  1  0
 11 12  2  0
 12 13  1  0
 13 14  1  0
 14 15  1  0
 15 16  1  0
 16 17  1  0
 17 18  1  0
 18 19  1  0
 13 20  2  0
 20  9  1  0
 19 15  1  0
  1 21  1  0
  1 22  1  0
  1 23  1  0
  2 24  1  0
  2 25  1  0
  3 26  1  0
  4 27  1  0
  4 28  1  0
  5 29  1  0
  5 30  1  0
  5 31  1  0
  6 32  1  0
  6 33  1  0
  7 34  1  0
  7 35  1  0
 10 36  1  0
 12 37  1  0
 14 38  1  0
 14 39  1  0
 16 40  1  0
 16 41  1  0
 17 42  1  0
 17 43  1  0
 18 44  1  0
 18 45  1  0
 19 46  1  0
 19 47  1  0
 20 48  1  0
M  CHG  1   3   1
M  END
>  <UniqueID>  (9) 
9

>  <SMILES>  (9) 
CC[NH+](CC)CCOc1cncc(CN2CCCC2)c1

>  <Energy>  (9) 
51.40103334136466

>  <Genealogy>  (9) 
CC[NH+](CC)CCOc1cncc(CN2CCCC2)c1 (protonated)
CC[NH+](CC)CCOc1cncc(CN2CCCC2)c1 (3D coordinates assigned)
CC[NH+](CC)CCOc1cncc(CN2CCCC2)c1 (nonaromatic ring conformer: 51.40103334136466 kcal/mol)

>  <smiles>  (9) 
CCN(CC)CCOc1cncc(CN2CCCC2)c1

>  <score_type>  (9) 
oracle

>  <origin>  (9) 
adg

>  <m_score__min__energy>  (9) 
-5.5899999999999999

>  <m_primary>  (9) 
energy

$$$$
9:0
     RDKit          3D

 52 54  0  0  0  0  0  0  0  0999 V2000
   -3.4850   25.0590  -30.3790 O   0  0  0  0  0  0  0  0  0  0  0  0
   -3.4380   23.8040  -30.4910 C   0  0  0  0  0  0  0  0  0  0  0  0
   -4.6360   23.0710  -31.0320 C   0  0  0  0  0  0  0  0  0  0  0  0
   -5.8810   23.8060  -30.7200 N   0  0  0  0  0  0  0  0  0  0  0  0
   -6.6270   24.1670  -31.9450 C   0  0  0  0  0  0  0  0  0  0  0  0
   -7.1370   22.9180  -32.6870 C   0  0  0  0  0  0  0  0  0  0  0  0
   -7.5400   21.8800  -31.7320 N   0  0  0  0  0  0  0  0  0  0  0  0
   -7.5680   20.4960  -32.1350 C   0  0  0  0  0  0  0  0  0  0  0  0
   -8.5130   19.6110  -31.5860 C   0  0  0  0  0  0  0  0  0  0  0  0
   -8.5250   18.2660  -31.9640 C   0  0  0  0  0  0  0  0  0  0  0  0
   -7.5910   17.7890  -32.8860 C   0  0  0  0  0  0  0  0  0  0  0  0
   -6.6400   18.6560  -33.4320 C   0  0  0  0  0  0  0  0  0  0  0  0
   -5.4650   18.0550  -34.5870 Cl  0  0  0  0  0  0  0  0  0  0  0  0
   -6.6260   20.0040  -33.0550 C   0  0  0  0  0  0  0  0  0  0  0  0
   -7.8840   22.2850  -30.3660 C   0  0  0  0  0  0  0  0  0  0  0  0
   -6.7300   23.0860  -29.7320 C   0  0  0  0  0  0  0  0  0  0  0  0
   -2.2500   23.0990  -30.0900 N   0  0  0  0  0  0  0  0  0  0  0  0
   -1.7840   21.8960  -30.7870 C   0  0  0  0  0  0  0  0  0  0  0  0
   -1.5910   20.7430  -29.7830 C   0  0  0  0  0  0  0  0  0  0  0  0
   -1.1870   21.1900  -28.4200 N   0  0  0  0  0  0  0  0  0  0  0  0
   -2.3090   21.1420  -27.4560 C   0  0  0  0  0  0  0  0  0  0  0  0
   -2.5610   19.7020  -27.0010 C   0  0  0  0  0  0  0  0  0  0  0  0
   -1.3670   18.9680  -27.0270 O   0  0  0  0  0  0  0  0  0  0  0  0
   -0.5200   22.5110  -28.4280 C   0  0  0  0  0  0  0  0  0  0  0  0
   -1.4540   23.6080  -28.9690 C   0  0  0  0  0  0  0  0  0  0  0  0
   -4.5376   22.9735  -32.1232 H   0  0  0  0  0  0  0  0  0  0  0  0
   -4.6845   22.0768  -30.5638 H   0  0  0  0  0  0  0  0  0  0  0  0
   -7.4875   24.7934  -31.6673 H   0  0  0  0  0  0  0  0  0  0  0  0
   -5.9451   24.7108  -32.6153 H   0  0  0  0  0  0  0  0  0  0  0  0
   -8.0022   23.1941  -33.3076 H   0  0  0  0  0  0  0  0  0  0  0  0
   -6.3267   22.5244  -33.3183 H   0  0  0  0  0  0  0  0  0  0  0  0
   -9.2471   19.9799  -30.8546 H   0  0  0  0  0  0  0  0  0  0  0  0
   -9.2715   17.5816  -31.5346 H   0  0  0  0  0  0  0  0  0  0  0  0
   -7.6036   16.7299  -33.1830 H   0  0  0  0  0  0  0  0  0  0  0  0
   -5.8728   20.6828  -33.4815 H   0  0  0  0  0  0  0  0  0  0  0  0
   -8.7879   22.9113  -30.3912 H   0  0  0  0  0  0  0  0  0  0  0  0
   -8.0635   21.3829  -29.7627 H   0  0  0  0  0  0  0  0  0  0  0  0
   -7.1606   23.8259  -29.0412 H   0  0  0  0  0  0  0  0  0  0  0  0
   -6.0800   22.3598  -29.2219 H   0  0  0  0  0  0  0  0  0  0  0  0
   -2.5287   21.6010  -31.5409 H   0  0  0  0  0  0  0  0  0  0  0  0
   -0.8224   22.1128  -31.2752 H   0  0  0  0  0  0  0  0  0  0  0  0
   -2.5403   20.1935  -29.7000 H   0  0  0  0  0  0  0  0  0  0  0  0
   -0.7730   20.1172  -30.1692 H   0  0  0  0  0  0  0  0  0  0  0  0
   -2.0614   21.7605  -26.5807 H   0  0  0  0  0  0  0  0  0  0  0  0
   -3.2164   21.5253  -27.9455 H   0  0  0  0  0  0  0  0  0  0  0  0
   -2.9600   19.7098  -25.9759 H   0  0  0  0  0  0  0  0  0  0  0  0
   -3.2848   19.2324  -27.6833 H   0  0  0  0  0  0  0  0  0  0  0  0
   -0.7110   19.5100  -27.5350 H   0  0  0  0  0  0  0  0  0  0  0  0
   -0.2231   22.7683  -27.4006 H   0  0  0  0  0  0  0  0  0  0  0  0
    0.3602   22.4506  -29.0849 H   0  0  0  0  0  0  0  0  0  0  0  0
   -2.1294   23.9368  -28.1655 H   0  0  0  0  0  0  0  0  0  0  0  0
   -0.8436   24.4526  -29.3212 H   0  0  0  0  0  0  0  0  0  0  0  0
  1  2  2  0
  2  3  1  0
  3  4  1  0
  4  5  1  0
  5  6  1  0
  6  7  1  0
  7  8  1  0
  8  9  2  0
  9 10  1  0
 10 11  2  0
 11 12  1  0
 12 13  1  0
 12 14  2  0
  7 15  1  0
 15 16  1  0
  2 17  1  0
 17 18  1  0
 18 19  1  0
 19 20  1  0
 20 21  1  0
 21 22  1  0
 22 23  1  0
 20 24  1  0
 24 25  1  0
 16  4  1  0
 25 17  1  0
 14  8  1  0
  3 26  1  0
  3 27  1  0
  5 28  1  0
  5 29  1  0
  6 30  1  0
  6 31  1  0
  9 32  1  0
 10 33  1  0
 11 34  1  0
 14 35  1  0
 15 36  1  0
 15 37  1  0
 16 38  1  0
 16 39  1  0
 18 40  1  0
 18 41  1  0
 19 42  1  0
 19 43  1  0
 21 44  1  0
 21 45  1  0
 22 46  1  0
 22 47  1  0
 23 48  1  0
 24 49  1  0
 24 50  1  0
 25 51  1  0
 25 52  1  0
M  END
>  <UniqueID>  (10) 
10

>  <SMILES>  (10) 
O=C(CN1CCN(c2cccc(Cl)c2)CC1)N1CCN(CCO)CC1

>  <Energy>  (10) 
68.58276088586369

>  <Genealogy>  (10) 
O=C(CN1CCN(c2cccc(Cl)c2)CC1)N1CCN(CCO)CC1 (3D coordinates assigned)
O=C(CN1CCN(c2cccc(Cl)c2)CC1)N1CCN(CCO)CC1 (nonaromatic ring conformer: 68.58276088586369 kcal/mol)

>  <smiles>  (10) 
O=C(CN1CCN(c2cccc(Cl)c2)CC1)N1CCN(CCO)CC1

>  <score_type>  (10) 
oracle

>  <origin>  (10) 
adg

>  <m_score__min__energy>  (10) 
-8.2599999999999998

>  <m_primary>  (10) 
energy

$$$$
10:0
     RDKit          3D

 64 67  0  0  0  0  0  0  0  0999 V2000
   -9.1930   21.3800  -31.9320 C   0  0  0  0  0  0  0  0  0  0  0  0
   -9.0300   19.8910  -31.5790 C   0  0  0  0  0  0  0  0  0  0  0  0
   -7.7000   19.3090  -31.9060 N   0  0  0  0  0  0  0  0  0  0  0  0
   -7.6090   17.8560  -31.5890 C   0  0  0  0  0  0  0  0  0  0  0  0
   -6.2450   17.4660  -30.9990 C   0  0  0  0  0  0  0  0  0  0  0  0
   -7.3040   19.5890  -33.3160 C   0  0  0  0  0  0  0  0  0  0  0  0
   -6.4760   18.4450  -33.9490 C   0  0  0  0  0  0  0  0  0  0  0  0
   -5.1660   18.9130  -34.4180 N   0  0  0  0  0  0  0  0  0  0  0  0
   -4.0570   19.1020  -33.5240 C   0  0  0  0  0  0  0  0  0  0  0  0
   -3.1120   18.0760  -33.3570 C   0  0  0  0  0  0  0  0  0  0  0  0
   -3.3440   16.7790  -33.8590 C   0  0  0  0  0  0  0  0  0  0  0  0
   -2.3740   15.7860  -33.7380 C   0  0  0  0  0  0  0  0  0  0  0  0
   -1.1580   16.0700  -33.1230 C   0  0  0  0  0  0  0  0  0  0  0  0
   -0.9030   17.3510  -32.6350 C   0  0  0  0  0  0  0  0  0  0  0  0
   -1.8740   18.3770  -32.7400 C   0  0  0  0  0  0  0  0  0  0  0  0
   -1.6210   19.6570  -32.2920 N   0  0  0  0  0  0  0  0  0  0  0  0
   -0.2150   20.1160  -32.2340 C   0  0  0  0  0  0  0  0  0  0  0  0
   -2.6670   20.5520  -32.1340 C   0  0  0  0  0  0  0  0  0  0  0  0
   -3.8670   20.3290  -32.8600 C   0  0  0  0  0  0  0  0  0  0  0  0
   -4.8510   21.3300  -32.9070 C   0  0  0  0  0  0  0  0  0  0  0  0
   -4.6700   22.5400  -32.2510 C   0  0  0  0  0  0  0  0  0  0  0  0
   -3.5630   22.7400  -31.4180 C   0  0  0  0  0  0  0  0  0  0  0  0
   -3.4480   23.9330  -30.6710 C   0  0  0  0  0  0  0  0  0  0  0  0
   -4.3800   24.9620  -30.8630 O   0  0  0  0  0  0  0  0  0  0  0  0
   -5.5800   25.0630  -30.1010 C   0  0  0  0  0  0  0  0  0  0  0  0
   -2.4330   24.0640  -29.7070 C   0  0  0  0  0  0  0  0  0  0  0  0
   -2.3660   25.2420  -28.9430 O   0  0  0  0  0  0  0  0  0  0  0  0
   -1.9820   25.3000  -27.5720 C   0  0  0  0  0  0  0  0  0  0  0  0
   -1.5480   22.9980  -29.4960 C   0  0  0  0  0  0  0  0  0  0  0  0
   -1.6440   21.8340  -30.2550 C   0  0  0  0  0  0  0  0  0  0  0  0
   -2.5900   21.7130  -31.2930 C   0  0  0  0  0  0  0  0  0  0  0  0
   -9.2577   21.9712  -31.0067 H   0  0  0  0  0  0  0  0  0  0  0  0
   -8.3261   21.7143  -32.5208 H   0  0  0  0  0  0  0  0  0  0  0  0
  -10.1117   21.5188  -32.5208 H   0  0  0  0  0  0  0  0  0  0  0  0
   -9.1960   19.7765  -30.4976 H   0  0  0  0  0  0  0  0  0  0  0  0
   -9.7629   19.3474  -32.1934 H   0  0  0  0  0  0  0  0  0  0  0  0
   -7.0240   19.8040  -31.2830 H   0  0  0  0  0  0  0  0  0  0  0  0
   -8.3934   17.6043  -30.8601 H   0  0  0  0  0  0  0  0  0  0  0  0
   -7.7371   17.3004  -32.5297 H   0  0  0  0  0  0  0  0  0  0  0  0
   -6.3024   17.4824  -29.9006 H   0  0  0  0  0  0  0  0  0  0  0  0
   -5.9749   16.4546  -31.3370 H   0  0  0  0  0  0  0  0  0  0  0  0
   -5.4811   18.1817  -31.3370 H   0  0  0  0  0  0  0  0  0  0  0  0
   -8.2157   19.7345  -33.9140 H   0  0  0  0  0  0  0  0  0  0  0  0
   -6.6709   20.4885  -33.3080 H   0  0  0  0  0  0  0  0  0  0  0  0
   -6.3238   17.6574  -33.1963 H   0  0  0  0  0  0  0  0  0  0  0  0
   -7.0321   18.0613  -34.8171 H   0  0  0  0  0  0  0  0  0  0  0  0
   -5.0620   19.2020  -35.4170 H   0  0  0  0  0  0  0  0  0  0  0  0
   -4.3004   16.5487  -34.3511 H   0  0  0  0  0  0  0  0  0  0  0  0
   -2.5694   14.7765  -34.1289 H   0  0  0  0  0  0  0  0  0  0  0  0
   -0.3968   15.2824  -33.0218 H   0  0  0  0  0  0  0  0  0  0  0  0
    0.0660   17.5679  -32.1617 H   0  0  0  0  0  0  0  0  0  0  0  0
    0.0947   20.2171  -31.1833 H   0  0  0  0  0  0  0  0  0  0  0  0
    0.4313   19.3822  -32.7378 H   0  0  0  0  0  0  0  0  0  0  0  0
   -0.1261   21.0898  -32.7378 H   0  0  0  0  0  0  0  0  0  0  0  0
   -5.7782   21.1527  -33.4716 H   0  0  0  0  0  0  0  0  0  0  0  0
   -5.4030   23.3488  -32.3870 H   0  0  0  0  0  0  0  0  0  0  0  0
   -5.3362   25.0425  -29.0286 H   0  0  0  0  0  0  0  0  0  0  0  0
   -6.0897   26.0072  -30.3431 H   0  0  0  0  0  0  0  0  0  0  0  0
   -6.2404   24.2173  -30.3431 H   0  0  0  0  0  0  0  0  0  0  0  0
   -2.8698   25.1659  -26.9366 H   0  0  0  0  0  0  0  0  0  0  0  0
   -1.2557   24.5014  -27.3605 H   0  0  0  0  0  0  0  0  0  0  0  0
   -1.5240   26.2775  -27.3605 H   0  0  0  0  0  0  0  0  0  0  0  0
   -0.7697   23.0814  -28.7232 H   0  0  0  0  0  0  0  0  0  0  0  0
   -0.9685   20.9929  -30.0402 H   0  0  0  0  0  0  0  0  0  0  0  0
  1  2  1  0
  2  3  1  0
  3  4  1  0
  4  5  1  0
  3  6  1  0
  6  7  1  0
  7  8  1  0
  8  9  1  0
  9 10  2  0
 10 11  1  0
 11 12  2  0
 12 13  1  0
 13 14  2  0
 14 15  1  0
 15 16  2  0
 16 17  1  0
 16 18  1  0
 18 19  2  0
 19 20  1  0
 20 21  2  0
 21 22  1  0
 22 23  2  0
 23 24  1  0
 24 25  1  0
 23 26  1  0
 26 27  1  0
 27 28  1  0
 26 29  2  0
 29 30  1  0
 30 31  2  0
 19  9  1  0
 31 22  1  0
 15 10  1  0
 31 18  1  0
  1 32  1  0
  1 33  1  0
  1 34  1  0
  2 35  1  0
  2 36  1  0
  3 37  1  0
  4 38  1  0
  4 39  1  0
  5 40  1  0
  5 41  1  0
  5 42  1  0
  6 43  1  0
  6 44  1  0
  7 45  1  0
  7 46  1  0
  8 47  1  0
 11 48  1  0
 12 49  1  0
 13 50  1  0
 14 51  1  0
 17 52  1  0
 17 53  1  0
 17 54  1  0
 20 55  1  0
 21 56  1  0
 25 57  1  0
 25 58  1  0
 25 59  1  0
 28 60  1  0
 28 61  1  0
 28 62  1  0
 29 63  1  0
 30 64  1  0
M  CHG  2   3   1  16   1
M  END
>  <UniqueID>  (11) 
11

>  <SMILES>  (11) 
CC[NH+](CC)CCNc1c2ccccc2[n+](C)c2c1ccc1c(OC)c(OC)ccc12

>  <Energy>  (11) 
116.32443089097032

>  <Genealogy>  (11) 
CC[NH+](CC)CCNc1c2ccccc2[n+](C)c2c1ccc1c(OC)c(OC)ccc12 (protonated)
CC[NH+](CC)CCNc1c2ccccc2[n+](C)c2c1ccc1c(OC)c(OC)ccc12 (3D coordinates assigned)
CC[NH+](CC)CCNc1c2ccccc2[n+](C)c2c1ccc1c(OC)c(OC)ccc12 (optimized conformer: 116.32443089097032 kcal/mol)

>  <smiles>  (11) 
CCN(CC)CCNc1c2ccccc2[n+](C)c2c1ccc1c(OC)c(OC)ccc12

>  <score_type>  (11) 
oracle

>  <origin>  (11) 
adg

>  <m_score__min__energy>  (11) 
-8.1600000000000001

>  <m_primary>  (11) 
energy

$$$$
11:0
     RDKit          3D

 58 59  0  0  0  0  0  0  0  0999 V2000
   -3.6870   21.8030  -33.0980 C   0  0  0  0  0  0  0  0  0  0  0  0
   -4.1240   21.8420  -31.6900 N   0  0  0  0  0  0  0  0  0  0  0  0
   -4.6610   20.5340  -31.2670 C   0  0  0  0  0  0  0  0  0  0  0  0
   -3.0750   22.3630  -30.7750 C   0  0  0  0  0  0  0  0  0  0  0  0
   -3.3870   23.7260  -30.1150 C   0  0  0  0  0  0  0  0  0  0  0  0
   -4.2550   24.5080  -30.9180 O   0  0  0  0  0  0  0  0  0  0  0  0
   -5.5340   24.6410  -30.3260 C   0  0  0  0  0  0  0  0  0  0  0  0
   -6.6230   24.1700  -31.3000 C   0  0  0  0  0  0  0  0  0  0  0  0
   -6.9630   22.8140  -31.0720 O   0  0  0  0  0  0  0  0  0  0  0  0
   -8.3560   22.6070  -31.2200 C   0  0  0  0  0  0  0  0  0  0  0  0
   -8.6980   21.1330  -30.9260 C   0  0  0  0  0  0  0  0  0  0  0  0
   -7.8900   20.1390  -31.6720 N   0  0  0  0  0  0  0  0  0  0  0  0
   -8.4000   18.7690  -31.5640 C   0  0  0  0  0  0  0  0  0  0  0  0
   -7.3530   17.7710  -32.0710 C   0  0  0  0  0  0  0  0  0  0  0  0
   -6.5460   18.2430  -33.2230 N   0  0  0  0  0  0  0  0  0  0  0  0
   -5.5690   17.3330  -33.8230 C   0  0  0  0  0  0  0  0  0  0  0  0
   -4.5170   17.8180  -34.6390 C   0  0  0  0  0  0  0  0  0  0  0  0
   -3.5930   16.9470  -35.2210 C   0  0  0  0  0  0  0  0  0  0  0  0
   -3.6910   15.5620  -35.0210 C   0  0  0  0  0  0  0  0  0  0  0  0
   -2.6670   14.6260  -35.6130 C   0  0  0  0  0  0  0  0  0  0  0  0
   -3.0770   14.2400  -36.8770 F   0  0  0  0  0  0  0  0  0  0  0  0
   -2.5180   13.4980  -34.8250 F   0  0  0  0  0  0  0  0  0  0  0  0
   -1.4360   15.2530  -35.7090 F   0  0  0  0  0  0  0  0  0  0  0  0
   -4.6990   15.0690  -34.1820 C   0  0  0  0  0  0  0  0  0  0  0  0
   -5.6270   15.9350  -33.5980 C   0  0  0  0  0  0  0  0  0  0  0  0
   -6.5860   19.6510  -33.6840 C   0  0  0  0  0  0  0  0  0  0  0  0
   -7.7270   20.4750  -33.0910 C   0  0  0  0  0  0  0  0  0  0  0  0
   -2.5921   21.7053  -33.1395 H   0  0  0  0  0  0  0  0  0  0  0  0
   -4.1513   20.9427  -33.6023 H   0  0  0  0  0  0  0  0  0  0  0  0
   -3.9916   22.7319  -33.6023 H   0  0  0  0  0  0  0  0  0  0  0  0
   -4.9190   22.5250  -31.6380 H   0  0  0  0  0  0  0  0  0  0  0  0
   -4.6815   20.4840  -30.1683 H   0  0  0  0  0  0  0  0  0  0  0  0
   -5.6817   20.4127  -31.6587 H   0  0  0  0  0  0  0  0  0  0  0  0
   -4.0200   19.7304  -31.6587 H   0  0  0  0  0  0  0  0  0  0  0  0
   -2.9264   21.6242  -29.9737 H   0  0  0  0  0  0  0  0  0  0  0  0
   -2.1832   22.5254  -31.3981 H   0  0  0  0  0  0  0  0  0  0  0  0
   -3.8649   23.5495  -29.1401 H   0  0  0  0  0  0  0  0  0  0  0  0
   -2.4413   24.2749  -29.9953 H   0  0  0  0  0  0  0  0  0  0  0  0
   -5.5760   24.0307  -29.4118 H   0  0  0  0  0  0  0  0  0  0  0  0
   -5.7066   25.6993  -30.0806 H   0  0  0  0  0  0  0  0  0  0  0  0
   -7.5197   24.7924  -31.1638 H   0  0  0  0  0  0  0  0  0  0  0  0
   -6.2372   24.2644  -32.3258 H   0  0  0  0  0  0  0  0  0  0  0  0
   -8.8985   23.2553  -30.5162 H   0  0  0  0  0  0  0  0  0  0  0  0
   -8.6522   22.8503  -32.2510 H   0  0  0  0  0  0  0  0  0  0  0  0
   -8.5478   20.9563  -29.8507 H   0  0  0  0  0  0  0  0  0  0  0  0
   -9.7385   20.9890  -31.2525 H   0  0  0  0  0  0  0  0  0  0  0  0
   -8.6308   18.5495  -30.5111 H   0  0  0  0  0  0  0  0  0  0  0  0
   -9.3093   18.6760  -32.1760 H   0  0  0  0  0  0  0  0  0  0  0  0
   -6.6660   17.5459  -31.2420 H   0  0  0  0  0  0  0  0  0  0  0  0
   -7.9112   16.8918  -32.4251 H   0  0  0  0  0  0  0  0  0  0  0  0
   -4.4264   18.8997  -34.8173 H   0  0  0  0  0  0  0  0  0  0  0  0
   -2.7803   17.3512  -35.8424 H   0  0  0  0  0  0  0  0  0  0  0  0
   -4.7604   13.9893  -33.9810 H   0  0  0  0  0  0  0  0  0  0  0  0
   -6.4169   15.5243  -32.9519 H   0  0  0  0  0  0  0  0  0  0  0  0
   -5.6353   20.1308  -33.4083 H   0  0  0  0  0  0  0  0  0  0  0  0
   -6.7510   19.6216  -34.7712 H   0  0  0  0  0  0  0  0  0  0  0  0
   -7.4951   21.5458  -33.1895 H   0  0  0  0  0  0  0  0  0  0  0  0
   -8.6592   20.2494  -33.6296 H   0  0  0  0  0  0  0  0  0  0  0  0
  1  2  1  0
  2  3  1  0
  2  4  1  0
  4  5  1  0
  5  6  1  0
  6  7  1  0
  7  8  1  0
  8  9  1  0
  9 10  1  0
 10 11  1  0
 11 12  1  0
 12 13  1  0
 13 14  1  0
 14 15  1  0
 15 16  1  0
 16 17  2  0
 17 18  1  0
 18 19  2  0
 19 20  1  0
 20 21  1  0
 20 22  1  0
 20 23  1  0
 19 24  1  0
 24 25  2  0
 15 26  1  0
 26 27  1  0
 27 12  1  0
 25 16  1  0
  1 28  1  0
  1 29  1  0
  1 30  1  0
  2 31  1  0
  3 32  1  0
  3 33  1  0
  3 34  1  0
  4 35  1  0
  4 36  1  0
  5 37  1  0
  5 38  1  0
  7 39  1  0
  7 40  1  0
  8 41  1  0
  8 42  1  0
 10 43  1  0
 10 44  1  0
 11 45  1  0
 11 46  1  0
 13 47  1  0
 13 48  1  0
 14 49  1  0
 14 50  1  0
 17 51  1  0
 18 52  1  0
 24 53  1  0
 25 54  1  0
 26 55  1  0
 26 56  1  0
 27 57  1  0
 27 58  1  0
M  CHG  1   2   1
M  END
>  <UniqueID>  (12) 
12

>  <SMILES>  (12) 
C[NH+](C)CCOCCOCCN1CCN(c2ccc(C(F)(F)F)cc2)CC1

>  <Energy>  (12) 
74.62347947947393

>  <Genealogy>  (12) 
C[NH+](C)CCOCCOCCN1CCN(c2ccc(C(F)(F)F)cc2)CC1 (protonated)
C[NH+](C)CCOCCOCCN1CCN(c2ccc(C(F)(F)F)cc2)CC1 (3D coordinates assigned)
C[NH+](C)CCOCCOCCN1CCN(c2ccc(C(F)(F)F)cc2)CC1 (nonaromatic ring conformer: 74.62347947947393 kcal/mol)

>  <smiles>  (12) 
CN(C)CCOCCOCCN1CCN(c2ccc(C(F)(F)F)cc2)CC1

>  <score_type>  (12) 
oracle

>  <origin>  (12) 
adg

>  <m_score__min__energy>  (12) 
-7.21

>  <m_primary>  (12) 
energy

$$$$
12:0
     RDKit          3D

 38 38  0  0  0  0  0  0  0  0999 V2000
   -5.3110   17.8590  -34.9660 C   0  0  0  0  0  0  0  0  0  0  0  0
   -6.3320   17.6250  -33.8450 C   0  0  0  0  0  0  0  0  0  0  0  0
   -6.8700   18.8960  -33.2880 N   0  0  0  0  0  0  0  0  0  0  0  0
   -5.8960   20.0090  -33.4680 C   0  0  0  0  0  0  0  0  0  0  0  0
   -5.2020   20.4630  -32.1750 C   0  0  0  0  0  0  0  0  0  0  0  0
   -7.3100   18.7140  -31.8780 C   0  0  0  0  0  0  0  0  0  0  0  0
   -8.7520   19.1910  -31.6300 C   0  0  0  0  0  0  0  0  0  0  0  0
   -9.1020   20.2430  -32.5930 N   0  0  0  0  0  0  0  0  0  0  0  0
   -9.5070   21.4900  -31.9250 C   0  0  0  0  0  0  0  0  0  0  0  0
   -8.3190   22.3070  -31.4760 C   0  0  0  0  0  0  0  0  0  0  0  0
   -7.8960   22.2690  -30.1370 C   0  0  0  0  0  0  0  0  0  0  0  0
   -6.7780   23.0050  -29.7300 C   0  0  0  0  0  0  0  0  0  0  0  0
   -6.0720   23.7800  -30.6580 C   0  0  0  0  0  0  0  0  0  0  0  0
   -4.5450   24.7820  -30.1020 Br  0  0  0  0  0  0  0  0  0  0  0  0
   -6.4850   23.8160  -31.9930 C   0  0  0  0  0  0  0  0  0  0  0  0
   -7.6020   23.0800  -32.4030 C   0  0  0  0  0  0  0  0  0  0  0  0
   -4.3284   18.0842  -34.5258 H   0  0  0  0  0  0  0  0  0  0  0  0
   -5.2357   16.9548  -35.5879 H   0  0  0  0  0  0  0  0  0  0  0  0
   -5.6369   18.7057  -35.5879 H   0  0  0  0  0  0  0  0  0  0  0  0
   -7.1683   17.0346  -34.2475 H   0  0  0  0  0  0  0  0  0  0  0  0
   -5.8172   17.0950  -33.0301 H   0  0  0  0  0  0  0  0  0  0  0  0
   -7.7140   19.1610  -33.8500 H   0  0  0  0  0  0  0  0  0  0  0  0
   -5.1217   19.6770  -34.1753 H   0  0  0  0  0  0  0  0  0  0  0  0
   -6.4712   20.8722  -33.8342 H   0  0  0  0  0  0  0  0  0  0  0  0
   -5.7669   20.0935  -31.3065 H   0  0  0  0  0  0  0  0  0  0  0  0
   -4.1794   20.0587  -32.1463 H   0  0  0  0  0  0  0  0  0  0  0  0
   -5.1628   21.5619  -32.1463 H   0  0  0  0  0  0  0  0  0  0  0  0
   -7.2466   17.6450  -31.6265 H   0  0  0  0  0  0  0  0  0  0  0  0
   -6.6488   19.3252  -31.2462 H   0  0  0  0  0  0  0  0  0  0  0  0
   -9.4424   18.3430  -31.7490 H   0  0  0  0  0  0  0  0  0  0  0  0
   -8.8303   19.5932  -30.6092 H   0  0  0  0  0  0  0  0  0  0  0  0
   -8.2730   20.4370  -33.2040 H   0  0  0  0  0  0  0  0  0  0  0  0
  -10.1050   22.0900  -32.6267 H   0  0  0  0  0  0  0  0  0  0  0  0
  -10.0898   21.2213  -31.0316 H   0  0  0  0  0  0  0  0  0  0  0  0
   -8.4458   21.6583  -29.4058 H   0  0  0  0  0  0  0  0  0  0  0  0
   -6.4532   22.9748  -28.6795 H   0  0  0  0  0  0  0  0  0  0  0  0
   -5.9306   24.4243  -32.7228 H   0  0  0  0  0  0  0  0  0  0  0  0
   -7.9197   23.1071  -33.4558 H   0  0  0  0  0  0  0  0  0  0  0  0
  1  2  1  0
  2  3  1  0
  3  4  1  0
  4  5  1  0
  3  6  1  0
  6  7  1  0
  7  8  1  0
  8  9  1  0
  9 10  1  0
 10 11  2  0
 11 12  1  0
 12 13  2  0
 13 14  1  0
 13 15  1  0
 15 16  2  0
 16 10  1  0
  1 17  1  0
  1 18  1  0
  1 19  1  0
  2 20  1  0
  2 21  1  0
  3 22  1  0
  4 23  1  0
  4 24  1  0
  5 25  1  0
  5 26  1  0
  5 27  1  0
  6 28  1  0
  6 29  1  0
  7 30  1  0
  7 31  1  0
  8 32  1  0
  9 33  1  0
  9 34  1  0
 11 35  1  0
 12 36  1  0
 15 37  1  0
 16 38  1  0
M  CHG  1   3   1
M  END
>  <UniqueID>  (13) 
13

>  <SMILES>  (13) 
CC[NH+](CC)CCNCc1ccc(Br)cc1

>  <Energy>  (13) 
36.37963324836726

>  <Genealogy>  (13) 
CC[NH+](CC)CCNCc1ccc(Br)cc1 (protonated)
CC[NH+](CC)CCNCc1ccc(Br)cc1 (3D coordinates assigned)
CC[NH+](CC)CCNCc1ccc(Br)cc1 (optimized conformer: 36.37963324836726 kcal/mol)

>  <smiles>  (13) 
CCN(CC)CCNCc1ccc(Br)cc1

>  <score_type>  (13) 
oracle

>  <origin>  (13) 
adg

>  <m_score__min__energy>  (13) 
-5.8399999999999999

>  <m_primary>  (13) 
energy

$$$$
13:0
     RDKit          3D

 44 45  0  0  0  0  0  0  0  0999 V2000
   -4.6540   15.2860  -34.5990 C   0  0  0  0  0  0  0  0  0  0  0  0
   -4.1040   15.9640  -33.4730 O   0  0  0  0  0  0  0  0  0  0  0  0
   -3.3620   17.1470  -33.5850 C   0  0  0  0  0  0  0  0  0  0  0  0
   -2.0810   17.1640  -34.1780 C   0  0  0  0  0  0  0  0  0  0  0  0
   -1.3170   15.6160  -35.0060 Br  0  0  0  0  0  0  0  0  0  0  0  0
   -1.3600   18.3600  -34.2480 C   0  0  0  0  0  0  0  0  0  0  0  0
   -1.9050   19.5440  -33.7490 C   0  0  0  0  0  0  0  0  0  0  0  0
   -0.9090   21.1710  -33.8490 Br  0  0  0  0  0  0  0  0  0  0  0  0
   -3.1840   19.5440  -33.1910 C   0  0  0  0  0  0  0  0  0  0  0  0
   -3.9260   18.3540  -33.1140 C   0  0  0  0  0  0  0  0  0  0  0  0
   -5.3050   18.3770  -32.4880 C   0  0  0  0  0  0  0  0  0  0  0  0
   -6.3380   17.8680  -33.4010 N   0  0  0  0  0  0  0  0  0  0  0  0
   -7.6220   17.6590  -32.7190 C   0  0  0  0  0  0  0  0  0  0  0  0
   -8.2340   19.0030  -32.3210 C   0  0  0  0  0  0  0  0  0  0  0  0
   -7.6340   20.0920  -33.0920 N   0  0  0  0  0  0  0  0  0  0  0  0
   -7.0350   21.2150  -32.4330 C   0  0  0  0  0  0  0  0  0  0  0  0
   -5.6970   21.5330  -32.7050 C   0  0  0  0  0  0  0  0  0  0  0  0
   -5.0850   22.6220  -32.0770 C   0  0  0  0  0  0  0  0  0  0  0  0
   -5.8070   23.4100  -31.1750 C   0  0  0  0  0  0  0  0  0  0  0  0
   -5.0510   24.7940  -30.3890 S   0  0  0  0  0  0  0  0  0  0  0  0
   -5.1960   24.6390  -28.6740 N   0  0  0  0  0  0  0  0  0  0  0  0
   -3.5990   24.8530  -30.7680 O   0  0  0  0  0  0  0  0  0  0  0  0
   -5.7170   26.0660  -30.8320 O   0  0  0  0  0  0  0  0  0  0  0  0
   -7.1540   23.1160  -30.9220 C   0  0  0  0  0  0  0  0  0  0  0  0
   -7.7730   22.0280  -31.5490 C   0  0  0  0  0  0  0  0  0  0  0  0
   -9.4870   21.7620  -31.2640 Cl  0  0  0  0  0  0  0  0  0  0  0  0
   -5.3119   14.4750  -34.2533 H   0  0  0  0  0  0  0  0  0  0  0  0
   -5.2349   15.9956  -35.2065 H   0  0  0  0  0  0  0  0  0  0  0  0
   -3.8399   14.8639  -35.2065 H   0  0  0  0  0  0  0  0  0  0  0  0
   -0.3568   18.3678  -34.6992 H   0  0  0  0  0  0  0  0  0  0  0  0
   -3.6137   20.4818  -32.8091 H   0  0  0  0  0  0  0  0  0  0  0  0
   -5.2935   17.7523  -31.5827 H   0  0  0  0  0  0  0  0  0  0  0  0
   -5.5503   19.4226  -32.2500 H   0  0  0  0  0  0  0  0  0  0  0  0
   -6.0210   16.9570  -33.8070 H   0  0  0  0  0  0  0  0  0  0  0  0
   -8.3111   17.1321  -33.3954 H   0  0  0  0  0  0  0  0  0  0  0  0
   -7.4533   17.0591  -31.8125 H   0  0  0  0  0  0  0  0  0  0  0  0
   -9.3168   18.9780  -32.5134 H   0  0  0  0  0  0  0  0  0  0  0  0
   -8.0406   19.1775  -31.2523 H   0  0  0  0  0  0  0  0  0  0  0  0
   -7.2660   19.8470  -34.0400 H   0  0  0  0  0  0  0  0  0  0  0  0
   -5.1244   20.9213  -33.4177 H   0  0  0  0  0  0  0  0  0  0  0  0
   -4.0329   22.8596  -32.2929 H   0  0  0  0  0  0  0  0  0  0  0  0
   -4.9270   25.5610  -28.2610 H   0  0  0  0  0  0  0  0  0  0  0  0
   -6.2100   24.5010  -28.4660 H   0  0  0  0  0  0  0  0  0  0  0  0
   -7.7288   23.7446  -30.2259 H   0  0  0  0  0  0  0  0  0  0  0  0
  1  2  1  0
  2  3  1  0
  3  4  2  0
  4  5  1  0
  4  6  1  0
  6  7  2  0
  7  8  1  0
  7  9  1  0
  9 10  2  0
 10 11  1  0
 11 12  1  0
 12 13  1  0
 13 14  1  0
 14 15  1  0
 15 16  1  0
 16 17  2  0
 17 18  1  0
 18 19  2  0
 19 20  1  0
 20 21  1  0
 20 22  2  0
 20 23  2  0
 19 24  1  0
 24 25  2  0
 25 26  1  0
 10  3  1  0
 25 16  1  0
  1 27  1  0
  1 28  1  0
  1 29  1  0
  6 30  1  0
  9 31  1  0
 11 32  1  0
 11 33  1  0
 12 34  1  0
 13 35  1  0
 13 36  1  0
 14 37  1  0
 14 38  1  0
 15 39  1  0
 17 40  1  0
 18 41  1  0
 21 42  1  0
 21 43  1  0
 24 44  1  0
M  END
>  <UniqueID>  (14) 
14

>  <SMILES>  (14) 
COc1c(Br)cc(Br)cc1CNCCNc1ccc(S(N)(=O)=O)cc1Cl

>  <Energy>  (14) 
51.63425136833358

>  <Genealogy>  (14) 
COc1c(Br)cc(Br)cc1CNCCNc1ccc(S(N)(=O)=O)cc1Cl (3D coordinates assigned)
COc1c(Br)cc(Br)cc1CNCCNc1ccc(S(N)(=O)=O)cc1Cl (optimized conformer: 51.63425136833358 kcal/mol)

>  <smiles>  (14) 
COc1c(Br)cc(Br)cc1CNCCNc1ccc(S(N)(=O)=O)cc1Cl

>  <score_type>  (14) 
oracle

>  <origin>  (14) 
adg

>  <m_score__min__energy>  (14) 
-9.6500000000000004

>  <m_primary>  (14) 
energy

$$$$
14:0
     RDKit          3D

 59 63  0  0  0  0  0  0  0  0999 V2000
   -4.1511   16.6302  -34.5015 H   0  0  0  0  0  0  0  0  0  0  0  0
   -3.5030   17.5030  -34.3340 C   0  0  0  0  0  0  0  0  0  0  0  0
   -2.1780   17.5490  -34.5730 N   0  0  0  0  0  0  0  0  0  0  0  0
   -1.7480   18.7600  -34.2510 N   0  0  0  0  0  0  0  0  0  0  0  0
   -0.3510   19.1830  -34.3970 C   0  0  0  0  0  0  0  0  0  0  0  0
    0.2845   18.2852  -34.4036 H   0  0  0  0  0  0  0  0  0  0  0  0
   -0.1190   19.8980  -35.7500 C   0  0  0  0  0  0  0  0  0  0  0  0
   -0.9500   19.6515  -36.4272 H   0  0  0  0  0  0  0  0  0  0  0  0
    0.8443   19.5514  -36.1524 H   0  0  0  0  0  0  0  0  0  0  0  0
   -0.0420   21.4270  -35.5980 C   0  0  0  0  0  0  0  0  0  0  0  0
   -1.0185   21.7934  -35.2484 H   0  0  0  0  0  0  0  0  0  0  0  0
    0.2260   21.8406  -36.5814 H   0  0  0  0  0  0  0  0  0  0  0  0
    1.0030   21.8680  -34.6320 N   0  0  0  0  0  0  0  0  0  0  0  0
    2.2350   22.3260  -35.3070 C   0  0  0  0  0  0  0  0  0  0  0  0
    2.5083   21.6039  -36.0905 H   0  0  0  0  0  0  0  0  0  0  0  0
    3.0414   22.4014  -34.5627 H   0  0  0  0  0  0  0  0  0  0  0  0
    2.0190   23.6970  -35.9410 C   0  0  0  0  0  0  0  0  0  0  0  0
    1.9000   24.4521  -35.1500 H   0  0  0  0  0  0  0  0  0  0  0  0
    2.8878   23.9534  -36.5650 H   0  0  0  0  0  0  0  0  0  0  0  0
    1.1134   23.6738  -36.5650 H   0  0  0  0  0  0  0  0  0  0  0  0
    1.3140   20.8780  -33.5720 C   0  0  0  0  0  0  0  0  0  0  0  0
    1.6686   21.4131  -32.6787 H   0  0  0  0  0  0  0  0  0  0  0  0
    2.0857   20.1961  -33.9586 H   0  0  0  0  0  0  0  0  0  0  0  0
    0.0890   20.0420  -33.1940 C   0  0  0  0  0  0  0  0  0  0  0  0
   -0.7340   20.7114  -32.9033 H   0  0  0  0  0  0  0  0  0  0  0  0
    0.3462   19.3822  -32.3523 H   0  0  0  0  0  0  0  0  0  0  0  0
   -2.7820   19.5080  -33.8150 C   0  0  0  0  0  0  0  0  0  0  0  0
   -2.7276   20.5581  -33.4921 H   0  0  0  0  0  0  0  0  0  0  0  0
   -3.9190   18.7290  -33.8440 C   0  0  0  0  0  0  0  0  0  0  0  0
   -5.2860   19.1620  -33.5050 C   0  0  0  0  0  0  0  0  0  0  0  0
   -6.4620   18.4930  -33.8440 C   0  0  0  0  0  0  0  0  0  0  0  0
   -6.5048   17.5623  -34.4288 H   0  0  0  0  0  0  0  0  0  0  0  0
   -7.5430   19.1440  -33.3560 N   0  0  0  0  0  0  0  0  0  0  0  0
   -8.5430   18.8650  -33.4630 H   0  0  0  0  0  0  0  0  0  0  0  0
   -7.0650   20.2260  -32.7200 C   0  0  0  0  0  0  0  0  0  0  0  0
   -7.7880   21.2260  -32.0810 C   0  0  0  0  0  0  0  0  0  0  0  0
   -8.8852   21.1841  -32.0145 H   0  0  0  0  0  0  0  0  0  0  0  0
   -7.0630   22.2930  -31.5230 C   0  0  0  0  0  0  0  0  0  0  0  0
   -7.5922   23.1009  -30.9965 H   0  0  0  0  0  0  0  0  0  0  0  0
   -5.6510   22.3290  -31.6380 C   0  0  0  0  0  0  0  0  0  0  0  0
   -4.8980   23.4640  -31.0710 C   0  0  0  0  0  0  0  0  0  0  0  0
   -5.2190   24.7620  -31.2580 N   0  0  0  0  0  0  0  0  0  0  0  0
   -4.3160   25.4720  -30.5980 N   0  0  0  0  0  0  0  0  0  0  0  0
   -3.4830   24.5770  -30.0410 C   0  0  0  0  0  0  0  0  0  0  0  0
   -2.4630   24.9100  -29.3120 N   0  0  0  0  0  0  0  0  0  0  0  0
   -2.2730   24.4710  -27.9280 C   0  0  0  0  0  0  0  0  0  0  0  0
   -1.7413   23.5081  -27.9175 H   0  0  0  0  0  0  0  0  0  0  0  0
   -1.4270   25.4900  -27.1580 C   0  0  0  0  0  0  0  0  0  0  0  0
   -1.5575   25.3328  -26.0771 H   0  0  0  0  0  0  0  0  0  0  0  0
   -0.3670   25.3607  -27.4220 H   0  0  0  0  0  0  0  0  0  0  0  0
   -1.7491   26.5081  -27.4220 H   0  0  0  0  0  0  0  0  0  0  0  0
   -3.6400   24.3030  -27.2660 C   0  0  0  0  0  0  0  0  0  0  0  0
   -3.5221   24.3175  -26.1724 H   0  0  0  0  0  0  0  0  0  0  0  0
   -4.3005   25.1267  -27.5745 H   0  0  0  0  0  0  0  0  0  0  0  0
   -4.0814   23.3438  -27.5745 H   0  0  0  0  0  0  0  0  0  0  0  0
   -3.8270   23.3440  -30.3210 O   0  0  0  0  0  0  0  0  0  0  0  0
   -4.9880   21.3150  -32.2860 N   0  0  0  0  0  0  0  0  0  0  0  0
   -3.9550   21.3580  -32.4110 H   0  0  0  0  0  0  0  0  0  0  0  0
   -5.7020   20.2740  -32.7920 C   0  0  0  0  0  0  0  0  0  0  0  0
  1  2  1  0
  2  3  2  0
  3  4  1  0
  4  5  1  0
  5  6  1  0
  5  7  1  0
  7  8  1  0
  7  9  1  0
  7 10  1  0
 10 11  1  0
 10 12  1  0
 10 13  1  0
 13 14  1  0
 14 15  1  0
 14 16  1  0
 14 17  1  0
 17 18  1  0
 17 19  1  0
 17 20  1  0
 13 21  1  0
 21 22  1  0
 21 23  1  0
 21 24  1  0
 24 25  1  0
 24 26  1  0
  4 27  1  0
 27 28  1  0
 27 29  2  0
 29 30  1  0
 30 31  2  0
 31 32  1  0
 31 33  1  0
 33 34  1  0
 33 35  1  0
 35 36  2  0
 36 37  1  0
 36 38  1  0
 38 39  1  0
 38 40  2  0
 40 41  1  0
 41 42  2  0
 42 43  1  0
 43 44  1  0
 44 45  2  0
 45 46  1  0
 46 47  1  0
 46 48  1  0
 48 49  1  0
 48 50  1  0
 48 51  1  0
 46 52  1  0
 52 53  1  0
 52 54  1  0
 52 55  1  0
 44 56  1  0
 40 57  1  0
 57 58  1  0
 57 59  2  0
 29  2  1  0
 59 30  1  0
 24  5  1  0
 59 35  1  0
 56 41  1  0
M  CHG  2  43  -1  57   1
M  END
>  <UniqueID>  (15) 
15

>  <SMILES>  (15) 
CCN1CCC(n2cc(-c3c[nH]c4ccc(-c5n[n-]/c(=N/C(C)C)o5)[nH+]c34)cn2)CC1

>  <Energy>  (15) 
166.8278859888808

>  <Genealogy>  (15) 
CCN1CCC(n2cc(-c3c[nH]c4ccc(-c5n[n-]c(=NC(C)C)o5)[nH+]c34)cn2)CC1 (protonated)
CCN1CCC(n2cc(-c3c[nH]c4ccc(-c5n[n-]/c(=N/C(C)C)o5)[nH+]c34)cn2)CC1 (cis-trans isomerization)
CCN1CCC(n2cc(-c3c[nH]c4ccc(-c5n[n-]/c(=N/C(C)C)o5)[nH+]c34)cn2)CC1 (3D coordinates assigned)
CCN1CCC(n2cc(-c3c[nH]c4ccc(-c5n[n-]/c(=N/C(C)C)o5)[nH+]c34)cn2)CC1 (nonaromatic ring conformer: 166.8278859888808 kcal/mol)

>  <smiles>  (15) 
CCN1CCC(n2cc(-c3c[nH]c4ccc(-c5n[nH]c(=NC(C)C)o5)nc34)cn2)CC1

>  <score_type>  (15) 
oracle

>  <origin>  (15) 
adg

>  <m_score__min__energy>  (15) 
-10.539999999999999

>  <m_primary>  (15) 
energy

$$$$
15:0
     RDKit          3D

 37 39  0  0  0  0  0  0  0  0999 V2000
   -6.4250   17.9560  -33.2090 C   0  0  0  0  0  0  0  0  0  0  0  0
   -6.1060   19.3830  -32.9790 N   0  0  0  0  0  0  0  0  0  0  0  0
   -4.8100   19.8380  -33.1400 C   0  0  0  0  0  0  0  0  0  0  0  0
   -3.8240   19.0620  -33.8010 C   0  0  0  0  0  0  0  0  0  0  0  0
   -2.5150   19.5240  -33.9350 C   0  0  0  0  0  0  0  0  0  0  0  0
   -2.1590   20.7730  -33.4380 C   0  0  0  0  0  0  0  0  0  0  0  0
   -3.1140   21.5740  -32.8150 C   0  0  0  0  0  0  0  0  0  0  0  0
   -4.4420   21.1230  -32.6610 C   0  0  0  0  0  0  0  0  0  0  0  0
   -5.4150   21.9450  -32.0670 C   0  0  0  0  0  0  0  0  0  0  0  0
   -5.0490   23.2090  -31.4890 N   0  0  0  0  0  0  0  0  0  0  0  0
   -5.3310   23.5250  -30.0900 C   0  0  0  0  0  0  0  0  0  0  0  0
   -5.2830   25.0350  -29.8550 C   0  0  0  0  0  0  0  0  0  0  0  0
   -4.3720   25.6640  -30.8060 N   0  0  0  0  0  0  0  0  0  0  0  0
   -6.7620   21.5470  -32.0940 C   0  0  0  0  0  0  0  0  0  0  0  0
   -7.7800   22.4110  -31.6360 C   0  0  0  0  0  0  0  0  0  0  0  0
   -9.1180   22.0300  -31.6960 C   0  0  0  0  0  0  0  0  0  0  0  0
   -9.4650   20.7920  -32.2250 C   0  0  0  0  0  0  0  0  0  0  0  0
   -8.4760   19.9160  -32.6730 C   0  0  0  0  0  0  0  0  0  0  0  0
   -7.1020   20.2590  -32.5870 C   0  0  0  0  0  0  0  0  0  0  0  0
   -6.5392   17.4452  -32.2415 H   0  0  0  0  0  0  0  0  0  0  0  0
   -7.3630   17.8771  -33.7782 H   0  0  0  0  0  0  0  0  0  0  0  0
   -5.6099   17.4852  -33.7782 H   0  0  0  0  0  0  0  0  0  0  0  0
   -4.0961   18.0798  -34.2147 H   0  0  0  0  0  0  0  0  0  0  0  0
   -1.7615   18.8982  -34.4356 H   0  0  0  0  0  0  0  0  0  0  0  0
   -1.1229   21.1289  -33.5367 H   0  0  0  0  0  0  0  0  0  0  0  0
   -2.8296   22.5680  -32.4394 H   0  0  0  0  0  0  0  0  0  0  0  0
   -4.6170   23.9390  -32.1000 H   0  0  0  0  0  0  0  0  0  0  0  0
   -6.3324   23.1511  -29.8305 H   0  0  0  0  0  0  0  0  0  0  0  0
   -4.5682   23.0452  -29.4591 H   0  0  0  0  0  0  0  0  0  0  0  0
   -6.2912   25.4553  -29.9851 H   0  0  0  0  0  0  0  0  0  0  0  0
   -4.9248   25.2282  -28.8330 H   0  0  0  0  0  0  0  0  0  0  0  0
   -4.9520   26.1170  -31.5490 H   0  0  0  0  0  0  0  0  0  0  0  0
   -3.8670   26.4370  -30.3120 H   0  0  0  0  0  0  0  0  0  0  0  0
   -7.5132   23.3967  -31.2270 H   0  0  0  0  0  0  0  0  0  0  0  0
   -9.9003   22.7084  -31.3249 H   0  0  0  0  0  0  0  0  0  0  0  0
  -10.5240   20.5019  -32.2906 H   0  0  0  0  0  0  0  0  0  0  0  0
   -8.7659   18.9444  -33.0995 H   0  0  0  0  0  0  0  0  0  0  0  0
  1  2  1  0
  2  3  2  0
  3  4  1  0
  4  5  2  0
  5  6  1  0
  6  7  2  0
  7  8  1  0
  8  9  2  0
  9 10  1  0
 10 11  1  0
 11 12  1  0
 12 13  1  0
  9 14  1  0
 14 15  2  0
 15 16  1  0
 16 17  2  0
 17 18  1  0
 18 19  2  0
 19  2  1  0
  8  3  1  0
 19 14  1  0
  1 20  1  0
  1 21  1  0
  1 22  1  0
  4 23  1  0
  5 24  1  0
  6 25  1  0
  7 26  1  0
 10 27  1  0
 11 28  1  0
 11 29  1  0
 12 30  1  0
 12 31  1  0
 13 32  1  0
 13 33  1  0
 15 34  1  0
 16 35  1  0
 17 36  1  0
 18 37  1  0
M  CHG  1   2   1
M  END
>  <UniqueID>  (16) 
16

>  <SMILES>  (16) 
C[n+]1c2ccccc2c(NCCN)c2ccccc21

>  <Energy>  (16) 
61.302961673881036

>  <Genealogy>  (16) 
C[n+]1c2ccccc2c(NCCN)c2ccccc21 (3D coordinates assigned)
C[n+]1c2ccccc2c(NCCN)c2ccccc21 (optimized conformer: 61.302961673881036 kcal/mol)

>  <smiles>  (16) 
C[n+]1c2ccccc2c(NCCN)c2ccccc21

>  <score_type>  (16) 
oracle

>  <origin>  (16) 
adg

>  <m_score__min__energy>  (16) 
-8.3300000000000001

>  <m_primary>  (16) 
energy

$$$$
16:0
     RDKit          3D

 42 45  0  0  0  0  0  0  0  0999 V2000
   -6.4480   17.2980  -32.8770 C   0  0  0  0  0  0  0  0  0  0  0  0
   -7.0420   18.6490  -32.6300 C   0  0  0  0  0  0  0  0  0  0  0  0
   -8.3560   18.8190  -32.3240 N   0  0  0  0  0  0  0  0  0  0  0  0
   -8.4670   20.1530  -32.1920 C   0  0  0  0  0  0  0  0  0  0  0  0
   -9.6100   20.8790  -31.8670 C   0  0  0  0  0  0  0  0  0  0  0  0
   -9.4890   22.2780  -31.7560 C   0  0  0  0  0  0  0  0  0  0  0  0
   -8.2400   22.9060  -31.9650 C   0  0  0  0  0  0  0  0  0  0  0  0
   -7.1030   22.1430  -32.2900 C   0  0  0  0  0  0  0  0  0  0  0  0
   -7.2630   20.7600  -32.4060 C   0  0  0  0  0  0  0  0  0  0  0  0
   -6.3440   19.8170  -32.6790 N   0  0  0  0  0  0  0  0  0  0  0  0
   -4.9490   20.0070  -32.9700 C   0  0  0  0  0  0  0  0  0  0  0  0
   -4.2390   21.0600  -32.3780 C   0  0  0  0  0  0  0  0  0  0  0  0
   -2.8820   21.2420  -32.6580 C   0  0  0  0  0  0  0  0  0  0  0  0
   -2.2090   20.3740  -33.5380 C   0  0  0  0  0  0  0  0  0  0  0  0
   -0.7670   20.5670  -33.8370 C   0  0  0  0  0  0  0  0  0  0  0  0
    0.2880   20.6260  -32.9360 C   0  0  0  0  0  0  0  0  0  0  0  0
    1.4400   20.8250  -33.6060 N   0  0  0  0  0  0  0  0  0  0  0  0
    1.1490   20.8840  -34.8950 N   0  0  0  0  0  0  0  0  0  0  0  0
    2.1340   21.1520  -35.9390 C   0  0  0  0  0  0  0  0  0  0  0  0
    2.3550   22.6550  -36.0790 C   0  0  0  0  0  0  0  0  0  0  0  0
    1.4530   23.3390  -35.2550 O   0  0  0  0  0  0  0  0  0  0  0  0
   -0.1770   20.7420  -35.0770 C   0  0  0  0  0  0  0  0  0  0  0  0
   -2.9290   19.3200  -34.1300 C   0  0  0  0  0  0  0  0  0  0  0  0
   -4.2860   19.1390  -33.8470 C   0  0  0  0  0  0  0  0  0  0  0  0
   -6.2335   16.8102  -31.9147 H   0  0  0  0  0  0  0  0  0  0  0  0
   -7.1591   16.6838  -33.4490 H   0  0  0  0  0  0  0  0  0  0  0  0
   -5.5147   17.4068  -33.4490 H   0  0  0  0  0  0  0  0  0  0  0  0
  -10.5748   20.3769  -31.7025 H   0  0  0  0  0  0  0  0  0  0  0  0
  -10.3713   22.8851  -31.5053 H   0  0  0  0  0  0  0  0  0  0  0  0
   -8.1561   23.9989  -31.8730 H   0  0  0  0  0  0  0  0  0  0  0  0
   -6.1236   22.6184  -32.4470 H   0  0  0  0  0  0  0  0  0  0  0  0
   -4.7525   21.7470  -31.6892 H   0  0  0  0  0  0  0  0  0  0  0  0
   -2.3348   22.0714  -32.1862 H   0  0  0  0  0  0  0  0  0  0  0  0
    0.1973   20.5258  -31.8443 H   0  0  0  0  0  0  0  0  0  0  0  0
    3.0855   20.6676  -35.6743 H   0  0  0  0  0  0  0  0  0  0  0  0
    1.7632   20.7524  -36.8944 H   0  0  0  0  0  0  0  0  0  0  0  0
    3.3844   22.9034  -35.7811 H   0  0  0  0  0  0  0  0  0  0  0  0
    2.1936   22.9530  -37.1255 H   0  0  0  0  0  0  0  0  0  0  0  0
    1.4530   22.8560  -34.3880 H   0  0  0  0  0  0  0  0  0  0  0  0
   -0.7012   20.7616  -36.0439 H   0  0  0  0  0  0  0  0  0  0  0  0
   -2.4198   18.6325  -34.8214 H   0  0  0  0  0  0  0  0  0  0  0  0
   -4.8364   18.3100  -34.3158 H   0  0  0  0  0  0  0  0  0  0  0  0
  1  2  1  0
  2  3  2  0
  3  4  1  0
  4  5  2  0
  5  6  1  0
  6  7  2  0
  7  8  1  0
  8  9  2  0
  9 10  1  0
 10 11  1  0
 11 12  2  0
 12 13  1  0
 13 14  2  0
 14 15  1  0
 15 16  1  0
 16 17  2  0
 17 18  1  0
 18 19  1  0
 19 20  1  0
 20 21  1  0
 18 22  1  0
 14 23  1  0
 23 24  2  0
 10  2  1  0
 24 11  1  0
  9  4  1  0
 22 15  2  0
  1 25  1  0
  1 26  1  0
  1 27  1  0
  5 28  1  0
  6 29  1  0
  7 30  1  0
  8 31  1  0
 12 32  1  0
 13 33  1  0
 16 34  1  0
 19 35  1  0
 19 36  1  0
 20 37  1  0
 20 38  1  0
 21 39  1  0
 22 40  1  0
 23 41  1  0
 24 42  1  0
M  END
>  <UniqueID>  (17) 
17

>  <SMILES>  (17) 
Cc1nc2ccccc2n1-c1ccc(-c2cnn(CCO)c2)cc1

>  <Energy>  (17) 
116.75414509285665

>  <Genealogy>  (17) 
Cc1nc2ccccc2n1-c1ccc(-c2cnn(CCO)c2)cc1 (3D coordinates assigned)
Cc1nc2ccccc2n1-c1ccc(-c2cnn(CCO)c2)cc1 (optimized conformer: 116.75414509285665 kcal/mol)

>  <smiles>  (17) 
Cc1nc2ccccc2n1-c1ccc(-c2cnn(CCO)c2)cc1

>  <score_type>  (17) 
oracle

>  <origin>  (17) 
adg

>  <m_score__min__energy>  (17) 
-7.8600000000000003

>  <m_primary>  (17) 
energy

$$$$
17:0
     RDKit          3D

 51 55  0  0  0  0  0  0  0  0999 V2000
   -1.6620   24.9530  -28.9710 C   0  0  0  0  0  0  0  0  0  0  0  0
   -2.8830   24.4270  -29.5710 N   0  0  0  0  0  0  0  0  0  0  0  0
   -3.8560   25.1930  -30.0520 N   0  0  0  0  0  0  0  0  0  0  0  0
   -4.8000   24.3580  -30.5270 C   0  0  0  0  0  0  0  0  0  0  0  0
   -6.0070   24.6930  -31.1300 C   0  0  0  0  0  0  0  0  0  0  0  0
   -6.8420   23.6430  -31.5560 C   0  0  0  0  0  0  0  0  0  0  0  0
   -6.4610   22.2840  -31.3720 C   0  0  0  0  0  0  0  0  0  0  0  0
   -7.3540   21.1860  -31.8220 C   0  0  0  0  0  0  0  0  0  0  0  0
   -6.8330   19.9250  -32.1600 C   0  0  0  0  0  0  0  0  0  0  0  0
   -7.6850   18.9040  -32.5830 C   0  0  0  0  0  0  0  0  0  0  0  0
   -9.0560   19.1480  -32.6700 C   0  0  0  0  0  0  0  0  0  0  0  0
   -9.5510   20.3700  -32.3410 N   0  0  0  0  0  0  0  0  0  0  0  0
   -8.7430   21.3820  -31.9230 C   0  0  0  0  0  0  0  0  0  0  0  0
   -5.2230   21.9880  -30.7530 C   0  0  0  0  0  0  0  0  0  0  0  0
   -4.4250   23.0540  -30.3470 C   0  0  0  0  0  0  0  0  0  0  0  0
   -3.1960   23.1190  -29.7360 C   0  0  0  0  0  0  0  0  0  0  0  0
   -2.3710   22.0040  -29.3440 C   0  0  0  0  0  0  0  0  0  0  0  0
   -1.6820   21.0740  -29.0110 C   0  0  0  0  0  0  0  0  0  0  0  0
   -0.8660   19.9580  -28.6110 C   0  0  0  0  0  0  0  0  0  0  0  0
    0.2940   19.6400  -29.3220 C   0  0  0  0  0  0  0  0  0  0  0  0
    1.0850   18.5640  -28.9170 C   0  0  0  0  0  0  0  0  0  0  0  0
    0.7050   17.8030  -27.7940 C   0  0  0  0  0  0  0  0  0  0  0  0
    1.4960   16.6830  -27.3360 N   0  0  0  0  0  0  0  0  0  0  0  0
    1.0350   15.3020  -27.5290 C   0  0  0  0  0  0  0  0  0  0  0  0
    1.6560   14.3790  -26.4750 C   0  0  0  0  0  0  0  0  0  0  0  0
    3.0600   14.5440  -26.4240 O   0  0  0  0  0  0  0  0  0  0  0  0
    3.3660   15.8460  -25.9690 C   0  0  0  0  0  0  0  0  0  0  0  0
    2.9060   16.8980  -26.9820 C   0  0  0  0  0  0  0  0  0  0  0  0
   -0.4310   18.1440  -27.1220 N   0  0  0  0  0  0  0  0  0  0  0  0
   -1.2160   19.1870  -27.4990 C   0  0  0  0  0  0  0  0  0  0  0  0
   -1.7469   24.9164  -27.8749 H   0  0  0  0  0  0  0  0  0  0  0  0
   -0.8038   24.3448  -29.2928 H   0  0  0  0  0  0  0  0  0  0  0  0
   -1.5145   25.9945  -29.2928 H   0  0  0  0  0  0  0  0  0  0  0  0
   -6.2999   25.7441  -31.2696 H   0  0  0  0  0  0  0  0  0  0  0  0
   -7.8029   23.8761  -32.0381 H   0  0  0  0  0  0  0  0  0  0  0  0
   -5.7505   19.7425  -32.0909 H   0  0  0  0  0  0  0  0  0  0  0  0
   -7.2794   17.9158  -32.8455 H   0  0  0  0  0  0  0  0  0  0  0  0
   -9.7362   18.3511  -33.0049 H   0  0  0  0  0  0  0  0  0  0  0  0
   -9.1784   22.3581  -31.6628 H   0  0  0  0  0  0  0  0  0  0  0  0
   -4.9013   20.9476  -30.5975 H   0  0  0  0  0  0  0  0  0  0  0  0
    0.5833   20.2368  -30.1996 H   0  0  0  0  0  0  0  0  0  0  0  0
    2.0006   18.3113  -29.4718 H   0  0  0  0  0  0  0  0  0  0  0  0
   -0.0608   15.2698  -27.4385 H   0  0  0  0  0  0  0  0  0  0  0  0
    1.3421   14.9598  -28.5283 H   0  0  0  0  0  0  0  0  0  0  0  0
    1.2292   14.6187  -25.4899 H   0  0  0  0  0  0  0  0  0  0  0  0
    1.4342   13.3363  -26.7463 H   0  0  0  0  0  0  0  0  0  0  0  0
    2.8567   16.0219  -25.0100 H   0  0  0  0  0  0  0  0  0  0  0  0
    4.4558   15.9290  -25.8447 H   0  0  0  0  0  0  0  0  0  0  0  0
    3.0211   17.8998  -26.5424 H   0  0  0  0  0  0  0  0  0  0  0  0
    3.5201   16.8124  -27.8906 H   0  0  0  0  0  0  0  0  0  0  0  0
   -2.1265   19.4245  -26.9293 H   0  0  0  0  0  0  0  0  0  0  0  0
  1  2  1  0
  2  3  1  0
  3  4  2  0
  4  5  1  0
  5  6  2  0
  6  7  1  0
  7  8  1  0
  8  9  2  0
  9 10  1  0
 10 11  2  0
 11 12  1  0
 12 13  2  0
  7 14  2  0
 14 15  1  0
 15 16  2  0
 16 17  1  0
 17 18  3  0
 18 19  1  0
 19 20  2  0
 20 21  1  0
 21 22  2  0
 22 23  1  0
 23 24  1  0
 24 25  1  0
 25 26  1  0
 26 27  1  0
 27 28  1  0
 22 29  1  0
 29 30  2  0
 16  2  1  0
 30 19  1  0
 15  4  1  0
 28 23  1  0
 13  8  1  0
  1 31  1  0
  1 32  1  0
  1 33  1  0
  5 34  1  0
  6 35  1  0
  9 36  1  0
 10 37  1  0
 11 38  1  0
 13 39  1  0
 14 40  1  0
 20 41  1  0
 21 42  1  0
 24 43  1  0
 24 44  1  0
 25 45  1  0
 25 46  1  0
 27 47  1  0
 27 48  1  0
 28 49  1  0
 28 50  1  0
 30 51  1  0
M  END
>  <UniqueID>  (18) 
18

>  <SMILES>  (18) 
Cn1nc2ccc(-c3cccnc3)cc2c1C#Cc1ccc(N2CCOCC2)nc1

>  <Energy>  (18) 
101.62934502726904

>  <Genealogy>  (18) 
Cn1nc2ccc(-c3cccnc3)cc2c1C#Cc1ccc(N2CCOCC2)nc1 (3D coordinates assigned)
Cn1nc2ccc(-c3cccnc3)cc2c1C#Cc1ccc(N2CCOCC2)nc1 (nonaromatic ring conformer: 101.62934502726904 kcal/mol)

>  <smiles>  (18) 
Cn1nc2ccc(-c3cccnc3)cc2c1C#Cc1ccc(N2CCOCC2)nc1

>  <score_type>  (18) 
oracle

>  <origin>  (18) 
adg

>  <m_score__min__energy>  (18) 
-8.8000000000000007

>  <m_primary>  (18) 
energy

$$$$
18:0
     RDKit          3D

 29 30  0  0  0  0  0  0  0  0999 V2000
   -7.0031   25.6575  -28.8932 H   0  0  0  0  0  0  0  0  0  0  0  0
   -6.2610   25.6730  -29.7050 C   0  0  0  0  0  0  0  0  0  0  0  0
   -5.7460   26.7630  -30.0660 O   0  0  0  0  0  0  0  0  0  0  0  0
   -5.8710   24.4210  -30.3680 C   0  0  0  0  0  0  0  0  0  0  0  0
   -6.8850   23.5690  -30.6810 N   0  0  0  0  0  0  0  0  0  0  0  0
   -6.6960   22.4580  -31.4340 C   0  0  0  0  0  0  0  0  0  0  0  0
   -7.7660   21.6100  -31.7400 C   0  0  0  0  0  0  0  0  0  0  0  0
   -8.7706   21.8292  -31.3491 H   0  0  0  0  0  0  0  0  0  0  0  0
   -7.5570   20.4750  -32.5490 C   0  0  0  0  0  0  0  0  0  0  0  0
   -8.5920   19.5900  -32.8860 O   0  0  0  0  0  0  0  0  0  0  0  0
   -9.0900   18.5710  -32.0250 C   0  0  0  0  0  0  0  0  0  0  0  0
   -8.9429   18.8720  -30.9773 H   0  0  0  0  0  0  0  0  0  0  0  0
  -10.1628   18.4213  -32.2163 H   0  0  0  0  0  0  0  0  0  0  0  0
   -8.5490   17.6326  -32.2163 H   0  0  0  0  0  0  0  0  0  0  0  0
   -6.2710   20.2110  -33.0420 C   0  0  0  0  0  0  0  0  0  0  0  0
   -6.1006   19.3277  -33.6750 H   0  0  0  0  0  0  0  0  0  0  0  0
   -5.2030   21.0610  -32.7360 C   0  0  0  0  0  0  0  0  0  0  0  0
   -4.1976   20.8452  -33.1266 H   0  0  0  0  0  0  0  0  0  0  0  0
   -5.4160   22.1850  -31.9330 C   0  0  0  0  0  0  0  0  0  0  0  0
   -4.3890   23.0070  -31.6050 N   0  0  0  0  0  0  0  0  0  0  0  0
   -4.5490   24.1040  -30.8140 C   0  0  0  0  0  0  0  0  0  0  0  0
   -3.4570   24.7340  -30.4640 N   0  0  0  0  0  0  0  0  0  0  0  0
   -2.5340   24.5690  -29.3410 C   0  0  0  0  0  0  0  0  0  0  0  0
   -2.0510   25.5342  -29.1288 H   0  0  0  0  0  0  0  0  0  0  0  0
   -1.7844   23.8119  -29.6147 H   0  0  0  0  0  0  0  0  0  0  0  0
   -3.2670   24.0930  -28.0890 C   0  0  0  0  0  0  0  0  0  0  0  0
   -2.7298   24.4418  -27.1947 H   0  0  0  0  0  0  0  0  0  0  0  0
   -4.2888   24.5004  -28.0852 H   0  0  0  0  0  0  0  0  0  0  0  0
   -3.3105   22.9939  -28.0852 H   0  0  0  0  0  0  0  0  0  0  0  0
  1  2  1  0
  2  3  2  0
  2  4  1  0
  4  5  2  0
  5  6  1  0
  6  7  2  0
  7  8  1  0
  7  9  1  0
  9 10  1  0
 10 11  1  0
 11 12  1  0
 11 13  1  0
 11 14  1  0
  9 15  2  0
 15 16  1  0
 15 17  1  0
 17 18  1  0
 17 19  2  0
 19 20  1  0
 20 21  1  0
 21 22  2  0
 22 23  1  0
 23 24  1  0
 23 25  1  0
 23 26  1  0
 26 27  1  0
 26 28  1  0
 26 29  1  0
 21  4  1  0
 19  6  1  0
M  CHG  1  20  -1
M  END
>  <UniqueID>  (19) 
19

>  <SMILES>  (19) 
CC/N=c1/[n-]c2ccc(OC)cc2nc1C=O

>  <Energy>  (19) 
45.3623530083362

>  <Genealogy>  (19) 
CCN=c1[n-]c2ccc(OC)cc2nc1C=O (protonated)
CC/N=c1/[n-]c2ccc(OC)cc2nc1C=O (cis-trans isomerization)
CC/N=c1/[n-]c2ccc(OC)cc2nc1C=O (3D coordinates assigned)
CC/N=c1/[n-]c2ccc(OC)cc2nc1C=O (optimized conformer: 45.3623530083362 kcal/mol)

>  <smiles>  (19) 
CCN=c1[nH]c2ccc(OC)cc2nc1C=O

>  <score_type>  (19) 
oracle

>  <origin>  (19) 
adg

>  <m_score__min__energy>  (19) 
-7.1600000000000001

>  <m_primary>  (19) 
energy

$$$$
19:0
     RDKit          3D

 46 48  0  0  0  0  0  0  0  0999 V2000
   -6.5010   24.9880  -29.7790 C   0  0  0  0  0  0  0  0  0  0  0  0
   -5.5240   25.9410  -30.4720 C   0  0  0  0  0  0  0  0  0  0  0  0
   -4.2300   25.3010  -30.7550 N   0  0  0  0  0  0  0  0  0  0  0  0
   -3.8400   24.3130  -29.7360 C   0  0  0  0  0  0  0  0  0  0  0  0
   -4.0000   22.8930  -30.2840 C   0  0  0  0  0  0  0  0  0  0  0  0
   -4.6430   22.9050  -31.5970 N   0  0  0  0  0  0  0  0  0  0  0  0
   -4.9900   21.6660  -32.2390 C   0  0  0  0  0  0  0  0  0  0  0  0
   -6.3220   21.2130  -32.2280 C   0  0  0  0  0  0  0  0  0  0  0  0
   -7.3290   21.9450  -31.5610 C   0  0  0  0  0  0  0  0  0  0  0  0
   -8.6350   21.4650  -31.5000 C   0  0  0  0  0  0  0  0  0  0  0  0
   -8.9570   20.2470  -32.0850 C   0  0  0  0  0  0  0  0  0  0  0  0
   -7.9810   19.5110  -32.7580 C   0  0  0  0  0  0  0  0  0  0  0  0
   -6.6510   19.9910  -32.8740 C   0  0  0  0  0  0  0  0  0  0  0  0
   -5.6850   19.2940  -33.5750 N   0  0  0  0  0  0  0  0  0  0  0  0
   -6.0780   18.1850  -34.4730 C   0  0  0  0  0  0  0  0  0  0  0  0
   -4.3530   19.6530  -33.4630 C   0  0  0  0  0  0  0  0  0  0  0  0
   -3.3130   18.8210  -33.9480 C   0  0  0  0  0  0  0  0  0  0  0  0
   -1.9800   19.2260  -33.8940 C   0  0  0  0  0  0  0  0  0  0  0  0
   -1.6410   20.4700  -33.3600 C   0  0  0  0  0  0  0  0  0  0  0  0
   -0.2040   20.8950  -33.2840 C   0  0  0  0  0  0  0  0  0  0  0  0
   -2.6430   21.2780  -32.8150 C   0  0  0  0  0  0  0  0  0  0  0  0
   -3.9940   20.8730  -32.8330 C   0  0  0  0  0  0  0  0  0  0  0  0
   -6.3989   25.0876  -28.6883 H   0  0  0  0  0  0  0  0  0  0  0  0
   -7.5302   25.2387  -30.0754 H   0  0  0  0  0  0  0  0  0  0  0  0
   -6.2760   23.9529  -30.0754 H   0  0  0  0  0  0  0  0  0  0  0  0
   -5.9686   26.2759  -31.4208 H   0  0  0  0  0  0  0  0  0  0  0  0
   -5.3408   26.7882  -29.7947 H   0  0  0  0  0  0  0  0  0  0  0  0
   -3.4860   26.0340  -30.8400 H   0  0  0  0  0  0  0  0  0  0  0  0
   -2.7893   24.4772  -29.4549 H   0  0  0  0  0  0  0  0  0  0  0  0
   -4.4888   24.4319  -28.8557 H   0  0  0  0  0  0  0  0  0  0  0  0
   -3.0069   22.4288  -30.3745 H   0  0  0  0  0  0  0  0  0  0  0  0
   -4.6327   22.3200  -29.5903 H   0  0  0  0  0  0  0  0  0  0  0  0
   -5.2020   23.7490  -31.8590 H   0  0  0  0  0  0  0  0  0  0  0  0
   -7.0791   22.9045  -31.0846 H   0  0  0  0  0  0  0  0  0  0  0  0
   -9.4124   22.0511  -30.9880 H   0  0  0  0  0  0  0  0  0  0  0  0
   -9.9849   19.8613  -32.0175 H   0  0  0  0  0  0  0  0  0  0  0  0
   -8.2473   18.5424  -33.2061 H   0  0  0  0  0  0  0  0  0  0  0  0
   -6.3855   17.3172  -33.8710 H   0  0  0  0  0  0  0  0  0  0  0  0
   -6.9168   18.5068  -35.1077 H   0  0  0  0  0  0  0  0  0  0  0  0
   -5.2237   17.9068  -35.1077 H   0  0  0  0  0  0  0  0  0  0  0  0
   -3.5621   17.8382  -34.3746 H   0  0  0  0  0  0  0  0  0  0  0  0
   -1.1907   18.5610  -34.2746 H   0  0  0  0  0  0  0  0  0  0  0  0
    0.0968   20.9840  -32.2297 H   0  0  0  0  0  0  0  0  0  0  0  0
    0.4271   20.1450  -33.7833 H   0  0  0  0  0  0  0  0  0  0  0  0
   -0.0824   21.8676  -33.7833 H   0  0  0  0  0  0  0  0  0  0  0  0
   -2.3737   22.2449  -32.3650 H   0  0  0  0  0  0  0  0  0  0  0  0
  1  2  1  0
  2  3  1  0
  3  4  1  0
  4  5  1  0
  5  6  1  0
  6  7  1  0
  7  8  2  0
  8  9  1  0
  9 10  2  0
 10 11  1  0
 11 12  2  0
 12 13  1  0
 13 14  2  0
 14 15  1  0
 14 16  1  0
 16 17  2  0
 17 18  1  0
 18 19  2  0
 19 20  1  0
 19 21  1  0
 21 22  2  0
 22  7  1  0
 13  8  1  0
 22 16  1  0
  1 23  1  0
  1 24  1  0
  1 25  1  0
  2 26  1  0
  2 27  1  0
  3 28  1  0
  4 29  1  0
  4 30  1  0
  5 31  1  0
  5 32  1  0
  6 33  1  0
  9 34  1  0
 10 35  1  0
 11 36  1  0
 12 37  1  0
 15 38  1  0
 15 39  1  0
 15 40  1  0
 17 41  1  0
 18 42  1  0
 20 43  1  0
 20 44  1  0
 20 45  1  0
 21 46  1  0
M  CHG  1  14   1
M  END
>  <UniqueID>  (20) 
20

>  <SMILES>  (20) 
CCNCCNc1c2ccccc2[n+](C)c2ccc(C)cc12

>  <Energy>  (20) 
70.12942016631135

>  <Genealogy>  (20) 
CCNCCNc1c2ccccc2[n+](C)c2ccc(C)cc12 (3D coordinates assigned)
CCNCCNc1c2ccccc2[n+](C)c2ccc(C)cc12 (optimized conformer: 70.12942016631135 kcal/mol)

>  <smiles>  (20) 
CCNCCNc1c2ccccc2[n+](C)c2ccc(C)cc12

>  <score_type>  (20) 
oracle

>  <origin>  (20) 
adg

>  <m_score__min__energy>  (20) 
-8.9299999999999997

>  <m_primary>  (20) 
energy

$$$$
20:0
     RDKit          3D

 19 18  0  0  0  0  0  0  0  0999 V2000
   -5.7840   23.7570  -31.7090 C   0  0  0  0  0  0  0  0  0  0  0  0
   -5.8640   23.8490  -30.2310 N   0  0  0  0  0  0  0  0  0  0  0  0
   -6.6860   22.7210  -29.7330 C   0  0  0  0  0  0  0  0  0  0  0  0
   -6.5270   25.1190  -29.8470 C   0  0  0  0  0  0  0  0  0  0  0  0
   -4.5070   23.7490  -29.6150 C   0  0  0  0  0  0  0  0  0  0  0  0
   -3.5880   24.8890  -29.9710 C   0  0  0  0  0  0  0  0  0  0  0  0
   -3.8830   25.6730  -30.9110 O   0  0  0  0  0  0  0  0  0  0  0  0
   -2.4070   25.0780  -29.2640 O   0  0  0  0  0  0  0  0  0  0  0  0
   -5.0860   22.9543  -31.9892 H   0  0  0  0  0  0  0  0  0  0  0  0
   -6.7811   23.5349  -32.1171 H   0  0  0  0  0  0  0  0  0  0  0  0
   -5.4256   24.7136  -32.1171 H   0  0  0  0  0  0  0  0  0  0  0  0
   -6.6841   22.7236  -28.6330 H   0  0  0  0  0  0  0  0  0  0  0  0
   -7.7179   22.8300  -30.0982 H   0  0  0  0  0  0  0  0  0  0  0  0
   -6.2662   21.7721  -30.0982 H   0  0  0  0  0  0  0  0  0  0  0  0
   -6.5666   25.1949  -28.7503 H   0  0  0  0  0  0  0  0  0  0  0  0
   -5.9568   25.9676  -30.2529 H   0  0  0  0  0  0  0  0  0  0  0  0
   -7.5492   25.1363  -30.2529 H   0  0  0  0  0  0  0  0  0  0  0  0
   -4.6240   23.7273  -28.5215 H   0  0  0  0  0  0  0  0  0  0  0  0
   -4.0448   22.8319  -30.0092 H   0  0  0  0  0  0  0  0  0  0  0  0
  1  2  1  0
  2  3  1  0
  2  4  1  0
  2  5  1  0
  5  6  1  0
  6  7  2  0
  6  8  1  0
  1  9  1  0
  1 10  1  0
  1 11  1  0
  3 12  1  0
  3 13  1  0
  3 14  1  0
  4 15  1  0
  4 16  1  0
  4 17  1  0
  5 18  1  0
  5 19  1  0
M  CHG  2   2   1   8  -1
M  END
>  <UniqueID>  (21) 
21

>  <SMILES>  (21) 
C[N+](C)(C)CC(=O)[O-]

>  <Energy>  (21) 
19.4633473297714

>  <Genealogy>  (21) 
C[N+](C)(C)CC(=O)[O-] (3D coordinates assigned)
C[N+](C)(C)CC(=O)[O-] (optimized conformer: 19.4633473297714 kcal/mol)

>  <smiles>  (21) 
C[N+](C)(C)CC(=O)[O-]

>  <score_type>  (21) 
oracle

>  <origin>  (21) 
adg

>  <m_score__min__energy>  (21) 
-5.0300000000000002

>  <m_primary>  (21) 
energy

$$$$
21:0
     RDKit          3D

 43 45  0  0  0  0  0  0  0  0999 V2000
   -5.9530   19.6140  -32.7720 C   0  0  0  0  0  0  0  0  0  0  0  0
   -7.4280   19.8900  -33.1010 C   0  0  0  0  0  0  0  0  0  0  0  0
   -8.3050   19.9640  -31.9110 N   0  0  0  0  0  0  0  0  0  0  0  0
   -8.9210   18.6640  -31.5890 C   0  0  0  0  0  0  0  0  0  0  0  0
   -9.3010   21.0580  -31.9860 C   0  0  0  0  0  0  0  0  0  0  0  0
   -8.6170   22.4130  -31.7770 C   0  0  0  0  0  0  0  0  0  0  0  0
   -7.2720   22.2540  -31.2280 N   0  0  0  0  0  0  0  0  0  0  0  0
   -6.2350   23.2280  -31.4380 C   0  0  0  0  0  0  0  0  0  0  0  0
   -6.4310   24.1790  -32.2440 O   0  0  0  0  0  0  0  0  0  0  0  0
   -4.9300   23.1250  -30.7390 C   0  0  0  0  0  0  0  0  0  0  0  0
   -4.3490   21.8600  -30.5250 C   0  0  0  0  0  0  0  0  0  0  0  0
   -3.1160   21.7390  -29.8750 C   0  0  0  0  0  0  0  0  0  0  0  0
   -2.4470   22.8870  -29.4380 C   0  0  0  0  0  0  0  0  0  0  0  0
   -3.0120   24.1660  -29.6530 C   0  0  0  0  0  0  0  0  0  0  0  0
   -4.2450   24.2770  -30.3030 C   0  0  0  0  0  0  0  0  0  0  0  0
   -2.3520   25.2890  -29.2340 N   0  0  0  0  0  0  0  0  0  0  0  0
   -1.1490   25.2060  -28.6010 C   0  0  0  0  0  0  0  0  0  0  0  0
   -0.5620   26.2540  -28.2230 O   0  0  0  0  0  0  0  0  0  0  0  0
   -0.6090   23.9750  -28.3910 N   0  0  0  0  0  0  0  0  0  0  0  0
    0.5320   23.5440  -27.8140 C   0  0  0  0  0  0  0  0  0  0  0  0
    1.5870   24.4120  -27.1980 C   0  0  0  0  0  0  0  0  0  0  0  0
    2.2070   25.1610  -28.1820 F   0  0  0  0  0  0  0  0  0  0  0  0
    1.0130   25.2570  -26.2660 F   0  0  0  0  0  0  0  0  0  0  0  0
    2.5370   23.6300  -26.5660 F   0  0  0  0  0  0  0  0  0  0  0  0
    0.6050   22.1940  -27.8630 N   0  0  0  0  0  0  0  0  0  0  0  0
   -0.4910   21.7540  -28.4730 N   0  0  0  0  0  0  0  0  0  0  0  0
   -1.2140   22.8470  -28.7850 C   0  0  0  0  0  0  0  0  0  0  0  0
   -5.8193   19.5890  -31.6804 H   0  0  0  0  0  0  0  0  0  0  0  0
   -5.6570   18.6449  -33.2000 H   0  0  0  0  0  0  0  0  0  0  0  0
   -5.3266   20.4105  -33.2000 H   0  0  0  0  0  0  0  0  0  0  0  0
   -7.4897   20.8488  -33.6367 H   0  0  0  0  0  0  0  0  0  0  0  0
   -7.7834   19.0436  -33.7070 H   0  0  0  0  0  0  0  0  0  0  0  0
   -8.9772   18.5454  -30.4969 H   0  0  0  0  0  0  0  0  0  0  0  0
   -9.9344   18.6229  -32.0149 H   0  0  0  0  0  0  0  0  0  0  0  0
   -8.3111   17.8537  -32.0149 H   0  0  0  0  0  0  0  0  0  0  0  0
   -9.7830   21.0432  -32.9747 H   0  0  0  0  0  0  0  0  0  0  0  0
  -10.0544   20.9115  -31.1981 H   0  0  0  0  0  0  0  0  0  0  0  0
   -8.5493   22.9324  -32.7443 H   0  0  0  0  0  0  0  0  0  0  0  0
   -9.2157   22.9955  -31.0613 H   0  0  0  0  0  0  0  0  0  0  0  0
   -7.0460   21.3490  -30.7580 H   0  0  0  0  0  0  0  0  0  0  0  0
   -4.8709   20.9564  -30.8730 H   0  0  0  0  0  0  0  0  0  0  0  0
   -2.6746   20.7453  -29.7083 H   0  0  0  0  0  0  0  0  0  0  0  0
   -4.6837   25.2709  -30.4754 H   0  0  0  0  0  0  0  0  0  0  0  0
  1  2  1  0
  2  3  1  0
  3  4  1  0
  3  5  1  0
  5  6  1  0
  6  7  1  0
  7  8  1  0
  8  9  2  0
  8 10  1  0
 10 11  2  0
 11 12  1  0
 12 13  2  0
 13 14  1  0
 14 15  2  0
 14 16  1  0
 16 17  1  0
 17 18  2  0
 17 19  1  0
 19 20  1  0
 20 21  1  0
 21 22  1  0
 21 23  1  0
 21 24  1  0
 20 25  2  0
 25 26  1  0
 26 27  2  0
 15 10  1  0
 27 19  1  0
 27 13  1  0
  1 28  1  0
  1 29  1  0
  1 30  1  0
  2 31  1  0
  2 32  1  0
  4 33  1  0
  4 34  1  0
  4 35  1  0
  5 36  1  0
  5 37  1  0
  6 38  1  0
  6 39  1  0
  7 40  1  0
 11 41  1  0
 12 42  1  0
 15 43  1  0
M  CHG  1  16  -1
M  END
>  <UniqueID>  (22) 
22

>  <SMILES>  (22) 
CCN(C)CCNC(=O)c1ccc2c(c1)[n-]c(=O)n1c(C(F)(F)F)nnc21

>  <Energy>  (22) 
91.36883167763237

>  <Genealogy>  (22) 
CCN(C)CCNC(=O)c1ccc2c(c1)[n-]c(=O)n1c(C(F)(F)F)nnc21 (protonated)
CCN(C)CCNC(=O)c1ccc2c(c1)[n-]c(=O)n1c(C(F)(F)F)nnc21 (3D coordinates assigned)
CCN(C)CCNC(=O)c1ccc2c(c1)[n-]c(=O)n1c(C(F)(F)F)nnc21 (optimized conformer: 91.36883167763237 kcal/mol)

>  <smiles>  (22) 
CCN(C)CCNC(=O)c1ccc2c(c1)[nH]c(=O)n1c(C(F)(F)F)nnc21

>  <score_type>  (22) 
oracle

>  <origin>  (22) 
adg

>  <m_score__min__energy>  (22) 
-7.7699999999999996

>  <m_primary>  (22) 
energy

$$$$
22:0
     RDKit          3D

 64 66  0  0  0  0  0  0  0  0999 V2000
   -1.4200   20.8870  -33.8510 C   0  0  0  0  0  0  0  0  0  0  0  0
   -0.6630   19.5610  -33.8830 C   0  0  0  0  0  0  0  0  0  0  0  0
   -1.0170   18.7040  -32.7280 N   0  0  0  0  0  0  0  0  0  0  0  0
    0.1820   18.1380  -32.0720 C   0  0  0  0  0  0  0  0  0  0  0  0
    0.1100   18.3580  -30.5640 C   0  0  0  0  0  0  0  0  0  0  0  0
   -2.0330   17.6690  -33.0400 C   0  0  0  0  0  0  0  0  0  0  0  0
   -1.9620   17.1140  -34.4860 C   0  0  0  0  0  0  0  0  0  0  0  0
   -3.1970   16.2670  -34.8420 C   0  0  0  0  0  0  0  0  0  0  0  0
   -2.9880   14.7610  -34.5910 C   0  0  0  0  0  0  0  0  0  0  0  0
   -4.2440   13.9940  -34.1410 C   0  0  0  0  0  0  0  0  0  0  0  0
   -5.3050   14.9000  -33.5010 C   0  0  0  0  0  0  0  0  0  0  0  0
   -6.6180   14.8540  -34.2890 C   0  0  0  0  0  0  0  0  0  0  0  0
   -7.2750   16.1210  -34.2440 O   0  0  0  0  0  0  0  0  0  0  0  0
   -6.7800   17.2780  -33.6200 C   0  0  0  0  0  0  0  0  0  0  0  0
   -5.6970   17.9350  -34.2140 C   0  0  0  0  0  0  0  0  0  0  0  0
   -5.1570   19.0860  -33.6360 C   0  0  0  0  0  0  0  0  0  0  0  0
   -5.6930   19.6010  -32.4440 C   0  0  0  0  0  0  0  0  0  0  0  0
   -5.1160   20.8260  -31.8340 C   0  0  0  0  0  0  0  0  0  0  0  0
   -5.9230   21.9560  -31.6590 C   0  0  0  0  0  0  0  0  0  0  0  0
   -5.4410   23.0520  -31.0920 O   0  0  0  0  0  0  0  0  0  0  0  0
   -4.1830   23.1590  -30.6800 C   0  0  0  0  0  0  0  0  0  0  0  0
   -3.7830   24.3480  -30.0650 C   0  0  0  0  0  0  0  0  0  0  0  0
   -2.4780   24.4980  -29.6050 C   0  0  0  0  0  0  0  0  0  0  0  0
   -2.0940   25.6780  -28.9800 O   0  0  0  0  0  0  0  0  0  0  0  0
   -1.5550   23.4690  -29.7810 C   0  0  0  0  0  0  0  0  0  0  0  0
   -1.9150   22.2780  -30.4230 C   0  0  0  0  0  0  0  0  0  0  0  0
   -0.8890   21.3480  -30.6210 O   0  0  0  0  0  0  0  0  0  0  0  0
   -3.2650   22.0880  -30.8530 C   0  0  0  0  0  0  0  0  0  0  0  0
   -3.7710   20.8900  -31.4190 C   0  0  0  0  0  0  0  0  0  0  0  0
   -3.0430   19.8730  -31.5560 O   0  0  0  0  0  0  0  0  0  0  0  0
   -6.7910   18.9540  -31.8550 C   0  0  0  0  0  0  0  0  0  0  0  0
   -7.3310   17.8020  -32.4350 C   0  0  0  0  0  0  0  0  0  0  0  0
   -1.5910   21.1865  -32.8065 H   0  0  0  0  0  0  0  0  0  0  0  0
   -0.8271   21.6601  -34.3618 H   0  0  0  0  0  0  0  0  0  0  0  0
   -2.3871   20.7695  -34.3618 H   0  0  0  0  0  0  0  0  0  0  0  0
   -0.9137   19.0290  -34.8126 H   0  0  0  0  0  0  0  0  0  0  0  0
    0.4142   19.7781  -33.8334 H   0  0  0  0  0  0  0  0  0  0  0  0
    0.2348   17.0591  -32.2798 H   0  0  0  0  0  0  0  0  0  0  0  0
    1.0778   18.6403  -32.4659 H   0  0  0  0  0  0  0  0  0  0  0  0
    0.4115   17.4366  -30.0442 H   0  0  0  0  0  0  0  0  0  0  0  0
    0.7869   19.1774  -30.2803 H   0  0  0  0  0  0  0  0  0  0  0  0
   -0.9203   18.6186  -30.2803 H   0  0  0  0  0  0  0  0  0  0  0  0
   -1.8940   16.8298  -32.3426 H   0  0  0  0  0  0  0  0  0  0  0  0
   -3.0151   18.1540  -32.9388 H   0  0  0  0  0  0  0  0  0  0  0  0
   -1.8970   17.9588  -35.1875 H   0  0  0  0  0  0  0  0  0  0  0  0
   -1.0753   16.4670  -34.5575 H   0  0  0  0  0  0  0  0  0  0  0  0
   -4.0449   16.6097  -34.2308 H   0  0  0  0  0  0  0  0  0  0  0  0
   -3.3863   16.3978  -35.9177 H   0  0  0  0  0  0  0  0  0  0  0  0
   -2.6277   14.3065  -35.5257 H   0  0  0  0  0  0  0  0  0  0  0  0
   -2.2692   14.6854  -33.7618 H   0  0  0  0  0  0  0  0  0  0  0  0
   -4.6873   13.5020  -35.0193 H   0  0  0  0  0  0  0  0  0  0  0  0
   -3.9290   13.2674  -33.3775 H   0  0  0  0  0  0  0  0  0  0  0  0
   -5.4921   14.5619  -32.4711 H   0  0  0  0  0  0  0  0  0  0  0  0
   -4.9304   15.9342  -33.5065 H   0  0  0  0  0  0  0  0  0  0  0  0
   -6.4024   14.5954  -35.3362 H   0  0  0  0  0  0  0  0  0  0  0  0
   -7.2762   14.0967  -33.8382 H   0  0  0  0  0  0  0  0  0  0  0  0
   -5.2662   17.5408  -35.1462 H   0  0  0  0  0  0  0  0  0  0  0  0
   -4.3070   19.5922  -34.1169 H   0  0  0  0  0  0  0  0  0  0  0  0
   -6.9698   21.9338  -31.9962 H   0  0  0  0  0  0  0  0  0  0  0  0
   -4.5035   25.1702  -29.9437 H   0  0  0  0  0  0  0  0  0  0  0  0
   -0.5272   23.5944  -29.4096 H   0  0  0  0  0  0  0  0  0  0  0  0
   -0.9720   20.4960  -31.1550 H   0  0  0  0  0  0  0  0  0  0  0  0
   -7.2298   19.3565  -30.9301 H   0  0  0  0  0  0  0  0  0  0  0  0
   -8.1903   17.3028  -31.9633 H   0  0  0  0  0  0  0  0  0  0  0  0
  1  2  1  0
  2  3  1  0
  3  4  1  0
  4  5  1  0
  3  6  1  0
  6  7  1  0
  7  8  1  0
  8  9  1  0
  9 10  1  0
 10 11  1  0
 11 12  1  0
 12 13  1  0
 13 14  1  0
 14 15  2  0
 15 16  1  0
 16 17  2  0
 17 18  1  0
 18 19  2  0
 19 20  1  0
 20 21  1  0
 21 22  2  0
 22 23  1  0
 23 24  1  0
 23 25  2  0
 25 26  1  0
 26 27  1  0
 26 28  2  0
 28 29  1  0
 29 30  2  0
 17 31  1  0
 31 32  2  0
 32 14  1  0
 29 18  1  0
 28 21  1  0
  1 33  1  0
  1 34  1  0
  1 35  1  0
  2 36  1  0
  2 37  1  0
  4 38  1  0
  4 39  1  0
  5 40  1  0
  5 41  1  0
  5 42  1  0
  6 43  1  0
  6 44  1  0
  7 45  1  0
  7 46  1  0
  8 47  1  0
  8 48  1  0
  9 49  1  0
  9 50  1  0
 10 51  1  0
 10 52  1  0
 11 53  1  0
 11 54  1  0
 12 55  1  0
 12 56  1  0
 15 57  1  0
 16 58  1  0
 19 59  1  0
 22 60  1  0
 25 61  1  0
 27 62  1  0
 31 63  1  0
 32 64  1  0
M  CHG  1  24  -1
M  END
>  <UniqueID>  (23) 
23

>  <SMILES>  (23) 
CCN(CC)CCCCCCCOc1ccc(-c2coc3cc([O-])cc(O)c3c2=O)cc1

>  <Energy>  (23) 
78.4525964036874

>  <Genealogy>  (23) 
CCN(CC)CCCCCCCOc1ccc(-c2coc3cc([O-])cc(O)c3c2=O)cc1 (protonated)
CCN(CC)CCCCCCCOc1ccc(-c2coc3cc([O-])cc(O)c3c2=O)cc1 (3D coordinates assigned)
CCN(CC)CCCCCCCOc1ccc(-c2coc3cc([O-])cc(O)c3c2=O)cc1 (optimized conformer: 78.4525964036874 kcal/mol)

>  <smiles>  (23) 
CCN(CC)CCCCCCCOc1ccc(-c2coc3cc(O)cc(O)c3c2=O)cc1

>  <score_type>  (23) 
oracle

>  <origin>  (23) 
adg

>  <m_score__min__energy>  (23) 
-8.7100000000000009

>  <m_primary>  (23) 
energy

$$$$
23:0
     RDKit          3D

 45 47  0  0  0  0  0  0  0  0999 V2000
   -6.0580   17.4330  -34.5630 C   0  0  0  0  0  0  0  0  0  0  0  0
   -6.8640   16.9330  -33.3640 C   0  0  0  0  0  0  0  0  0  0  0  0
   -6.9540   17.9620  -32.3050 N   0  0  0  0  0  0  0  0  0  0  0  0
   -8.3670   18.2770  -31.9720 C   0  0  0  0  0  0  0  0  0  0  0  0
   -8.8800   19.5180  -32.7220 C   0  0  0  0  0  0  0  0  0  0  0  0
   -8.0670   20.7300  -32.4420 N   0  0  0  0  0  0  0  0  0  0  0  0
   -8.7490   21.6720  -31.5280 C   0  0  0  0  0  0  0  0  0  0  0  0
   -8.5270   23.1220  -31.9780 C   0  0  0  0  0  0  0  0  0  0  0  0
   -7.1570   23.3220  -32.4550 N   0  0  0  0  0  0  0  0  0  0  0  0
   -6.0690   23.8020  -31.6420 C   0  0  0  0  0  0  0  0  0  0  0  0
   -6.1400   25.0480  -30.9550 C   0  0  0  0  0  0  0  0  0  0  0  0
   -5.0630   25.4940  -30.1670 C   0  0  0  0  0  0  0  0  0  0  0  0
   -3.9350   24.6850  -30.0910 C   0  0  0  0  0  0  0  0  0  0  0  0
   -2.8020   24.9170  -29.4120 N   0  0  0  0  0  0  0  0  0  0  0  0
   -2.0620   23.8120  -29.6930 C   0  0  0  0  0  0  0  0  0  0  0  0
   -0.6690   23.6290  -29.1940 C   0  0  0  0  0  0  0  0  0  0  0  0
   -2.6660   22.9210  -30.5230 N   0  0  0  0  0  0  0  0  0  0  0  0
   -3.8540   23.4990  -30.7510 C   0  0  0  0  0  0  0  0  0  0  0  0
   -4.8950   23.0230  -31.5410 C   0  0  0  0  0  0  0  0  0  0  0  0
   -6.7020   20.4240  -31.9600 C   0  0  0  0  0  0  0  0  0  0  0  0
   -6.1500   19.1650  -32.6390 C   0  0  0  0  0  0  0  0  0  0  0  0
   -5.1735   17.9817  -34.2071 H   0  0  0  0  0  0  0  0  0  0  0  0
   -5.7368   16.5753  -35.1723 H   0  0  0  0  0  0  0  0  0  0  0  0
   -6.6837   18.1018  -35.1723 H   0  0  0  0  0  0  0  0  0  0  0  0
   -7.8795   16.6744  -33.6985 H   0  0  0  0  0  0  0  0  0  0  0  0
   -6.3532   16.0523  -32.9474 H   0  0  0  0  0  0  0  0  0  0  0  0
   -8.9949   17.4153  -32.2426 H   0  0  0  0  0  0  0  0  0  0  0  0
   -8.4197   18.4892  -30.8940 H   0  0  0  0  0  0  0  0  0  0  0  0
   -8.8491   19.3147  -33.8026 H   0  0  0  0  0  0  0  0  0  0  0  0
   -9.9052   19.7167  -32.3764 H   0  0  0  0  0  0  0  0  0  0  0  0
   -9.8275   21.4558  -31.5258 H   0  0  0  0  0  0  0  0  0  0  0  0
   -8.3325   21.5479  -30.5175 H   0  0  0  0  0  0  0  0  0  0  0  0
   -9.2287   23.3570  -32.7919 H   0  0  0  0  0  0  0  0  0  0  0  0
   -8.6975   23.7850  -31.1170 H   0  0  0  0  0  0  0  0  0  0  0  0
   -6.9530   23.0450  -33.4420 H   0  0  0  0  0  0  0  0  0  0  0  0
   -7.0451   25.6671  -31.0414 H   0  0  0  0  0  0  0  0  0  0  0  0
   -5.1120   26.4519  -29.6285 H   0  0  0  0  0  0  0  0  0  0  0  0
   -0.6706   23.6292  -28.0940 H   0  0  0  0  0  0  0  0  0  0  0  0
   -0.2713   22.6709  -29.5599 H   0  0  0  0  0  0  0  0  0  0  0  0
   -0.0374   24.4519  -29.5599 H   0  0  0  0  0  0  0  0  0  0  0  0
   -4.8064   22.0646  -32.0735 H   0  0  0  0  0  0  0  0  0  0  0  0
   -6.0414   21.2740  -32.1863 H   0  0  0  0  0  0  0  0  0  0  0  0
   -6.7443   20.2476  -30.8751 H   0  0  0  0  0  0  0  0  0  0  0  0
   -6.1652   19.3123  -33.7290 H   0  0  0  0  0  0  0  0  0  0  0  0
   -5.1241   19.0025  -32.2768 H   0  0  0  0  0  0  0  0  0  0  0  0
  1  2  1  0
  2  3  1  0
  3  4  1  0
  4  5  1  0
  5  6  1  0
  6  7  1  0
  7  8  1  0
  8  9  1  0
  9 10  1  0
 10 11  2  0
 11 12  1  0
 12 13  2  0
 13 14  1  0
 14 15  1  0
 15 16  1  0
 15 17  2  0
 17 18  1  0
 18 19  2  0
  6 20  1  0
 20 21  1  0
 21  3  1  0
 19 10  1  0
 18 13  1  0
  1 22  1  0
  1 23  1  0
  1 24  1  0
  2 25  1  0
  2 26  1  0
  4 27  1  0
  4 28  1  0
  5 29  1  0
  5 30  1  0
  7 31  1  0
  7 32  1  0
  8 33  1  0
  8 34  1  0
  9 35  1  0
 11 36  1  0
 12 37  1  0
 16 38  1  0
 16 39  1  0
 16 40  1  0
 19 41  1  0
 20 42  1  0
 20 43  1  0
 21 44  1  0
 21 45  1  0
M  CHG  1  14  -1
M  END
>  <UniqueID>  (24) 
24

>  <SMILES>  (24) 
CCN1CCN(CCNc2ccc3[n-]c(C)nc3c2)CC1

>  <Energy>  (24) 
88.51319119424605

>  <Genealogy>  (24) 
CCN1CCN(CCNc2ccc3[n-]c(C)nc3c2)CC1 (protonated)
CCN1CCN(CCNc2ccc3[n-]c(C)nc3c2)CC1 (3D coordinates assigned)
CCN1CCN(CCNc2ccc3[n-]c(C)nc3c2)CC1 (nonaromatic ring conformer: 88.51319119424605 kcal/mol)

>  <smiles>  (24) 
CCN1CCN(CCNc2ccc3[nH]c(C)nc3c2)CC1

>  <score_type>  (24) 
oracle

>  <origin>  (24) 
adg

>  <m_score__min__energy>  (24) 
-8.9499999999999993

>  <m_primary>  (24) 
energy

$$$$
24:0
     RDKit          3D

 51 54  0  0  0  0  0  0  0  0999 V2000
   -0.6150   25.4390  -24.8440 C   0  0  0  0  0  0  0  0  0  0  0  0
   -0.6650   24.8760  -26.1500 O   0  0  0  0  0  0  0  0  0  0  0  0
   -1.8300   24.7690  -26.9270 C   0  0  0  0  0  0  0  0  0  0  0  0
   -3.1140   24.8100  -26.3560 C   0  0  0  0  0  0  0  0  0  0  0  0
   -4.2510   24.7000  -27.1590 C   0  0  0  0  0  0  0  0  0  0  0  0
   -4.1300   24.5460  -28.5500 C   0  0  0  0  0  0  0  0  0  0  0  0
   -5.3280   24.4270  -29.4200 C   0  0  0  0  0  0  0  0  0  0  0  0
   -5.5610   23.3670  -30.2260 N   0  0  0  0  0  0  0  0  0  0  0  0
   -6.7360   23.7050  -30.8000 C   0  0  0  0  0  0  0  0  0  0  0  0
   -7.4480   22.8580  -31.8150 C   0  0  0  0  0  0  0  0  0  0  0  0
   -6.5260   21.7370  -32.3520 C   0  0  0  0  0  0  0  0  0  0  0  0
   -6.7390   20.4130  -31.6010 C   0  0  0  0  0  0  0  0  0  0  0  0
   -8.1480   19.9420  -31.6560 N   0  0  0  0  0  0  0  0  0  0  0  0
   -8.3490   18.7480  -32.5040 C   0  0  0  0  0  0  0  0  0  0  0  0
   -7.0780   18.2600  -33.1450 C   0  0  0  0  0  0  0  0  0  0  0  0
   -6.3800   17.1200  -32.7960 C   0  0  0  0  0  0  0  0  0  0  0  0
   -5.3040   17.0670  -33.6540 C   0  0  0  0  0  0  0  0  0  0  0  0
   -5.4100   18.1750  -34.4710 C   0  0  0  0  0  0  0  0  0  0  0  0
   -6.4770   18.8660  -34.1430 O   0  0  0  0  0  0  0  0  0  0  0  0
   -9.1600   20.9950  -31.9010 C   0  0  0  0  0  0  0  0  0  0  0  0
   -8.7630   22.3070  -31.2190 C   0  0  0  0  0  0  0  0  0  0  0  0
   -7.1640   24.8690  -30.3750 O   0  0  0  0  0  0  0  0  0  0  0  0
   -6.3150   25.3410  -29.5170 N   0  0  0  0  0  0  0  0  0  0  0  0
   -2.8460   24.5030  -29.1180 C   0  0  0  0  0  0  0  0  0  0  0  0
   -1.6940   24.6140  -28.3140 C   0  0  0  0  0  0  0  0  0  0  0  0
   -0.4000   24.5760  -28.8560 O   0  0  0  0  0  0  0  0  0  0  0  0
    0.6500   23.7380  -28.3830 C   0  0  0  0  0  0  0  0  0  0  0  0
   -0.6863   24.6360  -24.0956 H   0  0  0  0  0  0  0  0  0  0  0  0
    0.3346   25.9786  -24.7135 H   0  0  0  0  0  0  0  0  0  0  0  0
   -1.4546   26.1375  -24.7135 H   0  0  0  0  0  0  0  0  0  0  0  0
   -3.2238   24.9297  -25.2681 H   0  0  0  0  0  0  0  0  0  0  0  0
   -5.2495   24.7342  -26.6987 H   0  0  0  0  0  0  0  0  0  0  0  0
   -7.7131   23.4836  -32.6801 H   0  0  0  0  0  0  0  0  0  0  0  0
   -6.7415   21.5796  -33.4191 H   0  0  0  0  0  0  0  0  0  0  0  0
   -5.4827   22.0513  -32.2012 H   0  0  0  0  0  0  0  0  0  0  0  0
   -6.0934   19.6449  -32.0519 H   0  0  0  0  0  0  0  0  0  0  0  0
   -6.4879   20.5865  -30.5442 H   0  0  0  0  0  0  0  0  0  0  0  0
   -8.7593   17.9403  -31.8801 H   0  0  0  0  0  0  0  0  0  0  0  0
   -9.0372   19.0322  -33.3137 H   0  0  0  0  0  0  0  0  0  0  0  0
   -6.6311   16.4043  -31.9994 H   0  0  0  0  0  0  0  0  0  0  0  0
   -4.5187   16.2973  -33.6826 H   0  0  0  0  0  0  0  0  0  0  0  0
   -4.7070   18.4388  -35.2749 H   0  0  0  0  0  0  0  0  0  0  0  0
   -9.2474   21.1648  -32.9843 H   0  0  0  0  0  0  0  0  0  0  0  0
  -10.1216   20.6606  -31.4845 H   0  0  0  0  0  0  0  0  0  0  0  0
   -9.5637   23.0468  -31.3661 H   0  0  0  0  0  0  0  0  0  0  0  0
   -8.6116   22.1156  -30.1464 H   0  0  0  0  0  0  0  0  0  0  0  0
   -6.4140   26.2560  -29.0260 H   0  0  0  0  0  0  0  0  0  0  0  0
   -2.7382   24.3809  -30.2059 H   0  0  0  0  0  0  0  0  0  0  0  0
    0.6511   23.7371  -27.2830 H   0  0  0  0  0  0  0  0  0  0  0  0
    0.4947   22.7129  -28.7503 H   0  0  0  0  0  0  0  0  0  0  0  0
    1.6152   24.1168  -28.7503 H   0  0  0  0  0  0  0  0  0  0  0  0
  1  2  1  0
  2  3  1  0
  3  4  2  0
  4  5  1  0
  5  6  2  0
  6  7  1  0
  7  8  1  0
  8  9  2  0
  9 10  1  0
 10 11  1  0
 11 12  1  0
 12 13  1  0
 13 14  1  0
 14 15  1  0
 15 16  2  0
 16 17  1  0
 17 18  2  0
 18 19  1  0
 13 20  1  0
 20 21  1  0
  9 22  1  0
 22 23  1  0
  6 24  1  0
 24 25  2  0
 25 26  1  0
 26 27  1  0
 25  3  1  0
 23  7  2  0
 21 10  1  0
 19 15  1  0
  1 28  1  0
  1 29  1  0
  1 30  1  0
  4 31  1  0
  5 32  1  0
 10 33  1  0
 11 34  1  0
 11 35  1  0
 12 36  1  0
 12 37  1  0
 14 38  1  0
 14 39  1  0
 16 40  1  0
 17 41  1  0
 18 42  1  0
 20 43  1  0
 20 44  1  0
 21 45  1  0
 21 46  1  0
 23 47  1  0
 24 48  1  0
 27 49  1  0
 27 50  1  0
 27 51  1  0
M  CHG  1  23   1
M  END
>  <UniqueID>  (25) 
25

>  <SMILES>  (25) 
COc1ccc(-c2nc(C3CCN(Cc4ccco4)CC3)o[nH+]2)cc1OC

>  <Energy>  (25) 
122.38453476996632

>  <Genealogy>  (25) 
COc1ccc(-c2nc(C3CCN(Cc4ccco4)CC3)o[nH+]2)cc1OC (protonated)
COc1ccc(-c2nc(C3CCN(Cc4ccco4)CC3)o[nH+]2)cc1OC (3D coordinates assigned)
COc1ccc(-c2nc(C3CCN(Cc4ccco4)CC3)o[nH+]2)cc1OC (nonaromatic ring conformer: 122.38453476996632 kcal/mol)

>  <smiles>  (25) 
COc1ccc(-c2noc(C3CCN(Cc4ccco4)CC3)n2)cc1OC

>  <score_type>  (25) 
oracle

>  <origin>  (25) 
adg

>  <m_score__min__energy>  (25) 
-8.25

>  <m_primary>  (25) 
energy

$$$$
25:0
     RDKit          3D

 41 42  0  0  0  0  0  0  0  0999 V2000
   -8.6950   22.5080  -31.6120 C   0  0  0  0  0  0  0  0  0  0  0  0
   -7.4890   21.6400  -31.9610 C   0  0  0  0  0  0  0  0  0  0  0  0
   -7.8840   20.5220  -32.8470 N   0  0  0  0  0  0  0  0  0  0  0  0
   -9.1110   19.8180  -32.4030 C   0  0  0  0  0  0  0  0  0  0  0  0
   -8.7240   18.5640  -31.6320 C   0  0  0  0  0  0  0  0  0  0  0  0
   -6.7620   19.6040  -33.1460 C   0  0  0  0  0  0  0  0  0  0  0  0
   -5.4820   19.9060  -32.3390 C   0  0  0  0  0  0  0  0  0  0  0  0
   -4.4770   20.4320  -33.1860 O   0  0  0  0  0  0  0  0  0  0  0  0
   -3.4990   21.1520  -32.4540 C   0  0  0  0  0  0  0  0  0  0  0  0
   -3.9460   21.3380  -31.0020 C   0  0  0  0  0  0  0  0  0  0  0  0
   -3.7210   22.7150  -30.5570 N   0  0  0  0  0  0  0  0  0  0  0  0
   -4.3670   23.8400  -30.9640 C   0  0  0  0  0  0  0  0  0  0  0  0
   -5.3340   23.8270  -31.7700 O   0  0  0  0  0  0  0  0  0  0  0  0
   -3.8700   24.9910  -30.4380 N   0  0  0  0  0  0  0  0  0  0  0  0
   -2.8610   24.5350  -29.6750 C   0  0  0  0  0  0  0  0  0  0  0  0
   -2.0010   25.2890  -28.9460 N   0  0  0  0  0  0  0  0  0  0  0  0
   -1.0020   24.6650  -28.2500 C   0  0  0  0  0  0  0  0  0  0  0  0
   -0.8610   23.2580  -28.2980 C   0  0  0  0  0  0  0  0  0  0  0  0
   -1.7570   22.4910  -29.0630 C   0  0  0  0  0  0  0  0  0  0  0  0
   -2.7610   23.1790  -29.7430 C   0  0  0  0  0  0  0  0  0  0  0  0
   -8.7922   22.5780  -30.5185 H   0  0  0  0  0  0  0  0  0  0  0  0
   -8.5563   23.5147  -32.0330 H   0  0  0  0  0  0  0  0  0  0  0  0
   -9.6056   22.0568  -32.0330 H   0  0  0  0  0  0  0  0  0  0  0  0
   -6.7366   22.2575  -32.4734 H   0  0  0  0  0  0  0  0  0  0  0  0
   -7.0741   21.2232  -31.0314 H   0  0  0  0  0  0  0  0  0  0  0  0
   -9.6997   20.4816  -31.7526 H   0  0  0  0  0  0  0  0  0  0  0  0
   -9.7120   19.5385  -33.2809 H   0  0  0  0  0  0  0  0  0  0  0  0
   -8.7857   18.7639  -30.5521 H   0  0  0  0  0  0  0  0  0  0  0  0
   -9.4115   17.7461  -31.8934 H   0  0  0  0  0  0  0  0  0  0  0  0
   -7.6951   18.2758  -31.8934 H   0  0  0  0  0  0  0  0  0  0  0  0
   -7.0829   18.5771  -32.9168 H   0  0  0  0  0  0  0  0  0  0  0  0
   -6.5113   19.7379  -34.2086 H   0  0  0  0  0  0  0  0  0  0  0  0
   -5.7139   20.6396  -31.5528 H   0  0  0  0  0  0  0  0  0  0  0  0
   -5.1157   18.9718  -31.8883 H   0  0  0  0  0  0  0  0  0  0  0  0
   -2.5505   20.5953  -32.4723 H   0  0  0  0  0  0  0  0  0  0  0  0
   -3.3665   22.1418  -32.9152 H   0  0  0  0  0  0  0  0  0  0  0  0
   -5.0181   21.1048  -30.9228 H   0  0  0  0  0  0  0  0  0  0  0  0
   -3.3570   20.6624  -30.3642 H   0  0  0  0  0  0  0  0  0  0  0  0
   -0.3020   25.2626  -27.6476 H   0  0  0  0  0  0  0  0  0  0  0  0
   -0.0523   22.7655  -27.7381 H   0  0  0  0  0  0  0  0  0  0  0  0
   -1.6698   21.3961  -29.1225 H   0  0  0  0  0  0  0  0  0  0  0  0
  1  2  1  0
  2  3  1  0
  3  4  1  0
  4  5  1  0
  3  6  1  0
  6  7  1  0
  7  8  1  0
  8  9  1  0
  9 10  1  0
 10 11  1  0
 11 12  1  0
 12 13  2  0
 12 14  1  0
 14 15  1  0
 15 16  2  0
 16 17  1  0
 17 18  2  0
 18 19  1  0
 19 20  2  0
 20 11  1  0
 20 15  1  0
  1 21  1  0
  1 22  1  0
  1 23  1  0
  2 24  1  0
  2 25  1  0
  4 26  1  0
  4 27  1  0
  5 28  1  0
  5 29  1  0
  5 30  1  0
  6 31  1  0
  6 32  1  0
  7 33  1  0
  7 34  1  0
  9 35  1  0
  9 36  1  0
 10 37  1  0
 10 38  1  0
 17 39  1  0
 18 40  1  0
 19 41  1  0
M  CHG  1  14  -1
M  END
>  <UniqueID>  (26) 
26

>  <SMILES>  (26) 
CCN(CC)CCOCCn1c(=O)[n-]c2ncccc21

>  <Energy>  (26) 
80.69370589335844

>  <Genealogy>  (26) 
CCN(CC)CCOCCn1c(=O)[n-]c2ncccc21 (protonated)
CCN(CC)CCOCCn1c(=O)[n-]c2ncccc21 (3D coordinates assigned)
CCN(CC)CCOCCn1c(=O)[n-]c2ncccc21 (optimized conformer: 80.69370589335844 kcal/mol)

>  <smiles>  (26) 
CCN(CC)CCOCCn1c(=O)[nH]c2ncccc21

>  <score_type>  (26) 
oracle

>  <origin>  (26) 
adg

>  <m_score__min__energy>  (26) 
-7.4900000000000002

>  <m_primary>  (26) 
energy

$$$$
26:0
     RDKit          3D

 63 66  0  0  0  0  0  0  0  0999 V2000
   -3.8590   23.7690  -27.8830 C   0  0  0  0  0  0  0  0  0  0  0  0
   -2.6000   22.9660  -28.1730 C   0  0  0  0  0  0  0  0  0  0  0  0
   -2.7490   22.2690  -29.4690 N   0  0  0  0  0  0  0  0  0  0  0  0
   -2.9140   20.8000  -29.3100 C   0  0  0  0  0  0  0  0  0  0  0  0
   -2.6560   20.2840  -27.8840 C   0  0  0  0  0  0  0  0  0  0  0  0
   -1.7210   22.6800  -30.4530 C   0  0  0  0  0  0  0  0  0  0  0  0
   -0.9450   21.4760  -31.0090 C   0  0  0  0  0  0  0  0  0  0  0  0
   -1.1540   21.3490  -32.4040 O   0  0  0  0  0  0  0  0  0  0  0  0
   -0.5030   20.2010  -32.9200 C   0  0  0  0  0  0  0  0  0  0  0  0
   -1.4820   19.3460  -33.7300 C   0  0  0  0  0  0  0  0  0  0  0  0
   -2.5900   20.1670  -34.2080 N   0  0  0  0  0  0  0  0  0  0  0  0
   -3.9200   19.9470  -33.7160 C   0  0  0  0  0  0  0  0  0  0  0  0
   -4.5650   20.9530  -33.0080 C   0  0  0  0  0  0  0  0  0  0  0  0
   -5.8230   20.7500  -32.4760 C   0  0  0  0  0  0  0  0  0  0  0  0
   -6.5420   19.6080  -32.7270 N   0  0  0  0  0  0  0  0  0  0  0  0
   -7.9820   19.5640  -32.4250 C   0  0  0  0  0  0  0  0  0  0  0  0
   -5.8990   18.5420  -33.3400 C   0  0  0  0  0  0  0  0  0  0  0  0
   -6.5060   17.2670  -33.4440 C   0  0  0  0  0  0  0  0  0  0  0  0
   -5.8690   16.2050  -34.1080 C   0  0  0  0  0  0  0  0  0  0  0  0
   -6.5030   14.9150  -34.2090 N   0  0  0  0  0  0  0  0  0  0  0  0
   -7.6030   14.7870  -34.7880 O   0  0  0  0  0  0  0  0  0  0  0  0
   -5.9090   13.8000  -33.6630 O   0  0  0  0  0  0  0  0  0  0  0  0
   -4.6050   16.4120  -34.6730 C   0  0  0  0  0  0  0  0  0  0  0  0
   -3.9700   17.6450  -34.5580 C   0  0  0  0  0  0  0  0  0  0  0  0
   -4.5810   18.7090  -33.8720 C   0  0  0  0  0  0  0  0  0  0  0  0
   -6.1660   21.9370  -31.6820 C   0  0  0  0  0  0  0  0  0  0  0  0
   -7.2000   22.1740  -30.7650 C   0  0  0  0  0  0  0  0  0  0  0  0
   -7.2200   23.3940  -30.0710 C   0  0  0  0  0  0  0  0  0  0  0  0
   -6.1940   24.3370  -30.2580 C   0  0  0  0  0  0  0  0  0  0  0  0
   -5.1280   24.0570  -31.1230 C   0  0  0  0  0  0  0  0  0  0  0  0
   -5.1270   22.8460  -31.8190 C   0  0  0  0  0  0  0  0  0  0  0  0
   -4.0260   22.3120  -32.6760 C   0  0  0  0  0  0  0  0  0  0  0  0
   -3.9958   23.8562  -26.7950 H   0  0  0  0  0  0  0  0  0  0  0  0
   -3.7628   24.7729  -28.3221 H   0  0  0  0  0  0  0  0  0  0  0  0
   -4.7288   23.2585  -28.3221 H   0  0  0  0  0  0  0  0  0  0  0  0
   -1.7348   23.6438  -28.2182 H   0  0  0  0  0  0  0  0  0  0  0  0
   -2.4440   22.2263  -27.3740 H   0  0  0  0  0  0  0  0  0  0  0  0
   -3.9447   20.5369  -29.5902 H   0  0  0  0  0  0  0  0  0  0  0  0
   -2.1607   20.3268  -29.9570 H   0  0  0  0  0  0  0  0  0  0  0  0
   -3.0245   21.0209  -27.1552 H   0  0  0  0  0  0  0  0  0  0  0  0
   -3.1829   19.3294  -27.7386 H   0  0  0  0  0  0  0  0  0  0  0  0
   -1.5762   20.1327  -27.7386 H   0  0  0  0  0  0  0  0  0  0  0  0
   -2.2150   23.2003  -31.2868 H   0  0  0  0  0  0  0  0  0  0  0  0
   -1.0048   23.3400  -29.9417 H   0  0  0  0  0  0  0  0  0  0  0  0
    0.1286   21.6174  -30.8158 H   0  0  0  0  0  0  0  0  0  0  0  0
   -1.3041   20.5627  -30.5121 H   0  0  0  0  0  0  0  0  0  0  0  0
    0.3255   20.5169  -33.5709 H   0  0  0  0  0  0  0  0  0  0  0  0
   -0.1196   19.6027  -32.0804 H   0  0  0  0  0  0  0  0  0  0  0  0
   -0.9559   18.9082  -34.5912 H   0  0  0  0  0  0  0  0  0  0  0  0
   -1.8783   18.5465  -33.0868 H   0  0  0  0  0  0  0  0  0  0  0  0
   -2.3580   21.1230  -34.5650 H   0  0  0  0  0  0  0  0  0  0  0  0
   -8.1280   19.5595  -31.3347 H   0  0  0  0  0  0  0  0  0  0  0  0
   -8.4745   20.4475  -32.8573 H   0  0  0  0  0  0  0  0  0  0  0  0
   -8.4196   18.6521  -32.8573 H   0  0  0  0  0  0  0  0  0  0  0  0
   -7.4972   17.1044  -32.9955 H   0  0  0  0  0  0  0  0  0  0  0  0
   -4.1089   15.5921  -35.2131 H   0  0  0  0  0  0  0  0  0  0  0  0
   -2.9774   17.7888  -35.0096 H   0  0  0  0  0  0  0  0  0  0  0  0
   -7.9806   21.4183  -30.5928 H   0  0  0  0  0  0  0  0  0  0  0  0
   -8.0439   23.6138  -29.3762 H   0  0  0  0  0  0  0  0  0  0  0  0
   -6.2284   25.2977  -29.7234 H   0  0  0  0  0  0  0  0  0  0  0  0
   -4.3069   24.7776  -31.2516 H   0  0  0  0  0  0  0  0  0  0  0  0
   -3.8832   22.9230  -33.5795 H   0  0  0  0  0  0  0  0  0  0  0  0
   -3.0364   22.3054  -32.1957 H   0  0  0  0  0  0  0  0  0  0  0  0
  1  2  1  0
  2  3  1  0
  3  4  1  0
  4  5  1  0
  3  6  1  0
  6  7  1  0
  7  8  1  0
  8  9  1  0
  9 10  1  0
 10 11  1  0
 11 12  1  0
 12 13  2  0
 13 14  1  0
 14 15  2  0
 15 16  1  0
 15 17  1  0
 17 18  2  0
 18 19  1  0
 19 20  1  0
 20 21  2  0
 20 22  1  0
 19 23  2  0
 23 24  1  0
 24 25  2  0
 14 26  1  0
 26 27  2  0
 27 28  1  0
 28 29  2  0
 29 30  1  0
 30 31  2  0
 31 32  1  0
 25 12  1  0
 31 26  1  0
 32 13  1  0
 25 17  1  0
  1 33  1  0
  1 34  1  0
  1 35  1  0
  2 36  1  0
  2 37  1  0
  4 38  1  0
  4 39  1  0
  5 40  1  0
  5 41  1  0
  5 42  1  0
  6 43  1  0
  6 44  1  0
  7 45  1  0
  7 46  1  0
  9 47  1  0
  9 48  1  0
 10 49  1  0
 10 50  1  0
 11 51  1  0
 16 52  1  0
 16 53  1  0
 16 54  1  0
 18 55  1  0
 23 56  1  0
 24 57  1  0
 27 58  1  0
 28 59  1  0
 29 60  1  0
 30 61  1  0
 32 62  1  0
 32 63  1  0
M  CHG  3  15   1  20   1  22  -1
M  END
>  <UniqueID>  (27) 
27

>  <SMILES>  (27) 
CCN(CC)CCOCCNc1c2c([n+](C)c3cc([N+](=O)[O-])ccc13)-c1ccccc1C2

>  <Energy>  (27) 
111.36101392518482

>  <Genealogy>  (27) 
CCN(CC)CCOCCNc1c2c([n+](C)c3cc([N+](=O)[O-])ccc13)-c1ccccc1C2 (3D coordinates assigned)
CCN(CC)CCOCCNc1c2c([n+](C)c3cc([N+](=O)[O-])ccc13)-c1ccccc1C2 (nonaromatic ring conformer: 111.36101392518482 kcal/mol)

>  <smiles>  (27) 
CCN(CC)CCOCCNc1c2c([n+](C)c3cc([N+](=O)[O-])ccc13)-c1ccccc1C2

>  <score_type>  (27) 
oracle

>  <origin>  (27) 
adg

>  <m_score__min__energy>  (27) 
-8.4299999999999997

>  <m_primary>  (27) 
energy

$$$$
27:0
     RDKit          3D

 45 47  0  0  0  0  0  0  0  0999 V2000
   -3.7510   24.3910  -29.7070 C   0  0  0  0  0  0  0  0  0  0  0  0
   -4.6290   24.6810  -30.8500 N   0  0  0  0  0  0  0  0  0  0  0  0
   -5.7240   25.5660  -30.4180 C   0  0  0  0  0  0  0  0  0  0  0  0
   -5.1560   23.4220  -31.4230 C   0  0  0  0  0  0  0  0  0  0  0  0
   -6.3210   22.8750  -30.5840 C   0  0  0  0  0  0  0  0  0  0  0  0
   -7.3980   22.3520  -31.4440 N   0  0  0  0  0  0  0  0  0  0  0  0
   -8.4780   23.2520  -31.8690 C   0  0  0  0  0  0  0  0  0  0  0  0
   -7.4050   20.9890  -31.9330 C   0  0  0  0  0  0  0  0  0  0  0  0
   -8.5560   20.1750  -31.8570 C   0  0  0  0  0  0  0  0  0  0  0  0
   -8.5150   18.8640  -32.3400 C   0  0  0  0  0  0  0  0  0  0  0  0
   -7.3380   18.3720  -32.9010 C   0  0  0  0  0  0  0  0  0  0  0  0
   -7.2630   17.1040  -33.3810 N   0  0  0  0  0  0  0  0  0  0  0  0
   -6.1130   16.6290  -33.9290 C   0  0  0  0  0  0  0  0  0  0  0  0
   -4.9800   17.4590  -34.0040 C   0  0  0  0  0  0  0  0  0  0  0  0
   -3.7090   16.9910  -34.5900 C   0  0  0  0  0  0  0  0  0  0  0  0
   -3.5070   15.9610  -35.5000 C   0  0  0  0  0  0  0  0  0  0  0  0
   -2.1880   15.8670  -35.7500 N   0  0  0  0  0  0  0  0  0  0  0  0
   -1.5540   16.7950  -35.0530 N   0  0  0  0  0  0  0  0  0  0  0  0
   -0.1060   16.9480  -35.0090 C   0  0  0  0  0  0  0  0  0  0  0  0
   -2.4460   17.4920  -34.3230 C   0  0  0  0  0  0  0  0  0  0  0  0
   -5.0640   18.7290  -33.5200 N   0  0  0  0  0  0  0  0  0  0  0  0
   -6.2110   19.2060  -32.9710 C   0  0  0  0  0  0  0  0  0  0  0  0
   -6.2710   20.4750  -32.4940 N   0  0  0  0  0  0  0  0  0  0  0  0
   -4.2976   24.5716  -28.7697 H   0  0  0  0  0  0  0  0  0  0  0  0
   -3.4309   23.3394  -29.7481 H   0  0  0  0  0  0  0  0  0  0  0  0
   -2.8675   25.0451  -29.7481 H   0  0  0  0  0  0  0  0  0  0  0  0
   -5.7600   25.5951  -29.3190 H   0  0  0  0  0  0  0  0  0  0  0  0
   -5.5504   26.5805  -30.8062 H   0  0  0  0  0  0  0  0  0  0  0  0
   -6.6795   25.1834  -30.8062 H   0  0  0  0  0  0  0  0  0  0  0  0
   -5.5101   23.6141  -32.4466 H   0  0  0  0  0  0  0  0  0  0  0  0
   -4.3481   22.6755  -31.4260 H   0  0  0  0  0  0  0  0  0  0  0  0
   -5.9498   22.0637  -29.9405 H   0  0  0  0  0  0  0  0  0  0  0  0
   -6.7284   23.6965  -29.9764 H   0  0  0  0  0  0  0  0  0  0  0  0
   -8.9782   23.6688  -30.9824 H   0  0  0  0  0  0  0  0  0  0  0  0
   -8.0574   24.0706  -32.4715 H   0  0  0  0  0  0  0  0  0  0  0  0
   -9.2073   22.6907  -32.4715 H   0  0  0  0  0  0  0  0  0  0  0  0
   -9.4835   20.5718  -31.4184 H   0  0  0  0  0  0  0  0  0  0  0  0
   -9.4073   18.2238  -32.2776 H   0  0  0  0  0  0  0  0  0  0  0  0
   -6.0688   15.5989  -34.3125 H   0  0  0  0  0  0  0  0  0  0  0  0
   -4.2920   15.3294  -35.9414 H   0  0  0  0  0  0  0  0  0  0  0  0
   -1.7280   15.1720  -36.3810 H   0  0  0  0  0  0  0  0  0  0  0  0
    0.2273   16.9832  -33.9613 H   0  0  0  0  0  0  0  0  0  0  0  0
    0.3684   16.0950  -35.5162 H   0  0  0  0  0  0  0  0  0  0  0  0
    0.1797   17.8813  -35.5162 H   0  0  0  0  0  0  0  0  0  0  0  0
   -2.2116   18.3167  -33.6338 H   0  0  0  0  0  0  0  0  0  0  0  0
  1  2  1  0
  2  3  1  0
  2  4  1  0
  4  5  1  0
  5  6  1  0
  6  7  1  0
  6  8  1  0
  8  9  2  0
  9 10  1  0
 10 11  2  0
 11 12  1  0
 12 13  2  0
 13 14  1  0
 14 15  1  0
 15 16  1  0
 16 17  2  0
 17 18  1  0
 18 19  1  0
 18 20  1  0
 14 21  2  0
 21 22  1  0
 22 23  2  0
 23  8  1  0
 22 11  1  0
 20 15  2  0
  1 24  1  0
  1 25  1  0
  1 26  1  0
  3 27  1  0
  3 28  1  0
  3 29  1  0
  4 30  1  0
  4 31  1  0
  5 32  1  0
  5 33  1  0
  7 34  1  0
  7 35  1  0
  7 36  1  0
  9 37  1  0
 10 38  1  0
 13 39  1  0
 16 40  1  0
 17 41  1  0
 19 42  1  0
 19 43  1  0
 19 44  1  0
 20 45  1  0
M  CHG  1  17   1
M  END
>  <UniqueID>  (28) 
28

>  <SMILES>  (28) 
CN(C)CCN(C)c1ccc2ncc(-c3c[nH+]n(C)c3)nc2n1

>  <Energy>  (28) 
79.79237758276827

>  <Genealogy>  (28) 
CN(C)CCN(C)c1ccc2ncc(-c3c[nH+]n(C)c3)nc2n1 (protonated)
CN(C)CCN(C)c1ccc2ncc(-c3c[nH+]n(C)c3)nc2n1 (3D coordinates assigned)
CN(C)CCN(C)c1ccc2ncc(-c3c[nH+]n(C)c3)nc2n1 (optimized conformer: 79.79237758276827 kcal/mol)

>  <smiles>  (28) 
CN(C)CCN(C)c1ccc2ncc(-c3cnn(C)c3)nc2n1

>  <score_type>  (28) 
oracle

>  <origin>  (28) 
adg

>  <m_score__min__energy>  (28) 
-7.0499999999999998

>  <m_primary>  (28) 
energy

$$$$
28:0
     RDKit          3D

 79 83  0  0  0  0  0  0  0  0999 V2000
    0.0394   25.7235  -28.6818 H   0  0  0  0  0  0  0  0  0  0  0  0
   -0.8140   25.0310  -28.6360 C   0  0  0  0  0  0  0  0  0  0  0  0
   -1.9360   25.2950  -29.3440 N   0  0  0  0  0  0  0  0  0  0  0  0
   -3.0300   24.4920  -29.2870 C   0  0  0  0  0  0  0  0  0  0  0  0
   -4.1680   24.8550  -30.0170 C   0  0  0  0  0  0  0  0  0  0  0  0
   -4.1383   25.7342  -30.6773 H   0  0  0  0  0  0  0  0  0  0  0  0
   -5.3370   24.1070  -29.9100 C   0  0  0  0  0  0  0  0  0  0  0  0
   -6.7650   24.5770  -30.8140 Cl  0  0  0  0  0  0  0  0  0  0  0  0
   -5.3840   23.0150  -29.0480 C   0  0  0  0  0  0  0  0  0  0  0  0
   -6.3172   22.4422  -28.9426 H   0  0  0  0  0  0  0  0  0  0  0  0
   -4.2530   22.6410  -28.3150 C   0  0  0  0  0  0  0  0  0  0  0  0
   -4.3196   21.8007  -27.6083 H   0  0  0  0  0  0  0  0  0  0  0  0
   -3.0250   23.3260  -28.4680 C   0  0  0  0  0  0  0  0  0  0  0  0
   -1.7990   22.9750  -27.8080 C   0  0  0  0  0  0  0  0  0  0  0  0
   -1.5320   21.8260  -27.2430 N   0  0  0  0  0  0  0  0  0  0  0  0
   -2.6950   22.0300  -31.6910 C   0  0  0  0  0  0  0  0  0  0  0  0
   -3.3720   21.8267  -30.8482 H   0  0  0  0  0  0  0  0  0  0  0  0
   -2.6386   23.1079  -31.9032 H   0  0  0  0  0  0  0  0  0  0  0  0
   -1.2750   19.5590  -28.1580 C   0  0  0  0  0  0  0  0  0  0  0  0
   -1.9034   18.7600  -28.5783 H   0  0  0  0  0  0  0  0  0  0  0  0
   -0.5143   19.1627  -27.4693 H   0  0  0  0  0  0  0  0  0  0  0  0
   -0.5550   20.2380  -29.2780 N   0  0  2  0  0  0  0  0  0  0  0  0
   -0.3960   21.2440  -29.0380 H   0  0  0  0  0  0  0  0  0  0  0  0
   -1.3310   20.2120  -30.5470 C   0  0  0  0  0  0  0  0  0  0  0  0
   -0.9211   19.4188  -31.1895 H   0  0  0  0  0  0  0  0  0  0  0  0
   -2.3825   20.0307  -30.2795 H   0  0  0  0  0  0  0  0  0  0  0  0
   -1.2840   21.5420  -31.3240 C   0  0  0  0  0  0  0  0  0  0  0  0
   -0.7934   22.3035  -30.6999 H   0  0  0  0  0  0  0  0  0  0  0  0
   -0.7223   21.3780  -32.2554 H   0  0  0  0  0  0  0  0  0  0  0  0
   -2.1720   20.5170  -27.3530 C   0  0  0  0  0  0  0  0  0  0  0  0
   -3.1397   20.6263  -27.8645 H   0  0  0  0  0  0  0  0  0  0  0  0
   -2.3276   20.1050  -26.3450 H   0  0  0  0  0  0  0  0  0  0  0  0
   -3.2110   21.3590  -32.8850 N   0  0  0  0  0  0  0  0  0  0  0  0
   -3.9670   20.3170  -33.1410 C   0  0  0  0  0  0  0  0  0  0  0  0
   -5.3520   20.4640  -32.8580 C   0  0  0  0  0  0  0  0  0  0  0  0
   -5.8590   21.5870  -32.1620 C   0  0  0  0  0  0  0  0  0  0  0  0
   -5.1676   22.3692  -31.8152 H   0  0  0  0  0  0  0  0  0  0  0  0
   -7.2280   21.7140  -31.9100 C   0  0  0  0  0  0  0  0  0  0  0  0
   -7.6066   22.5894  -31.3620 H   0  0  0  0  0  0  0  0  0  0  0  0
   -8.1160   20.7310  -32.3530 C   0  0  0  0  0  0  0  0  0  0  0  0
   -9.8290   20.8860  -32.0210 Cl  0  0  0  0  0  0  0  0  0  0  0  0
   -7.6360   19.6240  -33.0500 C   0  0  0  0  0  0  0  0  0  0  0  0
   -8.3381   18.8553  -33.4052 H   0  0  0  0  0  0  0  0  0  0  0  0
   -6.2660   19.4840  -33.3010 C   0  0  0  0  0  0  0  0  0  0  0  0
   -5.8270   18.4020  -33.9780 N   0  0  0  0  0  0  0  0  0  0  0  0
   -4.5140   18.1760  -34.2100 C   0  0  0  0  0  0  0  0  0  0  0  0
   -4.1520   16.9970  -34.8640 C   0  0  0  0  0  0  0  0  0  0  0  0
   -4.9334   16.3304  -35.2578 H   0  0  0  0  0  0  0  0  0  0  0  0
   -2.8150   16.6580  -35.0220 C   0  0  0  0  0  0  0  0  0  0  0  0
   -2.5400   15.7409  -35.5636 H   0  0  0  0  0  0  0  0  0  0  0  0
   -1.8160   17.4850  -34.4910 C   0  0  0  0  0  0  0  0  0  0  0  0
   -0.4550   17.1470  -34.5580 O   0  0  0  0  0  0  0  0  0  0  0  0
    0.2820   17.0310  -35.7710 C   0  0  0  0  0  0  0  0  0  0  0  0
    1.3444   16.8638  -35.5400 H   0  0  0  0  0  0  0  0  0  0  0  0
   -0.1042   16.1826  -36.3550 H   0  0  0  0  0  0  0  0  0  0  0  0
    0.1751   17.9570  -36.3550 H   0  0  0  0  0  0  0  0  0  0  0  0
   -2.1750   18.6810  -33.8520 C   0  0  0  0  0  0  0  0  0  0  0  0
   -1.3870   19.3154  -33.4200 H   0  0  0  0  0  0  0  0  0  0  0  0
   -3.5250   19.0920  -33.7490 C   0  0  0  0  0  0  0  0  0  0  0  0
    0.7710   19.5980  -29.5120 C   0  0  0  0  0  0  0  0  0  0  0  0
    1.0230   18.9802  -28.6375 H   0  0  0  0  0  0  0  0  0  0  0  0
    1.5057   20.4019  -29.6669 H   0  0  0  0  0  0  0  0  0  0  0  0
    0.7860   18.7010  -30.7730 C   0  0  0  0  0  0  0  0  0  0  0  0
   -0.2527   18.4835  -31.0624 H   0  0  0  0  0  0  0  0  0  0  0  0
    1.3390   17.7839  -30.5217 H   0  0  0  0  0  0  0  0  0  0  0  0
    1.5010   19.3630  -31.9650 C   0  0  0  0  0  0  0  0  0  0  0  0
    2.3245   18.7120  -32.2938 H   0  0  0  0  0  0  0  0  0  0  0  0
    1.8812   20.3420  -31.6380 H   0  0  0  0  0  0  0  0  0  0  0  0
    0.5840   19.5790  -33.0930 N   0  0  0  0  0  0  0  0  0  0  0  0
    0.5540   18.7010  -33.6640 H   0  0  0  0  0  0  0  0  0  0  0  0
    1.0610   20.6600  -33.9630 C   0  0  0  0  0  0  0  0  0  0  0  0
    1.7384   20.2432  -34.7229 H   0  0  0  0  0  0  0  0  0  0  0  0
    1.5946   21.4038  -33.3530 H   0  0  0  0  0  0  0  0  0  0  0  0
   -0.1150   21.3340  -34.6530 C   0  0  0  0  0  0  0  0  0  0  0  0
   -0.8067   21.7304  -33.8951 H   0  0  0  0  0  0  0  0  0  0  0  0
    0.2522   22.1587  -35.2815 H   0  0  0  0  0  0  0  0  0  0  0  0
   -0.6410   20.6003  -35.2815 H   0  0  0  0  0  0  0  0  0  0  0  0
   -0.7370   23.8870  -27.8510 C   0  0  0  0  0  0  0  0  0  0  0  0
    0.1685   23.6955  -27.2565 H   0  0  0  0  0  0  0  0  0  0  0  0
  1  2  1  0
  2  3  1  0
  3  4  1  0
  4  5  2  0
  5  6  1  0
  5  7  1  0
  7  8  1  0
  7  9  2  0
  9 10  1  0
  9 11  1  0
 11 12  1  0
 11 13  2  0
 13 14  1  0
 14 15  2  0
 15 16  1  0
 16 17  1  0
 16 18  1  0
 16 19  1  0
 19 20  1  0
 19 21  1  0
 19 22  1  0
 22 23  1  1
 22 24  1  0
 24 25  1  0
 24 26  1  0
 24 27  1  0
 27 28  1  0
 27 29  1  0
 27 30  1  0
 30 31  1  0
 30 32  1  0
 30 33  1  0
 33 34  2  0
 34 35  1  0
 35 36  2  0
 36 37  1  0
 36 38  1  0
 38 39  1  0
 38 40  2  0
 40 41  1  0
 40 42  1  0
 42 43  1  0
 42 44  2  0
 44 45  1  0
 45 46  1  0
 46 47  2  0
 47 48  1  0
 47 49  1  0
 49 50  1  0
 49 51  2  0
 51 52  1  0
 52 53  1  0
 53 54  1  0
 53 55  1  0
 53 56  1  0
 51 57  1  0
 57 58  1  0
 57 59  2  0
 22 60  1  0
 60 61  1  0
 60 62  1  0
 60 63  1  0
 63 64  1  0
 63 65  1  0
 63 66  1  0
 66 67  1  0
 66 68  1  0
 66 69  1  0
 69 70  1  0
 69 71  1  0
 71 72  1  0
 71 73  1  0
 71 74  1  0
 74 75  1  0
 74 76  1  0
 74 77  1  0
 14 78  1  0
 78 79  1  0
 78  2  2  0
 13  4  1  0
 59 34  1  0
 44 35  1  0
 59 46  1  0
M  CHG  3   3  -1  22   1  45  -1
M  END
>  <UniqueID>  (29) 
29

>  <SMILES>  (29) 
CCNCCC[N@@H+](CCC/N=c1/c2ccc(Cl)cc2[n-]c2ccc(OC)cc12)CC/N=c1/cc[n-]c2cc(Cl)ccc12

>  <Energy>  (29) 
118.77376907299323

>  <Genealogy>  (29) 
CCNCCC[NH+](CCCN=c1c2ccc(Cl)cc2[n-]c2ccc(OC)cc12)CCN=c1cc[n-]c2cc(Cl)ccc12 (protonated)
CCNCCC[N@@H+](CCCN=c1c2ccc(Cl)cc2[n-]c2ccc(OC)cc12)CCN=c1cc[n-]c2cc(Cl)ccc12 (chirality)
CCNCCC[N@@H+](CCC/N=c1/c2ccc(Cl)cc2[n-]c2ccc(OC)cc12)CC/N=c1/cc[n-]c2cc(Cl)ccc12 (cis-trans isomerization)
CCNCCC[N@@H+](CCC/N=c1/c2ccc(Cl)cc2[n-]c2ccc(OC)cc12)CC/N=c1/cc[n-]c2cc(Cl)ccc12 (3D coordinates assigned)
CCNCCC[N@@H+](CCC/N=c1/c2ccc(Cl)cc2[n-]c2ccc(OC)cc12)CC/N=c1/cc[n-]c2cc(Cl)ccc12 (optimized conformer: 118.77376907299323 kcal/mol)

>  <smiles>  (29) 
CCNCCCN(CCCN=c1c2ccc(Cl)cc2[nH]c2ccc(OC)cc12)CCN=c1cc[nH]c2cc(Cl)ccc12

>  <score_type>  (29) 
oracle

>  <origin>  (29) 
adg

>  <m_score__min__energy>  (29) 
-11.23

>  <m_primary>  (29) 
energy

$$$$
29:0
     RDKit          3D

 32 32  0  0  0  0  0  0  0  0999 V2000
   -2.7060   25.2900  -26.2420 C   0  0  0  0  0  0  0  0  0  0  0  0
   -4.1840   24.9010  -26.3560 C   0  0  0  0  0  0  0  0  0  0  0  0
   -4.6160   24.7360  -27.7590 N   0  0  0  0  0  0  0  0  0  0  0  0
   -3.7800   23.7960  -28.5340 C   0  0  0  0  0  0  0  0  0  0  0  0
   -3.8880   23.9710  -30.0670 C   0  0  0  0  0  0  0  0  0  0  0  0
   -5.1990   23.5260  -30.5930 N   0  0  0  0  0  0  0  0  0  0  0  0
   -5.3130   22.3930  -31.3750 C   0  0  0  0  0  0  0  0  0  0  0  0
   -4.1070   21.6120  -31.8430 C   0  0  0  0  0  0  0  0  0  0  0  0
   -6.5740   21.9850  -31.8330 C   0  0  0  0  0  0  0  0  0  0  0  0
   -7.6970   22.7300  -31.4850 C   0  0  0  0  0  0  0  0  0  0  0  0
   -9.0540   22.3340  -31.9730 C   0  0  0  0  0  0  0  0  0  0  0  0
   -7.5470   23.8520  -30.7430 N   0  0  0  0  0  0  0  0  0  0  0  0
   -6.3300   24.2580  -30.3010 C   0  0  0  0  0  0  0  0  0  0  0  0
   -6.2580   25.3170  -29.6210 O   0  0  0  0  0  0  0  0  0  0  0  0
   -2.4270   25.3634  -25.1805 H   0  0  0  0  0  0  0  0  0  0  0  0
   -2.0865   24.5243  -26.7318 H   0  0  0  0  0  0  0  0  0  0  0  0
   -2.5437   26.2615  -26.7318 H   0  0  0  0  0  0  0  0  0  0  0  0
   -4.3414   23.9513  -25.8238 H   0  0  0  0  0  0  0  0  0  0  0  0
   -4.7798   25.7136  -25.9148 H   0  0  0  0  0  0  0  0  0  0  0  0
   -5.6040   24.3920  -27.7750 H   0  0  0  0  0  0  0  0  0  0  0  0
   -4.6300   25.6700  -28.2280 H   0  0  0  0  0  0  0  0  0  0  0  0
   -2.7301   23.9463  -28.2423 H   0  0  0  0  0  0  0  0  0  0  0  0
   -4.1442   22.7839  -28.3039 H   0  0  0  0  0  0  0  0  0  0  0  0
   -3.7512   25.0346  -30.3120 H   0  0  0  0  0  0  0  0  0  0  0  0
   -3.1099   23.3480  -30.5323 H   0  0  0  0  0  0  0  0  0  0  0  0
   -3.5448   21.2479  -30.9705 H   0  0  0  0  0  0  0  0  0  0  0  0
   -4.4374   20.7559  -32.4496 H   0  0  0  0  0  0  0  0  0  0  0  0
   -3.4610   22.2637  -32.4496 H   0  0  0  0  0  0  0  0  0  0  0  0
   -6.6745   21.0867  -32.4599 H   0  0  0  0  0  0  0  0  0  0  0  0
   -9.7116   22.1421  -31.1123 H   0  0  0  0  0  0  0  0  0  0  0  0
   -9.4759   23.1465  -32.5828 H   0  0  0  0  0  0  0  0  0  0  0  0
   -8.9727   21.4221  -32.5828 H   0  0  0  0  0  0  0  0  0  0  0  0
  1  2  1  0
  2  3  1  0
  3  4  1  0
  4  5  1  0
  5  6  1  0
  6  7  1  0
  7  8  1  0
  7  9  2  0
  9 10  1  0
 10 11  1  0
 10 12  2  0
 12 13  1  0
 13 14  2  0
 13  6  1  0
  1 15  1  0
  1 16  1  0
  1 17  1  0
  2 18  1  0
  2 19  1  0
  3 20  1  0
  3 21  1  0
  4 22  1  0
  4 23  1  0
  5 24  1  0
  5 25  1  0
  8 26  1  0
  8 27  1  0
  8 28  1  0
  9 29  1  0
 11 30  1  0
 11 31  1  0
 11 32  1  0
M  CHG  1   3   1
M  END
>  <UniqueID>  (30) 
30

>  <SMILES>  (30) 
CC[NH2+]CCn1c(C)cc(C)nc1=O

>  <Energy>  (30) 
32.966958709555016

>  <Genealogy>  (30) 
CC[NH2+]CCn1c(C)cc(C)nc1=O (protonated)
CC[NH2+]CCn1c(C)cc(C)nc1=O (3D coordinates assigned)
CC[NH2+]CCn1c(C)cc(C)nc1=O (optimized conformer: 32.966958709555016 kcal/mol)

>  <smiles>  (30) 
CCNCCn1c(C)cc(C)nc1=O

>  <score_type>  (30) 
oracle

>  <origin>  (30) 
adg

>  <m_score__min__energy>  (30) 
-4.3700000000000001

>  <m_primary>  (30) 
energy

$$$$
30:0
     RDKit          3D

 37 39  0  0  1  0  0  0  0  0999 V2000
    0.1400   18.6340  -33.5620 F   0  0  0  0  0  0  0  0  0  0  0  0
   -0.0670   19.3120  -32.3740 C   0  0  0  0  0  0  0  0  0  0  0  0
    1.0220   20.1520  -32.1420 F   0  0  0  0  0  0  0  0  0  0  0  0
   -0.2100   18.4750  -31.3100 F   0  0  0  0  0  0  0  0  0  0  0  0
   -1.2630   20.1900  -32.4450 C   0  0  0  0  0  0  0  0  0  0  0  0
   -1.4420   21.1500  -31.4720 C   0  0  0  0  0  0  0  0  0  0  0  0
   -2.5400   21.9800  -31.5110 C   0  0  0  0  0  0  0  0  0  0  0  0
   -3.5120   21.9240  -32.4840 C   0  0  0  0  0  0  0  0  0  0  0  0
   -4.5960   22.7550  -32.6430 N   0  0  0  0  0  0  0  0  0  0  0  0
   -5.3270   23.2250  -31.7480 C   0  0  0  0  0  0  0  0  0  0  0  0
   -4.9230   24.4300  -31.2190 N   0  0  0  0  0  0  0  0  0  0  0  0
   -5.6130   25.0060  -30.2330 C   0  0  0  0  0  0  0  0  0  0  0  0
   -6.7140   24.4320  -29.7300 N   0  0  0  0  0  0  0  0  0  0  0  0
   -7.1100   23.2760  -30.2340 C   0  0  0  0  0  0  0  0  0  0  0  0
   -6.4370   22.6080  -31.2730 C   0  0  0  0  0  0  0  0  0  0  0  0
   -7.0640   21.4000  -31.7240 C   0  0  0  0  0  0  0  0  0  0  0  0
   -8.4690   21.3560  -31.6550 C   0  0  0  0  0  0  0  0  0  0  0  0
   -9.1710   20.2800  -32.1480 C   0  0  0  0  0  0  0  0  0  0  0  0
   -8.5000   19.2400  -32.7120 N   0  0  0  0  0  0  0  0  0  0  0  0
   -7.1530   19.2270  -32.8060 C   0  0  0  0  0  0  0  0  0  0  0  0
   -6.4400   18.0760  -33.4280 C   0  0  0  0  0  0  0  0  0  0  0  0
   -5.3350   17.7890  -32.6720 F   0  0  0  0  0  0  0  0  0  0  0  0
   -6.0400   18.3970  -34.7330 F   0  0  0  0  0  0  0  0  0  0  0  0
   -7.2440   16.9580  -33.5330 F   0  0  0  0  0  0  0  0  0  0  0  0
   -6.4680   20.3140  -32.3070 C   0  0  0  0  0  0  0  0  0  0  0  0
   -3.3050   20.9320  -33.4680 C   0  0  0  0  0  0  0  0  0  0  0  0
   -2.2120   20.1020  -33.4340 C   0  0  0  0  0  0  0  0  0  0  0  0
   -0.7052   21.2533  -30.6618 H   0  0  0  0  0  0  0  0  0  0  0  0
   -2.6468   22.7333  -30.7166 H   0  0  0  0  0  0  0  0  0  0  0  0
   -5.2718   25.9693  -29.8259 H   0  0  0  0  0  0  0  0  0  0  0  0
   -7.2270   24.9060  -28.9640 H   0  0  0  0  0  0  0  0  0  0  0  0
   -8.0158   22.8107  -29.8180 H   0  0  0  0  0  0  0  0  0  0  0  0
   -9.0149   22.1954  -31.1996 H   0  0  0  0  0  0  0  0  0  0  0  0
  -10.2691   20.2611  -32.0863 H   0  0  0  0  0  0  0  0  0  0  0  0
   -5.3706   20.3086  -32.3821 H   0  0  0  0  0  0  0  0  0  0  0  0
   -4.0374   20.8218  -34.2813 H   0  0  0  0  0  0  0  0  0  0  0  0
   -2.0927   19.3440  -34.2222 H   0  0  0  0  0  0  0  0  0  0  0  0
  1  2  1  0
  2  3  1  0
  2  4  1  0
  2  5  1  0
  5  6  2  0
  6  7  1  0
  7  8  2  0
  8  9  1  0
  9 10  2  0
 10 11  1  0
 11 12  2  0
 12 13  1  0
 13 14  1  0
 14 15  2  0
 15 16  1  0
 16 17  2  0
 17 18  1  0
 18 19  2  0
 19 20  1  0
 20 21  1  0
 21 22  1  0
 21 23  1  0
 21 24  1  0
 20 25  2  0
  8 26  1  0
 26 27  2  0
 27  5  1  0
 15 10  1  0
 25 16  1  0
  6 28  1  0
  7 29  1  0
 12 30  1  0
 13 31  1  0
 14 32  1  0
 17 33  1  0
 18 34  1  0
 25 35  1  0
 26 36  1  0
 27 37  1  0
M  END
>  <smiles>  (31) 
FC(F)(F)c1ccc(N=c2nc[nH]cc2-c2ccnc(C(F)(F)F)c2)cc1

>  <score_type>  (31) 
oracle

>  <origin>  (31) 
adg

>  <m_score__min__energy>  (31) 
-7.5800000000000001

>  <m_primary>  (31) 
energy

$$$$
31:0
     RDKit          3D

 47 49  0  0  0  0  0  0  0  0999 V2000
   -9.1680   19.9380  -32.3440 C   0  0  0  0  0  0  0  0  0  0  0  0
   -8.5970   18.5580  -32.0100 C   0  0  0  0  0  0  0  0  0  0  0  0
   -7.1380   18.4980  -32.2510 N   0  0  0  0  0  0  0  0  0  0  0  0
   -6.4670   17.7060  -31.2040 C   0  0  0  0  0  0  0  0  0  0  0  0
   -6.8520   17.9210  -33.5860 C   0  0  0  0  0  0  0  0  0  0  0  0
   -5.9550   18.8570  -34.4090 C   0  0  0  0  0  0  0  0  0  0  0  0
   -4.8100   19.3320  -33.6160 N   0  0  0  0  0  0  0  0  0  0  0  0
   -3.5770   18.5320  -33.5960 C   0  0  0  0  0  0  0  0  0  0  0  0
   -2.3740   19.4170  -33.7320 C   0  0  0  0  0  0  0  0  0  0  0  0
   -1.3490   18.9830  -34.3230 O   0  0  0  0  0  0  0  0  0  0  0  0
   -2.3800   20.7280  -33.1350 N   0  0  0  0  0  0  0  0  0  0  0  0
   -1.1550   21.5400  -33.1160 C   0  0  0  0  0  0  0  0  0  0  0  0
   -0.5220   21.5120  -31.7300 C   0  0  0  0  0  0  0  0  0  0  0  0
   -3.6280   21.2680  -32.6530 C   0  0  0  0  0  0  0  0  0  0  0  0
   -3.6540   22.4520  -31.9850 N   0  0  0  0  0  0  0  0  0  0  0  0
   -4.8150   22.9870  -31.5300 C   0  0  0  0  0  0  0  0  0  0  0  0
   -4.8120   24.2050  -30.8400 C   0  0  0  0  0  0  0  0  0  0  0  0
   -6.0160   24.7410  -30.3710 C   0  0  0  0  0  0  0  0  0  0  0  0
   -7.2200   24.0630  -30.5880 C   0  0  0  0  0  0  0  0  0  0  0  0
   -7.2280   22.8460  -31.2780 C   0  0  0  0  0  0  0  0  0  0  0  0
   -6.0250   22.3020  -31.7540 C   0  0  0  0  0  0  0  0  0  0  0  0
   -6.0070   21.1190  -32.4300 N   0  0  0  0  0  0  0  0  0  0  0  0
   -4.8370   20.5830  -32.8900 C   0  0  0  0  0  0  0  0  0  0  0  0
   -9.3913   20.4778  -31.4119 H   0  0  0  0  0  0  0  0  0  0  0  0
   -8.4316   20.5075  -32.9301 H   0  0  0  0  0  0  0  0  0  0  0  0
  -10.0914   19.8207  -32.9301 H   0  0  0  0  0  0  0  0  0  0  0  0
   -8.7929   18.3378  -30.9502 H   0  0  0  0  0  0  0  0  0  0  0  0
   -9.0837   17.8178  -32.6621 H   0  0  0  0  0  0  0  0  0  0  0  0
   -6.7762   18.0710  -30.2134 H   0  0  0  0  0  0  0  0  0  0  0  0
   -6.7474   16.6475  -31.3087 H   0  0  0  0  0  0  0  0  0  0  0  0
   -5.3768   17.8086  -31.3087 H   0  0  0  0  0  0  0  0  0  0  0  0
   -6.3425   16.9545  -33.4586 H   0  0  0  0  0  0  0  0  0  0  0  0
   -7.8036   17.7871  -34.1213 H   0  0  0  0  0  0  0  0  0  0  0  0
   -5.5808   18.3131  -35.2888 H   0  0  0  0  0  0  0  0  0  0  0  0
   -6.5512   19.7290  -34.7159 H   0  0  0  0  0  0  0  0  0  0  0  0
   -3.5170   17.9833  -32.6445 H   0  0  0  0  0  0  0  0  0  0  0  0
   -3.5969   17.8268  -34.4400 H   0  0  0  0  0  0  0  0  0  0  0  0
   -0.4410   21.1364  -33.8490 H   0  0  0  0  0  0  0  0  0  0  0  0
   -1.4110   22.5790  -33.3710 H   0  0  0  0  0  0  0  0  0  0  0  0
   -1.3120   21.5469  -30.9653 H   0  0  0  0  0  0  0  0  0  0  0  0
    0.0617   20.5872  -31.6121 H   0  0  0  0  0  0  0  0  0  0  0  0
    0.1411   22.3817  -31.6121 H   0  0  0  0  0  0  0  0  0  0  0  0
   -3.8659   24.7389  -30.6672 H   0  0  0  0  0  0  0  0  0  0  0  0
   -6.0159   25.6987  -29.8299 H   0  0  0  0  0  0  0  0  0  0  0  0
   -8.1635   24.4880  -30.2150 H   0  0  0  0  0  0  0  0  0  0  0  0
   -8.1767   22.3157  -31.4474 H   0  0  0  0  0  0  0  0  0  0  0  0
   -6.9060   20.6160  -32.5750 H   0  0  0  0  0  0  0  0  0  0  0  0
  1  2  1  0
  2  3  1  0
  3  4  1  0
  3  5  1  0
  5  6  1  0
  6  7  1  0
  7  8  1  0
  8  9  1  0
  9 10  2  0
  9 11  1  0
 11 12  1  0
 12 13  1  0
 11 14  1  0
 14 15  2  0
 15 16  1  0
 16 17  2  0
 17 18  1  0
 18 19  2  0
 19 20  1  0
 20 21  2  0
 21 22  1  0
 22 23  2  0
 23  7  1  0
 23 14  1  0
 21 16  1  0
  1 24  1  0
  1 25  1  0
  1 26  1  0
  2 27  1  0
  2 28  1  0
  4 29  1  0
  4 30  1  0
  4 31  1  0
  5 32  1  0
  5 33  1  0
  6 34  1  0
  6 35  1  0
  8 36  1  0
  8 37  1  0
 12 38  1  0
 12 39  1  0
 13 40  1  0
 13 41  1  0
 13 42  1  0
 17 43  1  0
 18 44  1  0
 19 45  1  0
 20 46  1  0
 22 47  1  0
M  CHG  1  22   1
M  END
>  <UniqueID>  (32) 
31

>  <SMILES>  (32) 
CCN(C)CCN1CC(=O)N(CC)c2nc3ccccc3[nH+]c21

>  <Energy>  (32) 
50.03742338454653

>  <Genealogy>  (32) 
CCN(C)CCN1CC(=O)N(CC)c2nc3ccccc3[nH+]c21 (protonated)
CCN(C)CCN1CC(=O)N(CC)c2nc3ccccc3[nH+]c21 (3D coordinates assigned)
CCN(C)CCN1CC(=O)N(CC)c2nc3ccccc3[nH+]c21 (nonaromatic ring conformer: 50.03742338454653 kcal/mol)

>  <smiles>  (32) 
CCN(C)CCN1CC(=O)N(CC)c2nc3ccccc3nc21

>  <score_type>  (32) 
oracle

>  <origin>  (32) 
adg

>  <m_score__min__energy>  (32) 
-6.8099999999999996

>  <m_primary>  (32) 
energy

$$$$
32:0
     RDKit          3D

 38 38  0  0  0  0  0  0  0  0999 V2000
   -5.7080   25.3050  -30.6210 C   0  0  0  0  0  0  0  0  0  0  0  0
   -5.3670   24.1440  -31.3730 O   0  0  0  0  0  0  0  0  0  0  0  0
   -6.2310   23.0630  -31.6140 C   0  0  0  0  0  0  0  0  0  0  0  0
   -7.6240   23.2510  -31.7300 C   0  0  0  0  0  0  0  0  0  0  0  0
   -8.4720   22.1650  -31.9450 C   0  0  0  0  0  0  0  0  0  0  0  0
   -7.9480   20.8780  -32.0490 C   0  0  0  0  0  0  0  0  0  0  0  0
   -9.1130   19.3940  -32.3420 Br  0  0  0  0  0  0  0  0  0  0  0  0
   -6.5700   20.6740  -31.9420 C   0  0  0  0  0  0  0  0  0  0  0  0
   -5.6960   21.7570  -31.7250 C   0  0  0  0  0  0  0  0  0  0  0  0
   -4.2280   21.5180  -31.6150 C   0  0  0  0  0  0  0  0  0  0  0  0
   -3.7940   20.3500  -31.4250 O   0  0  0  0  0  0  0  0  0  0  0  0
   -3.2320   22.6430  -31.6980 C   0  0  0  0  0  0  0  0  0  0  0  0
   -2.5100   22.7750  -30.4750 O   0  0  0  0  0  0  0  0  0  0  0  0
   -2.8600   23.6850  -29.4720 C   0  0  0  0  0  0  0  0  0  0  0  0
   -2.9260   24.9210  -29.7160 O   0  0  0  0  0  0  0  0  0  0  0  0
   -3.1280   23.1850  -28.0870 C   0  0  0  0  0  0  0  0  0  0  0  0
   -2.1410   23.7770  -27.0770 C   0  0  0  0  0  0  0  0  0  0  0  0
   -2.2940   25.2330  -27.0010 N   0  0  0  0  0  0  0  0  0  0  0  0
   -0.8700   26.0150  -27.6230 S   0  0  0  0  0  0  0  0  0  0  0  0
   -0.2200   27.1800  -26.4420 C   0  0  0  0  0  0  0  0  0  0  0  0
   -1.1990   26.7300  -28.9030 O   0  0  0  0  0  0  0  0  0  0  0  0
    0.1750   24.9720  -27.9000 O   0  0  0  0  0  0  0  0  0  0  0  0
   -5.6415   25.0786  -29.5466 H   0  0  0  0  0  0  0  0  0  0  0  0
   -5.0112   26.1195  -30.8679 H   0  0  0  0  0  0  0  0  0  0  0  0
   -6.7346   25.6133  -30.8679 H   0  0  0  0  0  0  0  0  0  0  0  0
   -8.0455   24.2639  -31.6501 H   0  0  0  0  0  0  0  0  0  0  0  0
   -9.5568   22.3247  -32.0327 H   0  0  0  0  0  0  0  0  0  0  0  0
   -6.1629   19.6558  -32.0282 H   0  0  0  0  0  0  0  0  0  0  0  0
   -2.5236   22.4373  -32.5140 H   0  0  0  0  0  0  0  0  0  0  0  0
   -3.7756   23.5802  -31.8881 H   0  0  0  0  0  0  0  0  0  0  0  0
   -4.1503   23.4682  -27.7961 H   0  0  0  0  0  0  0  0  0  0  0  0
   -3.0097   22.0914  -28.0855 H   0  0  0  0  0  0  0  0  0  0  0  0
   -2.3326   23.3408  -26.0855 H   0  0  0  0  0  0  0  0  0  0  0  0
   -1.1165   23.5439  -27.4028 H   0  0  0  0  0  0  0  0  0  0  0  0
   -3.0840   25.5150  -27.6250 H   0  0  0  0  0  0  0  0  0  0  0  0
   -0.4212   26.8194  -25.4224 H   0  0  0  0  0  0  0  0  0  0  0  0
    0.8656   27.2823  -26.5872 H   0  0  0  0  0  0  0  0  0  0  0  0
   -0.7031   28.1575  -26.5872 H   0  0  0  0  0  0  0  0  0  0  0  0
  1  2  1  0
  2  3  1  0
  3  4  2  0
  4  5  1  0
  5  6  2  0
  6  7  1  0
  6  8  1  0
  8  9  2  0
  9 10  1  0
 10 11  2  0
 10 12  1  0
 12 13  1  0
 13 14  1  0
 14 15  2  0
 14 16  1  0
 16 17  1  0
 17 18  1  0
 18 19  1  0
 19 20  1  0
 19 21  2  0
 19 22  2  0
  9  3  1  0
  1 23  1  0
  1 24  1  0
  1 25  1  0
  4 26  1  0
  5 27  1  0
  8 28  1  0
 12 29  1  0
 12 30  1  0
 16 31  1  0
 16 32  1  0
 17 33  1  0
 17 34  1  0
 18 35  1  0
 20 36  1  0
 20 37  1  0
 20 38  1  0
M  END
>  <UniqueID>  (33) 
32

>  <SMILES>  (33) 
COc1ccc(Br)cc1C(=O)COC(=O)CCNS(C)(=O)=O

>  <Energy>  (33) 
26.28872457550606

>  <Genealogy>  (33) 
COc1ccc(Br)cc1C(=O)COC(=O)CCNS(C)(=O)=O (3D coordinates assigned)
COc1ccc(Br)cc1C(=O)COC(=O)CCNS(C)(=O)=O (optimized conformer: 26.28872457550606 kcal/mol)

>  <smiles>  (33) 
COc1ccc(Br)cc1C(=O)COC(=O)CCNS(C)(=O)=O

>  <score_type>  (33) 
oracle

>  <origin>  (33) 
adg

>  <m_score__min__energy>  (33) 
-8.3300000000000001

>  <m_primary>  (33) 
energy

$$$$
33:0
     RDKit          3D

 38 39  0  0  0  0  0  0  0  0999 V2000
    0.2440   19.0320  -28.9230 C   0  0  0  0  0  0  0  0  0  0  0  0
   -0.7410   19.2110  -27.7630 C   0  0  0  0  0  0  0  0  0  0  0  0
   -1.6930   20.3430  -27.9170 N   0  0  0  0  0  0  0  0  0  0  0  0
   -2.9820   20.1340  -27.1930 C   0  0  0  0  0  0  0  0  0  0  0  0
   -3.0790   18.8530  -26.3470 C   0  0  0  0  0  0  0  0  0  0  0  0
   -1.0440   21.6640  -27.7040 C   0  0  0  0  0  0  0  0  0  0  0  0
   -0.7930   22.4140  -29.0270 C   0  0  0  0  0  0  0  0  0  0  0  0
   -2.0450   23.0350  -29.5140 N   0  0  0  0  0  0  0  0  0  0  0  0
   -2.2960   24.3820  -29.3440 C   0  0  0  0  0  0  0  0  0  0  0  0
   -1.2380   25.3870  -28.5880 S   0  0  0  0  0  0  0  0  0  0  0  0
   -3.4450   24.9290  -29.8150 N   0  0  0  0  0  0  0  0  0  0  0  0
   -4.3720   24.1920  -30.4700 C   0  0  0  0  0  0  0  0  0  0  0  0
   -5.5450   24.7970  -30.9370 C   0  0  0  0  0  0  0  0  0  0  0  0
   -6.4990   24.0370  -31.6200 C   0  0  0  0  0  0  0  0  0  0  0  0
   -6.2830   22.6740  -31.8390 C   0  0  0  0  0  0  0  0  0  0  0  0
   -5.1130   22.0650  -31.3760 C   0  0  0  0  0  0  0  0  0  0  0  0
   -4.1480   22.8220  -30.6840 C   0  0  0  0  0  0  0  0  0  0  0  0
   -2.9560   22.2590  -30.1970 C   0  0  0  0  0  0  0  0  0  0  0  0
   -2.7240   21.0330  -30.3970 O   0  0  0  0  0  0  0  0  0  0  0  0
    1.2522   18.8488  -28.5230 H   0  0  0  0  0  0  0  0  0  0  0  0
   -0.0671   18.1757  -29.5394 H   0  0  0  0  0  0  0  0  0  0  0  0
    0.2541   19.9430  -29.5394 H   0  0  0  0  0  0  0  0  0  0  0  0
   -1.3255   18.2843  -27.6653 H   0  0  0  0  0  0  0  0  0  0  0  0
   -0.1329   19.4389  -26.8752 H   0  0  0  0  0  0  0  0  0  0  0  0
   -1.9440   20.3080  -28.9350 H   0  0  0  0  0  0  0  0  0  0  0  0
   -3.1348   20.9927  -26.5226 H   0  0  0  0  0  0  0  0  0  0  0  0
   -3.7488   20.0322  -27.9751 H   0  0  0  0  0  0  0  0  0  0  0  0
   -3.0591   19.1164  -25.2792 H   0  0  0  0  0  0  0  0  0  0  0  0
   -4.0192   18.3311  -26.5784 H   0  0  0  0  0  0  0  0  0  0  0  0
   -2.2281   18.1954  -26.5784 H   0  0  0  0  0  0  0  0  0  0  0  0
   -1.6960   22.2796  -27.0669 H   0  0  0  0  0  0  0  0  0  0  0  0
   -0.0683   21.4861  -27.2283 H   0  0  0  0  0  0  0  0  0  0  0  0
   -0.0399   23.1985  -28.8616 H   0  0  0  0  0  0  0  0  0  0  0  0
   -0.4337   21.6976  -29.7805 H   0  0  0  0  0  0  0  0  0  0  0  0
   -5.7159   25.8702  -30.7665 H   0  0  0  0  0  0  0  0  0  0  0  0
   -7.4210   24.5127  -31.9855 H   0  0  0  0  0  0  0  0  0  0  0  0
   -7.0354   22.0787  -32.3770 H   0  0  0  0  0  0  0  0  0  0  0  0
   -4.9458   20.9922  -31.5526 H   0  0  0  0  0  0  0  0  0  0  0  0
  1  2  1  0
  2  3  1  0
  3  4  1  0
  4  5  1  0
  3  6  1  0
  6  7  1  0
  7  8  1  0
  8  9  1  0
  9 10  2  0
  9 11  1  0
 11 12  1  0
 12 13  2  0
 13 14  1  0
 14 15  2  0
 15 16  1  0
 16 17  2  0
 17 18  1  0
 18 19  2  0
 18  8  1  0
 17 12  1  0
  1 20  1  0
  1 21  1  0
  1 22  1  0
  2 23  1  0
  2 24  1  0
  3 25  1  0
  4 26  1  0
  4 27  1  0
  5 28  1  0
  5 29  1  0
  5 30  1  0
  6 31  1  0
  6 32  1  0
  7 33  1  0
  7 34  1  0
 13 35  1  0
 14 36  1  0
 15 37  1  0
 16 38  1  0
M  CHG  2   3   1  11  -1
M  END
>  <UniqueID>  (34) 
33

>  <SMILES>  (34) 
CC[NH+](CC)CCn1c(=S)[n-]c2ccccc2c1=O

>  <Energy>  (34) 
54.2203840233929

>  <Genealogy>  (34) 
CC[NH+](CC)CCn1c(=S)[n-]c2ccccc2c1=O (protonated)
CC[NH+](CC)CCn1c(=S)[n-]c2ccccc2c1=O (3D coordinates assigned)
CC[NH+](CC)CCn1c(=S)[n-]c2ccccc2c1=O (optimized conformer: 54.2203840233929 kcal/mol)

>  <smiles>  (34) 
CCN(CC)CCn1c(=S)[nH]c2ccccc2c1=O

>  <score_type>  (34) 
oracle

>  <origin>  (34) 
adg

>  <m_score__min__energy>  (34) 
-6.2300000000000004

>  <m_primary>  (34) 
energy

$$$$
34:0
     RDKit          3D

 25 27  0  0  0  0  0  0  0  0999 V2000
  -10.0966   19.8150  -31.2130 H   0  0  0  0  0  0  0  0  0  0  0  0
   -9.0800   19.7640  -31.6300 C   0  0  0  0  0  0  0  0  0  0  0  0
   -8.3920   20.9100  -31.8860 N   0  0  0  0  0  0  0  0  0  0  0  0
   -7.1210   20.8900  -32.3810 C   0  0  0  0  0  0  0  0  0  0  0  0
   -6.4480   22.1100  -32.7150 N   0  0  0  0  0  0  0  0  0  0  0  0
   -5.6190   22.8100  -31.9860 C   0  0  0  0  0  0  0  0  0  0  0  0
   -4.2350   22.5020  -32.0080 C   0  0  0  0  0  0  0  0  0  0  0  0
   -3.7230   21.4400  -32.8400 C   0  0  0  0  0  0  0  0  0  0  0  0
   -3.3130   20.5870  -33.5080 N   0  0  0  0  0  0  0  0  0  0  0  0
   -3.3310   23.2460  -31.2200 C   0  0  0  0  0  0  0  0  0  0  0  0
   -2.2555   23.0173  -31.2529 H   0  0  0  0  0  0  0  0  0  0  0  0
   -3.7900   24.2470  -30.4190 N   0  0  0  0  0  0  0  0  0  0  0  0
   -5.0920   24.5100  -30.4040 N   0  0  0  0  0  0  0  0  0  0  0  0
   -5.7750   25.3790  -29.6530 C   0  0  0  0  0  0  0  0  0  0  0  0
   -5.3357   26.0932  -28.9410 H   0  0  0  0  0  0  0  0  0  0  0  0
   -7.0920   25.2370  -29.9110 N   0  0  0  0  0  0  0  0  0  0  0  0
   -7.8720   25.7710  -29.4700 H   0  0  0  0  0  0  0  0  0  0  0  0
   -7.2510   24.2790  -30.8200 N   0  0  0  0  0  0  0  0  0  0  0  0
   -6.0080   23.8500  -31.1220 C   0  0  0  0  0  0  0  0  0  0  0  0
   -6.5210   19.6650  -32.6930 C   0  0  0  0  0  0  0  0  0  0  0  0
   -5.5153   19.6372  -33.1377 H   0  0  0  0  0  0  0  0  0  0  0  0
   -7.2100   18.4780  -32.4350 C   0  0  0  0  0  0  0  0  0  0  0  0
   -6.7395   17.5086  -32.6561 H   0  0  0  0  0  0  0  0  0  0  0  0
   -8.4970   18.5240  -31.8960 C   0  0  0  0  0  0  0  0  0  0  0  0
   -9.0450   17.5942  -31.6835 H   0  0  0  0  0  0  0  0  0  0  0  0
  1  2  1  0
  2  3  2  0
  3  4  1  0
  4  5  1  0
  5  6  2  0
  6  7  1  0
  7  8  1  0
  8  9  3  0
  7 10  2  0
 10 11  1  0
 10 12  1  0
 12 13  1  0
 13 14  1  0
 14 15  1  0
 14 16  2  0
 16 17  1  0
 16 18  1  0
 18 19  2  0
  4 20  2  0
 20 21  1  0
 20 22  1  0
 22 23  1  0
 22 24  2  0
 24 25  1  0
 24  2  1  0
 19  6  1  0
 19 13  1  0
M  CHG  2  12  -1  16   1
M  END
>  <UniqueID>  (35) 
34

>  <SMILES>  (35) 
N#Cc1c[n-]n2c[nH+]nc2/c1=N\c1ccccn1

>  <Energy>  (35) 
82.59555445974819

>  <Genealogy>  (35) 
N#Cc1c[n-]n2c[nH+]nc2c1=Nc1ccccn1 (protonated)
N#Cc1c[n-]n2c[nH+]nc2/c1=N\c1ccccn1 (cis-trans isomerization)
N#Cc1c[n-]n2c[nH+]nc2/c1=N\c1ccccn1 (3D coordinates assigned)
N#Cc1c[n-]n2c[nH+]nc2/c1=N\c1ccccn1 (optimized conformer: 82.59555445974819 kcal/mol)

>  <smiles>  (35) 
N#Cc1c[nH]n2cnnc2c1=Nc1ccccn1

>  <score_type>  (35) 
oracle

>  <origin>  (35) 
adg

>  <m_score__min__energy>  (35) 
-6.3200000000000003

>  <m_primary>  (35) 
energy

$$$$
35:0
     RDKit          3D

 43 44  0  0  0  0  0  0  0  0999 V2000
   -4.0290   21.2430  -33.0960 C   0  0  0  0  0  0  0  0  0  0  0  0
   -5.0310   22.1810  -32.7180 O   0  0  0  0  0  0  0  0  0  0  0  0
   -6.2960   21.8330  -32.2140 C   0  0  0  0  0  0  0  0  0  0  0  0
   -6.8010   20.5240  -32.3000 C   0  0  0  0  0  0  0  0  0  0  0  0
   -8.0680   20.2190  -31.7870 C   0  0  0  0  0  0  0  0  0  0  0  0
   -8.6370   18.8400  -31.9370 C   0  0  0  0  0  0  0  0  0  0  0  0
   -8.8280   21.2430  -31.2120 C   0  0  0  0  0  0  0  0  0  0  0  0
   -8.3290   22.5040  -31.1390 N   0  0  0  0  0  0  0  0  0  0  0  0
   -7.0920   22.8240  -31.6090 C   0  0  0  0  0  0  0  0  0  0  0  0
   -6.6400   24.2550  -31.5410 C   0  0  0  0  0  0  0  0  0  0  0  0
   -5.4750   24.4850  -30.2040 S   0  0  0  0  0  0  0  0  0  0  0  0
   -5.4860   23.2670  -29.3260 O   0  0  0  0  0  0  0  0  0  0  0  0
   -5.8740   25.6810  -29.3850 O   0  0  0  0  0  0  0  0  0  0  0  0
   -3.8740   24.6990  -30.8430 N   0  0  0  0  0  0  0  0  0  0  0  0
   -3.0750   23.4920  -30.6460 C   0  0  0  0  0  0  0  0  0  0  0  0
   -2.5110   23.4470  -29.2240 C   0  0  0  0  0  0  0  0  0  0  0  0
   -2.9970   24.5720  -28.4180 N   0  0  0  0  0  0  0  0  0  0  0  0
   -2.2320   25.2580  -27.4060 C   0  0  0  0  0  0  0  0  0  0  0  0
   -0.9900   25.8180  -27.7520 C   0  0  0  0  0  0  0  0  0  0  0  0
   -0.2210   26.4930  -26.7990 C   0  0  0  0  0  0  0  0  0  0  0  0
   -0.6840   26.6170  -25.4880 C   0  0  0  0  0  0  0  0  0  0  0  0
   -1.9140   26.0650  -25.1270 C   0  0  0  0  0  0  0  0  0  0  0  0
   -2.6850   25.3880  -26.0770 C   0  0  0  0  0  0  0  0  0  0  0  0
   -3.5699   20.8132  -32.1935 H   0  0  0  0  0  0  0  0  0  0  0  0
   -4.4852   20.4398  -33.6933 H   0  0  0  0  0  0  0  0  0  0  0  0
   -3.2576   21.7512  -33.6933 H   0  0  0  0  0  0  0  0  0  0  0  0
   -6.1978   19.7349  -32.7728 H   0  0  0  0  0  0  0  0  0  0  0  0
   -8.8157   18.4068  -30.9418 H   0  0  0  0  0  0  0  0  0  0  0  0
   -9.5866   18.8933  -32.4896 H   0  0  0  0  0  0  0  0  0  0  0  0
   -7.9261   18.2081  -32.4896 H   0  0  0  0  0  0  0  0  0  0  0  0
   -9.8320   21.0264  -30.8181 H   0  0  0  0  0  0  0  0  0  0  0  0
   -6.1577   24.5272  -32.4914 H   0  0  0  0  0  0  0  0  0  0  0  0
   -7.5163   24.8952  -31.3615 H   0  0  0  0  0  0  0  0  0  0  0  0
   -3.7081   22.6080  -30.8122 H   0  0  0  0  0  0  0  0  0  0  0  0
   -2.2382   23.4996  -31.3599 H   0  0  0  0  0  0  0  0  0  0  0  0
   -2.8197   22.5053  -28.7465 H   0  0  0  0  0  0  0  0  0  0  0  0
   -1.4147   23.5137  -29.2849 H   0  0  0  0  0  0  0  0  0  0  0  0
   -3.9730   24.8970  -28.6090 H   0  0  0  0  0  0  0  0  0  0  0  0
   -0.6191   25.7242  -28.7833 H   0  0  0  0  0  0  0  0  0  0  0  0
    0.7494   26.9265  -27.0826 H   0  0  0  0  0  0  0  0  0  0  0  0
   -0.0794   27.1498  -24.7393 H   0  0  0  0  0  0  0  0  0  0  0  0
   -2.2775   26.1627  -24.0934 H   0  0  0  0  0  0  0  0  0  0  0  0
   -3.6525   24.9534  -25.7853 H   0  0  0  0  0  0  0  0  0  0  0  0
  1  2  1  0
  2  3  1  0
  3  4  2  0
  4  5  1  0
  5  6  1  0
  5  7  2  0
  7  8  1  0
  8  9  2  0
  9 10  1  0
 10 11  1  0
 11 12  2  0
 11 13  2  0
 11 14  1  0
 14 15  1  0
 15 16  1  0
 16 17  1  0
 17 18  1  0
 18 19  2  0
 19 20  1  0
 20 21  2  0
 21 22  1  0
 22 23  2  0
  9  3  1  0
 23 18  1  0
  1 24  1  0
  1 25  1  0
  1 26  1  0
  4 27  1  0
  6 28  1  0
  6 29  1  0
  6 30  1  0
  7 31  1  0
 10 32  1  0
 10 33  1  0
 15 34  1  0
 15 35  1  0
 16 36  1  0
 16 37  1  0
 17 38  1  0
 19 39  1  0
 20 40  1  0
 21 41  1  0
 22 42  1  0
 23 43  1  0
M  CHG  1  14  -1
M  END
>  <UniqueID>  (36) 
35

>  <SMILES>  (36) 
COc1cc(C)cnc1CS(=O)(=O)[N-]CCNc1ccccc1

>  <Energy>  (36) 
31.59628647866706

>  <Genealogy>  (36) 
COc1cc(C)cnc1CS(=O)(=O)[N-]CCNc1ccccc1 (protonated)
COc1cc(C)cnc1CS(=O)(=O)[N-]CCNc1ccccc1 (3D coordinates assigned)
COc1cc(C)cnc1CS(=O)(=O)[N-]CCNc1ccccc1 (optimized conformer: 31.59628647866706 kcal/mol)

>  <smiles>  (36) 
COc1cc(C)cnc1CS(=O)(=O)NCCNc1ccccc1

>  <score_type>  (36) 
oracle

>  <origin>  (36) 
adg

>  <m_score__min__energy>  (36) 
-9.5

>  <m_primary>  (36) 
energy

$$$$
36:0
     RDKit          3D

 52 54  0  0  0  0  0  0  0  0999 V2000
   -0.8670   22.0600  -25.9840 C   0  0  0  0  0  0  0  0  0  0  0  0
    0.1330   23.1200  -26.4290 C   0  0  0  0  0  0  0  0  0  0  0  0
    0.1390   24.2900  -25.4850 C   0  0  0  0  0  0  0  0  0  0  0  0
    1.0290   24.3830  -24.4750 N   0  0  0  0  0  0  0  0  0  0  0  0
    0.7830   25.5270  -23.8630 N   0  0  0  0  0  0  0  0  0  0  0  0
   -0.2400   26.1280  -24.4930 C   0  0  0  0  0  0  0  0  0  0  0  0
   -0.8070   27.4500  -24.0710 C   0  0  0  0  0  0  0  0  0  0  0  0
   -0.6810   25.3770  -25.5290 N   0  0  0  0  0  0  0  0  0  0  0  0
   -1.8070   25.6920  -26.4330 C   0  0  0  0  0  0  0  0  0  0  0  0
   -3.1640   25.3300  -25.7940 C   0  0  0  0  0  0  0  0  0  0  0  0
   -4.1510   24.8050  -26.8240 C   0  0  0  0  0  0  0  0  0  0  0  0
   -3.5630   23.6170  -27.4510 N   0  0  0  0  0  0  0  0  0  0  0  0
   -4.5910   22.8110  -28.1400 C   0  0  0  0  0  0  0  0  0  0  0  0
   -4.5490   23.0630  -29.6190 C   0  0  0  0  0  0  0  0  0  0  0  0
   -4.0830   22.2040  -30.5920 C   0  0  0  0  0  0  0  0  0  0  0  0
   -4.3540   22.7480  -31.7950 N   0  0  0  0  0  0  0  0  0  0  0  0
   -4.1090   22.1200  -33.0890 C   0  0  0  0  0  0  0  0  0  0  0  0
   -4.7820   20.7530  -33.1460 C   0  0  0  0  0  0  0  0  0  0  0  0
   -4.9950   23.8970  -31.6430 N   0  0  0  0  0  0  0  0  0  0  0  0
   -5.1220   24.1130  -30.3170 C   0  0  0  0  0  0  0  0  0  0  0  0
   -5.8260   25.2920  -29.7290 C   0  0  0  0  0  0  0  0  0  0  0  0
   -2.4540   23.9810  -28.3620 C   0  0  0  0  0  0  0  0  0  0  0  0
   -1.5620   25.1520  -27.8700 C   0  0  0  0  0  0  0  0  0  0  0  0
   -0.8998   22.0252  -24.8850 H   0  0  0  0  0  0  0  0  0  0  0  0
   -1.8649   22.3111  -26.3728 H   0  0  0  0  0  0  0  0  0  0  0  0
   -0.5583   21.0784  -26.3728 H   0  0  0  0  0  0  0  0  0  0  0  0
    1.1389   22.6757  -26.4565 H   0  0  0  0  0  0  0  0  0  0  0  0
   -0.1593   23.4784  -27.4271 H   0  0  0  0  0  0  0  0  0  0  0  0
    1.3120   25.8830  -23.0350 H   0  0  0  0  0  0  0  0  0  0  0  0
   -0.8306   27.5050  -22.9726 H   0  0  0  0  0  0  0  0  0  0  0  0
   -0.1778   28.2615  -24.4654 H   0  0  0  0  0  0  0  0  0  0  0  0
   -1.8287   27.5535  -24.4654 H   0  0  0  0  0  0  0  0  0  0  0  0
   -1.8618   26.7818  -26.5720 H   0  0  0  0  0  0  0  0  0  0  0  0
   -3.0022   24.5562  -25.0291 H   0  0  0  0  0  0  0  0  0  0  0  0
   -3.5870   26.2430  -25.3495 H   0  0  0  0  0  0  0  0  0  0  0  0
   -5.0975   24.5373  -26.3315 H   0  0  0  0  0  0  0  0  0  0  0  0
   -4.3574   25.5746  -27.5823 H   0  0  0  0  0  0  0  0  0  0  0  0
   -4.4035   21.7441  -27.9486 H   0  0  0  0  0  0  0  0  0  0  0  0
   -5.5825   23.0950  -27.7577 H   0  0  0  0  0  0  0  0  0  0  0  0
   -3.5782   21.2425  -30.4168 H   0  0  0  0  0  0  0  0  0  0  0  0
   -4.5164   22.7592  -33.8862 H   0  0  0  0  0  0  0  0  0  0  0  0
   -3.0251   21.9928  -33.2271 H   0  0  0  0  0  0  0  0  0  0  0  0
   -4.9610   20.3895  -32.1233 H   0  0  0  0  0  0  0  0  0  0  0  0
   -5.7411   20.8384  -33.6779 H   0  0  0  0  0  0  0  0  0  0  0  0
   -4.1295   20.0450  -33.6779 H   0  0  0  0  0  0  0  0  0  0  0  0
   -5.7895   25.2309  -28.6313 H   0  0  0  0  0  0  0  0  0  0  0  0
   -5.3323   26.2171  -30.0614 H   0  0  0  0  0  0  0  0  0  0  0  0
   -6.8746   25.2962  -30.0614 H   0  0  0  0  0  0  0  0  0  0  0  0
   -1.8144   23.0957  -28.4925 H   0  0  0  0  0  0  0  0  0  0  0  0
   -2.9221   24.3216  -29.2974 H   0  0  0  0  0  0  0  0  0  0  0  0
   -0.5169   24.8124  -27.9197 H   0  0  0  0  0  0  0  0  0  0  0  0
   -1.8179   25.9934  -28.5308 H   0  0  0  0  0  0  0  0  0  0  0  0
  1  2  1  0
  2  3  1  0
  3  4  2  0
  4  5  1  0
  5  6  2  0
  6  7  1  0
  6  8  1  0
  8  9  1  0
  9 10  1  0
 10 11  1  0
 11 12  1  0
 12 13  1  0
 13 14  1  0
 14 15  2  0
 15 16  1  0
 16 17  1  0
 17 18  1  0
 16 19  1  0
 19 20  2  0
 20 21  1  0
 12 22  1  0
 22 23  1  0
  8  3  1  0
 23  9  1  0
 20 14  1  0
  1 24  1  0
  1 25  1  0
  1 26  1  0
  2 27  1  0
  2 28  1  0
  5 29  1  0
  7 30  1  0
  7 31  1  0
  7 32  1  0
  9 33  1  0
 10 34  1  0
 10 35  1  0
 11 36  1  0
 11 37  1  0
 13 38  1  0
 13 39  1  0
 15 40  1  0
 17 41  1  0
 17 42  1  0
 18 43  1  0
 18 44  1  0
 18 45  1  0
 21 46  1  0
 21 47  1  0
 21 48  1  0
 22 49  1  0
 22 50  1  0
 23 51  1  0
 23 52  1  0
M  CHG  1   5   1
M  END
>  <UniqueID>  (37) 
36

>  <SMILES>  (37) 
CCc1n[nH+]c(C)n1C1CCN(Cc2cn(CC)nc2C)CC1

>  <Energy>  (37) 
118.60157239660144

>  <Genealogy>  (37) 
CCc1n[nH+]c(C)n1C1CCN(Cc2cn(CC)nc2C)CC1 (protonated)
CCc1n[nH+]c(C)n1C1CCN(Cc2cn(CC)nc2C)CC1 (3D coordinates assigned)
CCc1n[nH+]c(C)n1C1CCN(Cc2cn(CC)nc2C)CC1 (nonaromatic ring conformer: 118.60157239660144 kcal/mol)

>  <smiles>  (37) 
CCc1nnc(C)n1C1CCN(Cc2cn(CC)nc2C)CC1

>  <score_type>  (37) 
oracle

>  <origin>  (37) 
adg

>  <m_score__min__energy>  (37) 
-7.2999999999999998

>  <m_primary>  (37) 
energy

$$$$
37:0
     RDKit          3D

 29 31  0  0  0  0  0  0  0  0999 V2000
   -4.4670   25.2800  -31.2120 O   0  0  0  0  0  0  0  0  0  0  0  0
   -5.1130   24.2570  -30.3210 S   0  0  0  0  0  0  0  0  0  0  0  0
   -5.8150   24.9340  -29.1780 O   0  0  0  0  0  0  0  0  0  0  0  0
   -3.9340   23.1540  -29.6990 N   0  0  0  0  0  0  0  0  0  0  0  0
   -3.4910   22.1550  -30.4060 C   0  0  0  0  0  0  0  0  0  0  0  0
   -2.6550   21.1520  -29.8090 N   0  0  0  0  0  0  0  0  0  0  0  0
   -2.0410   21.2720  -28.5140 C   0  0  0  0  0  0  0  0  0  0  0  0
   -1.3360   22.4430  -28.1930 C   0  0  0  0  0  0  0  0  0  0  0  0
   -0.7490   22.5910  -26.9320 C   0  0  0  0  0  0  0  0  0  0  0  0
   -0.8760   21.5790  -25.9770 C   0  0  0  0  0  0  0  0  0  0  0  0
   -1.5960   20.4210  -26.2780 C   0  0  0  0  0  0  0  0  0  0  0  0
   -2.1840   20.2680  -27.5380 C   0  0  0  0  0  0  0  0  0  0  0  0
   -3.9320   21.9880  -32.1530 S   0  0  0  0  0  0  0  0  0  0  0  0
   -5.7100   22.1350  -31.9010 C   0  0  0  0  0  0  0  0  0  0  0  0
   -6.5780   21.1840  -32.4500 C   0  0  0  0  0  0  0  0  0  0  0  0
   -7.9620   21.3580  -32.3450 C   0  0  0  0  0  0  0  0  0  0  0  0
   -8.4810   22.4790  -31.6880 C   0  0  0  0  0  0  0  0  0  0  0  0
   -7.6170   23.4200  -31.1160 C   0  0  0  0  0  0  0  0  0  0  0  0
   -6.2310   23.2480  -31.2220 C   0  0  0  0  0  0  0  0  0  0  0  0
   -2.5600   20.2440  -30.3150 H   0  0  0  0  0  0  0  0  0  0  0  0
   -1.2448   23.2481  -28.9369 H   0  0  0  0  0  0  0  0  0  0  0  0
   -0.1866   23.5054  -26.6919 H   0  0  0  0  0  0  0  0  0  0  0  0
   -0.4087   21.6945  -24.9879 H   0  0  0  0  0  0  0  0  0  0  0  0
   -1.7010   19.6279  -25.5231 H   0  0  0  0  0  0  0  0  0  0  0  0
   -2.7604   19.3595  -27.7669 H   0  0  0  0  0  0  0  0  0  0  0  0
   -6.1720   20.3002  -32.9638 H   0  0  0  0  0  0  0  0  0  0  0  0
   -8.6436   20.6121  -32.7798 H   0  0  0  0  0  0  0  0  0  0  0  0
   -9.5697   22.6210  -31.6209 H   0  0  0  0  0  0  0  0  0  0  0  0
   -8.0254   24.2923  -30.5846 H   0  0  0  0  0  0  0  0  0  0  0  0
  1  2  2  0
  2  3  2  0
  2  4  1  0
  4  5  2  0
  5  6  1  0
  6  7  1  0
  7  8  2  0
  8  9  1  0
  9 10  2  0
 10 11  1  0
 11 12  2  0
  5 13  1  0
 13 14  1  0
 14 15  2  0
 15 16  1  0
 16 17  2  0
 17 18  1  0
 18 19  2  0
 19  2  1  0
 12  7  1  0
 19 14  1  0
  6 20  1  0
  8 21  1  0
  9 22  1  0
 10 23  1  0
 11 24  1  0
 12 25  1  0
 15 26  1  0
 16 27  1  0
 17 28  1  0
 18 29  1  0
M  END
>  <UniqueID>  (38) 
37

>  <SMILES>  (38) 
O=S1(=O)N=C(Nc2ccccc2)Sc2ccccc21

>  <Energy>  (38) 
48.21310503734756

>  <Genealogy>  (38) 
O=S1(=O)N=C(Nc2ccccc2)Sc2ccccc21 (3D coordinates assigned)
O=S1(=O)N=C(Nc2ccccc2)Sc2ccccc21 (nonaromatic ring conformer: 48.21310503734756 kcal/mol)

>  <smiles>  (38) 
O=S1(=O)N=C(Nc2ccccc2)Sc2ccccc21

>  <score_type>  (38) 
oracle

>  <origin>  (38) 
adg

>  <m_score__min__energy>  (38) 
-7.5300000000000002

>  <m_primary>  (38) 
energy

$$$$
38:0
     RDKit          3D

 46 47  0  0  0  0  0  0  0  0999 V2000
   -5.8404   24.9343  -32.3518 H   0  0  0  0  0  0  0  0  0  0  0  0
   -6.0500   24.4280  -31.3980 C   0  0  0  0  0  0  0  0  0  0  0  0
   -5.0400   24.4820  -30.3290 C   0  0  0  0  0  0  0  0  0  0  0  0
   -3.9720   25.1390  -30.4790 O   0  0  0  0  0  0  0  0  0  0  0  0
   -5.2840   23.7930  -29.1390 O   0  0  0  0  0  0  0  0  0  0  0  0
   -4.4980   22.6860  -28.7120 C   0  0  0  0  0  0  0  0  0  0  0  0
   -3.9670   22.2658  -29.5789 H   0  0  0  0  0  0  0  0  0  0  0  0
   -5.1648   21.9326  -28.2673 H   0  0  0  0  0  0  0  0  0  0  0  0
   -3.4680   23.1190  -27.6510 C   0  0  0  0  0  0  0  0  0  0  0  0
   -2.5316   22.5760  -27.8466 H   0  0  0  0  0  0  0  0  0  0  0  0
   -3.9219   22.8846  -26.6768 H   0  0  0  0  0  0  0  0  0  0  0  0
   -3.1550   24.5760  -27.6160 N   0  0  0  0  0  0  0  0  0  0  0  0
   -3.8160   25.0200  -28.2990 H   0  0  0  0  0  0  0  0  0  0  0  0
   -1.7700   24.8490  -28.0880 C   0  0  0  0  0  0  0  0  0  0  0  0
   -1.1093   24.9323  -27.2125 H   0  0  0  0  0  0  0  0  0  0  0  0
   -1.7937   25.7831  -28.6685 H   0  0  0  0  0  0  0  0  0  0  0  0
   -1.2320   23.7450  -29.0060 C   0  0  0  0  0  0  0  0  0  0  0  0
   -0.8313   22.9228  -28.3949 H   0  0  0  0  0  0  0  0  0  0  0  0
   -2.0467   23.3666  -29.6409 H   0  0  0  0  0  0  0  0  0  0  0  0
   -0.4320   24.1535  -29.6409 H   0  0  0  0  0  0  0  0  0  0  0  0
   -3.4000   25.2120  -26.2940 C   0  0  0  0  0  0  0  0  0  0  0  0
   -4.0589   26.0806  -26.4402 H   0  0  0  0  0  0  0  0  0  0  0  0
   -3.8584   24.4518  -25.6444 H   0  0  0  0  0  0  0  0  0  0  0  0
   -2.1150   25.6850  -25.6070 C   0  0  0  0  0  0  0  0  0  0  0  0
   -2.2439   25.6376  -24.5156 H   0  0  0  0  0  0  0  0  0  0  0  0
   -1.2790   25.0357  -25.9061 H   0  0  0  0  0  0  0  0  0  0  0  0
   -1.8995   26.7214  -25.9061 H   0  0  0  0  0  0  0  0  0  0  0  0
   -7.2160   23.7840  -31.2510 C   0  0  0  0  0  0  0  0  0  0  0  0
   -8.0745   24.3473  -30.8565 H   0  0  0  0  0  0  0  0  0  0  0  0
   -7.4130   22.3530  -31.5910 C   0  0  0  0  0  0  0  0  0  0  0  0
   -8.5410   21.6230  -31.1640 C   0  0  0  0  0  0  0  0  0  0  0  0
   -9.3151   22.1198  -30.5607 H   0  0  0  0  0  0  0  0  0  0  0  0
   -8.6850   20.2740  -31.5000 C   0  0  0  0  0  0  0  0  0  0  0  0
   -9.5742   19.7187  -31.1669 H   0  0  0  0  0  0  0  0  0  0  0  0
   -7.7020   19.6260  -32.2590 C   0  0  0  0  0  0  0  0  0  0  0  0
   -7.8390   18.2710  -32.6010 C   0  0  0  0  0  0  0  0  0  0  0  0
   -8.7264   17.7092  -32.2740 H   0  0  0  0  0  0  0  0  0  0  0  0
   -6.8500   17.6350  -33.3560 C   0  0  0  0  0  0  0  0  0  0  0  0
   -6.9623   16.5740  -33.6237 H   0  0  0  0  0  0  0  0  0  0  0  0
   -5.7190   18.3420  -33.7720 C   0  0  0  0  0  0  0  0  0  0  0  0
   -4.9431   17.8360  -34.3653 H   0  0  0  0  0  0  0  0  0  0  0  0
   -5.5710   19.6910  -33.4360 C   0  0  0  0  0  0  0  0  0  0  0  0
   -4.6786   20.2436  -33.7651 H   0  0  0  0  0  0  0  0  0  0  0  0
   -6.5580   20.3420  -32.6800 C   0  0  0  0  0  0  0  0  0  0  0  0
   -6.4200   21.6960  -32.3390 C   0  0  0  0  0  0  0  0  0  0  0  0
   -5.5254   22.2495  -32.6603 H   0  0  0  0  0  0  0  0  0  0  0  0
  1  2  1  0
  2  3  1  0
  3  4  2  0
  3  5  1  0
  5  6  1  0
  6  7  1  0
  6  8  1  0
  6  9  1  0
  9 10  1  0
  9 11  1  0
  9 12  1  0
 12 13  1  0
 12 14  1  0
 14 15  1  0
 14 16  1  0
 14 17  1  0
 17 18  1  0
 17 19  1  0
 17 20  1  0
 12 21  1  0
 21 22  1  0
 21 23  1  0
 21 24  1  0
 24 25  1  0
 24 26  1  0
 24 27  1  0
  2 28  2  0
 28 29  1  0
 28 30  1  0
 30 31  2  0
 31 32  1  0
 31 33  1  0
 33 34  1  0
 33 35  2  0
 35 36  1  0
 36 37  1  0
 36 38  2  0
 38 39  1  0
 38 40  1  0
 40 41  1  0
 40 42  2  0
 42 43  1  0
 42 44  1  0
 44 45  2  0
 45 46  1  0
 45 30  1  0
 44 35  1  0
M  CHG  1  12   1
M  END
>  <UniqueID>  (39) 
38

>  <SMILES>  (39) 
CC[NH+](CC)CCOC(=O)/C=C/c1ccc2ccccc2c1

>  <Energy>  (39) 
50.69274548683634

>  <Genealogy>  (39) 
CC[NH+](CC)CCOC(=O)C=Cc1ccc2ccccc2c1 (protonated)
CC[NH+](CC)CCOC(=O)/C=C/c1ccc2ccccc2c1 (cis-trans isomerization)
CC[NH+](CC)CCOC(=O)/C=C/c1ccc2ccccc2c1 (3D coordinates assigned)
CC[NH+](CC)CCOC(=O)/C=C/c1ccc2ccccc2c1 (optimized conformer: 50.69274548683634 kcal/mol)

>  <smiles>  (39) 
CCN(CC)CCOC(=O)C=Cc1ccc2ccccc2c1

>  <score_type>  (39) 
oracle

>  <origin>  (39) 
adg

>  <m_score__min__energy>  (39) 
-7.1799999999999997

>  <m_primary>  (39) 
energy

$$$$
39:0
     RDKit          3D

 42 45  0  0  0  0  0  0  0  0999 V2000
   -3.1710   16.4360  -33.1770 C   0  0  0  0  0  0  0  0  0  0  0  0
   -4.4680   17.1090  -33.3490 N   0  0  0  0  0  0  0  0  0  0  0  0
   -4.3580   18.1890  -34.3420 C   0  0  0  0  0  0  0  0  0  0  0  0
   -5.7210   18.8730  -34.5870 C   0  0  0  0  0  0  0  0  0  0  0  0
   -6.8320   18.2970  -33.7850 N   0  0  0  0  0  0  0  0  0  0  0  0
   -6.8560   18.6530  -32.3250 C   0  0  2  0  0  0  0  0  0  0  0  0
   -8.3160   18.9460  -31.8570 C   0  0  0  0  0  0  0  0  0  0  0  0
   -8.3420   20.4090  -31.5940 C   0  0  0  0  0  0  0  0  0  0  0  0
   -9.3890   21.0450  -31.3060 O   0  0  0  0  0  0  0  0  0  0  0  0
   -7.0020   20.9640  -31.6440 C   0  0  0  0  0  0  0  0  0  0  0  0
   -6.1380   19.9450  -31.9890 C   0  0  0  0  0  0  0  0  0  0  0  0
   -4.7570   20.1120  -31.8470 C   0  0  0  0  0  0  0  0  0  0  0  0
   -4.2480   21.3610  -31.4760 C   0  0  0  0  0  0  0  0  0  0  0  0
   -5.1190   22.4320  -31.1990 C   0  0  0  0  0  0  0  0  0  0  0  0
   -4.6030   23.6830  -30.8270 C   0  0  0  0  0  0  0  0  0  0  0  0
   -5.4660   24.7360  -30.5220 C   0  0  0  0  0  0  0  0  0  0  0  0
   -6.8490   24.5530  -30.5830 C   0  0  0  0  0  0  0  0  0  0  0  0
   -7.3810   23.3130  -30.9500 C   0  0  0  0  0  0  0  0  0  0  0  0
   -6.5270   22.2400  -31.2660 C   0  0  0  0  0  0  0  0  0  0  0  0
   -6.8670   16.8250  -33.9890 C   0  0  0  0  0  0  0  0  0  0  0  0
   -5.4970   16.1400  -33.7630 C   0  0  0  0  0  0  0  0  0  0  0  0
   -2.9554   16.3241  -32.1042 H   0  0  0  0  0  0  0  0  0  0  0  0
   -3.2076   15.4431  -33.6491 H   0  0  0  0  0  0  0  0  0  0  0  0
   -2.3803   17.0376  -33.6491 H   0  0  0  0  0  0  0  0  0  0  0  0
   -3.6420   18.9396  -33.9760 H   0  0  0  0  0  0  0  0  0  0  0  0
   -4.0155   17.7516  -35.2914 H   0  0  0  0  0  0  0  0  0  0  0  0
   -5.6253   19.9388  -34.3323 H   0  0  0  0  0  0  0  0  0  0  0  0
   -5.9738   18.7152  -35.6459 H   0  0  0  0  0  0  0  0  0  0  0  0
   -7.7080   18.6840  -34.2110 H   0  0  0  0  0  0  0  0  0  0  0  0
   -6.3767   17.7892  -31.8411 H   0  0  0  0  0  0  0  0  0  0  0  0
   -9.0364   18.6807  -32.6448 H   0  0  0  0  0  0  0  0  0  0  0  0
   -8.5941   18.3587  -30.9694 H   0  0  0  0  0  0  0  0  0  0  0  0
   -4.0757   19.2671  -32.0258 H   0  0  0  0  0  0  0  0  0  0  0  0
   -3.1604   21.5074  -31.4002 H   0  0  0  0  0  0  0  0  0  0  0  0
   -3.5146   23.8338  -30.7757 H   0  0  0  0  0  0  0  0  0  0  0  0
   -5.0552   25.7144  -30.2323 H   0  0  0  0  0  0  0  0  0  0  0  0
   -7.5230   25.3880  -30.3413 H   0  0  0  0  0  0  0  0  0  0  0  0
   -8.4716   23.1757  -30.9919 H   0  0  0  0  0  0  0  0  0  0  0  0
   -7.5933   16.3926  -33.2851 H   0  0  0  0  0  0  0  0  0  0  0  0
   -7.1488   16.6492  -35.0376 H   0  0  0  0  0  0  0  0  0  0  0  0
   -5.6047   15.3766  -32.9784 H   0  0  0  0  0  0  0  0  0  0  0  0
   -5.1790   15.6851  -34.7127 H   0  0  0  0  0  0  0  0  0  0  0  0
  1  2  1  0
  2  3  1  0
  3  4  1  0
  4  5  1  0
  5  6  1  0
  6  7  1  0
  7  8  1  0
  8  9  2  0
  8 10  1  0
 10 11  2  0
 11 12  1  0
 12 13  2  0
 13 14  1  0
 14 15  2  0
 15 16  1  0
 16 17  2  0
 17 18  1  0
 18 19  2  0
  5 20  1  0
 20 21  1  0
 21  2  1  0
 11  6  1  0
 19 14  1  0
 19 10  1  0
  1 22  1  0
  1 23  1  0
  1 24  1  0
  3 25  1  0
  3 26  1  0
  4 27  1  0
  4 28  1  0
  5 29  1  0
  6 30  1  1
  7 31  1  0
  7 32  1  0
 12 33  1  0
 13 34  1  0
 15 35  1  0
 16 36  1  0
 17 37  1  0
 18 38  1  0
 20 39  1  0
 20 40  1  0
 21 41  1  0
 21 42  1  0
M  CHG  1   5   1
M  END
>  <UniqueID>  (40) 
39

>  <SMILES>  (40) 
CN1CC[NH+]([C@@H]2CC(=O)c3c2ccc2ccccc32)CC1

>  <Energy>  (40) 
83.42411129824578

>  <Genealogy>  (40) 
CN1CC[NH+](C2CC(=O)c3c2ccc2ccccc32)CC1 (protonated)
CN1CC[NH+]([C@@H]2CC(=O)c3c2ccc2ccccc32)CC1 (chirality)
CN1CC[NH+]([C@@H]2CC(=O)c3c2ccc2ccccc32)CC1 (3D coordinates assigned)
CN1CC[NH+]([C@@H]2CC(=O)c3c2ccc2ccccc32)CC1 (nonaromatic ring conformer: 83.42411129824578 kcal/mol)

>  <smiles>  (40) 
CN1CCN(C2CC(=O)c3c2ccc2ccccc32)CC1

>  <score_type>  (40) 
oracle

>  <origin>  (40) 
adg

>  <m_score__min__energy>  (40) 
-7.71

>  <m_primary>  (40) 
energy

$$$$
40:0
     RDKit          3D

 53 53  0  0  0  0  0  0  0  0999 V2000
   -2.9810   21.7180  -32.3060 C   0  0  0  0  0  0  0  0  0  0  0  0
   -3.4660   20.8460  -33.4640 C   0  0  0  0  0  0  0  0  0  0  0  0
   -2.9440   19.3990  -33.3910 C   0  0  0  0  0  0  0  0  0  0  0  0
   -3.4010   18.5000  -34.5540 C   0  0  0  0  0  0  0  0  0  0  0  0
   -4.6520   17.6700  -34.2130 C   0  0  0  0  0  0  0  0  0  0  0  0
   -4.6940   17.2710  -32.7210 C   0  0  0  0  0  0  0  0  0  0  0  0
   -6.1190   17.0470  -32.1750 C   0  0  0  0  0  0  0  0  0  0  0  0
   -7.2480   17.5390  -33.0970 C   0  0  0  0  0  0  0  0  0  0  0  0
   -8.3980   18.2120  -32.3310 C   0  0  0  0  0  0  0  0  0  0  0  0
   -8.0320   19.6310  -31.9830 C   0  0  0  0  0  0  0  0  0  0  0  0
   -6.7540   20.1270  -32.2890 C   0  0  0  0  0  0  0  0  0  0  0  0
   -6.4450   21.4700  -32.0590 C   0  0  0  0  0  0  0  0  0  0  0  0
   -7.4090   22.3360  -31.5160 C   0  0  0  0  0  0  0  0  0  0  0  0
   -7.1080   23.8040  -31.3610 C   0  0  0  0  0  0  0  0  0  0  0  0
   -5.7260   24.1500  -31.9330 C   0  0  0  0  0  0  0  0  0  0  0  0
   -4.8820   24.8360  -30.9290 N   0  0  0  0  0  0  0  0  0  0  0  0
   -4.2150   23.8530  -30.0630 C   0  0  0  0  0  0  0  0  0  0  0  0
   -5.6820   25.7560  -30.1010 C   0  0  0  0  0  0  0  0  0  0  0  0
   -8.6840   21.8380  -31.2020 C   0  0  0  0  0  0  0  0  0  0  0  0
   -8.9910   20.4960  -31.4320 C   0  0  0  0  0  0  0  0  0  0  0  0
   -3.2465   21.2406  -31.3513 H   0  0  0  0  0  0  0  0  0  0  0  0
   -1.8888   21.8339  -32.3667 H   0  0  0  0  0  0  0  0  0  0  0  0
   -3.4586   22.7070  -32.3667 H   0  0  0  0  0  0  0  0  0  0  0  0
   -4.5656   20.8226  -33.4479 H   0  0  0  0  0  0  0  0  0  0  0  0
   -3.0768   21.2884  -34.3929 H   0  0  0  0  0  0  0  0  0  0  0  0
   -1.8444   19.4293  -33.3908 H   0  0  0  0  0  0  0  0  0  0  0  0
   -3.3604   18.9605  -32.4721 H   0  0  0  0  0  0  0  0  0  0  0  0
   -3.6279   19.1368  -35.4218 H   0  0  0  0  0  0  0  0  0  0  0  0
   -2.5843   17.7945  -34.7668 H   0  0  0  0  0  0  0  0  0  0  0  0
   -5.5472   18.2649  -34.4467 H   0  0  0  0  0  0  0  0  0  0  0  0
   -4.6200   16.7469  -34.8104 H   0  0  0  0  0  0  0  0  0  0  0  0
   -4.1242   16.3385  -32.5955 H   0  0  0  0  0  0  0  0  0  0  0  0
   -4.2622   18.1087  -32.1537 H   0  0  0  0  0  0  0  0  0  0  0  0
   -6.2569   15.9681  -32.0109 H   0  0  0  0  0  0  0  0  0  0  0  0
   -6.1933   17.6395  -31.2512 H   0  0  0  0  0  0  0  0  0  0  0  0
   -6.8282   18.2654  -33.8084 H   0  0  0  0  0  0  0  0  0  0  0  0
   -7.6637   16.6578  -33.6075 H   0  0  0  0  0  0  0  0  0  0  0  0
   -9.3010   18.2134  -32.9592 H   0  0  0  0  0  0  0  0  0  0  0  0
   -8.5866   17.6524  -31.4029 H   0  0  0  0  0  0  0  0  0  0  0  0
   -5.9928   19.4548  -32.7118 H   0  0  0  0  0  0  0  0  0  0  0  0
   -5.4426   21.8510  -32.3041 H   0  0  0  0  0  0  0  0  0  0  0  0
   -7.8735   24.3857  -31.8953 H   0  0  0  0  0  0  0  0  0  0  0  0
   -7.1130   24.0496  -30.2888 H   0  0  0  0  0  0  0  0  0  0  0  0
   -5.2260   23.2218  -32.2467 H   0  0  0  0  0  0  0  0  0  0  0  0
   -5.8652   24.8270  -32.7888 H   0  0  0  0  0  0  0  0  0  0  0  0
   -4.3917   24.1134  -29.0090 H   0  0  0  0  0  0  0  0  0  0  0  0
   -4.6203   22.8508  -30.2660 H   0  0  0  0  0  0  0  0  0  0  0  0
   -3.1339   23.8593  -30.2660 H   0  0  0  0  0  0  0  0  0  0  0  0
   -5.4987   25.5452  -29.0371 H   0  0  0  0  0  0  0  0  0  0  0  0
   -5.3945   26.7941  -30.3240 H   0  0  0  0  0  0  0  0  0  0  0  0
   -6.7499   25.6154  -30.3240 H   0  0  0  0  0  0  0  0  0  0  0  0
   -9.4436   22.5081  -30.7732 H   0  0  0  0  0  0  0  0  0  0  0  0
   -9.9910   20.1134  -31.1799 H   0  0  0  0  0  0  0  0  0  0  0  0
  1  2  1  0
  2  3  1  0
  3  4  1  0
  4  5  1  0
  5  6  1  0
  6  7  1  0
  7  8  1  0
  8  9  1  0
  9 10  1  0
 10 11  2  0
 11 12  1  0
 12 13  2  0
 13 14  1  0
 14 15  1  0
 15 16  1  0
 16 17  1  0
 16 18  1  0
 13 19  1  0
 19 20  2  0
 20 10  1  0
  1 21  1  0
  1 22  1  0
  1 23  1  0
  2 24  1  0
  2 25  1  0
  3 26  1  0
  3 27  1  0
  4 28  1  0
  4 29  1  0
  5 30  1  0
  5 31  1  0
  6 32  1  0
  6 33  1  0
  7 34  1  0
  7 35  1  0
  8 36  1  0
  8 37  1  0
  9 38  1  0
  9 39  1  0
 11 40  1  0
 12 41  1  0
 14 42  1  0
 14 43  1  0
 15 44  1  0
 15 45  1  0
 17 46  1  0
 17 47  1  0
 17 48  1  0
 18 49  1  0
 18 50  1  0
 18 51  1  0
 19 52  1  0
 20 53  1  0
M  END
>  <UniqueID>  (41) 
40

>  <SMILES>  (41) 
CCCCCCCCCc1ccc(CCN(C)C)cc1

>  <Energy>  (41) 
33.99538585829322

>  <Genealogy>  (41) 
CCCCCCCCCc1ccc(CCN(C)C)cc1 (3D coordinates assigned)
CCCCCCCCCc1ccc(CCN(C)C)cc1 (optimized conformer: 33.99538585829322 kcal/mol)

>  <smiles>  (41) 
CCCCCCCCCc1ccc(CCN(C)C)cc1

>  <score_type>  (41) 
oracle

>  <origin>  (41) 
adg

>  <m_score__min__energy>  (41) 
-7.0599999999999996

>  <m_primary>  (41) 
energy

$$$$
41:0
     RDKit          3D

 49 51  0  0  0  0  0  0  0  0999 V2000
   -0.3570   21.1310  -31.4150 C   0  0  0  0  0  0  0  0  0  0  0  0
   -1.7980   21.3180  -31.7700 C   0  0  0  0  0  0  0  0  0  0  0  0
   -2.5590   22.2590  -31.1490 N   0  0  0  0  0  0  0  0  0  0  0  0
   -3.8250   22.3000  -31.6230 C   0  0  0  0  0  0  0  0  0  0  0  0
   -4.8540   23.2370  -31.1190 C   0  0  0  0  0  0  0  0  0  0  0  0
   -4.4720   24.4120  -30.4470 C   0  0  0  0  0  0  0  0  0  0  0  0
   -5.4380   25.2880  -29.9440 C   0  0  0  0  0  0  0  0  0  0  0  0
   -6.7950   25.0030  -30.1090 C   0  0  0  0  0  0  0  0  0  0  0  0
   -7.1870   23.8410  -30.7780 C   0  0  0  0  0  0  0  0  0  0  0  0
   -6.2250   22.9610  -31.2820 C   0  0  0  0  0  0  0  0  0  0  0  0
   -4.0420   21.1650  -32.8480 S   0  0  0  0  0  0  0  0  0  0  0  0
   -2.4640   20.5860  -32.7580 C   0  0  0  0  0  0  0  0  0  0  0  0
   -1.8700   19.5630  -33.6890 C   0  0  0  0  0  0  0  0  0  0  0  0
   -2.9240   18.6010  -34.2800 C   0  0  0  0  0  0  0  0  0  0  0  0
   -2.8620   17.2410  -33.7070 N   0  0  0  0  0  0  0  0  0  0  0  0
   -4.1000   16.4540  -33.8550 C   0  0  0  0  0  0  0  0  0  0  0  0
   -5.0930   16.6770  -32.6960 C   0  0  0  0  0  0  0  0  0  0  0  0
   -6.5450   16.7610  -33.1870 C   0  0  0  0  0  0  0  0  0  0  0  0
   -7.1740   18.0930  -32.8630 C   0  0  0  0  0  0  0  0  0  0  0  0
   -6.6810   19.2700  -33.4520 C   0  0  0  0  0  0  0  0  0  0  0  0
   -7.2740   20.5030  -33.1650 C   0  0  0  0  0  0  0  0  0  0  0  0
   -8.3420   20.5740  -32.2680 C   0  0  0  0  0  0  0  0  0  0  0  0
   -8.8240   19.4120  -31.6600 C   0  0  0  0  0  0  0  0  0  0  0  0
   -8.2480   18.1750  -31.9590 C   0  0  0  0  0  0  0  0  0  0  0  0
   -0.2479   21.1168  -30.3205 H   0  0  0  0  0  0  0  0  0  0  0  0
    0.0027   20.1786  -31.8317 H   0  0  0  0  0  0  0  0  0  0  0  0
    0.2339   21.9600  -31.8317 H   0  0  0  0  0  0  0  0  0  0  0  0
   -3.4046   24.6434  -30.3163 H   0  0  0  0  0  0  0  0  0  0  0  0
   -5.1289   26.2030  -29.4175 H   0  0  0  0  0  0  0  0  0  0  0  0
   -7.5546   25.6928  -29.7126 H   0  0  0  0  0  0  0  0  0  0  0  0
   -8.2562   23.6178  -30.9086 H   0  0  0  0  0  0  0  0  0  0  0  0
   -6.5407   22.0483  -31.8086 H   0  0  0  0  0  0  0  0  0  0  0  0
   -1.3726   20.0894  -34.5169 H   0  0  0  0  0  0  0  0  0  0  0  0
   -1.1627   18.9569  -33.1039 H   0  0  0  0  0  0  0  0  0  0  0  0
   -3.9237   19.0164  -34.0852 H   0  0  0  0  0  0  0  0  0  0  0  0
   -2.7145   18.5104  -35.3561 H   0  0  0  0  0  0  0  0  0  0  0  0
   -2.0770   16.7230  -34.1650 H   0  0  0  0  0  0  0  0  0  0  0  0
   -2.6270   17.3070  -32.6890 H   0  0  0  0  0  0  0  0  0  0  0  0
   -4.5891   16.7424  -34.7971 H   0  0  0  0  0  0  0  0  0  0  0  0
   -3.8187   15.3906  -33.8497 H   0  0  0  0  0  0  0  0  0  0  0  0
   -5.0059   15.8394  -31.9883 H   0  0  0  0  0  0  0  0  0  0  0  0
   -4.8424   17.6340  -32.2150 H   0  0  0  0  0  0  0  0  0  0  0  0
   -6.5602   16.6167  -34.2774 H   0  0  0  0  0  0  0  0  0  0  0  0
   -7.1232   15.9781  -32.6744 H   0  0  0  0  0  0  0  0  0  0  0  0
   -5.8253   19.2208  -34.1414 H   0  0  0  0  0  0  0  0  0  0  0  0
   -6.8990   21.4183  -33.6462 H   0  0  0  0  0  0  0  0  0  0  0  0
   -8.8042   21.5457  -32.0399 H   0  0  0  0  0  0  0  0  0  0  0  0
   -9.6579   19.4713  -30.9451 H   0  0  0  0  0  0  0  0  0  0  0  0
   -8.6362   17.2612  -31.4853 H   0  0  0  0  0  0  0  0  0  0  0  0
  1  2  1  0
  2  3  1  0
  3  4  2  0
  4  5  1  0
  5  6  2  0
  6  7  1  0
  7  8  2  0
  8  9  1  0
  9 10  2  0
  4 11  1  0
 11 12  1  0
 12 13  1  0
 13 14  1  0
 14 15  1  0
 15 16  1  0
 16 17  1  0
 17 18  1  0
 18 19  1  0
 19 20  2  0
 20 21  1  0
 21 22  2  0
 22 23  1  0
 23 24  2  0
 12  2  2  0
 24 19  1  0
 10  5  1  0
  1 25  1  0
  1 26  1  0
  1 27  1  0
  6 28  1  0
  7 29  1  0
  8 30  1  0
  9 31  1  0
 10 32  1  0
 13 33  1  0
 13 34  1  0
 14 35  1  0
 14 36  1  0
 15 37  1  0
 15 38  1  0
 16 39  1  0
 16 40  1  0
 17 41  1  0
 17 42  1  0
 18 43  1  0
 18 44  1  0
 20 45  1  0
 21 46  1  0
 22 47  1  0
 23 48  1  0
 24 49  1  0
M  CHG  1  15   1
M  END
>  <UniqueID>  (42) 
41

>  <SMILES>  (42) 
Cc1nc(-c2ccccc2)sc1CC[NH2+]CCCc1ccccc1

>  <Energy>  (42) 
71.2891197707303

>  <Genealogy>  (42) 
Cc1nc(-c2ccccc2)sc1CC[NH2+]CCCc1ccccc1 (protonated)
Cc1nc(-c2ccccc2)sc1CC[NH2+]CCCc1ccccc1 (3D coordinates assigned)
Cc1nc(-c2ccccc2)sc1CC[NH2+]CCCc1ccccc1 (optimized conformer: 71.2891197707303 kcal/mol)

>  <smiles>  (42) 
Cc1nc(-c2ccccc2)sc1CCNCCCc1ccccc1

>  <score_type>  (42) 
oracle

>  <origin>  (42) 
adg

>  <m_score__min__energy>  (42) 
-7.8399999999999999

>  <m_primary>  (42) 
energy

$$$$
