0:0
     RDKit          3D

 33 34  0  0  0  0  0  0  0  0999 V2000
   -2.9060   21.6590  -32.3050 C   0  0  0  0  0  0  0  0  0  0  0  0
   -3.6480   22.8660  -31.9550 N   0  0  0  0  0  0  0  0  0  0  0  0
   -5.0530   22.8620  -31.6320 C   0  0  0  0  0  0  0  0  0  0  0  0
   -5.8410   21.7300  -31.9220 C   0  0  0  0  0  0  0  0  0  0  0  0
   -7.2190   21.7430  -31.7060 C   0  0  0  0  0  0  0  0  0  0  0  0
   -7.8360   22.8840  -31.2000 C   0  0  0  0  0  0  0  0  0  0  0  0
   -7.0750   24.0120  -30.8910 C   0  0  0  0  0  0  0  0  0  0  0  0
   -5.6810   24.0140  -31.0840 C   0  0  0  0  0  0  0  0  0  0  0  0
   -4.9180   25.2070  -30.6540 C   0  0  0  0  0  0  0  0  0  0  0  0
   -5.5110   26.3000  -30.4490 O   0  0  0  0  0  0  0  0  0  0  0  0
   -3.4980   25.1090  -30.4690 N   0  0  0  0  0  0  0  0  0  0  0  0
   -2.8190   24.5170  -29.3530 C   0  0  0  0  0  0  0  0  0  0  0  0
   -3.4450   23.4720  -28.6630 C   0  0  0  0  0  0  0  0  0  0  0  0
   -2.8100   22.8540  -27.5820 C   0  0  0  0  0  0  0  0  0  0  0  0
   -1.5320   23.2700  -27.1790 C   0  0  0  0  0  0  0  0  0  0  0  0
   -0.8370   22.5850  -26.0390 C   0  0  0  0  0  0  0  0  0  0  0  0
   -0.8840   24.2900  -27.8940 C   0  0  0  0  0  0  0  0  0  0  0  0
    0.3720   24.6780  -27.5550 F   0  0  0  0  0  0  0  0  0  0  0  0
   -1.5220   24.9090  -28.9750 C   0  0  0  0  0  0  0  0  0  0  0  0
   -2.5893   21.1439  -31.3861 H   0  0  0  0  0  0  0  0  0  0  0  0
   -3.5498   20.9913  -32.8963 H   0  0  0  0  0  0  0  0  0  0  0  0
   -2.0196   21.9321  -32.8963 H   0  0  0  0  0  0  0  0  0  0  0  0
   -3.1150   23.7640  -31.9430 H   0  0  0  0  0  0  0  0  0  0  0  0
   -5.3631   20.8244  -32.3239 H   0  0  0  0  0  0  0  0  0  0  0  0
   -7.8192   20.8503  -31.9358 H   0  0  0  0  0  0  0  0  0  0  0  0
   -8.9248   22.8962  -31.0436 H   0  0  0  0  0  0  0  0  0  0  0  0
   -7.5702   24.9096  -30.4921 H   0  0  0  0  0  0  0  0  0  0  0  0
   -4.4447   23.1346  -28.9741 H   0  0  0  0  0  0  0  0  0  0  0  0
   -3.3146   22.0376  -27.0446 H   0  0  0  0  0  0  0  0  0  0  0  0
   -1.2283   22.9707  -25.0860 H   0  0  0  0  0  0  0  0  0  0  0  0
   -1.0171   21.5014  -26.0976 H   0  0  0  0  0  0  0  0  0  0  0  0
    0.2438   22.7808  -26.0976 H   0  0  0  0  0  0  0  0  0  0  0  0
   -1.0068   25.7057  -29.5316 H   0  0  0  0  0  0  0  0  0  0  0  0
  1  2  1  0
  2  3  1  0
  3  4  2  0
  4  5  1  0
  5  6  2  0
  6  7  1  0
  7  8  2  0
  8  9  1  0
  9 10  2  0
  9 11  1  0
 11 12  1  0
 12 13  2  0
 13 14  1  0
 14 15  2  0
 15 16  1  0
 15 17  1  0
 17 18  1  0
 17 19  2  0
  8  3  1  0
 19 12  1  0
  1 20  1  0
  1 21  1  0
  1 22  1  0
  2 23  1  0
  4 24  1  0
  5 25  1  0
  6 26  1  0
  7 27  1  0
 13 28  1  0
 14 29  1  0
 16 30  1  0
 16 31  1  0
 16 32  1  0
 19 33  1  0
M  CHG  1  11  -1
M  END
>  <UniqueID>  (1) 
1

>  <SMILES>  (1) 
CNc1ccccc1C(=O)[N-]c1ccc(C)c(F)c1

>  <Energy>  (1) 
41.79829012962513

>  <Genealogy>  (1) 
CNc1ccccc1C(=O)[N-]c1ccc(C)c(F)c1 (protonated)
CNc1ccccc1C(=O)[N-]c1ccc(C)c(F)c1 (3D coordinates assigned)
CNc1ccccc1C(=O)[N-]c1ccc(C)c(F)c1 (optimized conformer: 41.79829012962513 kcal/mol)

>  <smiles>  (1) 
CNc1ccccc1C(=O)Nc1ccc(C)c(F)c1

>  <score_type>  (1) 
oracle

>  <origin>  (1) 
adg

>  <m_score__min__energy>  (1) 
-8.3900000000000006

>  <m_primary>  (1) 
energy

$$$$
1:0
     RDKit          3D

 41 42  0  0  0  0  0  0  0  0999 V2000
   -0.0080   20.8840  -35.1280 C   0  0  0  0  0  0  0  0  0  0  0  0
   -0.8820   20.0160  -34.2280 C   0  0  0  0  0  0  0  0  0  0  0  0
   -2.2350   20.5670  -34.1320 N   0  0  0  0  0  0  0  0  0  0  0  0
   -3.4180   19.8010  -33.8230 C   0  0  0  0  0  0  0  0  0  0  0  0
   -4.4730   20.4250  -33.1430 C   0  0  0  0  0  0  0  0  0  0  0  0
   -5.6480   19.7230  -32.8310 C   0  0  0  0  0  0  0  0  0  0  0  0
   -6.7330   20.3830  -32.1460 N   0  0  0  0  0  0  0  0  0  0  0  0
   -6.5370   21.7220  -31.5710 C   0  0  0  0  0  0  0  0  0  0  0  0
   -7.2920   22.8040  -32.3570 C   0  0  0  0  0  0  0  0  0  0  0  0
   -8.7190   23.0240  -31.8320 C   0  0  0  0  0  0  0  0  0  0  0  0
   -9.4630   21.7270  -31.4600 C   0  0  0  0  0  0  0  0  0  0  0  0
   -9.1880   20.5100  -32.3630 C   0  0  0  0  0  0  0  0  0  0  0  0
   -7.9940   19.6610  -31.9150 C   0  0  0  0  0  0  0  0  0  0  0  0
   -5.7520   18.3700  -33.1880 C   0  0  0  0  0  0  0  0  0  0  0  0
   -4.6940   17.7160  -33.8370 C   0  0  0  0  0  0  0  0  0  0  0  0
   -4.8340   16.2730  -34.2600 C   0  0  0  0  0  0  0  0  0  0  0  0
   -4.4480   15.4220  -33.2390 F   0  0  0  0  0  0  0  0  0  0  0  0
   -4.0420   16.0090  -35.3640 F   0  0  0  0  0  0  0  0  0  0  0  0
   -6.1540   16.0200  -34.5820 F   0  0  0  0  0  0  0  0  0  0  0  0
   -3.5400   18.4420  -34.1730 C   0  0  0  0  0  0  0  0  0  0  0  0
    0.6362   21.5238  -34.5069 H   0  0  0  0  0  0  0  0  0  0  0  0
    0.6179   20.2398  -35.7630 H   0  0  0  0  0  0  0  0  0  0  0  0
   -0.6479   21.5143  -35.7630 H   0  0  0  0  0  0  0  0  0  0  0  0
   -0.9348   19.0003  -34.6470 H   0  0  0  0  0  0  0  0  0  0  0  0
   -0.4383   19.9916  -33.2218 H   0  0  0  0  0  0  0  0  0  0  0  0
   -2.3380   21.5940  -34.2960 H   0  0  0  0  0  0  0  0  0  0  0  0
   -4.3788   21.4809  -32.8494 H   0  0  0  0  0  0  0  0  0  0  0  0
   -6.9005   21.7190  -30.5328 H   0  0  0  0  0  0  0  0  0  0  0  0
   -5.4633   21.9567  -31.6170 H   0  0  0  0  0  0  0  0  0  0  0  0
   -6.7368   23.7503  -32.2771 H   0  0  0  0  0  0  0  0  0  0  0  0
   -7.3681   22.4670  -33.4013 H   0  0  0  0  0  0  0  0  0  0  0  0
   -8.6625   23.6584  -30.9352 H   0  0  0  0  0  0  0  0  0  0  0  0
   -9.2878   23.4908  -32.6497 H   0  0  0  0  0  0  0  0  0  0  0  0
   -9.1756   21.4564  -30.4333 H   0  0  0  0  0  0  0  0  0  0  0  0
  -10.5327   21.9523  -31.5825 H   0  0  0  0  0  0  0  0  0  0  0  0
  -10.0842   19.8722  -32.3669 H   0  0  0  0  0  0  0  0  0  0  0  0
   -8.9439   20.9022  -33.3613 H   0  0  0  0  0  0  0  0  0  0  0  0
   -8.0914   19.4366  -30.8426 H   0  0  0  0  0  0  0  0  0  0  0  0
   -7.9819   18.7283  -32.4980 H   0  0  0  0  0  0  0  0  0  0  0  0
   -6.6735   17.8158  -32.9564 H   0  0  0  0  0  0  0  0  0  0  0  0
   -2.7226   17.9442  -34.7153 H   0  0  0  0  0  0  0  0  0  0  0  0
  1  2  1  0
  2  3  1  0
  3  4  1  0
  4  5  2  0
  5  6  1  0
  6  7  1  0
  7  8  1  0
  8  9  1  0
  9 10  1  0
 10 11  1  0
 11 12  1  0
 12 13  1  0
  6 14  2  0
 14 15  1  0
 15 16  1  0
 16 17  1  0
 16 18  1  0
 16 19  1  0
 15 20  2  0
 20  4  1  0
 13  7  1  0
  1 21  1  0
  1 22  1  0
  1 23  1  0
  2 24  1  0
  2 25  1  0
  3 26  1  0
  5 27  1  0
  8 28  1  0
  8 29  1  0
  9 30  1  0
  9 31  1  0
 10 32  1  0
 10 33  1  0
 11 34  1  0
 11 35  1  0
 12 36  1  0
 12 37  1  0
 13 38  1  0
 13 39  1  0
 14 40  1  0
 20 41  1  0
M  END
>  <UniqueID>  (2) 
2

>  <SMILES>  (2) 
CCNc1cc(N2CCCCCC2)cc(C(F)(F)F)c1

>  <Energy>  (2) 
42.92561732455638

>  <Genealogy>  (2) 
CCNc1cc(N2CCCCCC2)cc(C(F)(F)F)c1 (3D coordinates assigned)
CCNc1cc(N2CCCCCC2)cc(C(F)(F)F)c1 (nonaromatic ring conformer: 42.92561732455638 kcal/mol)

>  <smiles>  (2) 
CCNc1cc(N2CCCCCC2)cc(C(F)(F)F)c1

>  <score_type>  (2) 
oracle

>  <origin>  (2) 
adg

>  <m_score__min__energy>  (2) 
-4.9299999999999997

>  <m_primary>  (2) 
energy

$$$$
2:0
     RDKit          3D

 38 40  0  0  0  0  0  0  0  0999 V2000
   -9.0710   18.5640  -31.3830 C   0  0  0  0  0  0  0  0  0  0  0  0
   -9.4670   19.4750  -32.5480 C   0  0  0  0  0  0  0  0  0  0  0  0
   -8.3170   19.8230  -33.4030 N   0  0  0  0  0  0  0  0  0  0  0  0
   -7.2800   20.5080  -32.6600 C   0  0  0  0  0  0  0  0  0  0  0  0
   -7.5480   21.7730  -32.1040 C   0  0  0  0  0  0  0  0  0  0  0  0
   -6.5420   22.4840  -31.4510 C   0  0  0  0  0  0  0  0  0  0  0  0
   -6.7920   23.7090  -30.9170 N   0  0  0  0  0  0  0  0  0  0  0  0
   -5.8220   24.4240  -30.2820 C   0  0  0  0  0  0  0  0  0  0  0  0
   -6.1400   25.7710  -29.7130 C   0  0  0  0  0  0  0  0  0  0  0  0
   -4.5260   23.8980  -30.1710 C   0  0  0  0  0  0  0  0  0  0  0  0
   -4.2450   22.6420  -30.7140 C   0  0  0  0  0  0  0  0  0  0  0  0
   -5.2560   21.9260  -31.3590 C   0  0  0  0  0  0  0  0  0  0  0  0
   -5.0070   20.7030  -31.8930 N   0  0  0  0  0  0  0  0  0  0  0  0
   -5.9690   19.9760  -32.5260 C   0  0  0  0  0  0  0  0  0  0  0  0
   -5.5920   18.6580  -33.0660 C   0  0  0  0  0  0  0  0  0  0  0  0
   -5.8120   17.5020  -32.3020 C   0  0  0  0  0  0  0  0  0  0  0  0
   -5.4820   16.2450  -32.8160 C   0  0  0  0  0  0  0  0  0  0  0  0
   -4.9470   16.1330  -34.1040 C   0  0  0  0  0  0  0  0  0  0  0  0
   -4.7470   17.2790  -34.8800 C   0  0  0  0  0  0  0  0  0  0  0  0
   -4.2410   17.1690  -36.1320 F   0  0  0  0  0  0  0  0  0  0  0  0
   -5.0750   18.5380  -34.3660 C   0  0  0  0  0  0  0  0  0  0  0  0
   -9.2908   19.0696  -30.4311 H   0  0  0  0  0  0  0  0  0  0  0  0
   -9.6425   17.6259  -31.4404 H   0  0  0  0  0  0  0  0  0  0  0  0
   -7.9952   18.3420  -31.4404 H   0  0  0  0  0  0  0  0  0  0  0  0
  -10.2199   18.9580  -33.1611 H   0  0  0  0  0  0  0  0  0  0  0  0
   -9.8657   20.4086  -32.1243 H   0  0  0  0  0  0  0  0  0  0  0  0
   -8.6500   20.4230  -34.1880 H   0  0  0  0  0  0  0  0  0  0  0  0
   -7.9380   18.9540  -33.8470 H   0  0  0  0  0  0  0  0  0  0  0  0
   -8.5571   22.2032  -32.1852 H   0  0  0  0  0  0  0  0  0  0  0  0
   -6.1273   25.7173  -28.6144 H   0  0  0  0  0  0  0  0  0  0  0  0
   -5.3891   26.4993  -30.0532 H   0  0  0  0  0  0  0  0  0  0  0  0
   -7.1373   26.0866  -30.0532 H   0  0  0  0  0  0  0  0  0  0  0  0
   -3.7374   24.4702  -29.6604 H   0  0  0  0  0  0  0  0  0  0  0  0
   -3.2327   22.2190  -30.6340 H   0  0  0  0  0  0  0  0  0  0  0  0
   -6.2459   17.5854  -31.2946 H   0  0  0  0  0  0  0  0  0  0  0  0
   -5.6430   15.3429  -32.2075 H   0  0  0  0  0  0  0  0  0  0  0  0
   -4.6837   15.1436  -34.5061 H   0  0  0  0  0  0  0  0  0  0  0  0
   -4.9274   19.4371  -34.9823 H   0  0  0  0  0  0  0  0  0  0  0  0
  1  2  1  0
  2  3  1  0
  3  4  1  0
  4  5  2  0
  5  6  1  0
  6  7  2  0
  7  8  1  0
  8  9  1  0
  8 10  2  0
 10 11  1  0
 11 12  2  0
 12 13  1  0
 13 14  2  0
 14 15  1  0
 15 16  2  0
 16 17  1  0
 17 18  2  0
 18 19  1  0
 19 20  1  0
 19 21  2  0
 14  4  1  0
 21 15  1  0
 12  6  1  0
  1 22  1  0
  1 23  1  0
  1 24  1  0
  2 25  1  0
  2 26  1  0
  3 27  1  0
  3 28  1  0
  5 29  1  0
  9 30  1  0
  9 31  1  0
  9 32  1  0
 10 33  1  0
 11 34  1  0
 16 35  1  0
 17 36  1  0
 18 37  1  0
 21 38  1  0
M  CHG  1   3   1
M  END
>  <UniqueID>  (3) 
3

>  <SMILES>  (3) 
CC[NH2+]c1cc2nc(C)ccc2nc1-c1cccc(F)c1

>  <Energy>  (3) 
49.22728064515956

>  <Genealogy>  (3) 
CC[NH2+]c1cc2nc(C)ccc2nc1-c1cccc(F)c1 (protonated)
CC[NH2+]c1cc2nc(C)ccc2nc1-c1cccc(F)c1 (3D coordinates assigned)
CC[NH2+]c1cc2nc(C)ccc2nc1-c1cccc(F)c1 (optimized conformer: 49.22728064515956 kcal/mol)

>  <smiles>  (3) 
CCNc1cc2nc(C)ccc2nc1-c1cccc(F)c1

>  <score_type>  (3) 
oracle

>  <origin>  (3) 
adg

>  <m_score__min__energy>  (3) 
-7.1600000000000001

>  <m_primary>  (3) 
energy

$$$$
3:0
     RDKit          3D

 43 43  0  0  0  0  0  0  0  0999 V2000
   -9.1710   19.3690  -32.3880 C   0  0  0  0  0  0  0  0  0  0  0  0
   -7.9580   20.0900  -31.7850 C   0  0  0  0  0  0  0  0  0  0  0  0
   -7.1960   20.9120  -32.7580 N   0  0  0  0  0  0  0  0  0  0  0  0
   -5.9060   20.3150  -33.1760 C   0  0  0  0  0  0  0  0  0  0  0  0
   -6.1080   19.1460  -34.1390 C   0  0  0  0  0  0  0  0  0  0  0  0
   -7.0290   22.3120  -32.3030 C   0  0  0  0  0  0  0  0  0  0  0  0
   -5.5460   22.6800  -32.2390 C   0  0  0  0  0  0  0  0  0  0  0  0
   -5.4120   24.0600  -31.9400 O   0  0  0  0  0  0  0  0  0  0  0  0
   -6.2500   24.4540  -30.8700 C   0  0  0  0  0  0  0  0  0  0  0  0
   -5.5310   25.4210  -29.9270 C   0  0  0  0  0  0  0  0  0  0  0  0
   -4.3460   25.8730  -30.5350 O   0  0  0  0  0  0  0  0  0  0  0  0
   -3.4640   24.8410  -30.4730 N   0  0  0  0  0  0  0  0  0  0  0  0
   -2.6040   24.6300  -29.3480 C   0  0  0  0  0  0  0  0  0  0  0  0
   -1.9690   25.6120  -28.8800 O   0  0  0  0  0  0  0  0  0  0  0  0
   -2.4650   23.3010  -28.7070 C   0  0  0  0  0  0  0  0  0  0  0  0
   -1.2030   22.7980  -28.3410 C   0  0  0  0  0  0  0  0  0  0  0  0
   -1.0910   21.5430  -27.7360 C   0  0  0  0  0  0  0  0  0  0  0  0
   -2.2350   20.7820  -27.4810 C   0  0  0  0  0  0  0  0  0  0  0  0
   -2.0770   19.0680  -26.6540 Br  0  0  0  0  0  0  0  0  0  0  0  0
   -3.4950   21.2800  -27.8250 C   0  0  0  0  0  0  0  0  0  0  0  0
   -3.6110   22.5350  -28.4310 C   0  0  0  0  0  0  0  0  0  0  0  0
   -9.8111   18.9885  -31.5784 H   0  0  0  0  0  0  0  0  0  0  0  0
   -9.7446   20.0729  -33.0089 H   0  0  0  0  0  0  0  0  0  0  0  0
   -8.8268   18.5288  -33.0089 H   0  0  0  0  0  0  0  0  0  0  0  0
   -8.3134   20.7493  -30.9794 H   0  0  0  0  0  0  0  0  0  0  0  0
   -7.2724   19.3093  -31.4238 H   0  0  0  0  0  0  0  0  0  0  0  0
   -5.3013   21.0868  -33.6746 H   0  0  0  0  0  0  0  0  0  0  0  0
   -5.3980   19.9344  -32.2776 H   0  0  0  0  0  0  0  0  0  0  0  0
   -6.2678   18.2214  -33.5649 H   0  0  0  0  0  0  0  0  0  0  0  0
   -6.9859   19.3404  -34.7727 H   0  0  0  0  0  0  0  0  0  0  0  0
   -5.2158   19.0346  -34.7727 H   0  0  0  0  0  0  0  0  0  0  0  0
   -7.5391   22.9852  -33.0077 H   0  0  0  0  0  0  0  0  0  0  0  0
   -7.4651   22.4145  -31.2984 H   0  0  0  0  0  0  0  0  0  0  0  0
   -5.0546   22.0858  -31.4545 H   0  0  0  0  0  0  0  0  0  0  0  0
   -5.0743   22.4685  -33.2100 H   0  0  0  0  0  0  0  0  0  0  0  0
   -7.1432   24.9494  -31.2783 H   0  0  0  0  0  0  0  0  0  0  0  0
   -6.5293   23.5561  -30.2993 H   0  0  0  0  0  0  0  0  0  0  0  0
   -6.1846   26.2797  -29.7139 H   0  0  0  0  0  0  0  0  0  0  0  0
   -5.2874   24.9042  -28.9870 H   0  0  0  0  0  0  0  0  0  0  0  0
   -0.2995   23.3957  -28.5320 H   0  0  0  0  0  0  0  0  0  0  0  0
   -0.1000   21.1534  -27.4599 H   0  0  0  0  0  0  0  0  0  0  0  0
   -4.3963   20.6841  -27.6188 H   0  0  0  0  0  0  0  0  0  0  0  0
   -4.6054   22.9253  -28.6934 H   0  0  0  0  0  0  0  0  0  0  0  0
  1  2  1  0
  2  3  1  0
  3  4  1  0
  4  5  1  0
  3  6  1  0
  6  7  1  0
  7  8  1  0
  8  9  1  0
  9 10  1  0
 10 11  1  0
 11 12  1  0
 12 13  1  0
 13 14  2  0
 13 15  1  0
 15 16  2  0
 16 17  1  0
 17 18  2  0
 18 19  1  0
 18 20  1  0
 20 21  2  0
 21 15  1  0
  1 22  1  0
  1 23  1  0
  1 24  1  0
  2 25  1  0
  2 26  1  0
  4 27  1  0
  4 28  1  0
  5 29  1  0
  5 30  1  0
  5 31  1  0
  6 32  1  0
  6 33  1  0
  7 34  1  0
  7 35  1  0
  9 36  1  0
  9 37  1  0
 10 38  1  0
 10 39  1  0
 16 40  1  0
 17 41  1  0
 20 42  1  0
 21 43  1  0
M  CHG  1  12  -1
M  END
>  <UniqueID>  (4) 
4

>  <SMILES>  (4) 
CCN(CC)CCOCCO[N-]C(=O)c1ccc(Br)cc1

>  <Energy>  (4) 
43.52059842744426

>  <Genealogy>  (4) 
CCN(CC)CCOCCO[N-]C(=O)c1ccc(Br)cc1 (protonated)
CCN(CC)CCOCCO[N-]C(=O)c1ccc(Br)cc1 (3D coordinates assigned)
CCN(CC)CCOCCO[N-]C(=O)c1ccc(Br)cc1 (optimized conformer: 43.52059842744426 kcal/mol)

>  <smiles>  (4) 
CCN(CC)CCOCCONC(=O)c1ccc(Br)cc1

>  <score_type>  (4) 
oracle

>  <origin>  (4) 
adg

>  <m_score__min__energy>  (4) 
-9.5500000000000007

>  <m_primary>  (4) 
energy

$$$$
4:0
     RDKit          3D

 29 29  0  0  0  0  0  0  0  0999 V2000
   -6.5020   25.3160  -29.7350 C   0  0  0  0  0  0  0  0  0  0  0  0
   -5.1910   25.3040  -30.5180 C   0  0  0  0  0  0  0  0  0  0  0  0
   -5.0050   24.0180  -31.2260 N   0  0  0  0  0  0  0  0  0  0  0  0
   -4.7380   22.8260  -30.3820 C   0  0  0  0  0  0  0  0  0  0  0  0
   -4.0610   23.1260  -29.0350 C   0  0  0  0  0  0  0  0  0  0  0  0
   -5.9620   23.7920  -32.3320 C   0  0  0  0  0  0  0  0  0  0  0  0
   -6.8410   22.5800  -32.1310 C   0  0  0  0  0  0  0  0  0  0  0  0
   -8.0140   22.6750  -31.3620 C   0  0  0  0  0  0  0  0  0  0  0  0
   -8.8330   21.5560  -31.1840 C   0  0  0  0  0  0  0  0  0  0  0  0
   -8.4860   20.3340  -31.7650 C   0  0  0  0  0  0  0  0  0  0  0  0
   -7.3150   20.2270  -32.5210 C   0  0  0  0  0  0  0  0  0  0  0  0
   -6.4940   21.3440  -32.7020 C   0  0  0  0  0  0  0  0  0  0  0  0
   -6.2850   25.3140  -28.6566 H   0  0  0  0  0  0  0  0  0  0  0  0
   -7.0744   26.2194  -29.9922 H   0  0  0  0  0  0  0  0  0  0  0  0
   -7.0909   24.4232  -29.9922 H   0  0  0  0  0  0  0  0  0  0  0  0
   -5.2050   26.1209  -31.2546 H   0  0  0  0  0  0  0  0  0  0  0  0
   -4.3598   25.4362  -29.8097 H   0  0  0  0  0  0  0  0  0  0  0  0
   -5.6981   22.3290  -30.1788 H   0  0  0  0  0  0  0  0  0  0  0  0
   -4.0343   22.1981  -30.9482 H   0  0  0  0  0  0  0  0  0  0  0  0
   -4.7304   22.8294  -28.2141 H   0  0  0  0  0  0  0  0  0  0  0  0
   -3.1202   22.5605  -28.9635 H   0  0  0  0  0  0  0  0  0  0  0  0
   -3.8479   24.2028  -28.9635 H   0  0  0  0  0  0  0  0  0  0  0  0
   -6.6068   24.6787  -32.4209 H   0  0  0  0  0  0  0  0  0  0  0  0
   -5.3690   23.6140  -33.2412 H   0  0  0  0  0  0  0  0  0  0  0  0
   -8.2886   23.6339  -30.8983 H   0  0  0  0  0  0  0  0  0  0  0  0
   -9.7522   21.6380  -30.5854 H   0  0  0  0  0  0  0  0  0  0  0  0
   -9.1342   19.4559  -31.6276 H   0  0  0  0  0  0  0  0  0  0  0  0
   -7.0393   19.2632  -32.9738 H   0  0  0  0  0  0  0  0  0  0  0  0
   -5.5715   21.2548  -33.2945 H   0  0  0  0  0  0  0  0  0  0  0  0
  1  2  1  0
  2  3  1  0
  3  4  1  0
  4  5  1  0
  3  6  1  0
  6  7  1  0
  7  8  2  0
  8  9  1  0
  9 10  2  0
 10 11  1  0
 11 12  2  0
 12  7  1  0
  1 13  1  0
  1 14  1  0
  1 15  1  0
  2 16  1  0
  2 17  1  0
  4 18  1  0
  4 19  1  0
  5 20  1  0
  5 21  1  0
  5 22  1  0
  6 23  1  0
  6 24  1  0
  8 25  1  0
  9 26  1  0
 10 27  1  0
 11 28  1  0
 12 29  1  0
M  END
>  <UniqueID>  (5) 
5

>  <SMILES>  (5) 
CCN(CC)Cc1ccccc1

>  <Energy>  (5) 
31.377619848951436

>  <Genealogy>  (5) 
CCN(CC)Cc1ccccc1 (3D coordinates assigned)
CCN(CC)Cc1ccccc1 (optimized conformer: 31.377619848951436 kcal/mol)

>  <smiles>  (5) 
CCN(CC)Cc1ccccc1

>  <score_type>  (5) 
oracle

>  <origin>  (5) 
adg

>  <m_score__min__energy>  (5) 
-5.2000000000000002

>  <m_primary>  (5) 
energy

$$$$
5:0
     RDKit          3D

 64 66  0  0  0  0  0  0  0  0999 V2000
   -8.7830   19.3400  -31.6910 C   0  0  0  0  0  0  0  0  0  0  0  0
   -9.3890   20.5860  -32.3380 C   0  0  0  0  0  0  0  0  0  0  0  0
   -8.5860   21.7980  -32.0560 N   0  0  0  0  0  0  0  0  0  0  0  0
   -9.3980   23.0240  -32.2070 C   0  0  0  0  0  0  0  0  0  0  0  0
   -8.0000   21.7360  -30.6970 C   0  0  0  0  0  0  0  0  0  0  0  0
   -6.8070   22.6950  -30.5850 C   0  0  0  0  0  0  0  0  0  0  0  0
   -6.1690   22.9090  -31.8980 N   0  0  0  0  0  0  0  0  0  0  0  0
   -4.9440   22.1310  -32.0210 C   0  0  0  0  0  0  0  0  0  0  0  0
   -4.9690   20.8770  -32.6950 C   0  0  0  0  0  0  0  0  0  0  0  0
   -6.1210   20.4240  -33.3890 C   0  0  0  0  0  0  0  0  0  0  0  0
   -6.1520   19.1730  -33.9980 C   0  0  0  0  0  0  0  0  0  0  0  0
   -5.0520   18.3350  -33.9210 C   0  0  0  0  0  0  0  0  0  0  0  0
   -3.9000   18.7560  -33.2640 C   0  0  0  0  0  0  0  0  0  0  0  0
   -3.8160   20.0450  -32.6760 C   0  0  0  0  0  0  0  0  0  0  0  0
   -2.6570   20.4750  -32.0670 N   0  0  0  0  0  0  0  0  0  0  0  0
   -1.3910   19.7370  -32.2850 C   0  0  0  0  0  0  0  0  0  0  0  0
   -2.6590   21.6160  -31.2910 C   0  0  0  0  0  0  0  0  0  0  0  0
   -1.5940   21.8840  -30.4020 C   0  0  0  0  0  0  0  0  0  0  0  0
   -1.5390   23.0630  -29.6740 C   0  0  0  0  0  0  0  0  0  0  0  0
   -2.5060   24.0510  -29.8530 C   0  0  0  0  0  0  0  0  0  0  0  0
   -2.4640   25.2630  -29.0750 N   0  0  0  0  0  0  0  0  0  0  0  0
   -1.5910   25.4620  -27.9190 C   0  0  0  0  0  0  0  0  0  0  0  0
   -2.2240   24.8540  -26.6670 C   0  0  0  0  0  0  0  0  0  0  0  0
   -3.6870   24.9310  -26.7570 N   0  0  0  0  0  0  0  0  0  0  0  0
   -4.2340   23.6560  -27.2210 C   0  0  0  0  0  0  0  0  0  0  0  0
   -3.5740   23.8200  -30.7460 C   0  0  0  0  0  0  0  0  0  0  0  0
   -4.4230   24.8870  -31.0620 O   0  0  0  0  0  0  0  0  0  0  0  0
   -5.3830   25.4040  -30.1430 C   0  0  0  0  0  0  0  0  0  0  0  0
   -3.7440   22.5360  -31.3560 C   0  0  0  0  0  0  0  0  0  0  0  0
   -8.8296   19.4358  -30.5962 H   0  0  0  0  0  0  0  0  0  0  0  0
   -9.3494   18.4511  -32.0057 H   0  0  0  0  0  0  0  0  0  0  0  0
   -7.7340   19.2368  -32.0057 H   0  0  0  0  0  0  0  0  0  0  0  0
   -9.4355   20.4351  -33.4266 H   0  0  0  0  0  0  0  0  0  0  0  0
  -10.3938   20.7359  -31.9163 H   0  0  0  0  0  0  0  0  0  0  0  0
   -9.6579   23.4164  -31.2128 H   0  0  0  0  0  0  0  0  0  0  0  0
   -8.8214   23.7799  -32.7603 H   0  0  0  0  0  0  0  0  0  0  0  0
  -10.3190   22.7880  -32.7603 H   0  0  0  0  0  0  0  0  0  0  0  0
   -8.7646   22.0208  -29.9592 H   0  0  0  0  0  0  0  0  0  0  0  0
   -7.6527   20.7102  -30.5044 H   0  0  0  0  0  0  0  0  0  0  0  0
   -7.1590   23.6616  -30.1954 H   0  0  0  0  0  0  0  0  0  0  0  0
   -6.0650   22.2499  -29.9058 H   0  0  0  0  0  0  0  0  0  0  0  0
   -5.9740   23.9250  -32.0360 H   0  0  0  0  0  0  0  0  0  0  0  0
   -6.8220   22.7060  -32.6840 H   0  0  0  0  0  0  0  0  0  0  0  0
   -7.0064   21.0741  -33.4467 H   0  0  0  0  0  0  0  0  0  0  0  0
   -7.0518   18.8492  -34.5415 H   0  0  0  0  0  0  0  0  0  0  0  0
   -5.0891   17.3358  -34.3796 H   0  0  0  0  0  0  0  0  0  0  0  0
   -3.0374   18.0765  -33.1990 H   0  0  0  0  0  0  0  0  0  0  0  0
   -0.9458   19.4775  -31.3131 H   0  0  0  0  0  0  0  0  0  0  0  0
   -1.5959   18.8168  -32.8519 H   0  0  0  0  0  0  0  0  0  0  0  0
   -0.6913   20.3687  -32.8519 H   0  0  0  0  0  0  0  0  0  0  0  0
   -0.7911   21.1413  -30.2848 H   0  0  0  0  0  0  0  0  0  0  0  0
   -0.7261   23.2198  -28.9497 H   0  0  0  0  0  0  0  0  0  0  0  0
   -3.1000   26.0500  -29.3360 H   0  0  0  0  0  0  0  0  0  0  0  0
   -0.6219   24.9771  -28.1080 H   0  0  0  0  0  0  0  0  0  0  0  0
   -1.4470   26.5409  -27.7600 H   0  0  0  0  0  0  0  0  0  0  0  0
   -1.9192   23.8007  -26.5794 H   0  0  0  0  0  0  0  0  0  0  0  0
   -1.8864   25.4145  -25.7828 H   0  0  0  0  0  0  0  0  0  0  0  0
   -3.9320   25.6550  -27.4730 H   0  0  0  0  0  0  0  0  0  0  0  0
   -4.5008   23.0341  -26.3538 H   0  0  0  0  0  0  0  0  0  0  0  0
   -5.1316   23.8417  -27.8291 H   0  0  0  0  0  0  0  0  0  0  0  0
   -3.4809   23.1335  -27.8291 H   0  0  0  0  0  0  0  0  0  0  0  0
   -5.0414   25.2200  -29.1137 H   0  0  0  0  0  0  0  0  0  0  0  0
   -5.4982   26.4862  -30.3032 H   0  0  0  0  0  0  0  0  0  0  0  0
   -6.3499   24.9046  -30.3032 H   0  0  0  0  0  0  0  0  0  0  0  0
  1  2  1  0
  2  3  1  0
  3  4  1  0
  3  5  1  0
  5  6  1  0
  6  7  1  0
  7  8  1  0
  8  9  2  0
  9 10  1  0
 10 11  2  0
 11 12  1  0
 12 13  2  0
 13 14  1  0
 14 15  2  0
 15 16  1  0
 15 17  1  0
 17 18  2  0
 18 19  1  0
 19 20  2  0
 20 21  1  0
 21 22  1  0
 22 23  1  0
 23 24  1  0
 24 25  1  0
 20 26  1  0
 26 27  1  0
 27 28  1  0
 26 29  2  0
 29  8  1  0
 14  9  1  0
 29 17  1  0
  1 30  1  0
  1 31  1  0
  1 32  1  0
  2 33  1  0
  2 34  1  0
  4 35  1  0
  4 36  1  0
  4 37  1  0
  5 38  1  0
  5 39  1  0
  6 40  1  0
  6 41  1  0
  7 42  1  0
  7 43  1  0
 10 44  1  0
 11 45  1  0
 12 46  1  0
 13 47  1  0
 16 48  1  0
 16 49  1  0
 16 50  1  0
 18 51  1  0
 19 52  1  0
 21 53  1  0
 22 54  1  0
 22 55  1  0
 23 56  1  0
 23 57  1  0
 24 58  1  0
 25 59  1  0
 25 60  1  0
 25 61  1  0
 28 62  1  0
 28 63  1  0
 28 64  1  0
M  CHG  2   7   1  15   1
M  END
>  <UniqueID>  (6) 
6

>  <SMILES>  (6) 
CCN(C)CC[NH2+]c1c2ccccc2[n+](C)c2ccc(NCCNC)c(OC)c12

>  <Energy>  (6) 
101.77208131879695

>  <Genealogy>  (6) 
CCN(C)CC[NH2+]c1c2ccccc2[n+](C)c2ccc(NCCNC)c(OC)c12 (protonated)
CCN(C)CC[NH2+]c1c2ccccc2[n+](C)c2ccc(NCCNC)c(OC)c12 (3D coordinates assigned)
CCN(C)CC[NH2+]c1c2ccccc2[n+](C)c2ccc(NCCNC)c(OC)c12 (optimized conformer: 101.77208131879695 kcal/mol)

>  <smiles>  (6) 
CCN(C)CCNc1c2ccccc2[n+](C)c2ccc(NCCNC)c(OC)c12

>  <score_type>  (6) 
oracle

>  <origin>  (6) 
adg

>  <m_score__min__energy>  (6) 
-7.7000000000000002

>  <m_primary>  (6) 
energy

$$$$
6:0
     RDKit          3D

 84 85  0  0  0  0  0  0  0  0999 V2000
   -6.0490   19.0600  -34.0590 C   0  0  0  0  0  0  0  0  0  0  0  0
   -6.6260   19.4900  -32.7100 C   0  0  0  0  0  0  0  0  0  0  0  0
   -7.7560   20.4300  -32.8840 N   0  0  0  0  0  0  0  0  0  0  0  0
   -9.0170   19.8250  -32.3930 C   0  0  0  0  0  0  0  0  0  0  0  0
   -8.7260   18.5540  -31.5960 C   0  0  0  0  0  0  0  0  0  0  0  0
   -7.4850   21.7440  -32.2370 C   0  0  0  0  0  0  0  0  0  0  0  0
   -8.2530   21.8500  -30.9190 C   0  0  0  0  0  0  0  0  0  0  0  0
   -7.5830   22.7480  -30.0600 O   0  0  0  0  0  0  0  0  0  0  0  0
   -7.1830   23.9150  -30.7540 C   0  0  0  0  0  0  0  0  0  0  0  0
   -6.3420   24.8610  -29.8820 C   0  0  0  0  0  0  0  0  0  0  0  0
   -5.3120   25.6570  -30.6950 C   0  0  0  0  0  0  0  0  0  0  0  0
   -3.9670   25.0970  -30.4950 N   0  0  0  0  0  0  0  0  0  0  0  0
   -4.0320   23.7150  -30.0020 C   0  0  0  0  0  0  0  0  0  0  0  0
   -3.5100   22.7440  -31.0380 C   0  0  0  0  0  0  0  0  0  0  0  0
   -4.2900   22.5200  -32.1860 C   0  0  0  0  0  0  0  0  0  0  0  0
   -3.8480   21.6620  -33.1930 C   0  0  0  0  0  0  0  0  0  0  0  0
   -2.6000   21.0340  -33.0890 C   0  0  0  0  0  0  0  0  0  0  0  0
   -2.1120   20.1000  -34.1620 C   0  0  0  0  0  0  0  0  0  0  0  0
   -0.7640   19.5930  -33.8080 N   0  0  0  0  0  0  0  0  0  0  0  0
    0.1750   19.5550  -34.9520 C   0  0  0  0  0  0  0  0  0  0  0  0
   -0.1050   20.7070  -35.9220 C   0  0  0  0  0  0  0  0  0  0  0  0
    0.5400   22.0130  -35.4350 C   0  0  0  0  0  0  0  0  0  0  0  0
    0.9210   21.9240  -34.0260 N   0  0  0  0  0  0  0  0  0  0  0  0
   -0.8070   18.3120  -33.0670 C   0  0  0  0  0  0  0  0  0  0  0  0
   -0.4520   18.4540  -31.5700 C   0  0  0  0  0  0  0  0  0  0  0  0
    0.9570   19.0330  -31.3570 C   0  0  0  0  0  0  0  0  0  0  0  0
    1.2070   20.2160  -32.1830 N   0  0  0  0  0  0  0  0  0  0  0  0
   -1.8080   21.2600  -31.9540 C   0  0  0  0  0  0  0  0  0  0  0  0
   -2.2530   22.0990  -30.9200 C   0  0  0  0  0  0  0  0  0  0  0  0
   -1.3970   22.2400  -29.7240 C   0  0  0  0  0  0  0  0  0  0  0  0
   -0.8700   23.4950  -29.3740 C   0  0  0  0  0  0  0  0  0  0  0  0
   -0.0040   23.6100  -28.2800 C   0  0  0  0  0  0  0  0  0  0  0  0
    0.3380   22.4800  -27.5310 C   0  0  0  0  0  0  0  0  0  0  0  0
   -0.1810   21.2290  -27.8780 C   0  0  0  0  0  0  0  0  0  0  0  0
   -1.0360   21.1070  -28.9770 C   0  0  0  0  0  0  0  0  0  0  0  0
   -5.1769   18.4101  -33.8944 H   0  0  0  0  0  0  0  0  0  0  0  0
   -6.8142   18.5101  -34.6266 H   0  0  0  0  0  0  0  0  0  0  0  0
   -5.7408   19.9504  -34.6266 H   0  0  0  0  0  0  0  0  0  0  0  0
   -6.9808   18.5989  -32.1715 H   0  0  0  0  0  0  0  0  0  0  0  0
   -5.8349   19.9994  -32.1403 H   0  0  0  0  0  0  0  0  0  0  0  0
   -9.5370   20.5469  -31.7461 H   0  0  0  0  0  0  0  0  0  0  0  0
   -9.6476   19.5669  -33.2566 H   0  0  0  0  0  0  0  0  0  0  0  0
   -8.7769   18.7763  -30.5199 H   0  0  0  0  0  0  0  0  0  0  0  0
   -9.4713   17.7850  -31.8472 H   0  0  0  0  0  0  0  0  0  0  0  0
   -7.7203   18.1859  -31.8472 H   0  0  0  0  0  0  0  0  0  0  0  0
   -6.4070   21.8360  -32.0382 H   0  0  0  0  0  0  0  0  0  0  0  0
   -7.8121   22.5505  -32.9098 H   0  0  0  0  0  0  0  0  0  0  0  0
   -9.2705   22.2190  -31.1152 H   0  0  0  0  0  0  0  0  0  0  0  0
   -8.3099   20.8591  -30.4447 H   0  0  0  0  0  0  0  0  0  0  0  0
   -6.5859   23.6177  -31.6287 H   0  0  0  0  0  0  0  0  0  0  0  0
   -8.0940   24.4558  -31.0501 H   0  0  0  0  0  0  0  0  0  0  0  0
   -7.0169   25.5693  -29.3792 H   0  0  0  0  0  0  0  0  0  0  0  0
   -5.7891   24.2431  -29.1592 H   0  0  0  0  0  0  0  0  0  0  0  0
   -5.5725   25.6050  -31.7624 H   0  0  0  0  0  0  0  0  0  0  0  0
   -5.3194   26.7041  -30.3580 H   0  0  0  0  0  0  0  0  0  0  0  0
   -3.4900   25.0600  -31.4290 H   0  0  0  0  0  0  0  0  0  0  0  0
   -3.4230   23.6295  -29.0900 H   0  0  0  0  0  0  0  0  0  0  0  0
   -5.0826   23.4683  -29.7888 H   0  0  0  0  0  0  0  0  0  0  0  0
   -5.2603   23.0274  -32.2913 H   0  0  0  0  0  0  0  0  0  0  0  0
   -4.4821   21.4776  -34.0727 H   0  0  0  0  0  0  0  0  0  0  0  0
   -2.8084   19.2535  -34.2545 H   0  0  0  0  0  0  0  0  0  0  0  0
   -2.0584   20.6403  -35.1186 H   0  0  0  0  0  0  0  0  0  0  0  0
    1.2052   19.6418  -34.5764 H   0  0  0  0  0  0  0  0  0  0  0  0
    0.0421   18.6029  -35.4866 H   0  0  0  0  0  0  0  0  0  0  0  0
    0.3047   20.4514  -36.9103 H   0  0  0  0  0  0  0  0  0  0  0  0
   -1.1932   20.8567  -35.9799 H   0  0  0  0  0  0  0  0  0  0  0  0
    1.4381   22.2153  -36.0370 H   0  0  0  0  0  0  0  0  0  0  0  0
   -0.1937   22.8251  -35.5457 H   0  0  0  0  0  0  0  0  0  0  0  0
    1.7200   21.2520  -33.9350 H   0  0  0  0  0  0  0  0  0  0  0  0
    0.1160   21.5370  -33.4800 H   0  0  0  0  0  0  0  0  0  0  0  0
   -1.8230   17.8979  -33.1462 H   0  0  0  0  0  0  0  0  0  0  0  0
   -0.0512   17.6519  -33.5176 H   0  0  0  0  0  0  0  0  0  0  0  0
   -1.1848   19.1224  -31.0944 H   0  0  0  0  0  0  0  0  0  0  0  0
   -0.4746   17.4497  -31.1219 H   0  0  0  0  0  0  0  0  0  0  0  0
    1.0678   19.3117  -30.2987 H   0  0  0  0  0  0  0  0  0  0  0  0
    1.6838   18.2609  -31.6496 H   0  0  0  0  0  0  0  0  0  0  0  0
    0.3480   20.8110  -32.2070 H   0  0  0  0  0  0  0  0  0  0  0  0
    1.4220   19.9120  -33.1600 H   0  0  0  0  0  0  0  0  0  0  0  0
   -0.8249   20.7734  -31.8727 H   0  0  0  0  0  0  0  0  0  0  0  0
   -1.1379   24.3868  -29.9596 H   0  0  0  0  0  0  0  0  0  0  0  0
    0.4088   24.5929  -28.0087 H   0  0  0  0  0  0  0  0  0  0  0  0
    1.0150   22.5752  -26.6692 H   0  0  0  0  0  0  0  0  0  0  0  0
    0.0836   20.3405  -27.2859 H   0  0  0  0  0  0  0  0  0  0  0  0
   -1.4281   20.1185  -29.2582 H   0  0  0  0  0  0  0  0  0  0  0  0
  1  2  1  0
  2  3  1  0
  3  4  1  0
  4  5  1  0
  3  6  1  0
  6  7  1  0
  7  8  1  0
  8  9  1  0
  9 10  1  0
 10 11  1  0
 11 12  1  0
 12 13  1  0
 13 14  1  0
 14 15  2  0
 15 16  1  0
 16 17  2  0
 17 18  1  0
 18 19  1  0
 19 20  1  0
 20 21  1  0
 21 22  1  0
 22 23  1  0
 19 24  1  0
 24 25  1  0
 25 26  1  0
 26 27  1  0
 17 28  1  0
 28 29  2  0
 29 30  1  0
 30 31  2  0
 31 32  1  0
 32 33  2  0
 33 34  1  0
 34 35  2  0
 29 14  1  0
 35 30  1  0
  1 36  1  0
  1 37  1  0
  1 38  1  0
  2 39  1  0
  2 40  1  0
  4 41  1  0
  4 42  1  0
  5 43  1  0
  5 44  1  0
  5 45  1  0
  6 46  1  0
  6 47  1  0
  7 48  1  0
  7 49  1  0
  9 50  1  0
  9 51  1  0
 10 52  1  0
 10 53  1  0
 11 54  1  0
 11 55  1  0
 12 56  1  0
 13 57  1  0
 13 58  1  0
 15 59  1  0
 16 60  1  0
 18 61  1  0
 18 62  1  0
 20 63  1  0
 20 64  1  0
 21 65  1  0
 21 66  1  0
 22 67  1  0
 22 68  1  0
 23 69  1  0
 23 70  1  0
 24 71  1  0
 24 72  1  0
 25 73  1  0
 25 74  1  0
 26 75  1  0
 26 76  1  0
 27 77  1  0
 27 78  1  0
 28 79  1  0
 31 80  1  0
 32 81  1  0
 33 82  1  0
 34 83  1  0
 35 84  1  0
M  END
>  <UniqueID>  (7) 
7

>  <SMILES>  (7) 
CCN(CC)CCOCCCNCc1ccc(CN(CCCN)CCCN)cc1-c1ccccc1

>  <Energy>  (7) 
81.03477643281484

>  <Genealogy>  (7) 
CCN(CC)CCOCCCNCc1ccc(CN(CCCN)CCCN)cc1-c1ccccc1 (3D coordinates assigned)
CCN(CC)CCOCCCNCc1ccc(CN(CCCN)CCCN)cc1-c1ccccc1 (optimized conformer: 81.03477643281484 kcal/mol)

>  <smiles>  (7) 
CCN(CC)CCOCCCNCc1ccc(CN(CCCN)CCCN)cc1-c1ccccc1

>  <score_type>  (7) 
oracle

>  <origin>  (7) 
adg

>  <m_score__min__energy>  (7) 
-9.4100000000000001

>  <m_primary>  (7) 
energy

$$$$
7:0
     RDKit          3D

 51 53  0  0  0  0  0  0  0  0999 V2000
    0.0430   25.2850  -36.4750 C   0  0  0  0  0  0  0  0  0  0  0  0
    0.8500   24.0460  -36.0770 C   0  0  0  0  0  0  0  0  0  0  0  0
   -0.0130   22.9070  -35.7170 N   0  0  0  0  0  0  0  0  0  0  0  0
    0.7080   21.6240  -35.7880 C   0  0  0  0  0  0  0  0  0  0  0  0
    0.0280   20.5520  -34.9300 C   0  0  0  0  0  0  0  0  0  0  0  0
   -1.1530   21.0710  -34.3540 O   0  0  0  0  0  0  0  0  0  0  0  0
   -1.1290   20.9320  -32.9440 C   0  0  0  0  0  0  0  0  0  0  0  0
   -2.4400   21.4400  -32.3420 C   0  0  0  0  0  0  0  0  0  0  0  0
   -3.4960   21.4840  -33.3520 N   0  0  0  0  0  0  0  0  0  0  0  0
   -4.8070   20.9820  -33.0460 C   0  0  0  0  0  0  0  0  0  0  0  0
   -5.1790   19.6870  -33.4460 C   0  0  0  0  0  0  0  0  0  0  0  0
   -4.2590   18.8410  -34.1040 C   0  0  0  0  0  0  0  0  0  0  0  0
   -4.6090   17.5380  -34.4470 C   0  0  0  0  0  0  0  0  0  0  0  0
   -5.8700   17.0480  -34.1260 C   0  0  0  0  0  0  0  0  0  0  0  0
   -6.7990   17.8670  -33.4840 C   0  0  0  0  0  0  0  0  0  0  0  0
   -6.4880   19.2130  -33.1590 C   0  0  0  0  0  0  0  0  0  0  0  0
   -7.4140   20.0500  -32.5630 N   0  0  0  0  0  0  0  0  0  0  0  0
   -8.8420   19.6630  -32.5230 C   0  0  0  0  0  0  0  0  0  0  0  0
   -7.0100   21.2610  -32.0310 C   0  0  0  0  0  0  0  0  0  0  0  0
   -7.8600   22.0300  -31.1950 C   0  0  0  0  0  0  0  0  0  0  0  0
   -7.4660   23.2810  -30.7220 C   0  0  0  0  0  0  0  0  0  0  0  0
   -6.2180   23.7960  -31.0570 C   0  0  0  0  0  0  0  0  0  0  0  0
   -5.7360   25.3750  -30.4660 Cl  0  0  0  0  0  0  0  0  0  0  0  0
   -5.3430   23.0440  -31.8400 C   0  0  0  0  0  0  0  0  0  0  0  0
   -5.7110   21.7640  -32.3070 C   0  0  0  0  0  0  0  0  0  0  0  0
   -0.2974   25.8075  -35.5689 H   0  0  0  0  0  0  0  0  0  0  0  0
    0.6759   25.9589  -37.0710 H   0  0  0  0  0  0  0  0  0  0  0  0
   -0.8293   24.9786  -37.0710 H   0  0  0  0  0  0  0  0  0  0  0  0
    1.4878   23.7525  -36.9238 H   0  0  0  0  0  0  0  0  0  0  0  0
    1.4501   24.3057  -35.1924 H   0  0  0  0  0  0  0  0  0  0  0  0
   -0.8580   22.8840  -36.3360 H   0  0  0  0  0  0  0  0  0  0  0  0
   -0.3330   23.0500  -34.7320 H   0  0  0  0  0  0  0  0  0  0  0  0
    0.7310   21.2838  -36.8338 H   0  0  0  0  0  0  0  0  0  0  0  0
    1.7276   21.7784  -35.4051 H   0  0  0  0  0  0  0  0  0  0  0  0
   -0.2242   19.6867  -35.5606 H   0  0  0  0  0  0  0  0  0  0  0  0
    0.7146   20.2422  -34.1284 H   0  0  0  0  0  0  0  0  0  0  0  0
   -0.9973   19.8710  -32.6855 H   0  0  0  0  0  0  0  0  0  0  0  0
   -0.2945   21.5231  -32.5387 H   0  0  0  0  0  0  0  0  0  0  0  0
   -2.7476   20.7663  -31.5286 H   0  0  0  0  0  0  0  0  0  0  0  0
   -2.2788   22.4581  -31.9578 H   0  0  0  0  0  0  0  0  0  0  0  0
   -3.2140   21.4920  -34.3590 H   0  0  0  0  0  0  0  0  0  0  0  0
   -3.2542   19.2161  -34.3483 H   0  0  0  0  0  0  0  0  0  0  0  0
   -3.8872   16.8954  -34.9725 H   0  0  0  0  0  0  0  0  0  0  0  0
   -6.1359   16.0111  -34.3791 H   0  0  0  0  0  0  0  0  0  0  0  0
   -7.7889   17.4629  -33.2254 H   0  0  0  0  0  0  0  0  0  0  0  0
   -9.1687   19.5745  -31.4764 H   0  0  0  0  0  0  0  0  0  0  0  0
   -9.4442   20.4303  -33.0314 H   0  0  0  0  0  0  0  0  0  0  0  0
   -8.9744   18.6966  -33.0314 H   0  0  0  0  0  0  0  0  0  0  0  0
   -8.8468   21.6325  -30.9152 H   0  0  0  0  0  0  0  0  0  0  0  0
   -8.1448   23.8631  -30.0813 H   0  0  0  0  0  0  0  0  0  0  0  0
   -4.3547   23.4530  -32.0967 H   0  0  0  0  0  0  0  0  0  0  0  0
  1  2  1  0
  2  3  1  0
  3  4  1  0
  4  5  1  0
  5  6  1  0
  6  7  1  0
  7  8  1  0
  8  9  1  0
  9 10  1  0
 10 11  2  0
 11 12  1  0
 12 13  2  0
 13 14  1  0
 14 15  2  0
 15 16  1  0
 16 17  2  0
 17 18  1  0
 17 19  1  0
 19 20  2  0
 20 21  1  0
 21 22  2  0
 22 23  1  0
 22 24  1  0
 24 25  2  0
 25 10  1  0
 16 11  1  0
 25 19  1  0
  1 26  1  0
  1 27  1  0
  1 28  1  0
  2 29  1  0
  2 30  1  0
  3 31  1  0
  3 32  1  0
  4 33  1  0
  4 34  1  0
  5 35  1  0
  5 36  1  0
  7 37  1  0
  7 38  1  0
  8 39  1  0
  8 40  1  0
  9 41  1  0
 12 42  1  0
 13 43  1  0
 14 44  1  0
 15 45  1  0
 18 46  1  0
 18 47  1  0
 18 48  1  0
 20 49  1  0
 21 50  1  0
 24 51  1  0
M  CHG  2   3   1  17   1
M  END
>  <UniqueID>  (8) 
8

>  <SMILES>  (8) 
CC[NH2+]CCOCCNc1c2ccccc2[n+](C)c2ccc(Cl)cc12

>  <Energy>  (8) 
73.46733443511393

>  <Genealogy>  (8) 
CC[NH2+]CCOCCNc1c2ccccc2[n+](C)c2ccc(Cl)cc12 (protonated)
CC[NH2+]CCOCCNc1c2ccccc2[n+](C)c2ccc(Cl)cc12 (3D coordinates assigned)
CC[NH2+]CCOCCNc1c2ccccc2[n+](C)c2ccc(Cl)cc12 (optimized conformer: 73.46733443511393 kcal/mol)

>  <smiles>  (8) 
CCNCCOCCNc1c2ccccc2[n+](C)c2ccc(Cl)cc12

>  <score_type>  (8) 
oracle

>  <origin>  (8) 
adg

>  <m_score__min__energy>  (8) 
-8.6699999999999999

>  <m_primary>  (8) 
energy

$$$$
8:0
     RDKit          3D

 44 45  0  0  0  0  0  0  0  0999 V2000
   -3.5650   22.0930  -29.4460 C   0  0  0  0  0  0  0  0  0  0  0  0
   -2.9320   23.1680  -30.3250 C   0  0  0  0  0  0  0  0  0  0  0  0
   -3.9580   24.1090  -30.7900 N   0  0  0  0  0  0  0  0  0  0  0  0
   -4.7730   24.6270  -29.6820 C   0  0  0  0  0  0  0  0  0  0  0  0
   -6.1470   25.0650  -30.1950 C   0  0  0  0  0  0  0  0  0  0  0  0
   -6.3880   24.5400  -31.5030 O   0  0  0  0  0  0  0  0  0  0  0  0
   -6.6220   23.1920  -31.8190 C   0  0  0  0  0  0  0  0  0  0  0  0
   -7.8660   22.5780  -31.5980 C   0  0  0  0  0  0  0  0  0  0  0  0
   -8.0550   21.2510  -31.9710 C   0  0  0  0  0  0  0  0  0  0  0  0
   -7.0050   20.5260  -32.5420 C   0  0  0  0  0  0  0  0  0  0  0  0
   -7.2010   19.2020  -32.9510 C   0  0  0  0  0  0  0  0  0  0  0  0
   -6.1550   18.4770  -33.5280 C   0  0  0  0  0  0  0  0  0  0  0  0
   -6.3830   17.0660  -34.0040 C   0  0  0  0  0  0  0  0  0  0  0  0
   -5.6360   16.0720  -33.1210 C   0  0  0  0  0  0  0  0  0  0  0  0
   -4.9050   19.0860  -33.7030 C   0  0  0  0  0  0  0  0  0  0  0  0
   -4.6760   20.4110  -33.2860 C   0  0  0  0  0  0  0  0  0  0  0  0
   -3.3580   20.9810  -33.4140 N   0  0  0  0  0  0  0  0  0  0  0  0
   -2.2870   20.7100  -32.4600 C   0  0  0  0  0  0  0  0  0  0  0  0
   -5.7450   21.1500  -32.7140 C   0  0  0  0  0  0  0  0  0  0  0  0
   -5.6010   22.4660  -32.3560 N   0  0  0  0  0  0  0  0  0  0  0  0
   -3.4140   22.3495  -28.3870 H   0  0  0  0  0  0  0  0  0  0  0  0
   -4.6426   22.0331  -29.6587 H   0  0  0  0  0  0  0  0  0  0  0  0
   -3.0947   21.1216  -29.6587 H   0  0  0  0  0  0  0  0  0  0  0  0
   -2.1746   23.7139  -29.7433 H   0  0  0  0  0  0  0  0  0  0  0  0
   -2.4617   22.6891  -31.1965 H   0  0  0  0  0  0  0  0  0  0  0  0
   -3.4790   24.9230  -31.2440 H   0  0  0  0  0  0  0  0  0  0  0  0
   -4.9020   23.8381  -28.9263 H   0  0  0  0  0  0  0  0  0  0  0  0
   -4.2633   25.4943  -29.2369 H   0  0  0  0  0  0  0  0  0  0  0  0
   -6.9234   24.6957  -29.5088 H   0  0  0  0  0  0  0  0  0  0  0  0
   -6.1729   26.1636  -30.2441 H   0  0  0  0  0  0  0  0  0  0  0  0
   -8.6866   23.1435  -31.1324 H   0  0  0  0  0  0  0  0  0  0  0  0
   -9.0327   20.7713  -31.8163 H   0  0  0  0  0  0  0  0  0  0  0  0
   -8.1850   18.7289  -32.8174 H   0  0  0  0  0  0  0  0  0  0  0  0
   -7.4595   16.8425  -33.9686 H   0  0  0  0  0  0  0  0  0  0  0  0
   -6.0081   16.9753  -35.0341 H   0  0  0  0  0  0  0  0  0  0  0  0
   -5.8172   16.3131  -32.0631 H   0  0  0  0  0  0  0  0  0  0  0  0
   -5.9940   15.0534  -33.3315 H   0  0  0  0  0  0  0  0  0  0  0  0
   -4.5580   16.1326  -33.3315 H   0  0  0  0  0  0  0  0  0  0  0  0
   -4.0887   18.5189  -34.1743 H   0  0  0  0  0  0  0  0  0  0  0  0
   -3.1340   21.6060  -34.2190 H   0  0  0  0  0  0  0  0  0  0  0  0
   -2.6751   20.8082  -31.4354 H   0  0  0  0  0  0  0  0  0  0  0  0
   -1.9097   19.6881  -32.6128 H   0  0  0  0  0  0  0  0  0  0  0  0
   -1.4691   21.4295  -32.6128 H   0  0  0  0  0  0  0  0  0  0  0  0
   -4.7060   22.9740  -32.5220 H   0  0  0  0  0  0  0  0  0  0  0  0
  1  2  1  0
  2  3  1  0
  3  4  1  0
  4  5  1  0
  5  6  1  0
  6  7  1  0
  7  8  2  0
  8  9  1  0
  9 10  2  0
 10 11  1  0
 11 12  2  0
 12 13  1  0
 13 14  1  0
 12 15  1  0
 15 16  2  0
 16 17  1  0
 17 18  1  0
 16 19  1  0
 19 20  2  0
 20  7  1  0
 19 10  1  0
  1 21  1  0
  1 22  1  0
  1 23  1  0
  2 24  1  0
  2 25  1  0
  3 26  1  0
  4 27  1  0
  4 28  1  0
  5 29  1  0
  5 30  1  0
  8 31  1  0
  9 32  1  0
 11 33  1  0
 13 34  1  0
 13 35  1  0
 14 36  1  0
 14 37  1  0
 14 38  1  0
 15 39  1  0
 17 40  1  0
 18 41  1  0
 18 42  1  0
 18 43  1  0
 20 44  1  0
M  CHG  1  20   1
M  END
>  <UniqueID>  (9) 
9

>  <SMILES>  (9) 
CCNCCOc1ccc2cc(CC)cc(NC)c2[nH+]1

>  <Energy>  (9) 
42.30297836326387

>  <Genealogy>  (9) 
CCNCCOc1ccc2cc(CC)cc(NC)c2[nH+]1 (protonated)
CCNCCOc1ccc2cc(CC)cc(NC)c2[nH+]1 (3D coordinates assigned)
CCNCCOc1ccc2cc(CC)cc(NC)c2[nH+]1 (optimized conformer: 42.30297836326387 kcal/mol)

>  <smiles>  (9) 
CCNCCOc1ccc2cc(CC)cc(NC)c2n1

>  <score_type>  (9) 
oracle

>  <origin>  (9) 
adg

>  <m_score__min__energy>  (9) 
-6.7400000000000002

>  <m_primary>  (9) 
energy

$$$$
9:0
     RDKit          3D

 58 60  0  0  0  0  0  0  0  0999 V2000
   -3.6790   22.5290  -28.2250 C   0  0  0  0  0  0  0  0  0  0  0  0
   -3.1130   21.2200  -28.7970 C   0  0  0  0  0  0  0  0  0  0  0  0
   -2.7450   20.2490  -27.6670 C   0  0  0  0  0  0  0  0  0  0  0  0
   -1.9210   21.4880  -29.7370 C   0  0  0  0  0  0  0  0  0  0  0  0
   -1.2460   20.2340  -30.1060 N   0  0  0  0  0  0  0  0  0  0  0  0
    0.0740   20.4540  -30.7170 C   0  0  0  0  0  0  0  0  0  0  0  0
    0.0270   20.5110  -32.2530 C   0  0  0  0  0  0  0  0  0  0  0  0
   -1.0130   19.6990  -32.7670 O   0  0  0  0  0  0  0  0  0  0  0  0
   -1.6420   20.3060  -33.8820 C   0  0  0  0  0  0  0  0  0  0  0  0
   -2.8450   21.1510  -33.4490 C   0  0  0  0  0  0  0  0  0  0  0  0
   -3.4480   20.6290  -32.2220 N   0  0  0  0  0  0  0  0  0  0  0  0
   -4.8760   20.5370  -32.1110 C   0  0  0  0  0  0  0  0  0  0  0  0
   -5.5390   19.3630  -32.5040 C   0  0  0  0  0  0  0  0  0  0  0  0
   -4.8130   18.2570  -32.9960 C   0  0  0  0  0  0  0  0  0  0  0  0
   -5.4740   17.1210  -33.4560 C   0  0  0  0  0  0  0  0  0  0  0  0
   -6.8630   17.0720  -33.4470 C   0  0  0  0  0  0  0  0  0  0  0  0
   -7.6020   18.1470  -32.9490 C   0  0  0  0  0  0  0  0  0  0  0  0
   -6.9570   19.3000  -32.4320 C   0  0  0  0  0  0  0  0  0  0  0  0
   -7.6720   20.3540  -31.8960 N   0  0  0  0  0  0  0  0  0  0  0  0
   -9.1060   20.1830  -31.5650 C   0  0  0  0  0  0  0  0  0  0  0  0
   -7.0420   21.5590  -31.6380 C   0  0  0  0  0  0  0  0  0  0  0  0
   -7.7740   22.7320  -31.3320 C   0  0  0  0  0  0  0  0  0  0  0  0
   -7.1270   23.9250  -31.0100 C   0  0  0  0  0  0  0  0  0  0  0  0
   -5.7300   23.9970  -30.9930 C   0  0  0  0  0  0  0  0  0  0  0  0
   -5.0740   25.2300  -30.6430 N   0  0  0  0  0  0  0  0  0  0  0  0
   -5.7380   26.2660  -30.4270 O   0  0  0  0  0  0  0  0  0  0  0  0
   -3.7050   25.2830  -30.5110 O   0  0  0  0  0  0  0  0  0  0  0  0
   -4.9890   22.8590  -31.3400 C   0  0  0  0  0  0  0  0  0  0  0  0
   -5.6270   21.6520  -31.6960 C   0  0  0  0  0  0  0  0  0  0  0  0
   -3.6608   22.4870  -27.1260 H   0  0  0  0  0  0  0  0  0  0  0  0
   -3.0663   23.3750  -28.5698 H   0  0  0  0  0  0  0  0  0  0  0  0
   -4.7151   22.6621  -28.5698 H   0  0  0  0  0  0  0  0  0  0  0  0
   -3.8967   20.7422  -29.4033 H   0  0  0  0  0  0  0  0  0  0  0  0
   -2.9277   20.7311  -26.6953 H   0  0  0  0  0  0  0  0  0  0  0  0
   -3.3616   19.3417  -27.7479 H   0  0  0  0  0  0  0  0  0  0  0  0
   -1.6819   19.9783  -27.7479 H   0  0  0  0  0  0  0  0  0  0  0  0
   -2.2868   21.9813  -30.6496 H   0  0  0  0  0  0  0  0  0  0  0  0
   -1.1999   22.1320  -29.2124 H   0  0  0  0  0  0  0  0  0  0  0  0
   -1.8510   19.6990  -30.7720 H   0  0  0  0  0  0  0  0  0  0  0  0
    0.4779   21.4066  -30.3437 H   0  0  0  0  0  0  0  0  0  0  0  0
    0.7095   19.5999  -30.4402 H   0  0  0  0  0  0  0  0  0  0  0  0
   -0.1420   21.5514  -32.5678 H   0  0  0  0  0  0  0  0  0  0  0  0
    0.9847   20.1365  -32.6435 H   0  0  0  0  0  0  0  0  0  0  0  0
   -0.9154   20.9530  -34.3953 H   0  0  0  0  0  0  0  0  0  0  0  0
   -1.9986   19.5123  -34.5549 H   0  0  0  0  0  0  0  0  0  0  0  0
   -2.5120   22.1845  -33.2729 H   0  0  0  0  0  0  0  0  0  0  0  0
   -3.5996   21.1158  -34.2486 H   0  0  0  0  0  0  0  0  0  0  0  0
   -2.8630   20.0890  -31.5420 H   0  0  0  0  0  0  0  0  0  0  0  0
   -3.7138   18.2928  -33.0162 H   0  0  0  0  0  0  0  0  0  0  0  0
   -4.8963   16.2615  -33.8269 H   0  0  0  0  0  0  0  0  0  0  0  0
   -7.3822   16.1827  -33.8338 H   0  0  0  0  0  0  0  0  0  0  0  0
   -8.7009   18.0992  -32.9577 H   0  0  0  0  0  0  0  0  0  0  0  0
   -9.2308   20.1681  -30.4722 H   0  0  0  0  0  0  0  0  0  0  0  0
   -9.6823   21.0188  -31.9885 H   0  0  0  0  0  0  0  0  0  0  0  0
   -9.4696   19.2351  -31.9885 H   0  0  0  0  0  0  0  0  0  0  0  0
   -8.8735   22.7018  -31.3486 H   0  0  0  0  0  0  0  0  0  0  0  0
   -7.7212   24.8182  -30.7670 H   0  0  0  0  0  0  0  0  0  0  0  0
   -3.8901   22.9078  -31.3347 H   0  0  0  0  0  0  0  0  0  0  0  0
  1  2  1  0
  2  3  1  0
  2  4  1  0
  4  5  1  0
  5  6  1  0
  6  7  1  0
  7  8  1  0
  8  9  1  0
  9 10  1  0
 10 11  1  0
 11 12  1  0
 12 13  2  0
 13 14  1  0
 14 15  2  0
 15 16  1  0
 16 17  2  0
 17 18  1  0
 18 19  2  0
 19 20  1  0
 19 21  1  0
 21 22  2  0
 22 23  1  0
 23 24  2  0
 24 25  1  0
 25 26  2  0
 25 27  1  0
 24 28  1  0
 28 29  2  0
 29 12  1  0
 18 13  1  0
 29 21  1  0
  1 30  1  0
  1 31  1  0
  1 32  1  0
  2 33  1  0
  3 34  1  0
  3 35  1  0
  3 36  1  0
  4 37  1  0
  4 38  1  0
  5 39  1  0
  6 40  1  0
  6 41  1  0
  7 42  1  0
  7 43  1  0
  9 44  1  0
  9 45  1  0
 10 46  1  0
 10 47  1  0
 11 48  1  0
 14 49  1  0
 15 50  1  0
 16 51  1  0
 17 52  1  0
 20 53  1  0
 20 54  1  0
 20 55  1  0
 22 56  1  0
 23 57  1  0
 28 58  1  0
M  CHG  3  19   1  25   1  27  -1
M  END
>  <UniqueID>  (10) 
10

>  <SMILES>  (10) 
CC(C)CNCCOCCNc1c2ccccc2[n+](C)c2ccc([N+](=O)[O-])cc12

>  <Energy>  (10) 
81.93119748909488

>  <Genealogy>  (10) 
CC(C)CNCCOCCNc1c2ccccc2[n+](C)c2ccc([N+](=O)[O-])cc12 (3D coordinates assigned)
CC(C)CNCCOCCNc1c2ccccc2[n+](C)c2ccc([N+](=O)[O-])cc12 (optimized conformer: 81.93119748909488 kcal/mol)

>  <smiles>  (10) 
CC(C)CNCCOCCNc1c2ccccc2[n+](C)c2ccc([N+](=O)[O-])cc12

>  <score_type>  (10) 
oracle

>  <origin>  (10) 
adg

>  <m_score__min__energy>  (10) 
-10.210000000000001

>  <m_primary>  (10) 
energy

$$$$
10:0
     RDKit          3D

 29 30  0  0  0  0  0  0  0  0999 V2000
   -9.0110   19.5920  -32.0640 C   0  0  0  0  0  0  0  0  0  0  0  0
   -8.6010   21.0220  -31.9720 C   0  0  0  0  0  0  0  0  0  0  0  0
   -9.4730   22.0490  -31.9920 N   0  0  0  0  0  0  0  0  0  0  0  0
   -8.7310   23.1130  -31.9540 O   0  0  0  0  0  0  0  0  0  0  0  0
   -7.4680   22.7670  -31.9190 C   0  0  0  0  0  0  0  0  0  0  0  0
   -6.3320   23.7390  -31.9000 C   0  0  0  0  0  0  0  0  0  0  0  0
   -6.2540   24.4400  -30.5400 C   0  0  0  0  0  0  0  0  0  0  0  0
   -5.3300   25.6640  -30.5490 C   0  0  0  0  0  0  0  0  0  0  0  0
   -3.9340   25.2820  -30.7550 N   0  0  0  0  0  0  0  0  0  0  0  0
   -3.1230   24.4110  -29.9520 C   0  0  0  0  0  0  0  0  0  0  0  0
   -3.1950   23.1720  -30.1620 O   0  0  0  0  0  0  0  0  0  0  0  0
   -2.2260   24.8960  -28.8830 C   0  0  0  0  0  0  0  0  0  0  0  0
   -2.0900   24.3190  -27.6340 C   0  0  0  0  0  0  0  0  0  0  0  0
   -1.1660   25.0880  -26.9620 C   0  0  0  0  0  0  0  0  0  0  0  0
   -0.7960   26.0890  -27.8360 C   0  0  0  0  0  0  0  0  0  0  0  0
   -1.4450   25.9480  -28.9680 O   0  0  0  0  0  0  0  0  0  0  0  0
   -7.3150   21.4300  -31.9410 N   0  0  0  0  0  0  0  0  0  0  0  0
   -9.1295   19.1787  -31.0515 H   0  0  0  0  0  0  0  0  0  0  0  0
   -9.9664   19.5185  -32.6042 H   0  0  0  0  0  0  0  0  0  0  0  0
   -8.2397   19.0234  -32.6042 H   0  0  0  0  0  0  0  0  0  0  0  0
   -5.3908   23.2006  -32.0851 H   0  0  0  0  0  0  0  0  0  0  0  0
   -6.4946   24.4944  -32.6829 H   0  0  0  0  0  0  0  0  0  0  0  0
   -7.2652   24.7662  -30.2553 H   0  0  0  0  0  0  0  0  0  0  0  0
   -5.8377   23.7187  -29.8214 H   0  0  0  0  0  0  0  0  0  0  0  0
   -5.6391   26.3388  -31.3608 H   0  0  0  0  0  0  0  0  0  0  0  0
   -5.4099   26.1630  -29.5720 H   0  0  0  0  0  0  0  0  0  0  0  0
   -2.6126   23.4284  -27.2548 H   0  0  0  0  0  0  0  0  0  0  0  0
   -0.7979   24.9351  -25.9368 H   0  0  0  0  0  0  0  0  0  0  0  0
   -0.0680   26.8842  -27.6175 H   0  0  0  0  0  0  0  0  0  0  0  0
  1  2  1  0
  2  3  2  0
  3  4  1  0
  4  5  1  0
  5  6  1  0
  6  7  1  0
  7  8  1  0
  8  9  1  0
  9 10  1  0
 10 11  2  0
 10 12  1  0
 12 13  2  0
 13 14  1  0
 14 15  2  0
 15 16  1  0
  5 17  2  0
 17  2  1  0
 16 12  1  0
  1 18  1  0
  1 19  1  0
  1 20  1  0
  6 21  1  0
  6 22  1  0
  7 23  1  0
  7 24  1  0
  8 25  1  0
  8 26  1  0
 13 27  1  0
 14 28  1  0
 15 29  1  0
M  CHG  1   9  -1
M  END
>  <UniqueID>  (11) 
11

>  <SMILES>  (11) 
Cc1noc(CCC[N-]C(=O)c2ccco2)n1

>  <Energy>  (11) 
82.20300528352978

>  <Genealogy>  (11) 
Cc1noc(CCC[N-]C(=O)c2ccco2)n1 (protonated)
Cc1noc(CCC[N-]C(=O)c2ccco2)n1 (3D coordinates assigned)
Cc1noc(CCC[N-]C(=O)c2ccco2)n1 (optimized conformer: 82.20300528352978 kcal/mol)

>  <smiles>  (11) 
Cc1noc(CCCNC(=O)c2ccco2)n1

>  <score_type>  (11) 
oracle

>  <origin>  (11) 
adg

>  <m_score__min__energy>  (11) 
-8.1699999999999999

>  <m_primary>  (11) 
energy

$$$$
11:0
     RDKit          3D

 54 56  0  0  0  0  0  0  0  0999 V2000
   -3.0270   20.7260  -31.6180 C   0  0  0  0  0  0  0  0  0  0  0  0
   -2.8620   21.1410  -33.0720 C   0  0  0  0  0  0  0  0  0  0  0  0
   -2.8140   19.9850  -33.8790 O   0  0  0  0  0  0  0  0  0  0  0  0
   -1.4720   19.5820  -34.0500 C   0  0  0  0  0  0  0  0  0  0  0  0
   -1.3330   18.0980  -33.7170 C   0  0  0  0  0  0  0  0  0  0  0  0
   -2.4630   17.6560  -32.8800 N   0  0  0  0  0  0  0  0  0  0  0  0
   -3.2300   16.5520  -33.4920 C   0  0  0  0  0  0  0  0  0  0  0  0
   -4.5030   16.2950  -32.6700 C   0  0  0  0  0  0  0  0  0  0  0  0
   -5.5210   17.4520  -32.7730 C   0  0  0  0  0  0  0  0  0  0  0  0
   -5.3190   18.2820  -33.9820 N   0  0  0  0  0  0  0  0  0  0  0  0
   -6.4260   19.2320  -34.2270 C   0  0  0  0  0  0  0  0  0  0  0  0
   -6.7370   20.1260  -33.0500 C   0  0  0  0  0  0  0  0  0  0  0  0
   -6.0780   21.2740  -32.7980 N   0  0  0  0  0  0  0  0  0  0  0  0
   -6.6670   21.7400  -31.6740 C   0  0  0  0  0  0  0  0  0  0  0  0
   -6.2710   22.9910  -30.9980 C   0  0  0  0  0  0  0  0  0  0  0  0
   -7.2370   23.8220  -30.4020 C   0  0  0  0  0  0  0  0  0  0  0  0
   -6.8530   25.0040  -29.7640 C   0  0  0  0  0  0  0  0  0  0  0  0
   -5.5060   25.3700  -29.7150 C   0  0  0  0  0  0  0  0  0  0  0  0
   -4.5380   24.5520  -30.3050 C   0  0  0  0  0  0  0  0  0  0  0  0
   -3.2310   24.9070  -30.2570 F   0  0  0  0  0  0  0  0  0  0  0  0
   -4.9180   23.3670  -30.9450 C   0  0  0  0  0  0  0  0  0  0  0  0
   -7.6310   20.9530  -31.2470 O   0  0  0  0  0  0  0  0  0  0  0  0
   -7.7080   19.9480  -32.0800 C   0  0  0  0  0  0  0  0  0  0  0  0
   -8.6790   18.8200  -31.9360 C   0  0  0  0  0  0  0  0  0  0  0  0
   -4.9680   17.4770  -35.1640 C   0  0  0  0  0  0  0  0  0  0  0  0
   -3.5800   16.8350  -34.9790 C   0  0  0  0  0  0  0  0  0  0  0  0
   -2.7005   21.5472  -30.9630 H   0  0  0  0  0  0  0  0  0  0  0  0
   -4.0845   20.4972  -31.4197 H   0  0  0  0  0  0  0  0  0  0  0  0
   -2.4153   19.8335  -31.4197 H   0  0  0  0  0  0  0  0  0  0  0  0
   -3.7141   21.7670  -33.3754 H   0  0  0  0  0  0  0  0  0  0  0  0
   -1.9310   21.7147  -33.1904 H   0  0  0  0  0  0  0  0  0  0  0  0
   -1.1694   19.7523  -35.0938 H   0  0  0  0  0  0  0  0  0  0  0  0
   -0.8276   20.1677  -33.3779 H   0  0  0  0  0  0  0  0  0  0  0  0
   -1.3225   17.5157  -34.6502 H   0  0  0  0  0  0  0  0  0  0  0  0
   -0.3945   17.9404  -33.1653 H   0  0  0  0  0  0  0  0  0  0  0  0
   -3.0910   18.4730  -32.7000 H   0  0  0  0  0  0  0  0  0  0  0  0
   -2.5988   15.6512  -33.4826 H   0  0  0  0  0  0  0  0  0  0  0  0
   -4.9789   15.3735  -33.0366 H   0  0  0  0  0  0  0  0  0  0  0  0
   -4.2056   16.2063  -31.6147 H   0  0  0  0  0  0  0  0  0  0  0  0
   -6.5353   17.0273  -32.8027 H   0  0  0  0  0  0  0  0  0  0  0  0
   -5.3782   18.1005  -31.8960 H   0  0  0  0  0  0  0  0  0  0  0  0
   -6.1539   19.8677  -35.0824 H   0  0  0  0  0  0  0  0  0  0  0  0
   -7.3268   18.6303  -34.4177 H   0  0  0  0  0  0  0  0  0  0  0  0
   -8.2996   23.5398  -30.4385 H   0  0  0  0  0  0  0  0  0  0  0  0
   -7.6137   25.6483  -29.2989 H   0  0  0  0  0  0  0  0  0  0  0  0
   -5.2069   26.3016  -29.2123 H   0  0  0  0  0  0  0  0  0  0  0  0
   -4.1536   22.7264  -31.4091 H   0  0  0  0  0  0  0  0  0  0  0  0
   -8.8519   18.6191  -30.8684 H   0  0  0  0  0  0  0  0  0  0  0  0
   -9.6304   19.0915  -32.4168 H   0  0  0  0  0  0  0  0  0  0  0  0
   -8.2690   17.9196  -32.4168 H   0  0  0  0  0  0  0  0  0  0  0  0
   -5.7192   16.6850  -35.3000 H   0  0  0  0  0  0  0  0  0  0  0  0
   -4.9456   18.1303  -36.0487 H   0  0  0  0  0  0  0  0  0  0  0  0
   -3.5586   15.8834  -35.5304 H   0  0  0  0  0  0  0  0  0  0  0  0
   -2.8357   17.5499  -35.3597 H   0  0  0  0  0  0  0  0  0  0  0  0
  1  2  1  0
  2  3  1  0
  3  4  1  0
  4  5  1  0
  5  6  1  0
  6  7  1  0
  7  8  1  0
  8  9  1  0
  9 10  1  0
 10 11  1  0
 11 12  1  0
 12 13  1  0
 13 14  2  0
 14 15  1  0
 15 16  2  0
 16 17  1  0
 17 18  2  0
 18 19  1  0
 19 20  1  0
 19 21  2  0
 14 22  1  0
 22 23  1  0
 23 24  1  0
 10 25  1  0
 25 26  1  0
 26  7  1  0
 23 12  2  0
 21 15  1  0
  1 27  1  0
  1 28  1  0
  1 29  1  0
  2 30  1  0
  2 31  1  0
  4 32  1  0
  4 33  1  0
  5 34  1  0
  5 35  1  0
  6 36  1  0
  7 37  1  0
  8 38  1  0
  8 39  1  0
  9 40  1  0
  9 41  1  0
 11 42  1  0
 11 43  1  0
 16 44  1  0
 17 45  1  0
 18 46  1  0
 21 47  1  0
 24 48  1  0
 24 49  1  0
 24 50  1  0
 25 51  1  0
 25 52  1  0
 26 53  1  0
 26 54  1  0
M  END
>  <UniqueID>  (12) 
12

>  <SMILES>  (12) 
CCOCCNC1CCN(Cc2nc(-c3cccc(F)c3)oc2C)CC1

>  <Energy>  (12) 
89.01063431159601

>  <Genealogy>  (12) 
CCOCCNC1CCN(Cc2nc(-c3cccc(F)c3)oc2C)CC1 (3D coordinates assigned)
CCOCCNC1CCN(Cc2nc(-c3cccc(F)c3)oc2C)CC1 (nonaromatic ring conformer: 89.01063431159601 kcal/mol)

>  <smiles>  (12) 
CCOCCNC1CCN(Cc2nc(-c3cccc(F)c3)oc2C)CC1

>  <score_type>  (12) 
oracle

>  <origin>  (12) 
adg

>  <m_score__min__energy>  (12) 
-8.1099999999999994

>  <m_primary>  (12) 
energy

$$$$
13:0
     RDKit          3D

 34 35  0  0  0  0  0  0  0  0999 V2000
   -3.2880   24.1870  -27.8290 C   0  0  0  0  0  0  0  0  0  0  0  0
   -2.5700   24.9010  -28.9690 C   0  0  0  0  0  0  0  0  0  0  0  0
   -3.4860   25.2480  -30.0070 O   0  0  0  0  0  0  0  0  0  0  0  0
   -4.5940   24.4830  -30.4080 C   0  0  0  0  0  0  0  0  0  0  0  0
   -5.8710   24.9370  -30.0580 C   0  0  0  0  0  0  0  0  0  0  0  0
   -7.0090   24.2170  -30.4290 C   0  0  0  0  0  0  0  0  0  0  0  0
   -6.8840   23.0240  -31.1510 C   0  0  0  0  0  0  0  0  0  0  0  0
   -8.3260   22.1220  -31.6110 S   0  0  0  0  0  0  0  0  0  0  0  0
   -9.3130   23.0400  -32.2800 O   0  0  0  0  0  0  0  0  0  0  0  0
   -8.9480   21.5540  -30.3650 O   0  0  0  0  0  0  0  0  0  0  0  0
   -7.8880   20.8220  -32.7000 N   0  0  0  0  0  0  0  0  0  0  0  0
   -9.0650   20.0110  -33.0320 C   0  0  0  0  0  0  0  0  0  0  0  0
   -9.1160   18.8310  -32.0700 C   0  0  0  0  0  0  0  0  0  0  0  0
   -7.7480   18.7750  -31.4180 C   0  0  0  0  0  0  0  0  0  0  0  0
   -6.9470   19.9040  -32.0510 C   0  0  0  0  0  0  0  0  0  0  0  0
   -5.6100   22.5610  -31.5060 C   0  0  0  0  0  0  0  0  0  0  0  0
   -4.4700   23.2830  -31.1350 C   0  0  0  0  0  0  0  0  0  0  0  0
   -2.9108   24.5621  -26.8661 H   0  0  0  0  0  0  0  0  0  0  0  0
   -4.3689   24.3788  -27.8992 H   0  0  0  0  0  0  0  0  0  0  0  0
   -3.1023   23.1051  -27.8992 H   0  0  0  0  0  0  0  0  0  0  0  0
   -2.1002   25.8171  -28.5816 H   0  0  0  0  0  0  0  0  0  0  0  0
   -1.8074   24.2251  -29.3834 H   0  0  0  0  0  0  0  0  0  0  0  0
   -5.9794   25.8698  -29.4852 H   0  0  0  0  0  0  0  0  0  0  0  0
   -8.0069   24.5886  -30.1529 H   0  0  0  0  0  0  0  0  0  0  0  0
   -9.9768   20.6172  -32.9265 H   0  0  0  0  0  0  0  0  0  0  0  0
   -8.9994   19.6528  -34.0700 H   0  0  0  0  0  0  0  0  0  0  0  0
   -9.8966   18.9881  -31.3111 H   0  0  0  0  0  0  0  0  0  0  0  0
   -9.3568   17.8924  -32.5906 H   0  0  0  0  0  0  0  0  0  0  0  0
   -7.8337   18.9269  -30.3319 H   0  0  0  0  0  0  0  0  0  0  0  0
   -7.2647   17.7985  -31.5688 H   0  0  0  0  0  0  0  0  0  0  0  0
   -6.3794   20.4388  -31.2753 H   0  0  0  0  0  0  0  0  0  0  0  0
   -6.2378   19.5008  -32.7889 H   0  0  0  0  0  0  0  0  0  0  0  0
   -5.5056   21.6272  -32.0780 H   0  0  0  0  0  0  0  0  0  0  0  0
   -3.4725   22.9116  -31.4124 H   0  0  0  0  0  0  0  0  0  0  0  0
  1  2  1  0
  2  3  1  0
  3  4  1  0
  4  5  2  0
  5  6  1  0
  6  7  2  0
  7  8  1  0
  8  9  2  0
  8 10  2  0
  8 11  1  0
 11 12  1  0
 12 13  1  0
 13 14  1  0
 14 15  1  0
  7 16  1  0
 16 17  2  0
 17  4  1  0
 15 11  1  0
  1 18  1  0
  1 19  1  0
  1 20  1  0
  2 21  1  0
  2 22  1  0
  5 23  1  0
  6 24  1  0
 12 25  1  0
 12 26  1  0
 13 27  1  0
 13 28  1  0
 14 29  1  0
 14 30  1  0
 15 31  1  0
 15 32  1  0
 16 33  1  0
 17 34  1  0
M  END
>  <UniqueID>  (13) 
13

>  <SMILES>  (13) 
CCOc1ccc(S(=O)(=O)N2CCCC2)cc1

>  <Energy>  (13) 
31.788496832306905

>  <Genealogy>  (13) 
CCOc1ccc(S(=O)(=O)N2CCCC2)cc1 (3D coordinates assigned)
CCOc1ccc(S(=O)(=O)N2CCCC2)cc1 (nonaromatic ring conformer: 31.788496832306905 kcal/mol)

>  <smiles>  (13) 
CCOc1ccc(S(=O)(=O)N2CCCC2)cc1

>  <score_type>  (13) 
oracle

>  <origin>  (13) 
adg

>  <m_score__min__energy>  (13) 
-7.5700000000000003

>  <m_primary>  (13) 
energy

$$$$
14:0
     RDKit          3D

 34 36  0  0  0  0  0  0  0  0999 V2000
   -9.1710   21.7570  -31.2090 C   0  0  0  0  0  0  0  0  0  0  0  0
   -8.0520   21.0760  -31.8810 N   0  0  0  0  0  0  0  0  0  0  0  0
   -6.9670   21.7970  -32.3540 C   0  0  0  0  0  0  0  0  0  0  0  0
   -6.8680   23.5900  -32.2030 S   0  0  0  0  0  0  0  0  0  0  0  0
   -5.5420   23.5810  -30.9410 C   0  0  0  0  0  0  0  0  0  0  0  0
   -4.8900   24.9290  -30.8010 C   0  0  0  0  0  0  0  0  0  0  0  0
   -5.6100   25.9620  -30.8070 O   0  0  0  0  0  0  0  0  0  0  0  0
   -3.5010   25.0630  -30.4680 N   0  0  0  0  0  0  0  0  0  0  0  0
   -2.8520   24.5200  -29.3120 C   0  0  0  0  0  0  0  0  0  0  0  0
   -3.4240   23.4630  -28.5850 C   0  0  0  0  0  0  0  0  0  0  0  0
   -2.7630   22.9280  -27.4770 C   0  0  0  0  0  0  0  0  0  0  0  0
   -1.5130   23.4300  -27.0990 C   0  0  0  0  0  0  0  0  0  0  0  0
   -0.9230   24.4590  -27.8390 C   0  0  0  0  0  0  0  0  0  0  0  0
   -1.5850   24.9950  -28.9490 C   0  0  0  0  0  0  0  0  0  0  0  0
   -5.9330   21.1620  -32.9800 N   0  0  0  0  0  0  0  0  0  0  0  0
   -5.9760   19.8250  -33.1740 C   0  0  0  0  0  0  0  0  0  0  0  0
   -4.9980   19.0720  -33.8240 C   0  0  0  0  0  0  0  0  0  0  0  0
   -5.3350   17.7220  -33.9040 C   0  0  0  0  0  0  0  0  0  0  0  0
   -6.8430   17.4830  -33.1690 S   0  0  0  0  0  0  0  0  0  0  0  0
   -7.0580   19.0950  -32.7500 C   0  0  0  0  0  0  0  0  0  0  0  0
   -8.1140   19.7180  -32.1010 C   0  0  0  0  0  0  0  0  0  0  0  0
   -9.1110   19.0370  -31.7310 O   0  0  0  0  0  0  0  0  0  0  0  0
   -9.0453   21.6805  -30.1189 H   0  0  0  0  0  0  0  0  0  0  0  0
   -9.1850   22.8169  -31.5030 H   0  0  0  0  0  0  0  0  0  0  0  0
  -10.1188   21.2824  -31.5030 H   0  0  0  0  0  0  0  0  0  0  0  0
   -5.9758   23.2937  -29.9718 H   0  0  0  0  0  0  0  0  0  0  0  0
   -4.7729   22.8625  -31.2607 H   0  0  0  0  0  0  0  0  0  0  0  0
   -4.3985   23.0541  -28.8902 H   0  0  0  0  0  0  0  0  0  0  0  0
   -3.2251   22.1122  -26.9017 H   0  0  0  0  0  0  0  0  0  0  0  0
   -0.9954   23.0158  -26.2212 H   0  0  0  0  0  0  0  0  0  0  0  0
    0.0639   24.8481  -27.5479 H   0  0  0  0  0  0  0  0  0  0  0  0
   -1.1089   25.7922  -29.5388 H   0  0  0  0  0  0  0  0  0  0  0  0
   -4.0665   19.4956  -34.2276 H   0  0  0  0  0  0  0  0  0  0  0  0
   -4.7205   16.9374  -34.3696 H   0  0  0  0  0  0  0  0  0  0  0  0
  1  2  1  0
  2  3  1  0
  3  4  1  0
  4  5  1  0
  5  6  1  0
  6  7  2  0
  6  8  1  0
  8  9  1  0
  9 10  2  0
 10 11  1  0
 11 12  2  0
 12 13  1  0
 13 14  2  0
  3 15  2  0
 15 16  1  0
 16 17  1  0
 17 18  2  0
 18 19  1  0
 19 20  1  0
 20 21  1  0
 21 22  2  0
 21  2  1  0
 14  9  1  0
 20 16  2  0
  1 23  1  0
  1 24  1  0
  1 25  1  0
  5 26  1  0
  5 27  1  0
 10 28  1  0
 11 29  1  0
 12 30  1  0
 13 31  1  0
 14 32  1  0
 17 33  1  0
 18 34  1  0
M  CHG  1   8  -1
M  END
>  <UniqueID>  (14) 
14

>  <SMILES>  (14) 
Cn1c(SCC(=O)[N-]c2ccccc2)nc2ccsc2c1=O

>  <Energy>  (14) 
73.12737543719926

>  <Genealogy>  (14) 
Cn1c(SCC(=O)[N-]c2ccccc2)nc2ccsc2c1=O (protonated)
Cn1c(SCC(=O)[N-]c2ccccc2)nc2ccsc2c1=O (3D coordinates assigned)
Cn1c(SCC(=O)[N-]c2ccccc2)nc2ccsc2c1=O (optimized conformer: 73.12737543719926 kcal/mol)

>  <smiles>  (14) 
Cn1c(SCC(=O)Nc2ccccc2)nc2ccsc2c1=O

>  <score_type>  (14) 
oracle

>  <origin>  (14) 
adg

>  <m_score__min__energy>  (14) 
-9.9800000000000004

>  <m_primary>  (14) 
energy

$$$$
15:0
     RDKit          3D

 50 52  0  0  0  0  0  0  0  0999 V2000
   -9.8640   21.5580  -31.5930 C   0  0  0  0  0  0  0  0  0  0  0  0
   -8.4020   21.7840  -31.8660 C   0  0  0  0  0  0  0  0  0  0  0  0
   -7.9160   23.1110  -31.9050 C   0  0  0  0  0  0  0  0  0  0  0  0
   -6.5600   23.3820  -32.1570 C   0  0  0  0  0  0  0  0  0  0  0  0
   -5.6570   22.3370  -32.3780 C   0  0  0  0  0  0  0  0  0  0  0  0
   -6.1420   21.0300  -32.3430 C   0  0  0  0  0  0  0  0  0  0  0  0
   -5.4710   19.8350  -32.5140 C   0  0  0  0  0  0  0  0  0  0  0  0
   -3.9900   19.6530  -32.7570 C   0  0  0  0  0  0  0  0  0  0  0  0
   -3.1840   20.1370  -31.6240 N   0  0  0  0  0  0  0  0  0  0  0  0
   -2.2170   21.1680  -32.0380 C   0  0  0  0  0  0  0  0  0  0  0  0
   -2.5060   22.5140  -31.3620 C   0  0  0  0  0  0  0  0  0  0  0  0
   -2.9360   22.3000  -29.9580 N   0  0  0  0  0  0  0  0  0  0  0  0
   -1.9780   22.8490  -28.9800 C   0  0  0  0  0  0  0  0  0  0  0  0
   -2.0260   24.3940  -28.9360 C   0  0  0  0  0  0  0  0  0  0  0  0
   -3.0830   24.9270  -29.7120 O   0  0  0  0  0  0  0  0  0  0  0  0
   -4.3020   24.3150  -29.3440 C   0  0  0  0  0  0  0  0  0  0  0  0
   -4.3000   22.8120  -29.6930 C   0  0  0  0  0  0  0  0  0  0  0  0
   -6.4330   18.8390  -32.3490 C   0  0  0  0  0  0  0  0  0  0  0  0
   -6.1730   17.3590  -32.4190 C   0  0  0  0  0  0  0  0  0  0  0  0
   -7.6520   19.3910  -32.0970 N   0  0  0  0  0  0  0  0  0  0  0  0
   -8.8920   18.6460  -31.8540 C   0  0  0  0  0  0  0  0  0  0  0  0
   -7.4690   20.7390  -32.0920 C   0  0  0  0  0  0  0  0  0  0  0  0
  -10.0343   21.5317  -30.5066 H   0  0  0  0  0  0  0  0  0  0  0  0
  -10.4506   22.3761  -32.0364 H   0  0  0  0  0  0  0  0  0  0  0  0
  -10.1761   20.6009  -32.0364 H   0  0  0  0  0  0  0  0  0  0  0  0
   -8.6114   23.9462  -31.7351 H   0  0  0  0  0  0  0  0  0  0  0  0
   -6.2065   24.4234  -32.1806 H   0  0  0  0  0  0  0  0  0  0  0  0
   -4.5939   22.5404  -32.5740 H   0  0  0  0  0  0  0  0  0  0  0  0
   -3.7834   18.5833  -32.9091 H   0  0  0  0  0  0  0  0  0  0  0  0
   -3.7158   20.2402  -33.6458 H   0  0  0  0  0  0  0  0  0  0  0  0
   -3.8110   20.5150  -30.8760 H   0  0  0  0  0  0  0  0  0  0  0  0
   -2.6630   19.3170  -31.2340 H   0  0  0  0  0  0  0  0  0  0  0  0
   -1.2042   20.8395  -31.7618 H   0  0  0  0  0  0  0  0  0  0  0  0
   -2.3018   21.3033  -33.1263 H   0  0  0  0  0  0  0  0  0  0  0  0
   -1.5943   23.1294  -31.3731 H   0  0  0  0  0  0  0  0  0  0  0  0
   -3.3109   23.0256  -31.9101 H   0  0  0  0  0  0  0  0  0  0  0  0
   -2.2231   22.4564  -27.9821 H   0  0  0  0  0  0  0  0  0  0  0  0
   -0.9655   22.5464  -29.2855 H   0  0  0  0  0  0  0  0  0  0  0  0
   -2.1597   24.7129  -27.8918 H   0  0  0  0  0  0  0  0  0  0  0  0
   -1.0813   24.7693  -29.3564 H   0  0  0  0  0  0  0  0  0  0  0  0
   -4.4490   24.4314  -28.2601 H   0  0  0  0  0  0  0  0  0  0  0  0
   -5.1172   24.8005  -29.9005 H   0  0  0  0  0  0  0  0  0  0  0  0
   -4.7307   22.2522  -28.8497 H   0  0  0  0  0  0  0  0  0  0  0  0
   -4.8944   22.6777  -30.6088 H   0  0  0  0  0  0  0  0  0  0  0  0
   -6.1013   16.9507  -31.4001 H   0  0  0  0  0  0  0  0  0  0  0  0
   -6.9984   16.8666  -32.9540 H   0  0  0  0  0  0  0  0  0  0  0  0
   -5.2292   17.1774  -32.9540 H   0  0  0  0  0  0  0  0  0  0  0  0
   -9.0547   18.5483  -30.7705 H   0  0  0  0  0  0  0  0  0  0  0  0
   -9.7381   19.1854  -32.3046 H   0  0  0  0  0  0  0  0  0  0  0  0
   -8.8130   17.6457  -32.3046 H   0  0  0  0  0  0  0  0  0  0  0  0
  1  2  1  0
  2  3  2  0
  3  4  1  0
  4  5  2  0
  5  6  1  0
  6  7  1  0
  7  8  1  0
  8  9  1  0
  9 10  1  0
 10 11  1  0
 11 12  1  0
 12 13  1  0
 13 14  1  0
 14 15  1  0
 15 16  1  0
 16 17  1  0
  7 18  2  0
 18 19  1  0
 18 20  1  0
 20 21  1  0
 20 22  1  0
 22  2  1  0
 22  6  2  0
 17 12  1  0
  1 23  1  0
  1 24  1  0
  1 25  1  0
  3 26  1  0
  4 27  1  0
  5 28  1  0
  8 29  1  0
  8 30  1  0
  9 31  1  0
  9 32  1  0
 10 33  1  0
 10 34  1  0
 11 35  1  0
 11 36  1  0
 13 37  1  0
 13 38  1  0
 14 39  1  0
 14 40  1  0
 16 41  1  0
 16 42  1  0
 17 43  1  0
 17 44  1  0
 19 45  1  0
 19 46  1  0
 19 47  1  0
 21 48  1  0
 21 49  1  0
 21 50  1  0
M  CHG  1   9   1
M  END
>  <UniqueID>  (15) 
15

>  <SMILES>  (15) 
Cc1cccc2c(C[NH2+]CCN3CCOCC3)c(C)n(C)c12

>  <Energy>  (15) 
97.7609561841357

>  <Genealogy>  (15) 
Cc1cccc2c(C[NH2+]CCN3CCOCC3)c(C)n(C)c12 (protonated)
Cc1cccc2c(C[NH2+]CCN3CCOCC3)c(C)n(C)c12 (3D coordinates assigned)
Cc1cccc2c(C[NH2+]CCN3CCOCC3)c(C)n(C)c12 (nonaromatic ring conformer: 97.7609561841357 kcal/mol)

>  <smiles>  (15) 
Cc1cccc2c(CNCCN3CCOCC3)c(C)n(C)c12

>  <score_type>  (15) 
oracle

>  <origin>  (15) 
adg

>  <m_score__min__energy>  (15) 
-7.3200000000000003

>  <m_primary>  (15) 
energy

$$$$
16:0
     RDKit          3D

 71 73  0  0  0  0  0  0  0  0999 V2000
   -2.2030   18.5310  -26.3630 C   0  0  0  0  0  0  0  0  0  0  0  0
   -3.1080   19.7110  -26.7410 C   0  0  0  0  0  0  0  0  0  0  0  0
   -2.4060   20.7600  -27.5290 N   0  0  0  0  0  0  0  0  0  0  0  0
   -1.2750   21.4010  -26.7930 C   0  0  0  0  0  0  0  0  0  0  0  0
   -1.3370   22.9360  -26.7060 C   0  0  0  0  0  0  0  0  0  0  0  0
   -2.0040   20.2010  -28.8480 C   0  0  0  0  0  0  0  0  0  0  0  0
   -3.0150   20.5090  -29.9720 C   0  0  0  0  0  0  0  0  0  0  0  0
   -3.5130   21.8300  -29.8340 O   0  0  0  0  0  0  0  0  0  0  0  0
   -2.5730   22.7920  -30.2790 C   0  0  0  0  0  0  0  0  0  0  0  0
   -3.0330   24.2030  -29.9050 C   0  0  0  0  0  0  0  0  0  0  0  0
   -4.3640   24.4120  -30.3510 O   0  0  0  0  0  0  0  0  0  0  0  0
   -5.1900   24.8970  -29.3080 C   0  0  0  0  0  0  0  0  0  0  0  0
   -6.6440   24.9770  -29.7750 C   0  0  0  0  0  0  0  0  0  0  0  0
   -7.0570   23.7000  -30.2240 O   0  0  0  0  0  0  0  0  0  0  0  0
   -7.5750   23.7690  -31.5410 C   0  0  0  0  0  0  0  0  0  0  0  0
   -6.5490   23.2790  -32.5720 C   0  0  0  0  0  0  0  0  0  0  0  0
   -5.5940   22.3390  -31.9830 N   0  0  0  0  0  0  0  0  0  0  0  0
   -5.4840   21.0030  -32.4960 C   0  0  0  0  0  0  0  0  0  0  0  0
   -6.5570   20.1060  -32.3570 C   0  0  0  0  0  0  0  0  0  0  0  0
   -7.7410   20.4990  -31.6980 C   0  0  0  0  0  0  0  0  0  0  0  0
   -8.7820   19.5940  -31.5100 C   0  0  0  0  0  0  0  0  0  0  0  0
   -8.6600   18.2860  -31.9670 C   0  0  0  0  0  0  0  0  0  0  0  0
   -7.5080   17.8830  -32.6440 C   0  0  0  0  0  0  0  0  0  0  0  0
   -6.4470   18.7940  -32.8880 C   0  0  0  0  0  0  0  0  0  0  0  0
   -5.3230   18.4290  -33.6060 N   0  0  0  0  0  0  0  0  0  0  0  0
   -5.3260   17.1720  -34.3900 C   0  0  0  0  0  0  0  0  0  0  0  0
   -4.2040   19.2430  -33.6020 C   0  0  0  0  0  0  0  0  0  0  0  0
   -2.9510   18.7970  -34.0980 C   0  0  0  0  0  0  0  0  0  0  0  0
   -1.8440   19.6440  -34.1260 C   0  0  0  0  0  0  0  0  0  0  0  0
   -1.9420   20.9410  -33.6360 C   0  0  0  0  0  0  0  0  0  0  0  0
   -3.1440   21.3950  -33.1010 C   0  0  0  0  0  0  0  0  0  0  0  0
   -4.2820   20.5600  -33.0720 C   0  0  0  0  0  0  0  0  0  0  0  0
   -2.1422   18.4518  -25.2675 H   0  0  0  0  0  0  0  0  0  0  0  0
   -2.6217   17.6011  -26.7752 H   0  0  0  0  0  0  0  0  0  0  0  0
   -1.1963   18.6942  -26.7752 H   0  0  0  0  0  0  0  0  0  0  0  0
   -3.9489   19.3291  -27.3386 H   0  0  0  0  0  0  0  0  0  0  0  0
   -3.4451   20.1775  -25.8036 H   0  0  0  0  0  0  0  0  0  0  0  0
   -3.1090   21.5160  -27.7190 H   0  0  0  0  0  0  0  0  0  0  0  0
   -1.2663   21.0020  -25.7679 H   0  0  0  0  0  0  0  0  0  0  0  0
   -0.3653   21.1639  -27.3642 H   0  0  0  0  0  0  0  0  0  0  0  0
   -1.3494   23.2432  -25.6498 H   0  0  0  0  0  0  0  0  0  0  0  0
   -0.4555   23.3673  -27.2030 H   0  0  0  0  0  0  0  0  0  0  0  0
   -2.2504   23.2948  -27.2030 H   0  0  0  0  0  0  0  0  0  0  0  0
   -1.0299   20.6291  -29.1270 H   0  0  0  0  0  0  0  0  0  0  0  0
   -1.9588   19.1073  -28.7396 H   0  0  0  0  0  0  0  0  0  0  0  0
   -2.5160   20.4088  -30.9472 H   0  0  0  0  0  0  0  0  0  0  0  0
   -3.8536   19.8003  -29.9048 H   0  0  0  0  0  0  0  0  0  0  0  0
   -1.5994   22.5918  -29.8079 H   0  0  0  0  0  0  0  0  0  0  0  0
   -2.4855   22.7245  -31.3734 H   0  0  0  0  0  0  0  0  0  0  0  0
   -2.9917   24.3223  -28.8123 H   0  0  0  0  0  0  0  0  0  0  0  0
   -2.3708   24.9386  -30.3850 H   0  0  0  0  0  0  0  0  0  0  0  0
   -5.1228   24.2169  -28.4460 H   0  0  0  0  0  0  0  0  0  0  0  0
   -4.8506   25.9034  -29.0218 H   0  0  0  0  0  0  0  0  0  0  0  0
   -7.2824   25.2976  -28.9386 H   0  0  0  0  0  0  0  0  0  0  0  0
   -6.7302   25.7042  -30.5958 H   0  0  0  0  0  0  0  0  0  0  0  0
   -8.4752   23.1401  -31.6050 H   0  0  0  0  0  0  0  0  0  0  0  0
   -7.8160   24.8189  -31.7640 H   0  0  0  0  0  0  0  0  0  0  0  0
   -7.0813   22.7778  -33.3939 H   0  0  0  0  0  0  0  0  0  0  0  0
   -5.9885   24.1517  -32.9385 H   0  0  0  0  0  0  0  0  0  0  0  0
   -5.1620   22.5400  -31.0530 H   0  0  0  0  0  0  0  0  0  0  0  0
   -7.8425   21.5304  -31.3292 H   0  0  0  0  0  0  0  0  0  0  0  0
   -9.7023   19.9138  -30.9993 H   0  0  0  0  0  0  0  0  0  0  0  0
   -9.4742   17.5668  -31.7943 H   0  0  0  0  0  0  0  0  0  0  0  0
   -7.4209   16.8437  -32.9938 H   0  0  0  0  0  0  0  0  0  0  0  0
   -5.3281   16.3121  -33.7041 H   0  0  0  0  0  0  0  0  0  0  0  0
   -6.2242   17.1374  -35.0240 H   0  0  0  0  0  0  0  0  0  0  0  0
   -4.4279   17.1332  -35.0240 H   0  0  0  0  0  0  0  0  0  0  0  0
   -2.8517   17.7654  -34.4666 H   0  0  0  0  0  0  0  0  0  0  0  0
   -0.8893   19.2845  -34.5375 H   0  0  0  0  0  0  0  0  0  0  0  0
   -1.0689   21.6092  -33.6711 H   0  0  0  0  0  0  0  0  0  0  0  0
   -3.2080   22.4158  -32.6962 H   0  0  0  0  0  0  0  0  0  0  0  0
  1  2  1  0
  2  3  1  0
  3  4  1  0
  4  5  1  0
  3  6  1  0
  6  7  1  0
  7  8  1  0
  8  9  1  0
  9 10  1  0
 10 11  1  0
 11 12  1  0
 12 13  1  0
 13 14  1  0
 14 15  1  0
 15 16  1  0
 16 17  1  0
 17 18  1  0
 18 19  2  0
 19 20  1  0
 20 21  2  0
 21 22  1  0
 22 23  2  0
 23 24  1  0
 24 25  2  0
 25 26  1  0
 25 27  1  0
 27 28  2  0
 28 29  1  0
 29 30  2  0
 30 31  1  0
 31 32  2  0
 32 18  1  0
 24 19  1  0
 32 27  1  0
  1 33  1  0
  1 34  1  0
  1 35  1  0
  2 36  1  0
  2 37  1  0
  3 38  1  0
  4 39  1  0
  4 40  1  0
  5 41  1  0
  5 42  1  0
  5 43  1  0
  6 44  1  0
  6 45  1  0
  7 46  1  0
  7 47  1  0
  9 48  1  0
  9 49  1  0
 10 50  1  0
 10 51  1  0
 12 52  1  0
 12 53  1  0
 13 54  1  0
 13 55  1  0
 15 56  1  0
 15 57  1  0
 16 58  1  0
 16 59  1  0
 17 60  1  0
 20 61  1  0
 21 62  1  0
 22 63  1  0
 23 64  1  0
 26 65  1  0
 26 66  1  0
 26 67  1  0
 28 68  1  0
 29 69  1  0
 30 70  1  0
 31 71  1  0
M  CHG  2   3   1  25   1
M  END
>  <UniqueID>  (16) 
16

>  <SMILES>  (16) 
CC[NH+](CC)CCOCCOCCOCCNc1c2ccccc2[n+](C)c2ccccc12

>  <Energy>  (16) 
105.20659136763871

>  <Genealogy>  (16) 
CC[NH+](CC)CCOCCOCCOCCNc1c2ccccc2[n+](C)c2ccccc12 (protonated)
CC[NH+](CC)CCOCCOCCOCCNc1c2ccccc2[n+](C)c2ccccc12 (3D coordinates assigned)
CC[NH+](CC)CCOCCOCCOCCNc1c2ccccc2[n+](C)c2ccccc12 (optimized conformer: 105.20659136763871 kcal/mol)

>  <smiles>  (16) 
CCN(CC)CCOCCOCCOCCNc1c2ccccc2[n+](C)c2ccccc12

>  <score_type>  (16) 
oracle

>  <origin>  (16) 
adg

>  <m_score__min__energy>  (16) 
-9.8900000000000006

>  <m_primary>  (16) 
energy

$$$$
17:0
     RDKit          3D

 38 39  0  0  0  0  0  0  0  0999 V2000
   -7.6990   17.8020  -31.9960 C   0  0  0  0  0  0  0  0  0  0  0  0
   -9.0060   18.5720  -31.8590 C   0  0  0  0  0  0  0  0  0  0  0  0
   -8.9500   19.8060  -32.5750 O   0  0  0  0  0  0  0  0  0  0  0  0
   -8.0440   20.8520  -32.3300 C   0  0  0  0  0  0  0  0  0  0  0  0
   -8.5460   22.0490  -31.8040 C   0  0  0  0  0  0  0  0  0  0  0  0
   -7.6980   23.1380  -31.5750 C   0  0  0  0  0  0  0  0  0  0  0  0
   -6.3290   23.0300  -31.8380 C   0  0  0  0  0  0  0  0  0  0  0  0
   -5.4790   24.1660  -31.6360 N   0  0  0  0  0  0  0  0  0  0  0  0
   -4.6930   24.3920  -30.4590 C   0  0  0  0  0  0  0  0  0  0  0  0
   -3.8550   25.3310  -30.4550 O   0  0  0  0  0  0  0  0  0  0  0  0
   -4.9560   23.6300  -29.1880 C   0  0  0  0  0  0  0  0  0  0  0  0
   -4.7820   24.5110  -28.0210 N   0  0  0  0  0  0  0  0  0  0  0  0
   -3.7620   23.9960  -27.0910 C   0  0  0  0  0  0  0  0  0  0  0  0
   -2.5790   24.9190  -27.0080 C   0  0  0  0  0  0  0  0  0  0  0  0
   -2.1560   25.5970  -25.8720 C   0  0  0  0  0  0  0  0  0  0  0  0
   -1.0130   26.3760  -26.0880 C   0  0  0  0  0  0  0  0  0  0  0  0
   -0.5370   26.3130  -27.3910 C   0  0  0  0  0  0  0  0  0  0  0  0
   -1.5300   25.2800  -28.2730 S   0  0  0  0  0  0  0  0  0  0  0  0
   -5.8190   21.8350  -32.3630 C   0  0  0  0  0  0  0  0  0  0  0  0
   -6.6670   20.7510  -32.6090 C   0  0  0  0  0  0  0  0  0  0  0  0
   -7.3040   17.5693  -30.9961 H   0  0  0  0  0  0  0  0  0  0  0  0
   -7.8804   16.8665  -32.5454 H   0  0  0  0  0  0  0  0  0  0  0  0
   -6.9687   18.4141  -32.5454 H   0  0  0  0  0  0  0  0  0  0  0  0
   -9.8276   17.9604  -32.2600 H   0  0  0  0  0  0  0  0  0  0  0  0
   -9.1735   18.7918  -30.7943 H   0  0  0  0  0  0  0  0  0  0  0  0
   -9.6172   22.1338  -31.5687 H   0  0  0  0  0  0  0  0  0  0  0  0
   -8.1093   24.0816  -31.1871 H   0  0  0  0  0  0  0  0  0  0  0  0
   -5.9863   23.2448  -29.2020 H   0  0  0  0  0  0  0  0  0  0  0  0
   -4.2435   22.7950  -29.1164 H   0  0  0  0  0  0  0  0  0  0  0  0
   -4.4750   25.4530  -28.3600 H   0  0  0  0  0  0  0  0  0  0  0  0
   -5.6870   24.6360  -27.5100 H   0  0  0  0  0  0  0  0  0  0  0  0
   -4.2082   23.8953  -26.0906 H   0  0  0  0  0  0  0  0  0  0  0  0
   -3.4147   23.0211  -27.4637 H   0  0  0  0  0  0  0  0  0  0  0  0
   -2.6675   25.5288  -24.9006 H   0  0  0  0  0  0  0  0  0  0  0  0
   -0.5376   26.9800  -25.3011 H   0  0  0  0  0  0  0  0  0  0  0  0
    0.3413   26.8483  -27.7809 H   0  0  0  0  0  0  0  0  0  0  0  0
   -4.7446   21.7493  -32.5830 H   0  0  0  0  0  0  0  0  0  0  0  0
   -6.2579   19.8169  -33.0215 H   0  0  0  0  0  0  0  0  0  0  0  0
  1  2  1  0
  2  3  1  0
  3  4  1  0
  4  5  2  0
  5  6  1  0
  6  7  2  0
  7  8  1  0
  8  9  1  0
  9 10  2  0
  9 11  1  0
 11 12  1  0
 12 13  1  0
 13 14  1  0
 14 15  2  0
 15 16  1  0
 16 17  2  0
 17 18  1  0
  7 19  1  0
 19 20  2  0
 20  4  1  0
 18 14  1  0
  1 21  1  0
  1 22  1  0
  1 23  1  0
  2 24  1  0
  2 25  1  0
  5 26  1  0
  6 27  1  0
 11 28  1  0
 11 29  1  0
 12 30  1  0
 12 31  1  0
 13 32  1  0
 13 33  1  0
 15 34  1  0
 16 35  1  0
 17 36  1  0
 19 37  1  0
 20 38  1  0
M  CHG  2   8  -1  12   1
M  END
>  <UniqueID>  (17) 
17

>  <SMILES>  (17) 
CCOc1ccc([N-]C(=O)C[NH2+]Cc2cccs2)cc1

>  <Energy>  (17) 
62.23651698853518

>  <Genealogy>  (17) 
CCOc1ccc([N-]C(=O)C[NH2+]Cc2cccs2)cc1 (protonated)
CCOc1ccc([N-]C(=O)C[NH2+]Cc2cccs2)cc1 (3D coordinates assigned)
CCOc1ccc([N-]C(=O)C[NH2+]Cc2cccs2)cc1 (optimized conformer: 62.23651698853518 kcal/mol)

>  <smiles>  (17) 
CCOc1ccc(NC(=O)CNCc2cccs2)cc1

>  <score_type>  (17) 
oracle

>  <origin>  (17) 
adg

>  <m_score__min__energy>  (17) 
-8

>  <m_primary>  (17) 
energy

$$$$
18:0
     RDKit          3D

 45 46  0  0  0  0  0  0  0  0999 V2000
   -0.5450   20.6590  -32.1880 C   0  0  0  0  0  0  0  0  0  0  0  0
   -0.9490   20.2940  -33.6150 C   0  0  0  0  0  0  0  0  0  0  0  0
   -2.0030   21.1960  -34.1080 N   0  0  0  0  0  0  0  0  0  0  0  0
   -2.9890   21.5170  -33.0570 C   0  0  0  0  0  0  0  0  0  0  0  0
   -4.2940   20.7030  -33.2120 C   0  0  0  0  0  0  0  0  0  0  0  0
   -5.5570   21.4880  -32.7990 C   0  0  0  0  0  0  0  0  0  0  0  0
   -6.7000   20.6100  -32.3100 C   0  0  0  0  0  0  0  0  0  0  0  0
   -6.5660   19.2060  -32.3710 C   0  0  0  0  0  0  0  0  0  0  0  0
   -7.6070   18.3680  -31.9690 C   0  0  0  0  0  0  0  0  0  0  0  0
   -8.8120   18.9110  -31.5330 C   0  0  0  0  0  0  0  0  0  0  0  0
   -8.9890   20.2920  -31.5170 C   0  0  0  0  0  0  0  0  0  0  0  0
   -7.9490   21.1520  -31.9030 C   0  0  0  0  0  0  0  0  0  0  0  0
   -8.3240   22.9160  -31.9690 S   0  0  0  0  0  0  0  0  0  0  0  0
   -6.8380   23.4140  -31.0930 C   0  0  0  0  0  0  0  0  0  0  0  0
   -6.4250   22.7220  -29.9490 C   0  0  0  0  0  0  0  0  0  0  0  0
   -5.2740   23.1210  -29.2610 C   0  0  0  0  0  0  0  0  0  0  0  0
   -4.5380   24.2390  -29.7020 C   0  0  0  0  0  0  0  0  0  0  0  0
   -3.3820   24.6870  -29.0460 O   0  0  0  0  0  0  0  0  0  0  0  0
   -3.1070   24.4730  -27.6650 C   0  0  0  0  0  0  0  0  0  0  0  0
   -4.9760   24.9410  -30.8320 C   0  0  0  0  0  0  0  0  0  0  0  0
   -6.1220   24.5350  -31.5200 C   0  0  0  0  0  0  0  0  0  0  0  0
   -1.1670   20.0971  -31.4757 H   0  0  0  0  0  0  0  0  0  0  0  0
    0.5136   20.4050  -32.0303 H   0  0  0  0  0  0  0  0  0  0  0  0
   -0.6906   21.7378  -32.0303 H   0  0  0  0  0  0  0  0  0  0  0  0
   -0.0694   20.3752  -34.2706 H   0  0  0  0  0  0  0  0  0  0  0  0
   -1.3364   19.2645  -33.6189 H   0  0  0  0  0  0  0  0  0  0  0  0
   -1.5530   22.0880  -34.4170 H   0  0  0  0  0  0  0  0  0  0  0  0
   -2.4830   20.7660  -34.9330 H   0  0  0  0  0  0  0  0  0  0  0  0
   -2.5461   21.2927  -32.0754 H   0  0  0  0  0  0  0  0  0  0  0  0
   -3.2435   22.5833  -33.1473 H   0  0  0  0  0  0  0  0  0  0  0  0
   -4.3969   20.4060  -34.2661 H   0  0  0  0  0  0  0  0  0  0  0  0
   -4.2172   19.8342  -32.5417 H   0  0  0  0  0  0  0  0  0  0  0  0
   -5.2838   22.1820  -31.9905 H   0  0  0  0  0  0  0  0  0  0  0  0
   -5.9174   22.0070  -33.6994 H   0  0  0  0  0  0  0  0  0  0  0  0
   -5.6279   18.7664  -32.7406 H   0  0  0  0  0  0  0  0  0  0  0  0
   -7.4749   17.2763  -31.9968 H   0  0  0  0  0  0  0  0  0  0  0  0
   -9.6251   18.2488  -31.2008 H   0  0  0  0  0  0  0  0  0  0  0  0
   -9.9539   20.7134  -31.1986 H   0  0  0  0  0  0  0  0  0  0  0  0
   -7.0075   21.8610  -29.5893 H   0  0  0  0  0  0  0  0  0  0  0  0
   -4.9428   22.5609  -28.3741 H   0  0  0  0  0  0  0  0  0  0  0  0
   -3.8298   25.0355  -27.0558 H   0  0  0  0  0  0  0  0  0  0  0  0
   -3.1910   23.4003  -27.4363 H   0  0  0  0  0  0  0  0  0  0  0  0
   -2.0878   24.8179  -27.4363 H   0  0  0  0  0  0  0  0  0  0  0  0
   -4.4130   25.8193  -31.1806 H   0  0  0  0  0  0  0  0  0  0  0  0
   -6.4617   25.0997  -32.4007 H   0  0  0  0  0  0  0  0  0  0  0  0
  1  2  1  0
  2  3  1  0
  3  4  1  0
  4  5  1  0
  5  6  1  0
  6  7  1  0
  7  8  2  0
  8  9  1  0
  9 10  2  0
 10 11  1  0
 11 12  2  0
 12 13  1  0
 13 14  1  0
 14 15  2  0
 15 16  1  0
 16 17  2  0
 17 18  1  0
 18 19  1  0
 17 20  1  0
 20 21  2  0
 12  7  1  0
 21 14  1  0
  1 22  1  0
  1 23  1  0
  1 24  1  0
  2 25  1  0
  2 26  1  0
  3 27  1  0
  3 28  1  0
  4 29  1  0
  4 30  1  0
  5 31  1  0
  5 32  1  0
  6 33  1  0
  6 34  1  0
  8 35  1  0
  9 36  1  0
 10 37  1  0
 11 38  1  0
 15 39  1  0
 16 40  1  0
 19 41  1  0
 19 42  1  0
 19 43  1  0
 20 44  1  0
 21 45  1  0
M  CHG  1   3   1
M  END
>  <UniqueID>  (18) 
18

>  <SMILES>  (18) 
CC[NH2+]CCCc1ccccc1Sc1ccc(OC)cc1

>  <Energy>  (18) 
39.046470479891205

>  <Genealogy>  (18) 
CC[NH2+]CCCc1ccccc1Sc1ccc(OC)cc1 (protonated)
CC[NH2+]CCCc1ccccc1Sc1ccc(OC)cc1 (3D coordinates assigned)
CC[NH2+]CCCc1ccccc1Sc1ccc(OC)cc1 (optimized conformer: 39.046470479891205 kcal/mol)

>  <smiles>  (18) 
CCNCCCc1ccccc1Sc1ccc(OC)cc1

>  <score_type>  (18) 
oracle

>  <origin>  (18) 
adg

>  <m_score__min__energy>  (18) 
-7.1299999999999999

>  <m_primary>  (18) 
energy

$$$$
19:0
     RDKit          3D

 47 49  0  0  0  0  0  0  0  0999 V2000
   -4.0380   24.5200  -26.9610 C   0  0  0  0  0  0  0  0  0  0  0  0
   -4.0450   24.1900  -28.4580 C   0  0  0  0  0  0  0  0  0  0  0  0
   -5.4210   24.1050  -29.0150 N   0  0  1  0  0  0  0  0  0  0  0  0
   -5.7280   25.3110  -29.8120 C   0  0  0  0  0  0  0  0  0  0  0  0
   -5.5740   22.8960  -29.8680 C   0  0  0  0  0  0  0  0  0  0  0  0
   -4.7310   22.9560  -31.1570 C   0  0  0  0  0  0  0  0  0  0  0  0
   -5.5250   22.6150  -32.3380 N   0  0  0  0  0  0  0  0  0  0  0  0
   -5.8950   21.2570  -32.6120 C   0  0  0  0  0  0  0  0  0  0  0  0
   -4.9310   20.3320  -33.0820 C   0  0  0  0  0  0  0  0  0  0  0  0
   -3.6390   20.7610  -33.4470 C   0  0  0  0  0  0  0  0  0  0  0  0
   -2.6850   19.8500  -33.8960 C   0  0  0  0  0  0  0  0  0  0  0  0
   -3.0030   18.5000  -33.9980 C   0  0  0  0  0  0  0  0  0  0  0  0
   -4.2760   18.0480  -33.6530 C   0  0  0  0  0  0  0  0  0  0  0  0
   -5.2670   18.9450  -33.1840 C   0  0  0  0  0  0  0  0  0  0  0  0
   -6.5300   18.5070  -32.8320 N   0  0  0  0  0  0  0  0  0  0  0  0
   -6.8820   17.0750  -32.8880 C   0  0  0  0  0  0  0  0  0  0  0  0
   -7.4670   19.4350  -32.4600 C   0  0  0  0  0  0  0  0  0  0  0  0
   -9.0900   19.1610  -32.0950 S   0  0  0  0  0  0  0  0  0  0  0  0
   -9.4870   20.7710  -31.8320 C   0  0  0  0  0  0  0  0  0  0  0  0
   -8.3550   21.5580  -32.0410 C   0  0  0  0  0  0  0  0  0  0  0  0
   -8.4390   23.0560  -31.9750 C   0  0  0  0  0  0  0  0  0  0  0  0
   -7.2000   20.7960  -32.3640 C   0  0  0  0  0  0  0  0  0  0  0  0
   -4.0578   23.5864  -26.3796 H   0  0  0  0  0  0  0  0  0  0  0  0
   -3.1276   25.0862  -26.7146 H   0  0  0  0  0  0  0  0  0  0  0  0
   -4.9235   25.1242  -26.7146 H   0  0  0  0  0  0  0  0  0  0  0  0
   -3.4947   24.9764  -28.9953 H   0  0  0  0  0  0  0  0  0  0  0  0
   -3.5708   23.2057  -28.5859 H   0  0  0  0  0  0  0  0  0  0  0  0
   -6.1120   24.0630  -28.2310 H   0  0  0  0  0  0  0  0  0  0  0  0
   -5.9422   26.1523  -29.1364 H   0  0  0  0  0  0  0  0  0  0  0  0
   -4.8648   25.5608  -30.4464 H   0  0  0  0  0  0  0  0  0  0  0  0
   -6.6056   25.1176  -30.4464 H   0  0  0  0  0  0  0  0  0  0  0  0
   -5.2629   22.0155  -29.2867 H   0  0  0  0  0  0  0  0  0  0  0  0
   -6.6304   22.8379  -30.1689 H   0  0  0  0  0  0  0  0  0  0  0  0
   -4.3337   23.9748  -31.2763 H   0  0  0  0  0  0  0  0  0  0  0  0
   -3.9153   22.2233  -31.0683 H   0  0  0  0  0  0  0  0  0  0  0  0
   -5.6320   23.3270  -33.0950 H   0  0  0  0  0  0  0  0  0  0  0  0
   -3.3806   21.8279  -33.3766 H   0  0  0  0  0  0  0  0  0  0  0  0
   -1.6786   20.1993  -34.1702 H   0  0  0  0  0  0  0  0  0  0  0  0
   -2.2461   17.7850  -34.3528 H   0  0  0  0  0  0  0  0  0  0  0  0
   -4.5145   16.9782  -33.7464 H   0  0  0  0  0  0  0  0  0  0  0  0
   -6.9789   16.6810  -31.8656 H   0  0  0  0  0  0  0  0  0  0  0  0
   -7.8369   16.9527  -33.4201 H   0  0  0  0  0  0  0  0  0  0  0  0
   -6.0926   16.5239  -33.4201 H   0  0  0  0  0  0  0  0  0  0  0  0
  -10.4800   21.1447  -31.5416 H   0  0  0  0  0  0  0  0  0  0  0  0
   -8.4570   23.3762  -30.9228 H   0  0  0  0  0  0  0  0  0  0  0  0
   -7.5640   23.4948  -32.4769 H   0  0  0  0  0  0  0  0  0  0  0  0
   -9.3575   23.3942  -32.4769 H   0  0  0  0  0  0  0  0  0  0  0  0
  1  2  1  0
  2  3  1  0
  3  4  1  0
  3  5  1  0
  5  6  1  0
  6  7  1  0
  7  8  1  0
  8  9  2  0
  9 10  1  0
 10 11  2  0
 11 12  1  0
 12 13  2  0
 13 14  1  0
 14 15  2  0
 15 16  1  0
 15 17  1  0
 17 18  1  0
 18 19  1  0
 19 20  2  0
 20 21  1  0
 20 22  1  0
 22  8  1  0
 14  9  1  0
 22 17  2  0
  1 23  1  0
  1 24  1  0
  1 25  1  0
  2 26  1  0
  2 27  1  0
  3 28  1  1
  4 29  1  0
  4 30  1  0
  4 31  1  0
  5 32  1  0
  5 33  1  0
  6 34  1  0
  6 35  1  0
  7 36  1  0
 10 37  1  0
 11 38  1  0
 12 39  1  0
 13 40  1  0
 16 41  1  0
 16 42  1  0
 16 43  1  0
 19 44  1  0
 21 45  1  0
 21 46  1  0
 21 47  1  0
M  CHG  2   3   1  15   1
M  END
>  <UniqueID>  (19) 
19

>  <SMILES>  (19) 
CC[N@@H+](C)CCNc1c2ccccc2[n+](C)c2scc(C)c12

>  <Energy>  (19) 
97.00445800536204

>  <Genealogy>  (19) 
CC[NH+](C)CCNc1c2ccccc2[n+](C)c2scc(C)c12 (protonated)
CC[N@@H+](C)CCNc1c2ccccc2[n+](C)c2scc(C)c12 (chirality)
CC[N@@H+](C)CCNc1c2ccccc2[n+](C)c2scc(C)c12 (3D coordinates assigned)
CC[N@@H+](C)CCNc1c2ccccc2[n+](C)c2scc(C)c12 (optimized conformer: 97.00445800536204 kcal/mol)

>  <smiles>  (19) 
CCN(C)CCNc1c2ccccc2[n+](C)c2scc(C)c12

>  <score_type>  (19) 
oracle

>  <origin>  (19) 
adg

>  <m_score__min__energy>  (19) 
-7.1200000000000001

>  <m_primary>  (19) 
energy

$$$$
20:0
     RDKit          3D

 62 65  0  0  0  0  0  0  0  0999 V2000
   -1.5600   22.4120  -29.0720 C   0  0  0  0  0  0  0  0  0  0  0  0
   -1.0560   23.8360  -29.3080 C   0  0  0  0  0  0  0  0  0  0  0  0
   -1.9600   24.8170  -28.6660 N   0  0  0  0  0  0  0  0  0  0  0  0
   -1.2790   25.5310  -27.5600 C   0  0  0  0  0  0  0  0  0  0  0  0
   -2.1200   25.4550  -26.2880 C   0  0  0  0  0  0  0  0  0  0  0  0
   -3.2140   24.1740  -28.2020 C   0  0  0  0  0  0  0  0  0  0  0  0
   -4.3680   24.5530  -29.1290 C   0  0  0  0  0  0  0  0  0  0  0  0
   -3.8880   24.6350  -30.4580 O   0  0  0  0  0  0  0  0  0  0  0  0
   -4.0690   23.4060  -31.1260 C   0  0  0  0  0  0  0  0  0  0  0  0
   -5.5620   23.1360  -31.3000 C   0  0  0  0  0  0  0  0  0  0  0  0
   -5.8410   22.5200  -32.5980 N   0  0  0  0  0  0  0  0  0  0  0  0
   -5.7540   21.0990  -32.7960 C   0  0  0  0  0  0  0  0  0  0  0  0
   -6.8740   20.2850  -32.5490 C   0  0  0  0  0  0  0  0  0  0  0  0
   -8.0600   20.8300  -32.0110 C   0  0  0  0  0  0  0  0  0  0  0  0
   -9.1540   20.0140  -31.7330 C   0  0  0  0  0  0  0  0  0  0  0  0
   -9.0820   18.6450  -31.9750 C   0  0  0  0  0  0  0  0  0  0  0  0
   -7.9270   18.0910  -32.5240 C   0  0  0  0  0  0  0  0  0  0  0  0
   -6.8080   18.9000  -32.8500 C   0  0  0  0  0  0  0  0  0  0  0  0
   -5.6760   18.3720  -33.4410 N   0  0  0  0  0  0  0  0  0  0  0  0
   -5.7210   17.0240  -34.0490 C   0  0  0  0  0  0  0  0  0  0  0  0
   -4.5110   19.1160  -33.4900 C   0  0  0  0  0  0  0  0  0  0  0  0
   -3.2660   18.5260  -33.8210 C   0  0  0  0  0  0  0  0  0  0  0  0
   -2.0990   19.2950  -33.9170 C   0  0  0  0  0  0  0  0  0  0  0  0
   -0.8790   18.7020  -34.2810 C   0  0  0  0  0  0  0  0  0  0  0  0
    0.2780   19.4790  -34.3830 C   0  0  0  0  0  0  0  0  0  0  0  0
    0.2290   20.8480  -34.1150 C   0  0  0  0  0  0  0  0  0  0  0  0
   -0.9750   21.4470  -33.7380 C   0  0  0  0  0  0  0  0  0  0  0  0
   -2.1460   20.6760  -33.6400 C   0  0  0  0  0  0  0  0  0  0  0  0
   -3.3530   21.2620  -33.2540 C   0  0  0  0  0  0  0  0  0  0  0  0
   -4.5420   20.5030  -33.1890 C   0  0  0  0  0  0  0  0  0  0  0  0
   -1.6275   22.2214  -27.9907 H   0  0  0  0  0  0  0  0  0  0  0  0
   -2.5543   22.2947  -29.5277 H   0  0  0  0  0  0  0  0  0  0  0  0
   -0.8609   21.6954  -29.5277 H   0  0  0  0  0  0  0  0  0  0  0  0
   -0.0476   23.9389  -28.8808 H   0  0  0  0  0  0  0  0  0  0  0  0
   -1.0299   24.0302  -30.3904 H   0  0  0  0  0  0  0  0  0  0  0  0
   -0.2990   25.0663  -27.3762 H   0  0  0  0  0  0  0  0  0  0  0  0
   -1.1469   26.5863  -27.8410 H   0  0  0  0  0  0  0  0  0  0  0  0
   -1.4614   25.5145  -25.4089 H   0  0  0  0  0  0  0  0  0  0  0  0
   -2.8331   26.2924  -26.2693 H   0  0  0  0  0  0  0  0  0  0  0  0
   -2.6714   24.5034  -26.2693 H   0  0  0  0  0  0  0  0  0  0  0  0
   -3.0867   23.0814  -28.2064 H   0  0  0  0  0  0  0  0  0  0  0  0
   -3.4412   24.5184  -27.1823 H   0  0  0  0  0  0  0  0  0  0  0  0
   -5.1555   23.7873  -29.0686 H   0  0  0  0  0  0  0  0  0  0  0  0
   -4.7832   25.5251  -28.8248 H   0  0  0  0  0  0  0  0  0  0  0  0
   -3.5870   23.4511  -32.1138 H   0  0  0  0  0  0  0  0  0  0  0  0
   -3.6167   22.5968  -30.5338 H   0  0  0  0  0  0  0  0  0  0  0  0
   -5.8995   22.4588  -30.5016 H   0  0  0  0  0  0  0  0  0  0  0  0
   -6.0978   24.0953  -31.2475 H   0  0  0  0  0  0  0  0  0  0  0  0
   -6.0630   23.1310  -33.4140 H   0  0  0  0  0  0  0  0  0  0  0  0
   -8.1207   21.9097  -31.8094 H   0  0  0  0  0  0  0  0  0  0  0  0
  -10.0756   20.4517  -31.3219 H   0  0  0  0  0  0  0  0  0  0  0  0
   -9.9387   17.9990  -31.7324 H   0  0  0  0  0  0  0  0  0  0  0  0
   -7.8822   17.0074  -32.7078 H   0  0  0  0  0  0  0  0  0  0  0  0
   -5.7464   16.2640  -33.2542 H   0  0  0  0  0  0  0  0  0  0  0  0
   -6.6227   16.9329  -34.6724 H   0  0  0  0  0  0  0  0  0  0  0  0
   -4.8274   16.8729  -34.6724 H   0  0  0  0  0  0  0  0  0  0  0  0
   -3.2148   17.4429  -34.0062 H   0  0  0  0  0  0  0  0  0  0  0  0
   -0.8341   17.6223  -34.4865 H   0  0  0  0  0  0  0  0  0  0  0  0
    1.2295   19.0107  -34.6751 H   0  0  0  0  0  0  0  0  0  0  0  0
    1.1412   21.4567  -34.2010 H   0  0  0  0  0  0  0  0  0  0  0  0
   -1.0068   22.5242  -33.5174 H   0  0  0  0  0  0  0  0  0  0  0  0
   -3.3781   22.3312  -32.9966 H   0  0  0  0  0  0  0  0  0  0  0  0
  1  2  1  0
  2  3  1  0
  3  4  1  0
  4  5  1  0
  3  6  1  0
  6  7  1  0
  7  8  1  0
  8  9  1  0
  9 10  1  0
 10 11  1  0
 11 12  1  0
 12 13  2  0
 13 14  1  0
 14 15  2  0
 15 16  1  0
 16 17  2  0
 17 18  1  0
 18 19  2  0
 19 20  1  0
 19 21  1  0
 21 22  2  0
 22 23  1  0
 23 24  2  0
 24 25  1  0
 25 26  2  0
 26 27  1  0
 27 28  2  0
 28 29  1  0
 29 30  2  0
 30 12  1  0
 18 13  1  0
 30 21  1  0
 28 23  1  0
  1 31  1  0
  1 32  1  0
  1 33  1  0
  2 34  1  0
  2 35  1  0
  4 36  1  0
  4 37  1  0
  5 38  1  0
  5 39  1  0
  5 40  1  0
  6 41  1  0
  6 42  1  0
  7 43  1  0
  7 44  1  0
  9 45  1  0
  9 46  1  0
 10 47  1  0
 10 48  1  0
 11 49  1  0
 14 50  1  0
 15 51  1  0
 16 52  1  0
 17 53  1  0
 20 54  1  0
 20 55  1  0
 20 56  1  0
 22 57  1  0
 24 58  1  0
 25 59  1  0
 26 60  1  0
 27 61  1  0
 29 62  1  0
M  CHG  1  19   1
M  END
>  <UniqueID>  (20) 
20

>  <SMILES>  (20) 
CCN(CC)CCOCCNc1c2ccccc2[n+](C)c2cc3ccccc3cc12

>  <Energy>  (20) 
90.56593306308172

>  <Genealogy>  (20) 
CCN(CC)CCOCCNc1c2ccccc2[n+](C)c2cc3ccccc3cc12 (3D coordinates assigned)
CCN(CC)CCOCCNc1c2ccccc2[n+](C)c2cc3ccccc3cc12 (optimized conformer: 90.56593306308172 kcal/mol)

>  <smiles>  (20) 
CCN(CC)CCOCCNc1c2ccccc2[n+](C)c2cc3ccccc3cc12

>  <score_type>  (20) 
oracle

>  <origin>  (20) 
adg

>  <m_score__min__energy>  (20) 
-9.75

>  <m_primary>  (20) 
energy

$$$$
21:0
     RDKit          3D

 85 88  0  0  0  0  0  0  0  0999 V2000
    2.0850   25.9790  -25.6320 C   0  0  0  0  0  0  0  0  0  0  0  0
    1.9730   25.8050  -24.1120 C   0  0  0  0  0  0  0  0  0  0  0  0
    0.8780   26.5810  -23.4640 N   0  0  0  0  0  0  0  0  0  0  0  0
    0.9510   28.0510  -23.6790 C   0  0  0  0  0  0  0  0  0  0  0  0
   -0.0610   28.5630  -24.7110 C   0  0  0  0  0  0  0  0  0  0  0  0
   -0.4790   26.0070  -23.7180 C   0  0  0  0  0  0  0  0  0  0  0  0
   -0.5060   24.5060  -24.0900 C   0  0  0  0  0  0  0  0  0  0  0  0
   -0.8090   24.3450  -25.4640 O   0  0  0  0  0  0  0  0  0  0  0  0
   -1.7100   25.3440  -25.8950 C   0  0  0  0  0  0  0  0  0  0  0  0
   -1.8930   25.2430  -27.4050 C   0  0  0  0  0  0  0  0  0  0  0  0
   -2.2550   23.8520  -27.7680 N   0  0  0  0  0  0  0  0  0  0  0  0
   -1.8330   23.4890  -29.1420 C   0  0  0  0  0  0  0  0  0  0  0  0
   -2.9230   23.7700  -30.2030 C   0  0  0  0  0  0  0  0  0  0  0  0
   -3.8610   24.8070  -29.7340 N   0  0  0  0  0  0  0  0  0  0  0  0
   -4.8000   25.1780  -30.8190 C   0  0  0  0  0  0  0  0  0  0  0  0
   -5.9000   24.1250  -30.9940 C   0  0  0  0  0  0  0  0  0  0  0  0
   -5.3770   22.7900  -30.7180 N   0  0  0  0  0  0  0  0  0  0  0  0
   -5.7540   21.6610  -31.5220 C   0  0  0  0  0  0  0  0  0  0  0  0
   -7.1090   21.3240  -31.6680 C   0  0  0  0  0  0  0  0  0  0  0  0
   -8.1150   22.1020  -31.0560 C   0  0  0  0  0  0  0  0  0  0  0  0
   -9.4610   21.7980  -31.2490 C   0  0  0  0  0  0  0  0  0  0  0  0
   -9.8250   20.7280  -32.0570 C   0  0  0  0  0  0  0  0  0  0  0  0
   -8.8460   19.9300  -32.6490 C   0  0  0  0  0  0  0  0  0  0  0  0
   -7.4670   20.1880  -32.4410 C   0  0  0  0  0  0  0  0  0  0  0  0
   -6.4840   19.3790  -32.9780 N   0  0  0  0  0  0  0  0  0  0  0  0
   -6.8380   18.0450  -33.5190 C   0  0  0  0  0  0  0  0  0  0  0  0
   -5.1680   19.8030  -32.9900 C   0  0  0  0  0  0  0  0  0  0  0  0
   -4.1800   19.1470  -33.7610 C   0  0  0  0  0  0  0  0  0  0  0  0
   -2.8490   19.5640  -33.7440 C   0  0  0  0  0  0  0  0  0  0  0  0
   -2.4450   20.6700  -32.9740 C   0  0  0  0  0  0  0  0  0  0  0  0
   -1.0520   21.0990  -32.9520 N   0  0  0  0  0  0  0  0  0  0  0  0
   -0.3450   21.4140  -34.2020 C   0  0  0  0  0  0  0  0  0  0  0  0
   -0.3160   21.2040  -31.6830 C   0  0  0  0  0  0  0  0  0  0  0  0
   -3.4300   21.3560  -32.2380 C   0  0  0  0  0  0  0  0  0  0  0  0
   -4.7790   20.9400  -32.2380 C   0  0  0  0  0  0  0  0  0  0  0  0
   -4.5900   24.3360  -28.5300 C   0  0  0  0  0  0  0  0  0  0  0  0
   -3.6830   23.5560  -27.5530 C   0  0  0  0  0  0  0  0  0  0  0  0
    2.6680   26.8847  -25.8554 H   0  0  0  0  0  0  0  0  0  0  0  0
    2.5889   25.1024  -26.0653 H   0  0  0  0  0  0  0  0  0  0  0  0
    1.0785   26.0747  -26.0653 H   0  0  0  0  0  0  0  0  0  0  0  0
    1.8041   24.7383  -23.9030 H   0  0  0  0  0  0  0  0  0  0  0  0
    2.9124   26.1917  -23.6902 H   0  0  0  0  0  0  0  0  0  0  0  0
    1.0350   26.4390  -22.4360 H   0  0  0  0  0  0  0  0  0  0  0  0
    0.7573   28.5543  -22.7203 H   0  0  0  0  0  0  0  0  0  0  0  0
    1.9553   28.2743  -24.0683 H   0  0  0  0  0  0  0  0  0  0  0  0
   -0.9258   29.0005  -24.1907 H   0  0  0  0  0  0  0  0  0  0  0  0
    0.4139   29.3293  -25.3413 H   0  0  0  0  0  0  0  0  0  0  0  0
   -0.3970   27.7265  -25.3413 H   0  0  0  0  0  0  0  0  0  0  0  0
   -1.0803   26.1416  -22.8068 H   0  0  0  0  0  0  0  0  0  0  0  0
   -0.8756   26.5430  -24.5929 H   0  0  0  0  0  0  0  0  0  0  0  0
    0.4789   24.0628  -23.8813 H   0  0  0  0  0  0  0  0  0  0  0  0
   -1.2802   24.0032  -23.4918 H   0  0  0  0  0  0  0  0  0  0  0  0
   -2.6807   25.2023  -25.3973 H   0  0  0  0  0  0  0  0  0  0  0  0
   -1.3091   26.3358  -25.6389 H   0  0  0  0  0  0  0  0  0  0  0  0
   -2.6949   25.9254  -27.7234 H   0  0  0  0  0  0  0  0  0  0  0  0
   -0.9542   25.5200  -27.9070 H   0  0  0  0  0  0  0  0  0  0  0  0
   -0.9357   24.0713  -29.3985 H   0  0  0  0  0  0  0  0  0  0  0  0
   -1.6364   22.4067  -29.1508 H   0  0  0  0  0  0  0  0  0  0  0  0
   -2.4421   24.1129  -31.1310 H   0  0  0  0  0  0  0  0  0  0  0  0
   -3.4863   22.8422  -30.3815 H   0  0  0  0  0  0  0  0  0  0  0  0
   -5.2656   26.1440  -30.5741 H   0  0  0  0  0  0  0  0  0  0  0  0
   -4.2326   25.2441  -31.7591 H   0  0  0  0  0  0  0  0  0  0  0  0
   -6.7236   24.3424  -30.2979 H   0  0  0  0  0  0  0  0  0  0  0  0
   -6.2628   24.1579  -32.0319 H   0  0  0  0  0  0  0  0  0  0  0  0
   -4.6850   22.6440  -29.9440 H   0  0  0  0  0  0  0  0  0  0  0  0
   -7.8341   22.9554  -30.4214 H   0  0  0  0  0  0  0  0  0  0  0  0
  -10.2367   22.4062  -30.7608 H   0  0  0  0  0  0  0  0  0  0  0  0
  -10.8890   20.5094  -32.2305 H   0  0  0  0  0  0  0  0  0  0  0  0
   -9.1484   19.0869  -33.2875 H   0  0  0  0  0  0  0  0  0  0  0  0
   -7.0226   17.3492  -32.6873 H   0  0  0  0  0  0  0  0  0  0  0  0
   -7.7451   18.1283  -34.1356 H   0  0  0  0  0  0  0  0  0  0  0  0
   -6.0089   17.6676  -34.1356 H   0  0  0  0  0  0  0  0  0  0  0  0
   -4.4675   18.2897  -34.3874 H   0  0  0  0  0  0  0  0  0  0  0  0
   -2.1035   19.0195  -34.3421 H   0  0  0  0  0  0  0  0  0  0  0  0
    0.6367   21.8514  -33.9678 H   0  0  0  0  0  0  0  0  0  0  0  0
   -0.2059   20.4927  -34.7867 H   0  0  0  0  0  0  0  0  0  0  0  0
   -0.9369   22.1335  -34.7867 H   0  0  0  0  0  0  0  0  0  0  0  0
   -1.0184   21.1038  -30.8424 H   0  0  0  0  0  0  0  0  0  0  0  0
    0.4373   20.4042  -31.6288 H   0  0  0  0  0  0  0  0  0  0  0  0
    0.1836   22.1825  -31.6288 H   0  0  0  0  0  0  0  0  0  0  0  0
   -3.1411   22.2384  -31.6481 H   0  0  0  0  0  0  0  0  0  0  0  0
   -5.0042   25.2094  -28.0050 H   0  0  0  0  0  0  0  0  0  0  0  0
   -5.3823   23.6515  -28.8672 H   0  0  0  0  0  0  0  0  0  0  0  0
   -3.9514   23.8317  -26.5225 H   0  0  0  0  0  0  0  0  0  0  0  0
   -3.8374   22.4815  -27.7310 H   0  0  0  0  0  0  0  0  0  0  0  0
  1  2  1  0
  2  3  1  0
  3  4  1  0
  4  5  1  0
  3  6  1  0
  6  7  1  0
  7  8  1  0
  8  9  1  0
  9 10  1  0
 10 11  1  0
 11 12  1  0
 12 13  1  0
 13 14  1  0
 14 15  1  0
 15 16  1  0
 16 17  1  0
 17 18  1  0
 18 19  1  0
 19 20  2  0
 20 21  1  0
 21 22  2  0
 22 23  1  0
 23 24  2  0
 24 25  1  0
 25 26  1  0
 25 27  2  0
 27 28  1  0
 28 29  2  0
 29 30  1  0
 30 31  1  0
 31 32  1  0
 31 33  1  0
 30 34  2  0
 34 35  1  0
 14 36  1  0
 36 37  1  0
 37 11  1  0
 35 18  2  0
 24 19  1  0
 35 27  1  0
  1 38  1  0
  1 39  1  0
  1 40  1  0
  2 41  1  0
  2 42  1  0
  3 43  1  0
  4 44  1  0
  4 45  1  0
  5 46  1  0
  5 47  1  0
  5 48  1  0
  6 49  1  0
  6 50  1  0
  7 51  1  0
  7 52  1  0
  9 53  1  0
  9 54  1  0
 10 55  1  0
 10 56  1  0
 12 57  1  0
 12 58  1  0
 13 59  1  0
 13 60  1  0
 15 61  1  0
 15 62  1  0
 16 63  1  0
 16 64  1  0
 17 65  1  0
 20 66  1  0
 21 67  1  0
 22 68  1  0
 23 69  1  0
 26 70  1  0
 26 71  1  0
 26 72  1  0
 28 73  1  0
 29 74  1  0
 32 75  1  0
 32 76  1  0
 32 77  1  0
 33 78  1  0
 33 79  1  0
 33 80  1  0
 34 81  1  0
 36 82  1  0
 36 83  1  0
 37 84  1  0
 37 85  1  0
M  CHG  2   3   1  25   1
M  END
>  <UniqueID>  (21) 
21

>  <SMILES>  (21) 
CC[NH+](CC)CCOCCN1CCN(CCNc2c3ccccc3[n+](C)c3ccc(N(C)C)cc23)CC1

>  <Energy>  (21) 
132.8287596483305

>  <Genealogy>  (21) 
CC[NH+](CC)CCOCCN1CCN(CCNc2c3ccccc3[n+](C)c3ccc(N(C)C)cc23)CC1 (protonated)
CC[NH+](CC)CCOCCN1CCN(CCNc2c3ccccc3[n+](C)c3ccc(N(C)C)cc23)CC1 (3D coordinates assigned)
CC[NH+](CC)CCOCCN1CCN(CCNc2c3ccccc3[n+](C)c3ccc(N(C)C)cc23)CC1 (nonaromatic ring conformer: 132.8287596483305 kcal/mol)

>  <smiles>  (21) 
CCN(CC)CCOCCN1CCN(CCNc2c3ccccc3[n+](C)c3ccc(N(C)C)cc23)CC1

>  <score_type>  (21) 
oracle

>  <origin>  (21) 
adg

>  <m_score__min__energy>  (21) 
-9.8699999999999992

>  <m_primary>  (21) 
energy

$$$$
22:0
     RDKit          3D

 80 83  0  0  0  0  0  0  0  0999 V2000
   -2.6013   22.3338  -28.0903 H   0  0  0  0  0  0  0  0  0  0  0  0
   -2.4270   23.3460  -28.4840 C   0  0  0  0  0  0  0  0  0  0  0  0
   -2.6520   23.5590  -29.7890 C   0  0  0  0  0  0  0  0  0  0  0  0
   -1.7897   23.5936  -30.4711 H   0  0  0  0  0  0  0  0  0  0  0  0
   -4.0020   23.7490  -30.3520 C   0  0  0  0  0  0  0  0  0  0  0  0
   -4.3840   25.0500  -30.4320 N   0  0  0  0  0  0  0  0  0  0  0  0
   -5.5720   25.4420  -30.9260 C   0  0  0  0  0  0  0  0  0  0  0  0
   -5.8152   26.5129  -30.9894 H   0  0  0  0  0  0  0  0  0  0  0  0
   -6.4850   24.5010  -31.3530 C   0  0  0  0  0  0  0  0  0  0  0  0
   -7.4548   24.8268  -31.7572 H   0  0  0  0  0  0  0  0  0  0  0  0
   -6.1860   23.1210  -31.2760 C   0  0  0  0  0  0  0  0  0  0  0  0
   -4.8940   22.7070  -30.8150 C   0  0  0  0  0  0  0  0  0  0  0  0
   -4.5800   21.3010  -30.8910 C   0  0  0  0  0  0  0  0  0  0  0  0
   -3.3940   20.7230  -30.2820 N   0  0  0  0  0  0  0  0  0  0  0  0
   -3.6080   19.7460  -29.9730 H   0  0  0  0  0  0  0  0  0  0  0  0
   -3.1690   21.1720  -29.3780 H   0  0  0  0  0  0  0  0  0  0  0  0
   -2.2450   20.7310  -31.2130 C   0  0  0  0  0  0  0  0  0  0  0  0
   -2.2741   21.6579  -31.8046 H   0  0  0  0  0  0  0  0  0  0  0  0
   -2.3251   19.8436  -31.8580 H   0  0  0  0  0  0  0  0  0  0  0  0
   -0.9010   20.6580  -30.4720 C   0  0  0  0  0  0  0  0  0  0  0  0
   -0.6160   21.6730  -30.1579 H   0  0  0  0  0  0  0  0  0  0  0  0
   -0.1623   20.2252  -31.1626 H   0  0  0  0  0  0  0  0  0  0  0  0
   -0.9610   19.7580  -29.2310 C   0  0  0  0  0  0  0  0  0  0  0  0
    0.0595   19.4647  -28.9437 H   0  0  0  0  0  0  0  0  0  0  0  0
   -1.5548   18.8615  -29.4627 H   0  0  0  0  0  0  0  0  0  0  0  0
   -1.5960   20.4860  -28.1100 N   0  0  0  0  0  0  0  0  0  0  0  0
   -0.6110   20.8240  -27.0570 C   0  0  0  0  0  0  0  0  0  0  0  0
   -0.1503   19.8992  -26.6794 H   0  0  0  0  0  0  0  0  0  0  0  0
   -1.1254   21.3476  -26.2377 H   0  0  0  0  0  0  0  0  0  0  0  0
    0.4740   21.7320  -27.6260 C   0  0  0  0  0  0  0  0  0  0  0  0
    1.0316   22.1987  -26.8006 H   0  0  0  0  0  0  0  0  0  0  0  0
    1.1629   21.1374  -28.2439 H   0  0  0  0  0  0  0  0  0  0  0  0
    0.0101   22.5149  -28.2439 H   0  0  0  0  0  0  0  0  0  0  0  0
   -2.7410   19.7270  -27.5470 C   0  0  0  0  0  0  0  0  0  0  0  0
   -3.5217   20.4313  -27.2236 H   0  0  0  0  0  0  0  0  0  0  0  0
   -3.1435   19.0540  -28.3184 H   0  0  0  0  0  0  0  0  0  0  0  0
   -2.2790   18.9010  -26.3520 C   0  0  0  0  0  0  0  0  0  0  0  0
   -2.5647   19.4119  -25.4207 H   0  0  0  0  0  0  0  0  0  0  0  0
   -2.7533   17.9091  -26.3865 H   0  0  0  0  0  0  0  0  0  0  0  0
   -1.1856   18.7860  -26.3865 H   0  0  0  0  0  0  0  0  0  0  0  0
   -5.4700   20.4380  -31.5980 C   0  0  0  0  0  0  0  0  0  0  0  0
   -5.1210   19.1000  -31.9190 C   0  0  0  0  0  0  0  0  0  0  0  0
   -4.1367   18.7129  -31.6168 H   0  0  0  0  0  0  0  0  0  0  0  0
   -5.9980   18.2680  -32.6080 C   0  0  0  0  0  0  0  0  0  0  0  0
   -5.7088   17.2306  -32.8319 H   0  0  0  0  0  0  0  0  0  0  0  0
   -7.2360   18.7440  -33.0130 C   0  0  0  0  0  0  0  0  0  0  0  0
   -7.9235   18.0888  -33.5680 H   0  0  0  0  0  0  0  0  0  0  0  0
   -7.6070   20.0520  -32.7160 C   0  0  0  0  0  0  0  0  0  0  0  0
   -8.5858   20.4246  -33.0522 H   0  0  0  0  0  0  0  0  0  0  0  0
   -6.7470   20.9140  -31.9880 C   0  0  0  0  0  0  0  0  0  0  0  0
   -7.1310   22.1920  -31.6650 N   0  0  0  0  0  0  0  0  0  0  0  0
   -8.5600   22.5720  -31.7430 C   0  0  0  0  0  0  0  0  0  0  0  0
   -8.9667   22.6801  -30.7267 H   0  0  0  0  0  0  0  0  0  0  0  0
   -8.6567   23.5271  -32.2801 H   0  0  0  0  0  0  0  0  0  0  0  0
   -9.1183   21.7911  -32.2801 H   0  0  0  0  0  0  0  0  0  0  0  0
   -1.9590   24.3860  -27.5390 C   0  0  0  0  0  0  0  0  0  0  0  0
   -2.7730   24.7300  -26.4510 C   0  0  0  0  0  0  0  0  0  0  0  0
   -3.7232   24.1999  -26.2892 H   0  0  0  0  0  0  0  0  0  0  0  0
   -2.3830   25.7440  -25.5700 C   0  0  0  0  0  0  0  0  0  0  0  0
   -3.0344   26.0172  -24.7268 H   0  0  0  0  0  0  0  0  0  0  0  0
   -1.1650   26.4140  -25.7570 C   0  0  0  0  0  0  0  0  0  0  0  0
   -0.7710   27.4680  -24.8600 N   0  0  0  0  0  0  0  0  0  0  0  0
   -0.8940   28.8720  -25.2800 C   0  0  0  0  0  0  0  0  0  0  0  0
   -1.9261   29.0619  -25.6097 H   0  0  0  0  0  0  0  0  0  0  0  0
   -0.6419   29.5210  -24.4284 H   0  0  0  0  0  0  0  0  0  0  0  0
    0.0640   29.1730  -26.4300 C   0  0  0  0  0  0  0  0  0  0  0  0
    1.0393   29.4795  -26.0241 H   0  0  0  0  0  0  0  0  0  0  0  0
    0.1907   28.2714  -27.0473 H   0  0  0  0  0  0  0  0  0  0  0  0
   -0.3478   29.9851  -27.0473 H   0  0  0  0  0  0  0  0  0  0  0  0
   -0.2530   27.1310  -23.5270 C   0  0  0  0  0  0  0  0  0  0  0  0
   -0.9799   27.4492  -22.7652 H   0  0  0  0  0  0  0  0  0  0  0  0
   -0.0960   26.0437  -23.4712 H   0  0  0  0  0  0  0  0  0  0  0  0
    1.0780   27.8350  -23.2760 C   0  0  0  0  0  0  0  0  0  0  0  0
    1.2470   27.9244  -22.1927 H   0  0  0  0  0  0  0  0  0  0  0  0
    1.8930   27.2500  -23.7272 H   0  0  0  0  0  0  0  0  0  0  0  0
    1.0532   28.8379  -23.7272 H   0  0  0  0  0  0  0  0  0  0  0  0
   -0.3330   26.0470  -26.8270 C   0  0  0  0  0  0  0  0  0  0  0  0
    0.6311   26.5567  -26.9713 H   0  0  0  0  0  0  0  0  0  0  0  0
   -0.7250   25.0370  -27.7090 C   0  0  0  0  0  0  0  0  0  0  0  0
   -0.0647   24.7498  -28.5406 H   0  0  0  0  0  0  0  0  0  0  0  0
  1  2  1  0
  2  3  2  0
  3  4  1  0
  3  5  1  0
  5  6  2  0
  6  7  1  0
  7  8  1  0
  7  9  2  0
  9 10  1  0
  9 11  1  0
 11 12  2  0
 12 13  1  0
 13 14  1  0
 14 15  1  0
 14 16  1  0
 14 17  1  0
 17 18  1  0
 17 19  1  0
 17 20  1  0
 20 21  1  0
 20 22  1  0
 20 23  1  0
 23 24  1  0
 23 25  1  0
 23 26  1  0
 26 27  1  0
 27 28  1  0
 27 29  1  0
 27 30  1  0
 30 31  1  0
 30 32  1  0
 30 33  1  0
 26 34  1  0
 34 35  1  0
 34 36  1  0
 34 37  1  0
 37 38  1  0
 37 39  1  0
 37 40  1  0
 13 41  2  0
 41 42  1  0
 42 43  1  0
 42 44  2  0
 44 45  1  0
 44 46  1  0
 46 47  1  0
 46 48  2  0
 48 49  1  0
 48 50  1  0
 50 51  2  0
 51 52  1  0
 52 53  1  0
 52 54  1  0
 52 55  1  0
  2 56  1  0
 56 57  2  0
 57 58  1  0
 57 59  1  0
 59 60  1  0
 59 61  2  0
 61 62  1  0
 62 63  1  0
 63 64  1  0
 63 65  1  0
 63 66  1  0
 66 67  1  0
 66 68  1  0
 66 69  1  0
 62 70  1  0
 70 71  1  0
 70 72  1  0
 70 73  1  0
 73 74  1  0
 73 75  1  0
 73 76  1  0
 61 77  1  0
 77 78  1  0
 77 79  2  0
 79 80  1  0
 12  5  1  0
 50 41  1  0
 79 56  1  0
 51 11  1  0
M  CHG  2  14   1  51   1
M  END
>  <UniqueID>  (22) 
22

>  <SMILES>  (22) 
CCN(CC)CCC[NH2+]c1c2ccccc2[n+](C)c2ccnc(/C=C\c3ccc(N(CC)CC)cc3)c12

>  <Energy>  (22) 
126.84447791117549

>  <Genealogy>  (22) 
CCN(CC)CCC[NH2+]c1c2ccccc2[n+](C)c2ccnc(C=Cc3ccc(N(CC)CC)cc3)c12 (protonated)
CCN(CC)CCC[NH2+]c1c2ccccc2[n+](C)c2ccnc(/C=C\c3ccc(N(CC)CC)cc3)c12 (cis-trans isomerization)
CCN(CC)CCC[NH2+]c1c2ccccc2[n+](C)c2ccnc(/C=C\c3ccc(N(CC)CC)cc3)c12 (3D coordinates assigned)
CCN(CC)CCC[NH2+]c1c2ccccc2[n+](C)c2ccnc(/C=C\c3ccc(N(CC)CC)cc3)c12 (optimized conformer: 126.84447791117549 kcal/mol)

>  <smiles>  (22) 
CCN(CC)CCCNc1c2ccccc2[n+](C)c2ccnc(C=Cc3ccc(N(CC)CC)cc3)c12

>  <score_type>  (22) 
oracle

>  <origin>  (22) 
adg

>  <m_score__min__energy>  (22) 
-9.6799999999999997

>  <m_primary>  (22) 
energy

$$$$
