0:0
     RDKit          3D

 47 50  0  0  0  0  0  0  0  0999 V2000
   -9.4240   21.4770  -31.4660 C   0  0  0  0  0  0  0  0  0  0  0  0
   -8.0940   21.1470  -31.9750 N   0  0  0  0  0  0  0  0  0  0  0  0
   -7.0930   22.0070  -32.2980 C   0  0  0  0  0  0  0  0  0  0  0  0
   -7.1910   23.7970  -32.1180 S   0  0  0  0  0  0  0  0  0  0  0  0
   -5.9450   23.8600  -30.8270 C   0  0  0  0  0  0  0  0  0  0  0  0
   -4.9680   24.8640  -30.8400 C   0  0  0  0  0  0  0  0  0  0  0  0
   -3.9980   24.9140  -29.8340 C   0  0  0  0  0  0  0  0  0  0  0  0
   -3.9920   23.9530  -28.8170 C   0  0  0  0  0  0  0  0  0  0  0  0
   -2.7760   24.0150  -27.5550 Cl  0  0  0  0  0  0  0  0  0  0  0  0
   -4.9520   22.9340  -28.8150 C   0  0  0  0  0  0  0  0  0  0  0  0
   -5.9220   22.8840  -29.8210 C   0  0  0  0  0  0  0  0  0  0  0  0
   -5.9680   21.3070  -32.7320 C   0  0  0  0  0  0  0  0  0  0  0  0
   -4.6150   21.8770  -33.0550 C   0  0  0  0  0  0  0  0  0  0  0  0
   -3.5400   20.9580  -32.6270 N   0  0  0  0  0  0  0  0  0  0  0  0
   -2.3170   21.1360  -33.4500 C   0  0  0  0  0  0  0  0  0  0  0  0
   -1.0680   20.6380  -32.7150 C   0  0  0  0  0  0  0  0  0  0  0  0
   -0.8260   21.3970  -31.4740 N   0  0  0  0  0  0  0  0  0  0  0  0
   -2.0530   21.9270  -30.8510 C   0  0  0  0  0  0  0  0  0  0  0  0
   -3.2840   21.0620  -31.1670 C   0  0  0  0  0  0  0  0  0  0  0  0
   -6.3210   19.9690  -32.6790 C   0  0  0  0  0  0  0  0  0  0  0  0
   -5.5920   18.8160  -32.9740 C   0  0  0  0  0  0  0  0  0  0  0  0
   -6.2310   17.5730  -32.8100 C   0  0  0  0  0  0  0  0  0  0  0  0
   -5.2820   15.9630  -33.2010 Br  0  0  0  0  0  0  0  0  0  0  0  0
   -7.5660   17.5100  -32.3580 C   0  0  0  0  0  0  0  0  0  0  0  0
   -8.2750   18.6870  -32.0600 C   0  0  0  0  0  0  0  0  0  0  0  0
   -7.6170   19.9100  -32.2280 C   0  0  0  0  0  0  0  0  0  0  0  0
   -9.4071   21.4728  -30.3661 H   0  0  0  0  0  0  0  0  0  0  0  0
   -9.7166   22.4750  -31.8244 H   0  0  0  0  0  0  0  0  0  0  0  0
  -10.1491   20.7315  -31.8244 H   0  0  0  0  0  0  0  0  0  0  0  0
   -4.9639   25.6150  -31.6437 H   0  0  0  0  0  0  0  0  0  0  0  0
   -3.2387   25.7099  -29.8422 H   0  0  0  0  0  0  0  0  0  0  0  0
   -4.9433   22.1722  -28.0216 H   0  0  0  0  0  0  0  0  0  0  0  0
   -6.6690   22.0766  -29.8230 H   0  0  0  0  0  0  0  0  0  0  0  0
   -4.5413   22.0366  -34.1409 H   0  0  0  0  0  0  0  0  0  0  0  0
   -4.4976   22.8297  -32.5178 H   0  0  0  0  0  0  0  0  0  0  0  0
   -2.4305   20.5695  -34.3861 H   0  0  0  0  0  0  0  0  0  0  0  0
   -2.1920   22.2095  -33.6546 H   0  0  0  0  0  0  0  0  0  0  0  0
   -1.2027   19.5759  -32.4626 H   0  0  0  0  0  0  0  0  0  0  0  0
   -0.2013   20.7791  -33.3776 H   0  0  0  0  0  0  0  0  0  0  0  0
   -0.3540   20.7570  -30.7910 H   0  0  0  0  0  0  0  0  0  0  0  0
   -1.9120   21.9578  -29.7605 H   0  0  0  0  0  0  0  0  0  0  0  0
   -2.2324   22.9324  -31.2596 H   0  0  0  0  0  0  0  0  0  0  0  0
   -3.1195   20.0519  -30.7638 H   0  0  0  0  0  0  0  0  0  0  0  0
   -4.1597   21.5411  -30.7049 H   0  0  0  0  0  0  0  0  0  0  0  0
   -4.5508   18.8770  -33.3237 H   0  0  0  0  0  0  0  0  0  0  0  0
   -8.0559   16.5325  -32.2378 H   0  0  0  0  0  0  0  0  0  0  0  0
   -9.3156   18.6474  -31.7055 H   0  0  0  0  0  0  0  0  0  0  0  0
  1  2  1  0
  2  3  1  0
  3  4  1  0
  4  5  1  0
  5  6  2  0
  6  7  1  0
  7  8  2  0
  8  9  1  0
  8 10  1  0
 10 11  2  0
  3 12  2  0
 12 13  1  0
 13 14  1  0
 14 15  1  0
 15 16  1  0
 16 17  1  0
 17 18  1  0
 18 19  1  0
 12 20  1  0
 20 21  2  0
 21 22  1  0
 22 23  1  0
 22 24  2  0
 24 25  1  0
 25 26  2  0
 26  2  1  0
 11  5  1  0
 19 14  1  0
 26 20  1  0
  1 27  1  0
  1 28  1  0
  1 29  1  0
  6 30  1  0
  7 31  1  0
 10 32  1  0
 11 33  1  0
 13 34  1  0
 13 35  1  0
 15 36  1  0
 15 37  1  0
 16 38  1  0
 16 39  1  0
 17 40  1  0
 18 41  1  0
 18 42  1  0
 19 43  1  0
 19 44  1  0
 21 45  1  0
 24 46  1  0
 25 47  1  0
M  END
>  <UniqueID>  (1) 
1

>  <SMILES>  (1) 
Cn1c(Sc2ccc(Cl)cc2)c(CN2CCNCC2)c2cc(Br)ccc21

>  <Energy>  (1) 
88.68250296432382

>  <Genealogy>  (1) 
Cn1c(Sc2ccc(Cl)cc2)c(CN2CCNCC2)c2cc(Br)ccc21 (3D coordinates assigned)
Cn1c(Sc2ccc(Cl)cc2)c(CN2CCNCC2)c2cc(Br)ccc21 (nonaromatic ring conformer: 88.68250296432382 kcal/mol)

>  <smiles>  (1) 
Cn1c(Sc2ccc(Cl)cc2)c(CN2CCNCC2)c2cc(Br)ccc21

>  <score_type>  (1) 
oracle

>  <origin>  (1) 
adg

>  <m_score__min__energy>  (1) 
-9.2100000000000009

>  <m_primary>  (1) 
energy

$$$$
1:0
     RDKit          3D

 81 84  0  0  0  0  0  0  0  0999 V2000
   -3.1470   18.9240  -26.3390 C   0  0  0  0  0  0  0  0  0  0  0  0
   -2.0320   19.0450  -27.3840 C   0  0  0  0  0  0  0  0  0  0  0  0
   -1.9910   20.3780  -28.0170 N   0  0  0  0  0  0  0  0  0  0  0  0
   -0.9350   21.2440  -27.4660 C   0  0  0  0  0  0  0  0  0  0  0  0
   -0.0920   21.8610  -28.5850 C   0  0  0  0  0  0  0  0  0  0  0  0
   -0.9450   22.2740  -29.6380 O   0  0  0  0  0  0  0  0  0  0  0  0
   -0.7700   21.5080  -30.8220 C   0  0  0  0  0  0  0  0  0  0  0  0
   -2.1200   21.0060  -31.3560 C   0  0  0  0  0  0  0  0  0  0  0  0
   -3.1960   20.9890  -30.3320 N   0  0  0  0  0  0  0  0  0  0  0  0
   -4.4920   21.3850  -30.8690 C   0  0  0  0  0  0  0  0  0  0  0  0
   -5.1680   20.5100  -31.7730 C   0  0  0  0  0  0  0  0  0  0  0  0
   -4.5370   19.3610  -32.3200 C   0  0  0  0  0  0  0  0  0  0  0  0
   -5.2080   18.5160  -33.2020 C   0  0  0  0  0  0  0  0  0  0  0  0
   -6.5130   18.7990  -33.5820 C   0  0  0  0  0  0  0  0  0  0  0  0
   -7.1600   19.9150  -33.0640 C   0  0  0  0  0  0  0  0  0  0  0  0
   -6.5160   20.7740  -32.1310 C   0  0  0  0  0  0  0  0  0  0  0  0
   -7.1750   21.8470  -31.5820 N   0  0  0  0  0  0  0  0  0  0  0  0
   -8.6530   21.9100  -31.6460 C   0  0  0  0  0  0  0  0  0  0  0  0
   -6.4710   22.8490  -30.9570 C   0  0  0  0  0  0  0  0  0  0  0  0
   -7.0740   24.1160  -30.7590 C   0  0  0  0  0  0  0  0  0  0  0  0
   -6.4140   25.1360  -30.1000 C   0  0  0  0  0  0  0  0  0  0  0  0
   -5.1460   24.9260  -29.6000 C   0  0  0  0  0  0  0  0  0  0  0  0
   -4.4860   23.7050  -29.7880 C   0  0  0  0  0  0  0  0  0  0  0  0
   -3.1550   23.6400  -29.2660 N   0  0  0  0  0  0  0  0  0  0  0  0
   -2.6580   24.7290  -28.4180 C   0  0  0  0  0  0  0  0  0  0  0  0
   -2.8030   24.3570  -26.9310 C   0  0  0  0  0  0  0  0  0  0  0  0
   -2.5450   25.5560  -25.9760 C   0  0  0  0  0  0  0  0  0  0  0  0
   -1.1850   25.6090  -25.3360 N   0  0  0  0  0  0  0  0  0  0  0  0
   -1.2050   26.5750  -24.2080 C   0  0  0  0  0  0  0  0  0  0  0  0
   -0.7920   24.2500  -24.8230 C   0  0  0  0  0  0  0  0  0  0  0  0
    0.7260   24.0130  -24.8450 C   0  0  0  0  0  0  0  0  0  0  0  0
    1.2700   24.0640  -26.2800 C   0  0  0  0  0  0  0  0  0  0  0  0
    0.4490   24.9990  -27.1830 C   0  0  0  0  0  0  0  0  0  0  0  0
   -0.2070   26.1220  -26.3610 C   0  0  0  0  0  0  0  0  0  0  0  0
   -5.1210   22.6360  -30.5230 C   0  0  0  0  0  0  0  0  0  0  0  0
   -2.7108   18.9713  -25.3303 H   0  0  0  0  0  0  0  0  0  0  0  0
   -3.8620   19.7498  -26.4684 H   0  0  0  0  0  0  0  0  0  0  0  0
   -3.6682   17.9640  -26.4684 H   0  0  0  0  0  0  0  0  0  0  0  0
   -1.0660   18.8585  -26.8920 H   0  0  0  0  0  0  0  0  0  0  0  0
   -2.2335   18.3065  -28.1740 H   0  0  0  0  0  0  0  0  0  0  0  0
   -1.8340   20.2640  -29.0470 H   0  0  0  0  0  0  0  0  0  0  0  0
   -1.4003   22.0502  -26.8799 H   0  0  0  0  0  0  0  0  0  0  0  0
   -0.2784   20.6337  -26.8285 H   0  0  0  0  0  0  0  0  0  0  0  0
    0.4578   22.7301  -28.1947 H   0  0  0  0  0  0  0  0  0  0  0  0
    0.6248   21.1161  -28.9610 H   0  0  0  0  0  0  0  0  0  0  0  0
   -0.2903   22.1345  -31.5884 H   0  0  0  0  0  0  0  0  0  0  0  0
   -0.1399   20.6375  -30.5869 H   0  0  0  0  0  0  0  0  0  0  0  0
   -2.4344   21.6638  -32.1797 H   0  0  0  0  0  0  0  0  0  0  0  0
   -1.9706   19.9667  -31.6839 H   0  0  0  0  0  0  0  0  0  0  0  0
   -3.2630   20.0650  -29.8600 H   0  0  0  0  0  0  0  0  0  0  0  0
   -2.9550   21.6000  -29.5300 H   0  0  0  0  0  0  0  0  0  0  0  0
   -3.4974   19.1335  -32.0417 H   0  0  0  0  0  0  0  0  0  0  0  0
   -4.7025   17.6228  -33.5980 H   0  0  0  0  0  0  0  0  0  0  0  0
   -7.0345   18.1407  -34.2924 H   0  0  0  0  0  0  0  0  0  0  0  0
   -8.1893   20.1380  -33.3816 H   0  0  0  0  0  0  0  0  0  0  0  0
   -9.0638   21.9275  -30.6257 H   0  0  0  0  0  0  0  0  0  0  0  0
   -8.9584   22.8220  -32.1799 H   0  0  0  0  0  0  0  0  0  0  0  0
   -9.0349   21.0273  -32.1799 H   0  0  0  0  0  0  0  0  0  0  0  0
   -8.0913   24.2919  -31.1387 H   0  0  0  0  0  0  0  0  0  0  0  0
   -6.8999   26.1148  -29.9744 H   0  0  0  0  0  0  0  0  0  0  0  0
   -4.6442   25.7315  -29.0438 H   0  0  0  0  0  0  0  0  0  0  0  0
   -2.4500   23.1850  -29.8870 H   0  0  0  0  0  0  0  0  0  0  0  0
   -1.5970   24.9103  -28.6449 H   0  0  0  0  0  0  0  0  0  0  0  0
   -3.2467   25.6362  -28.6190 H   0  0  0  0  0  0  0  0  0  0  0  0
   -3.8247   23.9868  -26.7605 H   0  0  0  0  0  0  0  0  0  0  0  0
   -2.0457   23.5909  -26.7086 H   0  0  0  0  0  0  0  0  0  0  0  0
   -2.6811   26.4819  -26.5541 H   0  0  0  0  0  0  0  0  0  0  0  0
   -3.2579   25.4335  -25.1473 H   0  0  0  0  0  0  0  0  0  0  0  0
   -1.1936   26.0260  -23.2549 H   0  0  0  0  0  0  0  0  0  0  0  0
   -0.3201   27.2258  -24.2669 H   0  0  0  0  0  0  0  0  0  0  0  0
   -2.1160   27.1886  -24.2669 H   0  0  0  0  0  0  0  0  0  0  0  0
   -1.1467   24.1511  -23.7865 H   0  0  0  0  0  0  0  0  0  0  0  0
   -1.2501   23.5033  -25.4883 H   0  0  0  0  0  0  0  0  0  0  0  0
    1.2203   24.7912  -24.2450 H   0  0  0  0  0  0  0  0  0  0  0  0
    0.9312   23.0162  -24.4276 H   0  0  0  0  0  0  0  0  0  0  0  0
    2.3095   24.4227  -26.2516 H   0  0  0  0  0  0  0  0  0  0  0  0
    1.2062   23.0494  -26.7001 H   0  0  0  0  0  0  0  0  0  0  0  0
    1.1135   25.4461  -27.9370 H   0  0  0  0  0  0  0  0  0  0  0  0
   -0.3436   24.4109  -27.6687 H   0  0  0  0  0  0  0  0  0  0  0  0
    0.5835   26.6829  -25.8409 H   0  0  0  0  0  0  0  0  0  0  0  0
   -0.7688   26.7569  -27.0620 H   0  0  0  0  0  0  0  0  0  0  0  0
  1  2  1  0
  2  3  1  0
  3  4  1  0
  4  5  1  0
  5  6  1  0
  6  7  1  0
  7  8  1  0
  8  9  1  0
  9 10  1  0
 10 11  2  0
 11 12  1  0
 12 13  2  0
 13 14  1  0
 14 15  2  0
 15 16  1  0
 16 17  2  0
 17 18  1  0
 17 19  1  0
 19 20  2  0
 20 21  1  0
 21 22  2  0
 22 23  1  0
 23 24  1  0
 24 25  1  0
 25 26  1  0
 26 27  1  0
 27 28  1  0
 28 29  1  0
 28 30  1  0
 30 31  1  0
 31 32  1  0
 32 33  1  0
 33 34  1  0
 23 35  2  0
 35 10  1  0
 16 11  1  0
 35 19  1  0
 34 28  1  0
  1 36  1  0
  1 37  1  0
  1 38  1  0
  2 39  1  0
  2 40  1  0
  3 41  1  0
  4 42  1  0
  4 43  1  0
  5 44  1  0
  5 45  1  0
  7 46  1  0
  7 47  1  0
  8 48  1  0
  8 49  1  0
  9 50  1  0
  9 51  1  0
 12 52  1  0
 13 53  1  0
 14 54  1  0
 15 55  1  0
 18 56  1  0
 18 57  1  0
 18 58  1  0
 20 59  1  0
 21 60  1  0
 22 61  1  0
 24 62  1  0
 25 63  1  0
 25 64  1  0
 26 65  1  0
 26 66  1  0
 27 67  1  0
 27 68  1  0
 29 69  1  0
 29 70  1  0
 29 71  1  0
 30 72  1  0
 30 73  1  0
 31 74  1  0
 31 75  1  0
 32 76  1  0
 32 77  1  0
 33 78  1  0
 33 79  1  0
 34 80  1  0
 34 81  1  0
M  CHG  3   9   1  17   1  28   1
M  END
>  <UniqueID>  (2) 
2

>  <SMILES>  (2) 
CCNCCOCC[NH2+]c1c2ccccc2[n+](C)c2cccc(NCCC[N+]3(C)CCCCC3)c12

>  <Energy>  (2) 
144.26555866005373

>  <Genealogy>  (2) 
CCNCCOCC[NH2+]c1c2ccccc2[n+](C)c2cccc(NCCC[N+]3(C)CCCCC3)c12 (protonated)
CCNCCOCC[NH2+]c1c2ccccc2[n+](C)c2cccc(NCCC[N+]3(C)CCCCC3)c12 (3D coordinates assigned)
CCNCCOCC[NH2+]c1c2ccccc2[n+](C)c2cccc(NCCC[N+]3(C)CCCCC3)c12 (nonaromatic ring conformer: 144.26555866005373 kcal/mol)

>  <smiles>  (2) 
CCNCCOCCNc1c2ccccc2[n+](C)c2cccc(NCCC[N+]3(C)CCCCC3)c12

>  <score_type>  (2) 
oracle

>  <origin>  (2) 
adg

>  <m_score__min__energy>  (2) 
-8.7899999999999991

>  <m_primary>  (2) 
energy

$$$$
2:0
     RDKit          3D

 75 77  0  0  0  0  0  0  0  0999 V2000
   -2.6610   17.1670  -33.9540 C   0  0  0  0  0  0  0  0  0  0  0  0
   -1.5230   18.1730  -33.8450 C   0  0  0  0  0  0  0  0  0  0  0  0
   -1.9610   19.3470  -33.0770 N   0  0  0  0  0  0  0  0  0  0  0  0
   -2.1800   20.5090  -33.9510 C   0  0  0  0  0  0  0  0  0  0  0  0
   -3.0140   21.5870  -33.2410 C   0  0  0  0  0  0  0  0  0  0  0  0
   -3.2810   21.2270  -31.8320 N   0  0  0  0  0  0  0  0  0  0  0  0
   -4.6930   21.3520  -31.4920 C   0  0  0  0  0  0  0  0  0  0  0  0
   -5.5970   20.3230  -31.8930 C   0  0  0  0  0  0  0  0  0  0  0  0
   -5.1380   19.1180  -32.4880 C   0  0  0  0  0  0  0  0  0  0  0  0
   -6.0250   18.1240  -32.8920 C   0  0  0  0  0  0  0  0  0  0  0  0
   -7.3890   18.3080  -32.7400 C   0  0  0  0  0  0  0  0  0  0  0  0
   -7.8760   19.4800  -32.1710 C   0  0  0  0  0  0  0  0  0  0  0  0
   -6.9970   20.4990  -31.7160 C   0  0  0  0  0  0  0  0  0  0  0  0
   -7.4850   21.6610  -31.1610 N   0  0  0  0  0  0  0  0  0  0  0  0
   -8.9050   21.7460  -30.7490 C   0  0  0  0  0  0  0  0  0  0  0  0
   -6.6490   22.7390  -30.9620 C   0  0  0  0  0  0  0  0  0  0  0  0
   -7.1830   24.0360  -30.7770 C   0  0  0  0  0  0  0  0  0  0  0  0
   -6.3670   25.1120  -30.4670 C   0  0  0  0  0  0  0  0  0  0  0  0
   -5.0120   24.9160  -30.2700 C   0  0  0  0  0  0  0  0  0  0  0  0
   -4.4320   23.6550  -30.4720 C   0  0  0  0  0  0  0  0  0  0  0  0
   -3.1080   23.4520  -29.9610 N   0  0  0  0  0  0  0  0  0  0  0  0
   -2.3180   24.5180  -29.3430 C   0  0  0  0  0  0  0  0  0  0  0  0
   -2.5980   24.5770  -27.8390 C   0  0  0  0  0  0  0  0  0  0  0  0
   -1.8790   23.4490  -27.0810 C   0  0  0  0  0  0  0  0  0  0  0  0
   -1.7770   22.2400  -27.8190 O   0  0  0  0  0  0  0  0  0  0  0  0
   -2.7690   21.2840  -27.4800 C   0  0  0  0  0  0  0  0  0  0  0  0
   -3.0270   20.2530  -28.5860 C   0  0  0  0  0  0  0  0  0  0  0  0
   -2.0490   20.4440  -29.6730 N   0  0  0  0  0  0  0  0  0  0  0  0
   -0.8100   19.6780  -29.4720 C   0  0  0  0  0  0  0  0  0  0  0  0
    0.2160   19.9970  -30.5700 C   0  0  0  0  0  0  0  0  0  0  0  0
   -0.1830   21.2250  -31.3960 C   0  0  0  0  0  0  0  0  0  0  0  0
   -0.6630   22.3040  -30.5350 N   0  0  0  0  0  0  0  0  0  0  0  0
   -5.2320   22.5690  -30.9600 C   0  0  0  0  0  0  0  0  0  0  0  0
   -2.9906   16.8756  -32.9458 H   0  0  0  0  0  0  0  0  0  0  0  0
   -3.5021   17.6223  -34.4975 H   0  0  0  0  0  0  0  0  0  0  0  0
   -2.3123   16.2764  -34.4975 H   0  0  0  0  0  0  0  0  0  0  0  0
   -0.6688   17.7028  -33.3359 H   0  0  0  0  0  0  0  0  0  0  0  0
   -1.2260   18.4927  -34.8548 H   0  0  0  0  0  0  0  0  0  0  0  0
   -2.8780   19.1070  -32.6320 H   0  0  0  0  0  0  0  0  0  0  0  0
   -1.2058   20.9357  -34.2319 H   0  0  0  0  0  0  0  0  0  0  0  0
   -2.7285   20.1754  -34.8443 H   0  0  0  0  0  0  0  0  0  0  0  0
   -2.4643   22.5394  -33.2683 H   0  0  0  0  0  0  0  0  0  0  0  0
   -3.9784   21.6755  -33.7626 H   0  0  0  0  0  0  0  0  0  0  0  0
   -2.7230   21.8310  -31.1870 H   0  0  0  0  0  0  0  0  0  0  0  0
   -2.9110   20.2780  -31.6230 H   0  0  0  0  0  0  0  0  0  0  0  0
   -4.0581   18.9668  -32.6328 H   0  0  0  0  0  0  0  0  0  0  0  0
   -5.6420   17.1916  -33.3324 H   0  0  0  0  0  0  0  0  0  0  0  0
   -8.0886   17.5259  -33.0699 H   0  0  0  0  0  0  0  0  0  0  0  0
   -8.9624   19.6205  -32.0714 H   0  0  0  0  0  0  0  0  0  0  0  0
   -8.9686   21.7498  -29.6508 H   0  0  0  0  0  0  0  0  0  0  0  0
   -9.3469   22.6722  -31.1451 H   0  0  0  0  0  0  0  0  0  0  0  0
   -9.4542   20.8791  -31.1451 H   0  0  0  0  0  0  0  0  0  0  0  0
   -8.2667   24.1932  -30.8813 H   0  0  0  0  0  0  0  0  0  0  0  0
   -6.7962   26.1209  -30.3777 H   0  0  0  0  0  0  0  0  0  0  0  0
   -4.3817   25.7592  -29.9511 H   0  0  0  0  0  0  0  0  0  0  0  0
   -2.8420   22.4690  -29.7350 H   0  0  0  0  0  0  0  0  0  0  0  0
   -1.2485   24.3194  -29.5063 H   0  0  0  0  0  0  0  0  0  0  0  0
   -2.5941   25.4805  -29.7983 H   0  0  0  0  0  0  0  0  0  0  0  0
   -2.2509   25.5455  -27.4497 H   0  0  0  0  0  0  0  0  0  0  0  0
   -3.6807   24.4557  -27.6872 H   0  0  0  0  0  0  0  0  0  0  0  0
   -0.8635   23.7904  -26.8317 H   0  0  0  0  0  0  0  0  0  0  0  0
   -2.4795   23.2295  -26.1859 H   0  0  0  0  0  0  0  0  0  0  0  0
   -2.4434   20.7500  -26.5751 H   0  0  0  0  0  0  0  0  0  0  0  0
   -3.7089   21.8338  -27.3239 H   0  0  0  0  0  0  0  0  0  0  0  0
   -2.9233   19.2386  -28.1733 H   0  0  0  0  0  0  0  0  0  0  0  0
   -4.0451   20.3855  -28.9809 H   0  0  0  0  0  0  0  0  0  0  0  0
   -1.7920   21.4570  -29.7090 H   0  0  0  0  0  0  0  0  0  0  0  0
   -0.3815   19.9368  -28.4925 H   0  0  0  0  0  0  0  0  0  0  0  0
   -1.0491   18.6052  -29.5154 H   0  0  0  0  0  0  0  0  0  0  0  0
    1.1912   20.1887  -30.0987 H   0  0  0  0  0  0  0  0  0  0  0  0
    0.2628   19.1334  -31.2497 H   0  0  0  0  0  0  0  0  0  0  0  0
    0.6924   21.5782  -31.9607 H   0  0  0  0  0  0  0  0  0  0  0  0
   -0.9941   20.9372  -32.0811 H   0  0  0  0  0  0  0  0  0  0  0  0
   -1.6950   22.3860  -30.6740 H   0  0  0  0  0  0  0  0  0  0  0  0
   -0.5150   22.0200  -29.5390 H   0  0  0  0  0  0  0  0  0  0  0  0
  1  2  1  0
  2  3  1  0
  3  4  1  0
  4  5  1  0
  5  6  1  0
  6  7  1  0
  7  8  2  0
  8  9  1  0
  9 10  2  0
 10 11  1  0
 11 12  2  0
 12 13  1  0
 13 14  2  0
 14 15  1  0
 14 16  1  0
 16 17  2  0
 17 18  1  0
 18 19  2  0
 19 20  1  0
 20 21  1  0
 21 22  1  0
 22 23  1  0
 23 24  1  0
 24 25  1  0
 25 26  1  0
 26 27  1  0
 27 28  1  0
 28 29  1  0
 29 30  1  0
 30 31  1  0
 31 32  1  0
 20 33  2  0
 33  7  1  0
 13  8  1  0
 33 16  1  0
  1 34  1  0
  1 35  1  0
  1 36  1  0
  2 37  1  0
  2 38  1  0
  3 39  1  0
  4 40  1  0
  4 41  1  0
  5 42  1  0
  5 43  1  0
  6 44  1  0
  6 45  1  0
  9 46  1  0
 10 47  1  0
 11 48  1  0
 12 49  1  0
 15 50  1  0
 15 51  1  0
 15 52  1  0
 17 53  1  0
 18 54  1  0
 19 55  1  0
 21 56  1  0
 22 57  1  0
 22 58  1  0
 23 59  1  0
 23 60  1  0
 24 61  1  0
 24 62  1  0
 26 63  1  0
 26 64  1  0
 27 65  1  0
 27 66  1  0
 28 67  1  0
 29 68  1  0
 29 69  1  0
 30 70  1  0
 30 71  1  0
 31 72  1  0
 31 73  1  0
 32 74  1  0
 32 75  1  0
M  CHG  2   6   1  14   1
M  END
>  <UniqueID>  (3) 
3

>  <SMILES>  (3) 
CCNCC[NH2+]c1c2ccccc2[n+](C)c2cccc(NCCCOCCNCCCN)c12

>  <Energy>  (3) 
107.5105944260199

>  <Genealogy>  (3) 
CCNCC[NH2+]c1c2ccccc2[n+](C)c2cccc(NCCCOCCNCCCN)c12 (protonated)
CCNCC[NH2+]c1c2ccccc2[n+](C)c2cccc(NCCCOCCNCCCN)c12 (3D coordinates assigned)
CCNCC[NH2+]c1c2ccccc2[n+](C)c2cccc(NCCCOCCNCCCN)c12 (optimized conformer: 107.5105944260199 kcal/mol)

>  <smiles>  (3) 
CCNCCNc1c2ccccc2[n+](C)c2cccc(NCCCOCCNCCCN)c12

>  <score_type>  (3) 
oracle

>  <origin>  (3) 
adg

>  <m_score__min__energy>  (3) 
-7.8899999999999997

>  <m_primary>  (3) 
energy

$$$$
3:0
     RDKit          3D

 29 30  0  0  0  0  0  0  0  0999 V2000
   -8.0964   20.8022  -33.1211 H   0  0  0  0  0  0  0  0  0  0  0  0
   -7.1590   21.0530  -32.6030 C   0  0  0  0  0  0  0  0  0  0  0  0
   -6.2710   20.0370  -32.2390 C   0  0  0  0  0  0  0  0  0  0  0  0
   -6.5119   18.9892  -32.4715 H   0  0  0  0  0  0  0  0  0  0  0  0
   -5.0770   20.3480  -31.5800 C   0  0  0  0  0  0  0  0  0  0  0  0
   -4.3816   19.5448  -31.2949 H   0  0  0  0  0  0  0  0  0  0  0  0
   -4.7650   21.6840  -31.2820 C   0  0  0  0  0  0  0  0  0  0  0  0
   -3.5720   22.0100  -30.6190 C   0  0  0  0  0  0  0  0  0  0  0  0
   -2.8726   21.2109  -30.3321 H   0  0  0  0  0  0  0  0  0  0  0  0
   -3.2620   23.3470  -30.3180 C   0  0  0  0  0  0  0  0  0  0  0  0
   -2.0010   23.6670  -29.6030 C   0  0  0  0  0  0  0  0  0  0  0  0
   -1.1130   22.5950  -29.2540 N   0  0  0  0  0  0  0  0  0  0  0  0
   -0.4380   22.6720  -28.4620 H   0  0  0  0  0  0  0  0  0  0  0  0
   -1.2140   21.6600  -29.7100 H   0  0  0  0  0  0  0  0  0  0  0  0
   -1.7390   24.9080  -29.2760 N   0  0  0  0  0  0  0  0  0  0  0  0
   -2.2980   25.6730  -29.7180 H   0  0  0  0  0  0  0  0  0  0  0  0
   -0.7260   25.3270  -28.3440 C   0  0  0  0  0  0  0  0  0  0  0  0
    0.3270   24.6520  -28.1870 O   0  0  0  0  0  0  0  0  0  0  0  0
   -0.8520   26.6480  -27.6600 C   0  0  0  0  0  0  0  0  0  0  0  0
   -0.8378   26.4994  -26.5702 H   0  0  0  0  0  0  0  0  0  0  0  0
   -0.0114   27.2942  -27.9529 H   0  0  0  0  0  0  0  0  0  0  0  0
   -1.7996   27.1237  -27.9529 H   0  0  0  0  0  0  0  0  0  0  0  0
   -4.1610   24.3640  -30.6950 C   0  0  0  0  0  0  0  0  0  0  0  0
   -3.8700   25.7010  -30.4420 O   0  0  0  0  0  0  0  0  0  0  0  0
   -5.3540   24.0450  -31.3520 C   0  0  0  0  0  0  0  0  0  0  0  0
   -6.0523   24.8459  -31.6364 H   0  0  0  0  0  0  0  0  0  0  0  0
   -5.6650   22.7120  -31.6500 C   0  0  0  0  0  0  0  0  0  0  0  0
   -6.8600   22.3860  -32.3110 C   0  0  0  0  0  0  0  0  0  0  0  0
   -7.5623   23.1819  -32.5996 H   0  0  0  0  0  0  0  0  0  0  0  0
  1  2  1  0
  2  3  2  0
  3  4  1  0
  3  5  1  0
  5  6  1  0
  5  7  2  0
  7  8  1  0
  8  9  1  0
  8 10  2  0
 10 11  1  0
 11 12  1  0
 12 13  1  0
 12 14  1  0
 11 15  2  0
 15 16  1  0
 15 17  1  0
 17 18  2  0
 17 19  1  0
 19 20  1  0
 19 21  1  0
 19 22  1  0
 10 23  1  0
 23 24  1  0
 23 25  2  0
 25 26  1  0
 25 27  1  0
 27 28  2  0
 28 29  1  0
 28  2  1  0
 27  7  1  0
M  CHG  2  15   1  24  -1
M  END
>  <UniqueID>  (4) 
4

>  <SMILES>  (4) 
CC(=O)/[NH+]=C(\N)c1cc2ccccc2cc1[O-]

>  <Energy>  (4) 
41.0159361815362

>  <Genealogy>  (4) 
CC(=O)[NH+]=C(N)c1cc2ccccc2cc1[O-] (protonated)
CC(=O)/[NH+]=C(\N)c1cc2ccccc2cc1[O-] (cis-trans isomerization)
CC(=O)/[NH+]=C(\N)c1cc2ccccc2cc1[O-] (3D coordinates assigned)
CC(=O)/[NH+]=C(\N)c1cc2ccccc2cc1[O-] (optimized conformer: 41.0159361815362 kcal/mol)

>  <smiles>  (4) 
CC(=O)N=C(N)c1cc2ccccc2cc1O

>  <score_type>  (4) 
oracle

>  <origin>  (4) 
adg

>  <m_score__min__energy>  (4) 
-8.7300000000000004

>  <m_primary>  (4) 
energy

$$$$
4:0
     RDKit          3D

 51 53  0  0  0  0  0  0  0  0999 V2000
   -6.4080   24.6680  -30.1590 C   0  0  0  0  0  0  0  0  0  0  0  0
   -5.1160   25.4280  -30.4260 C   0  0  0  0  0  0  0  0  0  0  0  0
   -4.0590   24.4980  -30.8460 N   0  0  0  0  0  0  0  0  0  0  0  0
   -3.2940   24.0070  -29.6900 C   0  0  0  0  0  0  0  0  0  0  0  0
   -3.8790   22.6820  -29.1870 C   0  0  0  0  0  0  0  0  0  0  0  0
   -3.9500   21.6030  -30.2940 C   0  0  0  0  0  0  0  0  0  0  0  0
   -4.6630   22.0730  -31.5010 N   0  0  0  0  0  0  0  0  0  0  0  0
   -5.2860   20.9880  -32.2590 C   0  0  0  0  0  0  0  0  0  0  0  0
   -6.7030   20.8670  -32.2670 C   0  0  0  0  0  0  0  0  0  0  0  0
   -7.5530   21.9800  -32.0360 C   0  0  0  0  0  0  0  0  0  0  0  0
   -8.9280   21.8190  -31.8910 C   0  0  0  0  0  0  0  0  0  0  0  0
   -9.4920   20.5560  -31.9850 C   0  0  0  0  0  0  0  0  0  0  0  0
   -8.6970   19.4610  -32.2980 C   0  0  0  0  0  0  0  0  0  0  0  0
   -7.3000   19.6020  -32.5160 C   0  0  0  0  0  0  0  0  0  0  0  0
   -6.5290   18.5360  -32.9280 N   0  0  0  0  0  0  0  0  0  0  0  0
   -7.1860   17.3070  -33.4320 C   0  0  0  0  0  0  0  0  0  0  0  0
   -5.1520   18.6360  -32.9460 C   0  0  0  0  0  0  0  0  0  0  0  0
   -4.3460   17.4800  -33.1040 C   0  0  0  0  0  0  0  0  0  0  0  0
   -2.9690   17.5730  -33.2340 C   0  0  0  0  0  0  0  0  0  0  0  0
   -2.3600   18.8140  -33.2520 C   0  0  0  0  0  0  0  0  0  0  0  0
   -3.1050   19.9790  -33.0510 C   0  0  0  0  0  0  0  0  0  0  0  0
   -2.2000   21.5080  -33.3570 S   0  0  0  0  0  0  0  0  0  0  0  0
   -0.9160   21.1350  -32.1240 C   0  0  0  0  0  0  0  0  0  0  0  0
   -4.5070   19.8980  -32.7620 C   0  0  0  0  0  0  0  0  0  0  0  0
   -6.5624   24.5772  -29.0737 H   0  0  0  0  0  0  0  0  0  0  0  0
   -7.2529   25.2130  -30.6052 H   0  0  0  0  0  0  0  0  0  0  0  0
   -6.3421   23.6647  -30.6052 H   0  0  0  0  0  0  0  0  0  0  0  0
   -5.2871   26.1674  -31.2222 H   0  0  0  0  0  0  0  0  0  0  0  0
   -4.8011   25.9368  -29.5030 H   0  0  0  0  0  0  0  0  0  0  0  0
   -3.3980   25.0300  -31.4600 H   0  0  0  0  0  0  0  0  0  0  0  0
   -2.2467   23.8511  -29.9880 H   0  0  0  0  0  0  0  0  0  0  0  0
   -3.3498   24.7517  -28.8823 H   0  0  0  0  0  0  0  0  0  0  0  0
   -3.2469   22.3061  -28.3690 H   0  0  0  0  0  0  0  0  0  0  0  0
   -4.9068   22.8794  -28.8485 H   0  0  0  0  0  0  0  0  0  0  0  0
   -2.9252   21.3211  -30.5775 H   0  0  0  0  0  0  0  0  0  0  0  0
   -4.5090   20.7465  -29.8891 H   0  0  0  0  0  0  0  0  0  0  0  0
   -5.3420   22.7820  -31.1600 H   0  0  0  0  0  0  0  0  0  0  0  0
   -4.0400   22.6410  -32.1080 H   0  0  0  0  0  0  0  0  0  0  0  0
   -7.1173   22.9879  -31.9704 H   0  0  0  0  0  0  0  0  0  0  0  0
   -9.5672   22.6940  -31.7018 H   0  0  0  0  0  0  0  0  0  0  0  0
  -10.5698   20.4211  -31.8116 H   0  0  0  0  0  0  0  0  0  0  0  0
   -9.1577   18.4654  -32.3787 H   0  0  0  0  0  0  0  0  0  0  0  0
   -7.5148   16.6919  -32.5814 H   0  0  0  0  0  0  0  0  0  0  0  0
   -8.0575   17.5819  -34.0443 H   0  0  0  0  0  0  0  0  0  0  0  0
   -6.4733   16.7350  -34.0443 H   0  0  0  0  0  0  0  0  0  0  0  0
   -4.8233   16.4891  -33.1238 H   0  0  0  0  0  0  0  0  0  0  0  0
   -2.3615   16.6603  -33.3228 H   0  0  0  0  0  0  0  0  0  0  0  0
   -1.2763   18.8852  -33.4266 H   0  0  0  0  0  0  0  0  0  0  0  0
   -1.3323   21.2559  -31.1130 H   0  0  0  0  0  0  0  0  0  0  0  0
   -0.5701   20.0992  -32.2566 H   0  0  0  0  0  0  0  0  0  0  0  0
   -0.0690   21.8242  -32.2566 H   0  0  0  0  0  0  0  0  0  0  0  0
  1  2  1  0
  2  3  1  0
  3  4  1  0
  4  5  1  0
  5  6  1  0
  6  7  1  0
  7  8  1  0
  8  9  2  0
  9 10  1  0
 10 11  2  0
 11 12  1  0
 12 13  2  0
 13 14  1  0
 14 15  2  0
 15 16  1  0
 15 17  1  0
 17 18  2  0
 18 19  1  0
 19 20  2  0
 20 21  1  0
 21 22  1  0
 22 23  1  0
 21 24  2  0
 24  8  1  0
 14  9  1  0
 24 17  1  0
  1 25  1  0
  1 26  1  0
  1 27  1  0
  2 28  1  0
  2 29  1  0
  3 30  1  0
  4 31  1  0
  4 32  1  0
  5 33  1  0
  5 34  1  0
  6 35  1  0
  6 36  1  0
  7 37  1  0
  7 38  1  0
 10 39  1  0
 11 40  1  0
 12 41  1  0
 13 42  1  0
 16 43  1  0
 16 44  1  0
 16 45  1  0
 18 46  1  0
 19 47  1  0
 20 48  1  0
 23 49  1  0
 23 50  1  0
 23 51  1  0
M  CHG  2   7   1  15   1
M  END
>  <UniqueID>  (5) 
5

>  <SMILES>  (5) 
CCNCCC[NH2+]c1c2ccccc2[n+](C)c2cccc(SC)c12

>  <Energy>  (5) 
86.67886060981563

>  <Genealogy>  (5) 
CCNCCC[NH2+]c1c2ccccc2[n+](C)c2cccc(SC)c12 (protonated)
CCNCCC[NH2+]c1c2ccccc2[n+](C)c2cccc(SC)c12 (3D coordinates assigned)
CCNCCC[NH2+]c1c2ccccc2[n+](C)c2cccc(SC)c12 (optimized conformer: 86.67886060981563 kcal/mol)

>  <smiles>  (5) 
CCNCCCNc1c2ccccc2[n+](C)c2cccc(SC)c12

>  <score_type>  (5) 
oracle

>  <origin>  (5) 
adg

>  <m_score__min__energy>  (5) 
-8.4199999999999999

>  <m_primary>  (5) 
energy

$$$$
5:0
     RDKit          3D

 65 67  0  0  0  0  0  0  0  0999 V2000
   -9.1080   18.5310  -31.5590 C   0  0  0  0  0  0  0  0  0  0  0  0
   -8.7750   19.4710  -32.7160 C   0  0  0  0  0  0  0  0  0  0  0  0
   -7.3450   19.8590  -32.6970 N   0  0  0  0  0  0  0  0  0  0  0  0
   -6.9650   21.0760  -32.1580 C   0  0  0  0  0  0  0  0  0  0  0  0
   -5.6520   21.5550  -32.3260 C   0  0  0  0  0  0  0  0  0  0  0  0
   -4.7300   20.8140  -33.0780 C   0  0  0  0  0  0  0  0  0  0  0  0
   -3.4640   21.3840  -33.4530 N   0  0  0  0  0  0  0  0  0  0  0  0
   -2.2570   21.2090  -32.6390 C   0  0  0  0  0  0  0  0  0  0  0  0
   -2.4900   20.2560  -31.4520 C   0  0  0  0  0  0  0  0  0  0  0  0
   -2.1670   20.8310  -30.1990 O   0  0  0  0  0  0  0  0  0  0  0  0
   -2.1020   22.2410  -30.2830 C   0  0  0  0  0  0  0  0  0  0  0  0
   -2.9480   22.8500  -29.1630 C   0  0  0  0  0  0  0  0  0  0  0  0
   -3.0350   21.9490  -28.0710 O   0  0  0  0  0  0  0  0  0  0  0  0
   -1.9870   22.1360  -27.1380 C   0  0  0  0  0  0  0  0  0  0  0  0
   -1.4510   20.7960  -26.5970 C   0  0  0  0  0  0  0  0  0  0  0  0
   -1.9770   19.6170  -27.3290 N   0  0  0  0  0  0  0  0  0  0  0  0
   -3.0680   18.9570  -26.5880 C   0  0  0  0  0  0  0  0  0  0  0  0
   -0.8890   18.6520  -27.5720 C   0  0  0  0  0  0  0  0  0  0  0  0
   -5.0690   19.5150  -33.4880 C   0  0  0  0  0  0  0  0  0  0  0  0
   -4.1260   18.7000  -34.1470 C   0  0  0  0  0  0  0  0  0  0  0  0
   -4.4530   17.4040  -34.5350 C   0  0  0  0  0  0  0  0  0  0  0  0
   -5.7180   16.8970  -34.2670 C   0  0  0  0  0  0  0  0  0  0  0  0
   -6.6740   17.6900  -33.6330 C   0  0  0  0  0  0  0  0  0  0  0  0
   -6.3860   19.0290  -33.2580 C   0  0  0  0  0  0  0  0  0  0  0  0
   -5.2770   22.8530  -31.6400 C   0  0  0  0  0  0  0  0  0  0  0  0
   -6.3350   23.9310  -31.9200 C   0  0  0  0  0  0  0  0  0  0  0  0
   -7.7910   23.4200  -31.7750 C   0  0  0  0  0  0  0  0  0  0  0  0
   -7.8890   21.9550  -31.3200 C   0  0  0  0  0  0  0  0  0  0  0  0
   -8.9256   19.0458  -30.6042 H   0  0  0  0  0  0  0  0  0  0  0  0
  -10.1657   18.2350  -31.6198 H   0  0  0  0  0  0  0  0  0  0  0  0
   -8.4725   17.6352  -31.6198 H   0  0  0  0  0  0  0  0  0  0  0  0
   -8.9962   18.9628  -33.6662 H   0  0  0  0  0  0  0  0  0  0  0  0
   -9.3841   20.3810  -32.6117 H   0  0  0  0  0  0  0  0  0  0  0  0
   -3.4130   21.9750  -34.3140 H   0  0  0  0  0  0  0  0  0  0  0  0
   -1.4585   20.7965  -33.2733 H   0  0  0  0  0  0  0  0  0  0  0  0
   -1.9775   22.1924  -32.2331 H   0  0  0  0  0  0  0  0  0  0  0  0
   -3.5512   19.9666  -31.4400 H   0  0  0  0  0  0  0  0  0  0  0  0
   -1.8255   19.3910  -31.5940 H   0  0  0  0  0  0  0  0  0  0  0  0
   -1.0574   22.5685  -30.1749 H   0  0  0  0  0  0  0  0  0  0  0  0
   -2.4867   22.5717  -31.2590 H   0  0  0  0  0  0  0  0  0  0  0  0
   -2.4826   23.7875  -28.8246 H   0  0  0  0  0  0  0  0  0  0  0  0
   -3.9598   23.0502  -29.5452 H   0  0  0  0  0  0  0  0  0  0  0  0
   -1.1643   22.6747  -27.6309 H   0  0  0  0  0  0  0  0  0  0  0  0
   -2.3859   22.7105  -26.2890 H   0  0  0  0  0  0  0  0  0  0  0  0
   -0.3542   20.7988  -26.6810 H   0  0  0  0  0  0  0  0  0  0  0  0
   -1.7855   20.7081  -25.5528 H   0  0  0  0  0  0  0  0  0  0  0  0
   -2.3430   19.9100  -28.2640 H   0  0  0  0  0  0  0  0  0  0  0  0
   -2.8934   19.0626  -25.5071 H   0  0  0  0  0  0  0  0  0  0  0  0
   -4.0271   19.4265  -26.8521 H   0  0  0  0  0  0  0  0  0  0  0  0
   -3.0973   17.8896  -26.8521 H   0  0  0  0  0  0  0  0  0  0  0  0
   -0.4906   18.2986  -26.6095 H   0  0  0  0  0  0  0  0  0  0  0  0
   -1.2783   17.7968  -28.1439 H   0  0  0  0  0  0  0  0  0  0  0  0
   -0.0864   19.1407  -28.1439 H   0  0  0  0  0  0  0  0  0  0  0  0
   -3.1203   19.0929  -34.3569 H   0  0  0  0  0  0  0  0  0  0  0  0
   -3.7095   16.7812  -35.0540 H   0  0  0  0  0  0  0  0  0  0  0  0
   -5.9669   15.8653  -34.5561 H   0  0  0  0  0  0  0  0  0  0  0  0
   -7.6685   17.2710  -33.4197 H   0  0  0  0  0  0  0  0  0  0  0  0
   -5.2102   22.6836  -30.5552 H   0  0  0  0  0  0  0  0  0  0  0  0
   -4.3068   23.1953  -32.0292 H   0  0  0  0  0  0  0  0  0  0  0  0
   -6.1844   24.7591  -31.2118 H   0  0  0  0  0  0  0  0  0  0  0  0
   -6.2057   24.2478  -32.9654 H   0  0  0  0  0  0  0  0  0  0  0  0
   -8.3077   24.0488  -31.0350 H   0  0  0  0  0  0  0  0  0  0  0  0
   -8.2532   23.4789  -32.7714 H   0  0  0  0  0  0  0  0  0  0  0  0
   -7.5965   21.8835  -30.2620 H   0  0  0  0  0  0  0  0  0  0  0  0
   -8.9252   21.6093  -31.4492 H   0  0  0  0  0  0  0  0  0  0  0  0
  1  2  1  0
  2  3  1  0
  3  4  2  0
  4  5  1  0
  5  6  2  0
  6  7  1  0
  7  8  1  0
  8  9  1  0
  9 10  1  0
 10 11  1  0
 11 12  1  0
 12 13  1  0
 13 14  1  0
 14 15  1  0
 15 16  1  0
 16 17  1  0
 16 18  1  0
  6 19  1  0
 19 20  2  0
 20 21  1  0
 21 22  2  0
 22 23  1  0
 23 24  2  0
  5 25  1  0
 25 26  1  0
 26 27  1  0
 27 28  1  0
 24  3  1  0
 28  4  1  0
 24 19  1  0
  1 29  1  0
  1 30  1  0
  1 31  1  0
  2 32  1  0
  2 33  1  0
  7 34  1  0
  8 35  1  0
  8 36  1  0
  9 37  1  0
  9 38  1  0
 11 39  1  0
 11 40  1  0
 12 41  1  0
 12 42  1  0
 14 43  1  0
 14 44  1  0
 15 45  1  0
 15 46  1  0
 16 47  1  0
 17 48  1  0
 17 49  1  0
 17 50  1  0
 18 51  1  0
 18 52  1  0
 18 53  1  0
 20 54  1  0
 21 55  1  0
 22 56  1  0
 23 57  1  0
 25 58  1  0
 25 59  1  0
 26 60  1  0
 26 61  1  0
 27 62  1  0
 27 63  1  0
 28 64  1  0
 28 65  1  0
M  CHG  2   3   1  16   1
M  END
>  <UniqueID>  (6) 
6

>  <SMILES>  (6) 
CC[n+]1c2c(c(NCCOCCOCC[NH+](C)C)c3ccccc31)CCCC2

>  <Energy>  (6) 
87.9111710834772

>  <Genealogy>  (6) 
CC[n+]1c2c(c(NCCOCCOCC[NH+](C)C)c3ccccc31)CCCC2 (protonated)
CC[n+]1c2c(c(NCCOCCOCC[NH+](C)C)c3ccccc31)CCCC2 (3D coordinates assigned)
CC[n+]1c2c(c(NCCOCCOCC[NH+](C)C)c3ccccc31)CCCC2 (nonaromatic ring conformer: 87.9111710834772 kcal/mol)

>  <smiles>  (6) 
CC[n+]1c2c(c(NCCOCCOCCN(C)C)c3ccccc31)CCCC2

>  <score_type>  (6) 
oracle

>  <origin>  (6) 
adg

>  <m_score__min__energy>  (6) 
-9.8100000000000005

>  <m_primary>  (6) 
energy

$$$$
6:0
     RDKit          3D

 31 34  0  0  0  0  0  0  0  0999 V2000
   -8.6170   19.2850  -32.1860 C   0  0  0  0  0  0  0  0  0  0  0  0
   -7.1820   19.1180  -32.4370 N   0  0  0  0  0  0  0  0  0  0  0  0
   -6.6290   18.0550  -33.0770 C   0  0  0  0  0  0  0  0  0  0  0  0
   -7.2210   16.8430  -33.4550 C   0  0  0  0  0  0  0  0  0  0  0  0
   -6.4300   15.9090  -34.1490 C   0  0  0  0  0  0  0  0  0  0  0  0
   -5.0810   16.1960  -34.4570 C   0  0  0  0  0  0  0  0  0  0  0  0
   -4.5070   17.4190  -34.0700 C   0  0  0  0  0  0  0  0  0  0  0  0
   -5.3140   18.3170  -33.3750 C   0  0  0  0  0  0  0  0  0  0  0  0
   -5.0930   19.5780  -32.8780 C   0  0  0  0  0  0  0  0  0  0  0  0
   -3.9690   20.3270  -32.9970 N   0  0  0  0  0  0  0  0  0  0  0  0
   -3.9520   21.5910  -32.4930 C   0  0  0  0  0  0  0  0  0  0  0  0
   -2.9140   22.2940  -32.6330 O   0  0  0  0  0  0  0  0  0  0  0  0
   -5.0800   22.0990  -31.8080 C   0  0  0  0  0  0  0  0  0  0  0  0
   -5.0640   23.3860  -31.2380 C   0  0  0  0  0  0  0  0  0  0  0  0
   -6.1510   23.8410  -30.4930 C   0  0  0  0  0  0  0  0  0  0  0  0
   -6.1130   25.5840  -29.7130 Br  0  0  0  0  0  0  0  0  0  0  0  0
   -7.2490   23.0070  -30.2840 C   0  0  0  0  0  0  0  0  0  0  0  0
   -7.2880   21.7300  -30.8470 C   0  0  0  0  0  0  0  0  0  0  0  0
   -6.2340   21.2720  -31.6690 C   0  0  0  0  0  0  0  0  0  0  0  0
   -6.2170   20.0380  -32.2810 N   0  0  0  0  0  0  0  0  0  0  0  0
   -8.7995   19.3062  -31.1015 H   0  0  0  0  0  0  0  0  0  0  0  0
   -8.9602   20.2291  -32.6341 H   0  0  0  0  0  0  0  0  0  0  0  0
   -9.1678   18.4449  -32.6341 H   0  0  0  0  0  0  0  0  0  0  0  0
   -8.2730   16.6279  -33.2164 H   0  0  0  0  0  0  0  0  0  0  0  0
   -6.8657   14.9464  -34.4547 H   0  0  0  0  0  0  0  0  0  0  0  0
   -4.4762   15.4572  -35.0033 H   0  0  0  0  0  0  0  0  0  0  0  0
   -3.4598   17.6582  -34.3070 H   0  0  0  0  0  0  0  0  0  0  0  0
   -3.1310   19.9470  -33.4910 H   0  0  0  0  0  0  0  0  0  0  0  0
   -4.1886   24.0366  -31.3813 H   0  0  0  0  0  0  0  0  0  0  0  0
   -8.0916   23.3583  -29.6703 H   0  0  0  0  0  0  0  0  0  0  0  0
   -8.1482   21.0737  -30.6486 H   0  0  0  0  0  0  0  0  0  0  0  0
  1  2  1  0
  2  3  1  0
  3  4  2  0
  4  5  1  0
  5  6  2  0
  6  7  1  0
  7  8  2  0
  8  9  1  0
  9 10  2  0
 10 11  1  0
 11 12  2  0
 11 13  1  0
 13 14  2  0
 14 15  1  0
 15 16  1  0
 15 17  2  0
 17 18  1  0
 18 19  2  0
 19 20  1  0
 20  2  1  0
  8  3  1  0
 20  9  1  0
 19 13  1  0
  1 21  1  0
  1 22  1  0
  1 23  1  0
  4 24  1  0
  5 25  1  0
  6 26  1  0
  7 27  1  0
 10 28  1  0
 14 29  1  0
 17 30  1  0
 18 31  1  0
M  CHG  1  10   1
M  END
>  <UniqueID>  (7) 
7

>  <SMILES>  (7) 
Cn1c2ccccc2c2[nH+]c(=O)c3cc(Br)ccc3n21

>  <Energy>  (7) 
97.45671964468539

>  <Genealogy>  (7) 
Cn1c2ccccc2c2[nH+]c(=O)c3cc(Br)ccc3n21 (protonated)
Cn1c2ccccc2c2[nH+]c(=O)c3cc(Br)ccc3n21 (3D coordinates assigned)
Cn1c2ccccc2c2[nH+]c(=O)c3cc(Br)ccc3n21 (optimized conformer: 97.45671964468539 kcal/mol)

>  <smiles>  (7) 
Cn1c2ccccc2c2nc(=O)c3cc(Br)ccc3n21

>  <score_type>  (7) 
oracle

>  <origin>  (7) 
adg

>  <m_score__min__energy>  (7) 
-7.4699999999999998

>  <m_primary>  (7) 
energy

$$$$
7:0
     RDKit          3D

 55 59  0  0  0  0  0  0  0  0999 V2000
   -0.6250   19.8310  -29.3340 C   0  0  0  0  0  0  0  0  0  0  0  0
   -0.7370   20.4710  -30.6450 N   0  0  0  0  0  0  0  0  0  0  0  0
   -1.4680   21.5670  -30.9880 C   0  0  0  0  0  0  0  0  0  0  0  0
   -2.2680   22.3210  -30.0620 N   0  0  0  0  0  0  0  0  0  0  0  0
   -3.4900   21.7370  -29.4960 C   0  0  0  0  0  0  0  0  0  0  0  0
   -3.9600   22.5370  -28.2710 C   0  0  0  0  0  0  0  0  0  0  0  0
   -4.0590   23.9950  -28.5430 N   0  0  0  0  0  0  0  0  0  0  0  0
   -5.3540   24.3780  -29.1530 C   0  0  0  0  0  0  0  0  0  0  0  0
   -5.1800   25.1610  -30.4590 C   0  0  0  0  0  0  0  0  0  0  0  0
   -5.2060   24.2740  -31.5760 O   0  0  0  0  0  0  0  0  0  0  0  0
   -6.1600   23.2560  -31.7610 C   0  0  0  0  0  0  0  0  0  0  0  0
   -7.5120   23.4370  -31.3990 C   0  0  0  0  0  0  0  0  0  0  0  0
   -8.4410   22.4120  -31.5840 C   0  0  0  0  0  0  0  0  0  0  0  0
   -8.0480   21.1940  -32.1380 C   0  0  0  0  0  0  0  0  0  0  0  0
   -6.7120   20.9900  -32.5140 C   0  0  0  0  0  0  0  0  0  0  0  0
   -6.3160   19.7690  -33.0830 C   0  0  0  0  0  0  0  0  0  0  0  0
   -4.9850   19.5690  -33.4610 C   0  0  0  0  0  0  0  0  0  0  0  0
   -4.0400   20.5810  -33.2710 C   0  0  0  0  0  0  0  0  0  0  0  0
   -4.4200   21.8020  -32.7060 C   0  0  0  0  0  0  0  0  0  0  0  0
   -5.7570   22.0240  -32.3230 C   0  0  0  0  0  0  0  0  0  0  0  0
   -2.9170   24.5510  -29.3280 C   0  0  0  0  0  0  0  0  0  0  0  0
   -1.7510   23.5700  -29.5040 C   0  0  0  0  0  0  0  0  0  0  0  0
   -1.3850   21.8870  -32.3090 N   0  0  0  0  0  0  0  0  0  0  0  0
   -0.5440   20.9540  -32.7920 C   0  0  0  0  0  0  0  0  0  0  0  0
   -0.0700   20.8320  -34.0970 C   0  0  0  0  0  0  0  0  0  0  0  0
    0.8400   19.7920  -34.3710 C   0  0  0  0  0  0  0  0  0  0  0  0
    1.2510   18.9120  -33.3450 C   0  0  0  0  0  0  0  0  0  0  0  0
    0.7550   19.0600  -32.0350 C   0  0  0  0  0  0  0  0  0  0  0  0
   -0.1470   20.1030  -31.7980 C   0  0  0  0  0  0  0  0  0  0  0  0
   -0.7571   20.5859  -28.5449 H   0  0  0  0  0  0  0  0  0  0  0  0
   -1.4015   19.0581  -29.2357 H   0  0  0  0  0  0  0  0  0  0  0  0
    0.3679   19.3678  -29.2357 H   0  0  0  0  0  0  0  0  0  0  0  0
   -4.2820   21.7477  -30.2593 H   0  0  0  0  0  0  0  0  0  0  0  0
   -3.2750   20.7049  -29.1820 H   0  0  0  0  0  0  0  0  0  0  0  0
   -4.9507   22.1673  -27.9679 H   0  0  0  0  0  0  0  0  0  0  0  0
   -3.2133   22.3968  -27.4755 H   0  0  0  0  0  0  0  0  0  0  0  0
   -5.9285   23.4639  -29.3638 H   0  0  0  0  0  0  0  0  0  0  0  0
   -5.8788   25.0307  -28.4399 H   0  0  0  0  0  0  0  0  0  0  0  0
   -5.9974   25.8907  -30.5561 H   0  0  0  0  0  0  0  0  0  0  0  0
   -4.2108   25.6809  -30.4378 H   0  0  0  0  0  0  0  0  0  0  0  0
   -7.8367   24.3951  -30.9669 H   0  0  0  0  0  0  0  0  0  0  0  0
   -9.4900   22.5659  -31.2909 H   0  0  0  0  0  0  0  0  0  0  0  0
   -8.7870   20.3918  -32.2804 H   0  0  0  0  0  0  0  0  0  0  0  0
   -7.0549   18.9678  -33.2317 H   0  0  0  0  0  0  0  0  0  0  0  0
   -4.6805   18.6119  -33.9095 H   0  0  0  0  0  0  0  0  0  0  0  0
   -2.9935   20.4162  -33.5671 H   0  0  0  0  0  0  0  0  0  0  0  0
   -3.6705   22.5938  -32.5598 H   0  0  0  0  0  0  0  0  0  0  0  0
   -3.2863   24.8333  -30.3250 H   0  0  0  0  0  0  0  0  0  0  0  0
   -2.5291   25.4117  -28.7635 H   0  0  0  0  0  0  0  0  0  0  0  0
   -1.0055   24.0005  -30.1887 H   0  0  0  0  0  0  0  0  0  0  0  0
   -1.2744   23.3767  -28.5317 H   0  0  0  0  0  0  0  0  0  0  0  0
   -0.3957   21.5248  -34.8869 H   0  0  0  0  0  0  0  0  0  0  0  0
    1.2331   19.6643  -35.3904 H   0  0  0  0  0  0  0  0  0  0  0  0
    1.9637   18.1052  -33.5709 H   0  0  0  0  0  0  0  0  0  0  0  0
    1.0655   18.3804  -31.2277 H   0  0  0  0  0  0  0  0  0  0  0  0
  1  2  1  0
  2  3  1  0
  3  4  1  0
  4  5  1  0
  5  6  1  0
  6  7  1  0
  7  8  1  0
  8  9  1  0
  9 10  1  0
 10 11  1  0
 11 12  2  0
 12 13  1  0
 13 14  2  0
 14 15  1  0
 15 16  2  0
 16 17  1  0
 17 18  2  0
 18 19  1  0
 19 20  2  0
  7 21  1  0
 21 22  1  0
  3 23  2  0
 23 24  1  0
 24 25  2  0
 25 26  1  0
 26 27  2  0
 27 28  1  0
 28 29  2  0
 29  2  1  0
 22  4  1  0
 29 24  1  0
 20 11  1  0
 20 15  1  0
  1 30  1  0
  1 31  1  0
  1 32  1  0
  5 33  1  0
  5 34  1  0
  6 35  1  0
  6 36  1  0
  8 37  1  0
  8 38  1  0
  9 39  1  0
  9 40  1  0
 12 41  1  0
 13 42  1  0
 14 43  1  0
 16 44  1  0
 17 45  1  0
 18 46  1  0
 19 47  1  0
 21 48  1  0
 21 49  1  0
 22 50  1  0
 22 51  1  0
 25 52  1  0
 26 53  1  0
 27 54  1  0
 28 55  1  0
M  END
>  <UniqueID>  (8) 
8

>  <SMILES>  (8) 
Cn1c(N2CCN(CCOc3cccc4ccccc34)CC2)nc2ccccc21

>  <Energy>  (8) 
112.63541880237224

>  <Genealogy>  (8) 
Cn1c(N2CCN(CCOc3cccc4ccccc34)CC2)nc2ccccc21 (3D coordinates assigned)
Cn1c(N2CCN(CCOc3cccc4ccccc34)CC2)nc2ccccc21 (nonaromatic ring conformer: 112.63541880237224 kcal/mol)

>  <smiles>  (8) 
Cn1c(N2CCN(CCOc3cccc4ccccc34)CC2)nc2ccccc21

>  <score_type>  (8) 
oracle

>  <origin>  (8) 
adg

>  <m_score__min__energy>  (8) 
-9.8200000000000003

>  <m_primary>  (8) 
energy

$$$$
8:0
     RDKit          3D

 75 77  0  0  0  0  0  0  0  0999 V2000
    0.1610   18.2180  -28.3060 C   0  0  0  0  0  0  0  0  0  0  0  0
   -0.8560   18.2440  -27.1630 C   0  0  0  0  0  0  0  0  0  0  0  0
   -1.7050   19.4590  -27.2000 N   0  0  0  0  0  0  0  0  0  0  0  0
   -3.1420   19.1270  -27.0770 C   0  0  0  0  0  0  0  0  0  0  0  0
   -3.4330   18.5670  -25.6880 C   0  0  0  0  0  0  0  0  0  0  0  0
   -1.4140   20.3870  -28.3240 C   0  0  0  0  0  0  0  0  0  0  0  0
   -2.6360   20.8000  -29.1660 C   0  0  0  0  0  0  0  0  0  0  0  0
   -2.8490   22.1920  -29.0670 O   0  0  0  0  0  0  0  0  0  0  0  0
   -3.0170   22.5850  -27.7170 C   0  0  0  0  0  0  0  0  0  0  0  0
   -4.2420   23.4950  -27.5430 C   0  0  0  0  0  0  0  0  0  0  0  0
   -4.3610   24.5190  -28.6880 C   0  0  0  0  0  0  0  0  0  0  0  0
   -5.7570   24.8610  -29.0030 N   0  0  0  0  0  0  0  0  0  0  0  0
   -5.9170   25.3170  -30.3910 C   0  0  0  0  0  0  0  0  0  0  0  0
   -5.6350   24.1700  -31.3750 C   0  0  0  0  0  0  0  0  0  0  0  0
   -5.4660   22.8570  -30.7150 N   0  0  0  0  0  0  0  0  0  0  0  0
   -5.6800   21.7390  -31.6280 C   0  0  0  0  0  0  0  0  0  0  0  0
   -4.5820   21.0330  -32.1670 C   0  0  0  0  0  0  0  0  0  0  0  0
   -4.7690   19.7270  -32.6570 C   0  0  0  0  0  0  0  0  0  0  0  0
   -6.0350   19.2400  -32.9080 N   0  0  0  0  0  0  0  0  0  0  0  0
   -6.1910   17.9680  -33.6560 C   0  0  0  0  0  0  0  0  0  0  0  0
   -5.7410   18.1250  -35.1080 C   0  0  0  0  0  0  0  0  0  0  0  0
   -7.1450   19.9700  -32.5110 C   0  0  0  0  0  0  0  0  0  0  0  0
   -8.4650   19.4700  -32.6730 C   0  0  0  0  0  0  0  0  0  0  0  0
   -9.5760   20.2200  -32.2970 C   0  0  0  0  0  0  0  0  0  0  0  0
   -9.4120   21.4830  -31.7500 C   0  0  0  0  0  0  0  0  0  0  0  0
   -8.1350   21.9930  -31.5440 C   0  0  0  0  0  0  0  0  0  0  0  0
   -6.9840   21.2430  -31.8850 C   0  0  0  0  0  0  0  0  0  0  0  0
   -3.5060   18.8820  -32.7570 C   0  0  0  0  0  0  0  0  0  0  0  0
   -2.4200   19.5720  -33.5940 C   0  0  0  0  0  0  0  0  0  0  0  0
   -2.4280   21.1090  -33.4690 C   0  0  0  0  0  0  0  0  0  0  0  0
   -3.1780   21.6160  -32.2250 C   0  0  0  0  0  0  0  0  0  0  0  0
    1.1791   18.1920  -27.8904 H   0  0  0  0  0  0  0  0  0  0  0  0
   -0.0055   17.3238  -28.9246 H   0  0  0  0  0  0  0  0  0  0  0  0
    0.0404   19.1195  -28.9246 H   0  0  0  0  0  0  0  0  0  0  0  0
   -1.5020   17.3572  -27.2426 H   0  0  0  0  0  0  0  0  0  0  0  0
   -0.2995   18.2481  -26.2142 H   0  0  0  0  0  0  0  0  0  0  0  0
   -3.7405   20.0362  -27.2356 H   0  0  0  0  0  0  0  0  0  0  0  0
   -3.4031   18.3710  -27.8322 H   0  0  0  0  0  0  0  0  0  0  0  0
   -3.0676   19.2702  -24.9252 H   0  0  0  0  0  0  0  0  0  0  0  0
   -4.5176   18.4276  -25.5687 H   0  0  0  0  0  0  0  0  0  0  0  0
   -2.9237   17.5994  -25.5687 H   0  0  0  0  0  0  0  0  0  0  0  0
   -0.9655   21.2996  -27.9045 H   0  0  0  0  0  0  0  0  0  0  0  0
   -0.7441   19.8415  -29.0049 H   0  0  0  0  0  0  0  0  0  0  0  0
   -2.4588   20.5336  -30.2184 H   0  0  0  0  0  0  0  0  0  0  0  0
   -3.5254   20.2734  -28.7897 H   0  0  0  0  0  0  0  0  0  0  0  0
   -3.1488   21.6860  -27.0969 H   0  0  0  0  0  0  0  0  0  0  0  0
   -2.1234   23.1470  -27.4078 H   0  0  0  0  0  0  0  0  0  0  0  0
   -5.1487   22.8724  -27.5264 H   0  0  0  0  0  0  0  0  0  0  0  0
   -4.1255   24.0487  -26.5997 H   0  0  0  0  0  0  0  0  0  0  0  0
   -3.8315   25.4375  -28.3948 H   0  0  0  0  0  0  0  0  0  0  0  0
   -3.9201   24.0638  -29.5871 H   0  0  0  0  0  0  0  0  0  0  0  0
   -6.3620   24.0200  -28.8490 H   0  0  0  0  0  0  0  0  0  0  0  0
   -6.9472   25.6736  -30.5376 H   0  0  0  0  0  0  0  0  0  0  0  0
   -5.2013   26.1304  -30.5811 H   0  0  0  0  0  0  0  0  0  0  0  0
   -6.4769   24.1002  -32.0795 H   0  0  0  0  0  0  0  0  0  0  0  0
   -4.6868   24.4029  -31.8815 H   0  0  0  0  0  0  0  0  0  0  0  0
   -6.1140   22.8450  -29.9000 H   0  0  0  0  0  0  0  0  0  0  0  0
   -4.5100   22.7940  -30.2970 H   0  0  0  0  0  0  0  0  0  0  0  0
   -5.5814   17.1901  -33.1730 H   0  0  0  0  0  0  0  0  0  0  0  0
   -7.2543   17.6862  -33.6482 H   0  0  0  0  0  0  0  0  0  0  0  0
   -4.7027   18.4873  -35.1329 H   0  0  0  0  0  0  0  0  0  0  0  0
   -5.8024   17.1524  -35.6181 H   0  0  0  0  0  0  0  0  0  0  0  0
   -6.3941   18.8484  -35.6181 H   0  0  0  0  0  0  0  0  0  0  0  0
   -8.6123   18.4690  -33.1047 H   0  0  0  0  0  0  0  0  0  0  0  0
  -10.5870   19.8090  -32.4344 H   0  0  0  0  0  0  0  0  0  0  0  0
  -10.2933   22.0826  -31.4785 H   0  0  0  0  0  0  0  0  0  0  0  0
   -8.0172   22.9963  -31.1087 H   0  0  0  0  0  0  0  0  0  0  0  0
   -3.1154   18.7051  -31.7440 H   0  0  0  0  0  0  0  0  0  0  0  0
   -3.7678   17.9353  -33.2522 H   0  0  0  0  0  0  0  0  0  0  0  0
   -1.4384   19.2013  -33.2638 H   0  0  0  0  0  0  0  0  0  0  0  0
   -2.6244   19.3329  -34.6481 H   0  0  0  0  0  0  0  0  0  0  0  0
   -1.3869   21.4601  -33.4159 H   0  0  0  0  0  0  0  0  0  0  0  0
   -2.9551   21.5041  -34.3499 H   0  0  0  0  0  0  0  0  0  0  0  0
   -2.6250   21.3155  -31.3229 H   0  0  0  0  0  0  0  0  0  0  0  0
   -3.2529   22.7121  -32.2802 H   0  0  0  0  0  0  0  0  0  0  0  0
  1  2  1  0
  2  3  1  0
  3  4  1  0
  4  5  1  0
  3  6  1  0
  6  7  1  0
  7  8  1  0
  8  9  1  0
  9 10  1  0
 10 11  1  0
 11 12  1  0
 12 13  1  0
 13 14  1  0
 14 15  1  0
 15 16  1  0
 16 17  2  0
 17 18  1  0
 18 19  2  0
 19 20  1  0
 20 21  1  0
 19 22  1  0
 22 23  2  0
 23 24  1  0
 24 25  2  0
 25 26  1  0
 26 27  2  0
 18 28  1  0
 28 29  1  0
 29 30  1  0
 30 31  1  0
 27 16  1  0
 31 17  1  0
 27 22  1  0
  1 32  1  0
  1 33  1  0
  1 34  1  0
  2 35  1  0
  2 36  1  0
  4 37  1  0
  4 38  1  0
  5 39  1  0
  5 40  1  0
  5 41  1  0
  6 42  1  0
  6 43  1  0
  7 44  1  0
  7 45  1  0
  9 46  1  0
  9 47  1  0
 10 48  1  0
 10 49  1  0
 11 50  1  0
 11 51  1  0
 12 52  1  0
 13 53  1  0
 13 54  1  0
 14 55  1  0
 14 56  1  0
 15 57  1  0
 15 58  1  0
 20 59  1  0
 20 60  1  0
 21 61  1  0
 21 62  1  0
 21 63  1  0
 23 64  1  0
 24 65  1  0
 25 66  1  0
 26 67  1  0
 28 68  1  0
 28 69  1  0
 29 70  1  0
 29 71  1  0
 30 72  1  0
 30 73  1  0
 31 74  1  0
 31 75  1  0
M  CHG  2  15   1  19   1
M  END
>  <UniqueID>  (9) 
9

>  <SMILES>  (9) 
CCN(CC)CCOCCCNCC[NH2+]c1c2c([n+](CC)c3ccccc13)CCCC2

>  <Energy>  (9) 
99.13712254776809

>  <Genealogy>  (9) 
CCN(CC)CCOCCCNCC[NH2+]c1c2c([n+](CC)c3ccccc13)CCCC2 (protonated)
CCN(CC)CCOCCCNCC[NH2+]c1c2c([n+](CC)c3ccccc13)CCCC2 (3D coordinates assigned)
CCN(CC)CCOCCCNCC[NH2+]c1c2c([n+](CC)c3ccccc13)CCCC2 (nonaromatic ring conformer: 99.13712254776809 kcal/mol)

>  <smiles>  (9) 
CCN(CC)CCOCCCNCCNc1c2c([n+](CC)c3ccccc13)CCCC2

>  <score_type>  (9) 
oracle

>  <origin>  (9) 
adg

>  <m_score__min__energy>  (9) 
-8.9700000000000006

>  <m_primary>  (9) 
energy

$$$$
9:0
     RDKit          3D

 39 40  0  0  0  0  0  0  0  0999 V2000
   -4.9180   24.5160  -29.0250 C   0  0  0  0  0  0  0  0  0  0  0  0
   -6.0750   24.3200  -29.6620 C   0  0  0  0  0  0  0  0  0  0  0  0
   -6.1860   24.3950  -31.1600 C   0  0  0  0  0  0  0  0  0  0  0  0
   -5.8920   23.0900  -31.7900 N   0  0  0  0  0  0  0  0  0  0  0  0
   -6.9160   22.2730  -32.2360 C   0  0  0  0  0  0  0  0  0  0  0  0
   -8.6540   22.6760  -31.9650 S   0  0  0  0  0  0  0  0  0  0  0  0
   -9.1190   21.0480  -31.2680 C   0  0  0  0  0  0  0  0  0  0  0  0
   -9.3670   20.0080  -32.3620 C   0  0  0  0  0  0  0  0  0  0  0  0
   -9.1160   18.5890  -31.8410 C   0  0  0  0  0  0  0  0  0  0  0  0
   -7.6310   18.3610  -31.5690 C   0  0  0  0  0  0  0  0  0  0  0  0
   -6.6330   21.1250  -32.9120 N   0  0  0  0  0  0  0  0  0  0  0  0
   -5.3510   20.7500  -33.1190 C   0  0  0  0  0  0  0  0  0  0  0  0
   -4.3110   21.5100  -32.6520 C   0  0  0  0  0  0  0  0  0  0  0  0
   -4.5840   22.7010  -31.9830 C   0  0  0  0  0  0  0  0  0  0  0  0
   -3.6250   23.4090  -31.5710 O   0  0  0  0  0  0  0  0  0  0  0  0
   -2.6850   20.8370  -32.9990 S   0  0  0  0  0  0  0  0  0  0  0  0
   -3.5400   19.4340  -33.7420 C   0  0  0  0  0  0  0  0  0  0  0  0
   -2.8770   18.3560  -34.1590 C   0  0  0  0  0  0  0  0  0  0  0  0
   -4.9680   19.5540  -33.7830 N   0  0  0  0  0  0  0  0  0  0  0  0
   -5.9010   18.5140  -34.2160 C   0  0  0  0  0  0  0  0  0  0  0  0
   -4.8768   24.4528  -27.9276 H   0  0  0  0  0  0  0  0  0  0  0  0
   -4.0061   24.7406  -29.5976 H   0  0  0  0  0  0  0  0  0  0  0  0
   -6.9761   24.0964  -29.0721 H   0  0  0  0  0  0  0  0  0  0  0  0
   -7.2085   24.6993  -31.4281 H   0  0  0  0  0  0  0  0  0  0  0  0
   -5.4516   25.1282  -31.5247 H   0  0  0  0  0  0  0  0  0  0  0  0
   -8.3049   20.6937  -30.6187 H   0  0  0  0  0  0  0  0  0  0  0  0
  -10.0528   21.1747  -30.7006 H   0  0  0  0  0  0  0  0  0  0  0  0
  -10.4100   20.0865  -32.7025 H   0  0  0  0  0  0  0  0  0  0  0  0
   -8.6733   20.2029  -33.1932 H   0  0  0  0  0  0  0  0  0  0  0  0
   -9.6792   18.4437  -30.9074 H   0  0  0  0  0  0  0  0  0  0  0  0
   -9.4466   17.8711  -32.6060 H   0  0  0  0  0  0  0  0  0  0  0  0
   -7.4570   18.3343  -30.4832 H   0  0  0  0  0  0  0  0  0  0  0  0
   -7.3194   17.4045  -32.0139 H   0  0  0  0  0  0  0  0  0  0  0  0
   -7.0468   19.1800  -32.0139 H   0  0  0  0  0  0  0  0  0  0  0  0
   -3.4236   17.5140  -34.6088 H   0  0  0  0  0  0  0  0  0  0  0  0
   -1.7831   18.3081  -34.0534 H   0  0  0  0  0  0  0  0  0  0  0  0
   -6.3399   18.0248  -33.3339 H   0  0  0  0  0  0  0  0  0  0  0  0
   -6.7009   18.9673  -34.8198 H   0  0  0  0  0  0  0  0  0  0  0  0
   -5.3638   17.7678  -34.8198 H   0  0  0  0  0  0  0  0  0  0  0  0
  1  2  2  0
  2  3  1  0
  3  4  1  0
  4  5  1  0
  5  6  1  0
  6  7  1  0
  7  8  1  0
  8  9  1  0
  9 10  1  0
  5 11  2  0
 11 12  1  0
 12 13  2  0
 13 14  1  0
 14 15  2  0
 13 16  1  0
 16 17  1  0
 17 18  2  0
 17 19  1  0
 19 20  1  0
 14  4  1  0
 19 12  1  0
  1 21  1  0
  1 22  1  0
  2 23  1  0
  3 24  1  0
  3 25  1  0
  7 26  1  0
  7 27  1  0
  8 28  1  0
  8 29  1  0
  9 30  1  0
  9 31  1  0
 10 32  1  0
 10 33  1  0
 10 34  1  0
 18 35  1  0
 18 36  1  0
 20 37  1  0
 20 38  1  0
 20 39  1  0
M  END
>  <UniqueID>  (10) 
10

>  <SMILES>  (10) 
C=CCn1c(SCCCC)nc2c(c1=O)SC(=C)N2C

>  <Energy>  (10) 
51.409297139111224

>  <Genealogy>  (10) 
C=CCn1c(SCCCC)nc2c(c1=O)SC(=C)N2C (3D coordinates assigned)
C=CCn1c(SCCCC)nc2c(c1=O)SC(=C)N2C (nonaromatic ring conformer: 51.409297139111224 kcal/mol)

>  <smiles>  (10) 
C=CCn1c(SCCCC)nc2c(c1=O)SC(=C)N2C

>  <score_type>  (10) 
oracle

>  <origin>  (10) 
adg

>  <m_score__min__energy>  (10) 
-7.54

>  <m_primary>  (10) 
energy

$$$$
10:0
     RDKit          3D

 27 26  0  0  0  0  0  0  0  0999 V2000
   -3.8260   24.1770  -27.5310 C   0  0  0  0  0  0  0  0  0  0  0  0
   -2.4420   24.5700  -28.0440 C   0  0  0  0  0  0  0  0  0  0  0  0
   -2.2850   24.2790  -29.4780 N   0  0  0  0  0  0  0  0  0  0  0  0
   -1.5070   23.0630  -29.7830 C   0  0  0  0  0  0  0  0  0  0  0  0
   -2.0340   22.2370  -30.9760 C   0  0  0  0  0  0  0  0  0  0  0  0
   -3.5600   22.1130  -31.0260 C   0  0  0  0  0  0  0  0  0  0  0  0
   -4.1190   23.2790  -31.5970 O   0  0  0  0  0  0  0  0  0  0  0  0
   -5.3100   23.6460  -30.9250 C   0  0  0  0  0  0  0  0  0  0  0  0
   -5.2970   25.1400  -30.6160 C   0  0  0  0  0  0  0  0  0  0  0  0
   -4.0170   25.6630  -30.8340 O   0  0  0  0  0  0  0  0  0  0  0  0
   -3.8232   24.1778  -26.4310 H   0  0  0  0  0  0  0  0  0  0  0  0
   -4.5711   24.8991  -27.8963 H   0  0  0  0  0  0  0  0  0  0  0  0
   -4.0804   23.1711  -27.8963 H   0  0  0  0  0  0  0  0  0  0  0  0
   -2.2956   25.6481  -27.8818 H   0  0  0  0  0  0  0  0  0  0  0  0
   -1.6943   23.9808  -27.4928 H   0  0  0  0  0  0  0  0  0  0  0  0
   -3.2310   24.2070  -29.9170 H   0  0  0  0  0  0  0  0  0  0  0  0
   -0.4734   23.3657  -30.0069 H   0  0  0  0  0  0  0  0  0  0  0  0
   -1.5885   22.4143  -28.8984 H   0  0  0  0  0  0  0  0  0  0  0  0
   -1.6960   22.7184  -31.9055 H   0  0  0  0  0  0  0  0  0  0  0  0
   -1.6369   21.2182  -30.8562 H   0  0  0  0  0  0  0  0  0  0  0  0
   -3.8352   21.2401  -31.6362 H   0  0  0  0  0  0  0  0  0  0  0  0
   -3.9469   21.9891  -30.0038 H   0  0  0  0  0  0  0  0  0  0  0  0
   -6.1748   23.4139  -31.5639 H   0  0  0  0  0  0  0  0  0  0  0  0
   -5.3802   23.0834  -29.9824 H   0  0  0  0  0  0  0  0  0  0  0  0
   -6.0167   25.6536  -31.2705 H   0  0  0  0  0  0  0  0  0  0  0  0
   -5.5751   25.2933  -29.5628 H   0  0  0  0  0  0  0  0  0  0  0  0
   -3.4800   24.9220  -31.2200 H   0  0  0  0  0  0  0  0  0  0  0  0
  1  2  1  0
  2  3  1  0
  3  4  1  0
  4  5  1  0
  5  6  1  0
  6  7  1  0
  7  8  1  0
  8  9  1  0
  9 10  1  0
  1 11  1  0
  1 12  1  0
  1 13  1  0
  2 14  1  0
  2 15  1  0
  3 16  1  0
  4 17  1  0
  4 18  1  0
  5 19  1  0
  5 20  1  0
  6 21  1  0
  6 22  1  0
  8 23  1  0
  8 24  1  0
  9 25  1  0
  9 26  1  0
 10 27  1  0
M  END
>  <UniqueID>  (11) 
11

>  <SMILES>  (11) 
CCNCCCOCCO

>  <Energy>  (11) 
18.974040890184735

>  <Genealogy>  (11) 
CCNCCCOCCO (3D coordinates assigned)
CCNCCCOCCO (optimized conformer: 18.974040890184735 kcal/mol)

>  <smiles>  (11) 
CCNCCCOCCO

>  <score_type>  (11) 
oracle

>  <origin>  (11) 
adg

>  <m_score__min__energy>  (11) 
-3.4399999999999999

>  <m_primary>  (11) 
energy

$$$$
11:0
     RDKit          3D

 70 73  0  0  0  0  0  0  0  0999 V2000
   -4.1730   22.6270  -28.8300 C   0  0  0  0  0  0  0  0  0  0  0  0
   -4.1250   24.1370  -28.6050 C   0  0  0  0  0  0  0  0  0  0  0  0
   -5.3720   24.7740  -29.0540 N   0  0  0  0  0  0  0  0  0  0  0  0
   -5.5040   24.6810  -30.5180 C   0  0  0  0  0  0  0  0  0  0  0  0
   -6.5080   23.5930  -30.9250 C   0  0  0  0  0  0  0  0  0  0  0  0
   -6.1740   23.0200  -32.2320 N   0  0  0  0  0  0  0  0  0  0  0  0
   -5.9220   21.6110  -32.4040 C   0  0  0  0  0  0  0  0  0  0  0  0
   -6.9930   20.6980  -32.3680 C   0  0  0  0  0  0  0  0  0  0  0  0
   -6.7430   19.3240  -32.6270 C   0  0  0  0  0  0  0  0  0  0  0  0
   -5.4780   18.9100  -33.0070 N   0  0  0  0  0  0  0  0  0  0  0  0
   -5.2650   17.5320  -33.5020 C   0  0  0  0  0  0  0  0  0  0  0  0
   -4.4000   19.7690  -32.8880 C   0  0  0  0  0  0  0  0  0  0  0  0
   -3.0630   19.3180  -33.0510 C   0  0  0  0  0  0  0  0  0  0  0  0
   -1.9750   20.1820  -32.9120 C   0  0  0  0  0  0  0  0  0  0  0  0
   -0.6850   19.6620  -33.1190 O   0  0  0  0  0  0  0  0  0  0  0  0
    0.1220   19.0320  -32.1240 C   0  0  0  0  0  0  0  0  0  0  0  0
    0.3000   19.9650  -30.9090 C   0  0  0  0  0  0  0  0  0  0  0  0
    0.5240   19.2350  -29.6290 N   0  0  0  0  0  0  0  0  0  0  0  0
    1.5800   19.7990  -28.9620 O   0  0  0  0  0  0  0  0  0  0  0  0
   -0.6960   19.3250  -28.7860 C   0  0  0  0  0  0  0  0  0  0  0  0
   -0.5240   18.5540  -27.4560 C   0  0  0  0  0  0  0  0  0  0  0  0
    0.6120   17.7100  -27.4530 O   0  0  0  0  0  0  0  0  0  0  0  0
    0.6250   16.9260  -28.6270 C   0  0  0  0  0  0  0  0  0  0  0  0
    0.8520   17.8050  -29.8770 C   0  0  0  0  0  0  0  0  0  0  0  0
   -2.2040   21.5220  -32.5730 C   0  0  0  0  0  0  0  0  0  0  0  0
   -3.5020   21.9860  -32.3920 C   0  0  0  0  0  0  0  0  0  0  0  0
   -4.6110   21.1340  -32.5740 C   0  0  0  0  0  0  0  0  0  0  0  0
   -7.8940   18.3240  -32.5610 C   0  0  0  0  0  0  0  0  0  0  0  0
   -9.1090   18.8270  -31.7870 C   0  0  0  0  0  0  0  0  0  0  0  0
   -9.4950   20.2080  -32.2870 C   0  0  0  0  0  0  0  0  0  0  0  0
   -8.3760   21.1970  -31.9750 C   0  0  0  0  0  0  0  0  0  0  0  0
   -4.1894   22.1118  -27.8582 H   0  0  0  0  0  0  0  0  0  0  0  0
   -5.0798   22.3694  -29.3969 H   0  0  0  0  0  0  0  0  0  0  0  0
   -3.2844   22.3123  -29.3969 H   0  0  0  0  0  0  0  0  0  0  0  0
   -3.9842   24.3371  -27.5326 H   0  0  0  0  0  0  0  0  0  0  0  0
   -3.2887   24.5527  -29.1863 H   0  0  0  0  0  0  0  0  0  0  0  0
   -5.3640   25.7830  -28.7700 H   0  0  0  0  0  0  0  0  0  0  0  0
   -6.1790   24.2950  -28.5960 H   0  0  0  0  0  0  0  0  0  0  0  0
   -5.8494   25.6499  -30.9079 H   0  0  0  0  0  0  0  0  0  0  0  0
   -4.5215   24.4178  -30.9369 H   0  0  0  0  0  0  0  0  0  0  0  0
   -6.4952   22.7934  -30.1697 H   0  0  0  0  0  0  0  0  0  0  0  0
   -7.5062   24.0502  -30.9920 H   0  0  0  0  0  0  0  0  0  0  0  0
   -5.8650   23.6810  -32.9800 H   0  0  0  0  0  0  0  0  0  0  0  0
   -5.1592   16.8476  -32.6473 H   0  0  0  0  0  0  0  0  0  0  0  0
   -6.1263   17.2248  -34.1133 H   0  0  0  0  0  0  0  0  0  0  0  0
   -4.3511   17.4992  -34.1133 H   0  0  0  0  0  0  0  0  0  0  0  0
   -2.8800   18.2607  -33.2930 H   0  0  0  0  0  0  0  0  0  0  0  0
   -0.3648   18.1009  -31.7982 H   0  0  0  0  0  0  0  0  0  0  0  0
    1.1105   18.8106  -32.5528 H   0  0  0  0  0  0  0  0  0  0  0  0
    1.1661   20.6173  -31.0944 H   0  0  0  0  0  0  0  0  0  0  0  0
   -0.6342   20.5351  -30.7981 H   0  0  0  0  0  0  0  0  0  0  0  0
    1.7830   19.2400  -28.1630 H   0  0  0  0  0  0  0  0  0  0  0  0
   -0.8987   20.3828  -28.5624 H   0  0  0  0  0  0  0  0  0  0  0  0
   -1.5326   18.8747  -29.3403 H   0  0  0  0  0  0  0  0  0  0  0  0
   -0.4223   19.2827  -26.6382 H   0  0  0  0  0  0  0  0  0  0  0  0
   -1.4105   17.9157  -27.3268 H   0  0  0  0  0  0  0  0  0  0  0  0
    1.4352   16.1854  -28.5561 H   0  0  0  0  0  0  0  0  0  0  0  0
   -0.3488   16.4237  -28.7239 H   0  0  0  0  0  0  0  0  0  0  0  0
    1.9084   17.7308  -30.1745 H   0  0  0  0  0  0  0  0  0  0  0  0
    0.1844   17.4395  -30.6711 H   0  0  0  0  0  0  0  0  0  0  0  0
   -1.3540   22.2092  -32.4497 H   0  0  0  0  0  0  0  0  0  0  0  0
   -3.6666   23.0343  -32.1022 H   0  0  0  0  0  0  0  0  0  0  0  0
   -8.2102   18.0921  -33.5887 H   0  0  0  0  0  0  0  0  0  0  0  0
   -7.5179   17.4406  -32.0243 H   0  0  0  0  0  0  0  0  0  0  0  0
   -9.9508   18.1349  -31.9367 H   0  0  0  0  0  0  0  0  0  0  0  0
   -8.8633   18.8815  -30.7162 H   0  0  0  0  0  0  0  0  0  0  0  0
   -9.6584   20.1712  -33.3742 H   0  0  0  0  0  0  0  0  0  0  0  0
  -10.4192   20.5325  -31.7863 H   0  0  0  0  0  0  0  0  0  0  0  0
   -8.5761   22.1314  -32.5199 H   0  0  0  0  0  0  0  0  0  0  0  0
   -8.3685   21.3412  -30.8845 H   0  0  0  0  0  0  0  0  0  0  0  0
  1  2  1  0
  2  3  1  0
  3  4  1  0
  4  5  1  0
  5  6  1  0
  6  7  1  0
  7  8  2  0
  8  9  1  0
  9 10  2  0
 10 11  1  0
 10 12  1  0
 12 13  2  0
 13 14  1  0
 14 15  1  0
 15 16  1  0
 16 17  1  0
 17 18  1  0
 18 19  1  0
 18 20  1  0
 20 21  1  0
 21 22  1  0
 22 23  1  0
 23 24  1  0
 14 25  2  0
 25 26  1  0
 26 27  2  0
  9 28  1  0
 28 29  1  0
 29 30  1  0
 30 31  1  0
 27  7  1  0
 31  8  1  0
 27 12  1  0
 24 18  1  0
  1 32  1  0
  1 33  1  0
  1 34  1  0
  2 35  1  0
  2 36  1  0
  3 37  1  0
  3 38  1  0
  4 39  1  0
  4 40  1  0
  5 41  1  0
  5 42  1  0
  6 43  1  0
 11 44  1  0
 11 45  1  0
 11 46  1  0
 13 47  1  0
 16 48  1  0
 16 49  1  0
 17 50  1  0
 17 51  1  0
 19 52  1  0
 20 53  1  0
 20 54  1  0
 21 55  1  0
 21 56  1  0
 23 57  1  0
 23 58  1  0
 24 59  1  0
 24 60  1  0
 25 61  1  0
 26 62  1  0
 28 63  1  0
 28 64  1  0
 29 65  1  0
 29 66  1  0
 30 67  1  0
 30 68  1  0
 31 69  1  0
 31 70  1  0
M  CHG  3   3   1  10   1  18   1
M  END
>  <UniqueID>  (12) 
12

>  <SMILES>  (12) 
CC[NH2+]CCNc1c2c([n+](C)c3cc(OCC[N+]4(O)CCOCC4)ccc13)CCCC2

>  <Energy>  (12) 
100.77057613561959

>  <Genealogy>  (12) 
CC[NH2+]CCNc1c2c([n+](C)c3cc(OCC[N+]4(O)CCOCC4)ccc13)CCCC2 (protonated)
CC[NH2+]CCNc1c2c([n+](C)c3cc(OCC[N+]4(O)CCOCC4)ccc13)CCCC2 (3D coordinates assigned)
CC[NH2+]CCNc1c2c([n+](C)c3cc(OCC[N+]4(O)CCOCC4)ccc13)CCCC2 (nonaromatic ring conformer: 100.77057613561959 kcal/mol)

>  <smiles>  (12) 
CCNCCNc1c2c([n+](C)c3cc(OCC[N+]4([O-])CCOCC4)ccc13)CCCC2

>  <score_type>  (12) 
oracle

>  <origin>  (12) 
adg

>  <m_score__min__energy>  (12) 
-7.6299999999999999

>  <m_primary>  (12) 
energy

$$$$
12:0
     RDKit          3D

 40 41  0  0  0  0  0  0  0  0999 V2000
   -6.1180   24.7730  -29.7320 C   0  0  0  0  0  0  0  0  0  0  0  0
   -5.2430   25.6740  -30.5970 C   0  0  0  0  0  0  0  0  0  0  0  0
   -3.8840   25.2920  -30.4900 O   0  0  0  0  0  0  0  0  0  0  0  0
   -3.7510   24.0290  -29.8620 C   0  0  0  0  0  0  0  0  0  0  0  0
   -3.4960   22.9400  -30.9060 C   0  0  0  0  0  0  0  0  0  0  0  0
   -4.6750   22.1910  -31.1270 O   0  0  0  0  0  0  0  0  0  0  0  0
   -4.5640   21.4270  -32.3110 C   0  0  0  0  0  0  0  0  0  0  0  0
   -5.6670   20.4050  -32.3880 C   0  0  0  0  0  0  0  0  0  0  0  0
   -6.9550   20.7900  -32.6310 C   0  0  0  0  0  0  0  0  0  0  0  0
   -8.0510   19.7100  -32.7350 C   0  0  0  0  0  0  0  0  0  0  0  0
   -7.4340   18.2930  -32.4770 C   0  0  2  0  0  0  0  0  0  0  0  0
   -6.5500   18.4440  -31.2230 C   0  0  0  0  0  0  0  0  0  0  0  0
   -5.4310   18.8970  -32.1810 C   0  0  1  0  0  0  0  0  0  0  0  0
   -6.1380   18.1070  -33.3140 C   0  0  0  0  0  0  0  0  0  0  0  0
   -5.6850   16.6260  -33.3690 C   0  0  0  0  0  0  0  0  0  0  0  0
   -6.0920   18.6850  -34.7560 C   0  0  0  0  0  0  0  0  0  0  0  0
   -5.9186   24.9784  -28.6699 H   0  0  0  0  0  0  0  0  0  0  0  0
   -7.1776   24.9711  -29.9511 H   0  0  0  0  0  0  0  0  0  0  0  0
   -5.8890   23.7196  -29.9511 H   0  0  0  0  0  0  0  0  0  0  0  0
   -5.5617   25.5895  -31.6464 H   0  0  0  0  0  0  0  0  0  0  0  0
   -5.3499   26.7130  -30.2520 H   0  0  0  0  0  0  0  0  0  0  0  0
   -2.9066   24.0612  -29.1578 H   0  0  0  0  0  0  0  0  0  0  0  0
   -4.6822   23.7975  -29.3242 H   0  0  0  0  0  0  0  0  0  0  0  0
   -3.1804   23.4082  -31.8500 H   0  0  0  0  0  0  0  0  0  0  0  0
   -2.7067   22.2677  -30.5386 H   0  0  0  0  0  0  0  0  0  0  0  0
   -4.6305   22.0969  -33.1810 H   0  0  0  0  0  0  0  0  0  0  0  0
   -3.5961   20.9043  -32.3062 H   0  0  0  0  0  0  0  0  0  0  0  0
   -7.2066   21.8541  -32.7507 H   0  0  0  0  0  0  0  0  0  0  0  0
   -8.8311   19.9095  -31.9856 H   0  0  0  0  0  0  0  0  0  0  0  0
   -8.4877   19.7351  -33.7443 H   0  0  0  0  0  0  0  0  0  0  0  0
   -8.2608   17.5731  -32.5668 H   0  0  0  0  0  0  0  0  0  0  0  0
   -6.8865   19.2107  -30.5096 H   0  0  0  0  0  0  0  0  0  0  0  0
   -6.4095   17.6253  -30.5019 H   0  0  0  0  0  0  0  0  0  0  0  0
   -4.3578   18.7555  -31.9857 H   0  0  0  0  0  0  0  0  0  0  0  0
   -5.5671   16.2404  -32.3456 H   0  0  0  0  0  0  0  0  0  0  0  0
   -6.4421   16.0305  -33.9002 H   0  0  0  0  0  0  0  0  0  0  0  0
   -4.7243   16.5559  -33.9002 H   0  0  0  0  0  0  0  0  0  0  0  0
   -6.0048   19.7805  -34.7093 H   0  0  0  0  0  0  0  0  0  0  0  0
   -5.2240   18.2705  -35.2897 H   0  0  0  0  0  0  0  0  0  0  0  0
   -7.0146   18.4130  -35.2897 H   0  0  0  0  0  0  0  0  0  0  0  0
  1  2  1  0
  2  3  1  0
  3  4  1  0
  4  5  1  0
  5  6  1  0
  6  7  1  0
  7  8  1  0
  8  9  2  0
  9 10  1  0
 10 11  1  0
 11 12  1  0
 12 13  1  0
 13 14  1  0
 14 15  1  0
 14 16  1  0
 13  8  1  0
 14 11  1  0
  1 17  1  0
  1 18  1  0
  1 19  1  0
  2 20  1  0
  2 21  1  0
  4 22  1  0
  4 23  1  0
  5 24  1  0
  5 25  1  0
  7 26  1  0
  7 27  1  0
  9 28  1  0
 10 29  1  0
 10 30  1  0
 11 31  1  1
 12 32  1  0
 12 33  1  0
 13 34  1  1
 15 35  1  0
 15 36  1  0
 15 37  1  0
 16 38  1  0
 16 39  1  0
 16 40  1  0
M  END
>  <UniqueID>  (13) 
13

>  <SMILES>  (13) 
CCOCCOCC1=CC[C@@H]2C[C@H]1C2(C)C

>  <Energy>  (13) 
135.76113930481864

>  <Genealogy>  (13) 
CCOCCOCC1=CC[C@@H]2C[C@H]1C2(C)C (chirality)
CCOCCOCC1=CC[C@@H]2C[C@H]1C2(C)C (3D coordinates assigned)
CCOCCOCC1=CC[C@@H]2C[C@H]1C2(C)C (nonaromatic ring conformer: 135.76113930481864 kcal/mol)

>  <smiles>  (13) 
CCOCCOCC1=CCC2CC1C2(C)C

>  <score_type>  (13) 
oracle

>  <origin>  (13) 
adg

>  <m_score__min__energy>  (13) 
-6.8099999999999996

>  <m_primary>  (13) 
energy

$$$$
13:0
     RDKit          3D

 67 71  0  0  0  0  0  0  0  0999 V2000
   -2.8140   16.9290  -33.2330 C   0  0  0  0  0  0  0  0  0  0  0  0
   -2.9840   17.1030  -34.7380 C   0  0  0  0  0  0  0  0  0  0  0  0
   -4.4020   17.2940  -35.0730 N   0  0  0  0  0  0  0  0  0  0  0  0
   -5.3070   16.7790  -34.0280 C   0  0  0  0  0  0  0  0  0  0  0  0
   -6.3160   17.8360  -33.5330 C   0  0  0  0  0  0  0  0  0  0  0  0
   -6.1730   19.1130  -34.2570 N   0  0  0  0  0  0  0  0  0  0  0  0
   -6.0810   20.2280  -33.3280 C   0  0  0  0  0  0  0  0  0  0  0  0
   -7.2400   20.7200  -32.6750 C   0  0  0  0  0  0  0  0  0  0  0  0
   -8.4840   20.0460  -32.7460 C   0  0  0  0  0  0  0  0  0  0  0  0
   -9.6080   20.5410  -32.0890 C   0  0  0  0  0  0  0  0  0  0  0  0
   -9.5200   21.7070  -31.3400 C   0  0  0  0  0  0  0  0  0  0  0  0
   -8.3110   22.3920  -31.2540 C   0  0  0  0  0  0  0  0  0  0  0  0
   -7.1560   21.9280  -31.9320 C   0  0  0  0  0  0  0  0  0  0  0  0
   -5.9690   22.6260  -31.8740 N   0  0  0  0  0  0  0  0  0  0  0  0
   -5.9960   24.0650  -31.5410 C   0  0  0  0  0  0  0  0  0  0  0  0
   -4.7850   22.0050  -32.2240 C   0  0  0  0  0  0  0  0  0  0  0  0
   -3.5140   22.5080  -31.8030 C   0  0  0  0  0  0  0  0  0  0  0  0
   -3.4470   23.5320  -30.8390 O   0  0  0  0  0  0  0  0  0  0  0  0
   -3.1400   23.3700  -29.4540 C   0  0  0  0  0  0  0  0  0  0  0  0
   -3.8580   22.1450  -28.8820 C   0  0  0  0  0  0  0  0  0  0  0  0
   -2.8870   21.1080  -28.5140 N   0  0  0  0  0  0  0  0  0  0  0  0
   -3.0950   20.3520  -27.3930 C   0  0  0  0  0  0  0  0  0  0  0  0
   -2.1940   19.3500  -27.0300 C   0  0  0  0  0  0  0  0  0  0  0  0
   -1.0720   19.1100  -27.8280 C   0  0  0  0  0  0  0  0  0  0  0  0
   -0.1450   18.1130  -27.4880 C   0  0  0  0  0  0  0  0  0  0  0  0
    0.9690   17.8860  -28.3020 C   0  0  0  0  0  0  0  0  0  0  0  0
    1.1630   18.6490  -29.4580 C   0  0  0  0  0  0  0  0  0  0  0  0
    0.2450   19.6440  -29.8070 C   0  0  0  0  0  0  0  0  0  0  0  0
   -0.8750   19.8820  -28.9940 C   0  0  0  0  0  0  0  0  0  0  0  0
   -1.8060   20.8780  -29.3190 C   0  0  0  0  0  0  0  0  0  0  0  0
   -2.3360   21.9280  -32.3030 C   0  0  0  0  0  0  0  0  0  0  0  0
   -2.3900   20.8240  -33.1380 C   0  0  0  0  0  0  0  0  0  0  0  0
   -3.6120   20.2580  -33.4730 C   0  0  0  0  0  0  0  0  0  0  0  0
   -4.8270   20.8220  -33.0190 C   0  0  0  0  0  0  0  0  0  0  0  0
   -3.4886   17.6195  -32.7056 H   0  0  0  0  0  0  0  0  0  0  0  0
   -3.0578   15.8933  -32.9538 H   0  0  0  0  0  0  0  0  0  0  0  0
   -1.7730   17.1487  -32.9538 H   0  0  0  0  0  0  0  0  0  0  0  0
   -2.4116   17.9823  -35.0685 H   0  0  0  0  0  0  0  0  0  0  0  0
   -2.6150   16.1999  -35.2463 H   0  0  0  0  0  0  0  0  0  0  0  0
   -4.6030   16.8300  -35.9880 H   0  0  0  0  0  0  0  0  0  0  0  0
   -5.8661   15.9249  -34.4377 H   0  0  0  0  0  0  0  0  0  0  0  0
   -4.6861   16.4874  -33.1681 H   0  0  0  0  0  0  0  0  0  0  0  0
   -7.3359   17.4530  -33.6851 H   0  0  0  0  0  0  0  0  0  0  0  0
   -6.1183   18.0238  -32.4673 H   0  0  0  0  0  0  0  0  0  0  0  0
   -6.9650   19.2580  -34.9210 H   0  0  0  0  0  0  0  0  0  0  0  0
   -5.3380   19.0870  -34.8840 H   0  0  0  0  0  0  0  0  0  0  0  0
   -8.5636   19.1168  -33.3293 H   0  0  0  0  0  0  0  0  0  0  0  0
  -10.5670   20.0074  -32.1636 H   0  0  0  0  0  0  0  0  0  0  0  0
  -10.4068   22.0900  -30.8139 H   0  0  0  0  0  0  0  0  0  0  0  0
   -8.2511   23.3091  -30.6495 H   0  0  0  0  0  0  0  0  0  0  0  0
   -5.9983   24.1884  -30.4479 H   0  0  0  0  0  0  0  0  0  0  0  0
   -5.1069   24.5559  -31.9635 H   0  0  0  0  0  0  0  0  0  0  0  0
   -6.9029   24.5222  -31.9635 H   0  0  0  0  0  0  0  0  0  0  0  0
   -2.0540   23.2395  -29.3374 H   0  0  0  0  0  0  0  0  0  0  0  0
   -3.4767   24.2645  -28.9094 H   0  0  0  0  0  0  0  0  0  0  0  0
   -4.4265   22.4426  -27.9885 H   0  0  0  0  0  0  0  0  0  0  0  0
   -4.5385   21.7413  -29.6462 H   0  0  0  0  0  0  0  0  0  0  0  0
   -3.9829   20.5361  -26.7704 H   0  0  0  0  0  0  0  0  0  0  0  0
   -2.3657   18.7532  -26.1221 H   0  0  0  0  0  0  0  0  0  0  0  0
   -0.2948   17.5096  -26.5805 H   0  0  0  0  0  0  0  0  0  0  0  0
    1.6951   17.1049  -28.0323 H   0  0  0  0  0  0  0  0  0  0  0  0
    2.0410   18.4656  -30.0948 H   0  0  0  0  0  0  0  0  0  0  0  0
    0.4000   20.2403  -30.7182 H   0  0  0  0  0  0  0  0  0  0  0  0
   -1.6659   21.4796  -30.2292 H   0  0  0  0  0  0  0  0  0  0  0  0
   -1.3602   22.3552  -32.0284 H   0  0  0  0  0  0  0  0  0  0  0  0
   -1.4597   20.3939  -33.5375 H   0  0  0  0  0  0  0  0  0  0  0  0
   -3.6361   19.3559  -34.1020 H   0  0  0  0  0  0  0  0  0  0  0  0
  1  2  1  0
  2  3  1  0
  3  4  1  0
  4  5  1  0
  5  6  1  0
  6  7  1  0
  7  8  2  0
  8  9  1  0
  9 10  2  0
 10 11  1  0
 11 12  2  0
 12 13  1  0
 13 14  2  0
 14 15  1  0
 14 16  1  0
 16 17  2  0
 17 18  1  0
 18 19  1  0
 19 20  1  0
 20 21  1  0
 21 22  2  0
 22 23  1  0
 23 24  2  0
 24 25  1  0
 25 26  2  0
 26 27  1  0
 27 28  2  0
 28 29  1  0
 29 30  2  0
 17 31  1  0
 31 32  2  0
 32 33  1  0
 33 34  2  0
 34  7  1  0
 13  8  1  0
 34 16  1  0
 30 21  1  0
 29 24  1  0
  1 35  1  0
  1 36  1  0
  1 37  1  0
  2 38  1  0
  2 39  1  0
  3 40  1  0
  4 41  1  0
  4 42  1  0
  5 43  1  0
  5 44  1  0
  6 45  1  0
  6 46  1  0
  9 47  1  0
 10 48  1  0
 11 49  1  0
 12 50  1  0
 15 51  1  0
 15 52  1  0
 15 53  1  0
 19 54  1  0
 19 55  1  0
 20 56  1  0
 20 57  1  0
 22 58  1  0
 23 59  1  0
 25 60  1  0
 26 61  1  0
 27 62  1  0
 28 63  1  0
 30 64  1  0
 31 65  1  0
 32 66  1  0
 33 67  1  0
M  CHG  3   6   1  14   1  21   1
M  END
>  <UniqueID>  (14) 
14

>  <SMILES>  (14) 
CCNCC[NH2+]c1c2ccccc2[n+](C)c2c(OCC[n+]3ccc4ccccc4c3)cccc12

>  <Energy>  (14) 
105.0335274758397

>  <Genealogy>  (14) 
CCNCC[NH2+]c1c2ccccc2[n+](C)c2c(OCC[n+]3ccc4ccccc4c3)cccc12 (protonated)
CCNCC[NH2+]c1c2ccccc2[n+](C)c2c(OCC[n+]3ccc4ccccc4c3)cccc12 (3D coordinates assigned)
CCNCC[NH2+]c1c2ccccc2[n+](C)c2c(OCC[n+]3ccc4ccccc4c3)cccc12 (optimized conformer: 105.0335274758397 kcal/mol)

>  <smiles>  (14) 
CCNCCNc1c2ccccc2[n+](C)c2c(OCC[n+]3ccc4ccccc4c3)cccc12

>  <score_type>  (14) 
oracle

>  <origin>  (14) 
adg

>  <m_score__min__energy>  (14) 
-8.0800000000000001

>  <m_primary>  (14) 
energy

$$$$
14:0
     RDKit          3D

 50 50  0  0  0  0  0  0  0  0999 V2000
   -5.3950   16.3180  -32.3090 C   0  0  0  0  0  0  0  0  0  0  0  0
   -6.0790   17.2250  -31.2870 C   0  0  0  0  0  0  0  0  0  0  0  0
   -6.8590   18.2910  -31.9560 N   0  0  0  0  0  0  0  0  0  0  0  0
   -8.1850   18.4910  -31.3120 C   0  0  0  0  0  0  0  0  0  0  0  0
   -9.1830   19.0000  -32.3460 C   0  0  0  0  0  0  0  0  0  0  0  0
   -6.9900   18.0090  -33.4040 C   0  0  0  0  0  0  0  0  0  0  0  0
   -6.1010   18.9550  -34.2290 C   0  0  0  0  0  0  0  0  0  0  0  0
   -5.4460   20.0360  -33.3600 C   0  0  0  0  0  0  0  0  0  0  0  0
   -6.4430   20.7990  -32.6060 N   0  0  0  0  0  0  0  0  0  0  0  0
   -6.3610   22.2210  -32.4050 C   0  0  0  0  0  0  0  0  0  0  0  0
   -7.7130   23.0250  -31.9300 S   0  0  0  0  0  0  0  0  0  0  0  0
   -5.1180   22.9410  -32.5520 N   0  0  0  0  0  0  0  0  0  0  0  0
   -4.2730   22.7110  -31.4030 C   0  0  0  0  0  0  0  0  0  0  0  0
   -3.8270   21.4100  -31.1130 C   0  0  0  0  0  0  0  0  0  0  0  0
   -3.0310   21.1600  -29.9960 C   0  0  0  0  0  0  0  0  0  0  0  0
   -2.6630   22.2000  -29.1400 C   0  0  0  0  0  0  0  0  0  0  0  0
   -1.8590   21.8930  -28.0310 O   0  0  0  0  0  0  0  0  0  0  0  0
   -2.0130   20.7310  -27.2230 C   0  0  0  0  0  0  0  0  0  0  0  0
   -3.1050   23.5070  -29.4150 C   0  0  0  0  0  0  0  0  0  0  0  0
   -3.9110   23.7720  -30.5410 C   0  0  0  0  0  0  0  0  0  0  0  0
   -4.3690   25.0690  -30.8290 O   0  0  0  0  0  0  0  0  0  0  0  0
   -5.5960   25.6200  -30.3650 C   0  0  0  0  0  0  0  0  0  0  0  0
   -4.8132   15.5466  -31.7832 H   0  0  0  0  0  0  0  0  0  0  0  0
   -6.1568   15.8365  -32.9397 H   0  0  0  0  0  0  0  0  0  0  0  0
   -4.7226   16.9180  -32.9397 H   0  0  0  0  0  0  0  0  0  0  0  0
   -6.7565   16.6199  -30.6667 H   0  0  0  0  0  0  0  0  0  0  0  0
   -5.3037   17.6976  -30.6661 H   0  0  0  0  0  0  0  0  0  0  0  0
   -8.5400   17.5349  -30.9000 H   0  0  0  0  0  0  0  0  0  0  0  0
   -8.0903   19.2283  -30.5012 H   0  0  0  0  0  0  0  0  0  0  0  0
  -10.0496   19.4420  -31.8326 H   0  0  0  0  0  0  0  0  0  0  0  0
   -8.7017   19.7627  -32.9757 H   0  0  0  0  0  0  0  0  0  0  0  0
   -9.5178   18.1625  -32.9757 H   0  0  0  0  0  0  0  0  0  0  0  0
   -6.6868   16.9695  -33.5975 H   0  0  0  0  0  0  0  0  0  0  0  0
   -8.0382   18.1643  -33.6993 H   0  0  0  0  0  0  0  0  0  0  0  0
   -5.3109   18.3645  -34.7159 H   0  0  0  0  0  0  0  0  0  0  0  0
   -6.7387   19.4576  -34.9712 H   0  0  0  0  0  0  0  0  0  0  0  0
   -4.7548   19.5548  -32.6524 H   0  0  0  0  0  0  0  0  0  0  0  0
   -4.9093   20.7313  -34.0222 H   0  0  0  0  0  0  0  0  0  0  0  0
   -7.3040   20.3120  -32.2670 H   0  0  0  0  0  0  0  0  0  0  0  0
   -5.3240   23.9590  -32.6690 H   0  0  0  0  0  0  0  0  0  0  0  0
   -4.6110   22.6510  -33.4170 H   0  0  0  0  0  0  0  0  0  0  0  0
   -4.1095   20.5787  -31.7756 H   0  0  0  0  0  0  0  0  0  0  0  0
   -2.6901   20.1352  -29.7874 H   0  0  0  0  0  0  0  0  0  0  0  0
   -1.9753   21.0152  -26.1610 H   0  0  0  0  0  0  0  0  0  0  0  0
   -2.9817   20.2580  -27.4418 H   0  0  0  0  0  0  0  0  0  0  0  0
   -1.2010   20.0220  -27.4418 H   0  0  0  0  0  0  0  0  0  0  0  0
   -2.8188   24.3307  -28.7445 H   0  0  0  0  0  0  0  0  0  0  0  0
   -5.6037   25.6234  -29.2650 H   0  0  0  0  0  0  0  0  0  0  0  0
   -5.6985   26.6506  -30.7356 H   0  0  0  0  0  0  0  0  0  0  0  0
   -6.4344   25.0119  -30.7356 H   0  0  0  0  0  0  0  0  0  0  0  0
  1  2  1  0
  2  3  1  0
  3  4  1  0
  4  5  1  0
  3  6  1  0
  6  7  1  0
  7  8  1  0
  8  9  1  0
  9 10  1  0
 10 11  2  0
 10 12  1  0
 12 13  1  0
 13 14  2  0
 14 15  1  0
 15 16  2  0
 16 17  1  0
 17 18  1  0
 16 19  1  0
 19 20  2  0
 20 21  1  0
 21 22  1  0
 20 13  1  0
  1 23  1  0
  1 24  1  0
  1 25  1  0
  2 26  1  0
  2 27  1  0
  4 28  1  0
  4 29  1  0
  5 30  1  0
  5 31  1  0
  5 32  1  0
  6 33  1  0
  6 34  1  0
  7 35  1  0
  7 36  1  0
  8 37  1  0
  8 38  1  0
  9 39  1  0
 12 40  1  0
 12 41  1  0
 14 42  1  0
 15 43  1  0
 18 44  1  0
 18 45  1  0
 18 46  1  0
 19 47  1  0
 22 48  1  0
 22 49  1  0
 22 50  1  0
M  CHG  1  12   1
M  END
>  <UniqueID>  (15) 
15

>  <SMILES>  (15) 
CCN(CC)CCCNC(=S)[NH2+]c1ccc(OC)cc1OC

>  <Energy>  (15) 
43.85491214626441

>  <Genealogy>  (15) 
CCN(CC)CCCNC(=S)[NH2+]c1ccc(OC)cc1OC (protonated)
CCN(CC)CCCNC(=S)[NH2+]c1ccc(OC)cc1OC (3D coordinates assigned)
CCN(CC)CCCNC(=S)[NH2+]c1ccc(OC)cc1OC (optimized conformer: 43.85491214626441 kcal/mol)

>  <smiles>  (15) 
CCN(CC)CCCNC(=S)Nc1ccc(OC)cc1OC

>  <score_type>  (15) 
oracle

>  <origin>  (15) 
adg

>  <m_score__min__energy>  (15) 
-5.96

>  <m_primary>  (15) 
energy

$$$$
