0:0
     RDKit          3D

 44 46  0  0  0  0  0  0  0  0999 V2000
   -8.9800   18.4160  -31.6900 C   0  0  0  0  0  0  0  0  0  0  0  0
   -7.9030   19.2350  -32.2930 N   0  0  0  0  0  0  0  0  0  0  0  0
   -7.9480   20.6130  -32.1930 C   0  0  0  0  0  0  0  0  0  0  0  0
   -9.1250   21.2950  -31.7870 C   0  0  0  0  0  0  0  0  0  0  0  0
   -9.1390   22.6810  -31.6350 C   0  0  0  0  0  0  0  0  0  0  0  0
   -7.9960   23.4240  -31.8950 C   0  0  0  0  0  0  0  0  0  0  0  0
   -6.8380   22.7910  -32.3400 C   0  0  0  0  0  0  0  0  0  0  0  0
   -6.8050   21.3920  -32.5220 C   0  0  0  0  0  0  0  0  0  0  0  0
   -5.6630   20.7600  -33.0480 C   0  0  0  0  0  0  0  0  0  0  0  0
   -4.5180   21.5420  -33.4360 N   0  0  0  0  0  0  0  0  0  0  0  0
   -3.4500   21.8590  -32.4830 C   0  0  0  0  0  0  0  0  0  0  0  0
   -2.3060   20.8310  -32.5550 C   0  0  0  0  0  0  0  0  0  0  0  0
   -1.6640   20.7630  -33.8920 N   0  0  0  0  0  0  0  0  0  0  0  0
   -1.4210   19.3570  -34.2620 C   0  0  0  0  0  0  0  0  0  0  0  0
   -0.3870   21.5020  -33.9160 C   0  0  0  0  0  0  0  0  0  0  0  0
   -5.6730   19.3680  -33.2490 C   0  0  0  0  0  0  0  0  0  0  0  0
   -4.5400   18.7030  -33.7640 C   0  0  0  0  0  0  0  0  0  0  0  0
   -4.5750   17.3360  -34.0320 C   0  0  0  0  0  0  0  0  0  0  0  0
   -5.7370   16.6100  -33.7960 C   0  0  0  0  0  0  0  0  0  0  0  0
   -5.7970   14.7480  -34.2170 Br  0  0  0  0  0  0  0  0  0  0  0  0
   -6.8560   17.2390  -33.2480 C   0  0  0  0  0  0  0  0  0  0  0  0
   -6.8330   18.6190  -32.9150 C   0  0  0  0  0  0  0  0  0  0  0  0
   -8.9105   18.4688  -30.5935 H   0  0  0  0  0  0  0  0  0  0  0  0
   -9.9583   18.8004  -32.0144 H   0  0  0  0  0  0  0  0  0  0  0  0
   -8.8710   17.3706  -32.0144 H   0  0  0  0  0  0  0  0  0  0  0  0
  -10.0417   20.7202  -31.5889 H   0  0  0  0  0  0  0  0  0  0  0  0
  -10.0592   23.1872  -31.3079 H   0  0  0  0  0  0  0  0  0  0  0  0
   -8.0047   24.5143  -31.7494 H   0  0  0  0  0  0  0  0  0  0  0  0
   -5.9390   23.3883  -32.5520 H   0  0  0  0  0  0  0  0  0  0  0  0
   -4.3500   21.7110  -34.4520 H   0  0  0  0  0  0  0  0  0  0  0  0
   -3.0490   22.8568  -32.7144 H   0  0  0  0  0  0  0  0  0  0  0  0
   -3.8740   21.8330  -31.4683 H   0  0  0  0  0  0  0  0  0  0  0  0
   -1.5414   21.1063  -31.8136 H   0  0  0  0  0  0  0  0  0  0  0  0
   -2.7420   19.8419  -32.3511 H   0  0  0  0  0  0  0  0  0  0  0  0
   -2.2930   21.1740  -34.6180 H   0  0  0  0  0  0  0  0  0  0  0  0
   -1.3162   18.7507  -33.3502 H   0  0  0  0  0  0  0  0  0  0  0  0
   -2.2677   18.9826  -34.8560 H   0  0  0  0  0  0  0  0  0  0  0  0
   -0.4977   19.2885  -34.8560 H   0  0  0  0  0  0  0  0  0  0  0  0
   -0.0551   21.6941  -32.8850 H   0  0  0  0  0  0  0  0  0  0  0  0
    0.3729   20.9040  -34.4404 H   0  0  0  0  0  0  0  0  0  0  0  0
   -0.5268   22.4588  -34.4404 H   0  0  0  0  0  0  0  0  0  0  0  0
   -3.6177   19.2708  -33.9563 H   0  0  0  0  0  0  0  0  0  0  0  0
   -3.6827   16.8310  -34.4305 H   0  0  0  0  0  0  0  0  0  0  0  0
   -7.7715   16.6555  -33.0711 H   0  0  0  0  0  0  0  0  0  0  0  0
  1  2  1  0
  2  3  2  0
  3  4  1  0
  4  5  2  0
  5  6  1  0
  6  7  2  0
  7  8  1  0
  8  9  2  0
  9 10  1  0
 10 11  1  0
 11 12  1  0
 12 13  1  0
 13 14  1  0
 13 15  1  0
  9 16  1  0
 16 17  2  0
 17 18  1  0
 18 19  2  0
 19 20  1  0
 19 21  1  0
 21 22  2  0
 22  2  1  0
  8  3  1  0
 22 16  1  0
  1 23  1  0
  1 24  1  0
  1 25  1  0
  4 26  1  0
  5 27  1  0
  6 28  1  0
  7 29  1  0
 10 30  1  0
 11 31  1  0
 11 32  1  0
 12 33  1  0
 12 34  1  0
 13 35  1  0
 14 36  1  0
 14 37  1  0
 14 38  1  0
 15 39  1  0
 15 40  1  0
 15 41  1  0
 17 42  1  0
 18 43  1  0
 21 44  1  0
M  CHG  2   2   1  13   1
M  END
>  <UniqueID>  (1) 
1

>  <SMILES>  (1) 
C[n+]1c2ccccc2c(NCC[NH+](C)C)c2ccc(Br)cc21

>  <Energy>  (1) 
71.69479602951392

>  <Genealogy>  (1) 
C[n+]1c2ccccc2c(NCC[NH+](C)C)c2ccc(Br)cc21 (protonated)
C[n+]1c2ccccc2c(NCC[NH+](C)C)c2ccc(Br)cc21 (3D coordinates assigned)
C[n+]1c2ccccc2c(NCC[NH+](C)C)c2ccc(Br)cc21 (optimized conformer: 71.69479602951392 kcal/mol)

>  <smiles>  (1) 
CN(C)CCNc1c2ccccc2[n+](C)c2cc(Br)ccc12

>  <score_type>  (1) 
oracle

>  <origin>  (1) 
adg

>  <m_score__min__energy>  (1) 
-7.2300000000000004

>  <m_primary>  (1) 
energy

$$$$
1:0
     RDKit          3D

 46 49  0  0  0  0  0  0  0  0999 V2000
    1.2490   21.3040  -35.5600 C   0  0  0  0  0  0  0  0  0  0  0  0
   -0.0800   21.8610  -35.0490 C   0  0  0  0  0  0  0  0  0  0  0  0
   -0.7930   20.9380  -34.1380 N   0  0  0  0  0  0  0  0  0  0  0  0
   -0.7260   19.5040  -34.5190 C   0  0  0  0  0  0  0  0  0  0  0  0
   -1.9200   18.6500  -34.0690 C   0  0  0  0  0  0  0  0  0  0  0  0
   -0.6780   21.2760  -32.6990 C   0  0  0  0  0  0  0  0  0  0  0  0
   -2.0650   21.4420  -32.0660 C   0  0  0  0  0  0  0  0  0  0  0  0
   -3.1140   21.5280  -33.0820 N   0  0  0  0  0  0  0  0  0  0  0  0
   -4.4930   21.1740  -32.8630 C   0  0  0  0  0  0  0  0  0  0  0  0
   -5.0150   19.8980  -33.2300 C   0  0  0  0  0  0  0  0  0  0  0  0
   -6.3950   19.6050  -33.0970 C   0  0  0  0  0  0  0  0  0  0  0  0
   -7.2730   20.5850  -32.6060 C   0  0  0  0  0  0  0  0  0  0  0  0
   -8.6580   20.4070  -32.4090 C   0  0  0  0  0  0  0  0  0  0  0  0
   -9.4310   21.4650  -31.8620 C   0  0  0  0  0  0  0  0  0  0  0  0
   -8.8290   22.6980  -31.5180 C   0  0  0  0  0  0  0  0  0  0  0  0
   -7.4620   22.8440  -31.7560 C   0  0  0  0  0  0  0  0  0  0  0  0
   -6.7330   21.8110  -32.2670 C   0  0  0  0  0  0  0  0  0  0  0  0
   -5.4010   22.1130  -32.3420 C   0  0  0  0  0  0  0  0  0  0  0  0
   -5.2830   23.4860  -31.8160 C   0  0  0  0  0  0  0  0  0  0  0  0
   -6.5050   23.9150  -31.4890 C   0  0  0  0  0  0  0  0  0  0  0  0
   -6.3970   24.8000  -30.3370 C   0  0  0  0  0  0  0  0  0  0  0  0
   -7.3630   25.2970  -29.6980 O   0  0  0  0  0  0  0  0  0  0  0  0
   -5.0350   24.9440  -29.9570 N   0  0  0  0  0  0  0  0  0  0  0  0
   -4.3470   24.0720  -30.8490 C   0  0  0  0  0  0  0  0  0  0  0  0
   -3.1290   23.7820  -30.7310 O   0  0  0  0  0  0  0  0  0  0  0  0
    1.8874   21.0364  -34.7051 H   0  0  0  0  0  0  0  0  0  0  0  0
    1.0607   20.4091  -36.1713 H   0  0  0  0  0  0  0  0  0  0  0  0
    1.7550   22.0657  -36.1713 H   0  0  0  0  0  0  0  0  0  0  0  0
    0.1194   22.7986  -34.5094 H   0  0  0  0  0  0  0  0  0  0  0  0
   -0.7260   22.0151  -35.9259 H   0  0  0  0  0  0  0  0  0  0  0  0
   -0.6607   19.4462  -35.6155 H   0  0  0  0  0  0  0  0  0  0  0  0
    0.1542   19.0926  -34.0033 H   0  0  0  0  0  0  0  0  0  0  0  0
   -1.9579   18.6229  -32.9700 H   0  0  0  0  0  0  0  0  0  0  0  0
   -2.8513   19.0882  -34.4573 H   0  0  0  0  0  0  0  0  0  0  0  0
   -1.8063   17.6271  -34.4573 H   0  0  0  0  0  0  0  0  0  0  0  0
   -0.1394   20.4689  -32.1809 H   0  0  0  0  0  0  0  0  0  0  0  0
   -0.1305   22.2252  -32.6024 H   0  0  0  0  0  0  0  0  0  0  0  0
   -2.2669   20.5773  -31.4168 H   0  0  0  0  0  0  0  0  0  0  0  0
   -2.0692   22.3774  -31.4872 H   0  0  0  0  0  0  0  0  0  0  0  0
   -2.8100   21.8070  -34.0380 H   0  0  0  0  0  0  0  0  0  0  0  0
   -4.3345   19.1283  -33.6230 H   0  0  0  0  0  0  0  0  0  0  0  0
   -6.7776   18.6126  -33.3776 H   0  0  0  0  0  0  0  0  0  0  0  0
   -9.1368   19.4538  -32.6776 H   0  0  0  0  0  0  0  0  0  0  0  0
  -10.5104   21.3242  -31.7039 H   0  0  0  0  0  0  0  0  0  0  0  0
   -9.4193   23.5149  -31.0773 H   0  0  0  0  0  0  0  0  0  0  0  0
   -4.6550   25.4180  -29.1080 H   0  0  0  0  0  0  0  0  0  0  0  0
  1  2  1  0
  2  3  1  0
  3  4  1  0
  4  5  1  0
  3  6  1  0
  6  7  1  0
  7  8  1  0
  8  9  1  0
  9 10  2  0
 10 11  1  0
 11 12  2  0
 12 13  1  0
 13 14  2  0
 14 15  1  0
 15 16  2  0
 16 17  1  0
 17 18  2  0
 18 19  1  0
 19 20  2  0
 20 21  1  0
 21 22  2  0
 21 23  1  0
 23 24  1  0
 24 25  2  0
 18  9  1  0
 24 19  1  0
 17 12  1  0
 20 16  1  0
  1 26  1  0
  1 27  1  0
  1 28  1  0
  2 29  1  0
  2 30  1  0
  4 31  1  0
  4 32  1  0
  5 33  1  0
  5 34  1  0
  5 35  1  0
  6 36  1  0
  6 37  1  0
  7 38  1  0
  7 39  1  0
  8 40  1  0
 10 41  1  0
 11 42  1  0
 13 43  1  0
 14 44  1  0
 15 45  1  0
 23 46  1  0
M  END
>  <UniqueID>  (2) 
2

>  <SMILES>  (2) 
CCN(CC)CCNc1ccc2cccc3c2c1C1=C3C(=O)NC1=O

>  <Energy>  (2) 
139.37107457654594

>  <Genealogy>  (2) 
CCN(CC)CCNc1ccc2cccc3c2c1C1=C3C(=O)NC1=O (3D coordinates assigned)
CCN(CC)CCNc1ccc2cccc3c2c1C1=C3C(=O)NC1=O (nonaromatic ring conformer: 139.37107457654594 kcal/mol)

>  <smiles>  (2) 
CCN(CC)CCNc1ccc2cccc3c2c1C1=C3C(=O)NC1=O

>  <score_type>  (2) 
oracle

>  <origin>  (2) 
adg

>  <m_score__min__energy>  (2) 
-9.1899999999999995

>  <m_primary>  (2) 
energy

$$$$
2:0
     RDKit          3D

 43 45  0  0  0  0  0  0  0  0999 V2000
   -9.6490   21.1730  -31.8540 C   0  0  0  0  0  0  0  0  0  0  0  0
   -8.6350   21.9110  -30.9840 C   0  0  0  0  0  0  0  0  0  0  0  0
   -7.3020   21.9260  -31.6300 N   0  0  0  0  0  0  0  0  0  0  0  0
   -6.9510   23.2930  -32.0810 C   0  0  0  0  0  0  0  0  0  0  0  0
   -6.0950   23.9680  -31.0510 C   0  0  0  0  0  0  0  0  0  0  0  0
   -6.4740   24.9980  -30.1940 C   0  0  0  0  0  0  0  0  0  0  0  0
   -5.4660   25.3010  -29.3450 N   0  0  0  0  0  0  0  0  0  0  0  0
   -4.4560   24.4700  -29.6550 C   0  0  0  0  0  0  0  0  0  0  0  0
   -3.2060   24.3930  -29.0420 C   0  0  0  0  0  0  0  0  0  0  0  0
   -2.2960   23.4320  -29.5230 C   0  0  0  0  0  0  0  0  0  0  0  0
   -2.6520   22.5820  -30.5930 C   0  0  0  0  0  0  0  0  0  0  0  0
   -3.9200   22.6830  -31.1920 C   0  0  0  0  0  0  0  0  0  0  0  0
   -4.8020   23.6410  -30.6910 C   0  0  0  0  0  0  0  0  0  0  0  0
   -7.2530   20.9690  -32.7570 C   0  0  0  0  0  0  0  0  0  0  0  0
   -5.8810   20.3650  -32.8750 C   0  0  0  0  0  0  0  0  0  0  0  0
   -4.8420   20.9730  -33.4740 N   0  0  0  0  0  0  0  0  0  0  0  0
   -3.7810   20.1910  -33.3580 N   0  0  0  0  0  0  0  0  0  0  0  0
   -4.1880   19.0980  -32.6810 C   0  0  0  0  0  0  0  0  0  0  0  0
   -5.4980   19.1730  -32.3680 N   0  0  0  0  0  0  0  0  0  0  0  0
   -6.2690   18.2000  -31.5950 C   0  0  0  0  0  0  0  0  0  0  0  0
   -7.5360   17.8030  -32.3440 C   0  0  0  0  0  0  0  0  0  0  0  0
  -10.3705   20.6479  -31.2109 H   0  0  0  0  0  0  0  0  0  0  0  0
  -10.1821   21.8958  -32.4891 H   0  0  0  0  0  0  0  0  0  0  0  0
   -9.1251   20.4435  -32.4891 H   0  0  0  0  0  0  0  0  0  0  0  0
   -8.9746   22.9463  -30.8332 H   0  0  0  0  0  0  0  0  0  0  0  0
   -8.5536   21.3910  -30.0181 H   0  0  0  0  0  0  0  0  0  0  0  0
   -6.3994   23.2330  -33.0308 H   0  0  0  0  0  0  0  0  0  0  0  0
   -7.8736   23.8751  -32.2221 H   0  0  0  0  0  0  0  0  0  0  0  0
   -7.4552   25.4952  -30.2059 H   0  0  0  0  0  0  0  0  0  0  0  0
   -5.4770   26.0280  -28.5950 H   0  0  0  0  0  0  0  0  0  0  0  0
   -2.9394   25.0611  -28.2098 H   0  0  0  0  0  0  0  0  0  0  0  0
   -1.3012   23.3428  -29.0622 H   0  0  0  0  0  0  0  0  0  0  0  0
   -1.9323   21.8357  -30.9604 H   0  0  0  0  0  0  0  0  0  0  0  0
   -4.2072   22.0283  -32.0280 H   0  0  0  0  0  0  0  0  0  0  0  0
   -7.9874   20.1685  -32.5845 H   0  0  0  0  0  0  0  0  0  0  0  0
   -7.4877   21.5042  -33.6889 H   0  0  0  0  0  0  0  0  0  0  0  0
   -4.8440   21.9060  -33.9440 H   0  0  0  0  0  0  0  0  0  0  0  0
   -3.5349   18.2529  -32.4176 H   0  0  0  0  0  0  0  0  0  0  0  0
   -5.6538   17.3041  -31.4250 H   0  0  0  0  0  0  0  0  0  0  0  0
   -6.5525   18.6546  -30.6343 H   0  0  0  0  0  0  0  0  0  0  0  0
   -8.3270   17.5552  -31.6209 H   0  0  0  0  0  0  0  0  0  0  0  0
   -7.8662   18.6407  -32.9758 H   0  0  0  0  0  0  0  0  0  0  0  0
   -7.3291   16.9266  -32.9758 H   0  0  0  0  0  0  0  0  0  0  0  0
  1  2  1  0
  2  3  1  0
  3  4  1  0
  4  5  1  0
  5  6  2  0
  6  7  1  0
  7  8  1  0
  8  9  2  0
  9 10  1  0
 10 11  2  0
 11 12  1  0
 12 13  2  0
  3 14  1  0
 14 15  1  0
 15 16  2  0
 16 17  1  0
 17 18  2  0
 18 19  1  0
 19 20  1  0
 20 21  1  0
 13  5  1  0
 19 15  1  0
 13  8  1  0
  1 22  1  0
  1 23  1  0
  1 24  1  0
  2 25  1  0
  2 26  1  0
  4 27  1  0
  4 28  1  0
  6 29  1  0
  7 30  1  0
  9 31  1  0
 10 32  1  0
 11 33  1  0
 12 34  1  0
 14 35  1  0
 14 36  1  0
 16 37  1  0
 18 38  1  0
 20 39  1  0
 20 40  1  0
 21 41  1  0
 21 42  1  0
 21 43  1  0
M  CHG  1  16   1
M  END
>  <UniqueID>  (3) 
3

>  <SMILES>  (3) 
CCN(Cc1c[nH]c2ccccc12)Cc1[nH+]ncn1CC

>  <Energy>  (3) 
104.14375670072432

>  <Genealogy>  (3) 
CCN(Cc1c[nH]c2ccccc12)Cc1[nH+]ncn1CC (protonated)
CCN(Cc1c[nH]c2ccccc12)Cc1[nH+]ncn1CC (3D coordinates assigned)
CCN(Cc1c[nH]c2ccccc12)Cc1[nH+]ncn1CC (optimized conformer: 104.14375670072432 kcal/mol)

>  <smiles>  (3) 
CCN(Cc1c[nH]c2ccccc12)Cc1nncn1CC

>  <score_type>  (3) 
oracle

>  <origin>  (3) 
adg

>  <m_score__min__energy>  (3) 
-7

>  <m_primary>  (3) 
energy

$$$$
3:0
     RDKit          3D

 45 48  0  0  0  0  0  0  0  0999 V2000
   -1.6030   20.1070  -34.0560 C   0  0  0  0  0  0  0  0  0  0  0  0
   -2.6230   19.1510  -34.3220 O   0  0  0  0  0  0  0  0  0  0  0  0
   -3.9380   19.2400  -33.8410 C   0  0  0  0  0  0  0  0  0  0  0  0
   -4.8790   18.2180  -34.0330 C   0  0  0  0  0  0  0  0  0  0  0  0
   -6.1940   18.3880  -33.6040 C   0  0  0  0  0  0  0  0  0  0  0  0
   -6.5750   19.5620  -32.9340 C   0  0  0  0  0  0  0  0  0  0  0  0
   -7.9190   19.7920  -32.6470 C   0  0  0  0  0  0  0  0  0  0  0  0
   -8.3360   20.9860  -32.1350 N   0  0  0  0  0  0  0  0  0  0  0  0
   -9.7850   21.1970  -31.9740 C   0  0  0  0  0  0  0  0  0  0  0  0
   -7.4200   21.9510  -31.7690 C   0  0  0  0  0  0  0  0  0  0  0  0
   -7.8400   23.2220  -31.3210 C   0  0  0  0  0  0  0  0  0  0  0  0
   -6.9220   24.1720  -30.8910 C   0  0  0  0  0  0  0  0  0  0  0  0
   -5.5720   23.8440  -30.7700 C   0  0  0  0  0  0  0  0  0  0  0  0
   -4.6860   24.7630  -30.1890 C   0  0  0  0  0  0  0  0  0  0  0  0
   -3.3580   24.3990  -29.9120 C   0  0  0  0  0  0  0  0  0  0  0  0
   -2.4410   25.2980  -29.3430 O   0  0  0  0  0  0  0  0  0  0  0  0
   -1.8300   25.1310  -28.0680 C   0  0  0  0  0  0  0  0  0  0  0  0
   -2.9300   23.0950  -30.1820 C   0  0  0  0  0  0  0  0  0  0  0  0
   -1.6150   22.7430  -29.8370 O   0  0  0  0  0  0  0  0  0  0  0  0
   -0.9390   21.5810  -30.3080 C   0  0  0  0  0  0  0  0  0  0  0  0
   -3.8170   22.1780  -30.7770 C   0  0  0  0  0  0  0  0  0  0  0  0
   -5.1170   22.5660  -31.1750 C   0  0  0  0  0  0  0  0  0  0  0  0
   -6.0200   21.6790  -31.8480 C   0  0  0  0  0  0  0  0  0  0  0  0
   -5.6130   20.5400  -32.6040 C   0  0  0  0  0  0  0  0  0  0  0  0
   -4.3160   20.3990  -33.1540 C   0  0  0  0  0  0  0  0  0  0  0  0
   -1.4816   20.2208  -32.9687 H   0  0  0  0  0  0  0  0  0  0  0  0
   -0.6553   19.7643  -34.4969 H   0  0  0  0  0  0  0  0  0  0  0  0
   -1.8837   21.0749  -34.4969 H   0  0  0  0  0  0  0  0  0  0  0  0
   -4.5785   17.2803  -34.5232 H   0  0  0  0  0  0  0  0  0  0  0  0
   -6.9371   17.5988  -33.7911 H   0  0  0  0  0  0  0  0  0  0  0  0
   -8.6561   18.9977  -32.8364 H   0  0  0  0  0  0  0  0  0  0  0  0
  -10.0335   21.2332  -30.9030 H   0  0  0  0  0  0  0  0  0  0  0  0
  -10.0723   22.1465  -32.4494 H   0  0  0  0  0  0  0  0  0  0  0  0
  -10.3312   20.3689  -32.4494 H   0  0  0  0  0  0  0  0  0  0  0  0
   -8.9129   23.4645  -31.3122 H   0  0  0  0  0  0  0  0  0  0  0  0
   -7.2620   25.1887  -30.6446 H   0  0  0  0  0  0  0  0  0  0  0  0
   -5.0344   25.7782  -29.9480 H   0  0  0  0  0  0  0  0  0  0  0  0
   -2.5686   25.3329  -27.2782 H   0  0  0  0  0  0  0  0  0  0  0  0
   -1.4615   24.0992  -27.9703 H   0  0  0  0  0  0  0  0  0  0  0  0
   -0.9879   25.8319  -27.9703 H   0  0  0  0  0  0  0  0  0  0  0  0
   -0.5926   20.9855  -29.4505 H   0  0  0  0  0  0  0  0  0  0  0  0
   -1.6275   20.9785  -30.9186 H   0  0  0  0  0  0  0  0  0  0  0  0
   -0.0749   21.8817  -30.9186 H   0  0  0  0  0  0  0  0  0  0  0  0
   -3.4923   21.1390  -30.9354 H   0  0  0  0  0  0  0  0  0  0  0  0
   -3.5903   21.2176  -33.0389 H   0  0  0  0  0  0  0  0  0  0  0  0
  1  2  1  0
  2  3  1  0
  3  4  2  0
  4  5  1  0
  5  6  2  0
  6  7  1  0
  7  8  2  0
  8  9  1  0
  8 10  1  0
 10 11  2  0
 11 12  1  0
 12 13  2  0
 13 14  1  0
 14 15  2  0
 15 16  1  0
 16 17  1  0
 15 18  1  0
 18 19  1  0
 19 20  1  0
 18 21  2  0
 21 22  1  0
 22 23  2  0
 23 24  1  0
 24 25  2  0
 25  3  1  0
 24  6  1  0
 23 10  1  0
 22 13  1  0
  1 26  1  0
  1 27  1  0
  1 28  1  0
  4 29  1  0
  5 30  1  0
  7 31  1  0
  9 32  1  0
  9 33  1  0
  9 34  1  0
 11 35  1  0
 12 36  1  0
 14 37  1  0
 17 38  1  0
 17 39  1  0
 17 40  1  0
 20 41  1  0
 20 42  1  0
 20 43  1  0
 21 44  1  0
 25 45  1  0
M  CHG  1   8   1
M  END
>  <UniqueID>  (4) 
4

>  <SMILES>  (4) 
COc1ccc2c[n+](C)c3ccc4cc(OC)c(OC)cc4c3c2c1

>  <Energy>  (4) 
80.70594324665704

>  <Genealogy>  (4) 
COc1ccc2c[n+](C)c3ccc4cc(OC)c(OC)cc4c3c2c1 (3D coordinates assigned)
COc1ccc2c[n+](C)c3ccc4cc(OC)c(OC)cc4c3c2c1 (optimized conformer: 80.70594324665704 kcal/mol)

>  <smiles>  (4) 
COc1ccc2c[n+](C)c3ccc4cc(OC)c(OC)cc4c3c2c1

>  <score_type>  (4) 
oracle

>  <origin>  (4) 
adg

>  <m_score__min__energy>  (4) 
-8.4900000000000002

>  <m_primary>  (4) 
energy

$$$$
4:0
     RDKit          3D

 47 48  0  0  0  0  0  0  0  0999 V2000
   -1.9050   21.1990  -32.2740 C   0  0  0  0  0  0  0  0  0  0  0  0
   -2.6400   20.7640  -33.5390 C   0  0  0  0  0  0  0  0  0  0  0  0
   -4.0340   20.4080  -33.2290 N   0  0  0  0  0  0  0  0  0  0  0  0
   -4.9780   21.3800  -32.7230 C   0  0  0  0  0  0  0  0  0  0  0  0
   -4.6860   22.6080  -32.7700 O   0  0  0  0  0  0  0  0  0  0  0  0
   -6.3340   20.9770  -32.2050 C   0  0  0  0  0  0  0  0  0  0  0  0
   -7.3650   21.9210  -32.6630 N   0  0  0  0  0  0  0  0  0  0  0  0
   -8.3310   22.2190  -31.5950 C   0  0  0  0  0  0  0  0  0  0  0  0
   -7.5860   22.6240  -30.3030 C   0  0  0  0  0  0  0  0  0  0  0  0
   -6.3690   23.4480  -30.5160 N   0  0  0  0  0  0  0  0  0  0  0  0
   -6.6540   24.9010  -30.4610 C   0  0  0  0  0  0  0  0  0  0  0  0
   -5.3540   25.7260  -30.3530 C   0  0  0  0  0  0  0  0  0  0  0  0
   -4.2520   24.9900  -30.8430 O   0  0  0  0  0  0  0  0  0  0  0  0
   -3.9820   23.8910  -29.9870 C   0  0  0  0  0  0  0  0  0  0  0  0
   -5.2530   23.0900  -29.6150 C   0  0  0  0  0  0  0  0  0  0  0  0
   -4.4890   19.0740  -33.5280 C   0  0  0  0  0  0  0  0  0  0  0  0
   -3.7720   17.9560  -33.0710 C   0  0  0  0  0  0  0  0  0  0  0  0
   -4.2160   16.6640  -33.3710 C   0  0  0  0  0  0  0  0  0  0  0  0
   -5.3790   16.4800  -34.1250 C   0  0  0  0  0  0  0  0  0  0  0  0
   -6.0990   17.5870  -34.5810 C   0  0  0  0  0  0  0  0  0  0  0  0
   -5.6580   18.8800  -34.2840 C   0  0  0  0  0  0  0  0  0  0  0  0
   -2.4681   20.8657  -31.3898 H   0  0  0  0  0  0  0  0  0  0  0  0
   -0.9011   20.7495  -32.2603 H   0  0  0  0  0  0  0  0  0  0  0  0
   -1.8160   22.2953  -32.2603 H   0  0  0  0  0  0  0  0  0  0  0  0
   -2.6304   21.5900  -34.2653 H   0  0  0  0  0  0  0  0  0  0  0  0
   -2.1331   19.8830  -33.9596 H   0  0  0  0  0  0  0  0  0  0  0  0
   -6.5770   19.9695  -32.5737 H   0  0  0  0  0  0  0  0  0  0  0  0
   -6.3100   20.9844  -31.1053 H   0  0  0  0  0  0  0  0  0  0  0  0
   -6.8800   22.8160  -32.9170 H   0  0  0  0  0  0  0  0  0  0  0  0
   -8.9823   23.0461  -31.9139 H   0  0  0  0  0  0  0  0  0  0  0  0
   -8.9356   21.3219  -31.3958 H   0  0  0  0  0  0  0  0  0  0  0  0
   -8.2815   23.1979  -29.6730 H   0  0  0  0  0  0  0  0  0  0  0  0
   -7.2471   21.6877  -29.8355 H   0  0  0  0  0  0  0  0  0  0  0  0
   -6.0500   23.2370  -31.4930 H   0  0  0  0  0  0  0  0  0  0  0  0
   -7.1899   25.1955  -31.3754 H   0  0  0  0  0  0  0  0  0  0  0  0
   -7.2657   25.1003  -29.5688 H   0  0  0  0  0  0  0  0  0  0  0  0
   -5.4622   26.6488  -30.9419 H   0  0  0  0  0  0  0  0  0  0  0  0
   -5.1754   25.9667  -29.2946 H   0  0  0  0  0  0  0  0  0  0  0  0
   -3.2777   23.2156  -30.4947 H   0  0  0  0  0  0  0  0  0  0  0  0
   -3.5620   24.2950  -29.0541 H   0  0  0  0  0  0  0  0  0  0  0  0
   -5.0434   22.0141  -29.7072 H   0  0  0  0  0  0  0  0  0  0  0  0
   -5.5376   23.3320  -28.5804 H   0  0  0  0  0  0  0  0  0  0  0  0
   -2.8582   18.0970  -32.4751 H   0  0  0  0  0  0  0  0  0  0  0  0
   -3.6495   15.7916  -33.0133 H   0  0  0  0  0  0  0  0  0  0  0  0
   -5.7272   15.4632  -34.3593 H   0  0  0  0  0  0  0  0  0  0  0  0
   -7.0137   17.4411  -35.1743 H   0  0  0  0  0  0  0  0  0  0  0  0
   -6.2283   19.7492  -34.6435 H   0  0  0  0  0  0  0  0  0  0  0  0
  1  2  1  0
  2  3  1  0
  3  4  1  0
  4  5  2  0
  4  6  1  0
  6  7  1  0
  7  8  1  0
  8  9  1  0
  9 10  1  0
 10 11  1  0
 11 12  1  0
 12 13  1  0
 13 14  1  0
 14 15  1  0
  3 16  1  0
 16 17  2  0
 17 18  1  0
 18 19  2  0
 19 20  1  0
 20 21  2  0
 15 10  1  0
 21 16  1  0
  1 22  1  0
  1 23  1  0
  1 24  1  0
  2 25  1  0
  2 26  1  0
  6 27  1  0
  6 28  1  0
  7 29  1  0
  8 30  1  0
  8 31  1  0
  9 32  1  0
  9 33  1  0
 10 34  1  0
 11 35  1  0
 11 36  1  0
 12 37  1  0
 12 38  1  0
 14 39  1  0
 14 40  1  0
 15 41  1  0
 15 42  1  0
 17 43  1  0
 18 44  1  0
 19 45  1  0
 20 46  1  0
 21 47  1  0
M  CHG  1  10   1
M  END
>  <UniqueID>  (5) 
5

>  <SMILES>  (5) 
CCN(C(=O)CNCC[NH+]1CCOCC1)c1ccccc1

>  <Energy>  (5) 
61.48074390341216

>  <Genealogy>  (5) 
CCN(C(=O)CNCC[NH+]1CCOCC1)c1ccccc1 (protonated)
CCN(C(=O)CNCC[NH+]1CCOCC1)c1ccccc1 (3D coordinates assigned)
CCN(C(=O)CNCC[NH+]1CCOCC1)c1ccccc1 (nonaromatic ring conformer: 61.48074390341216 kcal/mol)

>  <smiles>  (5) 
CCN(C(=O)CNCCN1CCOCC1)c1ccccc1

>  <score_type>  (5) 
oracle

>  <origin>  (5) 
adg

>  <m_score__min__energy>  (5) 
-5.4000000000000004

>  <m_primary>  (5) 
energy

$$$$
5:0
     RDKit          3D

 44 46  0  0  0  0  0  0  0  0999 V2000
   -3.8120   24.1460  -28.0760 C   0  0  0  0  0  0  0  0  0  0  0  0
   -3.0510   24.5780  -29.3330 C   0  0  0  0  0  0  0  0  0  0  0  0
   -3.9560   24.8370  -30.4720 N   0  0  0  0  0  0  0  0  0  0  0  0
   -4.9030   23.7460  -30.7840 C   0  0  0  0  0  0  0  0  0  0  0  0
   -6.1410   24.2360  -31.5720 C   0  0  0  0  0  0  0  0  0  0  0  0
   -7.1160   23.0730  -31.8100 C   0  0  0  0  0  0  0  0  0  0  0  0
   -6.4120   21.8590  -32.2570 N   0  0  0  0  0  0  0  0  0  0  0  0
   -7.1000   20.5930  -32.2580 C   0  0  0  0  0  0  0  0  0  0  0  0
   -6.4090   19.4090  -32.5530 C   0  0  0  0  0  0  0  0  0  0  0  0
   -7.1080   18.1920  -32.5520 C   0  0  0  0  0  0  0  0  0  0  0  0
   -6.4350   16.9020  -32.8530 C   0  0  0  0  0  0  0  0  0  0  0  0
   -5.3660   16.4660  -32.0480 C   0  0  0  0  0  0  0  0  0  0  0  0
   -4.7170   15.2580  -32.3220 C   0  0  0  0  0  0  0  0  0  0  0  0
   -5.1230   14.4750  -33.4050 C   0  0  0  0  0  0  0  0  0  0  0  0
   -6.1730   14.9010  -34.2190 C   0  0  0  0  0  0  0  0  0  0  0  0
   -6.8260   16.1080  -33.9500 C   0  0  0  0  0  0  0  0  0  0  0  0
   -8.4420   18.2010  -32.2840 N   0  0  0  0  0  0  0  0  0  0  0  0
   -9.1030   19.3530  -32.0050 C   0  0  0  0  0  0  0  0  0  0  0  0
   -8.4360   20.5360  -31.9920 N   0  0  0  0  0  0  0  0  0  0  0  0
   -4.9890   21.9340  -32.6110 C   0  0  0  0  0  0  0  0  0  0  0  0
   -4.1850   22.5370  -31.4500 C   0  0  0  0  0  0  0  0  0  0  0  0
   -3.2540   24.4628  -27.1825 H   0  0  0  0  0  0  0  0  0  0  0  0
   -4.8077   24.6136  -28.0713 H   0  0  0  0  0  0  0  0  0  0  0  0
   -3.9209   23.0514  -28.0713 H   0  0  0  0  0  0  0  0  0  0  0  0
   -2.4908   25.4979  -29.1094 H   0  0  0  0  0  0  0  0  0  0  0  0
   -2.3760   23.7575  -29.6178 H   0  0  0  0  0  0  0  0  0  0  0  0
   -3.4190   25.0830  -31.3360 H   0  0  0  0  0  0  0  0  0  0  0  0
   -5.3013   23.3797  -29.8263 H   0  0  0  0  0  0  0  0  0  0  0  0
   -6.6492   25.0236  -30.9963 H   0  0  0  0  0  0  0  0  0  0  0  0
   -5.8126   24.6323  -32.5442 H   0  0  0  0  0  0  0  0  0  0  0  0
   -7.6458   22.8534  -30.8713 H   0  0  0  0  0  0  0  0  0  0  0  0
   -7.8222   23.3716  -32.5987 H   0  0  0  0  0  0  0  0  0  0  0  0
   -5.3334   19.4338  -32.7821 H   0  0  0  0  0  0  0  0  0  0  0  0
   -5.0384   17.0804  -31.1964 H   0  0  0  0  0  0  0  0  0  0  0  0
   -3.8857   14.9240  -31.6838 H   0  0  0  0  0  0  0  0  0  0  0  0
   -4.6149   13.5225  -33.6161 H   0  0  0  0  0  0  0  0  0  0  0  0
   -6.4881   14.2858  -35.0747 H   0  0  0  0  0  0  0  0  0  0  0  0
   -7.6501   16.4399  -34.5987 H   0  0  0  0  0  0  0  0  0  0  0  0
  -10.1813   19.3285  -31.7889 H   0  0  0  0  0  0  0  0  0  0  0  0
   -8.9730   21.4110  -31.8010 H   0  0  0  0  0  0  0  0  0  0  0  0
   -4.6142   20.9224  -32.8258 H   0  0  0  0  0  0  0  0  0  0  0  0
   -4.8730   22.5736  -33.4984 H   0  0  0  0  0  0  0  0  0  0  0  0
   -4.0285   21.7583  -30.6890 H   0  0  0  0  0  0  0  0  0  0  0  0
   -3.2325   22.9027  -31.8612 H   0  0  0  0  0  0  0  0  0  0  0  0
  1  2  1  0
  2  3  1  0
  3  4  1  0
  4  5  1  0
  5  6  1  0
  6  7  1  0
  7  8  1  0
  8  9  2  0
  9 10  1  0
 10 11  1  0
 11 12  2  0
 12 13  1  0
 13 14  2  0
 14 15  1  0
 15 16  2  0
 10 17  2  0
 17 18  1  0
 18 19  2  0
  7 20  1  0
 20 21  1  0
 21  4  1  0
 19  8  1  0
 16 11  1  0
  1 22  1  0
  1 23  1  0
  1 24  1  0
  2 25  1  0
  2 26  1  0
  3 27  1  0
  4 28  1  0
  5 29  1  0
  5 30  1  0
  6 31  1  0
  6 32  1  0
  9 33  1  0
 12 34  1  0
 13 35  1  0
 14 36  1  0
 15 37  1  0
 16 38  1  0
 18 39  1  0
 19 40  1  0
 20 41  1  0
 20 42  1  0
 21 43  1  0
 21 44  1  0
M  CHG  1  19   1
M  END
>  <UniqueID>  (6) 
6

>  <SMILES>  (6) 
CCNC1CCN(c2cc(-c3ccccc3)nc[nH+]2)CC1

>  <Energy>  (6) 
58.228543674883454

>  <Genealogy>  (6) 
CCNC1CCN(c2cc(-c3ccccc3)nc[nH+]2)CC1 (protonated)
CCNC1CCN(c2cc(-c3ccccc3)nc[nH+]2)CC1 (3D coordinates assigned)
CCNC1CCN(c2cc(-c3ccccc3)nc[nH+]2)CC1 (nonaromatic ring conformer: 58.228543674883454 kcal/mol)

>  <smiles>  (6) 
CCNC1CCN(c2cc(-c3ccccc3)ncn2)CC1

>  <score_type>  (6) 
oracle

>  <origin>  (6) 
adg

>  <m_score__min__energy>  (6) 
-7.6100000000000003

>  <m_primary>  (6) 
energy

$$$$
6:0
     RDKit          3D

 58 62  0  0  0  0  0  0  0  0999 V2000
   -1.2080   20.7540  -34.2800 C   0  0  0  0  0  0  0  0  0  0  0  0
   -1.0500   19.2240  -34.2360 C   0  0  0  0  0  0  0  0  0  0  0  0
   -1.9640   18.5290  -33.2880 N   0  0  2  0  0  0  0  0  0  0  0  0
   -1.3850   17.2580  -32.8110 C   0  0  0  0  0  0  0  0  0  0  0  0
   -3.3300   18.2940  -33.8160 C   0  0  0  0  0  0  0  0  0  0  0  0
   -4.4140   18.3150  -32.7210 C   0  0  0  0  0  0  0  0  0  0  0  0
   -4.8770   19.6880  -32.5150 N   0  0  0  0  0  0  0  0  0  0  0  0
   -4.0720   20.7660  -32.3440 C   0  0  0  0  0  0  0  0  0  0  0  0
   -4.8150   21.8530  -31.9040 C   0  0  0  0  0  0  0  0  0  0  0  0
   -4.2790   23.0950  -31.3340 C   0  0  0  0  0  0  0  0  0  0  0  0
   -3.1830   23.1850  -30.5840 C   0  0  0  0  0  0  0  0  0  0  0  0
   -2.2320   22.0920  -30.3130 C   0  0  0  0  0  0  0  0  0  0  0  0
   -1.2440   21.6240  -31.1740 C   0  0  0  0  0  0  0  0  0  0  0  0
   -0.6120   20.5590  -30.6290 N   0  0  0  0  0  0  0  0  0  0  0  0
    0.4190   19.7520  -31.2790 C   0  0  0  0  0  0  0  0  0  0  0  0
   -1.2090   20.3270  -29.4420 C   0  0  0  0  0  0  0  0  0  0  0  0
   -0.9570   19.2880  -28.5410 C   0  0  0  0  0  0  0  0  0  0  0  0
   -1.7500   19.2150  -27.3810 C   0  0  0  0  0  0  0  0  0  0  0  0
   -2.7740   20.1610  -27.1520 C   0  0  0  0  0  0  0  0  0  0  0  0
   -3.0140   21.1920  -28.0810 C   0  0  0  0  0  0  0  0  0  0  0  0
   -2.2010   21.2530  -29.2130 C   0  0  0  0  0  0  0  0  0  0  0  0
   -3.1700   24.5230  -29.9950 C   0  0  0  0  0  0  0  0  0  0  0  0
   -2.2630   24.9730  -29.2460 O   0  0  0  0  0  0  0  0  0  0  0  0
   -4.3100   25.2850  -30.3830 N   0  0  0  0  0  0  0  0  0  0  0  0
   -5.0000   24.3600  -31.2170 C   0  0  0  0  0  0  0  0  0  0  0  0
   -6.1080   24.6130  -31.7590 O   0  0  0  0  0  0  0  0  0  0  0  0
   -6.1150   21.4020  -31.7800 C   0  0  0  0  0  0  0  0  0  0  0  0
   -7.2510   22.0270  -31.2610 C   0  0  0  0  0  0  0  0  0  0  0  0
   -8.4340   21.2710  -31.1680 C   0  0  0  0  0  0  0  0  0  0  0  0
   -8.4510   19.9190  -31.5730 C   0  0  0  0  0  0  0  0  0  0  0  0
   -7.2830   19.3070  -32.0670 C   0  0  0  0  0  0  0  0  0  0  0  0
   -6.1210   20.0840  -32.1640 C   0  0  0  0  0  0  0  0  0  0  0  0
   -1.2487   21.1481  -33.2538 H   0  0  0  0  0  0  0  0  0  0  0  0
   -0.3507   21.1961  -34.8088 H   0  0  0  0  0  0  0  0  0  0  0  0
   -2.1375   21.0116  -34.8088 H   0  0  0  0  0  0  0  0  0  0  0  0
   -1.2408   18.8311  -35.2456 H   0  0  0  0  0  0  0  0  0  0  0  0
   -0.0277   19.0283  -33.8802 H   0  0  0  0  0  0  0  0  0  0  0  0
   -2.0540   19.1470  -32.4440 H   0  0  0  0  0  0  0  0  0  0  0  0
   -1.3801   17.2473  -31.7111 H   0  0  0  0  0  0  0  0  0  0  0  0
   -1.9890   16.4174  -33.1832 H   0  0  0  0  0  0  0  0  0  0  0  0
   -0.3543   17.1621  -33.1832 H   0  0  0  0  0  0  0  0  0  0  0  0
   -3.5606   19.0785  -34.5518 H   0  0  0  0  0  0  0  0  0  0  0  0
   -3.3390   17.2906  -34.2668 H   0  0  0  0  0  0  0  0  0  0  0  0
   -5.2609   17.6858  -33.0322 H   0  0  0  0  0  0  0  0  0  0  0  0
   -3.9924   17.9268  -31.7821 H   0  0  0  0  0  0  0  0  0  0  0  0
   -2.9875   20.7774  -32.5274 H   0  0  0  0  0  0  0  0  0  0  0  0
   -1.0102   22.0580  -32.1574 H   0  0  0  0  0  0  0  0  0  0  0  0
    1.0408   19.2653  -30.5131 H   0  0  0  0  0  0  0  0  0  0  0  0
   -0.0575   18.9844  -31.9065 H   0  0  0  0  0  0  0  0  0  0  0  0
    1.0496   20.3989  -31.9065 H   0  0  0  0  0  0  0  0  0  0  0  0
   -0.1636   18.5507  -28.7330 H   0  0  0  0  0  0  0  0  0  0  0  0
   -1.5713   18.4154  -26.6470 H   0  0  0  0  0  0  0  0  0  0  0  0
   -3.3880   20.0919  -26.2419 H   0  0  0  0  0  0  0  0  0  0  0  0
   -3.8172   21.9260  -27.9191 H   0  0  0  0  0  0  0  0  0  0  0  0
   -7.2218   23.0772  -30.9352 H   0  0  0  0  0  0  0  0  0  0  0  0
   -9.3510   21.7363  -30.7774 H   0  0  0  0  0  0  0  0  0  0  0  0
   -9.3832   19.3394  -31.5022 H   0  0  0  0  0  0  0  0  0  0  0  0
   -7.2828   18.2490  -32.3682 H   0  0  0  0  0  0  0  0  0  0  0  0
  1  2  1  0
  2  3  1  0
  3  4  1  0
  3  5  1  0
  5  6  1  0
  6  7  1  0
  7  8  1  0
  8  9  2  0
  9 10  1  0
 10 11  2  0
 11 12  1  0
 12 13  2  0
 13 14  1  0
 14 15  1  0
 14 16  1  0
 16 17  2  0
 17 18  1  0
 18 19  2  0
 19 20  1  0
 20 21  2  0
 11 22  1  0
 22 23  2  0
 22 24  1  0
 24 25  1  0
 25 26  2  0
  9 27  1  0
 27 28  2  0
 28 29  1  0
 29 30  2  0
 30 31  1  0
 31 32  2  0
 32  7  1  0
 25 10  1  0
 32 27  1  0
 21 12  1  0
 21 16  1  0
  1 33  1  0
  1 34  1  0
  1 35  1  0
  2 36  1  0
  2 37  1  0
  3 38  1  1
  4 39  1  0
  4 40  1  0
  4 41  1  0
  5 42  1  0
  5 43  1  0
  6 44  1  0
  6 45  1  0
  8 46  1  0
 13 47  1  0
 15 48  1  0
 15 49  1  0
 15 50  1  0
 17 51  1  0
 18 52  1  0
 19 53  1  0
 20 54  1  0
 28 55  1  0
 29 56  1  0
 30 57  1  0
 31 58  1  0
M  CHG  2   3   1  24  -1
M  END
>  <UniqueID>  (7) 
7

>  <SMILES>  (7) 
CC[N@H+](C)CCn1cc(C2=C(c3cn(C)c4ccccc34)C(=O)[N-]C2=O)c2ccccc21

>  <Energy>  (7) 
165.33322193322306

>  <Genealogy>  (7) 
CC[NH+](C)CCn1cc(C2=C(c3cn(C)c4ccccc34)C(=O)[N-]C2=O)c2ccccc21 (protonated)
CC[N@H+](C)CCn1cc(C2=C(c3cn(C)c4ccccc34)C(=O)[N-]C2=O)c2ccccc21 (chirality)
CC[N@H+](C)CCn1cc(C2=C(c3cn(C)c4ccccc34)C(=O)[N-]C2=O)c2ccccc21 (3D coordinates assigned)
CC[N@H+](C)CCn1cc(C2=C(c3cn(C)c4ccccc34)C(=O)[N-]C2=O)c2ccccc21 (nonaromatic ring conformer: 165.33322193322306 kcal/mol)

>  <smiles>  (7) 
CCN(C)CCn1cc(C2=C(c3cn(C)c4ccccc34)C(=O)NC2=O)c2ccccc21

>  <score_type>  (7) 
oracle

>  <origin>  (7) 
adg

>  <m_score__min__energy>  (7) 
-10.880000000000001

>  <m_primary>  (7) 
energy

$$$$
7:0
     RDKit          3D

 55 56  0  0  0  0  0  0  0  0999 V2000
   -9.4720   22.2210  -31.8830 C   0  0  0  0  0  0  0  0  0  0  0  0
   -9.0910   21.2270  -30.7860 C   0  0  0  0  0  0  0  0  0  0  0  0
   -8.2520   20.0650  -31.3240 C   0  0  0  0  0  0  0  0  0  0  0  0
   -7.8810   20.2940  -33.0980 S   0  0  0  0  0  0  0  0  0  0  0  0
   -6.0880   20.3240  -32.8460 C   0  0  0  0  0  0  0  0  0  0  0  0
   -5.2980   19.2650  -33.3390 C   0  0  0  0  0  0  0  0  0  0  0  0
   -5.9280   18.1520  -34.0130 C   0  0  0  0  0  0  0  0  0  0  0  0
   -6.4300   17.2590  -34.5520 N   0  0  0  0  0  0  0  0  0  0  0  0
   -3.8990   19.2860  -33.1480 C   0  0  0  0  0  0  0  0  0  0  0  0
   -3.0770   18.2090  -33.6580 N   0  0  0  0  0  0  0  0  0  0  0  0
   -1.6920   17.9630  -33.2530 C   0  0  0  0  0  0  0  0  0  0  0  0
   -0.7290   18.8640  -34.0320 C   0  0  0  0  0  0  0  0  0  0  0  0
   -0.8750   20.2070  -33.6100 O   0  0  0  0  0  0  0  0  0  0  0  0
    0.2360   20.6040  -32.8340 C   0  0  0  0  0  0  0  0  0  0  0  0
   -0.2560   21.3730  -31.6100 C   0  0  0  0  0  0  0  0  0  0  0  0
   -0.9390   20.4540  -30.6700 N   0  0  0  0  0  0  0  0  0  0  0  0
   -0.1410   19.2310  -30.4680 C   0  0  0  0  0  0  0  0  0  0  0  0
   -1.2090   21.1060  -29.3700 C   0  0  0  0  0  0  0  0  0  0  0  0
   -1.7930   20.1000  -28.3800 C   0  0  0  0  0  0  0  0  0  0  0  0
   -3.3290   20.3380  -32.4860 N   0  0  0  0  0  0  0  0  0  0  0  0
   -4.0640   21.3760  -32.0000 C   0  0  0  0  0  0  0  0  0  0  0  0
   -3.4250   22.4330  -31.3290 C   0  0  0  0  0  0  0  0  0  0  0  0
   -4.1670   23.5040  -30.8280 C   0  0  0  0  0  0  0  0  0  0  0  0
   -5.5520   23.5340  -30.9950 C   0  0  0  0  0  0  0  0  0  0  0  0
   -6.4790   24.8840  -30.3660 Cl  0  0  0  0  0  0  0  0  0  0  0  0
   -6.2020   22.4900  -31.6610 C   0  0  0  0  0  0  0  0  0  0  0  0
   -5.4680   21.3980  -32.1710 C   0  0  0  0  0  0  0  0  0  0  0  0
   -9.8298   23.1544  -31.4239 H   0  0  0  0  0  0  0  0  0  0  0  0
   -8.5916   22.4334  -32.5073 H   0  0  0  0  0  0  0  0  0  0  0  0
  -10.2689   21.7905  -32.5073 H   0  0  0  0  0  0  0  0  0  0  0  0
   -8.5110   21.7555  -30.0151 H   0  0  0  0  0  0  0  0  0  0  0  0
  -10.0203   20.8089  -30.3717 H   0  0  0  0  0  0  0  0  0  0  0  0
   -7.3075   20.0127  -30.7625 H   0  0  0  0  0  0  0  0  0  0  0  0
   -8.8239   19.1333  -31.2024 H   0  0  0  0  0  0  0  0  0  0  0  0
   -3.4690   17.5550  -34.3710 H   0  0  0  0  0  0  0  0  0  0  0  0
   -1.5887   18.1695  -32.1775 H   0  0  0  0  0  0  0  0  0  0  0  0
   -1.4434   16.9131  -33.4670 H   0  0  0  0  0  0  0  0  0  0  0  0
    0.3049   18.5354  -33.8504 H   0  0  0  0  0  0  0  0  0  0  0  0
   -0.9588   18.7956  -35.1056 H   0  0  0  0  0  0  0  0  0  0  0  0
    0.7949   19.7140  -32.5092 H   0  0  0  0  0  0  0  0  0  0  0  0
    0.8954   21.2478  -33.4346 H   0  0  0  0  0  0  0  0  0  0  0  0
    0.6026   21.8386  -31.1039 H   0  0  0  0  0  0  0  0  0  0  0  0
   -0.9659   22.1482  -31.9342 H   0  0  0  0  0  0  0  0  0  0  0  0
   -0.0202   19.0458  -29.3905 H   0  0  0  0  0  0  0  0  0  0  0  0
   -0.6559   18.3765  -30.9314 H   0  0  0  0  0  0  0  0  0  0  0  0
    0.8485   19.3581  -30.9314 H   0  0  0  0  0  0  0  0  0  0  0  0
   -0.2692   21.5093  -28.9648 H   0  0  0  0  0  0  0  0  0  0  0  0
   -1.9347   21.9184  -29.5226 H   0  0  0  0  0  0  0  0  0  0  0  0
   -1.5957   20.4398  -27.3526 H   0  0  0  0  0  0  0  0  0  0  0  0
   -2.8787   20.0188  -28.5372 H   0  0  0  0  0  0  0  0  0  0  0  0
   -1.3252   19.1169  -28.5372 H   0  0  0  0  0  0  0  0  0  0  0  0
   -2.2950   20.3660  -32.3500 H   0  0  0  0  0  0  0  0  0  0  0  0
   -2.3330   22.4161  -31.1978 H   0  0  0  0  0  0  0  0  0  0  0  0
   -3.6593   24.3252  -30.3010 H   0  0  0  0  0  0  0  0  0  0  0  0
   -7.2942   22.5203  -31.7883 H   0  0  0  0  0  0  0  0  0  0  0  0
  1  2  1  0
  2  3  1  0
  3  4  1  0
  4  5  1  0
  5  6  2  0
  6  7  1  0
  7  8  3  0
  6  9  1  0
  9 10  1  0
 10 11  1  0
 11 12  1  0
 12 13  1  0
 13 14  1  0
 14 15  1  0
 15 16  1  0
 16 17  1  0
 16 18  1  0
 18 19  1  0
  9 20  2  0
 20 21  1  0
 21 22  2  0
 22 23  1  0
 23 24  2  0
 24 25  1  0
 24 26  1  0
 26 27  2  0
 27  5  1  0
 27 21  1  0
  1 28  1  0
  1 29  1  0
  1 30  1  0
  2 31  1  0
  2 32  1  0
  3 33  1  0
  3 34  1  0
 10 35  1  0
 11 36  1  0
 11 37  1  0
 12 38  1  0
 12 39  1  0
 14 40  1  0
 14 41  1  0
 15 42  1  0
 15 43  1  0
 17 44  1  0
 17 45  1  0
 17 46  1  0
 18 47  1  0
 18 48  1  0
 19 49  1  0
 19 50  1  0
 19 51  1  0
 20 52  1  0
 22 53  1  0
 23 54  1  0
 26 55  1  0
M  CHG  1  20   1
M  END
>  <UniqueID>  (8) 
8

>  <SMILES>  (8) 
CCCSc1c(C#N)c(NCCOCCN(C)CC)[nH+]c2ccc(Cl)cc12

>  <Energy>  (8) 
50.3457472515389

>  <Genealogy>  (8) 
CCCSc1c(C#N)c(NCCOCCN(C)CC)[nH+]c2ccc(Cl)cc12 (protonated)
CCCSc1c(C#N)c(NCCOCCN(C)CC)[nH+]c2ccc(Cl)cc12 (3D coordinates assigned)
CCCSc1c(C#N)c(NCCOCCN(C)CC)[nH+]c2ccc(Cl)cc12 (optimized conformer: 50.3457472515389 kcal/mol)

>  <smiles>  (8) 
CCCSc1c(C#N)c(NCCOCCN(C)CC)nc2ccc(Cl)cc12

>  <score_type>  (8) 
oracle

>  <origin>  (8) 
adg

>  <m_score__min__energy>  (8) 
-7.2199999999999998

>  <m_primary>  (8) 
energy

$$$$
8:0
     RDKit          3D

 48 49  0  0  0  0  0  0  0  0999 V2000
   -9.2260   19.4020  -32.5900 C   0  0  0  0  0  0  0  0  0  0  0  0
   -8.4560   18.5280  -31.6010 C   0  0  0  0  0  0  0  0  0  0  0  0
   -7.0300   18.4090  -31.9840 N   0  0  0  0  0  0  0  0  0  0  0  0
   -6.3100   17.4270  -31.1300 C   0  0  0  0  0  0  0  0  0  0  0  0
   -5.4720   16.5010  -32.0050 C   0  0  0  0  0  0  0  0  0  0  0  0
   -6.9000   18.0910  -33.4270 C   0  0  0  0  0  0  0  0  0  0  0  0
   -5.9800   19.0930  -34.1300 C   0  0  0  0  0  0  0  0  0  0  0  0
   -4.8980   19.4620  -33.2810 O   0  0  0  0  0  0  0  0  0  0  0  0
   -4.4540   20.7810  -33.1480 C   0  0  0  0  0  0  0  0  0  0  0  0
   -3.3350   21.1210  -33.6220 O   0  0  0  0  0  0  0  0  0  0  0  0
   -5.3050   21.7760  -32.4590 C   0  0  0  0  0  0  0  0  0  0  0  0
   -6.6890   21.5650  -32.3430 C   0  0  0  0  0  0  0  0  0  0  0  0
   -7.4960   22.5010  -31.6940 C   0  0  0  0  0  0  0  0  0  0  0  0
   -6.9340   23.6620  -31.1600 C   0  0  0  0  0  0  0  0  0  0  0  0
   -5.5560   23.9030  -31.2800 C   0  0  0  0  0  0  0  0  0  0  0  0
   -4.9700   25.1450  -30.7220 C   0  0  0  0  0  0  0  0  0  0  0  0
   -5.7210   26.1230  -30.4700 O   0  0  0  0  0  0  0  0  0  0  0  0
   -3.5730   25.2540  -30.4120 N   0  0  0  0  0  0  0  0  0  0  0  0
   -2.8850   24.5710  -29.3530 C   0  0  0  0  0  0  0  0  0  0  0  0
   -1.5820   24.9340  -28.9620 C   0  0  0  0  0  0  0  0  0  0  0  0
   -0.9460   24.2520  -27.9210 C   0  0  0  0  0  0  0  0  0  0  0  0
   -1.6080   23.2190  -27.2520 C   0  0  0  0  0  0  0  0  0  0  0  0
   -2.9110   22.8710  -27.6190 C   0  0  0  0  0  0  0  0  0  0  0  0
   -3.5490   23.5490  -28.6610 C   0  0  0  0  0  0  0  0  0  0  0  0
   -4.7450   22.9480  -31.9170 C   0  0  0  0  0  0  0  0  0  0  0  0
   -9.8545   20.1154  -32.0368 H   0  0  0  0  0  0  0  0  0  0  0  0
   -8.5150   19.9536  -33.2226 H   0  0  0  0  0  0  0  0  0  0  0  0
   -9.8628   18.7662  -33.2226 H   0  0  0  0  0  0  0  0  0  0  0  0
   -8.5215   18.9776  -30.5992 H   0  0  0  0  0  0  0  0  0  0  0  0
   -8.9018   17.5224  -31.6065 H   0  0  0  0  0  0  0  0  0  0  0  0
   -5.6519   17.9639  -30.4309 H   0  0  0  0  0  0  0  0  0  0  0  0
   -7.0416   16.8306  -30.5651 H   0  0  0  0  0  0  0  0  0  0  0  0
   -4.8712   15.8371  -31.3660 H   0  0  0  0  0  0  0  0  0  0  0  0
   -6.1361   15.8963  -32.6401 H   0  0  0  0  0  0  0  0  0  0  0  0
   -4.8042   17.1016  -32.6401 H   0  0  0  0  0  0  0  0  0  0  0  0
   -6.4805   17.0800  -33.5360 H   0  0  0  0  0  0  0  0  0  0  0  0
   -7.8967   18.1471  -33.8890 H   0  0  0  0  0  0  0  0  0  0  0  0
   -5.5801   18.6350  -35.0467 H   0  0  0  0  0  0  0  0  0  0  0  0
   -6.5603   19.9944  -34.3765 H   0  0  0  0  0  0  0  0  0  0  0  0
   -7.1401   20.6556  -32.7667 H   0  0  0  0  0  0  0  0  0  0  0  0
   -8.5777   22.3233  -31.6031 H   0  0  0  0  0  0  0  0  0  0  0  0
   -7.5741   24.3918  -30.6426 H   0  0  0  0  0  0  0  0  0  0  0  0
   -1.0635   25.7562  -29.4770 H   0  0  0  0  0  0  0  0  0  0  0  0
    0.0774   24.5288  -27.6278 H   0  0  0  0  0  0  0  0  0  0  0  0
   -1.1036   22.6798  -26.4366 H   0  0  0  0  0  0  0  0  0  0  0  0
   -3.4346   22.0629  -27.0872 H   0  0  0  0  0  0  0  0  0  0  0  0
   -4.5783   23.2791  -28.9398 H   0  0  0  0  0  0  0  0  0  0  0  0
   -3.6609   23.1184  -31.9927 H   0  0  0  0  0  0  0  0  0  0  0  0
  1  2  1  0
  2  3  1  0
  3  4  1  0
  4  5  1  0
  3  6  1  0
  6  7  1  0
  7  8  1  0
  8  9  1  0
  9 10  2  0
  9 11  1  0
 11 12  2  0
 12 13  1  0
 13 14  2  0
 14 15  1  0
 15 16  1  0
 16 17  2  0
 16 18  1  0
 18 19  1  0
 19 20  2  0
 20 21  1  0
 21 22  2  0
 22 23  1  0
 23 24  2  0
 15 25  2  0
 25 11  1  0
 24 19  1  0
  1 26  1  0
  1 27  1  0
  1 28  1  0
  2 29  1  0
  2 30  1  0
  4 31  1  0
  4 32  1  0
  5 33  1  0
  5 34  1  0
  5 35  1  0
  6 36  1  0
  6 37  1  0
  7 38  1  0
  7 39  1  0
 12 40  1  0
 13 41  1  0
 14 42  1  0
 20 43  1  0
 21 44  1  0
 22 45  1  0
 23 46  1  0
 24 47  1  0
 25 48  1  0
M  CHG  1  18  -1
M  END
>  <UniqueID>  (9) 
9

>  <SMILES>  (9) 
CCN(CC)CCOC(=O)c1cccc(C(=O)[N-]c2ccccc2)c1

>  <Energy>  (9) 
51.04540287322252

>  <Genealogy>  (9) 
CCN(CC)CCOC(=O)c1cccc(C(=O)[N-]c2ccccc2)c1 (protonated)
CCN(CC)CCOC(=O)c1cccc(C(=O)[N-]c2ccccc2)c1 (3D coordinates assigned)
CCN(CC)CCOC(=O)c1cccc(C(=O)[N-]c2ccccc2)c1 (optimized conformer: 51.04540287322252 kcal/mol)

>  <smiles>  (9) 
CCN(CC)CCOC(=O)c1cccc(C(=O)Nc2ccccc2)c1

>  <score_type>  (9) 
oracle

>  <origin>  (9) 
adg

>  <m_score__min__energy>  (9) 
-9.5899999999999999

>  <m_primary>  (9) 
energy

$$$$
9:0
     RDKit          3D

 53 55  0  0  0  0  0  0  0  0999 V2000
    1.3020   24.6380  -26.3630 C   0  0  0  0  0  0  0  0  0  0  0  0
    0.9940   24.8280  -27.7390 O   0  0  0  0  0  0  0  0  0  0  0  0
   -0.0260   24.1570  -28.4360 C   0  0  0  0  0  0  0  0  0  0  0  0
    0.0320   22.7650  -28.6230 C   0  0  0  0  0  0  0  0  0  0  0  0
   -0.9760   22.0940  -29.3020 C   0  0  0  0  0  0  0  0  0  0  0  0
   -2.0630   22.7930  -29.8350 C   0  0  0  0  0  0  0  0  0  0  0  0
   -3.1520   22.0090  -30.5280 C   0  0  0  0  0  0  0  0  0  0  0  0
   -2.6290   21.3740  -31.7590 N   0  0  0  0  0  0  0  0  0  0  0  0
   -2.6210   19.9010  -31.6580 C   0  0  0  0  0  0  0  0  0  0  0  0
   -3.3290   21.8420  -32.9780 C   0  0  0  0  0  0  0  0  0  0  0  0
   -4.7760   22.2000  -32.7320 C   0  0  0  0  0  0  0  0  0  0  0  0
   -5.0640   23.3670  -32.3470 O   0  0  0  0  0  0  0  0  0  0  0  0
   -5.8200   21.2270  -32.9230 N   0  0  0  0  0  0  0  0  0  0  0  0
   -5.6080   19.8650  -33.4280 C   0  0  0  0  0  0  0  0  0  0  0  0
   -6.9300   19.1010  -33.1750 C   0  0  0  0  0  0  0  0  0  0  0  0
   -7.8270   20.1450  -32.6080 C   0  0  0  0  0  0  0  0  0  0  0  0
   -9.1750   20.0220  -32.2660 C   0  0  0  0  0  0  0  0  0  0  0  0
   -9.8480   21.1590  -31.7860 C   0  0  0  0  0  0  0  0  0  0  0  0
   -9.1710   22.3890  -31.6660 C   0  0  0  0  0  0  0  0  0  0  0  0
   -7.8150   22.4880  -32.0170 C   0  0  0  0  0  0  0  0  0  0  0  0
   -7.1610   21.3360  -32.4720 C   0  0  0  0  0  0  0  0  0  0  0  0
   -2.1560   24.1910  -29.6650 C   0  0  0  0  0  0  0  0  0  0  0  0
   -3.2870   24.8300  -30.2180 O   0  0  0  0  0  0  0  0  0  0  0  0
   -4.6330   24.7380  -29.7660 C   0  0  0  0  0  0  0  0  0  0  0  0
   -1.1320   24.8860  -28.9550 C   0  0  0  0  0  0  0  0  0  0  0  0
   -1.2540   26.2800  -28.7990 O   0  0  0  0  0  0  0  0  0  0  0  0
   -0.8310   27.0670  -27.6920 C   0  0  0  0  0  0  0  0  0  0  0  0
    0.5277   25.1156  -25.7446 H   0  0  0  0  0  0  0  0  0  0  0  0
    1.3366   23.5613  -26.1403 H   0  0  0  0  0  0  0  0  0  0  0  0
    2.2797   25.0901  -26.1403 H   0  0  0  0  0  0  0  0  0  0  0  0
    0.8879   22.1996  -28.2258 H   0  0  0  0  0  0  0  0  0  0  0  0
   -0.9188   21.0020  -29.4217 H   0  0  0  0  0  0  0  0  0  0  0  0
   -3.5251   21.2287  -29.8483 H   0  0  0  0  0  0  0  0  0  0  0  0
   -3.9672   22.6956  -30.8000 H   0  0  0  0  0  0  0  0  0  0  0  0
   -2.6194   19.6061  -30.5983 H   0  0  0  0  0  0  0  0  0  0  0  0
   -3.5170   19.4948  -32.1502 H   0  0  0  0  0  0  0  0  0  0  0  0
   -1.7207   19.5046  -32.1502 H   0  0  0  0  0  0  0  0  0  0  0  0
   -2.8085   22.7325  -33.3601 H   0  0  0  0  0  0  0  0  0  0  0  0
   -3.3153   21.0136  -33.7016 H   0  0  0  0  0  0  0  0  0  0  0  0
   -5.3807   19.8882  -34.5040 H   0  0  0  0  0  0  0  0  0  0  0  0
   -4.7603   19.3777  -32.9241 H   0  0  0  0  0  0  0  0  0  0  0  0
   -7.3382   18.6985  -34.1138 H   0  0  0  0  0  0  0  0  0  0  0  0
   -6.8050   18.2339  -32.5098 H   0  0  0  0  0  0  0  0  0  0  0  0
   -9.6974   19.0595  -32.3695 H   0  0  0  0  0  0  0  0  0  0  0  0
  -10.9085   21.0882  -31.5026 H   0  0  0  0  0  0  0  0  0  0  0  0
   -9.7070   23.2754  -31.2958 H   0  0  0  0  0  0  0  0  0  0  0  0
   -7.2800   23.4458  -31.9367 H   0  0  0  0  0  0  0  0  0  0  0  0
   -4.6512   24.7368  -28.6662 H   0  0  0  0  0  0  0  0  0  0  0  0
   -5.2055   25.5991  -30.1412 H   0  0  0  0  0  0  0  0  0  0  0  0
   -5.0830   23.8070  -30.1412 H   0  0  0  0  0  0  0  0  0  0  0  0
   -1.1040   26.5590  -26.7553 H   0  0  0  0  0  0  0  0  0  0  0  0
    0.2602   27.2001  -27.7324 H   0  0  0  0  0  0  0  0  0  0  0  0
   -1.3220   28.0505  -27.7324 H   0  0  0  0  0  0  0  0  0  0  0  0
  1  2  1  0
  2  3  1  0
  3  4  2  0
  4  5  1  0
  5  6  2  0
  6  7  1  0
  7  8  1  0
  8  9  1  0
  8 10  1  0
 10 11  1  0
 11 12  2  0
 11 13  1  0
 13 14  1  0
 14 15  1  0
 15 16  1  0
 16 17  2  0
 17 18  1  0
 18 19  2  0
 19 20  1  0
 20 21  2  0
  6 22  1  0
 22 23  1  0
 23 24  1  0
 22 25  2  0
 25 26  1  0
 26 27  1  0
 25  3  1  0
 21 13  1  0
 21 16  1  0
  1 28  1  0
  1 29  1  0
  1 30  1  0
  4 31  1  0
  5 32  1  0
  7 33  1  0
  7 34  1  0
  9 35  1  0
  9 36  1  0
  9 37  1  0
 10 38  1  0
 10 39  1  0
 14 40  1  0
 14 41  1  0
 15 42  1  0
 15 43  1  0
 17 44  1  0
 18 45  1  0
 19 46  1  0
 20 47  1  0
 24 48  1  0
 24 49  1  0
 24 50  1  0
 27 51  1  0
 27 52  1  0
 27 53  1  0
M  END
>  <UniqueID>  (10) 
10

>  <SMILES>  (10) 
COc1ccc(CN(C)CC(=O)N2CCc3ccccc32)c(OC)c1OC

>  <Energy>  (10) 
79.69621457177871

>  <Genealogy>  (10) 
COc1ccc(CN(C)CC(=O)N2CCc3ccccc32)c(OC)c1OC (3D coordinates assigned)
COc1ccc(CN(C)CC(=O)N2CCc3ccccc32)c(OC)c1OC (nonaromatic ring conformer: 79.69621457177871 kcal/mol)

>  <smiles>  (10) 
COc1ccc(CN(C)CC(=O)N2CCc3ccccc32)c(OC)c1OC

>  <score_type>  (10) 
oracle

>  <origin>  (10) 
adg

>  <m_score__min__energy>  (10) 
-9.5999999999999996

>  <m_primary>  (10) 
energy

$$$$
10:0
     RDKit          3D

 42 44  0  0  0  0  0  0  0  0999 V2000
   -8.9140   18.5980  -31.5210 C   0  0  0  0  0  0  0  0  0  0  0  0
   -8.4790   19.5190  -32.6590 C   0  0  0  0  0  0  0  0  0  0  0  0
   -7.0150   19.5550  -32.8020 N   0  0  0  0  0  0  0  0  0  0  0  0
   -6.3040   18.4460  -33.3910 C   0  0  0  0  0  0  0  0  0  0  0  0
   -5.7540   18.5430  -34.6830 C   0  0  0  0  0  0  0  0  0  0  0  0
   -5.0780   17.4580  -35.2480 C   0  0  0  0  0  0  0  0  0  0  0  0
   -4.9490   16.2640  -34.5340 C   0  0  0  0  0  0  0  0  0  0  0  0
   -5.4970   16.1520  -33.2550 C   0  0  0  0  0  0  0  0  0  0  0  0
   -5.3730   14.9930  -32.5630 F   0  0  0  0  0  0  0  0  0  0  0  0
   -6.1740   17.2360  -32.6850 C   0  0  0  0  0  0  0  0  0  0  0  0
   -6.2620   20.5290  -32.0610 C   0  0  0  0  0  0  0  0  0  0  0  0
   -4.8780   20.3910  -31.9280 C   0  0  0  0  0  0  0  0  0  0  0  0
   -4.1440   21.3370  -31.2150 C   0  0  0  0  0  0  0  0  0  0  0  0
   -4.7840   22.4410  -30.6280 C   0  0  0  0  0  0  0  0  0  0  0  0
   -6.1890   22.5770  -30.7360 C   0  0  0  0  0  0  0  0  0  0  0  0
   -6.9120   21.6220  -31.4730 C   0  0  0  0  0  0  0  0  0  0  0  0
   -6.9340   23.7580  -30.1360 C   0  0  0  0  0  0  0  0  0  0  0  0
   -6.4830   25.1710  -30.6040 C   0  0  0  0  0  0  0  0  0  0  0  0
   -5.2150   25.6280  -30.0130 N   0  0  0  0  0  0  0  0  0  0  0  0
   -4.0500   24.8390  -30.4550 C   0  0  0  0  0  0  0  0  0  0  0  0
   -3.9760   23.4330  -29.8340 C   0  0  0  0  0  0  0  0  0  0  0  0
   -8.6884   19.0756  -30.5561 H   0  0  0  0  0  0  0  0  0  0  0  0
   -9.9956   18.4111  -31.5936 H   0  0  0  0  0  0  0  0  0  0  0  0
   -8.3713   17.6439  -31.5936 H   0  0  0  0  0  0  0  0  0  0  0  0
   -8.9200   19.1564  -33.5992 H   0  0  0  0  0  0  0  0  0  0  0  0
   -8.8256   20.5369  -32.4272 H   0  0  0  0  0  0  0  0  0  0  0  0
   -5.8569   19.4789  -35.2518 H   0  0  0  0  0  0  0  0  0  0  0  0
   -4.6469   17.5442  -36.2563 H   0  0  0  0  0  0  0  0  0  0  0  0
   -4.4153   15.4117  -34.9799 H   0  0  0  0  0  0  0  0  0  0  0  0
   -6.6074   17.1414  -31.6784 H   0  0  0  0  0  0  0  0  0  0  0  0
   -4.3660   19.5327  -32.3876 H   0  0  0  0  0  0  0  0  0  0  0  0
   -3.0554   21.2183  -31.1111 H   0  0  0  0  0  0  0  0  0  0  0  0
   -8.0001   21.7345  -31.5891 H   0  0  0  0  0  0  0  0  0  0  0  0
   -7.9985   23.6457  -30.3893 H   0  0  0  0  0  0  0  0  0  0  0  0
   -6.7157   23.7239  -29.0584 H   0  0  0  0  0  0  0  0  0  0  0  0
   -6.3660   25.1508  -31.6976 H   0  0  0  0  0  0  0  0  0  0  0  0
   -7.2586   25.8761  -30.2703 H   0  0  0  0  0  0  0  0  0  0  0  0
   -5.2740   25.6550  -28.9680 H   0  0  0  0  0  0  0  0  0  0  0  0
   -4.0991   24.7322  -31.5487 H   0  0  0  0  0  0  0  0  0  0  0  0
   -3.1527   25.3818  -30.1230 H   0  0  0  0  0  0  0  0  0  0  0  0
   -2.9262   23.1052  -29.8133 H   0  0  0  0  0  0  0  0  0  0  0  0
   -4.3888   23.4811  -28.8155 H   0  0  0  0  0  0  0  0  0  0  0  0
  1  2  1  0
  2  3  1  0
  3  4  1  0
  4  5  2  0
  5  6  1  0
  6  7  2  0
  7  8  1  0
  8  9  1  0
  8 10  2  0
  3 11  1  0
 11 12  2  0
 12 13  1  0
 13 14  2  0
 14 15  1  0
 15 16  2  0
 15 17  1  0
 17 18  1  0
 18 19  1  0
 19 20  1  0
 20 21  1  0
 10  4  1  0
 16 11  1  0
 21 14  1  0
  1 22  1  0
  1 23  1  0
  1 24  1  0
  2 25  1  0
  2 26  1  0
  5 27  1  0
  6 28  1  0
  7 29  1  0
 10 30  1  0
 12 31  1  0
 13 32  1  0
 16 33  1  0
 17 34  1  0
 17 35  1  0
 18 36  1  0
 18 37  1  0
 19 38  1  0
 20 39  1  0
 20 40  1  0
 21 41  1  0
 21 42  1  0
M  END
>  <UniqueID>  (11) 
11

>  <SMILES>  (11) 
CCN(c1cccc(F)c1)c1ccc2c(c1)CCNCC2

>  <Energy>  (11) 
62.92504027596887

>  <Genealogy>  (11) 
CCN(c1cccc(F)c1)c1ccc2c(c1)CCNCC2 (3D coordinates assigned)
CCN(c1cccc(F)c1)c1ccc2c(c1)CCNCC2 (nonaromatic ring conformer: 62.92504027596887 kcal/mol)

>  <smiles>  (11) 
CCN(c1cccc(F)c1)c1ccc2c(c1)CCNCC2

>  <score_type>  (11) 
oracle

>  <origin>  (11) 
adg

>  <m_score__min__energy>  (11) 
-7.3499999999999996

>  <m_primary>  (11) 
energy

$$$$
11:0
     RDKit          3D

 52 54  0  0  0  0  0  0  0  0999 V2000
   -7.7950   18.0940  -31.5390 O   0  0  0  0  0  0  0  0  0  0  0  0
   -6.9780   18.0900  -32.4970 C   0  0  0  0  0  0  0  0  0  0  0  0
   -6.8700   16.9940  -33.4800 C   0  0  0  0  0  0  0  0  0  0  0  0
   -5.7770   17.4890  -34.4420 C   0  0  0  0  0  0  0  0  0  0  0  0
   -5.2020   18.7930  -33.8550 C   0  0  0  0  0  0  0  0  0  0  0  0
   -6.0480   19.1300  -32.7260 N   0  0  0  0  0  0  0  0  0  0  0  0
   -5.8530   20.2970  -31.8660 C   0  0  0  0  0  0  0  0  0  0  0  0
   -6.1800   21.5820  -32.6360 C   0  0  0  0  0  0  0  0  0  0  0  0
   -7.1040   22.5270  -31.8480 C   0  0  0  0  0  0  0  0  0  0  0  0
   -6.6050   23.9150  -31.8490 N   0  0  0  0  0  0  0  0  0  0  0  0
   -6.6610   24.5300  -30.5120 C   0  0  0  0  0  0  0  0  0  0  0  0
   -5.5100   25.5220  -30.2740 C   0  0  0  0  0  0  0  0  0  0  0  0
   -4.2910   25.0180  -30.8170 O   0  0  0  0  0  0  0  0  0  0  0  0
   -3.5680   23.9210  -30.3200 C   0  0  0  0  0  0  0  0  0  0  0  0
   -2.8760   23.9550  -29.0950 C   0  0  0  0  0  0  0  0  0  0  0  0
   -2.1680   22.8340  -28.6500 C   0  0  0  0  0  0  0  0  0  0  0  0
   -2.1360   21.6580  -29.4200 C   0  0  0  0  0  0  0  0  0  0  0  0
   -1.3840   20.4670  -28.9490 C   0  0  0  0  0  0  0  0  0  0  0  0
   -1.7520   19.8140  -27.7560 C   0  0  0  0  0  0  0  0  0  0  0  0
   -1.0410   18.6930  -27.3150 C   0  0  0  0  0  0  0  0  0  0  0  0
    0.0410   18.2110  -28.0560 C   0  0  0  0  0  0  0  0  0  0  0  0
    1.0090   16.6800  -27.4490 Br  0  0  0  0  0  0  0  0  0  0  0  0
    0.4140   18.8510  -29.2410 C   0  0  0  0  0  0  0  0  0  0  0  0
   -0.2930   19.9720  -29.6860 C   0  0  0  0  0  0  0  0  0  0  0  0
   -2.8290   21.6290  -30.6430 C   0  0  0  0  0  0  0  0  0  0  0  0
   -3.5340   22.7500  -31.0860 C   0  0  0  0  0  0  0  0  0  0  0  0
   -6.5698   16.0550  -32.9920 H   0  0  0  0  0  0  0  0  0  0  0  0
   -7.8216   16.7738  -33.9859 H   0  0  0  0  0  0  0  0  0  0  0  0
   -4.9823   16.7334  -34.5289 H   0  0  0  0  0  0  0  0  0  0  0  0
   -6.1931   17.6650  -35.4449 H   0  0  0  0  0  0  0  0  0  0  0  0
   -4.1649   18.6379  -33.5227 H   0  0  0  0  0  0  0  0  0  0  0  0
   -5.1876   19.5996  -34.6028 H   0  0  0  0  0  0  0  0  0  0  0  0
   -6.5156   20.2188  -30.9914 H   0  0  0  0  0  0  0  0  0  0  0  0
   -4.8031   20.3312  -31.5395 H   0  0  0  0  0  0  0  0  0  0  0  0
   -5.2402   22.1101  -32.8547 H   0  0  0  0  0  0  0  0  0  0  0  0
   -6.7075   21.2927  -33.5569 H   0  0  0  0  0  0  0  0  0  0  0  0
   -8.1042   22.5088  -32.3054 H   0  0  0  0  0  0  0  0  0  0  0  0
   -7.1371   22.1785  -30.8052 H   0  0  0  0  0  0  0  0  0  0  0  0
   -5.6190   23.9430  -32.1990 H   0  0  0  0  0  0  0  0  0  0  0  0
   -7.1980   24.4930  -32.4900 H   0  0  0  0  0  0  0  0  0  0  0  0
   -7.6161   25.0660  -30.4095 H   0  0  0  0  0  0  0  0  0  0  0  0
   -6.5687   23.7247  -29.7684 H   0  0  0  0  0  0  0  0  0  0  0  0
   -5.7525   26.4796  -30.7580 H   0  0  0  0  0  0  0  0  0  0  0  0
   -5.3831   25.6639  -29.1906 H   0  0  0  0  0  0  0  0  0  0  0  0
   -2.8921   24.8693  -28.4835 H   0  0  0  0  0  0  0  0  0  0  0  0
   -1.6320   22.8726  -27.6902 H   0  0  0  0  0  0  0  0  0  0  0  0
   -2.6032   20.1878  -27.1681 H   0  0  0  0  0  0  0  0  0  0  0  0
   -1.3346   18.1895  -26.3821 H   0  0  0  0  0  0  0  0  0  0  0  0
    1.2657   18.4719  -29.8249 H   0  0  0  0  0  0  0  0  0  0  0  0
    0.0062   20.4707  -30.6197 H   0  0  0  0  0  0  0  0  0  0  0  0
   -2.8157   20.7157  -31.2559 H   0  0  0  0  0  0  0  0  0  0  0  0
   -4.0681   22.7124  -32.0469 H   0  0  0  0  0  0  0  0  0  0  0  0
  1  2  2  0
  2  3  1  0
  3  4  1  0
  4  5  1  0
  5  6  1  0
  6  7  1  0
  7  8  1  0
  8  9  1  0
  9 10  1  0
 10 11  1  0
 11 12  1  0
 12 13  1  0
 13 14  1  0
 14 15  2  0
 15 16  1  0
 16 17  2  0
 17 18  1  0
 18 19  2  0
 19 20  1  0
 20 21  2  0
 21 22  1  0
 21 23  1  0
 23 24  2  0
 17 25  1  0
 25 26  2  0
  6  2  1  0
 26 14  1  0
 24 18  1  0
  3 27  1  0
  3 28  1  0
  4 29  1  0
  4 30  1  0
  5 31  1  0
  5 32  1  0
  7 33  1  0
  7 34  1  0
  8 35  1  0
  8 36  1  0
  9 37  1  0
  9 38  1  0
 10 39  1  0
 10 40  1  0
 11 41  1  0
 11 42  1  0
 12 43  1  0
 12 44  1  0
 15 45  1  0
 16 46  1  0
 19 47  1  0
 20 48  1  0
 23 49  1  0
 24 50  1  0
 25 51  1  0
 26 52  1  0
M  CHG  1  10   1
M  END
>  <UniqueID>  (12) 
12

>  <SMILES>  (12) 
O=C1CCCN1CCC[NH2+]CCOc1ccc(-c2ccc(Br)cc2)cc1

>  <Energy>  (12) 
58.47145899562667

>  <Genealogy>  (12) 
O=C1CCCN1CCC[NH2+]CCOc1ccc(-c2ccc(Br)cc2)cc1 (protonated)
O=C1CCCN1CCC[NH2+]CCOc1ccc(-c2ccc(Br)cc2)cc1 (3D coordinates assigned)
O=C1CCCN1CCC[NH2+]CCOc1ccc(-c2ccc(Br)cc2)cc1 (nonaromatic ring conformer: 58.47145899562667 kcal/mol)

>  <smiles>  (12) 
O=C1CCCN1CCCNCCOc1ccc(-c2ccc(Br)cc2)cc1

>  <score_type>  (12) 
oracle

>  <origin>  (12) 
adg

>  <m_score__min__energy>  (12) 
-7.6600000000000001

>  <m_primary>  (12) 
energy

$$$$
12:0
     RDKit          3D

 59 61  0  0  0  0  0  0  0  0999 V2000
   -2.9050   19.4000  -33.0580 C   0  0  0  0  0  0  0  0  0  0  0  0
   -2.6010   18.2090  -33.9700 C   0  0  0  0  0  0  0  0  0  0  0  0
   -2.8910   16.9190  -33.3200 N   0  0  0  0  0  0  0  0  0  0  0  0
   -3.2110   15.8560  -34.2870 C   0  0  0  0  0  0  0  0  0  0  0  0
   -4.7220   15.7420  -34.4630 C   0  0  0  0  0  0  0  0  0  0  0  0
   -5.3720   16.1810  -33.2730 O   0  0  0  0  0  0  0  0  0  0  0  0
   -5.9030   17.4670  -33.0890 C   0  0  0  0  0  0  0  0  0  0  0  0
   -6.0040   18.4000  -34.1370 C   0  0  0  0  0  0  0  0  0  0  0  0
   -6.5430   19.6680  -33.9030 C   0  0  0  0  0  0  0  0  0  0  0  0
   -6.9960   20.0230  -32.6220 C   0  0  0  0  0  0  0  0  0  0  0  0
   -7.5790   21.3980  -32.3650 C   0  0  0  0  0  0  0  0  0  0  0  0
   -6.7540   22.2450  -31.4750 N   0  0  0  0  0  0  0  0  0  0  0  0
   -5.4790   22.6680  -32.0800 C   0  0  0  0  0  0  0  0  0  0  0  0
   -4.5190   23.2000  -30.9970 C   0  0  0  0  0  0  0  0  0  0  0  0
   -5.2590   23.6280  -29.7120 C   0  0  0  0  0  0  0  0  0  0  0  0
   -4.4160   24.5310  -28.9230 N   0  0  0  0  0  0  0  0  0  0  0  0
   -3.1550   24.1170  -28.3750 C   0  0  0  0  0  0  0  0  0  0  0  0
   -2.6870   22.9830  -28.6670 O   0  0  0  0  0  0  0  0  0  0  0  0
   -2.3750   25.0190  -27.4940 C   0  0  0  0  0  0  0  0  0  0  0  0
   -2.7170   25.1260  -26.1340 C   0  0  0  0  0  0  0  0  0  0  0  0
   -1.9920   25.9680  -25.2850 C   0  0  0  0  0  0  0  0  0  0  0  0
   -0.9270   26.7170  -25.7860 C   0  0  0  0  0  0  0  0  0  0  0  0
   -0.5880   26.6330  -27.1380 C   0  0  0  0  0  0  0  0  0  0  0  0
   -1.3080   25.7930  -27.9950 C   0  0  0  0  0  0  0  0  0  0  0  0
   -0.9900   25.7790  -29.3140 F   0  0  0  0  0  0  0  0  0  0  0  0
   -6.5930   24.3090  -30.0560 C   0  0  0  0  0  0  0  0  0  0  0  0
   -7.4980   23.3960  -30.9140 C   0  0  0  0  0  0  0  0  0  0  0  0
   -6.8830   19.0940  -31.5750 C   0  0  0  0  0  0  0  0  0  0  0  0
   -6.3440   17.8260  -31.8100 C   0  0  0  0  0  0  0  0  0  0  0  0
   -2.8250   19.0866  -32.0066 H   0  0  0  0  0  0  0  0  0  0  0  0
   -2.1840   20.2068  -33.2560 H   0  0  0  0  0  0  0  0  0  0  0  0
   -3.9245   19.7626  -33.2560 H   0  0  0  0  0  0  0  0  0  0  0  0
   -3.2153   18.2933  -34.8786 H   0  0  0  0  0  0  0  0  0  0  0  0
   -1.5272   18.2324  -34.2076 H   0  0  0  0  0  0  0  0  0  0  0  0
   -3.6930   17.0320  -32.6550 H   0  0  0  0  0  0  0  0  0  0  0  0
   -2.7492   16.0954  -35.2563 H   0  0  0  0  0  0  0  0  0  0  0  0
   -2.8200   14.8990  -33.9111 H   0  0  0  0  0  0  0  0  0  0  0  0
   -5.0413   16.3693  -35.3083 H   0  0  0  0  0  0  0  0  0  0  0  0
   -4.9904   14.6942  -34.6630 H   0  0  0  0  0  0  0  0  0  0  0  0
   -5.6571   18.1302  -35.1454 H   0  0  0  0  0  0  0  0  0  0  0  0
   -6.6129   20.3927  -34.7276 H   0  0  0  0  0  0  0  0  0  0  0  0
   -7.6873   21.9137  -33.3305 H   0  0  0  0  0  0  0  0  0  0  0  0
   -8.5421   21.2452  -31.8559 H   0  0  0  0  0  0  0  0  0  0  0  0
   -5.0147   21.8080  -32.5848 H   0  0  0  0  0  0  0  0  0  0  0  0
   -5.6778   23.4707  -32.8053 H   0  0  0  0  0  0  0  0  0  0  0  0
   -3.7996   22.4076  -30.7428 H   0  0  0  0  0  0  0  0  0  0  0  0
   -4.0139   24.0883  -31.4042 H   0  0  0  0  0  0  0  0  0  0  0  0
   -5.4735   22.7287  -29.1160 H   0  0  0  0  0  0  0  0  0  0  0  0
   -4.6560   25.5490  -28.9140 H   0  0  0  0  0  0  0  0  0  0  0  0
   -3.5606   24.5433  -25.7354 H   0  0  0  0  0  0  0  0  0  0  0  0
   -2.2617   26.0398  -24.2210 H   0  0  0  0  0  0  0  0  0  0  0  0
   -0.3539   27.3742  -25.1155 H   0  0  0  0  0  0  0  0  0  0  0  0
    0.2484   27.2296  -27.5310 H   0  0  0  0  0  0  0  0  0  0  0  0
   -7.1187   24.5550  -29.1216 H   0  0  0  0  0  0  0  0  0  0  0  0
   -6.3740   25.2171  -30.6368 H   0  0  0  0  0  0  0  0  0  0  0  0
   -8.3174   23.0168  -30.2856 H   0  0  0  0  0  0  0  0  0  0  0  0
   -7.8834   23.9928  -31.7538 H   0  0  0  0  0  0  0  0  0  0  0  0
   -7.2207   19.3658  -30.5640 H   0  0  0  0  0  0  0  0  0  0  0  0
   -6.2658   17.1045  -30.9833 H   0  0  0  0  0  0  0  0  0  0  0  0
  1  2  1  0
  2  3  1  0
  3  4  1  0
  4  5  1  0
  5  6  1  0
  6  7  1  0
  7  8  2  0
  8  9  1  0
  9 10  2  0
 10 11  1  0
 11 12  1  0
 12 13  1  0
 13 14  1  0
 14 15  1  0
 15 16  1  0
 16 17  1  0
 17 18  2  0
 17 19  1  0
 19 20  2  0
 20 21  1  0
 21 22  2  0
 22 23  1  0
 23 24  2  0
 24 25  1  0
 15 26  1  0
 26 27  1  0
 10 28  1  0
 28 29  2  0
 29  7  1  0
 27 12  1  0
 24 19  1  0
  1 30  1  0
  1 31  1  0
  1 32  1  0
  2 33  1  0
  2 34  1  0
  3 35  1  0
  4 36  1  0
  4 37  1  0
  5 38  1  0
  5 39  1  0
  8 40  1  0
  9 41  1  0
 11 42  1  0
 11 43  1  0
 13 44  1  0
 13 45  1  0
 14 46  1  0
 14 47  1  0
 15 48  1  0
 16 49  1  0
 20 50  1  0
 21 51  1  0
 22 52  1  0
 23 53  1  0
 26 54  1  0
 26 55  1  0
 27 56  1  0
 27 57  1  0
 28 58  1  0
 29 59  1  0
M  END
>  <UniqueID>  (13) 
13

>  <SMILES>  (13) 
CCNCCOc1ccc(CN2CCC(NC(=O)c3ccccc3F)CC2)cc1

>  <Energy>  (13) 
66.61972445413615

>  <Genealogy>  (13) 
CCNCCOc1ccc(CN2CCC(NC(=O)c3ccccc3F)CC2)cc1 (3D coordinates assigned)
CCNCCOc1ccc(CN2CCC(NC(=O)c3ccccc3F)CC2)cc1 (nonaromatic ring conformer: 66.61972445413615 kcal/mol)

>  <smiles>  (13) 
CCNCCOc1ccc(CN2CCC(NC(=O)c3ccccc3F)CC2)cc1

>  <score_type>  (13) 
oracle

>  <origin>  (13) 
adg

>  <m_score__min__energy>  (13) 
-8.7899999999999991

>  <m_primary>  (13) 
energy

$$$$
13:0
     RDKit          3D

 53 56  0  0  0  0  0  0  0  0999 V2000
   -3.4510   18.6250  -25.6620 C   0  0  0  0  0  0  0  0  0  0  0  0
   -2.2110   18.9110  -26.4550 C   0  0  0  0  0  0  0  0  0  0  0  0
   -1.2960   17.8800  -26.7180 C   0  0  0  0  0  0  0  0  0  0  0  0
   -0.1580   18.1300  -27.4840 C   0  0  0  0  0  0  0  0  0  0  0  0
    0.0720   19.4050  -28.0030 C   0  0  0  0  0  0  0  0  0  0  0  0
   -0.8420   20.4420  -27.7630 C   0  0  0  0  0  0  0  0  0  0  0  0
   -0.5820   21.8240  -28.3040 C   0  0  0  0  0  0  0  0  0  0  0  0
   -1.1940   22.0050  -29.6380 N   0  0  0  0  0  0  0  0  0  0  0  0
   -2.5430   21.4080  -29.7700 C   0  0  0  0  0  0  0  0  0  0  0  0
   -3.6140   22.1840  -28.9900 C   0  0  0  0  0  0  0  0  0  0  0  0
   -3.6430   23.6660  -29.4040 C   0  0  0  0  0  0  0  0  0  0  0  0
   -4.1320   23.8340  -30.7430 O   0  0  0  0  0  0  0  0  0  0  0  0
   -5.1110   23.0320  -31.3510 C   0  0  0  0  0  0  0  0  0  0  0  0
   -4.6720   22.0910  -32.2860 C   0  0  0  0  0  0  0  0  0  0  0  0
   -5.5620   21.1990  -32.8770 C   0  0  0  0  0  0  0  0  0  0  0  0
   -6.9130   21.2060  -32.5180 C   0  0  0  0  0  0  0  0  0  0  0  0
   -7.7670   20.2850  -33.0600 N   0  0  0  0  0  0  0  0  0  0  0  0
   -9.0790   20.2360  -32.7080 C   0  0  0  0  0  0  0  0  0  0  0  0
   -9.8360   19.3690  -33.2210 O   0  0  0  0  0  0  0  0  0  0  0  0
   -9.5870   21.1380  -31.7730 C   0  0  0  0  0  0  0  0  0  0  0  0
   -8.7480   22.0990  -31.2140 C   0  0  0  0  0  0  0  0  0  0  0  0
   -7.3910   22.1660  -31.5880 C   0  0  0  0  0  0  0  0  0  0  0  0
   -6.4980   23.1410  -31.0610 C   0  0  0  0  0  0  0  0  0  0  0  0
   -7.0110   24.3100  -30.2520 C   0  0  0  0  0  0  0  0  0  0  0  0
   -2.2360   24.2710  -29.3040 C   0  0  0  0  0  0  0  0  0  0  0  0
   -1.1990   23.4230  -30.0620 C   0  0  0  0  0  0  0  0  0  0  0  0
   -1.9850   20.1890  -26.9900 C   0  0  0  0  0  0  0  0  0  0  0  0
   -3.2198   18.6783  -24.5879 H   0  0  0  0  0  0  0  0  0  0  0  0
   -4.2233   19.3686  -25.9082 H   0  0  0  0  0  0  0  0  0  0  0  0
   -3.8196   17.6183  -25.9082 H   0  0  0  0  0  0  0  0  0  0  0  0
   -1.4771   16.8712  -26.3185 H   0  0  0  0  0  0  0  0  0  0  0  0
    0.5603   17.3202  -27.6797 H   0  0  0  0  0  0  0  0  0  0  0  0
    0.9737   19.5977  -28.6028 H   0  0  0  0  0  0  0  0  0  0  0  0
   -1.0073   22.5653  -27.6115 H   0  0  0  0  0  0  0  0  0  0  0  0
    0.5054   21.9591  -28.4007 H   0  0  0  0  0  0  0  0  0  0  0  0
   -2.8208   21.3983  -30.8343 H   0  0  0  0  0  0  0  0  0  0  0  0
   -2.4987   20.3917  -29.3515 H   0  0  0  0  0  0  0  0  0  0  0  0
   -4.5985   21.7364  -29.1910 H   0  0  0  0  0  0  0  0  0  0  0  0
   -3.3724   22.1274  -27.9183 H   0  0  0  0  0  0  0  0  0  0  0  0
   -4.3266   24.1851  -28.7160 H   0  0  0  0  0  0  0  0  0  0  0  0
   -3.6070   22.0547  -32.5591 H   0  0  0  0  0  0  0  0  0  0  0  0
   -5.2002   20.4844  -33.6309 H   0  0  0  0  0  0  0  0  0  0  0  0
   -7.4100   19.5900  -33.7600 H   0  0  0  0  0  0  0  0  0  0  0  0
  -10.6458   21.0905  -31.4784 H   0  0  0  0  0  0  0  0  0  0  0  0
   -9.1472   22.8102  -30.4759 H   0  0  0  0  0  0  0  0  0  0  0  0
   -6.9124   24.0853  -29.1797 H   0  0  0  0  0  0  0  0  0  0  0  0
   -6.4246   25.2087  -30.4937 H   0  0  0  0  0  0  0  0  0  0  0  0
   -8.0694   24.4869  -30.4937 H   0  0  0  0  0  0  0  0  0  0  0  0
   -2.2516   25.2836  -29.7334 H   0  0  0  0  0  0  0  0  0  0  0  0
   -1.9481   24.2985  -28.2427 H   0  0  0  0  0  0  0  0  0  0  0  0
   -1.4277   23.4671  -31.1370 H   0  0  0  0  0  0  0  0  0  0  0  0
   -0.2054   23.8382  -29.8376 H   0  0  0  0  0  0  0  0  0  0  0  0
   -2.7080   20.9964  -26.8021 H   0  0  0  0  0  0  0  0  0  0  0  0
  1  2  1  0
  2  3  2  0
  3  4  1  0
  4  5  2  0
  5  6  1  0
  6  7  1  0
  7  8  1  0
  8  9  1  0
  9 10  1  0
 10 11  1  0
 11 12  1  0
 12 13  1  0
 13 14  2  0
 14 15  1  0
 15 16  2  0
 16 17  1  0
 17 18  1  0
 18 19  2  0
 18 20  1  0
 20 21  2  0
 21 22  1  0
 22 23  2  0
 23 24  1  0
 11 25  1  0
 25 26  1  0
  6 27  2  0
 27  2  1  0
 26  8  1  0
 23 13  1  0
 22 16  1  0
  1 28  1  0
  1 29  1  0
  1 30  1  0
  3 31  1  0
  4 32  1  0
  5 33  1  0
  7 34  1  0
  7 35  1  0
  9 36  1  0
  9 37  1  0
 10 38  1  0
 10 39  1  0
 11 40  1  0
 14 41  1  0
 15 42  1  0
 17 43  1  0
 20 44  1  0
 21 45  1  0
 24 46  1  0
 24 47  1  0
 24 48  1  0
 25 49  1  0
 25 50  1  0
 26 51  1  0
 26 52  1  0
 27 53  1  0
M  END
>  <UniqueID>  (14) 
14

>  <SMILES>  (14) 
Cc1cccc(CN2CCC(Oc3ccc4[nH]c(=O)ccc4c3C)CC2)c1

>  <Energy>  (14) 
70.38535024667684

>  <Genealogy>  (14) 
Cc1cccc(CN2CCC(Oc3ccc4[nH]c(=O)ccc4c3C)CC2)c1 (3D coordinates assigned)
Cc1cccc(CN2CCC(Oc3ccc4[nH]c(=O)ccc4c3C)CC2)c1 (nonaromatic ring conformer: 70.38535024667684 kcal/mol)

>  <smiles>  (14) 
Cc1cccc(CN2CCC(Oc3ccc4[nH]c(=O)ccc4c3C)CC2)c1

>  <score_type>  (14) 
oracle

>  <origin>  (14) 
adg

>  <m_score__min__energy>  (14) 
-9.4800000000000004

>  <m_primary>  (14) 
energy

$$$$
14:0
     RDKit          3D

 57 60  0  0  0  0  0  0  0  0999 V2000
   -2.5680   24.8580  -28.6030 C   0  0  0  0  0  0  0  0  0  0  0  0
   -3.4010   24.9000  -29.7570 O   0  0  0  0  0  0  0  0  0  0  0  0
   -3.9160   23.7670  -30.4050 C   0  0  0  0  0  0  0  0  0  0  0  0
   -5.2380   23.3460  -30.2380 C   0  0  0  0  0  0  0  0  0  0  0  0
   -5.7060   22.2230  -30.9110 C   0  0  0  0  0  0  0  0  0  0  0  0
   -4.8660   21.4840  -31.7770 C   0  0  0  0  0  0  0  0  0  0  0  0
   -5.3580   20.3640  -32.4900 C   0  0  0  0  0  0  0  0  0  0  0  0
   -6.7750   19.9540  -32.3040 C   0  0  0  0  0  0  0  0  0  0  0  0
   -7.0790   18.7020  -31.7500 C   0  0  0  0  0  0  0  0  0  0  0  0
   -8.4120   18.3130  -31.5890 C   0  0  0  0  0  0  0  0  0  0  0  0
   -9.4450   19.1700  -31.9830 C   0  0  0  0  0  0  0  0  0  0  0  0
   -9.1450   20.4180  -32.5380 C   0  0  0  0  0  0  0  0  0  0  0  0
   -7.8140   20.8100  -32.7010 C   0  0  0  0  0  0  0  0  0  0  0  0
   -4.5340   19.6570  -33.3410 N   0  0  0  0  0  0  0  0  0  0  0  0
   -5.0930   18.5590  -34.1670 C   0  0  0  0  0  0  0  0  0  0  0  0
   -3.1880   19.9600  -33.4280 C   0  0  0  0  0  0  0  0  0  0  0  0
   -2.3040   19.1490  -34.1850 C   0  0  0  0  0  0  0  0  0  0  0  0
   -0.9580   19.4690  -34.3220 C   0  0  0  0  0  0  0  0  0  0  0  0
   -0.4330   20.5970  -33.6950 C   0  0  0  0  0  0  0  0  0  0  0  0
    0.9570   20.9530  -33.8280 N   0  0  0  0  0  0  0  0  0  0  0  0
    1.7550   20.6190  -35.0110 C   0  0  0  0  0  0  0  0  0  0  0  0
    1.8090   21.7850  -36.0260 C   0  0  0  0  0  0  0  0  0  0  0  0
    1.4610   23.1150  -35.4740 N   0  0  0  0  0  0  0  0  0  0  0  0
    0.2670   23.7120  -36.0900 C   0  0  0  0  0  0  0  0  0  0  0  0
    2.5890   24.0610  -35.4690 C   0  0  0  0  0  0  0  0  0  0  0  0
   -1.2730   21.3880  -32.9030 C   0  0  0  0  0  0  0  0  0  0  0  0
   -2.6530   21.0930  -32.7490 C   0  0  0  0  0  0  0  0  0  0  0  0
   -3.5120   21.8780  -31.9310 C   0  0  0  0  0  0  0  0  0  0  0  0
   -3.0670   23.0390  -31.2410 C   0  0  0  0  0  0  0  0  0  0  0  0
   -3.1930   24.8895  -27.6983 H   0  0  0  0  0  0  0  0  0  0  0  0
   -1.9790   23.9290  -28.6096 H   0  0  0  0  0  0  0  0  0  0  0  0
   -1.8885   25.7230  -28.6096 H   0  0  0  0  0  0  0  0  0  0  0  0
   -5.9110   23.9053  -29.5715 H   0  0  0  0  0  0  0  0  0  0  0  0
   -6.7486   21.9032  -30.7675 H   0  0  0  0  0  0  0  0  0  0  0  0
   -6.2680   18.0257  -31.4420 H   0  0  0  0  0  0  0  0  0  0  0  0
   -8.6489   17.3318  -31.1519 H   0  0  0  0  0  0  0  0  0  0  0  0
  -10.4934   18.8622  -31.8562 H   0  0  0  0  0  0  0  0  0  0  0  0
   -9.9579   21.0918  -32.8466 H   0  0  0  0  0  0  0  0  0  0  0  0
   -7.5801   21.7907  -33.1410 H   0  0  0  0  0  0  0  0  0  0  0  0
   -5.4932   17.7730  -33.5097 H   0  0  0  0  0  0  0  0  0  0  0  0
   -5.9006   18.9524  -34.8019 H   0  0  0  0  0  0  0  0  0  0  0  0
   -4.2998   18.1374  -34.8019 H   0  0  0  0  0  0  0  0  0  0  0  0
   -2.6930   18.2447  -34.6757 H   0  0  0  0  0  0  0  0  0  0  0  0
   -0.3031   18.8272  -34.9296 H   0  0  0  0  0  0  0  0  0  0  0  0
    1.3960   21.5080  -33.0600 H   0  0  0  0  0  0  0  0  0  0  0  0
    2.7799   20.3796  -34.6912 H   0  0  0  0  0  0  0  0  0  0  0  0
    1.2804   19.7599  -35.5077 H   0  0  0  0  0  0  0  0  0  0  0  0
    2.8314   21.8398  -36.4281 H   0  0  0  0  0  0  0  0  0  0  0  0
    1.0494   21.5619  -36.7897 H   0  0  0  0  0  0  0  0  0  0  0  0
   -0.4194   24.0552  -35.3020 H   0  0  0  0  0  0  0  0  0  0  0  0
    0.5652   24.5671  -36.7145 H   0  0  0  0  0  0  0  0  0  0  0  0
   -0.2381   22.9604  -36.7145 H   0  0  0  0  0  0  0  0  0  0  0  0
    2.8672   24.2943  -34.4307 H   0  0  0  0  0  0  0  0  0  0  0  0
    3.4484   23.6096  -35.9863 H   0  0  0  0  0  0  0  0  0  0  0  0
    2.2942   24.9859  -35.9863 H   0  0  0  0  0  0  0  0  0  0  0  0
   -0.8522   22.2627  -32.3854 H   0  0  0  0  0  0  0  0  0  0  0  0
   -2.0266   23.3724  -31.3692 H   0  0  0  0  0  0  0  0  0  0  0  0
  1  2  1  0
  2  3  1  0
  3  4  2  0
  4  5  1  0
  5  6  2  0
  6  7  1  0
  7  8  1  0
  8  9  2  0
  9 10  1  0
 10 11  2  0
 11 12  1  0
 12 13  2  0
  7 14  2  0
 14 15  1  0
 14 16  1  0
 16 17  2  0
 17 18  1  0
 18 19  2  0
 19 20  1  0
 20 21  1  0
 21 22  1  0
 22 23  1  0
 23 24  1  0
 23 25  1  0
 19 26  1  0
 26 27  2  0
 27 28  1  0
 28 29  2  0
 29  3  1  0
 28  6  1  0
 13  8  1  0
 27 16  1  0
  1 30  1  0
  1 31  1  0
  1 32  1  0
  4 33  1  0
  5 34  1  0
  9 35  1  0
 10 36  1  0
 11 37  1  0
 12 38  1  0
 13 39  1  0
 15 40  1  0
 15 41  1  0
 15 42  1  0
 17 43  1  0
 18 44  1  0
 20 45  1  0
 21 46  1  0
 21 47  1  0
 22 48  1  0
 22 49  1  0
 24 50  1  0
 24 51  1  0
 24 52  1  0
 25 53  1  0
 25 54  1  0
 25 55  1  0
 26 56  1  0
 29 57  1  0
M  CHG  1  14   1
M  END
>  <UniqueID>  (15) 
15

>  <SMILES>  (15) 
COc1ccc2c(-c3ccccc3)[n+](C)c3ccc(NCCN(C)C)cc3c2c1

>  <Energy>  (15) 
94.54307828704471

>  <Genealogy>  (15) 
COc1ccc2c(-c3ccccc3)[n+](C)c3ccc(NCCN(C)C)cc3c2c1 (3D coordinates assigned)
COc1ccc2c(-c3ccccc3)[n+](C)c3ccc(NCCN(C)C)cc3c2c1 (optimized conformer: 94.54307828704471 kcal/mol)

>  <smiles>  (15) 
COc1ccc2c(-c3ccccc3)[n+](C)c3ccc(NCCN(C)C)cc3c2c1

>  <score_type>  (15) 
oracle

>  <origin>  (15) 
adg

>  <m_score__min__energy>  (15) 
-9.0500000000000007

>  <m_primary>  (15) 
energy

$$$$
15:0
     RDKit          3D

 60 63  0  0  0  0  0  0  0  0999 V2000
   -5.2180   16.7350  -33.0620 F   0  0  0  0  0  0  0  0  0  0  0  0
   -6.3300   17.2160  -33.7250 C   0  0  0  0  0  0  0  0  0  0  0  0
   -7.1340   16.1510  -34.0930 F   0  0  0  0  0  0  0  0  0  0  0  0
   -5.9020   17.8700  -34.8650 F   0  0  0  0  0  0  0  0  0  0  0  0
   -7.1160   18.1480  -32.8370 C   0  0  0  0  0  0  0  0  0  0  0  0
   -8.3730   17.7650  -32.3430 C   0  0  0  0  0  0  0  0  0  0  0  0
   -9.1230   18.6450  -31.5600 C   0  0  0  0  0  0  0  0  0  0  0  0
   -8.6350   19.9180  -31.2740 C   0  0  0  0  0  0  0  0  0  0  0  0
   -7.3910   20.3340  -31.7800 C   0  0  0  0  0  0  0  0  0  0  0  0
   -6.8760   21.6940  -31.4800 C   0  0  0  0  0  0  0  0  0  0  0  0
   -7.3420   22.4040  -30.3610 C   0  0  0  0  0  0  0  0  0  0  0  0
   -6.8540   23.6830  -30.0780 C   0  0  0  0  0  0  0  0  0  0  0  0
   -5.8960   24.2780  -30.9120 C   0  0  0  0  0  0  0  0  0  0  0  0
   -5.3500   25.6480  -30.5860 C   0  0  0  0  0  0  0  0  0  0  0  0
   -3.9640   25.6040  -30.3090 O   0  0  0  0  0  0  0  0  0  0  0  0
   -3.6540   24.6130  -29.3430 C   0  0  0  0  0  0  0  0  0  0  0  0
   -2.9490   23.4100  -29.9960 C   0  0  0  0  0  0  0  0  0  0  0  0
   -3.6580   22.0760  -29.6660 C   0  0  0  0  0  0  0  0  0  0  0  0
   -2.7350   20.8580  -29.8560 C   0  0  0  0  0  0  0  0  0  0  0  0
   -1.6840   21.1500  -30.8500 N   0  0  0  0  0  0  0  0  0  0  0  0
   -0.9630   19.9100  -31.2090 C   0  0  0  0  0  0  0  0  0  0  0  0
   -1.6550   19.1940  -32.3390 C   0  0  0  0  0  0  0  0  0  0  0  0
   -2.7410   19.7880  -33.0000 C   0  0  0  0  0  0  0  0  0  0  0  0
   -3.3930   19.1090  -34.0320 C   0  0  0  0  0  0  0  0  0  0  0  0
   -2.9700   17.8320  -34.4070 C   0  0  0  0  0  0  0  0  0  0  0  0
   -1.8960   17.2310  -33.7470 C   0  0  0  0  0  0  0  0  0  0  0  0
   -1.2420   17.9070  -32.7140 C   0  0  0  0  0  0  0  0  0  0  0  0
   -0.7460   22.1850  -30.3390 C   0  0  0  0  0  0  0  0  0  0  0  0
   -1.4630   23.3400  -29.6090 C   0  0  0  0  0  0  0  0  0  0  0  0
   -5.4150   23.5640  -32.0200 C   0  0  0  0  0  0  0  0  0  0  0  0
   -5.9070   22.2880  -32.3070 C   0  0  0  0  0  0  0  0  0  0  0  0
   -6.6410   19.4430  -32.5670 C   0  0  0  0  0  0  0  0  0  0  0  0
   -8.7696   16.7654  -32.5742 H   0  0  0  0  0  0  0  0  0  0  0  0
  -10.1020   18.3321  -31.1679 H   0  0  0  0  0  0  0  0  0  0  0  0
   -9.2268   20.6022  -30.6482 H   0  0  0  0  0  0  0  0  0  0  0  0
   -8.0969   21.9499  -29.7023 H   0  0  0  0  0  0  0  0  0  0  0  0
   -7.2236   24.2262  -29.1958 H   0  0  0  0  0  0  0  0  0  0  0  0
   -5.5214   26.3141  -31.4445 H   0  0  0  0  0  0  0  0  0  0  0  0
   -5.8681   26.0204  -29.6900 H   0  0  0  0  0  0  0  0  0  0  0  0
   -2.9913   25.0483  -28.5805 H   0  0  0  0  0  0  0  0  0  0  0  0
   -4.5910   24.2644  -28.8843 H   0  0  0  0  0  0  0  0  0  0  0  0
   -3.0105   23.5652  -31.0833 H   0  0  0  0  0  0  0  0  0  0  0  0
   -3.9945   22.1043  -28.6191 H   0  0  0  0  0  0  0  0  0  0  0  0
   -4.5053   21.9661  -30.3589 H   0  0  0  0  0  0  0  0  0  0  0  0
   -2.2631   20.6090  -28.8941 H   0  0  0  0  0  0  0  0  0  0  0  0
   -3.3370   20.0108  -30.2164 H   0  0  0  0  0  0  0  0  0  0  0  0
    0.0613   20.1656  -31.5182 H   0  0  0  0  0  0  0  0  0  0  0  0
   -0.9453   19.2471  -30.3314 H   0  0  0  0  0  0  0  0  0  0  0  0
   -3.0800   20.7918  -32.7044 H   0  0  0  0  0  0  0  0  0  0  0  0
   -4.2409   19.5809  -34.5501 H   0  0  0  0  0  0  0  0  0  0  0  0
   -3.4825   17.2998  -35.2219 H   0  0  0  0  0  0  0  0  0  0  0  0
   -1.5646   16.2241  -34.0408 H   0  0  0  0  0  0  0  0  0  0  0  0
   -0.4000   17.4282  -32.1927 H   0  0  0  0  0  0  0  0  0  0  0  0
   -0.0457   21.7079  -29.6375 H   0  0  0  0  0  0  0  0  0  0  0  0
   -0.2267   22.6164  -31.2075 H   0  0  0  0  0  0  0  0  0  0  0  0
   -1.3828   23.1820  -28.5234 H   0  0  0  0  0  0  0  0  0  0  0  0
   -0.9836   24.2858  -29.9018 H   0  0  0  0  0  0  0  0  0  0  0  0
   -4.6459   24.0115  -32.6667 H   0  0  0  0  0  0  0  0  0  0  0  0
   -5.5331   21.7441  -33.1870 H   0  0  0  0  0  0  0  0  0  0  0  0
   -5.6713   19.7628  -32.9762 H   0  0  0  0  0  0  0  0  0  0  0  0
  1  2  1  0
  2  3  1  0
  2  4  1  0
  2  5  1  0
  5  6  2  0
  6  7  1  0
  7  8  2  0
  8  9  1  0
  9 10  1  0
 10 11  2  0
 11 12  1  0
 12 13  2  0
 13 14  1  0
 14 15  1  0
 15 16  1  0
 16 17  1  0
 17 18  1  0
 18 19  1  0
 19 20  1  0
 20 21  1  0
 21 22  1  0
 22 23  2  0
 23 24  1  0
 24 25  2  0
 25 26  1  0
 26 27  2  0
 20 28  1  0
 28 29  1  0
 13 30  1  0
 30 31  2  0
  9 32  2  0
 32  5  1  0
 31 10  1  0
 29 17  1  0
 27 22  1  0
  6 33  1  0
  7 34  1  0
  8 35  1  0
 11 36  1  0
 12 37  1  0
 14 38  1  0
 14 39  1  0
 16 40  1  0
 16 41  1  0
 17 42  1  0
 18 43  1  0
 18 44  1  0
 19 45  1  0
 19 46  1  0
 21 47  1  0
 21 48  1  0
 23 49  1  0
 24 50  1  0
 25 51  1  0
 26 52  1  0
 27 53  1  0
 28 54  1  0
 28 55  1  0
 29 56  1  0
 29 57  1  0
 30 58  1  0
 31 59  1  0
 32 60  1  0
M  END
>  <UniqueID>  (16) 
16

>  <SMILES>  (16) 
FC(F)(F)c1cccc(-c2ccc(COCC3CCN(Cc4ccccc4)CC3)cc2)c1

>  <Energy>  (16) 
76.99045768629358

>  <Genealogy>  (16) 
FC(F)(F)c1cccc(-c2ccc(COCC3CCN(Cc4ccccc4)CC3)cc2)c1 (3D coordinates assigned)
FC(F)(F)c1cccc(-c2ccc(COCC3CCN(Cc4ccccc4)CC3)cc2)c1 (nonaromatic ring conformer: 76.99045768629358 kcal/mol)

>  <smiles>  (16) 
FC(F)(F)c1cccc(-c2ccc(COCC3CCN(Cc4ccccc4)CC3)cc2)c1

>  <score_type>  (16) 
oracle

>  <origin>  (16) 
adg

>  <m_score__min__energy>  (16) 
-10.02

>  <m_primary>  (16) 
energy

$$$$
16:0
     RDKit          3D

 52 52  0  0  0  0  0  0  0  0999 V2000
   -5.7700   24.9650  -30.7920 C   0  0  0  0  0  0  0  0  0  0  0  0
   -5.8330   23.8030  -31.7800 C   0  0  0  0  0  0  0  0  0  0  0  0
   -5.4660   22.5340  -31.1170 N   0  0  0  0  0  0  0  0  0  0  0  0
   -5.0370   22.7370  -29.7220 C   0  0  0  0  0  0  0  0  0  0  0  0
   -4.4840   21.7450  -31.8960 C   0  0  0  0  0  0  0  0  0  0  0  0
   -4.1230   20.3860  -31.2630 C   0  0  0  0  0  0  0  0  0  0  0  0
   -3.9850   19.4060  -32.2750 O   0  0  0  0  0  0  0  0  0  0  0  0
   -2.9860   19.7830  -33.2010 C   0  0  0  0  0  0  0  0  0  0  0  0
   -2.4930   18.5400  -33.9380 C   0  0  0  0  0  0  0  0  0  0  0  0
   -3.4440   18.1350  -34.9040 O   0  0  0  0  0  0  0  0  0  0  0  0
   -3.2940   16.7670  -35.2420 C   0  0  0  0  0  0  0  0  0  0  0  0
   -3.9980   15.8460  -34.2180 C   0  0  0  0  0  0  0  0  0  0  0  0
   -4.9090   16.5320  -33.2640 N   0  0  2  0  0  0  0  0  0  0  0  0
   -4.9960   15.8240  -31.9710 C   0  0  0  0  0  0  0  0  0  0  0  0
   -6.2500   16.7840  -33.8430 C   0  0  0  0  0  0  0  0  0  0  0  0
   -6.9010   18.0060  -33.2350 C   0  0  0  0  0  0  0  0  0  0  0  0
   -6.5570   19.2940  -33.6780 C   0  0  0  0  0  0  0  0  0  0  0  0
   -7.1800   20.4170  -33.1280 C   0  0  0  0  0  0  0  0  0  0  0  0
   -8.1540   20.2660  -32.1360 C   0  0  0  0  0  0  0  0  0  0  0  0
   -9.0040   21.8030  -31.3870 Br  0  0  0  0  0  0  0  0  0  0  0  0
   -8.5060   18.9870  -31.6940 C   0  0  0  0  0  0  0  0  0  0  0  0
   -7.8850   17.8600  -32.2430 C   0  0  0  0  0  0  0  0  0  0  0  0
   -5.7912   24.5739  -29.7641 H   0  0  0  0  0  0  0  0  0  0  0  0
   -4.8399   25.5306  -30.9500 H   0  0  0  0  0  0  0  0  0  0  0  0
   -6.6335   25.6278  -30.9500 H   0  0  0  0  0  0  0  0  0  0  0  0
   -6.8558   23.7209  -32.1763 H   0  0  0  0  0  0  0  0  0  0  0  0
   -5.1217   23.9941  -32.5970 H   0  0  0  0  0  0  0  0  0  0  0  0
   -5.8177   22.3676  -29.0408 H   0  0  0  0  0  0  0  0  0  0  0  0
   -4.1024   22.1856  -29.5419 H   0  0  0  0  0  0  0  0  0  0  0  0
   -4.8707   23.8093  -29.5419 H   0  0  0  0  0  0  0  0  0  0  0  0
   -4.9049   21.5596  -32.8952 H   0  0  0  0  0  0  0  0  0  0  0  0
   -3.5567   22.3359  -31.9280 H   0  0  0  0  0  0  0  0  0  0  0  0
   -3.1745   20.4796  -30.7138 H   0  0  0  0  0  0  0  0  0  0  0  0
   -4.9237   20.0836  -30.5720 H   0  0  0  0  0  0  0  0  0  0  0  0
   -3.4051   20.4980  -33.9242 H   0  0  0  0  0  0  0  0  0  0  0  0
   -2.1471   20.2555  -32.6691 H   0  0  0  0  0  0  0  0  0  0  0  0
   -1.5408   18.7685  -34.4391 H   0  0  0  0  0  0  0  0  0  0  0  0
   -2.3497   17.7259  -33.2123 H   0  0  0  0  0  0  0  0  0  0  0  0
   -3.7317   16.5951  -36.2364 H   0  0  0  0  0  0  0  0  0  0  0  0
   -2.2203   16.5278  -35.2381 H   0  0  0  0  0  0  0  0  0  0  0  0
   -4.5879   15.1050  -34.7774 H   0  0  0  0  0  0  0  0  0  0  0  0
   -3.1971   15.4036  -33.6074 H   0  0  0  0  0  0  0  0  0  0  0  0
   -4.4620   17.4600  -33.0700 H   0  0  0  0  0  0  0  0  0  0  0  0
   -4.9068   16.5495  -31.1490 H   0  0  0  0  0  0  0  0  0  0  0  0
   -5.9644   15.3071  -31.9004 H   0  0  0  0  0  0  0  0  0  0  0  0
   -4.1815   15.0880  -31.9004 H   0  0  0  0  0  0  0  0  0  0  0  0
   -6.1470   16.9372  -34.9274 H   0  0  0  0  0  0  0  0  0  0  0  0
   -6.8861   15.9131  -33.6266 H   0  0  0  0  0  0  0  0  0  0  0  0
   -5.7943   19.4188  -34.4608 H   0  0  0  0  0  0  0  0  0  0  0  0
   -6.9035   21.4231  -33.4763 H   0  0  0  0  0  0  0  0  0  0  0  0
   -9.2720   18.8668  -30.9138 H   0  0  0  0  0  0  0  0  0  0  0  0
   -8.1684   16.8552  -31.8964 H   0  0  0  0  0  0  0  0  0  0  0  0
  1  2  1  0
  2  3  1  0
  3  4  1  0
  3  5  1  0
  5  6  1  0
  6  7  1  0
  7  8  1  0
  8  9  1  0
  9 10  1  0
 10 11  1  0
 11 12  1  0
 12 13  1  0
 13 14  1  0
 13 15  1  0
 15 16  1  0
 16 17  2  0
 17 18  1  0
 18 19  2  0
 19 20  1  0
 19 21  1  0
 21 22  2  0
 22 16  1  0
  1 23  1  0
  1 24  1  0
  1 25  1  0
  2 26  1  0
  2 27  1  0
  4 28  1  0
  4 29  1  0
  4 30  1  0
  5 31  1  0
  5 32  1  0
  6 33  1  0
  6 34  1  0
  8 35  1  0
  8 36  1  0
  9 37  1  0
  9 38  1  0
 11 39  1  0
 11 40  1  0
 12 41  1  0
 12 42  1  0
 13 43  1  1
 14 44  1  0
 14 45  1  0
 14 46  1  0
 15 47  1  0
 15 48  1  0
 17 49  1  0
 18 50  1  0
 21 51  1  0
 22 52  1  0
M  CHG  1  13   1
M  END
>  <UniqueID>  (17) 
17

>  <SMILES>  (17) 
CCN(C)CCOCCOCC[N@H+](C)Cc1ccc(Br)cc1

>  <Energy>  (17) 
56.23142220423149

>  <Genealogy>  (17) 
CCN(C)CCOCCOCC[NH+](C)Cc1ccc(Br)cc1 (protonated)
CCN(C)CCOCCOCC[N@H+](C)Cc1ccc(Br)cc1 (chirality)
CCN(C)CCOCCOCC[N@H+](C)Cc1ccc(Br)cc1 (3D coordinates assigned)
CCN(C)CCOCCOCC[N@H+](C)Cc1ccc(Br)cc1 (optimized conformer: 56.23142220423149 kcal/mol)

>  <smiles>  (17) 
CCN(C)CCOCCOCCN(C)Cc1ccc(Br)cc1

>  <score_type>  (17) 
oracle

>  <origin>  (17) 
adg

>  <m_score__min__energy>  (17) 
-6.54

>  <m_primary>  (17) 
energy

$$$$
17:0
     RDKit          3D

 61 65  0  0  0  0  0  0  0  0999 V2000
   -4.6090   13.8690  -31.5910 C   0  0  0  0  0  0  0  0  0  0  0  0
   -4.9690   15.2760  -32.0610 C   0  0  0  0  0  0  0  0  0  0  0  0
   -4.8820   15.3610  -33.5360 N   0  0  0  0  0  0  0  0  0  0  0  0
   -3.5900   15.9350  -33.9900 C   0  0  0  0  0  0  0  0  0  0  0  0
   -3.6520   16.6300  -35.3580 C   0  0  0  0  0  0  0  0  0  0  0  0
   -6.0730   16.0190  -34.1210 C   0  0  0  0  0  0  0  0  0  0  0  0
   -6.6390   17.0930  -33.1820 C   0  0  0  0  0  0  0  0  0  0  0  0
   -6.6620   18.4010  -33.8380 N   0  0  0  0  0  0  0  0  0  0  0  0
   -6.3680   19.6130  -33.1230 C   0  0  0  0  0  0  0  0  0  0  0  0
   -7.4040   20.3900  -32.5740 C   0  0  0  0  0  0  0  0  0  0  0  0
   -8.7560   20.0220  -32.7360 C   0  0  0  0  0  0  0  0  0  0  0  0
   -9.7760   20.8200  -32.2210 C   0  0  0  0  0  0  0  0  0  0  0  0
   -9.4690   22.0010  -31.5520 C   0  0  0  0  0  0  0  0  0  0  0  0
   -8.1390   22.3960  -31.4020 C   0  0  0  0  0  0  0  0  0  0  0  0
   -7.0820   21.6050  -31.9120 C   0  0  0  0  0  0  0  0  0  0  0  0
   -5.7650   22.0010  -31.7950 N   0  0  0  0  0  0  0  0  0  0  0  0
   -5.4690   23.4410  -31.6180 C   0  0  0  0  0  0  0  0  0  0  0  0
   -4.7490   21.1110  -32.0900 C   0  0  0  0  0  0  0  0  0  0  0  0
   -5.0340   20.0150  -32.9400 C   0  0  0  0  0  0  0  0  0  0  0  0
   -3.9830   19.3630  -33.6090 C   0  0  0  0  0  0  0  0  0  0  0  0
   -2.6690   19.7780  -33.4290 C   0  0  0  0  0  0  0  0  0  0  0  0
   -2.3590   20.7270  -32.4510 C   0  0  0  0  0  0  0  0  0  0  0  0
   -1.0220   21.0770  -32.2250 C   0  0  0  0  0  0  0  0  0  0  0  0
   -0.6820   21.9090  -31.1630 C   0  0  0  0  0  0  0  0  0  0  0  0
   -1.6570   22.3060  -30.2420 C   0  0  0  0  0  0  0  0  0  0  0  0
   -1.2780   22.9990  -29.0810 C   0  0  0  0  0  0  0  0  0  0  0  0
   -2.2170   23.2680  -28.0850 C   0  0  0  0  0  0  0  0  0  0  0  0
   -3.5290   22.8180  -28.2240 C   0  0  0  0  0  0  0  0  0  0  0  0
   -3.9230   22.1430  -29.3810 C   0  0  0  0  0  0  0  0  0  0  0  0
   -3.0170   21.9470  -30.4480 C   0  0  0  0  0  0  0  0  0  0  0  0
   -3.3920   21.2980  -31.6630 C   0  0  0  0  0  0  0  0  0  0  0  0
   -4.6017   13.8404  -30.4914 H   0  0  0  0  0  0  0  0  0  0  0  0
   -5.3531   13.1537  -31.9715 H   0  0  0  0  0  0  0  0  0  0  0  0
   -3.6128   13.5990  -31.9715 H   0  0  0  0  0  0  0  0  0  0  0  0
   -5.9950   15.5136  -31.7434 H   0  0  0  0  0  0  0  0  0  0  0  0
   -4.2626   15.9936  -31.6182 H   0  0  0  0  0  0  0  0  0  0  0  0
   -3.2598   16.6726  -33.2437 H   0  0  0  0  0  0  0  0  0  0  0  0
   -2.8915   15.0920  -34.0969 H   0  0  0  0  0  0  0  0  0  0  0  0
   -3.7489   17.7161  -35.2134 H   0  0  0  0  0  0  0  0  0  0  0  0
   -2.7312   16.4156  -35.9202 H   0  0  0  0  0  0  0  0  0  0  0  0
   -4.5204   16.2560  -35.9202 H   0  0  0  0  0  0  0  0  0  0  0  0
   -5.7895   16.4902  -35.0736 H   0  0  0  0  0  0  0  0  0  0  0  0
   -6.8479   15.2543  -34.2784 H   0  0  0  0  0  0  0  0  0  0  0  0
   -7.6641   16.8162  -32.8947 H   0  0  0  0  0  0  0  0  0  0  0  0
   -5.9947   17.1572  -32.2928 H   0  0  0  0  0  0  0  0  0  0  0  0
   -6.9200   18.4650  -34.8480 H   0  0  0  0  0  0  0  0  0  0  0  0
   -9.0078   19.0962  -33.2740 H   0  0  0  0  0  0  0  0  0  0  0  0
  -10.8259   20.5157  -32.3436 H   0  0  0  0  0  0  0  0  0  0  0  0
  -10.2764   22.6245  -31.1405 H   0  0  0  0  0  0  0  0  0  0  0  0
   -7.9087   23.3362  -30.8796 H   0  0  0  0  0  0  0  0  0  0  0  0
   -5.4207   23.6761  -30.5445 H   0  0  0  0  0  0  0  0  0  0  0  0
   -4.5035   23.6775  -32.0890 H   0  0  0  0  0  0  0  0  0  0  0  0
   -6.2630   24.0391  -32.0890 H   0  0  0  0  0  0  0  0  0  0  0  0
   -4.2024   18.5188  -34.2793 H   0  0  0  0  0  0  0  0  0  0  0  0
   -1.8704   19.3582  -34.0583 H   0  0  0  0  0  0  0  0  0  0  0  0
   -0.2359   20.6918  -32.8911 H   0  0  0  0  0  0  0  0  0  0  0  0
    0.3557   22.2553  -31.0474 H   0  0  0  0  0  0  0  0  0  0  0  0
   -0.2367   23.3310  -28.9564 H   0  0  0  0  0  0  0  0  0  0  0  0
   -1.9221   23.8353  -27.1899 H   0  0  0  0  0  0  0  0  0  0  0  0
   -4.2570   22.9954  -27.4187 H   0  0  0  0  0  0  0  0  0  0  0  0
   -4.9506   21.7592  -29.4631 H   0  0  0  0  0  0  0  0  0  0  0  0
  1  2  1  0
  2  3  1  0
  3  4  1  0
  4  5  1  0
  3  6  1  0
  6  7  1  0
  7  8  1  0
  8  9  1  0
  9 10  2  0
 10 11  1  0
 11 12  2  0
 12 13  1  0
 13 14  2  0
 14 15  1  0
 15 16  2  0
 16 17  1  0
 16 18  1  0
 18 19  2  0
 19 20  1  0
 20 21  2  0
 21 22  1  0
 22 23  2  0
 23 24  1  0
 24 25  2  0
 25 26  1  0
 26 27  2  0
 27 28  1  0
 28 29  2  0
 29 30  1  0
 30 31  2  0
 19  9  1  0
 31 22  1  0
 15 10  1  0
 31 18  1  0
 30 25  1  0
  1 32  1  0
  1 33  1  0
  1 34  1  0
  2 35  1  0
  2 36  1  0
  4 37  1  0
  4 38  1  0
  5 39  1  0
  5 40  1  0
  5 41  1  0
  6 42  1  0
  6 43  1  0
  7 44  1  0
  7 45  1  0
  8 46  1  0
 11 47  1  0
 12 48  1  0
 13 49  1  0
 14 50  1  0
 17 51  1  0
 17 52  1  0
 17 53  1  0
 20 54  1  0
 21 55  1  0
 23 56  1  0
 24 57  1  0
 26 58  1  0
 27 59  1  0
 28 60  1  0
 29 61  1  0
M  CHG  1  16   1
M  END
>  <UniqueID>  (18) 
18

>  <SMILES>  (18) 
CCN(CC)CCNc1c2ccccc2[n+](C)c2c1ccc1ccc3ccccc3c12

>  <Energy>  (18) 
120.29615369860943

>  <Genealogy>  (18) 
CCN(CC)CCNc1c2ccccc2[n+](C)c2c1ccc1ccc3ccccc3c12 (3D coordinates assigned)
CCN(CC)CCNc1c2ccccc2[n+](C)c2c1ccc1ccc3ccccc3c12 (optimized conformer: 120.29615369860943 kcal/mol)

>  <smiles>  (18) 
CCN(CC)CCNc1c2ccccc2[n+](C)c2c1ccc1ccc3ccccc3c12

>  <score_type>  (18) 
oracle

>  <origin>  (18) 
adg

>  <m_score__min__energy>  (18) 
-9.7400000000000002

>  <m_primary>  (18) 
energy

$$$$
18:0
     RDKit          3D

 46 47  0  0  0  0  0  0  0  0999 V2000
   -3.0430   21.1510  -33.4500 C   0  0  0  0  0  0  0  0  0  0  0  0
   -2.0890   21.5950  -32.3420 C   0  0  0  0  0  0  0  0  0  0  0  0
   -2.5740   21.2060  -30.9370 C   0  0  0  0  0  0  0  0  0  0  0  0
   -2.9360   22.3880  -30.1310 N   0  0  0  0  0  0  0  0  0  0  0  0
   -3.9150   23.3100  -30.6580 C   0  0  0  0  0  0  0  0  0  0  0  0
   -3.6050   24.5210  -30.8210 O   0  0  0  0  0  0  0  0  0  0  0  0
   -5.2910   22.8610  -30.9850 C   0  0  0  0  0  0  0  0  0  0  0  0
   -5.5200   21.5100  -31.2980 C   0  0  0  0  0  0  0  0  0  0  0  0
   -6.8040   21.0590  -31.6020 C   0  0  0  0  0  0  0  0  0  0  0  0
   -7.8780   21.9500  -31.5980 C   0  0  0  0  0  0  0  0  0  0  0  0
   -9.5290   21.3650  -31.9880 S   0  0  0  0  0  0  0  0  0  0  0  0
   -8.9900   19.6450  -32.2400 C   0  0  0  0  0  0  0  0  0  0  0  0
   -7.6700   23.2950  -31.2790 C   0  0  0  0  0  0  0  0  0  0  0  0
   -6.3760   23.7660  -30.9730 C   0  0  0  0  0  0  0  0  0  0  0  0
   -6.1380   25.1180  -30.6720 O   0  0  0  0  0  0  0  0  0  0  0  0
   -6.3020   25.7010  -29.3840 C   0  0  0  0  0  0  0  0  0  0  0  0
   -2.5610   22.4940  -28.7020 C   0  0  2  0  0  0  0  0  0  0  0  0
   -3.7240   23.0290  -27.8300 C   0  0  0  0  0  0  0  0  0  0  0  0
   -3.5810   24.5310  -27.6040 C   0  0  0  0  0  0  0  0  0  0  0  0
   -1.8550   24.8700  -27.7440 S   0  0  0  0  0  0  0  0  0  0  0  0
   -1.5960   26.0630  -28.6200 O   0  0  0  0  0  0  0  0  0  0  0  0
   -1.2240   25.0560  -26.3930 O   0  0  0  0  0  0  0  0  0  0  0  0
   -1.3110   23.3700  -28.5060 C   0  0  0  0  0  0  0  0  0  0  0  0
   -3.9537   20.7272  -33.0017 H   0  0  0  0  0  0  0  0  0  0  0  0
   -3.3100   22.0174  -34.0730 H   0  0  0  0  0  0  0  0  0  0  0  0
   -2.5521   20.3888  -34.0730 H   0  0  0  0  0  0  0  0  0  0  0  0
   -1.1087   21.1273  -32.5159 H   0  0  0  0  0  0  0  0  0  0  0  0
   -2.0337   22.6930  -32.3774 H   0  0  0  0  0  0  0  0  0  0  0  0
   -3.4572   20.5574  -31.0330 H   0  0  0  0  0  0  0  0  0  0  0  0
   -1.7515   20.6845  -30.4256 H   0  0  0  0  0  0  0  0  0  0  0  0
   -4.6784   20.8018  -31.3032 H   0  0  0  0  0  0  0  0  0  0  0  0
   -6.9705   19.9993  -31.8453 H   0  0  0  0  0  0  0  0  0  0  0  0
   -8.8385   19.1615  -31.2637 H   0  0  0  0  0  0  0  0  0  0  0  0
   -9.7599   19.0984  -32.8043 H   0  0  0  0  0  0  0  0  0  0  0  0
   -8.0458   19.6356  -32.8043 H   0  0  0  0  0  0  0  0  0  0  0  0
   -8.5216   23.9912  -31.2665 H   0  0  0  0  0  0  0  0  0  0  0  0
   -6.0901   24.9477  -28.6109 H   0  0  0  0  0  0  0  0  0  0  0  0
   -5.6067   26.5461  -29.2728 H   0  0  0  0  0  0  0  0  0  0  0  0
   -7.3359   26.0597  -29.2728 H   0  0  0  0  0  0  0  0  0  0  0  0
   -2.3285   21.4717  -28.3692 H   0  0  0  0  0  0  0  0  0  0  0  0
   -4.6785   22.8296  -28.3391 H   0  0  0  0  0  0  0  0  0  0  0  0
   -3.6983   22.5204  -26.8550 H   0  0  0  0  0  0  0  0  0  0  0  0
   -4.1449   25.0893  -28.3658 H   0  0  0  0  0  0  0  0  0  0  0  0
   -3.9771   24.8345  -26.6237 H   0  0  0  0  0  0  0  0  0  0  0  0
   -0.8438   23.5865  -29.4780 H   0  0  0  0  0  0  0  0  0  0  0  0
   -0.5634   22.8582  -27.8822 H   0  0  0  0  0  0  0  0  0  0  0  0
  1  2  1  0
  2  3  1  0
  3  4  1  0
  4  5  1  0
  5  6  2  0
  5  7  1  0
  7  8  2  0
  8  9  1  0
  9 10  2  0
 10 11  1  0
 11 12  1  0
 10 13  1  0
 13 14  2  0
 14 15  1  0
 15 16  1  0
  4 17  1  0
 17 18  1  0
 18 19  1  0
 19 20  1  0
 20 21  2  0
 20 22  2  0
 20 23  1  0
 14  7  1  0
 23 17  1  0
  1 24  1  0
  1 25  1  0
  1 26  1  0
  2 27  1  0
  2 28  1  0
  3 29  1  0
  3 30  1  0
  8 31  1  0
  9 32  1  0
 12 33  1  0
 12 34  1  0
 12 35  1  0
 13 36  1  0
 16 37  1  0
 16 38  1  0
 16 39  1  0
 17 40  1  1
 18 41  1  0
 18 42  1  0
 19 43  1  0
 19 44  1  0
 23 45  1  0
 23 46  1  0
M  END
>  <UniqueID>  (19) 
19

>  <SMILES>  (19) 
CCCN(C(=O)c1ccc(SC)cc1OC)[C@@H]1CCS(=O)(=O)C1

>  <Energy>  (19) 
41.048357214266325

>  <Genealogy>  (19) 
CCCN(C(=O)c1ccc(SC)cc1OC)[C@@H]1CCS(=O)(=O)C1 (chirality)
CCCN(C(=O)c1ccc(SC)cc1OC)[C@@H]1CCS(=O)(=O)C1 (3D coordinates assigned)
CCCN(C(=O)c1ccc(SC)cc1OC)[C@@H]1CCS(=O)(=O)C1 (nonaromatic ring conformer: 41.048357214266325 kcal/mol)

>  <smiles>  (19) 
CCCN(C(=O)c1ccc(SC)cc1OC)C1CCS(=O)(=O)C1

>  <score_type>  (19) 
oracle

>  <origin>  (19) 
adg

>  <m_score__min__energy>  (19) 
-8.3599999999999994

>  <m_primary>  (19) 
energy

$$$$
19:0
     RDKit          3D

 33 34  0  0  0  0  0  0  0  0999 V2000
   -8.6984   18.8052  -33.3863 H   0  0  0  0  0  0  0  0  0  0  0  0
   -7.6760   19.0050  -33.0330 C   0  0  0  0  0  0  0  0  0  0  0  0
   -7.4370   20.2170  -32.4990 C   0  0  0  0  0  0  0  0  0  0  0  0
   -8.6030   21.1910  -31.5580 S   0  0  0  0  0  0  0  0  0  0  0  0
   -7.5250   22.5850  -31.8860 C   0  0  0  0  0  0  0  0  0  0  0  0
   -7.9580   23.7280  -31.8630 O   0  0  0  0  0  0  0  0  0  0  0  0
   -6.1630   22.3120  -32.2700 N   0  0  1  0  0  0  0  0  0  0  0  0
   -5.8780   22.9300  -33.0660 H   0  0  0  0  0  0  0  0  0  0  0  0
   -5.2480   22.4480  -31.1200 C   0  0  0  0  0  0  0  0  0  0  0  0
   -4.4691   21.6742  -31.1881 H   0  0  0  0  0  0  0  0  0  0  0  0
   -5.8321   22.3311  -30.1952 H   0  0  0  0  0  0  0  0  0  0  0  0
   -4.5950   23.7990  -31.1010 C   0  0  0  0  0  0  0  0  0  0  0  0
   -3.3850   23.9060  -30.7620 O   0  0  0  0  0  0  0  0  0  0  0  0
   -5.3510   24.9310  -31.4260 O   0  0  0  0  0  0  0  0  0  0  0  0
   -5.7500   25.9100  -30.4680 C   0  0  0  0  0  0  0  0  0  0  0  0
   -6.2421   26.7449  -30.9883 H   0  0  0  0  0  0  0  0  0  0  0  0
   -4.8571   26.2669  -29.9337 H   0  0  0  0  0  0  0  0  0  0  0  0
   -6.7200   25.3090  -29.4560 C   0  0  0  0  0  0  0  0  0  0  0  0
   -6.3682   25.5269  -28.4368 H   0  0  0  0  0  0  0  0  0  0  0  0
   -7.7187   25.7468  -29.6007 H   0  0  0  0  0  0  0  0  0  0  0  0
   -6.7726   24.2198  -29.6007 H   0  0  0  0  0  0  0  0  0  0  0  0
   -6.1900   20.9520  -32.7250 C   0  0  0  0  0  0  0  0  0  0  0  0
   -5.1990   20.4380  -33.3140 O   0  0  0  0  0  0  0  0  0  0  0  0
   -6.6820   17.9150  -33.1870 C   0  0  0  0  0  0  0  0  0  0  0  0
   -6.3290   17.1190  -32.1390 N   0  0  0  0  0  0  0  0  0  0  0  0
   -5.4060   16.1280  -32.2600 C   0  0  0  0  0  0  0  0  0  0  0  0
   -5.1513   15.5044  -31.3903 H   0  0  0  0  0  0  0  0  0  0  0  0
   -4.7820   15.9020  -33.4870 C   0  0  0  0  0  0  0  0  0  0  0  0
   -4.0360   15.1005  -33.5926 H   0  0  0  0  0  0  0  0  0  0  0  0
   -5.1150   16.7040  -34.5780 C   0  0  0  0  0  0  0  0  0  0  0  0
   -4.6300   16.5389  -35.5514 H   0  0  0  0  0  0  0  0  0  0  0  0
   -6.0660   17.7180  -34.4330 C   0  0  0  0  0  0  0  0  0  0  0  0
   -6.3298   18.3568  -35.2888 H   0  0  0  0  0  0  0  0  0  0  0  0
  1  2  1  0
  2  3  2  0
  3  4  1  0
  4  5  1  0
  5  6  2  0
  5  7  1  0
  7  8  1  6
  7  9  1  0
  9 10  1  0
  9 11  1  0
  9 12  1  0
 12 13  2  0
 12 14  1  0
 14 15  1  0
 15 16  1  0
 15 17  1  0
 15 18  1  0
 18 19  1  0
 18 20  1  0
 18 21  1  0
  7 22  1  0
 22 23  2  0
  2 24  1  0
 24 25  2  0
 25 26  1  0
 26 27  1  0
 26 28  2  0
 28 29  1  0
 28 30  1  0
 30 31  1  0
 30 32  2  0
 32 33  1  0
 22  3  1  0
 32 24  1  0
M  CHG  1   7   1
M  END
>  <UniqueID>  (20) 
20

>  <SMILES>  (20) 
CCOC(=O)C[N@@H+]1C(=O)S/C(=C\c2ccccn2)C1=O

>  <Energy>  (20) 
48.70744078279065

>  <Genealogy>  (20) 
CCOC(=O)C[NH+]1C(=O)SC(=Cc2ccccn2)C1=O (protonated)
CCOC(=O)C[N@@H+]1C(=O)SC(=Cc2ccccn2)C1=O (chirality)
CCOC(=O)C[N@@H+]1C(=O)S/C(=C\c2ccccn2)C1=O (cis-trans isomerization)
CCOC(=O)C[N@@H+]1C(=O)S/C(=C\c2ccccn2)C1=O (3D coordinates assigned)
CCOC(=O)C[N@@H+]1C(=O)S/C(=C\c2ccccn2)C1=O (nonaromatic ring conformer: 48.70744078279065 kcal/mol)

>  <smiles>  (20) 
CCOC(=O)CN1C(=O)SC(=Cc2ccccn2)C1=O

>  <score_type>  (20) 
oracle

>  <origin>  (20) 
adg

>  <m_score__min__energy>  (20) 
-7.1299999999999999

>  <m_primary>  (20) 
energy

$$$$
20:0
     RDKit          3D

 40 43  0  0  0  0  0  0  0  0999 V2000
   -3.5860   21.8530  -33.0620 C   0  0  0  0  0  0  0  0  0  0  0  0
   -3.9790   21.4100  -31.6510 C   0  0  0  0  0  0  0  0  0  0  0  0
   -5.4310   21.2310  -31.5440 N   0  0  0  0  0  0  0  0  0  0  0  0
   -6.2690   22.0330  -30.8280 C   0  0  0  0  0  0  0  0  0  0  0  0
   -5.8540   23.2100  -30.1170 N   0  0  0  0  0  0  0  0  0  0  0  0
   -4.6780   23.1680  -29.2420 C   0  0  0  0  0  0  0  0  0  0  0  0
   -3.9820   24.5320  -29.2310 C   0  0  0  0  0  0  0  0  0  0  0  0
   -4.0200   25.0880  -30.5290 O   0  0  0  0  0  0  0  0  0  0  0  0
   -5.3330   25.5240  -30.8430 C   0  0  0  0  0  0  0  0  0  0  0  0
   -6.4370   24.5090  -30.4640 C   0  0  0  0  0  0  0  0  0  0  0  0
   -7.5480   21.5980  -30.7950 N   0  0  0  0  0  0  0  0  0  0  0  0
   -7.5090   20.4820  -31.5370 C   0  0  0  0  0  0  0  0  0  0  0  0
   -8.5870   19.6470  -31.7960 C   0  0  0  0  0  0  0  0  0  0  0  0
   -8.3680   18.5020  -32.5660 C   0  0  0  0  0  0  0  0  0  0  0  0
   -7.0820   18.2130  -33.0690 C   0  0  0  0  0  0  0  0  0  0  0  0
   -6.8800   17.0630  -33.8420 C   0  0  0  0  0  0  0  0  0  0  0  0
   -5.6160   16.7800  -34.3470 C   0  0  0  0  0  0  0  0  0  0  0  0
   -4.5610   17.6490  -34.0840 C   0  0  0  0  0  0  0  0  0  0  0  0
   -4.7540   18.7680  -33.3330 N   0  0  0  0  0  0  0  0  0  0  0  0
   -5.9780   19.0810  -32.8050 C   0  0  0  0  0  0  0  0  0  0  0  0
   -6.2380   20.2360  -32.0080 C   0  0  0  0  0  0  0  0  0  0  0  0
   -2.8572   22.6745  -32.9987 H   0  0  0  0  0  0  0  0  0  0  0  0
   -3.1373   21.0054  -33.6008 H   0  0  0  0  0  0  0  0  0  0  0  0
   -4.4810   22.1975  -33.6008 H   0  0  0  0  0  0  0  0  0  0  0  0
   -3.4807   20.4567  -31.4209 H   0  0  0  0  0  0  0  0  0  0  0  0
   -3.6674   22.1882  -30.9387 H   0  0  0  0  0  0  0  0  0  0  0  0
   -4.9939   22.9124  -28.2198 H   0  0  0  0  0  0  0  0  0  0  0  0
   -3.9764   22.4086  -29.6176 H   0  0  0  0  0  0  0  0  0  0  0  0
   -4.4995   25.2025  -28.5291 H   0  0  0  0  0  0  0  0  0  0  0  0
   -2.9358   24.4084  -28.9144 H   0  0  0  0  0  0  0  0  0  0  0  0
   -5.5249   26.4626  -30.3025 H   0  0  0  0  0  0  0  0  0  0  0  0
   -5.3755   25.6496  -31.9350 H   0  0  0  0  0  0  0  0  0  0  0  0
   -6.9995   24.8939  -29.6006 H   0  0  0  0  0  0  0  0  0  0  0  0
   -7.1047   24.3759  -31.3280 H   0  0  0  0  0  0  0  0  0  0  0  0
   -9.5882   19.8808  -31.4050 H   0  0  0  0  0  0  0  0  0  0  0  0
   -9.2044   17.8209  -32.7816 H   0  0  0  0  0  0  0  0  0  0  0  0
   -7.7205   16.3843  -34.0494 H   0  0  0  0  0  0  0  0  0  0  0  0
   -5.4507   15.8753  -34.9504 H   0  0  0  0  0  0  0  0  0  0  0  0
   -3.5613   17.4294  -34.4870 H   0  0  0  0  0  0  0  0  0  0  0  0
   -3.9210   19.3670  -33.2070 H   0  0  0  0  0  0  0  0  0  0  0  0
  1  2  1  0
  2  3  1  0
  3  4  1  0
  4  5  1  0
  5  6  1  0
  6  7  1  0
  7  8  1  0
  8  9  1  0
  9 10  1  0
  4 11  2  0
 11 12  1  0
 12 13  2  0
 13 14  1  0
 14 15  2  0
 15 16  1  0
 16 17  2  0
 17 18  1  0
 18 19  2  0
 19 20  1  0
 20 21  2  0
 21  3  1  0
 10  5  1  0
 21 12  1  0
 20 15  1  0
  1 22  1  0
  1 23  1  0
  1 24  1  0
  2 25  1  0
  2 26  1  0
  6 27  1  0
  6 28  1  0
  7 29  1  0
  7 30  1  0
  9 31  1  0
  9 32  1  0
 10 33  1  0
 10 34  1  0
 13 35  1  0
 14 36  1  0
 16 37  1  0
 17 38  1  0
 18 39  1  0
 19 40  1  0
M  CHG  1  19   1
M  END
>  <UniqueID>  (21) 
21

>  <SMILES>  (21) 
CCn1c(N2CCOCC2)nc2ccc3ccc[nH+]c3c21

>  <Energy>  (21) 
100.05939363308029

>  <Genealogy>  (21) 
CCn1c(N2CCOCC2)nc2ccc3ccc[nH+]c3c21 (protonated)
CCn1c(N2CCOCC2)nc2ccc3ccc[nH+]c3c21 (3D coordinates assigned)
CCn1c(N2CCOCC2)nc2ccc3ccc[nH+]c3c21 (nonaromatic ring conformer: 100.05939363308029 kcal/mol)

>  <smiles>  (21) 
CCn1c(N2CCOCC2)nc2ccc3cccnc3c21

>  <score_type>  (21) 
oracle

>  <origin>  (21) 
adg

>  <m_score__min__energy>  (21) 
-7.4800000000000004

>  <m_primary>  (21) 
energy

$$$$
21:0
     RDKit          3D

 35 38  0  0  0  0  0  0  0  0999 V2000
   -5.3270   14.1630  -33.9890 C   0  0  0  0  0  0  0  0  0  0  0  0
   -6.1070   15.1960  -34.5820 O   0  0  0  0  0  0  0  0  0  0  0  0
   -6.2380   16.4910  -34.0570 C   0  0  0  0  0  0  0  0  0  0  0  0
   -5.7250   17.5630  -34.7950 C   0  0  0  0  0  0  0  0  0  0  0  0
   -5.8300   18.8730  -34.3150 C   0  0  0  0  0  0  0  0  0  0  0  0
   -6.4540   19.1290  -33.0840 C   0  0  0  0  0  0  0  0  0  0  0  0
   -6.5620   20.5120  -32.5820 C   0  0  0  0  0  0  0  0  0  0  0  0
   -7.6750   21.2700  -32.6710 N   0  0  0  0  0  0  0  0  0  0  0  0
   -7.3610   22.4270  -32.1130 N   0  0  0  0  0  0  0  0  0  0  0  0
   -6.0820   22.3450  -31.7030 C   0  0  0  0  0  0  0  0  0  0  0  0
   -5.3340   23.4000  -31.0020 C   0  0  0  0  0  0  0  0  0  0  0  0
   -5.8130   24.6830  -30.7390 C   0  0  0  0  0  0  0  0  0  0  0  0
   -4.8820   25.4170  -30.0890 N   0  0  0  0  0  0  0  0  0  0  0  0
   -3.8270   24.6030  -29.9300 C   0  0  0  0  0  0  0  0  0  0  0  0
   -2.6730   24.9160  -29.2900 N   0  0  0  0  0  0  0  0  0  0  0  0
   -1.7010   23.9630  -29.1680 C   0  0  0  0  0  0  0  0  0  0  0  0
   -1.9030   22.6640  -29.6820 C   0  0  0  0  0  0  0  0  0  0  0  0
   -3.1070   22.3490  -30.3360 C   0  0  0  0  0  0  0  0  0  0  0  0
   -4.0570   23.3620  -30.4630 C   0  0  0  0  0  0  0  0  0  0  0  0
   -5.5880   21.1630  -31.9850 O   0  0  0  0  0  0  0  0  0  0  0  0
   -6.9700   18.0540  -32.3410 C   0  0  0  0  0  0  0  0  0  0  0  0
   -6.8630   16.7460  -32.8210 C   0  0  0  0  0  0  0  0  0  0  0  0
   -5.3864   14.2417  -32.8934 H   0  0  0  0  0  0  0  0  0  0  0  0
   -5.7127   13.1834  -34.3077 H   0  0  0  0  0  0  0  0  0  0  0  0
   -4.2792   14.2658  -34.3077 H   0  0  0  0  0  0  0  0  0  0  0  0
   -5.2346   17.3743  -35.7614 H   0  0  0  0  0  0  0  0  0  0  0  0
   -5.4215   19.7065  -34.9053 H   0  0  0  0  0  0  0  0  0  0  0  0
   -8.0310   23.2150  -31.9790 H   0  0  0  0  0  0  0  0  0  0  0  0
   -6.8115   25.0479  -31.0217 H   0  0  0  0  0  0  0  0  0  0  0  0
   -4.9720   26.4060  -29.7660 H   0  0  0  0  0  0  0  0  0  0  0  0
   -0.7542   24.2101  -28.6655 H   0  0  0  0  0  0  0  0  0  0  0  0
   -1.1198   21.8996  -29.5711 H   0  0  0  0  0  0  0  0  0  0  0  0
   -3.2929   21.3402  -30.7331 H   0  0  0  0  0  0  0  0  0  0  0  0
   -7.4614   18.2432  -31.3752 H   0  0  0  0  0  0  0  0  0  0  0  0
   -7.2690   15.9114  -32.2305 H   0  0  0  0  0  0  0  0  0  0  0  0
  1  2  1  0
  2  3  1  0
  3  4  2  0
  4  5  1  0
  5  6  2  0
  6  7  1  0
  7  8  2  0
  8  9  1  0
  9 10  2  0
 10 11  1  0
 11 12  2  0
 12 13  1  0
 13 14  1  0
 14 15  2  0
 15 16  1  0
 16 17  2  0
 17 18  1  0
 18 19  2  0
 10 20  1  0
  6 21  1  0
 21 22  2  0
 22  3  1  0
 20  7  1  0
 19 11  1  0
 19 14  1  0
  1 23  1  0
  1 24  1  0
  1 25  1  0
  4 26  1  0
  5 27  1  0
  9 28  1  0
 12 29  1  0
 13 30  1  0
 16 31  1  0
 17 32  1  0
 18 33  1  0
 21 34  1  0
 22 35  1  0
M  CHG  1   9   1
M  END
>  <UniqueID>  (22) 
22

>  <SMILES>  (22) 
COc1ccc(-c2n[nH+]c(-c3c[nH]c4ncccc34)o2)cc1

>  <Energy>  (22) 
111.84519535585193

>  <Genealogy>  (22) 
COc1ccc(-c2n[nH+]c(-c3c[nH]c4ncccc34)o2)cc1 (protonated)
COc1ccc(-c2n[nH+]c(-c3c[nH]c4ncccc34)o2)cc1 (3D coordinates assigned)
COc1ccc(-c2n[nH+]c(-c3c[nH]c4ncccc34)o2)cc1 (optimized conformer: 111.84519535585193 kcal/mol)

>  <smiles>  (22) 
COc1ccc(-c2nnc(-c3c[nH]c4ncccc34)o2)cc1

>  <score_type>  (22) 
oracle

>  <origin>  (22) 
adg

>  <m_score__min__energy>  (22) 
-6.9000000000000004

>  <m_primary>  (22) 
energy

$$$$
22:0
     RDKit          3D

 56 60  0  0  0  0  0  0  0  0999 V2000
   -1.6300   25.0860  -25.7270 C   0  0  0  0  0  0  0  0  0  0  0  0
   -1.8420   24.3430  -27.0120 C   0  0  0  0  0  0  0  0  0  0  0  0
   -0.8340   23.5110  -27.5170 C   0  0  0  0  0  0  0  0  0  0  0  0
   -1.0060   22.8480  -28.7340 C   0  0  0  0  0  0  0  0  0  0  0  0
   -2.1860   23.0240  -29.4720 C   0  0  0  0  0  0  0  0  0  0  0  0
   -2.3570   22.3830  -30.7120 C   0  0  0  0  0  0  0  0  0  0  0  0
   -3.5080   22.6120  -31.4890 C   0  0  0  0  0  0  0  0  0  0  0  0
   -3.6340   21.9940  -32.8660 C   0  0  0  0  0  0  0  0  0  0  0  0
   -4.1260   20.5940  -32.8620 N   0  0  0  0  0  0  0  0  0  0  0  0
   -4.7980   20.1280  -31.6340 C   0  0  0  0  0  0  0  0  0  0  0  0
   -6.2340   19.7740  -31.9170 C   0  0  0  0  0  0  0  0  0  0  0  0
   -7.1020   20.7400  -32.4530 C   0  0  0  0  0  0  0  0  0  0  0  0
   -8.4400   20.4220  -32.7040 C   0  0  0  0  0  0  0  0  0  0  0  0
   -8.9210   19.1400  -32.4210 C   0  0  0  0  0  0  0  0  0  0  0  0
  -10.2190   18.8340  -32.6640 F   0  0  0  0  0  0  0  0  0  0  0  0
   -8.0630   18.1750  -31.8850 C   0  0  0  0  0  0  0  0  0  0  0  0
   -6.7240   18.4880  -31.6330 C   0  0  0  0  0  0  0  0  0  0  0  0
   -3.3570   19.5800  -33.6220 C   0  0  0  0  0  0  0  0  0  0  0  0
   -4.0920   18.2700  -33.8540 C   0  0  0  0  0  0  0  0  0  0  0  0
   -3.5160   17.0620  -33.4200 C   0  0  0  0  0  0  0  0  0  0  0  0
   -4.1940   15.8500  -33.5860 C   0  0  0  0  0  0  0  0  0  0  0  0
   -5.4380   15.8260  -34.2190 C   0  0  0  0  0  0  0  0  0  0  0  0
   -6.1000   14.6520  -34.3690 F   0  0  0  0  0  0  0  0  0  0  0  0
   -5.9890   17.0080  -34.7170 C   0  0  0  0  0  0  0  0  0  0  0  0
   -5.3130   18.2210  -34.5530 C   0  0  0  0  0  0  0  0  0  0  0  0
   -4.5090   23.4290  -30.9300 C   0  0  0  0  0  0  0  0  0  0  0  0
   -5.7340   23.7900  -31.4700 C   0  0  0  0  0  0  0  0  0  0  0  0
   -6.3230   24.6350  -30.5470 C   0  0  0  0  0  0  0  0  0  0  0  0
   -5.4440   24.7600  -29.4880 C   0  0  0  0  0  0  0  0  0  0  0  0
   -4.3390   24.0210  -29.7300 N   0  0  0  0  0  0  0  0  0  0  0  0
   -3.2070   23.8710  -28.9780 C   0  0  0  0  0  0  0  0  0  0  0  0
   -3.0230   24.5320  -27.7480 C   0  0  0  0  0  0  0  0  0  0  0  0
   -1.8220   24.4130  -24.8783 H   0  0  0  0  0  0  0  0  0  0  0  0
   -0.5925   25.4486  -25.6800 H   0  0  0  0  0  0  0  0  0  0  0  0
   -2.3199   25.9415  -25.6800 H   0  0  0  0  0  0  0  0  0  0  0  0
    0.0997   23.3791  -26.9507 H   0  0  0  0  0  0  0  0  0  0  0  0
   -0.2143   22.1861  -29.1149 H   0  0  0  0  0  0  0  0  0  0  0  0
   -1.5818   21.6943  -31.0791 H   0  0  0  0  0  0  0  0  0  0  0  0
   -4.3345   22.6041  -33.4551 H   0  0  0  0  0  0  0  0  0  0  0  0
   -2.6219   21.9720  -33.2963 H   0  0  0  0  0  0  0  0  0  0  0  0
   -4.2753   19.2391  -31.2510 H   0  0  0  0  0  0  0  0  0  0  0  0
   -4.7725   20.9357  -30.8876 H   0  0  0  0  0  0  0  0  0  0  0  0
   -6.7275   21.7500  -32.6759 H   0  0  0  0  0  0  0  0  0  0  0  0
   -9.1154   21.1815  -33.1248 H   0  0  0  0  0  0  0  0  0  0  0  0
   -8.4424   17.1671  -31.6610 H   0  0  0  0  0  0  0  0  0  0  0  0
   -6.0523   17.7257  -31.2114 H   0  0  0  0  0  0  0  0  0  0  0  0
   -3.1010   20.0078  -34.6025 H   0  0  0  0  0  0  0  0  0  0  0  0
   -2.4740   19.3378  -33.0124 H   0  0  0  0  0  0  0  0  0  0  0  0
   -2.5235   17.0708  -32.9458 H   0  0  0  0  0  0  0  0  0  0  0  0
   -3.7467   14.9150  -33.2175 H   0  0  0  0  0  0  0  0  0  0  0  0
   -6.9568   16.9851  -35.2394 H   0  0  0  0  0  0  0  0  0  0  0  0
   -5.7386   19.1441  -34.9734 H   0  0  0  0  0  0  0  0  0  0  0  0
   -6.1522   23.4696  -32.4357 H   0  0  0  0  0  0  0  0  0  0  0  0
   -7.3073   25.1175  -30.6387 H   0  0  0  0  0  0  0  0  0  0  0  0
   -5.6171   25.3672  -28.5873 H   0  0  0  0  0  0  0  0  0  0  0  0
   -3.8078   25.1992  -27.3622 H   0  0  0  0  0  0  0  0  0  0  0  0
  1  2  1  0
  2  3  2  0
  3  4  1  0
  4  5  2  0
  5  6  1  0
  6  7  2  0
  7  8  1  0
  8  9  1  0
  9 10  1  0
 10 11  1  0
 11 12  2  0
 12 13  1  0
 13 14  2  0
 14 15  1  0
 14 16  1  0
 16 17  2  0
  9 18  1  0
 18 19  1  0
 19 20  2  0
 20 21  1  0
 21 22  2  0
 22 23  1  0
 22 24  1  0
 24 25  2  0
  7 26  1  0
 26 27  2  0
 27 28  1  0
 28 29  2  0
 29 30  1  0
 30 31  1  0
 31 32  2  0
 32  2  1  0
 31  5  1  0
 17 11  1  0
 25 19  1  0
 30 26  1  0
  1 33  1  0
  1 34  1  0
  1 35  1  0
  3 36  1  0
  4 37  1  0
  6 38  1  0
  8 39  1  0
  8 40  1  0
 10 41  1  0
 10 42  1  0
 12 43  1  0
 13 44  1  0
 16 45  1  0
 17 46  1  0
 18 47  1  0
 18 48  1  0
 20 49  1  0
 21 50  1  0
 24 51  1  0
 25 52  1  0
 27 53  1  0
 28 54  1  0
 29 55  1  0
 32 56  1  0
M  END
>  <UniqueID>  (23) 
23

>  <SMILES>  (23) 
Cc1ccc2cc(CN(Cc3ccc(F)cc3)Cc3ccc(F)cc3)c3cccn3c2c1

>  <Energy>  (23) 
105.24185187618062

>  <Genealogy>  (23) 
Cc1ccc2cc(CN(Cc3ccc(F)cc3)Cc3ccc(F)cc3)c3cccn3c2c1 (3D coordinates assigned)
Cc1ccc2cc(CN(Cc3ccc(F)cc3)Cc3ccc(F)cc3)c3cccn3c2c1 (optimized conformer: 105.24185187618062 kcal/mol)

>  <smiles>  (23) 
Cc1ccc2cc(CN(Cc3ccc(F)cc3)Cc3ccc(F)cc3)c3cccn3c2c1

>  <score_type>  (23) 
oracle

>  <origin>  (23) 
adg

>  <m_score__min__energy>  (23) 
-9.4800000000000004

>  <m_primary>  (23) 
energy

$$$$
23:0
     RDKit          3D

 38 38  0  0  0  0  0  0  0  0999 V2000
   -1.6210   26.0550  -26.3380 C   0  0  0  0  0  0  0  0  0  0  0  0
   -0.8590   26.2430  -27.6470 C   0  0  0  0  0  0  0  0  0  0  0  0
   -1.1870   25.1620  -28.6010 N   0  0  0  0  0  0  0  0  0  0  0  0
   -0.1260   24.1400  -28.5970 C   0  0  0  0  0  0  0  0  0  0  0  0
   -2.5120   24.5520  -28.3260 C   0  0  0  0  0  0  0  0  0  0  0  0
   -3.0560   23.9100  -29.5970 C   0  0  0  0  0  0  0  0  0  0  0  0
   -3.5560   24.9130  -30.4740 O   0  0  0  0  0  0  0  0  0  0  0  0
   -4.9060   25.0050  -30.8310 C   0  0  0  0  0  0  0  0  0  0  0  0
   -5.5210   26.0980  -30.6970 O   0  0  0  0  0  0  0  0  0  0  0  0
   -5.6070   23.8170  -31.3670 C   0  0  0  0  0  0  0  0  0  0  0  0
   -4.8840   22.7030  -31.8180 C   0  0  0  0  0  0  0  0  0  0  0  0
   -5.5510   21.5840  -32.3180 C   0  0  0  0  0  0  0  0  0  0  0  0
   -6.9480   21.5560  -32.3890 C   0  0  0  0  0  0  0  0  0  0  0  0
   -7.7250   20.0450  -32.9870 S   0  0  0  0  0  0  0  0  0  0  0  0
   -6.2180   19.4500  -33.8170 C   0  0  0  0  0  0  0  0  0  0  0  0
   -7.6970   22.6720  -31.9380 C   0  0  0  0  0  0  0  0  0  0  0  0
   -9.1380   22.6910  -31.9620 N   0  0  0  0  0  0  0  0  0  0  0  0
   -9.8030   21.7770  -31.4330 O   0  0  0  0  0  0  0  0  0  0  0  0
   -9.8020   23.6450  -32.6980 O   0  0  0  0  0  0  0  0  0  0  0  0
   -7.0110   23.7890  -31.4270 C   0  0  0  0  0  0  0  0  0  0  0  0
   -0.9405   26.2229  -25.4902 H   0  0  0  0  0  0  0  0  0  0  0  0
   -2.4510   26.7753  -26.2902 H   0  0  0  0  0  0  0  0  0  0  0  0
   -2.0207   25.0313  -26.2902 H   0  0  0  0  0  0  0  0  0  0  0  0
   -1.1346   27.2115  -28.0897 H   0  0  0  0  0  0  0  0  0  0  0  0
    0.2202   26.2139  -27.4360 H   0  0  0  0  0  0  0  0  0  0  0  0
    0.1360   23.8876  -27.5589 H   0  0  0  0  0  0  0  0  0  0  0  0
   -0.4840   23.2378  -29.1145 H   0  0  0  0  0  0  0  0  0  0  0  0
    0.7622   24.5315  -29.1145 H   0  0  0  0  0  0  0  0  0  0  0  0
   -2.4062   23.7845  -27.5451 H   0  0  0  0  0  0  0  0  0  0  0  0
   -3.2085   25.3322  -27.9852 H   0  0  0  0  0  0  0  0  0  0  0  0
   -2.2492   23.3563  -30.0994 H   0  0  0  0  0  0  0  0  0  0  0  0
   -3.8726   23.2220  -29.3327 H   0  0  0  0  0  0  0  0  0  0  0  0
   -3.7848   22.7115  -31.7773 H   0  0  0  0  0  0  0  0  0  0  0  0
   -4.9717   20.7138  -32.6603 H   0  0  0  0  0  0  0  0  0  0  0  0
   -5.4747   19.1565  -33.0612 H   0  0  0  0  0  0  0  0  0  0  0  0
   -6.4642   18.5816  -34.4457 H   0  0  0  0  0  0  0  0  0  0  0  0
   -5.8045   20.2524  -34.4457 H   0  0  0  0  0  0  0  0  0  0  0  0
   -7.5841   24.6565  -31.0678 H   0  0  0  0  0  0  0  0  0  0  0  0
  1  2  1  0
  2  3  1  0
  3  4  1  0
  3  5  1  0
  5  6  1  0
  6  7  1  0
  7  8  1  0
  8  9  2  0
  8 10  1  0
 10 11  2  0
 11 12  1  0
 12 13  2  0
 13 14  1  0
 14 15  1  0
 13 16  1  0
 16 17  1  0
 17 18  2  0
 17 19  1  0
 16 20  2  0
 20 10  1  0
  1 21  1  0
  1 22  1  0
  1 23  1  0
  2 24  1  0
  2 25  1  0
  4 26  1  0
  4 27  1  0
  4 28  1  0
  5 29  1  0
  5 30  1  0
  6 31  1  0
  6 32  1  0
 11 33  1  0
 12 34  1  0
 15 35  1  0
 15 36  1  0
 15 37  1  0
 20 38  1  0
M  CHG  2  17   1  19  -1
M  END
>  <UniqueID>  (24) 
24

>  <SMILES>  (24) 
CCN(C)CCOC(=O)c1ccc(SC)c([N+](=O)[O-])c1

>  <Energy>  (24) 
33.57773795351411

>  <Genealogy>  (24) 
CCN(C)CCOC(=O)c1ccc(SC)c([N+](=O)[O-])c1 (3D coordinates assigned)
CCN(C)CCOC(=O)c1ccc(SC)c([N+](=O)[O-])c1 (optimized conformer: 33.57773795351411 kcal/mol)

>  <smiles>  (24) 
CCN(C)CCOC(=O)c1ccc(SC)c([N+](=O)[O-])c1

>  <score_type>  (24) 
oracle

>  <origin>  (24) 
adg

>  <m_score__min__energy>  (24) 
-7.1900000000000004

>  <m_primary>  (24) 
energy

$$$$
24:0
     RDKit          3D

 71 73  0  0  0  0  0  0  0  0999 V2000
   -6.4850   25.6600  -29.2730 C   0  0  0  0  0  0  0  0  0  0  0  0
   -5.3490   25.0080  -29.9910 C   0  0  0  0  0  0  0  0  0  0  0  0
   -4.6960   25.6640  -30.8470 O   0  0  0  0  0  0  0  0  0  0  0  0
   -5.0470   23.6250  -29.7410 N   0  0  0  0  0  0  0  0  0  0  0  0
   -3.9280   22.9440  -30.3340 C   0  0  0  0  0  0  0  0  0  0  0  0
   -4.1150   22.1800  -31.5060 C   0  0  0  0  0  0  0  0  0  0  0  0
   -3.0060   21.6010  -32.1100 C   0  0  0  0  0  0  0  0  0  0  0  0
   -2.9340   20.6920  -33.5150 S   0  0  0  0  0  0  0  0  0  0  0  0
   -1.2410   20.5600  -33.4450 C   0  0  0  0  0  0  0  0  0  0  0  0
   -0.3850   19.8850  -34.4580 C   0  0  0  0  0  0  0  0  0  0  0  0
   -0.5130   18.4920  -34.7100 C   0  0  0  0  0  0  0  0  0  0  0  0
   -1.5540   17.6450  -34.0210 C   0  0  0  0  0  0  0  0  0  0  0  0
    0.3600   17.8660  -35.6150 C   0  0  0  0  0  0  0  0  0  0  0  0
    1.3220   18.6030  -36.3100 C   0  0  0  0  0  0  0  0  0  0  0  0
    2.2750   17.9200  -37.2450 C   0  0  0  0  0  0  0  0  0  0  0  0
    1.4350   19.9770  -36.0810 C   0  0  0  0  0  0  0  0  0  0  0  0
    0.5980   20.6270  -35.1550 C   0  0  0  0  0  0  0  0  0  0  0  0
    0.7400   22.0010  -34.8850 O   0  0  0  0  0  0  0  0  0  0  0  0
    0.3620   23.0520  -35.7650 C   0  0  0  0  0  0  0  0  0  0  0  0
    1.5820   23.9260  -36.1040 C   0  0  0  0  0  0  0  0  0  0  0  0
    1.3840   24.8670  -37.2320 N   0  0  0  0  0  0  0  0  0  0  0  0
    0.1900   25.7170  -37.0830 C   0  0  0  0  0  0  0  0  0  0  0  0
    2.5780   25.6710  -37.5370 C   0  0  0  0  0  0  0  0  0  0  0  0
   -0.7430   21.1980  -32.3550 N   0  0  0  0  0  0  0  0  0  0  0  0
   -1.7280   21.7680  -31.6160 C   0  0  0  0  0  0  0  0  0  0  0  0
   -1.5130   22.5030  -30.4520 C   0  0  0  0  0  0  0  0  0  0  0  0
   -2.6160   23.0840  -29.7880 C   0  0  0  0  0  0  0  0  0  0  0  0
   -2.3610   23.8810  -28.5340 C   0  0  0  0  0  0  0  0  0  0  0  0
   -1.6040   25.0920  -28.8790 N   0  0  0  0  0  0  0  0  0  0  0  0
   -1.3040   25.8760  -27.6760 C   0  0  0  0  0  0  0  0  0  0  0  0
    0.1740   25.7200  -27.2520 C   0  0  0  0  0  0  0  0  0  0  0  0
    0.8840   24.5630  -27.8520 N   0  0  0  0  0  0  0  0  0  0  0  0
    2.3470   24.6970  -27.8450 C   0  0  0  0  0  0  0  0  0  0  0  0
    0.4600   23.2670  -27.2940 C   0  0  0  0  0  0  0  0  0  0  0  0
   -6.3315   25.5719  -28.1873 H   0  0  0  0  0  0  0  0  0  0  0  0
   -6.5330   26.7231  -29.5515 H   0  0  0  0  0  0  0  0  0  0  0  0
   -7.4271   25.1652  -29.5515 H   0  0  0  0  0  0  0  0  0  0  0  0
   -5.7000   23.0810  -29.1370 H   0  0  0  0  0  0  0  0  0  0  0  0
   -5.1198   22.0456  -31.9330 H   0  0  0  0  0  0  0  0  0  0  0  0
   -1.4396   17.7381  -32.9309 H   0  0  0  0  0  0  0  0  0  0  0  0
   -2.5576   17.9863  -34.3148 H   0  0  0  0  0  0  0  0  0  0  0  0
   -1.4239   16.5930  -34.3148 H   0  0  0  0  0  0  0  0  0  0  0  0
    0.2852   16.7808  -35.7787 H   0  0  0  0  0  0  0  0  0  0  0  0
    3.0336   17.3763  -36.6628 H   0  0  0  0  0  0  0  0  0  0  0  0
    1.7220   17.2113  -37.8790 H   0  0  0  0  0  0  0  0  0  0  0  0
    2.7684   18.6714  -37.8790 H   0  0  0  0  0  0  0  0  0  0  0  0
    2.1887   20.5585  -36.6322 H   0  0  0  0  0  0  0  0  0  0  0  0
   -0.0451   22.6212  -36.6917 H   0  0  0  0  0  0  0  0  0  0  0  0
   -0.4002   23.6747  -35.2738 H   0  0  0  0  0  0  0  0  0  0  0  0
    1.8397   24.5136  -35.2105 H   0  0  0  0  0  0  0  0  0  0  0  0
    2.3784   23.2346  -36.4164 H   0  0  0  0  0  0  0  0  0  0  0  0
   -0.0217   25.8677  -36.0141 H   0  0  0  0  0  0  0  0  0  0  0  0
    0.3710   26.6907  -37.5618 H   0  0  0  0  0  0  0  0  0  0  0  0
   -0.6708   25.2273  -37.5618 H   0  0  0  0  0  0  0  0  0  0  0  0
    3.0538   25.9914  -36.5984 H   0  0  0  0  0  0  0  0  0  0  0  0
    3.2880   25.0663  -38.1203 H   0  0  0  0  0  0  0  0  0  0  0  0
    2.2847   26.5563  -38.1203 H   0  0  0  0  0  0  0  0  0  0  0  0
   -0.4952   22.6294  -30.0544 H   0  0  0  0  0  0  0  0  0  0  0  0
   -3.3203   24.1643  -28.0763 H   0  0  0  0  0  0  0  0  0  0  0  0
   -1.7841   23.2743  -27.8205 H   0  0  0  0  0  0  0  0  0  0  0  0
   -0.6950   24.7930  -29.3060 H   0  0  0  0  0  0  0  0  0  0  0  0
   -1.5068   26.9375  -27.8814 H   0  0  0  0  0  0  0  0  0  0  0  0
   -1.9387   25.5074  -26.8567 H   0  0  0  0  0  0  0  0  0  0  0  0
    0.7098   26.6359  -27.5419 H   0  0  0  0  0  0  0  0  0  0  0  0
    0.1634   25.5426  -26.1665 H   0  0  0  0  0  0  0  0  0  0  0  0
    2.7072   24.7300  -26.8062 H   0  0  0  0  0  0  0  0  0  0  0  0
    2.7965   23.8363  -28.3618 H   0  0  0  0  0  0  0  0  0  0  0  0
    2.6327   25.6251  -28.3618 H   0  0  0  0  0  0  0  0  0  0  0  0
    0.4766   23.3178  -26.1953 H   0  0  0  0  0  0  0  0  0  0  0  0
   -0.5602   23.0371  -27.6351 H   0  0  0  0  0  0  0  0  0  0  0  0
    1.1470   22.4785  -27.6351 H   0  0  0  0  0  0  0  0  0  0  0  0
  1  2  1  0
  2  3  2  0
  2  4  1  0
  4  5  1  0
  5  6  2  0
  6  7  1  0
  7  8  1  0
  8  9  1  0
  9 10  1  0
 10 11  2  0
 11 12  1  0
 11 13  1  0
 13 14  2  0
 14 15  1  0
 14 16  1  0
 16 17  2  0
 17 18  1  0
 18 19  1  0
 19 20  1  0
 20 21  1  0
 21 22  1  0
 21 23  1  0
  9 24  2  0
 24 25  1  0
 25 26  1  0
 26 27  2  0
 27 28  1  0
 28 29  1  0
 29 30  1  0
 30 31  1  0
 31 32  1  0
 32 33  1  0
 32 34  1  0
 27  5  1  0
 25  7  2  0
 17 10  1  0
  1 35  1  0
  1 36  1  0
  1 37  1  0
  4 38  1  0
  6 39  1  0
 12 40  1  0
 12 41  1  0
 12 42  1  0
 13 43  1  0
 15 44  1  0
 15 45  1  0
 15 46  1  0
 16 47  1  0
 19 48  1  0
 19 49  1  0
 20 50  1  0
 20 51  1  0
 22 52  1  0
 22 53  1  0
 22 54  1  0
 23 55  1  0
 23 56  1  0
 23 57  1  0
 26 58  1  0
 28 59  1  0
 28 60  1  0
 29 61  1  0
 30 62  1  0
 30 63  1  0
 31 64  1  0
 31 65  1  0
 33 66  1  0
 33 67  1  0
 33 68  1  0
 34 69  1  0
 34 70  1  0
 34 71  1  0
M  END
>  <UniqueID>  (25) 
25

>  <SMILES>  (25) 
CC(=O)Nc1cc2sc(-c3c(C)cc(C)cc3OCCN(C)C)nc2cc1CNCCN(C)C

>  <Energy>  (25) 
116.13692069366127

>  <Genealogy>  (25) 
CC(=O)Nc1cc2sc(-c3c(C)cc(C)cc3OCCN(C)C)nc2cc1CNCCN(C)C (3D coordinates assigned)
CC(=O)Nc1cc2sc(-c3c(C)cc(C)cc3OCCN(C)C)nc2cc1CNCCN(C)C (optimized conformer: 116.13692069366127 kcal/mol)

>  <smiles>  (25) 
CC(=O)Nc1cc2sc(-c3c(C)cc(C)cc3OCCN(C)C)nc2cc1CNCCN(C)C

>  <score_type>  (25) 
oracle

>  <origin>  (25) 
adg

>  <m_score__min__energy>  (25) 
-8.7899999999999991

>  <m_primary>  (25) 
energy

$$$$
25:0
     RDKit          3D

 54 56  0  0  0  0  0  0  0  0999 V2000
   -8.3740   18.6810  -31.6150 C   0  0  0  0  0  0  0  0  0  0  0  0
   -8.6910   19.7400  -32.6650 C   0  0  0  0  0  0  0  0  0  0  0  0
   -7.9630   20.9750  -32.3850 N   0  0  0  0  0  0  0  0  0  0  0  0
   -8.5200   22.0400  -31.6000 C   0  0  0  0  0  0  0  0  0  0  0  0
   -9.6770   21.9320  -31.1110 O   0  0  0  0  0  0  0  0  0  0  0  0
   -7.7140   23.2770  -31.3210 C   0  0  0  0  0  0  0  0  0  0  0  0
   -6.2370   22.9480  -31.0170 C   0  0  1  0  0  0  0  0  0  0  0  0
   -5.3880   22.9800  -32.3020 C   0  0  0  0  0  0  0  0  0  0  0  0
   -5.6890   23.9390  -29.9670 C   0  0  0  0  0  0  0  0  0  0  0  0
   -4.9770   25.0950  -30.6030 C   0  0  0  0  0  0  0  0  0  0  0  0
   -5.6410   25.9930  -31.1860 O   0  0  0  0  0  0  0  0  0  0  0  0
   -3.5570   25.2140  -30.4660 N   0  0  0  0  0  0  0  0  0  0  0  0
   -2.7380   24.3460  -29.6780 C   0  0  0  0  0  0  0  0  0  0  0  0
   -2.3620   24.5860  -28.3650 C   0  0  0  0  0  0  0  0  0  0  0  0
   -1.6280   23.5480  -27.8980 N   0  0  0  0  0  0  0  0  0  0  0  0
   -1.1080   23.4160  -26.5360 C   0  0  0  0  0  0  0  0  0  0  0  0
   -0.6880   24.7610  -25.9990 C   0  0  0  0  0  0  0  0  0  0  0  0
   -1.6020   25.5540  -25.2820 C   0  0  0  0  0  0  0  0  0  0  0  0
   -1.2240   26.8140  -24.8080 C   0  0  0  0  0  0  0  0  0  0  0  0
    0.0660   27.2930  -25.0430 C   0  0  0  0  0  0  0  0  0  0  0  0
    0.9820   26.5130  -25.7520 C   0  0  0  0  0  0  0  0  0  0  0  0
    0.6120   25.2520  -26.2290 C   0  0  0  0  0  0  0  0  0  0  0  0
    1.5230   24.5080  -26.9060 F   0  0  0  0  0  0  0  0  0  0  0  0
   -1.5660   22.6430  -28.9010 C   0  0  0  0  0  0  0  0  0  0  0  0
   -0.9540   21.3860  -28.8900 C   0  0  0  0  0  0  0  0  0  0  0  0
   -1.0710   20.5820  -30.0370 C   0  0  0  0  0  0  0  0  0  0  0  0
   -1.7990   21.0350  -31.1570 C   0  0  0  0  0  0  0  0  0  0  0  0
   -2.4060   22.3020  -31.1470 C   0  0  0  0  0  0  0  0  0  0  0  0
   -2.2470   23.0950  -30.0080 C   0  0  0  0  0  0  0  0  0  0  0  0
   -8.5026   19.1106  -30.6105 H   0  0  0  0  0  0  0  0  0  0  0  0
   -9.0558   17.8266  -31.7384 H   0  0  0  0  0  0  0  0  0  0  0  0
   -7.3349   18.3417  -31.7384 H   0  0  0  0  0  0  0  0  0  0  0  0
   -8.3985   19.3648  -33.6568 H   0  0  0  0  0  0  0  0  0  0  0  0
   -9.7703   19.9512  -32.6414 H   0  0  0  0  0  0  0  0  0  0  0  0
   -6.9730   21.0520  -32.7130 H   0  0  0  0  0  0  0  0  0  0  0  0
   -7.7574   23.9352  -32.2013 H   0  0  0  0  0  0  0  0  0  0  0  0
   -8.1420   23.7689  -30.4351 H   0  0  0  0  0  0  0  0  0  0  0  0
   -6.1777   21.9285  -30.6081 H   0  0  0  0  0  0  0  0  0  0  0  0
   -4.3214   23.0202  -32.0359 H   0  0  0  0  0  0  0  0  0  0  0  0
   -5.5843   22.0738  -32.8938 H   0  0  0  0  0  0  0  0  0  0  0  0
   -5.6520   23.8688  -32.8938 H   0  0  0  0  0  0  0  0  0  0  0  0
   -6.5288   24.3242  -29.3700 H   0  0  0  0  0  0  0  0  0  0  0  0
   -4.9663   23.4004  -29.3364 H   0  0  0  0  0  0  0  0  0  0  0  0
   -2.6214   25.4860  -27.7882 H   0  0  0  0  0  0  0  0  0  0  0  0
   -1.8917   22.9962  -25.8883 H   0  0  0  0  0  0  0  0  0  0  0  0
   -0.2327   22.7500  -26.5521 H   0  0  0  0  0  0  0  0  0  0  0  0
   -2.6195   25.1810  -25.0932 H   0  0  0  0  0  0  0  0  0  0  0  0
   -1.9445   27.4290  -24.2489 H   0  0  0  0  0  0  0  0  0  0  0  0
    0.3609   28.2848  -24.6697 H   0  0  0  0  0  0  0  0  0  0  0  0
    1.9981   26.8921  -25.9358 H   0  0  0  0  0  0  0  0  0  0  0  0
   -0.3966   21.0361  -28.0086 H   0  0  0  0  0  0  0  0  0  0  0  0
   -0.5914   19.5924  -30.0614 H   0  0  0  0  0  0  0  0  0  0  0  0
   -1.8921   20.3918  -32.0445 H   0  0  0  0  0  0  0  0  0  0  0  0
   -2.9884   22.6585  -32.0094 H   0  0  0  0  0  0  0  0  0  0  0  0
  1  2  1  0
  2  3  1  0
  3  4  1  0
  4  5  2  0
  4  6  1  0
  6  7  1  0
  7  8  1  0
  7  9  1  0
  9 10  1  0
 10 11  2  0
 10 12  1  0
 12 13  1  0
 13 14  2  0
 14 15  1  0
 15 16  1  0
 16 17  1  0
 17 18  2  0
 18 19  1  0
 19 20  2  0
 20 21  1  0
 21 22  2  0
 22 23  1  0
 15 24  1  0
 24 25  2  0
 25 26  1  0
 26 27  2  0
 27 28  1  0
 28 29  2  0
 29 13  1  0
 22 17  1  0
 29 24  1  0
  1 30  1  0
  1 31  1  0
  1 32  1  0
  2 33  1  0
  2 34  1  0
  3 35  1  0
  6 36  1  0
  6 37  1  0
  7 38  1  1
  8 39  1  0
  8 40  1  0
  8 41  1  0
  9 42  1  0
  9 43  1  0
 14 44  1  0
 16 45  1  0
 16 46  1  0
 18 47  1  0
 19 48  1  0
 20 49  1  0
 21 50  1  0
 25 51  1  0
 26 52  1  0
 27 53  1  0
 28 54  1  0
M  CHG  1  12  -1
M  END
>  <UniqueID>  (26) 
26

>  <SMILES>  (26) 
CCNC(=O)C[C@@H](C)CC(=O)[N-]c1cn(Cc2ccccc2F)c2ccccc12

>  <Energy>  (26) 
82.59492287642382

>  <Genealogy>  (26) 
CCNC(=O)CC(C)CC(=O)[N-]c1cn(Cc2ccccc2F)c2ccccc12 (protonated)
CCNC(=O)C[C@@H](C)CC(=O)[N-]c1cn(Cc2ccccc2F)c2ccccc12 (chirality)
CCNC(=O)C[C@@H](C)CC(=O)[N-]c1cn(Cc2ccccc2F)c2ccccc12 (3D coordinates assigned)
CCNC(=O)C[C@@H](C)CC(=O)[N-]c1cn(Cc2ccccc2F)c2ccccc12 (optimized conformer: 82.59492287642382 kcal/mol)

>  <smiles>  (26) 
CCNC(=O)CC(C)CC(=O)Nc1cn(Cc2ccccc2F)c2ccccc12

>  <score_type>  (26) 
oracle

>  <origin>  (26) 
adg

>  <m_score__min__energy>  (26) 
-10.35

>  <m_primary>  (26) 
energy

$$$$
26:0
     RDKit          3D

 37 39  0  0  0  0  0  0  0  0999 V2000
   -4.4840   21.6870  -32.8260 C   0  0  0  0  0  0  0  0  0  0  0  0
   -5.8100   21.2190  -33.0420 O   0  0  0  0  0  0  0  0  0  0  0  0
   -6.1680   19.8700  -33.1970 C   0  0  0  0  0  0  0  0  0  0  0  0
   -5.4700   19.0140  -34.0730 C   0  0  0  0  0  0  0  0  0  0  0  0
   -5.8590   17.6800  -34.2170 C   0  0  0  0  0  0  0  0  0  0  0  0
   -6.9450   17.1860  -33.4950 C   0  0  0  0  0  0  0  0  0  0  0  0
   -7.6450   18.0210  -32.6240 C   0  0  0  0  0  0  0  0  0  0  0  0
   -7.2570   19.3610  -32.4570 C   0  0  0  0  0  0  0  0  0  0  0  0
   -8.0470   20.2550  -31.5350 C   0  0  0  0  0  0  0  0  0  0  0  0
   -8.7990   21.3250  -32.3330 C   0  0  0  0  0  0  0  0  0  0  0  0
   -8.5520   22.6530  -31.7700 N   0  0  0  0  0  0  0  0  0  0  0  0
   -7.3380   23.0460  -31.1030 C   0  0  0  0  0  0  0  0  0  0  0  0
   -6.9730   22.3890  -29.8960 C   0  0  0  0  0  0  0  0  0  0  0  0
   -5.7970   22.7380  -29.2080 C   0  0  0  0  0  0  0  0  0  0  0  0
   -5.0110   23.7490  -29.7510 C   0  0  0  0  0  0  0  0  0  0  0  0
   -3.8310   24.3320  -29.3580 C   0  0  0  0  0  0  0  0  0  0  0  0
   -3.0560   24.0090  -28.1910 C   0  0  0  0  0  0  0  0  0  0  0  0
   -2.4320   23.7490  -27.2520 N   0  0  0  0  0  0  0  0  0  0  0  0
   -3.4950   25.2860  -30.2560 N   0  0  0  0  0  0  0  0  0  0  0  0
   -4.4270   25.3250  -31.2070 N   0  0  0  0  0  0  0  0  0  0  0  0
   -5.3480   24.3940  -30.9030 C   0  0  0  0  0  0  0  0  0  0  0  0
   -6.5040   24.0760  -31.6110 C   0  0  0  0  0  0  0  0  0  0  0  0
   -4.2907   21.7552  -31.7453 H   0  0  0  0  0  0  0  0  0  0  0  0
   -3.7691   20.9869  -33.2829 H   0  0  0  0  0  0  0  0  0  0  0  0
   -4.3669   22.6808  -33.2829 H   0  0  0  0  0  0  0  0  0  0  0  0
   -4.6139   19.3988  -34.6466 H   0  0  0  0  0  0  0  0  0  0  0  0
   -5.3077   17.0181  -34.9011 H   0  0  0  0  0  0  0  0  0  0  0  0
   -7.2503   16.1358  -33.6126 H   0  0  0  0  0  0  0  0  0  0  0  0
   -8.5064   17.6278  -32.0642 H   0  0  0  0  0  0  0  0  0  0  0  0
   -8.7718   19.6461  -30.9748 H   0  0  0  0  0  0  0  0  0  0  0  0
   -7.3518   20.7527  -30.8429 H   0  0  0  0  0  0  0  0  0  0  0  0
   -8.4556   21.3053  -33.3778 H   0  0  0  0  0  0  0  0  0  0  0  0
   -9.8772   21.1129  -32.2839 H   0  0  0  0  0  0  0  0  0  0  0  0
   -9.3140   23.3620  -31.8740 H   0  0  0  0  0  0  0  0  0  0  0  0
   -7.6203   21.5956  -29.4942 H   0  0  0  0  0  0  0  0  0  0  0  0
   -5.5096   22.2304  -28.2754 H   0  0  0  0  0  0  0  0  0  0  0  0
   -6.7636   24.6081  -32.5381 H   0  0  0  0  0  0  0  0  0  0  0  0
  1  2  1  0
  2  3  1  0
  3  4  2  0
  4  5  1  0
  5  6  2  0
  6  7  1  0
  7  8  2  0
  8  9  1  0
  9 10  1  0
 10 11  1  0
 11 12  1  0
 12 13  1  0
 13 14  2  0
 14 15  1  0
 15 16  2  0
 16 17  1  0
 17 18  3  0
 16 19  1  0
 19 20  1  0
 20 21  2  0
 21 22  1  0
  8  3  1  0
 22 12  2  0
 21 15  1  0
  1 23  1  0
  1 24  1  0
  1 25  1  0
  4 26  1  0
  5 27  1  0
  6 28  1  0
  7 29  1  0
  9 30  1  0
  9 31  1  0
 10 32  1  0
 10 33  1  0
 11 34  1  0
 13 35  1  0
 14 36  1  0
 22 37  1  0
M  CHG  1  19  -1
M  END
>  <UniqueID>  (27) 
27

>  <SMILES>  (27) 
COc1ccccc1CCNc1ccc2c(C#N)[n-]nc2c1

>  <Energy>  (27) 
73.4799571883059

>  <Genealogy>  (27) 
COc1ccccc1CCNc1ccc2c(C#N)[n-]nc2c1 (protonated)
COc1ccccc1CCNc1ccc2c(C#N)[n-]nc2c1 (3D coordinates assigned)
COc1ccccc1CCNc1ccc2c(C#N)[n-]nc2c1 (optimized conformer: 73.4799571883059 kcal/mol)

>  <smiles>  (27) 
COc1ccccc1CCNc1ccc2c(C#N)[nH]nc2c1

>  <score_type>  (27) 
oracle

>  <origin>  (27) 
adg

>  <m_score__min__energy>  (27) 
-9.2799999999999994

>  <m_primary>  (27) 
energy

$$$$
27:0
     RDKit          3D

 46 47  0  0  0  0  0  0  0  0999 V2000
   -5.6830   18.1760  -34.9220 C   0  0  0  0  0  0  0  0  0  0  0  0
   -6.4860   17.2340  -34.0100 C   0  0  0  0  0  0  0  0  0  0  0  0
   -6.7010   17.7590  -32.6420 N   0  0  0  0  0  0  0  0  0  0  0  0
   -5.9040   17.0410  -31.6190 C   0  0  0  0  0  0  0  0  0  0  0  0
   -5.0230   15.9990  -32.2970 C   0  0  0  0  0  0  0  0  0  0  0  0
   -8.1320   17.9110  -32.2900 C   0  0  0  0  0  0  0  0  0  0  0  0
   -8.5710   19.3780  -32.4020 C   0  0  0  0  0  0  0  0  0  0  0  0
   -7.6120   20.1820  -33.1600 N   0  0  0  0  0  0  0  0  0  0  0  0
   -6.5910   21.0120  -32.5730 C   0  0  0  0  0  0  0  0  0  0  0  0
   -6.7530   22.4040  -32.4290 C   0  0  0  0  0  0  0  0  0  0  0  0
   -5.7450   23.1810  -31.8500 C   0  0  0  0  0  0  0  0  0  0  0  0
   -4.5540   22.5810  -31.4090 C   0  0  0  0  0  0  0  0  0  0  0  0
   -3.5150   23.3220  -30.8200 C   0  0  0  0  0  0  0  0  0  0  0  0
   -3.6300   24.5690  -30.6580 O   0  0  0  0  0  0  0  0  0  0  0  0
   -2.3430   22.6600  -30.4090 C   0  0  0  0  0  0  0  0  0  0  0  0
   -1.2110   23.4000  -29.7400 C   0  0  0  0  0  0  0  0  0  0  0  0
   -1.7330   24.2870  -28.6130 C   0  0  0  0  0  0  0  0  0  0  0  0
   -1.6390   25.6310  -28.9940 O   0  0  0  0  0  0  0  0  0  0  0  0
   -2.2670   21.2710  -30.5830 C   0  0  0  0  0  0  0  0  0  0  0  0
   -3.2680   20.5990  -31.1420 O   0  0  0  0  0  0  0  0  0  0  0  0
   -4.3850   21.1870  -31.5560 C   0  0  0  0  0  0  0  0  0  0  0  0
   -5.3970   20.4170  -32.1360 C   0  0  0  0  0  0  0  0  0  0  0  0
   -5.0924   18.8688  -34.3046 H   0  0  0  0  0  0  0  0  0  0  0  0
   -5.0075   17.5839  -35.5570 H   0  0  0  0  0  0  0  0  0  0  0  0
   -6.3745   18.7492  -35.5570 H   0  0  0  0  0  0  0  0  0  0  0  0
   -7.4689   17.0598  -34.4721 H   0  0  0  0  0  0  0  0  0  0  0  0
   -5.8966   16.3109  -33.9078 H   0  0  0  0  0  0  0  0  0  0  0  0
   -5.2710   17.7593  -31.0774 H   0  0  0  0  0  0  0  0  0  0  0  0
   -6.5822   16.5417  -30.9114 H   0  0  0  0  0  0  0  0  0  0  0  0
   -4.5130   15.3958  -31.5314 H   0  0  0  0  0  0  0  0  0  0  0  0
   -5.6458   15.3446  -32.9245 H   0  0  0  0  0  0  0  0  0  0  0  0
   -4.2741   16.5043  -32.9245 H   0  0  0  0  0  0  0  0  0  0  0  0
   -8.7383   17.3003  -32.9752 H   0  0  0  0  0  0  0  0  0  0  0  0
   -8.2754   17.5796  -31.2510 H   0  0  0  0  0  0  0  0  0  0  0  0
   -9.5468   19.4188  -32.9082 H   0  0  0  0  0  0  0  0  0  0  0  0
   -8.6320   19.7924  -31.3849 H   0  0  0  0  0  0  0  0  0  0  0  0
   -7.6920   20.1570  -34.2010 H   0  0  0  0  0  0  0  0  0  0  0  0
   -7.6804   22.8837  -32.7750 H   0  0  0  0  0  0  0  0  0  0  0  0
   -5.8853   24.2664  -31.7394 H   0  0  0  0  0  0  0  0  0  0  0  0
   -0.4994   22.6711  -29.3248 H   0  0  0  0  0  0  0  0  0  0  0  0
   -0.7155   24.0363  -30.4881 H   0  0  0  0  0  0  0  0  0  0  0  0
   -2.7842   24.0371  -28.4069 H   0  0  0  0  0  0  0  0  0  0  0  0
   -1.1316   24.1202  -27.7072 H   0  0  0  0  0  0  0  0  0  0  0  0
   -2.0070   25.6820  -29.9140 H   0  0  0  0  0  0  0  0  0  0  0  0
   -1.3676   20.7306  -30.2527 H   0  0  0  0  0  0  0  0  0  0  0  0
   -5.2562   19.3322  -32.2514 H   0  0  0  0  0  0  0  0  0  0  0  0
  1  2  1  0
  2  3  1  0
  3  4  1  0
  4  5  1  0
  3  6  1  0
  6  7  1  0
  7  8  1  0
  8  9  1  0
  9 10  2  0
 10 11  1  0
 11 12  2  0
 12 13  1  0
 13 14  2  0
 13 15  1  0
 15 16  1  0
 16 17  1  0
 17 18  1  0
 15 19  2  0
 19 20  1  0
 20 21  1  0
 21 22  2  0
 22  9  1  0
 21 12  1  0
  1 23  1  0
  1 24  1  0
  1 25  1  0
  2 26  1  0
  2 27  1  0
  4 28  1  0
  4 29  1  0
  5 30  1  0
  5 31  1  0
  5 32  1  0
  6 33  1  0
  6 34  1  0
  7 35  1  0
  7 36  1  0
  8 37  1  0
 10 38  1  0
 11 39  1  0
 16 40  1  0
 16 41  1  0
 17 42  1  0
 17 43  1  0
 18 44  1  0
 19 45  1  0
 22 46  1  0
M  END
>  <UniqueID>  (28) 
28

>  <SMILES>  (28) 
CCN(CC)CCNc1ccc2c(=O)c(CCO)coc2c1

>  <Energy>  (28) 
48.31515555392358

>  <Genealogy>  (28) 
CCN(CC)CCNc1ccc2c(=O)c(CCO)coc2c1 (3D coordinates assigned)
CCN(CC)CCNc1ccc2c(=O)c(CCO)coc2c1 (optimized conformer: 48.31515555392358 kcal/mol)

>  <smiles>  (28) 
CCN(CC)CCNc1ccc2c(=O)c(CCO)coc2c1

>  <score_type>  (28) 
oracle

>  <origin>  (28) 
adg

>  <m_score__min__energy>  (28) 
-7.6100000000000003

>  <m_primary>  (28) 
energy

$$$$
28:0
     RDKit          3D

 32 33  0  0  0  0  0  0  0  0999 V2000
   -6.5320   17.6270  -31.9020 C   0  0  0  0  0  0  0  0  0  0  0  0
   -6.4840   17.5590  -33.4230 C   0  0  0  0  0  0  0  0  0  0  0  0
   -6.0270   19.1730  -34.1510 S   0  0  0  0  0  0  0  0  0  0  0  0
   -7.0190   20.1440  -33.0080 C   0  0  0  0  0  0  0  0  0  0  0  0
   -8.3030   20.1720  -33.0620 N   0  0  0  0  0  0  0  0  0  0  0  0
   -8.8380   21.0270  -32.0130 C   0  0  0  0  0  0  0  0  0  0  0  0
   -7.5980   21.5840  -31.2950 C   0  0  0  0  0  0  0  0  0  0  0  0
   -6.4810   20.9400  -31.9680 N   0  0  0  0  0  0  0  0  0  0  0  0
   -4.8540   21.5330  -31.8950 S   0  0  0  0  0  0  0  0  0  0  0  0
   -4.5810   22.3980  -33.0930 O   0  0  0  0  0  0  0  0  0  0  0  0
   -3.8820   20.3880  -31.8890 O   0  0  0  0  0  0  0  0  0  0  0  0
   -4.6440   22.4590  -30.4130 C   0  0  0  0  0  0  0  0  0  0  0  0
   -3.8610   21.9580  -29.3630 C   0  0  0  0  0  0  0  0  0  0  0  0
   -3.6810   22.7130  -28.2000 C   0  0  0  0  0  0  0  0  0  0  0  0
   -4.2760   23.9730  -28.0820 C   0  0  0  0  0  0  0  0  0  0  0  0
   -4.0470   24.9200  -26.6240 Cl  0  0  0  0  0  0  0  0  0  0  0  0
   -5.0500   24.4800  -29.1320 C   0  0  0  0  0  0  0  0  0  0  0  0
   -5.2310   23.7260  -30.2950 C   0  0  0  0  0  0  0  0  0  0  0  0
   -5.9464   16.7974  -31.4792 H   0  0  0  0  0  0  0  0  0  0  0  0
   -6.1084   18.5843  -31.5642 H   0  0  0  0  0  0  0  0  0  0  0  0
   -7.5759   17.5484  -31.5642 H   0  0  0  0  0  0  0  0  0  0  0  0
   -5.7395   16.8073  -33.7240 H   0  0  0  0  0  0  0  0  0  0  0  0
   -7.4851   17.2863  -33.7884 H   0  0  0  0  0  0  0  0  0  0  0  0
   -8.8790   19.6450  -33.7550 H   0  0  0  0  0  0  0  0  0  0  0  0
   -9.4358   21.8432  -32.4447 H   0  0  0  0  0  0  0  0  0  0  0  0
   -9.5048   20.4807  -31.3297 H   0  0  0  0  0  0  0  0  0  0  0  0
   -7.5418   22.6772  -31.4034 H   0  0  0  0  0  0  0  0  0  0  0  0
   -7.6111   21.3855  -30.2131 H   0  0  0  0  0  0  0  0  0  0  0  0
   -3.3876   20.9693  -29.4545 H   0  0  0  0  0  0  0  0  0  0  0  0
   -3.0702   22.3151  -27.3763 H   0  0  0  0  0  0  0  0  0  0  0  0
   -5.5161   25.4723  -29.0420 H   0  0  0  0  0  0  0  0  0  0  0  0
   -5.8363   24.1286  -31.1205 H   0  0  0  0  0  0  0  0  0  0  0  0
  1  2  1  0
  2  3  1  0
  3  4  1  0
  4  5  2  0
  5  6  1  0
  6  7  1  0
  7  8  1  0
  8  9  1  0
  9 10  2  0
  9 11  2  0
  9 12  1  0
 12 13  2  0
 13 14  1  0
 14 15  2  0
 15 16  1  0
 15 17  1  0
 17 18  2  0
  8  4  1  0
 18 12  1  0
  1 19  1  0
  1 20  1  0
  1 21  1  0
  2 22  1  0
  2 23  1  0
  5 24  1  0
  6 25  1  0
  6 26  1  0
  7 27  1  0
  7 28  1  0
 13 29  1  0
 14 30  1  0
 17 31  1  0
 18 32  1  0
M  CHG  1   5   1
M  END
>  <UniqueID>  (29) 
29

>  <SMILES>  (29) 
CCSC1=[NH+]CCN1S(=O)(=O)c1ccc(Cl)cc1

>  <Energy>  (29) 
37.58591979662302

>  <Genealogy>  (29) 
CCSC1=[NH+]CCN1S(=O)(=O)c1ccc(Cl)cc1 (protonated)
CCSC1=[NH+]CCN1S(=O)(=O)c1ccc(Cl)cc1 (3D coordinates assigned)
CCSC1=[NH+]CCN1S(=O)(=O)c1ccc(Cl)cc1 (nonaromatic ring conformer: 37.58591979662302 kcal/mol)

>  <smiles>  (29) 
CCSC1=NCCN1S(=O)(=O)c1ccc(Cl)cc1

>  <score_type>  (29) 
oracle

>  <origin>  (29) 
adg

>  <m_score__min__energy>  (29) 
-6.4299999999999997

>  <m_primary>  (29) 
energy

$$$$
29:0
     RDKit          3D

 48 49  0  0  0  0  0  0  0  0999 V2000
   -4.5770   22.7500  -34.0250 H   0  0  0  0  0  0  0  0  0  0  0  0
   -4.3590   22.6280  -33.0680 O   0  0  0  0  0  0  0  0  0  0  0  0
   -4.9640   21.1090  -32.6770 S   0  0  0  0  0  0  0  0  0  0  0  0
   -6.6940   21.1740  -32.3590 C   0  0  0  0  0  0  0  0  0  0  0  0
   -7.4720   20.0390  -32.6230 C   0  0  0  0  0  0  0  0  0  0  0  0
   -7.0002   19.1385  -33.0431 H   0  0  0  0  0  0  0  0  0  0  0  0
   -8.8430   20.0440  -32.3560 C   0  0  0  0  0  0  0  0  0  0  0  0
   -9.4462   19.1471  -32.5602 H   0  0  0  0  0  0  0  0  0  0  0  0
   -9.4480   21.1870  -31.8300 C   0  0  0  0  0  0  0  0  0  0  0  0
  -10.5282   21.1907  -31.6224 H   0  0  0  0  0  0  0  0  0  0  0  0
   -8.6830   22.3260  -31.5670 C   0  0  0  0  0  0  0  0  0  0  0  0
   -9.1676   23.2282  -31.1654 H   0  0  0  0  0  0  0  0  0  0  0  0
   -7.2970   22.3280  -31.8120 C   0  0  0  0  0  0  0  0  0  0  0  0
   -6.4970   23.5450  -31.5380 C   0  0  0  0  0  0  0  0  0  0  0  0
   -6.3770   24.2715  -32.3552 H   0  0  0  0  0  0  0  0  0  0  0  0
   -5.9080   23.8250  -30.3640 C   0  0  0  0  0  0  0  0  0  0  0  0
   -6.3970   23.4633  -29.4474 H   0  0  0  0  0  0  0  0  0  0  0  0
   -4.6490   24.5850  -30.2170 C   0  0  0  0  0  0  0  0  0  0  0  0
   -4.2710   25.3120  -31.1750 O   0  0  0  0  0  0  0  0  0  0  0  0
   -3.8040   24.4850  -29.0120 C   0  0  0  0  0  0  0  0  0  0  0  0
   -2.1360   24.7000  -28.9790 S   0  0  0  0  0  0  0  0  0  0  0  0
   -1.9430   24.4320  -27.3310 C   0  0  0  0  0  0  0  0  0  0  0  0
   -0.9919   24.4655  -26.7793 H   0  0  0  0  0  0  0  0  0  0  0  0
   -3.1910   24.1610  -26.7860 C   0  0  0  0  0  0  0  0  0  0  0  0
   -3.3484   23.9504  -25.7179 H   0  0  0  0  0  0  0  0  0  0  0  0
   -4.2300   24.1810  -27.7240 C   0  0  0  0  0  0  0  0  0  0  0  0
   -5.2799   23.9764  -27.4673 H   0  0  0  0  0  0  0  0  0  0  0  0
   -4.0670   20.3400  -31.3400 C   0  0  0  0  0  0  0  0  0  0  0  0
   -3.2941   19.6783  -31.7581 H   0  0  0  0  0  0  0  0  0  0  0  0
   -4.7749   19.7629  -30.7269 H   0  0  0  0  0  0  0  0  0  0  0  0
   -3.3990   21.3950  -30.4550 C   0  0  0  0  0  0  0  0  0  0  0  0
   -4.1769   21.9912  -29.9557 H   0  0  0  0  0  0  0  0  0  0  0  0
   -2.7697   22.0377  -31.0882 H   0  0  0  0  0  0  0  0  0  0  0  0
   -2.5440   20.7590  -29.4300 N   0  0  0  0  0  0  0  0  0  0  0  0
   -3.0740   20.9040  -28.0540 C   0  0  0  0  0  0  0  0  0  0  0  0
   -4.1709   20.9628  -28.1119 H   0  0  0  0  0  0  0  0  0  0  0  0
   -2.6182   21.8134  -27.6355 H   0  0  0  0  0  0  0  0  0  0  0  0
   -2.7030   19.7500  -27.1070 C   0  0  0  0  0  0  0  0  0  0  0  0
   -2.8100   20.0828  -26.0640 H   0  0  0  0  0  0  0  0  0  0  0  0
   -3.3719   18.8961  -27.2899 H   0  0  0  0  0  0  0  0  0  0  0  0
   -1.6618   19.4459  -27.2899 H   0  0  0  0  0  0  0  0  0  0  0  0
   -1.1170   21.1400  -29.5440 C   0  0  0  0  0  0  0  0  0  0  0  0
   -0.8387   21.7721  -28.6878 H   0  0  0  0  0  0  0  0  0  0  0  0
   -0.4987   20.2303  -29.5510 H   0  0  0  0  0  0  0  0  0  0  0  0
   -0.8880   21.9130  -30.8390 C   0  0  0  0  0  0  0  0  0  0  0  0
   -0.5829   22.9430  -30.6022 H   0  0  0  0  0  0  0  0  0  0  0  0
   -0.0968   21.4216  -31.4243 H   0  0  0  0  0  0  0  0  0  0  0  0
   -1.8191   21.9318  -31.4243 H   0  0  0  0  0  0  0  0  0  0  0  0
  1  2  1  0
  3  2  1  1
  3  4  1  0
  4  5  2  0
  5  6  1  0
  5  7  1  0
  7  8  1  0
  7  9  2  0
  9 10  1  0
  9 11  1  0
 11 12  1  0
 11 13  2  0
 13 14  1  0
 14 15  1  0
 14 16  2  0
 16 17  1  0
 16 18  1  0
 18 19  2  0
 18 20  1  0
 20 21  1  0
 21 22  1  0
 22 23  1  0
 22 24  2  0
 24 25  1  0
 24 26  1  0
 26 27  1  0
  3 28  1  0
 28 29  1  0
 28 30  1  0
 28 31  1  0
 31 32  1  0
 31 33  1  0
 31 34  1  0
 34 35  1  0
 35 36  1  0
 35 37  1  0
 35 38  1  0
 38 39  1  0
 38 40  1  0
 38 41  1  0
 34 42  1  0
 42 43  1  0
 42 44  1  0
 42 45  1  0
 45 46  1  0
 45 47  1  0
 45 48  1  0
 13  4  1  0
 26 20  2  0
M  CHG  1   3   1
M  END
>  <UniqueID>  (30) 
30

>  <SMILES>  (30) 
CCN(CC)CC[S@+](O)c1ccccc1/C=C\C(=O)c1cccs1

>  <Energy>  (30) 
77.51554111432978

>  <Genealogy>  (30) 
CCN(CC)CC[S+](O)c1ccccc1C=CC(=O)c1cccs1 (protonated)
CCN(CC)CC[S@+](O)c1ccccc1C=CC(=O)c1cccs1 (chirality)
CCN(CC)CC[S@+](O)c1ccccc1/C=C\C(=O)c1cccs1 (cis-trans isomerization)
CCN(CC)CC[S@+](O)c1ccccc1/C=C\C(=O)c1cccs1 (3D coordinates assigned)
CCN(CC)CC[S@+](O)c1ccccc1/C=C\C(=O)c1cccs1 (optimized conformer: 77.51554111432978 kcal/mol)

>  <smiles>  (30) 
CCN(CC)CC[S+]([O-])c1ccccc1C=CC(=O)c1cccs1

>  <score_type>  (30) 
oracle

>  <origin>  (30) 
adg

>  <m_score__min__energy>  (30) 
-7.9400000000000004

>  <m_primary>  (30) 
energy

$$$$
30:0
     RDKit          3D

 48 51  0  0  0  0  0  0  0  0999 V2000
   -2.3010   18.7430  -33.9020 C   0  0  0  0  0  0  0  0  0  0  0  0
   -3.6700   18.9460  -34.2380 O   0  0  0  0  0  0  0  0  0  0  0  0
   -4.6740   17.9720  -34.1220 C   0  0  0  0  0  0  0  0  0  0  0  0
   -4.5650   16.7130  -34.7500 C   0  0  0  0  0  0  0  0  0  0  0  0
   -5.5640   15.7510  -34.5850 C   0  0  0  0  0  0  0  0  0  0  0  0
   -6.6810   16.0290  -33.7970 C   0  0  0  0  0  0  0  0  0  0  0  0
   -6.8060   17.2720  -33.1750 C   0  0  0  0  0  0  0  0  0  0  0  0
   -5.8110   18.2530  -33.3360 C   0  0  0  0  0  0  0  0  0  0  0  0
   -5.9580   19.5320  -32.6920 N   0  0  0  0  0  0  0  0  0  0  0  0
   -7.2990   20.1010  -32.5210 C   0  0  0  0  0  0  0  0  0  0  0  0
   -7.2730   21.2550  -31.5120 C   0  0  0  0  0  0  0  0  0  0  0  0
   -6.2280   22.2400  -31.8670 N   0  0  0  0  0  0  0  0  0  0  0  0
   -6.2050   23.2970  -30.8760 C   0  0  0  0  0  0  0  0  0  0  0  0
   -7.2540   23.9640  -30.6460 O   0  0  0  0  0  0  0  0  0  0  0  0
   -4.9680   23.6410  -30.1320 C   0  0  0  0  0  0  0  0  0  0  0  0
   -4.4520   22.7320  -29.1980 C   0  0  0  0  0  0  0  0  0  0  0  0
   -3.2860   23.0440  -28.4930 C   0  0  0  0  0  0  0  0  0  0  0  0
   -2.7490   22.1690  -27.5370 C   0  0  0  0  0  0  0  0  0  0  0  0
   -1.5820   22.5200  -26.8470 C   0  0  0  0  0  0  0  0  0  0  0  0
   -0.9490   23.7390  -27.1090 C   0  0  0  0  0  0  0  0  0  0  0  0
   -1.4780   24.6130  -28.0660 C   0  0  0  0  0  0  0  0  0  0  0  0
   -2.6480   24.2740  -28.7580 C   0  0  0  0  0  0  0  0  0  0  0  0
   -3.1510   25.1060  -29.6620 O   0  0  0  0  0  0  0  0  0  0  0  0
   -4.2620   24.8440  -30.3490 C   0  0  0  0  0  0  0  0  0  0  0  0
   -4.6550   25.6760  -31.2090 O   0  0  0  0  0  0  0  0  0  0  0  0
   -4.8670   21.6490  -32.0430 C   0  0  0  0  0  0  0  0  0  0  0  0
   -4.8310   20.1120  -31.9570 C   0  0  0  0  0  0  0  0  0  0  0  0
   -2.1906   18.7266  -32.8077 H   0  0  0  0  0  0  0  0  0  0  0  0
   -1.9593   17.7844  -34.3194 H   0  0  0  0  0  0  0  0  0  0  0  0
   -1.6958   19.5612  -34.3194 H   0  0  0  0  0  0  0  0  0  0  0  0
   -3.6873   16.4877  -35.3737 H   0  0  0  0  0  0  0  0  0  0  0  0
   -5.4698   14.7719  -35.0775 H   0  0  0  0  0  0  0  0  0  0  0  0
   -7.4641   15.2677  -33.6658 H   0  0  0  0  0  0  0  0  0  0  0  0
   -7.6887   17.4860  -32.5546 H   0  0  0  0  0  0  0  0  0  0  0  0
   -7.6581   20.4769  -33.4904 H   0  0  0  0  0  0  0  0  0  0  0  0
   -7.9709   19.3161  -32.1436 H   0  0  0  0  0  0  0  0  0  0  0  0
   -8.2532   21.7542  -31.5098 H   0  0  0  0  0  0  0  0  0  0  0  0
   -7.0488   20.8469  -30.5154 H   0  0  0  0  0  0  0  0  0  0  0  0
   -6.5250   22.6530  -32.7840 H   0  0  0  0  0  0  0  0  0  0  0  0
   -4.9638   21.7747  -29.0201 H   0  0  0  0  0  0  0  0  0  0  0  0
   -3.2438   21.2087  -27.3297 H   0  0  0  0  0  0  0  0  0  0  0  0
   -1.1619   21.8344  -26.0964 H   0  0  0  0  0  0  0  0  0  0  0  0
   -0.0342   24.0115  -26.5624 H   0  0  0  0  0  0  0  0  0  0  0  0
   -0.9739   25.5681  -28.2751 H   0  0  0  0  0  0  0  0  0  0  0  0
   -4.4858   21.9484  -33.0305 H   0  0  0  0  0  0  0  0  0  0  0  0
   -4.2486   22.0267  -31.2154 H   0  0  0  0  0  0  0  0  0  0  0  0
   -3.8887   19.7468  -32.3914 H   0  0  0  0  0  0  0  0  0  0  0  0
   -4.9020   19.8123  -30.9010 H   0  0  0  0  0  0  0  0  0  0  0  0
  1  2  1  0
  2  3  1  0
  3  4  2  0
  4  5  1  0
  5  6  2  0
  6  7  1  0
  7  8  2  0
  8  9  1  0
  9 10  1  0
 10 11  1  0
 11 12  1  0
 12 13  1  0
 13 14  2  0
 13 15  1  0
 15 16  2  0
 16 17  1  0
 17 18  2  0
 18 19  1  0
 19 20  2  0
 20 21  1  0
 21 22  2  0
 22 23  1  0
 23 24  1  0
 24 25  2  0
 12 26  1  0
 26 27  1  0
  8  3  1  0
 27  9  1  0
 24 15  1  0
 22 17  1  0
  1 28  1  0
  1 29  1  0
  1 30  1  0
  4 31  1  0
  5 32  1  0
  6 33  1  0
  7 34  1  0
 10 35  1  0
 10 36  1  0
 11 37  1  0
 11 38  1  0
 12 39  1  0
 16 40  1  0
 18 41  1  0
 19 42  1  0
 20 43  1  0
 21 44  1  0
 26 45  1  0
 26 46  1  0
 27 47  1  0
 27 48  1  0
M  CHG  1  12   1
M  END
>  <UniqueID>  (31) 
31

>  <SMILES>  (31) 
COc1ccccc1N1CC[NH+](C(=O)c2cc3ccccc3oc2=O)CC1

>  <Energy>  (31) 
73.71045458866962

>  <Genealogy>  (31) 
COc1ccccc1N1CC[NH+](C(=O)c2cc3ccccc3oc2=O)CC1 (protonated)
COc1ccccc1N1CC[NH+](C(=O)c2cc3ccccc3oc2=O)CC1 (3D coordinates assigned)
COc1ccccc1N1CC[NH+](C(=O)c2cc3ccccc3oc2=O)CC1 (nonaromatic ring conformer: 73.71045458866962 kcal/mol)

>  <smiles>  (31) 
COc1ccccc1N1CCN(C(=O)c2cc3ccccc3oc2=O)CC1

>  <score_type>  (31) 
oracle

>  <origin>  (31) 
adg

>  <m_score__min__energy>  (31) 
-7.8799999999999999

>  <m_primary>  (31) 
energy

$$$$
31:0
     RDKit          3D

 67 70  0  0  0  0  0  0  0  0999 V2000
   -6.1180   17.1620  -30.8430 C   0  0  0  0  0  0  0  0  0  0  0  0
   -6.5390   18.5920  -31.2140 C   0  0  0  0  0  0  0  0  0  0  0  0
   -7.4990   18.6560  -32.3410 N   0  0  0  0  0  0  0  0  0  0  0  0
   -8.8270   19.1790  -31.9370 C   0  0  0  0  0  0  0  0  0  0  0  0
   -8.7980   20.7020  -31.9520 C   0  0  0  0  0  0  0  0  0  0  0  0
   -7.5750   17.3880  -33.0980 C   0  0  0  0  0  0  0  0  0  0  0  0
   -6.5170   17.3540  -34.2080 C   0  0  0  0  0  0  0  0  0  0  0  0
   -6.0200   18.7000  -34.5020 N   0  0  0  0  0  0  0  0  0  0  0  0
   -4.7860   19.2330  -33.9740 C   0  0  0  0  0  0  0  0  0  0  0  0
   -3.5520   18.5430  -34.1040 C   0  0  0  0  0  0  0  0  0  0  0  0
   -3.4700   17.3230  -34.8100 C   0  0  0  0  0  0  0  0  0  0  0  0
   -2.2680   16.6240  -34.8860 C   0  0  0  0  0  0  0  0  0  0  0  0
   -1.1270   17.1190  -34.2620 C   0  0  0  0  0  0  0  0  0  0  0  0
   -1.1660   18.3380  -33.5900 C   0  0  0  0  0  0  0  0  0  0  0  0
   -2.3560   19.1020  -33.5280 C   0  0  0  0  0  0  0  0  0  0  0  0
   -2.3870   20.3500  -32.9220 N   0  0  0  0  0  0  0  0  0  0  0  0
   -1.1530   21.0760  -32.5780 C   0  0  0  0  0  0  0  0  0  0  0  0
   -3.6080   20.9340  -32.7180 C   0  0  0  0  0  0  0  0  0  0  0  0
   -4.7720   20.4210  -33.2460 C   0  0  0  0  0  0  0  0  0  0  0  0
   -5.8020   21.1830  -32.9460 O   0  0  0  0  0  0  0  0  0  0  0  0
   -5.3490   22.1780  -32.2170 C   0  0  0  0  0  0  0  0  0  0  0  0
   -6.0970   23.2120  -31.6660 C   0  0  0  0  0  0  0  0  0  0  0  0
   -5.4360   24.1520  -30.8610 C   0  0  0  0  0  0  0  0  0  0  0  0
   -4.0470   24.0250  -30.5900 C   0  0  0  0  0  0  0  0  0  0  0  0
   -3.3510   24.9130  -29.7540 O   0  0  0  0  0  0  0  0  0  0  0  0
   -2.8300   24.6160  -28.4570 C   0  0  0  0  0  0  0  0  0  0  0  0
   -1.4730   23.9090  -28.5630 C   0  0  0  0  0  0  0  0  0  0  0  0
   -0.3620   24.8760  -28.4380 N   0  0  0  0  0  0  0  0  0  0  0  0
    0.8120   24.2520  -27.8010 C   0  0  0  0  0  0  0  0  0  0  0  0
   -0.7790   26.0530  -27.6600 C   0  0  0  0  0  0  0  0  0  0  0  0
   -3.3160   22.9730  -31.1790 C   0  0  0  0  0  0  0  0  0  0  0  0
   -3.9890   22.0780  -32.0200 C   0  0  0  0  0  0  0  0  0  0  0  0
   -6.0883   17.0610  -29.7481 H   0  0  0  0  0  0  0  0  0  0  0  0
   -6.8437   16.4469  -31.2576 H   0  0  0  0  0  0  0  0  0  0  0  0
   -5.1206   16.9542  -31.2576 H   0  0  0  0  0  0  0  0  0  0  0  0
   -7.0061   19.0563  -30.3329 H   0  0  0  0  0  0  0  0  0  0  0  0
   -5.6301   19.1220  -31.5349 H   0  0  0  0  0  0  0  0  0  0  0  0
   -9.5923   18.8197  -32.6407 H   0  0  0  0  0  0  0  0  0  0  0  0
   -9.0674   18.8265  -30.9231 H   0  0  0  0  0  0  0  0  0  0  0  0
   -8.7908   21.0788  -30.9186 H   0  0  0  0  0  0  0  0  0  0  0  0
   -7.8931   21.0464  -32.4741 H   0  0  0  0  0  0  0  0  0  0  0  0
   -9.6891   21.0806  -32.4741 H   0  0  0  0  0  0  0  0  0  0  0  0
   -7.4041   16.5464  -32.4106 H   0  0  0  0  0  0  0  0  0  0  0  0
   -8.5715   17.3099  -33.5572 H   0  0  0  0  0  0  0  0  0  0  0  0
   -5.6762   16.7230  -33.8841 H   0  0  0  0  0  0  0  0  0  0  0  0
   -6.9782   16.9444  -35.1188 H   0  0  0  0  0  0  0  0  0  0  0  0
   -6.6080   19.2940  -35.1240 H   0  0  0  0  0  0  0  0  0  0  0  0
   -4.3656   16.9202  -35.3055 H   0  0  0  0  0  0  0  0  0  0  0  0
   -2.2203   15.6760  -35.4420 H   0  0  0  0  0  0  0  0  0  0  0  0
   -0.1897   16.5446  -34.2997 H   0  0  0  0  0  0  0  0  0  0  0  0
   -0.2563   18.7137  -33.0988 H   0  0  0  0  0  0  0  0  0  0  0  0
   -1.0545   21.1339  -31.4839 H   0  0  0  0  0  0  0  0  0  0  0  0
   -0.2859   20.5441  -32.9965 H   0  0  0  0  0  0  0  0  0  0  0  0
   -1.1967   22.0923  -32.9965 H   0  0  0  0  0  0  0  0  0  0  0  0
   -7.1776   23.2911  -31.8559 H   0  0  0  0  0  0  0  0  0  0  0  0
   -5.9988   24.9958  -30.4354 H   0  0  0  0  0  0  0  0  0  0  0  0
   -2.7051   25.5535  -27.8953 H   0  0  0  0  0  0  0  0  0  0  0  0
   -3.5349   23.9495  -27.9384 H   0  0  0  0  0  0  0  0  0  0  0  0
   -1.3924   23.1623  -27.7593 H   0  0  0  0  0  0  0  0  0  0  0  0
   -1.4063   23.4232  -29.5477 H   0  0  0  0  0  0  0  0  0  0  0  0
    0.7083   24.3071  -26.7073 H   0  0  0  0  0  0  0  0  0  0  0  0
    0.8803   23.1986  -28.1102 H   0  0  0  0  0  0  0  0  0  0  0  0
    1.7234   24.7847  -28.1102 H   0  0  0  0  0  0  0  0  0  0  0  0
   -0.6998   25.8294  -26.5859 H   0  0  0  0  0  0  0  0  0  0  0  0
   -0.1279   26.9047  -27.9062 H   0  0  0  0  0  0  0  0  0  0  0  0
   -1.8211   26.3049  -27.9062 H   0  0  0  0  0  0  0  0  0  0  0  0
   -2.2399   22.8577  -30.9821 H   0  0  0  0  0  0  0  0  0  0  0  0
  1  2  1  0
  2  3  1  0
  3  4  1  0
  4  5  1  0
  3  6  1  0
  6  7  1  0
  7  8  1  0
  8  9  1  0
  9 10  2  0
 10 11  1  0
 11 12  2  0
 12 13  1  0
 13 14  2  0
 14 15  1  0
 15 16  2  0
 16 17  1  0
 16 18  1  0
 18 19  2  0
 19 20  1  0
 20 21  1  0
 21 22  2  0
 22 23  1  0
 23 24  2  0
 24 25  1  0
 25 26  1  0
 26 27  1  0
 27 28  1  0
 28 29  1  0
 28 30  1  0
 24 31  1  0
 31 32  2  0
 19  9  1  0
 32 21  1  0
 15 10  1  0
 32 18  1  0
  1 33  1  0
  1 34  1  0
  1 35  1  0
  2 36  1  0
  2 37  1  0
  4 38  1  0
  4 39  1  0
  5 40  1  0
  5 41  1  0
  5 42  1  0
  6 43  1  0
  6 44  1  0
  7 45  1  0
  7 46  1  0
  8 47  1  0
 11 48  1  0
 12 49  1  0
 13 50  1  0
 14 51  1  0
 17 52  1  0
 17 53  1  0
 17 54  1  0
 22 55  1  0
 23 56  1  0
 26 57  1  0
 26 58  1  0
 27 59  1  0
 27 60  1  0
 29 61  1  0
 29 62  1  0
 29 63  1  0
 30 64  1  0
 30 65  1  0
 30 66  1  0
 31 67  1  0
M  CHG  1  16   1
M  END
>  <UniqueID>  (32) 
32

>  <SMILES>  (32) 
CCN(CC)CCNc1c2ccccc2[n+](C)c2c1oc1ccc(OCCN(C)C)cc12

>  <Energy>  (32) 
128.8142693858377

>  <Genealogy>  (32) 
CCN(CC)CCNc1c2ccccc2[n+](C)c2c1oc1ccc(OCCN(C)C)cc12 (3D coordinates assigned)
CCN(CC)CCNc1c2ccccc2[n+](C)c2c1oc1ccc(OCCN(C)C)cc12 (optimized conformer: 128.8142693858377 kcal/mol)

>  <smiles>  (32) 
CCN(CC)CCNc1c2ccccc2[n+](C)c2c1oc1ccc(OCCN(C)C)cc12

>  <score_type>  (32) 
oracle

>  <origin>  (32) 
adg

>  <m_score__min__energy>  (32) 
-8.1199999999999992

>  <m_primary>  (32) 
energy

$$$$
32:0
     RDKit          3D

 62 64  0  0  0  0  0  0  0  0999 V2000
   -6.1140   25.6380  -29.6980 C   0  0  0  0  0  0  0  0  0  0  0  0
   -5.3920   25.0380  -30.8990 C   0  0  0  0  0  0  0  0  0  0  0  0
   -4.0500   24.5510  -30.5000 N   0  0  0  0  0  0  0  0  0  0  0  0
   -3.9160   24.5160  -29.0250 C   0  0  0  0  0  0  0  0  0  0  0  0
   -4.1570   23.1030  -28.5000 C   0  0  0  0  0  0  0  0  0  0  0  0
   -3.7650   23.2250  -31.0950 C   0  0  0  0  0  0  0  0  0  0  0  0
   -5.0300   22.6770  -31.7990 C   0  0  0  0  0  0  0  0  0  0  0  0
   -4.7990   21.9180  -33.0580 N   0  0  0  0  0  0  0  0  0  0  0  0
   -5.0990   20.4920  -33.0110 C   0  0  0  0  0  0  0  0  0  0  0  0
   -6.4260   20.0680  -32.7320 C   0  0  0  0  0  0  0  0  0  0  0  0
   -7.4160   20.9800  -32.2910 C   0  0  0  0  0  0  0  0  0  0  0  0
   -8.7290   20.5720  -32.0790 C   0  0  0  0  0  0  0  0  0  0  0  0
   -9.0920   19.2540  -32.3080 C   0  0  0  0  0  0  0  0  0  0  0  0
   -8.1350   18.3270  -32.7100 C   0  0  0  0  0  0  0  0  0  0  0  0
   -6.7760   18.7010  -32.8860 C   0  0  0  0  0  0  0  0  0  0  0  0
   -5.8160   17.7730  -33.2270 N   0  0  0  0  0  0  0  0  0  0  0  0
   -6.1190   16.3270  -33.1090 C   0  0  0  0  0  0  0  0  0  0  0  0
   -4.5550   18.1830  -33.6150 C   0  0  0  0  0  0  0  0  0  0  0  0
   -3.6810   17.2940  -34.2740 C   0  0  0  0  0  0  0  0  0  0  0  0
   -2.3630   17.6430  -34.5860 C   0  0  0  0  0  0  0  0  0  0  0  0
   -1.5350   16.7540  -35.2910 O   0  0  0  0  0  0  0  0  0  0  0  0
   -1.9190   15.4700  -35.7710 C   0  0  0  0  0  0  0  0  0  0  0  0
   -1.8660   18.8990  -34.1790 C   0  0  0  0  0  0  0  0  0  0  0  0
   -0.5350   19.2920  -34.4170 O   0  0  0  0  0  0  0  0  0  0  0  0
    0.6530   18.5910  -34.0660 C   0  0  0  0  0  0  0  0  0  0  0  0
   -2.7320   19.8160  -33.5250 C   0  0  0  0  0  0  0  0  0  0  0  0
   -2.2450   21.0090  -32.9530 O   0  0  0  0  0  0  0  0  0  0  0  0
   -1.1190   21.1730  -32.0960 C   0  0  0  0  0  0  0  0  0  0  0  0
   -4.1240   19.5150  -33.3860 C   0  0  0  0  0  0  0  0  0  0  0  0
   -5.6592   25.2601  -28.7704 H   0  0  0  0  0  0  0  0  0  0  0  0
   -6.0278   26.7342  -29.7285 H   0  0  0  0  0  0  0  0  0  0  0  0
   -7.1759   25.3527  -29.7285 H   0  0  0  0  0  0  0  0  0  0  0  0
   -5.9809   24.1970  -31.2938 H   0  0  0  0  0  0  0  0  0  0  0  0
   -5.2772   25.8123  -31.6718 H   0  0  0  0  0  0  0  0  0  0  0  0
   -2.9019   24.8379  -28.7458 H   0  0  0  0  0  0  0  0  0  0  0  0
   -4.6632   25.1919  -28.5836 H   0  0  0  0  0  0  0  0  0  0  0  0
   -4.1549   23.1152  -27.4001 H   0  0  0  0  0  0  0  0  0  0  0  0
   -5.1302   22.7388  -28.8608 H   0  0  0  0  0  0  0  0  0  0  0  0
   -3.3595   22.4368  -28.8608 H   0  0  0  0  0  0  0  0  0  0  0  0
   -2.9526   23.3227  -31.8301 H   0  0  0  0  0  0  0  0  0  0  0  0
   -3.4654   22.5287  -30.2979 H   0  0  0  0  0  0  0  0  0  0  0  0
   -5.5453   22.0090  -31.0931 H   0  0  0  0  0  0  0  0  0  0  0  0
   -5.6146   23.5623  -32.0896 H   0  0  0  0  0  0  0  0  0  0  0  0
   -3.8310   22.0830  -33.4120 H   0  0  0  0  0  0  0  0  0  0  0  0
   -5.3530   22.3600  -33.8270 H   0  0  0  0  0  0  0  0  0  0  0  0
   -7.1416   22.0302  -32.1129 H   0  0  0  0  0  0  0  0  0  0  0  0
   -9.4798   21.2960  -31.7293 H   0  0  0  0  0  0  0  0  0  0  0  0
  -10.1375   18.9405  -32.1718 H   0  0  0  0  0  0  0  0  0  0  0  0
   -8.4365   17.2854  -32.8949 H   0  0  0  0  0  0  0  0  0  0  0  0
   -6.1770   16.0501  -32.0460 H   0  0  0  0  0  0  0  0  0  0  0  0
   -7.0815   16.1131  -33.5967 H   0  0  0  0  0  0  0  0  0  0  0  0
   -5.3234   15.7447  -33.5967 H   0  0  0  0  0  0  0  0  0  0  0  0
   -4.0473   16.2946  -34.5514 H   0  0  0  0  0  0  0  0  0  0  0  0
   -2.1181   14.8043  -34.9183 H   0  0  0  0  0  0  0  0  0  0  0  0
   -2.8283   15.5641  -36.3828 H   0  0  0  0  0  0  0  0  0  0  0  0
   -1.1073   15.0494  -36.3828 H   0  0  0  0  0  0  0  0  0  0  0  0
    0.7388   18.5404  -32.9705 H   0  0  0  0  0  0  0  0  0  0  0  0
    0.6127   17.5719  -34.4781 H   0  0  0  0  0  0  0  0  0  0  0  0
    1.5256   19.1190  -34.4781 H   0  0  0  0  0  0  0  0  0  0  0  0
   -1.4466   21.1253  -31.0470 H   0  0  0  0  0  0  0  0  0  0  0  0
   -0.3910   20.3714  -32.2896 H   0  0  0  0  0  0  0  0  0  0  0  0
   -0.6499   22.1489  -32.2896 H   0  0  0  0  0  0  0  0  0  0  0  0
  1  2  1  0
  2  3  1  0
  3  4  1  0
  4  5  1  0
  3  6  1  0
  6  7  1  0
  7  8  1  0
  8  9  1  0
  9 10  2  0
 10 11  1  0
 11 12  2  0
 12 13  1  0
 13 14  2  0
 14 15  1  0
 15 16  2  0
 16 17  1  0
 16 18  1  0
 18 19  2  0
 19 20  1  0
 20 21  1  0
 21 22  1  0
 20 23  2  0
 23 24  1  0
 24 25  1  0
 23 26  1  0
 26 27  1  0
 27 28  1  0
 26 29  2  0
 29  9  1  0
 15 10  1  0
 29 18  1  0
  1 30  1  0
  1 31  1  0
  1 32  1  0
  2 33  1  0
  2 34  1  0
  4 35  1  0
  4 36  1  0
  5 37  1  0
  5 38  1  0
  5 39  1  0
  6 40  1  0
  6 41  1  0
  7 42  1  0
  7 43  1  0
  8 44  1  0
  8 45  1  0
 11 46  1  0
 12 47  1  0
 13 48  1  0
 14 49  1  0
 17 50  1  0
 17 51  1  0
 17 52  1  0
 19 53  1  0
 22 54  1  0
 22 55  1  0
 22 56  1  0
 25 57  1  0
 25 58  1  0
 25 59  1  0
 28 60  1  0
 28 61  1  0
 28 62  1  0
M  CHG  2   8   1  16   1
M  END
>  <UniqueID>  (33) 
33

>  <SMILES>  (33) 
CCN(CC)CC[NH2+]c1c2ccccc2[n+](C)c2cc(OC)c(OC)c(OC)c12

>  <Energy>  (33) 
107.35413929358594

>  <Genealogy>  (33) 
CCN(CC)CC[NH2+]c1c2ccccc2[n+](C)c2cc(OC)c(OC)c(OC)c12 (protonated)
CCN(CC)CC[NH2+]c1c2ccccc2[n+](C)c2cc(OC)c(OC)c(OC)c12 (3D coordinates assigned)
CCN(CC)CC[NH2+]c1c2ccccc2[n+](C)c2cc(OC)c(OC)c(OC)c12 (optimized conformer: 107.35413929358594 kcal/mol)

>  <smiles>  (33) 
CCN(CC)CCNc1c2ccccc2[n+](C)c2cc(OC)c(OC)c(OC)c12

>  <score_type>  (33) 
oracle

>  <origin>  (33) 
adg

>  <m_score__min__energy>  (33) 
-7.54

>  <m_primary>  (33) 
energy

$$$$
33:0
     RDKit          3D

 58 61  0  0  0  0  0  0  0  0999 V2000
   -8.9870   21.4280  -30.9900 C   0  0  0  0  0  0  0  0  0  0  0  0
   -9.7500   20.9010  -32.2090 C   0  0  0  0  0  0  0  0  0  0  0  0
   -8.9520   19.9640  -33.0160 N   0  0  0  0  0  0  0  0  0  0  0  0
   -8.6370   18.7300  -32.2830 C   0  0  0  0  0  0  0  0  0  0  0  0
   -7.4100   18.0570  -32.9070 C   0  0  0  0  0  0  0  0  0  0  0  0
   -6.8030   18.8660  -33.9850 N   0  0  0  0  0  0  0  0  0  0  0  0
   -5.4210   19.2330  -33.6900 C   0  0  0  0  0  0  0  0  0  0  0  0
   -4.3610   18.3410  -34.0170 C   0  0  0  0  0  0  0  0  0  0  0  0
   -4.6020   17.0450  -34.5390 C   0  0  0  0  0  0  0  0  0  0  0  0
   -3.5500   16.2040  -34.8930 C   0  0  0  0  0  0  0  0  0  0  0  0
   -2.2360   16.6270  -34.7410 C   0  0  0  0  0  0  0  0  0  0  0  0
   -1.9680   17.8930  -34.2310 C   0  0  0  0  0  0  0  0  0  0  0  0
   -3.0160   18.7710  -33.8590 C   0  0  0  0  0  0  0  0  0  0  0  0
   -2.7450   20.0240  -33.3620 N   0  0  0  0  0  0  0  0  0  0  0  0
   -1.4630   20.6680  -33.7280 C   0  0  0  0  0  0  0  0  0  0  0  0
   -3.7360   20.7460  -32.7310 C   0  0  0  0  0  0  0  0  0  0  0  0
   -5.0980   20.4570  -33.0320 C   0  0  0  0  0  0  0  0  0  0  0  0
   -6.0810   21.4060  -32.6680 C   0  0  0  0  0  0  0  0  0  0  0  0
   -5.7530   22.5490  -31.9500 C   0  0  0  0  0  0  0  0  0  0  0  0
   -4.4570   22.7350  -31.4760 C   0  0  0  0  0  0  0  0  0  0  0  0
   -4.1750   23.8190  -30.6310 C   0  0  0  0  0  0  0  0  0  0  0  0
   -2.9110   23.9500  -30.0350 C   0  0  0  0  0  0  0  0  0  0  0  0
   -2.5900   25.0280  -29.1930 O   0  0  0  0  0  0  0  0  0  0  0  0
   -2.3560   24.9170  -27.7930 C   0  0  0  0  0  0  0  0  0  0  0  0
   -1.9370   22.9710  -30.2600 C   0  0  0  0  0  0  0  0  0  0  0  0
   -0.7010   23.1010  -29.6070 O   0  0  0  0  0  0  0  0  0  0  0  0
   -0.2560   22.2660  -28.5420 C   0  0  0  0  0  0  0  0  0  0  0  0
   -2.2180   21.8910  -31.1180 C   0  0  0  0  0  0  0  0  0  0  0  0
   -3.4480   21.8030  -31.8070 C   0  0  0  0  0  0  0  0  0  0  0  0
   -9.4835   21.0851  -30.0703 H   0  0  0  0  0  0  0  0  0  0  0  0
   -7.9543   21.0497  -31.0121 H   0  0  0  0  0  0  0  0  0  0  0  0
   -8.9752   22.5277  -31.0121 H   0  0  0  0  0  0  0  0  0  0  0  0
  -10.6555   20.3827  -31.8605 H   0  0  0  0  0  0  0  0  0  0  0  0
   -9.9953   21.7634  -32.8463 H   0  0  0  0  0  0  0  0  0  0  0  0
   -9.4830   19.7200  -33.8850 H   0  0  0  0  0  0  0  0  0  0  0  0
   -8.4252   18.9734  -31.2314 H   0  0  0  0  0  0  0  0  0  0  0  0
   -9.4956   18.0446  -32.3380 H   0  0  0  0  0  0  0  0  0  0  0  0
   -6.6578   17.8975  -32.1204 H   0  0  0  0  0  0  0  0  0  0  0  0
   -7.7416   17.1067  -33.3509 H   0  0  0  0  0  0  0  0  0  0  0  0
   -6.8340   18.3220  -34.8760 H   0  0  0  0  0  0  0  0  0  0  0  0
   -7.4040   19.6840  -34.2120 H   0  0  0  0  0  0  0  0  0  0  0  0
   -5.6379   16.6978  -34.6666 H   0  0  0  0  0  0  0  0  0  0  0  0
   -3.7605   15.2016  -35.2942 H   0  0  0  0  0  0  0  0  0  0  0  0
   -1.4074   15.9611  -35.0238 H   0  0  0  0  0  0  0  0  0  0  0  0
   -0.9237   18.2184  -34.1144 H   0  0  0  0  0  0  0  0  0  0  0  0
   -0.9164   20.9426  -32.8137 H   0  0  0  0  0  0  0  0  0  0  0  0
   -0.8569   19.9674  -34.3211 H   0  0  0  0  0  0  0  0  0  0  0  0
   -1.6632   21.5725  -34.3211 H   0  0  0  0  0  0  0  0  0  0  0  0
   -7.1278   21.2355  -32.9596 H   0  0  0  0  0  0  0  0  0  0  0  0
   -6.5214   23.3115  -31.7548 H   0  0  0  0  0  0  0  0  0  0  0  0
   -4.9514   24.5729  -30.4339 H   0  0  0  0  0  0  0  0  0  0  0  0
   -3.2171   25.3255  -27.2438 H   0  0  0  0  0  0  0  0  0  0  0  0
   -2.2200   23.8584  -27.5268 H   0  0  0  0  0  0  0  0  0  0  0  0
   -1.4501   25.4814  -27.5268 H   0  0  0  0  0  0  0  0  0  0  0  0
   -0.5061   22.7353  -27.5791 H   0  0  0  0  0  0  0  0  0  0  0  0
   -0.7518   21.2866  -28.6123 H   0  0  0  0  0  0  0  0  0  0  0  0
    0.8335   22.1314  -28.6123 H   0  0  0  0  0  0  0  0  0  0  0  0
   -1.4654   21.1005  -31.2545 H   0  0  0  0  0  0  0  0  0  0  0  0
  1  2  1  0
  2  3  1  0
  3  4  1  0
  4  5  1  0
  5  6  1  0
  6  7  1  0
  7  8  2  0
  8  9  1  0
  9 10  2  0
 10 11  1  0
 11 12  2  0
 12 13  1  0
 13 14  2  0
 14 15  1  0
 14 16  1  0
 16 17  2  0
 17 18  1  0
 18 19  2  0
 19 20  1  0
 20 21  2  0
 21 22  1  0
 22 23  1  0
 23 24  1  0
 22 25  2  0
 25 26  1  0
 26 27  1  0
 25 28  1  0
 28 29  2  0
 17  7  1  0
 29 20  1  0
 13  8  1  0
 29 16  1  0
  1 30  1  0
  1 31  1  0
  1 32  1  0
  2 33  1  0
  2 34  1  0
  3 35  1  0
  4 36  1  0
  4 37  1  0
  5 38  1  0
  5 39  1  0
  6 40  1  0
  6 41  1  0
  9 42  1  0
 10 43  1  0
 11 44  1  0
 12 45  1  0
 15 46  1  0
 15 47  1  0
 15 48  1  0
 18 49  1  0
 19 50  1  0
 21 51  1  0
 24 52  1  0
 24 53  1  0
 24 54  1  0
 27 55  1  0
 27 56  1  0
 27 57  1  0
 28 58  1  0
M  CHG  2   6   1  14   1
M  END
>  <UniqueID>  (34) 
34

>  <SMILES>  (34) 
CCNCC[NH2+]c1c2ccccc2[n+](C)c2c1ccc1cc(OC)c(OC)cc12

>  <Energy>  (34) 
101.09122968350846

>  <Genealogy>  (34) 
CCNCC[NH2+]c1c2ccccc2[n+](C)c2c1ccc1cc(OC)c(OC)cc12 (protonated)
CCNCC[NH2+]c1c2ccccc2[n+](C)c2c1ccc1cc(OC)c(OC)cc12 (3D coordinates assigned)
CCNCC[NH2+]c1c2ccccc2[n+](C)c2c1ccc1cc(OC)c(OC)cc12 (optimized conformer: 101.09122968350846 kcal/mol)

>  <smiles>  (34) 
CCNCCNc1c2ccccc2[n+](C)c2c1ccc1cc(OC)c(OC)cc12

>  <score_type>  (34) 
oracle

>  <origin>  (34) 
adg

>  <m_score__min__energy>  (34) 
-8.3399999999999999

>  <m_primary>  (34) 
energy

$$$$
34:0
     RDKit          3D

 65 68  0  0  0  0  0  0  0  0999 V2000
    3.0140   25.2840  -25.3150 C   0  0  0  0  0  0  0  0  0  0  0  0
    3.0050   25.2470  -23.7820 C   0  0  0  0  0  0  0  0  0  0  0  0
    2.7110   26.5700  -23.1720 N   0  0  1  0  0  0  0  0  0  0  0  0
    3.9620   27.2440  -22.7570 C   0  0  0  0  0  0  0  0  0  0  0  0
    1.9620   27.4120  -24.1420 C   0  0  0  0  0  0  0  0  0  0  0  0
    0.4490   27.4450  -23.8500 C   0  0  0  0  0  0  0  0  0  0  0  0
   -0.3120   27.5410  -25.0970 N   0  0  0  0  0  0  0  0  0  0  0  0
   -0.8970   26.4220  -25.7910 C   0  0  0  0  0  0  0  0  0  0  0  0
   -2.2740   26.1400  -25.7290 C   0  0  0  0  0  0  0  0  0  0  0  0
   -2.8030   25.0440  -26.4140 C   0  0  0  0  0  0  0  0  0  0  0  0
   -1.9700   24.2040  -27.1670 C   0  0  0  0  0  0  0  0  0  0  0  0
   -0.6060   24.4960  -27.2620 C   0  0  0  0  0  0  0  0  0  0  0  0
   -0.0720   25.5930  -26.5660 C   0  0  0  0  0  0  0  0  0  0  0  0
    0.2800   23.5830  -28.0500 C   0  0  0  0  0  0  0  0  0  0  0  0
    0.4100   22.2530  -27.3160 C   0  0  0  0  0  0  0  0  0  0  0  0
   -0.7970   21.3320  -27.3980 C   0  0  0  0  0  0  0  0  0  0  0  0
   -0.5400   19.9700  -27.1380 C   0  0  0  0  0  0  0  0  0  0  0  0
   -1.5540   19.0190  -27.1960 C   0  0  0  0  0  0  0  0  0  0  0  0
   -2.8490   19.4050  -27.5140 C   0  0  0  0  0  0  0  0  0  0  0  0
   -3.1400   20.7450  -27.7580 C   0  0  0  0  0  0  0  0  0  0  0  0
   -2.1410   21.7380  -27.6840 C   0  0  0  0  0  0  0  0  0  0  0  0
   -2.5250   23.1150  -27.9200 N   0  0  0  0  0  0  0  0  0  0  0  0
   -3.5360   23.5160  -29.2840 S   0  0  0  0  0  0  0  0  0  0  0  0
   -3.2150   24.9080  -29.7520 O   0  0  0  0  0  0  0  0  0  0  0  0
   -4.9720   23.4830  -28.8400 O   0  0  0  0  0  0  0  0  0  0  0  0
   -3.3270   22.3920  -30.6280 C   0  0  0  0  0  0  0  0  0  0  0  0
   -2.0560   21.9420  -31.0160 C   0  0  0  0  0  0  0  0  0  0  0  0
   -1.9170   21.0550  -32.0860 C   0  0  0  0  0  0  0  0  0  0  0  0
   -3.0510   20.6040  -32.7870 C   0  0  0  0  0  0  0  0  0  0  0  0
   -2.9640   19.7150  -33.8690 O   0  0  0  0  0  0  0  0  0  0  0  0
   -3.5380   18.4130  -33.8860 C   0  0  0  0  0  0  0  0  0  0  0  0
   -4.3160   21.0570  -32.3970 C   0  0  0  0  0  0  0  0  0  0  0  0
   -4.4550   21.9430  -31.3260 C   0  0  0  0  0  0  0  0  0  0  0  0
    3.2612   26.3002  -25.6558 H   0  0  0  0  0  0  0  0  0  0  0  0
    3.7663   24.5769  -25.6944 H   0  0  0  0  0  0  0  0  0  0  0  0
    2.0209   25.0014  -25.6944 H   0  0  0  0  0  0  0  0  0  0  0  0
    2.2377   24.5308  -23.4529 H   0  0  0  0  0  0  0  0  0  0  0  0
    4.0117   24.9491  -23.4536 H   0  0  0  0  0  0  0  0  0  0  0  0
    2.1160   26.4160  -22.3230 H   0  0  0  0  0  0  0  0  0  0  0  0
    4.0159   27.2730  -21.6587 H   0  0  0  0  0  0  0  0  0  0  0  0
    4.8258   26.6892  -23.1520 H   0  0  0  0  0  0  0  0  0  0  0  0
    3.9738   28.2706  -23.1520 H   0  0  0  0  0  0  0  0  0  0  0  0
    2.3531   28.4390  -24.0933 H   0  0  0  0  0  0  0  0  0  0  0  0
    2.1000   26.9736  -25.1414 H   0  0  0  0  0  0  0  0  0  0  0  0
    0.1623   26.5242  -23.3210 H   0  0  0  0  0  0  0  0  0  0  0  0
    0.2258   28.3247  -23.2284 H   0  0  0  0  0  0  0  0  0  0  0  0
   -0.4350   28.4960  -25.5050 H   0  0  0  0  0  0  0  0  0  0  0  0
   -2.9382   26.7870  -25.1372 H   0  0  0  0  0  0  0  0  0  0  0  0
   -3.8823   24.8379  -26.3624 H   0  0  0  0  0  0  0  0  0  0  0  0
    1.0056   25.8046  -26.6293 H   0  0  0  0  0  0  0  0  0  0  0  0
   -0.1584   23.4130  -29.0444 H   0  0  0  0  0  0  0  0  0  0  0  0
    1.2738   24.0405  -28.1641 H   0  0  0  0  0  0  0  0  0  0  0  0
    1.2729   21.7172  -27.7384 H   0  0  0  0  0  0  0  0  0  0  0  0
    0.5196   22.5083  -26.2517 H   0  0  0  0  0  0  0  0  0  0  0  0
    0.4824   19.6532  -26.8843 H   0  0  0  0  0  0  0  0  0  0  0  0
   -1.3297   17.9620  -26.9900 H   0  0  0  0  0  0  0  0  0  0  0  0
   -3.6474   18.6506  -27.5734 H   0  0  0  0  0  0  0  0  0  0  0  0
   -4.1699   21.0348  -28.0136 H   0  0  0  0  0  0  0  0  0  0  0  0
   -1.1639   22.2897  -30.4745 H   0  0  0  0  0  0  0  0  0  0  0  0
   -0.9163   20.7073  -32.3822 H   0  0  0  0  0  0  0  0  0  0  0  0
   -3.6909   18.0662  -32.8534 H   0  0  0  0  0  0  0  0  0  0  0  0
   -4.5052   18.4455  -34.4089 H   0  0  0  0  0  0  0  0  0  0  0  0
   -2.8616   17.7209  -34.4089 H   0  0  0  0  0  0  0  0  0  0  0  0
   -5.2092   20.7123  -32.9387 H   0  0  0  0  0  0  0  0  0  0  0  0
   -5.4558   22.2899  -31.0293 H   0  0  0  0  0  0  0  0  0  0  0  0
  1  2  1  0
  2  3  1  0
  3  4  1  0
  3  5  1  0
  5  6  1  0
  6  7  1  0
  7  8  1  0
  8  9  2  0
  9 10  1  0
 10 11  2  0
 11 12  1  0
 12 13  2  0
 12 14  1  0
 14 15  1  0
 15 16  1  0
 16 17  2  0
 17 18  1  0
 18 19  2  0
 19 20  1  0
 20 21  2  0
 21 22  1  0
 22 23  1  0
 23 24  2  0
 23 25  2  0
 23 26  1  0
 26 27  2  0
 27 28  1  0
 28 29  2  0
 29 30  1  0
 30 31  1  0
 29 32  1  0
 32 33  2  0
 13  8  1  0
 21 16  1  0
 33 26  1  0
 22 11  1  0
  1 34  1  0
  1 35  1  0
  1 36  1  0
  2 37  1  0
  2 38  1  0
  3 39  1  1
  4 40  1  0
  4 41  1  0
  4 42  1  0
  5 43  1  0
  5 44  1  0
  6 45  1  0
  6 46  1  0
  7 47  1  0
  9 48  1  0
 10 49  1  0
 13 50  1  0
 14 51  1  0
 14 52  1  0
 15 53  1  0
 15 54  1  0
 17 55  1  0
 18 56  1  0
 19 57  1  0
 20 58  1  0
 27 59  1  0
 28 60  1  0
 31 61  1  0
 31 62  1  0
 31 63  1  0
 32 64  1  0
 33 65  1  0
M  CHG  1   3   1
M  END
>  <UniqueID>  (35) 
35

>  <SMILES>  (35) 
CC[N@@H+](C)CCNc1ccc2c(c1)CCc1ccccc1N2S(=O)(=O)c1ccc(OC)cc1

>  <Energy>  (35) 
87.59889693265167

>  <Genealogy>  (35) 
CC[NH+](C)CCNc1ccc2c(c1)CCc1ccccc1N2S(=O)(=O)c1ccc(OC)cc1 (protonated)
CC[N@@H+](C)CCNc1ccc2c(c1)CCc1ccccc1N2S(=O)(=O)c1ccc(OC)cc1 (chirality)
CC[N@@H+](C)CCNc1ccc2c(c1)CCc1ccccc1N2S(=O)(=O)c1ccc(OC)cc1 (3D coordinates assigned)
CC[N@@H+](C)CCNc1ccc2c(c1)CCc1ccccc1N2S(=O)(=O)c1ccc(OC)cc1 (nonaromatic ring conformer: 87.59889693265167 kcal/mol)

>  <smiles>  (35) 
CCN(C)CCNc1ccc2c(c1)CCc1ccccc1N2S(=O)(=O)c1ccc(OC)cc1

>  <score_type>  (35) 
oracle

>  <origin>  (35) 
adg

>  <m_score__min__energy>  (35) 
-6.9500000000000002

>  <m_primary>  (35) 
energy

$$$$
35:0
     RDKit          3D

 51 54  0  0  0  0  0  0  0  0999 V2000
   -8.4322   18.3979  -31.8786 H   0  0  0  0  0  0  0  0  0  0  0  0
   -7.4350   18.6670  -32.2570 C   0  0  0  0  0  0  0  0  0  0  0  0
   -6.9240   18.0220  -33.3380 N   0  0  0  0  0  0  0  0  0  0  0  0
   -5.6960   18.3260  -33.8330 C   0  0  0  0  0  0  0  0  0  0  0  0
   -5.3089   17.7862  -34.7098 H   0  0  0  0  0  0  0  0  0  0  0  0
   -4.9230   19.3230  -33.2310 C   0  0  0  0  0  0  0  0  0  0  0  0
   -3.9285   19.5688  -33.6316 H   0  0  0  0  0  0  0  0  0  0  0  0
   -5.4230   20.0100  -32.1110 C   0  0  0  0  0  0  0  0  0  0  0  0
   -4.6210   21.0740  -31.4560 C   0  0  0  0  0  0  0  0  0  0  0  0
   -5.1320   22.3890  -31.3390 C   0  0  0  0  0  0  0  0  0  0  0  0
   -6.1271   22.6499  -31.7284 H   0  0  0  0  0  0  0  0  0  0  0  0
   -4.3310   23.3400  -30.7140 C   0  0  0  0  0  0  0  0  0  0  0  0
   -3.1000   23.0130  -30.2390 C   0  0  0  0  0  0  0  0  0  0  0  0
   -2.5880   24.1740  -29.7140 C   0  0  0  0  0  0  0  0  0  0  0  0
   -1.4220   24.3050  -29.1590 N   0  0  0  0  0  0  0  0  0  0  0  0
   -1.2020   24.3800  -27.7150 C   0  0  0  0  0  0  0  0  0  0  0  0
   -0.1261   24.5037  -27.5223 H   0  0  0  0  0  0  0  0  0  0  0  0
   -1.7686   25.2367  -27.3213 H   0  0  0  0  0  0  0  0  0  0  0  0
   -1.6940   23.1070  -27.0090 C   0  0  0  0  0  0  0  0  0  0  0  0
   -1.1915   23.0228  -26.0341 H   0  0  0  0  0  0  0  0  0  0  0  0
   -2.7843   23.1827  -26.8842 H   0  0  0  0  0  0  0  0  0  0  0  0
   -1.4030   21.8950  -27.8050 N   0  0  0  0  0  0  0  0  0  0  0  0
   -1.7670   20.6830  -27.0510 C   0  0  0  0  0  0  0  0  0  0  0  0
   -1.0950   20.5782  -26.1865 H   0  0  0  0  0  0  0  0  0  0  0  0
   -2.8089   20.7736  -26.7102 H   0  0  0  0  0  0  0  0  0  0  0  0
   -1.6400   19.4350  -27.9480 C   0  0  0  0  0  0  0  0  0  0  0  0
   -1.2484   18.6049  -27.3417 H   0  0  0  0  0  0  0  0  0  0  0  0
   -2.6400   19.2119  -28.3483 H   0  0  0  0  0  0  0  0  0  0  0  0
   -0.7410   19.6450  -29.0940 N   0  0  0  0  0  0  0  0  0  0  0  0
   -1.2610   20.1630  -29.8420 H   0  0  0  0  0  0  0  0  0  0  0  0
    0.4310   20.4370  -28.7060 C   0  0  0  0  0  0  0  0  0  0  0  0
    0.9664   19.9131  -27.9004 H   0  0  0  0  0  0  0  0  0  0  0  0
    1.0759   20.5571  -29.5890 H   0  0  0  0  0  0  0  0  0  0  0  0
    0.0220   21.8400  -28.2080 C   0  0  0  0  0  0  0  0  0  0  0  0
    0.6461   22.1048  -27.3417 H   0  0  0  0  0  0  0  0  0  0  0  0
    0.1674   22.5491  -29.0363 H   0  0  0  0  0  0  0  0  0  0  0  0
   -3.4920   25.1720  -29.8740 N   0  0  0  0  0  0  0  0  0  0  0  0
   -4.5590   24.6500  -30.4780 N   0  0  0  0  0  0  0  0  0  0  0  0
   -5.7310   25.4300  -30.8680 C   0  0  0  0  0  0  0  0  0  0  0  0
   -6.1133   25.0549  -31.8288 H   0  0  0  0  0  0  0  0  0  0  0  0
   -5.4417   26.4869  -30.9645 H   0  0  0  0  0  0  0  0  0  0  0  0
   -6.8220   25.3090  -29.8110 C   0  0  0  0  0  0  0  0  0  0  0  0
   -6.3695   25.3592  -28.8096 H   0  0  0  0  0  0  0  0  0  0  0  0
   -7.5410   26.1329  -29.9302 H   0  0  0  0  0  0  0  0  0  0  0  0
   -7.3430   24.3476  -29.9302 H   0  0  0  0  0  0  0  0  0  0  0  0
   -2.5790   21.7660  -30.3340 N   0  0  0  0  0  0  0  0  0  0  0  0
   -1.6300   21.5520  -29.9550 H   0  0  0  0  0  0  0  0  0  0  0  0
   -3.3240   20.7890  -30.9350 C   0  0  0  0  0  0  0  0  0  0  0  0
   -2.9177   19.7701  -31.0177 H   0  0  0  0  0  0  0  0  0  0  0  0
   -6.6970   19.6720  -31.6240 C   0  0  0  0  0  0  0  0  0  0  0  0
   -7.1115   20.1951  -30.7496 H   0  0  0  0  0  0  0  0  0  0  0  0
  1  2  1  0
  2  3  2  0
  3  4  1  0
  4  5  1  0
  4  6  2  0
  6  7  1  0
  6  8  1  0
  8  9  1  0
  9 10  2  0
 10 11  1  0
 10 12  1  0
 12 13  2  0
 13 14  1  0
 14 15  2  0
 15 16  1  0
 16 17  1  0
 16 18  1  0
 16 19  1  0
 19 20  1  0
 19 21  1  0
 19 22  1  0
 22 23  1  0
 23 24  1  0
 23 25  1  0
 23 26  1  0
 26 27  1  0
 26 28  1  0
 26 29  1  0
 29 30  1  0
 29 31  1  0
 31 32  1  0
 31 33  1  0
 31 34  1  0
 34 35  1  0
 34 36  1  0
 14 37  1  0
 37 38  1  0
 38 39  1  0
 39 40  1  0
 39 41  1  0
 39 42  1  0
 42 43  1  0
 42 44  1  0
 42 45  1  0
 13 46  1  0
 46 47  1  0
 46 48  2  0
 48 49  1  0
  8 50  2  0
 50 51  1  0
 50  2  1  0
 48  9  1  0
 38 12  1  0
 34 22  1  0
M  CHG  2  37  -1  46   1
M  END
>  <UniqueID>  (36) 
36

>  <SMILES>  (36) 
CCn1[n-]/c(=N\CCN2CCNCC2)c2[nH+]cc(-c3ccncc3)cc21

>  <Energy>  (36) 
103.96869065037058

>  <Genealogy>  (36) 
CCn1[n-]c(=NCCN2CCNCC2)c2[nH+]cc(-c3ccncc3)cc21 (protonated)
CCn1[n-]/c(=N\CCN2CCNCC2)c2[nH+]cc(-c3ccncc3)cc21 (cis-trans isomerization)
CCn1[n-]/c(=N\CCN2CCNCC2)c2[nH+]cc(-c3ccncc3)cc21 (3D coordinates assigned)
CCn1[n-]/c(=N\CCN2CCNCC2)c2[nH+]cc(-c3ccncc3)cc21 (nonaromatic ring conformer: 103.96869065037058 kcal/mol)

>  <smiles>  (36) 
CCn1[nH]c(=NCCN2CCNCC2)c2ncc(-c3ccncc3)cc21

>  <score_type>  (36) 
oracle

>  <origin>  (36) 
adg

>  <m_score__min__energy>  (36) 
-8.2799999999999994

>  <m_primary>  (36) 
energy

$$$$
