0:0
     RDKit          3D

 48 50  0  0  0  0  0  0  0  0999 V2000
   -9.4340   21.6840  -31.0320 C   0  0  0  0  0  0  0  0  0  0  0  0
   -8.4580   20.7850  -31.6320 N   0  0  0  0  0  0  0  0  0  0  0  0
   -7.3560   21.1570  -32.3110 C   0  0  0  0  0  0  0  0  0  0  0  0
   -6.7310   20.0150  -32.7630 C   0  0  0  0  0  0  0  0  0  0  0  0
   -5.4760   19.9260  -33.5900 C   0  0  0  0  0  0  0  0  0  0  0  0
   -4.2810   20.5360  -32.9440 N   0  0  2  0  0  0  0  0  0  0  0  0
   -3.0110   20.2670  -33.6800 C   0  0  0  0  0  0  0  0  0  0  0  0
   -1.9670   21.4110  -33.6380 C   0  0  0  0  0  0  0  0  0  0  0  0
   -1.1580   21.5270  -32.3220 C   0  0  0  0  0  0  0  0  0  0  0  0
   -1.9970   21.3650  -31.1190 N   0  0  0  0  0  0  0  0  0  0  0  0
   -1.9840   22.3230  -30.0290 C   0  0  0  0  0  0  0  0  0  0  0  0
   -0.9720   23.0750  -29.8760 O   0  0  0  0  0  0  0  0  0  0  0  0
   -3.1280   22.4700  -29.0460 C   0  0  0  0  0  0  0  0  0  0  0  0
   -4.2630   23.2910  -29.6260 C   0  0  0  0  0  0  0  0  0  0  0  0
   -5.5770   22.7770  -29.6680 C   0  0  0  0  0  0  0  0  0  0  0  0
   -6.6380   23.5810  -30.0960 C   0  0  0  0  0  0  0  0  0  0  0  0
   -6.4040   24.8950  -30.4990 C   0  0  0  0  0  0  0  0  0  0  0  0
   -5.0940   25.4090  -30.4860 C   0  0  0  0  0  0  0  0  0  0  0  0
   -4.0280   24.6170  -30.0400 C   0  0  0  0  0  0  0  0  0  0  0  0
   -2.7970   20.1320  -30.9540 C   0  0  0  0  0  0  0  0  0  0  0  0
   -4.2380   20.2540  -31.4870 C   0  0  0  0  0  0  0  0  0  0  0  0
   -7.5170   18.9680  -32.3070 C   0  0  0  0  0  0  0  0  0  0  0  0
   -8.5690   19.4650  -31.6270 N   0  0  0  0  0  0  0  0  0  0  0  0
   -9.3655   21.6209  -29.9360 H   0  0  0  0  0  0  0  0  0  0  0  0
   -9.2284   22.7157  -31.3534 H   0  0  0  0  0  0  0  0  0  0  0  0
  -10.4454   21.3945  -31.3534 H   0  0  0  0  0  0  0  0  0  0  0  0
   -7.0151   22.1898  -32.4757 H   0  0  0  0  0  0  0  0  0  0  0  0
   -5.2619   18.8640  -33.7807 H   0  0  0  0  0  0  0  0  0  0  0  0
   -5.6627   20.4928  -34.5140 H   0  0  0  0  0  0  0  0  0  0  0  0
   -4.4410   21.5700  -33.0270 H   0  0  0  0  0  0  0  0  0  0  0  0
   -2.5490   19.3690  -33.2439 H   0  0  0  0  0  0  0  0  0  0  0  0
   -3.2910   20.1490  -34.7372 H   0  0  0  0  0  0  0  0  0  0  0  0
   -1.2547   21.2503  -34.4607 H   0  0  0  0  0  0  0  0  0  0  0  0
   -2.5398   22.3461  -33.7240 H   0  0  0  0  0  0  0  0  0  0  0  0
   -0.3818   20.7476  -32.3167 H   0  0  0  0  0  0  0  0  0  0  0  0
   -0.7226   22.5366  -32.2887 H   0  0  0  0  0  0  0  0  0  0  0  0
   -3.5069   21.4701  -28.7877 H   0  0  0  0  0  0  0  0  0  0  0  0
   -2.7492   22.9903  -28.1539 H   0  0  0  0  0  0  0  0  0  0  0  0
   -5.7675   21.7377  -29.3622 H   0  0  0  0  0  0  0  0  0  0  0  0
   -7.6604   23.1755  -30.1148 H   0  0  0  0  0  0  0  0  0  0  0  0
   -7.2415   25.5286  -30.8264 H   0  0  0  0  0  0  0  0  0  0  0  0
   -4.9062   26.4376  -30.8277 H   0  0  0  0  0  0  0  0  0  0  0  0
   -3.0088   25.0299  -30.0131 H   0  0  0  0  0  0  0  0  0  0  0  0
   -2.2943   19.3166  -31.4948 H   0  0  0  0  0  0  0  0  0  0  0  0
   -2.8686   19.9367  -29.8738 H   0  0  0  0  0  0  0  0  0  0  0  0
   -4.7670   19.3090  -31.2944 H   0  0  0  0  0  0  0  0  0  0  0  0
   -4.7171   21.0973  -30.9681 H   0  0  0  0  0  0  0  0  0  0  0  0
   -7.3140   17.8999  -32.4739 H   0  0  0  0  0  0  0  0  0  0  0  0
  1  2  1  0
  2  3  1  0
  3  4  2  0
  4  5  1  0
  5  6  1  0
  6  7  1  0
  7  8  1  0
  8  9  1  0
  9 10  1  0
 10 11  1  0
 11 12  2  0
 11 13  1  0
 13 14  1  0
 14 15  2  0
 15 16  1  0
 16 17  2  0
 17 18  1  0
 18 19  2  0
 10 20  1  0
 20 21  1  0
  4 22  1  0
 22 23  2  0
 23  2  1  0
 21  6  1  0
 19 14  1  0
  1 24  1  0
  1 25  1  0
  1 26  1  0
  3 27  1  0
  5 28  1  0
  5 29  1  0
  6 30  1  1
  7 31  1  0
  7 32  1  0
  8 33  1  0
  8 34  1  0
  9 35  1  0
  9 36  1  0
 13 37  1  0
 13 38  1  0
 15 39  1  0
 16 40  1  0
 17 41  1  0
 18 42  1  0
 19 43  1  0
 20 44  1  0
 20 45  1  0
 21 46  1  0
 21 47  1  0
 22 48  1  0
M  CHG  1   6   1
M  END
>  <UniqueID>  (1) 
1

>  <SMILES>  (1) 
Cn1cc(C[N@@H+]2CCCN(C(=O)Cc3ccccc3)CC2)cn1

>  <Energy>  (1) 
93.81458885210914

>  <Genealogy>  (1) 
Cn1cc(C[NH+]2CCCN(C(=O)Cc3ccccc3)CC2)cn1 (protonated)
Cn1cc(C[N@@H+]2CCCN(C(=O)Cc3ccccc3)CC2)cn1 (chirality)
Cn1cc(C[N@@H+]2CCCN(C(=O)Cc3ccccc3)CC2)cn1 (3D coordinates assigned)
Cn1cc(C[N@@H+]2CCCN(C(=O)Cc3ccccc3)CC2)cn1 (nonaromatic ring conformer: 93.81458885210914 kcal/mol)

>  <smiles>  (1) 
Cn1cc(CN2CCCN(C(=O)Cc3ccccc3)CC2)cn1

>  <score_type>  (1) 
oracle

>  <origin>  (1) 
adg

>  <m_score__min__energy>  (1) 
-5.1600000000000001

>  <m_primary>  (1) 
energy

$$$$
1:0
     RDKit          3D

 36 38  0  0  0  0  0  0  0  0999 V2000
   -2.1510   24.9210  -28.6240 C   0  0  0  0  0  0  0  0  0  0  0  0
   -3.0230   25.2990  -29.6830 O   0  0  0  0  0  0  0  0  0  0  0  0
   -4.1060   24.5270  -30.1320 C   0  0  0  0  0  0  0  0  0  0  0  0
   -5.3930   25.0630  -30.0280 C   0  0  0  0  0  0  0  0  0  0  0  0
   -6.5060   24.3360  -30.4610 C   0  0  0  0  0  0  0  0  0  0  0  0
   -6.3480   23.0510  -31.0160 C   0  0  0  0  0  0  0  0  0  0  0  0
   -7.5150   22.2550  -31.4750 C   0  0  0  0  0  0  0  0  0  0  0  0
   -8.7640   22.8400  -31.7430 C   0  0  0  0  0  0  0  0  0  0  0  0
   -9.7920   22.0610  -32.1670 N   0  0  0  0  0  0  0  0  0  0  0  0
   -9.6420   20.7230  -32.3430 C   0  0  0  0  0  0  0  0  0  0  0  0
   -8.3960   20.1290  -32.0990 C   0  0  0  0  0  0  0  0  0  0  0  0
   -8.1940   18.6710  -32.2710 C   0  0  0  0  0  0  0  0  0  0  0  0
   -8.9700   17.8690  -31.6830 O   0  0  0  0  0  0  0  0  0  0  0  0
   -7.0850   18.1240  -33.0900 C   0  0  0  0  0  0  0  0  0  0  0  0
   -6.8220   16.7420  -33.1310 C   0  0  0  0  0  0  0  0  0  0  0  0
   -5.7680   16.2450  -33.9030 C   0  0  0  0  0  0  0  0  0  0  0  0
   -4.9600   17.1200  -34.6320 C   0  0  0  0  0  0  0  0  0  0  0  0
   -5.2000   18.4960  -34.5840 C   0  0  0  0  0  0  0  0  0  0  0  0
   -6.2540   18.9970  -33.8130 C   0  0  0  0  0  0  0  0  0  0  0  0
   -7.3740   20.9150  -31.6650 N   0  0  0  0  0  0  0  0  0  0  0  0
   -5.0520   22.5100  -31.1080 C   0  0  0  0  0  0  0  0  0  0  0  0
   -3.9420   23.2400  -30.6750 C   0  0  0  0  0  0  0  0  0  0  0  0
   -2.6345   25.1306  -27.6584 H   0  0  0  0  0  0  0  0  0  0  0  0
   -1.9294   23.8461  -28.6975 H   0  0  0  0  0  0  0  0  0  0  0  0
   -1.2150   25.4942  -28.6975 H   0  0  0  0  0  0  0  0  0  0  0  0
   -5.5314   26.0673  -29.6010 H   0  0  0  0  0  0  0  0  0  0  0  0
   -7.5122   24.7706  -30.3676 H   0  0  0  0  0  0  0  0  0  0  0  0
   -8.9081   23.9224  -31.6101 H   0  0  0  0  0  0  0  0  0  0  0  0
  -10.4925   20.1094  -32.6748 H   0  0  0  0  0  0  0  0  0  0  0  0
   -7.4497   16.0487  -32.5520 H   0  0  0  0  0  0  0  0  0  0  0  0
   -5.5747   15.1626  -33.9363 H   0  0  0  0  0  0  0  0  0  0  0  0
   -4.1349   16.7264  -35.2438 H   0  0  0  0  0  0  0  0  0  0  0  0
   -4.5593   19.1857  -35.1531 H   0  0  0  0  0  0  0  0  0  0  0  0
   -6.4337   20.0815  -33.7722 H   0  0  0  0  0  0  0  0  0  0  0  0
   -4.9114   21.5019  -31.5251 H   0  0  0  0  0  0  0  0  0  0  0  0
   -2.9348   22.8059  -30.7592 H   0  0  0  0  0  0  0  0  0  0  0  0
  1  2  1  0
  2  3  1  0
  3  4  2  0
  4  5  1  0
  5  6  2  0
  6  7  1  0
  7  8  2  0
  8  9  1  0
  9 10  2  0
 10 11  1  0
 11 12  1  0
 12 13  2  0
 12 14  1  0
 14 15  2  0
 15 16  1  0
 16 17  2  0
 17 18  1  0
 18 19  2  0
 11 20  2  0
  6 21  1  0
 21 22  2  0
 22  3  1  0
 20  7  1  0
 19 14  1  0
  1 23  1  0
  1 24  1  0
  1 25  1  0
  4 26  1  0
  5 27  1  0
  8 28  1  0
 10 29  1  0
 15 30  1  0
 16 31  1  0
 17 32  1  0
 18 33  1  0
 19 34  1  0
 21 35  1  0
 22 36  1  0
M  END
>  <UniqueID>  (2) 
2

>  <SMILES>  (2) 
COc1ccc(-c2cncc(C(=O)c3ccccc3)n2)cc1

>  <Energy>  (2) 
48.04134501721058

>  <Genealogy>  (2) 
COc1ccc(-c2cncc(C(=O)c3ccccc3)n2)cc1 (3D coordinates assigned)
COc1ccc(-c2cncc(C(=O)c3ccccc3)n2)cc1 (optimized conformer: 48.04134501721058 kcal/mol)

>  <smiles>  (2) 
COc1ccc(-c2cncc(C(=O)c3ccccc3)n2)cc1

>  <score_type>  (2) 
oracle

>  <origin>  (2) 
adg

>  <m_score__min__energy>  (2) 
-9.0700000000000003

>  <m_primary>  (2) 
energy

$$$$
2:0
     RDKit          3D

 32 34  0  0  0  0  0  0  0  0999 V2000
   -7.6247   22.7530  -31.2445 H   0  0  0  0  0  0  0  0  0  0  0  0
   -6.8310   22.3670  -31.9010 C   0  0  0  0  0  0  0  0  0  0  0  0
   -5.8890   23.1640  -32.3030 N   0  0  0  0  0  0  0  0  0  0  0  0
   -4.9500   23.7890  -31.4200 C   0  0  0  0  0  0  0  0  0  0  0  0
   -4.8520   25.1170  -31.2190 N   0  0  0  0  0  0  0  0  0  0  0  0
   -3.9050   25.3240  -30.3140 N   0  0  0  0  0  0  0  0  0  0  0  0
   -3.3900   24.1330  -29.9370 C   0  0  0  0  0  0  0  0  0  0  0  0
   -2.3270   23.9980  -28.9140 C   0  0  0  0  0  0  0  0  0  0  0  0
   -1.1070   23.3580  -29.2020 C   0  0  0  0  0  0  0  0  0  0  0  0
   -0.9327   22.9393  -30.2042 H   0  0  0  0  0  0  0  0  0  0  0  0
   -0.1150   23.2510  -28.2220 C   0  0  0  0  0  0  0  0  0  0  0  0
    0.8325   22.7424  -28.4534 H   0  0  0  0  0  0  0  0  0  0  0  0
   -0.3250   23.7890  -26.9490 C   0  0  0  0  0  0  0  0  0  0  0  0
    0.9220   23.6550  -25.7220 Cl  0  0  0  0  0  0  0  0  0  0  0  0
   -1.5260   24.4430  -26.6590 C   0  0  0  0  0  0  0  0  0  0  0  0
   -1.6896   24.8727  -25.6597 H   0  0  0  0  0  0  0  0  0  0  0  0
   -2.5190   24.5520  -27.6360 C   0  0  0  0  0  0  0  0  0  0  0  0
   -3.4582   25.0753  -27.4035 H   0  0  0  0  0  0  0  0  0  0  0  0
   -4.0420   23.1260  -30.6300 C   0  0  0  0  0  0  0  0  0  0  0  0
   -3.9210   21.6980  -30.4790 C   0  0  0  0  0  0  0  0  0  0  0  0
   -3.8240   20.5510  -30.3590 N   0  0  0  0  0  0  0  0  0  0  0  0
   -6.8520   20.9480  -32.3130 C   0  0  0  0  0  0  0  0  0  0  0  0
   -7.8840   20.0810  -31.9080 C   0  0  0  0  0  0  0  0  0  0  0  0
   -8.6977   20.4585  -31.2713 H   0  0  0  0  0  0  0  0  0  0  0  0
   -7.8800   18.7420  -32.3110 C   0  0  0  0  0  0  0  0  0  0  0  0
   -8.6885   18.0691  -31.9892 H   0  0  0  0  0  0  0  0  0  0  0  0
   -6.8490   18.2570  -33.1230 C   0  0  0  0  0  0  0  0  0  0  0  0
   -6.8460   16.5770  -33.6280 Cl  0  0  0  0  0  0  0  0  0  0  0  0
   -5.8210   19.1120  -33.5300 C   0  0  0  0  0  0  0  0  0  0  0  0
   -5.0102   18.7305  -34.1680 H   0  0  0  0  0  0  0  0  0  0  0  0
   -5.8210   20.4510  -33.1280 C   0  0  0  0  0  0  0  0  0  0  0  0
   -5.0093   21.1192  -33.4516 H   0  0  0  0  0  0  0  0  0  0  0  0
  1  2  1  0
  2  3  2  0
  3  4  1  0
  4  5  2  0
  5  6  1  0
  6  7  1  0
  7  8  1  0
  8  9  2  0
  9 10  1  0
  9 11  1  0
 11 12  1  0
 11 13  2  0
 13 14  1  0
 13 15  1  0
 15 16  1  0
 15 17  2  0
 17 18  1  0
  7 19  2  0
 19 20  1  0
 20 21  3  0
  2 22  1  0
 22 23  2  0
 23 24  1  0
 23 25  1  0
 25 26  1  0
 25 27  2  0
 27 28  1  0
 27 29  1  0
 29 30  1  0
 29 31  2  0
 31 32  1  0
 19  4  1  0
 31 22  1  0
 17  8  1  0
M  CHG  1   6  -1
M  END
>  <UniqueID>  (3) 
3

>  <SMILES>  (3) 
N#Cc1c(/N=C/c2ccc(Cl)cc2)n[n-]c1-c1ccc(Cl)cc1

>  <Energy>  (3) 
68.91992266447305

>  <Genealogy>  (3) 
N#Cc1c(N=Cc2ccc(Cl)cc2)n[n-]c1-c1ccc(Cl)cc1 (protonated)
N#Cc1c(/N=C/c2ccc(Cl)cc2)n[n-]c1-c1ccc(Cl)cc1 (cis-trans isomerization)
N#Cc1c(/N=C/c2ccc(Cl)cc2)n[n-]c1-c1ccc(Cl)cc1 (3D coordinates assigned)
N#Cc1c(/N=C/c2ccc(Cl)cc2)n[n-]c1-c1ccc(Cl)cc1 (optimized conformer: 68.91992266447305 kcal/mol)

>  <smiles>  (3) 
N#Cc1c(N=Cc2ccc(Cl)cc2)n[nH]c1-c1ccc(Cl)cc1

>  <score_type>  (3) 
oracle

>  <origin>  (3) 
adg

>  <m_score__min__energy>  (3) 
-9.9199999999999999

>  <m_primary>  (3) 
energy

$$$$
3:0
     RDKit          3D

 57 60  0  0  0  0  0  0  0  0999 V2000
   -4.7160   12.0080  -32.2640 C   0  0  0  0  0  0  0  0  0  0  0  0
   -5.0840   12.7850  -33.3990 O   0  0  0  0  0  0  0  0  0  0  0  0
   -5.3630   14.1590  -33.3610 C   0  0  0  0  0  0  0  0  0  0  0  0
   -4.6840   14.9500  -32.4290 C   0  0  0  0  0  0  0  0  0  0  0  0
   -4.9180   16.3270  -32.3590 C   0  0  0  0  0  0  0  0  0  0  0  0
   -5.8350   16.9410  -33.2320 C   0  0  0  0  0  0  0  0  0  0  0  0
   -6.0580   18.3680  -33.1790 N   0  0  0  0  0  0  0  0  0  0  0  0
   -7.1600   18.9030  -32.3590 C   0  0  0  0  0  0  0  0  0  0  0  0
   -7.4580   20.3660  -32.7030 C   0  0  0  0  0  0  0  0  0  0  0  0
   -6.2120   21.1400  -32.7060 N   0  0  0  0  0  0  0  0  0  0  0  0
   -6.1500   22.4330  -32.0840 C   0  0  0  0  0  0  0  0  0  0  0  0
   -5.1460   23.2640  -31.6080 C   0  0  0  0  0  0  0  0  0  0  0  0
   -3.7260   23.1840  -31.4880 N   0  0  0  0  0  0  0  0  0  0  0  0
   -3.0900   21.9440  -31.0460 C   0  0  0  0  0  0  0  0  0  0  0  0
   -1.7390   22.2320  -30.3890 C   0  0  0  0  0  0  0  0  0  0  0  0
   -1.9150   22.4520  -28.9350 N   0  0  0  0  0  0  0  0  0  0  0  0
   -3.3240   22.7430  -28.5710 C   0  0  0  0  0  0  0  0  0  0  0  0
   -3.6310   24.2560  -28.5680 C   0  0  0  0  0  0  0  0  0  0  0  0
   -2.7580   24.9480  -29.4360 O   0  0  0  0  0  0  0  0  0  0  0  0
   -1.4340   24.9100  -28.9300 C   0  0  0  0  0  0  0  0  0  0  0  0
   -1.0160   23.5070  -28.4240 C   0  0  0  0  0  0  0  0  0  0  0  0
   -6.0880   24.2150  -31.2790 C   0  0  0  0  0  0  0  0  0  0  0  0
   -6.0490   25.3660  -30.7740 O   0  0  0  0  0  0  0  0  0  0  0  0
   -7.0920   23.3740  -31.7120 C   0  0  0  0  0  0  0  0  0  0  0  0
   -8.3480   23.4430  -31.7630 O   0  0  0  0  0  0  0  0  0  0  0  0
   -4.9990   20.5930  -33.3260 C   0  0  0  0  0  0  0  0  0  0  0  0
   -5.2820   19.2690  -34.0450 C   0  0  0  0  0  0  0  0  0  0  0  0
   -6.5260   16.1420  -34.1600 C   0  0  0  0  0  0  0  0  0  0  0  0
   -6.2940   14.7650  -34.2260 C   0  0  0  0  0  0  0  0  0  0  0  0
   -4.9751   12.5550  -31.3455 H   0  0  0  0  0  0  0  0  0  0  0  0
   -5.2560   11.0499  -32.2848 H   0  0  0  0  0  0  0  0  0  0  0  0
   -3.6326   11.8188  -32.2848 H   0  0  0  0  0  0  0  0  0  0  0  0
   -3.9592   14.4849  -31.7447 H   0  0  0  0  0  0  0  0  0  0  0  0
   -4.3811   16.9348  -31.6158 H   0  0  0  0  0  0  0  0  0  0  0  0
   -8.0637   18.3024  -32.5393 H   0  0  0  0  0  0  0  0  0  0  0  0
   -6.8596   18.8517  -31.3021 H   0  0  0  0  0  0  0  0  0  0  0  0
   -7.9234   20.4195  -33.6982 H   0  0  0  0  0  0  0  0  0  0  0  0
   -8.1429   20.7836  -31.9503 H   0  0  0  0  0  0  0  0  0  0  0  0
   -3.1890   24.0760  -31.3980 H   0  0  0  0  0  0  0  0  0  0  0  0
   -3.7451   21.4417  -30.3189 H   0  0  0  0  0  0  0  0  0  0  0  0
   -2.9262   21.2994  -31.9222 H   0  0  0  0  0  0  0  0  0  0  0  0
   -1.0673   21.3756  -30.5484 H   0  0  0  0  0  0  0  0  0  0  0  0
   -1.3060   23.1372  -30.8396 H   0  0  0  0  0  0  0  0  0  0  0  0
   -3.9857   22.2498  -29.2982 H   0  0  0  0  0  0  0  0  0  0  0  0
   -3.4919   22.3648  -27.5518 H   0  0  0  0  0  0  0  0  0  0  0  0
   -4.6681   24.4139  -28.8989 H   0  0  0  0  0  0  0  0  0  0  0  0
   -3.4910   24.6415  -27.5473 H   0  0  0  0  0  0  0  0  0  0  0  0
   -0.7442   25.2127  -29.7316 H   0  0  0  0  0  0  0  0  0  0  0  0
   -1.3922   25.5944  -28.0698 H   0  0  0  0  0  0  0  0  0  0  0  0
    0.0092   23.2967  -28.7627 H   0  0  0  0  0  0  0  0  0  0  0  0
   -1.0760   23.5065  -27.3256 H   0  0  0  0  0  0  0  0  0  0  0  0
   -4.6117   21.3198  -34.0552 H   0  0  0  0  0  0  0  0  0  0  0  0
   -4.2618   20.4032  -32.5320 H   0  0  0  0  0  0  0  0  0  0  0  0
   -5.8540   19.4705  -34.9627 H   0  0  0  0  0  0  0  0  0  0  0  0
   -4.3247   18.7871  -34.2928 H   0  0  0  0  0  0  0  0  0  0  0  0
   -7.2560   16.6048  -34.8404 H   0  0  0  0  0  0  0  0  0  0  0  0
   -6.8414   14.1521  -34.9572 H   0  0  0  0  0  0  0  0  0  0  0  0
  1  2  1  0
  2  3  1  0
  3  4  2  0
  4  5  1  0
  5  6  2  0
  6  7  1  0
  7  8  1  0
  8  9  1  0
  9 10  1  0
 10 11  1  0
 11 12  2  0
 12 13  1  0
 13 14  1  0
 14 15  1  0
 15 16  1  0
 16 17  1  0
 17 18  1  0
 18 19  1  0
 19 20  1  0
 20 21  1  0
 12 22  1  0
 22 23  2  0
 22 24  1  0
 24 25  2  0
 10 26  1  0
 26 27  1  0
  6 28  1  0
 28 29  2  0
 29  3  1  0
 27  7  1  0
 24 11  1  0
 21 16  1  0
  1 30  1  0
  1 31  1  0
  1 32  1  0
  4 33  1  0
  5 34  1  0
  8 35  1  0
  8 36  1  0
  9 37  1  0
  9 38  1  0
 13 39  1  0
 14 40  1  0
 14 41  1  0
 15 42  1  0
 15 43  1  0
 17 44  1  0
 17 45  1  0
 18 46  1  0
 18 47  1  0
 20 48  1  0
 20 49  1  0
 21 50  1  0
 21 51  1  0
 26 52  1  0
 26 53  1  0
 27 54  1  0
 27 55  1  0
 28 56  1  0
 29 57  1  0
M  END
>  <UniqueID>  (4) 
4

>  <SMILES>  (4) 
COc1ccc(N2CCN(c3c(NCCN4CCOCC4)c(=O)c3=O)CC2)cc1

>  <Energy>  (4) 
66.50678466485407

>  <Genealogy>  (4) 
COc1ccc(N2CCN(c3c(NCCN4CCOCC4)c(=O)c3=O)CC2)cc1 (3D coordinates assigned)
COc1ccc(N2CCN(c3c(NCCN4CCOCC4)c(=O)c3=O)CC2)cc1 (nonaromatic ring conformer: 66.50678466485407 kcal/mol)

>  <smiles>  (4) 
COc1ccc(N2CCN(c3c(NCCN4CCOCC4)c(=O)c3=O)CC2)cc1

>  <score_type>  (4) 
oracle

>  <origin>  (4) 
adg

>  <m_score__min__energy>  (4) 
-8.0600000000000005

>  <m_primary>  (4) 
energy

$$$$
4:0
     RDKit          3D

 40 41  0  0  0  0  0  0  0  0999 V2000
   -5.5380   18.5860  -34.0150 C   0  0  0  0  0  0  0  0  0  0  0  0
   -5.5270   18.6170  -32.4920 C   0  0  0  0  0  0  0  0  0  0  0  0
   -4.4530   19.4230  -32.0120 O   0  0  0  0  0  0  0  0  0  0  0  0
   -4.0000   20.5770  -32.6640 C   0  0  0  0  0  0  0  0  0  0  0  0
   -3.4650   20.4860  -33.8030 O   0  0  0  0  0  0  0  0  0  0  0  0
   -4.0820   21.8870  -31.9630 C   0  0  0  0  0  0  0  0  0  0  0  0
   -3.2300   22.2400  -30.9560 C   0  0  0  0  0  0  0  0  0  0  0  0
   -2.0220   21.3910  -30.6180 C   0  0  0  0  0  0  0  0  0  0  0  0
   -3.4580   23.4610  -30.2100 N   0  0  0  0  0  0  0  0  0  0  0  0
   -2.8430   23.6900  -28.8980 C   0  0  0  0  0  0  0  0  0  0  0  0
   -4.2500   24.4920  -30.8110 C   0  0  0  0  0  0  0  0  0  0  0  0
   -4.2360   25.6700  -30.3640 O   0  0  0  0  0  0  0  0  0  0  0  0
   -5.0500   24.1750  -31.9410 N   0  0  0  0  0  0  0  0  0  0  0  0
   -5.2400   22.7910  -32.3660 C   0  0  2  0  0  0  0  0  0  0  0  0
   -6.5450   22.2520  -31.8210 C   0  0  0  0  0  0  0  0  0  0  0  0
   -7.0700   22.7220  -30.6060 C   0  0  0  0  0  0  0  0  0  0  0  0
   -8.2570   22.1800  -30.1110 C   0  0  0  0  0  0  0  0  0  0  0  0
   -8.9050   21.2020  -30.7980 N   0  0  0  0  0  0  0  0  0  0  0  0
   -8.4290   20.7290  -31.9850 C   0  0  0  0  0  0  0  0  0  0  0  0
   -9.1430   19.6180  -32.6960 C   0  0  0  0  0  0  0  0  0  0  0  0
   -7.2300   21.2370  -32.5050 C   0  0  0  0  0  0  0  0  0  0  0  0
   -5.8874   17.6014  -34.3592 H   0  0  0  0  0  0  0  0  0  0  0  0
   -6.2137   19.3675  -34.3928 H   0  0  0  0  0  0  0  0  0  0  0  0
   -4.5208   18.7668  -34.3928 H   0  0  0  0  0  0  0  0  0  0  0  0
   -6.4796   19.0333  -32.1324 H   0  0  0  0  0  0  0  0  0  0  0  0
   -5.3936   17.5910  -32.1183 H   0  0  0  0  0  0  0  0  0  0  0  0
   -1.9189   21.3186  -29.5252 H   0  0  0  0  0  0  0  0  0  0  0  0
   -2.1513   20.3841  -31.0416 H   0  0  0  0  0  0  0  0  0  0  0  0
   -1.1185   21.8538  -31.0416 H   0  0  0  0  0  0  0  0  0  0  0  0
   -3.5585   23.4236  -28.1061 H   0  0  0  0  0  0  0  0  0  0  0  0
   -1.9413   23.0674  -28.8020 H   0  0  0  0  0  0  0  0  0  0  0  0
   -2.5681   24.7508  -28.8020 H   0  0  0  0  0  0  0  0  0  0  0  0
   -5.2736   22.7931  -33.4655 H   0  0  0  0  0  0  0  0  0  0  0  0
   -6.5483   23.5132  -30.0475 H   0  0  0  0  0  0  0  0  0  0  0  0
   -8.6706   22.5461  -29.1597 H   0  0  0  0  0  0  0  0  0  0  0  0
   -9.7870   20.8100  -30.3960 H   0  0  0  0  0  0  0  0  0  0  0  0
   -9.5833   18.9328  -31.9566 H   0  0  0  0  0  0  0  0  0  0  0  0
   -9.9402   20.0388  -33.3264 H   0  0  0  0  0  0  0  0  0  0  0  0
   -8.4291   19.0676  -33.3264 H   0  0  0  0  0  0  0  0  0  0  0  0
   -6.8270   20.8399  -33.4484 H   0  0  0  0  0  0  0  0  0  0  0  0
  1  2  1  0
  2  3  1  0
  3  4  1  0
  4  5  2  0
  4  6  1  0
  6  7  2  0
  7  8  1  0
  7  9  1  0
  9 10  1  0
  9 11  1  0
 11 12  2  0
 11 13  1  0
 13 14  1  0
 14 15  1  0
 15 16  2  0
 16 17  1  0
 17 18  2  0
 18 19  1  0
 19 20  1  0
 19 21  2  0
 14  6  1  0
 21 15  1  0
  1 22  1  0
  1 23  1  0
  1 24  1  0
  2 25  1  0
  2 26  1  0
  8 27  1  0
  8 28  1  0
  8 29  1  0
 10 30  1  0
 10 31  1  0
 10 32  1  0
 14 33  1  6
 16 34  1  0
 17 35  1  0
 18 36  1  0
 20 37  1  0
 20 38  1  0
 20 39  1  0
 21 40  1  0
M  CHG  2  13  -1  18   1
M  END
>  <UniqueID>  (5) 
5

>  <SMILES>  (5) 
CCOC(=O)C1=C(C)N(C)C(=O)[N-][C@@H]1c1cc[nH+]c(C)c1

>  <Energy>  (5) 
42.816787226842266

>  <Genealogy>  (5) 
CCOC(=O)C1=C(C)N(C)C(=O)[N-]C1c1cc[nH+]c(C)c1 (protonated)
CCOC(=O)C1=C(C)N(C)C(=O)[N-][C@@H]1c1cc[nH+]c(C)c1 (chirality)
CCOC(=O)C1=C(C)N(C)C(=O)[N-][C@@H]1c1cc[nH+]c(C)c1 (3D coordinates assigned)
CCOC(=O)C1=C(C)N(C)C(=O)[N-][C@@H]1c1cc[nH+]c(C)c1 (nonaromatic ring conformer: 42.816787226842266 kcal/mol)

>  <smiles>  (5) 
CCOC(=O)C1=C(C)N(C)C(=O)NC1c1ccnc(C)c1

>  <score_type>  (5) 
oracle

>  <origin>  (5) 
adg

>  <m_score__min__energy>  (5) 
-7.0700000000000003

>  <m_primary>  (5) 
energy

$$$$
5:0
     RDKit          3D

 65 67  0  0  0  0  0  0  0  0999 V2000
   -2.8750   18.6170  -25.9520 C   0  0  0  0  0  0  0  0  0  0  0  0
   -2.4140   19.4090  -27.1390 C   0  0  0  0  0  0  0  0  0  0  0  0
   -1.2400   19.0480  -27.8200 C   0  0  0  0  0  0  0  0  0  0  0  0
   -0.7920   19.8110  -28.9040 C   0  0  0  0  0  0  0  0  0  0  0  0
   -1.5090   20.9420  -29.3110 C   0  0  0  0  0  0  0  0  0  0  0  0
   -0.9210   21.9300  -30.6890 S   0  0  0  0  0  0  0  0  0  0  0  0
   -1.4810   20.7680  -31.9900 C   0  0  0  0  0  0  0  0  0  0  0  0
   -2.9430   20.9960  -32.4090 C   0  0  0  0  0  0  0  0  0  0  0  0
   -3.4660   19.9570  -33.4190 C   0  0  0  0  0  0  0  0  0  0  0  0
   -4.2400   18.8790  -32.7650 N   0  0  0  0  0  0  0  0  0  0  0  0
   -5.1290   19.4130  -31.7050 C   0  0  0  0  0  0  0  0  0  0  0  0
   -6.1940   18.3840  -31.2950 C   0  0  0  0  0  0  0  0  0  0  0  0
   -7.0610   17.9550  -32.4330 N   0  0  0  0  0  0  0  0  0  0  0  0
   -8.4290   18.5280  -32.3450 C   0  0  0  0  0  0  0  0  0  0  0  0
   -8.4940   20.0530  -32.6060 C   0  0  0  0  0  0  0  0  0  0  0  0
   -8.5130   20.9500  -31.3510 C   0  0  0  0  0  0  0  0  0  0  0  0
   -8.6330   22.4620  -31.6270 C   0  0  0  0  0  0  0  0  0  0  0  0
   -7.4110   23.0730  -32.3310 C   0  0  0  0  0  0  0  0  0  0  0  0
   -6.3850   23.5840  -31.3500 C   0  0  0  0  0  0  0  0  0  0  0  0
   -5.0530   23.1380  -31.4110 C   0  0  0  0  0  0  0  0  0  0  0  0
   -4.1130   23.5990  -30.4850 C   0  0  0  0  0  0  0  0  0  0  0  0
   -4.4940   24.5050  -29.4910 C   0  0  0  0  0  0  0  0  0  0  0  0
   -5.8160   24.9520  -29.4230 C   0  0  0  0  0  0  0  0  0  0  0  0
   -6.7600   24.4930  -30.3470 C   0  0  0  0  0  0  0  0  0  0  0  0
   -6.4710   18.2810  -33.7540 C   0  0  0  0  0  0  0  0  0  0  0  0
   -4.9550   18.0360  -33.7580 C   0  0  0  0  0  0  0  0  0  0  0  0
   -2.6620   21.3220  -28.6150 C   0  0  0  0  0  0  0  0  0  0  0  0
   -3.1130   20.5610  -27.5330 C   0  0  0  0  0  0  0  0  0  0  0  0
   -2.5748   19.1328  -25.0280 H   0  0  0  0  0  0  0  0  0  0  0  0
   -3.9704   18.5204  -25.9786 H   0  0  0  0  0  0  0  0  0  0  0  0
   -2.4180   17.6168  -25.9786 H   0  0  0  0  0  0  0  0  0  0  0  0
   -0.6709   18.1627  -27.5002 H   0  0  0  0  0  0  0  0  0  0  0  0
    0.1254   19.5214  -29.4373 H   0  0  0  0  0  0  0  0  0  0  0  0
   -0.8389   20.8953  -32.8740 H   0  0  0  0  0  0  0  0  0  0  0  0
   -1.4117   19.7513  -31.5758 H   0  0  0  0  0  0  0  0  0  0  0  0
   -3.5733   20.9530  -31.5085 H   0  0  0  0  0  0  0  0  0  0  0  0
   -2.9865   21.9770  -32.9047 H   0  0  0  0  0  0  0  0  0  0  0  0
   -4.1144   20.4665  -34.1470 H   0  0  0  0  0  0  0  0  0  0  0  0
   -2.5957   19.4966  -33.9096 H   0  0  0  0  0  0  0  0  0  0  0  0
   -4.5218   19.6697  -30.8245 H   0  0  0  0  0  0  0  0  0  0  0  0
   -5.6414   20.3031  -32.0990 H   0  0  0  0  0  0  0  0  0  0  0  0
   -5.6860   17.4973  -30.8879 H   0  0  0  0  0  0  0  0  0  0  0  0
   -6.8445   18.8638  -30.5490 H   0  0  0  0  0  0  0  0  0  0  0  0
   -7.1320   16.9120  -32.4010 H   0  0  0  0  0  0  0  0  0  0  0  0
   -9.0634   18.0230  -33.0883 H   0  0  0  0  0  0  0  0  0  0  0  0
   -8.7740   18.3680  -31.3128 H   0  0  0  0  0  0  0  0  0  0  0  0
   -7.6144   20.3303  -33.2055 H   0  0  0  0  0  0  0  0  0  0  0  0
   -9.4547   20.2282  -33.1123 H   0  0  0  0  0  0  0  0  0  0  0  0
   -9.3694   20.6484  -30.7300 H   0  0  0  0  0  0  0  0  0  0  0  0
   -7.5404   20.8058  -30.8578 H   0  0  0  0  0  0  0  0  0  0  0  0
   -9.5156   22.6277  -32.2622 H   0  0  0  0  0  0  0  0  0  0  0  0
   -8.7136   22.9566  -30.6478 H   0  0  0  0  0  0  0  0  0  0  0  0
   -6.9443   22.3029  -32.9628 H   0  0  0  0  0  0  0  0  0  0  0  0
   -7.7588   23.9265  -32.9315 H   0  0  0  0  0  0  0  0  0  0  0  0
   -4.7495   22.4236  -32.1904 H   0  0  0  0  0  0  0  0  0  0  0  0
   -3.0718   23.2483  -30.5385 H   0  0  0  0  0  0  0  0  0  0  0  0
   -3.7531   24.8660  -28.7624 H   0  0  0  0  0  0  0  0  0  0  0  0
   -6.1147   25.6661  -28.6414 H   0  0  0  0  0  0  0  0  0  0  0  0
   -7.8004   24.8452  -30.2881 H   0  0  0  0  0  0  0  0  0  0  0  0
   -6.9392   17.6484  -34.5225 H   0  0  0  0  0  0  0  0  0  0  0  0
   -6.6535   19.3450  -33.9652 H   0  0  0  0  0  0  0  0  0  0  0  0
   -4.7680   16.9779  -33.5224 H   0  0  0  0  0  0  0  0  0  0  0  0
   -4.5761   18.3010  -34.7561 H   0  0  0  0  0  0  0  0  0  0  0  0
   -3.2151   22.2224  -28.9204 H   0  0  0  0  0  0  0  0  0  0  0  0
   -4.0188   20.8657  -26.9882 H   0  0  0  0  0  0  0  0  0  0  0  0
  1  2  1  0
  2  3  2  0
  3  4  1  0
  4  5  2  0
  5  6  1  0
  6  7  1  0
  7  8  1  0
  8  9  1  0
  9 10  1  0
 10 11  1  0
 11 12  1  0
 12 13  1  0
 13 14  1  0
 14 15  1  0
 15 16  1  0
 16 17  1  0
 17 18  1  0
 18 19  1  0
 19 20  2  0
 20 21  1  0
 21 22  2  0
 22 23  1  0
 23 24  2  0
 13 25  1  0
 25 26  1  0
  5 27  1  0
 27 28  2  0
 28  2  1  0
 26 10  1  0
 24 19  1  0
  1 29  1  0
  1 30  1  0
  1 31  1  0
  3 32  1  0
  4 33  1  0
  7 34  1  0
  7 35  1  0
  8 36  1  0
  8 37  1  0
  9 38  1  0
  9 39  1  0
 11 40  1  0
 11 41  1  0
 12 42  1  0
 12 43  1  0
 13 44  1  0
 14 45  1  0
 14 46  1  0
 15 47  1  0
 15 48  1  0
 16 49  1  0
 16 50  1  0
 17 51  1  0
 17 52  1  0
 18 53  1  0
 18 54  1  0
 20 55  1  0
 21 56  1  0
 22 57  1  0
 23 58  1  0
 24 59  1  0
 25 60  1  0
 25 61  1  0
 26 62  1  0
 26 63  1  0
 27 64  1  0
 28 65  1  0
M  CHG  1  13   1
M  END
>  <UniqueID>  (6) 
6

>  <SMILES>  (6) 
Cc1ccc(SCCCN2CC[NH+](CCCCCc3ccccc3)CC2)cc1

>  <Energy>  (6) 
69.26137175419869

>  <Genealogy>  (6) 
Cc1ccc(SCCCN2CC[NH+](CCCCCc3ccccc3)CC2)cc1 (protonated)
Cc1ccc(SCCCN2CC[NH+](CCCCCc3ccccc3)CC2)cc1 (3D coordinates assigned)
Cc1ccc(SCCCN2CC[NH+](CCCCCc3ccccc3)CC2)cc1 (nonaromatic ring conformer: 69.26137175419869 kcal/mol)

>  <smiles>  (6) 
Cc1ccc(SCCCN2CCN(CCCCCc3ccccc3)CC2)cc1

>  <score_type>  (6) 
oracle

>  <origin>  (6) 
adg

>  <m_score__min__energy>  (6) 
-8.9199999999999999

>  <m_primary>  (6) 
energy

$$$$
6:0
     RDKit          3D

 34 36  0  0  0  0  0  0  0  0999 V2000
   -6.0750   18.3600  -34.2360 C   0  0  0  0  0  0  0  0  0  0  0  0
   -6.5300   19.3660  -33.5700 O   0  0  0  0  0  0  0  0  0  0  0  0
   -6.8850   20.3450  -32.8090 C   0  0  0  0  0  0  0  0  0  0  0  0
   -5.9360   21.2500  -32.2990 C   0  0  0  0  0  0  0  0  0  0  0  0
   -6.2980   22.3000  -31.4860 C   0  0  0  0  0  0  0  0  0  0  0  0
   -5.2970   23.2260  -30.9690 C   0  0  0  0  0  0  0  0  0  0  0  0
   -5.2860   24.5900  -31.1750 C   0  0  0  0  0  0  0  0  0  0  0  0
   -4.2310   25.1370  -30.5630 N   0  0  0  0  0  0  0  0  0  0  0  0
   -3.5550   24.1530  -29.9610 N   0  0  0  0  0  0  0  0  0  0  0  0
   -2.4350   24.2220  -29.2300 C   0  0  0  0  0  0  0  0  0  0  0  0
   -1.8210   25.3350  -28.9960 N   0  0  0  0  0  0  0  0  0  0  0  0
   -1.9220   23.0510  -28.7080 C   0  0  0  0  0  0  0  0  0  0  0  0
   -2.5790   21.8390  -28.9530 C   0  0  0  0  0  0  0  0  0  0  0  0
   -2.0450   20.5580  -28.3990 C   0  0  0  0  0  0  0  0  0  0  0  0
   -3.7080   21.8330  -29.7000 N   0  0  0  0  0  0  0  0  0  0  0  0
   -4.1850   22.9700  -30.1930 C   0  0  0  0  0  0  0  0  0  0  0  0
   -7.6350   22.4380  -31.1840 C   0  0  0  0  0  0  0  0  0  0  0  0
   -8.6170   21.5910  -31.6470 C   0  0  0  0  0  0  0  0  0  0  0  0
   -8.2270   20.5510  -32.4560 C   0  0  0  0  0  0  0  0  0  0  0  0
   -9.2330   19.7040  -32.9160 O   0  0  0  0  0  0  0  0  0  0  0  0
   -5.7249   17.5859  -33.5373 H   0  0  0  0  0  0  0  0  0  0  0  0
   -6.8743   17.9478  -34.8694 H   0  0  0  0  0  0  0  0  0  0  0  0
   -5.2377   18.6881  -34.8694 H   0  0  0  0  0  0  0  0  0  0  0  0
   -4.8753   21.1146  -32.5572 H   0  0  0  0  0  0  0  0  0  0  0  0
   -6.0355   25.1459  -31.7574 H   0  0  0  0  0  0  0  0  0  0  0  0
   -1.6190   26.0450  -29.7210 H   0  0  0  0  0  0  0  0  0  0  0  0
   -1.0031   23.0702  -28.1036 H   0  0  0  0  0  0  0  0  0  0  0  0
   -2.0619   20.5986  -27.2999 H   0  0  0  0  0  0  0  0  0  0  0  0
   -2.6690   19.7207  -28.7447 H   0  0  0  0  0  0  0  0  0  0  0  0
   -1.0110   20.4118  -28.7447 H   0  0  0  0  0  0  0  0  0  0  0  0
   -4.1750   20.9100  -29.8650 H   0  0  0  0  0  0  0  0  0  0  0  0
   -7.9357   23.2737  -30.5350 H   0  0  0  0  0  0  0  0  0  0  0  0
   -9.6733   21.7412  -31.3795 H   0  0  0  0  0  0  0  0  0  0  0  0
   -9.1210   19.0500  -33.6810 H   0  0  0  0  0  0  0  0  0  0  0  0
  1  2  1  0
  2  3  1  0
  3  4  2  0
  4  5  1  0
  5  6  1  0
  6  7  1  0
  7  8  2  0
  8  9  1  0
  9 10  1  0
 10 11  2  3
 10 12  1  0
 12 13  2  0
 13 14  1  0
 13 15  1  0
 15 16  1  0
  5 17  2  0
 17 18  1  0
 18 19  2  0
 19 20  1  0
 19  3  1  0
 16  6  2  0
 16  9  1  0
  1 21  1  0
  1 22  1  0
  1 23  1  0
  4 24  1  0
  7 25  1  0
 11 26  1  0
 12 27  1  0
 14 28  1  0
 14 29  1  0
 14 30  1  0
 15 31  1  0
 17 32  1  0
 18 33  1  0
 20 34  1  0
M  END
>  <smiles>  (7) 
COc1cc(-c2cnn3c(=N)cc(C)[nH]c23)ccc1O

>  <score_type>  (7) 
oracle

>  <origin>  (7) 
adg

>  <m_score__min__energy>  (7) 
-7.5099999999999998

>  <m_primary>  (7) 
energy

$$$$
8:0
     RDKit          3D

 49 52  0  0  1  0  0  0  0  0999 V2000
   -4.5810   14.2370  -31.7750 C   0  0  0  0  0  0  0  0  0  0  0  0
   -5.1720   15.5350  -31.7840 O   0  0  0  0  0  0  0  0  0  0  0  0
   -5.0990   16.2630  -32.9630 C   0  0  0  0  0  0  0  0  0  0  0  0
   -4.1070   16.0660  -33.9070 C   0  0  0  0  0  0  0  0  0  0  0  0
   -4.0410   16.7970  -35.0810 C   0  0  0  0  0  0  0  0  0  0  0  0
   -4.9900   17.7650  -35.3390 C   0  0  0  0  0  0  0  0  0  0  0  0
   -5.9800   17.9690  -34.4070 C   0  0  0  0  0  0  0  0  0  0  0  0
   -6.0420   17.2380  -33.2380 C   0  0  0  0  0  0  0  0  0  0  0  0
   -7.1040   17.5220  -32.3350 N   0  0  0  0  0  0  0  0  0  0  0  0
   -7.4060   18.7740  -32.1600 C   0  0  0  0  0  0  0  0  0  0  0  0
   -6.4320   19.7070  -31.7800 C   0  0  0  0  0  0  0  0  0  0  0  0
   -6.8300   21.0170  -31.6140 C   0  0  0  0  0  0  0  0  0  0  0  0
   -8.1100   21.3720  -31.8140 N   0  0  0  0  0  0  0  0  0  0  0  0
   -9.0160   20.4170  -32.1850 C   0  0  0  0  0  0  0  0  0  0  0  0
  -10.2200   20.7150  -32.3800 O   0  0  0  0  0  0  0  0  0  0  0  0
   -8.6660   19.1320  -32.3560 N   0  0  0  0  0  0  0  0  0  0  0  0
   -8.6290   22.7050  -31.6710 C   0  0  0  0  0  0  0  0  0  0  0  0
   -7.6600   23.7470  -31.2670 C   0  0  0  0  0  0  0  0  0  0  0  0
   -6.2750   23.3030  -31.0630 C   0  0  0  0  0  0  0  0  0  0  0  0
   -5.3530   24.2820  -30.6840 C   0  0  0  0  0  0  0  0  0  0  0  0
   -4.0280   23.9640  -30.4680 C   0  0  0  0  0  0  0  0  0  0  0  0
   -3.1000   24.9280  -30.0910 O   0  0  0  0  0  0  0  0  0  0  0  0
   -2.3400   24.8240  -28.9070 C   0  0  0  0  0  0  0  0  0  0  0  0
   -3.6030   22.6610  -30.6280 C   0  0  0  0  0  0  0  0  0  0  0  0
   -2.2650   22.3740  -30.4030 O   0  0  0  0  0  0  0  0  0  0  0  0
   -1.5140   21.4360  -31.1130 C   0  0  0  0  0  0  0  0  0  0  0  0
   -4.5180   21.6690  -31.0070 C   0  0  0  0  0  0  0  0  0  0  0  0
   -5.8370   22.0060  -31.2180 C   0  0  0  0  0  0  0  0  0  0  0  0
   -4.4318   13.9093  -30.7356 H   0  0  0  0  0  0  0  0  0  0  0  0
   -5.2451   13.5281  -32.2912 H   0  0  0  0  0  0  0  0  0  0  0  0
   -3.6103   14.2725  -32.2912 H   0  0  0  0  0  0  0  0  0  0  0  0
   -3.3414   15.2992  -33.7176 H   0  0  0  0  0  0  0  0  0  0  0  0
   -3.2352   16.6069  -35.8052 H   0  0  0  0  0  0  0  0  0  0  0  0
   -4.9554   18.3574  -36.2652 H   0  0  0  0  0  0  0  0  0  0  0  0
   -6.7443   18.7366  -34.5985 H   0  0  0  0  0  0  0  0  0  0  0  0
   -5.3865   19.4051  -31.6197 H   0  0  0  0  0  0  0  0  0  0  0  0
   -9.3870   18.4310  -32.6390 H   0  0  0  0  0  0  0  0  0  0  0  0
   -9.0573   23.0033  -32.6393 H   0  0  0  0  0  0  0  0  0  0  0  0
   -9.3580   22.6487  -30.8492 H   0  0  0  0  0  0  0  0  0  0  0  0
   -7.6525   24.5195  -32.0501 H   0  0  0  0  0  0  0  0  0  0  0  0
   -8.0026   24.1009  -30.2835 H   0  0  0  0  0  0  0  0  0  0  0  0
   -5.6885   25.3217  -30.5559 H   0  0  0  0  0  0  0  0  0  0  0  0
   -3.0048   24.9150  -28.0354 H   0  0  0  0  0  0  0  0  0  0  0  0
   -1.8331   23.8481  -28.8812 H   0  0  0  0  0  0  0  0  0  0  0  0
   -1.5895   25.6278  -28.8812 H   0  0  0  0  0  0  0  0  0  0  0  0
   -0.9870   20.7777  -30.4067 H   0  0  0  0  0  0  0  0  0  0  0  0
   -2.1827   20.8342  -31.7460 H   0  0  0  0  0  0  0  0  0  0  0  0
   -0.7805   21.9568  -31.7460 H   0  0  0  0  0  0  0  0  0  0  0  0
   -4.1851   20.6284  -31.1351 H   0  0  0  0  0  0  0  0  0  0  0  0
  1  2  1  0
  2  3  1  0
  3  4  2  0
  4  5  1  0
  5  6  2  0
  6  7  1  0
  7  8  2  0
  8  9  1  0
  9 10  2  0
 10 11  1  0
 11 12  2  0
 12 13  1  0
 13 14  1  0
 14 15  2  0
 14 16  1  0
 13 17  1  0
 17 18  1  0
 18 19  1  0
 19 20  2  0
 20 21  1  0
 21 22  1  0
 22 23  1  0
 21 24  2  0
 24 25  1  0
 25 26  1  0
 24 27  1  0
 27 28  2  0
  8  3  1  0
 16 10  1  0
 28 19  1  0
 28 12  1  0
  1 29  1  0
  1 30  1  0
  1 31  1  0
  4 32  1  0
  5 33  1  0
  6 34  1  0
  7 35  1  0
 11 36  1  0
 16 37  1  0
 17 38  1  0
 17 39  1  0
 18 40  1  0
 18 41  1  0
 20 42  1  0
 23 43  1  0
 23 44  1  0
 23 45  1  0
 26 46  1  0
 26 47  1  0
 26 48  1  0
 27 49  1  0
M  END
>  <smiles>  (8) 
COc1ccccc1N=c1cc2n(c(=O)[nH]1)CCc1cc(OC)c(OC)cc1-2

>  <score_type>  (8) 
oracle

>  <origin>  (8) 
adg

>  <m_score__min__energy>  (8) 
-8.8800000000000008

>  <m_primary>  (8) 
energy

$$$$
9:0
     RDKit          3D

 35 37  0  0  0  0  0  0  0  0999 V2000
   -3.5660   16.6600  -35.3440 C   0  0  0  0  0  0  0  0  0  0  0  0
   -4.7860   17.0070  -34.5440 C   0  0  0  0  0  0  0  0  0  0  0  0
   -5.7400   16.0220  -34.2480 C   0  0  0  0  0  0  0  0  0  0  0  0
   -6.8540   16.3350  -33.4650 C   0  0  0  0  0  0  0  0  0  0  0  0
   -7.0220   17.6300  -32.9690 C   0  0  0  0  0  0  0  0  0  0  0  0
   -6.0770   18.6270  -33.2570 C   0  0  0  0  0  0  0  0  0  0  0  0
   -6.2240   19.9940  -32.7100 C   0  0  0  0  0  0  0  0  0  0  0  0
   -5.1580   20.7800  -32.4130 N   0  0  0  0  0  0  0  0  0  0  0  0
   -5.6990   21.9060  -31.9200 C   0  0  0  0  0  0  0  0  0  0  0  0
   -5.0420   23.0390  -31.4470 C   0  0  0  0  0  0  0  0  0  0  0  0
   -5.8310   24.1020  -30.9570 C   0  0  0  0  0  0  0  0  0  0  0  0
   -5.1770   25.3620  -30.4730 C   0  0  0  0  0  0  0  0  0  0  0  0
   -7.2470   24.0010  -30.9820 C   0  0  0  0  0  0  0  0  0  0  0  0
   -7.8750   22.8390  -31.4670 C   0  0  0  0  0  0  0  0  0  0  0  0
   -7.0610   21.8060  -31.9310 C   0  0  0  0  0  0  0  0  0  0  0  0
   -7.4120   20.6090  -32.4430 N   0  0  0  0  0  0  0  0  0  0  0  0
   -8.7690   20.1070  -32.6620 C   0  0  0  0  0  0  0  0  0  0  0  0
   -4.9480   18.3020  -34.0280 C   0  0  0  0  0  0  0  0  0  0  0  0
   -2.7355   16.4238  -34.6624 H   0  0  0  0  0  0  0  0  0  0  0  0
   -3.7795   15.7870  -35.9782 H   0  0  0  0  0  0  0  0  0  0  0  0
   -3.2881   17.5147  -35.9782 H   0  0  0  0  0  0  0  0  0  0  0  0
   -5.6106   15.0000  -34.6336 H   0  0  0  0  0  0  0  0  0  0  0  0
   -7.6007   15.5597  -33.2385 H   0  0  0  0  0  0  0  0  0  0  0  0
   -7.8990   17.8695  -32.3498 H   0  0  0  0  0  0  0  0  0  0  0  0
   -4.1440   20.5530  -32.5160 H   0  0  0  0  0  0  0  0  0  0  0  0
   -3.9439   23.1035  -31.4549 H   0  0  0  0  0  0  0  0  0  0  0  0
   -5.1713   25.3730  -29.3731 H   0  0  0  0  0  0  0  0  0  0  0  0
   -4.1429   25.4048  -30.8455 H   0  0  0  0  0  0  0  0  0  0  0  0
   -5.7372   26.2323  -30.8455 H   0  0  0  0  0  0  0  0  0  0  0  0
   -7.8592   24.8395  -30.6186 H   0  0  0  0  0  0  0  0  0  0  0  0
   -8.9712   22.7484  -31.4797 H   0  0  0  0  0  0  0  0  0  0  0  0
   -9.2546   19.9274  -31.6915 H   0  0  0  0  0  0  0  0  0  0  0  0
   -9.3479   20.8505  -33.2296 H   0  0  0  0  0  0  0  0  0  0  0  0
   -8.7246   19.1658  -33.2296 H   0  0  0  0  0  0  0  0  0  0  0  0
   -4.1852   19.0687  -34.2287 H   0  0  0  0  0  0  0  0  0  0  0  0
  1  2  1  0
  2  3  2  0
  3  4  1  0
  4  5  2  0
  5  6  1  0
  6  7  1  0
  7  8  2  0
  8  9  1  0
  9 10  2  0
 10 11  1  0
 11 12  1  0
 11 13  2  0
 13 14  1  0
 14 15  2  0
 15 16  1  0
 16 17  1  0
  6 18  2  0
 18  2  1  0
 16  7  1  0
 15  9  1  0
  1 19  1  0
  1 20  1  0
  1 21  1  0
  3 22  1  0
  4 23  1  0
  5 24  1  0
  8 25  1  0
 10 26  1  0
 12 27  1  0
 12 28  1  0
 12 29  1  0
 13 30  1  0
 14 31  1  0
 17 32  1  0
 17 33  1  0
 17 34  1  0
 18 35  1  0
M  CHG  1   8   1
M  END
>  <UniqueID>  (9) 
7

>  <SMILES>  (9) 
Cc1cccc(-c2[nH+]c3cc(C)ccc3n2C)c1

>  <Energy>  (9) 
79.03864300951639

>  <Genealogy>  (9) 
Cc1cccc(-c2[nH+]c3cc(C)ccc3n2C)c1 (protonated)
Cc1cccc(-c2[nH+]c3cc(C)ccc3n2C)c1 (3D coordinates assigned)
Cc1cccc(-c2[nH+]c3cc(C)ccc3n2C)c1 (optimized conformer: 79.03864300951639 kcal/mol)

>  <smiles>  (9) 
Cc1cccc(-c2nc3cc(C)ccc3n2C)c1

>  <score_type>  (9) 
oracle

>  <origin>  (9) 
adg

>  <m_score__min__energy>  (9) 
-6.5700000000000003

>  <m_primary>  (9) 
energy

$$$$
10:0
     RDKit          3D

 24 25  0  0  0  0  0  0  0  0999 V2000
   -1.6450   25.6560  -28.8780 O   0  0  0  0  0  0  0  0  0  0  0  0
   -2.4720   24.8160  -29.3290 C   0  0  0  0  0  0  0  0  0  0  0  0
   -3.4880   25.2400  -30.2480 N   0  0  0  0  0  0  0  0  0  0  0  0
   -4.7370   24.5810  -30.5080 C   0  0  0  0  0  0  0  0  0  0  0  0
   -5.9590   25.0740  -30.0160 C   0  0  0  0  0  0  0  0  0  0  0  0
   -7.1510   24.3870  -30.2740 C   0  0  0  0  0  0  0  0  0  0  0  0
   -7.1290   23.2000  -31.0110 C   0  0  0  0  0  0  0  0  0  0  0  0
   -5.9160   22.6930  -31.4830 C   0  0  0  0  0  0  0  0  0  0  0  0
   -4.7240   23.3770  -31.2250 C   0  0  0  0  0  0  0  0  0  0  0  0
   -2.3640   23.3800  -28.9530 C   0  0  0  0  0  0  0  0  0  0  0  0
   -1.3490   22.5830  -29.5140 C   0  0  0  0  0  0  0  0  0  0  0  0
   -1.2370   21.2700  -29.1820 N   0  0  0  0  0  0  0  0  0  0  0  0
   -2.0870   20.6780  -28.3060 C   0  0  0  0  0  0  0  0  0  0  0  0
   -3.1120   21.4180  -27.7200 C   0  0  0  0  0  0  0  0  0  0  0  0
   -3.2560   22.7710  -28.0390 C   0  0  0  0  0  0  0  0  0  0  0  0
   -4.1890   23.4270  -27.5020 O   0  0  0  0  0  0  0  0  0  0  0  0
   -5.9780   26.0025  -29.4265 H   0  0  0  0  0  0  0  0  0  0  0  0
   -8.1057   24.7818  -29.8963 H   0  0  0  0  0  0  0  0  0  0  0  0
   -8.0671   22.6647  -31.2195 H   0  0  0  0  0  0  0  0  0  0  0  0
   -5.8985   21.7553  -32.0579 H   0  0  0  0  0  0  0  0  0  0  0  0
   -3.7696   22.9672  -31.5873 H   0  0  0  0  0  0  0  0  0  0  0  0
   -0.6396   23.0269  -30.2279 H   0  0  0  0  0  0  0  0  0  0  0  0
   -1.9670   19.6130  -28.0581 H   0  0  0  0  0  0  0  0  0  0  0  0
   -3.8036   20.9401  -27.0106 H   0  0  0  0  0  0  0  0  0  0  0  0
  1  2  2  0
  2  3  1  0
  3  4  1  0
  4  5  2  0
  5  6  1  0
  6  7  2  0
  7  8  1  0
  8  9  2  0
  2 10  1  0
 10 11  2  0
 11 12  1  0
 12 13  1  0
 13 14  2  0
 14 15  1  0
 15 16  2  0
  9  4  1  0
 15 10  1  0
  5 17  1  0
  6 18  1  0
  7 19  1  0
  8 20  1  0
  9 21  1  0
 11 22  1  0
 13 23  1  0
 14 24  1  0
M  CHG  2   3  -1  12  -1
M  END
>  <UniqueID>  (10) 
8

>  <SMILES>  (10) 
O=C([N-]c1ccccc1)c1c[n-]ccc1=O

>  <Energy>  (10) 
32.26251071471292

>  <Genealogy>  (10) 
O=C([N-]c1ccccc1)c1c[n-]ccc1=O (protonated)
O=C([N-]c1ccccc1)c1c[n-]ccc1=O (3D coordinates assigned)
O=C([N-]c1ccccc1)c1c[n-]ccc1=O (optimized conformer: 32.26251071471292 kcal/mol)

>  <smiles>  (10) 
O=C(Nc1ccccc1)c1c[nH]ccc1=O

>  <score_type>  (10) 
oracle

>  <origin>  (10) 
adg

>  <m_score__min__energy>  (10) 
-7.5700000000000003

>  <m_primary>  (10) 
energy

$$$$
11:0
     RDKit          3D

 48 51  0  0  0  0  0  0  0  0999 V2000
   -1.1790   25.3920  -28.9340 C   0  0  0  0  0  0  0  0  0  0  0  0
   -1.9190   24.0520  -28.8110 C   0  0  2  0  0  0  0  0  0  0  0  0
   -0.9790   22.8830  -29.1640 C   0  0  0  0  0  0  0  0  0  0  0  0
   -1.7130   21.5330  -29.1800 C   0  0  0  0  0  0  0  0  0  0  0  0
   -2.9420   21.6130  -30.0910 C   0  0  0  0  0  0  0  0  0  0  0  0
   -2.8630   20.9270  -31.2580 C   0  0  0  0  0  0  0  0  0  0  0  0
   -3.8250   20.9440  -32.4250 C   0  0  1  0  0  0  0  0  0  0  0  0
   -3.7290   22.2890  -33.2010 C   0  0  0  0  0  0  0  0  0  0  0  0
   -3.3720   19.8360  -33.3910 C   0  0  0  0  0  0  0  0  0  0  0  0
   -2.4800   20.0450  -34.2030 O   0  0  0  0  0  0  0  0  0  0  0  0
   -3.9270   18.4500  -33.2880 C   0  0  0  0  0  0  0  0  0  0  0  0
   -5.4360   18.5240  -33.3710 C   0  0  0  0  0  0  0  0  0  0  0  0
   -5.9610   19.4100  -32.2870 C   0  0  0  0  0  0  0  0  0  0  0  0
   -7.0050   19.0450  -31.6790 O   0  0  0  0  0  0  0  0  0  0  0  0
   -5.2590   20.6860  -31.9210 C   0  0  0  0  0  0  0  0  0  0  0  0
   -5.9130   21.6170  -31.1890 C   0  0  0  0  0  0  0  0  0  0  0  0
   -7.3480   21.5500  -31.0840 N   0  0  0  0  0  0  0  0  0  0  0  0
   -8.0670   22.6240  -30.9560 C   0  0  0  0  0  0  0  0  0  0  0  0
   -7.4190   23.9710  -31.0480 C   0  0  0  0  0  0  0  0  0  0  0  0
   -6.0400   23.9090  -30.4560 C   0  0  0  0  0  0  0  0  0  0  0  0
   -5.2510   22.8130  -30.5870 C   0  0  0  0  0  0  0  0  0  0  0  0
   -3.9820   22.6910  -29.7110 C   0  0  1  0  0  0  0  0  0  0  0  0
   -4.5270   22.3860  -28.2880 C   0  0  0  0  0  0  0  0  0  0  0  0
   -3.1570   23.9860  -29.6930 C   0  0  0  0  0  0  0  0  0  0  0  0
   -3.3740   24.8800  -30.5010 O   0  0  0  0  0  0  0  0  0  0  0  0
   -0.9622   25.7847  -27.9296 H   0  0  0  0  0  0  0  0  0  0  0  0
   -0.2362   25.2414  -29.4802 H   0  0  0  0  0  0  0  0  0  0  0  0
   -1.8086   26.1098  -29.4802 H   0  0  0  0  0  0  0  0  0  0  0  0
   -2.2466   23.9688  -27.7642 H   0  0  0  0  0  0  0  0  0  0  0  0
   -0.5475   23.0635  -30.1596 H   0  0  0  0  0  0  0  0  0  0  0  0
   -0.1970   22.8333  -28.3920 H   0  0  0  0  0  0  0  0  0  0  0  0
   -1.0329   20.7535  -29.5540 H   0  0  0  0  0  0  0  0  0  0  0  0
   -2.0376   21.2875  -28.1581 H   0  0  0  0  0  0  0  0  0  0  0  0
   -1.9855   20.2734  -31.3705 H   0  0  0  0  0  0  0  0  0  0  0  0
   -3.6695   23.1220  -32.4850 H   0  0  0  0  0  0  0  0  0  0  0  0
   -2.8289   22.2841  -33.8333 H   0  0  0  0  0  0  0  0  0  0  0  0
   -4.6207   22.4119  -33.8333 H   0  0  0  0  0  0  0  0  0  0  0  0
   -3.5407   17.8343  -34.1136 H   0  0  0  0  0  0  0  0  0  0  0  0
   -3.6261   17.9960  -32.3323 H   0  0  0  0  0  0  0  0  0  0  0  0
   -5.7281   18.9324  -34.3497 H   0  0  0  0  0  0  0  0  0  0  0  0
   -5.8559   17.5146  -33.2497 H   0  0  0  0  0  0  0  0  0  0  0  0
   -9.1500   22.5444  -30.7803 H   0  0  0  0  0  0  0  0  0  0  0  0
   -7.3509   24.2730  -32.1035 H   0  0  0  0  0  0  0  0  0  0  0  0
   -8.0219   24.7047  -30.4929 H   0  0  0  0  0  0  0  0  0  0  0  0
   -5.6584   24.7779  -29.8998 H   0  0  0  0  0  0  0  0  0  0  0  0
   -3.8269   22.7778  -27.5355 H   0  0  0  0  0  0  0  0  0  0  0  0
   -5.5086   22.8659  -28.1606 H   0  0  0  0  0  0  0  0  0  0  0  0
   -4.6313   21.2984  -28.1606 H   0  0  0  0  0  0  0  0  0  0  0  0
  1  2  1  0
  2  3  1  0
  3  4  1  0
  4  5  1  0
  5  6  2  0
  6  7  1  0
  7  8  1  6
  7  9  1  0
  9 10  2  0
  9 11  1  0
 11 12  1  0
 12 13  1  0
 13 14  2  0
 13 15  1  0
 15 16  2  0
 16 17  1  0
 17 18  2  0
 18 19  1  0
 19 20  1  0
 20 21  2  0
 21 22  1  0
 22 23  1  1
 22 24  1  0
 24 25  2  0
 24  2  1  0
 22  5  1  0
 15  7  1  0
 21 16  1  0
  1 26  1  0
  1 27  1  0
  1 28  1  0
  2 29  1  1
  3 30  1  0
  3 31  1  0
  4 32  1  0
  4 33  1  0
  6 34  1  0
  8 35  1  0
  8 36  1  0
  8 37  1  0
 11 38  1  0
 11 39  1  0
 12 40  1  0
 12 41  1  0
 18 42  1  0
 19 43  1  0
 19 44  1  0
 20 45  1  0
 23 46  1  0
 23 47  1  0
 23 48  1  0
M  END
>  <UniqueID>  (11) 
9

>  <SMILES>  (11) 
C[C@@H]1CCC2=C[C@@]3(C)C(=O)CCC(=O)C3=C3N=CCC=C3C2(C)C1=O

>  <Energy>  (11) 
91.21046375139767

>  <Genealogy>  (11) 
C[C@@H]1CCC2=C[C@@]3(C)C(=O)CCC(=O)C3=C3N=CCC=C3C2(C)C1=O (chirality)
C[C@@H]1CCC2=C[C@@]3(C)C(=O)CCC(=O)C3=C3N=CCC=C3C2(C)C1=O (3D coordinates assigned)
C[C@@H]1CCC2=C[C@@]3(C)C(=O)CCC(=O)C3=C3N=CCC=C3C2(C)C1=O (nonaromatic ring conformer: 91.21046375139767 kcal/mol)

>  <smiles>  (11) 
CC1CCC2=CC3(C)C(=O)CCC(=O)C3=C3N=CCC=C3C2(C)C1=O

>  <score_type>  (11) 
oracle

>  <origin>  (11) 
adg

>  <m_score__min__energy>  (11) 
-8.2699999999999996

>  <m_primary>  (11) 
energy

$$$$
12:0
     RDKit          3D

 66 69  0  0  0  0  0  0  0  0999 V2000
    0.6700   23.1470  -25.5640 C   0  0  0  0  0  0  0  0  0  0  0  0
    0.8210   22.6100  -26.9940 C   0  0  0  0  0  0  0  0  0  0  0  0
    0.0370   21.3860  -27.2890 N   0  0  0  0  0  0  0  0  0  0  0  0
    0.5810   20.5290  -28.3630 C   0  0  0  0  0  0  0  0  0  0  0  0
    0.3730   19.0320  -28.1230 C   0  0  0  0  0  0  0  0  0  0  0  0
   -1.4350   21.5170  -27.2960 C   0  0  0  0  0  0  0  0  0  0  0  0
   -1.8590   22.7080  -28.1080 C   0  0  0  0  0  0  0  0  0  0  0  0
   -1.5940   23.9790  -27.7280 N   0  0  0  0  0  0  0  0  0  0  0  0
   -2.1590   24.7440  -28.6820 C   0  0  0  0  0  0  0  0  0  0  0  0
   -2.7590   23.9240  -29.6130 C   0  0  0  0  0  0  0  0  0  0  0  0
   -3.4660   24.3380  -30.7900 N   0  0  0  0  0  0  0  0  0  0  0  0
   -4.8570   24.6830  -30.8370 C   0  0  0  0  0  0  0  0  0  0  0  0
   -5.1820   25.8930  -30.7210 O   0  0  0  0  0  0  0  0  0  0  0  0
   -5.9130   23.6650  -31.0660 C   0  0  0  0  0  0  0  0  0  0  0  0
   -7.2790   24.0350  -31.0000 C   0  0  0  0  0  0  0  0  0  0  0  0
   -8.2900   23.0850  -31.2150 C   0  0  0  0  0  0  0  0  0  0  0  0
   -7.9090   21.7770  -31.4940 C   0  0  0  0  0  0  0  0  0  0  0  0
   -8.6810   20.6640  -31.7120 C   0  0  0  0  0  0  0  0  0  0  0  0
   -7.7790   19.6230  -31.9210 C   0  0  0  0  0  0  0  0  0  0  0  0
   -6.4930   20.0690  -31.8400 N   0  0  0  0  0  0  0  0  0  0  0  0
   -6.5950   21.3960  -31.5740 C   0  0  0  0  0  0  0  0  0  0  0  0
   -5.5680   22.3300  -31.3810 C   0  0  0  0  0  0  0  0  0  0  0  0
   -5.2720   19.2590  -31.7100 C   0  0  0  0  0  0  0  0  0  0  0  0
   -5.0550   18.2470  -32.8620 C   0  0  0  0  0  0  0  0  0  0  0  0
   -3.6110   17.7020  -32.7520 C   0  0  0  0  0  0  0  0  0  0  0  0
   -5.2080   18.9330  -34.2380 C   0  0  0  0  0  0  0  0  0  0  0  0
   -6.0210   17.0470  -32.7120 C   0  0  0  0  0  0  0  0  0  0  0  0
   -7.3970   17.3830  -33.0540 N   0  0  0  0  0  0  0  0  0  0  0  0
   -8.2120   18.2550  -32.2680 C   0  0  0  0  0  0  0  0  0  0  0  0
   -9.3920   17.9010  -31.9950 O   0  0  0  0  0  0  0  0  0  0  0  0
   -2.5700   22.6420  -29.2590 N   0  0  0  0  0  0  0  0  0  0  0  0
   -2.9860   21.4530  -30.0080 C   0  0  0  0  0  0  0  0  0  0  0  0
   -2.2140   21.3560  -31.3170 C   0  0  0  0  0  0  0  0  0  0  0  0
    0.8955   22.3452  -24.8455 H   0  0  0  0  0  0  0  0  0  0  0  0
    1.3678   23.9835  -25.4108 H   0  0  0  0  0  0  0  0  0  0  0  0
   -0.3615   23.4972  -25.4108 H   0  0  0  0  0  0  0  0  0  0  0  0
    0.4986   23.3981  -27.6904 H   0  0  0  0  0  0  0  0  0  0  0  0
    1.8793   22.3328  -27.1086 H   0  0  0  0  0  0  0  0  0  0  0  0
    0.0870   20.8008  -29.3075 H   0  0  0  0  0  0  0  0  0  0  0  0
    1.6671   20.7013  -28.3915 H   0  0  0  0  0  0  0  0  0  0  0  0
    0.3455   18.8344  -27.0412 H   0  0  0  0  0  0  0  0  0  0  0  0
   -0.5776   18.7164  -28.5776 H   0  0  0  0  0  0  0  0  0  0  0  0
    1.2016   18.4692  -28.5776 H   0  0  0  0  0  0  0  0  0  0  0  0
   -1.8762   20.6080  -27.7309 H   0  0  0  0  0  0  0  0  0  0  0  0
   -1.7826   21.6529  -26.2613 H   0  0  0  0  0  0  0  0  0  0  0  0
   -2.1439   25.8435  -28.7129 H   0  0  0  0  0  0  0  0  0  0  0  0
   -7.5503   25.0776  -30.7780 H   0  0  0  0  0  0  0  0  0  0  0  0
   -9.3521   23.3669  -31.1643 H   0  0  0  0  0  0  0  0  0  0  0  0
   -9.7794   20.6059  -31.7201 H   0  0  0  0  0  0  0  0  0  0  0  0
   -4.5136   22.0304  -31.4728 H   0  0  0  0  0  0  0  0  0  0  0  0
   -4.4082   19.9395  -31.6815 H   0  0  0  0  0  0  0  0  0  0  0  0
   -5.3810   18.6692  -30.7879 H   0  0  0  0  0  0  0  0  0  0  0  0
   -3.3378   17.5989  -31.6915 H   0  0  0  0  0  0  0  0  0  0  0  0
   -3.5515   16.7195  -33.2432 H   0  0  0  0  0  0  0  0  0  0  0  0
   -2.9172   18.4001  -33.2432 H   0  0  0  0  0  0  0  0  0  0  0  0
   -5.4454   19.9972  -34.0928 H   0  0  0  0  0  0  0  0  0  0  0  0
   -4.2672   18.8406  -34.8004 H   0  0  0  0  0  0  0  0  0  0  0  0
   -6.0204   18.4496  -34.8004 H   0  0  0  0  0  0  0  0  0  0  0  0
   -5.6817   16.2377  -33.3753 H   0  0  0  0  0  0  0  0  0  0  0  0
   -6.0077   16.7415  -31.6554 H   0  0  0  0  0  0  0  0  0  0  0  0
   -7.8740   16.7910  -33.7680 H   0  0  0  0  0  0  0  0  0  0  0  0
   -2.7888   20.5557  -29.4031 H   0  0  0  0  0  0  0  0  0  0  0  0
   -4.0605   21.5285  -30.2311 H   0  0  0  0  0  0  0  0  0  0  0  0
   -1.1436   21.2215  -31.1023 H   0  0  0  0  0  0  0  0  0  0  0  0
   -2.5823   20.4971  -31.8971 H   0  0  0  0  0  0  0  0  0  0  0  0
   -2.3584   22.2794  -31.8971 H   0  0  0  0  0  0  0  0  0  0  0  0
  1  2  1  0
  2  3  1  0
  3  4  1  0
  4  5  1  0
  3  6  1  0
  6  7  1  0
  7  8  2  0
  8  9  1  0
  9 10  2  0
 10 11  1  0
 11 12  1  0
 12 13  2  0
 12 14  1  0
 14 15  2  0
 15 16  1  0
 16 17  2  0
 17 18  1  0
 18 19  2  0
 19 20  1  0
 20 21  1  0
 21 22  2  0
 20 23  1  0
 23 24  1  0
 24 25  1  0
 24 26  1  0
 24 27  1  0
 27 28  1  0
 28 29  1  0
 29 30  2  0
 10 31  1  0
 31 32  1  0
 32 33  1  0
 31  7  1  0
 22 14  1  0
 21 17  1  0
 29 19  1  0
  1 34  1  0
  1 35  1  0
  1 36  1  0
  2 37  1  0
  2 38  1  0
  4 39  1  0
  4 40  1  0
  5 41  1  0
  5 42  1  0
  5 43  1  0
  6 44  1  0
  6 45  1  0
  9 46  1  0
 15 47  1  0
 16 48  1  0
 18 49  1  0
 22 50  1  0
 23 51  1  0
 23 52  1  0
 25 53  1  0
 25 54  1  0
 25 55  1  0
 26 56  1  0
 26 57  1  0
 26 58  1  0
 27 59  1  0
 27 60  1  0
 28 61  1  0
 32 62  1  0
 32 63  1  0
 33 64  1  0
 33 65  1  0
 33 66  1  0
M  CHG  1  11  -1
M  END
>  <UniqueID>  (12) 
10

>  <SMILES>  (12) 
CCN(CC)Cc1ncc([N-]C(=O)c2ccc3cc4n(c3c2)CC(C)(C)CNC4=O)n1CC

>  <Energy>  (12) 
143.32030852020253

>  <Genealogy>  (12) 
CCN(CC)Cc1ncc([N-]C(=O)c2ccc3cc4n(c3c2)CC(C)(C)CNC4=O)n1CC (protonated)
CCN(CC)Cc1ncc([N-]C(=O)c2ccc3cc4n(c3c2)CC(C)(C)CNC4=O)n1CC (3D coordinates assigned)
CCN(CC)Cc1ncc([N-]C(=O)c2ccc3cc4n(c3c2)CC(C)(C)CNC4=O)n1CC (nonaromatic ring conformer: 143.32030852020253 kcal/mol)

>  <smiles>  (12) 
CCN(CC)Cc1ncc(NC(=O)c2ccc3cc4n(c3c2)CC(C)(C)CNC4=O)n1CC

>  <score_type>  (12) 
oracle

>  <origin>  (12) 
adg

>  <m_score__min__energy>  (12) 
-9.0700000000000003

>  <m_primary>  (12) 
energy

$$$$
13:0
     RDKit          3D

 28 28  0  0  0  0  0  0  0  0999 V2000
   -7.2350   22.7770  -29.8370 C   0  0  0  0  0  0  0  0  0  0  0  0
   -5.8050   22.6220  -30.1360 N   0  0  0  0  0  0  0  0  0  0  0  0
   -5.0010   23.0590  -28.9880 C   0  0  0  0  0  0  0  0  0  0  0  0
   -5.3770   23.5370  -31.5710 S   0  0  0  0  0  0  0  0  0  0  0  0
   -4.4740   24.6870  -31.2160 O   0  0  0  0  0  0  0  0  0  0  0  0
   -6.6060   24.0890  -32.2450 O   0  0  0  0  0  0  0  0  0  0  0  0
   -4.5280   22.5070  -32.6820 N   0  0  0  0  0  0  0  0  0  0  0  0
   -4.8080   21.1020  -32.3700 C   0  0  0  0  0  0  0  0  0  0  0  0
   -5.7680   20.4970  -33.4000 C   0  0  0  0  0  0  0  0  0  0  0  0
   -7.0000   19.9420  -32.7500 C   0  0  0  0  0  0  0  0  0  0  0  0
   -8.1120   20.6730  -32.3530 C   0  0  0  0  0  0  0  0  0  0  0  0
   -9.0880   19.8920  -31.7250 C   0  0  0  0  0  0  0  0  0  0  0  0
   -8.7450   18.5500  -31.6180 C   0  0  0  0  0  0  0  0  0  0  0  0
   -7.2250   18.3360  -32.3050 S   0  0  0  0  0  0  0  0  0  0  0  0
   -7.3821   22.7929  -28.7470 H   0  0  0  0  0  0  0  0  0  0  0  0
   -7.6000   23.7200  -30.2701 H   0  0  0  0  0  0  0  0  0  0  0  0
   -7.7936   21.9341  -30.2701 H   0  0  0  0  0  0  0  0  0  0  0  0
   -5.5127   22.7809  -28.0548 H   0  0  0  0  0  0  0  0  0  0  0  0
   -4.0150   22.5727  -29.0245 H   0  0  0  0  0  0  0  0  0  0  0  0
   -4.8728   24.1509  -29.0245 H   0  0  0  0  0  0  0  0  0  0  0  0
   -4.9150   22.7190  -33.6290 H   0  0  0  0  0  0  0  0  0  0  0  0
   -3.8651   20.5356  -32.3795 H   0  0  0  0  0  0  0  0  0  0  0  0
   -5.2769   21.0480  -31.3764 H   0  0  0  0  0  0  0  0  0  0  0  0
   -6.0635   21.2793  -34.1147 H   0  0  0  0  0  0  0  0  0  0  0  0
   -5.2485   19.6728  -33.9107 H   0  0  0  0  0  0  0  0  0  0  0  0
   -8.2149   21.7560  -32.5158 H   0  0  0  0  0  0  0  0  0  0  0  0
  -10.0378   20.3019  -31.3510 H   0  0  0  0  0  0  0  0  0  0  0  0
   -9.3622   17.7620  -31.1618 H   0  0  0  0  0  0  0  0  0  0  0  0
  1  2  1  0
  2  3  1  0
  2  4  1  0
  4  5  2  0
  4  6  2  0
  4  7  1  0
  7  8  1  0
  8  9  1  0
  9 10  1  0
 10 11  2  0
 11 12  1  0
 12 13  2  0
 13 14  1  0
 14 10  1  0
  1 15  1  0
  1 16  1  0
  1 17  1  0
  3 18  1  0
  3 19  1  0
  3 20  1  0
  7 21  1  0
  8 22  1  0
  8 23  1  0
  9 24  1  0
  9 25  1  0
 11 26  1  0
 12 27  1  0
 13 28  1  0
M  END
>  <UniqueID>  (13) 
11

>  <SMILES>  (13) 
CN(C)S(=O)(=O)NCCc1cccs1

>  <Energy>  (13) 
44.36701042182975

>  <Genealogy>  (13) 
CN(C)S(=O)(=O)NCCc1cccs1 (3D coordinates assigned)
CN(C)S(=O)(=O)NCCc1cccs1 (optimized conformer: 44.36701042182975 kcal/mol)

>  <smiles>  (13) 
CN(C)S(=O)(=O)NCCc1cccs1

>  <score_type>  (13) 
oracle

>  <origin>  (13) 
adg

>  <m_score__min__energy>  (13) 
-6.7999999999999998

>  <m_primary>  (13) 
energy

$$$$
14:0
     RDKit          3D

 38 40  0  0  0  0  0  0  0  0999 V2000
   -1.6280   19.2840  -27.0390 C   0  0  0  0  0  0  0  0  0  0  0  0
   -1.8990   20.5650  -27.7710 C   0  0  0  0  0  0  0  0  0  0  0  0
   -1.9400   21.7820  -27.0740 C   0  0  0  0  0  0  0  0  0  0  0  0
   -2.2310   22.9690  -27.7500 C   0  0  0  0  0  0  0  0  0  0  0  0
   -2.4800   22.9610  -29.1280 C   0  0  0  0  0  0  0  0  0  0  0  0
   -2.7720   24.2040  -29.7790 N   0  0  0  0  0  0  0  0  0  0  0  0
   -4.0800   24.6010  -30.2050 C   0  0  0  0  0  0  0  0  0  0  0  0
   -4.2440   25.6750  -30.8460 O   0  0  0  0  0  0  0  0  0  0  0  0
   -5.2650   23.8010  -29.7550 C   0  0  0  0  0  0  0  0  0  0  0  0
   -6.8480   24.5210  -30.3210 S   0  0  0  0  0  0  0  0  0  0  0  0
   -7.4130   23.0240  -31.1270 C   0  0  0  0  0  0  0  0  0  0  0  0
   -6.5760   22.0500  -31.5350 N   0  0  0  0  0  0  0  0  0  0  0  0
   -7.3950   21.1230  -32.0680 C   0  0  0  0  0  0  0  0  0  0  0  0
   -6.9200   19.8490  -32.6660 C   0  0  0  0  0  0  0  0  0  0  0  0
   -5.8900   19.8280  -33.6260 C   0  0  0  0  0  0  0  0  0  0  0  0
   -5.4600   18.6160  -34.1770 C   0  0  0  0  0  0  0  0  0  0  0  0
   -6.0490   17.4140  -33.7780 C   0  0  0  0  0  0  0  0  0  0  0  0
   -7.0720   17.4210  -32.8270 C   0  0  0  0  0  0  0  0  0  0  0  0
   -7.5070   18.6300  -32.2730 C   0  0  0  0  0  0  0  0  0  0  0  0
   -8.7020   21.5610  -31.9620 C   0  0  0  0  0  0  0  0  0  0  0  0
   -8.7150   22.7650  -31.3640 N   0  0  0  0  0  0  0  0  0  0  0  0
   -2.4870   21.7340  -29.8240 C   0  0  0  0  0  0  0  0  0  0  0  0
   -2.9870   21.6140  -31.6700 Br  0  0  0  0  0  0  0  0  0  0  0  0
   -2.1960   20.5450  -29.1420 C   0  0  0  0  0  0  0  0  0  0  0  0
   -1.6665   19.4660  -25.9548 H   0  0  0  0  0  0  0  0  0  0  0  0
   -2.3881   18.5374  -27.3127 H   0  0  0  0  0  0  0  0  0  0  0  0
   -0.6307   18.9092  -27.3127 H   0  0  0  0  0  0  0  0  0  0  0  0
   -1.7424   21.8013  -25.9921 H   0  0  0  0  0  0  0  0  0  0  0  0
   -2.2649   23.9183  -27.1952 H   0  0  0  0  0  0  0  0  0  0  0  0
   -5.1765   22.7814  -30.1581 H   0  0  0  0  0  0  0  0  0  0  0  0
   -5.2711   23.8005  -28.6550 H   0  0  0  0  0  0  0  0  0  0  0  0
   -5.4206   20.7704  -33.9447 H   0  0  0  0  0  0  0  0  0  0  0  0
   -4.6553   18.6097  -34.9270 H   0  0  0  0  0  0  0  0  0  0  0  0
   -5.7076   16.4628  -34.2123 H   0  0  0  0  0  0  0  0  0  0  0  0
   -7.5364   16.4745  -32.5131 H   0  0  0  0  0  0  0  0  0  0  0  0
   -8.3134   18.6287  -31.5249 H   0  0  0  0  0  0  0  0  0  0  0  0
   -9.5892   21.0123  -32.3110 H   0  0  0  0  0  0  0  0  0  0  0  0
   -2.2005   19.5888  -29.6857 H   0  0  0  0  0  0  0  0  0  0  0  0
  1  2  1  0
  2  3  2  0
  3  4  1  0
  4  5  2  0
  5  6  1  0
  6  7  1  0
  7  8  2  0
  7  9  1  0
  9 10  1  0
 10 11  1  0
 11 12  2  0
 12 13  1  0
 13 14  1  0
 14 15  2  0
 15 16  1  0
 16 17  2  0
 17 18  1  0
 18 19  2  0
 13 20  2  0
 20 21  1  0
  5 22  1  0
 22 23  1  0
 22 24  2  0
 24  2  1  0
 21 11  1  0
 19 14  1  0
  1 25  1  0
  1 26  1  0
  1 27  1  0
  3 28  1  0
  4 29  1  0
  9 30  1  0
  9 31  1  0
 15 32  1  0
 16 33  1  0
 17 34  1  0
 18 35  1  0
 19 36  1  0
 20 37  1  0
 24 38  1  0
M  CHG  2   6  -1  21  -1
M  END
>  <UniqueID>  (14) 
12

>  <SMILES>  (14) 
Cc1ccc([N-]C(=O)CSc2nc(-c3ccccc3)c[n-]2)c(Br)c1

>  <Energy>  (14) 
71.64337125137878

>  <Genealogy>  (14) 
Cc1ccc([N-]C(=O)CSc2nc(-c3ccccc3)c[n-]2)c(Br)c1 (protonated)
Cc1ccc([N-]C(=O)CSc2nc(-c3ccccc3)c[n-]2)c(Br)c1 (3D coordinates assigned)
Cc1ccc([N-]C(=O)CSc2nc(-c3ccccc3)c[n-]2)c(Br)c1 (optimized conformer: 71.64337125137878 kcal/mol)

>  <smiles>  (14) 
Cc1ccc(NC(=O)CSc2nc(-c3ccccc3)c[nH]2)c(Br)c1

>  <score_type>  (14) 
oracle

>  <origin>  (14) 
adg

>  <m_score__min__energy>  (14) 
-11.109999999999999

>  <m_primary>  (14) 
energy

$$$$
15:0
     RDKit          3D

 42 44  0  0  0  0  0  0  0  0999 V2000
   -4.2980   20.2350  -32.4530 C   0  0  0  0  0  0  0  0  0  0  0  0
   -5.1540   21.1600  -33.3290 C   0  0  0  0  0  0  0  0  0  0  0  0
   -6.5770   21.1890  -32.9510 N   0  0  0  0  0  0  0  0  0  0  0  0
   -7.4370   20.0340  -33.2740 C   0  0  0  0  0  0  0  0  0  0  0  0
   -6.7880   18.7010  -32.9890 C   0  0  0  0  0  0  0  0  0  0  0  0
   -6.1890   17.9580  -34.0160 C   0  0  0  0  0  0  0  0  0  0  0  0
   -5.6000   16.7240  -33.7370 C   0  0  0  0  0  0  0  0  0  0  0  0
   -5.5910   16.2520  -32.4240 C   0  0  0  0  0  0  0  0  0  0  0  0
   -6.1380   17.0000  -31.4300 N   0  0  0  0  0  0  0  0  0  0  0  0
   -6.7210   18.2030  -31.6780 C   0  0  0  0  0  0  0  0  0  0  0  0
   -7.0170   22.2060  -31.5960 S   0  0  0  0  0  0  0  0  0  0  0  0
   -7.6250   21.3750  -30.5000 O   0  0  0  0  0  0  0  0  0  0  0  0
   -8.0600   23.1860  -32.0560 O   0  0  0  0  0  0  0  0  0  0  0  0
   -5.6480   23.1190  -30.9570 C   0  0  0  0  0  0  0  0  0  0  0  0
   -5.6570   24.5210  -30.9650 C   0  0  0  0  0  0  0  0  0  0  0  0
   -4.5760   25.2350  -30.4420 C   0  0  0  0  0  0  0  0  0  0  0  0
   -3.4780   24.5560  -29.9080 C   0  0  0  0  0  0  0  0  0  0  0  0
   -3.4520   23.1490  -29.9070 C   0  0  0  0  0  0  0  0  0  0  0  0
   -4.5300   22.4370  -30.4540 C   0  0  0  0  0  0  0  0  0  0  0  0
   -2.2180   22.4180  -29.4310 C   0  0  0  0  0  0  0  0  0  0  0  0
   -1.5040   23.1670  -28.2960 C   0  0  0  0  0  0  0  0  0  0  0  0
   -1.3530   24.6220  -28.6270 C   0  0  0  0  0  0  0  0  0  0  0  0
   -0.3590   25.2710  -28.2060 O   0  0  0  0  0  0  0  0  0  0  0  0
   -2.3820   25.2920  -29.3560 N   0  0  0  0  0  0  0  0  0  0  0  0
   -4.4955   20.4485  -31.3921 H   0  0  0  0  0  0  0  0  0  0  0  0
   -4.5517   19.1868  -32.6695 H   0  0  0  0  0  0  0  0  0  0  0  0
   -3.2333   20.4068  -32.6695 H   0  0  0  0  0  0  0  0  0  0  0  0
   -4.7533   22.1813  -33.2493 H   0  0  0  0  0  0  0  0  0  0  0  0
   -5.1035   20.7661  -34.3548 H   0  0  0  0  0  0  0  0  0  0  0  0
   -8.3577   20.1077  -32.6766 H   0  0  0  0  0  0  0  0  0  0  0  0
   -7.6367   20.0719  -34.3551 H   0  0  0  0  0  0  0  0  0  0  0  0
   -6.1833   18.3487  -35.0443 H   0  0  0  0  0  0  0  0  0  0  0  0
   -5.1473   16.1294  -34.5442 H   0  0  0  0  0  0  0  0  0  0  0  0
   -5.1414   15.2749  -32.1936 H   0  0  0  0  0  0  0  0  0  0  0  0
   -7.1421   18.7888  -30.8477 H   0  0  0  0  0  0  0  0  0  0  0  0
   -6.5186   25.0609  -31.3847 H   0  0  0  0  0  0  0  0  0  0  0  0
   -4.5894   26.3349  -30.4507 H   0  0  0  0  0  0  0  0  0  0  0  0
   -4.4984   21.3380  -30.4887 H   0  0  0  0  0  0  0  0  0  0  0  0
   -2.5134   21.4225  -29.0681 H   0  0  0  0  0  0  0  0  0  0  0  0
   -1.5207   22.3434  -30.2785 H   0  0  0  0  0  0  0  0  0  0  0  0
   -2.0928   23.0670  -27.3722 H   0  0  0  0  0  0  0  0  0  0  0  0
   -0.5029   22.7312  -28.1626 H   0  0  0  0  0  0  0  0  0  0  0  0
  1  2  1  0
  2  3  1  0
  3  4  1  0
  4  5  1  0
  5  6  2  0
  6  7  1  0
  7  8  2  0
  8  9  1  0
  9 10  2  0
  3 11  1  0
 11 12  2  0
 11 13  2  0
 11 14  1  0
 14 15  2  0
 15 16  1  0
 16 17  2  0
 17 18  1  0
 18 19  2  0
 18 20  1  0
 20 21  1  0
 21 22  1  0
 22 23  2  0
 22 24  1  0
 10  5  1  0
 19 14  1  0
 24 17  1  0
  1 25  1  0
  1 26  1  0
  1 27  1  0
  2 28  1  0
  2 29  1  0
  4 30  1  0
  4 31  1  0
  6 32  1  0
  7 33  1  0
  8 34  1  0
 10 35  1  0
 15 36  1  0
 16 37  1  0
 19 38  1  0
 20 39  1  0
 20 40  1  0
 21 41  1  0
 21 42  1  0
M  CHG  1  24  -1
M  END
>  <UniqueID>  (15) 
13

>  <SMILES>  (15) 
CCN(Cc1cccnc1)S(=O)(=O)c1ccc2c(c1)CCC(=O)[N-]2

>  <Energy>  (15) 
55.35077570790708

>  <Genealogy>  (15) 
CCN(Cc1cccnc1)S(=O)(=O)c1ccc2c(c1)CCC(=O)[N-]2 (protonated)
CCN(Cc1cccnc1)S(=O)(=O)c1ccc2c(c1)CCC(=O)[N-]2 (3D coordinates assigned)
CCN(Cc1cccnc1)S(=O)(=O)c1ccc2c(c1)CCC(=O)[N-]2 (nonaromatic ring conformer: 55.35077570790708 kcal/mol)

>  <smiles>  (15) 
CCN(Cc1cccnc1)S(=O)(=O)c1ccc2c(c1)CCC(=O)N2

>  <score_type>  (15) 
oracle

>  <origin>  (15) 
adg

>  <m_score__min__energy>  (15) 
-11.119999999999999

>  <m_primary>  (15) 
energy

$$$$
16:0
     RDKit          3D

 43 45  0  0  1  0  0  0  0  0999 V2000
   -6.5410   17.1460  -33.6200 C   0  0  0  0  0  0  0  0  0  0  0  0
   -5.3980   17.7620  -34.0050 C   0  0  0  0  0  0  0  0  0  0  0  0
   -5.3940   19.2210  -34.2080 C   0  0  0  0  0  0  0  0  0  0  0  0
   -5.0380   20.0310  -33.0730 N   0  0  0  0  0  0  0  0  0  0  0  0
   -3.7130   19.7690  -32.4850 C   0  0  0  0  0  0  0  0  0  0  0  0
   -2.7570   20.5650  -33.3130 C   0  0  0  0  0  0  0  0  0  0  0  0
   -2.0180   21.5030  -32.7330 C   0  0  0  0  0  0  0  0  0  0  0  0
   -5.8020   21.0640  -32.5030 C   0  0  0  0  0  0  0  0  0  0  0  0
   -5.0870   22.1740  -32.1120 N   0  0  0  0  0  0  0  0  0  0  0  0
   -5.6830   23.2480  -31.5890 C   0  0  0  0  0  0  0  0  0  0  0  0
   -4.9850   24.2520  -31.2400 N   0  0  0  0  0  0  0  0  0  0  0  0
   -4.1910   24.3070  -30.0510 C   0  0  0  0  0  0  0  0  0  0  0  0
   -4.8920   24.1150  -28.8600 C   0  0  0  0  0  0  0  0  0  0  0  0
   -4.2330   24.1460  -27.6460 C   0  0  0  0  0  0  0  0  0  0  0  0
   -2.8760   24.3730  -27.6810 C   0  0  0  0  0  0  0  0  0  0  0  0
   -2.2250   24.5580  -28.8910 C   0  0  0  0  0  0  0  0  0  0  0  0
   -2.8630   24.5280  -30.0750 N   0  0  0  0  0  0  0  0  0  0  0  0
   -7.0170   23.2880  -31.4200 N   0  0  0  0  0  0  0  0  0  0  0  0
   -7.7770   22.2380  -31.7800 C   0  0  0  0  0  0  0  0  0  0  0  0
   -9.1310   22.2800  -31.5980 C   0  0  0  0  0  0  0  0  0  0  0  0
   -9.8790   21.1870  -31.9630 C   0  0  0  0  0  0  0  0  0  0  0  0
   -9.2850   20.0680  -32.5040 C   0  0  0  0  0  0  0  0  0  0  0  0
   -7.9210   20.0700  -32.6700 C   0  0  0  0  0  0  0  0  0  0  0  0
   -7.1370   21.1270  -32.3240 C   0  0  0  0  0  0  0  0  0  0  0  0
   -6.5538   16.0569  -33.4659 H   0  0  0  0  0  0  0  0  0  0  0  0
   -7.4565   17.7347  -33.4614 H   0  0  0  0  0  0  0  0  0  0  0  0
   -4.4800   17.1775  -34.1648 H   0  0  0  0  0  0  0  0  0  0  0  0
   -4.6787   19.4434  -35.0135 H   0  0  0  0  0  0  0  0  0  0  0  0
   -6.4378   19.4840  -34.4345 H   0  0  0  0  0  0  0  0  0  0  0  0
   -3.6835   20.0992  -31.4361 H   0  0  0  0  0  0  0  0  0  0  0  0
   -3.4659   18.6971  -32.4853 H   0  0  0  0  0  0  0  0  0  0  0  0
   -2.6665   20.3755  -34.3928 H   0  0  0  0  0  0  0  0  0  0  0  0
   -1.3109   22.0951  -33.3326 H   0  0  0  0  0  0  0  0  0  0  0  0
   -2.1127   21.6881  -31.6528 H   0  0  0  0  0  0  0  0  0  0  0  0
   -5.9773   23.9377  -28.8877 H   0  0  0  0  0  0  0  0  0  0  0  0
   -4.7677   23.9963  -26.6964 H   0  0  0  0  0  0  0  0  0  0  0  0
   -2.3038   24.4079  -26.7422 H   0  0  0  0  0  0  0  0  0  0  0  0
   -1.1397   24.7371  -28.8825 H   0  0  0  0  0  0  0  0  0  0  0  0
   -7.4810   24.1270  -31.0120 H   0  0  0  0  0  0  0  0  0  0  0  0
   -9.6120   23.1709  -31.1680 H   0  0  0  0  0  0  0  0  0  0  0  0
  -10.9696   21.2057  -31.8210 H   0  0  0  0  0  0  0  0  0  0  0  0
   -9.8873   19.1950  -32.7957 H   0  0  0  0  0  0  0  0  0  0  0  0
   -7.4421   19.1786  -33.1012 H   0  0  0  0  0  0  0  0  0  0  0  0
  1  2  2  0
  2  3  1  0
  3  4  1  0
  4  5  1  0
  5  6  1  0
  6  7  2  0
  4  8  1  0
  8  9  2  0
  9 10  1  0
 10 11  2  0
 11 12  1  0
 12 13  2  0
 13 14  1  0
 14 15  2  0
 15 16  1  0
 16 17  2  0
 10 18  1  0
 18 19  1  0
 19 20  2  0
 20 21  1  0
 21 22  2  0
 22 23  1  0
 23 24  2  0
 24  8  1  0
 17 12  1  0
 24 19  1  0
  1 25  1  0
  1 26  1  0
  2 27  1  0
  3 28  1  0
  3 29  1  0
  5 30  1  0
  5 31  1  0
  6 32  1  0
  7 33  1  0
  7 34  1  0
 13 35  1  0
 14 36  1  0
 15 37  1  0
 16 38  1  0
 18 39  1  0
 20 40  1  0
 21 41  1  0
 22 42  1  0
 23 43  1  0
M  END
>  <smiles>  (16) 
C=CCN(CC=C)c1nc(=Nc2ccccn2)[nH]c2ccccc12

>  <score_type>  (16) 
oracle

>  <origin>  (16) 
adg

>  <m_score__min__energy>  (16) 
-8.1799999999999997

>  <m_primary>  (16) 
energy

$$$$
17:0
     RDKit          3D

 41 43  0  0  0  0  0  0  0  0999 V2000
   -1.4470   20.2080  -33.7210 C   0  0  0  0  0  0  0  0  0  0  0  0
   -2.3740   19.4490  -32.9550 O   0  0  0  0  0  0  0  0  0  0  0  0
   -3.7020   19.2740  -33.3510 C   0  0  0  0  0  0  0  0  0  0  0  0
   -4.0570   18.4080  -34.3800 C   0  0  0  0  0  0  0  0  0  0  0  0
   -5.7330   18.4500  -34.5260 S   0  0  0  0  0  0  0  0  0  0  0  0
   -5.9200   19.5740  -33.2910 C   0  0  0  0  0  0  0  0  0  0  0  0
   -7.4850   20.2390  -32.7360 S   0  0  0  0  0  0  0  0  0  0  0  0
   -6.7240   21.7600  -32.1610 C   0  0  0  0  0  0  0  0  0  0  0  0
   -5.6270   22.2950  -32.7200 N   0  0  0  0  0  0  0  0  0  0  0  0
   -5.2840   23.3610  -32.0160 N   0  0  0  0  0  0  0  0  0  0  0  0
   -6.1960   23.4690  -31.0260 C   0  0  0  0  0  0  0  0  0  0  0  0
   -6.0750   24.4770  -29.9170 C   0  0  0  0  0  0  0  0  0  0  0  0
   -5.2210   25.6650  -30.3580 C   0  0  0  0  0  0  0  0  0  0  0  0
   -3.8520   25.2350  -30.6230 N   0  0  0  0  0  0  0  0  0  0  0  0
   -3.0060   24.6700  -29.6170 C   0  0  0  0  0  0  0  0  0  0  0  0
   -2.2570   25.4170  -28.9320 O   0  0  0  0  0  0  0  0  0  0  0  0
   -2.9960   23.2150  -29.3780 C   0  0  0  0  0  0  0  0  0  0  0  0
   -2.8540   22.6880  -28.0820 C   0  0  0  0  0  0  0  0  0  0  0  0
   -2.8080   21.3030  -27.9090 C   0  0  0  0  0  0  0  0  0  0  0  0
   -2.9320   20.4580  -29.0140 C   0  0  0  0  0  0  0  0  0  0  0  0
   -3.0860   21.0140  -30.2860 C   0  0  0  0  0  0  0  0  0  0  0  0
   -3.1060   22.3650  -30.4390 N   0  0  0  0  0  0  0  0  0  0  0  0
   -7.1220   22.4830  -31.0950 N   0  0  0  0  0  0  0  0  0  0  0  0
   -8.1930   22.1780  -30.1460 C   0  0  0  0  0  0  0  0  0  0  0  0
   -4.7350   19.9250  -32.7510 N   0  0  0  0  0  0  0  0  0  0  0  0
   -0.7757   20.7576  -33.0447 H   0  0  0  0  0  0  0  0  0  0  0  0
   -0.8551   19.5318  -34.3554 H   0  0  0  0  0  0  0  0  0  0  0  0
   -1.9931   20.9217  -34.3554 H   0  0  0  0  0  0  0  0  0  0  0  0
   -3.3670   17.8048  -34.9883 H   0  0  0  0  0  0  0  0  0  0  0  0
   -5.1020   21.9320  -33.5470 H   0  0  0  0  0  0  0  0  0  0  0  0
   -7.0784   24.8353  -29.6436 H   0  0  0  0  0  0  0  0  0  0  0  0
   -5.5930   23.9962  -29.0530 H   0  0  0  0  0  0  0  0  0  0  0  0
   -5.6486   26.0990  -31.2739 H   0  0  0  0  0  0  0  0  0  0  0  0
   -5.2106   26.4157  -29.5541 H   0  0  0  0  0  0  0  0  0  0  0  0
   -2.7800   23.3595  -27.2139 H   0  0  0  0  0  0  0  0  0  0  0  0
   -2.6742   20.8780  -26.9033 H   0  0  0  0  0  0  0  0  0  0  0  0
   -2.9086   19.3660  -28.8839 H   0  0  0  0  0  0  0  0  0  0  0  0
   -3.1911   20.3593  -31.1636 H   0  0  0  0  0  0  0  0  0  0  0  0
   -7.8144   22.2858  -29.1188 H   0  0  0  0  0  0  0  0  0  0  0  0
   -9.0309   22.8732  -30.3028 H   0  0  0  0  0  0  0  0  0  0  0  0
   -8.5389   21.1456  -30.3028 H   0  0  0  0  0  0  0  0  0  0  0  0
  1  2  1  0
  2  3  1  0
  3  4  2  0
  4  5  1  0
  5  6  1  0
  6  7  1  0
  7  8  1  0
  8  9  2  0
  9 10  1  0
 10 11  2  0
 11 12  1  0
 12 13  1  0
 13 14  1  0
 14 15  1  0
 15 16  2  0
 15 17  1  0
 17 18  2  0
 18 19  1  0
 19 20  2  0
 20 21  1  0
 21 22  2  0
 11 23  1  0
 23 24  1  0
  6 25  2  0
 25  3  1  0
 23  8  1  0
 22 17  1  0
  1 26  1  0
  1 27  1  0
  1 28  1  0
  4 29  1  0
  9 30  1  0
 12 31  1  0
 12 32  1  0
 13 33  1  0
 13 34  1  0
 18 35  1  0
 19 36  1  0
 20 37  1  0
 21 38  1  0
 24 39  1  0
 24 40  1  0
 24 41  1  0
M  CHG  2   9   1  14  -1
M  END
>  <UniqueID>  (17) 
14

>  <SMILES>  (17) 
COc1csc(Sc2[nH+]nc(CC[N-]C(=O)c3ccccn3)n2C)n1

>  <Energy>  (17) 
93.79612327538104

>  <Genealogy>  (17) 
COc1csc(Sc2[nH+]nc(CC[N-]C(=O)c3ccccn3)n2C)n1 (protonated)
COc1csc(Sc2[nH+]nc(CC[N-]C(=O)c3ccccn3)n2C)n1 (3D coordinates assigned)
COc1csc(Sc2[nH+]nc(CC[N-]C(=O)c3ccccn3)n2C)n1 (optimized conformer: 93.79612327538104 kcal/mol)

>  <smiles>  (17) 
COc1csc(Sc2nnc(CCNC(=O)c3ccccn3)n2C)n1

>  <score_type>  (17) 
oracle

>  <origin>  (17) 
adg

>  <m_score__min__energy>  (17) 
-8.7200000000000006

>  <m_primary>  (17) 
energy

$$$$
18:0
     RDKit          3D

 62 65  0  0  0  0  0  0  0  0999 V2000
   -3.8730   26.0400  -30.7040 H   0  0  0  0  0  0  0  0  0  0  0  0
   -3.5130   25.1160  -30.3770 N   0  0  0  0  0  0  0  0  0  0  0  0
   -4.0570   23.9010  -30.8850 C   0  0  0  0  0  0  0  0  0  0  0  0
   -5.2140   23.9010  -31.3830 O   0  0  0  0  0  0  0  0  0  0  0  0
   -3.2920   22.6450  -30.7520 C   0  0  0  0  0  0  0  0  0  0  0  0
   -2.6080   22.0450  -31.7910 C   0  0  0  0  0  0  0  0  0  0  0  0
   -2.6965   22.3177  -32.8530 H   0  0  0  0  0  0  0  0  0  0  0  0
   -1.8120   21.0690  -31.2970 N   0  0  0  0  0  0  0  0  0  0  0  0
   -0.9450   20.1650  -32.0950 C   0  0  2  0  0  0  0  0  0  0  0  0
    0.5070   20.2890  -31.5420 C   0  0  0  0  0  0  0  0  0  0  0  0
    1.2064   19.9532  -32.3218 H   0  0  0  0  0  0  0  0  0  0  0  0
    0.6605   21.3437  -31.2698 H   0  0  0  0  0  0  0  0  0  0  0  0
    0.7440   19.4890  -30.3270 C   0  0  0  0  0  0  0  0  0  0  0  0
    0.9290   18.8580  -29.3740 N   0  0  0  0  0  0  0  0  0  0  0  0
   -0.9920   20.6270  -33.5800 C   0  0  0  0  0  0  0  0  0  0  0  0
   -0.3382   19.9770  -34.1800 H   0  0  0  0  0  0  0  0  0  0  0  0
   -0.6505   21.6713  -33.6336 H   0  0  0  0  0  0  0  0  0  0  0  0
   -2.4270   20.5500  -34.1360 C   0  0  0  0  0  0  0  0  0  0  0  0
   -2.3805   20.6849  -35.2267 H   0  0  0  0  0  0  0  0  0  0  0  0
   -3.0015   21.3391  -33.6289 H   0  0  0  0  0  0  0  0  0  0  0  0
   -3.1670   19.2010  -33.8410 C   0  0  2  0  0  0  0  0  0  0  0  0
   -3.5411   18.7692  -34.7810 H   0  0  0  0  0  0  0  0  0  0  0  0
   -4.3800   19.4320  -32.9950 N   0  0  0  0  0  0  0  0  0  0  0  0
   -5.3750   18.3270  -33.0850 C   0  0  0  0  0  0  0  0  0  0  0  0
   -5.4663   18.0265  -34.1392 H   0  0  0  0  0  0  0  0  0  0  0  0
   -5.0075   17.5098  -32.4469 H   0  0  0  0  0  0  0  0  0  0  0  0
   -6.7800   18.7130  -32.5630 C   0  0  0  0  0  0  0  0  0  0  0  0
   -7.4174   18.9836  -33.4177 H   0  0  0  0  0  0  0  0  0  0  0  0
   -7.1973   17.8507  -32.0223 H   0  0  0  0  0  0  0  0  0  0  0  0
   -6.7110   19.8980  -31.5990 C   0  0  0  0  0  0  0  0  0  0  0  0
   -6.0989   19.6044  -30.7335 H   0  0  0  0  0  0  0  0  0  0  0  0
   -7.9870   20.2300  -31.1740 F   0  0  0  0  0  0  0  0  0  0  0  0
   -6.0470   21.1160  -32.2640 C   0  0  0  0  0  0  0  0  0  0  0  0
   -6.8296   21.7427  -32.7166 H   0  0  0  0  0  0  0  0  0  0  0  0
   -5.4936   21.6642  -31.4874 H   0  0  0  0  0  0  0  0  0  0  0  0
   -5.0450   20.7080  -33.3580 C   0  0  0  0  0  0  0  0  0  0  0  0
   -5.5796   20.5807  -34.3109 H   0  0  0  0  0  0  0  0  0  0  0  0
   -4.2822   21.4944  -33.4569 H   0  0  0  0  0  0  0  0  0  0  0  0
   -2.1710   18.1630  -33.2470 C   0  0  0  0  0  0  0  0  0  0  0  0
   -1.4234   17.9179  -34.0157 H   0  0  0  0  0  0  0  0  0  0  0  0
   -2.7600   17.2847  -32.9442 H   0  0  0  0  0  0  0  0  0  0  0  0
   -1.4330   18.6700  -31.9920 C   0  0  0  0  0  0  0  0  0  0  0  0
   -0.5540   18.0300  -31.8255 H   0  0  0  0  0  0  0  0  0  0  0  0
   -2.1522   18.6267  -31.1608 H   0  0  0  0  0  0  0  0  0  0  0  0
   -1.9560   21.0200  -29.9810 N   0  0  0  0  0  0  0  0  0  0  0  0
   -2.8600   21.9480  -29.6230 C   0  0  0  0  0  0  0  0  0  0  0  0
   -3.2530   22.0720  -28.3870 N   0  0  0  0  0  0  0  0  0  0  0  0
   -2.9650   23.1300  -27.4670 C   0  0  0  0  0  0  0  0  0  0  0  0
   -1.7250   23.2120  -26.8220 C   0  0  0  0  0  0  0  0  0  0  0  0
   -0.9826   22.4111  -26.9539 H   0  0  0  0  0  0  0  0  0  0  0  0
   -1.4310   24.3080  -26.0130 C   0  0  0  0  0  0  0  0  0  0  0  0
   -0.4700   24.3609  -25.4804 H   0  0  0  0  0  0  0  0  0  0  0  0
   -2.3710   25.3460  -25.8820 C   0  0  0  0  0  0  0  0  0  0  0  0
   -2.1230   26.4820  -25.0980 O   0  0  0  0  0  0  0  0  0  0  0  0
   -1.0010   26.6310  -24.2300 C   0  0  0  0  0  0  0  0  0  0  0  0
   -1.3382   26.5862  -23.1839 H   0  0  0  0  0  0  0  0  0  0  0  0
   -0.2815   25.8205  -24.4183 H   0  0  0  0  0  0  0  0  0  0  0  0
   -0.5180   27.6012  -24.4183 H   0  0  0  0  0  0  0  0  0  0  0  0
   -3.5590   25.2580  -26.5460 N   0  0  0  0  0  0  0  0  0  0  0  0
   -4.2530   26.0340  -26.4560 H   0  0  0  0  0  0  0  0  0  0  0  0
   -3.8650   24.1910  -27.3340 C   0  0  0  0  0  0  0  0  0  0  0  0
   -4.8258   24.1637  -27.8690 H   0  0  0  0  0  0  0  0  0  0  0  0
  1  2  1  0
  2  3  1  0
  3  4  2  0
  3  5  1  0
  5  6  2  0
  6  7  1  0
  6  8  1  0
  8  9  1  0
  9 10  1  1
 10 11  1  0
 10 12  1  0
 10 13  1  0
 13 14  3  0
  9 15  1  0
 15 16  1  0
 15 17  1  0
 15 18  1  0
 18 19  1  0
 18 20  1  0
 18 21  1  0
 21 22  1  6
 21 23  1  0
 23 24  1  0
 24 25  1  0
 24 26  1  0
 24 27  1  0
 27 28  1  0
 27 29  1  0
 27 30  1  0
 30 31  1  0
 30 32  1  0
 30 33  1  0
 33 34  1  0
 33 35  1  0
 33 36  1  0
 36 37  1  0
 36 38  1  0
 21 39  1  0
 39 40  1  0
 39 41  1  0
 39 42  1  0
 42 43  1  0
 42 44  1  0
  8 45  1  0
 45 46  1  0
 46 47  2  0
 47 48  1  0
 48 49  2  0
 49 50  1  0
 49 51  1  0
 51 52  1  0
 51 53  2  0
 53 54  1  0
 54 55  1  0
 55 56  1  0
 55 57  1  0
 55 58  1  0
 53 59  1  0
 59 60  1  0
 59 61  2  0
 61 62  1  0
 46  5  1  0
 61 48  1  0
 42  9  1  0
 36 23  1  0
M  CHG  3   2  -1  45  -1  59   1
M  END
>  <UniqueID>  (18) 
15

>  <SMILES>  (18) 
COc1ccc(/N=c2/[n-]n(C3(CC#N)CCC(N4CCC(F)CC4)CC3)cc2C([NH-])=O)c[nH+]1

>  <Energy>  (18) 
125.97739777494799

>  <Genealogy>  (18) 
COc1ccc(N=c2[n-]n(C3(CC#N)CCC(N4CCC(F)CC4)CC3)cc2C([NH-])=O)c[nH+]1 (protonated)
COc1ccc(/N=c2/[n-]n(C3(CC#N)CCC(N4CCC(F)CC4)CC3)cc2C([NH-])=O)c[nH+]1 (cis-trans isomerization)
COc1ccc(/N=c2/[n-]n(C3(CC#N)CCC(N4CCC(F)CC4)CC3)cc2C([NH-])=O)c[nH+]1 (3D coordinates assigned)
COc1ccc(/N=c2/[n-]n(C3(CC#N)CCC(N4CCC(F)CC4)CC3)cc2C([NH-])=O)c[nH+]1 (nonaromatic ring conformer: 125.97739777494799 kcal/mol)

>  <smiles>  (18) 
COc1ccc(N=c2[nH]n(C3(CC#N)CCC(N4CCC(F)CC4)CC3)cc2C(N)=O)cn1

>  <score_type>  (18) 
oracle

>  <origin>  (18) 
adg

>  <m_score__min__energy>  (18) 
-11.039999999999999

>  <m_primary>  (18) 
energy

$$$$
19:0
     RDKit          3D

 51 53  0  0  0  0  0  0  0  0999 V2000
   -3.5150   20.7340  -33.0760 C   0  0  0  0  0  0  0  0  0  0  0  0
   -4.2990   21.9080  -32.8850 O   0  0  0  0  0  0  0  0  0  0  0  0
   -5.5740   21.9310  -32.2950 C   0  0  0  0  0  0  0  0  0  0  0  0
   -6.5700   21.0010  -32.6580 C   0  0  0  0  0  0  0  0  0  0  0  0
   -7.8360   21.0550  -32.0730 C   0  0  0  0  0  0  0  0  0  0  0  0
   -8.1250   22.0300  -31.1210 C   0  0  0  0  0  0  0  0  0  0  0  0
   -7.1490   22.9550  -30.7470 C   0  0  0  0  0  0  0  0  0  0  0  0
   -5.8680   22.9190  -31.3280 C   0  0  0  0  0  0  0  0  0  0  0  0
   -4.8290   23.8980  -30.9140 C   0  0  0  0  0  0  0  0  0  0  0  0
   -4.9920   25.1140  -31.2100 O   0  0  0  0  0  0  0  0  0  0  0  0
   -3.5680   23.4730  -30.1800 C   0  0  2  0  0  0  0  0  0  0  0  0
   -3.7470   22.0850  -29.5250 C   0  0  0  0  0  0  0  0  0  0  0  0
   -3.1400   24.5210  -29.2120 N   0  0  0  0  0  0  0  0  0  0  0  0
   -1.6670   24.6200  -29.0930 C   0  0  0  0  0  0  0  0  0  0  0  0
   -1.2610   25.4380  -27.8600 C   0  0  0  0  0  0  0  0  0  0  0  0
   -1.7720   24.8370  -26.6060 N   0  0  0  0  0  0  0  0  0  0  0  0
   -0.7370   24.1950  -25.7630 C   0  0  0  0  0  0  0  0  0  0  0  0
   -0.0730   25.1390  -24.7780 C   0  0  0  0  0  0  0  0  0  0  0  0
   -0.8480   26.0110  -23.9960 C   0  0  0  0  0  0  0  0  0  0  0  0
   -0.2210   26.8660  -23.0870 C   0  0  0  0  0  0  0  0  0  0  0  0
    1.1330   26.8680  -22.9700 N   0  0  0  0  0  0  0  0  0  0  0  0
    1.9100   26.0540  -23.7340 C   0  0  0  0  0  0  0  0  0  0  0  0
    1.3240   25.1830  -24.6550 C   0  0  0  0  0  0  0  0  0  0  0  0
   -3.0000   24.0230  -26.7600 C   0  0  0  0  0  0  0  0  0  0  0  0
   -3.8680   24.5380  -27.9160 C   0  0  0  0  0  0  0  0  0  0  0  0
   -3.2360   20.3162  -32.0974 H   0  0  0  0  0  0  0  0  0  0  0  0
   -4.0987   19.9909  -33.6390 H   0  0  0  0  0  0  0  0  0  0  0  0
   -2.6049   20.9884  -33.6390 H   0  0  0  0  0  0  0  0  0  0  0  0
   -6.3475   20.2274  -33.4077 H   0  0  0  0  0  0  0  0  0  0  0  0
   -8.6069   20.3264  -32.3642 H   0  0  0  0  0  0  0  0  0  0  0  0
   -9.1243   22.0710  -30.6631 H   0  0  0  0  0  0  0  0  0  0  0  0
   -7.3834   23.7191  -29.9912 H   0  0  0  0  0  0  0  0  0  0  0  0
   -2.7531   23.3678  -30.9114 H   0  0  0  0  0  0  0  0  0  0  0  0
   -3.7332   22.1916  -28.4303 H   0  0  0  0  0  0  0  0  0  0  0  0
   -4.7084   21.6525  -29.8392 H   0  0  0  0  0  0  0  0  0  0  0  0
   -2.9268   21.4228  -29.8392 H   0  0  0  0  0  0  0  0  0  0  0  0
   -1.2457   23.6076  -29.0060 H   0  0  0  0  0  0  0  0  0  0  0  0
   -1.2796   25.1271  -29.9890 H   0  0  0  0  0  0  0  0  0  0  0  0
   -0.1631   25.4852  -27.8102 H   0  0  0  0  0  0  0  0  0  0  0  0
   -1.6969   26.4431  -27.9589 H   0  0  0  0  0  0  0  0  0  0  0  0
   -1.2093   23.3792  -25.1961 H   0  0  0  0  0  0  0  0  0  0  0  0
    0.0507   23.8369  -26.4422 H   0  0  0  0  0  0  0  0  0  0  0  0
   -1.9431   26.0205  -24.0990 H   0  0  0  0  0  0  0  0  0  0  0  0
   -0.8256   27.5407  -22.4631 H   0  0  0  0  0  0  0  0  0  0  0  0
    1.5860   27.5130  -22.2850 H   0  0  0  0  0  0  0  0  0  0  0  0
    3.0043   26.0819  -23.6260 H   0  0  0  0  0  0  0  0  0  0  0  0
    1.9546   24.5346  -25.2810 H   0  0  0  0  0  0  0  0  0  0  0  0
   -2.7156   22.9799  -26.9624 H   0  0  0  0  0  0  0  0  0  0  0  0
   -3.5827   24.0936  -25.8297 H   0  0  0  0  0  0  0  0  0  0  0  0
   -4.7598   23.8998  -28.0017 H   0  0  0  0  0  0  0  0  0  0  0  0
   -4.1429   25.5800  -27.6953 H   0  0  0  0  0  0  0  0  0  0  0  0
  1  2  1  0
  2  3  1  0
  3  4  2  0
  4  5  1  0
  5  6  2  0
  6  7  1  0
  7  8  2  0
  8  9  1  0
  9 10  2  0
  9 11  1  0
 11 12  1  0
 11 13  1  0
 13 14  1  0
 14 15  1  0
 15 16  1  0
 16 17  1  0
 17 18  1  0
 18 19  2  0
 19 20  1  0
 20 21  2  0
 21 22  1  0
 22 23  2  0
 16 24  1  0
 24 25  1  0
  8  3  1  0
 25 13  1  0
 23 18  1  0
  1 26  1  0
  1 27  1  0
  1 28  1  0
  4 29  1  0
  5 30  1  0
  6 31  1  0
  7 32  1  0
 11 33  1  6
 12 34  1  0
 12 35  1  0
 12 36  1  0
 14 37  1  0
 14 38  1  0
 15 39  1  0
 15 40  1  0
 17 41  1  0
 17 42  1  0
 19 43  1  0
 20 44  1  0
 21 45  1  0
 22 46  1  0
 23 47  1  0
 24 48  1  0
 24 49  1  0
 25 50  1  0
 25 51  1  0
M  CHG  1  21   1
M  END
>  <UniqueID>  (19) 
16

>  <SMILES>  (19) 
COc1ccccc1C(=O)[C@H](C)N1CCN(Cc2cc[nH+]cc2)CC1

>  <Energy>  (19) 
74.31920893332281

>  <Genealogy>  (19) 
COc1ccccc1C(=O)C(C)N1CCN(Cc2cc[nH+]cc2)CC1 (protonated)
COc1ccccc1C(=O)[C@H](C)N1CCN(Cc2cc[nH+]cc2)CC1 (chirality)
COc1ccccc1C(=O)[C@H](C)N1CCN(Cc2cc[nH+]cc2)CC1 (3D coordinates assigned)
COc1ccccc1C(=O)[C@H](C)N1CCN(Cc2cc[nH+]cc2)CC1 (nonaromatic ring conformer: 74.31920893332281 kcal/mol)

>  <smiles>  (19) 
COc1ccccc1C(=O)C(C)N1CCN(Cc2ccncc2)CC1

>  <score_type>  (19) 
oracle

>  <origin>  (19) 
adg

>  <m_score__min__energy>  (19) 
-8.6899999999999995

>  <m_primary>  (19) 
energy

$$$$
20:0
     RDKit          3D

 27 28  0  0  0  0  0  0  0  0999 V2000
   -9.8590   20.8270  -32.0500 C   0  0  0  0  0  0  0  0  0  0  0  0
   -8.3910   20.9430  -32.3370 C   0  0  0  0  0  0  0  0  0  0  0  0
   -7.6530   22.0010  -31.7950 C   0  0  0  0  0  0  0  0  0  0  0  0
   -6.2730   22.0690  -32.0510 C   0  0  0  0  0  0  0  0  0  0  0  0
   -5.4580   23.1420  -31.5290 N   0  0  0  0  0  0  0  0  0  0  0  0
   -4.0160   22.9270  -31.3530 C   0  0  0  0  0  0  0  0  0  0  0  0
   -3.4720   23.8430  -30.2520 C   0  0  0  0  0  0  0  0  0  0  0  0
   -3.8490   25.1850  -30.4850 O   0  0  0  0  0  0  0  0  0  0  0  0
   -5.2530   25.3070  -30.3720 C   0  0  0  0  0  0  0  0  0  0  0  0
   -5.9620   24.5210  -31.4790 C   0  0  0  0  0  0  0  0  0  0  0  0
   -5.7000   21.1010  -32.8160 N   0  0  0  0  0  0  0  0  0  0  0  0
   -6.4250   20.0720  -33.3230 C   0  0  0  0  0  0  0  0  0  0  0  0
   -5.6270   18.8480  -34.2930 Cl  0  0  0  0  0  0  0  0  0  0  0  0
   -7.7590   19.9900  -33.0770 N   0  0  0  0  0  0  0  0  0  0  0  0
  -10.0200   20.8143  -30.9619 H   0  0  0  0  0  0  0  0  0  0  0  0
  -10.3874   21.6862  -32.4888 H   0  0  0  0  0  0  0  0  0  0  0  0
  -10.2459   19.8955  -32.4888 H   0  0  0  0  0  0  0  0  0  0  0  0
   -8.1453   22.7674  -31.1783 H   0  0  0  0  0  0  0  0  0  0  0  0
   -3.8370   21.8782  -31.0738 H   0  0  0  0  0  0  0  0  0  0  0  0
   -3.5019   23.1587  -32.2975 H   0  0  0  0  0  0  0  0  0  0  0  0
   -3.8746   23.5185  -29.2811 H   0  0  0  0  0  0  0  0  0  0  0  0
   -2.3738   23.7800  -30.2510 H   0  0  0  0  0  0  0  0  0  0  0  0
   -5.5706   24.9170  -29.3937 H   0  0  0  0  0  0  0  0  0  0  0  0
   -5.5218   26.3693  -30.4685 H   0  0  0  0  0  0  0  0  0  0  0  0
   -7.0432   24.5050  -31.2771 H   0  0  0  0  0  0  0  0  0  0  0  0
   -5.7660   25.0085  -32.4454 H   0  0  0  0  0  0  0  0  0  0  0  0
   -8.3010   19.1850  -33.4660 H   0  0  0  0  0  0  0  0  0  0  0  0
  1  2  1  0
  2  3  2  0
  3  4  1  0
  4  5  1  0
  5  6  1  0
  6  7  1  0
  7  8  1  0
  8  9  1  0
  9 10  1  0
  4 11  2  0
 11 12  1  0
 12 13  1  0
 12 14  2  0
 14  2  1  0
 10  5  1  0
  1 15  1  0
  1 16  1  0
  1 17  1  0
  3 18  1  0
  6 19  1  0
  6 20  1  0
  7 21  1  0
  7 22  1  0
  9 23  1  0
  9 24  1  0
 10 25  1  0
 10 26  1  0
 14 27  1  0
M  CHG  1  14   1
M  END
>  <UniqueID>  (20) 
17

>  <SMILES>  (20) 
Cc1cc(N2CCOCC2)nc(Cl)[nH+]1

>  <Energy>  (20) 
29.524543542723475

>  <Genealogy>  (20) 
Cc1cc(N2CCOCC2)nc(Cl)[nH+]1 (protonated)
Cc1cc(N2CCOCC2)nc(Cl)[nH+]1 (3D coordinates assigned)
Cc1cc(N2CCOCC2)nc(Cl)[nH+]1 (nonaromatic ring conformer: 29.524543542723475 kcal/mol)

>  <smiles>  (20) 
Cc1cc(N2CCOCC2)nc(Cl)n1

>  <score_type>  (20) 
oracle

>  <origin>  (20) 
adg

>  <m_score__min__energy>  (20) 
-6.6299999999999999

>  <m_primary>  (20) 
energy

$$$$
21:0
     RDKit          3D

 32 33  0  0  0  0  0  0  0  0999 V2000
   -6.8860   19.9830  -33.1130 C   0  0  0  0  0  0  0  0  0  0  0  0
   -6.8860   21.4070  -33.1110 O   0  0  0  0  0  0  0  0  0  0  0  0
   -6.7980   22.1960  -31.9540 C   0  0  0  0  0  0  0  0  0  0  0  0
   -5.9160   23.2860  -31.8490 C   0  0  0  0  0  0  0  0  0  0  0  0
   -5.8930   24.0510  -30.6740 C   0  0  0  0  0  0  0  0  0  0  0  0
   -4.9970   25.2160  -30.5570 C   0  0  0  0  0  0  0  0  0  0  0  0
   -5.4950   26.3710  -30.5840 O   0  0  0  0  0  0  0  0  0  0  0  0
   -3.5720   25.0770  -30.4670 N   0  0  0  0  0  0  0  0  0  0  0  0
   -2.8530   24.1980  -29.5450 C   0  0  0  0  0  0  0  0  0  0  0  0
   -2.2670   23.0110  -30.2710 C   0  0  0  0  0  0  0  0  0  0  0  0
   -3.0240   22.3540  -31.2560 C   0  0  0  0  0  0  0  0  0  0  0  0
   -2.5050   21.2350  -31.9170 C   0  0  0  0  0  0  0  0  0  0  0  0
   -3.4660   20.4100  -33.1320 Cl  0  0  0  0  0  0  0  0  0  0  0  0
   -1.2230   20.7730  -31.6090 C   0  0  0  0  0  0  0  0  0  0  0  0
   -0.4560   21.4310  -30.6450 C   0  0  0  0  0  0  0  0  0  0  0  0
   -0.9680   22.5510  -29.9800 C   0  0  0  0  0  0  0  0  0  0  0  0
   -0.1970   23.1760  -29.0560 F   0  0  0  0  0  0  0  0  0  0  0  0
   -6.6960   23.7060  -29.6270 N   0  0  0  0  0  0  0  0  0  0  0  0
   -7.5540   22.6530  -29.7050 C   0  0  0  0  0  0  0  0  0  0  0  0
   -7.6220   21.8860  -30.8680 C   0  0  0  0  0  0  0  0  0  0  0  0
   -8.4850   20.8410  -30.9390 F   0  0  0  0  0  0  0  0  0  0  0  0
   -5.8489   19.6163  -33.1135 H   0  0  0  0  0  0  0  0  0  0  0  0
   -7.4045   19.6151  -32.2154 H   0  0  0  0  0  0  0  0  0  0  0  0
   -7.4045   19.6176  -34.0117 H   0  0  0  0  0  0  0  0  0  0  0  0
   -5.2469   23.5376  -32.6850 H   0  0  0  0  0  0  0  0  0  0  0  0
   -2.0397   24.7651  -29.0687 H   0  0  0  0  0  0  0  0  0  0  0  0
   -3.5621   23.8298  -28.7889 H   0  0  0  0  0  0  0  0  0  0  0  0
   -4.0296   22.7212  -31.5087 H   0  0  0  0  0  0  0  0  0  0  0  0
   -0.8176   19.8907  -32.1259 H   0  0  0  0  0  0  0  0  0  0  0  0
    0.5547   21.0675  -30.4074 H   0  0  0  0  0  0  0  0  0  0  0  0
   -6.6750   24.2690  -28.7470 H   0  0  0  0  0  0  0  0  0  0  0  0
   -8.1967   22.4055  -28.8473 H   0  0  0  0  0  0  0  0  0  0  0  0
  1  2  1  0
  2  3  1  0
  3  4  2  0
  4  5  1  0
  5  6  1  0
  6  7  2  0
  6  8  1  0
  8  9  1  0
  9 10  1  0
 10 11  2  0
 11 12  1  0
 12 13  1  0
 12 14  2  0
 14 15  1  0
 15 16  2  0
 16 17  1  0
  5 18  2  0
 18 19  1  0
 19 20  2  0
 20 21  1  0
 20  3  1  0
 16 10  1  0
  1 22  1  0
  1 23  1  0
  1 24  1  0
  4 25  1  0
  9 26  1  0
  9 27  1  0
 11 28  1  0
 14 29  1  0
 15 30  1  0
 18 31  1  0
 19 32  1  0
M  CHG  2   8  -1  18   1
M  END
>  <UniqueID>  (21) 
18

>  <SMILES>  (21) 
COc1cc(C(=O)[N-]Cc2cc(Cl)ccc2F)[nH+]cc1F

>  <Energy>  (21) 
34.50774363738583

>  <Genealogy>  (21) 
COc1cc(C(=O)[N-]Cc2cc(Cl)ccc2F)[nH+]cc1F (protonated)
COc1cc(C(=O)[N-]Cc2cc(Cl)ccc2F)[nH+]cc1F (3D coordinates assigned)
COc1cc(C(=O)[N-]Cc2cc(Cl)ccc2F)[nH+]cc1F (optimized conformer: 34.50774363738583 kcal/mol)

>  <smiles>  (21) 
COc1cc(C(=O)NCc2cc(Cl)ccc2F)ncc1F

>  <score_type>  (21) 
oracle

>  <origin>  (21) 
adg

>  <m_score__min__energy>  (21) 
-7.2400000000000002

>  <m_primary>  (21) 
energy

$$$$
22:0
     RDKit          3D

 23 23  0  0  0  0  0  0  0  0999 V2000
   -3.5130   24.0940  -30.4390 C   0  0  0  0  0  0  0  0  0  0  0  0
   -4.4660   25.1430  -30.8100 N   0  0  0  0  0  0  0  0  0  0  0  0
   -5.7570   24.5760  -31.2370 C   0  0  0  0  0  0  0  0  0  0  0  0
   -5.5400   23.2530  -31.9760 C   0  0  0  0  0  0  0  0  0  0  0  0
   -6.7860   22.4050  -31.9750 C   0  0  0  0  0  0  0  0  0  0  0  0
   -6.7330   21.0620  -32.3840 C   0  0  0  0  0  0  0  0  0  0  0  0
   -7.8980   20.2900  -32.4170 C   0  0  0  0  0  0  0  0  0  0  0  0
   -9.1240   20.8530  -32.0480 C   0  0  0  0  0  0  0  0  0  0  0  0
   -9.1850   22.1910  -31.6470 C   0  0  0  0  0  0  0  0  0  0  0  0
   -8.0220   22.9660  -31.6140 C   0  0  0  0  0  0  0  0  0  0  0  0
   -3.4511   24.0258  -29.3429 H   0  0  0  0  0  0  0  0  0  0  0  0
   -3.8510   23.1303  -30.8478 H   0  0  0  0  0  0  0  0  0  0  0  0
   -2.5214   24.3382  -30.8478 H   0  0  0  0  0  0  0  0  0  0  0  0
   -4.0500   25.6720  -31.6130 H   0  0  0  0  0  0  0  0  0  0  0  0
   -6.3853   24.3980  -30.3518 H   0  0  0  0  0  0  0  0  0  0  0  0
   -6.2522   25.2866  -31.9151 H   0  0  0  0  0  0  0  0  0  0  0  0
   -5.2556   23.4681  -33.0166 H   0  0  0  0  0  0  0  0  0  0  0  0
   -4.7451   22.6964  -31.4580 H   0  0  0  0  0  0  0  0  0  0  0  0
   -5.7716   20.6164  -32.6793 H   0  0  0  0  0  0  0  0  0  0  0  0
   -7.8504   19.2377  -32.7338 H   0  0  0  0  0  0  0  0  0  0  0  0
  -10.0394   20.2436  -32.0733 H   0  0  0  0  0  0  0  0  0  0  0  0
  -10.1491   22.6343  -31.3572 H   0  0  0  0  0  0  0  0  0  0  0  0
   -8.0751   24.0200  -31.3039 H   0  0  0  0  0  0  0  0  0  0  0  0
  1  2  1  0
  2  3  1  0
  3  4  1  0
  4  5  1  0
  5  6  2  0
  6  7  1  0
  7  8  2  0
  8  9  1  0
  9 10  2  0
 10  5  1  0
  1 11  1  0
  1 12  1  0
  1 13  1  0
  2 14  1  0
  3 15  1  0
  3 16  1  0
  4 17  1  0
  4 18  1  0
  6 19  1  0
  7 20  1  0
  8 21  1  0
  9 22  1  0
 10 23  1  0
M  END
>  <UniqueID>  (22) 
19

>  <SMILES>  (22) 
CNCCc1ccccc1

>  <Energy>  (22) 
18.174836544610727

>  <Genealogy>  (22) 
CNCCc1ccccc1 (3D coordinates assigned)
CNCCc1ccccc1 (optimized conformer: 18.174836544610727 kcal/mol)

>  <smiles>  (22) 
CNCCc1ccccc1

>  <score_type>  (22) 
oracle

>  <origin>  (22) 
adg

>  <m_score__min__energy>  (22) 
-5.4800000000000004

>  <m_primary>  (22) 
energy

$$$$
23:0
     RDKit          3D

 57 59  0  0  0  0  0  0  0  0999 V2000
   -7.5830   18.1880  -31.6280 C   0  0  0  0  0  0  0  0  0  0  0  0
   -9.0240   18.6540  -31.7540 C   0  0  0  0  0  0  0  0  0  0  0  0
   -9.0500   20.0460  -32.0480 O   0  0  0  0  0  0  0  0  0  0  0  0
   -7.9510   20.7260  -32.5860 C   0  0  0  0  0  0  0  0  0  0  0  0
   -7.5250   20.4270  -33.7370 O   0  0  0  0  0  0  0  0  0  0  0  0
   -7.3180   21.8630  -31.7830 C   0  0  2  0  0  0  0  0  0  0  0  0
   -8.3840   22.1780  -30.6900 C   0  0  0  0  0  0  0  0  0  0  0  0
   -7.1070   23.1060  -32.6950 C   0  0  0  0  0  0  0  0  0  0  0  0
   -6.3110   24.2350  -32.0220 C   0  0  0  0  0  0  0  0  0  0  0  0
   -4.9280   23.7600  -31.5450 C   0  0  1  0  0  0  0  0  0  0  0  0
   -4.2420   24.8300  -30.9420 O   0  0  0  0  0  0  0  0  0  0  0  0
   -5.0170   22.5540  -30.5580 C   0  0  2  0  0  0  0  0  0  0  0  0
   -5.6490   23.0120  -29.2040 C   0  0  0  0  0  0  0  0  0  0  0  0
   -3.5810   22.0330  -30.2710 C   0  0  0  0  0  0  0  0  0  0  0  0
   -2.7990   22.5010  -29.1820 C   0  0  0  0  0  0  0  0  0  0  0  0
   -1.5140   22.0120  -28.9440 C   0  0  0  0  0  0  0  0  0  0  0  0
   -0.9430   21.0620  -29.7980 C   0  0  0  0  0  0  0  0  0  0  0  0
    0.4590   20.5310  -29.5570 C   0  0  0  0  0  0  0  0  0  0  0  0
    0.7120   19.2490  -30.3600 C   0  0  0  0  0  0  0  0  0  0  0  0
    0.7130   20.3040  -28.0620 C   0  0  0  0  0  0  0  0  0  0  0  0
   -1.6730   20.6360  -30.9130 C   0  0  0  0  0  0  0  0  0  0  0  0
   -2.9740   21.1130  -31.1520 C   0  0  0  0  0  0  0  0  0  0  0  0
   -3.6430   20.7540  -32.4320 C   0  0  0  0  0  0  0  0  0  0  0  0
   -5.1390   20.5210  -32.2620 C   0  0  0  0  0  0  0  0  0  0  0  0
   -5.9060   21.3970  -31.1980 C   0  0  2  0  0  0  0  0  0  0  0  0
   -7.3171   18.1020  -30.5641 H   0  0  0  0  0  0  0  0  0  0  0  0
   -7.4708   17.2078  -32.1144 H   0  0  0  0  0  0  0  0  0  0  0  0
   -6.9181   18.9169  -32.1144 H   0  0  0  0  0  0  0  0  0  0  0  0
   -9.5190   18.0990  -32.5646 H   0  0  0  0  0  0  0  0  0  0  0  0
   -9.5523   18.4701  -30.8068 H   0  0  0  0  0  0  0  0  0  0  0  0
   -7.9374   22.0460  -29.6934 H   0  0  0  0  0  0  0  0  0  0  0  0
   -8.7289   23.2164  -30.8027 H   0  0  0  0  0  0  0  0  0  0  0  0
   -9.2379   21.4938  -30.8027 H   0  0  0  0  0  0  0  0  0  0  0  0
   -6.5638   22.7874  -33.5969 H   0  0  0  0  0  0  0  0  0  0  0  0
   -8.1040   23.5085  -32.9273 H   0  0  0  0  0  0  0  0  0  0  0  0
   -6.1757   25.0535  -32.7443 H   0  0  0  0  0  0  0  0  0  0  0  0
   -6.8772   24.5713  -31.1409 H   0  0  0  0  0  0  0  0  0  0  0  0
   -4.3759   23.4103  -32.4298 H   0  0  0  0  0  0  0  0  0  0  0  0
   -4.2290   25.5740  -31.5990 H   0  0  0  0  0  0  0  0  0  0  0  0
   -5.0697   22.5922  -28.3684 H   0  0  0  0  0  0  0  0  0  0  0  0
   -5.6340   24.1103  -29.1453 H   0  0  0  0  0  0  0  0  0  0  0  0
   -6.6881   22.6558  -29.1453 H   0  0  0  0  0  0  0  0  0  0  0  0
   -3.2157   23.2664  -28.5108 H   0  0  0  0  0  0  0  0  0  0  0  0
   -0.9444   22.3769  -28.0766 H   0  0  0  0  0  0  0  0  0  0  0  0
    1.1707   21.2925  -29.9085 H   0  0  0  0  0  0  0  0  0  0  0  0
    0.8776   18.4098  -29.6684 H   0  0  0  0  0  0  0  0  0  0  0  0
   -0.1612   19.0350  -30.9938 H   0  0  0  0  0  0  0  0  0  0  0  0
    1.6011   19.3828  -30.9938 H   0  0  0  0  0  0  0  0  0  0  0  0
    0.0198   20.9235  -27.4741 H   0  0  0  0  0  0  0  0  0  0  0  0
    0.5522   19.2431  -27.8197 H   0  0  0  0  0  0  0  0  0  0  0  0
    1.7492   20.5825  -27.8197 H   0  0  0  0  0  0  0  0  0  0  0  0
   -1.2224   19.9171  -31.6132 H   0  0  0  0  0  0  0  0  0  0  0  0
   -3.4928   21.5732  -33.1506 H   0  0  0  0  0  0  0  0  0  0  0  0
   -3.1967   19.8149  -32.7909 H   0  0  0  0  0  0  0  0  0  0  0  0
   -5.6119   20.7029  -33.2383 H   0  0  0  0  0  0  0  0  0  0  0  0
   -5.2164   19.4924  -31.8799 H   0  0  0  0  0  0  0  0  0  0  0  0
   -6.1254   20.7651  -30.3248 H   0  0  0  0  0  0  0  0  0  0  0  0
  1  2  1  0
  2  3  1  0
  3  4  1  0
  4  5  2  0
  4  6  1  0
  6  7  1  1
  6  8  1  0
  8  9  1  0
  9 10  1  0
 10 11  1  0
 10 12  1  0
 12 13  1  1
 12 14  1  0
 14 15  2  0
 15 16  1  0
 16 17  2  0
 17 18  1  0
 18 19  1  0
 18 20  1  0
 17 21  1  0
 21 22  2  0
 22 23  1  0
 23 24  1  0
 24 25  1  0
 25  6  1  0
 25 12  1  0
 22 14  1  0
  1 26  1  0
  1 27  1  0
  1 28  1  0
  2 29  1  0
  2 30  1  0
  7 31  1  0
  7 32  1  0
  7 33  1  0
  8 34  1  0
  8 35  1  0
  9 36  1  0
  9 37  1  0
 10 38  1  6
 11 39  1  0
 13 40  1  0
 13 41  1  0
 13 42  1  0
 15 43  1  0
 16 44  1  0
 18 45  1  0
 19 46  1  0
 19 47  1  0
 19 48  1  0
 20 49  1  0
 20 50  1  0
 20 51  1  0
 21 52  1  0
 23 53  1  0
 23 54  1  0
 24 55  1  0
 24 56  1  0
 25 57  1  1
M  END
>  <UniqueID>  (23) 
20

>  <SMILES>  (23) 
CCOC(=O)[C@]1(C)CC[C@@H](O)C2(C)c3ccc(C(C)C)cc3CCC21

>  <Energy>  (23) 
77.09516735507405

>  <Genealogy>  (23) 
CCOC(=O)[C@]1(C)CC[C@@H](O)C2(C)c3ccc(C(C)C)cc3CCC21 (chirality)
CCOC(=O)[C@]1(C)CC[C@@H](O)C2(C)c3ccc(C(C)C)cc3CCC21 (3D coordinates assigned)
CCOC(=O)[C@]1(C)CC[C@@H](O)C2(C)c3ccc(C(C)C)cc3CCC21 (nonaromatic ring conformer: 77.09516735507405 kcal/mol)

>  <smiles>  (23) 
CCOC(=O)C1(C)CCC(O)C2(C)c3ccc(C(C)C)cc3CCC12

>  <score_type>  (23) 
oracle

>  <origin>  (23) 
adg

>  <m_score__min__energy>  (23) 
-9.1500000000000004

>  <m_primary>  (23) 
energy

$$$$
24:0
     RDKit          3D

 28 30  0  0  0  0  0  0  0  0999 V2000
   -0.1860   20.5730  -27.7580 H   0  0  0  0  0  0  0  0  0  0  0  0
   -0.6840   21.3460  -27.3330 O   0  0  0  0  0  0  0  0  0  0  0  0
   -1.5110   22.1780  -28.0840 C   0  0  0  0  0  0  0  0  0  0  0  0
   -1.1410   23.5220  -28.3310 C   0  0  0  0  0  0  0  0  0  0  0  0
   -0.1946   23.9111  -27.9272 H   0  0  0  0  0  0  0  0  0  0  0  0
   -1.9750   24.3630  -29.0890 C   0  0  0  0  0  0  0  0  0  0  0  0
   -1.6190   25.6820  -29.3370 O   0  0  0  0  0  0  0  0  0  0  0  0
   -3.1670   23.8320  -29.5820 C   0  0  0  0  0  0  0  0  0  0  0  0
   -3.5320   22.5240  -29.3430 C   0  0  0  0  0  0  0  0  0  0  0  0
   -2.7210   21.6730  -28.5950 C   0  0  0  0  0  0  0  0  0  0  0  0
   -3.0196   20.6309  -28.4083 H   0  0  0  0  0  0  0  0  0  0  0  0
   -4.7580   22.2110  -29.9270 O   0  0  0  0  0  0  0  0  0  0  0  0
   -5.2090   23.3610  -30.5790 C   0  0  0  0  0  0  0  0  0  0  0  0
   -6.3650   23.4750  -31.2430 C   0  0  0  0  0  0  0  0  0  0  0  0
   -6.7221   24.4857  -31.4900 H   0  0  0  0  0  0  0  0  0  0  0  0
   -7.1920   22.3220  -31.6650 C   0  0  0  0  0  0  0  0  0  0  0  0
   -6.6310   21.1750  -32.2600 C   0  0  0  0  0  0  0  0  0  0  0  0
   -5.5429   21.1116  -32.4082 H   0  0  0  0  0  0  0  0  0  0  0  0
   -7.4510   20.1170  -32.6630 C   0  0  0  0  0  0  0  0  0  0  0  0
   -7.0052   19.2192  -33.1159 H   0  0  0  0  0  0  0  0  0  0  0  0
   -8.8350   20.1970  -32.4920 C   0  0  0  0  0  0  0  0  0  0  0  0
   -9.6290   19.1700  -32.8850 F   0  0  0  0  0  0  0  0  0  0  0  0
   -9.4040   21.3400  -31.9240 C   0  0  0  0  0  0  0  0  0  0  0  0
  -10.4944   21.4050  -31.7944 H   0  0  0  0  0  0  0  0  0  0  0  0
   -8.5870   22.4020  -31.5200 C   0  0  0  0  0  0  0  0  0  0  0  0
   -9.0402   23.3055  -31.0860 H   0  0  0  0  0  0  0  0  0  0  0  0
   -4.2240   24.4240  -30.3800 C   0  0  0  0  0  0  0  0  0  0  0  0
   -4.2790   25.6070  -30.8100 O   0  0  0  0  0  0  0  0  0  0  0  0
  1  2  1  0
  2  3  1  0
  3  4  2  0
  4  5  1  0
  4  6  1  0
  6  7  1  0
  6  8  2  0
  8  9  1  0
  9 10  2  0
 10 11  1  0
  9 12  1  0
 12 13  1  0
 13 14  2  0
 14 15  1  0
 14 16  1  0
 16 17  2  0
 17 18  1  0
 17 19  1  0
 19 20  1  0
 19 21  2  0
 21 22  1  0
 21 23  1  0
 23 24  1  0
 23 25  2  0
 25 26  1  0
 13 27  1  0
 27 28  2  0
 10  3  1  0
 25 16  1  0
 27  8  1  0
M  CHG  1   7  -1
M  END
>  <UniqueID>  (24) 
21

>  <SMILES>  (24) 
O=C1/C(=C/c2ccc(F)cc2)Oc2cc(O)cc([O-])c21

>  <Energy>  (24) 
65.88627202502427

>  <Genealogy>  (24) 
O=C1C(=Cc2ccc(F)cc2)Oc2cc(O)cc([O-])c21 (protonated)
O=C1/C(=C/c2ccc(F)cc2)Oc2cc(O)cc([O-])c21 (cis-trans isomerization)
O=C1/C(=C/c2ccc(F)cc2)Oc2cc(O)cc([O-])c21 (3D coordinates assigned)
O=C1/C(=C/c2ccc(F)cc2)Oc2cc(O)cc([O-])c21 (nonaromatic ring conformer: 65.88627202502427 kcal/mol)

>  <smiles>  (24) 
O=C1C(=Cc2ccc(F)cc2)Oc2cc(O)cc(O)c21

>  <score_type>  (24) 
oracle

>  <origin>  (24) 
adg

>  <m_score__min__energy>  (24) 
-10.43

>  <m_primary>  (24) 
energy

$$$$
25:0
     RDKit          3D

 34 36  0  0  0  0  0  0  0  0999 V2000
   -3.6360   24.2220  -27.4630 O   0  0  0  0  0  0  0  0  0  0  0  0
   -3.3880   24.5480  -28.6550 C   0  0  0  0  0  0  0  0  0  0  0  0
   -2.2180   25.3110  -28.9690 N   0  0  0  0  0  0  0  0  0  0  0  0
   -0.8640   24.8890  -28.6290 C   0  0  0  0  0  0  0  0  0  0  0  0
   -0.6830   24.8710  -27.1360 C   0  0  0  0  0  0  0  0  0  0  0  0
   -0.0930   23.7690  -26.4990 C   0  0  0  0  0  0  0  0  0  0  0  0
    0.0820   23.7880  -25.1130 C   0  0  0  0  0  0  0  0  0  0  0  0
   -0.3130   24.8700  -24.3880 N   0  0  0  0  0  0  0  0  0  0  0  0
   -0.8830   25.9530  -24.9830 C   0  0  0  0  0  0  0  0  0  0  0  0
   -1.0750   25.9750  -26.3660 C   0  0  0  0  0  0  0  0  0  0  0  0
   -4.3090   24.1450  -29.7250 C   0  0  0  0  0  0  0  0  0  0  0  0
   -5.1260   23.0330  -29.7210 C   0  0  0  0  0  0  0  0  0  0  0  0
   -5.7840   23.1090  -30.9350 C   0  0  0  0  0  0  0  0  0  0  0  0
   -6.7930   22.1690  -31.4740 C   0  0  0  0  0  0  0  0  0  0  0  0
   -8.1560   22.3850  -31.2030 C   0  0  0  0  0  0  0  0  0  0  0  0
   -9.1250   21.5080  -31.7040 C   0  0  0  0  0  0  0  0  0  0  0  0
   -8.7430   20.4100  -32.4770 C   0  0  0  0  0  0  0  0  0  0  0  0
   -9.6840   19.5610  -32.9610 F   0  0  0  0  0  0  0  0  0  0  0  0
   -7.3920   20.1860  -32.7530 C   0  0  0  0  0  0  0  0  0  0  0  0
   -6.4200   21.0600  -32.2550 C   0  0  0  0  0  0  0  0  0  0  0  0
   -5.3660   24.1840  -31.5680 O   0  0  0  0  0  0  0  0  0  0  0  0
   -4.4790   24.8310  -30.8700 N   0  0  0  0  0  0  0  0  0  0  0  0
   -0.6874   23.8793  -29.0283 H   0  0  0  0  0  0  0  0  0  0  0  0
   -0.1470   25.5982  -29.0681 H   0  0  0  0  0  0  0  0  0  0  0  0
    0.2294   22.8966  -27.0864 H   0  0  0  0  0  0  0  0  0  0  0  0
    0.5404   22.9260  -24.6063 H   0  0  0  0  0  0  0  0  0  0  0  0
   -0.1740   24.8690  -23.3530 H   0  0  0  0  0  0  0  0  0  0  0  0
   -1.1935   26.8138  -24.3726 H   0  0  0  0  0  0  0  0  0  0  0  0
   -1.5307   26.8525  -26.8479 H   0  0  0  0  0  0  0  0  0  0  0  0
   -5.2294   22.2675  -28.9378 H   0  0  0  0  0  0  0  0  0  0  0  0
   -8.4623   23.2482  -30.5938 H   0  0  0  0  0  0  0  0  0  0  0  0
  -10.1892   21.6842  -31.4883 H   0  0  0  0  0  0  0  0  0  0  0  0
   -7.0921   19.3210  -33.3628 H   0  0  0  0  0  0  0  0  0  0  0  0
   -5.3576   20.8790  -32.4754 H   0  0  0  0  0  0  0  0  0  0  0  0
  1  2  2  0
  2  3  1  0
  3  4  1  0
  4  5  1  0
  5  6  2  0
  6  7  1  0
  7  8  2  0
  8  9  1  0
  9 10  2  0
  2 11  1  0
 11 12  1  0
 12 13  2  0
 13 14  1  0
 14 15  2  0
 15 16  1  0
 16 17  2  0
 17 18  1  0
 17 19  1  0
 19 20  2  0
 13 21  1  0
 21 22  1  0
 10  5  1  0
 22 11  2  0
 20 14  1  0
  4 23  1  0
  4 24  1  0
  6 25  1  0
  7 26  1  0
  8 27  1  0
  9 28  1  0
 10 29  1  0
 12 30  1  0
 15 31  1  0
 16 32  1  0
 19 33  1  0
 20 34  1  0
M  CHG  2   3  -1   8   1
M  END
>  <UniqueID>  (25) 
22

>  <SMILES>  (25) 
O=C([N-]Cc1cc[nH+]cc1)c1cc(-c2ccc(F)cc2)on1

>  <Energy>  (25) 
64.57499785829691

>  <Genealogy>  (25) 
O=C([N-]Cc1cc[nH+]cc1)c1cc(-c2ccc(F)cc2)on1 (protonated)
O=C([N-]Cc1cc[nH+]cc1)c1cc(-c2ccc(F)cc2)on1 (3D coordinates assigned)
O=C([N-]Cc1cc[nH+]cc1)c1cc(-c2ccc(F)cc2)on1 (optimized conformer: 64.57499785829691 kcal/mol)

>  <smiles>  (25) 
O=C(NCc1ccncc1)c1cc(-c2ccc(F)cc2)on1

>  <score_type>  (25) 
oracle

>  <origin>  (25) 
adg

>  <m_score__min__energy>  (25) 
-9.9700000000000006

>  <m_primary>  (25) 
energy

$$$$
26:0
     RDKit          3D

 50 52  0  0  0  0  0  0  0  0999 V2000
    0.6770   28.9630  -26.3910 C   0  0  0  0  0  0  0  0  0  0  0  0
   -0.1090   27.6860  -26.4540 C   0  0  0  0  0  0  0  0  0  0  0  0
   -0.5460   27.0690  -25.2730 C   0  0  0  0  0  0  0  0  0  0  0  0
   -1.3250   25.9120  -25.3320 C   0  0  0  0  0  0  0  0  0  0  0  0
   -1.6780   25.3650  -26.5690 C   0  0  0  0  0  0  0  0  0  0  0  0
   -1.2440   25.9650  -27.7580 C   0  0  0  0  0  0  0  0  0  0  0  0
   -1.6520   25.3880  -29.0070 N   0  0  0  0  0  0  0  0  0  0  0  0
   -2.7920   24.5480  -29.2240 C   0  0  0  0  0  0  0  0  0  0  0  0
   -2.7990   23.3610  -28.8000 O   0  0  0  0  0  0  0  0  0  0  0  0
   -3.9590   25.1040  -29.8450 N   0  0  0  0  0  0  0  0  0  0  0  0
   -5.0940   24.3260  -30.2610 C   0  0  0  0  0  0  0  0  0  0  0  0
   -5.7180   24.5480  -31.5010 C   0  0  0  0  0  0  0  0  0  0  0  0
   -6.8190   23.7790  -31.8850 C   0  0  0  0  0  0  0  0  0  0  0  0
   -7.3150   22.7750  -31.0370 C   0  0  0  0  0  0  0  0  0  0  0  0
   -8.4570   21.8900  -31.4810 C   0  0  0  0  0  0  0  0  0  0  0  0
   -8.1440   21.0730  -32.6770 N   0  0  0  0  0  0  0  0  0  0  0  0
   -8.9800   19.8680  -32.8610 C   0  0  0  0  0  0  0  0  0  0  0  0
   -8.3970   18.6040  -32.1870 C   0  0  0  0  0  0  0  0  0  0  0  0
   -7.0680   18.8550  -31.6020 N   0  0  0  0  0  0  0  0  0  0  0  0
   -6.4810   17.6020  -31.1040 C   0  0  0  0  0  0  0  0  0  0  0  0
   -6.1900   19.4780  -32.6000 C   0  0  0  0  0  0  0  0  0  0  0  0
   -6.7050   20.8820  -32.9660 C   0  0  0  0  0  0  0  0  0  0  0  0
   -6.7240   22.5900  -29.7780 C   0  0  0  0  0  0  0  0  0  0  0  0
   -5.6250   23.3620  -29.3930 C   0  0  0  0  0  0  0  0  0  0  0  0
   -0.4800   27.1450  -27.6950 C   0  0  0  0  0  0  0  0  0  0  0  0
    0.8462   29.2379  -25.3394 H   0  0  0  0  0  0  0  0  0  0  0  0
    1.6453   28.8227  -26.8937 H   0  0  0  0  0  0  0  0  0  0  0  0
    0.1156   29.7643  -26.8937 H   0  0  0  0  0  0  0  0  0  0  0  0
   -0.2742   27.4979  -24.2972 H   0  0  0  0  0  0  0  0  0  0  0  0
   -1.6619   25.4295  -24.4026 H   0  0  0  0  0  0  0  0  0  0  0  0
   -2.2999   24.4586  -26.6089 H   0  0  0  0  0  0  0  0  0  0  0  0
   -4.0190   26.1440  -29.9140 H   0  0  0  0  0  0  0  0  0  0  0  0
   -5.3371   25.3316  -32.1725 H   0  0  0  0  0  0  0  0  0  0  0  0
   -7.3005   23.9607  -32.8572 H   0  0  0  0  0  0  0  0  0  0  0  0
   -8.7132   21.2117  -30.6538 H   0  0  0  0  0  0  0  0  0  0  0  0
   -9.2919   22.5527  -31.7525 H   0  0  0  0  0  0  0  0  0  0  0  0
   -9.9735   20.0646  -32.4318 H   0  0  0  0  0  0  0  0  0  0  0  0
   -9.0247   19.6671  -33.9416 H   0  0  0  0  0  0  0  0  0  0  0  0
   -9.0809   18.2792  -31.3890 H   0  0  0  0  0  0  0  0  0  0  0  0
   -8.2883   17.8268  -32.9578 H   0  0  0  0  0  0  0  0  0  0  0  0
   -6.4836   17.6076  -30.0040 H   0  0  0  0  0  0  0  0  0  0  0  0
   -7.0735   16.7495  -31.4677 H   0  0  0  0  0  0  0  0  0  0  0  0
   -5.4468   17.5116  -31.4677 H   0  0  0  0  0  0  0  0  0  0  0  0
   -5.1737   19.5609  -32.1873 H   0  0  0  0  0  0  0  0  0  0  0  0
   -6.1804   18.8541  -33.5059 H   0  0  0  0  0  0  0  0  0  0  0  0
   -6.1321   21.6246  -32.3911 H   0  0  0  0  0  0  0  0  0  0  0  0
   -6.5722   21.0044  -34.0511 H   0  0  0  0  0  0  0  0  0  0  0  0
   -7.1283   21.8328  -29.0901 H   0  0  0  0  0  0  0  0  0  0  0  0
   -5.1731   23.2122  -28.4014 H   0  0  0  0  0  0  0  0  0  0  0  0
   -0.1716   27.6466  -28.6241 H   0  0  0  0  0  0  0  0  0  0  0  0
  1  2  1  0
  2  3  2  0
  3  4  1  0
  4  5  2  0
  5  6  1  0
  6  7  1  0
  7  8  1  0
  8  9  2  0
  8 10  1  0
 10 11  1  0
 11 12  2  0
 12 13  1  0
 13 14  2  0
 14 15  1  0
 15 16  1  0
 16 17  1  0
 17 18  1  0
 18 19  1  0
 19 20  1  0
 19 21  1  0
 21 22  1  0
 14 23  1  0
 23 24  2  0
  6 25  2  0
 25  2  1  0
 24 11  1  0
 22 16  1  0
  1 26  1  0
  1 27  1  0
  1 28  1  0
  3 29  1  0
  4 30  1  0
  5 31  1  0
 10 32  1  0
 12 33  1  0
 13 34  1  0
 15 35  1  0
 15 36  1  0
 17 37  1  0
 17 38  1  0
 18 39  1  0
 18 40  1  0
 20 41  1  0
 20 42  1  0
 20 43  1  0
 21 44  1  0
 21 45  1  0
 22 46  1  0
 22 47  1  0
 23 48  1  0
 24 49  1  0
 25 50  1  0
M  CHG  1   7  -1
M  END
>  <UniqueID>  (26) 
23

>  <SMILES>  (26) 
Cc1cccc([N-]C(=O)Nc2ccc(CN3CCN(C)CC3)cc2)c1

>  <Energy>  (26) 
69.04347123651331

>  <Genealogy>  (26) 
Cc1cccc([N-]C(=O)Nc2ccc(CN3CCN(C)CC3)cc2)c1 (protonated)
Cc1cccc([N-]C(=O)Nc2ccc(CN3CCN(C)CC3)cc2)c1 (3D coordinates assigned)
Cc1cccc([N-]C(=O)Nc2ccc(CN3CCN(C)CC3)cc2)c1 (nonaromatic ring conformer: 69.04347123651331 kcal/mol)

>  <smiles>  (26) 
Cc1cccc(NC(=O)Nc2ccc(CN3CCN(C)CC3)cc2)c1

>  <score_type>  (26) 
oracle

>  <origin>  (26) 
adg

>  <m_score__min__energy>  (26) 
-10.210000000000001

>  <m_primary>  (26) 
energy

$$$$
27:0
     RDKit          3D

 26 28  0  0  1  0  0  0  0  0999 V2000
   -5.3870   24.1680  -32.1240 O   0  0  0  0  0  0  0  0  0  0  0  0
   -6.0060   23.6720  -31.1220 C   0  0  0  0  0  0  0  0  0  0  0  0
   -5.6930   24.1040  -29.8010 N   0  0  0  0  0  0  0  0  0  0  0  0
   -4.4950   24.2820  -29.4090 C   0  0  0  0  0  0  0  0  0  0  0  0
   -4.0160   24.1030  -28.1170 C   0  0  0  0  0  0  0  0  0  0  0  0
   -2.6690   24.4110  -28.1590 C   0  0  0  0  0  0  0  0  0  0  0  0
   -2.3740   24.7590  -29.4310 N   0  0  0  0  0  0  0  0  0  0  0  0
   -3.4710   24.6800  -30.1780 N   0  0  0  0  0  0  0  0  0  0  0  0
   -7.0130   22.6740  -31.4230 C   0  0  0  0  0  0  0  0  0  0  0  0
   -8.3520   22.9720  -31.6150 C   0  0  0  0  0  0  0  0  0  0  0  0
   -9.2860   21.9960  -31.9020 C   0  0  0  0  0  0  0  0  0  0  0  0
   -8.8680   20.6840  -32.0000 C   0  0  0  0  0  0  0  0  0  0  0  0
   -7.5210   20.3490  -31.8120 C   0  0  0  0  0  0  0  0  0  0  0  0
   -6.6070   21.3450  -31.5260 C   0  0  0  0  0  0  0  0  0  0  0  0
   -7.4170   18.9540  -31.9750 O   0  0  0  0  0  0  0  0  0  0  0  0
   -8.7150   18.4150  -31.6850 C   0  0  0  0  0  0  0  0  0  0  0  0
   -9.5050   19.4640  -32.2670 O   0  0  0  0  0  0  0  0  0  0  0  0
   -4.5928   23.7809  -27.2375 H   0  0  0  0  0  0  0  0  0  0  0  0
   -1.9667   24.3787  -27.3130 H   0  0  0  0  0  0  0  0  0  0  0  0
   -1.4020   25.0370  -29.7120 H   0  0  0  0  0  0  0  0  0  0  0  0
   -3.5030   24.9020  -31.2050 H   0  0  0  0  0  0  0  0  0  0  0  0
   -8.6817   24.0185  -31.5364 H   0  0  0  0  0  0  0  0  0  0  0  0
  -10.3438   22.2593  -32.0498 H   0  0  0  0  0  0  0  0  0  0  0  0
   -5.5482   21.0862  -31.3781 H   0  0  0  0  0  0  0  0  0  0  0  0
   -8.8826   17.4458  -32.1774 H   0  0  0  0  0  0  0  0  0  0  0  0
   -8.9176   18.1897  -30.6276 H   0  0  0  0  0  0  0  0  0  0  0  0
  1  2  2  0
  2  3  1  0
  3  4  2  0
  4  5  1  0
  5  6  2  0
  6  7  1  0
  7  8  1  0
  2  9  1  0
  9 10  2  0
 10 11  1  0
 11 12  2  0
 12 13  1  0
 13 14  2  0
 13 15  1  0
 15 16  1  0
 16 17  1  0
  8  4  1  0
 14  9  1  0
 17 12  1  0
  5 18  1  0
  6 19  1  0
  7 20  1  0
  8 21  1  0
 10 22  1  0
 11 23  1  0
 14 24  1  0
 16 25  1  0
 16 26  1  0
M  END
>  <smiles>  (27) 
O=C(N=c1cc[nH][nH]1)c1ccc2c(c1)OCO2

>  <score_type>  (27) 
oracle

>  <origin>  (27) 
adg

>  <m_score__min__energy>  (27) 
-6.79

>  <m_primary>  (27) 
energy

$$$$
28:0
     RDKit          3D

 48 50  0  0  0  0  0  0  0  0999 V2000
   -7.6770   18.8560  -32.5430 C   0  0  0  0  0  0  0  0  0  0  0  0
   -6.5110   18.4350  -33.4380 C   0  0  0  0  0  0  0  0  0  0  0  0
   -5.5770   19.5570  -33.6780 N   0  0  0  0  0  0  0  0  0  0  0  0
   -5.7170   20.6110  -32.6410 C   0  0  0  0  0  0  0  0  0  0  0  0
   -4.6740   20.4640  -31.5200 C   0  0  0  0  0  0  0  0  0  0  0  0
   -3.2740   20.5410  -32.0300 N   0  0  0  0  0  0  0  0  0  0  0  0
   -2.6730   21.8820  -31.8100 C   0  0  0  0  0  0  0  0  0  0  0  0
   -2.5800   22.2300  -30.3410 C   0  0  0  0  0  0  0  0  0  0  0  0
   -1.7700   21.5190  -29.4560 C   0  0  0  0  0  0  0  0  0  0  0  0
   -1.9490   22.1760  -27.9220 S   0  0  0  0  0  0  0  0  0  0  0  0
   -3.0460   23.3730  -28.3500 C   0  0  0  0  0  0  0  0  0  0  0  0
   -3.6580   24.3380  -27.3850 C   0  0  0  0  0  0  0  0  0  0  0  0
   -3.3150   23.2640  -29.7170 C   0  0  0  0  0  0  0  0  0  0  0  0
   -4.2960   24.1190  -30.4210 C   0  0  0  0  0  0  0  0  0  0  0  0
   -3.9630   25.2930  -30.7370 O   0  0  0  0  0  0  0  0  0  0  0  0
   -5.6550   23.6290  -30.7590 C   0  0  0  0  0  0  0  0  0  0  0  0
   -6.1980   23.8770  -32.0330 C   0  0  0  0  0  0  0  0  0  0  0  0
   -7.4750   23.4120  -32.3610 C   0  0  0  0  0  0  0  0  0  0  0  0
   -8.2210   22.6900  -31.4250 C   0  0  0  0  0  0  0  0  0  0  0  0
   -7.6880   22.4290  -30.1610 C   0  0  0  0  0  0  0  0  0  0  0  0
   -6.4110   22.8910  -29.8280 C   0  0  0  0  0  0  0  0  0  0  0  0
   -3.1650   20.1700  -33.4640 C   0  0  0  0  0  0  0  0  0  0  0  0
   -4.1790   19.0810  -33.8380 C   0  0  0  0  0  0  0  0  0  0  0  0
   -7.3856   18.7508  -31.4875 H   0  0  0  0  0  0  0  0  0  0  0  0
   -7.9371   19.9048  -32.7488 H   0  0  0  0  0  0  0  0  0  0  0  0
   -8.5471   18.2153  -32.7488 H   0  0  0  0  0  0  0  0  0  0  0  0
   -5.9650   17.6139  -32.9505 H   0  0  0  0  0  0  0  0  0  0  0  0
   -6.9195   18.1136  -34.4074 H   0  0  0  0  0  0  0  0  0  0  0  0
   -5.5902   21.5949  -33.1163 H   0  0  0  0  0  0  0  0  0  0  0  0
   -6.7150   20.5107  -32.1895 H   0  0  0  0  0  0  0  0  0  0  0  0
   -4.8275   21.2698  -30.7872 H   0  0  0  0  0  0  0  0  0  0  0  0
   -4.8101   19.4722  -31.0641 H   0  0  0  0  0  0  0  0  0  0  0  0
   -2.7140   19.8360  -31.4940 H   0  0  0  0  0  0  0  0  0  0  0  0
   -1.6613   21.8924  -32.2417 H   0  0  0  0  0  0  0  0  0  0  0  0
   -3.3213   22.6272  -32.2942 H   0  0  0  0  0  0  0  0  0  0  0  0
   -1.1223   20.6698  -29.7192 H   0  0  0  0  0  0  0  0  0  0  0  0
   -3.4497   24.0095  -26.3561 H   0  0  0  0  0  0  0  0  0  0  0  0
   -3.2287   25.3381  -27.5446 H   0  0  0  0  0  0  0  0  0  0  0  0
   -4.7457   24.3761  -27.5446 H   0  0  0  0  0  0  0  0  0  0  0  0
   -5.6141   24.4404  -32.7757 H   0  0  0  0  0  0  0  0  0  0  0  0
   -7.8936   23.6147  -33.3578 H   0  0  0  0  0  0  0  0  0  0  0  0
   -9.2269   22.3278  -31.6839 H   0  0  0  0  0  0  0  0  0  0  0  0
   -8.2742   21.8586  -29.4255 H   0  0  0  0  0  0  0  0  0  0  0  0
   -5.9944   22.6767  -28.8328 H   0  0  0  0  0  0  0  0  0  0  0  0
   -3.3536   21.0617  -34.0799 H   0  0  0  0  0  0  0  0  0  0  0  0
   -2.1531   19.7783  -33.6448 H   0  0  0  0  0  0  0  0  0  0  0  0
   -4.0191   18.7893  -34.8865 H   0  0  0  0  0  0  0  0  0  0  0  0
   -4.0281   18.2246  -33.1644 H   0  0  0  0  0  0  0  0  0  0  0  0
  1  2  1  0
  2  3  1  0
  3  4  1  0
  4  5  1  0
  5  6  1  0
  6  7  1  0
  7  8  1  0
  8  9  2  0
  9 10  1  0
 10 11  1  0
 11 12  1  0
 11 13  2  0
 13 14  1  0
 14 15  2  0
 14 16  1  0
 16 17  2  0
 17 18  1  0
 18 19  2  0
 19 20  1  0
 20 21  2  0
  6 22  1  0
 22 23  1  0
 23  3  1  0
 13  8  1  0
 21 16  1  0
  1 24  1  0
  1 25  1  0
  1 26  1  0
  2 27  1  0
  2 28  1  0
  4 29  1  0
  4 30  1  0
  5 31  1  0
  5 32  1  0
  6 33  1  0
  7 34  1  0
  7 35  1  0
  9 36  1  0
 12 37  1  0
 12 38  1  0
 12 39  1  0
 17 40  1  0
 18 41  1  0
 19 42  1  0
 20 43  1  0
 21 44  1  0
 22 45  1  0
 22 46  1  0
 23 47  1  0
 23 48  1  0
M  CHG  1   6   1
M  END
>  <UniqueID>  (28) 
24

>  <SMILES>  (28) 
CCN1CC[NH+](Cc2csc(C)c2C(=O)c2ccccc2)CC1

>  <Energy>  (28) 
93.43811282140435

>  <Genealogy>  (28) 
CCN1CC[NH+](Cc2csc(C)c2C(=O)c2ccccc2)CC1 (protonated)
CCN1CC[NH+](Cc2csc(C)c2C(=O)c2ccccc2)CC1 (3D coordinates assigned)
CCN1CC[NH+](Cc2csc(C)c2C(=O)c2ccccc2)CC1 (nonaromatic ring conformer: 93.43811282140435 kcal/mol)

>  <smiles>  (28) 
CCN1CCN(Cc2csc(C)c2C(=O)c2ccccc2)CC1

>  <score_type>  (28) 
oracle

>  <origin>  (28) 
adg

>  <m_score__min__energy>  (28) 
-7.7999999999999998

>  <m_primary>  (28) 
energy

$$$$
29:0
     RDKit          3D

 38 41  0  0  0  0  0  0  0  0999 V2000
   -4.2390   25.6740  -30.9610 O   0  0  0  0  0  0  0  0  0  0  0  0
   -4.2750   24.7910  -30.0630 C   0  0  0  0  0  0  0  0  0  0  0  0
   -5.4300   23.9480  -29.9810 N   0  0  0  0  0  0  0  0  0  0  0  0
   -6.2080   23.4620  -31.1150 C   0  0  0  0  0  0  0  0  0  0  0  0
   -6.0090   21.9480  -31.2810 C   0  0  2  0  0  0  0  0  0  0  0  0
   -4.5970   21.5470  -32.3930 S   0  0  0  0  0  0  0  0  0  0  0  0
   -3.3390   21.3640  -31.1290 C   0  0  0  0  0  0  0  0  0  0  0  0
   -3.5810   20.8040  -29.9190 N   0  0  0  0  0  0  0  0  0  0  0  0
   -2.4620   20.8090  -29.1540 C   0  0  0  0  0  0  0  0  0  0  0  0
   -2.3880   20.2850  -27.8620 C   0  0  0  0  0  0  0  0  0  0  0  0
   -1.1630   20.3510  -27.1750 C   0  0  0  0  0  0  0  0  0  0  0  0
   -0.0350   20.9380  -27.7830 C   0  0  0  0  0  0  0  0  0  0  0  0
   -0.1210   21.4620  -29.0840 C   0  0  0  0  0  0  0  0  0  0  0  0
   -1.3450   21.3820  -29.7420 C   0  0  0  0  0  0  0  0  0  0  0  0
   -1.7440   21.9140  -31.2830 S   0  0  0  0  0  0  0  0  0  0  0  0
   -7.2650   21.2340  -31.7120 C   0  0  0  0  0  0  0  0  0  0  0  0
   -8.5740   21.7070  -31.6470 C   0  0  0  0  0  0  0  0  0  0  0  0
   -9.5090   20.8310  -32.2100 C   0  0  0  0  0  0  0  0  0  0  0  0
   -8.9480   19.6720  -32.7280 C   0  0  0  0  0  0  0  0  0  0  0  0
   -7.2860   19.7430  -32.4890 S   0  0  0  0  0  0  0  0  0  0  0  0
   -3.1300   24.6670  -29.1370 C   0  0  0  0  0  0  0  0  0  0  0  0
   -3.0990   23.8720  -28.0060 C   0  0  0  0  0  0  0  0  0  0  0  0
   -1.8510   24.0580  -27.4500 C   0  0  0  0  0  0  0  0  0  0  0  0
   -1.1980   24.9540  -28.2710 C   0  0  0  0  0  0  0  0  0  0  0  0
   -1.9850   25.2970  -29.2650 O   0  0  0  0  0  0  0  0  0  0  0  0
   -7.2738   23.6721  -30.9419 H   0  0  0  0  0  0  0  0  0  0  0  0
   -5.8698   23.9721  -32.0290 H   0  0  0  0  0  0  0  0  0  0  0  0
   -5.7579   21.5706  -30.2787 H   0  0  0  0  0  0  0  0  0  0  0  0
   -3.2712   19.8292  -27.3906 H   0  0  0  0  0  0  0  0  0  0  0  0
   -1.0845   19.9420  -26.1569 H   0  0  0  0  0  0  0  0  0  0  0  0
    0.9181   20.9862  -27.2359 H   0  0  0  0  0  0  0  0  0  0  0  0
    0.7532   21.9218  -29.5682 H   0  0  0  0  0  0  0  0  0  0  0  0
   -8.8457   22.6735  -31.1975 H   0  0  0  0  0  0  0  0  0  0  0  0
  -10.5883   21.0415  -32.2393 H   0  0  0  0  0  0  0  0  0  0  0  0
   -9.4961   18.8497  -33.2111 H   0  0  0  0  0  0  0  0  0  0  0  0
   -3.9040   23.2247  -27.6278 H   0  0  0  0  0  0  0  0  0  0  0  0
   -1.4563   23.5876  -26.5374 H   0  0  0  0  0  0  0  0  0  0  0  0
   -0.1739   25.3248  -28.1166 H   0  0  0  0  0  0  0  0  0  0  0  0
  1  2  2  0
  2  3  1  0
  3  4  1  0
  4  5  1  0
  5  6  1  0
  6  7  1  0
  7  8  2  0
  8  9  1  0
  9 10  2  0
 10 11  1  0
 11 12  2  0
 12 13  1  0
 13 14  2  0
 14 15  1  0
  5 16  1  0
 16 17  2  0
 17 18  1  0
 18 19  2  0
 19 20  1  0
  2 21  1  0
 21 22  2  0
 22 23  1  0
 23 24  2  0
 24 25  1  0
 15  7  1  0
 20 16  1  0
 25 21  1  0
 14  9  1  0
  4 26  1  0
  4 27  1  0
  5 28  1  1
 10 29  1  0
 11 30  1  0
 12 31  1  0
 13 32  1  0
 17 33  1  0
 18 34  1  0
 19 35  1  0
 22 36  1  0
 23 37  1  0
 24 38  1  0
M  CHG  1   3  -1
M  END
>  <UniqueID>  (29) 
25

>  <SMILES>  (29) 
O=C([N-]C[C@H](Sc1nc2ccccc2s1)c1cccs1)c1ccco1

>  <Energy>  (29) 
122.16083985883643

>  <Genealogy>  (29) 
O=C([N-]CC(Sc1nc2ccccc2s1)c1cccs1)c1ccco1 (protonated)
O=C([N-]C[C@H](Sc1nc2ccccc2s1)c1cccs1)c1ccco1 (chirality)
O=C([N-]C[C@H](Sc1nc2ccccc2s1)c1cccs1)c1ccco1 (3D coordinates assigned)
O=C([N-]C[C@H](Sc1nc2ccccc2s1)c1cccs1)c1ccco1 (optimized conformer: 122.16083985883643 kcal/mol)

>  <smiles>  (29) 
O=C(NCC(Sc1nc2ccccc2s1)c1cccs1)c1ccco1

>  <score_type>  (29) 
oracle

>  <origin>  (29) 
adg

>  <m_score__min__energy>  (29) 
-10.359999999999999

>  <m_primary>  (29) 
energy

$$$$
30:0
     RDKit          3D

 30 31  0  0  0  0  0  0  0  0999 V2000
  -10.5062   21.9980  -31.6443 H   0  0  0  0  0  0  0  0  0  0  0  0
   -9.4840   21.7120  -31.9330 C   0  0  0  0  0  0  0  0  0  0  0  0
   -8.5020   22.6520  -31.9780 N   0  0  0  0  0  0  0  0  0  0  0  0
   -7.2210   22.3440  -32.3340 C   0  0  0  0  0  0  0  0  0  0  0  0
   -6.3010   23.2640  -32.3660 N   0  0  0  0  0  0  0  0  0  0  0  0
   -5.2350   23.4230  -31.3770 C   0  0  0  0  0  0  0  0  0  0  0  0
   -4.2646   23.2436  -31.8629 H   0  0  0  0  0  0  0  0  0  0  0  0
   -5.4010   22.6993  -30.5654 H   0  0  0  0  0  0  0  0  0  0  0  0
   -5.2420   24.8350  -30.7790 C   0  0  0  0  0  0  0  0  0  0  0  0
   -5.8354   24.8295  -29.8528 H   0  0  0  0  0  0  0  0  0  0  0  0
   -5.6805   25.5235  -31.5164 H   0  0  0  0  0  0  0  0  0  0  0  0
   -3.8830   25.2870  -30.4730 N   0  0  0  0  0  0  0  0  0  0  0  0
   -3.0590   24.6820  -29.6700 C   0  0  0  0  0  0  0  0  0  0  0  0
   -3.3440   23.4480  -29.1710 N   0  0  0  0  0  0  0  0  0  0  0  0
   -2.4850   22.8110  -28.3300 C   0  0  0  0  0  0  0  0  0  0  0  0
   -2.8280   21.4570  -27.7970 C   0  0  0  0  0  0  0  0  0  0  0  0
   -2.8213   21.4833  -26.6973 H   0  0  0  0  0  0  0  0  0  0  0  0
   -3.8282   21.1663  -28.1507 H   0  0  0  0  0  0  0  0  0  0  0  0
   -2.0869   20.7252  -28.1507 H   0  0  0  0  0  0  0  0  0  0  0  0
   -1.2880   23.4340  -27.9650 C   0  0  0  0  0  0  0  0  0  0  0  0
   -0.5796   22.9371  -27.2858 H   0  0  0  0  0  0  0  0  0  0  0  0
   -1.0120   24.7010  -28.4820 C   0  0  0  0  0  0  0  0  0  0  0  0
    0.0560   25.2910  -28.1750 O   0  0  0  0  0  0  0  0  0  0  0  0
   -1.8990   25.2980  -29.3210 N   0  0  0  0  0  0  0  0  0  0  0  0
   -6.8950   21.0170  -32.6610 C   0  0  0  0  0  0  0  0  0  0  0  0
   -5.2600   20.5640  -33.1270 Cl  0  0  0  0  0  0  0  0  0  0  0  0
   -7.8940   20.0390  -32.6190 C   0  0  0  0  0  0  0  0  0  0  0  0
   -7.6537   18.9965  -32.8747 H   0  0  0  0  0  0  0  0  0  0  0  0
   -9.1950   20.3850  -32.2530 C   0  0  0  0  0  0  0  0  0  0  0  0
   -9.9845   19.6199  -32.2171 H   0  0  0  0  0  0  0  0  0  0  0  0
  1  2  1  0
  2  3  1  0
  3  4  1  0
  4  5  2  3
  5  6  1  0
  6  7  1  0
  6  8  1  0
  6  9  1  0
  9 10  1  0
  9 11  1  0
  9 12  1  0
 12 13  2  0
 13 14  1  0
 14 15  1  0
 15 16  1  0
 16 17  1  0
 16 18  1  0
 16 19  1  0
 15 20  2  0
 20 21  1  0
 20 22  1  0
 22 23  2  0
 22 24  1  0
  4 25  1  0
 25 26  1  0
 25 27  2  0
 27 28  1  0
 27 29  1  0
 29 30  1  0
 29  2  2  0
 24 13  1  0
M  CHG  3   3  -1  14  -1  24  -1
M  END
>  <UniqueID>  (30) 
26

>  <SMILES>  (30) 
Cc1cc(=O)[n-]/c(=N/CCN=c2[n-]cccc2Cl)[n-]1

>  <Energy>  (30) 
29.439998618594768

>  <Genealogy>  (30) 
Cc1cc(=O)[n-]c(=NCCN=c2[n-]cccc2Cl)[n-]1 (protonated)
Cc1cc(=O)[n-]/c(=N/CCN=c2[n-]cccc2Cl)[n-]1 (cis-trans isomerization)
Cc1cc(=O)[n-]/c(=N/CCN=c2[n-]cccc2Cl)[n-]1 (3D coordinates assigned)
Cc1cc(=O)[n-]/c(=N/CCN=c2[n-]cccc2Cl)[n-]1 (optimized conformer: 29.439998618594768 kcal/mol)

>  <smiles>  (30) 
Cc1cc(=O)[nH]c(=NCCN=c2[nH]cccc2Cl)[nH]1

>  <score_type>  (30) 
oracle

>  <origin>  (30) 
adg

>  <m_score__min__energy>  (30) 
-10.25

>  <m_primary>  (30) 
energy

$$$$
31:0
     RDKit          3D

 37 39  0  0  0  0  0  0  0  0999 V2000
   -8.9750   18.4850  -31.7740 C   0  0  0  0  0  0  0  0  0  0  0  0
   -9.2320   19.8300  -32.0390 C   0  0  0  0  0  0  0  0  0  0  0  0
   -8.1710   20.7160  -32.2370 C   0  0  0  0  0  0  0  0  0  0  0  0
   -6.8500   20.2390  -32.1750 C   0  0  0  0  0  0  0  0  0  0  0  0
   -5.7290   21.1260  -32.3620 N   0  0  0  0  0  0  0  0  0  0  0  0
   -4.3590   20.6800  -32.0720 C   0  0  0  0  0  0  0  0  0  0  0  0
   -3.3520   21.8110  -32.2720 C   0  0  0  0  0  0  0  0  0  0  0  0
   -3.3740   22.8220  -31.1080 C   0  0  0  0  0  0  0  0  0  0  0  0
   -4.4160   23.8780  -31.2200 N   0  0  0  0  0  0  0  0  0  0  0  0
   -4.3630   24.8300  -30.0900 C   0  0  0  0  0  0  0  0  0  0  0  0
   -3.1860   24.5310  -29.2130 C   0  0  0  0  0  0  0  0  0  0  0  0
   -3.2070   23.5890  -28.2470 N   0  0  0  0  0  0  0  0  0  0  0  0
   -1.9720   23.6420  -27.7230 C   0  0  0  0  0  0  0  0  0  0  0  0
   -1.2410   24.6040  -28.3790 C   0  0  0  0  0  0  0  0  0  0  0  0
   -2.0050   25.1730  -29.3260 N   0  0  0  0  0  0  0  0  0  0  0  0
   -5.8050   23.4060  -31.4350 C   0  0  0  0  0  0  0  0  0  0  0  0
   -5.9720   22.5360  -32.6900 C   0  0  0  0  0  0  0  0  0  0  0  0
   -6.6310   18.9210  -31.9020 N   0  0  0  0  0  0  0  0  0  0  0  0
   -7.6510   18.0440  -31.7040 C   0  0  0  0  0  0  0  0  0  0  0  0
   -9.8051   17.7795  -31.6218 H   0  0  0  0  0  0  0  0  0  0  0  0
  -10.2692   20.1924  -32.0920 H   0  0  0  0  0  0  0  0  0  0  0  0
   -8.3673   21.7791  -32.4400 H   0  0  0  0  0  0  0  0  0  0  0  0
   -4.3079   20.3353  -31.0287 H   0  0  0  0  0  0  0  0  0  0  0  0
   -4.1060   19.8639  -32.7648 H   0  0  0  0  0  0  0  0  0  0  0  0
   -2.3434   21.3784  -32.3466 H   0  0  0  0  0  0  0  0  0  0  0  0
   -3.6257   22.3486  -33.1918 H   0  0  0  0  0  0  0  0  0  0  0  0
   -3.5486   22.2662  -30.1749 H   0  0  0  0  0  0  0  0  0  0  0  0
   -2.4039   23.3401  -31.1287 H   0  0  0  0  0  0  0  0  0  0  0  0
   -4.2726   25.8538  -30.4820 H   0  0  0  0  0  0  0  0  0  0  0  0
   -5.2846   24.7334  -29.4972 H   0  0  0  0  0  0  0  0  0  0  0  0
   -1.6030   23.0144  -26.8984 H   0  0  0  0  0  0  0  0  0  0  0  0
   -0.1950   24.8665  -28.1624 H   0  0  0  0  0  0  0  0  0  0  0  0
   -6.1109   22.8151  -30.5591 H   0  0  0  0  0  0  0  0  0  0  0  0
   -6.4309   24.2995  -31.5765 H   0  0  0  0  0  0  0  0  0  0  0  0
   -6.9955   22.6484  -33.0771 H   0  0  0  0  0  0  0  0  0  0  0  0
   -5.2465   22.8589  -33.4512 H   0  0  0  0  0  0  0  0  0  0  0  0
   -7.4339   16.9873  -31.4887 H   0  0  0  0  0  0  0  0  0  0  0  0
  1  2  2  0
  2  3  1  0
  3  4  2  0
  4  5  1  0
  5  6  1  0
  6  7  1  0
  7  8  1  0
  8  9  1  0
  9 10  1  0
 10 11  1  0
 11 12  2  0
 12 13  1  0
 13 14  2  0
 14 15  1  0
  9 16  1  0
 16 17  1  0
  4 18  1  0
 18 19  2  0
 19  1  1  0
 17  5  1  0
 15 11  1  0
  1 20  1  0
  2 21  1  0
  3 22  1  0
  6 23  1  0
  6 24  1  0
  7 25  1  0
  7 26  1  0
  8 27  1  0
  8 28  1  0
 10 29  1  0
 10 30  1  0
 13 31  1  0
 14 32  1  0
 16 33  1  0
 16 34  1  0
 17 35  1  0
 17 36  1  0
 19 37  1  0
M  CHG  1  15  -1
M  END
>  <UniqueID>  (31) 
27

>  <SMILES>  (31) 
c1ccc(N2CCCN(Cc3ncc[n-]3)CC2)nc1

>  <Energy>  (31) 
78.2895156850829

>  <Genealogy>  (31) 
c1ccc(N2CCCN(Cc3ncc[n-]3)CC2)nc1 (protonated)
c1ccc(N2CCCN(Cc3ncc[n-]3)CC2)nc1 (3D coordinates assigned)
c1ccc(N2CCCN(Cc3ncc[n-]3)CC2)nc1 (nonaromatic ring conformer: 78.2895156850829 kcal/mol)

>  <smiles>  (31) 
c1ccc(N2CCCN(Cc3ncc[nH]3)CC2)nc1

>  <score_type>  (31) 
oracle

>  <origin>  (31) 
adg

>  <m_score__min__energy>  (31) 
-5.9699999999999998

>  <m_primary>  (31) 
energy

$$$$
32:0
     RDKit          3D

 35 38  0  0  0  0  0  0  0  0999 V2000
   -0.0360   24.2550  -28.9820 O   0  0  0  0  0  0  0  0  0  0  0  0
   -0.9800   24.9390  -28.5010 C   0  0  0  0  0  0  0  0  0  0  0  0
   -2.1110   25.2740  -29.3160 N   0  0  0  0  0  0  0  0  0  0  0  0
   -3.1230   24.3720  -29.7840 C   0  0  0  0  0  0  0  0  0  0  0  0
   -4.3970   24.8800  -30.0610 C   0  0  0  0  0  0  0  0  0  0  0  0
   -5.4070   24.0420  -30.5400 C   0  0  0  0  0  0  0  0  0  0  0  0
   -5.1570   22.6770  -30.7660 C   0  0  0  0  0  0  0  0  0  0  0  0
   -6.2420   21.8000  -31.2740 C   0  0  0  0  0  0  0  0  0  0  0  0
   -7.5840   22.1620  -31.4620 C   0  0  0  0  0  0  0  0  0  0  0  0
   -8.1870   21.0690  -31.9320 N   0  0  0  0  0  0  0  0  0  0  0  0
   -9.4270   20.7050  -32.3200 C   0  0  0  0  0  0  0  0  0  0  0  0
   -9.4600   19.3670  -32.7390 C   0  0  0  0  0  0  0  0  0  0  0  0
   -7.8920   18.6820  -32.6010 S   0  0  0  0  0  0  0  0  0  0  0  0
   -7.2760   20.1260  -32.0180 C   0  0  0  0  0  0  0  0  0  0  0  0
   -6.0440   20.4960  -31.6310 N   0  0  0  0  0  0  0  0  0  0  0  0
   -3.8670   22.1740  -30.5110 C   0  0  0  0  0  0  0  0  0  0  0  0
   -2.8590   23.0150  -30.0310 C   0  0  0  0  0  0  0  0  0  0  0  0
   -0.9560   25.3050  -27.0630 C   0  0  0  0  0  0  0  0  0  0  0  0
   -1.0300   26.6650  -26.7080 C   0  0  0  0  0  0  0  0  0  0  0  0
   -0.9910   27.0570  -25.3680 C   0  0  0  0  0  0  0  0  0  0  0  0
   -0.8850   26.0980  -24.3620 C   0  0  0  0  0  0  0  0  0  0  0  0
   -0.8260   24.7430  -24.6930 C   0  0  0  0  0  0  0  0  0  0  0  0
   -0.8640   24.3350  -26.0320 C   0  0  0  0  0  0  0  0  0  0  0  0
   -0.8700   22.6030  -26.3500 Cl  0  0  0  0  0  0  0  0  0  0  0  0
   -4.6050   25.9481  -29.9003 H   0  0  0  0  0  0  0  0  0  0  0  0
   -6.4068   24.4538  -30.7421 H   0  0  0  0  0  0  0  0  0  0  0  0
   -8.0429   23.1418  -31.2635 H   0  0  0  0  0  0  0  0  0  0  0  0
  -10.3010   21.3729  -32.3091 H   0  0  0  0  0  0  0  0  0  0  0  0
  -10.3538   18.8376  -33.1007 H   0  0  0  0  0  0  0  0  0  0  0  0
   -3.6506   21.1106  -30.6910 H   0  0  0  0  0  0  0  0  0  0  0  0
   -1.8527   22.6114  -29.8456 H   0  0  0  0  0  0  0  0  0  0  0  0
   -1.1196   27.4281  -27.4952 H   0  0  0  0  0  0  0  0  0  0  0  0
   -1.0440   28.1241  -25.1062 H   0  0  0  0  0  0  0  0  0  0  0  0
   -0.8478   26.4088  -23.3075 H   0  0  0  0  0  0  0  0  0  0  0  0
   -0.7490   23.9896  -23.8953 H   0  0  0  0  0  0  0  0  0  0  0  0
  1  2  2  0
  2  3  1  0
  3  4  1  0
  4  5  2  0
  5  6  1  0
  6  7  2  0
  7  8  1  0
  8  9  2  0
  9 10  1  0
 10 11  1  0
 11 12  2  0
 12 13  1  0
 13 14  1  0
 14 15  2  0
  7 16  1  0
 16 17  2  0
  2 18  1  0
 18 19  2  0
 19 20  1  0
 20 21  2  0
 21 22  1  0
 22 23  2  0
 23 24  1  0
 17  4  1  0
 23 18  1  0
 15  8  1  0
 14 10  1  0
  5 25  1  0
  6 26  1  0
  9 27  1  0
 11 28  1  0
 12 29  1  0
 16 30  1  0
 17 31  1  0
 19 32  1  0
 20 33  1  0
 21 34  1  0
 22 35  1  0
M  CHG  1   3  -1
M  END
>  <UniqueID>  (32) 
28

>  <SMILES>  (32) 
O=C([N-]c1ccc(-c2cn3ccsc3n2)cc1)c1ccccc1Cl

>  <Energy>  (32) 
127.80538188873882

>  <Genealogy>  (32) 
O=C([N-]c1ccc(-c2cn3ccsc3n2)cc1)c1ccccc1Cl (protonated)
O=C([N-]c1ccc(-c2cn3ccsc3n2)cc1)c1ccccc1Cl (3D coordinates assigned)
O=C([N-]c1ccc(-c2cn3ccsc3n2)cc1)c1ccccc1Cl (optimized conformer: 127.80538188873882 kcal/mol)

>  <smiles>  (32) 
O=C(Nc1ccc(-c2cn3ccsc3n2)cc1)c1ccccc1Cl

>  <score_type>  (32) 
oracle

>  <origin>  (32) 
adg

>  <m_score__min__energy>  (32) 
-10.49

>  <m_primary>  (32) 
energy

$$$$
33:0
     RDKit          3D

 37 38  0  0  0  0  0  0  0  0999 V2000
   -7.0850   18.6070  -32.7140 C   0  0  0  0  0  0  0  0  0  0  0  0
   -7.9630   19.3800  -31.7330 C   0  0  0  0  0  0  0  0  0  0  0  0
   -7.6570   20.8530  -31.7930 C   0  0  0  0  0  0  0  0  0  0  0  0
   -8.6990   21.7840  -31.9390 C   0  0  0  0  0  0  0  0  0  0  0  0
   -8.4190   23.1520  -31.9700 C   0  0  0  0  0  0  0  0  0  0  0  0
   -7.1020   23.6030  -31.8470 C   0  0  0  0  0  0  0  0  0  0  0  0
   -6.0530   22.6860  -31.6800 C   0  0  0  0  0  0  0  0  0  0  0  0
   -4.6340   23.1760  -31.5900 C   0  0  0  0  0  0  0  0  0  0  0  0
   -4.6260   24.5640  -31.1170 N   0  0  0  0  0  0  0  0  0  0  0  0
   -5.0250   24.6660  -29.7020 C   0  0  0  0  0  0  0  0  0  0  0  0
   -3.7900   24.5390  -28.8010 C   0  0  1  0  0  0  0  0  0  0  0  0
   -3.5480   23.1120  -28.3370 C   0  0  0  0  0  0  0  0  0  0  0  0
   -2.0570   23.0640  -28.1550 C   0  0  0  0  0  0  0  0  0  0  0  0
   -1.5520   24.2890  -28.9060 C   0  0  0  0  0  0  0  0  0  0  0  0
   -2.6420   24.9600  -29.4970 O   0  0  0  0  0  0  0  0  0  0  0  0
   -6.3350   21.3090  -31.6590 C   0  0  0  0  0  0  0  0  0  0  0  0
   -6.3740   17.9810  -32.1550 H   0  0  0  0  0  0  0  0  0  0  0  0
   -7.7177   17.9674  -33.3469 H   0  0  0  0  0  0  0  0  0  0  0  0
   -6.5307   19.3156  -33.3469 H   0  0  0  0  0  0  0  0  0  0  0  0
   -9.0203   19.2199  -31.9909 H   0  0  0  0  0  0  0  0  0  0  0  0
   -7.7599   19.0174  -30.7145 H   0  0  0  0  0  0  0  0  0  0  0  0
   -9.7381   21.4346  -32.0291 H   0  0  0  0  0  0  0  0  0  0  0  0
   -9.2376   23.8766  -32.0916 H   0  0  0  0  0  0  0  0  0  0  0  0
   -6.8868   24.6812  -31.8812 H   0  0  0  0  0  0  0  0  0  0  0  0
   -4.0721   22.5452  -30.8855 H   0  0  0  0  0  0  0  0  0  0  0  0
   -4.1641   23.1241  -32.5832 H   0  0  0  0  0  0  0  0  0  0  0  0
   -3.6470   24.9270  -31.2130 H   0  0  0  0  0  0  0  0  0  0  0  0
   -5.5050   25.6403  -29.5277 H   0  0  0  0  0  0  0  0  0  0  0  0
   -5.7308   23.8562  -29.4654 H   0  0  0  0  0  0  0  0  0  0  0  0
   -3.9827   25.1700  -27.9208 H   0  0  0  0  0  0  0  0  0  0  0  0
   -4.0687   22.9108  -27.3892 H   0  0  0  0  0  0  0  0  0  0  0  0
   -3.9230   22.3569  -29.0436 H   0  0  0  0  0  0  0  0  0  0  0  0
   -1.7916   23.1224  -27.0891 H   0  0  0  0  0  0  0  0  0  0  0  0
   -1.6158   22.1281  -28.5284 H   0  0  0  0  0  0  0  0  0  0  0  0
   -1.0421   24.9651  -28.2040 H   0  0  0  0  0  0  0  0  0  0  0  0
   -0.8468   23.9741  -29.6893 H   0  0  0  0  0  0  0  0  0  0  0  0
   -5.5162   20.5847  -31.5370 H   0  0  0  0  0  0  0  0  0  0  0  0
  1  2  1  0
  2  3  1  0
  3  4  2  0
  4  5  1  0
  5  6  2  0
  6  7  1  0
  7  8  1  0
  8  9  1  0
  9 10  1  0
 10 11  1  0
 11 12  1  0
 12 13  1  0
 13 14  1  0
 14 15  1  0
  7 16  2  0
 16  3  1  0
 15 11  1  0
  1 17  1  0
  1 18  1  0
  1 19  1  0
  2 20  1  0
  2 21  1  0
  4 22  1  0
  5 23  1  0
  6 24  1  0
  8 25  1  0
  8 26  1  0
  9 27  1  0
 10 28  1  0
 10 29  1  0
 11 30  1  1
 12 31  1  0
 12 32  1  0
 13 33  1  0
 13 34  1  0
 14 35  1  0
 14 36  1  0
 16 37  1  0
M  END
>  <UniqueID>  (33) 
29

>  <SMILES>  (33) 
CCc1cccc(CNC[C@H]2CCCO2)c1

>  <Energy>  (33) 
30.591686574556064

>  <Genealogy>  (33) 
CCc1cccc(CNC[C@H]2CCCO2)c1 (chirality)
CCc1cccc(CNC[C@H]2CCCO2)c1 (3D coordinates assigned)
CCc1cccc(CNC[C@H]2CCCO2)c1 (nonaromatic ring conformer: 30.591686574556064 kcal/mol)

>  <smiles>  (33) 
CCc1cccc(CNCC2CCCO2)c1

>  <score_type>  (33) 
oracle

>  <origin>  (33) 
adg

>  <m_score__min__energy>  (33) 
-7.5300000000000002

>  <m_primary>  (33) 
energy

$$$$
34:0
     RDKit          3D

 53 56  0  0  0  0  0  0  0  0999 V2000
   -9.1160   18.5350  -31.3140 C   0  0  0  0  0  0  0  0  0  0  0  0
   -8.4990   19.3250  -32.3260 O   0  0  0  0  0  0  0  0  0  0  0  0
   -7.2550   19.0440  -32.9140 C   0  0  0  0  0  0  0  0  0  0  0  0
   -6.9710   17.7740  -33.4570 C   0  0  0  0  0  0  0  0  0  0  0  0
   -5.7480   17.5290  -34.0850 C   0  0  0  0  0  0  0  0  0  0  0  0
   -4.7960   18.5430  -34.1840 C   0  0  0  0  0  0  0  0  0  0  0  0
   -5.0590   19.8020  -33.6430 C   0  0  0  0  0  0  0  0  0  0  0  0
   -6.2750   20.0620  -32.9900 C   0  0  0  0  0  0  0  0  0  0  0  0
   -6.4950   21.4110  -32.4220 C   0  0  0  0  0  0  0  0  0  0  0  0
   -7.6810   21.9240  -32.0400 N   0  0  0  0  0  0  0  0  0  0  0  0
   -7.4560   23.1330  -31.5550 N   0  0  0  0  0  0  0  0  0  0  0  0
   -6.1250   23.3190  -31.6600 C   0  0  0  0  0  0  0  0  0  0  0  0
   -5.4090   24.5620  -31.2070 C   0  0  0  0  0  0  0  0  0  0  0  0
   -4.2270   24.2800  -30.3660 N   0  0  0  0  0  0  0  0  0  0  0  0
   -4.5670   24.0260  -28.9570 C   0  0  0  0  0  0  0  0  0  0  0  0
   -3.3000   24.1760  -28.1150 C   0  0  0  0  0  0  0  0  0  0  0  0
   -2.1510   23.5490  -28.7810 N   0  0  0  0  0  0  0  0  0  0  0  0
   -0.8690   23.5880  -28.1330 C   0  0  0  0  0  0  0  0  0  0  0  0
   -0.2340   22.3890  -27.7740 C   0  0  0  0  0  0  0  0  0  0  0  0
    1.0070   22.4110  -27.1350 C   0  0  0  0  0  0  0  0  0  0  0  0
    1.6260   23.6300  -26.8540 C   0  0  0  0  0  0  0  0  0  0  0  0
    1.0080   24.8300  -27.2150 C   0  0  0  0  0  0  0  0  0  0  0  0
   -0.2430   24.8200  -27.8640 C   0  0  0  0  0  0  0  0  0  0  0  0
   -0.8800   26.0050  -28.2680 O   0  0  0  0  0  0  0  0  0  0  0  0
   -0.8230   27.2350  -27.5540 C   0  0  0  0  0  0  0  0  0  0  0  0
   -2.3620   22.6390  -29.9130 C   0  0  0  0  0  0  0  0  0  0  0  0
   -3.3540   23.2290  -30.9400 C   0  0  0  0  0  0  0  0  0  0  0  0
   -5.5320   22.2700  -32.1830 O   0  0  0  0  0  0  0  0  0  0  0  0
   -8.8213   18.9123  -30.3237 H   0  0  0  0  0  0  0  0  0  0  0  0
  -10.2094   18.5941  -31.4184 H   0  0  0  0  0  0  0  0  0  0  0  0
   -8.7938   17.4885  -31.4184 H   0  0  0  0  0  0  0  0  0  0  0  0
   -7.7185   16.9702  -33.3854 H   0  0  0  0  0  0  0  0  0  0  0  0
   -5.5352   16.5338  -34.5025 H   0  0  0  0  0  0  0  0  0  0  0  0
   -3.8377   18.3504  -34.6886 H   0  0  0  0  0  0  0  0  0  0  0  0
   -4.3060   20.5993  -33.7288 H   0  0  0  0  0  0  0  0  0  0  0  0
   -8.6180   21.4660  -32.0570 H   0  0  0  0  0  0  0  0  0  0  0  0
   -5.0801   25.1196  -32.0963 H   0  0  0  0  0  0  0  0  0  0  0  0
   -6.1155   25.1407  -30.5939 H   0  0  0  0  0  0  0  0  0  0  0  0
   -5.3229   24.7513  -28.6216 H   0  0  0  0  0  0  0  0  0  0  0  0
   -4.9741   23.0101  -28.8458 H   0  0  0  0  0  0  0  0  0  0  0  0
   -3.0907   25.2457  -27.9667 H   0  0  0  0  0  0  0  0  0  0  0  0
   -3.4601   23.6781  -27.1473 H   0  0  0  0  0  0  0  0  0  0  0  0
   -0.7170   21.4263  -27.9974 H   0  0  0  0  0  0  0  0  0  0  0  0
    1.4971   21.4675  -26.8529 H   0  0  0  0  0  0  0  0  0  0  0  0
    2.6022   23.6460  -26.3474 H   0  0  0  0  0  0  0  0  0  0  0  0
    1.5006   25.7878  -26.9914 H   0  0  0  0  0  0  0  0  0  0  0  0
   -0.8324   27.0322  -26.4729 H   0  0  0  0  0  0  0  0  0  0  0  0
    0.1009   27.7701  -27.8187 H   0  0  0  0  0  0  0  0  0  0  0  0
   -1.6935   27.8533  -27.8187 H   0  0  0  0  0  0  0  0  0  0  0  0
   -1.3978   22.4590  -30.4108 H   0  0  0  0  0  0  0  0  0  0  0  0
   -2.7854   21.7006  -29.5256 H   0  0  0  0  0  0  0  0  0  0  0  0
   -2.7800   23.6655  -31.7706 H   0  0  0  0  0  0  0  0  0  0  0  0
   -4.0051   22.4087  -31.2764 H   0  0  0  0  0  0  0  0  0  0  0  0
  1  2  1  0
  2  3  1  0
  3  4  2  0
  4  5  1  0
  5  6  2  0
  6  7  1  0
  7  8  2  0
  8  9  1  0
  9 10  2  0
 10 11  1  0
 11 12  2  0
 12 13  1  0
 13 14  1  0
 14 15  1  0
 15 16  1  0
 16 17  1  0
 17 18  1  0
 18 19  2  0
 19 20  1  0
 20 21  2  0
 21 22  1  0
 22 23  2  0
 23 24  1  0
 24 25  1  0
 17 26  1  0
 26 27  1  0
 12 28  1  0
  8  3  1  0
 28  9  1  0
 27 14  1  0
 23 18  1  0
  1 29  1  0
  1 30  1  0
  1 31  1  0
  4 32  1  0
  5 33  1  0
  6 34  1  0
  7 35  1  0
 10 36  1  0
 13 37  1  0
 13 38  1  0
 15 39  1  0
 15 40  1  0
 16 41  1  0
 16 42  1  0
 19 43  1  0
 20 44  1  0
 21 45  1  0
 22 46  1  0
 25 47  1  0
 25 48  1  0
 25 49  1  0
 26 50  1  0
 26 51  1  0
 27 52  1  0
 27 53  1  0
M  CHG  1  10   1
M  END
>  <UniqueID>  (34) 
30

>  <SMILES>  (34) 
COc1ccccc1-c1[nH+]nc(CN2CCN(c3ccccc3OC)CC2)o1

>  <Energy>  (34) 
105.539521715949

>  <Genealogy>  (34) 
COc1ccccc1-c1[nH+]nc(CN2CCN(c3ccccc3OC)CC2)o1 (protonated)
COc1ccccc1-c1[nH+]nc(CN2CCN(c3ccccc3OC)CC2)o1 (3D coordinates assigned)
COc1ccccc1-c1[nH+]nc(CN2CCN(c3ccccc3OC)CC2)o1 (nonaromatic ring conformer: 105.539521715949 kcal/mol)

>  <smiles>  (34) 
COc1ccccc1-c1nnc(CN2CCN(c3ccccc3OC)CC2)o1

>  <score_type>  (34) 
oracle

>  <origin>  (34) 
adg

>  <m_score__min__energy>  (34) 
-7.3899999999999997

>  <m_primary>  (34) 
energy

$$$$
35:0
     RDKit          3D

 40 42  0  0  0  0  0  0  0  0999 V2000
   -9.2544   23.1791  -31.7491 H   0  0  0  0  0  0  0  0  0  0  0  0
   -8.3850   22.6020  -31.4010 C   0  0  0  0  0  0  0  0  0  0  0  0
   -8.4990   21.3210  -31.2070 N   0  0  0  0  0  0  0  0  0  0  0  0
   -7.7970   20.2840  -31.9140 C   0  0  0  0  0  0  0  0  0  0  0  0
   -7.1500   20.6210  -33.1090 C   0  0  0  0  0  0  0  0  0  0  0  0
   -7.1882   21.6576  -33.4749 H   0  0  0  0  0  0  0  0  0  0  0  0
   -6.4560   19.6540  -33.8420 C   0  0  0  0  0  0  0  0  0  0  0  0
   -5.9481   19.9336  -34.7768 H   0  0  0  0  0  0  0  0  0  0  0  0
   -6.4060   18.3310  -33.3890 C   0  0  0  0  0  0  0  0  0  0  0  0
   -5.5080   17.1230  -34.3050 S   0  0  0  0  0  0  0  0  0  0  0  0
   -6.2170   15.7970  -34.2760 O   0  0  0  0  0  0  0  0  0  0  0  0
   -5.3940   17.5860  -35.7310 O   0  0  0  0  0  0  0  0  0  0  0  0
   -3.9190   16.9310  -33.6350 N   0  0  0  0  0  0  0  0  0  0  0  0
   -3.6860   15.9950  -33.2320 H   0  0  0  0  0  0  0  0  0  0  0  0
   -2.8900   17.9330  -33.7100 C   0  0  0  0  0  0  0  0  0  0  0  0
   -1.7970   17.7270  -34.5660 C   0  0  0  0  0  0  0  0  0  0  0  0
   -1.7356   16.8028  -35.1593 H   0  0  0  0  0  0  0  0  0  0  0  0
   -0.7860   18.6860  -34.6710 C   0  0  0  0  0  0  0  0  0  0  0  0
    0.0646   18.5132  -35.3467 H   0  0  0  0  0  0  0  0  0  0  0  0
   -0.8510   19.8640  -33.9210 C   0  0  0  0  0  0  0  0  0  0  0  0
    0.4380   21.0500  -34.0830 Cl  0  0  0  0  0  0  0  0  0  0  0  0
   -1.9350   20.0800  -33.0540 C   0  0  0  0  0  0  0  0  0  0  0  0
   -2.0530   21.5450  -32.0900 Cl  0  0  0  0  0  0  0  0  0  0  0  0
   -2.9440   19.1160  -32.9480 C   0  0  0  0  0  0  0  0  0  0  0  0
   -3.7877   19.2841  -32.2626 H   0  0  0  0  0  0  0  0  0  0  0  0
   -7.0670   17.9790  -32.2060 C   0  0  0  0  0  0  0  0  0  0  0  0
   -7.0394   16.9377  -31.8524 H   0  0  0  0  0  0  0  0  0  0  0  0
   -7.7620   18.9450  -31.4720 C   0  0  0  0  0  0  0  0  0  0  0  0
   -8.2834   18.6597  -30.5464 H   0  0  0  0  0  0  0  0  0  0  0  0
   -7.1010   23.2900  -31.1590 C   0  0  0  0  0  0  0  0  0  0  0  0
   -5.8770   22.7260  -31.5640 C   0  0  0  0  0  0  0  0  0  0  0  0
   -5.8659   21.7509  -32.0730 H   0  0  0  0  0  0  0  0  0  0  0  0
   -4.6750   23.3980  -31.3230 C   0  0  0  0  0  0  0  0  0  0  0  0
   -3.7220   22.9508  -31.6419 H   0  0  0  0  0  0  0  0  0  0  0  0
   -4.6830   24.6380  -30.6770 C   0  0  0  0  0  0  0  0  0  0  0  0
   -3.4880   25.3050  -30.4380 O   0  0  0  0  0  0  0  0  0  0  0  0
   -5.8940   25.2060  -30.2700 C   0  0  0  0  0  0  0  0  0  0  0  0
   -5.9000   26.1809  -29.7605 H   0  0  0  0  0  0  0  0  0  0  0  0
   -7.0970   24.5360  -30.5100 C   0  0  0  0  0  0  0  0  0  0  0  0
   -8.0472   24.9874  -30.1885 H   0  0  0  0  0  0  0  0  0  0  0  0
  1  2  1  0
  2  3  2  0
  3  4  1  0
  4  5  2  0
  5  6  1  0
  5  7  1  0
  7  8  1  0
  7  9  2  0
  9 10  1  0
 10 11  2  0
 10 12  2  0
 10 13  1  0
 13 14  1  0
 13 15  1  0
 15 16  2  0
 16 17  1  0
 16 18  1  0
 18 19  1  0
 18 20  2  0
 20 21  1  0
 20 22  1  0
 22 23  1  0
 22 24  2  0
 24 25  1  0
  9 26  1  0
 26 27  1  0
 26 28  2  0
 28 29  1  0
  2 30  1  0
 30 31  2  0
 31 32  1  0
 31 33  1  0
 33 34  1  0
 33 35  2  0
 35 36  1  0
 35 37  1  0
 37 38  1  0
 37 39  2  0
 39 40  1  0
 28  4  1  0
 39 30  1  0
 24 15  1  0
M  CHG  1  36  -1
M  END
>  <UniqueID>  (35) 
31

>  <SMILES>  (35) 
O=S(=O)(Nc1ccc(Cl)c(Cl)c1)c1ccc(/N=C/c2ccc([O-])cc2)cc1

>  <Energy>  (35) 
49.056111072150365

>  <Genealogy>  (35) 
O=S(=O)(Nc1ccc(Cl)c(Cl)c1)c1ccc(N=Cc2ccc([O-])cc2)cc1 (protonated)
O=S(=O)(Nc1ccc(Cl)c(Cl)c1)c1ccc(/N=C/c2ccc([O-])cc2)cc1 (cis-trans isomerization)
O=S(=O)(Nc1ccc(Cl)c(Cl)c1)c1ccc(/N=C/c2ccc([O-])cc2)cc1 (3D coordinates assigned)
O=S(=O)(Nc1ccc(Cl)c(Cl)c1)c1ccc(/N=C/c2ccc([O-])cc2)cc1 (optimized conformer: 49.056111072150365 kcal/mol)

>  <smiles>  (35) 
O=S(=O)(Nc1ccc(Cl)c(Cl)c1)c1ccc(N=Cc2ccc(O)cc2)cc1

>  <score_type>  (35) 
oracle

>  <origin>  (35) 
adg

>  <m_score__min__energy>  (35) 
-12.529999999999999

>  <m_primary>  (35) 
energy

$$$$
37:0
     RDKit          3D

 37 39  0  0  0  0  0  0  0  0999 V2000
  -10.3801   23.2100  -32.2438 H   0  0  0  0  0  0  0  0  0  0  0  0
   -9.4810   22.6380  -31.9710 C   0  0  0  0  0  0  0  0  0  0  0  0
   -8.2970   23.3090  -31.6620 C   0  0  0  0  0  0  0  0  0  0  0  0
   -8.2664   24.4079  -31.7004 H   0  0  0  0  0  0  0  0  0  0  0  0
   -7.1430   22.5910  -31.3020 C   0  0  0  0  0  0  0  0  0  0  0  0
   -5.9200   23.2820  -30.9730 N   0  0  0  0  0  0  0  0  0  0  0  0
   -5.6160   24.5770  -31.2190 C   0  0  0  0  0  0  0  0  0  0  0  0
   -6.3036   25.2817  -31.7095 H   0  0  0  0  0  0  0  0  0  0  0  0
   -4.3790   24.9110  -30.7980 N   0  0  0  0  0  0  0  0  0  0  0  0
   -3.9000   23.7740  -30.2550 C   0  0  0  0  0  0  0  0  0  0  0  0
   -2.5180   23.6260  -29.7120 C   0  0  0  0  0  0  0  0  0  0  0  0
   -2.5537   23.6298  -28.6126 H   0  0  0  0  0  0  0  0  0  0  0  0
   -2.0864   22.6765  -30.0616 H   0  0  0  0  0  0  0  0  0  0  0  0
   -1.8952   24.4626  -30.0616 H   0  0  0  0  0  0  0  0  0  0  0  0
   -4.8330   22.7690  -30.3680 C   0  0  0  0  0  0  0  0  0  0  0  0
   -4.7119   21.7309  -30.0248 H   0  0  0  0  0  0  0  0  0  0  0  0
   -7.2010   21.1850  -31.2650 C   0  0  0  0  0  0  0  0  0  0  0  0
   -6.3118   20.6125  -30.9625 H   0  0  0  0  0  0  0  0  0  0  0  0
   -8.3820   20.5030  -31.6100 C   0  0  0  0  0  0  0  0  0  0  0  0
   -8.4650   18.9990  -31.5320 C   0  0  0  0  0  0  0  0  0  0  0  0
   -8.8276   18.7150  -30.5330 H   0  0  0  0  0  0  0  0  0  0  0  0
   -9.1534   18.6563  -32.3185 H   0  0  0  0  0  0  0  0  0  0  0  0
   -7.1670   18.3640  -31.7610 N   0  0  0  0  0  0  0  0  0  0  0  0
   -6.5920   17.9880  -32.8710 C   0  0  0  0  0  0  0  0  0  0  0  0
   -6.8180   16.7510  -33.4440 C   0  0  0  0  0  0  0  0  0  0  0  0
   -7.4757   15.9494  -33.0768 H   0  0  0  0  0  0  0  0  0  0  0  0
   -6.0340   16.7460  -34.5800 C   0  0  0  0  0  0  0  0  0  0  0  0
   -5.9518   15.9146  -35.2956 H   0  0  0  0  0  0  0  0  0  0  0  0
   -5.3870   17.9210  -34.6710 N   0  0  0  0  0  0  0  0  0  0  0  0
   -4.7340   18.1960  -35.4380 H   0  0  0  0  0  0  0  0  0  0  0  0
   -5.7150   18.6870  -33.6400 N   0  0  0  0  0  0  0  0  0  0  0  0
   -5.2070   20.0490  -33.4880 C   0  0  0  0  0  0  0  0  0  0  0  0
   -5.1173   20.2896  -32.4184 H   0  0  0  0  0  0  0  0  0  0  0  0
   -4.2192   20.1273  -33.9656 H   0  0  0  0  0  0  0  0  0  0  0  0
   -5.9022   20.7551  -33.9656 H   0  0  0  0  0  0  0  0  0  0  0  0
   -9.5280   21.2440  -31.9350 C   0  0  0  0  0  0  0  0  0  0  0  0
  -10.4695   20.7228  -32.1629 H   0  0  0  0  0  0  0  0  0  0  0  0
  1  2  1  0
  2  3  2  0
  3  4  1  0
  3  5  1  0
  5  6  1  0
  6  7  1  0
  7  8  1  0
  7  9  2  0
  9 10  1  0
 10 11  1  0
 11 12  1  0
 11 13  1  0
 11 14  1  0
 10 15  2  0
 15 16  1  0
  5 17  2  0
 17 18  1  0
 17 19  1  0
 19 20  1  0
 20 21  1  0
 20 22  1  0
 20 23  1  0
 23 24  2  0
 24 25  1  0
 25 26  1  0
 25 27  2  0
 27 28  1  0
 27 29  1  0
 29 30  1  0
 29 31  1  0
 31 32  1  0
 32 33  1  0
 32 34  1  0
 32 35  1  0
 19 36  2  0
 36 37  1  0
 36  2  1  0
 15  6  1  0
 31 24  1  0
M  END
>  <UniqueID>  (36) 
32

>  <SMILES>  (36) 
Cc1cn(-c2cccc(C/N=c3/cc[nH]n3C)c2)cn1

>  <Energy>  (36) 
107.44241924215093

>  <Genealogy>  (36) 
Cc1cn(-c2cccc(C/N=c3/cc[nH]n3C)c2)cn1 (cis-trans isomerization)
Cc1cn(-c2cccc(C/N=c3/cc[nH]n3C)c2)cn1 (3D coordinates assigned)
Cc1cn(-c2cccc(C/N=c3/cc[nH]n3C)c2)cn1 (optimized conformer: 107.44241924215093 kcal/mol)

>  <smiles>  (36) 
Cc1cn(-c2cccc(CN=c3cc[nH]n3C)c2)cn1

>  <score_type>  (36) 
oracle

>  <origin>  (36) 
adg

>  <m_score__min__energy>  (36) 
-7.5800000000000001

>  <m_primary>  (36) 
energy

$$$$
38:0
     RDKit          3D

 37 38  0  0  0  0  0  0  0  0999 V2000
   -2.5260   22.3250  -30.6020 C   0  0  0  0  0  0  0  0  0  0  0  0
   -3.0430   23.0250  -29.3470 C   0  0  0  0  0  0  0  0  0  0  0  0
   -2.8030   24.5380  -29.3710 C   0  0  0  0  0  0  0  0  0  0  0  0
   -3.5180   25.1660  -30.4780 N   0  0  0  0  0  0  0  0  0  0  0  0
   -4.9430   25.2970  -30.5450 C   0  0  0  0  0  0  0  0  0  0  0  0
   -5.4730   26.4380  -30.4590 O   0  0  0  0  0  0  0  0  0  0  0  0
   -5.7960   24.0950  -30.7100 C   0  0  0  0  0  0  0  0  0  0  0  0
   -6.7950   23.7970  -29.7660 C   0  0  0  0  0  0  0  0  0  0  0  0
   -7.6130   22.6770  -29.9320 C   0  0  0  0  0  0  0  0  0  0  0  0
   -7.4400   21.8390  -31.0350 C   0  0  0  0  0  0  0  0  0  0  0  0
   -6.4360   22.1010  -31.9730 C   0  0  0  0  0  0  0  0  0  0  0  0
   -6.3080   21.2260  -33.1030 N   0  0  0  0  0  0  0  0  0  0  0  0
   -5.2220   20.3260  -33.3670 C   0  0  0  0  0  0  0  0  0  0  0  0
   -4.0360   20.7560  -33.3920 O   0  0  0  0  0  0  0  0  0  0  0  0
   -5.4860   18.8800  -33.5560 C   0  0  0  0  0  0  0  0  0  0  0  0
   -6.6120   18.2730  -32.9670 C   0  0  0  0  0  0  0  0  0  0  0  0
   -6.8600   16.9090  -33.1510 C   0  0  0  0  0  0  0  0  0  0  0  0
   -5.9900   16.1370  -33.9240 C   0  0  0  0  0  0  0  0  0  0  0  0
   -4.8700   16.7260  -34.5130 C   0  0  0  0  0  0  0  0  0  0  0  0
   -4.6170   18.0900  -34.3340 C   0  0  0  0  0  0  0  0  0  0  0  0
   -5.6290   23.2430  -31.8180 C   0  0  0  0  0  0  0  0  0  0  0  0
   -1.8956   21.4714  -30.3124 H   0  0  0  0  0  0  0  0  0  0  0  0
   -3.3775   21.9661  -31.1988 H   0  0  0  0  0  0  0  0  0  0  0  0
   -1.9326   23.0333  -31.1988 H   0  0  0  0  0  0  0  0  0  0  0  0
   -4.1243   22.8418  -29.2623 H   0  0  0  0  0  0  0  0  0  0  0  0
   -2.4918   22.6153  -28.4878 H   0  0  0  0  0  0  0  0  0  0  0  0
   -3.1546   24.9726  -28.4236 H   0  0  0  0  0  0  0  0  0  0  0  0
   -1.7261   24.7189  -29.5032 H   0  0  0  0  0  0  0  0  0  0  0  0
   -6.9330   24.4499  -28.8916 H   0  0  0  0  0  0  0  0  0  0  0  0
   -8.3956   22.4547  -29.1916 H   0  0  0  0  0  0  0  0  0  0  0  0
   -8.0974   20.9671  -31.1673 H   0  0  0  0  0  0  0  0  0  0  0  0
   -7.3014   18.8760  -32.3578 H   0  0  0  0  0  0  0  0  0  0  0  0
   -7.7416   16.4435  -32.6862 H   0  0  0  0  0  0  0  0  0  0  0  0
   -6.1874   15.0646  -34.0687 H   0  0  0  0  0  0  0  0  0  0  0  0
   -4.1845   16.1159  -35.1195 H   0  0  0  0  0  0  0  0  0  0  0  0
   -3.7342   18.5485  -34.8035 H   0  0  0  0  0  0  0  0  0  0  0  0
   -4.8598   23.4724  -32.5702 H   0  0  0  0  0  0  0  0  0  0  0  0
  1  2  1  0
  2  3  1  0
  3  4  1  0
  4  5  1  0
  5  6  2  0
  5  7  1  0
  7  8  2  0
  8  9  1  0
  9 10  2  0
 10 11  1  0
 11 12  1  0
 12 13  1  0
 13 14  2  0
 13 15  1  0
 15 16  2  0
 16 17  1  0
 17 18  2  0
 18 19  1  0
 19 20  2  0
 11 21  2  0
 21  7  1  0
 20 15  1  0
  1 22  1  0
  1 23  1  0
  1 24  1  0
  2 25  1  0
  2 26  1  0
  3 27  1  0
  3 28  1  0
  8 29  1  0
  9 30  1  0
 10 31  1  0
 16 32  1  0
 17 33  1  0
 18 34  1  0
 19 35  1  0
 20 36  1  0
 21 37  1  0
M  CHG  2   4  -1  12  -1
M  END
>  <UniqueID>  (37) 
33

>  <SMILES>  (37) 
CCC[N-]C(=O)c1cccc([N-]C(=O)c2ccccc2)c1

>  <Energy>  (37) 
37.315273235033686

>  <Genealogy>  (37) 
CCC[N-]C(=O)c1cccc([N-]C(=O)c2ccccc2)c1 (protonated)
CCC[N-]C(=O)c1cccc([N-]C(=O)c2ccccc2)c1 (3D coordinates assigned)
CCC[N-]C(=O)c1cccc([N-]C(=O)c2ccccc2)c1 (optimized conformer: 37.315273235033686 kcal/mol)

>  <smiles>  (37) 
CCCNC(=O)c1cccc(NC(=O)c2ccccc2)c1

>  <score_type>  (37) 
oracle

>  <origin>  (37) 
adg

>  <m_score__min__energy>  (37) 
-9.0800000000000001

>  <m_primary>  (37) 
energy

$$$$
39:0
     RDKit          3D

 24 26  0  0  0  0  0  0  0  0999 V2000
   -6.8630   24.4480  -30.3950 C   0  0  0  0  0  0  0  0  0  0  0  0
   -6.3760   23.3000  -31.1850 N   0  0  0  0  0  0  0  0  0  0  0  0
   -5.0460   23.2370  -31.5470 C   0  0  0  0  0  0  0  0  0  0  0  0
   -4.2290   24.1420  -31.2180 O   0  0  0  0  0  0  0  0  0  0  0  0
   -4.6020   22.1490  -32.2910 C   0  0  0  0  0  0  0  0  0  0  0  0
   -3.3430   21.8600  -32.7680 C   0  0  0  0  0  0  0  0  0  0  0  0
   -3.3960   20.6870  -33.4390 N   0  0  0  0  0  0  0  0  0  0  0  0
   -4.6890   20.2960  -33.3520 C   0  0  0  0  0  0  0  0  0  0  0  0
   -5.4380   21.1760  -32.6550 N   0  0  0  0  0  0  0  0  0  0  0  0
   -6.7580   21.1840  -32.3270 C   0  0  0  0  0  0  0  0  0  0  0  0
   -7.6290   20.1510  -32.7180 C   0  0  0  0  0  0  0  0  0  0  0  0
   -8.9750   20.1970  -32.3620 C   0  0  0  0  0  0  0  0  0  0  0  0
   -9.4680   21.2660  -31.6160 C   0  0  0  0  0  0  0  0  0  0  0  0
   -8.6190   22.3020  -31.2190 C   0  0  0  0  0  0  0  0  0  0  0  0
   -7.2470   22.2860  -31.5640 C   0  0  0  0  0  0  0  0  0  0  0  0
   -6.7672   24.2222  -29.3227 H   0  0  0  0  0  0  0  0  0  0  0  0
   -6.2655   25.3394  -30.6368 H   0  0  0  0  0  0  0  0  0  0  0  0
   -7.9192   24.6379  -30.6368 H   0  0  0  0  0  0  0  0  0  0  0  0
   -2.4449   22.4793  -32.6270 H   0  0  0  0  0  0  0  0  0  0  0  0
   -5.0827   19.3702  -33.7969 H   0  0  0  0  0  0  0  0  0  0  0  0
   -7.2461   19.3043  -33.3066 H   0  0  0  0  0  0  0  0  0  0  0  0
   -9.6514   19.3864  -32.6709 H   0  0  0  0  0  0  0  0  0  0  0  0
  -10.5320   21.2942  -31.3381 H   0  0  0  0  0  0  0  0  0  0  0  0
   -9.0220   23.1400  -30.6313 H   0  0  0  0  0  0  0  0  0  0  0  0
  1  2  1  0
  2  3  1  0
  3  4  2  0
  3  5  1  0
  5  6  2  0
  6  7  1  0
  7  8  2  0
  8  9  1  0
  9 10  1  0
 10 11  2  0
 11 12  1  0
 12 13  2  0
 13 14  1  0
 14 15  2  0
 15  2  1  0
  9  5  1  0
 15 10  1  0
  1 16  1  0
  1 17  1  0
  1 18  1  0
  6 19  1  0
  8 20  1  0
 11 21  1  0
 12 22  1  0
 13 23  1  0
 14 24  1  0
M  END
>  <UniqueID>  (38) 
34

>  <SMILES>  (38) 
Cn1c(=O)c2cncn2c2ccccc21

>  <Energy>  (38) 
73.71386990001083

>  <Genealogy>  (38) 
Cn1c(=O)c2cncn2c2ccccc21 (3D coordinates assigned)
Cn1c(=O)c2cncn2c2ccccc21 (optimized conformer: 73.71386990001083 kcal/mol)

>  <smiles>  (38) 
Cn1c(=O)c2cncn2c2ccccc21

>  <score_type>  (38) 
oracle

>  <origin>  (38) 
adg

>  <m_score__min__energy>  (38) 
-6.46

>  <m_primary>  (38) 
energy

$$$$
40:0
     RDKit          3D

 50 51  0  0  0  0  0  0  0  0999 V2000
   -0.8740   26.7380  -23.8540 C   0  0  0  0  0  0  0  0  0  0  0  0
    0.0840   26.2880  -24.9640 C   0  0  0  0  0  0  0  0  0  0  0  0
   -0.2240   24.9190  -25.4500 N   0  0  0  0  0  0  0  0  0  0  0  0
    0.6600   23.9080  -24.8200 C   0  0  0  0  0  0  0  0  0  0  0  0
   -0.1230   22.7580  -24.1770 C   0  0  0  0  0  0  0  0  0  0  0  0
   -0.0700   24.8360  -26.8930 C   0  0  0  0  0  0  0  0  0  0  0  0
    0.9680   25.3050  -27.4400 O   0  0  0  0  0  0  0  0  0  0  0  0
   -1.0910   24.1760  -27.7490 C   0  0  0  0  0  0  0  0  0  0  0  0
   -1.3540   22.8050  -27.5870 C   0  0  0  0  0  0  0  0  0  0  0  0
   -2.3080   22.1680  -28.3820 C   0  0  0  0  0  0  0  0  0  0  0  0
   -3.0250   22.8910  -29.3360 C   0  0  0  0  0  0  0  0  0  0  0  0
   -2.8030   24.2710  -29.4900 C   0  0  0  0  0  0  0  0  0  0  0  0
   -3.5120   25.0500  -30.4640 N   0  0  0  0  0  0  0  0  0  0  0  0
   -4.9170   24.9980  -30.7350 C   0  0  0  0  0  0  0  0  0  0  0  0
   -5.5920   26.0560  -30.8560 O   0  0  0  0  0  0  0  0  0  0  0  0
   -5.5790   23.6680  -30.9570 C   0  0  0  0  0  0  0  0  0  0  0  0
   -6.6280   23.7340  -31.9890 N   0  0  0  0  0  0  0  0  0  0  0  0
   -7.8840   23.0930  -31.5720 C   0  0  0  0  0  0  0  0  0  0  0  0
   -7.8930   21.6340  -31.9510 C   0  0  0  0  0  0  0  0  0  0  0  0
   -6.8070   21.0680  -32.6390 C   0  0  0  0  0  0  0  0  0  0  0  0
   -6.8350   19.7190  -33.0080 C   0  0  0  0  0  0  0  0  0  0  0  0
   -7.9440   18.9290  -32.6960 C   0  0  0  0  0  0  0  0  0  0  0  0
   -9.0300   19.4880  -32.0160 C   0  0  0  0  0  0  0  0  0  0  0  0
   -9.0070   20.8360  -31.6440 C   0  0  0  0  0  0  0  0  0  0  0  0
   -1.8260   24.9000  -28.7070 C   0  0  0  0  0  0  0  0  0  0  0  0
   -0.4237   26.5265  -22.8729 H   0  0  0  0  0  0  0  0  0  0  0  0
   -1.0608   27.8181  -23.9465 H   0  0  0  0  0  0  0  0  0  0  0  0
   -1.8246   26.1922  -23.9465 H   0  0  0  0  0  0  0  0  0  0  0  0
    0.0036   26.9897  -25.8073 H   0  0  0  0  0  0  0  0  0  0  0  0
    1.1021   26.2774  -24.5476 H   0  0  0  0  0  0  0  0  0  0  0  0
   -1.2180   24.7140  -25.1950 H   0  0  0  0  0  0  0  0  0  0  0  0
    1.3257   23.4929  -25.5911 H   0  0  0  0  0  0  0  0  0  0  0  0
    1.2263   24.4117  -24.0228 H   0  0  0  0  0  0  0  0  0  0  0  0
   -0.0654   22.8425  -23.0818 H   0  0  0  0  0  0  0  0  0  0  0  0
   -1.1752   22.8085  -24.4939 H   0  0  0  0  0  0  0  0  0  0  0  0
    0.3096   21.7976  -24.4939 H   0  0  0  0  0  0  0  0  0  0  0  0
   -0.8038   22.2296  -26.8279 H   0  0  0  0  0  0  0  0  0  0  0  0
   -2.4954   21.0914  -28.2560 H   0  0  0  0  0  0  0  0  0  0  0  0
   -3.7656   22.3803  -29.9690 H   0  0  0  0  0  0  0  0  0  0  0  0
   -4.8163   22.9410  -31.2731 H   0  0  0  0  0  0  0  0  0  0  0  0
   -6.0535   23.3650  -30.0120 H   0  0  0  0  0  0  0  0  0  0  0  0
   -6.8240   24.7390  -32.2100 H   0  0  0  0  0  0  0  0  0  0  0  0
   -7.9894   23.1826  -30.4807 H   0  0  0  0  0  0  0  0  0  0  0  0
   -8.7209   23.5941  -32.0804 H   0  0  0  0  0  0  0  0  0  0  0  0
   -5.9325   21.6870  -32.8882 H   0  0  0  0  0  0  0  0  0  0  0  0
   -5.9817   19.2792  -33.5451 H   0  0  0  0  0  0  0  0  0  0  0  0
   -7.9627   17.8679  -32.9852 H   0  0  0  0  0  0  0  0  0  0  0  0
   -9.9044   18.8664  -31.7730 H   0  0  0  0  0  0  0  0  0  0  0  0
   -9.8638   21.2723  -31.1095 H   0  0  0  0  0  0  0  0  0  0  0  0
   -1.6306   25.9740  -28.8426 H   0  0  0  0  0  0  0  0  0  0  0  0
  1  2  1  0
  2  3  1  0
  3  4  1  0
  4  5  1  0
  3  6  1  0
  6  7  2  0
  6  8  1  0
  8  9  2  0
  9 10  1  0
 10 11  2  0
 11 12  1  0
 12 13  1  0
 13 14  1  0
 14 15  2  0
 14 16  1  0
 16 17  1  0
 17 18  1  0
 18 19  1  0
 19 20  2  0
 20 21  1  0
 21 22  2  0
 22 23  1  0
 23 24  2  0
 12 25  2  0
 25  8  1  0
 24 19  1  0
  1 26  1  0
  1 27  1  0
  1 28  1  0
  2 29  1  0
  2 30  1  0
  3 31  1  0
  4 32  1  0
  4 33  1  0
  5 34  1  0
  5 35  1  0
  5 36  1  0
  9 37  1  0
 10 38  1  0
 11 39  1  0
 16 40  1  0
 16 41  1  0
 17 42  1  0
 18 43  1  0
 18 44  1  0
 20 45  1  0
 21 46  1  0
 22 47  1  0
 23 48  1  0
 24 49  1  0
 25 50  1  0
M  CHG  2   3   1  13  -1
M  END
>  <UniqueID>  (39) 
35

>  <SMILES>  (39) 
CC[NH+](CC)C(=O)c1cccc([N-]C(=O)CNCc2ccccc2)c1

>  <Energy>  (39) 
55.30704302474183

>  <Genealogy>  (39) 
CC[NH+](CC)C(=O)c1cccc([N-]C(=O)CNCc2ccccc2)c1 (protonated)
CC[NH+](CC)C(=O)c1cccc([N-]C(=O)CNCc2ccccc2)c1 (3D coordinates assigned)
CC[NH+](CC)C(=O)c1cccc([N-]C(=O)CNCc2ccccc2)c1 (optimized conformer: 55.30704302474183 kcal/mol)

>  <smiles>  (39) 
CCN(CC)C(=O)c1cccc(NC(=O)CNCc2ccccc2)c1

>  <score_type>  (39) 
oracle

>  <origin>  (39) 
adg

>  <m_score__min__energy>  (39) 
-9.9000000000000004

>  <m_primary>  (39) 
energy

$$$$
41:0
     RDKit          3D

 41 41  0  0  0  0  0  0  0  0999 V2000
   -8.4591   22.6531  -29.3921 H   0  0  0  0  0  0  0  0  0  0  0  0
   -8.0000   22.3240  -30.3360 C   0  0  0  0  0  0  0  0  0  0  0  0
   -8.3120   21.0670  -30.8600 C   0  0  0  0  0  0  0  0  0  0  0  0
   -9.0124   20.4093  -30.3244 H   0  0  0  0  0  0  0  0  0  0  0  0
   -7.7360   20.6390  -32.0670 C   0  0  0  0  0  0  0  0  0  0  0  0
   -8.1170   19.3070  -32.6640 C   0  0  0  0  0  0  0  0  0  0  0  0
   -8.9873   18.9096  -32.1211 H   0  0  0  0  0  0  0  0  0  0  0  0
   -8.3514   19.4639  -33.7272 H   0  0  0  0  0  0  0  0  0  0  0  0
   -6.9690   18.2910  -32.5740 C   0  0  0  0  0  0  0  0  0  0  0  0
   -6.3914   18.4905  -31.6594 H   0  0  0  0  0  0  0  0  0  0  0  0
   -7.4120   17.2842  -32.5588 H   0  0  0  0  0  0  0  0  0  0  0  0
   -6.0240   18.3690  -33.7810 C   0  0  0  0  0  0  0  0  0  0  0  0
   -6.4151   17.7292  -34.5858 H   0  0  0  0  0  0  0  0  0  0  0  0
   -5.9668   19.4159  -34.1137 H   0  0  0  0  0  0  0  0  0  0  0  0
   -4.6130   17.8980  -33.4070 C   0  0  0  0  0  0  0  0  0  0  0  0
   -4.6080   17.5703  -32.3570 H   0  0  0  0  0  0  0  0  0  0  0  0
   -4.3311   17.0649  -34.0677 H   0  0  0  0  0  0  0  0  0  0  0  0
   -3.6430   18.9840  -33.5770 N   0  0  0  0  0  0  0  0  0  0  0  0
   -2.8800   18.8190  -34.2740 H   0  0  0  0  0  0  0  0  0  0  0  0
   -3.6540   20.1150  -32.9200 C   0  0  0  0  0  0  0  0  0  0  0  0
   -3.1360   21.3280  -33.4880 N   0  0  0  0  0  0  0  0  0  0  0  0
   -3.1440   22.2060  -32.9240 H   0  0  0  0  0  0  0  0  0  0  0  0
   -2.7570   21.3890  -34.4570 H   0  0  0  0  0  0  0  0  0  0  0  0
   -4.2030   20.1560  -31.6000 N   0  0  0  0  0  0  0  0  0  0  0  0
   -4.2230   21.0510  -31.0630 H   0  0  0  0  0  0  0  0  0  0  0  0
   -4.5910   19.2970  -31.1490 H   0  0  0  0  0  0  0  0  0  0  0  0
   -6.8480   21.4880  -32.7440 C   0  0  0  0  0  0  0  0  0  0  0  0
   -6.3955   21.1621  -33.6922 H   0  0  0  0  0  0  0  0  0  0  0  0
   -6.5350   22.7450  -32.2210 C   0  0  0  0  0  0  0  0  0  0  0  0
   -5.8406   23.4054  -32.7610 H   0  0  0  0  0  0  0  0  0  0  0  0
   -7.1030   23.1690  -31.0090 C   0  0  0  0  0  0  0  0  0  0  0  0
   -6.8110   24.5450  -30.4760 C   0  0  0  0  0  0  0  0  0  0  0  0
   -7.4964   24.7663  -29.6446 H   0  0  0  0  0  0  0  0  0  0  0  0
   -6.9507   25.2807  -31.2817 H   0  0  0  0  0  0  0  0  0  0  0  0
   -5.3960   24.6170  -29.9850 C   0  0  0  0  0  0  0  0  0  0  0  0
   -4.4260   24.4800  -30.8420 N   0  0  0  0  0  0  0  0  0  0  0  0
   -3.5030   23.4220  -30.8240 C   0  0  0  0  0  0  0  0  0  0  0  0
   -2.7420   22.5510  -30.8100 N   0  0  0  0  0  0  0  0  0  0  0  0
   -5.1460   24.9020  -28.6010 N   0  0  0  0  0  0  0  0  0  0  0  0
   -4.1780   24.9820  -28.2160 H   0  0  0  0  0  0  0  0  0  0  0  0
   -5.9430   25.0380  -27.9410 H   0  0  0  0  0  0  0  0  0  0  0  0
  1  2  1  0
  2  3  2  0
  3  4  1  0
  3  5  1  0
  5  6  1  0
  6  7  1  0
  6  8  1  0
  6  9  1  0
  9 10  1  0
  9 11  1  0
  9 12  1  0
 12 13  1  0
 12 14  1  0
 12 15  1  0
 15 16  1  0
 15 17  1  0
 15 18  1  0
 18 19  1  0
 18 20  2  3
 20 21  1  0
 21 22  1  0
 21 23  1  0
 20 24  1  0
 24 25  1  0
 24 26  1  0
  5 27  2  0
 27 28  1  0
 27 29  1  0
 29 30  1  0
 29 31  2  0
 31 32  1  0
 32 33  1  0
 32 34  1  0
 32 35  1  0
 35 36  2  0
 36 37  1  0
 37 38  3  0
 35 39  1  0
 39 40  1  0
 39 41  1  0
 31  2  1  0
M  CHG  1  18   1
M  END
>  <UniqueID>  (40) 
36

>  <SMILES>  (40) 
N#C/N=C(\N)Cc1ccc(CCCC[NH+]=C(N)N)cc1

>  <Energy>  (40) 
27.5456238043327

>  <Genealogy>  (40) 
N#CN=C(N)Cc1ccc(CCCC[NH+]=C(N)N)cc1 (protonated)
N#C/N=C(\N)Cc1ccc(CCCC[NH+]=C(N)N)cc1 (cis-trans isomerization)
N#C/N=C(\N)Cc1ccc(CCCC[NH+]=C(N)N)cc1 (3D coordinates assigned)
N#C/N=C(\N)Cc1ccc(CCCC[NH+]=C(N)N)cc1 (optimized conformer: 27.5456238043327 kcal/mol)

>  <smiles>  (40) 
N#CN=C(N)Cc1ccc(CCCCN=C(N)N)cc1

>  <score_type>  (40) 
oracle

>  <origin>  (40) 
adg

>  <m_score__min__energy>  (40) 
-7.0499999999999998

>  <m_primary>  (40) 
energy

$$$$
42:0
     RDKit          3D

 49 51  0  0  0  0  0  0  0  0999 V2000
   -2.1960   25.1050  -26.8950 C   0  0  0  0  0  0  0  0  0  0  0  0
   -1.4920   25.5440  -28.1750 C   0  0  0  0  0  0  0  0  0  0  0  0
   -2.3410   25.2970  -29.3360 N   0  0  0  0  0  0  0  0  0  0  0  0
   -2.8380   24.0220  -29.7670 C   0  0  0  0  0  0  0  0  0  0  0  0
   -2.0790   23.0220  -29.6690 O   0  0  0  0  0  0  0  0  0  0  0  0
   -4.2660   23.8270  -30.2360 C   0  0  0  0  0  0  0  0  0  0  0  0
   -4.9580   25.1930  -30.4520 C   0  0  0  0  0  0  0  0  0  0  0  0
   -6.4620   25.1620  -30.1100 C   0  0  0  0  0  0  0  0  0  0  0  0
   -7.0990   23.8800  -30.4750 N   0  0  0  0  0  0  0  0  0  0  0  0
   -7.2080   23.7070  -31.9410 C   0  0  0  0  0  0  0  0  0  0  0  0
   -6.8630   22.2910  -32.3230 C   0  0  0  0  0  0  0  0  0  0  0  0
   -7.8480   21.2920  -32.3330 C   0  0  0  0  0  0  0  0  0  0  0  0
   -7.5220   19.9850  -32.7050 C   0  0  0  0  0  0  0  0  0  0  0  0
   -6.2060   19.6540  -33.0740 C   0  0  0  0  0  0  0  0  0  0  0  0
   -5.8600   18.2660  -33.4710 C   0  0  0  0  0  0  0  0  0  0  0  0
   -4.5510   17.9410  -33.8750 C   0  0  0  0  0  0  0  0  0  0  0  0
   -4.2280   16.6320  -34.2460 C   0  0  0  0  0  0  0  0  0  0  0  0
   -5.2050   15.6340  -34.2200 C   0  0  0  0  0  0  0  0  0  0  0  0
   -6.5070   15.9430  -33.8210 C   0  0  0  0  0  0  0  0  0  0  0  0
   -6.8360   17.2500  -33.4480 C   0  0  0  0  0  0  0  0  0  0  0  0
   -5.2230   20.6600  -33.0630 C   0  0  0  0  0  0  0  0  0  0  0  0
   -5.5500   21.9670  -32.6930 C   0  0  0  0  0  0  0  0  0  0  0  0
   -6.4930   22.7050  -29.7900 C   0  0  0  0  0  0  0  0  0  0  0  0
   -5.0650   22.9500  -29.2610 C   0  0  0  0  0  0  0  0  0  0  0  0
   -1.6268   25.4600  -26.0232 H   0  0  0  0  0  0  0  0  0  0  0  0
   -3.2097   25.5313  -26.8694 H   0  0  0  0  0  0  0  0  0  0  0  0
   -2.2592   24.0071  -26.8694 H   0  0  0  0  0  0  0  0  0  0  0  0
   -1.2665   26.6189  -28.1136 H   0  0  0  0  0  0  0  0  0  0  0  0
   -0.5620   24.9670  -28.2852 H   0  0  0  0  0  0  0  0  0  0  0  0
   -4.2353   23.2987  -31.2003 H   0  0  0  0  0  0  0  0  0  0  0  0
   -4.4673   25.9407  -29.8116 H   0  0  0  0  0  0  0  0  0  0  0  0
   -4.8661   25.4458  -31.5186 H   0  0  0  0  0  0  0  0  0  0  0  0
   -6.5810   25.3195  -29.0279 H   0  0  0  0  0  0  0  0  0  0  0  0
   -6.9532   25.9566  -30.6908 H   0  0  0  0  0  0  0  0  0  0  0  0
   -8.2378   23.9285  -32.2578 H   0  0  0  0  0  0  0  0  0  0  0  0
   -6.5073   24.3944  -32.4374 H   0  0  0  0  0  0  0  0  0  0  0  0
   -8.8811   21.5385  -32.0469 H   0  0  0  0  0  0  0  0  0  0  0  0
   -8.3013   19.2087  -32.7092 H   0  0  0  0  0  0  0  0  0  0  0  0
   -3.7770   18.7222  -33.8990 H   0  0  0  0  0  0  0  0  0  0  0  0
   -3.2022   16.3876  -34.5590 H   0  0  0  0  0  0  0  0  0  0  0  0
   -4.9489   14.6053  -34.5137 H   0  0  0  0  0  0  0  0  0  0  0  0
   -7.2757   15.1565  -33.8000 H   0  0  0  0  0  0  0  0  0  0  0  0
   -7.8635   17.4865  -33.1346 H   0  0  0  0  0  0  0  0  0  0  0  0
   -4.1890   20.4159  -33.3479 H   0  0  0  0  0  0  0  0  0  0  0  0
   -4.7733   22.7459  -32.6920 H   0  0  0  0  0  0  0  0  0  0  0  0
   -7.1345   22.4330  -28.9388 H   0  0  0  0  0  0  0  0  0  0  0  0
   -6.4195   21.9042  -30.5406 H   0  0  0  0  0  0  0  0  0  0  0  0
   -5.1233   23.4556  -28.2858 H   0  0  0  0  0  0  0  0  0  0  0  0
   -4.5552   21.9806  -29.1594 H   0  0  0  0  0  0  0  0  0  0  0  0
  1  2  1  0
  2  3  1  0
  3  4  1  0
  4  5  2  0
  4  6  1  0
  6  7  1  0
  7  8  1  0
  8  9  1  0
  9 10  1  0
 10 11  1  0
 11 12  2  0
 12 13  1  0
 13 14  2  0
 14 15  1  0
 15 16  2  0
 16 17  1  0
 17 18  2  0
 18 19  1  0
 19 20  2  0
 14 21  1  0
 21 22  2  0
  9 23  1  0
 23 24  1  0
 24  6  1  0
 22 11  1  0
 20 15  1  0
  1 25  1  0
  1 26  1  0
  1 27  1  0
  2 28  1  0
  2 29  1  0
  6 30  1  0
  7 31  1  0
  7 32  1  0
  8 33  1  0
  8 34  1  0
 10 35  1  0
 10 36  1  0
 12 37  1  0
 13 38  1  0
 16 39  1  0
 17 40  1  0
 18 41  1  0
 19 42  1  0
 20 43  1  0
 21 44  1  0
 22 45  1  0
 23 46  1  0
 23 47  1  0
 24 48  1  0
 24 49  1  0
M  CHG  1   3  -1
M  END
>  <UniqueID>  (41) 
37

>  <SMILES>  (41) 
CC[N-]C(=O)C1CCN(Cc2ccc(-c3ccccc3)cc2)CC1

>  <Energy>  (41) 
60.58023821803755

>  <Genealogy>  (41) 
CC[N-]C(=O)C1CCN(Cc2ccc(-c3ccccc3)cc2)CC1 (protonated)
CC[N-]C(=O)C1CCN(Cc2ccc(-c3ccccc3)cc2)CC1 (3D coordinates assigned)
CC[N-]C(=O)C1CCN(Cc2ccc(-c3ccccc3)cc2)CC1 (nonaromatic ring conformer: 60.58023821803755 kcal/mol)

>  <smiles>  (41) 
CCNC(=O)C1CCN(Cc2ccc(-c3ccccc3)cc2)CC1

>  <score_type>  (41) 
oracle

>  <origin>  (41) 
adg

>  <m_score__min__energy>  (41) 
-10.359999999999999

>  <m_primary>  (41) 
energy

$$$$
43:0
     RDKit          3D

 43 45  0  0  0  0  0  0  0  0999 V2000
    2.4950   17.1190  -27.4720 C   0  0  0  0  0  0  0  0  0  0  0  0
    1.3760   17.9700  -27.9950 C   0  0  0  0  0  0  0  0  0  0  0  0
    0.0800   17.8290  -27.4790 C   0  0  0  0  0  0  0  0  0  0  0  0
   -0.9570   18.6480  -27.9400 C   0  0  0  0  0  0  0  0  0  0  0  0
   -0.7100   19.6210  -28.9240 C   0  0  0  0  0  0  0  0  0  0  0  0
   -1.7520   20.4910  -29.3980 N   0  0  0  0  0  0  0  0  0  0  0  0
   -2.3830   21.4970  -28.5870 C   0  0  0  0  0  0  0  0  0  0  0  0
   -2.2810   21.4540  -27.3310 O   0  0  0  0  0  0  0  0  0  0  0  0
   -3.1880   22.5660  -29.2060 C   0  0  0  0  0  0  0  0  0  0  0  0
   -2.7290   23.7700  -29.7170 C   0  0  0  0  0  0  0  0  0  0  0  0
   -3.8480   24.4260  -30.1810 C   0  0  0  0  0  0  0  0  0  0  0  0
   -3.8420   25.6730  -30.7960 O   0  0  0  0  0  0  0  0  0  0  0  0
   -4.9600   23.6960  -29.9650 N   0  0  0  0  0  0  0  0  0  0  0  0
   -6.3210   24.0300  -30.3760 C   0  0  0  0  0  0  0  0  0  0  0  0
   -6.5230   23.6980  -31.8550 C   0  0  0  0  0  0  0  0  0  0  0  0
   -7.3300   22.4370  -32.0100 C   0  0  0  0  0  0  0  0  0  0  0  0
   -8.6750   22.4020  -31.6040 C   0  0  0  0  0  0  0  0  0  0  0  0
   -9.4150   21.2210  -31.7190 C   0  0  0  0  0  0  0  0  0  0  0  0
   -8.8150   20.0660  -32.2310 C   0  0  0  0  0  0  0  0  0  0  0  0
   -7.4740   20.0900  -32.6240 C   0  0  0  0  0  0  0  0  0  0  0  0
   -6.7310   21.2690  -32.5110 C   0  0  0  0  0  0  0  0  0  0  0  0
   -4.5640   22.5500  -29.3770 C   0  0  0  0  0  0  0  0  0  0  0  0
    0.5970   19.7860  -29.4070 C   0  0  0  0  0  0  0  0  0  0  0  0
    1.6320   18.9670  -28.9490 C   0  0  0  0  0  0  0  0  0  0  0  0
    2.4807   17.1299  -26.3721 H   0  0  0  0  0  0  0  0  0  0  0  0
    2.3688   16.0866  -27.8302 H   0  0  0  0  0  0  0  0  0  0  0  0
    3.4561   17.5164  -27.8302 H   0  0  0  0  0  0  0  0  0  0  0  0
   -0.1227   17.0710  -26.7081 H   0  0  0  0  0  0  0  0  0  0  0  0
   -1.9709   18.5297  -27.5301 H   0  0  0  0  0  0  0  0  0  0  0  0
   -2.1360   20.3150  -30.3530 H   0  0  0  0  0  0  0  0  0  0  0  0
   -1.6889   24.1269  -29.7460 H   0  0  0  0  0  0  0  0  0  0  0  0
   -7.0352   23.4504  -29.7727 H   0  0  0  0  0  0  0  0  0  0  0  0
   -6.4876   25.1066  -30.2240 H   0  0  0  0  0  0  0  0  0  0  0  0
   -7.0537   24.5290  -32.3427 H   0  0  0  0  0  0  0  0  0  0  0  0
   -5.5385   23.5484  -32.3223 H   0  0  0  0  0  0  0  0  0  0  0  0
   -9.1474   23.3069  -31.1942 H   0  0  0  0  0  0  0  0  0  0  0  0
  -10.4695   21.2004  -31.4066 H   0  0  0  0  0  0  0  0  0  0  0  0
   -9.3988   19.1384  -32.3244 H   0  0  0  0  0  0  0  0  0  0  0  0
   -7.0023   19.1798  -33.0229 H   0  0  0  0  0  0  0  0  0  0  0  0
   -5.6740   21.2822  -32.8153 H   0  0  0  0  0  0  0  0  0  0  0  0
   -5.2305   21.7275  -29.0783 H   0  0  0  0  0  0  0  0  0  0  0  0
    0.8085   20.5667  -30.1525 H   0  0  0  0  0  0  0  0  0  0  0  0
    2.6518   19.1041  -29.3377 H   0  0  0  0  0  0  0  0  0  0  0  0
  1  2  1  0
  2  3  2  0
  3  4  1  0
  4  5  2  0
  5  6  1  0
  6  7  1  0
  7  8  2  0
  7  9  1  0
  9 10  1  0
 10 11  2  0
 11 12  1  0
 11 13  1  0
 13 14  1  0
 14 15  1  0
 15 16  1  0
 16 17  2  0
 17 18  1  0
 18 19  2  0
 19 20  1  0
 20 21  2  0
 13 22  1  0
  5 23  1  0
 23 24  2  0
 24  2  1  0
 22  9  2  0
 21 16  1  0
  1 25  1  0
  1 26  1  0
  1 27  1  0
  3 28  1  0
  4 29  1  0
  6 30  1  0
 10 31  1  0
 14 32  1  0
 14 33  1  0
 15 34  1  0
 15 35  1  0
 17 36  1  0
 18 37  1  0
 19 38  1  0
 20 39  1  0
 21 40  1  0
 22 41  1  0
 23 42  1  0
 24 43  1  0
M  CHG  1  12  -1
M  END
>  <UniqueID>  (42) 
38

>  <SMILES>  (42) 
Cc1ccc(NC(=O)c2cc([O-])n(CCc3ccccc3)c2)cc1

>  <Energy>  (42) 
71.19056220874164

>  <Genealogy>  (42) 
Cc1ccc(NC(=O)c2cc([O-])n(CCc3ccccc3)c2)cc1 (protonated)
Cc1ccc(NC(=O)c2cc([O-])n(CCc3ccccc3)c2)cc1 (3D coordinates assigned)
Cc1ccc(NC(=O)c2cc([O-])n(CCc3ccccc3)c2)cc1 (optimized conformer: 71.19056220874164 kcal/mol)

>  <smiles>  (42) 
Cc1ccc(NC(=O)c2cc(O)n(CCc3ccccc3)c2)cc1

>  <score_type>  (42) 
oracle

>  <origin>  (42) 
adg

>  <m_score__min__energy>  (42) 
-10.630000000000001

>  <m_primary>  (42) 
energy

$$$$
44:0
     RDKit          3D

 34 34  0  0  0  0  0  0  0  0999 V2000
   -6.4840   25.6710  -29.3860 C   0  0  0  0  0  0  0  0  0  0  0  0
   -6.0090   25.3020  -30.6740 O   0  0  0  0  0  0  0  0  0  0  0  0
   -5.0260   24.3270  -30.8620 C   0  0  0  0  0  0  0  0  0  0  0  0
   -3.8020   24.6310  -30.8330 O   0  0  0  0  0  0  0  0  0  0  0  0
   -5.4280   22.9590  -31.1980 C   0  0  0  0  0  0  0  0  0  0  0  0
   -4.6040   21.8920  -31.1430 C   0  0  0  0  0  0  0  0  0  0  0  0
   -3.2440   21.8370  -31.6480 N   0  0  0  0  0  0  0  0  0  0  0  0
   -2.3810   20.9420  -30.8590 C   0  0  0  0  0  0  0  0  0  0  0  0
   -3.1830   21.5370  -33.0890 C   0  0  0  0  0  0  0  0  0  0  0  0
   -7.1220   22.6990  -31.6030 S   0  0  0  0  0  0  0  0  0  0  0  0
   -7.9890   23.0140  -30.4160 O   0  0  0  0  0  0  0  0  0  0  0  0
   -7.5220   23.6090  -32.7310 O   0  0  0  0  0  0  0  0  0  0  0  0
   -7.3460   21.0160  -32.0630 C   0  0  0  0  0  0  0  0  0  0  0  0
   -6.5720   20.4500  -33.0850 C   0  0  0  0  0  0  0  0  0  0  0  0
   -6.7390   19.1050  -33.4290 C   0  0  0  0  0  0  0  0  0  0  0  0
   -7.6750   18.3180  -32.7500 C   0  0  0  0  0  0  0  0  0  0  0  0
   -8.4430   18.8780  -31.7230 C   0  0  0  0  0  0  0  0  0  0  0  0
   -8.2780   20.2220  -31.3780 C   0  0  0  0  0  0  0  0  0  0  0  0
   -5.8644   25.1897  -28.6150 H   0  0  0  0  0  0  0  0  0  0  0  0
   -6.4266   26.7637  -29.2732 H   0  0  0  0  0  0  0  0  0  0  0  0
   -7.5286   25.3451  -29.2732 H   0  0  0  0  0  0  0  0  0  0  0  0
   -4.9991   20.9797  -30.6721 H   0  0  0  0  0  0  0  0  0  0  0  0
   -2.8520   22.8020  -31.5320 H   0  0  0  0  0  0  0  0  0  0  0  0
   -2.5518   21.1192  -29.7869 H   0  0  0  0  0  0  0  0  0  0  0  0
   -2.6198   19.8957  -31.1004 H   0  0  0  0  0  0  0  0  0  0  0  0
   -1.3267   21.1425  -31.1004 H   0  0  0  0  0  0  0  0  0  0  0  0
   -2.9657   20.4682  -33.2321 H   0  0  0  0  0  0  0  0  0  0  0  0
   -4.1490   21.7804  -33.5554 H   0  0  0  0  0  0  0  0  0  0  0  0
   -2.3888   22.1383  -33.5554 H   0  0  0  0  0  0  0  0  0  0  0  0
   -5.8317   21.0650  -33.6176 H   0  0  0  0  0  0  0  0  0  0  0  0
   -6.1333   18.6651  -34.2350 H   0  0  0  0  0  0  0  0  0  0  0  0
   -7.8072   17.2606  -33.0229 H   0  0  0  0  0  0  0  0  0  0  0  0
   -9.1776   18.2594  -31.1866 H   0  0  0  0  0  0  0  0  0  0  0  0
   -8.8802   20.6584  -30.5675 H   0  0  0  0  0  0  0  0  0  0  0  0
  1  2  1  0
  2  3  1  0
  3  4  2  0
  3  5  1  0
  5  6  2  3
  6  7  1  0
  7  8  1  0
  7  9  1  0
  5 10  1  0
 10 11  2  0
 10 12  2  0
 10 13  1  0
 13 14  2  0
 14 15  1  0
 15 16  2  0
 16 17  1  0
 17 18  2  0
 18 13  1  0
  1 19  1  0
  1 20  1  0
  1 21  1  0
  6 22  1  0
  7 23  1  0
  8 24  1  0
  8 25  1  0
  8 26  1  0
  9 27  1  0
  9 28  1  0
  9 29  1  0
 14 30  1  0
 15 31  1  0
 16 32  1  0
 17 33  1  0
 18 34  1  0
M  CHG  1   7   1
M  END
>  <UniqueID>  (43) 
39

>  <SMILES>  (43) 
COC(=O)C(=C[NH+](C)C)S(=O)(=O)c1ccccc1

>  <Energy>  (43) 
42.89243007645372

>  <Genealogy>  (43) 
COC(=O)C(=C[NH+](C)C)S(=O)(=O)c1ccccc1 (protonated)
COC(=O)C(=C[NH+](C)C)S(=O)(=O)c1ccccc1 (3D coordinates assigned)
COC(=O)C(=C[NH+](C)C)S(=O)(=O)c1ccccc1 (optimized conformer: 42.89243007645372 kcal/mol)

>  <smiles>  (43) 
COC(=O)C(=CN(C)C)S(=O)(=O)c1ccccc1

>  <score_type>  (43) 
oracle

>  <origin>  (43) 
adg

>  <m_score__min__energy>  (43) 
-5.6799999999999997

>  <m_primary>  (43) 
energy

$$$$
45:0
     RDKit          3D

 44 47  0  0  0  0  0  0  0  0999 V2000
   -1.6060   25.9500  -28.9680 N   0  0  0  0  0  0  0  0  0  0  0  0
   -0.9910   24.6640  -29.0580 C   0  0  0  0  0  0  0  0  0  0  0  0
    0.1580   24.5090  -28.5640 O   0  0  0  0  0  0  0  0  0  0  0  0
   -1.6820   23.5210  -29.7200 C   0  0  0  0  0  0  0  0  0  0  0  0
   -1.0850   22.2500  -29.6920 C   0  0  0  0  0  0  0  0  0  0  0  0
   -1.6770   21.1690  -30.2790 N   0  0  0  0  0  0  0  0  0  0  0  0
   -0.9920   19.9080  -30.1780 C   0  0  0  0  0  0  0  0  0  0  0  0
   -0.7920   19.3170  -28.9210 C   0  0  0  0  0  0  0  0  0  0  0  0
   -0.1240   18.0930  -28.8200 C   0  0  0  0  0  0  0  0  0  0  0  0
    0.3430   17.4510  -29.9720 C   0  0  0  0  0  0  0  0  0  0  0  0
    0.9910   16.2650  -29.8720 F   0  0  0  0  0  0  0  0  0  0  0  0
    0.1400   18.0330  -31.2270 C   0  0  0  0  0  0  0  0  0  0  0  0
   -0.5270   19.2580  -31.3330 C   0  0  0  0  0  0  0  0  0  0  0  0
   -0.7200   19.8150  -32.5550 F   0  0  0  0  0  0  0  0  0  0  0  0
   -2.8810   21.2900  -30.9350 C   0  0  0  0  0  0  0  0  0  0  0  0
   -3.4920   20.1850  -31.5710 C   0  0  0  0  0  0  0  0  0  0  0  0
   -4.7190   20.3180  -32.2330 C   0  0  0  0  0  0  0  0  0  0  0  0
   -5.3210   19.1780  -32.8690 N   0  0  0  0  0  0  0  0  0  0  0  0
   -4.8580   18.7520  -34.1950 C   0  0  0  0  0  0  0  0  0  0  0  0
   -4.4620   17.2760  -34.1670 C   0  0  0  0  0  0  0  0  0  0  0  0
   -5.7890   16.1460  -33.5860 S   0  0  0  0  0  0  0  0  0  0  0  0
   -7.0320   17.3810  -33.0590 C   0  0  0  0  0  0  0  0  0  0  0  0
   -6.4110   18.4690  -32.1840 C   0  0  0  0  0  0  0  0  0  0  0  0
   -5.3520   21.5670  -32.2690 C   0  0  0  0  0  0  0  0  0  0  0  0
   -6.5300   21.7210  -32.9210 F   0  0  0  0  0  0  0  0  0  0  0  0
   -4.7620   22.6720  -31.6550 C   0  0  0  0  0  0  0  0  0  0  0  0
   -3.5270   22.5500  -30.9880 C   0  0  0  0  0  0  0  0  0  0  0  0
   -2.9220   23.6640  -30.3770 C   0  0  0  0  0  0  0  0  0  0  0  0
   -3.4930   24.7870  -30.4200 O   0  0  0  0  0  0  0  0  0  0  0  0
   -2.6450   26.0510  -28.9790 H   0  0  0  0  0  0  0  0  0  0  0  0
   -0.1172   22.1226  -29.1849 H   0  0  0  0  0  0  0  0  0  0  0  0
   -1.1614   19.8175  -28.0138 H   0  0  0  0  0  0  0  0  0  0  0  0
    0.0347   17.6339  -27.8331 H   0  0  0  0  0  0  0  0  0  0  0  0
    0.5054   17.5267  -32.1326 H   0  0  0  0  0  0  0  0  0  0  0  0
   -2.9951   19.2039  -31.5454 H   0  0  0  0  0  0  0  0  0  0  0  0
   -5.6668   18.8974  -34.9262 H   0  0  0  0  0  0  0  0  0  0  0  0
   -3.9819   19.3533  -34.4794 H   0  0  0  0  0  0  0  0  0  0  0  0
   -4.1770   16.9767  -35.1864 H   0  0  0  0  0  0  0  0  0  0  0  0
   -3.6351   17.1861  -33.4471 H   0  0  0  0  0  0  0  0  0  0  0  0
   -7.4707   17.8491  -33.9525 H   0  0  0  0  0  0  0  0  0  0  0  0
   -7.8015   16.8628  -32.4679 H   0  0  0  0  0  0  0  0  0  0  0  0
   -7.1918   19.1955  -31.9146 H   0  0  0  0  0  0  0  0  0  0  0  0
   -5.9896   17.9843  -31.2910 H   0  0  0  0  0  0  0  0  0  0  0  0
   -5.2663   23.6489  -31.6920 H   0  0  0  0  0  0  0  0  0  0  0  0
  1  2  1  0
  2  3  2  0
  2  4  1  0
  4  5  2  0
  5  6  1  0
  6  7  1  0
  7  8  2  0
  8  9  1  0
  9 10  2  0
 10 11  1  0
 10 12  1  0
 12 13  2  0
 13 14  1  0
  6 15  1  0
 15 16  2  0
 16 17  1  0
 17 18  1  0
 18 19  1  0
 19 20  1  0
 20 21  1  0
 21 22  1  0
 22 23  1  0
 17 24  2  0
 24 25  1  0
 24 26  1  0
 26 27  2  0
 27 28  1  0
 28 29  2  0
 28  4  1  0
 13  7  1  0
 27 15  1  0
 23 18  1  0
  1 30  1  0
  5 31  1  0
  8 32  1  0
  9 33  1  0
 12 34  1  0
 16 35  1  0
 19 36  1  0
 19 37  1  0
 20 38  1  0
 20 39  1  0
 22 40  1  0
 22 41  1  0
 23 42  1  0
 23 43  1  0
 26 44  1  0
M  CHG  1   1  -1
M  END
>  <UniqueID>  (44) 
40

>  <SMILES>  (44) 
[NH-]C(=O)c1cn(-c2ccc(F)cc2F)c2cc(N3CCSCC3)c(F)cc2c1=O

>  <Energy>  (44) 
71.3279738653824

>  <Genealogy>  (44) 
[NH-]C(=O)c1cn(-c2ccc(F)cc2F)c2cc(N3CCSCC3)c(F)cc2c1=O (protonated)
[NH-]C(=O)c1cn(-c2ccc(F)cc2F)c2cc(N3CCSCC3)c(F)cc2c1=O (3D coordinates assigned)
[NH-]C(=O)c1cn(-c2ccc(F)cc2F)c2cc(N3CCSCC3)c(F)cc2c1=O (nonaromatic ring conformer: 71.3279738653824 kcal/mol)

>  <smiles>  (44) 
NC(=O)c1cn(-c2ccc(F)cc2F)c2cc(N3CCSCC3)c(F)cc2c1=O

>  <score_type>  (44) 
oracle

>  <origin>  (44) 
adg

>  <m_score__min__energy>  (44) 
-11

>  <m_primary>  (44) 
energy

$$$$
46:0
     RDKit          3D

 53 55  0  0  0  0  0  0  0  0999 V2000
   -5.7220   18.6490  -34.5770 C   0  0  0  0  0  0  0  0  0  0  0  0
   -6.4480   18.5150  -33.3590 O   0  0  0  0  0  0  0  0  0  0  0  0
   -7.2990   19.4980  -32.8290 C   0  0  0  0  0  0  0  0  0  0  0  0
   -8.6910   19.3050  -32.7210 C   0  0  0  0  0  0  0  0  0  0  0  0
   -9.5030   20.3100  -32.1860 C   0  0  0  0  0  0  0  0  0  0  0  0
   -8.9440   21.5140  -31.7550 C   0  0  0  0  0  0  0  0  0  0  0  0
   -7.5620   21.7180  -31.8580 C   0  0  0  0  0  0  0  0  0  0  0  0
   -6.9690   22.9100  -31.4350 C   0  0  0  0  0  0  0  0  0  0  0  0
   -5.5810   23.0870  -31.5520 C   0  0  0  0  0  0  0  0  0  0  0  0
   -4.9530   24.3590  -31.1000 C   0  0  0  0  0  0  0  0  0  0  0  0
   -5.5740   25.4510  -31.2100 O   0  0  0  0  0  0  0  0  0  0  0  0
   -3.6130   24.3520  -30.5860 N   0  0  0  0  0  0  0  0  0  0  0  0
   -3.2190   24.5510  -29.2210 C   0  0  0  0  0  0  0  0  0  0  0  0
   -1.8950   24.9160  -28.9500 C   0  0  0  0  0  0  0  0  0  0  0  0
   -1.4640   25.1020  -27.6330 C   0  0  0  0  0  0  0  0  0  0  0  0
   -2.3550   24.9090  -26.5600 C   0  0  0  0  0  0  0  0  0  0  0  0
   -1.9790   25.0820  -25.2180 O   0  0  0  0  0  0  0  0  0  0  0  0
   -0.6930   25.5100  -24.7680 C   0  0  0  0  0  0  0  0  0  0  0  0
   -0.7530   26.9500  -24.2410 C   0  0  0  0  0  0  0  0  0  0  0  0
   -0.0270   27.1620  -22.8900 C   0  0  0  0  0  0  0  0  0  0  0  0
    1.4140   27.5260  -22.9530 N   0  0  0  0  0  0  0  0  0  0  0  0
    2.1660   26.7770  -23.9760 C   0  0  0  0  0  0  0  0  0  0  0  0
    1.6440   28.9760  -23.0790 C   0  0  0  0  0  0  0  0  0  0  0  0
   -3.6720   24.5190  -26.8330 C   0  0  0  0  0  0  0  0  0  0  0  0
   -4.1030   24.3340  -28.1500 C   0  0  0  0  0  0  0  0  0  0  0  0
   -4.8280   22.0260  -32.1050 C   0  0  0  0  0  0  0  0  0  0  0  0
   -3.5790   22.1200  -32.2390 O   0  0  0  0  0  0  0  0  0  0  0  0
   -5.4270   20.9040  -32.4950 O   0  0  0  0  0  0  0  0  0  0  0  0
   -6.7380   20.7100  -32.3970 C   0  0  0  0  0  0  0  0  0  0  0  0
   -4.6629   18.8445  -34.3530 H   0  0  0  0  0  0  0  0  0  0  0  0
   -5.8082   17.7198  -35.1593 H   0  0  0  0  0  0  0  0  0  0  0  0
   -6.1342   19.4862  -35.1593 H   0  0  0  0  0  0  0  0  0  0  0  0
   -9.1406   18.3597  -33.0590 H   0  0  0  0  0  0  0  0  0  0  0  0
  -10.5883   20.1507  -32.1044 H   0  0  0  0  0  0  0  0  0  0  0  0
   -9.5875   22.3012  -31.3352 H   0  0  0  0  0  0  0  0  0  0  0  0
   -7.5906   23.7115  -31.0094 H   0  0  0  0  0  0  0  0  0  0  0  0
   -1.1876   25.0577  -29.7804 H   0  0  0  0  0  0  0  0  0  0  0  0
   -0.4241   25.4005  -27.4342 H   0  0  0  0  0  0  0  0  0  0  0  0
   -0.3531   24.8443  -23.9610 H   0  0  0  0  0  0  0  0  0  0  0  0
    0.0079   25.4728  -25.6150 H   0  0  0  0  0  0  0  0  0  0  0  0
   -0.2900   27.6106  -24.9888 H   0  0  0  0  0  0  0  0  0  0  0  0
   -1.8149   27.1796  -24.0687 H   0  0  0  0  0  0  0  0  0  0  0  0
   -0.5505   27.9671  -22.3536 H   0  0  0  0  0  0  0  0  0  0  0  0
   -0.0549   26.1819  -22.3913 H   0  0  0  0  0  0  0  0  0  0  0  0
    1.8220   27.2500  -22.0270 H   0  0  0  0  0  0  0  0  0  0  0  0
    2.8630   26.0828  -23.4837 H   0  0  0  0  0  0  0  0  0  0  0  0
    1.4643   26.2083  -24.6038 H   0  0  0  0  0  0  0  0  0  0  0  0
    2.7319   27.4810  -24.6038 H   0  0  0  0  0  0  0  0  0  0  0  0
    1.7151   29.4244  -22.0771 H   0  0  0  0  0  0  0  0  0  0  0  0
    2.5813   29.1523  -23.6270 H   0  0  0  0  0  0  0  0  0  0  0  0
    0.8072   29.4337  -23.6270 H   0  0  0  0  0  0  0  0  0  0  0  0
   -4.3747   24.3565  -26.0025 H   0  0  0  0  0  0  0  0  0  0  0  0
   -5.1376   24.0175  -28.3488 H   0  0  0  0  0  0  0  0  0  0  0  0
  1  2  1  0
  2  3  1  0
  3  4  2  0
  4  5  1  0
  5  6  2  0
  6  7  1  0
  7  8  1  0
  8  9  2  0
  9 10  1  0
 10 11  2  0
 10 12  1  0
 12 13  1  0
 13 14  2  0
 14 15  1  0
 15 16  2  0
 16 17  1  0
 17 18  1  0
 18 19  1  0
 19 20  1  0
 20 21  1  0
 21 22  1  0
 21 23  1  0
 16 24  1  0
 24 25  2  0
  9 26  1  0
 26 27  2  0
 26 28  1  0
 28 29  1  0
 29  3  1  0
 29  7  2  0
 25 13  1  0
  1 30  1  0
  1 31  1  0
  1 32  1  0
  4 33  1  0
  5 34  1  0
  6 35  1  0
  8 36  1  0
 14 37  1  0
 15 38  1  0
 18 39  1  0
 18 40  1  0
 19 41  1  0
 19 42  1  0
 20 43  1  0
 20 44  1  0
 21 45  1  0
 22 46  1  0
 22 47  1  0
 22 48  1  0
 23 49  1  0
 23 50  1  0
 23 51  1  0
 24 52  1  0
 25 53  1  0
M  CHG  2  12  -1  21   1
M  END
>  <UniqueID>  (45) 
41

>  <SMILES>  (45) 
COc1cccc2cc(C(=O)[N-]c3ccc(OCCC[NH+](C)C)cc3)c(=O)oc12

>  <Energy>  (45) 
69.07770100484713

>  <Genealogy>  (45) 
COc1cccc2cc(C(=O)[N-]c3ccc(OCCC[NH+](C)C)cc3)c(=O)oc12 (protonated)
COc1cccc2cc(C(=O)[N-]c3ccc(OCCC[NH+](C)C)cc3)c(=O)oc12 (3D coordinates assigned)
COc1cccc2cc(C(=O)[N-]c3ccc(OCCC[NH+](C)C)cc3)c(=O)oc12 (optimized conformer: 69.07770100484713 kcal/mol)

>  <smiles>  (45) 
COc1cccc2cc(C(=O)Nc3ccc(OCCCN(C)C)cc3)c(=O)oc12

>  <score_type>  (45) 
oracle

>  <origin>  (45) 
adg

>  <m_score__min__energy>  (45) 
-10.779999999999999

>  <m_primary>  (45) 
energy

$$$$
47:0
     RDKit          3D

 32 34  0  0  0  0  0  0  0  0999 V2000
   -8.7548   23.7650  -32.2976 H   0  0  0  0  0  0  0  0  0  0  0  0
   -8.1420   23.1330  -31.6380 C   0  0  0  0  0  0  0  0  0  0  0  0
   -8.6480   21.9410  -31.2810 C   0  0  0  0  0  0  0  0  0  0  0  0
   -9.4895   21.9420  -30.5726 H   0  0  0  0  0  0  0  0  0  0  0  0
   -8.1670   20.6260  -31.7620 C   0  0  0  0  0  0  0  0  0  0  0  0
   -8.7310   19.4310  -31.2870 C   0  0  0  0  0  0  0  0  0  0  0  0
   -9.5292   19.4604  -30.5307 H   0  0  0  0  0  0  0  0  0  0  0  0
   -8.2770   18.2080  -31.7760 C   0  0  0  0  0  0  0  0  0  0  0  0
   -8.7061   17.2689  -31.3964 H   0  0  0  0  0  0  0  0  0  0  0  0
   -7.2740   18.1770  -32.7510 C   0  0  0  0  0  0  0  0  0  0  0  0
   -6.7970   16.9600  -33.2600 C   0  0  0  0  0  0  0  0  0  0  0  0
   -7.2070   16.0096  -32.8877 H   0  0  0  0  0  0  0  0  0  0  0  0
   -5.8010   16.9550  -34.2400 C   0  0  0  0  0  0  0  0  0  0  0  0
   -5.4272   15.9996  -34.6367 H   0  0  0  0  0  0  0  0  0  0  0  0
   -5.2780   18.1600  -34.7180 C   0  0  0  0  0  0  0  0  0  0  0  0
   -4.4947   18.1501  -35.4902 H   0  0  0  0  0  0  0  0  0  0  0  0
   -5.7480   19.3780  -34.2170 C   0  0  0  0  0  0  0  0  0  0  0  0
   -5.3334   20.3237  -34.5961 H   0  0  0  0  0  0  0  0  0  0  0  0
   -6.7470   19.3970  -33.2320 C   0  0  0  0  0  0  0  0  0  0  0  0
   -7.2110   20.5820  -32.7360 N   0  0  0  0  0  0  0  0  0  0  0  0
   -6.8170   21.4810  -33.0980 H   0  0  0  0  0  0  0  0  0  0  0  0
   -6.8270   23.6650  -31.2160 C   0  0  0  0  0  0  0  0  0  0  0  0
   -5.6240   23.0340  -31.5830 C   0  0  0  0  0  0  0  0  0  0  0  0
   -5.6497   22.1108  -32.1806 H   0  0  0  0  0  0  0  0  0  0  0  0
   -4.3960   23.5760  -31.1910 C   0  0  0  0  0  0  0  0  0  0  0  0
   -3.4590   23.0696  -31.4659 H   0  0  0  0  0  0  0  0  0  0  0  0
   -4.3580   24.7610  -30.4500 C   0  0  0  0  0  0  0  0  0  0  0  0
   -3.1360   25.2970  -30.0590 O   0  0  0  0  0  0  0  0  0  0  0  0
   -5.5470   25.4090  -30.1060 C   0  0  0  0  0  0  0  0  0  0  0  0
   -5.5154   26.3442  -29.5278 H   0  0  0  0  0  0  0  0  0  0  0  0
   -6.7780   24.8700  -30.4960 C   0  0  0  0  0  0  0  0  0  0  0  0
   -7.7111   25.3921  -30.2377 H   0  0  0  0  0  0  0  0  0  0  0  0
  1  2  1  0
  2  3  2  0
  3  4  1  0
  3  5  1  0
  5  6  2  0
  6  7  1  0
  6  8  1  0
  8  9  1  0
  8 10  2  0
 10 11  1  0
 11 12  1  0
 11 13  2  0
 13 14  1  0
 13 15  1  0
 15 16  1  0
 15 17  2  0
 17 18  1  0
 17 19  1  0
 19 20  2  0
 20 21  1  0
  2 22  1  0
 22 23  2  0
 23 24  1  0
 23 25  1  0
 25 26  1  0
 25 27  2  0
 27 28  1  0
 27 29  1  0
 29 30  1  0
 29 31  2  0
 31 32  1  0
 20  5  1  0
 31 22  1  0
 19 10  1  0
M  CHG  2  20   1  28  -1
M  END
>  <UniqueID>  (46) 
42

>  <SMILES>  (46) 
[O-]c1ccc(/C=C\c2ccc3ccccc3[nH+]2)cc1

>  <Energy>  (46) 
47.59078227163721

>  <Genealogy>  (46) 
[O-]c1ccc(C=Cc2ccc3ccccc3[nH+]2)cc1 (protonated)
[O-]c1ccc(/C=C\c2ccc3ccccc3[nH+]2)cc1 (cis-trans isomerization)
[O-]c1ccc(/C=C\c2ccc3ccccc3[nH+]2)cc1 (3D coordinates assigned)
[O-]c1ccc(/C=C\c2ccc3ccccc3[nH+]2)cc1 (optimized conformer: 47.59078227163721 kcal/mol)

>  <smiles>  (46) 
Oc1ccc(C=Cc2ccc3ccccc3n2)cc1

>  <score_type>  (46) 
oracle

>  <origin>  (46) 
adg

>  <m_score__min__energy>  (46) 
-11.35

>  <m_primary>  (46) 
energy

$$$$
48:0
     RDKit          3D

 25 26  0  0  1  0  0  0  0  0999 V2000
   -6.4010   19.5090  -33.4560 C   0  0  0  0  0  0  0  0  0  0  0  0
   -6.9660   20.5290  -32.5240 C   0  0  0  0  0  0  0  0  0  0  0  0
   -6.1900   21.6370  -32.2500 C   0  0  0  0  0  0  0  0  0  0  0  0
   -6.7290   22.5920  -31.3920 C   0  0  0  0  0  0  0  0  0  0  0  0
   -5.9710   23.7790  -31.0490 C   0  0  0  0  0  0  0  0  0  0  0  0
   -5.6230   24.5560  -31.9730 O   0  0  0  0  0  0  0  0  0  0  0  0
   -5.6350   24.0500  -29.6860 N   0  0  0  0  0  0  0  0  0  0  0  0
   -4.4040   24.3040  -29.3700 C   0  0  0  0  0  0  0  0  0  0  0  0
   -3.8770   24.1840  -28.1500 N   0  0  0  0  0  0  0  0  0  0  0  0
   -2.5650   24.5360  -28.1950 C   0  0  0  0  0  0  0  0  0  0  0  0
   -2.2930   24.8740  -29.4540 N   0  0  0  0  0  0  0  0  0  0  0  0
   -3.4060   24.7320  -30.1630 N   0  0  0  0  0  0  0  0  0  0  0  0
   -8.0010   22.4050  -30.8500 C   0  0  0  0  0  0  0  0  0  0  0  0
   -8.7490   21.2840  -31.1480 C   0  0  0  0  0  0  0  0  0  0  0  0
   -8.2160   20.3350  -31.9990 C   0  0  0  0  0  0  0  0  0  0  0  0
   -9.1380   18.8900  -32.3830 Cl  0  0  0  0  0  0  0  0  0  0  0  0
   -5.9485   18.6920  -32.8748 H   0  0  0  0  0  0  0  0  0  0  0  0
   -7.2048   19.1065  -34.0900 H   0  0  0  0  0  0  0  0  0  0  0  0
   -5.6334   19.9769  -34.0900 H   0  0  0  0  0  0  0  0  0  0  0  0
   -5.1895   21.7602  -32.6902 H   0  0  0  0  0  0  0  0  0  0  0  0
   -1.8604   24.5408  -27.3503 H   0  0  0  0  0  0  0  0  0  0  0  0
   -1.3650   25.1980  -29.8120 H   0  0  0  0  0  0  0  0  0  0  0  0
   -3.4890   24.9320  -31.2060 H   0  0  0  0  0  0  0  0  0  0  0  0
   -8.4157   23.1656  -30.1721 H   0  0  0  0  0  0  0  0  0  0  0  0
   -9.7514   21.1486  -30.7158 H   0  0  0  0  0  0  0  0  0  0  0  0
  1  2  1  0
  2  3  2  0
  3  4  1  0
  4  5  1  0
  5  6  2  0
  5  7  1  0
  7  8  2  0
  8  9  1  0
  9 10  2  0
 10 11  1  0
 11 12  1  0
  4 13  2  0
 13 14  1  0
 14 15  2  0
 15 16  1  0
 15  2  1  0
 12  8  1  0
  1 17  1  0
  1 18  1  0
  1 19  1  0
  3 20  1  0
 10 21  1  0
 11 22  1  0
 12 23  1  0
 13 24  1  0
 14 25  1  0
M  END
>  <smiles>  (47) 
Cc1cc(C(=O)N=c2nc[nH][nH]2)ccc1Cl

>  <score_type>  (47) 
oracle

>  <origin>  (47) 
adg

>  <m_score__min__energy>  (47) 
-7.2000000000000002

>  <m_primary>  (47) 
energy

$$$$
49:0
     RDKit          3D

 46 48  0  0  0  0  0  0  0  0999 V2000
    0.1925   22.5223  -27.6857 H   0  0  0  0  0  0  0  0  0  0  0  0
   -0.5960   23.0450  -28.2470 C   0  0  0  0  0  0  0  0  0  0  0  0
   -1.0690   22.5290  -29.4580 C   0  0  0  0  0  0  0  0  0  0  0  0
   -0.5140   21.2530  -30.0060 C   0  0  0  0  0  0  0  0  0  0  0  0
   -0.2263   20.5917  -29.1754 H   0  0  0  0  0  0  0  0  0  0  0  0
   -1.2773   20.7562  -30.6228 H   0  0  0  0  0  0  0  0  0  0  0  0
    0.3699   21.4726  -30.6228 H   0  0  0  0  0  0  0  0  0  0  0  0
   -2.0570   23.1800  -30.1280 N   0  0  0  0  0  0  0  0  0  0  0  0
   -2.5980   24.3270  -29.6440 C   0  0  0  0  0  0  0  0  0  0  0  0
   -3.5300   24.9280  -30.3230 N   0  0  0  0  0  0  0  0  0  0  0  0
   -4.8130   24.3680  -30.6450 C   0  0  0  0  0  0  0  0  0  0  0  0
   -5.9590   24.9610  -30.1000 C   0  0  0  0  0  0  0  0  0  0  0  0
   -5.8595   25.8308  -29.4340 H   0  0  0  0  0  0  0  0  0  0  0  0
   -7.2270   24.4560  -30.3960 C   0  0  0  0  0  0  0  0  0  0  0  0
   -8.1207   24.9185  -29.9518 H   0  0  0  0  0  0  0  0  0  0  0  0
   -7.3600   23.3650  -31.2550 C   0  0  0  0  0  0  0  0  0  0  0  0
   -8.3583   22.9604  -31.4778 H   0  0  0  0  0  0  0  0  0  0  0  0
   -6.2280   22.7850  -31.8330 C   0  0  0  0  0  0  0  0  0  0  0  0
   -6.3400   21.9296  -32.5155 H   0  0  0  0  0  0  0  0  0  0  0  0
   -4.9440   23.2890  -31.5470 C   0  0  0  0  0  0  0  0  0  0  0  0
   -3.7920   22.7650  -32.1560 O   0  0  0  0  0  0  0  0  0  0  0  0
   -3.7590   21.5760  -32.9380 C   0  0  0  0  0  0  0  0  0  0  0  0
   -3.7347   20.7002  -32.2728 H   0  0  0  0  0  0  0  0  0  0  0  0
   -4.6562   21.5296  -33.5727 H   0  0  0  0  0  0  0  0  0  0  0  0
   -2.8606   21.5794  -33.5727 H   0  0  0  0  0  0  0  0  0  0  0  0
   -2.1330   24.8480  -28.4740 N   0  0  0  0  0  0  0  0  0  0  0  0
   -1.1450   24.2410  -27.7610 C   0  0  0  0  0  0  0  0  0  0  0  0
   -0.6970   24.8290  -26.5220 N   0  0  0  0  0  0  0  0  0  0  0  0
   -1.3330   26.0360  -25.9740 C   0  0  0  0  0  0  0  0  0  0  0  0
   -0.8536   26.9267  -26.4061 H   0  0  0  0  0  0  0  0  0  0  0  0
   -2.4032   26.0231  -26.2281 H   0  0  0  0  0  0  0  0  0  0  0  0
   -1.1830   26.0710  -24.4460 C   0  0  0  0  0  0  0  0  0  0  0  0
   -1.5967   27.0207  -24.0761 H   0  0  0  0  0  0  0  0  0  0  0  0
   -1.7226   25.2002  -24.0453 H   0  0  0  0  0  0  0  0  0  0  0  0
    0.2310   25.9620  -23.9910 N   0  0  0  0  0  0  0  0  0  0  0  0
    0.2280   25.4190  -23.0940 H   0  0  0  0  0  0  0  0  0  0  0  0
    0.7850   27.2920  -23.6750 C   0  0  0  0  0  0  0  0  0  0  0  0
    0.8373   27.4175  -22.5834 H   0  0  0  0  0  0  0  0  0  0  0  0
    1.7945   27.3798  -24.1030 H   0  0  0  0  0  0  0  0  0  0  0  0
    0.1363   28.0705  -24.1030 H   0  0  0  0  0  0  0  0  0  0  0  0
    1.1280   25.2490  -24.9380 C   0  0  0  0  0  0  0  0  0  0  0  0
    1.5736   25.9843  -25.6242 H   0  0  0  0  0  0  0  0  0  0  0  0
    1.8978   24.7320  -24.3463 H   0  0  0  0  0  0  0  0  0  0  0  0
    0.3850   24.1930  -25.7630 C   0  0  0  0  0  0  0  0  0  0  0  0
    1.0875   23.7131  -26.4603 H   0  0  0  0  0  0  0  0  0  0  0  0
   -0.0403   23.4363  -25.0874 H   0  0  0  0  0  0  0  0  0  0  0  0
  1  2  1  0
  2  3  1  0
  3  4  1  0
  4  5  1  0
  4  6  1  0
  4  7  1  0
  3  8  2  0
  8  9  1  0
  9 10  2  0
 10 11  1  0
 11 12  2  0
 12 13  1  0
 12 14  1  0
 14 15  1  0
 14 16  2  0
 16 17  1  0
 16 18  1  0
 18 19  1  0
 18 20  2  0
 20 21  1  0
 21 22  1  0
 22 23  1  0
 22 24  1  0
 22 25  1  0
  9 26  1  0
 26 27  1  0
 27 28  1  0
 28 29  1  0
 29 30  1  0
 29 31  1  0
 29 32  1  0
 32 33  1  0
 32 34  1  0
 32 35  1  0
 35 36  1  0
 35 37  1  0
 37 38  1  0
 37 39  1  0
 37 40  1  0
 35 41  1  0
 41 42  1  0
 41 43  1  0
 41 44  1  0
 44 45  1  0
 44 46  1  0
 27  2  2  0
 44 28  1  0
 20 11  1  0
M  CHG  2  26  -1  35   1
M  END
>  <UniqueID>  (48) 
43

>  <SMILES>  (48) 
COc1ccccc1/N=c1/nc(C)cc(N2CC[NH+](C)CC2)[n-]1

>  <Energy>  (48) 
60.84275210983657

>  <Genealogy>  (48) 
COc1ccccc1N=c1nc(C)cc(N2CC[NH+](C)CC2)[n-]1 (protonated)
COc1ccccc1/N=c1/nc(C)cc(N2CC[NH+](C)CC2)[n-]1 (cis-trans isomerization)
COc1ccccc1/N=c1/nc(C)cc(N2CC[NH+](C)CC2)[n-]1 (3D coordinates assigned)
COc1ccccc1/N=c1/nc(C)cc(N2CC[NH+](C)CC2)[n-]1 (nonaromatic ring conformer: 60.84275210983657 kcal/mol)

>  <smiles>  (48) 
COc1ccccc1N=c1nc(C)cc(N2CCN(C)CC2)[nH]1

>  <score_type>  (48) 
oracle

>  <origin>  (48) 
adg

>  <m_score__min__energy>  (48) 
-8.3399999999999999

>  <m_primary>  (48) 
energy

$$$$
