0:0
     RDKit          3D

 73 77  0  0  0  0  0  0  0  0999 V2000
   -2.6450   17.5760  -33.9940 C   0  0  0  0  0  0  0  0  0  0  0  0
   -3.6080   16.3860  -33.8350 C   0  0  0  0  0  0  0  0  0  0  0  0
   -4.9360   16.5270  -34.5030 N   0  0  0  0  0  0  0  0  0  0  0  0
   -6.1130   16.1370  -33.6810 C   0  0  0  0  0  0  0  0  0  0  0  0
   -6.8070   14.8810  -34.2220 C   0  0  0  0  0  0  0  0  0  0  0  0
   -5.1240   17.8420  -35.1700 C   0  0  0  0  0  0  0  0  0  0  0  0
   -5.9770   18.8490  -34.3830 C   0  0  0  0  0  0  0  0  0  0  0  0
   -5.4800   18.9650  -33.0120 N   0  0  0  0  0  0  0  0  0  0  0  0
   -5.7680   20.1260  -32.2160 C   0  0  0  0  0  0  0  0  0  0  0  0
   -4.7390   20.7750  -31.5420 C   0  0  0  0  0  0  0  0  0  0  0  0
   -4.9760   21.9360  -30.8350 C   0  0  0  0  0  0  0  0  0  0  0  0
   -6.2010   22.5560  -30.8500 N   0  0  0  0  0  0  0  0  0  0  0  0
   -6.3330   23.9500  -30.3980 C   0  0  0  0  0  0  0  0  0  0  0  0
   -7.2840   21.8590  -31.3610 C   0  0  0  0  0  0  0  0  0  0  0  0
   -8.6130   22.3150  -31.1830 C   0  0  0  0  0  0  0  0  0  0  0  0
   -9.6920   21.6010  -31.7010 C   0  0  0  0  0  0  0  0  0  0  0  0
   -9.4830   20.4100  -32.3890 C   0  0  0  0  0  0  0  0  0  0  0  0
   -8.1910   19.9180  -32.5610 C   0  0  0  0  0  0  0  0  0  0  0  0
   -7.0790   20.6280  -32.0650 C   0  0  0  0  0  0  0  0  0  0  0  0
   -3.7100   22.3440  -30.2100 C   0  0  0  0  0  0  0  0  0  0  0  0
   -3.4400   23.3040  -29.2280 C   0  0  0  0  0  0  0  0  0  0  0  0
   -2.1220   23.4450  -28.7450 C   0  0  0  0  0  0  0  0  0  0  0  0
   -1.8110   24.4410  -27.7920 C   0  0  0  0  0  0  0  0  0  0  0  0
   -2.8320   25.2870  -27.3240 O   0  0  0  0  0  0  0  0  0  0  0  0
   -3.3040   25.3240  -25.9810 C   0  0  0  0  0  0  0  0  0  0  0  0
   -0.4860   24.5680  -27.3340 C   0  0  0  0  0  0  0  0  0  0  0  0
    0.5140   23.7240  -27.8130 C   0  0  0  0  0  0  0  0  0  0  0  0
    0.2170   22.7330  -28.7460 C   0  0  0  0  0  0  0  0  0  0  0  0
   -1.0980   22.5710  -29.2190 C   0  0  0  0  0  0  0  0  0  0  0  0
   -1.4180   21.5480  -30.1450 C   0  0  0  0  0  0  0  0  0  0  0  0
   -0.4330   20.5980  -30.5810 N   0  0  0  0  0  0  0  0  0  0  0  0
    0.1140   20.6830  -31.9330 C   0  0  0  0  0  0  0  0  0  0  0  0
   -0.1200   19.4520  -29.7300 C   0  0  0  0  0  0  0  0  0  0  0  0
   -2.7320   21.4570  -30.6180 C   0  0  0  0  0  0  0  0  0  0  0  0
   -3.2910   20.3880  -31.5060 C   0  0  0  0  0  0  0  0  0  0  0  0
   -2.3482   17.9428  -33.0003 H   0  0  0  0  0  0  0  0  0  0  0  0
   -1.7511   17.2529  -34.5477 H   0  0  0  0  0  0  0  0  0  0  0  0
   -3.1474   18.3829  -34.5477 H   0  0  0  0  0  0  0  0  0  0  0  0
   -3.1145   15.4953  -34.2511 H   0  0  0  0  0  0  0  0  0  0  0  0
   -3.8225   16.3189  -32.7582 H   0  0  0  0  0  0  0  0  0  0  0  0
   -4.9130   15.8510  -35.3040 H   0  0  0  0  0  0  0  0  0  0  0  0
   -5.7771   15.9407  -32.6521 H   0  0  0  0  0  0  0  0  0  0  0  0
   -6.8374   16.9641  -33.7148 H   0  0  0  0  0  0  0  0  0  0  0  0
   -7.1499   14.2605  -33.3809 H   0  0  0  0  0  0  0  0  0  0  0  0
   -7.6706   15.1752  -34.8366 H   0  0  0  0  0  0  0  0  0  0  0  0
   -6.0983   14.3064  -34.8366 H   0  0  0  0  0  0  0  0  0  0  0  0
   -4.1317   18.2879  -35.3327 H   0  0  0  0  0  0  0  0  0  0  0  0
   -5.6681   17.6397  -36.1044 H   0  0  0  0  0  0  0  0  0  0  0  0
   -5.9244   19.8322  -34.8735 H   0  0  0  0  0  0  0  0  0  0  0  0
   -7.0192   18.4977  -34.3598 H   0  0  0  0  0  0  0  0  0  0  0  0
   -4.6280   18.4090  -32.7720 H   0  0  0  0  0  0  0  0  0  0  0  0
   -6.3359   23.9802  -29.2984 H   0  0  0  0  0  0  0  0  0  0  0  0
   -5.4868   24.5406  -30.7788 H   0  0  0  0  0  0  0  0  0  0  0  0
   -7.2751   24.3713  -30.7788 H   0  0  0  0  0  0  0  0  0  0  0  0
   -8.7963   23.2466  -30.6276 H   0  0  0  0  0  0  0  0  0  0  0  0
  -10.7151   21.9815  -31.5650 H   0  0  0  0  0  0  0  0  0  0  0  0
  -10.3402   19.8553  -32.7983 H   0  0  0  0  0  0  0  0  0  0  0  0
   -8.0371   18.9656  -33.0894 H   0  0  0  0  0  0  0  0  0  0  0  0
   -4.2466   23.9416  -28.8371 H   0  0  0  0  0  0  0  0  0  0  0  0
   -2.4504   25.2571  -25.2904 H   0  0  0  0  0  0  0  0  0  0  0  0
   -3.8429   26.2671  -25.8076 H   0  0  0  0  0  0  0  0  0  0  0  0
   -3.9833   24.4763  -25.8076 H   0  0  0  0  0  0  0  0  0  0  0  0
   -0.2377   25.3405  -26.5913 H   0  0  0  0  0  0  0  0  0  0  0  0
    1.5463   23.8412  -27.4515 H   0  0  0  0  0  0  0  0  0  0  0  0
    1.0158   22.0730  -29.1152 H   0  0  0  0  0  0  0  0  0  0  0  0
    1.1997   20.8517  -31.8794 H   0  0  0  0  0  0  0  0  0  0  0  0
   -0.0850   19.7432  -32.4688 H   0  0  0  0  0  0  0  0  0  0  0  0
   -0.3608   21.5181  -32.4688 H   0  0  0  0  0  0  0  0  0  0  0  0
   -0.2006   19.7471  -28.6734 H   0  0  0  0  0  0  0  0  0  0  0  0
   -0.8283   18.6365  -29.9380 H   0  0  0  0  0  0  0  0  0  0  0  0
    0.9045   19.1098  -29.9380 H   0  0  0  0  0  0  0  0  0  0  0  0
   -2.8395   20.4186  -32.5086 H   0  0  0  0  0  0  0  0  0  0  0  0
   -3.1041   19.3626  -31.1545 H   0  0  0  0  0  0  0  0  0  0  0  0
  1  2  1  0
  2  3  1  0
  3  4  1  0
  4  5  1  0
  3  6  1  0
  6  7  1  0
  7  8  1  0
  8  9  1  0
  9 10  2  0
 10 11  1  0
 11 12  2  0
 12 13  1  0
 12 14  1  0
 14 15  2  0
 15 16  1  0
 16 17  2  0
 17 18  1  0
 18 19  2  0
 11 20  1  0
 20 21  2  0
 21 22  1  0
 22 23  2  0
 23 24  1  0
 24 25  1  0
 23 26  1  0
 26 27  2  0
 27 28  1  0
 28 29  2  0
 29 30  1  0
 30 31  1  0
 31 32  1  0
 31 33  1  0
 30 34  2  0
 34 35  1  0
 19  9  1  0
 34 20  1  0
 35 10  1  0
 19 14  1  0
 29 22  1  0
  1 36  1  0
  1 37  1  0
  1 38  1  0
  2 39  1  0
  2 40  1  0
  3 41  1  0
  4 42  1  0
  4 43  1  0
  5 44  1  0
  5 45  1  0
  5 46  1  0
  6 47  1  0
  6 48  1  0
  7 49  1  0
  7 50  1  0
  8 51  1  0
 13 52  1  0
 13 53  1  0
 13 54  1  0
 15 55  1  0
 16 56  1  0
 17 57  1  0
 18 58  1  0
 21 59  1  0
 25 60  1  0
 25 61  1  0
 25 62  1  0
 26 63  1  0
 27 64  1  0
 28 65  1  0
 32 66  1  0
 32 67  1  0
 32 68  1  0
 33 69  1  0
 33 70  1  0
 33 71  1  0
 35 72  1  0
 35 73  1  0
M  CHG  2   3   1  12   1
M  END
>  <UniqueID>  (1) 
1

>  <SMILES>  (1) 
CC[NH+](CC)CCNc1c2c([n+](C)c3ccccc13)-c1cc3c(OC)cccc3c(N(C)C)c1C2

>  <Energy>  (1) 
132.56407105771646

>  <Genealogy>  (1) 
CC[NH+](CC)CCNc1c2c([n+](C)c3ccccc13)-c1cc3c(OC)cccc3c(N(C)C)c1C2 (protonated)
CC[NH+](CC)CCNc1c2c([n+](C)c3ccccc13)-c1cc3c(OC)cccc3c(N(C)C)c1C2 (3D coordinates assigned)
CC[NH+](CC)CCNc1c2c([n+](C)c3ccccc13)-c1cc3c(OC)cccc3c(N(C)C)c1C2 (nonaromatic ring conformer: 132.56407105771646 kcal/mol)

>  <smiles>  (1) 
CCN(CC)CCNc1c2c([n+](C)c3ccccc13)-c1cc3c(OC)cccc3c(N(C)C)c1C2

>  <score_type>  (1) 
oracle

>  <origin>  (1) 
adg

>  <m_score__min__energy>  (1) 
-8.6099999999999994

>  <m_primary>  (1) 
energy

$$$$
1:0
     RDKit          3D

 53 56  0  0  0  0  0  0  0  0999 V2000
   -9.4870   20.4390  -32.3260 C   0  0  0  0  0  0  0  0  0  0  0  0
   -8.7950   19.0860  -32.1930 C   0  0  0  0  0  0  0  0  0  0  0  0
   -7.3330   19.2000  -32.5320 C   0  0  0  0  0  0  0  0  0  0  0  0
   -6.4510   18.1530  -32.2270 C   0  0  0  0  0  0  0  0  0  0  0  0
   -5.0870   18.2780  -32.5050 C   0  0  0  0  0  0  0  0  0  0  0  0
   -4.5810   19.4520  -33.0870 C   0  0  0  0  0  0  0  0  0  0  0  0
   -3.1670   19.5930  -33.3220 N   0  0  0  0  0  0  0  0  0  0  0  0
   -2.2310   18.5780  -32.8180 C   0  0  0  0  0  0  0  0  0  0  0  0
   -1.0350   19.2540  -32.1250 C   0  0  0  0  0  0  0  0  0  0  0  0
   -1.4490   20.5780  -31.6220 N   0  0  0  0  0  0  0  0  0  0  0  0
   -0.4710   21.1390  -30.6670 C   0  0  0  0  0  0  0  0  0  0  0  0
   -1.1540   21.5130  -29.3430 C   0  0  0  0  0  0  0  0  0  0  0  0
   -2.2610   22.4620  -29.5660 N   0  0  0  0  0  0  0  0  0  0  0  0
   -2.0220   23.8030  -29.4390 C   0  0  0  0  0  0  0  0  0  0  0  0
   -2.9950   24.7100  -29.7080 N   0  0  0  0  0  0  0  0  0  0  0  0
   -4.2310   24.3180  -30.1020 C   0  0  0  0  0  0  0  0  0  0  0  0
   -5.2140   25.2770  -30.3810 C   0  0  0  0  0  0  0  0  0  0  0  0
   -6.4920   24.8740  -30.7820 C   0  0  0  0  0  0  0  0  0  0  0  0
   -6.7920   23.5140  -30.9060 C   0  0  0  0  0  0  0  0  0  0  0  0
   -5.8160   22.5500  -30.6310 C   0  0  0  0  0  0  0  0  0  0  0  0
   -4.5250   22.9470  -30.2290 C   0  0  0  0  0  0  0  0  0  0  0  0
   -3.5040   22.0210  -29.9470 C   0  0  0  0  0  0  0  0  0  0  0  0
   -3.7340   20.7830  -30.0500 O   0  0  0  0  0  0  0  0  0  0  0  0
   -1.7100   21.5030  -32.7520 C   0  0  0  0  0  0  0  0  0  0  0  0
   -2.5920   20.8430  -33.8330 C   0  0  0  0  0  0  0  0  0  0  0  0
   -5.4670   20.5020  -33.3850 C   0  0  0  0  0  0  0  0  0  0  0  0
   -6.8300   20.3790  -33.1030 C   0  0  0  0  0  0  0  0  0  0  0  0
   -9.6945   20.8447  -31.3248 H   0  0  0  0  0  0  0  0  0  0  0  0
   -8.8331   21.1329  -32.8745 H   0  0  0  0  0  0  0  0  0  0  0  0
  -10.4324   20.3150  -32.8745 H   0  0  0  0  0  0  0  0  0  0  0  0
   -8.8987   18.7276  -31.1582 H   0  0  0  0  0  0  0  0  0  0  0  0
   -9.2656   18.3782  -32.8913 H   0  0  0  0  0  0  0  0  0  0  0  0
   -6.8342   17.2301  -31.7673 H   0  0  0  0  0  0  0  0  0  0  0  0
   -4.4037   17.4497  -32.2659 H   0  0  0  0  0  0  0  0  0  0  0  0
   -2.7509   17.9311  -32.0960 H   0  0  0  0  0  0  0  0  0  0  0  0
   -1.8632   17.9782  -33.6636 H   0  0  0  0  0  0  0  0  0  0  0  0
   -0.6968   18.6306  -31.2842 H   0  0  0  0  0  0  0  0  0  0  0  0
   -0.2111   19.3735  -32.8440 H   0  0  0  0  0  0  0  0  0  0  0  0
    0.3111   20.3909  -30.4705 H   0  0  0  0  0  0  0  0  0  0  0  0
   -0.0311   22.0469  -31.1055 H   0  0  0  0  0  0  0  0  0  0  0  0
   -1.5516   20.6010  -28.8737 H   0  0  0  0  0  0  0  0  0  0  0  0
   -0.4100   21.9915  -28.6891 H   0  0  0  0  0  0  0  0  0  0  0  0
   -1.0297   24.1501  -29.1151 H   0  0  0  0  0  0  0  0  0  0  0  0
   -4.9804   26.3476  -30.2846 H   0  0  0  0  0  0  0  0  0  0  0  0
   -7.2623   25.6283  -31.0002 H   0  0  0  0  0  0  0  0  0  0  0  0
   -7.7985   23.2010  -31.2207 H   0  0  0  0  0  0  0  0  0  0  0  0
   -6.0566   21.4811  -30.7287 H   0  0  0  0  0  0  0  0  0  0  0  0
   -2.2230   22.3979  -32.3699 H   0  0  0  0  0  0  0  0  0  0  0  0
   -0.7456   21.7689  -33.2094 H   0  0  0  0  0  0  0  0  0  0  0  0
   -3.4047   21.5309  -34.1092 H   0  0  0  0  0  0  0  0  0  0  0  0
   -1.9736   20.6203  -34.7150 H   0  0  0  0  0  0  0  0  0  0  0  0
   -5.0849   21.4262  -33.8430 H   0  0  0  0  0  0  0  0  0  0  0  0
   -7.5126   21.2112  -33.3299 H   0  0  0  0  0  0  0  0  0  0  0  0
  1  2  1  0
  2  3  1  0
  3  4  2  0
  4  5  1  0
  5  6  2  0
  6  7  1  0
  7  8  1  0
  8  9  1  0
  9 10  1  0
 10 11  1  0
 11 12  1  0
 12 13  1  0
 13 14  1  0
 14 15  2  0
 15 16  1  0
 16 17  2  0
 17 18  1  0
 18 19  2  0
 19 20  1  0
 20 21  2  0
 21 22  1  0
 22 23  2  0
 10 24  1  0
 24 25  1  0
  6 26  1  0
 26 27  2  0
 27  3  1  0
 25  7  1  0
 22 13  1  0
 21 16  1  0
  1 28  1  0
  1 29  1  0
  1 30  1  0
  2 31  1  0
  2 32  1  0
  4 33  1  0
  5 34  1  0
  8 35  1  0
  8 36  1  0
  9 37  1  0
  9 38  1  0
 11 39  1  0
 11 40  1  0
 12 41  1  0
 12 42  1  0
 14 43  1  0
 17 44  1  0
 18 45  1  0
 19 46  1  0
 20 47  1  0
 24 48  1  0
 24 49  1  0
 25 50  1  0
 25 51  1  0
 26 52  1  0
 27 53  1  0
M  END
>  <UniqueID>  (2) 
2

>  <SMILES>  (2) 
CCc1ccc(N2CCN(CCn3cnc4ccccc4c3=O)CC2)cc1

>  <Energy>  (2) 
66.32195257639515

>  <Genealogy>  (2) 
CCc1ccc(N2CCN(CCn3cnc4ccccc4c3=O)CC2)cc1 (3D coordinates assigned)
CCc1ccc(N2CCN(CCn3cnc4ccccc4c3=O)CC2)cc1 (nonaromatic ring conformer: 66.32195257639515 kcal/mol)

>  <smiles>  (2) 
CCc1ccc(N2CCN(CCn3cnc4ccccc4c3=O)CC2)cc1

>  <score_type>  (2) 
oracle

>  <origin>  (2) 
adg

>  <m_score__min__energy>  (2) 
-8.4600000000000009

>  <m_primary>  (2) 
energy

$$$$
2:0
     RDKit          3D

 48 50  0  0  0  0  0  0  0  0999 V2000
   -6.0580   25.2490  -29.5480 C   0  0  0  0  0  0  0  0  0  0  0  0
   -5.2780   25.2970  -30.8570 C   0  0  0  0  0  0  0  0  0  0  0  0
   -3.8850   25.3020  -30.5970 O   0  0  0  0  0  0  0  0  0  0  0  0
   -3.5310   24.2860  -29.6770 C   0  0  0  0  0  0  0  0  0  0  0  0
   -3.0670   23.0610  -30.4110 C   0  0  0  0  0  0  0  0  0  0  0  0
   -1.7770   22.5510  -30.2170 C   0  0  0  0  0  0  0  0  0  0  0  0
   -1.3600   21.4410  -30.9520 C   0  0  0  0  0  0  0  0  0  0  0  0
   -2.2230   20.8500  -31.8830 C   0  0  0  0  0  0  0  0  0  0  0  0
   -3.5230   21.3740  -32.0300 C   0  0  0  0  0  0  0  0  0  0  0  0
   -3.8960   22.4690  -31.3130 N   0  0  0  0  0  0  0  0  0  0  0  0
   -4.4700   20.8130  -33.0600 C   0  0  0  0  0  0  0  0  0  0  0  0
   -4.1290   19.4140  -33.3980 N   0  0  1  0  0  0  0  0  0  0  0  0
   -5.0750   18.7970  -34.3640 C   0  0  0  0  0  0  0  0  0  0  0  0
   -6.4670   18.4180  -33.8080 C   0  0  0  0  0  0  0  0  0  0  0  0
   -6.6530   18.8530  -32.4620 O   0  0  0  0  0  0  0  0  0  0  0  0
   -7.4940   19.8970  -32.0450 C   0  0  0  0  0  0  0  0  0  0  0  0
   -7.0410   20.9780  -31.2600 C   0  0  0  0  0  0  0  0  0  0  0  0
   -7.9280   21.9850  -30.8710 C   0  0  0  0  0  0  0  0  0  0  0  0
   -9.2700   21.9280  -31.2600 C   0  0  0  0  0  0  0  0  0  0  0  0
   -9.7230   20.8640  -32.0420 C   0  0  0  0  0  0  0  0  0  0  0  0
   -8.8390   19.8540  -32.4340 C   0  0  0  0  0  0  0  0  0  0  0  0
   -2.7150   19.3140  -33.8220 C   0  0  0  0  0  0  0  0  0  0  0  0
   -1.7790   19.6250  -32.6440 C   0  0  0  0  0  0  0  0  0  0  0  0
   -5.3568   25.2922  -28.7016 H   0  0  0  0  0  0  0  0  0  0  0  0
   -6.7452   26.1066  -29.4990 H   0  0  0  0  0  0  0  0  0  0  0  0
   -6.6348   24.3137  -29.4990 H   0  0  0  0  0  0  0  0  0  0  0  0
   -5.5312   24.4148  -31.4634 H   0  0  0  0  0  0  0  0  0  0  0  0
   -5.5449   26.2155  -31.4003 H   0  0  0  0  0  0  0  0  0  0  0  0
   -2.7206   24.6496  -29.0281 H   0  0  0  0  0  0  0  0  0  0  0  0
   -4.4114   24.0288  -29.0697 H   0  0  0  0  0  0  0  0  0  0  0  0
   -1.0981   23.0220  -29.4909 H   0  0  0  0  0  0  0  0  0  0  0  0
   -0.3514   21.0293  -30.7999 H   0  0  0  0  0  0  0  0  0  0  0  0
   -5.4943   20.8456  -32.6604 H   0  0  0  0  0  0  0  0  0  0  0  0
   -4.3891   21.4205  -33.9734 H   0  0  0  0  0  0  0  0  0  0  0  0
   -4.2320   18.8510  -32.5190 H   0  0  0  0  0  0  0  0  0  0  0  0
   -5.2254   19.5096  -35.1884 H   0  0  0  0  0  0  0  0  0  0  0  0
   -4.6098   17.8471  -34.6662 H   0  0  0  0  0  0  0  0  0  0  0  0
   -7.2381   18.8837  -34.4393 H   0  0  0  0  0  0  0  0  0  0  0  0
   -6.5447   17.3208  -33.8192 H   0  0  0  0  0  0  0  0  0  0  0  0
   -5.9859   21.0283  -30.9531 H   0  0  0  0  0  0  0  0  0  0  0  0
   -7.5698   22.8247  -30.2573 H   0  0  0  0  0  0  0  0  0  0  0  0
   -9.9675   22.7202  -30.9503 H   0  0  0  0  0  0  0  0  0  0  0  0
  -10.7779   20.8200  -32.3506 H   0  0  0  0  0  0  0  0  0  0  0  0
   -9.2023   19.0198  -33.0522 H   0  0  0  0  0  0  0  0  0  0  0  0
   -2.5163   18.2942  -34.1833 H   0  0  0  0  0  0  0  0  0  0  0  0
   -2.5312   20.0424  -34.6255 H   0  0  0  0  0  0  0  0  0  0  0  0
   -1.7706   18.7642  -31.9592 H   0  0  0  0  0  0  0  0  0  0  0  0
   -0.7744   19.8192  -33.0479 H   0  0  0  0  0  0  0  0  0  0  0  0
  1  2  1  0
  2  3  1  0
  3  4  1  0
  4  5  1  0
  5  6  2  0
  6  7  1  0
  7  8  2  0
  8  9  1  0
  9 10  2  0
  9 11  1  0
 11 12  1  0
 12 13  1  0
 13 14  1  0
 14 15  1  0
 15 16  1  0
 16 17  2  0
 17 18  1  0
 18 19  2  0
 19 20  1  0
 20 21  2  0
 12 22  1  0
 22 23  1  0
 10  5  1  0
 21 16  1  0
 23  8  1  0
  1 24  1  0
  1 25  1  0
  1 26  1  0
  2 27  1  0
  2 28  1  0
  4 29  1  0
  4 30  1  0
  6 31  1  0
  7 32  1  0
 11 33  1  0
 11 34  1  0
 12 35  1  1
 13 36  1  0
 13 37  1  0
 14 38  1  0
 14 39  1  0
 17 40  1  0
 18 41  1  0
 19 42  1  0
 20 43  1  0
 21 44  1  0
 22 45  1  0
 22 46  1  0
 23 47  1  0
 23 48  1  0
M  CHG  1  12   1
M  END
>  <UniqueID>  (3) 
3

>  <SMILES>  (3) 
CCOCc1ccc2c(n1)C[N@@H+](CCOc1ccccc1)CC2

>  <Energy>  (3) 
56.69591551151303

>  <Genealogy>  (3) 
CCOCc1ccc2c(n1)C[NH+](CCOc1ccccc1)CC2 (protonated)
CCOCc1ccc2c(n1)C[N@@H+](CCOc1ccccc1)CC2 (chirality)
CCOCc1ccc2c(n1)C[N@@H+](CCOc1ccccc1)CC2 (3D coordinates assigned)
CCOCc1ccc2c(n1)C[N@@H+](CCOc1ccccc1)CC2 (nonaromatic ring conformer: 56.69591551151303 kcal/mol)

>  <smiles>  (3) 
CCOCc1ccc2c(n1)CN(CCOc1ccccc1)CC2

>  <score_type>  (3) 
oracle

>  <origin>  (3) 
adg

>  <m_score__min__energy>  (3) 
-6.9800000000000004

>  <m_primary>  (3) 
energy

$$$$
3:0
     RDKit          3D

 50 52  0  0  0  0  0  0  0  0999 V2000
   -6.1140   25.5990  -29.6980 C   0  0  0  0  0  0  0  0  0  0  0  0
   -5.6830   25.1960  -31.1020 C   0  0  0  0  0  0  0  0  0  0  0  0
   -5.9440   23.7530  -31.3080 N   0  0  0  0  0  0  0  0  0  0  0  0
   -7.3060   23.3570  -30.8680 C   0  0  0  0  0  0  0  0  0  0  0  0
   -8.3720   23.4100  -31.9730 C   0  0  0  0  0  0  0  0  0  0  0  0
   -4.8490   22.9010  -30.7900 C   0  0  0  0  0  0  0  0  0  0  0  0
   -4.0100   22.2720  -31.9160 C   0  0  0  0  0  0  0  0  0  0  0  0
   -4.8480   21.8920  -33.0690 N   0  0  0  0  0  0  0  0  0  0  0  0
   -4.9960   20.4480  -33.1520 C   0  0  0  0  0  0  0  0  0  0  0  0
   -6.2120   19.8150  -32.7790 C   0  0  0  0  0  0  0  0  0  0  0  0
   -7.2600   20.5260  -32.1470 C   0  0  0  0  0  0  0  0  0  0  0  0
   -8.4340   19.8850  -31.7600 C   0  0  0  0  0  0  0  0  0  0  0  0
   -8.5880   18.5240  -31.9750 C   0  0  0  0  0  0  0  0  0  0  0  0
   -7.5760   17.7970  -32.5950 C   0  0  0  0  0  0  0  0  0  0  0  0
   -6.3820   18.4250  -33.0340 C   0  0  0  0  0  0  0  0  0  0  0  0
   -5.3940   17.7100  -33.6800 N   0  0  0  0  0  0  0  0  0  0  0  0
   -5.6920   16.3710  -34.2370 C   0  0  0  0  0  0  0  0  0  0  0  0
   -4.1300   18.2470  -33.8120 C   0  0  0  0  0  0  0  0  0  0  0  0
   -3.0210   17.4390  -34.1700 C   0  0  0  0  0  0  0  0  0  0  0  0
   -1.7510   17.9890  -34.3370 C   0  0  0  0  0  0  0  0  0  0  0  0
   -0.7070   17.1930  -34.6800 F   0  0  0  0  0  0  0  0  0  0  0  0
   -1.5490   19.3470  -34.1330 C   0  0  0  0  0  0  0  0  0  0  0  0
   -2.6100   20.1610  -33.7470 C   0  0  0  0  0  0  0  0  0  0  0  0
   -3.9130   19.6320  -33.5730 C   0  0  0  0  0  0  0  0  0  0  0  0
   -5.5194   25.0430  -28.9582 H   0  0  0  0  0  0  0  0  0  0  0  0
   -5.9535   26.6786  -29.5609 H   0  0  0  0  0  0  0  0  0  0  0  0
   -7.1804   25.3665  -29.5609 H   0  0  0  0  0  0  0  0  0  0  0  0
   -6.2515   25.7798  -31.8409 H   0  0  0  0  0  0  0  0  0  0  0  0
   -4.6078   25.3933  -31.2243 H   0  0  0  0  0  0  0  0  0  0  0  0
   -7.2578   22.3266  -30.4860 H   0  0  0  0  0  0  0  0  0  0  0  0
   -7.6120   24.0852  -30.1024 H   0  0  0  0  0  0  0  0  0  0  0  0
   -9.3714   23.4597  -31.5162 H   0  0  0  0  0  0  0  0  0  0  0  0
   -8.2093   24.3012  -32.5970 H   0  0  0  0  0  0  0  0  0  0  0  0
   -8.2985   22.5071  -32.5970 H   0  0  0  0  0  0  0  0  0  0  0  0
   -4.1899   23.5172  -30.1608 H   0  0  0  0  0  0  0  0  0  0  0  0
   -5.3057   22.0817  -30.2154 H   0  0  0  0  0  0  0  0  0  0  0  0
   -3.2548   22.9997  -32.2478 H   0  0  0  0  0  0  0  0  0  0  0  0
   -3.5324   21.3625  -31.5227 H   0  0  0  0  0  0  0  0  0  0  0  0
   -5.7800   22.3600  -33.0100 H   0  0  0  0  0  0  0  0  0  0  0  0
   -4.4480   22.2650  -33.9590 H   0  0  0  0  0  0  0  0  0  0  0  0
   -7.1451   21.6036  -31.9583 H   0  0  0  0  0  0  0  0  0  0  0  0
   -9.2412   20.4598  -31.2825 H   0  0  0  0  0  0  0  0  0  0  0  0
   -9.5110   18.0182  -31.6552 H   0  0  0  0  0  0  0  0  0  0  0  0
   -7.7043   16.7152  -32.7475 H   0  0  0  0  0  0  0  0  0  0  0  0
   -5.8506   15.6585  -33.4140 H   0  0  0  0  0  0  0  0  0  0  0  0
   -6.6001   16.4249  -34.8554 H   0  0  0  0  0  0  0  0  0  0  0  0
   -4.8467   16.0347  -34.8554 H   0  0  0  0  0  0  0  0  0  0  0  0
   -3.1655   16.3587  -34.3186 H   0  0  0  0  0  0  0  0  0  0  0  0
   -0.5484   19.7808  -34.2767 H   0  0  0  0  0  0  0  0  0  0  0  0
   -2.4341   21.2330  -33.5741 H   0  0  0  0  0  0  0  0  0  0  0  0
  1  2  1  0
  2  3  1  0
  3  4  1  0
  4  5  1  0
  3  6  1  0
  6  7  1  0
  7  8  1  0
  8  9  1  0
  9 10  2  0
 10 11  1  0
 11 12  2  0
 12 13  1  0
 13 14  2  0
 14 15  1  0
 15 16  2  0
 16 17  1  0
 16 18  1  0
 18 19  2  0
 19 20  1  0
 20 21  1  0
 20 22  2  0
 22 23  1  0
 23 24  2  0
 24  9  1  0
 15 10  1  0
 24 18  1  0
  1 25  1  0
  1 26  1  0
  1 27  1  0
  2 28  1  0
  2 29  1  0
  4 30  1  0
  4 31  1  0
  5 32  1  0
  5 33  1  0
  5 34  1  0
  6 35  1  0
  6 36  1  0
  7 37  1  0
  7 38  1  0
  8 39  1  0
  8 40  1  0
 11 41  1  0
 12 42  1  0
 13 43  1  0
 14 44  1  0
 17 45  1  0
 17 46  1  0
 17 47  1  0
 19 48  1  0
 22 49  1  0
 23 50  1  0
M  CHG  2   8   1  16   1
M  END
>  <UniqueID>  (4) 
4

>  <SMILES>  (4) 
CCN(CC)CC[NH2+]c1c2ccccc2[n+](C)c2cc(F)ccc12

>  <Energy>  (4) 
80.09660939348684

>  <Genealogy>  (4) 
CCN(CC)CC[NH2+]c1c2ccccc2[n+](C)c2cc(F)ccc12 (protonated)
CCN(CC)CC[NH2+]c1c2ccccc2[n+](C)c2cc(F)ccc12 (3D coordinates assigned)
CCN(CC)CC[NH2+]c1c2ccccc2[n+](C)c2cc(F)ccc12 (optimized conformer: 80.09660939348684 kcal/mol)

>  <smiles>  (4) 
CCN(CC)CCNc1c2ccccc2[n+](C)c2cc(F)ccc12

>  <score_type>  (4) 
oracle

>  <origin>  (4) 
adg

>  <m_score__min__energy>  (4) 
-7.8399999999999999

>  <m_primary>  (4) 
energy

$$$$
4:0
     RDKit          3D

 40 41  0  0  0  0  0  0  0  0999 V2000
   -9.3390   19.4170  -32.7020 C   0  0  0  0  0  0  0  0  0  0  0  0
   -8.3400   19.7490  -31.6040 C   0  0  0  0  0  0  0  0  0  0  0  0
   -7.0450   19.3740  -32.0260 O   0  0  0  0  0  0  0  0  0  0  0  0
   -6.7850   18.0240  -31.6870 C   0  0  0  0  0  0  0  0  0  0  0  0
   -5.6510   17.4700  -32.5550 C   0  0  0  0  0  0  0  0  0  0  0  0
   -5.4340   18.3390  -33.7330 N   0  0  0  0  0  0  0  0  0  0  0  0
   -5.7740   17.6150  -34.9700 C   0  0  0  0  0  0  0  0  0  0  0  0
   -4.0390   18.8260  -33.7870 C   0  0  0  0  0  0  0  0  0  0  0  0
   -3.9450   20.1900  -33.1770 C   0  0  0  0  0  0  0  0  0  0  0  0
   -2.8090   20.9610  -33.0750 C   0  0  0  0  0  0  0  0  0  0  0  0
   -3.1320   22.0590  -32.4300 O   0  0  0  0  0  0  0  0  0  0  0  0
   -4.4140   21.9870  -32.1310 C   0  0  0  0  0  0  0  0  0  0  0  0
   -5.1440   23.0460  -31.3890 C   0  0  0  0  0  0  0  0  0  0  0  0
   -4.4620   23.9260  -30.5260 C   0  0  0  0  0  0  0  0  0  0  0  0
   -5.1580   24.9190  -29.8300 C   0  0  0  0  0  0  0  0  0  0  0  0
   -6.5380   25.0460  -29.9830 C   0  0  0  0  0  0  0  0  0  0  0  0
   -7.2280   24.1800  -30.8330 C   0  0  0  0  0  0  0  0  0  0  0  0
   -6.5410   23.1820  -31.5320 C   0  0  0  0  0  0  0  0  0  0  0  0
   -7.2440   22.3630  -32.3550 F   0  0  0  0  0  0  0  0  0  0  0  0
   -4.9600   20.8330  -32.5760 N   0  0  0  0  0  0  0  0  0  0  0  0
  -10.2902   19.1009  -32.2489 H   0  0  0  0  0  0  0  0  0  0  0  0
   -9.5079   20.3073  -33.3255 H   0  0  0  0  0  0  0  0  0  0  0  0
   -8.9414   18.6027  -33.3255 H   0  0  0  0  0  0  0  0  0  0  0  0
   -8.3622   20.8298  -31.4008 H   0  0  0  0  0  0  0  0  0  0  0  0
   -8.6030   19.2016  -30.6869 H   0  0  0  0  0  0  0  0  0  0  0  0
   -6.4941   17.9648  -30.6278 H   0  0  0  0  0  0  0  0  0  0  0  0
   -7.6936   17.4288  -31.8605 H   0  0  0  0  0  0  0  0  0  0  0  0
   -4.7266   17.4274  -31.9604 H   0  0  0  0  0  0  0  0  0  0  0  0
   -5.9243   16.4618  -32.8997 H   0  0  0  0  0  0  0  0  0  0  0  0
   -6.2288   16.6465  -34.7148 H   0  0  0  0  0  0  0  0  0  0  0  0
   -6.4865   18.2107  -35.5595 H   0  0  0  0  0  0  0  0  0  0  0  0
   -4.8606   17.4472  -35.5595 H   0  0  0  0  0  0  0  0  0  0  0  0
   -3.3903   18.1334  -33.2307 H   0  0  0  0  0  0  0  0  0  0  0  0
   -3.7171   18.8790  -34.8375 H   0  0  0  0  0  0  0  0  0  0  0  0
   -1.8122   20.7044  -33.4630 H   0  0  0  0  0  0  0  0  0  0  0  0
   -3.3735   23.8312  -30.3987 H   0  0  0  0  0  0  0  0  0  0  0  0
   -4.6153   25.6019  -29.1599 H   0  0  0  0  0  0  0  0  0  0  0  0
   -7.0828   25.8283  -29.4341 H   0  0  0  0  0  0  0  0  0  0  0  0
   -8.3165   24.2828  -30.9536 H   0  0  0  0  0  0  0  0  0  0  0  0
   -5.9390   20.4870  -32.4650 H   0  0  0  0  0  0  0  0  0  0  0  0
  1  2  1  0
  2  3  1  0
  3  4  1  0
  4  5  1  0
  5  6  1  0
  6  7  1  0
  6  8  1  0
  8  9  1  0
  9 10  2  0
 10 11  1  0
 11 12  1  0
 12 13  1  0
 13 14  2  0
 14 15  1  0
 15 16  2  0
 16 17  1  0
 17 18  2  0
 18 19  1  0
 12 20  2  0
 20  9  1  0
 18 13  1  0
  1 21  1  0
  1 22  1  0
  1 23  1  0
  2 24  1  0
  2 25  1  0
  4 26  1  0
  4 27  1  0
  5 28  1  0
  5 29  1  0
  7 30  1  0
  7 31  1  0
  7 32  1  0
  8 33  1  0
  8 34  1  0
 10 35  1  0
 14 36  1  0
 15 37  1  0
 16 38  1  0
 17 39  1  0
 20 40  1  0
M  CHG  1  20   1
M  END
>  <UniqueID>  (5) 
5

>  <SMILES>  (5) 
CCOCCN(C)Cc1coc(-c2ccccc2F)[nH+]1

>  <Energy>  (5) 
70.82613475448328

>  <Genealogy>  (5) 
CCOCCN(C)Cc1coc(-c2ccccc2F)[nH+]1 (protonated)
CCOCCN(C)Cc1coc(-c2ccccc2F)[nH+]1 (3D coordinates assigned)
CCOCCN(C)Cc1coc(-c2ccccc2F)[nH+]1 (optimized conformer: 70.82613475448328 kcal/mol)

>  <smiles>  (5) 
CCOCCN(C)Cc1coc(-c2ccccc2F)n1

>  <score_type>  (5) 
oracle

>  <origin>  (5) 
adg

>  <m_score__min__energy>  (5) 
-6.1799999999999997

>  <m_primary>  (5) 
energy

$$$$
5:0
     RDKit          3D

 46 48  0  0  0  0  0  0  0  0999 V2000
    3.4460   25.9170  -35.3190 C   0  0  0  0  0  0  0  0  0  0  0  0
    2.6270   25.8570  -36.5980 C   0  0  0  0  0  0  0  0  0  0  0  0
    2.5740   24.5120  -37.0670 O   0  0  0  0  0  0  0  0  0  0  0  0
    1.8300   23.4900  -36.4590 C   0  0  0  0  0  0  0  0  0  0  0  0
    0.5500   23.7040  -35.9130 C   0  0  0  0  0  0  0  0  0  0  0  0
   -0.1180   22.7030  -35.3480 O   0  0  0  0  0  0  0  0  0  0  0  0
    0.3700   21.4680  -35.2620 C   0  0  0  0  0  0  0  0  0  0  0  0
   -0.4600   20.3880  -34.6180 C   0  0  0  0  0  0  0  0  0  0  0  0
   -1.5420   20.9490  -33.7750 N   0  0  0  0  0  0  0  0  0  0  0  0
   -1.0920   21.1350  -32.3770 C   0  0  0  0  0  0  0  0  0  0  0  0
   -2.1420   21.9300  -31.5840 C   0  0  0  0  0  0  0  0  0  0  0  0
   -3.4990   21.5740  -32.0180 N   0  0  0  0  0  0  0  0  0  0  0  0
   -4.6030   22.4570  -31.7420 C   0  0  0  0  0  0  0  0  0  0  0  0
   -5.8590   22.2410  -32.3390 C   0  0  0  0  0  0  0  0  0  0  0  0
   -6.9310   23.0930  -32.0580 C   0  0  0  0  0  0  0  0  0  0  0  0
   -6.7650   24.1610  -31.1740 C   0  0  0  0  0  0  0  0  0  0  0  0
   -5.5250   24.3790  -30.5680 C   0  0  0  0  0  0  0  0  0  0  0  0
   -4.4490   23.5310  -30.8470 C   0  0  0  0  0  0  0  0  0  0  0  0
   -3.7140   20.2720  -32.6580 C   0  0  0  0  0  0  0  0  0  0  0  0
   -2.7380   20.0670  -33.8370 C   0  0  0  0  0  0  0  0  0  0  0  0
    1.6380   21.1780  -35.7820 C   0  0  0  0  0  0  0  0  0  0  0  0
    2.3690   22.2030  -36.3840 C   0  0  0  0  0  0  0  0  0  0  0  0
    3.5120   21.9630  -36.8590 O   0  0  0  0  0  0  0  0  0  0  0  0
    2.7732   25.8677  -34.4501 H   0  0  0  0  0  0  0  0  0  0  0  0
    4.1444   25.0676  -35.2906 H   0  0  0  0  0  0  0  0  0  0  0  0
    4.0131   26.8591  -35.2906 H   0  0  0  0  0  0  0  0  0  0  0  0
    1.6067   26.2154  -36.3969 H   0  0  0  0  0  0  0  0  0  0  0  0
    3.0957   26.4933  -37.3631 H   0  0  0  0  0  0  0  0  0  0  0  0
    0.0994   24.7066  -35.9542 H   0  0  0  0  0  0  0  0  0  0  0  0
   -0.9099   19.7675  -35.4071 H   0  0  0  0  0  0  0  0  0  0  0  0
    0.2004   19.7915  -33.9714 H   0  0  0  0  0  0  0  0  0  0  0  0
   -1.8150   21.8840  -34.1670 H   0  0  0  0  0  0  0  0  0  0  0  0
   -0.9498   20.1508  -31.9068 H   0  0  0  0  0  0  0  0  0  0  0  0
   -0.1433   21.6917  -32.3758 H   0  0  0  0  0  0  0  0  0  0  0  0
   -2.0341   21.7027  -30.5132 H   0  0  0  0  0  0  0  0  0  0  0  0
   -1.9832   23.0035  -31.7641 H   0  0  0  0  0  0  0  0  0  0  0  0
   -5.9979   21.3970  -33.0306 H   0  0  0  0  0  0  0  0  0  0  0  0
   -7.9076   22.9217  -32.5344 H   0  0  0  0  0  0  0  0  0  0  0  0
   -7.6099   24.8304  -30.9548 H   0  0  0  0  0  0  0  0  0  0  0  0
   -5.3951   25.2193  -29.8702 H   0  0  0  0  0  0  0  0  0  0  0  0
   -3.4763   23.7048  -30.3637 H   0  0  0  0  0  0  0  0  0  0  0  0
   -3.5542   19.4757  -31.9161 H   0  0  0  0  0  0  0  0  0  0  0  0
   -4.7431   20.2373  -33.0449 H   0  0  0  0  0  0  0  0  0  0  0  0
   -2.3998   19.0203  -33.8315 H   0  0  0  0  0  0  0  0  0  0  0  0
   -3.2829   20.3235  -34.7575 H   0  0  0  0  0  0  0  0  0  0  0  0
    2.0502   20.1602  -35.7169 H   0  0  0  0  0  0  0  0  0  0  0  0
  1  2  1  0
  2  3  1  0
  3  4  1  0
  4  5  2  0
  5  6  1  0
  6  7  1  0
  7  8  1  0
  8  9  1  0
  9 10  1  0
 10 11  1  0
 11 12  1  0
 12 13  1  0
 13 14  2  0
 14 15  1  0
 15 16  2  0
 16 17  1  0
 17 18  2  0
 12 19  1  0
 19 20  1  0
  7 21  2  0
 21 22  1  0
 22 23  2  0
 22  4  1  0
 20  9  1  0
 18 13  1  0
  1 24  1  0
  1 25  1  0
  1 26  1  0
  2 27  1  0
  2 28  1  0
  5 29  1  0
  8 30  1  0
  8 31  1  0
  9 32  1  0
 10 33  1  0
 10 34  1  0
 11 35  1  0
 11 36  1  0
 14 37  1  0
 15 38  1  0
 16 39  1  0
 17 40  1  0
 18 41  1  0
 19 42  1  0
 19 43  1  0
 20 44  1  0
 20 45  1  0
 21 46  1  0
M  CHG  1   9   1
M  END
>  <UniqueID>  (6) 
6

>  <SMILES>  (6) 
CCOc1coc(C[NH+]2CCN(c3ccccc3)CC2)cc1=O

>  <Energy>  (6) 
56.25060117686713

>  <Genealogy>  (6) 
CCOc1coc(C[NH+]2CCN(c3ccccc3)CC2)cc1=O (protonated)
CCOc1coc(C[NH+]2CCN(c3ccccc3)CC2)cc1=O (3D coordinates assigned)
CCOc1coc(C[NH+]2CCN(c3ccccc3)CC2)cc1=O (nonaromatic ring conformer: 56.25060117686713 kcal/mol)

>  <smiles>  (6) 
CCOc1coc(CN2CCN(c3ccccc3)CC2)cc1=O

>  <score_type>  (6) 
oracle

>  <origin>  (6) 
adg

>  <m_score__min__energy>  (6) 
-6.9500000000000002

>  <m_primary>  (6) 
energy

$$$$
6:0
     RDKit          3D

 58 60  0  0  0  0  0  0  0  0999 V2000
   -0.4010   19.0140  -29.3950 C   0  0  0  0  0  0  0  0  0  0  0  0
   -0.9170   20.4190  -29.2870 C   0  0  0  0  0  0  0  0  0  0  0  0
   -1.8330   20.7730  -28.2830 C   0  0  0  0  0  0  0  0  0  0  0  0
   -2.2950   22.0900  -28.1840 C   0  0  0  0  0  0  0  0  0  0  0  0
   -1.8430   23.0650  -29.0840 C   0  0  0  0  0  0  0  0  0  0  0  0
   -2.3700   24.7410  -28.9400 S   0  0  0  0  0  0  0  0  0  0  0  0
   -3.0590   24.9180  -27.6160 O   0  0  0  0  0  0  0  0  0  0  0  0
   -1.2010   25.6840  -28.9850 O   0  0  0  0  0  0  0  0  0  0  0  0
   -3.4910   25.1060  -30.2120 N   0  0  0  0  0  0  0  0  0  0  0  0
   -4.6890   24.3710  -30.4940 C   0  0  0  0  0  0  0  0  0  0  0  0
   -5.9780   24.9670  -30.4080 C   0  0  0  0  0  0  0  0  0  0  0  0
   -7.1310   24.2260  -30.7220 C   0  0  0  0  0  0  0  0  0  0  0  0
   -6.9630   22.9010  -31.1230 C   0  0  0  0  0  0  0  0  0  0  0  0
   -5.7310   22.3270  -31.2120 C   0  0  0  0  0  0  0  0  0  0  0  0
   -4.5700   23.0210  -30.8850 C   0  0  0  0  0  0  0  0  0  0  0  0
   -5.8260   21.0860  -31.7170 N   0  0  0  0  0  0  0  0  0  0  0  0
   -7.1620   20.9300  -31.9120 C   0  0  0  0  0  0  0  0  0  0  0  0
   -7.7230   19.7250  -32.6150 C   0  0  0  0  0  0  0  0  0  0  0  0
   -6.8740   18.4700  -32.3670 C   0  0  0  0  0  0  0  0  0  0  0  0
   -5.4600   18.7240  -32.6490 N   0  0  0  0  0  0  0  0  0  0  0  0
   -4.9180   18.6730  -33.9750 C   0  0  0  0  0  0  0  0  0  0  0  0
   -5.6230   18.2500  -34.9320 O   0  0  0  0  0  0  0  0  0  0  0  0
   -3.6060   19.1190  -34.1920 O   0  0  0  0  0  0  0  0  0  0  0  0
   -2.9250   20.1360  -33.4390 C   0  0  0  0  0  0  0  0  0  0  0  0
   -1.5430   20.3330  -34.0810 C   0  0  0  0  0  0  0  0  0  0  0  0
   -2.7340   19.6810  -31.9800 C   0  0  0  0  0  0  0  0  0  0  0  0
   -3.6930   21.4730  -33.4930 C   0  0  0  0  0  0  0  0  0  0  0  0
   -7.8870   22.0220  -31.5410 N   0  0  0  0  0  0  0  0  0  0  0  0
   -9.3240   22.2610  -31.6740 C   0  0  0  0  0  0  0  0  0  0  0  0
   -0.9360   22.7090  -30.0920 C   0  0  0  0  0  0  0  0  0  0  0  0
   -0.4840   21.3920  -30.1990 C   0  0  0  0  0  0  0  0  0  0  0  0
   -0.2492   18.6006  -28.3870 H   0  0  0  0  0  0  0  0  0  0  0  0
   -1.1309   18.3961  -29.9386 H   0  0  0  0  0  0  0  0  0  0  0  0
    0.5553   19.0154  -29.9386 H   0  0  0  0  0  0  0  0  0  0  0  0
   -2.1884   20.0124  -27.5722 H   0  0  0  0  0  0  0  0  0  0  0  0
   -3.0149   22.3610  -27.3977 H   0  0  0  0  0  0  0  0  0  0  0  0
   -6.0734   26.0166  -30.0931 H   0  0  0  0  0  0  0  0  0  0  0  0
   -8.1322   24.6765  -30.6536 H   0  0  0  0  0  0  0  0  0  0  0  0
   -3.5866   22.5303  -30.9302 H   0  0  0  0  0  0  0  0  0  0  0  0
   -8.7436   19.5421  -32.2476 H   0  0  0  0  0  0  0  0  0  0  0  0
   -7.7211   19.9295  -33.6958 H   0  0  0  0  0  0  0  0  0  0  0  0
   -6.9813   18.1661  -31.3153 H   0  0  0  0  0  0  0  0  0  0  0  0
   -7.2257   17.6729  -33.0385 H   0  0  0  0  0  0  0  0  0  0  0  0
   -4.8670   19.1190  -31.8860 H   0  0  0  0  0  0  0  0  0  0  0  0
   -0.7842   20.4412  -33.2920 H   0  0  0  0  0  0  0  0  0  0  0  0
   -1.3010   19.4603  -34.7053 H   0  0  0  0  0  0  0  0  0  0  0  0
   -1.5544   21.2386  -34.7053 H   0  0  0  0  0  0  0  0  0  0  0  0
   -3.0688   20.4785  -31.3004 H   0  0  0  0  0  0  0  0  0  0  0  0
   -3.3265   18.7721  -31.7988 H   0  0  0  0  0  0  0  0  0  0  0  0
   -1.6703   19.4674  -31.7988 H   0  0  0  0  0  0  0  0  0  0  0  0
   -3.8936   21.8222  -32.4694 H   0  0  0  0  0  0  0  0  0  0  0  0
   -3.0877   22.2224  -34.0241 H   0  0  0  0  0  0  0  0  0  0  0  0
   -4.6453   21.3277  -34.0241 H   0  0  0  0  0  0  0  0  0  0  0  0
   -9.7772   22.3364  -30.6745 H   0  0  0  0  0  0  0  0  0  0  0  0
   -9.4903   23.1991  -32.2237 H   0  0  0  0  0  0  0  0  0  0  0  0
   -9.7850   21.4272  -32.2237 H   0  0  0  0  0  0  0  0  0  0  0  0
   -0.5790   23.4701  -30.8014 H   0  0  0  0  0  0  0  0  0  0  0  0
    0.2150   21.1167  -31.0025 H   0  0  0  0  0  0  0  0  0  0  0  0
  1  2  1  0
  2  3  2  0
  3  4  1  0
  4  5  2  0
  5  6  1  0
  6  7  2  0
  6  8  2  0
  6  9  1  0
  9 10  1  0
 10 11  2  0
 11 12  1  0
 12 13  2  0
 13 14  1  0
 14 15  2  0
 14 16  1  0
 16 17  2  0
 17 18  1  0
 18 19  1  0
 19 20  1  0
 20 21  1  0
 21 22  2  0
 21 23  1  0
 23 24  1  0
 24 25  1  0
 24 26  1  0
 24 27  1  0
 17 28  1  0
 28 29  1  0
  5 30  1  0
 30 31  2  0
 31  2  1  0
 15 10  1  0
 28 13  1  0
  1 32  1  0
  1 33  1  0
  1 34  1  0
  3 35  1  0
  4 36  1  0
 11 37  1  0
 12 38  1  0
 15 39  1  0
 18 40  1  0
 18 41  1  0
 19 42  1  0
 19 43  1  0
 20 44  1  0
 25 45  1  0
 25 46  1  0
 25 47  1  0
 26 48  1  0
 26 49  1  0
 26 50  1  0
 27 51  1  0
 27 52  1  0
 27 53  1  0
 29 54  1  0
 29 55  1  0
 29 56  1  0
 30 57  1  0
 31 58  1  0
M  CHG  1   9  -1
M  END
>  <UniqueID>  (7) 
7

>  <SMILES>  (7) 
Cc1ccc(S(=O)(=O)[N-]c2ccc3c(c2)nc(CCNC(=O)OC(C)(C)C)n3C)cc1

>  <Energy>  (7) 
84.84202140983848

>  <Genealogy>  (7) 
Cc1ccc(S(=O)(=O)[N-]c2ccc3c(c2)nc(CCNC(=O)OC(C)(C)C)n3C)cc1 (protonated)
Cc1ccc(S(=O)(=O)[N-]c2ccc3c(c2)nc(CCNC(=O)OC(C)(C)C)n3C)cc1 (3D coordinates assigned)
Cc1ccc(S(=O)(=O)[N-]c2ccc3c(c2)nc(CCNC(=O)OC(C)(C)C)n3C)cc1 (optimized conformer: 84.84202140983848 kcal/mol)

>  <smiles>  (7) 
Cc1ccc(S(=O)(=O)Nc2ccc3c(c2)nc(CCNC(=O)OC(C)(C)C)n3C)cc1

>  <score_type>  (7) 
oracle

>  <origin>  (7) 
adg

>  <m_score__min__energy>  (7) 
-11.18

>  <m_primary>  (7) 
energy

$$$$
7:0
     RDKit          3D

 48 49  0  0  0  0  0  0  0  0999 V2000
   -1.0490   26.4780  -27.7400 C   0  0  0  0  0  0  0  0  0  0  0  0
   -1.6130   25.9520  -28.9410 O   0  0  0  0  0  0  0  0  0  0  0  0
   -1.7740   24.5870  -29.2130 C   0  0  0  0  0  0  0  0  0  0  0  0
   -0.8800   23.6130  -28.7310 C   0  0  0  0  0  0  0  0  0  0  0  0
   -1.0780   22.2620  -29.0290 C   0  0  0  0  0  0  0  0  0  0  0  0
   -2.1610   21.8620  -29.8200 C   0  0  0  0  0  0  0  0  0  0  0  0
   -2.3960   20.4080  -30.1230 C   0  0  0  0  0  0  0  0  0  0  0  0
   -1.9850   20.0420  -31.5530 C   0  0  0  0  0  0  0  0  0  0  0  0
   -3.0820   20.3540  -32.5030 N   0  0  0  0  0  0  0  0  0  0  0  0
   -2.5430   20.7930  -33.8040 C   0  0  0  0  0  0  0  0  0  0  0  0
   -3.9830   19.1980  -32.6940 C   0  0  0  0  0  0  0  0  0  0  0  0
   -5.4160   19.6540  -32.7960 C   0  0  0  0  0  0  0  0  0  0  0  0
   -6.0090   20.6090  -31.9870 C   0  0  0  0  0  0  0  0  0  0  0  0
   -7.3150   20.6760  -32.4400 C   0  0  0  0  0  0  0  0  0  0  0  0
   -8.3650   21.6060  -31.9370 C   0  0  0  0  0  0  0  0  0  0  0  0
   -7.4790   19.8270  -33.4720 N   0  0  0  0  0  0  0  0  0  0  0  0
   -6.3320   19.2050  -33.6870 N   0  0  0  0  0  0  0  0  0  0  0  0
   -6.1360   18.1820  -34.7150 C   0  0  0  0  0  0  0  0  0  0  0  0
   -3.0540   22.8330  -30.3040 C   0  0  0  0  0  0  0  0  0  0  0  0
   -2.8700   24.1940  -29.9940 C   0  0  0  0  0  0  0  0  0  0  0  0
   -3.7600   25.1860  -30.4410 O   0  0  0  0  0  0  0  0  0  0  0  0
   -5.1780   25.0780  -30.4090 C   0  0  0  0  0  0  0  0  0  0  0  0
   -1.5423   26.0179  -26.8711 H   0  0  0  0  0  0  0  0  0  0  0  0
    0.0276   26.2539  -27.7117 H   0  0  0  0  0  0  0  0  0  0  0  0
   -1.1976   27.5676  -27.7117 H   0  0  0  0  0  0  0  0  0  0  0  0
   -0.0201   23.9168  -28.1159 H   0  0  0  0  0  0  0  0  0  0  0  0
   -0.3781   21.5082  -28.6393 H   0  0  0  0  0  0  0  0  0  0  0  0
   -1.8091   19.7999  -29.4189 H   0  0  0  0  0  0  0  0  0  0  0  0
   -3.4733   20.2110  -30.0199 H   0  0  0  0  0  0  0  0  0  0  0  0
   -1.0899   20.6176  -31.8314 H   0  0  0  0  0  0  0  0  0  0  0  0
   -1.7704   18.9641  -31.5976 H   0  0  0  0  0  0  0  0  0  0  0  0
   -1.6998   21.4798  -33.6386 H   0  0  0  0  0  0  0  0  0  0  0  0
   -2.1964   19.9169  -34.3718 H   0  0  0  0  0  0  0  0  0  0  0  0
   -3.3308   21.3097  -34.3718 H   0  0  0  0  0  0  0  0  0  0  0  0
   -3.7044   18.6714  -33.6187 H   0  0  0  0  0  0  0  0  0  0  0  0
   -3.8854   18.5254  -31.8291 H   0  0  0  0  0  0  0  0  0  0  0  0
   -5.5472   21.1834  -31.1704 H   0  0  0  0  0  0  0  0  0  0  0  0
   -8.3613   21.6027  -30.8370 H   0  0  0  0  0  0  0  0  0  0  0  0
   -8.1589   22.6232  -32.3013 H   0  0  0  0  0  0  0  0  0  0  0  0
   -9.3499   21.2786  -32.3013 H   0  0  0  0  0  0  0  0  0  0  0  0
   -8.3520   19.6740  -34.0220 H   0  0  0  0  0  0  0  0  0  0  0  0
   -5.9498   17.2102  -34.2344 H   0  0  0  0  0  0  0  0  0  0  0  0
   -7.0375   18.1144  -35.3416 H   0  0  0  0  0  0  0  0  0  0  0  0
   -5.2733   18.4524  -35.3416 H   0  0  0  0  0  0  0  0  0  0  0  0
   -3.9046   22.5270  -30.9308 H   0  0  0  0  0  0  0  0  0  0  0  0
   -5.5202   25.0519  -29.3639 H   0  0  0  0  0  0  0  0  0  0  0  0
   -5.6234   25.9448  -30.9192 H   0  0  0  0  0  0  0  0  0  0  0  0
   -5.4869   24.1537  -30.9192 H   0  0  0  0  0  0  0  0  0  0  0  0
  1  2  1  0
  2  3  1  0
  3  4  2  0
  4  5  1  0
  5  6  2  0
  6  7  1  0
  7  8  1  0
  8  9  1  0
  9 10  1  0
  9 11  1  0
 11 12  1  0
 12 13  2  0
 13 14  1  0
 14 15  1  0
 14 16  2  0
 16 17  1  0
 17 18  1  0
  6 19  1  0
 19 20  2  0
 20 21  1  0
 21 22  1  0
 20  3  1  0
 17 12  1  0
  1 23  1  0
  1 24  1  0
  1 25  1  0
  4 26  1  0
  5 27  1  0
  7 28  1  0
  7 29  1  0
  8 30  1  0
  8 31  1  0
 10 32  1  0
 10 33  1  0
 10 34  1  0
 11 35  1  0
 11 36  1  0
 13 37  1  0
 15 38  1  0
 15 39  1  0
 15 40  1  0
 16 41  1  0
 18 42  1  0
 18 43  1  0
 18 44  1  0
 19 45  1  0
 22 46  1  0
 22 47  1  0
 22 48  1  0
M  CHG  1  16   1
M  END
>  <UniqueID>  (8) 
8

>  <SMILES>  (8) 
COc1ccc(CCN(C)Cc2cc(C)[nH+]n2C)cc1OC

>  <Energy>  (8) 
74.25888450093375

>  <Genealogy>  (8) 
COc1ccc(CCN(C)Cc2cc(C)[nH+]n2C)cc1OC (protonated)
COc1ccc(CCN(C)Cc2cc(C)[nH+]n2C)cc1OC (3D coordinates assigned)
COc1ccc(CCN(C)Cc2cc(C)[nH+]n2C)cc1OC (optimized conformer: 74.25888450093375 kcal/mol)

>  <smiles>  (8) 
COc1ccc(CCN(C)Cc2cc(C)nn2C)cc1OC

>  <score_type>  (8) 
oracle

>  <origin>  (8) 
adg

>  <m_score__min__energy>  (8) 
-7.4299999999999997

>  <m_primary>  (8) 
energy

$$$$
8:0
     RDKit          3D

 45 48  0  0  0  0  0  0  0  0999 V2000
   -6.4830   24.9520  -29.7450 C   0  0  0  0  0  0  0  0  0  0  0  0
   -5.3280   25.5090  -30.5720 C   0  0  0  0  0  0  0  0  0  0  0  0
   -4.1570   24.6240  -30.4840 N   0  0  0  0  0  0  0  0  0  0  0  0
   -4.5190   23.2280  -30.7600 C   0  0  0  0  0  0  0  0  0  0  0  0
   -4.8840   23.0650  -32.2400 C   0  0  0  0  0  0  0  0  0  0  0  0
   -5.4770   21.7380  -32.4890 N   0  0  0  0  0  0  0  0  0  0  0  0
   -4.6920   20.6750  -32.8560 C   0  0  0  0  0  0  0  0  0  0  0  0
   -3.3510   20.5270  -33.2210 C   0  0  0  0  0  0  0  0  0  0  0  0
   -2.3060   21.4350  -33.4410 C   0  0  0  0  0  0  0  0  0  0  0  0
   -1.0470   20.9340  -33.8510 C   0  0  0  0  0  0  0  0  0  0  0  0
    0.0510   21.7770  -34.0860 O   0  0  0  0  0  0  0  0  0  0  0  0
    0.7150   21.9050  -35.3390 C   0  0  0  0  0  0  0  0  0  0  0  0
   -0.8720   19.5490  -34.0450 C   0  0  0  0  0  0  0  0  0  0  0  0
   -1.9340   18.6540  -33.8530 C   0  0  0  0  0  0  0  0  0  0  0  0
   -3.1640   19.1640  -33.4480 C   0  0  0  0  0  0  0  0  0  0  0  0
   -4.2940   18.4430  -33.2700 N   0  0  0  0  0  0  0  0  0  0  0  0
   -5.2260   19.3450  -32.9240 C   0  0  0  0  0  0  0  0  0  0  0  0
   -6.5300   19.0980  -32.7060 N   0  0  0  0  0  0  0  0  0  0  0  0
   -7.3500   20.1450  -32.4120 C   0  0  0  0  0  0  0  0  0  0  0  0
   -8.7110   19.8920  -32.2120 C   0  0  0  0  0  0  0  0  0  0  0  0
   -9.5920   20.9370  -31.9380 C   0  0  0  0  0  0  0  0  0  0  0  0
   -9.1220   22.2470  -31.8700 C   0  0  0  0  0  0  0  0  0  0  0  0
   -7.7670   22.5270  -32.0600 C   0  0  0  0  0  0  0  0  0  0  0  0
   -6.8370   21.4890  -32.3160 C   0  0  0  0  0  0  0  0  0  0  0  0
   -6.2542   25.0623  -28.6747 H   0  0  0  0  0  0  0  0  0  0  0  0
   -7.4038   25.5051  -29.9820 H   0  0  0  0  0  0  0  0  0  0  0  0
   -6.6236   23.8871  -29.9820 H   0  0  0  0  0  0  0  0  0  0  0  0
   -5.6418   25.5905  -31.6231 H   0  0  0  0  0  0  0  0  0  0  0  0
   -5.0551   26.4997  -30.1795 H   0  0  0  0  0  0  0  0  0  0  0  0
   -3.4800   24.9250  -31.2250 H   0  0  0  0  0  0  0  0  0  0  0  0
   -3.6658   22.5761  -30.5211 H   0  0  0  0  0  0  0  0  0  0  0  0
   -5.3849   22.9499  -30.1413 H   0  0  0  0  0  0  0  0  0  0  0  0
   -5.6095   23.8428  -32.5205 H   0  0  0  0  0  0  0  0  0  0  0  0
   -3.9684   23.1611  -32.8421 H   0  0  0  0  0  0  0  0  0  0  0  0
   -2.4610   22.5146  -33.2980 H   0  0  0  0  0  0  0  0  0  0  0  0
    1.7822   22.1107  -35.1691 H   0  0  0  0  0  0  0  0  0  0  0  0
    0.6079   20.9697  -35.9080 H   0  0  0  0  0  0  0  0  0  0  0  0
    0.2679   22.7335  -35.9080 H   0  0  0  0  0  0  0  0  0  0  0  0
    0.1121   19.1647  -34.3515 H   0  0  0  0  0  0  0  0  0  0  0  0
   -1.7984   17.5750  -34.0184 H   0  0  0  0  0  0  0  0  0  0  0  0
   -4.4240   17.4150  -33.4030 H   0  0  0  0  0  0  0  0  0  0  0  0
   -9.0890   18.8607  -32.2714 H   0  0  0  0  0  0  0  0  0  0  0  0
  -10.6595   20.7272  -31.7753 H   0  0  0  0  0  0  0  0  0  0  0  0
   -9.8246   23.0681  -31.6648 H   0  0  0  0  0  0  0  0  0  0  0  0
   -7.4166   23.5685  -32.0102 H   0  0  0  0  0  0  0  0  0  0  0  0
  1  2  1  0
  2  3  1  0
  3  4  1  0
  4  5  1  0
  5  6  1  0
  6  7  1  0
  7  8  2  0
  8  9  1  0
  9 10  2  0
 10 11  1  0
 11 12  1  0
 10 13  1  0
 13 14  2  0
 14 15  1  0
 15 16  2  0
 16 17  1  0
 17 18  2  0
 18 19  1  0
 19 20  2  0
 20 21  1  0
 21 22  2  0
 22 23  1  0
 23 24  2  0
 24  6  1  0
 17  7  1  0
 24 19  1  0
 15  8  1  0
  1 25  1  0
  1 26  1  0
  1 27  1  0
  2 28  1  0
  2 29  1  0
  3 30  1  0
  4 31  1  0
  4 32  1  0
  5 33  1  0
  5 34  1  0
  9 35  1  0
 12 36  1  0
 12 37  1  0
 12 38  1  0
 13 39  1  0
 14 40  1  0
 16 41  1  0
 20 42  1  0
 21 43  1  0
 22 44  1  0
 23 45  1  0
M  CHG  1  16   1
M  END
>  <UniqueID>  (9) 
9

>  <SMILES>  (9) 
CCNCCn1c2c3cc(OC)ccc3[nH+]c-2nc2ccccc21

>  <Energy>  (9) 
98.58906981395576

>  <Genealogy>  (9) 
CCNCCn1c2c3cc(OC)ccc3[nH+]c-2nc2ccccc21 (protonated)
CCNCCn1c2c3cc(OC)ccc3[nH+]c-2nc2ccccc21 (3D coordinates assigned)
CCNCCn1c2c3cc(OC)ccc3[nH+]c-2nc2ccccc21 (optimized conformer: 98.58906981395576 kcal/mol)

>  <smiles>  (9) 
CCNCCn1c2c3cc(OC)ccc3nc-2nc2ccccc21

>  <score_type>  (9) 
oracle

>  <origin>  (9) 
adg

>  <m_score__min__energy>  (9) 
-8.3100000000000005

>  <m_primary>  (9) 
energy

$$$$
9:0
     RDKit          3D

 42 45  0  0  0  0  0  0  0  0999 V2000
   -2.7510   21.2100  -29.0780 C   0  0  0  0  0  0  0  0  0  0  0  0
   -2.0760   22.1160  -30.1020 C   0  0  0  0  0  0  0  0  0  0  0  0
   -2.6970   21.9540  -31.4220 N   0  0  0  0  0  0  0  0  0  0  0  0
   -1.9060   21.5510  -32.5870 C   0  0  0  0  0  0  0  0  0  0  0  0
   -4.1280   21.9680  -31.5360 C   0  0  0  0  0  0  0  0  0  0  0  0
   -4.7600   20.8920  -32.0960 N   0  0  0  0  0  0  0  0  0  0  0  0
   -6.1120   20.9040  -32.2250 C   0  0  0  0  0  0  0  0  0  0  0  0
   -6.9470   19.9270  -32.7330 C   0  0  0  0  0  0  0  0  0  0  0  0
   -6.6070   18.6320  -33.3590 C   0  0  0  0  0  0  0  0  0  0  0  0
   -5.6510   18.5790  -34.3860 C   0  0  0  0  0  0  0  0  0  0  0  0
   -5.3140   17.3570  -34.9750 C   0  0  0  0  0  0  0  0  0  0  0  0
   -5.9190   16.1770  -34.5350 C   0  0  0  0  0  0  0  0  0  0  0  0
   -6.8570   16.2170  -33.5000 C   0  0  0  0  0  0  0  0  0  0  0  0
   -7.1970   17.4380  -32.9090 C   0  0  0  0  0  0  0  0  0  0  0  0
   -8.2220   20.4490  -32.5290 C   0  0  0  0  0  0  0  0  0  0  0  0
   -8.1380   21.6680  -31.9490 N   0  0  0  0  0  0  0  0  0  0  0  0
   -6.8500   21.9240  -31.7740 N   0  0  0  0  0  0  0  0  0  0  0  0
   -6.3000   23.0250  -31.1980 C   0  0  0  0  0  0  0  0  0  0  0  0
   -7.0890   24.0890  -30.7330 C   0  0  0  0  0  0  0  0  0  0  0  0
   -6.4810   25.1980  -30.1380 C   0  0  0  0  0  0  0  0  0  0  0  0
   -5.0920   25.2500  -30.0010 C   0  0  0  0  0  0  0  0  0  0  0  0
   -4.2960   24.1960  -30.4600 C   0  0  0  0  0  0  0  0  0  0  0  0
   -4.8890   23.0740  -31.0680 C   0  0  0  0  0  0  0  0  0  0  0  0
   -2.4972   21.5506  -28.0633 H   0  0  0  0  0  0  0  0  0  0  0  0
   -3.8416   21.2495  -29.2160 H   0  0  0  0  0  0  0  0  0  0  0  0
   -2.4011   20.1763  -29.2160 H   0  0  0  0  0  0  0  0  0  0  0  0
   -2.1770   23.1632  -29.7807 H   0  0  0  0  0  0  0  0  0  0  0  0
   -1.0132   21.8414  -30.1733 H   0  0  0  0  0  0  0  0  0  0  0  0
   -0.9730   21.0756  -32.2501 H   0  0  0  0  0  0  0  0  0  0  0  0
   -2.4832   20.8371  -33.1929 H   0  0  0  0  0  0  0  0  0  0  0  0
   -1.6678   22.4376  -33.1929 H   0  0  0  0  0  0  0  0  0  0  0  0
   -4.2000   20.0690  -32.4060 H   0  0  0  0  0  0  0  0  0  0  0  0
   -5.1646   19.5041  -34.7289 H   0  0  0  0  0  0  0  0  0  0  0  0
   -4.5715   17.3243  -35.7860 H   0  0  0  0  0  0  0  0  0  0  0  0
   -5.6570   15.2167  -35.0032 H   0  0  0  0  0  0  0  0  0  0  0  0
   -7.3285   15.2870  -33.1497 H   0  0  0  0  0  0  0  0  0  0  0  0
   -7.9292   17.4642  -32.0885 H   0  0  0  0  0  0  0  0  0  0  0  0
   -9.1606   19.9435  -32.8001 H   0  0  0  0  0  0  0  0  0  0  0  0
   -8.1834   24.0500  -30.8367 H   0  0  0  0  0  0  0  0  0  0  0  0
   -7.0988   26.0331  -29.7762 H   0  0  0  0  0  0  0  0  0  0  0  0
   -4.6215   26.1253  -29.5292 H   0  0  0  0  0  0  0  0  0  0  0  0
   -3.2030   24.2440  -30.3455 H   0  0  0  0  0  0  0  0  0  0  0  0
  1  2  1  0
  2  3  1  0
  3  4  1  0
  3  5  1  0
  5  6  2  0
  6  7  1  0
  7  8  2  0
  8  9  1  0
  9 10  2  0
 10 11  1  0
 11 12  2  0
 12 13  1  0
 13 14  2  0
  8 15  1  0
 15 16  2  0
 16 17  1  0
 17 18  1  0
 18 19  2  0
 19 20  1  0
 20 21  2  0
 21 22  1  0
 22 23  2  0
 23  5  1  0
 17  7  1  0
 23 18  1  0
 14  9  1  0
  1 24  1  0
  1 25  1  0
  1 26  1  0
  2 27  1  0
  2 28  1  0
  4 29  1  0
  4 30  1  0
  4 31  1  0
  6 32  1  0
 10 33  1  0
 11 34  1  0
 12 35  1  0
 13 36  1  0
 14 37  1  0
 15 38  1  0
 19 39  1  0
 20 40  1  0
 21 41  1  0
 22 42  1  0
M  CHG  1   6   1
M  END
>  <UniqueID>  (10) 
10

>  <SMILES>  (10) 
CCN(C)c1[nH+]c2c(-c3ccccc3)cnn2c2ccccc12

>  <Energy>  (10) 
92.0656295600994

>  <Genealogy>  (10) 
CCN(C)c1[nH+]c2c(-c3ccccc3)cnn2c2ccccc12 (protonated)
CCN(C)c1[nH+]c2c(-c3ccccc3)cnn2c2ccccc12 (3D coordinates assigned)
CCN(C)c1[nH+]c2c(-c3ccccc3)cnn2c2ccccc12 (optimized conformer: 92.0656295600994 kcal/mol)

>  <smiles>  (10) 
CCN(C)c1nc2c(-c3ccccc3)cnn2c2ccccc12

>  <score_type>  (10) 
oracle

>  <origin>  (10) 
adg

>  <m_score__min__energy>  (10) 
-7.3499999999999996

>  <m_primary>  (10) 
energy

$$$$
10:0
     RDKit          3D

 43 44  0  0  0  0  0  0  0  0999 V2000
   -2.4820   20.7430  -33.4830 C   0  0  0  0  0  0  0  0  0  0  0  0
   -3.7380   21.5710  -33.2440 C   0  0  0  0  0  0  0  0  0  0  0  0
   -4.6250   20.9250  -32.2600 N   0  0  0  0  0  0  0  0  0  0  0  0
   -4.5240   21.3550  -30.8520 C   0  0  0  0  0  0  0  0  0  0  0  0
   -3.0730   21.6230  -30.4070 C   0  0  0  0  0  0  0  0  0  0  0  0
   -2.9140   22.8960  -29.5630 C   0  0  0  0  0  0  0  0  0  0  0  0
   -4.1970   23.5470  -29.3060 N   0  0  0  0  0  0  0  0  0  0  0  0
   -4.6860   24.6140  -30.1300 C   0  0  0  0  0  0  0  0  0  0  0  0
   -3.8890   25.2930  -30.8320 O   0  0  0  0  0  0  0  0  0  0  0  0
   -6.1530   24.9170  -30.1800 C   0  0  0  0  0  0  0  0  0  0  0  0
   -6.9230   23.7490  -30.7080 C   0  0  0  0  0  0  0  0  0  0  0  0
   -7.4930   22.7390  -29.9440 C   0  0  0  0  0  0  0  0  0  0  0  0
   -8.1110   21.7480  -30.7150 C   0  0  0  0  0  0  0  0  0  0  0  0
   -8.0340   21.9780  -32.0840 C   0  0  0  0  0  0  0  0  0  0  0  0
   -7.1950   23.4140  -32.3350 S   0  0  0  0  0  0  0  0  0  0  0  0
   -5.3650   19.7350  -32.6370 C   0  0  0  0  0  0  0  0  0  0  0  0
   -6.1200   19.0310  -31.6780 C   0  0  0  0  0  0  0  0  0  0  0  0
   -6.8680   17.9100  -32.0450 C   0  0  0  0  0  0  0  0  0  0  0  0
   -6.8520   17.4570  -33.3640 C   0  0  0  0  0  0  0  0  0  0  0  0
   -6.1020   18.1370  -34.3240 C   0  0  0  0  0  0  0  0  0  0  0  0
   -5.3710   19.2740  -33.9690 C   0  0  0  0  0  0  0  0  0  0  0  0
   -2.0438   20.4541  -32.5163 H   0  0  0  0  0  0  0  0  0  0  0  0
   -2.7419   19.8386  -34.0527 H   0  0  0  0  0  0  0  0  0  0  0  0
   -1.7533   21.3383  -34.0527 H   0  0  0  0  0  0  0  0  0  0  0  0
   -3.4473   22.5629  -32.8677 H   0  0  0  0  0  0  0  0  0  0  0  0
   -4.2817   21.6605  -34.1960 H   0  0  0  0  0  0  0  0  0  0  0  0
   -5.1060   22.2798  -30.7253 H   0  0  0  0  0  0  0  0  0  0  0  0
   -4.9134   20.5362  -30.2291 H   0  0  0  0  0  0  0  0  0  0  0  0
   -2.7280   20.7652  -29.8110 H   0  0  0  0  0  0  0  0  0  0  0  0
   -2.4765   21.7649  -31.3203 H   0  0  0  0  0  0  0  0  0  0  0  0
   -2.4525   22.6288  -28.6009 H   0  0  0  0  0  0  0  0  0  0  0  0
   -2.2829   23.5997  -30.1256 H   0  0  0  0  0  0  0  0  0  0  0  0
   -4.8740   23.0640  -28.6750 H   0  0  0  0  0  0  0  0  0  0  0  0
   -6.5067   25.1521  -29.1653 H   0  0  0  0  0  0  0  0  0  0  0  0
   -6.3115   25.7740  -30.8512 H   0  0  0  0  0  0  0  0  0  0  0  0
   -7.4619   22.7199  -28.8446 H   0  0  0  0  0  0  0  0  0  0  0  0
   -8.6104   20.8702  -30.2791 H   0  0  0  0  0  0  0  0  0  0  0  0
   -8.4510   21.3307  -32.8696 H   0  0  0  0  0  0  0  0  0  0  0  0
   -6.1203   19.3673  -30.6307 H   0  0  0  0  0  0  0  0  0  0  0  0
   -7.4715   17.3828  -31.2915 H   0  0  0  0  0  0  0  0  0  0  0  0
   -7.4299   16.5648  -33.6470 H   0  0  0  0  0  0  0  0  0  0  0  0
   -6.0860   17.7772  -35.3634 H   0  0  0  0  0  0  0  0  0  0  0  0
   -4.7955   19.8137  -34.7355 H   0  0  0  0  0  0  0  0  0  0  0  0
  1  2  1  0
  2  3  1  0
  3  4  1  0
  4  5  1  0
  5  6  1  0
  6  7  1  0
  7  8  1  0
  8  9  2  0
  8 10  1  0
 10 11  1  0
 11 12  2  0
 12 13  1  0
 13 14  2  0
 14 15  1  0
  3 16  1  0
 16 17  2  0
 17 18  1  0
 18 19  2  0
 19 20  1  0
 20 21  2  0
 15 11  1  0
 21 16  1  0
  1 22  1  0
  1 23  1  0
  1 24  1  0
  2 25  1  0
  2 26  1  0
  4 27  1  0
  4 28  1  0
  5 29  1  0
  5 30  1  0
  6 31  1  0
  6 32  1  0
  7 33  1  0
 10 34  1  0
 10 35  1  0
 12 36  1  0
 13 37  1  0
 14 38  1  0
 17 39  1  0
 18 40  1  0
 19 41  1  0
 20 42  1  0
 21 43  1  0
M  END
>  <UniqueID>  (11) 
11

>  <SMILES>  (11) 
CCN(CCCNC(=O)Cc1cccs1)c1ccccc1

>  <Energy>  (11) 
59.66521114915601

>  <Genealogy>  (11) 
CCN(CCCNC(=O)Cc1cccs1)c1ccccc1 (3D coordinates assigned)
CCN(CCCNC(=O)Cc1cccs1)c1ccccc1 (optimized conformer: 59.66521114915601 kcal/mol)

>  <smiles>  (11) 
CCN(CCCNC(=O)Cc1cccs1)c1ccccc1

>  <score_type>  (11) 
oracle

>  <origin>  (11) 
adg

>  <m_score__min__energy>  (11) 
-7.8399999999999999

>  <m_primary>  (11) 
energy

$$$$
11:0
     RDKit          3D

 45 47  0  0  0  0  0  0  0  0999 V2000
   -2.6790   16.7560  -33.1380 C   0  0  0  0  0  0  0  0  0  0  0  0
   -2.8220   15.5090  -34.0180 C   0  0  0  0  0  0  0  0  0  0  0  0
   -3.5920   14.4260  -33.3580 N   0  0  1  0  0  0  0  0  0  0  0  0
   -2.8580   13.9190  -32.1820 C   0  0  0  0  0  0  0  0  0  0  0  0
   -4.9960   14.7870  -33.0220 C   0  0  0  0  0  0  0  0  0  0  0  0
   -5.8340   15.3610  -34.1930 C   0  0  0  0  0  0  0  0  0  0  0  0
   -6.9850   16.1290  -33.7140 N   0  0  0  0  0  0  0  0  0  0  0  0
   -6.9100   17.4500  -33.1410 C   0  0  0  0  0  0  0  0  0  0  0  0
   -7.9820   17.9110  -32.3400 C   0  0  0  0  0  0  0  0  0  0  0  0
   -7.9510   19.1860  -31.7580 C   0  0  0  0  0  0  0  0  0  0  0  0
   -6.8380   19.9900  -31.9920 C   0  0  0  0  0  0  0  0  0  0  0  0
   -5.7850   19.5620  -32.7740 C   0  0  0  0  0  0  0  0  0  0  0  0
   -5.7970   18.2970  -33.3620 C   0  0  0  0  0  0  0  0  0  0  0  0
   -4.7110   20.6070  -32.8730 C   0  0  0  0  0  0  0  0  0  0  0  0
   -5.3100   21.6960  -32.0300 C   0  0  0  0  0  0  0  0  0  0  0  0
   -4.7640   22.9470  -31.7420 C   0  0  0  0  0  0  0  0  0  0  0  0
   -5.4890   23.8390  -30.9200 C   0  0  0  0  0  0  0  0  0  0  0  0
   -4.9500   25.1360  -30.6070 N   0  0  0  0  0  0  0  0  0  0  0  0
   -3.7200   25.2970  -30.4670 O   0  0  0  0  0  0  0  0  0  0  0  0
   -5.7820   26.2220  -30.4580 O   0  0  0  0  0  0  0  0  0  0  0  0
   -6.7530   23.4430  -30.4110 C   0  0  0  0  0  0  0  0  0  0  0  0
   -7.2850   22.1800  -30.7130 C   0  0  0  0  0  0  0  0  0  0  0  0
   -6.5410   21.3280  -31.5250 C   0  0  0  0  0  0  0  0  0  0  0  0
   -2.7126   16.4628  -32.0783 H   0  0  0  0  0  0  0  0  0  0  0  0
   -1.7186   17.2477  -33.3521 H   0  0  0  0  0  0  0  0  0  0  0  0
   -3.5032   17.4523  -33.3521 H   0  0  0  0  0  0  0  0  0  0  0  0
   -3.3384   15.7917  -34.9472 H   0  0  0  0  0  0  0  0  0  0  0  0
   -1.8105   15.1242  -34.2148 H   0  0  0  0  0  0  0  0  0  0  0  0
   -3.6440   13.6240  -34.0310 H   0  0  0  0  0  0  0  0  0  0  0  0
   -3.3555   14.2627  -31.2631 H   0  0  0  0  0  0  0  0  0  0  0  0
   -2.8462   12.8193  -32.2033 H   0  0  0  0  0  0  0  0  0  0  0  0
   -1.8253   14.2973  -32.2033 H   0  0  0  0  0  0  0  0  0  0  0  0
   -5.5009   13.8809  -32.6557 H   0  0  0  0  0  0  0  0  0  0  0  0
   -4.9312   15.5905  -32.2736 H   0  0  0  0  0  0  0  0  0  0  0  0
   -5.1943   16.0193  -34.7992 H   0  0  0  0  0  0  0  0  0  0  0  0
   -6.2109   14.5168  -34.7891 H   0  0  0  0  0  0  0  0  0  0  0  0
   -7.9310   15.7050  -33.8480 H   0  0  0  0  0  0  0  0  0  0  0  0
   -8.8521   17.2594  -32.1717 H   0  0  0  0  0  0  0  0  0  0  0  0
   -8.7834   19.5419  -31.1332 H   0  0  0  0  0  0  0  0  0  0  0  0
   -4.9557   17.9630  -33.9870 H   0  0  0  0  0  0  0  0  0  0  0  0
   -3.7573   20.2498  -32.4573 H   0  0  0  0  0  0  0  0  0  0  0  0
   -4.4586   20.9089  -33.9002 H   0  0  0  0  0  0  0  0  0  0  0  0
   -3.7834   23.2349  -32.1488 H   0  0  0  0  0  0  0  0  0  0  0  0
   -7.3225   24.1341  -29.7722 H   0  0  0  0  0  0  0  0  0  0  0  0
   -8.2643   21.8711  -30.3185 H   0  0  0  0  0  0  0  0  0  0  0  0
  1  2  1  0
  2  3  1  0
  3  4  1  0
  3  5  1  0
  5  6  1  0
  6  7  1  0
  7  8  1  0
  8  9  2  0
  9 10  1  0
 10 11  2  0
 11 12  1  0
 12 13  2  0
 12 14  1  0
 14 15  1  0
 15 16  2  0
 16 17  1  0
 17 18  1  0
 18 19  2  0
 18 20  1  0
 17 21  2  0
 21 22  1  0
 22 23  2  0
 13  8  1  0
 23 15  1  0
 23 11  1  0
  1 24  1  0
  1 25  1  0
  1 26  1  0
  2 27  1  0
  2 28  1  0
  3 29  1  6
  4 30  1  0
  4 31  1  0
  4 32  1  0
  5 33  1  0
  5 34  1  0
  6 35  1  0
  6 36  1  0
  7 37  1  0
  9 38  1  0
 10 39  1  0
 13 40  1  0
 14 41  1  0
 14 42  1  0
 16 43  1  0
 21 44  1  0
 22 45  1  0
M  CHG  3   3   1  18   1  20  -1
M  END
>  <UniqueID>  (12) 
12

>  <SMILES>  (12) 
CC[N@@H+](C)CCNc1ccc2c(c1)Cc1cc([N+](=O)[O-])ccc1-2

>  <Energy>  (12) 
72.17159494110072

>  <Genealogy>  (12) 
CC[NH+](C)CCNc1ccc2c(c1)Cc1cc([N+](=O)[O-])ccc1-2 (protonated)
CC[N@@H+](C)CCNc1ccc2c(c1)Cc1cc([N+](=O)[O-])ccc1-2 (chirality)
CC[N@@H+](C)CCNc1ccc2c(c1)Cc1cc([N+](=O)[O-])ccc1-2 (3D coordinates assigned)
CC[N@@H+](C)CCNc1ccc2c(c1)Cc1cc([N+](=O)[O-])ccc1-2 (nonaromatic ring conformer: 72.17159494110072 kcal/mol)

>  <smiles>  (12) 
CCN(C)CCNc1ccc2c(c1)Cc1cc([N+](=O)[O-])ccc1-2

>  <score_type>  (12) 
oracle

>  <origin>  (12) 
adg

>  <m_score__min__energy>  (12) 
-7.8600000000000003

>  <m_primary>  (12) 
energy

$$$$
12:0
     RDKit          3D

 49 51  0  0  0  0  0  0  0  0999 V2000
    0.2260   24.5050  -36.1050 C   0  0  0  0  0  0  0  0  0  0  0  0
    1.3270   23.4990  -35.7590 C   0  0  0  0  0  0  0  0  0  0  0  0
    0.8350   22.2410  -35.1470 N   0  0  0  0  0  0  0  0  0  0  0  0
    1.7800   21.5520  -34.2420 C   0  0  0  0  0  0  0  0  0  0  0  0
    3.0830   21.1920  -34.9550 C   0  0  0  0  0  0  0  0  0  0  0  0
    0.0830   21.3550  -36.0690 C   0  0  0  0  0  0  0  0  0  0  0  0
   -0.0650   19.8970  -35.5780 C   0  0  0  0  0  0  0  0  0  0  0  0
   -0.7010   19.8480  -34.1810 C   0  0  0  0  0  0  0  0  0  0  0  0
   -1.3560   21.1230  -33.8600 N   0  0  0  0  0  0  0  0  0  0  0  0
   -2.7380   20.8950  -33.5190 C   0  0  0  0  0  0  0  0  0  0  0  0
   -3.3390   19.6380  -33.7830 C   0  0  0  0  0  0  0  0  0  0  0  0
   -4.6920   19.4150  -33.4830 C   0  0  0  0  0  0  0  0  0  0  0  0
   -5.4270   20.4610  -32.9300 C   0  0  0  0  0  0  0  0  0  0  0  0
   -4.8590   21.6960  -32.6770 C   0  0  0  0  0  0  0  0  0  0  0  0
   -3.5160   21.9370  -32.9680 C   0  0  0  0  0  0  0  0  0  0  0  0
   -5.8560   22.6540  -32.0930 C   0  0  0  0  0  0  0  0  0  0  0  0
   -7.0790   21.7820  -32.0490 C   0  0  0  0  0  0  0  0  0  0  0  0
   -8.3540   22.1230  -31.5930 C   0  0  0  0  0  0  0  0  0  0  0  0
   -9.3660   21.1490  -31.6400 C   0  0  0  0  0  0  0  0  0  0  0  0
   -9.0940   19.8590  -32.1370 C   0  0  0  0  0  0  0  0  0  0  0  0
   -7.8060   19.5320  -32.5930 C   0  0  0  0  0  0  0  0  0  0  0  0
   -6.8180   20.5150  -32.5360 C   0  0  0  0  0  0  0  0  0  0  0  0
   -0.2107   24.9040  -35.1776 H   0  0  0  0  0  0  0  0  0  0  0  0
    0.6547   25.3299  -36.6930 H   0  0  0  0  0  0  0  0  0  0  0  0
   -0.5570   24.0038  -36.6930 H   0  0  0  0  0  0  0  0  0  0  0  0
    1.8642   23.2445  -36.6846 H   0  0  0  0  0  0  0  0  0  0  0  0
    1.9709   23.9826  -35.0096 H   0  0  0  0  0  0  0  0  0  0  0  0
    2.0086   22.2141  -33.3938 H   0  0  0  0  0  0  0  0  0  0  0  0
    1.3081   20.6199  -33.8977 H   0  0  0  0  0  0  0  0  0  0  0  0
    3.8620   20.9768  -34.2087 H   0  0  0  0  0  0  0  0  0  0  0  0
    2.9232   20.3043  -35.5847 H   0  0  0  0  0  0  0  0  0  0  0  0
    3.4016   22.0358  -35.5847 H   0  0  0  0  0  0  0  0  0  0  0  0
   -0.9242   21.7758  -36.2047 H   0  0  0  0  0  0  0  0  0  0  0  0
    0.6611   21.3132  -37.0039 H   0  0  0  0  0  0  0  0  0  0  0  0
   -0.7024   19.3431  -36.2829 H   0  0  0  0  0  0  0  0  0  0  0  0
    0.9353   19.4426  -35.5235 H   0  0  0  0  0  0  0  0  0  0  0  0
   -1.4487   19.0417  -34.1534 H   0  0  0  0  0  0  0  0  0  0  0  0
    0.0905   19.6624  -33.4400 H   0  0  0  0  0  0  0  0  0  0  0  0
   -1.2990   21.7700  -34.6830 H   0  0  0  0  0  0  0  0  0  0  0  0
   -0.8660   21.5820  -33.0550 H   0  0  0  0  0  0  0  0  0  0  0  0
   -2.7392   18.8300  -34.2271 H   0  0  0  0  0  0  0  0  0  0  0  0
   -5.1599   18.4391  -33.6796 H   0  0  0  0  0  0  0  0  0  0  0  0
   -3.0700   22.9231  -32.7714 H   0  0  0  0  0  0  0  0  0  0  0  0
   -5.5584   22.9874  -31.0879 H   0  0  0  0  0  0  0  0  0  0  0  0
   -5.9795   23.5892  -32.6589 H   0  0  0  0  0  0  0  0  0  0  0  0
   -8.5616   23.1314  -31.2057 H   0  0  0  0  0  0  0  0  0  0  0  0
  -10.3779   21.3956  -31.2862 H   0  0  0  0  0  0  0  0  0  0  0  0
   -9.8938   19.1044  -32.1681 H   0  0  0  0  0  0  0  0  0  0  0  0
   -7.5828   18.5284  -32.9842 H   0  0  0  0  0  0  0  0  0  0  0  0
  1  2  1  0
  2  3  1  0
  3  4  1  0
  4  5  1  0
  3  6  1  0
  6  7  1  0
  7  8  1  0
  8  9  1  0
  9 10  1  0
 10 11  2  0
 11 12  1  0
 12 13  2  0
 13 14  1  0
 14 15  2  0
 14 16  1  0
 16 17  1  0
 17 18  2  0
 18 19  1  0
 19 20  2  0
 20 21  1  0
 21 22  2  0
 15 10  1  0
 22 17  1  0
 22 13  1  0
  1 23  1  0
  1 24  1  0
  1 25  1  0
  2 26  1  0
  2 27  1  0
  4 28  1  0
  4 29  1  0
  5 30  1  0
  5 31  1  0
  5 32  1  0
  6 33  1  0
  6 34  1  0
  7 35  1  0
  7 36  1  0
  8 37  1  0
  8 38  1  0
  9 39  1  0
  9 40  1  0
 11 41  1  0
 12 42  1  0
 15 43  1  0
 16 44  1  0
 16 45  1  0
 18 46  1  0
 19 47  1  0
 20 48  1  0
 21 49  1  0
M  CHG  1   9   1
M  END
>  <UniqueID>  (13) 
13

>  <SMILES>  (13) 
CCN(CC)CCC[NH2+]c1ccc2c(c1)Cc1ccccc1-2

>  <Energy>  (13) 
75.76440219239605

>  <Genealogy>  (13) 
CCN(CC)CCC[NH2+]c1ccc2c(c1)Cc1ccccc1-2 (protonated)
CCN(CC)CCC[NH2+]c1ccc2c(c1)Cc1ccccc1-2 (3D coordinates assigned)
CCN(CC)CCC[NH2+]c1ccc2c(c1)Cc1ccccc1-2 (nonaromatic ring conformer: 75.76440219239605 kcal/mol)

>  <smiles>  (13) 
CCN(CC)CCCNc1ccc2c(c1)Cc1ccccc1-2

>  <score_type>  (13) 
oracle

>  <origin>  (13) 
adg

>  <m_score__min__energy>  (13) 
-7.2800000000000002

>  <m_primary>  (13) 
energy

$$$$
13:0
     RDKit          3D

 71 73  0  0  0  0  0  0  0  0999 V2000
   -1.4410   21.6150  -31.7920 C   0  0  0  0  0  0  0  0  0  0  0  0
   -1.8230   20.1800  -32.1530 C   0  0  0  0  0  0  0  0  0  0  0  0
   -2.2730   20.0960  -33.5630 N   0  0  0  0  0  0  0  0  0  0  0  0
   -1.1780   20.4370  -34.5150 C   0  0  0  0  0  0  0  0  0  0  0  0
    0.1810   19.8000  -34.1870 C   0  0  0  0  0  0  0  0  0  0  0  0
   -2.9630   18.8110  -33.8410 C   0  0  0  0  0  0  0  0  0  0  0  0
   -4.0470   18.4580  -32.7940 C   0  0  0  0  0  0  0  0  0  0  0  0
   -4.9080   17.3140  -33.1960 N   0  0  1  0  0  0  0  0  0  0  0  0
   -5.4840   16.5820  -32.0320 C   0  0  0  0  0  0  0  0  0  0  0  0
   -6.4760   17.4470  -31.2470 C   0  0  0  0  0  0  0  0  0  0  0  0
   -5.9840   17.7920  -34.0490 C   0  0  0  0  0  0  0  0  0  0  0  0
   -6.7510   16.9970  -34.5790 O   0  0  0  0  0  0  0  0  0  0  0  0
   -6.1280   19.2610  -34.3540 C   0  0  0  0  0  0  0  0  0  0  0  0
   -6.7390   19.9960  -33.2420 N   0  0  0  0  0  0  0  0  0  0  0  0
   -8.0370   19.9370  -32.8490 C   0  0  0  0  0  0  0  0  0  0  0  0
   -8.3020   20.8940  -31.8760 C   0  0  0  0  0  0  0  0  0  0  0  0
   -7.1180   21.5760  -31.7040 C   0  0  0  0  0  0  0  0  0  0  0  0
   -6.8230   22.6790  -30.9060 C   0  0  0  0  0  0  0  0  0  0  0  0
   -5.5300   23.2320  -30.9880 C   0  0  0  0  0  0  0  0  0  0  0  0
   -5.1210   24.6450  -30.0200 S   0  0  0  0  0  0  0  0  0  0  0  0
   -4.2210   25.5610  -30.8030 O   0  0  0  0  0  0  0  0  0  0  0  0
   -6.3890   25.3880  -29.6960 O   0  0  0  0  0  0  0  0  0  0  0  0
   -4.3280   24.1460  -28.5450 N   0  0  0  0  0  0  0  0  0  0  0  0
   -4.5580   22.7040  -28.2750 C   0  0  0  0  0  0  0  0  0  0  0  0
   -3.3570   21.8270  -28.6530 C   0  0  0  0  0  0  0  0  0  0  0  0
   -2.0950   22.2420  -27.8620 C   0  0  0  0  0  0  0  0  0  0  0  0
   -0.8290   21.7970  -28.6060 C   0  0  0  0  0  0  0  0  0  0  0  0
   -2.0700   23.7620  -27.5640 C   0  0  0  0  0  0  0  0  0  0  0  0
   -2.9020   24.5410  -28.5880 C   0  0  0  0  0  0  0  0  0  0  0  0
   -4.5710   22.6580  -31.8590 C   0  0  0  0  0  0  0  0  0  0  0  0
   -4.8990   21.5450  -32.6520 C   0  0  0  0  0  0  0  0  0  0  0  0
   -6.1920   21.0190  -32.5500 C   0  0  0  0  0  0  0  0  0  0  0  0
   -1.4124   21.7226  -30.6976 H   0  0  0  0  0  0  0  0  0  0  0  0
   -0.4499   21.8466  -32.2093 H   0  0  0  0  0  0  0  0  0  0  0  0
   -2.1858   22.3087  -32.2093 H   0  0  0  0  0  0  0  0  0  0  0  0
   -0.9483   19.5277  -32.0137 H   0  0  0  0  0  0  0  0  0  0  0  0
   -2.6471   19.8585  -31.4992 H   0  0  0  0  0  0  0  0  0  0  0  0
   -1.4799   20.1021  -35.5183 H   0  0  0  0  0  0  0  0  0  0  0  0
   -1.0350   21.5255  -34.4462 H   0  0  0  0  0  0  0  0  0  0  0  0
    0.3049   19.7419  -33.0955 H   0  0  0  0  0  0  0  0  0  0  0  0
    0.2244   18.7877  -34.6153 H   0  0  0  0  0  0  0  0  0  0  0  0
    0.9868   20.4142  -34.6153 H   0  0  0  0  0  0  0  0  0  0  0  0
   -3.4412   18.8784  -34.8293 H   0  0  0  0  0  0  0  0  0  0  0  0
   -2.2019   18.0178  -33.8015 H   0  0  0  0  0  0  0  0  0  0  0  0
   -3.5475   18.2025  -31.8479 H   0  0  0  0  0  0  0  0  0  0  0  0
   -4.7010   19.3370  -32.6956 H   0  0  0  0  0  0  0  0  0  0  0  0
   -4.3230   16.6660  -33.7770 H   0  0  0  0  0  0  0  0  0  0  0  0
   -6.0061   15.6858  -32.3985 H   0  0  0  0  0  0  0  0  0  0  0  0
   -4.6586   16.3119  -31.3569 H   0  0  0  0  0  0  0  0  0  0  0  0
   -6.3129   17.3048  -30.1685 H   0  0  0  0  0  0  0  0  0  0  0  0
   -6.3233   18.5055  -31.5045 H   0  0  0  0  0  0  0  0  0  0  0  0
   -7.5038   17.1516  -31.5045 H   0  0  0  0  0  0  0  0  0  0  0  0
   -5.1313   19.6818  -34.5526 H   0  0  0  0  0  0  0  0  0  0  0  0
   -6.7851   19.3631  -35.2303 H   0  0  0  0  0  0  0  0  0  0  0  0
   -8.7784   19.2282  -33.2464 H   0  0  0  0  0  0  0  0  0  0  0  0
   -9.2546   21.0692  -31.3545 H   0  0  0  0  0  0  0  0  0  0  0  0
   -7.5788   23.1063  -30.2306 H   0  0  0  0  0  0  0  0  0  0  0  0
   -4.7621   22.5760  -27.2017 H   0  0  0  0  0  0  0  0  0  0  0  0
   -5.4087   22.3837  -28.8944 H   0  0  0  0  0  0  0  0  0  0  0  0
   -3.5936   20.7768  -28.4271 H   0  0  0  0  0  0  0  0  0  0  0  0
   -3.1546   21.9549  -29.7266 H   0  0  0  0  0  0  0  0  0  0  0  0
   -2.1253   21.7303  -26.8887 H   0  0  0  0  0  0  0  0  0  0  0  0
   -0.0521   21.5239  -27.8768 H   0  0  0  0  0  0  0  0  0  0  0  0
   -1.0615   20.9267  -29.2373 H   0  0  0  0  0  0  0  0  0  0  0  0
   -0.4658   22.6214  -29.2373 H   0  0  0  0  0  0  0  0  0  0  0  0
   -2.4816   23.9375  -26.5591 H   0  0  0  0  0  0  0  0  0  0  0  0
   -1.0287   24.1115  -27.6229 H   0  0  0  0  0  0  0  0  0  0  0  0
   -2.8226   25.6160  -28.3689 H   0  0  0  0  0  0  0  0  0  0  0  0
   -2.5124   24.3148  -29.5915 H   0  0  0  0  0  0  0  0  0  0  0  0
   -3.5600   23.0877  -31.9150 H   0  0  0  0  0  0  0  0  0  0  0  0
   -4.1599   21.0995  -33.3341 H   0  0  0  0  0  0  0  0  0  0  0  0
  1  2  1  0
  2  3  1  0
  3  4  1  0
  4  5  1  0
  3  6  1  0
  6  7  1  0
  7  8  1  0
  8  9  1  0
  9 10  1  0
  8 11  1  0
 11 12  2  0
 11 13  1  0
 13 14  1  0
 14 15  1  0
 15 16  2  0
 16 17  1  0
 17 18  2  0
 18 19  1  0
 19 20  1  0
 20 21  2  0
 20 22  2  0
 20 23  1  0
 23 24  1  0
 24 25  1  0
 25 26  1  0
 26 27  1  0
 26 28  1  0
 28 29  1  0
 19 30  2  0
 30 31  1  0
 31 32  2  0
 32 14  1  0
 32 17  1  0
 29 23  1  0
  1 33  1  0
  1 34  1  0
  1 35  1  0
  2 36  1  0
  2 37  1  0
  4 38  1  0
  4 39  1  0
  5 40  1  0
  5 41  1  0
  5 42  1  0
  6 43  1  0
  6 44  1  0
  7 45  1  0
  7 46  1  0
  8 47  1  6
  9 48  1  0
  9 49  1  0
 10 50  1  0
 10 51  1  0
 10 52  1  0
 13 53  1  0
 13 54  1  0
 15 55  1  0
 16 56  1  0
 18 57  1  0
 24 58  1  0
 24 59  1  0
 25 60  1  0
 25 61  1  0
 26 62  1  0
 27 63  1  0
 27 64  1  0
 27 65  1  0
 28 66  1  0
 28 67  1  0
 29 68  1  0
 29 69  1  0
 30 70  1  0
 31 71  1  0
M  CHG  1   8   1
M  END
>  <UniqueID>  (14) 
14

>  <SMILES>  (14) 
CCN(CC)CC[N@@H+](CC)C(=O)Cn1ccc2cc(S(=O)(=O)N3CCC(C)CC3)ccc21

>  <Energy>  (14) 
115.33052043129295

>  <Genealogy>  (14) 
CCN(CC)CC[NH+](CC)C(=O)Cn1ccc2cc(S(=O)(=O)N3CCC(C)CC3)ccc21 (protonated)
CCN(CC)CC[N@@H+](CC)C(=O)Cn1ccc2cc(S(=O)(=O)N3CCC(C)CC3)ccc21 (chirality)
CCN(CC)CC[N@@H+](CC)C(=O)Cn1ccc2cc(S(=O)(=O)N3CCC(C)CC3)ccc21 (3D coordinates assigned)
CCN(CC)CC[N@@H+](CC)C(=O)Cn1ccc2cc(S(=O)(=O)N3CCC(C)CC3)ccc21 (nonaromatic ring conformer: 115.33052043129295 kcal/mol)

>  <smiles>  (14) 
CCN(CC)CCN(CC)C(=O)Cn1ccc2cc(S(=O)(=O)N3CCC(C)CC3)ccc21

>  <score_type>  (14) 
oracle

>  <origin>  (14) 
adg

>  <m_score__min__energy>  (14) 
-9.1699999999999999

>  <m_primary>  (14) 
energy

$$$$
14:0
     RDKit          3D

 48 50  0  0  0  0  0  0  0  0999 V2000
    0.9694   24.5526  -27.6961 H   0  0  0  0  0  0  0  0  0  0  0  0
    0.1390   24.0880  -28.2480 C   0  0  0  0  0  0  0  0  0  0  0  0
    0.2030   22.7410  -28.6000 C   0  0  0  0  0  0  0  0  0  0  0  0
    1.0847   22.1439  -28.3243 H   0  0  0  0  0  0  0  0  0  0  0  0
   -0.8490   22.1460  -29.3020 C   0  0  0  0  0  0  0  0  0  0  0  0
   -0.7872   21.0827  -29.5770 H   0  0  0  0  0  0  0  0  0  0  0  0
   -1.9940   22.8980  -29.6630 C   0  0  0  0  0  0  0  0  0  0  0  0
   -3.0760   22.3200  -30.3840 C   0  0  0  0  0  0  0  0  0  0  0  0
   -2.9050   21.0750  -30.7650 N   0  0  0  0  0  0  0  0  0  0  0  0
   -3.1450   20.3050  -31.9810 C   0  0  0  0  0  0  0  0  0  0  0  0
   -2.3989   19.4994  -32.0474 H   0  0  0  0  0  0  0  0  0  0  0  0
   -3.0641   20.9845  -32.8422 H   0  0  0  0  0  0  0  0  0  0  0  0
   -4.5520   19.6850  -31.9850 C   0  0  0  0  0  0  0  0  0  0  0  0
   -5.2073   20.2640  -31.3177 H   0  0  0  0  0  0  0  0  0  0  0  0
   -4.4894   18.6442  -31.6346 H   0  0  0  0  0  0  0  0  0  0  0  0
   -5.1100   19.7040  -33.3600 N   0  0  0  0  0  0  0  0  0  0  0  0
   -6.5910   19.7070  -33.3480 C   0  0  0  0  0  0  0  0  0  0  0  0
   -6.9619   19.1172  -34.1992 H   0  0  0  0  0  0  0  0  0  0  0  0
   -6.9472   20.7449  -33.4248 H   0  0  0  0  0  0  0  0  0  0  0  0
   -7.1120   19.0980  -32.0480 C   0  0  0  0  0  0  0  0  0  0  0  0
   -6.6632   19.6226  -31.1916 H   0  0  0  0  0  0  0  0  0  0  0  0
   -8.2065   19.2002  -32.0080 H   0  0  0  0  0  0  0  0  0  0  0  0
   -6.8416   18.0325  -32.0080 H   0  0  0  0  0  0  0  0  0  0  0  0
   -4.5850   18.5860  -34.1780 C   0  0  0  0  0  0  0  0  0  0  0  0
   -3.8272   18.9712  -34.8761 H   0  0  0  0  0  0  0  0  0  0  0  0
   -4.1350   17.8347  -33.5124 H   0  0  0  0  0  0  0  0  0  0  0  0
   -5.7160   17.9360  -34.9700 C   0  0  0  0  0  0  0  0  0  0  0  0
   -6.4544   17.5116  -34.2738 H   0  0  0  0  0  0  0  0  0  0  0  0
   -6.2019   18.6926  -35.6035 H   0  0  0  0  0  0  0  0  0  0  0  0
   -5.3069   17.1352  -35.6035 H   0  0  0  0  0  0  0  0  0  0  0  0
   -4.2290   23.1420  -30.6650 C   0  0  0  0  0  0  0  0  0  0  0  0
   -5.4250   22.6960  -31.2860 C   0  0  0  0  0  0  0  0  0  0  0  0
   -5.5205   21.6363  -31.5653 H   0  0  0  0  0  0  0  0  0  0  0  0
   -6.4930   23.5750  -31.5540 C   0  0  0  0  0  0  0  0  0  0  0  0
   -7.6810   23.1530  -32.1730 O   0  0  0  0  0  0  0  0  0  0  0  0
   -8.5950   22.2110  -31.6200 C   0  0  0  0  0  0  0  0  0  0  0  0
   -8.5499   22.2575  -30.5219 H   0  0  0  0  0  0  0  0  0  0  0  0
   -9.6151   22.4494  -31.9555 H   0  0  0  0  0  0  0  0  0  0  0  0
   -8.3259   21.1986  -31.9555 H   0  0  0  0  0  0  0  0  0  0  0  0
   -6.3850   24.9150  -31.1950 C   0  0  0  0  0  0  0  0  0  0  0  0
   -7.2076   25.6098  -31.4198 H   0  0  0  0  0  0  0  0  0  0  0  0
   -5.2450   25.3790  -30.5550 C   0  0  0  0  0  0  0  0  0  0  0  0
   -5.1765   26.4371  -30.2621 H   0  0  0  0  0  0  0  0  0  0  0  0
   -4.1820   24.5130  -30.2790 C   0  0  0  0  0  0  0  0  0  0  0  0
   -3.1110   25.0140  -29.6220 N   0  0  0  0  0  0  0  0  0  0  0  0
   -2.0400   24.2600  -29.2950 C   0  0  0  0  0  0  0  0  0  0  0  0
   -0.9790   24.8470  -28.5960 C   0  0  0  0  0  0  0  0  0  0  0  0
   -1.0266   25.9107  -28.3199 H   0  0  0  0  0  0  0  0  0  0  0  0
  1  2  1  0
  2  3  2  0
  3  4  1  0
  3  5  1  0
  5  6  1  0
  5  7  2  0
  7  8  1  0
  8  9  2  0
  9 10  1  0
 10 11  1  0
 10 12  1  0
 10 13  1  0
 13 14  1  0
 13 15  1  0
 13 16  1  0
 16 17  1  0
 17 18  1  0
 17 19  1  0
 17 20  1  0
 20 21  1  0
 20 22  1  0
 20 23  1  0
 16 24  1  0
 24 25  1  0
 24 26  1  0
 24 27  1  0
 27 28  1  0
 27 29  1  0
 27 30  1  0
  8 31  1  0
 31 32  2  0
 32 33  1  0
 32 34  1  0
 34 35  1  0
 35 36  1  0
 36 37  1  0
 36 38  1  0
 36 39  1  0
 34 40  2  0
 40 41  1  0
 40 42  1  0
 42 43  1  0
 42 44  2  0
 44 45  1  0
 45 46  1  0
 46 47  2  0
 47 48  1  0
 47  2  1  0
 46  7  1  0
 44 31  1  0
M  CHG  1  45  -1
M  END
>  <UniqueID>  (15) 
15

>  <SMILES>  (15) 
CCN(CC)CC/N=c1/c2ccccc2[n-]c2ccc(OC)cc12

>  <Energy>  (15) 
72.95625742695358

>  <Genealogy>  (15) 
CCN(CC)CCN=c1c2ccccc2[n-]c2ccc(OC)cc12 (protonated)
CCN(CC)CC/N=c1/c2ccccc2[n-]c2ccc(OC)cc12 (cis-trans isomerization)
CCN(CC)CC/N=c1/c2ccccc2[n-]c2ccc(OC)cc12 (3D coordinates assigned)
CCN(CC)CC/N=c1/c2ccccc2[n-]c2ccc(OC)cc12 (optimized conformer: 72.95625742695358 kcal/mol)

>  <smiles>  (15) 
CCN(CC)CCN=c1c2ccccc2[nH]c2ccc(OC)cc12

>  <score_type>  (15) 
oracle

>  <origin>  (15) 
adg

>  <m_score__min__energy>  (15) 
-8.0500000000000007

>  <m_primary>  (15) 
energy

$$$$
15:0
     RDKit          3D

 43 44  0  0  0  0  0  0  0  0999 V2000
   -3.0940   21.6770  -28.3520 C   0  0  0  0  0  0  0  0  0  0  0  0
   -3.5120   21.2770  -29.7630 C   0  0  0  0  0  0  0  0  0  0  0  0
   -3.1900   22.3590  -30.7230 N   0  0  0  0  0  0  0  0  0  0  0  0
   -2.1720   21.9270  -31.7060 C   0  0  0  0  0  0  0  0  0  0  0  0
   -2.8430   21.5500  -33.0230 C   0  0  0  0  0  0  0  0  0  0  0  0
   -2.7790   23.5980  -30.0200 C   0  0  0  0  0  0  0  0  0  0  0  0
   -3.9800   24.5330  -29.8810 C   0  0  0  0  0  0  0  0  0  0  0  0
   -4.5900   24.7410  -31.2030 N   0  0  0  0  0  0  0  0  0  0  0  0
   -6.0520   24.8460  -31.1210 C   0  0  0  0  0  0  0  0  0  0  0  0
   -6.6800   23.5330  -31.5050 C   0  0  0  0  0  0  0  0  0  0  0  0
   -8.0730   23.4190  -31.6170 C   0  0  0  0  0  0  0  0  0  0  0  0
   -8.6410   22.1910  -31.9550 C   0  0  0  0  0  0  0  0  0  0  0  0
   -7.8200   21.0800  -32.1750 C   0  0  0  0  0  0  0  0  0  0  0  0
   -8.3660   19.8280  -32.4970 C   0  0  0  0  0  0  0  0  0  0  0  0
   -7.5250   18.7290  -32.6960 C   0  0  0  0  0  0  0  0  0  0  0  0
   -6.1400   18.8720  -32.5750 C   0  0  0  0  0  0  0  0  0  0  0  0
   -5.5860   20.1150  -32.2560 C   0  0  0  0  0  0  0  0  0  0  0  0
   -6.4190   21.2270  -32.0550 C   0  0  0  0  0  0  0  0  0  0  0  0
   -5.8890   22.4430  -31.7320 N   0  0  0  0  0  0  0  0  0  0  0  0
   -3.6868   21.1098  -27.6193 H   0  0  0  0  0  0  0  0  0  0  0  0
   -2.0259   21.4560  -28.2095 H   0  0  0  0  0  0  0  0  0  0  0  0
   -3.2678   22.7538  -28.2095 H   0  0  0  0  0  0  0  0  0  0  0  0
   -2.9753   20.3622  -30.0545 H   0  0  0  0  0  0  0  0  0  0  0  0
   -4.5974   21.0988  -29.7768 H   0  0  0  0  0  0  0  0  0  0  0  0
   -1.4630   22.7496  -31.8811 H   0  0  0  0  0  0  0  0  0  0  0  0
   -1.6377   21.0508  -31.3100 H   0  0  0  0  0  0  0  0  0  0  0  0
   -3.7849   21.0208  -32.8163 H   0  0  0  0  0  0  0  0  0  0  0  0
   -3.0539   22.4617  -33.6012 H   0  0  0  0  0  0  0  0  0  0  0  0
   -2.1740   20.8957  -33.6012 H   0  0  0  0  0  0  0  0  0  0  0  0
   -2.3971   23.3420  -29.0207 H   0  0  0  0  0  0  0  0  0  0  0  0
   -1.9903   24.1011  -30.5987 H   0  0  0  0  0  0  0  0  0  0  0  0
   -4.7192   24.0831  -29.2020 H   0  0  0  0  0  0  0  0  0  0  0  0
   -3.6493   25.4990  -29.4718 H   0  0  0  0  0  0  0  0  0  0  0  0
   -4.2200   25.6380  -31.5950 H   0  0  0  0  0  0  0  0  0  0  0  0
   -6.3425   25.1025  -30.0915 H   0  0  0  0  0  0  0  0  0  0  0  0
   -6.3990   25.6299  -31.8103 H   0  0  0  0  0  0  0  0  0  0  0  0
   -8.7150   24.2943  -31.4390 H   0  0  0  0  0  0  0  0  0  0  0  0
   -9.7329   22.0962  -32.0485 H   0  0  0  0  0  0  0  0  0  0  0  0
   -9.4556   19.7113  -32.5928 H   0  0  0  0  0  0  0  0  0  0  0  0
   -7.9548   17.7485  -32.9486 H   0  0  0  0  0  0  0  0  0  0  0  0
   -5.4836   18.0033  -32.7314 H   0  0  0  0  0  0  0  0  0  0  0  0
   -4.4952   20.2221  -32.1623 H   0  0  0  0  0  0  0  0  0  0  0  0
   -4.8510   22.5440  -31.6450 H   0  0  0  0  0  0  0  0  0  0  0  0
  1  2  1  0
  2  3  1  0
  3  4  1  0
  4  5  1  0
  3  6  1  0
  6  7  1  0
  7  8  1  0
  8  9  1  0
  9 10  1  0
 10 11  2  0
 11 12  1  0
 12 13  2  0
 13 14  1  0
 14 15  2  0
 15 16  1  0
 16 17  2  0
 17 18  1  0
 18 19  2  0
 19 10  1  0
 18 13  1  0
  1 20  1  0
  1 21  1  0
  1 22  1  0
  2 23  1  0
  2 24  1  0
  4 25  1  0
  4 26  1  0
  5 27  1  0
  5 28  1  0
  5 29  1  0
  6 30  1  0
  6 31  1  0
  7 32  1  0
  7 33  1  0
  8 34  1  0
  9 35  1  0
  9 36  1  0
 11 37  1  0
 12 38  1  0
 14 39  1  0
 15 40  1  0
 16 41  1  0
 17 42  1  0
 19 43  1  0
M  CHG  1  19   1
M  END
>  <UniqueID>  (16) 
16

>  <SMILES>  (16) 
CCN(CC)CCNCc1ccc2ccccc2[nH+]1

>  <Energy>  (16) 
38.74033912247385

>  <Genealogy>  (16) 
CCN(CC)CCNCc1ccc2ccccc2[nH+]1 (protonated)
CCN(CC)CCNCc1ccc2ccccc2[nH+]1 (3D coordinates assigned)
CCN(CC)CCNCc1ccc2ccccc2[nH+]1 (optimized conformer: 38.74033912247385 kcal/mol)

>  <smiles>  (16) 
CCN(CC)CCNCc1ccc2ccccc2n1

>  <score_type>  (16) 
oracle

>  <origin>  (16) 
adg

>  <m_score__min__energy>  (16) 
-5.8399999999999999

>  <m_primary>  (16) 
energy

$$$$
16:0
     RDKit          3D

 64 67  0  0  0  0  0  0  0  0999 V2000
   -5.7420   18.5910  -35.0050 C   0  0  0  0  0  0  0  0  0  0  0  0
   -4.7670   17.4980  -34.5760 C   0  0  0  0  0  0  0  0  0  0  0  0
   -3.8900   17.9560  -33.4740 N   0  0  0  0  0  0  0  0  0  0  0  0
   -2.9790   16.8690  -33.0170 C   0  0  0  0  0  0  0  0  0  0  0  0
   -1.8830   16.6350  -34.0510 C   0  0  0  0  0  0  0  0  0  0  0  0
   -3.1350   19.1640  -33.8870 C   0  0  0  0  0  0  0  0  0  0  0  0
   -3.4800   20.3830  -33.0040 C   0  0  0  0  0  0  0  0  0  0  0  0
   -4.1720   20.0150  -31.7500 N   0  0  0  0  0  0  0  0  0  0  0  0
   -5.4550   20.6950  -31.6140 C   0  0  0  0  0  0  0  0  0  0  0  0
   -6.6660   19.9790  -31.8290 C   0  0  0  0  0  0  0  0  0  0  0  0
   -6.6750   18.5870  -32.1100 C   0  0  0  0  0  0  0  0  0  0  0  0
   -7.8700   17.8850  -32.2420 C   0  0  0  0  0  0  0  0  0  0  0  0
   -9.0820   18.5440  -32.1070 C   0  0  0  0  0  0  0  0  0  0  0  0
   -9.1070   19.9170  -31.8780 C   0  0  0  0  0  0  0  0  0  0  0  0
   -7.9100   20.6660  -31.7730 C   0  0  0  0  0  0  0  0  0  0  0  0
   -7.9420   22.0330  -31.6160 N   0  0  0  0  0  0  0  0  0  0  0  0
   -9.1820   22.7820  -31.9230 C   0  0  0  0  0  0  0  0  0  0  0  0
   -6.8130   22.7090  -31.2090 C   0  0  0  0  0  0  0  0  0  0  0  0
   -6.8940   24.0430  -30.7420 C   0  0  0  0  0  0  0  0  0  0  0  0
   -5.7590   24.7580  -30.3880 C   0  0  0  0  0  0  0  0  0  0  0  0
   -4.4970   24.1700  -30.4750 C   0  0  0  0  0  0  0  0  0  0  0  0
   -3.3000   24.8930  -30.1240 N   0  0  0  0  0  0  0  0  0  0  0  0
   -2.4280   24.5490  -28.9980 C   0  0  0  0  0  0  0  0  0  0  0  0
   -2.3650   23.0540  -28.8170 C   0  0  0  0  0  0  0  0  0  0  0  0
   -2.8830   22.4440  -27.6630 C   0  0  0  0  0  0  0  0  0  0  0  0
   -2.8320   21.0540  -27.5270 C   0  0  0  0  0  0  0  0  0  0  0  0
   -2.2540   20.2870  -28.5420 C   0  0  0  0  0  0  0  0  0  0  0  0
   -1.7450   20.8920  -29.6490 N   0  0  0  0  0  0  0  0  0  0  0  0
   -1.7850   22.2420  -29.8070 C   0  0  0  0  0  0  0  0  0  0  0  0
   -4.3940   22.8430  -30.9050 C   0  0  0  0  0  0  0  0  0  0  0  0
   -5.5380   22.0730  -31.2420 C   0  0  0  0  0  0  0  0  0  0  0  0
   -6.1703   19.0711  -34.1128 H   0  0  0  0  0  0  0  0  0  0  0  0
   -5.2090   19.3427  -35.6057 H   0  0  0  0  0  0  0  0  0  0  0  0
   -6.5494   18.1469  -35.6057 H   0  0  0  0  0  0  0  0  0  0  0  0
   -5.3389   16.6216  -34.2372 H   0  0  0  0  0  0  0  0  0  0  0  0
   -4.1335   17.2423  -35.4382 H   0  0  0  0  0  0  0  0  0  0  0  0
   -2.5205   17.1570  -32.0595 H   0  0  0  0  0  0  0  0  0  0  0  0
   -3.5586   15.9427  -32.8906 H   0  0  0  0  0  0  0  0  0  0  0  0
   -0.9317   16.4319  -33.5374 H   0  0  0  0  0  0  0  0  0  0  0  0
   -2.1509   15.7738  -34.6808 H   0  0  0  0  0  0  0  0  0  0  0  0
   -1.7758   17.5305  -34.6808 H   0  0  0  0  0  0  0  0  0  0  0  0
   -2.0579   18.9569  -33.8037 H   0  0  0  0  0  0  0  0  0  0  0  0
   -3.4115   19.4030  -34.9245 H   0  0  0  0  0  0  0  0  0  0  0  0
   -2.5462   20.9051  -32.7481 H   0  0  0  0  0  0  0  0  0  0  0  0
   -4.1650   21.0218  -33.5808 H   0  0  0  0  0  0  0  0  0  0  0  0
   -3.5320   20.1400  -30.9400 H   0  0  0  0  0  0  0  0  0  0  0  0
   -4.3210   18.9820  -31.7280 H   0  0  0  0  0  0  0  0  0  0  0  0
   -5.7200   18.0535  -32.2255 H   0  0  0  0  0  0  0  0  0  0  0  0
   -7.8524   16.8057  -32.4538 H   0  0  0  0  0  0  0  0  0  0  0  0
  -10.0246   17.9818  -32.1808 H   0  0  0  0  0  0  0  0  0  0  0  0
  -10.0750   20.4296  -31.7767 H   0  0  0  0  0  0  0  0  0  0  0  0
   -9.6731   23.0786  -30.9845 H   0  0  0  0  0  0  0  0  0  0  0  0
   -8.9326   23.6807  -32.5063 H   0  0  0  0  0  0  0  0  0  0  0  0
   -9.8614   22.1431  -32.5063 H   0  0  0  0  0  0  0  0  0  0  0  0
   -7.8798   24.5238  -30.6579 H   0  0  0  0  0  0  0  0  0  0  0  0
   -5.8549   25.7958  -30.0363 H   0  0  0  0  0  0  0  0  0  0  0  0
   -2.9820   25.6680  -30.7510 H   0  0  0  0  0  0  0  0  0  0  0  0
   -1.4159   24.9330  -29.1934 H   0  0  0  0  0  0  0  0  0  0  0  0
   -2.8348   25.0016  -28.0817 H   0  0  0  0  0  0  0  0  0  0  0  0
   -3.3282   23.0593  -26.8673 H   0  0  0  0  0  0  0  0  0  0  0  0
   -3.2429   20.5684  -26.6296 H   0  0  0  0  0  0  0  0  0  0  0  0
   -2.2105   19.1921  -28.4457 H   0  0  0  0  0  0  0  0  0  0  0  0
   -1.3619   22.7004  -30.7130 H   0  0  0  0  0  0  0  0  0  0  0  0
   -3.3980   22.3829  -30.9843 H   0  0  0  0  0  0  0  0  0  0  0  0
  1  2  1  0
  2  3  1  0
  3  4  1  0
  4  5  1  0
  3  6  1  0
  6  7  1  0
  7  8  1  0
  8  9  1  0
  9 10  2  0
 10 11  1  0
 11 12  2  0
 12 13  1  0
 13 14  2  0
 14 15  1  0
 15 16  2  0
 16 17  1  0
 16 18  1  0
 18 19  2  0
 19 20  1  0
 20 21  2  0
 21 22  1  0
 22 23  1  0
 23 24  1  0
 24 25  2  0
 25 26  1  0
 26 27  2  0
 27 28  1  0
 28 29  2  0
 21 30  1  0
 30 31  2  0
 31  9  1  0
 15 10  1  0
 31 18  1  0
 29 24  1  0
  1 32  1  0
  1 33  1  0
  1 34  1  0
  2 35  1  0
  2 36  1  0
  4 37  1  0
  4 38  1  0
  5 39  1  0
  5 40  1  0
  5 41  1  0
  6 42  1  0
  6 43  1  0
  7 44  1  0
  7 45  1  0
  8 46  1  0
  8 47  1  0
 11 48  1  0
 12 49  1  0
 13 50  1  0
 14 51  1  0
 17 52  1  0
 17 53  1  0
 17 54  1  0
 19 55  1  0
 20 56  1  0
 22 57  1  0
 23 58  1  0
 23 59  1  0
 25 60  1  0
 26 61  1  0
 27 62  1  0
 29 63  1  0
 30 64  1  0
M  CHG  2   8   1  16   1
M  END
>  <UniqueID>  (17) 
17

>  <SMILES>  (17) 
CCN(CC)CC[NH2+]c1c2ccccc2[n+](C)c2ccc(NCc3cccnc3)cc12

>  <Energy>  (17) 
92.93721935352349

>  <Genealogy>  (17) 
CCN(CC)CC[NH2+]c1c2ccccc2[n+](C)c2ccc(NCc3cccnc3)cc12 (protonated)
CCN(CC)CC[NH2+]c1c2ccccc2[n+](C)c2ccc(NCc3cccnc3)cc12 (3D coordinates assigned)
CCN(CC)CC[NH2+]c1c2ccccc2[n+](C)c2ccc(NCc3cccnc3)cc12 (optimized conformer: 92.93721935352349 kcal/mol)

>  <smiles>  (17) 
CCN(CC)CCNc1c2ccccc2[n+](C)c2ccc(NCc3cccnc3)cc12

>  <score_type>  (17) 
oracle

>  <origin>  (17) 
adg

>  <m_score__min__energy>  (17) 
-8.7400000000000002

>  <m_primary>  (17) 
energy

$$$$
17:0
     RDKit          3D

 52 54  0  0  0  0  0  0  0  0999 V2000
   -4.6690   20.6840  -31.2440 C   0  0  0  0  0  0  0  0  0  0  0  0
   -5.1520   19.8930  -32.3800 N   0  0  0  0  0  0  0  0  0  0  0  0
   -4.3890   19.4380  -33.4020 C   0  0  0  0  0  0  0  0  0  0  0  0
   -2.8980   19.5870  -33.4970 C   0  0  0  0  0  0  0  0  0  0  0  0
   -2.5530   20.9400  -33.6060 O   0  0  0  0  0  0  0  0  0  0  0  0
   -5.1850   18.8890  -34.3880 C   0  0  0  0  0  0  0  0  0  0  0  0
   -6.4870   19.0210  -33.9590 C   0  0  0  0  0  0  0  0  0  0  0  0
   -6.4400   19.6360  -32.7170 C   0  0  0  0  0  0  0  0  0  0  0  0
   -7.6610   19.9980  -31.8950 C   0  0  0  0  0  0  0  0  0  0  0  0
   -7.8960   21.4610  -31.7640 N   0  0  0  0  0  0  0  0  0  0  0  0
   -6.9680   22.2620  -32.6010 C   0  0  0  0  0  0  0  0  0  0  0  0
   -6.9150   23.7140  -32.1210 C   0  0  0  0  0  0  0  0  0  0  0  0
   -6.3180   23.7840  -30.7710 N   0  0  0  0  0  0  0  0  0  0  0  0
   -6.5260   25.1040  -30.1370 C   0  0  0  0  0  0  0  0  0  0  0  0
   -5.3460   26.0400  -30.4270 C   0  0  0  0  0  0  0  0  0  0  0  0
   -4.1020   25.3360  -30.4620 O   0  0  0  0  0  0  0  0  0  0  0  0
   -3.7170   24.2850  -29.6100 C   0  0  0  0  0  0  0  0  0  0  0  0
   -2.8750   23.2940  -30.1320 C   0  0  0  0  0  0  0  0  0  0  0  0
   -2.4330   22.2400  -29.3260 C   0  0  0  0  0  0  0  0  0  0  0  0
   -2.8330   22.1650  -27.9890 C   0  0  0  0  0  0  0  0  0  0  0  0
   -2.4060   21.1400  -27.2120 F   0  0  0  0  0  0  0  0  0  0  0  0
   -3.6760   23.1430  -27.4580 C   0  0  0  0  0  0  0  0  0  0  0  0
   -4.1270   24.1960  -28.2630 C   0  0  0  0  0  0  0  0  0  0  0  0
   -6.6870   22.6430  -29.8910 C   0  0  0  0  0  0  0  0  0  0  0  0
   -7.9690   21.9210  -30.3470 C   0  0  0  0  0  0  0  0  0  0  0  0
   -4.9670   20.1960  -30.3043 H   0  0  0  0  0  0  0  0  0  0  0  0
   -3.5723   20.7567  -31.2877 H   0  0  0  0  0  0  0  0  0  0  0  0
   -5.1054   21.6928  -31.2877 H   0  0  0  0  0  0  0  0  0  0  0  0
   -2.4324   19.1649  -32.5942 H   0  0  0  0  0  0  0  0  0  0  0  0
   -2.5400   19.0524  -34.3892 H   0  0  0  0  0  0  0  0  0  0  0  0
   -2.6240   21.1750  -34.5690 H   0  0  0  0  0  0  0  0  0  0  0  0
   -4.8457   18.4353  -35.3309 H   0  0  0  0  0  0  0  0  0  0  0  0
   -7.3906   18.7002  -34.4980 H   0  0  0  0  0  0  0  0  0  0  0  0
   -8.5440   19.5482  -32.3724 H   0  0  0  0  0  0  0  0  0  0  0  0
   -7.4836   19.6142  -30.8795 H   0  0  0  0  0  0  0  0  0  0  0  0
   -8.8530   21.6190  -32.1630 H   0  0  0  0  0  0  0  0  0  0  0  0
   -5.9602   21.8255  -32.5400 H   0  0  0  0  0  0  0  0  0  0  0  0
   -7.3305   22.2481  -33.6395 H   0  0  0  0  0  0  0  0  0  0  0  0
   -6.3046   24.3054  -32.8193 H   0  0  0  0  0  0  0  0  0  0  0  0
   -7.9379   24.1167  -32.0823 H   0  0  0  0  0  0  0  0  0  0  0  0
   -7.4484   25.5532  -30.5337 H   0  0  0  0  0  0  0  0  0  0  0  0
   -6.6054   24.9637  -29.0489 H   0  0  0  0  0  0  0  0  0  0  0  0
   -5.5077   26.5245  -31.4012 H   0  0  0  0  0  0  0  0  0  0  0  0
   -5.2940   26.7832  -29.6177 H   0  0  0  0  0  0  0  0  0  0  0  0
   -2.5591   23.3455  -31.1844 H   0  0  0  0  0  0  0  0  0  0  0  0
   -1.7696   21.4690  -29.7449 H   0  0  0  0  0  0  0  0  0  0  0  0
   -3.9867   23.0861  -26.4043 H   0  0  0  0  0  0  0  0  0  0  0  0
   -4.8029   24.9560  -27.8441 H   0  0  0  0  0  0  0  0  0  0  0  0
   -5.8587   21.9192  -29.8897 H   0  0  0  0  0  0  0  0  0  0  0  0
   -6.8782   23.0502  -28.8872 H   0  0  0  0  0  0  0  0  0  0  0  0
   -8.1291   21.0456  -29.7004 H   0  0  0  0  0  0  0  0  0  0  0  0
   -8.7995   22.6384  -30.2723 H   0  0  0  0  0  0  0  0  0  0  0  0
  1  2  1  0
  2  3  1  0
  3  4  1  0
  4  5  1  0
  3  6  2  0
  6  7  1  0
  7  8  2  0
  8  9  1  0
  9 10  1  0
 10 11  1  0
 11 12  1  0
 12 13  1  0
 13 14  1  0
 14 15  1  0
 15 16  1  0
 16 17  1  0
 17 18  2  0
 18 19  1  0
 19 20  2  0
 20 21  1  0
 20 22  1  0
 22 23  2  0
 13 24  1  0
 24 25  1  0
  8  2  1  0
 25 10  1  0
 23 17  1  0
  1 26  1  0
  1 27  1  0
  1 28  1  0
  4 29  1  0
  4 30  1  0
  5 31  1  0
  6 32  1  0
  7 33  1  0
  9 34  1  0
  9 35  1  0
 10 36  1  0
 11 37  1  0
 11 38  1  0
 12 39  1  0
 12 40  1  0
 14 41  1  0
 14 42  1  0
 15 43  1  0
 15 44  1  0
 18 45  1  0
 19 46  1  0
 22 47  1  0
 23 48  1  0
 24 49  1  0
 24 50  1  0
 25 51  1  0
 25 52  1  0
M  CHG  1  10   1
M  END
>  <UniqueID>  (18) 
18

>  <SMILES>  (18) 
Cn1c(CO)ccc1C[NH+]1CCN(CCOc2ccc(F)cc2)CC1

>  <Energy>  (18) 
91.81146467822086

>  <Genealogy>  (18) 
Cn1c(CO)ccc1C[NH+]1CCN(CCOc2ccc(F)cc2)CC1 (protonated)
Cn1c(CO)ccc1C[NH+]1CCN(CCOc2ccc(F)cc2)CC1 (3D coordinates assigned)
Cn1c(CO)ccc1C[NH+]1CCN(CCOc2ccc(F)cc2)CC1 (nonaromatic ring conformer: 91.81146467822086 kcal/mol)

>  <smiles>  (18) 
Cn1c(CO)ccc1CN1CCN(CCOc2ccc(F)cc2)CC1

>  <score_type>  (18) 
oracle

>  <origin>  (18) 
adg

>  <m_score__min__energy>  (18) 
-7.0199999999999996

>  <m_primary>  (18) 
energy

$$$$
18:0
     RDKit          3D

 54 57  0  0  1  0  0  0  0  0999 V2000
   -0.4690   19.8850  -31.1390 C   0  0  0  0  0  0  0  0  0  0  0  0
    0.2600   20.5040  -32.3200 C   0  0  0  0  0  0  0  0  0  0  0  0
   -0.6590   20.6350  -33.4500 N   0  0  0  0  0  0  0  0  0  0  0  0
   -0.1350   20.5070  -34.7920 C   0  0  0  0  0  0  0  0  0  0  0  0
    0.3020   21.8480  -35.2970 C   0  0  0  0  0  0  0  0  0  0  0  0
   -2.0450   20.8910  -33.1850 C   0  0  0  0  0  0  0  0  0  0  0  0
   -2.9690   20.0740  -33.6790 N   0  0  0  0  0  0  0  0  0  0  0  0
   -4.2700   20.3090  -33.4390 C   0  0  0  0  0  0  0  0  0  0  0  0
   -4.6890   21.4110  -32.6680 C   0  0  0  0  0  0  0  0  0  0  0  0
   -6.1140   21.5520  -32.5120 C   0  0  0  0  0  0  0  0  0  0  0  0
   -6.9730   22.6270  -32.5270 C   0  0  0  0  0  0  0  0  0  0  0  0
   -8.2440   22.2390  -32.3400 N   0  0  0  0  0  0  0  0  0  0  0  0
   -8.2080   20.8980  -32.2030 C   0  0  0  0  0  0  0  0  0  0  0  0
   -9.2700   20.0370  -31.9880 C   0  0  0  0  0  0  0  0  0  0  0  0
   -9.0420   18.6790  -31.8700 C   0  0  0  0  0  0  0  0  0  0  0  0
   -7.7470   18.2450  -31.9740 C   0  0  0  0  0  0  0  0  0  0  0  0
   -6.7110   19.1470  -32.1890 C   0  0  0  0  0  0  0  0  0  0  0  0
   -6.9380   20.4690  -32.3040 N   0  0  0  0  0  0  0  0  0  0  0  0
   -3.7160   22.2070  -32.1840 C   0  0  0  0  0  0  0  0  0  0  0  0
   -3.9830   23.1340  -31.3860 N   0  0  0  0  0  0  0  0  0  0  0  0
   -4.3700   23.0410  -30.0460 C   0  0  2  0  0  0  0  0  0  0  0  0
   -5.8430   23.2270  -29.7910 C   0  0  0  0  0  0  0  0  0  0  0  0
   -6.3590   24.5870  -29.6800 C   0  0  0  0  0  0  0  0  0  0  0  0
   -5.6030   25.7070  -30.3010 C   0  0  0  0  0  0  0  0  0  0  0  0
   -4.2470   25.3930  -30.6290 N   0  0  0  0  0  0  0  0  0  0  0  0
   -3.8220   24.4810  -29.6200 C   0  0  0  0  0  0  0  0  0  0  0  0
   -2.4140   21.9420  -32.4480 N   0  0  0  0  0  0  0  0  0  0  0  0
   -0.0305   20.2573  -30.2014 H   0  0  0  0  0  0  0  0  0  0  0  0
   -1.5334   20.1594  -31.1804 H   0  0  0  0  0  0  0  0  0  0  0  0
   -0.3708   18.7902  -31.1804 H   0  0  0  0  0  0  0  0  0  0  0  0
    0.6368   21.4981  -32.0374 H   0  0  0  0  0  0  0  0  0  0  0  0
    1.1031   19.8587  -32.6078 H   0  0  0  0  0  0  0  0  0  0  0  0
    0.7255   19.8218  -34.7841 H   0  0  0  0  0  0  0  0  0  0  0  0
   -0.9201   20.1091  -35.4517 H   0  0  0  0  0  0  0  0  0  0  0  0
    0.5173   22.5086  -34.4442 H   0  0  0  0  0  0  0  0  0  0  0  0
    1.2087   21.7317  -35.9088 H   0  0  0  0  0  0  0  0  0  0  0  0
   -0.4991   22.2883  -35.9088 H   0  0  0  0  0  0  0  0  0  0  0  0
   -5.0251   19.6253  -33.8540 H   0  0  0  0  0  0  0  0  0  0  0  0
   -6.6581   23.6707  -32.6735 H   0  0  0  0  0  0  0  0  0  0  0  0
  -10.2935   20.4327  -31.9112 H   0  0  0  0  0  0  0  0  0  0  0  0
   -9.8687   17.9738  -31.6991 H   0  0  0  0  0  0  0  0  0  0  0  0
   -7.5243   17.1713  -31.8865 H   0  0  0  0  0  0  0  0  0  0  0  0
   -5.6802   18.7711  -32.2671 H   0  0  0  0  0  0  0  0  0  0  0  0
   -4.0577   22.0899  -29.5901 H   0  0  0  0  0  0  0  0  0  0  0  0
   -6.3807   22.7411  -30.6185 H   0  0  0  0  0  0  0  0  0  0  0  0
   -6.0027   22.7936  -28.7927 H   0  0  0  0  0  0  0  0  0  0  0  0
   -7.3617   24.5873  -30.1324 H   0  0  0  0  0  0  0  0  0  0  0  0
   -6.3001   24.7999  -28.6024 H   0  0  0  0  0  0  0  0  0  0  0  0
   -6.1214   26.0014  -31.2254 H   0  0  0  0  0  0  0  0  0  0  0  0
   -5.5670   26.5141  -29.5544 H   0  0  0  0  0  0  0  0  0  0  0  0
   -4.0840   25.0960  -31.5930 H   0  0  0  0  0  0  0  0  0  0  0  0
   -2.7238   24.4666  -29.5596 H   0  0  0  0  0  0  0  0  0  0  0  0
   -4.2059   24.7753  -28.6320 H   0  0  0  0  0  0  0  0  0  0  0  0
   -1.6510   22.5540  -32.0820 H   0  0  0  0  0  0  0  0  0  0  0  0
  1  2  1  0
  2  3  1  0
  3  4  1  0
  4  5  1  0
  3  6  1  0
  6  7  2  0
  7  8  1  0
  8  9  2  0
  9 10  1  0
 10 11  2  0
 11 12  1  0
 12 13  2  0
 13 14  1  0
 14 15  2  0
 15 16  1  0
 16 17  2  0
 17 18  1  0
  9 19  1  0
 19 20  2  0
 20 21  1  0
 21 22  1  0
 22 23  1  0
 23 24  1  0
 24 25  1  0
 25 26  1  0
 19 27  1  0
 27  6  1  0
 18 10  1  0
 26 21  1  0
 18 13  1  0
  1 28  1  0
  1 29  1  0
  1 30  1  0
  2 31  1  0
  2 32  1  0
  4 33  1  0
  4 34  1  0
  5 35  1  0
  5 36  1  0
  5 37  1  0
  8 38  1  0
 11 39  1  0
 14 40  1  0
 15 41  1  0
 16 42  1  0
 17 43  1  0
 21 44  1  1
 22 45  1  0
 22 46  1  0
 23 47  1  0
 23 48  1  0
 24 49  1  0
 24 50  1  0
 25 51  1  0
 26 52  1  0
 26 53  1  0
 27 54  1  0
M  END
>  <smiles>  (19) 
CCN(CC)c1ncc(-c2cnc3ccccn23)c(=NC2CCCNC2)[nH]1

>  <score_type>  (19) 
oracle

>  <origin>  (19) 
adg

>  <m_score__min__energy>  (19) 
-9.1300000000000008

>  <m_primary>  (19) 
energy

$$$$
19:0
     RDKit          3D

 44 44  0  0  0  0  0  0  0  0999 V2000
   -1.2330   21.5390  -31.4440 C   0  0  0  0  0  0  0  0  0  0  0  0
   -1.7750   22.5840  -30.4710 C   0  0  0  0  0  0  0  0  0  0  0  0
   -3.1000   22.1690  -29.9560 N   0  0  0  0  0  0  0  0  0  0  0  0
   -3.0640   20.7780  -29.4480 C   0  0  0  0  0  0  0  0  0  0  0  0
   -2.6660   20.7600  -27.9750 C   0  0  0  0  0  0  0  0  0  0  0  0
   -3.6000   23.1090  -28.9210 C   0  0  0  0  0  0  0  0  0  0  0  0
   -3.2140   24.5460  -29.2750 C   0  0  0  0  0  0  0  0  0  0  0  0
   -3.8070   24.9190  -30.5010 O   0  0  0  0  0  0  0  0  0  0  0  0
   -5.0860   25.4860  -30.2880 C   0  0  0  0  0  0  0  0  0  0  0  0
   -6.1760   24.6240  -30.9350 C   0  0  0  0  0  0  0  0  0  0  0  0
   -5.6740   23.2810  -31.2360 N   0  0  0  0  0  0  0  0  0  0  0  0
   -6.5270   22.1610  -31.5340 C   0  0  0  0  0  0  0  0  0  0  0  0
   -7.8160   22.0730  -30.9960 C   0  0  0  0  0  0  0  0  0  0  0  0
   -8.6000   21.0000  -31.2770 N   0  0  0  0  0  0  0  0  0  0  0  0
   -8.1800   20.0070  -32.0710 N   0  0  0  0  0  0  0  0  0  0  0  0
   -9.0560   18.8530  -32.3100 C   0  0  0  0  0  0  0  0  0  0  0  0
   -6.9300   20.0440  -32.6290 C   0  0  0  0  0  0  0  0  0  0  0  0
   -6.5300   19.1010  -33.3670 O   0  0  0  0  0  0  0  0  0  0  0  0
   -6.0850   21.1310  -32.3750 C   0  0  0  0  0  0  0  0  0  0  0  0
   -4.4610   21.1540  -33.0610 Cl  0  0  0  0  0  0  0  0  0  0  0  0
   -0.7987   20.7016  -30.8782 H   0  0  0  0  0  0  0  0  0  0  0  0
   -2.0523   21.1679  -32.0773 H   0  0  0  0  0  0  0  0  0  0  0  0
   -0.4577   21.9949  -32.0773 H   0  0  0  0  0  0  0  0  0  0  0  0
   -1.0760   22.6924  -29.6286 H   0  0  0  0  0  0  0  0  0  0  0  0
   -1.8809   23.5432  -30.9989 H   0  0  0  0  0  0  0  0  0  0  0  0
   -4.0603   20.3254  -29.5598 H   0  0  0  0  0  0  0  0  0  0  0  0
   -2.3223   20.2064  -30.0251 H   0  0  0  0  0  0  0  0  0  0  0  0
   -3.5705   20.8009  -27.3503 H   0  0  0  0  0  0  0  0  0  0  0  0
   -2.1109   19.8358  -27.7564 H   0  0  0  0  0  0  0  0  0  0  0  0
   -2.0297   21.6303  -27.7564 H   0  0  0  0  0  0  0  0  0  0  0  0
   -4.6957   23.0324  -28.8607 H   0  0  0  0  0  0  0  0  0  0  0  0
   -3.1489   22.8465  -27.9527 H   0  0  0  0  0  0  0  0  0  0  0  0
   -3.5630   25.2227  -28.4811 H   0  0  0  0  0  0  0  0  0  0  0  0
   -2.1200   24.6125  -29.3689 H   0  0  0  0  0  0  0  0  0  0  0  0
   -5.2748   25.5549  -29.2065 H   0  0  0  0  0  0  0  0  0  0  0  0
   -5.1094   26.4866  -30.7443 H   0  0  0  0  0  0  0  0  0  0  0  0
   -7.0280   24.5430  -30.2439 H   0  0  0  0  0  0  0  0  0  0  0  0
   -6.4871   25.1008  -31.8762 H   0  0  0  0  0  0  0  0  0  0  0  0
   -4.6460   23.1220  -31.1390 H   0  0  0  0  0  0  0  0  0  0  0  0
   -8.1949   22.8742  -30.3444 H   0  0  0  0  0  0  0  0  0  0  0  0
   -9.5520   20.9660  -30.8460 H   0  0  0  0  0  0  0  0  0  0  0  0
   -9.3768   18.4304  -31.3464 H   0  0  0  0  0  0  0  0  0  0  0  0
   -9.9391   19.1751  -32.8813 H   0  0  0  0  0  0  0  0  0  0  0  0
   -8.5083   18.0890  -32.8813 H   0  0  0  0  0  0  0  0  0  0  0  0
  1  2  1  0
  2  3  1  0
  3  4  1  0
  4  5  1  0
  3  6  1  0
  6  7  1  0
  7  8  1  0
  8  9  1  0
  9 10  1  0
 10 11  1  0
 11 12  1  0
 12 13  1  0
 13 14  2  0
 14 15  1  0
 15 16  1  0
 15 17  1  0
 17 18  2  0
 17 19  1  0
 19 20  1  0
 19 12  2  0
  1 21  1  0
  1 22  1  0
  1 23  1  0
  2 24  1  0
  2 25  1  0
  4 26  1  0
  4 27  1  0
  5 28  1  0
  5 29  1  0
  5 30  1  0
  6 31  1  0
  6 32  1  0
  7 33  1  0
  7 34  1  0
  9 35  1  0
  9 36  1  0
 10 37  1  0
 10 38  1  0
 11 39  1  0
 13 40  1  0
 14 41  1  0
 16 42  1  0
 16 43  1  0
 16 44  1  0
M  CHG  1  14   1
M  END
>  <UniqueID>  (20) 
19

>  <SMILES>  (20) 
CCN(CC)CCOCCNc1c[nH+]n(C)c(=O)c1Cl

>  <Energy>  (20) 
39.958612527006416

>  <Genealogy>  (20) 
CCN(CC)CCOCCNc1c[nH+]n(C)c(=O)c1Cl (protonated)
CCN(CC)CCOCCNc1c[nH+]n(C)c(=O)c1Cl (3D coordinates assigned)
CCN(CC)CCOCCNc1c[nH+]n(C)c(=O)c1Cl (optimized conformer: 39.958612527006416 kcal/mol)

>  <smiles>  (20) 
CCN(CC)CCOCCNc1cnn(C)c(=O)c1Cl

>  <score_type>  (20) 
oracle

>  <origin>  (20) 
adg

>  <m_score__min__energy>  (20) 
-6.1299999999999999

>  <m_primary>  (20) 
energy

$$$$
20:0
     RDKit          3D

 45 45  0  0  0  0  0  0  0  0999 V2000
   -0.7670   25.5026  -27.9116 H   0  0  0  0  0  0  0  0  0  0  0  0
   -1.3620   24.8100  -28.5250 C   0  0  0  0  0  0  0  0  0  0  0  0
   -2.3550   25.2870  -29.3190 N   0  0  0  0  0  0  0  0  0  0  0  0
   -3.1370   24.4870  -30.0950 C   0  0  0  0  0  0  0  0  0  0  0  0
   -4.0290   25.0840  -30.8410 N   0  0  0  0  0  0  0  0  0  0  0  0
   -5.3040   25.6930  -30.4740 C   0  0  0  0  0  0  0  0  0  0  0  0
   -5.1942   26.2228  -29.5162 H   0  0  0  0  0  0  0  0  0  0  0  0
   -5.6071   26.4045  -31.2562 H   0  0  0  0  0  0  0  0  0  0  0  0
   -6.3720   24.6060  -30.3350 C   0  0  0  0  0  0  0  0  0  0  0  0
   -6.0782   23.9273  -29.5207 H   0  0  0  0  0  0  0  0  0  0  0  0
   -7.3282   25.1074  -30.1247 H   0  0  0  0  0  0  0  0  0  0  0  0
   -6.5570   23.7760  -31.6270 C   0  0  0  0  0  0  0  0  0  0  0  0
   -7.4316   24.1713  -32.1645 H   0  0  0  0  0  0  0  0  0  0  0  0
   -5.6179   23.8720  -32.1918 H   0  0  0  0  0  0  0  0  0  0  0  0
   -6.7670   22.3170  -31.4120 N   0  0  0  0  0  0  0  0  0  0  0  0
   -5.8710   21.9260  -31.0390 H   0  0  0  0  0  0  0  0  0  0  0  0
   -6.9850   21.6580  -32.7260 C   0  0  0  0  0  0  0  0  0  0  0  0
   -8.0498   21.7450  -32.9882 H   0  0  0  0  0  0  0  0  0  0  0  0
   -6.3365   22.1638  -33.4565 H   0  0  0  0  0  0  0  0  0  0  0  0
   -6.6020   20.1720  -32.7290 C   0  0  0  0  0  0  0  0  0  0  0  0
   -6.5100   19.8150  -31.6926 H   0  0  0  0  0  0  0  0  0  0  0  0
   -7.3805   19.5938  -33.2483 H   0  0  0  0  0  0  0  0  0  0  0  0
   -5.6410   20.0421  -33.2483 H   0  0  0  0  0  0  0  0  0  0  0  0
   -7.8290   22.0050  -30.4140 C   0  0  0  0  0  0  0  0  0  0  0  0
   -7.4633   21.1933  -29.7679 H   0  0  0  0  0  0  0  0  0  0  0  0
   -8.0249   22.9399  -29.8685 H   0  0  0  0  0  0  0  0  0  0  0  0
   -9.1730   21.5670  -31.0170 C   0  0  0  0  0  0  0  0  0  0  0  0
   -9.8806   21.3364  -30.2069 H   0  0  0  0  0  0  0  0  0  0  0  0
   -9.5785   22.3795  -31.6378 H   0  0  0  0  0  0  0  0  0  0  0  0
   -9.0219   20.6716  -31.6378 H   0  0  0  0  0  0  0  0  0  0  0  0
   -2.9080   23.0750  -30.0650 C   0  0  0  0  0  0  0  0  0  0  0  0
   -3.6880   22.0800  -30.8150 C   0  0  0  0  0  0  0  0  0  0  0  0
   -4.0820   21.0320  -30.2310 O   0  0  0  0  0  0  0  0  0  0  0  0
   -4.0350   22.3270  -32.1460 O   0  0  0  0  0  0  0  0  0  0  0  0
   -3.4870   21.5850  -33.2300 C   0  0  0  0  0  0  0  0  0  0  0  0
   -3.4885   22.2067  -34.1375 H   0  0  0  0  0  0  0  0  0  0  0  0
   -4.0943   20.6840  -33.4012 H   0  0  0  0  0  0  0  0  0  0  0  0
   -2.0600   21.1780  -32.8970 C   0  0  0  0  0  0  0  0  0  0  0  0
   -1.9343   21.1422  -31.8048 H   0  0  0  0  0  0  0  0  0  0  0  0
   -1.8531   20.1850  -33.3227 H   0  0  0  0  0  0  0  0  0  0  0  0
   -1.3604   21.9124  -33.3227 H   0  0  0  0  0  0  0  0  0  0  0  0
   -1.8690   22.5820  -29.2600 C   0  0  0  0  0  0  0  0  0  0  0  0
   -1.6621   21.5018  -29.2392 H   0  0  0  0  0  0  0  0  0  0  0  0
   -1.0980   23.4460  -28.4880 C   0  0  0  0  0  0  0  0  0  0  0  0
   -0.2883   23.0535  -27.8553 H   0  0  0  0  0  0  0  0  0  0  0  0
  1  2  1  0
  2  3  1  0
  3  4  1  0
  4  5  2  0
  5  6  1  0
  6  7  1  0
  6  8  1  0
  6  9  1  0
  9 10  1  0
  9 11  1  0
  9 12  1  0
 12 13  1  0
 12 14  1  0
 12 15  1  0
 15 16  1  0
 15 17  1  0
 17 18  1  0
 17 19  1  0
 17 20  1  0
 20 21  1  0
 20 22  1  0
 20 23  1  0
 15 24  1  0
 24 25  1  0
 24 26  1  0
 24 27  1  0
 27 28  1  0
 27 29  1  0
 27 30  1  0
  4 31  1  0
 31 32  1  0
 32 33  2  0
 32 34  1  0
 34 35  1  0
 35 36  1  0
 35 37  1  0
 35 38  1  0
 38 39  1  0
 38 40  1  0
 38 41  1  0
 31 42  2  0
 42 43  1  0
 42 44  1  0
 44 45  1  0
 44  2  2  0
M  CHG  2   3  -1  15   1
M  END
>  <UniqueID>  (21) 
20

>  <SMILES>  (21) 
CCOC(=O)c1ccc[n-]/c1=N/CCC[NH+](CC)CC

>  <Energy>  (21) 
51.77130522285021

>  <Genealogy>  (21) 
CCOC(=O)c1ccc[n-]c1=NCCC[NH+](CC)CC (protonated)
CCOC(=O)c1ccc[n-]/c1=N/CCC[NH+](CC)CC (cis-trans isomerization)
CCOC(=O)c1ccc[n-]/c1=N/CCC[NH+](CC)CC (3D coordinates assigned)
CCOC(=O)c1ccc[n-]/c1=N/CCC[NH+](CC)CC (optimized conformer: 51.77130522285021 kcal/mol)

>  <smiles>  (21) 
CCOC(=O)c1ccc[nH]c1=NCCCN(CC)CC

>  <score_type>  (21) 
oracle

>  <origin>  (21) 
adg

>  <m_score__min__energy>  (21) 
-6.4100000000000001

>  <m_primary>  (21) 
energy

$$$$
21:0
     RDKit          3D

 50 52  0  0  0  0  0  0  0  0999 V2000
   -7.1240   22.7150  -29.8510 C   0  0  0  0  0  0  0  0  0  0  0  0
   -7.0380   23.6610  -31.0470 C   0  0  0  0  0  0  0  0  0  0  0  0
   -5.6350   24.0380  -31.3610 N   0  0  0  0  0  0  0  0  0  0  0  0
   -5.3560   25.4050  -30.8560 C   0  0  0  0  0  0  0  0  0  0  0  0
   -6.1350   25.6850  -29.5710 C   0  0  0  0  0  0  0  0  0  0  0  0
   -4.6650   23.0490  -30.8150 C   0  0  0  0  0  0  0  0  0  0  0  0
   -3.9590   22.2830  -31.9560 C   0  0  0  0  0  0  0  0  0  0  0  0
   -4.8470   21.9620  -33.0910 N   0  0  0  0  0  0  0  0  0  0  0  0
   -5.1280   20.5340  -33.2030 C   0  0  0  0  0  0  0  0  0  0  0  0
   -6.4260   20.0370  -32.8860 C   0  0  0  0  0  0  0  0  0  0  0  0
   -7.4360   20.8730  -32.3420 C   0  0  0  0  0  0  0  0  0  0  0  0
   -8.6880   20.3670  -32.0040 C   0  0  0  0  0  0  0  0  0  0  0  0
   -8.9640   19.0210  -32.1760 C   0  0  0  0  0  0  0  0  0  0  0  0
   -7.9990   18.1750  -32.7100 C   0  0  0  0  0  0  0  0  0  0  0  0
   -6.7270   18.6650  -33.1060 C   0  0  0  0  0  0  0  0  0  0  0  0
   -5.7920   17.8310  -33.6790 N   0  0  0  0  0  0  0  0  0  0  0  0
   -6.2090   16.5170  -34.2220 C   0  0  0  0  0  0  0  0  0  0  0  0
   -4.4760   18.2290  -33.7740 C   0  0  0  0  0  0  0  0  0  0  0  0
   -3.4520   17.2890  -34.0600 C   0  0  0  0  0  0  0  0  0  0  0  0
   -2.1330   17.6870  -34.2320 C   0  0  0  0  0  0  0  0  0  0  0  0
   -1.7910   19.0240  -34.1120 C   0  0  0  0  0  0  0  0  0  0  0  0
   -0.5040   19.4090  -34.2950 F   0  0  0  0  0  0  0  0  0  0  0  0
   -2.7610   19.9690  -33.7870 C   0  0  0  0  0  0  0  0  0  0  0  0
   -4.1190   19.5970  -33.5840 C   0  0  0  0  0  0  0  0  0  0  0  0
   -7.0711   23.2967  -28.9189 H   0  0  0  0  0  0  0  0  0  0  0  0
   -8.0759   22.1648  -29.8864 H   0  0  0  0  0  0  0  0  0  0  0  0
   -6.2870   22.0022  -29.8864 H   0  0  0  0  0  0  0  0  0  0  0  0
   -7.4768   23.1640  -31.9248 H   0  0  0  0  0  0  0  0  0  0  0  0
   -7.5872   24.5796  -30.7929 H   0  0  0  0  0  0  0  0  0  0  0  0
   -4.2793   25.5000  -30.6517 H   0  0  0  0  0  0  0  0  0  0  0  0
   -5.6693   26.1312  -31.6205 H   0  0  0  0  0  0  0  0  0  0  0  0
   -5.5014   25.4573  -28.7011 H   0  0  0  0  0  0  0  0  0  0  0  0
   -6.4283   26.7448  -29.5436 H   0  0  0  0  0  0  0  0  0  0  0  0
   -7.0359   25.0544  -29.5436 H   0  0  0  0  0  0  0  0  0  0  0  0
   -3.9099   23.5782  -30.2152 H   0  0  0  0  0  0  0  0  0  0  0  0
   -5.2124   22.3263  -30.1920 H   0  0  0  0  0  0  0  0  0  0  0  0
   -3.1288   22.9013  -32.3282 H   0  0  0  0  0  0  0  0  0  0  0  0
   -3.6134   21.3266  -31.5366 H   0  0  0  0  0  0  0  0  0  0  0  0
   -5.6890   22.5640  -33.0350 H   0  0  0  0  0  0  0  0  0  0  0  0
   -4.4060   22.2980  -33.9770 H   0  0  0  0  0  0  0  0  0  0  0  0
   -7.2253   21.9411  -32.1845 H   0  0  0  0  0  0  0  0  0  0  0  0
   -9.4600   21.0380  -31.5993 H   0  0  0  0  0  0  0  0  0  0  0  0
   -9.9479   18.6209  -31.8898 H   0  0  0  0  0  0  0  0  0  0  0  0
   -8.2254   17.1050  -32.8280 H   0  0  0  0  0  0  0  0  0  0  0  0
   -6.4272   15.8296  -33.3914 H   0  0  0  0  0  0  0  0  0  0  0  0
   -7.1108   16.6446  -34.8388 H   0  0  0  0  0  0  0  0  0  0  0  0
   -5.3986   16.1013  -34.8388 H   0  0  0  0  0  0  0  0  0  0  0  0
   -3.7086   16.2229  -34.1472 H   0  0  0  0  0  0  0  0  0  0  0  0
   -1.3592   16.9403  -34.4637 H   0  0  0  0  0  0  0  0  0  0  0  0
   -2.4710   21.0252  -33.6851 H   0  0  0  0  0  0  0  0  0  0  0  0
  1  2  1  0
  2  3  1  0
  3  4  1  0
  4  5  1  0
  3  6  1  0
  6  7  1  0
  7  8  1  0
  8  9  1  0
  9 10  2  0
 10 11  1  0
 11 12  2  0
 12 13  1  0
 13 14  2  0
 14 15  1  0
 15 16  2  0
 16 17  1  0
 16 18  1  0
 18 19  2  0
 19 20  1  0
 20 21  2  0
 21 22  1  0
 21 23  1  0
 23 24  2  0
 24  9  1  0
 15 10  1  0
 24 18  1  0
  1 25  1  0
  1 26  1  0
  1 27  1  0
  2 28  1  0
  2 29  1  0
  4 30  1  0
  4 31  1  0
  5 32  1  0
  5 33  1  0
  5 34  1  0
  6 35  1  0
  6 36  1  0
  7 37  1  0
  7 38  1  0
  8 39  1  0
  8 40  1  0
 11 41  1  0
 12 42  1  0
 13 43  1  0
 14 44  1  0
 17 45  1  0
 17 46  1  0
 17 47  1  0
 19 48  1  0
 20 49  1  0
 23 50  1  0
M  CHG  2   8   1  16   1
M  END
>  <UniqueID>  (22) 
21

>  <SMILES>  (22) 
CCN(CC)CC[NH2+]c1c2ccccc2[n+](C)c2ccc(F)cc12

>  <Energy>  (22) 
81.4545423819284

>  <Genealogy>  (22) 
CCN(CC)CC[NH2+]c1c2ccccc2[n+](C)c2ccc(F)cc12 (protonated)
CCN(CC)CC[NH2+]c1c2ccccc2[n+](C)c2ccc(F)cc12 (3D coordinates assigned)
CCN(CC)CC[NH2+]c1c2ccccc2[n+](C)c2ccc(F)cc12 (optimized conformer: 81.4545423819284 kcal/mol)

>  <smiles>  (22) 
CCN(CC)CCNc1c2ccccc2[n+](C)c2ccc(F)cc12

>  <score_type>  (22) 
oracle

>  <origin>  (22) 
adg

>  <m_score__min__energy>  (22) 
-7.8600000000000003

>  <m_primary>  (22) 
energy

$$$$
22:0
     RDKit          3D

 43 44  0  0  0  0  0  0  0  0999 V2000
    1.0300   24.3070  -36.1150 C   0  0  0  0  0  0  0  0  0  0  0  0
    1.3630   22.8670  -35.7400 C   0  0  0  0  0  0  0  0  0  0  0  0
    0.3060   22.2990  -34.9890 O   0  0  0  0  0  0  0  0  0  0  0  0
    0.7870   21.2600  -34.1620 C   0  0  0  0  0  0  0  0  0  0  0  0
   -0.3110   20.8710  -33.1620 C   0  0  0  0  0  0  0  0  0  0  0  0
   -1.6680   20.9170  -33.7640 N   0  0  0  0  0  0  0  0  0  0  0  0
   -2.1130   19.5730  -34.2380 C   0  0  0  0  0  0  0  0  0  0  0  0
   -3.0720   18.8820  -33.2530 C   0  0  0  0  0  0  0  0  0  0  0  0
   -4.2870   19.6930  -32.9800 N   0  0  0  0  0  0  0  0  0  0  0  0
   -5.4490   19.2450  -33.7750 C   0  0  0  0  0  0  0  0  0  0  0  0
   -6.7290   19.4590  -33.0060 C   0  0  0  0  0  0  0  0  0  0  0  0
   -7.1730   20.7600  -32.7130 C   0  0  0  0  0  0  0  0  0  0  0  0
   -8.3650   20.9570  -32.0080 C   0  0  0  0  0  0  0  0  0  0  0  0
   -9.1200   19.8580  -31.5910 C   0  0  0  0  0  0  0  0  0  0  0  0
   -8.6860   18.5610  -31.8770 C   0  0  0  0  0  0  0  0  0  0  0  0
   -7.4960   18.3580  -32.5820 C   0  0  0  0  0  0  0  0  0  0  0  0
   -7.0900   17.0910  -32.8530 F   0  0  0  0  0  0  0  0  0  0  0  0
   -4.0710   21.1490  -33.1460 C   0  0  0  0  0  0  0  0  0  0  0  0
   -2.6260   21.5340  -32.8100 C   0  0  0  0  0  0  0  0  0  0  0  0
    0.8925   24.9018  -35.1999 H   0  0  0  0  0  0  0  0  0  0  0  0
    1.8537   24.7314  -36.7078 H   0  0  0  0  0  0  0  0  0  0  0  0
    0.1036   24.3267  -36.7078 H   0  0  0  0  0  0  0  0  0  0  0  0
    1.5139   22.2786  -36.6571 H   0  0  0  0  0  0  0  0  0  0  0  0
    2.2797   22.8579  -35.1320 H   0  0  0  0  0  0  0  0  0  0  0  0
    1.0497   20.3883  -34.7794 H   0  0  0  0  0  0  0  0  0  0  0  0
    1.6816   21.5996  -33.6195 H   0  0  0  0  0  0  0  0  0  0  0  0
   -0.1175   19.8487  -32.8050 H   0  0  0  0  0  0  0  0  0  0  0  0
   -0.2856   21.5979  -32.3368 H   0  0  0  0  0  0  0  0  0  0  0  0
   -1.6320   21.5490  -34.6000 H   0  0  0  0  0  0  0  0  0  0  0  0
   -2.6266   19.6929  -35.2033 H   0  0  0  0  0  0  0  0  0  0  0  0
   -1.2179   18.9401  -34.3285 H   0  0  0  0  0  0  0  0  0  0  0  0
   -3.3807   17.9163  -33.6796 H   0  0  0  0  0  0  0  0  0  0  0  0
   -2.5366   18.7502  -32.3012 H   0  0  0  0  0  0  0  0  0  0  0  0
   -5.4894   19.8193  -34.7123 H   0  0  0  0  0  0  0  0  0  0  0  0
   -5.3394   18.1722  -33.9921 H   0  0  0  0  0  0  0  0  0  0  0  0
   -6.5804   21.6273  -33.0396 H   0  0  0  0  0  0  0  0  0  0  0  0
   -8.7079   21.9774  -31.7819 H   0  0  0  0  0  0  0  0  0  0  0  0
  -10.0573   20.0139  -31.0368 H   0  0  0  0  0  0  0  0  0  0  0  0
   -9.2821   17.6976  -31.5466 H   0  0  0  0  0  0  0  0  0  0  0  0
   -4.2838   21.4272  -34.1887 H   0  0  0  0  0  0  0  0  0  0  0  0
   -4.7438   21.6827  -32.4586 H   0  0  0  0  0  0  0  0  0  0  0  0
   -2.5260   22.6284  -32.8589 H   0  0  0  0  0  0  0  0  0  0  0  0
   -2.3947   21.1673  -31.7991 H   0  0  0  0  0  0  0  0  0  0  0  0
  1  2  1  0
  2  3  1  0
  3  4  1  0
  4  5  1  0
  5  6  1  0
  6  7  1  0
  7  8  1  0
  8  9  1  0
  9 10  1  0
 10 11  1  0
 11 12  2  0
 12 13  1  0
 13 14  2  0
 14 15  1  0
 15 16  2  0
 16 17  1  0
  9 18  1  0
 18 19  1  0
 19  6  1  0
 16 11  1  0
  1 20  1  0
  1 21  1  0
  1 22  1  0
  2 23  1  0
  2 24  1  0
  4 25  1  0
  4 26  1  0
  5 27  1  0
  5 28  1  0
  6 29  1  0
  7 30  1  0
  7 31  1  0
  8 32  1  0
  8 33  1  0
 10 34  1  0
 10 35  1  0
 12 36  1  0
 13 37  1  0
 14 38  1  0
 15 39  1  0
 18 40  1  0
 18 41  1  0
 19 42  1  0
 19 43  1  0
M  CHG  1   6   1
M  END
>  <UniqueID>  (23) 
22

>  <SMILES>  (23) 
CCOCC[NH+]1CCN(Cc2ccccc2F)CC1

>  <Energy>  (23) 
54.58010141057272

>  <Genealogy>  (23) 
CCOCC[NH+]1CCN(Cc2ccccc2F)CC1 (protonated)
CCOCC[NH+]1CCN(Cc2ccccc2F)CC1 (3D coordinates assigned)
CCOCC[NH+]1CCN(Cc2ccccc2F)CC1 (nonaromatic ring conformer: 54.58010141057272 kcal/mol)

>  <smiles>  (23) 
CCOCCN1CCN(Cc2ccccc2F)CC1

>  <score_type>  (23) 
oracle

>  <origin>  (23) 
adg

>  <m_score__min__energy>  (23) 
-6.3899999999999997

>  <m_primary>  (23) 
energy

$$$$
23:0
     RDKit          3D

 52 53  0  0  0  0  0  0  0  0999 V2000
   -0.1130   20.9000  -35.1700 C   0  0  0  0  0  0  0  0  0  0  0  0
   -1.2880   20.6400  -34.2200 C   0  0  0  0  0  0  0  0  0  0  0  0
   -1.3370   19.2260  -33.7580 N   0  0  0  0  0  0  0  0  0  0  0  0
   -0.9070   19.1330  -32.3370 C   0  0  0  0  0  0  0  0  0  0  0  0
   -1.1940   20.4240  -31.5570 C   0  0  0  0  0  0  0  0  0  0  0  0
   -0.4700   18.3740  -34.6180 C   0  0  0  0  0  0  0  0  0  0  0  0
   -1.0660   16.9710  -34.8300 C   0  0  0  0  0  0  0  0  0  0  0  0
   -2.2700   16.8330  -34.0980 O   0  0  0  0  0  0  0  0  0  0  0  0
   -3.3700   16.5860  -34.9560 C   0  0  0  0  0  0  0  0  0  0  0  0
   -4.3400   17.7710  -34.9700 C   0  0  0  0  0  0  0  0  0  0  0  0
   -3.9470   18.7680  -34.0250 O   0  0  0  0  0  0  0  0  0  0  0  0
   -4.7900   19.7220  -33.4280 C   0  0  0  0  0  0  0  0  0  0  0  0
   -6.1390   19.4070  -33.2900 C   0  0  0  0  0  0  0  0  0  0  0  0
   -7.0550   20.2980  -32.6990 C   0  0  0  0  0  0  0  0  0  0  0  0
   -8.5040   19.8750  -32.7270 C   0  0  0  0  0  0  0  0  0  0  0  0
   -6.5800   21.5450  -32.1690 C   0  0  0  0  0  0  0  0  0  0  0  0
   -7.3620   22.5070  -31.4470 C   0  0  0  0  0  0  0  0  0  0  0  0
   -8.7810   22.2930  -30.9820 C   0  0  0  0  0  0  0  0  0  0  0  0
   -6.7670   23.7250  -31.0820 C   0  0  0  0  0  0  0  0  0  0  0  0
   -5.4280   23.9570  -31.3680 C   0  0  0  0  0  0  0  0  0  0  0  0
   -4.8910   25.0460  -31.0320 O   0  0  0  0  0  0  0  0  0  0  0  0
   -4.7070   23.0340  -31.9790 O   0  0  0  0  0  0  0  0  0  0  0  0
   -5.2050   21.8680  -32.3730 C   0  0  0  0  0  0  0  0  0  0  0  0
   -4.3370   20.9700  -32.9920 C   0  0  0  0  0  0  0  0  0  0  0  0
    0.7954   21.1010  -34.5832 H   0  0  0  0  0  0  0  0  0  0  0  0
    0.0483   20.0158  -35.8042 H   0  0  0  0  0  0  0  0  0  0  0  0
   -0.3398   21.7697  -35.8042 H   0  0  0  0  0  0  0  0  0  0  0  0
   -1.1857   21.2957  -33.3427 H   0  0  0  0  0  0  0  0  0  0  0  0
   -2.2180   20.8475  -34.7695 H   0  0  0  0  0  0  0  0  0  0  0  0
   -2.3260   18.8820  -33.8320 H   0  0  0  0  0  0  0  0  0  0  0  0
   -1.4461   18.3026  -31.8577 H   0  0  0  0  0  0  0  0  0  0  0  0
    0.1802   18.9660  -32.3241 H   0  0  0  0  0  0  0  0  0  0  0  0
   -1.1482   20.2180  -30.4774 H   0  0  0  0  0  0  0  0  0  0  0  0
   -0.4430   21.1844  -31.8174 H   0  0  0  0  0  0  0  0  0  0  0  0
   -2.1964   20.7945  -31.8174 H   0  0  0  0  0  0  0  0  0  0  0  0
   -0.3528   18.8614  -35.5971 H   0  0  0  0  0  0  0  0  0  0  0  0
    0.4997   18.2575  -34.1120 H   0  0  0  0  0  0  0  0  0  0  0  0
   -1.2728   16.8225  -35.9001 H   0  0  0  0  0  0  0  0  0  0  0  0
   -0.3448   16.2188  -34.4777 H   0  0  0  0  0  0  0  0  0  0  0  0
   -2.9973   16.4156  -35.9768 H   0  0  0  0  0  0  0  0  0  0  0  0
   -3.9078   15.7007  -34.5859 H   0  0  0  0  0  0  0  0  0  0  0  0
   -4.3511   18.2145  -35.9766 H   0  0  0  0  0  0  0  0  0  0  0  0
   -5.3414   17.4063  -34.6974 H   0  0  0  0  0  0  0  0  0  0  0  0
   -6.4998   18.4335  -33.6533 H   0  0  0  0  0  0  0  0  0  0  0  0
   -8.8744   19.7669  -31.6969 H   0  0  0  0  0  0  0  0  0  0  0  0
   -9.0984   20.6371  -33.2523 H   0  0  0  0  0  0  0  0  0  0  0  0
   -8.5950   18.9128  -33.2523 H   0  0  0  0  0  0  0  0  0  0  0  0
   -8.8098   22.2887  -29.8824 H   0  0  0  0  0  0  0  0  0  0  0  0
   -9.4179   23.1052  -31.3623 H   0  0  0  0  0  0  0  0  0  0  0  0
   -9.1500   21.3290  -31.3623 H   0  0  0  0  0  0  0  0  0  0  0  0
   -7.3614   24.4957  -30.5694 H   0  0  0  0  0  0  0  0  0  0  0  0
   -3.2827   21.2471  -33.1391 H   0  0  0  0  0  0  0  0  0  0  0  0
  1  2  1  0
  2  3  1  0
  3  4  1  0
  4  5  1  0
  3  6  1  0
  6  7  1  0
  7  8  1  0
  8  9  1  0
  9 10  1  0
 10 11  1  0
 11 12  1  0
 12 13  2  0
 13 14  1  0
 14 15  1  0
 14 16  2  0
 16 17  1  0
 17 18  1  0
 17 19  2  0
 19 20  1  0
 20 21  2  0
 20 22  1  0
 22 23  1  0
 23 24  2  0
 24 12  1  0
 23 16  1  0
  1 25  1  0
  1 26  1  0
  1 27  1  0
  2 28  1  0
  2 29  1  0
  3 30  1  0
  4 31  1  0
  4 32  1  0
  5 33  1  0
  5 34  1  0
  5 35  1  0
  6 36  1  0
  6 37  1  0
  7 38  1  0
  7 39  1  0
  9 40  1  0
  9 41  1  0
 10 42  1  0
 10 43  1  0
 13 44  1  0
 15 45  1  0
 15 46  1  0
 15 47  1  0
 18 48  1  0
 18 49  1  0
 18 50  1  0
 19 51  1  0
 24 52  1  0
M  CHG  1   3   1
M  END
>  <UniqueID>  (24) 
23

>  <SMILES>  (24) 
CC[NH+](CC)CCOCCOc1cc(C)c2c(C)cc(=O)oc2c1

>  <Energy>  (24) 
69.40798144142214

>  <Genealogy>  (24) 
CC[NH+](CC)CCOCCOc1cc(C)c2c(C)cc(=O)oc2c1 (protonated)
CC[NH+](CC)CCOCCOc1cc(C)c2c(C)cc(=O)oc2c1 (3D coordinates assigned)
CC[NH+](CC)CCOCCOc1cc(C)c2c(C)cc(=O)oc2c1 (optimized conformer: 69.40798144142214 kcal/mol)

>  <smiles>  (24) 
CCN(CC)CCOCCOc1cc(C)c2c(C)cc(=O)oc2c1

>  <score_type>  (24) 
oracle

>  <origin>  (24) 
adg

>  <m_score__min__energy>  (24) 
-6.25

>  <m_primary>  (24) 
energy

$$$$
24:0
     RDKit          3D

 45 46  0  0  0  0  0  0  0  0999 V2000
   -6.4530   24.8920  -29.7340 C   0  0  0  0  0  0  0  0  0  0  0  0
   -5.3600   25.6690  -30.4670 C   0  0  0  0  0  0  0  0  0  0  0  0
   -4.3200   24.7910  -30.8580 O   0  0  0  0  0  0  0  0  0  0  0  0
   -4.7070   23.4430  -30.6790 C   0  0  0  0  0  0  0  0  0  0  0  0
   -4.5730   22.7000  -32.0050 C   0  0  0  0  0  0  0  0  0  0  0  0
   -5.5520   21.6120  -32.0780 N   0  0  0  0  0  0  0  0  0  0  0  0
   -5.2580   20.2910  -32.0150 C   0  0  0  0  0  0  0  0  0  0  0  0
   -6.4240   19.5420  -31.9720 C   0  0  0  0  0  0  0  0  0  0  0  0
   -6.5390   17.7700  -31.7180 S   0  0  0  0  0  0  0  0  0  0  0  0
   -6.8740   17.3630  -33.4690 C   0  0  0  0  0  0  0  0  0  0  0  0
   -5.7620   17.9000  -34.3960 C   0  0  0  0  0  0  0  0  0  0  0  0
   -4.4040   17.4870  -33.9500 N   0  0  0  0  0  0  0  0  0  0  0  0
   -3.9830   16.2660  -34.6650 C   0  0  0  0  0  0  0  0  0  0  0  0
   -3.4180   18.5630  -34.1830 C   0  0  0  0  0  0  0  0  0  0  0  0
   -7.4630   20.4480  -31.9980 C   0  0  0  0  0  0  0  0  0  0  0  0
   -8.8390   20.2590  -31.9050 C   0  0  0  0  0  0  0  0  0  0  0  0
   -9.6580   21.4030  -31.8860 C   0  0  0  0  0  0  0  0  0  0  0  0
   -9.0860   22.6930  -31.9390 C   0  0  0  0  0  0  0  0  0  0  0  0
   -7.6920   22.8510  -32.0200 C   0  0  0  0  0  0  0  0  0  0  0  0
   -6.8990   21.7000  -32.0500 C   0  0  0  0  0  0  0  0  0  0  0  0
   -6.3098   24.9938  -28.6481 H   0  0  0  0  0  0  0  0  0  0  0  0
   -7.4383   25.2935  -30.0131 H   0  0  0  0  0  0  0  0  0  0  0  0
   -6.3976   23.8295  -30.0131 H   0  0  0  0  0  0  0  0  0  0  0  0
   -5.7891   26.1460  -31.3605 H   0  0  0  0  0  0  0  0  0  0  0  0
   -4.9502   26.4368  -29.7943 H   0  0  0  0  0  0  0  0  0  0  0  0
   -4.0583   22.9713  -29.9262 H   0  0  0  0  0  0  0  0  0  0  0  0
   -5.7517   23.4016  -30.3372 H   0  0  0  0  0  0  0  0  0  0  0  0
   -4.7476   23.4019  -32.8338 H   0  0  0  0  0  0  0  0  0  0  0  0
   -3.5604   22.2765  -32.0778 H   0  0  0  0  0  0  0  0  0  0  0  0
   -4.2407   19.8729  -32.0001 H   0  0  0  0  0  0  0  0  0  0  0  0
   -6.9330   16.2699  -33.5772 H   0  0  0  0  0  0  0  0  0  0  0  0
   -7.8239   17.8363  -33.7584 H   0  0  0  0  0  0  0  0  0  0  0  0
   -5.9325   17.5149  -35.4122 H   0  0  0  0  0  0  0  0  0  0  0  0
   -5.8043   18.9989  -34.3693 H   0  0  0  0  0  0  0  0  0  0  0  0
   -4.4180   17.2650  -32.9240 H   0  0  0  0  0  0  0  0  0  0  0  0
   -3.7147   15.4879  -33.9353 H   0  0  0  0  0  0  0  0  0  0  0  0
   -4.8094   15.9074  -35.2963 H   0  0  0  0  0  0  0  0  0  0  0  0
   -3.1112   16.4929  -35.2963 H   0  0  0  0  0  0  0  0  0  0  0  0
   -3.0629   18.9505  -33.2167 H   0  0  0  0  0  0  0  0  0  0  0  0
   -2.5664   18.1629  -34.7529 H   0  0  0  0  0  0  0  0  0  0  0  0
   -3.8908   19.3765  -34.7529 H   0  0  0  0  0  0  0  0  0  0  0  0
   -9.2715   19.2492  -31.8483 H   0  0  0  0  0  0  0  0  0  0  0  0
  -10.7509   21.2917  -31.8295 H   0  0  0  0  0  0  0  0  0  0  0  0
   -9.7360   23.5801  -31.9167 H   0  0  0  0  0  0  0  0  0  0  0  0
   -7.2376   23.8520  -32.0587 H   0  0  0  0  0  0  0  0  0  0  0  0
  1  2  1  0
  2  3  1  0
  3  4  1  0
  4  5  1  0
  5  6  1  0
  6  7  1  0
  7  8  2  0
  8  9  1  0
  9 10  1  0
 10 11  1  0
 11 12  1  0
 12 13  1  0
 12 14  1  0
  8 15  1  0
 15 16  2  0
 16 17  1  0
 17 18  2  0
 18 19  1  0
 19 20  2  0
 20  6  1  0
 20 15  1  0
  1 21  1  0
  1 22  1  0
  1 23  1  0
  2 24  1  0
  2 25  1  0
  4 26  1  0
  4 27  1  0
  5 28  1  0
  5 29  1  0
  7 30  1  0
 10 31  1  0
 10 32  1  0
 11 33  1  0
 11 34  1  0
 12 35  1  0
 13 36  1  0
 13 37  1  0
 13 38  1  0
 14 39  1  0
 14 40  1  0
 14 41  1  0
 16 42  1  0
 17 43  1  0
 18 44  1  0
 19 45  1  0
M  CHG  1  12   1
M  END
>  <UniqueID>  (25) 
24

>  <SMILES>  (25) 
CCOCCn1cc(SCC[NH+](C)C)c2ccccc21

>  <Energy>  (25) 
71.99450015757185

>  <Genealogy>  (25) 
CCOCCn1cc(SCC[NH+](C)C)c2ccccc21 (protonated)
CCOCCn1cc(SCC[NH+](C)C)c2ccccc21 (3D coordinates assigned)
CCOCCn1cc(SCC[NH+](C)C)c2ccccc21 (optimized conformer: 71.99450015757185 kcal/mol)

>  <smiles>  (25) 
CCOCCn1cc(SCCN(C)C)c2ccccc21

>  <score_type>  (25) 
oracle

>  <origin>  (25) 
adg

>  <m_score__min__energy>  (25) 
-6.6799999999999997

>  <m_primary>  (25) 
energy

$$$$
25:0
     RDKit          3D

 64 65  0  0  0  0  0  0  0  0999 V2000
   -0.5080   26.6220  -27.4410 C   0  0  0  0  0  0  0  0  0  0  0  0
   -1.6400   25.6440  -27.7290 C   0  0  0  0  0  0  0  0  0  0  0  0
   -1.6400   25.2760  -29.0950 O   0  0  0  0  0  0  0  0  0  0  0  0
   -0.7480   24.2070  -29.3430 C   0  0  0  0  0  0  0  0  0  0  0  0
   -1.4870   22.8900  -29.6380 C   0  0  0  0  0  0  0  0  0  0  0  0
   -2.8580   23.0400  -30.1940 N   0  0  0  0  0  0  0  0  0  0  0  0
   -3.9140   23.3540  -29.1970 C   0  0  0  0  0  0  0  0  0  0  0  0
   -4.7010   24.6500  -29.4790 C   0  0  0  0  0  0  0  0  0  0  0  0
   -4.6030   24.9540  -30.8560 O   0  0  0  0  0  0  0  0  0  0  0  0
   -5.7560   24.5150  -31.5500 C   0  0  0  0  0  0  0  0  0  0  0  0
   -6.8720   24.1790  -30.5670 C   0  0  0  0  0  0  0  0  0  0  0  0
   -3.2060   22.2090  -31.3870 C   0  0  0  0  0  0  0  0  0  0  0  0
   -4.4460   21.3170  -31.0870 C   0  0  0  0  0  0  0  0  0  0  0  0
   -4.4290   19.9530  -31.7980 C   0  0  0  0  0  0  0  0  0  0  0  0
   -3.8520   20.0860  -33.1470 N   0  0  0  0  0  0  0  0  0  0  0  0
   -4.0380   18.8360  -33.9220 C   0  0  0  0  0  0  0  0  0  0  0  0
   -5.5360   18.5250  -34.1240 C   0  0  0  0  0  0  0  0  0  0  0  0
   -6.3560   19.7420  -34.2660 N   0  0  0  0  0  0  0  0  0  0  0  0
   -7.2860   19.9020  -33.1740 C   0  0  0  0  0  0  0  0  0  0  0  0
   -7.9690   18.7890  -32.6520 C   0  0  0  0  0  0  0  0  0  0  0  0
   -8.8500   18.9430  -31.5770 C   0  0  0  0  0  0  0  0  0  0  0  0
   -9.0650   20.2070  -31.0220 C   0  0  0  0  0  0  0  0  0  0  0  0
   -8.4060   21.3210  -31.5460 C   0  0  0  0  0  0  0  0  0  0  0  0
   -7.5170   21.1720  -32.6130 C   0  0  0  0  0  0  0  0  0  0  0  0
   -2.4190   20.4820  -33.0950 C   0  0  0  0  0  0  0  0  0  0  0  0
   -2.0420   21.2950  -31.8390 C   0  0  0  0  0  0  0  0  0  0  0  0
   -0.3839   26.7292  -26.3533 H   0  0  0  0  0  0  0  0  0  0  0  0
    0.4258   26.2418  -27.8809 H   0  0  0  0  0  0  0  0  0  0  0  0
   -0.7485   27.6011  -27.8809 H   0  0  0  0  0  0  0  0  0  0  0  0
   -1.5067   24.7436  -27.1113 H   0  0  0  0  0  0  0  0  0  0  0  0
   -2.5984   26.1283  -27.4906 H   0  0  0  0  0  0  0  0  0  0  0  0
   -0.1206   24.4629  -30.2095 H   0  0  0  0  0  0  0  0  0  0  0  0
   -0.1399   24.0578  -28.4386 H   0  0  0  0  0  0  0  0  0  0  0  0
   -0.8874   22.3190  -30.3622 H   0  0  0  0  0  0  0  0  0  0  0  0
   -1.6063   22.3849  -28.6681 H   0  0  0  0  0  0  0  0  0  0  0  0
   -4.6275   22.5170  -29.1783 H   0  0  0  0  0  0  0  0  0  0  0  0
   -3.3996   23.5054  -28.2365 H   0  0  0  0  0  0  0  0  0  0  0  0
   -5.7571   24.5075  -29.2064 H   0  0  0  0  0  0  0  0  0  0  0  0
   -4.2845   25.4762  -28.8841 H   0  0  0  0  0  0  0  0  0  0  0  0
   -6.0971   25.3121  -32.2270 H   0  0  0  0  0  0  0  0  0  0  0  0
   -5.5039   23.6123  -32.1259 H   0  0  0  0  0  0  0  0  0  0  0  0
   -6.5001   24.2910  -29.5378 H   0  0  0  0  0  0  0  0  0  0  0  0
   -7.7194   24.8618  -30.7270 H   0  0  0  0  0  0  0  0  0  0  0  0
   -7.2016   23.1418  -30.7270 H   0  0  0  0  0  0  0  0  0  0  0  0
   -3.4253   22.9165  -32.2002 H   0  0  0  0  0  0  0  0  0  0  0  0
   -4.4891   21.1399  -30.0022 H   0  0  0  0  0  0  0  0  0  0  0  0
   -5.3246   21.8597  -31.4658 H   0  0  0  0  0  0  0  0  0  0  0  0
   -3.8229   19.2462  -31.2123 H   0  0  0  0  0  0  0  0  0  0  0  0
   -5.4610   19.5825  -31.8855 H   0  0  0  0  0  0  0  0  0  0  0  0
   -3.5587   18.9485  -34.9057 H   0  0  0  0  0  0  0  0  0  0  0  0
   -3.5815   18.0066  -33.3619 H   0  0  0  0  0  0  0  0  0  0  0  0
   -5.6495   17.9162  -35.0331 H   0  0  0  0  0  0  0  0  0  0  0  0
   -5.8877   17.9901  -33.2295 H   0  0  0  0  0  0  0  0  0  0  0  0
   -6.8610   19.7230  -35.1830 H   0  0  0  0  0  0  0  0  0  0  0  0
   -5.7180   20.5710  -34.2900 H   0  0  0  0  0  0  0  0  0  0  0  0
   -7.8096   17.7931  -33.0911 H   0  0  0  0  0  0  0  0  0  0  0  0
   -9.3748   18.0672  -31.1676 H   0  0  0  0  0  0  0  0  0  0  0  0
   -9.7535   20.3246  -30.1722 H   0  0  0  0  0  0  0  0  0  0  0  0
   -8.5873   22.3178  -31.1177 H   0  0  0  0  0  0  0  0  0  0  0  0
   -6.9947   22.0518  -33.0169 H   0  0  0  0  0  0  0  0  0  0  0  0
   -1.8061   19.5688  -33.1137 H   0  0  0  0  0  0  0  0  0  0  0  0
   -2.2346   21.1312  -33.9637 H   0  0  0  0  0  0  0  0  0  0  0  0
   -1.7957   20.5995  -31.0232 H   0  0  0  0  0  0  0  0  0  0  0  0
   -1.1784   21.9305  -32.0846 H   0  0  0  0  0  0  0  0  0  0  0  0
  1  2  1  0
  2  3  1  0
  3  4  1  0
  4  5  1  0
  5  6  1  0
  6  7  1  0
  7  8  1  0
  8  9  1  0
  9 10  1  0
 10 11  1  0
  6 12  1  0
 12 13  1  0
 13 14  1  0
 14 15  1  0
 15 16  1  0
 16 17  1  0
 17 18  1  0
 18 19  1  0
 19 20  2  0
 20 21  1  0
 21 22  2  0
 22 23  1  0
 23 24  2  0
 15 25  1  0
 25 26  1  0
 26 12  1  0
 24 19  1  0
  1 27  1  0
  1 28  1  0
  1 29  1  0
  2 30  1  0
  2 31  1  0
  4 32  1  0
  4 33  1  0
  5 34  1  0
  5 35  1  0
  7 36  1  0
  7 37  1  0
  8 38  1  0
  8 39  1  0
 10 40  1  0
 10 41  1  0
 11 42  1  0
 11 43  1  0
 11 44  1  0
 12 45  1  0
 13 46  1  0
 13 47  1  0
 14 48  1  0
 14 49  1  0
 16 50  1  0
 16 51  1  0
 17 52  1  0
 17 53  1  0
 18 54  1  0
 18 55  1  0
 20 56  1  0
 21 57  1  0
 22 58  1  0
 23 59  1  0
 24 60  1  0
 25 61  1  0
 25 62  1  0
 26 63  1  0
 26 64  1  0
M  CHG  1  18   1
M  END
>  <UniqueID>  (26) 
25

>  <SMILES>  (26) 
CCOCCN(CCOCC)C1CCN(CC[NH2+]c2ccccc2)CC1

>  <Energy>  (26) 
82.81754153302361

>  <Genealogy>  (26) 
CCOCCN(CCOCC)C1CCN(CC[NH2+]c2ccccc2)CC1 (protonated)
CCOCCN(CCOCC)C1CCN(CC[NH2+]c2ccccc2)CC1 (3D coordinates assigned)
CCOCCN(CCOCC)C1CCN(CC[NH2+]c2ccccc2)CC1 (nonaromatic ring conformer: 82.81754153302361 kcal/mol)

>  <smiles>  (26) 
CCOCCN(CCOCC)C1CCN(CCNc2ccccc2)CC1

>  <score_type>  (26) 
oracle

>  <origin>  (26) 
adg

>  <m_score__min__energy>  (26) 
-7.46

>  <m_primary>  (26) 
energy

$$$$
26:0
     RDKit          3D

 48 48  0  0  0  0  0  0  0  0999 V2000
   -3.5120   21.9570  -28.0840 C   0  0  0  0  0  0  0  0  0  0  0  0
   -3.4800   21.1860  -29.4040 C   0  0  0  0  0  0  0  0  0  0  0  0
   -3.9170   22.0140  -30.5530 N   0  0  0  0  0  0  0  0  0  0  0  0
   -4.0970   21.1640  -31.7540 C   0  0  0  0  0  0  0  0  0  0  0  0
   -3.8430   21.9140  -33.0620 C   0  0  0  0  0  0  0  0  0  0  0  0
   -3.1100   23.2470  -30.7680 C   0  0  0  0  0  0  0  0  0  0  0  0
   -3.5940   24.5080  -30.0290 C   0  0  0  0  0  0  0  0  0  0  0  0
   -4.5420   25.2040  -30.8120 O   0  0  0  0  0  0  0  0  0  0  0  0
   -5.7300   25.4420  -30.0800 C   0  0  0  0  0  0  0  0  0  0  0  0
   -6.6570   24.2110  -30.0310 C   0  0  0  0  0  0  0  0  0  0  0  0
   -6.2720   23.1470  -30.9740 N   0  0  0  0  0  0  0  0  0  0  0  0
   -7.2770   22.9400  -32.0330 C   0  0  0  0  0  0  0  0  0  0  0  0
   -8.2490   21.8030  -31.6780 C   0  0  0  0  0  0  0  0  0  0  0  0
   -7.7780   20.4740  -32.2100 C   0  0  0  0  0  0  0  0  0  0  0  0
   -8.2280   19.2780  -31.6270 C   0  0  0  0  0  0  0  0  0  0  0  0
   -7.7800   18.0460  -32.1100 C   0  0  0  0  0  0  0  0  0  0  0  0
   -6.8690   17.9970  -33.1700 C   0  0  0  0  0  0  0  0  0  0  0  0
   -6.2360   16.3140  -33.8110 Br  0  0  0  0  0  0  0  0  0  0  0  0
   -6.4040   19.1830  -33.7450 C   0  0  0  0  0  0  0  0  0  0  0  0
   -6.8570   20.4170  -33.2700 C   0  0  0  0  0  0  0  0  0  0  0  0
   -3.4825   21.2473  -27.2441 H   0  0  0  0  0  0  0  0  0  0  0  0
   -2.6409   22.6264  -28.0292 H   0  0  0  0  0  0  0  0  0  0  0  0
   -4.4356   22.5519  -28.0292 H   0  0  0  0  0  0  0  0  0  0  0  0
   -2.4513   20.8422  -29.5874 H   0  0  0  0  0  0  0  0  0  0  0  0
   -4.1780   20.3404  -29.3154 H   0  0  0  0  0  0  0  0  0  0  0  0
   -3.3958   20.3186  -31.6931 H   0  0  0  0  0  0  0  0  0  0  0  0
   -5.1448   20.8293  -31.7655 H   0  0  0  0  0  0  0  0  0  0  0  0
   -3.4975   22.9342  -32.8386 H   0  0  0  0  0  0  0  0  0  0  0  0
   -3.0737   21.3856  -33.6442 H   0  0  0  0  0  0  0  0  0  0  0  0
   -4.7751   21.9618  -33.6442 H   0  0  0  0  0  0  0  0  0  0  0  0
   -2.0816   23.0378  -30.4385 H   0  0  0  0  0  0  0  0  0  0  0  0
   -3.2013   23.4780  -31.8396 H   0  0  0  0  0  0  0  0  0  0  0  0
   -4.0571   24.2141  -29.0755 H   0  0  0  0  0  0  0  0  0  0  0  0
   -2.7322   25.1659  -29.8435 H   0  0  0  0  0  0  0  0  0  0  0  0
   -5.4592   25.7195  -29.0506 H   0  0  0  0  0  0  0  0  0  0  0  0
   -6.2771   26.2492  -30.5890 H   0  0  0  0  0  0  0  0  0  0  0  0
   -6.6336   23.7980  -29.0118 H   0  0  0  0  0  0  0  0  0  0  0  0
   -7.6621   24.5515  -30.3205 H   0  0  0  0  0  0  0  0  0  0  0  0
   -6.1120   22.2560  -30.4530 H   0  0  0  0  0  0  0  0  0  0  0  0
   -5.3650   23.4320  -31.4140 H   0  0  0  0  0  0  0  0  0  0  0  0
   -7.8494   23.8695  -32.1682 H   0  0  0  0  0  0  0  0  0  0  0  0
   -6.7495   22.6647  -32.9582 H   0  0  0  0  0  0  0  0  0  0  0  0
   -8.3350   21.7375  -30.5833 H   0  0  0  0  0  0  0  0  0  0  0  0
   -9.2215   22.0295  -32.1395 H   0  0  0  0  0  0  0  0  0  0  0  0
   -8.9365   19.3115  -30.7862 H   0  0  0  0  0  0  0  0  0  0  0  0
   -8.1445   17.1128  -31.6557 H   0  0  0  0  0  0  0  0  0  0  0  0
   -5.6804   19.1452  -34.5726 H   0  0  0  0  0  0  0  0  0  0  0  0
   -6.4910   21.3478  -33.7279 H   0  0  0  0  0  0  0  0  0  0  0  0
  1  2  1  0
  2  3  1  0
  3  4  1  0
  4  5  1  0
  3  6  1  0
  6  7  1  0
  7  8  1  0
  8  9  1  0
  9 10  1  0
 10 11  1  0
 11 12  1  0
 12 13  1  0
 13 14  1  0
 14 15  2  0
 15 16  1  0
 16 17  2  0
 17 18  1  0
 17 19  1  0
 19 20  2  0
 20 14  1  0
  1 21  1  0
  1 22  1  0
  1 23  1  0
  2 24  1  0
  2 25  1  0
  4 26  1  0
  4 27  1  0
  5 28  1  0
  5 29  1  0
  5 30  1  0
  6 31  1  0
  6 32  1  0
  7 33  1  0
  7 34  1  0
  9 35  1  0
  9 36  1  0
 10 37  1  0
 10 38  1  0
 11 39  1  0
 11 40  1  0
 12 41  1  0
 12 42  1  0
 13 43  1  0
 13 44  1  0
 15 45  1  0
 16 46  1  0
 19 47  1  0
 20 48  1  0
M  CHG  1  11   1
M  END
>  <UniqueID>  (27) 
26

>  <SMILES>  (27) 
CCN(CC)CCOCC[NH2+]CCc1ccc(Br)cc1

>  <Energy>  (27) 
42.271450809938294

>  <Genealogy>  (27) 
CCN(CC)CCOCC[NH2+]CCc1ccc(Br)cc1 (protonated)
CCN(CC)CCOCC[NH2+]CCc1ccc(Br)cc1 (3D coordinates assigned)
CCN(CC)CCOCC[NH2+]CCc1ccc(Br)cc1 (optimized conformer: 42.271450809938294 kcal/mol)

>  <smiles>  (27) 
CCN(CC)CCOCCNCCc1ccc(Br)cc1

>  <score_type>  (27) 
oracle

>  <origin>  (27) 
adg

>  <m_score__min__energy>  (27) 
-6.3600000000000003

>  <m_primary>  (27) 
energy

$$$$
27:0
     RDKit          3D

 42 43  0  0  0  0  0  0  0  0999 V2000
   -6.0590   25.3040  -29.5250 C   0  0  0  0  0  0  0  0  0  0  0  0
   -6.4580   24.1090  -30.3390 C   0  0  0  0  0  0  0  0  0  0  0  0
   -6.1370   24.0430  -31.7020 C   0  0  0  0  0  0  0  0  0  0  0  0
   -6.5410   22.9470  -32.4700 C   0  0  0  0  0  0  0  0  0  0  0  0
   -7.2880   21.9080  -31.8870 C   0  0  0  0  0  0  0  0  0  0  0  0
   -7.7280   20.7180  -32.7090 C   0  0  2  0  0  0  0  0  0  0  0  0
   -9.4490   20.2640  -32.2750 S   0  0  0  0  0  0  0  0  0  0  0  0
   -8.9660   18.6650  -31.5390 C   0  0  0  0  0  0  0  0  0  0  0  0
   -7.5250   18.4850  -31.8140 C   0  0  0  0  0  0  0  0  0  0  0  0
   -6.9120   17.4370  -31.4750 O   0  0  0  0  0  0  0  0  0  0  0  0
   -6.8690   19.5670  -32.4590 N   0  0  0  0  0  0  0  0  0  0  0  0
   -5.4540   19.5380  -32.8420 C   0  0  0  0  0  0  0  0  0  0  0  0
   -5.2840   18.8470  -34.1990 C   0  0  0  0  0  0  0  0  0  0  0  0
   -4.5550   17.4960  -34.0370 C   0  0  0  0  0  0  0  0  0  0  0  0
   -5.3590   16.4380  -33.3760 N   0  0  0  0  0  0  0  0  0  0  0  0
   -4.5380   15.2990  -32.9260 C   0  0  0  0  0  0  0  0  0  0  0  0
   -6.4850   15.9770  -34.2080 C   0  0  0  0  0  0  0  0  0  0  0  0
   -7.6190   21.9830  -30.5250 C   0  0  0  0  0  0  0  0  0  0  0  0
   -7.2140   23.0800  -29.7580 C   0  0  0  0  0  0  0  0  0  0  0  0
   -6.1397   25.0623  -28.4549 H   0  0  0  0  0  0  0  0  0  0  0  0
   -5.0204   25.5786  -29.7616 H   0  0  0  0  0  0  0  0  0  0  0  0
   -6.7243   26.1475  -29.7616 H   0  0  0  0  0  0  0  0  0  0  0  0
   -5.5644   24.8576  -32.1695 H   0  0  0  0  0  0  0  0  0  0  0  0
   -6.2732   22.8971  -33.5357 H   0  0  0  0  0  0  0  0  0  0  0  0
   -7.6621   20.9971  -33.7710 H   0  0  0  0  0  0  0  0  0  0  0  0
   -9.1455   18.6782  -30.4538 H   0  0  0  0  0  0  0  0  0  0  0  0
   -9.5550   17.8402  -31.9666 H   0  0  0  0  0  0  0  0  0  0  0  0
   -5.0753   20.5685  -32.9097 H   0  0  0  0  0  0  0  0  0  0  0  0
   -4.8892   18.9779  -32.0822 H   0  0  0  0  0  0  0  0  0  0  0  0
   -6.2757   18.6712  -34.6412 H   0  0  0  0  0  0  0  0  0  0  0  0
   -4.6835   19.4962  -34.8532 H   0  0  0  0  0  0  0  0  0  0  0  0
   -4.2707   17.1370  -35.0371 H   0  0  0  0  0  0  0  0  0  0  0  0
   -3.6891   17.6840  -33.3851 H   0  0  0  0  0  0  0  0  0  0  0  0
   -5.7740   16.8720  -32.5170 H   0  0  0  0  0  0  0  0  0  0  0  0
   -4.5189   15.2725  -31.8265 H   0  0  0  0  0  0  0  0  0  0  0  0
   -4.9699   14.3622  -33.3079 H   0  0  0  0  0  0  0  0  0  0  0  0
   -3.5127   15.4125  -33.3079 H   0  0  0  0  0  0  0  0  0  0  0  0
   -7.3068   15.6405  -33.5589 H   0  0  0  0  0  0  0  0  0  0  0  0
   -6.8345   16.8044  -34.8430 H   0  0  0  0  0  0  0  0  0  0  0  0
   -6.1539   15.1420  -34.8430 H   0  0  0  0  0  0  0  0  0  0  0  0
   -8.2003   21.1742  -30.0582 H   0  0  0  0  0  0  0  0  0  0  0  0
   -7.4894   23.1362  -28.6945 H   0  0  0  0  0  0  0  0  0  0  0  0
  1  2  1  0
  2  3  2  0
  3  4  1  0
  4  5  2  0
  5  6  1  0
  6  7  1  0
  7  8  1  0
  8  9  1  0
  9 10  2  0
  9 11  1  0
 11 12  1  0
 12 13  1  0
 13 14  1  0
 14 15  1  0
 15 16  1  0
 15 17  1  0
  5 18  1  0
 18 19  2  0
 19  2  1  0
 11  6  1  0
  1 20  1  0
  1 21  1  0
  1 22  1  0
  3 23  1  0
  4 24  1  0
  6 25  1  6
  8 26  1  0
  8 27  1  0
 12 28  1  0
 12 29  1  0
 13 30  1  0
 13 31  1  0
 14 32  1  0
 14 33  1  0
 15 34  1  0
 16 35  1  0
 16 36  1  0
 16 37  1  0
 17 38  1  0
 17 39  1  0
 17 40  1  0
 18 41  1  0
 19 42  1  0
M  CHG  1  15   1
M  END
>  <UniqueID>  (28) 
27

>  <SMILES>  (28) 
Cc1ccc([C@@H]2SCC(=O)N2CCC[NH+](C)C)cc1

>  <Energy>  (28) 
35.099928672958555

>  <Genealogy>  (28) 
Cc1ccc(C2SCC(=O)N2CCC[NH+](C)C)cc1 (protonated)
Cc1ccc([C@@H]2SCC(=O)N2CCC[NH+](C)C)cc1 (chirality)
Cc1ccc([C@@H]2SCC(=O)N2CCC[NH+](C)C)cc1 (3D coordinates assigned)
Cc1ccc([C@@H]2SCC(=O)N2CCC[NH+](C)C)cc1 (nonaromatic ring conformer: 35.099928672958555 kcal/mol)

>  <smiles>  (28) 
Cc1ccc(C2SCC(=O)N2CCCN(C)C)cc1

>  <score_type>  (28) 
oracle

>  <origin>  (28) 
adg

>  <m_score__min__energy>  (28) 
-6.1799999999999997

>  <m_primary>  (28) 
energy

$$$$
28:0
     RDKit          3D

 75 77  0  0  0  0  0  0  0  0999 V2000
   -0.2423   20.9993  -33.9723 H   0  0  0  0  0  0  0  0  0  0  0  0
   -0.9240   20.9970  -33.1090 C   0  0  0  0  0  0  0  0  0  0  0  0
   -0.4070   20.8360  -31.9330 N   0  0  0  0  0  0  0  0  0  0  0  0
    0.2910   19.6590  -31.4620 C   0  0  0  0  0  0  0  0  0  0  0  0
   -0.3630   18.7825  -31.5806 H   0  0  0  0  0  0  0  0  0  0  0  0
    1.2108   19.5395  -32.0534 H   0  0  0  0  0  0  0  0  0  0  0  0
    0.6780   19.7980  -29.9850 C   0  0  0  0  0  0  0  0  0  0  0  0
    0.3653   18.8948  -29.4405 H   0  0  0  0  0  0  0  0  0  0  0  0
    1.7683   19.9226  -29.9089 H   0  0  0  0  0  0  0  0  0  0  0  0
    0.0180   20.9720  -29.3980 N   0  0  0  0  0  0  0  0  0  0  0  0
   -1.0170   20.8320  -29.4660 H   0  0  0  0  0  0  0  0  0  0  0  0
    0.3440   21.1270  -27.9750 C   0  0  0  0  0  0  0  0  0  0  0  0
    1.1657   20.4408  -27.7220 H   0  0  0  0  0  0  0  0  0  0  0  0
    0.6340   22.1743  -27.8047 H   0  0  0  0  0  0  0  0  0  0  0  0
   -0.8610   20.8140  -27.0710 C   0  0  0  0  0  0  0  0  0  0  0  0
   -0.4900   20.4585  -26.0984 H   0  0  0  0  0  0  0  0  0  0  0  0
   -1.4494   21.7373  -26.9651 H   0  0  0  0  0  0  0  0  0  0  0  0
   -1.7480   19.7770  -27.6500 N   0  0  0  0  0  0  0  0  0  0  0  0
   -1.1670   18.4350  -27.4760 C   0  0  0  0  0  0  0  0  0  0  0  0
   -1.0710   18.2133  -26.4029 H   0  0  0  0  0  0  0  0  0  0  0  0
   -1.8222   17.6878  -27.9476 H   0  0  0  0  0  0  0  0  0  0  0  0
   -0.1738   18.4015  -27.9476 H   0  0  0  0  0  0  0  0  0  0  0  0
   -3.0920   19.8340  -27.0270 C   0  0  0  0  0  0  0  0  0  0  0  0
   -3.1952   20.7789  -26.4734 H   0  0  0  0  0  0  0  0  0  0  0  0
   -3.8547   19.7741  -27.8174 H   0  0  0  0  0  0  0  0  0  0  0  0
   -3.2820   18.6650  -26.0660 C   0  0  0  0  0  0  0  0  0  0  0  0
   -3.2228   19.0290  -25.0296 H   0  0  0  0  0  0  0  0  0  0  0  0
   -4.2666   18.2056  -26.2376 H   0  0  0  0  0  0  0  0  0  0  0  0
   -2.4936   17.9174  -26.2376 H   0  0  0  0  0  0  0  0  0  0  0  0
   -2.4000   21.1820  -33.3770 C   0  0  0  0  0  0  0  0  0  0  0  0
   -2.7846   20.2893  -33.8920 H   0  0  0  0  0  0  0  0  0  0  0  0
   -2.5281   22.0790  -34.0006 H   0  0  0  0  0  0  0  0  0  0  0  0
   -3.1510   21.3750  -32.1330 N   0  0  0  0  0  0  0  0  0  0  0  0
   -2.6450   21.3420  -31.2190 H   0  0  0  0  0  0  0  0  0  0  0  0
   -4.5710   21.1650  -32.1060 C   0  0  0  0  0  0  0  0  0  0  0  0
   -5.4580   22.2430  -31.8920 C   0  0  0  0  0  0  0  0  0  0  0  0
   -5.0380   23.5540  -31.5770 O   0  0  0  0  0  0  0  0  0  0  0  0
   -4.7260   24.1130  -30.3050 C   0  0  0  0  0  0  0  0  0  0  0  0
   -5.3770   24.9827  -30.1322 H   0  0  0  0  0  0  0  0  0  0  0  0
   -3.6641   24.3998  -30.3165 H   0  0  0  0  0  0  0  0  0  0  0  0
   -4.9270   23.1130  -29.1610 C   0  0  0  0  0  0  0  0  0  0  0  0
   -5.3274   22.1761  -29.5758 H   0  0  0  0  0  0  0  0  0  0  0  0
   -5.6250   23.5619  -28.4390 H   0  0  0  0  0  0  0  0  0  0  0  0
   -3.6160   22.8060  -28.4210 C   0  0  0  0  0  0  0  0  0  0  0  0
   -3.8049   22.0142  -27.6811 H   0  0  0  0  0  0  0  0  0  0  0  0
   -3.2771   23.7349  -27.9391 H   0  0  0  0  0  0  0  0  0  0  0  0
   -2.5510   22.3580  -29.3310 N   0  0  0  0  0  0  0  0  0  0  0  0
   -2.0630   21.5180  -28.9400 H   0  0  0  0  0  0  0  0  0  0  0  0
   -1.6080   23.4210  -29.7200 C   0  0  0  0  0  0  0  0  0  0  0  0
   -1.9177   23.8291  -30.6934 H   0  0  0  0  0  0  0  0  0  0  0  0
   -0.6033   22.9760  -29.7707 H   0  0  0  0  0  0  0  0  0  0  0  0
   -1.5620   24.5640  -28.6990 C   0  0  0  0  0  0  0  0  0  0  0  0
   -1.5788   24.1473  -27.6811 H   0  0  0  0  0  0  0  0  0  0  0  0
   -0.6397   25.1462  -28.8417 H   0  0  0  0  0  0  0  0  0  0  0  0
   -2.4345   25.2185  -28.8417 H   0  0  0  0  0  0  0  0  0  0  0  0
   -6.8520   22.0290  -32.0030 C   0  0  0  0  0  0  0  0  0  0  0  0
   -7.7400   23.1140  -31.8370 C   0  0  0  0  0  0  0  0  0  0  0  0
   -7.3384   24.1169  -31.6298 H   0  0  0  0  0  0  0  0  0  0  0  0
   -9.1170   22.9320  -31.9320 C   0  0  0  0  0  0  0  0  0  0  0  0
   -9.7944   23.7893  -31.8047 H   0  0  0  0  0  0  0  0  0  0  0  0
   -9.6360   21.6710  -32.1870 C   0  0  0  0  0  0  0  0  0  0  0  0
  -10.7246   21.5298  -32.2584 H   0  0  0  0  0  0  0  0  0  0  0  0
   -8.7810   20.5820  -32.3530 C   0  0  0  0  0  0  0  0  0  0  0  0
   -9.2070   19.5883  -32.5555 H   0  0  0  0  0  0  0  0  0  0  0  0
   -7.3730   20.7300  -32.2660 C   0  0  0  0  0  0  0  0  0  0  0  0
   -6.4720   19.6380  -32.4290 C   0  0  0  0  0  0  0  0  0  0  0  0
   -6.9090   18.3150  -32.6730 C   0  0  0  0  0  0  0  0  0  0  0  0
   -7.9865   18.1007  -32.7291 H   0  0  0  0  0  0  0  0  0  0  0  0
   -5.9930   17.2810  -32.8430 C   0  0  0  0  0  0  0  0  0  0  0  0
   -6.3426   16.2556  -33.0336 H   0  0  0  0  0  0  0  0  0  0  0  0
   -4.6360   17.5550  -32.7700 C   0  0  0  0  0  0  0  0  0  0  0  0
   -3.9060   16.7424  -32.8994 H   0  0  0  0  0  0  0  0  0  0  0  0
   -4.2040   18.8190  -32.5400 N   0  0  0  0  0  0  0  0  0  0  0  0
   -3.1720   18.9590  -32.5040 H   0  0  0  0  0  0  0  0  0  0  0  0
   -5.0720   19.8670  -32.3570 C   0  0  0  0  0  0  0  0  0  0  0  0
  1  2  1  0
  2  3  2  0
  3  4  1  0
  4  5  1  0
  4  6  1  0
  4  7  1  0
  7  8  1  0
  7  9  1  0
  7 10  1  0
 10 11  1  0
 10 12  1  0
 12 13  1  0
 12 14  1  0
 12 15  1  0
 15 16  1  0
 15 17  1  0
 15 18  1  0
 18 19  1  0
 19 20  1  0
 19 21  1  0
 19 22  1  0
 18 23  1  0
 23 24  1  0
 23 25  1  0
 23 26  1  0
 26 27  1  0
 26 28  1  0
 26 29  1  0
  2 30  1  0
 30 31  1  0
 30 32  1  0
 30 33  1  0
 33 34  1  0
 33 35  1  0
 35 36  2  0
 36 37  1  0
 37 38  1  0
 38 39  1  0
 38 40  1  0
 38 41  1  0
 41 42  1  0
 41 43  1  0
 41 44  1  0
 44 45  1  0
 44 46  1  0
 44 47  1  0
 47 48  1  0
 47 49  1  0
 49 50  1  0
 49 51  1  0
 49 52  1  0
 52 53  1  0
 52 54  1  0
 52 55  1  0
 36 56  1  0
 56 57  2  0
 57 58  1  0
 57 59  1  0
 59 60  1  0
 59 61  2  0
 61 62  1  0
 61 63  1  0
 63 64  1  0
 63 65  2  0
 65 66  1  0
 66 67  2  0
 67 68  1  0
 67 69  1  0
 69 70  1  0
 69 71  2  0
 71 72  1  0
 71 73  1  0
 73 74  1  0
 73 75  2  0
 75 35  1  0
 65 56  1  0
 75 66  1  0
M  CHG  1  73   1
M  END
>  <UniqueID>  (29) 
28

>  <SMILES>  (29) 
CCNCCCOc1c(NC/C=N\CCNCCN(C)CC)c2[nH+]cccc2c2ccccc12

>  <Energy>  (29) 
91.34743655769515

>  <Genealogy>  (29) 
CCNCCCOc1c(NCC=NCCNCCN(C)CC)c2[nH+]cccc2c2ccccc12 (protonated)
CCNCCCOc1c(NC/C=N\CCNCCN(C)CC)c2[nH+]cccc2c2ccccc12 (cis-trans isomerization)
CCNCCCOc1c(NC/C=N\CCNCCN(C)CC)c2[nH+]cccc2c2ccccc12 (3D coordinates assigned)
CCNCCCOc1c(NC/C=N\CCNCCN(C)CC)c2[nH+]cccc2c2ccccc12 (optimized conformer: 91.34743655769515 kcal/mol)

>  <smiles>  (29) 
CCNCCCOc1c(NCC=NCCNCCN(C)CC)c2ncccc2c2ccccc12

>  <score_type>  (29) 
oracle

>  <origin>  (29) 
adg

>  <m_score__min__energy>  (29) 
-9.2400000000000002

>  <m_primary>  (29) 
energy

$$$$
29:0
     RDKit          3D

 40 42  0  0  0  0  0  0  0  0999 V2000
   -0.9710   19.5590  -33.9540 C   0  0  0  0  0  0  0  0  0  0  0  0
   -2.1790   20.2090  -33.3440 C   0  0  0  0  0  0  0  0  0  0  0  0
   -2.0460   21.3720  -32.5930 C   0  0  0  0  0  0  0  0  0  0  0  0
   -3.1610   21.9740  -32.0200 C   0  0  0  0  0  0  0  0  0  0  0  0
   -4.4630   21.4400  -32.2000 C   0  0  0  0  0  0  0  0  0  0  0  0
   -5.6100   21.9890  -31.5530 C   0  0  0  0  0  0  0  0  0  0  0  0
   -5.4980   23.1200  -30.6370 N   0  0  0  0  0  0  0  0  0  0  0  0
   -6.1230   24.3440  -31.1770 C   0  0  0  0  0  0  0  0  0  0  0  0
   -5.3620   25.6230  -30.8010 C   0  0  0  0  0  0  0  0  0  0  0  0
   -3.9860   25.3670  -30.7300 O   0  0  0  0  0  0  0  0  0  0  0  0
   -6.8730   21.3660  -31.7660 C   0  0  0  0  0  0  0  0  0  0  0  0
   -8.0480   21.8200  -31.1130 C   0  0  0  0  0  0  0  0  0  0  0  0
   -9.2640   21.1620  -31.2750 C   0  0  0  0  0  0  0  0  0  0  0  0
   -9.3430   20.0350  -32.0780 C   0  0  0  0  0  0  0  0  0  0  0  0
   -8.2170   19.5810  -32.7550 C   0  0  0  0  0  0  0  0  0  0  0  0
   -6.9730   20.2570  -32.6520 C   0  0  0  0  0  0  0  0  0  0  0  0
   -5.8760   19.8460  -33.3780 N   0  0  0  0  0  0  0  0  0  0  0  0
   -6.0560   18.9280  -34.5280 C   0  0  0  0  0  0  0  0  0  0  0  0
   -4.6180   20.3190  -33.0660 C   0  0  0  0  0  0  0  0  0  0  0  0
   -3.4540   19.6970  -33.5890 C   0  0  0  0  0  0  0  0  0  0  0  0
   -0.3049   19.2006  -33.1554 H   0  0  0  0  0  0  0  0  0  0  0  0
   -1.2871   18.7092  -34.5768 H   0  0  0  0  0  0  0  0  0  0  0  0
   -0.4359   20.2910  -34.5768 H   0  0  0  0  0  0  0  0  0  0  0  0
   -1.0511   21.8192  -32.4511 H   0  0  0  0  0  0  0  0  0  0  0  0
   -3.0307   22.8831  -31.4146 H   0  0  0  0  0  0  0  0  0  0  0  0
   -5.9530   22.8760  -29.7300 H   0  0  0  0  0  0  0  0  0  0  0  0
   -4.5240   23.3160  -30.3310 H   0  0  0  0  0  0  0  0  0  0  0  0
   -6.1564   24.2658  -32.2737 H   0  0  0  0  0  0  0  0  0  0  0  0
   -7.1294   24.4197  -30.7394 H   0  0  0  0  0  0  0  0  0  0  0  0
   -5.5489   26.3938  -31.5632 H   0  0  0  0  0  0  0  0  0  0  0  0
   -5.7122   25.9720  -29.8184 H   0  0  0  0  0  0  0  0  0  0  0  0
   -3.6050   25.6730  -31.5940 H   0  0  0  0  0  0  0  0  0  0  0  0
   -7.9971   22.7086  -30.4666 H   0  0  0  0  0  0  0  0  0  0  0  0
  -10.1636   21.5370  -30.7650 H   0  0  0  0  0  0  0  0  0  0  0  0
  -10.2982   19.4990  -32.1797 H   0  0  0  0  0  0  0  0  0  0  0  0
   -8.2914   18.6807  -33.3826 H   0  0  0  0  0  0  0  0  0  0  0  0
   -6.2553   17.9115  -34.1580 H   0  0  0  0  0  0  0  0  0  0  0  0
   -6.9045   19.2685  -35.1397 H   0  0  0  0  0  0  0  0  0  0  0  0
   -5.1418   18.9229  -35.1397 H   0  0  0  0  0  0  0  0  0  0  0  0
   -3.5595   18.7898  -34.2020 H   0  0  0  0  0  0  0  0  0  0  0  0
  1  2  1  0
  2  3  2  0
  3  4  1  0
  4  5  2  0
  5  6  1  0
  6  7  1  0
  7  8  1  0
  8  9  1  0
  9 10  1  0
  6 11  2  0
 11 12  1  0
 12 13  2  0
 13 14  1  0
 14 15  2  0
 15 16  1  0
 16 17  2  0
 17 18  1  0
 17 19  1  0
 19 20  2  0
 20  2  1  0
 19  5  1  0
 16 11  1  0
  1 21  1  0
  1 22  1  0
  1 23  1  0
  3 24  1  0
  4 25  1  0
  7 26  1  0
  7 27  1  0
  8 28  1  0
  8 29  1  0
  9 30  1  0
  9 31  1  0
 10 32  1  0
 12 33  1  0
 13 34  1  0
 14 35  1  0
 15 36  1  0
 18 37  1  0
 18 38  1  0
 18 39  1  0
 20 40  1  0
M  CHG  2   7   1  17   1
M  END
>  <UniqueID>  (30) 
29

>  <SMILES>  (30) 
Cc1ccc2c([NH2+]CCO)c3ccccc3[n+](C)c2c1

>  <Energy>  (30) 
70.12511795765569

>  <Genealogy>  (30) 
Cc1ccc2c([NH2+]CCO)c3ccccc3[n+](C)c2c1 (protonated)
Cc1ccc2c([NH2+]CCO)c3ccccc3[n+](C)c2c1 (3D coordinates assigned)
Cc1ccc2c([NH2+]CCO)c3ccccc3[n+](C)c2c1 (optimized conformer: 70.12511795765569 kcal/mol)

>  <smiles>  (30) 
Cc1ccc2c(NCCO)c3ccccc3[n+](C)c2c1

>  <score_type>  (30) 
oracle

>  <origin>  (30) 
adg

>  <m_score__min__energy>  (30) 
-7.7800000000000002

>  <m_primary>  (30) 
energy

$$$$
30:0
     RDKit          3D

 57 60  0  0  0  0  0  0  0  0999 V2000
   -3.4590   20.5730  -30.3280 C   0  0  0  0  0  0  0  0  0  0  0  0
   -3.4490   20.8490  -31.7760 N   0  0  0  0  0  0  0  0  0  0  0  0
   -3.1250   22.2700  -32.0040 C   0  0  0  0  0  0  0  0  0  0  0  0
   -2.4800   19.9510  -32.4500 C   0  0  0  0  0  0  0  0  0  0  0  0
   -2.8680   19.6490  -33.9070 C   0  0  0  0  0  0  0  0  0  0  0  0
   -4.2880   19.6480  -34.0610 O   0  0  0  0  0  0  0  0  0  0  0  0
   -5.0650   18.5090  -33.8130 C   0  0  0  0  0  0  0  0  0  0  0  0
   -6.2670   18.6270  -33.0830 C   0  0  0  0  0  0  0  0  0  0  0  0
   -6.7780   19.9400  -32.6400 C   0  0  0  0  0  0  0  0  0  0  0  0
   -8.0970   20.2680  -32.3740 C   0  0  0  0  0  0  0  0  0  0  0  0
   -8.0900   21.5990  -32.0140 C   0  0  0  0  0  0  0  0  0  0  0  0
   -6.7690   21.9940  -32.0760 C   0  0  0  0  0  0  0  0  0  0  0  0
   -6.2570   23.3770  -31.8230 C   0  0  0  0  0  0  0  0  0  0  0  0
   -6.3100   23.6970  -30.3780 N   0  0  0  0  0  0  0  0  0  0  0  0
   -6.5770   25.1280  -30.1190 C   0  0  0  0  0  0  0  0  0  0  0  0
   -5.3530   26.0170  -30.4490 C   0  0  0  0  0  0  0  0  0  0  0  0
   -4.1530   25.2780  -30.5970 O   0  0  0  0  0  0  0  0  0  0  0  0
   -4.0260   24.3490  -29.5420 C   0  0  0  0  0  0  0  0  0  0  0  0
   -5.0950   23.2450  -29.6570 C   0  0  0  0  0  0  0  0  0  0  0  0
   -6.0100   20.9880  -32.4430 O   0  0  0  0  0  0  0  0  0  0  0  0
   -6.9780   17.4730  -32.7250 C   0  0  0  0  0  0  0  0  0  0  0  0
   -6.5380   16.2130  -33.1290 C   0  0  0  0  0  0  0  0  0  0  0  0
   -5.3820   16.0830  -33.9070 C   0  0  0  0  0  0  0  0  0  0  0  0
   -4.9560   14.8170  -34.3370 C   0  0  0  0  0  0  0  0  0  0  0  0
   -3.8110   14.6910  -35.1250 C   0  0  0  0  0  0  0  0  0  0  0  0
   -3.0870   15.8240  -35.4960 C   0  0  0  0  0  0  0  0  0  0  0  0
   -3.4960   17.0910  -35.0730 C   0  0  0  0  0  0  0  0  0  0  0  0
   -4.6390   17.2380  -34.2630 C   0  0  0  0  0  0  0  0  0  0  0  0
   -3.4246   21.5224  -29.7735 H   0  0  0  0  0  0  0  0  0  0  0  0
   -4.3775   20.0278  -30.0650 H   0  0  0  0  0  0  0  0  0  0  0  0
   -2.5824   19.9628  -30.0650 H   0  0  0  0  0  0  0  0  0  0  0  0
   -4.4110   20.6610  -32.1430 H   0  0  0  0  0  0  0  0  0  0  0  0
   -3.0088   22.7795  -31.0360 H   0  0  0  0  0  0  0  0  0  0  0  0
   -2.1866   22.3454  -32.5730 H   0  0  0  0  0  0  0  0  0  0  0  0
   -3.9380   22.7447  -32.5730 H   0  0  0  0  0  0  0  0  0  0  0  0
   -1.4902   20.4307  -32.4412 H   0  0  0  0  0  0  0  0  0  0  0  0
   -2.4734   18.9970  -31.9025 H   0  0  0  0  0  0  0  0  0  0  0  0
   -2.4341   20.4179  -34.5631 H   0  0  0  0  0  0  0  0  0  0  0  0
   -2.4821   18.6550  -34.1772 H   0  0  0  0  0  0  0  0  0  0  0  0
   -8.9710   19.6030  -32.4370 H   0  0  0  0  0  0  0  0  0  0  0  0
   -8.9563   22.2170  -31.7355 H   0  0  0  0  0  0  0  0  0  0  0  0
   -5.2156   23.4460  -32.1704 H   0  0  0  0  0  0  0  0  0  0  0  0
   -6.8887   24.0939  -32.3681 H   0  0  0  0  0  0  0  0  0  0  0  0
   -7.4263   25.4486  -30.7403 H   0  0  0  0  0  0  0  0  0  0  0  0
   -6.8006   25.2428  -29.0481 H   0  0  0  0  0  0  0  0  0  0  0  0
   -5.5525   26.5526  -31.3889 H   0  0  0  0  0  0  0  0  0  0  0  0
   -5.2113   26.7068  -29.6040 H   0  0  0  0  0  0  0  0  0  0  0  0
   -3.0271   23.8902  -29.5831 H   0  0  0  0  0  0  0  0  0  0  0  0
   -4.1642   24.8771  -28.5870 H   0  0  0  0  0  0  0  0  0  0  0  0
   -4.6619   22.3909  -30.1983 H   0  0  0  0  0  0  0  0  0  0  0  0
   -5.3981   22.9686  -28.6363 H   0  0  0  0  0  0  0  0  0  0  0  0
   -7.8920   17.5624  -32.1194 H   0  0  0  0  0  0  0  0  0  0  0  0
   -7.1027   15.3161  -32.8345 H   0  0  0  0  0  0  0  0  0  0  0  0
   -5.5265   13.9207  -34.0520 H   0  0  0  0  0  0  0  0  0  0  0  0
   -3.4786   13.6955  -35.4544 H   0  0  0  0  0  0  0  0  0  0  0  0
   -2.1902   15.7194  -36.1243 H   0  0  0  0  0  0  0  0  0  0  0  0
   -2.9218   17.9795  -35.3744 H   0  0  0  0  0  0  0  0  0  0  0  0
  1  2  1  0
  2  3  1  0
  2  4  1  0
  4  5  1  0
  5  6  1  0
  6  7  1  0
  7  8  2  0
  8  9  1  0
  9 10  2  0
 10 11  1  0
 11 12  2  0
 12 13  1  0
 13 14  1  0
 14 15  1  0
 15 16  1  0
 16 17  1  0
 17 18  1  0
 18 19  1  0
 12 20  1  0
  8 21  1  0
 21 22  2  0
 22 23  1  0
 23 24  2  0
 24 25  1  0
 25 26  2  0
 26 27  1  0
 27 28  2  0
 28  7  1  0
 20  9  1  0
 28 23  1  0
 19 14  1  0
  1 29  1  0
  1 30  1  0
  1 31  1  0
  2 32  1  0
  3 33  1  0
  3 34  1  0
  3 35  1  0
  4 36  1  0
  4 37  1  0
  5 38  1  0
  5 39  1  0
 10 40  1  0
 11 41  1  0
 13 42  1  0
 13 43  1  0
 15 44  1  0
 15 45  1  0
 16 46  1  0
 16 47  1  0
 18 48  1  0
 18 49  1  0
 19 50  1  0
 19 51  1  0
 21 52  1  0
 22 53  1  0
 24 54  1  0
 25 55  1  0
 26 56  1  0
 27 57  1  0
M  CHG  1   2   1
M  END
>  <UniqueID>  (31) 
30

>  <SMILES>  (31) 
C[NH+](C)CCOc1c(-c2ccc(CN3CCOCC3)o2)ccc2ccccc12

>  <Energy>  (31) 
107.7198488628836

>  <Genealogy>  (31) 
C[NH+](C)CCOc1c(-c2ccc(CN3CCOCC3)o2)ccc2ccccc12 (protonated)
C[NH+](C)CCOc1c(-c2ccc(CN3CCOCC3)o2)ccc2ccccc12 (3D coordinates assigned)
C[NH+](C)CCOc1c(-c2ccc(CN3CCOCC3)o2)ccc2ccccc12 (nonaromatic ring conformer: 107.7198488628836 kcal/mol)

>  <smiles>  (31) 
CN(C)CCOc1c(-c2ccc(CN3CCOCC3)o2)ccc2ccccc12

>  <score_type>  (31) 
oracle

>  <origin>  (31) 
adg

>  <m_score__min__energy>  (31) 
-8.0500000000000007

>  <m_primary>  (31) 
energy

$$$$
