0:0
     RDKit          3D

 59 60  0  0  0  0  0  0  0  0999 V2000
   -3.2030   22.7310  -31.0020 C   0  0  0  0  0  0  0  0  0  0  0  0
   -3.6680   23.7120  -29.9180 C   0  0  0  0  0  0  0  0  0  0  0  0
   -2.6060   23.7900  -28.8100 C   0  0  0  0  0  0  0  0  0  0  0  0
   -3.9090   25.0340  -30.5330 N   0  0  0  0  0  0  0  0  0  0  0  0
   -5.3260   25.4290  -30.6570 C   0  0  0  0  0  0  0  0  0  0  0  0
   -6.3430   24.3290  -30.2810 C   0  0  0  0  0  0  0  0  0  0  0  0
   -7.3270   23.9590  -31.4030 C   0  0  0  0  0  0  0  0  0  0  0  0
   -7.5600   22.4710  -31.4930 C   0  0  0  0  0  0  0  0  0  0  0  0
   -8.8640   21.9520  -31.5190 C   0  0  0  0  0  0  0  0  0  0  0  0
   -9.0750   20.5720  -31.5860 C   0  0  0  0  0  0  0  0  0  0  0  0
   -7.9850   19.6900  -31.6180 C   0  0  0  0  0  0  0  0  0  0  0  0
   -8.2130   18.2060  -31.7310 C   0  0  0  0  0  0  0  0  0  0  0  0
   -6.9340   17.5010  -32.2150 C   0  0  0  0  0  0  0  0  0  0  0  0
   -6.8270   17.4720  -33.6970 N   0  0  1  0  0  0  0  0  0  0  0  0
   -6.0760   18.5980  -34.3020 C   0  0  0  0  0  0  0  0  0  0  0  0
   -4.5340   18.5500  -34.1980 C   0  0  0  0  0  0  0  0  0  0  0  0
   -3.8560   17.5280  -33.2540 C   0  0  0  0  0  0  0  0  0  0  0  0
   -3.9360   16.1160  -33.6570 N   0  0  0  0  0  0  0  0  0  0  0  0
   -3.1990   15.7500  -34.8750 C   0  0  0  0  0  0  0  0  0  0  0  0
   -5.2510   15.4810  -33.4700 C   0  0  0  0  0  0  0  0  0  0  0  0
   -6.4010   16.1580  -34.2330 C   0  0  0  0  0  0  0  0  0  0  0  0
   -6.6800   20.2080  -31.6070 C   0  0  0  0  0  0  0  0  0  0  0  0
   -6.4700   21.5880  -31.5410 C   0  0  0  0  0  0  0  0  0  0  0  0
   -2.7780   21.8344  -30.5272 H   0  0  0  0  0  0  0  0  0  0  0  0
   -4.0604   22.4429  -31.6280 H   0  0  0  0  0  0  0  0  0  0  0  0
   -2.4372   23.2123  -31.6280 H   0  0  0  0  0  0  0  0  0  0  0  0
   -4.6081   23.3660  -29.4636 H   0  0  0  0  0  0  0  0  0  0  0  0
   -3.0983   23.7538  -27.8270 H   0  0  0  0  0  0  0  0  0  0  0  0
   -1.9139   22.9403  -28.9049 H   0  0  0  0  0  0  0  0  0  0  0  0
   -2.0455   24.7317  -28.9049 H   0  0  0  0  0  0  0  0  0  0  0  0
   -3.4700   25.0620  -31.4820 H   0  0  0  0  0  0  0  0  0  0  0  0
   -5.4986   26.2934  -29.9989 H   0  0  0  0  0  0  0  0  0  0  0  0
   -5.4921   25.6520  -31.7213 H   0  0  0  0  0  0  0  0  0  0  0  0
   -5.7829   23.4240  -30.0031 H   0  0  0  0  0  0  0  0  0  0  0  0
   -6.9478   24.7316  -29.4551 H   0  0  0  0  0  0  0  0  0  0  0  0
   -8.2886   24.4564  -31.2084 H   0  0  0  0  0  0  0  0  0  0  0  0
   -6.8894   24.2893  -32.3567 H   0  0  0  0  0  0  0  0  0  0  0  0
   -9.7251   22.6357  -31.4864 H   0  0  0  0  0  0  0  0  0  0  0  0
  -10.1008   20.1758  -31.6138 H   0  0  0  0  0  0  0  0  0  0  0  0
   -8.4959   17.8069  -30.7458 H   0  0  0  0  0  0  0  0  0  0  0  0
   -9.0176   18.0235  -32.4586 H   0  0  0  0  0  0  0  0  0  0  0  0
   -6.0619   18.0341  -31.8086 H   0  0  0  0  0  0  0  0  0  0  0  0
   -6.9718   16.4599  -31.8619 H   0  0  0  0  0  0  0  0  0  0  0  0
   -7.8070   17.5800  -34.0540 H   0  0  0  0  0  0  0  0  0  0  0  0
   -6.3355   18.6339  -35.3703 H   0  0  0  0  0  0  0  0  0  0  0  0
   -6.3738   19.4841  -33.7222 H   0  0  0  0  0  0  0  0  0  0  0  0
   -4.1530   18.3494  -35.2102 H   0  0  0  0  0  0  0  0  0  0  0  0
   -4.2795   19.5203  -33.7467 H   0  0  0  0  0  0  0  0  0  0  0  0
   -2.7916   17.7955  -33.1795 H   0  0  0  0  0  0  0  0  0  0  0  0
   -4.4084   17.5939  -32.3051 H   0  0  0  0  0  0  0  0  0  0  0  0
   -2.2455   15.2765  -34.5982 H   0  0  0  0  0  0  0  0  0  0  0  0
   -3.7995   15.0454  -35.4691 H   0  0  0  0  0  0  0  0  0  0  0  0
   -3.0005   16.6542  -35.4691 H   0  0  0  0  0  0  0  0  0  0  0  0
   -5.1801   14.4376  -33.8109 H   0  0  0  0  0  0  0  0  0  0  0  0
   -5.4912   15.5691  -32.4002 H   0  0  0  0  0  0  0  0  0  0  0  0
   -6.0789   16.3037  -35.2746 H   0  0  0  0  0  0  0  0  0  0  0  0
   -7.2695   15.4907  -34.1306 H   0  0  0  0  0  0  0  0  0  0  0  0
   -5.8192   19.5246  -31.6505 H   0  0  0  0  0  0  0  0  0  0  0  0
   -5.4441   21.9847  -31.5266 H   0  0  0  0  0  0  0  0  0  0  0  0
  1  2  1  0
  2  3  1  0
  2  4  1  0
  4  5  1  0
  5  6  1  0
  6  7  1  0
  7  8  1  0
  8  9  2  0
  9 10  1  0
 10 11  2  0
 11 12  1  0
 12 13  1  0
 13 14  1  0
 14 15  1  0
 15 16  1  0
 16 17  1  0
 17 18  1  0
 18 19  1  0
 18 20  1  0
 20 21  1  0
 11 22  1  0
 22 23  2  0
 23  8  1  0
 21 14  1  0
  1 24  1  0
  1 25  1  0
  1 26  1  0
  2 27  1  0
  3 28  1  0
  3 29  1  0
  3 30  1  0
  4 31  1  0
  5 32  1  0
  5 33  1  0
  6 34  1  0
  6 35  1  0
  7 36  1  0
  7 37  1  0
  9 38  1  0
 10 39  1  0
 12 40  1  0
 12 41  1  0
 13 42  1  0
 13 43  1  0
 14 44  1  6
 15 45  1  0
 15 46  1  0
 16 47  1  0
 16 48  1  0
 17 49  1  0
 17 50  1  0
 19 51  1  0
 19 52  1  0
 19 53  1  0
 20 54  1  0
 20 55  1  0
 21 56  1  0
 21 57  1  0
 22 58  1  0
 23 59  1  0
M  CHG  1  14   1
M  END
>  <UniqueID>  (1) 
1

>  <SMILES>  (1) 
CC(C)NCCCc1ccc(CC[N@H+]2CCCN(C)CC2)cc1

>  <Energy>  (1) 
74.14839851420857

>  <Genealogy>  (1) 
CC(C)NCCCc1ccc(CC[NH+]2CCCN(C)CC2)cc1 (protonated)
CC(C)NCCCc1ccc(CC[N@H+]2CCCN(C)CC2)cc1 (chirality)
CC(C)NCCCc1ccc(CC[N@H+]2CCCN(C)CC2)cc1 (3D coordinates assigned)
CC(C)NCCCc1ccc(CC[N@H+]2CCCN(C)CC2)cc1 (nonaromatic ring conformer: 74.14839851420857 kcal/mol)

>  <smiles>  (1) 
CC(C)NCCCc1ccc(CCN2CCCN(C)CC2)cc1

>  <score_type>  (1) 
oracle

>  <origin>  (1) 
adg

>  <m_score__min__energy>  (1) 
-5.7699999999999996

>  <m_primary>  (1) 
energy

$$$$
1:0
     RDKit          3D

 51 54  0  0  0  0  0  0  0  0999 V2000
    0.2550   21.1360  -35.3970 C   0  0  0  0  0  0  0  0  0  0  0  0
   -0.7710   20.3350  -34.5900 C   0  0  0  0  0  0  0  0  0  0  0  0
   -1.8780   21.1720  -34.0930 N   0  0  0  0  0  0  0  0  0  0  0  0
   -2.1560   20.9380  -32.6660 C   0  0  0  0  0  0  0  0  0  0  0  0
   -3.3620   20.0090  -32.4910 C   0  0  0  0  0  0  0  0  0  0  0  0
   -4.5340   20.5410  -33.1840 N   0  0  0  0  0  0  0  0  0  0  0  0
   -5.7450   20.7880  -32.4630 C   0  0  0  0  0  0  0  0  0  0  0  0
   -5.9860   22.0320  -31.8380 C   0  0  0  0  0  0  0  0  0  0  0  0
   -4.9960   23.0350  -31.8290 C   0  0  0  0  0  0  0  0  0  0  0  0
   -5.2360   24.2630  -31.2170 C   0  0  0  0  0  0  0  0  0  0  0  0
   -6.4620   24.5170  -30.6100 C   0  0  0  0  0  0  0  0  0  0  0  0
   -7.4650   23.5460  -30.6120 C   0  0  0  0  0  0  0  0  0  0  0  0
   -7.2590   22.2850  -31.2210 C   0  0  0  0  0  0  0  0  0  0  0  0
   -8.2530   21.3180  -31.2440 N   0  0  0  0  0  0  0  0  0  0  0  0
   -9.5700   21.5700  -30.6300 C   0  0  0  0  0  0  0  0  0  0  0  0
   -7.9760   20.1200  -31.8500 C   0  0  0  0  0  0  0  0  0  0  0  0
   -8.7800   19.0060  -32.0430 C   0  0  0  0  0  0  0  0  0  0  0  0
   -8.0790   18.0860  -32.6760 O   0  0  0  0  0  0  0  0  0  0  0  0
   -6.8610   18.5380  -32.9010 C   0  0  0  0  0  0  0  0  0  0  0  0
   -5.8130   17.7230  -33.5390 C   0  0  0  0  0  0  0  0  0  0  0  0
   -5.3580   16.5410  -32.9340 C   0  0  0  0  0  0  0  0  0  0  0  0
   -4.3750   15.7660  -33.5570 C   0  0  0  0  0  0  0  0  0  0  0  0
   -3.8440   16.1640  -34.7870 C   0  0  0  0  0  0  0  0  0  0  0  0
   -4.3100   17.3290  -35.4050 C   0  0  0  0  0  0  0  0  0  0  0  0
   -5.3010   18.1000  -34.7900 C   0  0  0  0  0  0  0  0  0  0  0  0
   -6.7640   19.8350  -32.4170 C   0  0  0  0  0  0  0  0  0  0  0  0
    0.9314   21.6641  -34.7088 H   0  0  0  0  0  0  0  0  0  0  0  0
    0.8380   20.4517  -36.0309 H   0  0  0  0  0  0  0  0  0  0  0  0
   -0.2674   21.8676  -36.0309 H   0  0  0  0  0  0  0  0  0  0  0  0
   -1.1872   19.5458  -35.2334 H   0  0  0  0  0  0  0  0  0  0  0  0
   -0.2527   19.9138  -33.7159 H   0  0  0  0  0  0  0  0  0  0  0  0
   -1.6600   22.1850  -34.2520 H   0  0  0  0  0  0  0  0  0  0  0  0
   -2.7320   20.9300  -34.6490 H   0  0  0  0  0  0  0  0  0  0  0  0
   -1.2742   20.4761  -32.1980 H   0  0  0  0  0  0  0  0  0  0  0  0
   -2.3822   21.9027  -32.1884 H   0  0  0  0  0  0  0  0  0  0  0  0
   -3.1175   19.0194  -32.9043 H   0  0  0  0  0  0  0  0  0  0  0  0
   -3.5930   19.9305  -31.4184 H   0  0  0  0  0  0  0  0  0  0  0  0
   -4.5650   20.5550  -34.2290 H   0  0  0  0  0  0  0  0  0  0  0  0
   -4.0248   22.8463  -32.3097 H   0  0  0  0  0  0  0  0  0  0  0  0
   -4.4528   25.0354  -31.2135 H   0  0  0  0  0  0  0  0  0  0  0  0
   -6.6419   25.4882  -30.1259 H   0  0  0  0  0  0  0  0  0  0  0  0
   -8.4307   23.7643  -30.1327 H   0  0  0  0  0  0  0  0  0  0  0  0
   -9.4734   21.5515  -29.5344 H   0  0  0  0  0  0  0  0  0  0  0  0
   -9.9407   22.5554  -30.9488 H   0  0  0  0  0  0  0  0  0  0  0  0
  -10.2783   20.7911  -30.9488 H   0  0  0  0  0  0  0  0  0  0  0  0
   -9.8273   18.9068  -31.7216 H   0  0  0  0  0  0  0  0  0  0  0  0
   -5.7758   16.2236  -31.9672 H   0  0  0  0  0  0  0  0  0  0  0  0
   -4.0191   14.8418  -33.0784 H   0  0  0  0  0  0  0  0  0  0  0  0
   -3.0600   15.5613  -35.2688 H   0  0  0  0  0  0  0  0  0  0  0  0
   -3.8963   17.6390  -36.3760 H   0  0  0  0  0  0  0  0  0  0  0  0
   -5.6803   19.0045  -35.2880 H   0  0  0  0  0  0  0  0  0  0  0  0
  1  2  1  0
  2  3  1  0
  3  4  1  0
  4  5  1  0
  5  6  1  0
  6  7  1  0
  7  8  2  0
  8  9  1  0
  9 10  2  0
 10 11  1  0
 11 12  2  0
 12 13  1  0
 13 14  2  0
 14 15  1  0
 14 16  1  0
 16 17  2  0
 17 18  1  0
 18 19  1  0
 19 20  1  0
 20 21  2  0
 21 22  1  0
 22 23  2  0
 23 24  1  0
 24 25  2  0
 19 26  2  0
 26  7  1  0
 13  8  1  0
 26 16  1  0
 25 20  1  0
  1 27  1  0
  1 28  1  0
  1 29  1  0
  2 30  1  0
  2 31  1  0
  3 32  1  0
  3 33  1  0
  4 34  1  0
  4 35  1  0
  5 36  1  0
  5 37  1  0
  6 38  1  0
  9 39  1  0
 10 40  1  0
 11 41  1  0
 12 42  1  0
 15 43  1  0
 15 44  1  0
 15 45  1  0
 17 46  1  0
 21 47  1  0
 22 48  1  0
 23 49  1  0
 24 50  1  0
 25 51  1  0
M  CHG  2   3   1  14   1
M  END
>  <UniqueID>  (2) 
2

>  <SMILES>  (2) 
CC[NH2+]CCNc1c2ccccc2[n+](C)c2coc(-c3ccccc3)c12

>  <Energy>  (2) 
105.43192803694623

>  <Genealogy>  (2) 
CC[NH2+]CCNc1c2ccccc2[n+](C)c2coc(-c3ccccc3)c12 (protonated)
CC[NH2+]CCNc1c2ccccc2[n+](C)c2coc(-c3ccccc3)c12 (3D coordinates assigned)
CC[NH2+]CCNc1c2ccccc2[n+](C)c2coc(-c3ccccc3)c12 (optimized conformer: 105.43192803694623 kcal/mol)

>  <smiles>  (2) 
CCNCCNc1c2ccccc2[n+](C)c2coc(-c3ccccc3)c12

>  <score_type>  (2) 
oracle

>  <origin>  (2) 
adg

>  <m_score__min__energy>  (2) 
-7.1500000000000004

>  <m_primary>  (2) 
energy

$$$$
2:0
     RDKit          3D

 47 49  0  0  0  0  0  0  0  0999 V2000
   -5.5460   18.8762  -34.1928 H   0  0  0  0  0  0  0  0  0  0  0  0
   -5.0930   19.6910  -33.6090 C   0  0  0  0  0  0  0  0  0  0  0  0
   -3.7020   19.7510  -33.4700 C   0  0  0  0  0  0  0  0  0  0  0  0
   -2.8310   18.7340  -34.1460 C   0  0  0  0  0  0  0  0  0  0  0  0
   -2.3141   18.1304  -33.3854 H   0  0  0  0  0  0  0  0  0  0  0  0
   -3.4523   18.0787  -34.7741 H   0  0  0  0  0  0  0  0  0  0  0  0
   -2.0879   19.2471  -34.7741 H   0  0  0  0  0  0  0  0  0  0  0  0
   -3.1270   20.8130  -32.7620 C   0  0  0  0  0  0  0  0  0  0  0  0
   -2.0325   20.8828  -32.6769 H   0  0  0  0  0  0  0  0  0  0  0  0
   -3.9330   21.7860  -32.1620 C   0  0  0  0  0  0  0  0  0  0  0  0
   -3.3330   22.8090  -31.4850 N   0  0  0  0  0  0  0  0  0  0  0  0
   -4.0440   23.8000  -30.8770 C   0  0  0  0  0  0  0  0  0  0  0  0
   -3.4470   24.7640  -30.2420 N   0  0  0  0  0  0  0  0  0  0  0  0
   -2.8180   24.6200  -28.9320 C   0  0  0  0  0  0  0  0  0  0  0  0
   -2.7314   25.6087  -28.4576 H   0  0  0  0  0  0  0  0  0  0  0  0
   -3.4342   23.9605  -28.3032 H   0  0  0  0  0  0  0  0  0  0  0  0
   -1.4240   24.0090  -29.0920 C   0  0  0  0  0  0  0  0  0  0  0  0
   -1.3864   23.0520  -28.5509 H   0  0  0  0  0  0  0  0  0  0  0  0
   -1.2303   23.8536  -30.1636 H   0  0  0  0  0  0  0  0  0  0  0  0
   -0.3840   24.9120  -28.5510 N   0  0  0  0  0  0  0  0  0  0  0  0
    0.6320   24.1600  -27.7940 C   0  0  0  0  0  0  0  0  0  0  0  0
    0.4566   24.2899  -26.7159 H   0  0  0  0  0  0  0  0  0  0  0  0
    0.5647   23.0924  -28.0505 H   0  0  0  0  0  0  0  0  0  0  0  0
    1.6333   24.5363  -28.0505 H   0  0  0  0  0  0  0  0  0  0  0  0
   -0.9940   25.9280  -27.6780 C   0  0  0  0  0  0  0  0  0  0  0  0
   -0.8293   25.6537  -26.6255 H   0  0  0  0  0  0  0  0  0  0  0  0
   -0.5343   26.9071  -27.8780 H   0  0  0  0  0  0  0  0  0  0  0  0
   -2.0743   25.9825  -27.8780 H   0  0  0  0  0  0  0  0  0  0  0  0
   -5.4330   23.7490  -30.9530 C   0  0  0  0  0  0  0  0  0  0  0  0
   -6.4120   24.5810  -30.4480 C   0  0  0  0  0  0  0  0  0  0  0  0
   -6.2230   25.8310  -29.6510 C   0  0  0  0  0  0  0  0  0  0  0  0
   -6.2593   25.5908  -28.5782 H   0  0  0  0  0  0  0  0  0  0  0  0
   -5.2472   26.2768  -29.8941 H   0  0  0  0  0  0  0  0  0  0  0  0
   -7.0233   26.5454  -29.8941 H   0  0  0  0  0  0  0  0  0  0  0  0
   -7.6160   24.0790  -30.7850 N   0  0  0  0  0  0  0  0  0  0  0  0
   -7.4340   22.9630  -31.4820 N   0  0  0  0  0  0  0  0  0  0  0  0
   -8.5790   22.1960  -31.9710 C   0  0  0  0  0  0  0  0  0  0  0  0
   -8.4353   21.9737  -33.0387 H   0  0  0  0  0  0  0  0  0  0  0  0
   -9.4922   22.7916  -31.8247 H   0  0  0  0  0  0  0  0  0  0  0  0
   -8.7190   20.8860  -31.2010 C   0  0  0  0  0  0  0  0  0  0  0  0
   -8.6970   21.0916  -30.1206 H   0  0  0  0  0  0  0  0  0  0  0  0
   -9.6735   20.4065  -31.4637 H   0  0  0  0  0  0  0  0  0  0  0  0
   -7.8874   20.2156  -31.4637 H   0  0  0  0  0  0  0  0  0  0  0  0
   -6.0940   22.7390  -31.6150 C   0  0  0  0  0  0  0  0  0  0  0  0
   -5.3570   21.7120  -32.2670 C   0  0  0  0  0  0  0  0  0  0  0  0
   -5.9140   20.6540  -33.0150 C   0  0  0  0  0  0  0  0  0  0  0  0
   -7.0056   20.5859  -33.1322 H   0  0  0  0  0  0  0  0  0  0  0  0
  1  2  1  0
  2  3  2  0
  3  4  1  0
  4  5  1  0
  4  6  1  0
  4  7  1  0
  3  8  1  0
  8  9  1  0
  8 10  2  0
 10 11  1  0
 11 12  1  0
 12 13  2  0
 13 14  1  0
 14 15  1  0
 14 16  1  0
 14 17  1  0
 17 18  1  0
 17 19  1  0
 17 20  1  0
 20 21  1  0
 21 22  1  0
 21 23  1  0
 21 24  1  0
 20 25  1  0
 25 26  1  0
 25 27  1  0
 25 28  1  0
 12 29  1  0
 29 30  1  0
 30 31  1  0
 31 32  1  0
 31 33  1  0
 31 34  1  0
 30 35  2  0
 35 36  1  0
 36 37  1  0
 37 38  1  0
 37 39  1  0
 37 40  1  0
 40 41  1  0
 40 42  1  0
 40 43  1  0
 36 44  1  0
 44 45  1  0
 45 46  2  0
 46 47  1  0
 46  2  1  0
 45 10  1  0
 44 29  2  0
M  CHG  1  11  -1
M  END
>  <UniqueID>  (3) 
3

>  <SMILES>  (3) 
CCn1nc(C)c2/c(=N/CCN(C)C)[n-]c3cc(C)ccc3c21

>  <Energy>  (3) 
90.5165992317687

>  <Genealogy>  (3) 
CCn1nc(C)c2c(=NCCN(C)C)[n-]c3cc(C)ccc3c21 (protonated)
CCn1nc(C)c2/c(=N/CCN(C)C)[n-]c3cc(C)ccc3c21 (cis-trans isomerization)
CCn1nc(C)c2/c(=N/CCN(C)C)[n-]c3cc(C)ccc3c21 (3D coordinates assigned)
CCn1nc(C)c2/c(=N/CCN(C)C)[n-]c3cc(C)ccc3c21 (optimized conformer: 90.5165992317687 kcal/mol)

>  <smiles>  (3) 
CCn1nc(C)c2c(=NCCN(C)C)[nH]c3cc(C)ccc3c21

>  <score_type>  (3) 
oracle

>  <origin>  (3) 
adg

>  <m_score__min__energy>  (3) 
-9.0600000000000005

>  <m_primary>  (3) 
energy

$$$$
3:0
     RDKit          3D

 46 48  0  0  0  0  0  0  0  0999 V2000
   -0.0890   22.6310  -23.7290 C   0  0  0  0  0  0  0  0  0  0  0  0
   -0.6290   23.8750  -24.4450 C   0  0  0  0  0  0  0  0  0  0  0  0
    0.2140   25.0950  -24.3130 N   0  0  0  0  0  0  0  0  0  0  0  0
   -0.4810   26.2070  -23.6000 C   0  0  0  0  0  0  0  0  0  0  0  0
    0.1860   27.5900  -23.7160 C   0  0  0  0  0  0  0  0  0  0  0  0
    0.8940   25.5280  -25.5640 C   0  0  0  0  0  0  0  0  0  0  0  0
    1.0560   24.4000  -26.5970 C   0  0  0  0  0  0  0  0  0  0  0  0
    0.5310   24.8140  -27.8570 O   0  0  0  0  0  0  0  0  0  0  0  0
   -0.7100   24.4130  -28.3700 C   0  0  0  0  0  0  0  0  0  0  0  0
   -0.7310   23.4180  -29.3530 C   0  0  0  0  0  0  0  0  0  0  0  0
   -1.9420   22.9840  -29.9000 C   0  0  0  0  0  0  0  0  0  0  0  0
   -3.1590   23.5400  -29.4700 C   0  0  0  0  0  0  0  0  0  0  0  0
   -4.4380   23.0740  -30.0560 C   0  0  0  0  0  0  0  0  0  0  0  0
   -4.5450   21.9400  -30.7950 N   0  0  0  0  0  0  0  0  0  0  0  0
   -5.8220   21.7400  -31.2130 C   0  0  0  0  0  0  0  0  0  0  0  0
   -6.2360   20.6560  -31.9910 C   0  0  0  0  0  0  0  0  0  0  0  0
   -7.5920   20.5670  -32.3550 C   0  0  0  0  0  0  0  0  0  0  0  0
   -8.5090   21.5540  -31.9420 C   0  0  0  0  0  0  0  0  0  0  0  0
   -8.0800   22.6390  -31.1600 C   0  0  0  0  0  0  0  0  0  0  0  0
   -6.7330   22.7030  -30.8140 C   0  0  0  0  0  0  0  0  0  0  0  0
   -5.9360   23.8610  -29.9010 S   0  0  0  0  0  0  0  0  0  0  0  0
   -3.1370   24.5390  -28.4810 C   0  0  0  0  0  0  0  0  0  0  0  0
   -1.9240   24.9730  -27.9350 C   0  0  0  0  0  0  0  0  0  0  0  0
   -0.1527   22.7777  -22.6407 H   0  0  0  0  0  0  0  0  0  0  0  0
   -0.6874   21.7539  -24.0164 H   0  0  0  0  0  0  0  0  0  0  0  0
    0.9604   22.4691  -24.0164 H   0  0  0  0  0  0  0  0  0  0  0  0
   -0.7216   23.6389  -25.5154 H   0  0  0  0  0  0  0  0  0  0  0  0
   -1.5894   24.1126  -23.9643 H   0  0  0  0  0  0  0  0  0  0  0  0
    0.9840   24.8070  -23.6600 H   0  0  0  0  0  0  0  0  0  0  0  0
   -1.4993   26.2869  -24.0083 H   0  0  0  0  0  0  0  0  0  0  0  0
   -0.4499   25.9461  -22.5319 H   0  0  0  0  0  0  0  0  0  0  0  0
    0.3788   27.9897  -22.7095 H   0  0  0  0  0  0  0  0  0  0  0  0
    1.1368   27.4940  -24.2607 H   0  0  0  0  0  0  0  0  0  0  0  0
   -0.4811   28.2743  -24.2607 H   0  0  0  0  0  0  0  0  0  0  0  0
    0.3024   26.3354  -26.0202 H   0  0  0  0  0  0  0  0  0  0  0  0
    1.9054   25.8581  -25.2846 H   0  0  0  0  0  0  0  0  0  0  0  0
    2.1234   24.1586  -26.7086 H   0  0  0  0  0  0  0  0  0  0  0  0
    0.5071   23.5117  -26.2511 H   0  0  0  0  0  0  0  0  0  0  0  0
    0.2138   22.9731  -29.6986 H   0  0  0  0  0  0  0  0  0  0  0  0
   -1.9424   22.2013  -30.6729 H   0  0  0  0  0  0  0  0  0  0  0  0
   -5.5168   19.8882  -32.3122 H   0  0  0  0  0  0  0  0  0  0  0  0
   -7.9389   19.7209  -32.9664 H   0  0  0  0  0  0  0  0  0  0  0  0
   -9.5666   21.4743  -32.2336 H   0  0  0  0  0  0  0  0  0  0  0  0
   -8.7870   23.4148  -30.8309 H   0  0  0  0  0  0  0  0  0  0  0  0
   -4.0814   24.9832  -28.1335 H   0  0  0  0  0  0  0  0  0  0  0  0
   -1.9202   25.7557  -27.1621 H   0  0  0  0  0  0  0  0  0  0  0  0
  1  2  1  0
  2  3  1  0
  3  4  1  0
  4  5  1  0
  3  6  1  0
  6  7  1  0
  7  8  1  0
  8  9  1  0
  9 10  2  0
 10 11  1  0
 11 12  2  0
 12 13  1  0
 13 14  2  0
 14 15  1  0
 15 16  2  0
 16 17  1  0
 17 18  2  0
 18 19  1  0
 19 20  2  0
 20 21  1  0
 12 22  1  0
 22 23  2  0
 23  9  1  0
 21 13  1  0
 20 15  1  0
  1 24  1  0
  1 25  1  0
  1 26  1  0
  2 27  1  0
  2 28  1  0
  3 29  1  0
  4 30  1  0
  4 31  1  0
  5 32  1  0
  5 33  1  0
  5 34  1  0
  6 35  1  0
  6 36  1  0
  7 37  1  0
  7 38  1  0
 10 39  1  0
 11 40  1  0
 16 41  1  0
 17 42  1  0
 18 43  1  0
 19 44  1  0
 22 45  1  0
 23 46  1  0
M  CHG  1   3   1
M  END
>  <UniqueID>  (4) 
4

>  <SMILES>  (4) 
CC[NH+](CC)CCOc1ccc(-c2nc3ccccc3s2)cc1

>  <Energy>  (4) 
90.24776938869185

>  <Genealogy>  (4) 
CC[NH+](CC)CCOc1ccc(-c2nc3ccccc3s2)cc1 (protonated)
CC[NH+](CC)CCOc1ccc(-c2nc3ccccc3s2)cc1 (3D coordinates assigned)
CC[NH+](CC)CCOc1ccc(-c2nc3ccccc3s2)cc1 (optimized conformer: 90.24776938869185 kcal/mol)

>  <smiles>  (4) 
CCN(CC)CCOc1ccc(-c2nc3ccccc3s2)cc1

>  <score_type>  (4) 
oracle

>  <origin>  (4) 
adg

>  <m_score__min__energy>  (4) 
-6.9299999999999997

>  <m_primary>  (4) 
energy

$$$$
4:0
     RDKit          3D

 43 43  0  0  0  0  0  0  0  0999 V2000
   -7.5710   18.1900  -32.7370 C   0  0  0  0  0  0  0  0  0  0  0  0
   -6.9920   19.5590  -32.5370 C   0  0  0  0  0  0  0  0  0  0  0  0
   -7.7700   20.5800  -31.9730 C   0  0  0  0  0  0  0  0  0  0  0  0
   -7.2200   21.8460  -31.7510 C   0  0  0  0  0  0  0  0  0  0  0  0
   -5.8770   22.1060  -32.0810 C   0  0  0  0  0  0  0  0  0  0  0  0
   -5.2870   23.3620  -31.8760 O   0  0  0  0  0  0  0  0  0  0  0  0
   -6.0060   24.5560  -31.5690 C   0  0  0  0  0  0  0  0  0  0  0  0
   -5.2820   25.3520  -30.4730 C   0  0  2  0  0  0  0  0  0  0  0  0
   -3.8910   25.3030  -30.6650 O   0  0  0  0  0  0  0  0  0  0  0  0
   -5.6790   24.8630  -29.0580 C   0  0  0  0  0  0  0  0  0  0  0  0
   -4.5560   24.8680  -28.0980 N   0  0  0  0  0  0  0  0  0  0  0  0
   -4.2350   23.5560  -27.5010 C   0  0  0  0  0  0  0  0  0  0  0  0
   -3.0020   22.8710  -28.1250 C   0  0  0  0  0  0  0  0  0  0  0  0
   -2.3950   23.6930  -29.1950 N   0  0  0  0  0  0  0  0  0  0  0  0
   -1.7960   22.8260  -30.2210 C   0  0  0  0  0  0  0  0  0  0  0  0
   -1.3640   24.5940  -28.6510 C   0  0  0  0  0  0  0  0  0  0  0  0
   -5.0950   21.0770  -32.6290 C   0  0  0  0  0  0  0  0  0  0  0  0
   -3.2600   21.3850  -33.0770 Br  0  0  0  0  0  0  0  0  0  0  0  0
   -5.6490   19.8110  -32.8490 C   0  0  0  0  0  0  0  0  0  0  0  0
   -7.7664   17.7279  -31.7581 H   0  0  0  0  0  0  0  0  0  0  0  0
   -8.5128   18.2689  -33.2998 H   0  0  0  0  0  0  0  0  0  0  0  0
   -6.8584   17.5691  -33.2998 H   0  0  0  0  0  0  0  0  0  0  0  0
   -8.8184   20.3839  -31.7038 H   0  0  0  0  0  0  0  0  0  0  0  0
   -7.8405   22.6433  -31.3159 H   0  0  0  0  0  0  0  0  0  0  0  0
   -6.0836   25.1751  -32.4749 H   0  0  0  0  0  0  0  0  0  0  0  0
   -7.0093   24.2849  -31.2085 H   0  0  0  0  0  0  0  0  0  0  0  0
   -5.5991   26.4025  -30.5496 H   0  0  0  0  0  0  0  0  0  0  0  0
   -3.6440   24.3590  -30.8480 H   0  0  0  0  0  0  0  0  0  0  0  0
   -6.4710   25.5212  -28.6713 H   0  0  0  0  0  0  0  0  0  0  0  0
   -6.0158   23.8206  -29.1577 H   0  0  0  0  0  0  0  0  0  0  0  0
   -3.7070   25.2380  -28.5860 H   0  0  0  0  0  0  0  0  0  0  0  0
   -4.7720   25.5390  -27.3240 H   0  0  0  0  0  0  0  0  0  0  0  0
   -4.0444   23.7012  -26.4274 H   0  0  0  0  0  0  0  0  0  0  0  0
   -5.0963   22.8988  -27.6916 H   0  0  0  0  0  0  0  0  0  0  0  0
   -2.2525   22.7028  -27.3377 H   0  0  0  0  0  0  0  0  0  0  0  0
   -3.3301   21.9204  -28.5708 H   0  0  0  0  0  0  0  0  0  0  0  0
   -1.2354   22.0146  -29.7337 H   0  0  0  0  0  0  0  0  0  0  0  0
   -2.5912   22.3969  -30.8483 H   0  0  0  0  0  0  0  0  0  0  0  0
   -1.1133   23.4180  -30.8483 H   0  0  0  0  0  0  0  0  0  0  0  0
   -1.3958   24.5662  -27.5518 H   0  0  0  0  0  0  0  0  0  0  0  0
   -0.3722   24.2679  -28.9975 H   0  0  0  0  0  0  0  0  0  0  0  0
   -1.5543   25.6205  -28.9975 H   0  0  0  0  0  0  0  0  0  0  0  0
   -5.0261   19.0079  -33.2698 H   0  0  0  0  0  0  0  0  0  0  0  0
  1  2  1  0
  2  3  2  0
  3  4  1  0
  4  5  2  0
  5  6  1  0
  6  7  1  0
  7  8  1  0
  8  9  1  0
  8 10  1  0
 10 11  1  0
 11 12  1  0
 12 13  1  0
 13 14  1  0
 14 15  1  0
 14 16  1  0
  5 17  1  0
 17 18  1  0
 17 19  2  0
 19  2  1  0
  1 20  1  0
  1 21  1  0
  1 22  1  0
  3 23  1  0
  4 24  1  0
  7 25  1  0
  7 26  1  0
  8 27  1  1
  9 28  1  0
 10 29  1  0
 10 30  1  0
 11 31  1  0
 11 32  1  0
 12 33  1  0
 12 34  1  0
 13 35  1  0
 13 36  1  0
 15 37  1  0
 15 38  1  0
 15 39  1  0
 16 40  1  0
 16 41  1  0
 16 42  1  0
 19 43  1  0
M  CHG  1  11   1
M  END
>  <UniqueID>  (5) 
5

>  <SMILES>  (5) 
Cc1ccc(OC[C@H](O)C[NH2+]CCN(C)C)c(Br)c1

>  <Energy>  (5) 
38.467073922473425

>  <Genealogy>  (5) 
Cc1ccc(OCC(O)C[NH2+]CCN(C)C)c(Br)c1 (protonated)
Cc1ccc(OC[C@H](O)C[NH2+]CCN(C)C)c(Br)c1 (chirality)
Cc1ccc(OC[C@H](O)C[NH2+]CCN(C)C)c(Br)c1 (3D coordinates assigned)
Cc1ccc(OC[C@H](O)C[NH2+]CCN(C)C)c(Br)c1 (optimized conformer: 38.467073922473425 kcal/mol)

>  <smiles>  (5) 
Cc1ccc(OCC(O)CNCCN(C)C)c(Br)c1

>  <score_type>  (5) 
oracle

>  <origin>  (5) 
adg

>  <m_score__min__energy>  (5) 
-6.2699999999999996

>  <m_primary>  (5) 
energy

$$$$
5:0
     RDKit          3D

 48 49  0  0  0  0  0  0  0  0999 V2000
   -1.3040   20.5260  -30.8350 C   0  0  0  0  0  0  0  0  0  0  0  0
   -1.5770   21.5620  -31.9250 C   0  0  0  0  0  0  0  0  0  0  0  0
   -3.0230   21.8500  -32.0580 N   0  0  0  0  0  0  0  0  0  0  0  0
   -3.5560   21.4610  -33.3820 C   0  0  0  0  0  0  0  0  0  0  0  0
   -3.0810   20.0570  -33.7390 C   0  0  0  0  0  0  0  0  0  0  0  0
   -3.8700   21.4160  -30.9150 C   0  0  0  0  0  0  0  0  0  0  0  0
   -3.8570   22.3320  -29.6700 C   0  0  0  0  0  0  0  0  0  0  0  0
   -4.2250   23.7930  -29.9770 C   0  0  0  0  0  0  0  0  0  0  0  0
   -5.0060   23.9180  -31.2210 N   0  0  0  0  0  0  0  0  0  0  0  0
   -6.4600   23.8770  -30.9940 C   0  0  0  0  0  0  0  0  0  0  0  0
   -7.2240   23.4030  -32.2490 C   0  0  2  0  0  0  0  0  0  0  0  0
   -8.7390   23.2200  -32.0200 C   0  0  0  0  0  0  0  0  0  0  0  0
   -9.0690   21.9480  -31.2240 C   0  0  0  0  0  0  0  0  0  0  0  0
   -8.2760   20.7550  -31.6930 C   0  0  0  0  0  0  0  0  0  0  0  0
   -8.6770   19.4600  -31.3290 C   0  0  0  0  0  0  0  0  0  0  0  0
   -7.9190   18.3520  -31.7180 C   0  0  0  0  0  0  0  0  0  0  0  0
   -6.7530   18.5290  -32.4670 C   0  0  0  0  0  0  0  0  0  0  0  0
   -6.3400   19.8150  -32.8250 C   0  0  0  0  0  0  0  0  0  0  0  0
   -7.0890   20.9290  -32.4340 C   0  0  0  0  0  0  0  0  0  0  0  0
   -6.6460   22.2100  -32.7820 O   0  0  0  0  0  0  0  0  0  0  0  0
   -1.4270   20.9927  -29.8465 H   0  0  0  0  0  0  0  0  0  0  0  0
   -2.0128   19.6910  -30.9370 H   0  0  0  0  0  0  0  0  0  0  0  0
   -0.2758   20.1487  -30.9370 H   0  0  0  0  0  0  0  0  0  0  0  0
   -1.0500   22.4936  -31.6712 H   0  0  0  0  0  0  0  0  0  0  0  0
   -1.2194   21.1545  -32.8821 H   0  0  0  0  0  0  0  0  0  0  0  0
   -4.6555   21.4777  -33.3521 H   0  0  0  0  0  0  0  0  0  0  0  0
   -3.1945   22.1702  -34.1412 H   0  0  0  0  0  0  0  0  0  0  0  0
   -2.8889   19.4893  -32.8166 H   0  0  0  0  0  0  0  0  0  0  0  0
   -3.8564   19.5465  -34.3290 H   0  0  0  0  0  0  0  0  0  0  0  0
   -2.1549   20.1222  -34.3290 H   0  0  0  0  0  0  0  0  0  0  0  0
   -4.9082   21.3502  -31.2725 H   0  0  0  0  0  0  0  0  0  0  0  0
   -3.4449   20.4582  -30.5804 H   0  0  0  0  0  0  0  0  0  0  0  0
   -4.5794   21.9374  -28.9403 H   0  0  0  0  0  0  0  0  0  0  0  0
   -2.8280   22.3333  -29.2812 H   0  0  0  0  0  0  0  0  0  0  0  0
   -4.8206   24.1917  -29.1426 H   0  0  0  0  0  0  0  0  0  0  0  0
   -3.2901   24.3582  -30.1055 H   0  0  0  0  0  0  0  0  0  0  0  0
   -4.7350   23.1580  -31.8890 H   0  0  0  0  0  0  0  0  0  0  0  0
   -6.6715   23.1845  -30.1659 H   0  0  0  0  0  0  0  0  0  0  0  0
   -6.7970   24.8962  -30.7537 H   0  0  0  0  0  0  0  0  0  0  0  0
   -7.1208   24.2130  -32.9860 H   0  0  0  0  0  0  0  0  0  0  0  0
   -9.1188   24.0907  -31.4653 H   0  0  0  0  0  0  0  0  0  0  0  0
   -9.2154   23.1271  -33.0071 H   0  0  0  0  0  0  0  0  0  0  0  0
   -8.8433   22.1271  -30.1624 H   0  0  0  0  0  0  0  0  0  0  0  0
  -10.1349   21.7235  -31.3771 H   0  0  0  0  0  0  0  0  0  0  0  0
   -9.5917   19.3166  -30.7351 H   0  0  0  0  0  0  0  0  0  0  0  0
   -8.2409   17.3392  -31.4340 H   0  0  0  0  0  0  0  0  0  0  0  0
   -6.1597   17.6555  -32.7751 H   0  0  0  0  0  0  0  0  0  0  0  0
   -5.4226   19.9514  -33.4164 H   0  0  0  0  0  0  0  0  0  0  0  0
  1  2  1  0
  2  3  1  0
  3  4  1  0
  4  5  1  0
  3  6  1  0
  6  7  1  0
  7  8  1  0
  8  9  1  0
  9 10  1  0
 10 11  1  0
 11 12  1  0
 12 13  1  0
 13 14  1  0
 14 15  2  0
 15 16  1  0
 16 17  2  0
 17 18  1  0
 18 19  2  0
 19 20  1  0
 20 11  1  0
 19 14  1  0
  1 21  1  0
  1 22  1  0
  1 23  1  0
  2 24  1  0
  2 25  1  0
  4 26  1  0
  4 27  1  0
  5 28  1  0
  5 29  1  0
  5 30  1  0
  6 31  1  0
  6 32  1  0
  7 33  1  0
  7 34  1  0
  8 35  1  0
  8 36  1  0
  9 37  1  0
 10 38  1  0
 10 39  1  0
 11 40  1  6
 12 41  1  0
 12 42  1  0
 13 43  1  0
 13 44  1  0
 15 45  1  0
 16 46  1  0
 17 47  1  0
 18 48  1  0
M  END
>  <UniqueID>  (6) 
6

>  <SMILES>  (6) 
CCN(CC)CCCNC[C@@H]1CCc2ccccc2O1

>  <Energy>  (6) 
48.52871216648322

>  <Genealogy>  (6) 
CCN(CC)CCCNC[C@@H]1CCc2ccccc2O1 (chirality)
CCN(CC)CCCNC[C@@H]1CCc2ccccc2O1 (3D coordinates assigned)
CCN(CC)CCCNC[C@@H]1CCc2ccccc2O1 (nonaromatic ring conformer: 48.52871216648322 kcal/mol)

>  <smiles>  (6) 
CCN(CC)CCCNCC1CCc2ccccc2O1

>  <score_type>  (6) 
oracle

>  <origin>  (6) 
adg

>  <m_score__min__energy>  (6) 
-7.3799999999999999

>  <m_primary>  (6) 
energy

$$$$
6:0
     RDKit          3D

 56 59  0  0  0  0  0  0  0  0999 V2000
   -6.1070   25.4920  -29.9680 C   0  0  0  0  0  0  0  0  0  0  0  0
   -4.9540   24.6300  -30.4740 C   0  0  0  0  0  0  0  0  0  0  0  0
   -4.8640   23.3790  -29.6920 N   0  0  0  0  0  0  0  0  0  0  0  0
   -4.2260   23.5570  -28.3680 C   0  0  0  0  0  0  0  0  0  0  0  0
   -2.8250   24.1230  -28.5480 C   0  0  0  0  0  0  0  0  0  0  0  0
   -4.2950   22.2490  -30.4630 C   0  0  0  0  0  0  0  0  0  0  0  0
   -3.6920   22.6530  -31.8260 C   0  0  0  0  0  0  0  0  0  0  0  0
   -4.5150   22.1440  -32.9200 N   0  0  0  0  0  0  0  0  0  0  0  0
   -5.5500   21.1890  -32.6600 C   0  0  0  0  0  0  0  0  0  0  0  0
   -6.8670   21.6190  -32.3870 C   0  0  0  0  0  0  0  0  0  0  0  0
   -7.1640   22.9930  -32.2770 C   0  0  0  0  0  0  0  0  0  0  0  0
   -8.4630   23.4190  -32.0120 C   0  0  0  0  0  0  0  0  0  0  0  0
   -9.4850   22.4920  -31.8510 C   0  0  0  0  0  0  0  0  0  0  0  0
   -9.2200   21.1250  -31.9580 C   0  0  0  0  0  0  0  0  0  0  0  0
   -7.9120   20.6550  -32.2310 C   0  0  0  0  0  0  0  0  0  0  0  0
   -7.6400   19.3050  -32.3600 N   0  0  0  0  0  0  0  0  0  0  0  0
   -8.7100   18.2990  -32.2210 C   0  0  0  0  0  0  0  0  0  0  0  0
   -6.3520   18.9170  -32.6130 C   0  0  0  0  0  0  0  0  0  0  0  0
   -5.7740   17.3460  -32.8240 S   0  0  0  0  0  0  0  0  0  0  0  0
   -4.1690   17.7760  -33.0640 C   0  0  0  0  0  0  0  0  0  0  0  0
   -4.0520   19.1620  -32.9680 C   0  0  0  0  0  0  0  0  0  0  0  0
   -2.7270   19.8100  -33.0110 C   0  0  0  0  0  0  0  0  0  0  0  0
   -1.9890   19.9790  -31.8280 C   0  0  0  0  0  0  0  0  0  0  0  0
   -0.7530   20.6350  -31.8580 C   0  0  0  0  0  0  0  0  0  0  0  0
   -0.2550   21.1330  -33.0660 C   0  0  0  0  0  0  0  0  0  0  0  0
   -0.9950   20.9860  -34.2420 C   0  0  0  0  0  0  0  0  0  0  0  0
   -2.2320   20.3350  -34.2160 C   0  0  0  0  0  0  0  0  0  0  0  0
   -5.2930   19.8110  -32.7380 C   0  0  0  0  0  0  0  0  0  0  0  0
   -6.1086   25.4932  -28.8680 H   0  0  0  0  0  0  0  0  0  0  0  0
   -5.9840   26.5214  -30.3356 H   0  0  0  0  0  0  0  0  0  0  0  0
   -7.0596   25.0828  -30.3356 H   0  0  0  0  0  0  0  0  0  0  0  0
   -5.1228   24.3842  -31.5328 H   0  0  0  0  0  0  0  0  0  0  0  0
   -4.0138   25.1897  -30.3611 H   0  0  0  0  0  0  0  0  0  0  0  0
   -4.8266   24.2520  -27.7628 H   0  0  0  0  0  0  0  0  0  0  0  0
   -4.1641   22.5840  -27.8587 H   0  0  0  0  0  0  0  0  0  0  0  0
   -2.3737   24.3053  -27.5616 H   0  0  0  0  0  0  0  0  0  0  0  0
   -2.2079   23.4037  -29.1063 H   0  0  0  0  0  0  0  0  0  0  0  0
   -2.8807   25.0692  -29.1063 H   0  0  0  0  0  0  0  0  0  0  0  0
   -3.5019   21.7839  -29.8591 H   0  0  0  0  0  0  0  0  0  0  0  0
   -5.1266   21.5613  -30.6765 H   0  0  0  0  0  0  0  0  0  0  0  0
   -3.6435   23.7501  -31.8896 H   0  0  0  0  0  0  0  0  0  0  0  0
   -2.6828   22.2235  -31.9101 H   0  0  0  0  0  0  0  0  0  0  0  0
   -4.2310   22.3080  -33.9130 H   0  0  0  0  0  0  0  0  0  0  0  0
   -6.3620   23.7354  -32.4017 H   0  0  0  0  0  0  0  0  0  0  0  0
   -8.6808   24.4941  -31.9298 H   0  0  0  0  0  0  0  0  0  0  0  0
  -10.5078   22.8363  -31.6382 H   0  0  0  0  0  0  0  0  0  0  0  0
  -10.0393   20.4025  -31.8283 H   0  0  0  0  0  0  0  0  0  0  0  0
   -8.9048   18.1159  -31.1540 H   0  0  0  0  0  0  0  0  0  0  0  0
   -9.6268   18.6698  -32.7027 H   0  0  0  0  0  0  0  0  0  0  0  0
   -8.3963   17.3611  -32.7027 H   0  0  0  0  0  0  0  0  0  0  0  0
   -3.3434   17.0773  -33.2645 H   0  0  0  0  0  0  0  0  0  0  0  0
   -2.3834   19.5949  -30.8757 H   0  0  0  0  0  0  0  0  0  0  0  0
   -0.1734   20.7588  -30.9313 H   0  0  0  0  0  0  0  0  0  0  0  0
    0.7204   21.6410  -33.0905 H   0  0  0  0  0  0  0  0  0  0  0  0
   -0.6036   21.3832  -35.1901 H   0  0  0  0  0  0  0  0  0  0  0  0
   -2.8187   20.2338  -35.1410 H   0  0  0  0  0  0  0  0  0  0  0  0
  1  2  1  0
  2  3  1  0
  3  4  1  0
  4  5  1  0
  3  6  1  0
  6  7  1  0
  7  8  1  0
  8  9  1  0
  9 10  2  0
 10 11  1  0
 11 12  2  0
 12 13  1  0
 13 14  2  0
 14 15  1  0
 15 16  2  0
 16 17  1  0
 16 18  1  0
 18 19  1  0
 19 20  1  0
 20 21  2  0
 21 22  1  0
 22 23  2  0
 23 24  1  0
 24 25  2  0
 25 26  1  0
 26 27  2  0
 21 28  1  0
 28  9  1  0
 15 10  1  0
 28 18  2  0
 27 22  1  0
  1 29  1  0
  1 30  1  0
  1 31  1  0
  2 32  1  0
  2 33  1  0
  4 34  1  0
  4 35  1  0
  5 36  1  0
  5 37  1  0
  5 38  1  0
  6 39  1  0
  6 40  1  0
  7 41  1  0
  7 42  1  0
  8 43  1  0
 11 44  1  0
 12 45  1  0
 13 46  1  0
 14 47  1  0
 17 48  1  0
 17 49  1  0
 17 50  1  0
 20 51  1  0
 23 52  1  0
 24 53  1  0
 25 54  1  0
 26 55  1  0
 27 56  1  0
M  CHG  1  16   1
M  END
>  <UniqueID>  (7) 
7

>  <SMILES>  (7) 
CCN(CC)CCNc1c2ccccc2[n+](C)c2scc(-c3ccccc3)c12

>  <Energy>  (7) 
110.4848829679324

>  <Genealogy>  (7) 
CCN(CC)CCNc1c2ccccc2[n+](C)c2scc(-c3ccccc3)c12 (3D coordinates assigned)
CCN(CC)CCNc1c2ccccc2[n+](C)c2scc(-c3ccccc3)c12 (optimized conformer: 110.4848829679324 kcal/mol)

>  <smiles>  (7) 
CCN(CC)CCNc1c2ccccc2[n+](C)c2scc(-c3ccccc3)c12

>  <score_type>  (7) 
oracle

>  <origin>  (7) 
adg

>  <m_score__min__energy>  (7) 
-9.2400000000000002

>  <m_primary>  (7) 
energy

$$$$
7:0
     RDKit          3D

 54 57  0  0  0  0  0  0  0  0999 V2000
   -3.2020   21.4540  -29.9390 C   0  0  0  0  0  0  0  0  0  0  0  0
   -2.6780   22.7100  -30.6280 C   0  0  0  0  0  0  0  0  0  0  0  0
   -3.5400   23.8890  -30.3460 N   0  0  0  0  0  0  0  0  0  0  0  0
   -3.0480   24.5540  -29.1110 C   0  0  0  0  0  0  0  0  0  0  0  0
   -3.8520   24.1810  -27.8680 C   0  0  0  0  0  0  0  0  0  0  0  0
   -4.9590   23.4510  -30.2170 C   0  0  0  0  0  0  0  0  0  0  0  0
   -5.8300   23.8280  -31.4310 C   0  0  0  0  0  0  0  0  0  0  0  0
   -5.5020   23.0580  -32.6340 N   0  0  0  0  0  0  0  0  0  0  0  0
   -5.5820   21.6210  -32.7300 C   0  0  0  0  0  0  0  0  0  0  0  0
   -6.7650   20.9490  -32.3650 C   0  0  0  0  0  0  0  0  0  0  0  0
   -7.9030   21.6560  -31.9180 C   0  0  0  0  0  0  0  0  0  0  0  0
   -9.0600   20.9780  -31.5400 C   0  0  0  0  0  0  0  0  0  0  0  0
   -9.1060   19.5910  -31.5990 C   0  0  0  0  0  0  0  0  0  0  0  0
   -8.0070   18.8730  -32.0690 C   0  0  0  0  0  0  0  0  0  0  0  0
   -6.8300   19.5350  -32.4980 C   0  0  0  0  0  0  0  0  0  0  0  0
   -5.7670   18.8390  -33.0420 N   0  0  0  0  0  0  0  0  0  0  0  0
   -5.9860   17.4750  -33.5680 C   0  0  0  0  0  0  0  0  0  0  0  0
   -4.5380   19.4610  -33.1810 C   0  0  0  0  0  0  0  0  0  0  0  0
   -3.3180   18.7520  -33.3910 C   0  0  0  0  0  0  0  0  0  0  0  0
   -3.2950   17.4920  -33.3080 O   0  0  0  0  0  0  0  0  0  0  0  0
   -2.1470   19.4330  -33.6220 N   0  0  0  0  0  0  0  0  0  0  0  0
   -0.9810   18.7540  -33.8890 C   0  0  0  0  0  0  0  0  0  0  0  0
    0.2130   19.4410  -34.1180 C   0  0  0  0  0  0  0  0  0  0  0  0
    0.2250   20.8320  -34.0680 C   0  0  0  0  0  0  0  0  0  0  0  0
   -0.9520   21.5190  -33.7920 C   0  0  0  0  0  0  0  0  0  0  0  0
   -2.1350   20.8050  -33.5710 C   0  0  0  0  0  0  0  0  0  0  0  0
   -3.2670   21.4850  -33.2810 N   0  0  0  0  0  0  0  0  0  0  0  0
   -4.4540   20.8650  -33.0790 C   0  0  0  0  0  0  0  0  0  0  0  0
   -3.1476   21.5844  -28.8481 H   0  0  0  0  0  0  0  0  0  0  0  0
   -4.2470   21.2817  -30.2360 H   0  0  0  0  0  0  0  0  0  0  0  0
   -2.5892   20.5901  -30.2360 H   0  0  0  0  0  0  0  0  0  0  0  0
   -1.6600   22.9173  -30.2663 H   0  0  0  0  0  0  0  0  0  0  0  0
   -2.6807   22.5335  -31.7137 H   0  0  0  0  0  0  0  0  0  0  0  0
   -1.9997   24.2621  -28.9503 H   0  0  0  0  0  0  0  0  0  0  0  0
   -3.1561   25.6388  -29.2578 H   0  0  0  0  0  0  0  0  0  0  0  0
   -3.2791   24.4468  -26.9674 H   0  0  0  0  0  0  0  0  0  0  0  0
   -4.8061   24.7285  -27.8705 H   0  0  0  0  0  0  0  0  0  0  0  0
   -4.0501   23.0990  -27.8705 H   0  0  0  0  0  0  0  0  0  0  0  0
   -4.9769   22.3572  -30.1015 H   0  0  0  0  0  0  0  0  0  0  0  0
   -5.3799   23.9690  -29.3427 H   0  0  0  0  0  0  0  0  0  0  0  0
   -6.8844   23.6464  -31.1755 H   0  0  0  0  0  0  0  0  0  0  0  0
   -5.6380   24.8874  -31.6566 H   0  0  0  0  0  0  0  0  0  0  0  0
   -5.1540   23.5950  -33.4600 H   0  0  0  0  0  0  0  0  0  0  0  0
   -7.8756   22.7545  -31.8677 H   0  0  0  0  0  0  0  0  0  0  0  0
   -9.9387   21.5422  -31.1942 H   0  0  0  0  0  0  0  0  0  0  0  0
  -10.0116   19.0577  -31.2742 H   0  0  0  0  0  0  0  0  0  0  0  0
   -8.0545   17.7747  -32.1074 H   0  0  0  0  0  0  0  0  0  0  0  0
   -6.0988   16.7723  -32.7293 H   0  0  0  0  0  0  0  0  0  0  0  0
   -6.8979   17.4612  -34.1831 H   0  0  0  0  0  0  0  0  0  0  0  0
   -5.1243   17.1765  -34.1831 H   0  0  0  0  0  0  0  0  0  0  0  0
   -0.9892   17.6545  -33.9226 H   0  0  0  0  0  0  0  0  0  0  0  0
    1.1377   18.8867  -34.3364 H   0  0  0  0  0  0  0  0  0  0  0  0
    1.1596   21.3842  -34.2457 H   0  0  0  0  0  0  0  0  0  0  0  0
   -0.9532   22.6181  -33.7476 H   0  0  0  0  0  0  0  0  0  0  0  0
  1  2  1  0
  2  3  1  0
  3  4  1  0
  4  5  1  0
  3  6  1  0
  6  7  1  0
  7  8  1  0
  8  9  1  0
  9 10  2  0
 10 11  1  0
 11 12  2  0
 12 13  1  0
 13 14  2  0
 14 15  1  0
 15 16  2  0
 16 17  1  0
 16 18  1  0
 18 19  1  0
 19 20  2  0
 19 21  1  0
 21 22  1  0
 22 23  2  0
 23 24  1  0
 24 25  2  0
 25 26  1  0
 26 27  2  0
 27 28  1  0
 28  9  1  0
 15 10  1  0
 28 18  2  0
 26 21  1  0
  1 29  1  0
  1 30  1  0
  1 31  1  0
  2 32  1  0
  2 33  1  0
  4 34  1  0
  4 35  1  0
  5 36  1  0
  5 37  1  0
  5 38  1  0
  6 39  1  0
  6 40  1  0
  7 41  1  0
  7 42  1  0
  8 43  1  0
 11 44  1  0
 12 45  1  0
 13 46  1  0
 14 47  1  0
 17 48  1  0
 17 49  1  0
 17 50  1  0
 22 51  1  0
 23 52  1  0
 24 53  1  0
 25 54  1  0
M  CHG  1  16   1
M  END
>  <UniqueID>  (8) 
8

>  <SMILES>  (8) 
CCN(CC)CCNc1c2ccccc2[n+](C)c2c(=O)n3ccccc3nc12

>  <Energy>  (8) 
90.23805131187599

>  <Genealogy>  (8) 
CCN(CC)CCNc1c2ccccc2[n+](C)c2c(=O)n3ccccc3nc12 (3D coordinates assigned)
CCN(CC)CCNc1c2ccccc2[n+](C)c2c(=O)n3ccccc3nc12 (optimized conformer: 90.23805131187599 kcal/mol)

>  <smiles>  (8) 
CCN(CC)CCNc1c2ccccc2[n+](C)c2c(=O)n3ccccc3nc12

>  <score_type>  (8) 
oracle

>  <origin>  (8) 
adg

>  <m_score__min__energy>  (8) 
-8.7799999999999994

>  <m_primary>  (8) 
energy

$$$$
8:0
     RDKit          3D

 42 45  0  0  0  0  0  0  0  0999 V2000
   -0.0630   25.2900  -25.7740 Cl  0  0  0  0  0  0  0  0  0  0  0  0
   -1.3890   24.9550  -26.8710 C   0  0  0  0  0  0  0  0  0  0  0  0
   -1.1470   24.8220  -28.2420 C   0  0  0  0  0  0  0  0  0  0  0  0
   -2.2040   24.5540  -29.1180 C   0  0  0  0  0  0  0  0  0  0  0  0
   -3.5180   24.4170  -28.6320 C   0  0  0  0  0  0  0  0  0  0  0  0
   -4.6410   24.1340  -29.5610 C   0  0  0  0  0  0  0  0  0  0  0  0
   -5.8050   24.9210  -29.5380 C   0  0  0  0  0  0  0  0  0  0  0  0
   -6.8620   24.6510  -30.4130 C   0  0  0  0  0  0  0  0  0  0  0  0
   -6.7800   23.5940  -31.3230 C   0  0  0  0  0  0  0  0  0  0  0  0
   -7.8740   23.3630  -32.1730 O   0  0  0  0  0  0  0  0  0  0  0  0
   -8.9170   22.4160  -31.9370 C   0  0  0  0  0  0  0  0  0  0  0  0
   -8.4390   21.0180  -32.2230 C   0  0  0  0  0  0  0  0  0  0  0  0
   -9.1090   19.9160  -31.6700 C   0  0  0  0  0  0  0  0  0  0  0  0
   -8.6550   18.6240  -31.9370 C   0  0  0  0  0  0  0  0  0  0  0  0
   -7.5290   18.4350  -32.7450 C   0  0  0  0  0  0  0  0  0  0  0  0
   -7.0520   17.1460  -33.0320 C   0  0  0  0  0  0  0  0  0  0  0  0
   -5.9240   16.9830  -33.8400 C   0  0  0  0  0  0  0  0  0  0  0  0
   -5.2670   18.0990  -34.3650 C   0  0  0  0  0  0  0  0  0  0  0  0
   -5.7330   19.3870  -34.0850 C   0  0  0  0  0  0  0  0  0  0  0  0
   -6.8670   19.5660  -33.2760 C   0  0  0  0  0  0  0  0  0  0  0  0
   -7.3320   20.8190  -32.9980 N   0  0  0  0  0  0  0  0  0  0  0  0
   -5.6140   22.8060  -31.3550 C   0  0  0  0  0  0  0  0  0  0  0  0
   -4.5570   23.0740  -30.4820 C   0  0  0  0  0  0  0  0  0  0  0  0
   -3.7480   24.5530  -27.2490 C   0  0  0  0  0  0  0  0  0  0  0  0
   -2.6900   24.8210  -26.3770 C   0  0  0  0  0  0  0  0  0  0  0  0
   -0.1240   24.9283  -28.6320 H   0  0  0  0  0  0  0  0  0  0  0  0
   -2.0069   24.4495  -30.1951 H   0  0  0  0  0  0  0  0  0  0  0  0
   -5.8854   25.7558  -28.8263 H   0  0  0  0  0  0  0  0  0  0  0  0
   -7.7663   25.2766  -30.3845 H   0  0  0  0  0  0  0  0  0  0  0  0
   -9.2336   22.4816  -30.8856 H   0  0  0  0  0  0  0  0  0  0  0  0
   -9.7611   22.6452  -32.6040 H   0  0  0  0  0  0  0  0  0  0  0  0
   -9.9890   20.0702  -31.0283 H   0  0  0  0  0  0  0  0  0  0  0  0
   -9.1813   17.7561  -31.5131 H   0  0  0  0  0  0  0  0  0  0  0  0
   -7.5663   16.2648  -32.6208 H   0  0  0  0  0  0  0  0  0  0  0  0
   -5.5516   15.9724  -34.0638 H   0  0  0  0  0  0  0  0  0  0  0  0
   -4.3798   17.9635  -35.0010 H   0  0  0  0  0  0  0  0  0  0  0  0
   -5.2105   20.2619  -34.4991 H   0  0  0  0  0  0  0  0  0  0  0  0
   -6.8320   21.6510  -33.3890 H   0  0  0  0  0  0  0  0  0  0  0  0
   -5.5348   21.9749  -32.0712 H   0  0  0  0  0  0  0  0  0  0  0  0
   -3.6512   22.4508  -30.5150 H   0  0  0  0  0  0  0  0  0  0  0  0
   -4.7686   24.4474  -26.8525 H   0  0  0  0  0  0  0  0  0  0  0  0
   -2.8810   24.9269  -25.2989 H   0  0  0  0  0  0  0  0  0  0  0  0
  1  2  1  0
  2  3  2  0
  3  4  1  0
  4  5  2  0
  5  6  1  0
  6  7  2  0
  7  8  1  0
  8  9  2  0
  9 10  1  0
 10 11  1  0
 11 12  1  0
 12 13  2  0
 13 14  1  0
 14 15  2  0
 15 16  1  0
 16 17  2  0
 17 18  1  0
 18 19  2  0
 19 20  1  0
 20 21  2  0
  9 22  1  0
 22 23  2  0
  5 24  1  0
 24 25  2  0
 25  2  1  0
 23  6  1  0
 21 12  1  0
 20 15  1  0
  3 26  1  0
  4 27  1  0
  7 28  1  0
  8 29  1  0
 11 30  1  0
 11 31  1  0
 13 32  1  0
 14 33  1  0
 16 34  1  0
 17 35  1  0
 18 36  1  0
 19 37  1  0
 21 38  1  0
 22 39  1  0
 23 40  1  0
 24 41  1  0
 25 42  1  0
M  CHG  1  21   1
M  END
>  <UniqueID>  (9) 
9

>  <SMILES>  (9) 
Clc1ccc(-c2ccc(OCc3ccc4ccccc4[nH+]3)cc2)cc1

>  <Energy>  (9) 
54.72927785621546

>  <Genealogy>  (9) 
Clc1ccc(-c2ccc(OCc3ccc4ccccc4[nH+]3)cc2)cc1 (protonated)
Clc1ccc(-c2ccc(OCc3ccc4ccccc4[nH+]3)cc2)cc1 (3D coordinates assigned)
Clc1ccc(-c2ccc(OCc3ccc4ccccc4[nH+]3)cc2)cc1 (optimized conformer: 54.72927785621546 kcal/mol)

>  <smiles>  (9) 
Clc1ccc(-c2ccc(OCc3ccc4ccccc4n3)cc2)cc1

>  <score_type>  (9) 
oracle

>  <origin>  (9) 
adg

>  <m_score__min__energy>  (9) 
-8.7599999999999998

>  <m_primary>  (9) 
energy

$$$$
9:0
     RDKit          3D

 71 75  0  0  0  0  0  0  0  0999 V2000
   -5.6260   22.6800  -30.0200 C   0  0  0  0  0  0  0  0  0  0  0  0
   -5.8660   21.7570  -31.1530 N   0  0  0  0  0  0  0  0  0  0  0  0
   -7.1600   21.4660  -31.5440 C   0  0  0  0  0  0  0  0  0  0  0  0
   -8.2650   22.2350  -31.0990 C   0  0  0  0  0  0  0  0  0  0  0  0
   -9.5700   21.8940  -31.4570 C   0  0  0  0  0  0  0  0  0  0  0  0
   -9.8060   20.7930  -32.2720 C   0  0  0  0  0  0  0  0  0  0  0  0
   -8.7390   20.0430  -32.7570 C   0  0  0  0  0  0  0  0  0  0  0  0
   -7.4090   20.3810  -32.4260 C   0  0  0  0  0  0  0  0  0  0  0  0
   -6.3290   19.6550  -32.9540 C   0  0  0  0  0  0  0  0  0  0  0  0
   -6.5710   18.5330  -33.8160 N   0  0  0  0  0  0  0  0  0  0  0  0
   -6.8720   17.2200  -33.2440 C   0  0  0  0  0  0  0  0  0  0  0  0
   -5.6550   16.6000  -32.5190 C   0  0  0  0  0  0  0  0  0  0  0  0
   -4.9260   15.5460  -33.2710 N   0  0  0  0  0  0  0  0  0  0  0  0
   -4.2270   14.5910  -32.3950 C   0  0  0  0  0  0  0  0  0  0  0  0
   -4.0130   16.0920  -34.2890 C   0  0  0  0  0  0  0  0  0  0  0  0
   -5.0150   20.0780  -32.6860 C   0  0  0  0  0  0  0  0  0  0  0  0
   -3.9160   19.4540  -33.3070 C   0  0  0  0  0  0  0  0  0  0  0  0
   -2.6180   19.9090  -33.0890 C   0  0  0  0  0  0  0  0  0  0  0  0
   -2.3880   21.0190  -32.2660 C   0  0  0  0  0  0  0  0  0  0  0  0
   -1.1040   21.5480  -32.0470 O   0  0  0  0  0  0  0  0  0  0  0  0
   -0.2710   21.2580  -30.9240 C   0  0  0  0  0  0  0  0  0  0  0  0
   -0.7850   22.0010  -29.6700 C   0  0  0  0  0  0  0  0  0  0  0  0
   -1.1890   21.1290  -28.5240 N   0  0  2  0  0  0  0  0  0  0  0  0
   -0.9130   21.7810  -27.2070 C   0  0  0  0  0  0  0  0  0  0  0  0
   -1.2590   20.8360  -26.0270 C   0  0  0  0  0  0  0  0  0  0  0  0
   -1.8180   19.5120  -26.5740 C   0  0  2  0  0  0  0  0  0  0  0  0
   -0.7480   18.8780  -27.4720 C   0  0  0  0  0  0  0  0  0  0  0  0
   -0.3860   19.8660  -28.6080 C   0  0  0  0  0  0  0  0  0  0  0  0
   -3.0480   19.8210  -27.4450 C   0  0  0  0  0  0  0  0  0  0  0  0
   -2.6390   20.7700  -28.6030 C   0  0  0  0  0  0  0  0  0  0  0  0
   -3.4700   21.6350  -31.6320 C   0  0  0  0  0  0  0  0  0  0  0  0
   -4.7970   21.1660  -31.8020 C   0  0  0  0  0  0  0  0  0  0  0  0
   -5.7662   22.1406  -29.0716 H   0  0  0  0  0  0  0  0  0  0  0  0
   -4.5975   23.0664  -30.0734 H   0  0  0  0  0  0  0  0  0  0  0  0
   -6.3360   23.5185  -30.0734 H   0  0  0  0  0  0  0  0  0  0  0  0
   -8.0908   23.1143  -30.4615 H   0  0  0  0  0  0  0  0  0  0  0  0
  -10.4142   22.4982  -31.0932 H   0  0  0  0  0  0  0  0  0  0  0  0
  -10.8374   20.5143  -32.5338 H   0  0  0  0  0  0  0  0  0  0  0  0
   -8.9342   19.1765  -33.4060 H   0  0  0  0  0  0  0  0  0  0  0  0
   -6.7690   18.7270  -34.8240 H   0  0  0  0  0  0  0  0  0  0  0  0
   -7.6951   17.3292  -32.5225 H   0  0  0  0  0  0  0  0  0  0  0  0
   -7.1474   16.5490  -34.0710 H   0  0  0  0  0  0  0  0  0  0  0  0
   -4.9445   17.4101  -32.2977 H   0  0  0  0  0  0  0  0  0  0  0  0
   -6.0593   16.1048  -31.6238 H   0  0  0  0  0  0  0  0  0  0  0  0
   -5.6560   15.0000  -33.7890 H   0  0  0  0  0  0  0  0  0  0  0  0
   -4.4174   14.8511  -31.3433 H   0  0  0  0  0  0  0  0  0  0  0  0
   -4.5955   13.5738  -32.5936 H   0  0  0  0  0  0  0  0  0  0  0  0
   -3.1460   14.6347  -32.5936 H   0  0  0  0  0  0  0  0  0  0  0  0
   -3.1703   16.5960  -33.7932 H   0  0  0  0  0  0  0  0  0  0  0  0
   -3.6324   15.2731  -34.9172 H   0  0  0  0  0  0  0  0  0  0  0  0
   -4.5543   16.8148  -34.9172 H   0  0  0  0  0  0  0  0  0  0  0  0
   -4.0851   18.5954  -33.9735 H   0  0  0  0  0  0  0  0  0  0  0  0
   -1.7700   19.3948  -33.5649 H   0  0  0  0  0  0  0  0  0  0  0  0
   -0.2820   20.1746  -30.7340 H   0  0  0  0  0  0  0  0  0  0  0  0
    0.7542   21.5914  -31.1428 H   0  0  0  0  0  0  0  0  0  0  0  0
    0.0154   22.6699  -29.3208 H   0  0  0  0  0  0  0  0  0  0  0  0
   -1.6981   22.5276  -29.9847 H   0  0  0  0  0  0  0  0  0  0  0  0
    0.1537   22.0445  -27.1542 H   0  0  0  0  0  0  0  0  0  0  0  0
   -1.5406   22.6808  -27.1267 H   0  0  0  0  0  0  0  0  0  0  0  0
   -0.3506   20.6353  -25.4401 H   0  0  0  0  0  0  0  0  0  0  0  0
   -2.0136   21.3140  -25.3851 H   0  0  0  0  0  0  0  0  0  0  0  0
   -2.0896   18.8386  -25.7477 H   0  0  0  0  0  0  0  0  0  0  0  0
    0.1498   18.6582  -26.8756 H   0  0  0  0  0  0  0  0  0  0  0  0
   -1.1348   17.9434  -27.9044 H   0  0  0  0  0  0  0  0  0  0  0  0
    0.6823   20.1177  -28.5341 H   0  0  0  0  0  0  0  0  0  0  0  0
   -0.6121   19.3802  -29.5687 H   0  0  0  0  0  0  0  0  0  0  0  0
   -3.4461   18.8843  -27.8623 H   0  0  0  0  0  0  0  0  0  0  0  0
   -3.8197   20.3063  -26.8294 H   0  0  0  0  0  0  0  0  0  0  0  0
   -2.8324   20.2685  -29.5627 H   0  0  0  0  0  0  0  0  0  0  0  0
   -3.2307   21.6937  -28.5209 H   0  0  0  0  0  0  0  0  0  0  0  0
   -3.2877   22.5056  -30.9848 H   0  0  0  0  0  0  0  0  0  0  0  0
  1  2  1  0
  2  3  2  0
  3  4  1  0
  4  5  2  0
  5  6  1  0
  6  7  2  0
  7  8  1  0
  8  9  2  0
  9 10  1  0
 10 11  1  0
 11 12  1  0
 12 13  1  0
 13 14  1  0
 13 15  1  0
  9 16  1  0
 16 17  2  0
 17 18  1  0
 18 19  2  0
 19 20  1  0
 20 21  1  0
 21 22  1  0
 23 22  1  6
 23 24  1  0
 24 25  1  0
 25 26  1  0
 26 27  1  0
 27 28  1  0
 26 29  1  0
 29 30  1  0
 19 31  1  0
 31 32  2  0
 32  2  1  0
  8  3  1  0
 32 16  1  0
 28 23  1  0
 30 23  1  0
  1 33  1  0
  1 34  1  0
  1 35  1  0
  4 36  1  0
  5 37  1  0
  6 38  1  0
  7 39  1  0
 10 40  1  0
 11 41  1  0
 11 42  1  0
 12 43  1  0
 12 44  1  0
 13 45  1  0
 14 46  1  0
 14 47  1  0
 14 48  1  0
 15 49  1  0
 15 50  1  0
 15 51  1  0
 17 52  1  0
 18 53  1  0
 21 54  1  0
 21 55  1  0
 22 56  1  0
 22 57  1  0
 24 58  1  0
 24 59  1  0
 25 60  1  0
 25 61  1  0
 26 62  1  1
 27 63  1  0
 27 64  1  0
 28 65  1  0
 28 66  1  0
 29 67  1  0
 29 68  1  0
 30 69  1  0
 30 70  1  0
 31 71  1  0
M  CHG  3   2   1  13   1  23   1
M  END
>  <UniqueID>  (10) 
10

>  <SMILES>  (10) 
C[n+]1c2ccccc2c(NCC[NH+](C)C)c2ccc(OCC[N+]34CCC(CC3)CC4)cc21

>  <Energy>  (10) 
122.3823129397141

>  <Genealogy>  (10) 
C[n+]1c2ccccc2c(NCC[NH+](C)C)c2ccc(OCC[N+]34CCC(CC3)CC4)cc21 (protonated)
C[n+]1c2ccccc2c(NCC[NH+](C)C)c2ccc(OCC[N+]34CCC(CC3)CC4)cc21 (3D coordinates assigned)
C[n+]1c2ccccc2c(NCC[NH+](C)C)c2ccc(OCC[N+]34CCC(CC3)CC4)cc21 (nonaromatic ring conformer: 122.3823129397141 kcal/mol)

>  <smiles>  (10) 
CN(C)CCNc1c2ccccc2[n+](C)c2cc(OCC[N+]34CCC(CC3)CC4)ccc12

>  <score_type>  (10) 
oracle

>  <origin>  (10) 
adg

>  <m_score__min__energy>  (10) 
-7.7999999999999998

>  <m_primary>  (10) 
energy

$$$$
10:0
     RDKit          3D

 43 45  0  0  0  0  0  0  0  0999 V2000
   -6.4530   25.3490  -29.7060 C   0  0  0  0  0  0  0  0  0  0  0  0
   -5.1150   24.6310  -29.8480 C   0  0  0  0  0  0  0  0  0  0  0  0
   -4.7470   24.5440  -31.2130 O   0  0  0  0  0  0  0  0  0  0  0  0
   -5.6970   23.8000  -31.9580 C   0  0  0  0  0  0  0  0  0  0  0  0
   -5.3840   22.2890  -31.8990 C   0  0  2  0  0  0  0  0  0  0  0  0
   -4.3750   21.9150  -33.0320 C   0  0  0  0  0  0  0  0  0  0  0  0
   -4.3370   20.4640  -33.3430 N   0  0  0  0  0  0  0  0  0  0  0  0
   -3.8140   19.6660  -32.2130 C   0  0  0  0  0  0  0  0  0  0  0  0
   -2.7950   20.4560  -31.4460 C   0  0  0  0  0  0  0  0  0  0  0  0
   -3.0510   20.8640  -30.1290 C   0  0  0  0  0  0  0  0  0  0  0  0
   -2.0910   21.6140  -29.4450 C   0  0  0  0  0  0  0  0  0  0  0  0
   -0.8930   21.9500  -30.0770 C   0  0  0  0  0  0  0  0  0  0  0  0
   -0.6730   21.5310  -31.3910 C   0  0  0  0  0  0  0  0  0  0  0  0
   -1.6190   20.8010  -32.0410 N   0  0  0  0  0  0  0  0  0  0  0  0
   -5.6540   19.9800  -33.8270 C   0  0  0  0  0  0  0  0  0  0  0  0
   -6.7440   20.4030  -32.8970 C   0  0  0  0  0  0  0  0  0  0  0  0
   -7.9470   19.7940  -32.6160 C   0  0  0  0  0  0  0  0  0  0  0  0
   -8.5220   20.4380  -31.5790 N   0  0  0  0  0  0  0  0  0  0  0  0
   -7.7180   21.4280  -31.2130 N   0  0  0  0  0  0  0  0  0  0  0  0
   -7.9910   22.2820  -30.0630 C   0  0  0  0  0  0  0  0  0  0  0  0
   -6.6400   21.4560  -32.0290 C   0  0  0  0  0  0  0  0  0  0  0  0
   -6.6896   25.4760  -28.6393 H   0  0  0  0  0  0  0  0  0  0  0  0
   -6.3925   26.3359  -30.1882 H   0  0  0  0  0  0  0  0  0  0  0  0
   -7.2419   24.7531  -30.1882 H   0  0  0  0  0  0  0  0  0  0  0  0
   -4.3430   25.1900  -29.2988 H   0  0  0  0  0  0  0  0  0  0  0  0
   -5.2084   23.6150  -29.4368 H   0  0  0  0  0  0  0  0  0  0  0  0
   -6.6995   23.9765  -31.5411 H   0  0  0  0  0  0  0  0  0  0  0  0
   -5.6538   24.1267  -33.0075 H   0  0  0  0  0  0  0  0  0  0  0  0
   -4.9366   22.0713  -30.9180 H   0  0  0  0  0  0  0  0  0  0  0  0
   -4.6609   22.4583  -33.9447 H   0  0  0  0  0  0  0  0  0  0  0  0
   -3.3727   22.1931  -32.6742 H   0  0  0  0  0  0  0  0  0  0  0  0
   -4.6443   19.3975  -31.5433 H   0  0  0  0  0  0  0  0  0  0  0  0
   -3.3387   18.7557  -32.6072 H   0  0  0  0  0  0  0  0  0  0  0  0
   -3.9987   20.5961  -29.6391 H   0  0  0  0  0  0  0  0  0  0  0  0
   -2.2790   21.9388  -28.4110 H   0  0  0  0  0  0  0  0  0  0  0  0
   -0.1303   22.5385  -29.5460 H   0  0  0  0  0  0  0  0  0  0  0  0
    0.2662   21.7916  -31.9008 H   0  0  0  0  0  0  0  0  0  0  0  0
   -5.8482   20.3984  -34.8256 H   0  0  0  0  0  0  0  0  0  0  0  0
   -5.6331   18.8811  -33.8723 H   0  0  0  0  0  0  0  0  0  0  0  0
   -8.3683   18.9281  -33.1477 H   0  0  0  0  0  0  0  0  0  0  0  0
   -7.8106   21.7177  -29.1362 H   0  0  0  0  0  0  0  0  0  0  0  0
   -7.3287   23.1597  -30.0927 H   0  0  0  0  0  0  0  0  0  0  0  0
   -9.0397   22.6128  -30.0927 H   0  0  0  0  0  0  0  0  0  0  0  0
  1  2  1  0
  2  3  1  0
  3  4  1  0
  4  5  1  0
  5  6  1  0
  6  7  1  0
  7  8  1  0
  8  9  1  0
  9 10  2  0
 10 11  1  0
 11 12  2  0
 12 13  1  0
 13 14  2  0
  7 15  1  0
 15 16  1  0
 16 17  1  0
 17 18  2  0
 18 19  1  0
 19 20  1  0
 19 21  1  0
 21  5  1  0
 14  9  1  0
 21 16  2  0
  1 22  1  0
  1 23  1  0
  1 24  1  0
  2 25  1  0
  2 26  1  0
  4 27  1  0
  4 28  1  0
  5 29  1  1
  6 30  1  0
  6 31  1  0
  8 32  1  0
  8 33  1  0
 10 34  1  0
 11 35  1  0
 12 36  1  0
 13 37  1  0
 15 38  1  0
 15 39  1  0
 17 40  1  0
 20 41  1  0
 20 42  1  0
 20 43  1  0
M  END
>  <UniqueID>  (11) 
11

>  <SMILES>  (11) 
CCOC[C@@H]1CN(Cc2ccccn2)Cc2cnn(C)c21

>  <Energy>  (11) 
83.04599531659332

>  <Genealogy>  (11) 
CCOC[C@@H]1CN(Cc2ccccn2)Cc2cnn(C)c21 (chirality)
CCOC[C@@H]1CN(Cc2ccccn2)Cc2cnn(C)c21 (3D coordinates assigned)
CCOC[C@@H]1CN(Cc2ccccn2)Cc2cnn(C)c21 (nonaromatic ring conformer: 83.04599531659332 kcal/mol)

>  <smiles>  (11) 
CCOCC1CN(Cc2ccccn2)Cc2cnn(C)c21

>  <score_type>  (11) 
oracle

>  <origin>  (11) 
adg

>  <m_score__min__energy>  (11) 
-6.8399999999999999

>  <m_primary>  (11) 
energy

$$$$
11:0
     RDKit          3D

 72 75  0  0  0  0  0  0  0  0999 V2000
   -5.3560   12.1500  -31.2150 C   0  0  0  0  0  0  0  0  0  0  0  0
   -4.1930   13.1530  -31.2240 C   0  0  0  0  0  0  0  0  0  0  0  0
   -3.8470   13.6020  -32.6000 N   0  0  0  0  0  0  0  0  0  0  0  0
   -2.5540   14.3420  -32.5890 C   0  0  0  0  0  0  0  0  0  0  0  0
   -1.7390   14.1070  -33.8660 C   0  0  0  0  0  0  0  0  0  0  0  0
   -4.9260   14.4660  -33.1500 C   0  0  0  0  0  0  0  0  0  0  0  0
   -4.9990   15.8270  -32.4320 C   0  0  0  0  0  0  0  0  0  0  0  0
   -5.4130   16.8810  -33.3580 N   0  0  0  0  0  0  0  0  0  0  0  0
   -4.8180   18.1840  -33.3160 C   0  0  0  0  0  0  0  0  0  0  0  0
   -3.4870   18.3980  -33.7220 C   0  0  0  0  0  0  0  0  0  0  0  0
   -2.7400   17.3590  -34.3060 C   0  0  0  0  0  0  0  0  0  0  0  0
   -1.4370   17.5760  -34.7450 C   0  0  0  0  0  0  0  0  0  0  0  0
   -0.8540   18.8450  -34.6350 C   0  0  0  0  0  0  0  0  0  0  0  0
    0.4470   19.1140  -35.0860 O   0  0  0  0  0  0  0  0  0  0  0  0
    0.8860   20.3760  -35.5760 C   0  0  0  0  0  0  0  0  0  0  0  0
   -1.5850   19.8900  -34.0620 C   0  0  0  0  0  0  0  0  0  0  0  0
   -2.9000   19.6930  -33.5660 C   0  0  0  0  0  0  0  0  0  0  0  0
   -3.6110   20.7200  -32.9570 N   0  0  0  0  0  0  0  0  0  0  0  0
   -2.8910   21.9140  -32.4860 C   0  0  0  0  0  0  0  0  0  0  0  0
   -4.9620   20.5380  -32.7290 C   0  0  0  0  0  0  0  0  0  0  0  0
   -5.5470   19.2910  -32.8920 C   0  0  0  0  0  0  0  0  0  0  0  0
   -6.8920   19.4370  -32.6140 C   0  0  0  0  0  0  0  0  0  0  0  0
   -7.9610   18.5390  -32.6800 C   0  0  0  0  0  0  0  0  0  0  0  0
   -9.2510   19.0220  -32.4160 C   0  0  0  0  0  0  0  0  0  0  0  0
   -9.4560   20.3830  -32.1250 C   0  0  0  0  0  0  0  0  0  0  0  0
   -8.3710   21.2730  -32.0870 C   0  0  0  0  0  0  0  0  0  0  0  0
   -7.0800   20.7700  -32.3190 C   0  0  0  0  0  0  0  0  0  0  0  0
   -5.9130   21.4680  -32.3700 N   0  0  0  0  0  0  0  0  0  0  0  0
   -5.8430   22.9360  -32.2550 C   0  0  0  0  0  0  0  0  0  0  0  0
   -5.5300   23.4040  -30.8180 C   0  0  0  0  0  0  0  0  0  0  0  0
   -4.6280   24.5800  -30.8080 N   0  0  0  0  0  0  0  0  0  0  0  0
   -5.3660   25.8090  -30.4720 C   0  0  0  0  0  0  0  0  0  0  0  0
   -3.5140   24.3990  -29.8620 C   0  0  0  0  0  0  0  0  0  0  0  0
   -5.6291   11.9145  -30.1758 H   0  0  0  0  0  0  0  0  0  0  0  0
   -6.2225   12.5887  -31.7314 H   0  0  0  0  0  0  0  0  0  0  0  0
   -5.0494   11.2284  -31.7314 H   0  0  0  0  0  0  0  0  0  0  0  0
   -4.4783   14.0313  -30.6263 H   0  0  0  0  0  0  0  0  0  0  0  0
   -3.3106   12.6500  -30.8016 H   0  0  0  0  0  0  0  0  0  0  0  0
   -3.7470   12.7580  -33.2130 H   0  0  0  0  0  0  0  0  0  0  0  0
   -2.7628   15.4179  -32.4955 H   0  0  0  0  0  0  0  0  0  0  0  0
   -1.9618   13.9727  -31.7388 H   0  0  0  0  0  0  0  0  0  0  0  0
   -0.7140   13.8114  -33.5976 H   0  0  0  0  0  0  0  0  0  0  0  0
   -2.2079   13.3075  -34.4583 H   0  0  0  0  0  0  0  0  0  0  0  0
   -1.7103   15.0335  -34.4583 H   0  0  0  0  0  0  0  0  0  0  0  0
   -4.7324   14.6385  -34.2190 H   0  0  0  0  0  0  0  0  0  0  0  0
   -5.8852   13.9498  -32.9972 H   0  0  0  0  0  0  0  0  0  0  0  0
   -5.7272   15.7626  -31.6100 H   0  0  0  0  0  0  0  0  0  0  0  0
   -4.0009   16.0733  -32.0407 H   0  0  0  0  0  0  0  0  0  0  0  0
   -6.0850   16.6580  -34.1260 H   0  0  0  0  0  0  0  0  0  0  0  0
   -3.1914   16.3621  -34.4172 H   0  0  0  0  0  0  0  0  0  0  0  0
   -0.8616   16.7460  -35.1809 H   0  0  0  0  0  0  0  0  0  0  0  0
    1.1164   21.0384  -34.7286 H   0  0  0  0  0  0  0  0  0  0  0  0
    1.7887   20.2374  -36.1891 H   0  0  0  0  0  0  0  0  0  0  0  0
    0.0922   20.8276  -36.1891 H   0  0  0  0  0  0  0  0  0  0  0  0
   -1.1298   20.8891  -33.9940 H   0  0  0  0  0  0  0  0  0  0  0  0
   -2.8830   21.9272  -31.3861 H   0  0  0  0  0  0  0  0  0  0  0  0
   -1.8568   21.8898  -32.8599 H   0  0  0  0  0  0  0  0  0  0  0  0
   -3.3950   22.8174  -32.8599 H   0  0  0  0  0  0  0  0  0  0  0  0
   -7.7949   17.4813  -32.9324 H   0  0  0  0  0  0  0  0  0  0  0  0
  -10.1077   18.3324  -32.4366 H   0  0  0  0  0  0  0  0  0  0  0  0
  -10.4729   20.7522  -31.9260 H   0  0  0  0  0  0  0  0  0  0  0  0
   -8.5284   22.3418  -31.8799 H   0  0  0  0  0  0  0  0  0  0  0  0
   -5.0529   23.3047  -32.9257 H   0  0  0  0  0  0  0  0  0  0  0  0
   -6.8289   23.3393  -32.5297 H   0  0  0  0  0  0  0  0  0  0  0  0
   -6.4720   23.6731  -30.3177 H   0  0  0  0  0  0  0  0  0  0  0  0
   -5.0251   22.5805  -30.2918 H   0  0  0  0  0  0  0  0  0  0  0  0
   -5.4279   25.9122  -29.3786 H   0  0  0  0  0  0  0  0  0  0  0  0
   -4.8407   26.6789  -30.8932 H   0  0  0  0  0  0  0  0  0  0  0  0
   -6.3807   25.7541  -30.8932 H   0  0  0  0  0  0  0  0  0  0  0  0
   -3.8942   24.4608  -28.8317 H   0  0  0  0  0  0  0  0  0  0  0  0
   -3.0519   23.4140  -30.0239 H   0  0  0  0  0  0  0  0  0  0  0  0
   -2.7638   25.1870  -30.0239 H   0  0  0  0  0  0  0  0  0  0  0  0
  1  2  1  0
  2  3  1  0
  3  4  1  0
  4  5  1  0
  3  6  1  0
  6  7  1  0
  7  8  1  0
  8  9  1  0
  9 10  2  0
 10 11  1  0
 11 12  2  0
 12 13  1  0
 13 14  1  0
 14 15  1  0
 13 16  2  0
 16 17  1  0
 17 18  2  0
 18 19  1  0
 18 20  1  0
 20 21  2  0
 21 22  1  0
 22 23  2  0
 23 24  1  0
 24 25  2  0
 25 26  1  0
 26 27  2  0
 27 28  1  0
 28 29  1  0
 29 30  1  0
 30 31  1  0
 31 32  1  0
 31 33  1  0
 21  9  1  0
 27 22  1  0
 17 10  1  0
 28 20  1  0
  1 34  1  0
  1 35  1  0
  1 36  1  0
  2 37  1  0
  2 38  1  0
  3 39  1  0
  4 40  1  0
  4 41  1  0
  5 42  1  0
  5 43  1  0
  5 44  1  0
  6 45  1  0
  6 46  1  0
  7 47  1  0
  7 48  1  0
  8 49  1  0
 11 50  1  0
 12 51  1  0
 15 52  1  0
 15 53  1  0
 15 54  1  0
 16 55  1  0
 19 56  1  0
 19 57  1  0
 19 58  1  0
 23 59  1  0
 24 60  1  0
 25 61  1  0
 26 62  1  0
 29 63  1  0
 29 64  1  0
 30 65  1  0
 30 66  1  0
 32 67  1  0
 32 68  1  0
 32 69  1  0
 33 70  1  0
 33 71  1  0
 33 72  1  0
M  CHG  2   3   1  18   1
M  END
>  <UniqueID>  (12) 
12

>  <SMILES>  (12) 
CC[NH+](CC)CCNc1c2ccc(OC)cc2[n+](C)c2c1c1ccccc1n2CCN(C)C

>  <Energy>  (12) 
142.50136121118737

>  <Genealogy>  (12) 
CC[NH+](CC)CCNc1c2ccc(OC)cc2[n+](C)c2c1c1ccccc1n2CCN(C)C (protonated)
CC[NH+](CC)CCNc1c2ccc(OC)cc2[n+](C)c2c1c1ccccc1n2CCN(C)C (3D coordinates assigned)
CC[NH+](CC)CCNc1c2ccc(OC)cc2[n+](C)c2c1c1ccccc1n2CCN(C)C (optimized conformer: 142.50136121118737 kcal/mol)

>  <smiles>  (12) 
CCN(CC)CCNc1c2ccc(OC)cc2[n+](C)c2c1c1ccccc1n2CCN(C)C

>  <score_type>  (12) 
oracle

>  <origin>  (12) 
adg

>  <m_score__min__energy>  (12) 
-7.8300000000000001

>  <m_primary>  (12) 
energy

$$$$
12:0
     RDKit          3D

 54 57  0  0  0  0  0  0  0  0999 V2000
   -5.3520   17.7930  -35.0450 C   0  0  0  0  0  0  0  0  0  0  0  0
   -4.3640   17.5040  -33.9210 C   0  0  0  0  0  0  0  0  0  0  0  0
   -3.9830   18.7470  -33.2450 N   0  0  0  0  0  0  0  0  0  0  0  0
   -4.6330   19.3900  -32.2370 C   0  0  0  0  0  0  0  0  0  0  0  0
   -5.9630   18.9690  -31.6800 C   0  0  0  0  0  0  0  0  0  0  0  0
   -7.0230   19.0840  -32.7040 N   0  0  0  0  0  0  0  0  0  0  0  0
   -8.3520   18.7270  -32.1400 C   0  0  0  0  0  0  0  0  0  0  0  0
   -9.4920   19.6910  -32.5270 C   0  0  0  0  0  0  0  0  0  0  0  0
   -9.4350   21.0470  -31.7840 C   0  0  0  0  0  0  0  0  0  0  0  0
   -8.0440   21.4390  -31.4680 N   0  0  0  0  0  0  0  0  0  0  0  0
   -7.9570   22.5680  -30.5140 C   0  0  0  0  0  0  0  0  0  0  0  0
   -6.6010   23.2410  -30.4880 C   0  0  0  0  0  0  0  0  0  0  0  0
   -6.4740   24.5960  -30.8410 C   0  0  0  0  0  0  0  0  0  0  0  0
   -5.2240   25.2200  -30.8120 C   0  0  0  0  0  0  0  0  0  0  0  0
   -4.0880   24.4970  -30.4380 C   0  0  0  0  0  0  0  0  0  0  0  0
   -4.2010   23.1470  -30.0960 C   0  0  0  0  0  0  0  0  0  0  0  0
   -5.4500   22.5190  -30.1230 C   0  0  0  0  0  0  0  0  0  0  0  0
   -7.2100   21.6460  -32.6700 C   0  0  0  0  0  0  0  0  0  0  0  0
   -6.9470   20.3480  -33.4790 C   0  0  0  0  0  0  0  0  0  0  0  0
   -3.9730   20.4890  -31.7820 N   0  0  0  0  0  0  0  0  0  0  0  0
   -2.8610   20.5080  -32.5380 C   0  0  0  0  0  0  0  0  0  0  0  0
   -1.8140   21.4240  -32.4830 C   0  0  0  0  0  0  0  0  0  0  0  0
   -0.7310   21.2370  -33.3630 C   0  0  0  0  0  0  0  0  0  0  0  0
   -0.7230   20.1500  -34.2660 C   0  0  0  0  0  0  0  0  0  0  0  0
   -1.7970   19.2420  -34.2980 C   0  0  0  0  0  0  0  0  0  0  0  0
   -2.8570   19.4600  -33.4140 C   0  0  0  0  0  0  0  0  0  0  0  0
   -6.3237   18.0772  -34.6150 H   0  0  0  0  0  0  0  0  0  0  0  0
   -4.9705   18.6172  -35.6656 H   0  0  0  0  0  0  0  0  0  0  0  0
   -5.4748   16.8931  -35.6656 H   0  0  0  0  0  0  0  0  0  0  0  0
   -4.8312   16.8240  -33.1934 H   0  0  0  0  0  0  0  0  0  0  0  0
   -3.4632   17.0389  -34.3479 H   0  0  0  0  0  0  0  0  0  0  0  0
   -5.8984   17.9235  -31.3441 H   0  0  0  0  0  0  0  0  0  0  0  0
   -6.2157   19.6281  -30.8364 H   0  0  0  0  0  0  0  0  0  0  0  0
   -8.6173   17.7208  -32.4966 H   0  0  0  0  0  0  0  0  0  0  0  0
   -8.2526   18.7839  -31.0460 H   0  0  0  0  0  0  0  0  0  0  0  0
   -9.4323   19.8841  -33.6083 H   0  0  0  0  0  0  0  0  0  0  0  0
  -10.4365   19.2054  -32.2405 H   0  0  0  0  0  0  0  0  0  0  0  0
   -9.8880   21.8216  -32.4203 H   0  0  0  0  0  0  0  0  0  0  0  0
   -9.9857   20.9431  -30.8375 H   0  0  0  0  0  0  0  0  0  0  0  0
   -8.7114   23.3180  -30.7941 H   0  0  0  0  0  0  0  0  0  0  0  0
   -8.1290   22.1536  -29.5097 H   0  0  0  0  0  0  0  0  0  0  0  0
   -7.3639   25.1683  -31.1418 H   0  0  0  0  0  0  0  0  0  0  0  0
   -5.1340   26.2820  -31.0840 H   0  0  0  0  0  0  0  0  0  0  0  0
   -3.1053   24.9906  -30.4129 H   0  0  0  0  0  0  0  0  0  0  0  0
   -3.3061   22.5774  -29.8051 H   0  0  0  0  0  0  0  0  0  0  0  0
   -5.5331   21.4548  -29.8574 H   0  0  0  0  0  0  0  0  0  0  0  0
   -7.7198   22.3668  -33.3263 H   0  0  0  0  0  0  0  0  0  0  0  0
   -6.2323   22.0119  -32.3233 H   0  0  0  0  0  0  0  0  0  0  0  0
   -7.6921   20.2954  -34.2865 H   0  0  0  0  0  0  0  0  0  0  0  0
   -5.9092   20.4206  -33.8363 H   0  0  0  0  0  0  0  0  0  0  0  0
   -1.8323   22.2660  -31.7754 H   0  0  0  0  0  0  0  0  0  0  0  0
    0.1139   21.9412  -33.3476 H   0  0  0  0  0  0  0  0  0  0  0  0
    0.1288   20.0130  -34.9484 H   0  0  0  0  0  0  0  0  0  0  0  0
   -1.8022   18.3905  -34.9943 H   0  0  0  0  0  0  0  0  0  0  0  0
  1  2  1  0
  2  3  1  0
  3  4  1  0
  4  5  1  0
  5  6  1  0
  6  7  1  0
  7  8  1  0
  8  9  1  0
  9 10  1  0
 10 11  1  0
 11 12  1  0
 12 13  2  0
 13 14  1  0
 14 15  2  0
 15 16  1  0
 16 17  2  0
 10 18  1  0
 18 19  1  0
  4 20  2  0
 20 21  1  0
 21 22  2  0
 22 23  1  0
 23 24  2  0
 24 25  1  0
 25 26  2  0
 26  3  1  0
 19  6  1  0
 26 21  1  0
 17 12  1  0
  1 27  1  0
  1 28  1  0
  1 29  1  0
  2 30  1  0
  2 31  1  0
  5 32  1  0
  5 33  1  0
  7 34  1  0
  7 35  1  0
  8 36  1  0
  8 37  1  0
  9 38  1  0
  9 39  1  0
 11 40  1  0
 11 41  1  0
 13 42  1  0
 14 43  1  0
 15 44  1  0
 16 45  1  0
 17 46  1  0
 18 47  1  0
 18 48  1  0
 19 49  1  0
 19 50  1  0
 22 51  1  0
 23 52  1  0
 24 53  1  0
 25 54  1  0
M  END
>  <UniqueID>  (13) 
13

>  <SMILES>  (13) 
CCn1c(CN2CCCN(Cc3ccccc3)CC2)nc2ccccc21

>  <Energy>  (13) 
109.4262805755231

>  <Genealogy>  (13) 
CCn1c(CN2CCCN(Cc3ccccc3)CC2)nc2ccccc21 (3D coordinates assigned)
CCn1c(CN2CCCN(Cc3ccccc3)CC2)nc2ccccc21 (nonaromatic ring conformer: 109.4262805755231 kcal/mol)

>  <smiles>  (13) 
CCn1c(CN2CCCN(Cc3ccccc3)CC2)nc2ccccc21

>  <score_type>  (13) 
oracle

>  <origin>  (13) 
adg

>  <m_score__min__energy>  (13) 
-6.1500000000000004

>  <m_primary>  (13) 
energy

$$$$
13:0
     RDKit          3D

 59 62  0  0  0  0  0  0  0  0999 V2000
   -2.0760   17.3750  -33.3920 C   0  0  0  0  0  0  0  0  0  0  0  0
   -1.2190   18.6400  -33.3350 C   0  0  0  0  0  0  0  0  0  0  0  0
   -1.4430   19.3700  -32.0710 N   0  0  0  0  0  0  0  0  0  0  0  0
   -2.5200   20.3810  -32.0510 C   0  0  0  0  0  0  0  0  0  0  0  0
   -3.1330   20.5680  -33.4460 C   0  0  0  0  0  0  0  0  0  0  0  0
   -4.6250   20.3930  -33.4120 C   0  0  0  0  0  0  0  0  0  0  0  0
   -5.2380   19.4520  -34.1660 N   0  0  0  0  0  0  0  0  0  0  0  0
   -6.5230   19.4820  -33.8530 N   0  0  0  0  0  0  0  0  0  0  0  0
   -6.6850   20.4300  -32.9110 C   0  0  0  0  0  0  0  0  0  0  0  0
   -7.8480   20.7180  -32.2480 N   0  0  0  0  0  0  0  0  0  0  0  0
   -9.1030   20.0150  -32.5730 C   0  0  0  0  0  0  0  0  0  0  0  0
   -9.1090   18.6160  -31.9660 C   0  0  0  0  0  0  0  0  0  0  0  0
   -7.7960   21.6230  -31.2130 C   0  0  0  0  0  0  0  0  0  0  0  0
   -8.8210   21.8420  -30.5100 O   0  0  0  0  0  0  0  0  0  0  0  0
   -6.5950   22.3100  -30.9200 C   0  0  0  0  0  0  0  0  0  0  0  0
   -5.4510   22.0310  -31.6750 C   0  0  0  0  0  0  0  0  0  0  0  0
   -5.5230   21.0430  -32.6180 N   0  0  0  0  0  0  0  0  0  0  0  0
   -4.2290   22.8520  -31.3770 C   0  0  0  0  0  0  0  0  0  0  0  0
   -4.6010   24.1900  -31.1030 O   0  0  0  0  0  0  0  0  0  0  0  0
   -5.3900   24.3410  -29.9230 C   0  0  0  0  0  0  0  0  0  0  0  0
   -4.4580   24.4420  -28.6960 C   0  0  0  0  0  0  0  0  0  0  0  0
   -6.1270   25.6870  -30.0720 C   0  0  0  0  0  0  0  0  0  0  0  0
   -6.4550   23.2040  -29.7160 C   0  0  0  0  0  0  0  0  0  0  0  0
   -0.6380   19.0940  -30.8810 C   0  0  0  0  0  0  0  0  0  0  0  0
    0.2480   17.9910  -30.8330 C   0  0  0  0  0  0  0  0  0  0  0  0
    1.0150   17.7320  -29.6940 C   0  0  0  0  0  0  0  0  0  0  0  0
    0.9200   18.5640  -28.5760 C   0  0  0  0  0  0  0  0  0  0  0  0
    1.6660   18.3090  -27.4730 F   0  0  0  0  0  0  0  0  0  0  0  0
    0.0580   19.6590  -28.5970 C   0  0  0  0  0  0  0  0  0  0  0  0
   -0.7130   19.9250  -29.7320 C   0  0  0  0  0  0  0  0  0  0  0  0
   -2.3032   17.0396  -32.3693 H   0  0  0  0  0  0  0  0  0  0  0  0
   -3.0142   17.5914  -33.9239 H   0  0  0  0  0  0  0  0  0  0  0  0
   -1.5271   16.5839  -33.9239 H   0  0  0  0  0  0  0  0  0  0  0  0
   -0.1577   18.3598  -33.4062 H   0  0  0  0  0  0  0  0  0  0  0  0
   -1.5001   19.2938  -34.1738 H   0  0  0  0  0  0  0  0  0  0  0  0
   -3.3062   20.0538  -31.3547 H   0  0  0  0  0  0  0  0  0  0  0  0
   -2.0903   21.3408  -31.7282 H   0  0  0  0  0  0  0  0  0  0  0  0
   -2.8986   21.5799  -33.8082 H   0  0  0  0  0  0  0  0  0  0  0  0
   -2.7084   19.8075  -34.1178 H   0  0  0  0  0  0  0  0  0  0  0  0
   -7.2380   18.8400  -34.2590 H   0  0  0  0  0  0  0  0  0  0  0  0
   -9.9521   20.5870  -32.1707 H   0  0  0  0  0  0  0  0  0  0  0  0
   -9.1865   19.9269  -33.6663 H   0  0  0  0  0  0  0  0  0  0  0  0
   -9.1087   18.6924  -30.8687 H   0  0  0  0  0  0  0  0  0  0  0  0
  -10.0095   18.0771  -32.2958 H   0  0  0  0  0  0  0  0  0  0  0  0
   -8.2132   18.0694  -32.2958 H   0  0  0  0  0  0  0  0  0  0  0  0
   -3.7115   22.4311  -30.5023 H   0  0  0  0  0  0  0  0  0  0  0  0
   -3.5598   22.8343  -32.2499 H   0  0  0  0  0  0  0  0  0  0  0  0
   -5.0560   24.3772  -27.7750 H   0  0  0  0  0  0  0  0  0  0  0  0
   -3.7303   23.6175  -28.7194 H   0  0  0  0  0  0  0  0  0  0  0  0
   -3.9238   25.4033  -28.7194 H   0  0  0  0  0  0  0  0  0  0  0  0
   -6.3504   26.0950  -29.0752 H   0  0  0  0  0  0  0  0  0  0  0  0
   -5.4904   26.3945  -30.6236 H   0  0  0  0  0  0  0  0  0  0  0  0
   -7.0660   25.5318  -30.6236 H   0  0  0  0  0  0  0  0  0  0  0  0
   -6.1509   22.5899  -28.8556 H   0  0  0  0  0  0  0  0  0  0  0  0
   -7.4283   23.6882  -29.5477 H   0  0  0  0  0  0  0  0  0  0  0  0
    0.3341   17.3274  -31.7060 H   0  0  0  0  0  0  0  0  0  0  0  0
    1.6968   16.8689  -29.6777 H   0  0  0  0  0  0  0  0  0  0  0  0
   -0.0157   20.3158  -27.7177 H   0  0  0  0  0  0  0  0  0  0  0  0
   -1.3892   20.7926  -29.7353 H   0  0  0  0  0  0  0  0  0  0  0  0
  1  2  1  0
  2  3  1  0
  3  4  1  0
  4  5  1  0
  5  6  1  0
  6  7  2  0
  7  8  1  0
  8  9  2  0
  9 10  1  0
 10 11  1  0
 11 12  1  0
 10 13  1  0
 13 14  2  0
 13 15  1  0
 15 16  2  0
 16 17  1  0
 16 18  1  0
 18 19  1  0
 19 20  1  0
 20 21  1  0
 20 22  1  0
 20 23  1  0
  3 24  1  0
 24 25  2  0
 25 26  1  0
 26 27  2  0
 27 28  1  0
 27 29  1  0
 29 30  2  0
 17  6  1  0
 30 24  1  0
 17  9  1  0
 23 15  1  0
  1 31  1  0
  1 32  1  0
  1 33  1  0
  2 34  1  0
  2 35  1  0
  4 36  1  0
  4 37  1  0
  5 38  1  0
  5 39  1  0
  8 40  1  0
 11 41  1  0
 11 42  1  0
 12 43  1  0
 12 44  1  0
 12 45  1  0
 18 46  1  0
 18 47  1  0
 21 48  1  0
 21 49  1  0
 21 50  1  0
 22 51  1  0
 22 52  1  0
 22 53  1  0
 23 54  1  0
 23 55  1  0
 25 56  1  0
 26 57  1  0
 29 58  1  0
 30 59  1  0
M  CHG  1   8   1
M  END
>  <UniqueID>  (14) 
14

>  <SMILES>  (14) 
CCN(CCc1n[nH+]c2n(CC)c(=O)c3c(n12)COC(C)(C)C3)c1ccc(F)cc1

>  <Energy>  (14) 
119.14210963591836

>  <Genealogy>  (14) 
CCN(CCc1n[nH+]c2n(CC)c(=O)c3c(n12)COC(C)(C)C3)c1ccc(F)cc1 (protonated)
CCN(CCc1n[nH+]c2n(CC)c(=O)c3c(n12)COC(C)(C)C3)c1ccc(F)cc1 (3D coordinates assigned)
CCN(CCc1n[nH+]c2n(CC)c(=O)c3c(n12)COC(C)(C)C3)c1ccc(F)cc1 (nonaromatic ring conformer: 119.14210963591836 kcal/mol)

>  <smiles>  (14) 
CCN(CCc1nnc2n(CC)c(=O)c3c(n12)COC(C)(C)C3)c1ccc(F)cc1

>  <score_type>  (14) 
oracle

>  <origin>  (14) 
adg

>  <m_score__min__energy>  (14) 
-8.9499999999999993

>  <m_primary>  (14) 
energy

$$$$
14:0
     RDKit          3D

 55 57  0  0  0  0  0  0  0  0999 V2000
   -5.5600   16.9450  -34.3660 C   0  0  0  0  0  0  0  0  0  0  0  0
   -6.7570   16.9890  -33.5950 O   0  0  0  0  0  0  0  0  0  0  0  0
   -7.2730   18.1500  -32.9990 C   0  0  0  0  0  0  0  0  0  0  0  0
   -8.2640   18.1110  -31.9980 C   0  0  0  0  0  0  0  0  0  0  0  0
   -8.7450   19.2970  -31.4350 C   0  0  0  0  0  0  0  0  0  0  0  0
   -8.2470   20.5380  -31.8610 C   0  0  0  0  0  0  0  0  0  0  0  0
   -8.7800   21.8170  -31.2650 C   0  0  0  0  0  0  0  0  0  0  0  0
   -8.2440   23.0610  -31.9870 C   0  0  0  0  0  0  0  0  0  0  0  0
   -6.7830   23.2880  -31.7350 C   0  0  0  0  0  0  0  0  0  0  0  0
   -6.0380   23.6470  -32.6870 O   0  0  0  0  0  0  0  0  0  0  0  0
   -6.2670   23.1430  -30.4420 O   0  0  0  0  0  0  0  0  0  0  0  0
   -5.8180   24.2390  -29.6450 C   0  0  0  0  0  0  0  0  0  0  0  0
   -4.9060   25.1530  -30.4210 C   0  0  0  0  0  0  0  0  0  0  0  0
   -5.4050   26.0320  -31.1730 O   0  0  0  0  0  0  0  0  0  0  0  0
   -3.4900   24.9420  -30.4620 N   0  0  0  0  0  0  0  0  0  0  0  0
   -2.7150   24.2730  -29.4610 C   0  0  0  0  0  0  0  0  0  0  0  0
   -2.6300   22.9060  -29.2670 C   0  0  0  0  0  0  0  0  0  0  0  0
   -3.4530   21.8620  -29.9600 C   0  0  0  0  0  0  0  0  0  0  0  0
   -1.7060   22.6630  -28.3040 N   0  0  0  0  0  0  0  0  0  0  0  0
   -1.3480   21.3460  -27.7720 C   0  0  0  0  0  0  0  0  0  0  0  0
   -1.1610   23.8200  -27.9310 N   0  0  0  0  0  0  0  0  0  0  0  0
   -0.0970   23.9870  -26.9770 C   0  0  0  0  0  0  0  0  0  0  0  0
   -0.3580   23.8600  -25.6030 C   0  0  0  0  0  0  0  0  0  0  0  0
    0.6720   24.0330  -24.6730 C   0  0  0  0  0  0  0  0  0  0  0  0
    1.9640   24.3410  -25.1060 C   0  0  0  0  0  0  0  0  0  0  0  0
    2.2280   24.4800  -26.4720 C   0  0  0  0  0  0  0  0  0  0  0  0
    1.2010   24.3070  -27.4060 C   0  0  0  0  0  0  0  0  0  0  0  0
   -1.7510   24.8100  -28.6310 C   0  0  0  0  0  0  0  0  0  0  0  0
   -1.4070   26.0210  -28.5780 O   0  0  0  0  0  0  0  0  0  0  0  0
   -7.2610   20.5750  -32.8580 C   0  0  0  0  0  0  0  0  0  0  0  0
   -6.7790   19.3890  -33.4210 C   0  0  0  0  0  0  0  0  0  0  0  0
   -4.6910   16.9131  -33.6924 H   0  0  0  0  0  0  0  0  0  0  0  0
   -5.5654   16.0464  -35.0005 H   0  0  0  0  0  0  0  0  0  0  0  0
   -5.4994   17.8415  -35.0005 H   0  0  0  0  0  0  0  0  0  0  0  0
   -8.6610   17.1431  -31.6580 H   0  0  0  0  0  0  0  0  0  0  0  0
   -9.5182   19.2571  -30.6536 H   0  0  0  0  0  0  0  0  0  0  0  0
   -9.8776   21.8110  -31.3373 H   0  0  0  0  0  0  0  0  0  0  0  0
   -8.4478   21.8654  -30.2175 H   0  0  0  0  0  0  0  0  0  0  0  0
   -8.3998   22.9353  -33.0686 H   0  0  0  0  0  0  0  0  0  0  0  0
   -8.7892   23.9335  -31.5978 H   0  0  0  0  0  0  0  0  0  0  0  0
   -6.6918   24.8131  -29.3030 H   0  0  0  0  0  0  0  0  0  0  0  0
   -5.2543   23.8349  -28.7912 H   0  0  0  0  0  0  0  0  0  0  0  0
   -3.9511   21.2302  -29.2099 H   0  0  0  0  0  0  0  0  0  0  0  0
   -4.2112   22.3509  -30.5893 H   0  0  0  0  0  0  0  0  0  0  0  0
   -2.8006   21.2389  -30.5893 H   0  0  0  0  0  0  0  0  0  0  0  0
   -1.3572   21.3798  -26.6726 H   0  0  0  0  0  0  0  0  0  0  0  0
   -2.0757   20.5990  -28.1220 H   0  0  0  0  0  0  0  0  0  0  0  0
   -0.3423   21.0702  -28.1220 H   0  0  0  0  0  0  0  0  0  0  0  0
   -1.3752   23.6238  -25.2574 H   0  0  0  0  0  0  0  0  0  0  0  0
    0.4644   23.9263  -23.5981 H   0  0  0  0  0  0  0  0  0  0  0  0
    2.7731   24.4741  -24.3728 H   0  0  0  0  0  0  0  0  0  0  0  0
    3.2446   24.7257  -26.8127 H   0  0  0  0  0  0  0  0  0  0  0  0
    1.4110   24.4220  -28.4796 H   0  0  0  0  0  0  0  0  0  0  0  0
   -6.8645   21.5427  -33.1991 H   0  0  0  0  0  0  0  0  0  0  0  0
   -6.0053   19.4307  -34.2018 H   0  0  0  0  0  0  0  0  0  0  0  0
  1  2  1  0
  2  3  1  0
  3  4  2  0
  4  5  1  0
  5  6  2  0
  6  7  1  0
  7  8  1  0
  8  9  1  0
  9 10  2  0
  9 11  1  0
 11 12  1  0
 12 13  1  0
 13 14  2  0
 13 15  1  0
 15 16  1  0
 16 17  2  0
 17 18  1  0
 17 19  1  0
 19 20  1  0
 19 21  1  0
 21 22  1  0
 22 23  2  0
 23 24  1  0
 24 25  2  0
 25 26  1  0
 26 27  2  0
 21 28  1  0
 28 29  2  0
  6 30  1  0
 30 31  2  0
 31  3  1  0
 28 16  1  0
 27 22  1  0
  1 32  1  0
  1 33  1  0
  1 34  1  0
  4 35  1  0
  5 36  1  0
  7 37  1  0
  7 38  1  0
  8 39  1  0
  8 40  1  0
 12 41  1  0
 12 42  1  0
 18 43  1  0
 18 44  1  0
 18 45  1  0
 20 46  1  0
 20 47  1  0
 20 48  1  0
 23 49  1  0
 24 50  1  0
 25 51  1  0
 26 52  1  0
 27 53  1  0
 30 54  1  0
 31 55  1  0
M  CHG  1  15  -1
M  END
>  <UniqueID>  (15) 
15

>  <SMILES>  (15) 
COc1ccc(CCC(=O)OCC(=O)[N-]c2c(C)n(C)n(-c3ccccc3)c2=O)cc1

>  <Energy>  (15) 
97.0587975096298

>  <Genealogy>  (15) 
COc1ccc(CCC(=O)OCC(=O)[N-]c2c(C)n(C)n(-c3ccccc3)c2=O)cc1 (protonated)
COc1ccc(CCC(=O)OCC(=O)[N-]c2c(C)n(C)n(-c3ccccc3)c2=O)cc1 (3D coordinates assigned)
COc1ccc(CCC(=O)OCC(=O)[N-]c2c(C)n(C)n(-c3ccccc3)c2=O)cc1 (optimized conformer: 97.0587975096298 kcal/mol)

>  <smiles>  (15) 
COc1ccc(CCC(=O)OCC(=O)Nc2c(C)n(C)n(-c3ccccc3)c2=O)cc1

>  <score_type>  (15) 
oracle

>  <origin>  (15) 
adg

>  <m_score__min__energy>  (15) 
-10.460000000000001

>  <m_primary>  (15) 
energy

$$$$
15:0
     RDKit          3D

 53 53  0  0  0  0  0  0  0  0999 V2000
   -6.3880   17.4400  -31.5970 C   0  0  0  0  0  0  0  0  0  0  0  0
   -5.6450   18.7810  -31.5800 C   0  0  0  0  0  0  0  0  0  0  0  0
   -6.3640   19.8520  -32.3230 N   0  0  0  0  0  0  0  0  0  0  0  0
   -5.5920   20.2540  -33.5290 C   0  0  0  0  0  0  0  0  0  0  0  0
   -4.4430   21.2240  -33.2190 C   0  0  0  0  0  0  0  0  0  0  0  0
   -7.7370   19.4130  -32.7270 C   0  0  0  0  0  0  0  0  0  0  0  0
   -8.8170   20.4920  -32.4630 C   0  0  0  0  0  0  0  0  0  0  0  0
   -8.2620   21.7470  -32.1020 O   0  0  0  0  0  0  0  0  0  0  0  0
   -8.4020   22.0270  -30.7190 C   0  0  0  0  0  0  0  0  0  0  0  0
   -7.1770   22.7550  -30.1400 C   0  0  0  0  0  0  0  0  0  0  0  0
   -6.3000   23.2140  -31.2210 N   0  0  0  0  0  0  0  0  0  0  0  0
   -6.1580   24.6740  -31.2300 C   0  0  0  0  0  0  0  0  0  0  0  0
   -5.2210   25.0950  -30.1030 C   0  0  0  0  0  0  0  0  0  0  0  0
   -3.8650   24.9080  -30.5040 O   0  0  0  0  0  0  0  0  0  0  0  0
   -3.0270   23.8890  -30.0270 C   0  0  0  0  0  0  0  0  0  0  0  0
   -3.2740   22.5300  -30.3010 C   0  0  0  0  0  0  0  0  0  0  0  0
   -2.4050   21.5460  -29.8250 C   0  0  0  0  0  0  0  0  0  0  0  0
   -1.2860   21.9040  -29.0730 C   0  0  0  0  0  0  0  0  0  0  0  0
   -1.0340   23.2480  -28.7890 C   0  0  0  0  0  0  0  0  0  0  0  0
   -1.9050   24.2510  -29.2630 C   0  0  0  0  0  0  0  0  0  0  0  0
   -1.6850   25.6120  -29.0030 O   0  0  0  0  0  0  0  0  0  0  0  0
   -0.9840   26.1100  -27.8670 C   0  0  0  0  0  0  0  0  0  0  0  0
   -6.5713   17.1092  -30.5640 H   0  0  0  0  0  0  0  0  0  0  0  0
   -7.3485   17.5596  -32.1196 H   0  0  0  0  0  0  0  0  0  0  0  0
   -5.7773   16.6890  -32.1196 H   0  0  0  0  0  0  0  0  0  0  0  0
   -5.5223   19.1009  -30.5347 H   0  0  0  0  0  0  0  0  0  0  0  0
   -4.6763   18.6276  -32.0780 H   0  0  0  0  0  0  0  0  0  0  0  0
   -6.4250   20.6890  -31.7000 H   0  0  0  0  0  0  0  0  0  0  0  0
   -5.1701   19.3493  -33.9911 H   0  0  0  0  0  0  0  0  0  0  0  0
   -6.2876   20.7772  -34.2017 H   0  0  0  0  0  0  0  0  0  0  0  0
   -4.3286   21.3206  -32.1292 H   0  0  0  0  0  0  0  0  0  0  0  0
   -3.5092   20.8369  -33.6528 H   0  0  0  0  0  0  0  0  0  0  0  0
   -4.6680   22.2095  -33.6528 H   0  0  0  0  0  0  0  0  0  0  0  0
   -7.7289   19.1801  -33.8020 H   0  0  0  0  0  0  0  0  0  0  0  0
   -7.9943   18.5328  -32.1194 H   0  0  0  0  0  0  0  0  0  0  0  0
   -9.4152   20.6218  -33.3769 H   0  0  0  0  0  0  0  0  0  0  0  0
   -9.4321   20.1462  -31.6192 H   0  0  0  0  0  0  0  0  0  0  0  0
   -9.2897   22.6604  -30.5751 H   0  0  0  0  0  0  0  0  0  0  0  0
   -8.5013   21.0669  -30.1913 H   0  0  0  0  0  0  0  0  0  0  0  0
   -7.5141   23.6222  -29.5533 H   0  0  0  0  0  0  0  0  0  0  0  0
   -6.6182   22.0591  -29.4970 H   0  0  0  0  0  0  0  0  0  0  0  0
   -6.7270   22.9260  -32.1340 H   0  0  0  0  0  0  0  0  0  0  0  0
   -5.7405   24.9968  -32.1951 H   0  0  0  0  0  0  0  0  0  0  0  0
   -7.1431   25.1414  -31.0848 H   0  0  0  0  0  0  0  0  0  0  0  0
   -5.3885   26.1562  -29.8666 H   0  0  0  0  0  0  0  0  0  0  0  0
   -5.4241   24.4796  -29.2141 H   0  0  0  0  0  0  0  0  0  0  0  0
   -4.1555   22.2422  -30.8927 H   0  0  0  0  0  0  0  0  0  0  0  0
   -2.6033   20.4863  -30.0435 H   0  0  0  0  0  0  0  0  0  0  0  0
   -0.6011   21.1267  -28.7032 H   0  0  0  0  0  0  0  0  0  0  0  0
   -0.1522   23.5256  -28.1929 H   0  0  0  0  0  0  0  0  0  0  0  0
   -1.4777   25.7593  -26.9487 H   0  0  0  0  0  0  0  0  0  0  0  0
    0.0536   25.7454  -27.8876 H   0  0  0  0  0  0  0  0  0  0  0  0
   -0.9867   27.2098  -27.8876 H   0  0  0  0  0  0  0  0  0  0  0  0
  1  2  1  0
  2  3  1  0
  3  4  1  0
  4  5  1  0
  3  6  1  0
  6  7  1  0
  7  8  1  0
  8  9  1  0
  9 10  1  0
 10 11  1  0
 11 12  1  0
 12 13  1  0
 13 14  1  0
 14 15  1  0
 15 16  2  0
 16 17  1  0
 17 18  2  0
 18 19  1  0
 19 20  2  0
 20 21  1  0
 21 22  1  0
 20 15  1  0
  1 23  1  0
  1 24  1  0
  1 25  1  0
  2 26  1  0
  2 27  1  0
  3 28  1  0
  4 29  1  0
  4 30  1  0
  5 31  1  0
  5 32  1  0
  5 33  1  0
  6 34  1  0
  6 35  1  0
  7 36  1  0
  7 37  1  0
  9 38  1  0
  9 39  1  0
 10 40  1  0
 10 41  1  0
 11 42  1  0
 12 43  1  0
 12 44  1  0
 13 45  1  0
 13 46  1  0
 16 47  1  0
 17 48  1  0
 18 49  1  0
 19 50  1  0
 22 51  1  0
 22 52  1  0
 22 53  1  0
M  CHG  1   3   1
M  END
>  <UniqueID>  (16) 
16

>  <SMILES>  (16) 
CC[NH+](CC)CCOCCNCCOc1ccccc1OC

>  <Energy>  (16) 
50.12527432398802

>  <Genealogy>  (16) 
CC[NH+](CC)CCOCCNCCOc1ccccc1OC (protonated)
CC[NH+](CC)CCOCCNCCOc1ccccc1OC (3D coordinates assigned)
CC[NH+](CC)CCOCCNCCOc1ccccc1OC (optimized conformer: 50.12527432398802 kcal/mol)

>  <smiles>  (16) 
CCN(CC)CCOCCNCCOc1ccccc1OC

>  <score_type>  (16) 
oracle

>  <origin>  (16) 
adg

>  <m_score__min__energy>  (16) 
-6.25

>  <m_primary>  (16) 
energy

$$$$
16:0
     RDKit          3D

 46 48  0  0  0  0  0  0  0  0999 V2000
   -8.6300   20.2050  -32.6970 C   0  0  0  0  0  0  0  0  0  0  0  0
   -7.9770   20.9680  -31.6220 N   0  0  0  0  0  0  0  0  0  0  0  0
   -6.5120   21.0050  -31.8360 C   0  0  0  0  0  0  0  0  0  0  0  0
   -5.8720   22.1590  -31.0550 C   0  0  0  0  0  0  0  0  0  0  0  0
   -6.3680   23.4820  -31.5150 N   0  0  0  0  0  0  0  0  0  0  0  0
   -6.2830   24.4980  -30.4420 C   0  0  0  0  0  0  0  0  0  0  0  0
   -5.3470   25.6510  -30.8350 C   0  0  0  0  0  0  0  0  0  0  0  0
   -3.9940   25.3310  -30.5100 O   0  0  0  0  0  0  0  0  0  0  0  0
   -3.5700   24.1700  -29.8420 C   0  0  0  0  0  0  0  0  0  0  0  0
   -2.8850   23.1980  -30.5800 C   0  0  0  0  0  0  0  0  0  0  0  0
   -2.4390   22.0230  -29.9700 C   0  0  0  0  0  0  0  0  0  0  0  0
   -2.6730   21.7950  -28.6030 C   0  0  0  0  0  0  0  0  0  0  0  0
   -2.1990   20.5470  -27.9530 C   0  0  0  0  0  0  0  0  0  0  0  0
   -0.9330   20.0140  -28.2630 C   0  0  0  0  0  0  0  0  0  0  0  0
   -0.4880   18.8390  -27.6490 C   0  0  0  0  0  0  0  0  0  0  0  0
   -1.3010   18.1830  -26.7200 C   0  0  0  0  0  0  0  0  0  0  0  0
   -2.5580   18.7010  -26.4040 C   0  0  0  0  0  0  0  0  0  0  0  0
   -3.0070   19.8770  -27.0150 C   0  0  0  0  0  0  0  0  0  0  0  0
   -3.3650   22.7700  -27.8610 C   0  0  0  0  0  0  0  0  0  0  0  0
   -3.8110   23.9450  -28.4730 C   0  0  0  0  0  0  0  0  0  0  0  0
   -7.7340   23.4230  -32.0950 C   0  0  0  0  0  0  0  0  0  0  0  0
   -8.5870   22.3100  -31.4610 C   0  0  0  0  0  0  0  0  0  0  0  0
   -9.2855   19.4391  -32.2569 H   0  0  0  0  0  0  0  0  0  0  0  0
   -9.2287   20.8867  -33.3189 H   0  0  0  0  0  0  0  0  0  0  0  0
   -7.8640   19.7187  -33.3189 H   0  0  0  0  0  0  0  0  0  0  0  0
   -6.0747   20.0545  -31.4964 H   0  0  0  0  0  0  0  0  0  0  0  0
   -6.3180   21.1570  -32.9080 H   0  0  0  0  0  0  0  0  0  0  0  0
   -6.1105   22.0414  -29.9876 H   0  0  0  0  0  0  0  0  0  0  0  0
   -4.7858   22.1244  -31.2249 H   0  0  0  0  0  0  0  0  0  0  0  0
   -7.2881   24.9021  -30.2513 H   0  0  0  0  0  0  0  0  0  0  0  0
   -5.8786   24.0158  -29.5398 H   0  0  0  0  0  0  0  0  0  0  0  0
   -5.4267   25.8287  -31.9176 H   0  0  0  0  0  0  0  0  0  0  0  0
   -5.6420   26.5533  -30.2793 H   0  0  0  0  0  0  0  0  0  0  0  0
   -2.6958   23.3609  -31.6513 H   0  0  0  0  0  0  0  0  0  0  0  0
   -1.9004   21.2702  -30.5643 H   0  0  0  0  0  0  0  0  0  0  0  0
   -0.2893   20.5257  -28.9936 H   0  0  0  0  0  0  0  0  0  0  0  0
    0.5027   18.4305  -27.8973 H   0  0  0  0  0  0  0  0  0  0  0  0
   -0.9501   17.2586  -26.2380 H   0  0  0  0  0  0  0  0  0  0  0  0
   -3.1969   18.1837  -25.6732 H   0  0  0  0  0  0  0  0  0  0  0  0
   -3.9981   20.2807  -26.7606 H   0  0  0  0  0  0  0  0  0  0  0  0
   -3.5566   22.6062  -26.7903 H   0  0  0  0  0  0  0  0  0  0  0  0
   -4.3531   24.6979  -27.8820 H   0  0  0  0  0  0  0  0  0  0  0  0
   -8.2319   24.3896  -31.9280 H   0  0  0  0  0  0  0  0  0  0  0  0
   -7.6360   23.2035  -33.1684 H   0  0  0  0  0  0  0  0  0  0  0  0
   -8.6999   22.5200  -30.3872 H   0  0  0  0  0  0  0  0  0  0  0  0
   -9.5597   22.2997  -31.9746 H   0  0  0  0  0  0  0  0  0  0  0  0
  1  2  1  0
  2  3  1  0
  3  4  1  0
  4  5  1  0
  5  6  1  0
  6  7  1  0
  7  8  1  0
  8  9  1  0
  9 10  2  0
 10 11  1  0
 11 12  2  0
 12 13  1  0
 13 14  2  0
 14 15  1  0
 15 16  2  0
 16 17  1  0
 17 18  2  0
 12 19  1  0
 19 20  2  0
  5 21  1  0
 21 22  1  0
 22  2  1  0
 20  9  1  0
 18 13  1  0
  1 23  1  0
  1 24  1  0
  1 25  1  0
  3 26  1  0
  3 27  1  0
  4 28  1  0
  4 29  1  0
  6 30  1  0
  6 31  1  0
  7 32  1  0
  7 33  1  0
 10 34  1  0
 11 35  1  0
 14 36  1  0
 15 37  1  0
 16 38  1  0
 17 39  1  0
 18 40  1  0
 19 41  1  0
 20 42  1  0
 21 43  1  0
 21 44  1  0
 22 45  1  0
 22 46  1  0
M  END
>  <UniqueID>  (17) 
17

>  <SMILES>  (17) 
CN1CCN(CCOc2ccc(-c3ccccc3)cc2)CC1

>  <Energy>  (17) 
64.04258368901989

>  <Genealogy>  (17) 
CN1CCN(CCOc2ccc(-c3ccccc3)cc2)CC1 (3D coordinates assigned)
CN1CCN(CCOc2ccc(-c3ccccc3)cc2)CC1 (nonaromatic ring conformer: 64.04258368901989 kcal/mol)

>  <smiles>  (17) 
CN1CCN(CCOc2ccc(-c3ccccc3)cc2)CC1

>  <score_type>  (17) 
oracle

>  <origin>  (17) 
adg

>  <m_score__min__energy>  (17) 
-8.3100000000000005

>  <m_primary>  (17) 
energy

$$$$
17:0
     RDKit          3D

 44 46  0  0  0  0  0  0  0  0999 V2000
   -6.0460   24.9200  -29.6220 C   0  0  0  0  0  0  0  0  0  0  0  0
   -5.2310   25.0610  -30.9040 C   0  0  0  0  0  0  0  0  0  0  0  0
   -4.0150   24.2160  -30.8360 N   0  0  0  0  0  0  0  0  0  0  0  0
   -3.2810   24.4690  -29.5820 C   0  0  0  0  0  0  0  0  0  0  0  0
   -4.3480   22.7800  -30.9490 C   0  0  0  0  0  0  0  0  0  0  0  0
   -3.6400   22.1660  -32.1680 C   0  0  0  0  0  0  0  0  0  0  0  0
   -4.5440   21.9720  -33.3170 N   0  0  0  0  0  0  0  0  0  0  0  0
   -5.6290   21.0540  -33.0120 C   0  0  0  0  0  0  0  0  0  0  0  0
   -6.9090   21.4750  -32.5450 C   0  0  0  0  0  0  0  0  0  0  0  0
   -7.2190   22.8410  -32.3440 C   0  0  0  0  0  0  0  0  0  0  0  0
   -8.4920   23.2370  -31.9420 C   0  0  0  0  0  0  0  0  0  0  0  0
   -9.4870   22.2940  -31.7390 C   0  0  0  0  0  0  0  0  0  0  0  0
   -9.2160   20.9390  -31.9120 C   0  0  0  0  0  0  0  0  0  0  0  0
   -7.9250   20.4900  -32.2850 C   0  0  0  0  0  0  0  0  0  0  0  0
   -7.6460   19.1360  -32.4150 N   0  0  0  0  0  0  0  0  0  0  0  0
   -8.6280   18.1150  -31.9940 C   0  0  0  0  0  0  0  0  0  0  0  0
   -6.4390   18.7530  -32.9460 C   0  0  0  0  0  0  0  0  0  0  0  0
   -6.0510   17.4350  -33.2770 C   0  0  0  0  0  0  0  0  0  0  0  0
   -4.7570   17.3480  -33.7750 C   0  0  0  0  0  0  0  0  0  0  0  0
   -4.0940   18.8920  -33.8260 S   0  0  0  0  0  0  0  0  0  0  0  0
   -5.4510   19.6840  -33.2200 C   0  0  0  0  0  0  0  0  0  0  0  0
   -5.3832   25.0347  -28.7517 H   0  0  0  0  0  0  0  0  0  0  0  0
   -6.8243   25.6968  -29.5950 H   0  0  0  0  0  0  0  0  0  0  0  0
   -6.5181   23.9268  -29.5950 H   0  0  0  0  0  0  0  0  0  0  0  0
   -5.8447   24.7456  -31.7607 H   0  0  0  0  0  0  0  0  0  0  0  0
   -4.9300   26.1123  -31.0229 H   0  0  0  0  0  0  0  0  0  0  0  0
   -3.9322   24.2446  -28.7243 H   0  0  0  0  0  0  0  0  0  0  0  0
   -2.3890   23.8265  -29.5432 H   0  0  0  0  0  0  0  0  0  0  0  0
   -2.9744   25.5247  -29.5432 H   0  0  0  0  0  0  0  0  0  0  0  0
   -4.0208   22.2582  -30.0376 H   0  0  0  0  0  0  0  0  0  0  0  0
   -5.4356   22.6721  -31.0731 H   0  0  0  0  0  0  0  0  0  0  0  0
   -2.8223   22.8354  -32.4734 H   0  0  0  0  0  0  0  0  0  0  0  0
   -3.2668   21.1752  -31.8696 H   0  0  0  0  0  0  0  0  0  0  0  0
   -4.9580   22.9020  -33.5580 H   0  0  0  0  0  0  0  0  0  0  0  0
   -4.0090   21.7030  -34.1700 H   0  0  0  0  0  0  0  0  0  0  0  0
   -6.4420   23.6021  -32.5079 H   0  0  0  0  0  0  0  0  0  0  0  0
   -8.7090   24.3039  -31.7847 H   0  0  0  0  0  0  0  0  0  0  0  0
  -10.4951   22.6171  -31.4400 H   0  0  0  0  0  0  0  0  0  0  0  0
  -10.0191   20.2037  -31.7562 H   0  0  0  0  0  0  0  0  0  0  0  0
   -8.6668   18.0746  -30.8954 H   0  0  0  0  0  0  0  0  0  0  0  0
   -9.6214   18.3778  -32.3866 H   0  0  0  0  0  0  0  0  0  0  0  0
   -8.3267   17.1326  -32.3866 H   0  0  0  0  0  0  0  0  0  0  0  0
   -6.7096   16.5628  -33.1524 H   0  0  0  0  0  0  0  0  0  0  0  0
   -4.2502   16.4221  -34.0847 H   0  0  0  0  0  0  0  0  0  0  0  0
  1  2  1  0
  2  3  1  0
  3  4  1  0
  3  5  1  0
  5  6  1  0
  6  7  1  0
  7  8  1  0
  8  9  2  0
  9 10  1  0
 10 11  2  0
 11 12  1  0
 12 13  2  0
 13 14  1  0
 14 15  2  0
 15 16  1  0
 15 17  1  0
 17 18  1  0
 18 19  2  0
 19 20  1  0
 20 21  1  0
 21  8  1  0
 14  9  1  0
 21 17  2  0
  1 22  1  0
  1 23  1  0
  1 24  1  0
  2 25  1  0
  2 26  1  0
  4 27  1  0
  4 28  1  0
  4 29  1  0
  5 30  1  0
  5 31  1  0
  6 32  1  0
  6 33  1  0
  7 34  1  0
  7 35  1  0
 10 36  1  0
 11 37  1  0
 12 38  1  0
 13 39  1  0
 16 40  1  0
 16 41  1  0
 16 42  1  0
 18 43  1  0
 19 44  1  0
M  CHG  2   7   1  15   1
M  END
>  <UniqueID>  (18) 
18

>  <SMILES>  (18) 
CCN(C)CC[NH2+]c1c2ccccc2[n+](C)c2ccsc12

>  <Energy>  (18) 
92.29280566425015

>  <Genealogy>  (18) 
CCN(C)CC[NH2+]c1c2ccccc2[n+](C)c2ccsc12 (protonated)
CCN(C)CC[NH2+]c1c2ccccc2[n+](C)c2ccsc12 (3D coordinates assigned)
CCN(C)CC[NH2+]c1c2ccccc2[n+](C)c2ccsc12 (optimized conformer: 92.29280566425015 kcal/mol)

>  <smiles>  (18) 
CCN(C)CCNc1c2ccccc2[n+](C)c2ccsc12

>  <score_type>  (18) 
oracle

>  <origin>  (18) 
adg

>  <m_score__min__energy>  (18) 
-7.5099999999999998

>  <m_primary>  (18) 
energy

$$$$
18:0
     RDKit          3D

 44 46  0  0  0  0  0  0  0  0999 V2000
   -1.2260   17.9260  -34.5350 C   0  0  0  0  0  0  0  0  0  0  0  0
   -2.5660   18.3940  -34.0820 C   0  0  0  0  0  0  0  0  0  0  0  0
   -2.9200   19.7180  -33.8550 C   0  0  0  0  0  0  0  0  0  0  0  0
   -4.2400   19.6610  -33.4550 C   0  0  0  0  0  0  0  0  0  0  0  0
   -5.1390   20.6650  -33.0900 C   0  0  0  0  0  0  0  0  0  0  0  0
   -4.7210   22.0510  -33.0800 N   0  0  0  0  0  0  0  0  0  0  0  0
   -3.8110   22.3020  -31.9520 C   0  0  0  0  0  0  0  0  0  0  0  0
   -4.5300   23.0620  -30.8280 C   0  0  0  0  0  0  0  0  0  0  0  0
   -5.3380   24.1710  -31.3810 N   0  0  0  0  0  0  0  0  0  0  0  0
   -4.9920   25.4360  -30.7110 C   0  0  0  0  0  0  0  0  0  0  0  0
   -6.7790   23.9110  -31.2170 C   0  0  0  0  0  0  0  0  0  0  0  0
   -6.4690   20.2520  -32.7780 C   0  0  0  0  0  0  0  0  0  0  0  0
   -7.4780   21.1880  -32.4600 C   0  0  0  0  0  0  0  0  0  0  0  0
   -8.7700   20.7680  -32.1480 C   0  0  0  0  0  0  0  0  0  0  0  0
   -9.0880   19.4160  -32.1470 C   0  0  0  0  0  0  0  0  0  0  0  0
   -8.1210   18.4650  -32.4700 C   0  0  0  0  0  0  0  0  0  0  0  0
   -6.8010   18.8500  -32.7960 C   0  0  0  0  0  0  0  0  0  0  0  0
   -5.8440   17.9090  -33.1380 N   0  0  0  0  0  0  0  0  0  0  0  0
   -6.1420   16.4670  -33.1710 C   0  0  0  0  0  0  0  0  0  0  0  0
   -4.5960   18.3420  -33.4690 C   0  0  0  0  0  0  0  0  0  0  0  0
   -3.5860   17.5920  -33.8430 O   0  0  0  0  0  0  0  0  0  0  0  0
   -0.5985   17.7069  -33.6585 H   0  0  0  0  0  0  0  0  0  0  0  0
   -1.3412   17.0149  -35.1405 H   0  0  0  0  0  0  0  0  0  0  0  0
   -0.7489   18.7107  -35.1405 H   0  0  0  0  0  0  0  0  0  0  0  0
   -2.2894   20.6121  -33.9686 H   0  0  0  0  0  0  0  0  0  0  0  0
   -5.5570   22.6740  -32.9930 H   0  0  0  0  0  0  0  0  0  0  0  0
   -4.2710   22.3080  -33.9870 H   0  0  0  0  0  0  0  0  0  0  0  0
   -3.4475   21.3401  -31.5614 H   0  0  0  0  0  0  0  0  0  0  0  0
   -2.9694   22.9141  -32.3083 H   0  0  0  0  0  0  0  0  0  0  0  0
   -5.1909   22.3680  -30.2880 H   0  0  0  0  0  0  0  0  0  0  0  0
   -3.7760   23.4800  -30.1449 H   0  0  0  0  0  0  0  0  0  0  0  0
   -5.0303   25.2958  -29.6206 H   0  0  0  0  0  0  0  0  0  0  0  0
   -3.9773   25.7416  -31.0060 H   0  0  0  0  0  0  0  0  0  0  0  0
   -5.7099   26.2155  -31.0060 H   0  0  0  0  0  0  0  0  0  0  0  0
   -7.0240   23.8668  -30.1455 H   0  0  0  0  0  0  0  0  0  0  0  0
   -7.3539   24.7199  -31.6915 H   0  0  0  0  0  0  0  0  0  0  0  0
   -7.0349   22.9522  -31.6915 H   0  0  0  0  0  0  0  0  0  0  0  0
   -7.2411   22.2622  -32.4586 H   0  0  0  0  0  0  0  0  0  0  0  0
   -9.5421   21.5116  -31.9012 H   0  0  0  0  0  0  0  0  0  0  0  0
  -10.1079   19.0939  -31.8901 H   0  0  0  0  0  0  0  0  0  0  0  0
   -8.3898   17.3983  -32.4711 H   0  0  0  0  0  0  0  0  0  0  0  0
   -6.2209   16.0853  -32.1424 H   0  0  0  0  0  0  0  0  0  0  0  0
   -7.0934   16.3012  -33.6976 H   0  0  0  0  0  0  0  0  0  0  0  0
   -5.3343   15.9376  -33.6976 H   0  0  0  0  0  0  0  0  0  0  0  0
  1  2  1  0
  2  3  2  0
  3  4  1  0
  4  5  2  0
  5  6  1  0
  6  7  1  0
  7  8  1  0
  8  9  1  0
  9 10  1  0
  9 11  1  0
  5 12  1  0
 12 13  2  0
 13 14  1  0
 14 15  2  0
 15 16  1  0
 16 17  2  0
 17 18  1  0
 18 19  1  0
 18 20  2  0
 20 21  1  0
 21  2  1  0
 20  4  1  0
 17 12  1  0
  1 22  1  0
  1 23  1  0
  1 24  1  0
  3 25  1  0
  6 26  1  0
  6 27  1  0
  7 28  1  0
  7 29  1  0
  8 30  1  0
  8 31  1  0
 10 32  1  0
 10 33  1  0
 10 34  1  0
 11 35  1  0
 11 36  1  0
 11 37  1  0
 13 38  1  0
 14 39  1  0
 15 40  1  0
 16 41  1  0
 19 42  1  0
 19 43  1  0
 19 44  1  0
M  CHG  2   6   1  18   1
M  END
>  <UniqueID>  (19) 
19

>  <SMILES>  (19) 
Cc1cc2c([NH2+]CCN(C)C)c3ccccc3[n+](C)c2o1

>  <Energy>  (19) 
87.3209596965245

>  <Genealogy>  (19) 
Cc1cc2c([NH2+]CCN(C)C)c3ccccc3[n+](C)c2o1 (protonated)
Cc1cc2c([NH2+]CCN(C)C)c3ccccc3[n+](C)c2o1 (3D coordinates assigned)
Cc1cc2c([NH2+]CCN(C)C)c3ccccc3[n+](C)c2o1 (optimized conformer: 87.3209596965245 kcal/mol)

>  <smiles>  (19) 
Cc1cc2c(NCCN(C)C)c3ccccc3[n+](C)c2o1

>  <score_type>  (19) 
oracle

>  <origin>  (19) 
adg

>  <m_score__min__energy>  (19) 
-6.6900000000000004

>  <m_primary>  (19) 
energy

$$$$
19:0
     RDKit          3D

 50 53  0  0  0  0  0  0  0  0999 V2000
   -6.4760   17.5680  -31.2970 C   0  0  0  0  0  0  0  0  0  0  0  0
   -7.1710   17.1680  -32.6010 C   0  0  0  0  0  0  0  0  0  0  0  0
   -6.2060   16.5320  -33.6440 C   0  0  1  0  0  0  0  0  0  0  0  0
   -6.8590   15.2910  -34.2780 C   0  0  0  0  0  0  0  0  0  0  0  0
   -5.7830   17.4500  -34.7500 N   0  0  0  0  0  0  0  0  0  0  0  0
   -4.3810   17.2060  -35.1880 C   0  0  0  0  0  0  0  0  0  0  0  0
   -3.3270   17.7030  -34.1690 C   0  0  0  0  0  0  0  0  0  0  0  0
   -3.7620   18.9790  -33.5240 C   0  0  0  0  0  0  0  0  0  0  0  0
   -2.8750   19.9410  -32.4680 S   0  0  0  0  0  0  0  0  0  0  0  0
   -4.1530   21.0190  -32.2250 C   0  0  0  0  0  0  0  0  0  0  0  0
   -4.0730   22.2260  -31.3840 C   0  0  0  0  0  0  0  0  0  0  0  0
   -2.9370   22.6780  -30.7220 C   0  0  0  0  0  0  0  0  0  0  0  0
   -3.2070   23.8190  -30.0470 N   0  0  0  0  0  0  0  0  0  0  0  0
   -2.2710   24.5460  -29.1900 C   0  0  0  0  0  0  0  0  0  0  0  0
   -2.6200   24.3310  -27.7220 C   0  0  0  0  0  0  0  0  0  0  0  0
   -4.5160   24.0790  -30.2490 C   0  0  0  0  0  0  0  0  0  0  0  0
   -5.2780   25.1210  -29.7090 C   0  0  0  0  0  0  0  0  0  0  0  0
   -6.6480   25.1660  -30.0190 C   0  0  0  0  0  0  0  0  0  0  0  0
   -7.2290   24.1740  -30.8360 C   0  0  0  0  0  0  0  0  0  0  0  0
   -6.4460   23.1320  -31.3600 C   0  0  0  0  0  0  0  0  0  0  0  0
   -5.0790   23.1250  -31.0630 C   0  0  0  0  0  0  0  0  0  0  0  0
   -5.2410   20.6600  -32.9490 N   0  0  0  0  0  0  0  0  0  0  0  0
   -5.0310   19.5130  -33.6480 C   0  0  0  0  0  0  0  0  0  0  0  0
   -6.0290   18.9050  -34.5830 C   0  0  0  0  0  0  0  0  0  0  0  0
   -7.0752   17.2231  -30.4414 H   0  0  0  0  0  0  0  0  0  0  0  0
   -5.4787   17.1057  -31.2563 H   0  0  0  0  0  0  0  0  0  0  0  0
   -6.3747   18.6626  -31.2563 H   0  0  0  0  0  0  0  0  0  0  0  0
   -7.9607   16.4391  -32.3662 H   0  0  0  0  0  0  0  0  0  0  0  0
   -7.5751   18.0874  -33.0497 H   0  0  0  0  0  0  0  0  0  0  0  0
   -5.3008   16.2767  -33.0735 H   0  0  0  0  0  0  0  0  0  0  0  0
   -7.2135   14.6172  -33.4841 H   0  0  0  0  0  0  0  0  0  0  0  0
   -7.7099   15.6026  -34.9016 H   0  0  0  0  0  0  0  0  0  0  0  0
   -6.1203   14.7661  -34.9016 H   0  0  0  0  0  0  0  0  0  0  0  0
   -4.2436   16.1243  -35.3332 H   0  0  0  0  0  0  0  0  0  0  0  0
   -4.2269   17.7715  -36.1188 H   0  0  0  0  0  0  0  0  0  0  0  0
   -3.1891   16.9366  -33.3921 H   0  0  0  0  0  0  0  0  0  0  0  0
   -2.3832   17.8858  -34.7037 H   0  0  0  0  0  0  0  0  0  0  0  0
   -1.9572   22.1785  -30.7440 H   0  0  0  0  0  0  0  0  0  0  0  0
   -1.2500   24.1818  -29.3772 H   0  0  0  0  0  0  0  0  0  0  0  0
   -2.3366   25.6198  -29.4194 H   0  0  0  0  0  0  0  0  0  0  0  0
   -1.8535   24.8032  -27.0899 H   0  0  0  0  0  0  0  0  0  0  0  0
   -3.6003   24.7820  -27.5083 H   0  0  0  0  0  0  0  0  0  0  0  0
   -2.6581   23.2526  -27.5083 H   0  0  0  0  0  0  0  0  0  0  0  0
   -4.8185   25.8821  -29.0613 H   0  0  0  0  0  0  0  0  0  0  0  0
   -7.2715   25.9805  -29.6217 H   0  0  0  0  0  0  0  0  0  0  0  0
   -8.3041   24.2166  -31.0648 H   0  0  0  0  0  0  0  0  0  0  0  0
   -6.8942   22.3455  -31.9849 H   0  0  0  0  0  0  0  0  0  0  0  0
   -6.1230   21.2130  -33.0090 H   0  0  0  0  0  0  0  0  0  0  0  0
   -7.0403   19.0547  -34.1770 H   0  0  0  0  0  0  0  0  0  0  0  0
   -5.9323   19.3921  -35.5645 H   0  0  0  0  0  0  0  0  0  0  0  0
  1  2  1  0
  2  3  1  0
  3  4  1  0
  3  5  1  0
  5  6  1  0
  6  7  1  0
  7  8  1  0
  8  9  1  0
  9 10  1  0
 10 11  1  0
 11 12  2  0
 12 13  1  0
 13 14  1  0
 14 15  1  0
 13 16  1  0
 16 17  2  0
 17 18  1  0
 18 19  2  0
 19 20  1  0
 20 21  2  0
 10 22  2  0
 22 23  1  0
 23 24  1  0
 24  5  1  0
 23  8  2  0
 21 11  1  0
 21 16  1  0
  1 25  1  0
  1 26  1  0
  1 27  1  0
  2 28  1  0
  2 29  1  0
  3 30  1  1
  4 31  1  0
  4 32  1  0
  4 33  1  0
  6 34  1  0
  6 35  1  0
  7 36  1  0
  7 37  1  0
 12 38  1  0
 14 39  1  0
 14 40  1  0
 15 41  1  0
 15 42  1  0
 15 43  1  0
 17 44  1  0
 18 45  1  0
 19 46  1  0
 20 47  1  0
 22 48  1  0
 24 49  1  0
 24 50  1  0
M  CHG  1  22   1
M  END
>  <UniqueID>  (20) 
20

>  <SMILES>  (20) 
CC[C@@H](C)N1CCc2sc(-c3cn(CC)c4ccccc34)[nH+]c2C1

>  <Energy>  (20) 
125.28488894803075

>  <Genealogy>  (20) 
CCC(C)N1CCc2sc(-c3cn(CC)c4ccccc34)[nH+]c2C1 (protonated)
CC[C@@H](C)N1CCc2sc(-c3cn(CC)c4ccccc34)[nH+]c2C1 (chirality)
CC[C@@H](C)N1CCc2sc(-c3cn(CC)c4ccccc34)[nH+]c2C1 (3D coordinates assigned)
CC[C@@H](C)N1CCc2sc(-c3cn(CC)c4ccccc34)[nH+]c2C1 (nonaromatic ring conformer: 125.28488894803075 kcal/mol)

>  <smiles>  (20) 
CCC(C)N1CCc2sc(-c3cn(CC)c4ccccc34)nc2C1

>  <score_type>  (20) 
oracle

>  <origin>  (20) 
adg

>  <m_score__min__energy>  (20) 
-7.4100000000000001

>  <m_primary>  (20) 
energy

$$$$
20:0
     RDKit          3D

 51 53  0  0  0  0  0  0  0  0999 V2000
   -2.5080   21.5350  -32.7130 C   0  0  0  0  0  0  0  0  0  0  0  0
   -2.2130   20.1720  -33.0090 O   0  0  0  0  0  0  0  0  0  0  0  0
   -3.1820   19.1800  -33.2170 C   0  0  0  0  0  0  0  0  0  0  0  0
   -2.9610   18.2390  -34.2290 C   0  0  0  0  0  0  0  0  0  0  0  0
   -3.8970   17.2320  -34.4770 C   0  0  0  0  0  0  0  0  0  0  0  0
   -5.0640   17.1540  -33.7130 C   0  0  0  0  0  0  0  0  0  0  0  0
   -5.3020   18.0870  -32.6920 C   0  0  0  0  0  0  0  0  0  0  0  0
   -6.5640   18.0210  -31.8710 C   0  0  0  0  0  0  0  0  0  0  0  0
   -7.6960   18.5960  -32.6310 N   0  0  0  0  0  0  0  0  0  0  0  0
   -7.2830   19.7340  -33.4740 C   0  0  0  0  0  0  0  0  0  0  0  0
   -6.9790   21.0030  -32.6480 C   0  0  0  0  0  0  0  0  0  0  0  0
   -7.8270   21.1250  -31.4320 N   0  0  0  0  0  0  0  0  0  0  0  0
   -7.9930   22.5340  -30.9870 C   0  0  0  0  0  0  0  0  0  0  0  0
   -6.6980   23.2400  -30.6300 C   0  0  0  0  0  0  0  0  0  0  0  0
   -5.5560   22.5010  -30.2830 C   0  0  0  0  0  0  0  0  0  0  0  0
   -4.3590   23.1500  -29.9680 C   0  0  0  0  0  0  0  0  0  0  0  0
   -4.2790   24.5550  -30.0110 C   0  0  0  0  0  0  0  0  0  0  0  0
   -3.1000   25.2500  -29.7010 O   0  0  0  0  0  0  0  0  0  0  0  0
   -2.1910   24.8730  -28.6720 C   0  0  0  0  0  0  0  0  0  0  0  0
   -5.4110   25.2910  -30.3820 C   0  0  0  0  0  0  0  0  0  0  0  0
   -5.3490   26.6450  -30.4430 F   0  0  0  0  0  0  0  0  0  0  0  0
   -6.6070   24.6410  -30.6970 C   0  0  0  0  0  0  0  0  0  0  0  0
   -9.1110   20.4150  -31.5790 C   0  0  0  0  0  0  0  0  0  0  0  0
   -8.8760   18.9030  -31.7820 C   0  0  0  0  0  0  0  0  0  0  0  0
   -4.3590   19.0990  -32.4470 C   0  0  0  0  0  0  0  0  0  0  0  0
   -2.5383   21.6751  -31.6224 H   0  0  0  0  0  0  0  0  0  0  0  0
   -1.7288   22.1808  -33.1441 H   0  0  0  0  0  0  0  0  0  0  0  0
   -3.4845   21.8008  -33.1441 H   0  0  0  0  0  0  0  0  0  0  0  0
   -2.0436   18.2926  -34.8336 H   0  0  0  0  0  0  0  0  0  0  0  0
   -3.7146   16.4984  -35.2761 H   0  0  0  0  0  0  0  0  0  0  0  0
   -5.7981   16.3594  -33.9122 H   0  0  0  0  0  0  0  0  0  0  0  0
   -6.7851   16.9713  -31.6275 H   0  0  0  0  0  0  0  0  0  0  0  0
   -6.4218   18.5981  -30.9454 H   0  0  0  0  0  0  0  0  0  0  0  0
   -6.3776   19.4502  -34.0306 H   0  0  0  0  0  0  0  0  0  0  0  0
   -8.1177   19.9682  -34.1511 H   0  0  0  0  0  0  0  0  0  0  0  0
   -5.9241   20.9743  -32.3376 H   0  0  0  0  0  0  0  0  0  0  0  0
   -7.1967   21.8708  -33.2880 H   0  0  0  0  0  0  0  0  0  0  0  0
   -7.3120   20.6560  -30.6480 H   0  0  0  0  0  0  0  0  0  0  0  0
   -8.4774   23.0956  -31.7993 H   0  0  0  0  0  0  0  0  0  0  0  0
   -8.5946   22.5017  -30.0667 H   0  0  0  0  0  0  0  0  0  0  0  0
   -5.6037   21.4023  -30.2588 H   0  0  0  0  0  0  0  0  0  0  0  0
   -3.4748   22.5600  -29.6850 H   0  0  0  0  0  0  0  0  0  0  0  0
   -2.6492   25.0631  -27.6902 H   0  0  0  0  0  0  0  0  0  0  0  0
   -1.9548   23.8027  -28.7654 H   0  0  0  0  0  0  0  0  0  0  0  0
   -1.2667   25.4620  -28.7654 H   0  0  0  0  0  0  0  0  0  0  0  0
   -7.4848   25.2307  -31.0000 H   0  0  0  0  0  0  0  0  0  0  0  0
   -9.7147   20.5684  -30.6724 H   0  0  0  0  0  0  0  0  0  0  0  0
   -9.6375   20.8132  -32.4589 H   0  0  0  0  0  0  0  0  0  0  0  0
   -8.7262   18.4384  -30.7963 H   0  0  0  0  0  0  0  0  0  0  0  0
   -9.7605   18.5046  -32.3006 H   0  0  0  0  0  0  0  0  0  0  0  0
   -4.5408   19.8333  -31.6484 H   0  0  0  0  0  0  0  0  0  0  0  0
  1  2  1  0
  2  3  1  0
  3  4  2  0
  4  5  1  0
  5  6  2  0
  6  7  1  0
  7  8  1  0
  8  9  1  0
  9 10  1  0
 10 11  1  0
 11 12  1  0
 12 13  1  0
 13 14  1  0
 14 15  2  0
 15 16  1  0
 16 17  2  0
 17 18  1  0
 18 19  1  0
 17 20  1  0
 20 21  1  0
 20 22  2  0
 12 23  1  0
 23 24  1  0
  7 25  2  0
 25  3  1  0
 24  9  1  0
 22 14  1  0
  1 26  1  0
  1 27  1  0
  1 28  1  0
  4 29  1  0
  5 30  1  0
  6 31  1  0
  8 32  1  0
  8 33  1  0
 10 34  1  0
 10 35  1  0
 11 36  1  0
 11 37  1  0
 12 38  1  0
 13 39  1  0
 13 40  1  0
 15 41  1  0
 16 42  1  0
 19 43  1  0
 19 44  1  0
 19 45  1  0
 22 46  1  0
 23 47  1  0
 23 48  1  0
 24 49  1  0
 24 50  1  0
 25 51  1  0
M  CHG  1  12   1
M  END
>  <UniqueID>  (21) 
21

>  <SMILES>  (21) 
COc1cccc(CN2CC[NH+](Cc3ccc(OC)c(F)c3)CC2)c1

>  <Energy>  (21) 
66.89341532078079

>  <Genealogy>  (21) 
COc1cccc(CN2CC[NH+](Cc3ccc(OC)c(F)c3)CC2)c1 (protonated)
COc1cccc(CN2CC[NH+](Cc3ccc(OC)c(F)c3)CC2)c1 (3D coordinates assigned)
COc1cccc(CN2CC[NH+](Cc3ccc(OC)c(F)c3)CC2)c1 (nonaromatic ring conformer: 66.89341532078079 kcal/mol)

>  <smiles>  (21) 
COc1cccc(CN2CCN(Cc3ccc(OC)c(F)c3)CC2)c1

>  <score_type>  (21) 
oracle

>  <origin>  (21) 
adg

>  <m_score__min__energy>  (21) 
-7.5

>  <m_primary>  (21) 
energy

$$$$
21:0
     RDKit          3D

 46 46  0  0  0  0  0  0  0  0999 V2000
   -5.8840   16.8730  -32.3600 C   0  0  0  0  0  0  0  0  0  0  0  0
   -6.4690   17.7610  -31.2650 C   0  0  0  0  0  0  0  0  0  0  0  0
   -7.1240   18.9470  -31.8630 N   0  0  0  0  0  0  0  0  0  0  0  0
   -8.5850   18.9320  -31.6170 C   0  0  0  0  0  0  0  0  0  0  0  0
   -9.2570   20.0820  -32.3620 C   0  0  0  0  0  0  0  0  0  0  0  0
   -6.8280   19.0520  -33.3110 C   0  0  0  0  0  0  0  0  0  0  0  0
   -5.6600   20.0210  -33.5400 C   0  0  0  0  0  0  0  0  0  0  0  0
   -5.5070   20.9380  -32.3980 N   0  0  0  0  0  0  0  0  0  0  0  0
   -6.5130   22.0140  -32.4160 C   0  0  0  0  0  0  0  0  0  0  0  0
   -6.1600   23.1380  -31.4620 C   0  0  0  0  0  0  0  0  0  0  0  0
   -7.1930   23.8540  -30.8390 C   0  0  0  0  0  0  0  0  0  0  0  0
   -6.9000   24.9090  -29.9790 C   0  0  0  0  0  0  0  0  0  0  0  0
   -5.5760   25.2630  -29.7310 C   0  0  0  0  0  0  0  0  0  0  0  0
   -4.5170   24.5650  -30.3430 C   0  0  0  0  0  0  0  0  0  0  0  0
   -3.1830   24.9230  -30.0920 O   0  0  0  0  0  0  0  0  0  0  0  0
   -2.4300   24.5230  -28.9510 C   0  0  0  0  0  0  0  0  0  0  0  0
   -4.8120   23.4880  -31.2220 C   0  0  0  0  0  0  0  0  0  0  0  0
   -3.8220   22.7330  -31.8840 O   0  0  0  0  0  0  0  0  0  0  0  0
   -2.6580   22.1580  -31.3000 C   0  0  0  0  0  0  0  0  0  0  0  0
   -5.3342   16.0384  -31.9005 H   0  0  0  0  0  0  0  0  0  0  0  0
   -6.6981   16.4762  -32.9843 H   0  0  0  0  0  0  0  0  0  0  0  0
   -5.1981   17.4644  -32.9843 H   0  0  0  0  0  0  0  0  0  0  0  0
   -7.2110   17.1875  -30.6900 H   0  0  0  0  0  0  0  0  0  0  0  0
   -5.6571   18.0956  -30.6026 H   0  0  0  0  0  0  0  0  0  0  0  0
   -9.0030   17.9774  -31.9693 H   0  0  0  0  0  0  0  0  0  0  0  0
   -8.7685   19.0473  -30.5386 H   0  0  0  0  0  0  0  0  0  0  0  0
   -9.6739   20.7954  -31.6359 H   0  0  0  0  0  0  0  0  0  0  0  0
   -8.5153   20.5929  -32.9936 H   0  0  0  0  0  0  0  0  0  0  0  0
  -10.0662   19.6866  -32.9936 H   0  0  0  0  0  0  0  0  0  0  0  0
   -6.5591   18.0591  -33.7006 H   0  0  0  0  0  0  0  0  0  0  0  0
   -7.7184   19.4301  -33.8347 H   0  0  0  0  0  0  0  0  0  0  0  0
   -4.7321   19.4436  -33.6652 H   0  0  0  0  0  0  0  0  0  0  0  0
   -5.8674   20.6148  -34.4424 H   0  0  0  0  0  0  0  0  0  0  0  0
   -5.6300   20.3980  -31.5090 H   0  0  0  0  0  0  0  0  0  0  0  0
   -4.5440   21.3490  -32.4010 H   0  0  0  0  0  0  0  0  0  0  0  0
   -6.5790   22.4213  -33.4357 H   0  0  0  0  0  0  0  0  0  0  0  0
   -7.4741   21.5857  -32.0954 H   0  0  0  0  0  0  0  0  0  0  0  0
   -8.2409   23.5802  -31.0311 H   0  0  0  0  0  0  0  0  0  0  0  0
   -7.7164   25.4644  -29.4941 H   0  0  0  0  0  0  0  0  0  0  0  0
   -5.3549   26.0974  -29.0492 H   0  0  0  0  0  0  0  0  0  0  0  0
   -2.9698   24.8098  -28.0365 H   0  0  0  0  0  0  0  0  0  0  0  0
   -2.2907   23.4320  -28.9677 H   0  0  0  0  0  0  0  0  0  0  0  0
   -1.4480   25.0183  -28.9677 H   0  0  0  0  0  0  0  0  0  0  0  0
   -2.7396   22.1983  -30.2038 H   0  0  0  0  0  0  0  0  0  0  0  0
   -2.5652   21.1104  -31.6225 H   0  0  0  0  0  0  0  0  0  0  0  0
   -1.7697   22.7209  -31.6225 H   0  0  0  0  0  0  0  0  0  0  0  0
  1  2  1  0
  2  3  1  0
  3  4  1  0
  4  5  1  0
  3  6  1  0
  6  7  1  0
  7  8  1  0
  8  9  1  0
  9 10  1  0
 10 11  2  0
 11 12  1  0
 12 13  2  0
 13 14  1  0
 14 15  1  0
 15 16  1  0
 14 17  2  0
 17 18  1  0
 18 19  1  0
 17 10  1  0
  1 20  1  0
  1 21  1  0
  1 22  1  0
  2 23  1  0
  2 24  1  0
  4 25  1  0
  4 26  1  0
  5 27  1  0
  5 28  1  0
  5 29  1  0
  6 30  1  0
  6 31  1  0
  7 32  1  0
  7 33  1  0
  8 34  1  0
  8 35  1  0
  9 36  1  0
  9 37  1  0
 11 38  1  0
 12 39  1  0
 13 40  1  0
 16 41  1  0
 16 42  1  0
 16 43  1  0
 19 44  1  0
 19 45  1  0
 19 46  1  0
M  CHG  1   8   1
M  END
>  <UniqueID>  (22) 
22

>  <SMILES>  (22) 
CCN(CC)CC[NH2+]Cc1cccc(OC)c1OC

>  <Energy>  (22) 
42.15877366700666

>  <Genealogy>  (22) 
CCN(CC)CC[NH2+]Cc1cccc(OC)c1OC (protonated)
CCN(CC)CC[NH2+]Cc1cccc(OC)c1OC (3D coordinates assigned)
CCN(CC)CC[NH2+]Cc1cccc(OC)c1OC (optimized conformer: 42.15877366700666 kcal/mol)

>  <smiles>  (22) 
CCN(CC)CCNCc1cccc(OC)c1OC

>  <score_type>  (22) 
oracle

>  <origin>  (22) 
adg

>  <m_score__min__energy>  (22) 
-5.2999999999999998

>  <m_primary>  (22) 
energy

$$$$
22:0
     RDKit          3D

 46 47  0  0  0  0  0  0  0  0999 V2000
   -5.2730   25.4240  -30.6230 C   0  0  0  0  0  0  0  0  0  0  0  0
   -3.8630   25.2870  -30.4690 O   0  0  0  0  0  0  0  0  0  0  0  0
   -3.2430   24.4020  -29.5750 C   0  0  0  0  0  0  0  0  0  0  0  0
   -3.4780   23.0150  -29.5990 C   0  0  0  0  0  0  0  0  0  0  0  0
   -2.8130   22.1750  -28.7020 C   0  0  0  0  0  0  0  0  0  0  0  0
   -1.9210   22.7060  -27.7690 C   0  0  0  0  0  0  0  0  0  0  0  0
   -1.6960   24.0940  -27.7100 C   0  0  0  0  0  0  0  0  0  0  0  0
   -0.7160   24.6930  -26.7180 C   0  0  2  0  0  0  0  0  0  0  0  0
    0.5510   23.8430  -26.6100 C   0  0  0  0  0  0  0  0  0  0  0  0
    0.3980   23.0600  -25.3250 C   0  0  0  0  0  0  0  0  0  0  0  0
   -0.5320   23.8990  -24.4670 C   0  0  0  0  0  0  0  0  0  0  0  0
   -1.3230   24.7450  -25.3740 N   0  0  0  0  0  0  0  0  0  0  0  0
   -1.5930   26.1020  -24.8470 C   0  0  0  0  0  0  0  0  0  0  0  0
   -0.7580   26.4810  -23.5980 C   0  0  0  0  0  0  0  0  0  0  0  0
    0.3740   27.4990  -23.8800 C   0  0  0  0  0  0  0  0  0  0  0  0
    1.5520   27.4480  -22.9720 N   0  0  0  0  0  0  0  0  0  0  0  0
    1.7760   28.7030  -22.2310 C   0  0  0  0  0  0  0  0  0  0  0  0
    2.7880   27.0020  -23.6390 C   0  0  0  0  0  0  0  0  0  0  0  0
   -2.3530   24.9290  -28.6300 C   0  0  0  0  0  0  0  0  0  0  0  0
   -5.7474   25.4701  -29.6316 H   0  0  0  0  0  0  0  0  0  0  0  0
   -5.4932   26.3478  -31.1781 H   0  0  0  0  0  0  0  0  0  0  0  0
   -5.6669   24.5599  -31.1781 H   0  0  0  0  0  0  0  0  0  0  0  0
   -4.1868   22.5910  -30.3255 H   0  0  0  0  0  0  0  0  0  0  0  0
   -2.9933   21.0903  -28.7313 H   0  0  0  0  0  0  0  0  0  0  0  0
   -1.3910   22.0360  -27.0761 H   0  0  0  0  0  0  0  0  0  0  0  0
   -0.4641   25.7011  -27.0790 H   0  0  0  0  0  0  0  0  0  0  0  0
    0.6319   23.1611  -27.4694 H   0  0  0  0  0  0  0  0  0  0  0  0
    1.4607   24.4614  -26.6076 H   0  0  0  0  0  0  0  0  0  0  0  0
   -0.0438   22.0724  -25.5235 H   0  0  0  0  0  0  0  0  0  0  0  0
    1.3647   22.8774  -24.8328 H   0  0  0  0  0  0  0  0  0  0  0  0
   -1.1987   23.2455  -23.8852 H   0  0  0  0  0  0  0  0  0  0  0  0
    0.0424   24.5170  -23.7612 H   0  0  0  0  0  0  0  0  0  0  0  0
   -1.3730   26.8299  -25.6418 H   0  0  0  0  0  0  0  0  0  0  0  0
   -2.6478   26.1137  -24.5351 H   0  0  0  0  0  0  0  0  0  0  0  0
   -1.4354   26.9163  -22.8486 H   0  0  0  0  0  0  0  0  0  0  0  0
   -0.2742   25.5574  -23.2474 H   0  0  0  0  0  0  0  0  0  0  0  0
    0.7336   27.3240  -24.9047 H   0  0  0  0  0  0  0  0  0  0  0  0
   -0.0768   28.4892  -23.7179 H   0  0  0  0  0  0  0  0  0  0  0  0
    1.3260   26.7220  -22.2500 H   0  0  0  0  0  0  0  0  0  0  0  0
    1.7401   28.5020  -21.1501 H   0  0  0  0  0  0  0  0  0  0  0  0
    2.7617   29.1138  -22.4951 H   0  0  0  0  0  0  0  0  0  0  0  0
    0.9933   29.4294  -22.4951 H   0  0  0  0  0  0  0  0  0  0  0  0
    3.5371   26.7317  -22.8802 H   0  0  0  0  0  0  0  0  0  0  0  0
    2.5699   26.1259  -24.2674 H   0  0  0  0  0  0  0  0  0  0  0  0
    3.1796   27.8155  -24.2674 H   0  0  0  0  0  0  0  0  0  0  0  0
   -2.1656   26.0127  -28.6078 H   0  0  0  0  0  0  0  0  0  0  0  0
  1  2  1  0
  2  3  1  0
  3  4  2  0
  4  5  1  0
  5  6  2  0
  6  7  1  0
  7  8  1  0
  8  9  1  0
  9 10  1  0
 10 11  1  0
 11 12  1  0
 12 13  1  0
 13 14  1  0
 14 15  1  0
 15 16  1  0
 16 17  1  0
 16 18  1  0
  7 19  2  0
 19  3  1  0
 12  8  1  0
  1 20  1  0
  1 21  1  0
  1 22  1  0
  4 23  1  0
  5 24  1  0
  6 25  1  0
  8 26  1  6
  9 27  1  0
  9 28  1  0
 10 29  1  0
 10 30  1  0
 11 31  1  0
 11 32  1  0
 13 33  1  0
 13 34  1  0
 14 35  1  0
 14 36  1  0
 15 37  1  0
 15 38  1  0
 16 39  1  0
 17 40  1  0
 17 41  1  0
 17 42  1  0
 18 43  1  0
 18 44  1  0
 18 45  1  0
 19 46  1  0
M  CHG  1  16   1
M  END
>  <UniqueID>  (23) 
23

>  <SMILES>  (23) 
COc1cccc([C@@H]2CCCN2CCC[NH+](C)C)c1

>  <Energy>  (23) 
55.44294394105086

>  <Genealogy>  (23) 
COc1cccc(C2CCCN2CCC[NH+](C)C)c1 (protonated)
COc1cccc([C@@H]2CCCN2CCC[NH+](C)C)c1 (chirality)
COc1cccc([C@@H]2CCCN2CCC[NH+](C)C)c1 (3D coordinates assigned)
COc1cccc([C@@H]2CCCN2CCC[NH+](C)C)c1 (nonaromatic ring conformer: 55.44294394105086 kcal/mol)

>  <smiles>  (23) 
COc1cccc(C2CCCN2CCCN(C)C)c1

>  <score_type>  (23) 
oracle

>  <origin>  (23) 
adg

>  <m_score__min__energy>  (23) 
-6.7000000000000002

>  <m_primary>  (23) 
energy

$$$$
23:0
     RDKit          3D

 59 62  0  0  0  0  0  0  0  0999 V2000
    1.2740   24.3630  -36.0790 C   0  0  0  0  0  0  0  0  0  0  0  0
    0.3120   23.1820  -36.0780 C   0  0  0  0  0  0  0  0  0  0  0  0
    0.6470   22.2490  -34.9750 N   0  0  0  0  0  0  0  0  0  0  0  0
    1.9690   21.6200  -35.2030 C   0  0  0  0  0  0  0  0  0  0  0  0
    1.8140   20.4020  -36.1050 C   0  0  0  0  0  0  0  0  0  0  0  0
   -0.4140   21.2270  -34.8150 C   0  0  0  0  0  0  0  0  0  0  0  0
   -0.5610   20.8040  -33.3500 C   0  0  0  0  0  0  0  0  0  0  0  0
   -1.1980   21.8280  -32.6130 O   0  0  0  0  0  0  0  0  0  0  0  0
   -2.3370   21.2940  -31.9680 C   0  0  0  0  0  0  0  0  0  0  0  0
   -3.4800   22.3100  -31.9930 C   0  0  0  0  0  0  0  0  0  0  0  0
   -4.4260   22.0330  -33.0750 N   0  0  0  0  0  0  0  0  0  0  0  0
   -5.5030   21.0870  -32.9690 C   0  0  0  0  0  0  0  0  0  0  0  0
   -6.7880   21.4920  -32.5560 C   0  0  0  0  0  0  0  0  0  0  0  0
   -7.0840   22.8540  -32.3490 C   0  0  0  0  0  0  0  0  0  0  0  0
   -8.3600   23.2530  -31.9590 C   0  0  0  0  0  0  0  0  0  0  0  0
   -9.3660   22.3080  -31.7870 C   0  0  0  0  0  0  0  0  0  0  0  0
   -9.1010   20.9530  -31.9890 C   0  0  0  0  0  0  0  0  0  0  0  0
   -7.8060   20.5080  -32.3500 C   0  0  0  0  0  0  0  0  0  0  0  0
   -7.5180   19.1600  -32.5010 N   0  0  0  0  0  0  0  0  0  0  0  0
   -8.4200   18.1490  -31.9180 C   0  0  0  0  0  0  0  0  0  0  0  0
   -6.3190   18.7930  -33.0740 C   0  0  0  0  0  0  0  0  0  0  0  0
   -5.3040   19.7350  -33.2360 C   0  0  0  0  0  0  0  0  0  0  0  0
   -3.8830   18.9880  -33.7540 S   0  0  0  0  0  0  0  0  0  0  0  0
   -4.5660   17.4640  -33.8790 C   0  0  0  0  0  0  0  0  0  0  0  0
   -3.9460   16.3120  -34.3580 C   0  0  0  0  0  0  0  0  0  0  0  0
   -4.7170   15.1550  -34.5110 C   0  0  0  0  0  0  0  0  0  0  0  0
   -6.0900   15.1800  -34.2190 C   0  0  0  0  0  0  0  0  0  0  0  0
   -6.6990   16.3510  -33.7410 C   0  0  0  0  0  0  0  0  0  0  0  0
   -5.9130   17.4990  -33.5170 C   0  0  0  0  0  0  0  0  0  0  0  0
    1.5060   24.6478  -35.0421 H   0  0  0  0  0  0  0  0  0  0  0  0
    2.2017   24.0798  -36.5978 H   0  0  0  0  0  0  0  0  0  0  0  0
    0.8090   25.2143  -36.5978 H   0  0  0  0  0  0  0  0  0  0  0  0
   -0.7155   23.5506  -35.9426 H   0  0  0  0  0  0  0  0  0  0  0  0
    0.3969   22.6493  -37.0367 H   0  0  0  0  0  0  0  0  0  0  0  0
    2.6409   22.3466  -35.6833 H   0  0  0  0  0  0  0  0  0  0  0  0
    2.3919   21.3048  -34.2377 H   0  0  0  0  0  0  0  0  0  0  0  0
    1.6992   19.4998  -35.4863 H   0  0  0  0  0  0  0  0  0  0  0  0
    0.9245   20.5268  -36.7400 H   0  0  0  0  0  0  0  0  0  0  0  0
    2.7064   20.3000  -36.7400 H   0  0  0  0  0  0  0  0  0  0  0  0
   -1.3696   21.6443  -35.1654 H   0  0  0  0  0  0  0  0  0  0  0  0
   -0.1365   20.3420  -35.4064 H   0  0  0  0  0  0  0  0  0  0  0  0
   -1.1644   19.8860  -33.2947 H   0  0  0  0  0  0  0  0  0  0  0  0
    0.4369   20.6205  -32.9252 H   0  0  0  0  0  0  0  0  0  0  0  0
   -2.6533   20.3777  -32.4879 H   0  0  0  0  0  0  0  0  0  0  0  0
   -2.0836   21.0629  -30.9228 H   0  0  0  0  0  0  0  0  0  0  0  0
   -4.0147   22.2689  -31.0326 H   0  0  0  0  0  0  0  0  0  0  0  0
   -3.0487   23.3078  -32.1613 H   0  0  0  0  0  0  0  0  0  0  0  0
   -4.2340   22.4550  -34.0120 H   0  0  0  0  0  0  0  0  0  0  0  0
   -6.2989   23.6101  -32.4970 H   0  0  0  0  0  0  0  0  0  0  0  0
   -8.5728   24.3183  -31.7865 H   0  0  0  0  0  0  0  0  0  0  0  0
  -10.3750   22.6303  -31.4904 H   0  0  0  0  0  0  0  0  0  0  0  0
   -9.9109   20.2189  -31.8659 H   0  0  0  0  0  0  0  0  0  0  0  0
   -8.3713   18.2036  -30.8204 H   0  0  0  0  0  0  0  0  0  0  0  0
   -9.4509   18.3427  -32.2494 H   0  0  0  0  0  0  0  0  0  0  0  0
   -8.1105   17.1468  -32.2494 H   0  0  0  0  0  0  0  0  0  0  0  0
   -2.8752   16.3123  -34.6100 H   0  0  0  0  0  0  0  0  0  0  0  0
   -4.2468   14.2241  -34.8607 H   0  0  0  0  0  0  0  0  0  0  0  0
   -6.6946   14.2729  -34.3662 H   0  0  0  0  0  0  0  0  0  0  0  0
   -7.7808   16.3723  -33.5429 H   0  0  0  0  0  0  0  0  0  0  0  0
  1  2  1  0
  2  3  1  0
  3  4  1  0
  4  5  1  0
  3  6  1  0
  6  7  1  0
  7  8  1  0
  8  9  1  0
  9 10  1  0
 10 11  1  0
 11 12  1  0
 12 13  2  0
 13 14  1  0
 14 15  2  0
 15 16  1  0
 16 17  2  0
 17 18  1  0
 18 19  2  0
 19 20  1  0
 19 21  1  0
 21 22  2  0
 22 23  1  0
 23 24  1  0
 24 25  2  0
 25 26  1  0
 26 27  2  0
 27 28  1  0
 28 29  2  0
 22 12  1  0
 29 24  1  0
 18 13  1  0
 29 21  1  0
  1 30  1  0
  1 31  1  0
  1 32  1  0
  2 33  1  0
  2 34  1  0
  4 35  1  0
  4 36  1  0
  5 37  1  0
  5 38  1  0
  5 39  1  0
  6 40  1  0
  6 41  1  0
  7 42  1  0
  7 43  1  0
  9 44  1  0
  9 45  1  0
 10 46  1  0
 10 47  1  0
 11 48  1  0
 14 49  1  0
 15 50  1  0
 16 51  1  0
 17 52  1  0
 20 53  1  0
 20 54  1  0
 20 55  1  0
 25 56  1  0
 26 57  1  0
 27 58  1  0
 28 59  1  0
M  CHG  1  19   1
M  END
>  <UniqueID>  (24) 
24

>  <SMILES>  (24) 
CCN(CC)CCOCCNc1c2ccccc2[n+](C)c2c1sc1ccccc12

>  <Energy>  (24) 
113.11540424193787

>  <Genealogy>  (24) 
CCN(CC)CCOCCNc1c2ccccc2[n+](C)c2c1sc1ccccc12 (3D coordinates assigned)
CCN(CC)CCOCCNc1c2ccccc2[n+](C)c2c1sc1ccccc12 (optimized conformer: 113.11540424193787 kcal/mol)

>  <smiles>  (24) 
CCN(CC)CCOCCNc1c2ccccc2[n+](C)c2c1sc1ccccc12

>  <score_type>  (24) 
oracle

>  <origin>  (24) 
adg

>  <m_score__min__energy>  (24) 
-9.3000000000000007

>  <m_primary>  (24) 
energy

$$$$
24:0
     RDKit          3D

 45 47  0  0  0  0  0  0  0  0999 V2000
   -3.8190   24.5550  -27.1410 C   0  0  0  0  0  0  0  0  0  0  0  0
   -2.4280   24.9070  -27.6430 C   0  0  0  0  0  0  0  0  0  0  0  0
   -2.4750   25.1500  -29.0450 O   0  0  0  0  0  0  0  0  0  0  0  0
   -3.2510   24.3820  -29.9170 C   0  0  0  0  0  0  0  0  0  0  0  0
   -3.8950   24.9340  -30.8500 O   0  0  0  0  0  0  0  0  0  0  0  0
   -3.2400   22.9140  -29.7860 C   0  0  0  0  0  0  0  0  0  0  0  0
   -2.1110   22.2420  -29.6190 C   0  0  0  0  0  0  0  0  0  0  0  0
   -2.3350   20.8040  -29.9430 C   0  0  0  0  0  0  0  0  0  0  0  0
   -3.5890   20.7980  -30.7230 N   0  0  2  0  0  0  0  0  0  0  0  0
   -3.2270   21.0800  -32.4370 S   0  0  0  0  0  0  0  0  0  0  0  0
   -3.8360   22.3710  -32.9120 O   0  0  0  0  0  0  0  0  0  0  0  0
   -1.7460   21.1610  -32.6900 O   0  0  0  0  0  0  0  0  0  0  0  0
   -3.8510   19.7410  -33.3980 C   0  0  0  0  0  0  0  0  0  0  0  0
   -5.2120   19.6690  -33.7360 C   0  0  0  0  0  0  0  0  0  0  0  0
   -5.6920   18.5930  -34.4900 C   0  0  0  0  0  0  0  0  0  0  0  0
   -4.8160   17.5900  -34.9160 C   0  0  0  0  0  0  0  0  0  0  0  0
   -3.4590   17.6620  -34.5870 C   0  0  0  0  0  0  0  0  0  0  0  0
   -2.9770   18.7350  -33.8310 C   0  0  0  0  0  0  0  0  0  0  0  0
   -4.3290   21.9110  -30.0780 C   0  0  2  0  0  0  0  0  0  0  0  0
   -5.6440   22.3530  -30.7260 C   0  0  0  0  0  0  0  0  0  0  0  0
   -6.4330   21.4550  -31.4760 C   0  0  0  0  0  0  0  0  0  0  0  0
   -7.6780   21.8400  -31.9830 C   0  0  0  0  0  0  0  0  0  0  0  0
   -8.1940   23.1010  -31.6830 C   0  0  0  0  0  0  0  0  0  0  0  0
   -9.4060   23.4710  -32.1650 F   0  0  0  0  0  0  0  0  0  0  0  0
   -7.4830   23.9590  -30.8450 C   0  0  0  0  0  0  0  0  0  0  0  0
   -6.2370   23.5740  -30.3420 C   0  0  0  0  0  0  0  0  0  0  0  0
   -3.8225   24.5541  -26.0410 H   0  0  0  0  0  0  0  0  0  0  0  0
   -4.5409   25.2988  -27.5094 H   0  0  0  0  0  0  0  0  0  0  0  0
   -4.1002   23.5574  -27.5094 H   0  0  0  0  0  0  0  0  0  0  0  0
   -2.0697   25.8097  -27.1265 H   0  0  0  0  0  0  0  0  0  0  0  0
   -1.7430   24.0707  -27.4393 H   0  0  0  0  0  0  0  0  0  0  0  0
   -1.1554   22.6776  -29.2917 H   0  0  0  0  0  0  0  0  0  0  0  0
   -1.5023   20.4047  -30.5406 H   0  0  0  0  0  0  0  0  0  0  0  0
   -2.3963   20.1745  -29.0430 H   0  0  0  0  0  0  0  0  0  0  0  0
   -4.0870   19.8860  -30.5960 H   0  0  0  0  0  0  0  0  0  0  0  0
   -5.9019   20.4602  -33.4073 H   0  0  0  0  0  0  0  0  0  0  0  0
   -6.7598   18.5359  -34.7481 H   0  0  0  0  0  0  0  0  0  0  0  0
   -5.1942   16.7447  -35.5097 H   0  0  0  0  0  0  0  0  0  0  0  0
   -2.7697   16.8735  -34.9233 H   0  0  0  0  0  0  0  0  0  0  0  0
   -1.9085   18.7895  -33.5754 H   0  0  0  0  0  0  0  0  0  0  0  0
   -4.8367   21.6254  -29.1449 H   0  0  0  0  0  0  0  0  0  0  0  0
   -6.0629   20.4365  -31.6647 H   0  0  0  0  0  0  0  0  0  0  0  0
   -8.2507   21.1485  -32.6185 H   0  0  0  0  0  0  0  0  0  0  0  0
   -7.9032   24.9403  -30.5793 H   0  0  0  0  0  0  0  0  0  0  0  0
   -5.7108   24.2332  -29.6359 H   0  0  0  0  0  0  0  0  0  0  0  0
  1  2  1  0
  2  3  1  0
  3  4  1  0
  4  5  2  0
  4  6  1  0
  6  7  2  0
  7  8  1  0
  8  9  1  0
  9 10  1  0
 10 11  2  0
 10 12  2  0
 10 13  1  0
 13 14  2  0
 14 15  1  0
 15 16  2  0
 16 17  1  0
 17 18  2  0
  9 19  1  0
 19 20  1  0
 20 21  2  0
 21 22  1  0
 22 23  2  0
 23 24  1  0
 23 25  1  0
 25 26  2  0
 19  6  1  0
 26 20  1  0
 18 13  1  0
  1 27  1  0
  1 28  1  0
  1 29  1  0
  2 30  1  0
  2 31  1  0
  7 32  1  0
  8 33  1  0
  8 34  1  0
  9 35  1  6
 14 36  1  0
 15 37  1  0
 16 38  1  0
 17 39  1  0
 18 40  1  0
 19 41  1  1
 21 42  1  0
 22 43  1  0
 25 44  1  0
 26 45  1  0
M  CHG  1   9   1
M  END
>  <UniqueID>  (25) 
25

>  <SMILES>  (25) 
CCOC(=O)C1=CC[N@H+](S(=O)(=O)c2ccccc2)[C@@H]1c1ccc(F)cc1

>  <Energy>  (25) 
77.77645592786331

>  <Genealogy>  (25) 
CCOC(=O)C1=CC[NH+](S(=O)(=O)c2ccccc2)C1c1ccc(F)cc1 (protonated)
CCOC(=O)C1=CC[N@H+](S(=O)(=O)c2ccccc2)[C@@H]1c1ccc(F)cc1 (chirality)
CCOC(=O)C1=CC[N@H+](S(=O)(=O)c2ccccc2)[C@@H]1c1ccc(F)cc1 (3D coordinates assigned)
CCOC(=O)C1=CC[N@H+](S(=O)(=O)c2ccccc2)[C@@H]1c1ccc(F)cc1 (nonaromatic ring conformer: 77.77645592786331 kcal/mol)

>  <smiles>  (25) 
CCOC(=O)C1=CCN(S(=O)(=O)c2ccccc2)C1c1ccc(F)cc1

>  <score_type>  (25) 
oracle

>  <origin>  (25) 
adg

>  <m_score__min__energy>  (25) 
-8.1400000000000006

>  <m_primary>  (25) 
energy

$$$$
25:0
     RDKit          3D

 45 46  0  0  0  0  0  0  0  0999 V2000
   -2.2290   22.2530  -29.3030 C   0  0  0  0  0  0  0  0  0  0  0  0
   -2.0420   23.7670  -29.4190 C   0  0  0  0  0  0  0  0  0  0  0  0
   -3.2230   24.5080  -28.9260 N   0  0  0  0  0  0  0  0  0  0  0  0
   -3.8560   23.7930  -27.8040 C   0  0  0  0  0  0  0  0  0  0  0  0
   -4.2060   24.8850  -29.9720 C   0  0  0  0  0  0  0  0  0  0  0  0
   -5.2750   23.8120  -30.2660 C   0  0  0  0  0  0  0  0  0  0  0  0
   -5.1870   23.3910  -31.6830 N   0  0  0  0  0  0  0  0  0  0  0  0
   -6.4740   23.5710  -32.3990 C   0  0  0  0  0  0  0  0  0  0  0  0
   -7.6550   22.8580  -31.7210 C   0  0  0  0  0  0  0  0  0  0  0  0
   -7.7220   21.3700  -32.0160 C   0  0  0  0  0  0  0  0  0  0  0  0
   -8.9200   20.7130  -31.6820 C   0  0  0  0  0  0  0  0  0  0  0  0
   -9.0750   19.3500  -31.9010 C   0  0  0  0  0  0  0  0  0  0  0  0
   -8.0410   18.6090  -32.4580 C   0  0  0  0  0  0  0  0  0  0  0  0
   -6.8190   19.2220  -32.7860 C   0  0  0  0  0  0  0  0  0  0  0  0
   -5.7730   18.4830  -33.3710 O   0  0  0  0  0  0  0  0  0  0  0  0
   -5.7520   18.0300  -34.7210 C   0  0  0  0  0  0  0  0  0  0  0  0
   -6.6300   20.6050  -32.5320 C   0  0  0  0  0  0  0  0  0  0  0  0
   -5.2920   21.2220  -32.9210 C   0  0  0  0  0  0  0  0  0  0  0  0
   -4.6190   22.0310  -31.8040 C   0  0  0  0  0  0  0  0  0  0  0  0
   -2.2642   21.9682  -28.2411 H   0  0  0  0  0  0  0  0  0  0  0  0
   -3.1700   21.9612  -29.7923 H   0  0  0  0  0  0  0  0  0  0  0  0
   -1.3873   21.7410  -29.7923 H   0  0  0  0  0  0  0  0  0  0  0  0
   -1.1636   24.0632  -28.8268 H   0  0  0  0  0  0  0  0  0  0  0  0
   -1.9047   24.0130  -30.4823 H   0  0  0  0  0  0  0  0  0  0  0  0
   -3.4900   24.2064  -26.8526 H   0  0  0  0  0  0  0  0  0  0  0  0
   -4.9478   23.9147  -27.8609 H   0  0  0  0  0  0  0  0  0  0  0  0
   -3.6028   22.7240  -27.8609 H   0  0  0  0  0  0  0  0  0  0  0  0
   -4.7201   25.8010  -29.6454 H   0  0  0  0  0  0  0  0  0  0  0  0
   -3.6349   25.0190  -30.9025 H   0  0  0  0  0  0  0  0  0  0  0  0
   -5.1069   22.9412  -29.6153 H   0  0  0  0  0  0  0  0  0  0  0  0
   -6.2733   24.2317  -30.0732 H   0  0  0  0  0  0  0  0  0  0  0  0
   -6.6980   24.6468  -32.4483 H   0  0  0  0  0  0  0  0  0  0  0  0
   -6.3552   23.1247  -33.3974 H   0  0  0  0  0  0  0  0  0  0  0  0
   -7.5633   22.9923  -30.6331 H   0  0  0  0  0  0  0  0  0  0  0  0
   -8.5749   23.3068  -32.1239 H   0  0  0  0  0  0  0  0  0  0  0  0
   -9.7474   21.2877  -31.2403 H   0  0  0  0  0  0  0  0  0  0  0  0
  -10.0203   18.8558  -31.6322 H   0  0  0  0  0  0  0  0  0  0  0  0
   -8.1792   17.5337  -32.6441 H   0  0  0  0  0  0  0  0  0  0  0  0
   -5.7011   16.9313  -34.7383 H   0  0  0  0  0  0  0  0  0  0  0  0
   -6.6665   18.3628  -35.2337 H   0  0  0  0  0  0  0  0  0  0  0  0
   -4.8722   18.4460  -35.2337 H   0  0  0  0  0  0  0  0  0  0  0  0
   -4.6112   20.4098  -33.2158 H   0  0  0  0  0  0  0  0  0  0  0  0
   -5.4974   21.9273  -33.7397 H   0  0  0  0  0  0  0  0  0  0  0  0
   -4.7584   21.5021  -30.8496 H   0  0  0  0  0  0  0  0  0  0  0  0
   -3.5522   22.1302  -32.0530 H   0  0  0  0  0  0  0  0  0  0  0  0
  1  2  1  0
  2  3  1  0
  3  4  1  0
  3  5  1  0
  5  6  1  0
  6  7  1  0
  7  8  1  0
  8  9  1  0
  9 10  1  0
 10 11  2  0
 11 12  1  0
 12 13  2  0
 13 14  1  0
 14 15  1  0
 15 16  1  0
 14 17  2  0
 17 18  1  0
 18 19  1  0
 19  7  1  0
 17 10  1  0
  1 20  1  0
  1 21  1  0
  1 22  1  0
  2 23  1  0
  2 24  1  0
  4 25  1  0
  4 26  1  0
  4 27  1  0
  5 28  1  0
  5 29  1  0
  6 30  1  0
  6 31  1  0
  8 32  1  0
  8 33  1  0
  9 34  1  0
  9 35  1  0
 11 36  1  0
 12 37  1  0
 13 38  1  0
 16 39  1  0
 16 40  1  0
 16 41  1  0
 18 42  1  0
 18 43  1  0
 19 44  1  0
 19 45  1  0
M  END
>  <UniqueID>  (26) 
26

>  <SMILES>  (26) 
CCN(C)CCN1CCc2cccc(OC)c2CC1

>  <Energy>  (26) 
60.237061508900396

>  <Genealogy>  (26) 
CCN(C)CCN1CCc2cccc(OC)c2CC1 (3D coordinates assigned)
CCN(C)CCN1CCc2cccc(OC)c2CC1 (nonaromatic ring conformer: 60.237061508900396 kcal/mol)

>  <smiles>  (26) 
CCN(C)CCN1CCc2cccc(OC)c2CC1

>  <score_type>  (26) 
oracle

>  <origin>  (26) 
adg

>  <m_score__min__energy>  (26) 
-5.4199999999999999

>  <m_primary>  (26) 
energy

$$$$
26:0
     RDKit          3D

 39 40  0  0  0  0  0  0  0  0999 V2000
   -5.4380   17.1040  -33.0800 C   0  0  0  0  0  0  0  0  0  0  0  0
   -6.5140   18.1160  -32.8220 C   0  0  0  0  0  0  0  0  0  0  0  0
   -7.5990   17.7990  -31.9910 C   0  0  0  0  0  0  0  0  0  0  0  0
   -8.5840   18.7540  -31.7220 C   0  0  0  0  0  0  0  0  0  0  0  0
   -8.4870   20.0450  -32.2660 C   0  0  0  0  0  0  0  0  0  0  0  0
   -9.5630   21.0710  -31.9980 C   0  0  0  0  0  0  0  0  0  0  0  0
   -9.0560   22.2160  -31.2270 N   0  0  0  0  0  0  0  0  0  0  0  0
   -8.5510   23.2860  -32.0980 C   0  0  0  0  0  0  0  0  0  0  0  0
   -7.0360   23.4330  -31.9290 C   0  0  0  0  0  0  0  0  0  0  0  0
   -6.6590   23.2810  -30.5040 N   0  0  0  0  0  0  0  0  0  0  0  0
   -6.7120   24.5630  -29.7620 C   0  0  0  0  0  0  0  0  0  0  0  0
   -5.3540   25.2950  -29.7510 C   0  0  0  0  0  0  0  0  0  0  0  0
   -4.5840   24.9320  -30.8760 O   0  0  0  0  0  0  0  0  0  0  0  0
   -4.1890   23.5750  -30.7780 C   0  0  0  0  0  0  0  0  0  0  0  0
   -5.3410   22.6370  -30.3450 C   0  0  0  0  0  0  0  0  0  0  0  0
   -7.3960   20.3650  -33.0880 C   0  0  0  0  0  0  0  0  0  0  0  0
   -6.4110   19.4090  -33.3570 C   0  0  0  0  0  0  0  0  0  0  0  0
   -5.0449   16.7343  -32.1215 H   0  0  0  0  0  0  0  0  0  0  0  0
   -5.8552   16.2634  -33.6539 H   0  0  0  0  0  0  0  0  0  0  0  0
   -4.6246   17.5719  -33.6539 H   0  0  0  0  0  0  0  0  0  0  0  0
   -7.6751   16.7945  -31.5491 H   0  0  0  0  0  0  0  0  0  0  0  0
   -9.4391   18.4929  -31.0812 H   0  0  0  0  0  0  0  0  0  0  0  0
   -9.9528   21.4357  -32.9598 H   0  0  0  0  0  0  0  0  0  0  0  0
  -10.3528   20.5865  -31.4051 H   0  0  0  0  0  0  0  0  0  0  0  0
   -8.2810   21.8930  -30.5990 H   0  0  0  0  0  0  0  0  0  0  0  0
   -8.7777   23.0394  -33.1457 H   0  0  0  0  0  0  0  0  0  0  0  0
   -9.0371   24.2335  -31.8222 H   0  0  0  0  0  0  0  0  0  0  0  0
   -6.5281   22.6590  -32.5230 H   0  0  0  0  0  0  0  0  0  0  0  0
   -6.7334   24.4327  -32.2739 H   0  0  0  0  0  0  0  0  0  0  0  0
   -7.4604   25.2147  -30.2366 H   0  0  0  0  0  0  0  0  0  0  0  0
   -6.9777   24.3352  -28.7192 H   0  0  0  0  0  0  0  0  0  0  0  0
   -5.5287   26.3809  -29.7679 H   0  0  0  0  0  0  0  0  0  0  0  0
   -4.8061   25.0113  -28.8403 H   0  0  0  0  0  0  0  0  0  0  0  0
   -3.8202   23.2459  -31.7607 H   0  0  0  0  0  0  0  0  0  0  0  0
   -3.4093   23.5155  -30.0043 H   0  0  0  0  0  0  0  0  0  0  0  0
   -5.3117   21.7277  -30.9634 H   0  0  0  0  0  0  0  0  0  0  0  0
   -5.2041   22.3949  -29.2807 H   0  0  0  0  0  0  0  0  0  0  0  0
   -7.3149   21.3721  -33.5229 H   0  0  0  0  0  0  0  0  0  0  0  0
   -5.5515   19.6721  -33.9910 H   0  0  0  0  0  0  0  0  0  0  0  0
  1  2  1  0
  2  3  2  0
  3  4  1  0
  4  5  2  0
  5  6  1  0
  6  7  1  0
  7  8  1  0
  8  9  1  0
  9 10  1  0
 10 11  1  0
 11 12  1  0
 12 13  1  0
 13 14  1  0
 14 15  1  0
  5 16  1  0
 16 17  2  0
 17  2  1  0
 15 10  1  0
  1 18  1  0
  1 19  1  0
  1 20  1  0
  3 21  1  0
  4 22  1  0
  6 23  1  0
  6 24  1  0
  7 25  1  0
  8 26  1  0
  8 27  1  0
  9 28  1  0
  9 29  1  0
 11 30  1  0
 11 31  1  0
 12 32  1  0
 12 33  1  0
 14 34  1  0
 14 35  1  0
 15 36  1  0
 15 37  1  0
 16 38  1  0
 17 39  1  0
M  END
>  <UniqueID>  (27) 
27

>  <SMILES>  (27) 
Cc1ccc(CNCCN2CCOCC2)cc1

>  <Energy>  (27) 
46.90270074889069

>  <Genealogy>  (27) 
Cc1ccc(CNCCN2CCOCC2)cc1 (3D coordinates assigned)
Cc1ccc(CNCCN2CCOCC2)cc1 (nonaromatic ring conformer: 46.90270074889069 kcal/mol)

>  <smiles>  (27) 
Cc1ccc(CNCCN2CCOCC2)cc1

>  <score_type>  (27) 
oracle

>  <origin>  (27) 
adg

>  <m_score__min__energy>  (27) 
-7.04

>  <m_primary>  (27) 
energy

$$$$
27:0
     RDKit          3D

 44 46  0  0  0  0  0  0  0  0999 V2000
   -3.5700   23.8350  -30.4700 C   0  0  0  0  0  0  0  0  0  0  0  0
   -4.7960   24.2790  -31.1530 N   0  0  0  0  0  0  0  0  0  0  0  0
   -5.3250   23.1990  -32.0170 C   0  0  0  0  0  0  0  0  0  0  0  0
   -6.8200   23.4010  -32.3030 C   0  0  0  0  0  0  0  0  0  0  0  0
   -7.6370   23.3610  -31.0640 N   0  0  0  0  0  0  0  0  0  0  0  0
   -8.2680   22.0350  -30.8770 C   0  0  0  0  0  0  0  0  0  0  0  0
   -8.5940   21.3720  -32.2230 C   0  0  0  0  0  0  0  0  0  0  0  0
   -7.7610   20.1800  -32.4150 N   0  0  0  0  0  0  0  0  0  0  0  0
   -6.4640   20.3520  -32.6910 N   0  0  0  0  0  0  0  0  0  0  0  0
   -5.6030   19.3120  -32.8560 C   0  0  0  0  0  0  0  0  0  0  0  0
   -4.1790   19.5920  -33.1710 C   0  0  0  0  0  0  0  0  0  0  0  0
   -3.2030   18.5780  -33.1140 C   0  0  0  0  0  0  0  0  0  0  0  0
   -1.8730   18.8820  -33.4050 C   0  0  0  0  0  0  0  0  0  0  0  0
   -1.5160   20.1840  -33.7440 C   0  0  0  0  0  0  0  0  0  0  0  0
   -2.5000   21.1730  -33.7830 C   0  0  0  0  0  0  0  0  0  0  0  0
   -3.7940   20.8650  -33.4960 N   0  0  0  0  0  0  0  0  0  0  0  0
   -6.0990   18.0060  -32.7410 C   0  0  0  0  0  0  0  0  0  0  0  0
   -7.4430   17.8120  -32.4420 C   0  0  0  0  0  0  0  0  0  0  0  0
   -8.2750   18.9180  -32.2720 C   0  0  0  0  0  0  0  0  0  0  0  0
   -9.4920   18.7430  -31.9900 O   0  0  0  0  0  0  0  0  0  0  0  0
   -6.8830   23.7810  -29.8540 C   0  0  0  0  0  0  0  0  0  0  0  0
   -5.7900   24.8090  -30.1890 C   0  0  0  0  0  0  0  0  0  0  0  0
   -3.7171   23.8883  -29.3812 H   0  0  0  0  0  0  0  0  0  0  0  0
   -3.3442   22.7980  -30.7592 H   0  0  0  0  0  0  0  0  0  0  0  0
   -2.7325   24.4869  -30.7592 H   0  0  0  0  0  0  0  0  0  0  0  0
   -4.7741   23.1985  -32.9691 H   0  0  0  0  0  0  0  0  0  0  0  0
   -5.1961   22.2395  -31.4947 H   0  0  0  0  0  0  0  0  0  0  0  0
   -6.9592   24.3784  -32.7881 H   0  0  0  0  0  0  0  0  0  0  0  0
   -7.1537   22.5802  -32.9549 H   0  0  0  0  0  0  0  0  0  0  0  0
   -7.5780   21.3866  -30.3170 H   0  0  0  0  0  0  0  0  0  0  0  0
   -9.2088   22.1754  -30.3246 H   0  0  0  0  0  0  0  0  0  0  0  0
   -9.6545   21.0804  -32.2371 H   0  0  0  0  0  0  0  0  0  0  0  0
   -8.3905   22.0867  -33.0340 H   0  0  0  0  0  0  0  0  0  0  0  0
   -3.4882   17.5512  -32.8413 H   0  0  0  0  0  0  0  0  0  0  0  0
   -1.1070   18.0935  -33.3666 H   0  0  0  0  0  0  0  0  0  0  0  0
   -0.4700   20.4307  -33.9785 H   0  0  0  0  0  0  0  0  0  0  0  0
   -2.2284   22.2058  -34.0468 H   0  0  0  0  0  0  0  0  0  0  0  0
   -4.5020   21.6320  -33.5430 H   0  0  0  0  0  0  0  0  0  0  0  0
   -5.4318   17.1435  -32.8858 H   0  0  0  0  0  0  0  0  0  0  0  0
   -7.8468   16.7939  -32.3404 H   0  0  0  0  0  0  0  0  0  0  0  0
   -7.5848   24.2292  -29.1352 H   0  0  0  0  0  0  0  0  0  0  0  0
   -6.3958   22.8909  -29.4293 H   0  0  0  0  0  0  0  0  0  0  0  0
   -6.2645   25.7008  -30.6244 H   0  0  0  0  0  0  0  0  0  0  0  0
   -5.2588   25.0515  -29.2568 H   0  0  0  0  0  0  0  0  0  0  0  0
  1  2  1  0
  2  3  1  0
  3  4  1  0
  4  5  1  0
  5  6  1  0
  6  7  1  0
  7  8  1  0
  8  9  1  0
  9 10  2  0
 10 11  1  0
 11 12  2  0
 12 13  1  0
 13 14  2  0
 14 15  1  0
 15 16  2  0
 10 17  1  0
 17 18  2  0
 18 19  1  0
 19 20  2  0
  5 21  1  0
 21 22  1  0
 22  2  1  0
 19  8  1  0
 16 11  1  0
  1 23  1  0
  1 24  1  0
  1 25  1  0
  3 26  1  0
  3 27  1  0
  4 28  1  0
  4 29  1  0
  6 30  1  0
  6 31  1  0
  7 32  1  0
  7 33  1  0
 12 34  1  0
 13 35  1  0
 14 36  1  0
 15 37  1  0
 16 38  1  0
 17 39  1  0
 18 40  1  0
 21 41  1  0
 21 42  1  0
 22 43  1  0
 22 44  1  0
M  CHG  1  16   1
M  END
>  <UniqueID>  (28) 
28

>  <SMILES>  (28) 
CN1CCN(CCn2nc(-c3cccc[nH+]3)ccc2=O)CC1

>  <Energy>  (28) 
61.386049409055296

>  <Genealogy>  (28) 
CN1CCN(CCn2nc(-c3cccc[nH+]3)ccc2=O)CC1 (protonated)
CN1CCN(CCn2nc(-c3cccc[nH+]3)ccc2=O)CC1 (3D coordinates assigned)
CN1CCN(CCn2nc(-c3cccc[nH+]3)ccc2=O)CC1 (nonaromatic ring conformer: 61.386049409055296 kcal/mol)

>  <smiles>  (28) 
CN1CCN(CCn2nc(-c3ccccn3)ccc2=O)CC1

>  <score_type>  (28) 
oracle

>  <origin>  (28) 
adg

>  <m_score__min__energy>  (28) 
-7.4000000000000004

>  <m_primary>  (28) 
energy

$$$$
28:0
     RDKit          3D

 48 51  0  0  0  0  0  0  0  0999 V2000
   -3.7410   16.6750  -35.1210 C   0  0  0  0  0  0  0  0  0  0  0  0
   -4.0040   16.9790  -33.7550 O   0  0  0  0  0  0  0  0  0  0  0  0
   -5.1550   17.6390  -33.2990 C   0  0  0  0  0  0  0  0  0  0  0  0
   -5.7760   17.1690  -32.1370 C   0  0  0  0  0  0  0  0  0  0  0  0
   -6.9200   17.7970  -31.6370 C   0  0  0  0  0  0  0  0  0  0  0  0
   -7.4570   18.9190  -32.2880 C   0  0  0  0  0  0  0  0  0  0  0  0
   -8.6950   19.6090  -31.7490 C   0  0  0  0  0  0  0  0  0  0  0  0
   -8.4670   21.0090  -31.3260 N   0  0  0  0  0  0  0  0  0  0  0  0
   -7.0860   21.3040  -30.8770 C   0  0  0  0  0  0  0  0  0  0  0  0
   -6.3370   22.2060  -31.8710 C   0  0  0  0  0  0  0  0  0  0  0  0
   -7.0380   23.4970  -32.1010 N   0  0  0  0  0  0  0  0  0  0  0  0
   -6.4550   24.5820  -31.2860 C   0  0  0  0  0  0  0  0  0  0  0  0
   -5.2890   24.0840  -30.4870 C   0  0  0  0  0  0  0  0  0  0  0  0
   -4.0010   24.3590  -30.8220 N   0  0  0  0  0  0  0  0  0  0  0  0
   -3.3140   23.7620  -29.8380 C   0  0  0  0  0  0  0  0  0  0  0  0
   -1.9320   23.7200  -29.6670 C   0  0  0  0  0  0  0  0  0  0  0  0
   -1.4350   23.0330  -28.5430 C   0  0  0  0  0  0  0  0  0  0  0  0
   -2.3210   22.4160  -27.6310 C   0  0  0  0  0  0  0  0  0  0  0  0
   -3.7130   22.4810  -27.8370 C   0  0  0  0  0  0  0  0  0  0  0  0
   -4.1680   23.1680  -28.9610 C   0  0  0  0  0  0  0  0  0  0  0  0
   -5.4370   23.3600  -29.3460 N   0  0  0  0  0  0  0  0  0  0  0  0
   -8.5110   23.4110  -31.9180 C   0  0  0  0  0  0  0  0  0  0  0  0
   -9.0390   22.0120  -32.2500 C   0  0  0  0  0  0  0  0  0  0  0  0
   -6.8500   19.3740  -33.4700 C   0  0  0  0  0  0  0  0  0  0  0  0
   -5.7050   18.7470  -33.9680 C   0  0  0  0  0  0  0  0  0  0  0  0
   -3.0223   15.8443  -35.1800 H   0  0  0  0  0  0  0  0  0  0  0  0
   -4.6780   16.3853  -35.6191 H   0  0  0  0  0  0  0  0  0  0  0  0
   -3.3195   17.5605  -35.6191 H   0  0  0  0  0  0  0  0  0  0  0  0
   -5.3599   16.2967  -31.6117 H   0  0  0  0  0  0  0  0  0  0  0  0
   -7.4028   17.4097  -30.7276 H   0  0  0  0  0  0  0  0  0  0  0  0
   -9.4632   19.6061  -32.5363 H   0  0  0  0  0  0  0  0  0  0  0  0
   -9.0055   19.0519  -30.8528 H   0  0  0  0  0  0  0  0  0  0  0  0
   -7.1304   21.8107  -29.9017 H   0  0  0  0  0  0  0  0  0  0  0  0
   -6.5412   20.3510  -30.8062 H   0  0  0  0  0  0  0  0  0  0  0  0
   -5.3333   22.4147  -31.4722 H   0  0  0  0  0  0  0  0  0  0  0  0
   -6.2849   21.6755  -32.8332 H   0  0  0  0  0  0  0  0  0  0  0  0
   -6.1167   25.3901  -31.9513 H   0  0  0  0  0  0  0  0  0  0  0  0
   -7.2240   24.9519  -30.5919 H   0  0  0  0  0  0  0  0  0  0  0  0
   -1.2538   24.2058  -30.3840 H   0  0  0  0  0  0  0  0  0  0  0  0
   -0.3496   22.9761  -28.3735 H   0  0  0  0  0  0  0  0  0  0  0  0
   -1.9216   21.8824  -26.7560 H   0  0  0  0  0  0  0  0  0  0  0  0
   -4.4155   22.0066  -27.1360 H   0  0  0  0  0  0  0  0  0  0  0  0
   -8.7551   23.6458  -30.8714 H   0  0  0  0  0  0  0  0  0  0  0  0
   -8.9856   24.1296  -32.6024 H   0  0  0  0  0  0  0  0  0  0  0  0
  -10.1350   22.0071  -32.1560 H   0  0  0  0  0  0  0  0  0  0  0  0
   -8.7451   21.7560  -33.2787 H   0  0  0  0  0  0  0  0  0  0  0  0
   -7.2798   20.2315  -34.0084 H   0  0  0  0  0  0  0  0  0  0  0  0
   -5.2316   19.1217  -34.8875 H   0  0  0  0  0  0  0  0  0  0  0  0
  1  2  1  0
  2  3  1  0
  3  4  2  0
  4  5  1  0
  5  6  2  0
  6  7  1  0
  7  8  1  0
  8  9  1  0
  9 10  1  0
 10 11  1  0
 11 12  1  0
 12 13  1  0
 13 14  2  0
 14 15  1  0
 15 16  2  0
 16 17  1  0
 17 18  2  0
 18 19  1  0
 19 20  2  0
 20 21  1  0
 11 22  1  0
 22 23  1  0
  6 24  1  0
 24 25  2  0
 25  3  1  0
 23  8  1  0
 21 13  1  0
 20 15  1  0
  1 26  1  0
  1 27  1  0
  1 28  1  0
  4 29  1  0
  5 30  1  0
  7 31  1  0
  7 32  1  0
  9 33  1  0
  9 34  1  0
 10 35  1  0
 10 36  1  0
 12 37  1  0
 12 38  1  0
 16 39  1  0
 17 40  1  0
 18 41  1  0
 19 42  1  0
 22 43  1  0
 22 44  1  0
 23 45  1  0
 23 46  1  0
 24 47  1  0
 25 48  1  0
M  CHG  1  21  -1
M  END
>  <UniqueID>  (29) 
29

>  <SMILES>  (29) 
COc1ccc(CN2CCN(Cc3nc4ccccc4[n-]3)CC2)cc1

>  <Energy>  (29) 
100.29088516871111

>  <Genealogy>  (29) 
COc1ccc(CN2CCN(Cc3nc4ccccc4[n-]3)CC2)cc1 (protonated)
COc1ccc(CN2CCN(Cc3nc4ccccc4[n-]3)CC2)cc1 (3D coordinates assigned)
COc1ccc(CN2CCN(Cc3nc4ccccc4[n-]3)CC2)cc1 (nonaromatic ring conformer: 100.29088516871111 kcal/mol)

>  <smiles>  (29) 
COc1ccc(CN2CCN(Cc3nc4ccccc4[nH]3)CC2)cc1

>  <score_type>  (29) 
oracle

>  <origin>  (29) 
adg

>  <m_score__min__energy>  (29) 
-9.3300000000000001

>  <m_primary>  (29) 
energy

$$$$
29:0
     RDKit          3D

 81 83  0  0  0  0  0  0  0  0999 V2000
   -9.6280   21.9140  -30.9470 C   0  0  0  0  0  0  0  0  0  0  0  0
   -8.1810   21.9520  -30.4610 C   0  0  0  0  0  0  0  0  0  0  0  0
   -7.2540   21.6900  -31.5850 N   0  0  0  0  0  0  0  0  0  0  0  0
   -7.7710   20.6260  -32.4760 C   0  0  0  0  0  0  0  0  0  0  0  0
   -7.9680   19.3320  -31.6910 C   0  0  0  0  0  0  0  0  0  0  0  0
   -6.9600   22.9300  -32.3410 C   0  0  0  0  0  0  0  0  0  0  0  0
   -6.5670   24.0670  -31.3860 C   0  0  0  0  0  0  0  0  0  0  0  0
   -5.2250   24.4670  -31.5910 O   0  0  0  0  0  0  0  0  0  0  0  0
   -4.6860   25.0930  -30.4410 C   0  0  0  0  0  0  0  0  0  0  0  0
   -5.0750   24.3380  -29.1620 C   0  0  0  0  0  0  0  0  0  0  0  0
   -3.9190   24.1430  -28.1670 C   0  0  0  0  0  0  0  0  0  0  0  0
   -2.5370   24.3050  -28.8230 C   0  0  0  0  0  0  0  0  0  0  0  0
   -1.6640   23.0380  -28.7210 C   0  0  0  0  0  0  0  0  0  0  0  0
   -1.2950   22.3830  -30.0660 C   0  0  0  0  0  0  0  0  0  0  0  0
   -1.8970   20.9770  -30.2360 C   0  0  0  0  0  0  0  0  0  0  0  0
   -3.4290   20.9730  -30.0840 C   0  0  0  0  0  0  0  0  0  0  0  0
   -4.1990   20.9750  -31.4210 C   0  0  0  0  0  0  0  0  0  0  0  0
   -3.7150   22.0680  -32.3910 C   0  0  0  0  0  0  0  0  0  0  0  0
   -3.6750   21.5670  -33.7760 N   0  0  0  0  0  0  0  0  0  0  0  0
   -3.0950   20.2330  -33.8220 C   0  0  0  0  0  0  0  0  0  0  0  0
   -3.9250   19.0880  -33.9620 C   0  0  0  0  0  0  0  0  0  0  0  0
   -5.3370   19.1810  -33.9020 C   0  0  0  0  0  0  0  0  0  0  0  0
   -6.1380   18.0480  -34.0210 C   0  0  0  0  0  0  0  0  0  0  0  0
   -5.5590   16.7990  -34.1850 C   0  0  0  0  0  0  0  0  0  0  0  0
   -4.1740   16.6740  -34.2410 C   0  0  0  0  0  0  0  0  0  0  0  0
   -3.3280   17.8100  -34.1540 C   0  0  0  0  0  0  0  0  0  0  0  0
   -1.9570   17.6870  -34.2300 N   0  0  0  0  0  0  0  0  0  0  0  0
   -1.3550   16.4390  -34.7500 C   0  0  0  0  0  0  0  0  0  0  0  0
   -1.1480   18.7350  -33.8430 C   0  0  0  0  0  0  0  0  0  0  0  0
    0.2350   18.5400  -33.5940 C   0  0  0  0  0  0  0  0  0  0  0  0
    1.0640   19.6070  -33.2620 C   0  0  0  0  0  0  0  0  0  0  0  0
    0.5400   20.8860  -33.1470 C   0  0  0  0  0  0  0  0  0  0  0  0
   -0.8250   21.1050  -33.3290 C   0  0  0  0  0  0  0  0  0  0  0  0
   -1.6960   20.0380  -33.6680 C   0  0  0  0  0  0  0  0  0  0  0  0
  -10.3055   21.8962  -30.0805 H   0  0  0  0  0  0  0  0  0  0  0  0
   -9.8341   22.8070  -31.5553 H   0  0  0  0  0  0  0  0  0  0  0  0
   -9.7869   21.0114  -31.5553 H   0  0  0  0  0  0  0  0  0  0  0  0
   -7.9665   22.9443  -30.0376 H   0  0  0  0  0  0  0  0  0  0  0  0
   -8.0410   21.1763  -29.6937 H   0  0  0  0  0  0  0  0  0  0  0  0
   -8.7347   20.9439  -32.9006 H   0  0  0  0  0  0  0  0  0  0  0  0
   -7.0452   20.4494  -33.2835 H   0  0  0  0  0  0  0  0  0  0  0  0
   -7.9350   19.5485  -30.6130 H   0  0  0  0  0  0  0  0  0  0  0  0
   -8.9434   18.8926  -31.9471 H   0  0  0  0  0  0  0  0  0  0  0  0
   -7.1676   18.6223  -31.9471 H   0  0  0  0  0  0  0  0  0  0  0  0
   -6.1300   22.7402  -33.0375 H   0  0  0  0  0  0  0  0  0  0  0  0
   -7.8620   23.2290  -32.8951 H   0  0  0  0  0  0  0  0  0  0  0  0
   -7.2288   24.9279  -31.5616 H   0  0  0  0  0  0  0  0  0  0  0  0
   -6.6682   23.7043  -30.3525 H   0  0  0  0  0  0  0  0  0  0  0  0
   -3.5894   25.1144  -30.5252 H   0  0  0  0  0  0  0  0  0  0  0  0
   -5.0911   26.1138  -30.3789 H   0  0  0  0  0  0  0  0  0  0  0  0
   -5.8725   24.9030  -28.6573 H   0  0  0  0  0  0  0  0  0  0  0  0
   -5.3954   23.3330  -29.4741 H   0  0  0  0  0  0  0  0  0  0  0  0
   -4.0167   24.8881  -27.3637 H   0  0  0  0  0  0  0  0  0  0  0  0
   -3.9842   23.1157  -27.7793 H   0  0  0  0  0  0  0  0  0  0  0  0
   -2.6809   24.5457  -29.8866 H   0  0  0  0  0  0  0  0  0  0  0  0
   -2.0119   25.1080  -28.2851 H   0  0  0  0  0  0  0  0  0  0  0  0
   -0.7298   23.3093  -28.2075 H   0  0  0  0  0  0  0  0  0  0  0  0
   -2.2667   22.2962  -28.1765 H   0  0  0  0  0  0  0  0  0  0  0  0
   -1.6645   23.0232  -30.8806 H   0  0  0  0  0  0  0  0  0  0  0  0
   -0.2004   22.2772  -30.0908 H   0  0  0  0  0  0  0  0  0  0  0  0
   -1.6403   20.6014  -31.2375 H   0  0  0  0  0  0  0  0  0  0  0  0
   -1.4796   20.3353  -29.4460 H   0  0  0  0  0  0  0  0  0  0  0  0
   -3.7172   20.0726  -29.5217 H   0  0  0  0  0  0  0  0  0  0  0  0
   -3.6967   21.9049  -29.5645 H   0  0  0  0  0  0  0  0  0  0  0  0
   -4.0674   19.9950  -31.9030 H   0  0  0  0  0  0  0  0  0  0  0  0
   -5.2551   21.1812  -31.1927 H   0  0  0  0  0  0  0  0  0  0  0  0
   -4.4024   22.9252  -32.3386 H   0  0  0  0  0  0  0  0  0  0  0  0
   -2.6984   22.3698  -32.0987 H   0  0  0  0  0  0  0  0  0  0  0  0
   -4.6320   21.5630  -34.1970 H   0  0  0  0  0  0  0  0  0  0  0  0
   -3.1450   22.2290  -34.3840 H   0  0  0  0  0  0  0  0  0  0  0  0
   -5.8087   20.1644  -33.7590 H   0  0  0  0  0  0  0  0  0  0  0  0
   -7.2332   18.1443  -33.9848 H   0  0  0  0  0  0  0  0  0  0  0  0
   -6.1951   15.9057  -34.2710 H   0  0  0  0  0  0  0  0  0  0  0  0
   -3.7266   15.6756  -34.3549 H   0  0  0  0  0  0  0  0  0  0  0  0
   -1.0475   15.8016  -33.9079 H   0  0  0  0  0  0  0  0  0  0  0  0
   -2.0940   15.9037  -35.3643 H   0  0  0  0  0  0  0  0  0  0  0  0
   -0.4761   16.6841  -35.3643 H   0  0  0  0  0  0  0  0  0  0  0  0
    0.6593   17.5276  -33.6646 H   0  0  0  0  0  0  0  0  0  0  0  0
    2.1370   19.4358  -33.0904 H   0  0  0  0  0  0  0  0  0  0  0  0
    1.2038   21.7309  -32.9113 H   0  0  0  0  0  0  0  0  0  0  0  0
   -1.2322   22.1197  -33.2080 H   0  0  0  0  0  0  0  0  0  0  0  0
  1  2  1  0
  2  3  1  0
  3  4  1  0
  4  5  1  0
  3  6  1  0
  6  7  1  0
  7  8  1  0
  8  9  1  0
  9 10  1  0
 10 11  1  0
 11 12  1  0
 12 13  1  0
 13 14  1  0
 14 15  1  0
 15 16  1  0
 16 17  1  0
 17 18  1  0
 18 19  1  0
 19 20  1  0
 20 21  2  0
 21 22  1  0
 22 23  2  0
 23 24  1  0
 24 25  2  0
 25 26  1  0
 26 27  2  0
 27 28  1  0
 27 29  1  0
 29 30  2  0
 30 31  1  0
 31 32  2  0
 32 33  1  0
 33 34  2  0
 34 20  1  0
 26 21  1  0
 34 29  1  0
  1 35  1  0
  1 36  1  0
  1 37  1  0
  2 38  1  0
  2 39  1  0
  4 40  1  0
  4 41  1  0
  5 42  1  0
  5 43  1  0
  5 44  1  0
  6 45  1  0
  6 46  1  0
  7 47  1  0
  7 48  1  0
  9 49  1  0
  9 50  1  0
 10 51  1  0
 10 52  1  0
 11 53  1  0
 11 54  1  0
 12 55  1  0
 12 56  1  0
 13 57  1  0
 13 58  1  0
 14 59  1  0
 14 60  1  0
 15 61  1  0
 15 62  1  0
 16 63  1  0
 16 64  1  0
 17 65  1  0
 17 66  1  0
 18 67  1  0
 18 68  1  0
 19 69  1  0
 19 70  1  0
 22 71  1  0
 23 72  1  0
 24 73  1  0
 25 74  1  0
 28 75  1  0
 28 76  1  0
 28 77  1  0
 30 78  1  0
 31 79  1  0
 32 80  1  0
 33 81  1  0
M  CHG  2  19   1  27   1
M  END
>  <UniqueID>  (30) 
30

>  <SMILES>  (30) 
CCN(CC)CCOCCCCCCCCCC[NH2+]c1c2ccccc2[n+](C)c2ccccc12

>  <Energy>  (30) 
94.97879808483995

>  <Genealogy>  (30) 
CCN(CC)CCOCCCCCCCCCC[NH2+]c1c2ccccc2[n+](C)c2ccccc12 (protonated)
CCN(CC)CCOCCCCCCCCCC[NH2+]c1c2ccccc2[n+](C)c2ccccc12 (3D coordinates assigned)
CCN(CC)CCOCCCCCCCCCC[NH2+]c1c2ccccc2[n+](C)c2ccccc12 (optimized conformer: 94.97879808483995 kcal/mol)

>  <smiles>  (30) 
CCN(CC)CCOCCCCCCCCCCNc1c2ccccc2[n+](C)c2ccccc12

>  <score_type>  (30) 
oracle

>  <origin>  (30) 
adg

>  <m_score__min__energy>  (30) 
-9.1400000000000006

>  <m_primary>  (30) 
energy

$$$$
30:0
     RDKit          3D

 41 44  0  0  0  0  0  0  0  0999 V2000
   -2.5350   25.2900  -29.3490 F   0  0  0  0  0  0  0  0  0  0  0  0
   -2.9260   23.9620  -29.4140 C   0  0  2  0  0  0  0  0  0  0  0  0
   -1.7900   23.1380  -30.0350 C   0  0  0  0  0  0  0  0  0  0  0  0
   -2.2490   21.7890  -30.3850 N   0  0  0  0  0  0  0  0  0  0  0  0
   -3.2530   21.8450  -31.4550 C   0  0  0  0  0  0  0  0  0  0  0  0
   -4.3870   22.7880  -31.1270 C   0  0  0  0  0  0  0  0  0  0  0  0
   -5.6040   22.6710  -31.8180 C   0  0  0  0  0  0  0  0  0  0  0  0
   -6.6640   23.5610  -31.5580 C   0  0  0  0  0  0  0  0  0  0  0  0
   -7.9050   23.4720  -32.2090 O   0  0  0  0  0  0  0  0  0  0  0  0
   -8.9790   22.6150  -31.8240 C   0  0  0  0  0  0  0  0  0  0  0  0
   -8.6070   21.1800  -32.0190 C   0  0  0  0  0  0  0  0  0  0  0  0
   -7.5870   20.7510  -32.7820 N   0  0  0  0  0  0  0  0  0  0  0  0
   -7.6500   19.4110  -32.6400 C   0  0  0  0  0  0  0  0  0  0  0  0
   -6.7400   18.4370  -33.2910 C   0  0  0  0  0  0  0  0  0  0  0  0
   -5.7300   18.8930  -34.1580 C   0  0  0  0  0  0  0  0  0  0  0  0
   -4.8640   17.9870  -34.7780 C   0  0  0  0  0  0  0  0  0  0  0  0
   -4.9950   16.6170  -34.5410 C   0  0  0  0  0  0  0  0  0  0  0  0
   -5.9930   16.1510  -33.6820 C   0  0  0  0  0  0  0  0  0  0  0  0
   -6.8630   17.0520  -33.0590 C   0  0  0  0  0  0  0  0  0  0  0  0
   -8.6630   19.0540  -31.8190 N   0  0  0  0  0  0  0  0  0  0  0  0
   -9.2250   20.1690  -31.4560 O   0  0  0  0  0  0  0  0  0  0  0  0
   -6.4850   24.5760  -30.6130 C   0  0  0  0  0  0  0  0  0  0  0  0
   -5.2720   24.7110  -29.9350 C   0  0  0  0  0  0  0  0  0  0  0  0
   -4.2080   23.8350  -30.1990 C   0  0  0  0  0  0  0  0  0  0  0  0
   -3.1245   23.5742  -28.4039 H   0  0  0  0  0  0  0  0  0  0  0  0
   -1.4342   23.6441  -30.9445 H   0  0  0  0  0  0  0  0  0  0  0  0
   -0.9772   23.0515  -29.2989 H   0  0  0  0  0  0  0  0  0  0  0  0
   -2.6770   21.3410  -29.5390 H   0  0  0  0  0  0  0  0  0  0  0  0
   -2.7655   22.1859  -32.3803 H   0  0  0  0  0  0  0  0  0  0  0  0
   -3.6766   20.8367  -31.5728 H   0  0  0  0  0  0  0  0  0  0  0  0
   -5.7304   21.8772  -32.5689 H   0  0  0  0  0  0  0  0  0  0  0  0
   -9.2146   22.7859  -30.7632 H   0  0  0  0  0  0  0  0  0  0  0  0
   -9.8540   22.8415  -32.4510 H   0  0  0  0  0  0  0  0  0  0  0  0
   -6.9260   21.3330  -33.3410 H   0  0  0  0  0  0  0  0  0  0  0  0
   -5.6208   19.9707  -34.3496 H   0  0  0  0  0  0  0  0  0  0  0  0
   -4.0777   18.3542  -35.4540 H   0  0  0  0  0  0  0  0  0  0  0  0
   -4.3131   15.9058  -35.0302 H   0  0  0  0  0  0  0  0  0  0  0  0
   -6.0952   15.0719  -33.4948 H   0  0  0  0  0  0  0  0  0  0  0  0
   -7.6472   16.6778  -32.3845 H   0  0  0  0  0  0  0  0  0  0  0  0
   -7.3078   25.2748  -30.4017 H   0  0  0  0  0  0  0  0  0  0  0  0
   -5.1495   25.5097  -29.1886 H   0  0  0  0  0  0  0  0  0  0  0  0
  1  2  1  0
  2  3  1  0
  3  4  1  0
  4  5  1  0
  5  6  1  0
  6  7  2  0
  7  8  1  0
  8  9  1  0
  9 10  1  0
 10 11  1  0
 11 12  2  0
 12 13  1  0
 13 14  1  0
 14 15  2  0
 15 16  1  0
 16 17  2  0
 17 18  1  0
 18 19  2  0
 13 20  2  0
 20 21  1  0
  8 22  2  0
 22 23  1  0
 23 24  2  0
 24  2  1  0
 24  6  1  0
 21 11  1  0
 19 14  1  0
  2 25  1  1
  3 26  1  0
  3 27  1  0
  4 28  1  0
  5 29  1  0
  5 30  1  0
  7 31  1  0
 10 32  1  0
 10 33  1  0
 12 34  1  0
 15 35  1  0
 16 36  1  0
 17 37  1  0
 18 38  1  0
 19 39  1  0
 22 40  1  0
 23 41  1  0
M  CHG  1  12   1
M  END
>  <UniqueID>  (31) 
31

>  <SMILES>  (31) 
F[C@@H]1CNCc2cc(OCc3[nH+]c(-c4ccccc4)no3)ccc21

>  <Energy>  (31) 
82.16848429425723

>  <Genealogy>  (31) 
FC1CNCc2cc(OCc3[nH+]c(-c4ccccc4)no3)ccc21 (protonated)
F[C@@H]1CNCc2cc(OCc3[nH+]c(-c4ccccc4)no3)ccc21 (chirality)
F[C@@H]1CNCc2cc(OCc3[nH+]c(-c4ccccc4)no3)ccc21 (3D coordinates assigned)
F[C@@H]1CNCc2cc(OCc3[nH+]c(-c4ccccc4)no3)ccc21 (nonaromatic ring conformer: 82.16848429425723 kcal/mol)

>  <smiles>  (31) 
FC1CNCc2cc(OCc3nc(-c4ccccc4)no3)ccc21

>  <score_type>  (31) 
oracle

>  <origin>  (31) 
adg

>  <m_score__min__energy>  (31) 
-8.5999999999999996

>  <m_primary>  (31) 
energy

$$$$
31:0
     RDKit          3D

 60 63  0  0  0  0  0  0  0  0999 V2000
   -0.9758   25.8055  -28.0374 H   0  0  0  0  0  0  0  0  0  0  0  0
   -1.4860   25.0550  -28.6590 C   0  0  0  0  0  0  0  0  0  0  0  0
   -2.7420   25.2970  -29.1050 N   0  0  0  0  0  0  0  0  0  0  0  0
   -3.4180   24.4030  -29.8670 C   0  0  0  0  0  0  0  0  0  0  0  0
   -4.7160   24.7030  -30.2920 C   0  0  0  0  0  0  0  0  0  0  0  0
   -5.1779   25.6587  -30.0035 H   0  0  0  0  0  0  0  0  0  0  0  0
   -5.4290   23.7990  -31.0790 C   0  0  0  0  0  0  0  0  0  0  0  0
   -6.4493   24.0462  -31.4076 H   0  0  0  0  0  0  0  0  0  0  0  0
   -4.8510   22.5730  -31.4550 C   0  0  0  0  0  0  0  0  0  0  0  0
   -5.5530   21.6230  -32.2790 N   0  0  0  0  0  0  0  0  0  0  0  0
   -5.0340   20.7810  -32.6190 H   0  0  0  0  0  0  0  0  0  0  0  0
   -6.9390   21.7730  -32.7290 C   0  0  0  0  0  0  0  0  0  0  0  0
   -6.9423   22.1950  -33.7448 H   0  0  0  0  0  0  0  0  0  0  0  0
   -7.4612   22.4412  -32.0285 H   0  0  0  0  0  0  0  0  0  0  0  0
   -7.6670   20.4260  -32.7460 C   0  0  0  0  0  0  0  0  0  0  0  0
   -8.3733   20.4035  -33.5890 H   0  0  0  0  0  0  0  0  0  0  0  0
   -8.2137   20.2972  -31.8002 H   0  0  0  0  0  0  0  0  0  0  0  0
   -6.6860   19.3260  -32.8970 N   0  0  0  0  0  0  0  0  0  0  0  0
   -6.1340   19.2480  -34.2700 C   0  0  0  0  0  0  0  0  0  0  0  0
   -5.9621   20.2683  -34.6435 H   0  0  0  0  0  0  0  0  0  0  0  0
   -6.8595   18.7140  -34.9013 H   0  0  0  0  0  0  0  0  0  0  0  0
   -4.8150   18.4790  -34.3060 C   0  0  0  0  0  0  0  0  0  0  0  0
   -4.4772   18.2821  -33.2778 H   0  0  0  0  0  0  0  0  0  0  0  0
   -4.9612   17.5246  -34.8330 H   0  0  0  0  0  0  0  0  0  0  0  0
   -4.0565   19.0764  -34.8330 H   0  0  0  0  0  0  0  0  0  0  0  0
   -7.1810   18.0350  -32.3590 C   0  0  0  0  0  0  0  0  0  0  0  0
   -8.1704   18.2042  -31.9091 H   0  0  0  0  0  0  0  0  0  0  0  0
   -7.2147   17.3302  -33.2029 H   0  0  0  0  0  0  0  0  0  0  0  0
   -6.2670   17.4110  -31.2950 C   0  0  0  0  0  0  0  0  0  0  0  0
   -6.6423   17.6672  -30.2933 H   0  0  0  0  0  0  0  0  0  0  0  0
   -6.2583   16.3176  -31.4147 H   0  0  0  0  0  0  0  0  0  0  0  0
   -5.2455   17.8011  -31.4147 H   0  0  0  0  0  0  0  0  0  0  0  0
   -3.5510   22.2690  -31.0210 C   0  0  0  0  0  0  0  0  0  0  0  0
   -3.0981   21.3070  -31.3028 H   0  0  0  0  0  0  0  0  0  0  0  0
   -2.8150   23.1770  -30.2290 C   0  0  0  0  0  0  0  0  0  0  0  0
   -1.4900   22.9020  -29.8070 C   0  0  0  0  0  0  0  0  0  0  0  0
   -0.9430   21.7750  -30.1900 N   0  0  0  0  0  0  0  0  0  0  0  0
   -0.7340   20.5670  -29.4470 C   0  0  0  0  0  0  0  0  0  0  0  0
   -1.4100   20.3980  -28.2320 C   0  0  0  0  0  0  0  0  0  0  0  0
   -2.1096   21.1729  -27.8855 H   0  0  0  0  0  0  0  0  0  0  0  0
   -1.2050   19.2590  -27.4590 C   0  0  0  0  0  0  0  0  0  0  0  0
   -1.7552   19.1329  -26.5149 H   0  0  0  0  0  0  0  0  0  0  0  0
   -0.3040   18.2740  -27.8750 C   0  0  0  0  0  0  0  0  0  0  0  0
    0.4130   18.4380  -29.0890 C   0  0  0  0  0  0  0  0  0  0  0  0
    1.3160   17.4240  -29.4650 C   0  0  0  0  0  0  0  0  0  0  0  0
    1.8886   17.5195  -30.3993 H   0  0  0  0  0  0  0  0  0  0  0  0
    1.4870   16.3000  -28.6580 C   0  0  0  0  0  0  0  0  0  0  0  0
    2.1923   15.5092  -28.9534 H   0  0  0  0  0  0  0  0  0  0  0  0
    0.7600   16.1840  -27.4760 C   0  0  0  0  0  0  0  0  0  0  0  0
    0.8920   15.2987  -26.8365 H   0  0  0  0  0  0  0  0  0  0  0  0
   -0.1120   17.1600  -27.1090 N   0  0  0  0  0  0  0  0  0  0  0  0
   -0.6400   17.0390  -26.2150 H   0  0  0  0  0  0  0  0  0  0  0  0
    0.2040   19.6010  -29.8800 C   0  0  0  0  0  0  0  0  0  0  0  0
    0.9550   19.7990  -31.1780 C   0  0  0  0  0  0  0  0  0  0  0  0
    1.9976   20.0739  -30.9601 H   0  0  0  0  0  0  0  0  0  0  0  0
    0.9357   18.8651  -31.7589 H   0  0  0  0  0  0  0  0  0  0  0  0
    0.4778   20.6020  -31.7589 H   0  0  0  0  0  0  0  0  0  0  0  0
   -0.8300   23.8610  -28.9800 C   0  0  0  0  0  0  0  0  0  0  0  0
    0.4610   23.6490  -28.3690 C   0  0  0  0  0  0  0  0  0  0  0  0
    1.4930   23.4830  -27.8700 N   0  0  0  0  0  0  0  0  0  0  0  0
  1  2  1  0
  2  3  1  0
  3  4  1  0
  4  5  2  0
  5  6  1  0
  5  7  1  0
  7  8  1  0
  7  9  2  0
  9 10  1  0
 10 11  1  0
 10 12  1  0
 12 13  1  0
 12 14  1  0
 12 15  1  0
 15 16  1  0
 15 17  1  0
 15 18  1  0
 18 19  1  0
 19 20  1  0
 19 21  1  0
 19 22  1  0
 22 23  1  0
 22 24  1  0
 22 25  1  0
 18 26  1  0
 26 27  1  0
 26 28  1  0
 26 29  1  0
 29 30  1  0
 29 31  1  0
 29 32  1  0
  9 33  1  0
 33 34  1  0
 33 35  2  0
 35 36  1  0
 36 37  2  0
 37 38  1  0
 38 39  2  0
 39 40  1  0
 39 41  1  0
 41 42  1  0
 41 43  2  0
 43 44  1  0
 44 45  1  0
 45 46  1  0
 45 47  2  0
 47 48  1  0
 47 49  1  0
 49 50  1  0
 49 51  2  0
 51 52  1  0
 44 53  2  0
 53 54  1  0
 54 55  1  0
 54 56  1  0
 54 57  1  0
 36 58  1  0
 58 59  1  0
 59 60  3  0
 58  2  2  0
 35  4  1  0
 53 38  1  0
 51 43  1  0
M  CHG  2   3  -1  51   1
M  END
>  <UniqueID>  (32) 
32

>  <SMILES>  (32) 
CCN(CC)CCNc1ccc2[n-]cc(C#N)/c(=N\c3ccc4[nH+]cccc4c3C)c2c1

>  <Energy>  (32) 
90.11425661652888

>  <Genealogy>  (32) 
CCN(CC)CCNc1ccc2[n-]cc(C#N)c(=Nc3ccc4[nH+]cccc4c3C)c2c1 (protonated)
CCN(CC)CCNc1ccc2[n-]cc(C#N)/c(=N\c3ccc4[nH+]cccc4c3C)c2c1 (cis-trans isomerization)
CCN(CC)CCNc1ccc2[n-]cc(C#N)/c(=N\c3ccc4[nH+]cccc4c3C)c2c1 (3D coordinates assigned)
CCN(CC)CCNc1ccc2[n-]cc(C#N)/c(=N\c3ccc4[nH+]cccc4c3C)c2c1 (optimized conformer: 90.11425661652888 kcal/mol)

>  <smiles>  (32) 
CCN(CC)CCNc1ccc2[nH]cc(C#N)c(=Nc3ccc4ncccc4c3C)c2c1

>  <score_type>  (32) 
oracle

>  <origin>  (32) 
adg

>  <m_score__min__energy>  (32) 
-10.65

>  <m_primary>  (32) 
energy

$$$$
32:0
     RDKit          3D

 30 30  0  0  0  0  0  0  0  0999 V2000
   -4.3060   17.3300  -34.9650 C   0  0  0  0  0  0  0  0  0  0  0  0
   -5.8250   17.2280  -34.8390 C   0  0  0  0  0  0  0  0  0  0  0  0
   -6.3340   18.1310  -33.7820 N   0  0  0  0  0  0  0  0  0  0  0  0
   -6.8580   17.3520  -32.6350 C   0  0  0  0  0  0  0  0  0  0  0  0
   -6.2790   17.8330  -31.3030 C   0  0  0  0  0  0  0  0  0  0  0  0
   -5.3280   19.1420  -33.3710 C   0  0  0  0  0  0  0  0  0  0  0  0
   -5.8810   20.4620  -33.3150 O   0  0  0  0  0  0  0  0  0  0  0  0
   -7.0690   20.8600  -32.6770 C   0  0  0  0  0  0  0  0  0  0  0  0
   -7.1420   21.9740  -31.8180 C   0  0  0  0  0  0  0  0  0  0  0  0
   -8.3610   22.3060  -31.2240 C   0  0  0  0  0  0  0  0  0  0  0  0
   -9.4950   21.5420  -31.4870 C   0  0  0  0  0  0  0  0  0  0  0  0
   -9.3940   20.4480  -32.3480 C   0  0  0  0  0  0  0  0  0  0  0  0
   -8.1990   20.1360  -32.9190 N   0  0  0  0  0  0  0  0  0  0  0  0
   -3.8561   17.3602  -33.9617 H   0  0  0  0  0  0  0  0  0  0  0  0
   -3.9239   16.4555  -35.5120 H   0  0  0  0  0  0  0  0  0  0  0  0
   -4.0442   18.2477  -35.5120 H   0  0  0  0  0  0  0  0  0  0  0  0
   -6.2845   17.5043  -35.7995 H   0  0  0  0  0  0  0  0  0  0  0  0
   -6.0845   16.1936  -34.5696 H   0  0  0  0  0  0  0  0  0  0  0  0
   -7.9526   17.4568  -32.6049 H   0  0  0  0  0  0  0  0  0  0  0  0
   -6.5625   16.3016  -32.7744 H   0  0  0  0  0  0  0  0  0  0  0  0
   -6.8347   17.3713  -30.4735 H   0  0  0  0  0  0  0  0  0  0  0  0
   -5.2191   17.5459  -31.2389 H   0  0  0  0  0  0  0  0  0  0  0  0
   -6.3669   18.9276  -31.2389 H   0  0  0  0  0  0  0  0  0  0  0  0
   -4.9444   18.8758  -32.3750 H   0  0  0  0  0  0  0  0  0  0  0  0
   -4.5239   19.1437  -34.1217 H   0  0  0  0  0  0  0  0  0  0  0  0
   -6.2450   22.5780  -31.6167 H   0  0  0  0  0  0  0  0  0  0  0  0
   -8.4256   23.1714  -30.5480 H   0  0  0  0  0  0  0  0  0  0  0  0
  -10.4586   21.7974  -31.0220 H   0  0  0  0  0  0  0  0  0  0  0  0
  -10.2824   19.8368  -32.5654 H   0  0  0  0  0  0  0  0  0  0  0  0
   -8.1490   19.3120  -33.5600 H   0  0  0  0  0  0  0  0  0  0  0  0
  1  2  1  0
  2  3  1  0
  3  4  1  0
  4  5  1  0
  3  6  1  0
  6  7  1  0
  7  8  1  0
  8  9  2  0
  9 10  1  0
 10 11  2  0
 11 12  1  0
 12 13  2  0
 13  8  1  0
  1 14  1  0
  1 15  1  0
  1 16  1  0
  2 17  1  0
  2 18  1  0
  4 19  1  0
  4 20  1  0
  5 21  1  0
  5 22  1  0
  5 23  1  0
  6 24  1  0
  6 25  1  0
  9 26  1  0
 10 27  1  0
 11 28  1  0
 12 29  1  0
 13 30  1  0
M  CHG  1  13   1
M  END
>  <UniqueID>  (33) 
33

>  <SMILES>  (33) 
CCN(CC)COc1cccc[nH+]1

>  <Energy>  (33) 
31.353967896956743

>  <Genealogy>  (33) 
CCN(CC)COc1cccc[nH+]1 (protonated)
CCN(CC)COc1cccc[nH+]1 (3D coordinates assigned)
CCN(CC)COc1cccc[nH+]1 (optimized conformer: 31.353967896956743 kcal/mol)

>  <smiles>  (33) 
CCN(CC)COc1ccccn1

>  <score_type>  (33) 
oracle

>  <origin>  (33) 
adg

>  <m_score__min__energy>  (33) 
-3.71

>  <m_primary>  (33) 
energy

$$$$
33:0
     RDKit          3D

 46 48  0  0  0  0  0  0  0  0999 V2000
   -0.5870   25.6230  -24.3400 C   0  0  0  0  0  0  0  0  0  0  0  0
   -0.1200   24.8770  -25.5950 C   0  0  0  0  0  0  0  0  0  0  0  0
   -0.1970   25.7060  -26.8260 N   0  0  0  0  0  0  0  0  0  0  0  0
   -1.1240   26.8490  -26.6090 C   0  0  0  0  0  0  0  0  0  0  0  0
   -0.4560   28.2150  -26.8240 C   0  0  0  0  0  0  0  0  0  0  0  0
   -0.5230   24.9210  -28.0510 C   0  0  0  0  0  0  0  0  0  0  0  0
   -1.9910   24.4510  -28.1580 C   0  0  0  0  0  0  0  0  0  0  0  0
   -2.5930   24.9430  -29.3970 N   0  0  0  0  0  0  0  0  0  0  0  0
   -3.8610   24.5000  -29.9250 C   0  0  0  0  0  0  0  0  0  0  0  0
   -4.9400   25.3830  -30.1030 C   0  0  0  0  0  0  0  0  0  0  0  0
   -6.1490   24.9210  -30.6170 C   0  0  0  0  0  0  0  0  0  0  0  0
   -6.2990   23.5750  -30.9560 C   0  0  0  0  0  0  0  0  0  0  0  0
   -7.7630   23.0250  -31.5780 S   0  0  0  0  0  0  0  0  0  0  0  0
   -7.7310   21.3780  -31.9160 C   0  0  0  0  0  0  0  0  0  0  0  0
   -8.8660   20.7490  -32.4400 C   0  0  0  0  0  0  0  0  0  0  0  0
   -8.8390   19.3840  -32.7200 C   0  0  0  0  0  0  0  0  0  0  0  0
   -7.6820   18.6460  -32.4770 C   0  0  0  0  0  0  0  0  0  0  0  0
   -6.5460   19.2690  -31.9520 C   0  0  0  0  0  0  0  0  0  0  0  0
   -6.5420   20.6540  -31.6580 C   0  0  0  0  0  0  0  0  0  0  0  0
   -5.3640   21.2660  -31.1220 C   0  0  0  0  0  0  0  0  0  0  0  0
   -4.3560   20.5260  -30.9310 O   0  0  0  0  0  0  0  0  0  0  0  0
   -5.2430   22.6530  -30.7870 C   0  0  0  0  0  0  0  0  0  0  0  0
   -4.0240   23.1460  -30.2630 C   0  0  0  0  0  0  0  0  0  0  0  0
   -0.2482   25.0817  -23.4443 H   0  0  0  0  0  0  0  0  0  0  0  0
   -0.1627   26.6379  -24.3375 H   0  0  0  0  0  0  0  0  0  0  0  0
   -1.6853   25.6847  -24.3375 H   0  0  0  0  0  0  0  0  0  0  0  0
    0.9242   24.5636  -25.4482 H   0  0  0  0  0  0  0  0  0  0  0  0
   -0.7912   24.0169  -25.7352 H   0  0  0  0  0  0  0  0  0  0  0  0
    0.7580   26.1120  -26.9710 H   0  0  0  0  0  0  0  0  0  0  0  0
   -1.9651   26.7560  -27.3118 H   0  0  0  0  0  0  0  0  0  0  0  0
   -1.4565   26.8075  -25.5613 H   0  0  0  0  0  0  0  0  0  0  0  0
   -0.2327   28.6716  -25.8485 H   0  0  0  0  0  0  0  0  0  0  0  0
    0.4784   28.0814  -27.3888 H   0  0  0  0  0  0  0  0  0  0  0  0
   -1.1352   28.8705  -27.3888 H   0  0  0  0  0  0  0  0  0  0  0  0
   -0.3017   25.5488  -28.9267 H   0  0  0  0  0  0  0  0  0  0  0  0
    0.0878   24.0075  -28.0006 H   0  0  0  0  0  0  0  0  0  0  0  0
   -2.0213   23.3514  -28.1516 H   0  0  0  0  0  0  0  0  0  0  0  0
   -2.5571   24.8488  -27.3028 H   0  0  0  0  0  0  0  0  0  0  0  0
   -2.0590   25.6680  -29.9300 H   0  0  0  0  0  0  0  0  0  0  0  0
   -4.8289   26.4441  -29.8350 H   0  0  0  0  0  0  0  0  0  0  0  0
   -6.9881   25.6185  -30.7563 H   0  0  0  0  0  0  0  0  0  0  0  0
   -9.7792   21.3318  -32.6308 H   0  0  0  0  0  0  0  0  0  0  0  0
   -9.7306   18.8893  -33.1327 H   0  0  0  0  0  0  0  0  0  0  0  0
   -7.6626   17.5689  -32.6992 H   0  0  0  0  0  0  0  0  0  0  0  0
   -5.6404   18.6735  -31.7642 H   0  0  0  0  0  0  0  0  0  0  0  0
   -3.1834   22.4518  -30.1168 H   0  0  0  0  0  0  0  0  0  0  0  0
  1  2  1  0
  2  3  1  0
  3  4  1  0
  4  5  1  0
  3  6  1  0
  6  7  1  0
  7  8  1  0
  8  9  1  0
  9 10  2  0
 10 11  1  0
 11 12  2  0
 12 13  1  0
 13 14  1  0
 14 15  2  0
 15 16  1  0
 16 17  2  0
 17 18  1  0
 18 19  2  0
 19 20  1  0
 20 21  2  0
 20 22  1  0
 22 23  2  0
 23  9  1  0
 22 12  1  0
 19 14  1  0
  1 24  1  0
  1 25  1  0
  1 26  1  0
  2 27  1  0
  2 28  1  0
  3 29  1  0
  4 30  1  0
  4 31  1  0
  5 32  1  0
  5 33  1  0
  5 34  1  0
  6 35  1  0
  6 36  1  0
  7 37  1  0
  7 38  1  0
  8 39  1  0
 10 40  1  0
 11 41  1  0
 15 42  1  0
 16 43  1  0
 17 44  1  0
 18 45  1  0
 23 46  1  0
M  CHG  1   3   1
M  END
>  <UniqueID>  (34) 
34

>  <SMILES>  (34) 
CC[NH+](CC)CCNc1ccc2sc3ccccc3c(=O)c2c1

>  <Energy>  (34) 
62.07901209436191

>  <Genealogy>  (34) 
CC[NH+](CC)CCNc1ccc2sc3ccccc3c(=O)c2c1 (protonated)
CC[NH+](CC)CCNc1ccc2sc3ccccc3c(=O)c2c1 (3D coordinates assigned)
CC[NH+](CC)CCNc1ccc2sc3ccccc3c(=O)c2c1 (optimized conformer: 62.07901209436191 kcal/mol)

>  <smiles>  (34) 
CCN(CC)CCNc1ccc2sc3ccccc3c(=O)c2c1

>  <score_type>  (34) 
oracle

>  <origin>  (34) 
adg

>  <m_score__min__energy>  (34) 
-7.5899999999999999

>  <m_primary>  (34) 
energy

$$$$
34:0
     RDKit          3D

 47 49  0  0  0  0  0  0  0  0999 V2000
   -4.8310   17.0190  -34.3110 C   0  0  0  0  0  0  0  0  0  0  0  0
   -3.6410   17.4940  -33.4860 C   0  0  0  0  0  0  0  0  0  0  0  0
   -3.0510   18.6930  -34.0960 N   0  0  0  0  0  0  0  0  0  0  0  0
   -2.6420   19.6760  -33.0790 C   0  0  0  0  0  0  0  0  0  0  0  0
   -3.1420   21.0730  -33.4590 C   0  0  0  0  0  0  0  0  0  0  0  0
   -4.4020   21.3880  -32.7760 N   0  0  0  0  0  0  0  0  0  0  0  0
   -4.3760   22.2980  -31.8000 N   0  0  0  0  0  0  0  0  0  0  0  0
   -5.4760   22.6510  -31.0880 C   0  0  0  0  0  0  0  0  0  0  0  0
   -5.3040   23.6630  -29.9780 C   0  0  0  0  0  0  0  0  0  0  0  0
   -4.4070   24.8030  -30.3750 C   0  0  0  0  0  0  0  0  0  0  0  0
   -4.8420   25.6700  -31.1770 O   0  0  0  0  0  0  0  0  0  0  0  0
   -3.0960   24.9250  -29.8040 N   0  0  0  0  0  0  0  0  0  0  0  0
   -2.2710   23.8820  -29.2660 C   0  0  0  0  0  0  0  0  0  0  0  0
   -1.6570   22.9200  -30.0910 C   0  0  0  0  0  0  0  0  0  0  0  0
   -0.8930   21.8940  -29.5270 C   0  0  0  0  0  0  0  0  0  0  0  0
   -0.7490   21.8080  -28.1400 C   0  0  0  0  0  0  0  0  0  0  0  0
   -1.3750   22.7430  -27.3140 C   0  0  0  0  0  0  0  0  0  0  0  0
   -2.1420   23.7740  -27.8710 C   0  0  0  0  0  0  0  0  0  0  0  0
   -2.9380   24.9240  -26.8050 Cl  0  0  0  0  0  0  0  0  0  0  0  0
   -6.7080   22.0200  -31.3710 C   0  0  0  0  0  0  0  0  0  0  0  0
   -7.8910   22.3180  -30.6620 C   0  0  0  0  0  0  0  0  0  0  0  0
   -9.0820   21.6550  -30.9630 C   0  0  0  0  0  0  0  0  0  0  0  0
   -9.1160   20.6930  -31.9710 C   0  0  0  0  0  0  0  0  0  0  0  0
   -7.9570   20.3860  -32.6850 C   0  0  0  0  0  0  0  0  0  0  0  0
   -6.7450   21.0430  -32.3930 C   0  0  0  0  0  0  0  0  0  0  0  0
   -5.5640   20.7380  -33.0920 C   0  0  0  0  0  0  0  0  0  0  0  0
   -5.5760   19.8660  -34.0070 O   0  0  0  0  0  0  0  0  0  0  0  0
   -5.6388   16.6966  -33.6375 H   0  0  0  0  0  0  0  0  0  0  0  0
   -5.1896   17.8429  -34.9455 H   0  0  0  0  0  0  0  0  0  0  0  0
   -4.5236   16.1746  -34.9455 H   0  0  0  0  0  0  0  0  0  0  0  0
   -3.9772   17.7324  -32.4661 H   0  0  0  0  0  0  0  0  0  0  0  0
   -2.8839   16.6966  -33.4534 H   0  0  0  0  0  0  0  0  0  0  0  0
   -3.7850   19.1350  -34.6990 H   0  0  0  0  0  0  0  0  0  0  0  0
   -3.0681   19.3902  -32.1060 H   0  0  0  0  0  0  0  0  0  0  0  0
   -1.5438   19.6930  -33.0189 H   0  0  0  0  0  0  0  0  0  0  0  0
   -2.3830   21.8161  -33.1731 H   0  0  0  0  0  0  0  0  0  0  0  0
   -3.3179   21.0974  -34.5446 H   0  0  0  0  0  0  0  0  0  0  0  0
   -6.2920   24.0670  -29.7122 H   0  0  0  0  0  0  0  0  0  0  0  0
   -4.8358   23.1492  -29.1255 H   0  0  0  0  0  0  0  0  0  0  0  0
   -1.7789   22.9760  -31.1828 H   0  0  0  0  0  0  0  0  0  0  0  0
   -0.4043   21.1529  -30.1766 H   0  0  0  0  0  0  0  0  0  0  0  0
   -0.1423   21.0034  -27.6989 H   0  0  0  0  0  0  0  0  0  0  0  0
   -1.2655   22.6698  -26.2219 H   0  0  0  0  0  0  0  0  0  0  0  0
   -7.8746   23.0778  -29.8668 H   0  0  0  0  0  0  0  0  0  0  0  0
   -9.9979   21.8929  -30.4021 H   0  0  0  0  0  0  0  0  0  0  0  0
  -10.0580   20.1749  -32.2041 H   0  0  0  0  0  0  0  0  0  0  0  0
   -7.9897   19.6268  -33.4803 H   0  0  0  0  0  0  0  0  0  0  0  0
  1  2  1  0
  2  3  1  0
  3  4  1  0
  4  5  1  0
  5  6  1  0
  6  7  1  0
  7  8  2  0
  8  9  1  0
  9 10  1  0
 10 11  2  0
 10 12  1  0
 12 13  1  0
 13 14  2  0
 14 15  1  0
 15 16  2  0
 16 17  1  0
 17 18  2  0
 18 19  1  0
  8 20  1  0
 20 21  2  0
 21 22  1  0
 22 23  2  0
 23 24  1  0
 24 25  2  0
 25 26  1  0
 26 27  2  0
 26  6  1  0
 18 13  1  0
 25 20  1  0
  1 28  1  0
  1 29  1  0
  1 30  1  0
  2 31  1  0
  2 32  1  0
  3 33  1  0
  4 34  1  0
  4 35  1  0
  5 36  1  0
  5 37  1  0
  9 38  1  0
  9 39  1  0
 14 40  1  0
 15 41  1  0
 16 42  1  0
 17 43  1  0
 21 44  1  0
 22 45  1  0
 23 46  1  0
 24 47  1  0
M  CHG  1  12  -1
M  END
>  <UniqueID>  (35) 
35

>  <SMILES>  (35) 
CCNCCn1nc(CC(=O)[N-]c2ccccc2Cl)c2ccccc2c1=O

>  <Energy>  (35) 
50.85610024830412

>  <Genealogy>  (35) 
CCNCCn1nc(CC(=O)[N-]c2ccccc2Cl)c2ccccc2c1=O (protonated)
CCNCCn1nc(CC(=O)[N-]c2ccccc2Cl)c2ccccc2c1=O (3D coordinates assigned)
CCNCCn1nc(CC(=O)[N-]c2ccccc2Cl)c2ccccc2c1=O (optimized conformer: 50.85610024830412 kcal/mol)

>  <smiles>  (35) 
CCNCCn1nc(CC(=O)Nc2ccccc2Cl)c2ccccc2c1=O

>  <score_type>  (35) 
oracle

>  <origin>  (35) 
adg

>  <m_score__min__energy>  (35) 
-10.380000000000001

>  <m_primary>  (35) 
energy

$$$$
