0:0
     RDKit          3D

 54 56  0  0  0  0  0  0  0  0999 V2000
   -5.8680   25.2770  -30.7160 C   0  0  0  0  0  0  0  0  0  0  0  0
   -5.8970   24.4310  -29.4400 C   0  0  0  0  0  0  0  0  0  0  0  0
   -4.9600   24.9160  -28.4070 N   0  0  0  0  0  0  0  0  0  0  0  0
   -4.2430   23.8540  -27.6730 C   0  0  0  0  0  0  0  0  0  0  0  0
   -2.8070   23.6420  -28.1800 C   0  0  0  0  0  0  0  0  0  0  0  0
   -2.6840   24.1120  -29.5100 O   0  0  0  0  0  0  0  0  0  0  0  0
   -2.4410   23.0510  -30.4170 C   0  0  0  0  0  0  0  0  0  0  0  0
   -3.6790   22.7720  -31.2810 C   0  0  0  0  0  0  0  0  0  0  0  0
   -3.5310   21.5130  -32.1480 C   0  0  0  0  0  0  0  0  0  0  0  0
   -4.6130   21.4170  -33.1300 N   0  0  0  0  0  0  0  0  0  0  0  0
   -5.7920   20.6230  -32.8950 C   0  0  0  0  0  0  0  0  0  0  0  0
   -6.9810   21.2310  -32.4510 C   0  0  0  0  0  0  0  0  0  0  0  0
   -7.0720   22.6330  -32.3010 C   0  0  0  0  0  0  0  0  0  0  0  0
   -8.2630   23.2320  -31.8980 C   0  0  0  0  0  0  0  0  0  0  0  0
   -9.3860   22.4510  -31.6490 C   0  0  0  0  0  0  0  0  0  0  0  0
   -9.3150   21.0640  -31.7710 C   0  0  0  0  0  0  0  0  0  0  0  0
   -8.1060   20.4200  -32.1370 C   0  0  0  0  0  0  0  0  0  0  0  0
   -8.0070   19.0440  -32.2010 N   0  0  0  0  0  0  0  0  0  0  0  0
   -9.0540   18.1970  -31.5870 C   0  0  0  0  0  0  0  0  0  0  0  0
   -6.9240   18.4590  -32.8300 C   0  0  0  0  0  0  0  0  0  0  0  0
   -6.9170   17.0830  -33.1760 C   0  0  0  0  0  0  0  0  0  0  0  0
   -5.8160   16.5020  -33.8010 C   0  0  0  0  0  0  0  0  0  0  0  0
   -4.7050   17.2740  -34.1210 C   0  0  0  0  0  0  0  0  0  0  0  0
   -3.2100   16.4760  -35.0040 Br  0  0  0  0  0  0  0  0  0  0  0  0
   -4.6940   18.6350  -33.8220 C   0  0  0  0  0  0  0  0  0  0  0  0
   -5.7890   19.2420  -33.1710 C   0  0  0  0  0  0  0  0  0  0  0  0
   -5.8314   26.3433  -30.4482 H   0  0  0  0  0  0  0  0  0  0  0  0
   -4.9782   25.0170  -31.3082 H   0  0  0  0  0  0  0  0  0  0  0  0
   -6.7735   25.0785  -31.3082 H   0  0  0  0  0  0  0  0  0  0  0  0
   -6.9164   24.4533  -29.0273 H   0  0  0  0  0  0  0  0  0  0  0  0
   -5.5878   23.4113  -29.7132 H   0  0  0  0  0  0  0  0  0  0  0  0
   -5.4920   25.4940  -27.7150 H   0  0  0  0  0  0  0  0  0  0  0  0
   -4.2600   25.5460  -28.8630 H   0  0  0  0  0  0  0  0  0  0  0  0
   -4.2026   24.1287  -26.6086 H   0  0  0  0  0  0  0  0  0  0  0  0
   -4.7917   22.9140  -27.8323 H   0  0  0  0  0  0  0  0  0  0  0  0
   -2.1083   24.1934  -27.5336 H   0  0  0  0  0  0  0  0  0  0  0  0
   -2.5726   22.5675  -28.1557 H   0  0  0  0  0  0  0  0  0  0  0  0
   -1.5994   23.3225  -31.0712 H   0  0  0  0  0  0  0  0  0  0  0  0
   -2.2040   22.1445  -29.8408 H   0  0  0  0  0  0  0  0  0  0  0  0
   -4.5474   22.6419  -30.6184 H   0  0  0  0  0  0  0  0  0  0  0  0
   -3.8072   23.6276  -31.9604 H   0  0  0  0  0  0  0  0  0  0  0  0
   -2.5679   21.5533  -32.6779 H   0  0  0  0  0  0  0  0  0  0  0  0
   -3.5759   20.6309  -31.4923 H   0  0  0  0  0  0  0  0  0  0  0  0
   -4.5890   22.0620  -33.9520 H   0  0  0  0  0  0  0  0  0  0  0  0
   -6.1910   23.2593  -32.5051 H   0  0  0  0  0  0  0  0  0  0  0  0
   -8.3152   24.3240  -31.7766 H   0  0  0  0  0  0  0  0  0  0  0  0
  -10.3324   22.9284  -31.3551 H   0  0  0  0  0  0  0  0  0  0  0  0
  -10.2131   20.4583  -31.5799 H   0  0  0  0  0  0  0  0  0  0  0  0
   -8.9789   18.2578  -30.4913 H   0  0  0  0  0  0  0  0  0  0  0  0
  -10.0455   18.5501  -31.9067 H   0  0  0  0  0  0  0  0  0  0  0  0
   -8.9157   17.1536  -31.9067 H   0  0  0  0  0  0  0  0  0  0  0  0
   -7.7968   16.4639  -32.9466 H   0  0  0  0  0  0  0  0  0  0  0  0
   -5.8257   15.4288  -34.0421 H   0  0  0  0  0  0  0  0  0  0  0  0
   -3.8203   19.2441  -34.0970 H   0  0  0  0  0  0  0  0  0  0  0  0
  1  2  1  0
  2  3  1  0
  3  4  1  0
  4  5  1  0
  5  6  1  0
  6  7  1  0
  7  8  1  0
  8  9  1  0
  9 10  1  0
 10 11  1  0
 11 12  2  0
 12 13  1  0
 13 14  2  0
 14 15  1  0
 15 16  2  0
 16 17  1  0
 17 18  2  0
 18 19  1  0
 18 20  1  0
 20 21  2  0
 21 22  1  0
 22 23  2  0
 23 24  1  0
 23 25  1  0
 25 26  2  0
 26 11  1  0
 17 12  1  0
 26 20  1  0
  1 27  1  0
  1 28  1  0
  1 29  1  0
  2 30  1  0
  2 31  1  0
  3 32  1  0
  3 33  1  0
  4 34  1  0
  4 35  1  0
  5 36  1  0
  5 37  1  0
  7 38  1  0
  7 39  1  0
  8 40  1  0
  8 41  1  0
  9 42  1  0
  9 43  1  0
 10 44  1  0
 13 45  1  0
 14 46  1  0
 15 47  1  0
 16 48  1  0
 19 49  1  0
 19 50  1  0
 19 51  1  0
 21 52  1  0
 22 53  1  0
 25 54  1  0
M  CHG  2   3   1  18   1
M  END
>  <UniqueID>  (1) 
1

>  <SMILES>  (1) 
CC[NH2+]CCOCCCNc1c2ccccc2[n+](C)c2ccc(Br)cc12

>  <Energy>  (1) 
79.1844909239363

>  <Genealogy>  (1) 
CC[NH2+]CCOCCCNc1c2ccccc2[n+](C)c2ccc(Br)cc12 (protonated)
CC[NH2+]CCOCCCNc1c2ccccc2[n+](C)c2ccc(Br)cc12 (3D coordinates assigned)
CC[NH2+]CCOCCCNc1c2ccccc2[n+](C)c2ccc(Br)cc12 (optimized conformer: 79.1844909239363 kcal/mol)

>  <smiles>  (1) 
CCNCCOCCCNc1c2ccccc2[n+](C)c2ccc(Br)cc12

>  <score_type>  (1) 
oracle

>  <origin>  (1) 
adg

>  <m_score__min__energy>  (1) 
-8.5999999999999996

>  <m_primary>  (1) 
energy

$$$$
1:0
     RDKit          3D

 51 53  0  0  0  0  0  0  0  0999 V2000
   -1.2570   20.8020  -30.0700 C   0  0  0  0  0  0  0  0  0  0  0  0
   -2.6020   21.2780  -29.5100 C   0  0  0  0  0  0  0  0  0  0  0  0
   -2.7420   22.7550  -29.5540 N   0  0  2  0  0  0  0  0  0  0  0  0
   -1.4420   23.4360  -29.3760 C   0  0  0  0  0  0  0  0  0  0  0  0
   -3.7560   23.2460  -28.5860 C   0  0  0  0  0  0  0  0  0  0  0  0
   -4.6340   24.4020  -29.1100 C   0  0  0  0  0  0  0  0  0  0  0  0
   -4.3320   24.6520  -30.4700 O   0  0  0  0  0  0  0  0  0  0  0  0
   -5.4990   25.0140  -31.1810 C   0  0  0  0  0  0  0  0  0  0  0  0
   -6.0000   23.8050  -31.9660 C   0  0  0  0  0  0  0  0  0  0  0  0
   -5.4990   22.5600  -31.3840 N   0  0  0  0  0  0  0  0  0  0  0  0
   -5.6050   21.3310  -32.1100 C   0  0  0  0  0  0  0  0  0  0  0  0
   -4.5080   20.7630  -32.7850 C   0  0  0  0  0  0  0  0  0  0  0  0
   -3.2600   21.4160  -32.8080 C   0  0  0  0  0  0  0  0  0  0  0  0
   -2.1630   20.8300  -33.4340 C   0  0  0  0  0  0  0  0  0  0  0  0
   -2.2880   19.5850  -34.0420 C   0  0  0  0  0  0  0  0  0  0  0  0
   -3.5180   18.9250  -34.0550 C   0  0  0  0  0  0  0  0  0  0  0  0
   -4.6650   19.5070  -33.4580 C   0  0  0  0  0  0  0  0  0  0  0  0
   -5.9080   18.8870  -33.5050 N   0  0  0  0  0  0  0  0  0  0  0  0
   -6.1110   17.6600  -34.3010 C   0  0  0  0  0  0  0  0  0  0  0  0
   -6.9500   19.4320  -32.7890 C   0  0  0  0  0  0  0  0  0  0  0  0
   -8.2370   18.8770  -32.6150 C   0  0  0  0  0  0  0  0  0  0  0  0
   -9.0760   19.6680  -31.8360 C   0  0  0  0  0  0  0  0  0  0  0  0
   -8.2360   21.0440  -31.3460 S   0  0  0  0  0  0  0  0  0  0  0  0
   -6.8050   20.6380  -32.1250 C   0  0  0  0  0  0  0  0  0  0  0  0
   -0.5780   20.5617  -29.2386 H   0  0  0  0  0  0  0  0  0  0  0  0
   -1.4135   19.9046  -30.6867 H   0  0  0  0  0  0  0  0  0  0  0  0
   -0.8142   21.5980  -30.6867 H   0  0  0  0  0  0  0  0  0  0  0  0
   -3.4112   20.8285  -30.1043 H   0  0  0  0  0  0  0  0  0  0  0  0
   -2.6556   20.9671  -28.4562 H   0  0  0  0  0  0  0  0  0  0  0  0
   -3.1010   23.0210  -30.5020 H   0  0  0  0  0  0  0  0  0  0  0  0
   -1.2302   23.5470  -28.3023 H   0  0  0  0  0  0  0  0  0  0  0  0
   -0.6475   22.8383  -29.8466 H   0  0  0  0  0  0  0  0  0  0  0  0
   -1.4810   24.4295  -29.8466 H   0  0  0  0  0  0  0  0  0  0  0  0
   -4.4154   22.4056  -28.3232 H   0  0  0  0  0  0  0  0  0  0  0  0
   -3.1994   23.6419  -27.7238 H   0  0  0  0  0  0  0  0  0  0  0  0
   -5.6949   24.1271  -29.0156 H   0  0  0  0  0  0  0  0  0  0  0  0
   -4.4332   25.3083  -28.5198 H   0  0  0  0  0  0  0  0  0  0  0  0
   -6.2750   25.3411  -30.4733 H   0  0  0  0  0  0  0  0  0  0  0  0
   -5.2707   25.8373  -31.8738 H   0  0  0  0  0  0  0  0  0  0  0  0
   -7.0998   23.7942  -31.9474 H   0  0  0  0  0  0  0  0  0  0  0  0
   -5.6337   23.8815  -33.0004 H   0  0  0  0  0  0  0  0  0  0  0  0
   -4.8770   22.5830  -30.5440 H   0  0  0  0  0  0  0  0  0  0  0  0
   -3.1510   22.3990  -32.3264 H   0  0  0  0  0  0  0  0  0  0  0  0
   -1.1952   21.3527  -33.4478 H   0  0  0  0  0  0  0  0  0  0  0  0
   -1.4120   19.1177  -34.5155 H   0  0  0  0  0  0  0  0  0  0  0  0
   -3.5987   17.9388  -34.5355 H   0  0  0  0  0  0  0  0  0  0  0  0
   -6.2527   16.8037  -33.6252 H   0  0  0  0  0  0  0  0  0  0  0  0
   -7.0019   17.7777  -34.9354 H   0  0  0  0  0  0  0  0  0  0  0  0
   -5.2297   17.4845  -34.9354 H   0  0  0  0  0  0  0  0  0  0  0  0
   -8.5453   17.9156  -33.0516 H   0  0  0  0  0  0  0  0  0  0  0  0
  -10.1199   19.4328  -31.5811 H   0  0  0  0  0  0  0  0  0  0  0  0
  1  2  1  0
  2  3  1  0
  3  4  1  0
  3  5  1  0
  5  6  1  0
  6  7  1  0
  7  8  1  0
  8  9  1  0
  9 10  1  0
 10 11  1  0
 11 12  2  0
 12 13  1  0
 13 14  2  0
 14 15  1  0
 15 16  2  0
 16 17  1  0
 17 18  2  0
 18 19  1  0
 18 20  1  0
 20 21  1  0
 21 22  2  0
 22 23  1  0
 23 24  1  0
 24 11  1  0
 17 12  1  0
 24 20  2  0
  1 25  1  0
  1 26  1  0
  1 27  1  0
  2 28  1  0
  2 29  1  0
  3 30  1  6
  4 31  1  0
  4 32  1  0
  4 33  1  0
  5 34  1  0
  5 35  1  0
  6 36  1  0
  6 37  1  0
  8 38  1  0
  8 39  1  0
  9 40  1  0
  9 41  1  0
 10 42  1  0
 13 43  1  0
 14 44  1  0
 15 45  1  0
 16 46  1  0
 19 47  1  0
 19 48  1  0
 19 49  1  0
 21 50  1  0
 22 51  1  0
M  CHG  2   3   1  18   1
M  END
>  <UniqueID>  (2) 
2

>  <SMILES>  (2) 
CC[N@H+](C)CCOCCNc1c2ccccc2[n+](C)c2ccsc12

>  <Energy>  (2) 
102.0913516185667

>  <Genealogy>  (2) 
CC[NH+](C)CCOCCNc1c2ccccc2[n+](C)c2ccsc12 (protonated)
CC[N@H+](C)CCOCCNc1c2ccccc2[n+](C)c2ccsc12 (chirality)
CC[N@H+](C)CCOCCNc1c2ccccc2[n+](C)c2ccsc12 (3D coordinates assigned)
CC[N@H+](C)CCOCCNc1c2ccccc2[n+](C)c2ccsc12 (optimized conformer: 102.0913516185667 kcal/mol)

>  <smiles>  (2) 
CCN(C)CCOCCNc1c2ccccc2[n+](C)c2ccsc12

>  <score_type>  (2) 
oracle

>  <origin>  (2) 
adg

>  <m_score__min__energy>  (2) 
-6.6600000000000001

>  <m_primary>  (2) 
energy

$$$$
2:0
     RDKit          3D

 53 56  0  0  0  0  0  0  0  0999 V2000
   -3.3580   21.8570  -29.9720 C   0  0  0  0  0  0  0  0  0  0  0  0
   -2.9260   23.3070  -30.1370 C   0  0  0  0  0  0  0  0  0  0  0  0
   -3.8740   23.9960  -31.0240 N   0  0  0  0  0  0  0  0  0  0  0  0
   -5.1990   24.1680  -30.4040 C   0  0  0  0  0  0  0  0  0  0  0  0
   -6.2170   23.2260  -31.0660 C   0  0  0  0  0  0  0  0  0  0  0  0
   -5.8720   22.8820  -32.4630 N   0  0  0  0  0  0  0  0  0  0  0  0
   -5.9100   21.4450  -32.7200 C   0  0  0  0  0  0  0  0  0  0  0  0
   -7.0970   20.6850  -32.5020 C   0  0  0  0  0  0  0  0  0  0  0  0
   -8.2700   21.2560  -31.9410 C   0  0  0  0  0  0  0  0  0  0  0  0
   -9.4100   20.4920  -31.7060 C   0  0  0  0  0  0  0  0  0  0  0  0
   -9.4150   19.1400  -32.0070 C   0  0  0  0  0  0  0  0  0  0  0  0
   -8.2870   18.5470  -32.5640 C   0  0  0  0  0  0  0  0  0  0  0  0
   -7.1200   19.3050  -32.8560 C   0  0  0  0  0  0  0  0  0  0  0  0
   -6.0240   18.7190  -33.4590 N   0  0  0  0  0  0  0  0  0  0  0  0
   -6.1610   17.3940  -34.1090 C   0  0  0  0  0  0  0  0  0  0  0  0
   -4.8110   19.3780  -33.4830 C   0  0  0  0  0  0  0  0  0  0  0  0
   -3.6110   18.6930  -33.8100 C   0  0  0  0  0  0  0  0  0  0  0  0
   -2.3900   19.3660  -33.9210 C   0  0  0  0  0  0  0  0  0  0  0  0
   -1.2170   18.6730  -34.2650 C   0  0  0  0  0  0  0  0  0  0  0  0
   -0.0040   19.3560  -34.3800 C   0  0  0  0  0  0  0  0  0  0  0  0
    0.0550   20.7400  -34.1580 C   0  0  0  0  0  0  0  0  0  0  0  0
    1.3700   21.4620  -34.2380 C   0  0  0  0  0  0  0  0  0  0  0  0
    1.4370   22.5260  -35.8540 Br  0  0  0  0  0  0  0  0  0  0  0  0
   -1.1130   21.4310  -33.8000 C   0  0  0  0  0  0  0  0  0  0  0  0
   -2.3370   20.7490  -33.6860 C   0  0  0  0  0  0  0  0  0  0  0  0
   -3.4990   21.4350  -33.3180 C   0  0  0  0  0  0  0  0  0  0  0  0
   -4.7410   20.7640  -33.1720 C   0  0  0  0  0  0  0  0  0  0  0  0
   -3.4300   21.6154  -28.9013 H   0  0  0  0  0  0  0  0  0  0  0  0
   -4.3389   21.7102  -30.4477 H   0  0  0  0  0  0  0  0  0  0  0  0
   -2.6174   21.1973  -30.4477 H   0  0  0  0  0  0  0  0  0  0  0  0
   -2.9153   23.8017  -29.1546 H   0  0  0  0  0  0  0  0  0  0  0  0
   -1.9172   23.3445  -30.5739 H   0  0  0  0  0  0  0  0  0  0  0  0
   -3.4880   24.9480  -31.2400 H   0  0  0  0  0  0  0  0  0  0  0  0
   -5.1318   23.9352  -29.3310 H   0  0  0  0  0  0  0  0  0  0  0  0
   -5.5287   25.2085  -30.5408 H   0  0  0  0  0  0  0  0  0  0  0  0
   -6.2661   22.2968  -30.4793 H   0  0  0  0  0  0  0  0  0  0  0  0
   -7.1824   23.7528  -31.0885 H   0  0  0  0  0  0  0  0  0  0  0  0
   -4.9140   23.2420  -32.6750 H   0  0  0  0  0  0  0  0  0  0  0  0
   -6.4540   23.4330  -33.1280 H   0  0  0  0  0  0  0  0  0  0  0  0
   -8.2781   22.3261  -31.6864 H   0  0  0  0  0  0  0  0  0  0  0  0
  -10.3084   20.9630  -31.2805 H   0  0  0  0  0  0  0  0  0  0  0  0
  -10.3114   18.5351  -31.8054 H   0  0  0  0  0  0  0  0  0  0  0  0
   -8.2979   17.4691  -32.7832 H   0  0  0  0  0  0  0  0  0  0  0  0
   -6.2417   16.6138  -33.3378 H   0  0  0  0  0  0  0  0  0  0  0  0
   -7.0649   17.3848  -34.7358 H   0  0  0  0  0  0  0  0  0  0  0  0
   -5.2781   17.2000  -34.7358 H   0  0  0  0  0  0  0  0  0  0  0  0
   -3.6424   17.6067  -33.9801 H   0  0  0  0  0  0  0  0  0  0  0  0
   -1.2541   17.5884  -34.4444 H   0  0  0  0  0  0  0  0  0  0  0  0
    0.9104   18.8055  -34.6462 H   0  0  0  0  0  0  0  0  0  0  0  0
    1.4793   22.1196  -33.3630 H   0  0  0  0  0  0  0  0  0  0  0  0
    2.1877   20.7264  -34.2534 H   0  0  0  0  0  0  0  0  0  0  0  0
   -1.0704   22.5132  -33.6074 H   0  0  0  0  0  0  0  0  0  0  0  0
   -3.4491   22.5190  -33.1377 H   0  0  0  0  0  0  0  0  0  0  0  0
  1  2  1  0
  2  3  1  0
  3  4  1  0
  4  5  1  0
  5  6  1  0
  6  7  1  0
  7  8  2  0
  8  9  1  0
  9 10  2  0
 10 11  1  0
 11 12  2  0
 12 13  1  0
 13 14  2  0
 14 15  1  0
 14 16  1  0
 16 17  2  0
 17 18  1  0
 18 19  2  0
 19 20  1  0
 20 21  2  0
 21 22  1  0
 22 23  1  0
 21 24  1  0
 24 25  2  0
 25 26  1  0
 26 27  2  0
 27  7  1  0
 13  8  1  0
 27 16  1  0
 25 18  1  0
  1 28  1  0
  1 29  1  0
  1 30  1  0
  2 31  1  0
  2 32  1  0
  3 33  1  0
  4 34  1  0
  4 35  1  0
  5 36  1  0
  5 37  1  0
  6 38  1  0
  6 39  1  0
  9 40  1  0
 10 41  1  0
 11 42  1  0
 12 43  1  0
 15 44  1  0
 15 45  1  0
 15 46  1  0
 17 47  1  0
 19 48  1  0
 20 49  1  0
 22 50  1  0
 22 51  1  0
 24 52  1  0
 26 53  1  0
M  CHG  2   6   1  14   1
M  END
>  <UniqueID>  (3) 
3

>  <SMILES>  (3) 
CCNCC[NH2+]c1c2ccccc2[n+](C)c2cc3ccc(CBr)cc3cc12

>  <Energy>  (3) 
85.58101631419326

>  <Genealogy>  (3) 
CCNCC[NH2+]c1c2ccccc2[n+](C)c2cc3ccc(CBr)cc3cc12 (protonated)
CCNCC[NH2+]c1c2ccccc2[n+](C)c2cc3ccc(CBr)cc3cc12 (3D coordinates assigned)
CCNCC[NH2+]c1c2ccccc2[n+](C)c2cc3ccc(CBr)cc3cc12 (optimized conformer: 85.58101631419326 kcal/mol)

>  <smiles>  (3) 
CCNCCNc1c2ccccc2[n+](C)c2cc3ccc(CBr)cc3cc12

>  <score_type>  (3) 
oracle

>  <origin>  (3) 
adg

>  <m_score__min__energy>  (3) 
-9.5600000000000005

>  <m_primary>  (3) 
energy

$$$$
3:0
     RDKit          3D

 62 64  0  0  0  0  0  0  0  0999 V2000
   -3.8400   22.3840  -30.5570 H   0  0  0  0  0  0  0  0  0  0  0  0
   -4.4720   22.1030  -29.8450 O   0  0  0  0  0  0  0  0  0  0  0  0
   -4.1920   22.8930  -28.7220 C   0  0  0  0  0  0  0  0  0  0  0  0
   -3.5311   22.3362  -28.0414 H   0  0  0  0  0  0  0  0  0  0  0  0
   -5.1348   23.1389  -28.2114 H   0  0  0  0  0  0  0  0  0  0  0  0
   -3.5010   24.1910  -29.1490 C   0  0  0  0  0  0  0  0  0  0  0  0
   -2.4107   24.0545  -29.0978 H   0  0  0  0  0  0  0  0  0  0  0  0
   -3.8140   24.9999  -28.4725 H   0  0  0  0  0  0  0  0  0  0  0  0
   -3.8750   24.5430  -30.5060 N   0  0  0  0  0  0  0  0  0  0  0  0
   -4.9110   25.2390  -30.8430 C   0  0  0  0  0  0  0  0  0  0  0  0
   -4.9258   26.3088  -30.5872 H   0  0  0  0  0  0  0  0  0  0  0  0
   -6.1030   24.6600  -31.5700 C   0  0  0  0  0  0  0  0  0  0  0  0
   -6.3988   25.3442  -32.3789 H   0  0  0  0  0  0  0  0  0  0  0  0
   -6.9268   24.5359  -30.8517 H   0  0  0  0  0  0  0  0  0  0  0  0
   -5.7780   23.3440  -32.1460 N   0  0  0  0  0  0  0  0  0  0  0  0
   -5.5990   23.3940  -33.1680 H   0  0  0  0  0  0  0  0  0  0  0  0
   -4.8610   23.0430  -31.7390 H   0  0  0  0  0  0  0  0  0  0  0  0
   -6.8100   22.3700  -31.8330 C   0  0  0  0  0  0  0  0  0  0  0  0
   -8.0320   22.8660  -31.3470 C   0  0  0  0  0  0  0  0  0  0  0  0
   -8.1114   23.9288  -31.0746 H   0  0  0  0  0  0  0  0  0  0  0  0
   -9.1370   22.0460  -31.2040 C   0  0  0  0  0  0  0  0  0  0  0  0
  -10.0770   22.4574  -30.8077 H   0  0  0  0  0  0  0  0  0  0  0  0
   -9.0640   20.7090  -31.5580 C   0  0  0  0  0  0  0  0  0  0  0  0
   -9.9643   20.0818  -31.4804 H   0  0  0  0  0  0  0  0  0  0  0  0
   -7.8570   20.1330  -32.0170 C   0  0  0  0  0  0  0  0  0  0  0  0
   -6.6960   20.9620  -32.1300 C   0  0  0  0  0  0  0  0  0  0  0  0
   -5.4930   20.3500  -32.5740 C   0  0  0  0  0  0  0  0  0  0  0  0
   -4.2110   20.9430  -32.3170 N   0  0  0  0  0  0  0  0  0  0  0  0
   -3.9040   21.0980  -31.3310 H   0  0  0  0  0  0  0  0  0  0  0  0
   -3.4750   21.6080  -33.3940 C   0  0  0  0  0  0  0  0  0  0  0  0
   -3.5075   22.6956  -33.2322 H   0  0  0  0  0  0  0  0  0  0  0  0
   -3.9462   21.3437  -34.3522 H   0  0  0  0  0  0  0  0  0  0  0  0
   -2.0130   21.1520  -33.4310 C   0  0  0  0  0  0  0  0  0  0  0  0
   -1.3976   21.9659  -33.8420 H   0  0  0  0  0  0  0  0  0  0  0  0
   -1.9542   20.2515  -34.0600 H   0  0  0  0  0  0  0  0  0  0  0  0
   -1.4860   20.7890  -32.0320 C   0  0  0  0  0  0  0  0  0  0  0  0
   -0.3874   20.7469  -32.0672 H   0  0  0  0  0  0  0  0  0  0  0  0
   -1.9152   19.8158  -31.7515 H   0  0  0  0  0  0  0  0  0  0  0  0
   -1.8900   21.7710  -31.0140 N   0  0  0  0  0  0  0  0  0  0  0  0
   -2.6760   21.3850  -30.4380 H   0  0  0  0  0  0  0  0  0  0  0  0
   -0.7690   22.2430  -30.1770 C   0  0  0  0  0  0  0  0  0  0  0  0
   -0.8000   23.3416  -30.1300 H   0  0  0  0  0  0  0  0  0  0  0  0
    0.1666   21.8882  -30.6340 H   0  0  0  0  0  0  0  0  0  0  0  0
   -0.8370   21.6870  -28.7540 C   0  0  0  0  0  0  0  0  0  0  0  0
   -0.7362   22.5116  -28.0330 H   0  0  0  0  0  0  0  0  0  0  0  0
   -1.8034   21.1838  -28.6027 H   0  0  0  0  0  0  0  0  0  0  0  0
   -0.0204   20.9657  -28.6027 H   0  0  0  0  0  0  0  0  0  0  0  0
   -5.5460   19.0850  -33.1850 C   0  0  0  0  0  0  0  0  0  0  0  0
   -4.4260   18.5550  -33.8650 C   0  0  0  0  0  0  0  0  0  0  0  0
   -3.4929   19.1358  -33.9097 H   0  0  0  0  0  0  0  0  0  0  0  0
   -4.4890   17.3070  -34.4790 C   0  0  0  0  0  0  0  0  0  0  0  0
   -3.6048   16.9017  -34.9927 H   0  0  0  0  0  0  0  0  0  0  0  0
   -5.6690   16.5730  -34.4430 C   0  0  0  0  0  0  0  0  0  0  0  0
   -5.7233   15.5960  -34.9455 H   0  0  0  0  0  0  0  0  0  0  0  0
   -6.7840   17.0730  -33.7710 C   0  0  0  0  0  0  0  0  0  0  0  0
   -7.7159   16.4888  -33.7589 H   0  0  0  0  0  0  0  0  0  0  0  0
   -6.7350   18.3230  -33.1030 C   0  0  0  0  0  0  0  0  0  0  0  0
   -7.8020   18.7980  -32.3730 N   0  0  0  0  0  0  0  0  0  0  0  0
   -8.8870   17.8730  -31.9690 C   0  0  0  0  0  0  0  0  0  0  0  0
   -8.9403   17.8276  -30.8712 H   0  0  0  0  0  0  0  0  0  0  0  0
   -9.8457   18.2359  -32.3679 H   0  0  0  0  0  0  0  0  0  0  0  0
   -8.6804   16.8689  -32.3679 H   0  0  0  0  0  0  0  0  0  0  0  0
  1  2  1  0
  2  3  1  0
  3  4  1  0
  3  5  1  0
  3  6  1  0
  6  7  1  0
  6  8  1  0
  6  9  1  0
  9 10  2  0
 10 11  1  0
 10 12  1  0
 12 13  1  0
 12 14  1  0
 12 15  1  0
 15 16  1  0
 15 17  1  0
 15 18  1  0
 18 19  2  0
 19 20  1  0
 19 21  1  0
 21 22  1  0
 21 23  2  0
 23 24  1  0
 23 25  1  0
 25 26  2  0
 26 27  1  0
 27 28  1  0
 28 29  1  0
 28 30  1  0
 30 31  1  0
 30 32  1  0
 30 33  1  0
 33 34  1  0
 33 35  1  0
 33 36  1  0
 36 37  1  0
 36 38  1  0
 36 39  1  0
 39 40  1  0
 39 41  1  0
 41 42  1  0
 41 43  1  0
 41 44  1  0
 44 45  1  0
 44 46  1  0
 44 47  1  0
 27 48  2  0
 48 49  1  0
 49 50  1  0
 49 51  2  0
 51 52  1  0
 51 53  1  0
 53 54  1  0
 53 55  2  0
 55 56  1  0
 55 57  1  0
 57 58  2  0
 58 59  1  0
 59 60  1  0
 59 61  1  0
 59 62  1  0
 26 18  1  0
 57 48  1  0
 58 25  1  0
M  CHG  2  15   1  58   1
M  END
>  <UniqueID>  (4) 
4

>  <SMILES>  (4) 
CCNCCCNc1c2ccccc2[n+](C)c2cccc([NH2+]C/C=N\CCO)c12

>  <Energy>  (4) 
94.15465406730073

>  <Genealogy>  (4) 
CCNCCCNc1c2ccccc2[n+](C)c2cccc([NH2+]CC=NCCO)c12 (protonated)
CCNCCCNc1c2ccccc2[n+](C)c2cccc([NH2+]C/C=N\CCO)c12 (cis-trans isomerization)
CCNCCCNc1c2ccccc2[n+](C)c2cccc([NH2+]C/C=N\CCO)c12 (3D coordinates assigned)
CCNCCCNc1c2ccccc2[n+](C)c2cccc([NH2+]C/C=N\CCO)c12 (optimized conformer: 94.15465406730073 kcal/mol)

>  <smiles>  (4) 
CCNCCCNc1c2ccccc2[n+](C)c2cccc(NCC=NCCO)c12

>  <score_type>  (4) 
oracle

>  <origin>  (4) 
adg

>  <m_score__min__energy>  (4) 
-6.3899999999999997

>  <m_primary>  (4) 
energy

$$$$
4:0
     RDKit          3D

 84 86  0  0  0  0  0  0  0  0999 V2000
    0.6490   22.6210  -27.2990 C   0  0  0  0  0  0  0  0  0  0  0  0
    0.8620   24.0640  -26.8540 C   0  0  0  0  0  0  0  0  0  0  0  0
    0.4390   24.9880  -27.9150 N   0  0  0  0  0  0  0  0  0  0  0  0
    0.0230   26.3020  -27.3900 C   0  0  0  0  0  0  0  0  0  0  0  0
   -1.2680   26.2350  -26.5480 C   0  0  0  0  0  0  0  0  0  0  0  0
   -2.2090   25.0940  -26.9970 C   0  0  0  0  0  0  0  0  0  0  0  0
   -2.4040   25.0460  -28.4580 N   0  0  0  0  0  0  0  0  0  0  0  0
   -2.3920   23.6890  -29.0290 C   0  0  0  0  0  0  0  0  0  0  0  0
   -3.1360   23.6240  -30.3750 C   0  0  0  0  0  0  0  0  0  0  0  0
   -3.7660   24.9060  -30.7270 N   0  0  0  0  0  0  0  0  0  0  0  0
   -5.0540   25.0800  -30.0450 C   0  0  0  0  0  0  0  0  0  0  0  0
   -6.1220   24.1980  -30.6910 C   0  0  0  0  0  0  0  0  0  0  0  0
   -5.6300   23.6340  -31.9460 N   0  0  0  0  0  0  0  0  0  0  0  0
   -5.9170   22.2720  -32.3060 C   0  0  0  0  0  0  0  0  0  0  0  0
   -7.2300   21.7830  -32.2290 C   0  0  0  0  0  0  0  0  0  0  0  0
   -8.3140   22.6440  -31.9650 C   0  0  0  0  0  0  0  0  0  0  0  0
   -9.6080   22.1400  -31.8470 C   0  0  0  0  0  0  0  0  0  0  0  0
   -9.8420   20.7770  -31.9970 C   0  0  0  0  0  0  0  0  0  0  0  0
   -8.7830   19.9090  -32.2680 C   0  0  0  0  0  0  0  0  0  0  0  0
   -7.4580   20.3940  -32.3860 C   0  0  0  0  0  0  0  0  0  0  0  0
   -6.3990   19.5450  -32.6340 N   0  0  0  0  0  0  0  0  0  0  0  0
   -6.5260   18.1240  -32.2490 C   0  0  0  0  0  0  0  0  0  0  0  0
   -5.1810   20.0630  -33.0370 C   0  0  0  0  0  0  0  0  0  0  0  0
   -4.1910   19.2870  -33.7220 C   0  0  0  0  0  0  0  0  0  0  0  0
   -4.5280   18.0060  -34.4520 C   0  0  0  0  0  0  0  0  0  0  0  0
   -2.8740   19.7810  -33.8490 C   0  0  0  0  0  0  0  0  0  0  0  0
   -1.8870   18.9410  -34.3980 O   0  0  0  0  0  0  0  0  0  0  0  0
   -0.4820   19.1950  -34.4000 C   0  0  0  0  0  0  0  0  0  0  0  0
    0.2880   17.9340  -33.9510 C   0  0  0  0  0  0  0  0  0  0  0  0
   -0.0920   17.4030  -32.6080 N   0  0  0  0  0  0  0  0  0  0  0  0
   -0.4770   18.5030  -31.6900 C   0  0  0  0  0  0  0  0  0  0  0  0
    1.0920   16.7140  -32.0350 C   0  0  0  0  0  0  0  0  0  0  0  0
   -1.1990   16.4220  -32.7050 C   0  0  0  0  0  0  0  0  0  0  0  0
   -2.5850   21.0890  -33.4360 C   0  0  0  0  0  0  0  0  0  0  0  0
   -3.5890   21.9140  -32.9510 C   0  0  0  0  0  0  0  0  0  0  0  0
   -4.8920   21.4250  -32.7630 C   0  0  0  0  0  0  0  0  0  0  0  0
    0.5536   21.9747  -26.4140 H   0  0  0  0  0  0  0  0  0  0  0  0
   -0.2686   22.5549  -27.9020 H   0  0  0  0  0  0  0  0  0  0  0  0
    1.5084   22.2926  -27.9020 H   0  0  0  0  0  0  0  0  0  0  0  0
    0.2699   24.2561  -25.9471 H   0  0  0  0  0  0  0  0  0  0  0  0
    1.9303   24.2218  -26.6444 H   0  0  0  0  0  0  0  0  0  0  0  0
   -0.3390   24.5500  -28.4590 H   0  0  0  0  0  0  0  0  0  0  0  0
    0.8321   26.6994  -26.7596 H   0  0  0  0  0  0  0  0  0  0  0  0
   -0.1818   26.9511  -28.2541 H   0  0  0  0  0  0  0  0  0  0  0  0
   -0.9944   26.0728  -25.4950 H   0  0  0  0  0  0  0  0  0  0  0  0
   -1.8057   27.1849  -26.6845 H   0  0  0  0  0  0  0  0  0  0  0  0
   -1.7787   24.1361  -26.6696 H   0  0  0  0  0  0  0  0  0  0  0  0
   -3.1923   25.2812  -26.5409 H   0  0  0  0  0  0  0  0  0  0  0  0
   -3.3220   25.4940  -28.6850 H   0  0  0  0  0  0  0  0  0  0  0  0
   -1.3483   23.3782  -29.1846 H   0  0  0  0  0  0  0  0  0  0  0  0
   -2.9054   23.0188  -28.3239 H   0  0  0  0  0  0  0  0  0  0  0  0
   -2.4179   23.3544  -31.1635 H   0  0  0  0  0  0  0  0  0  0  0  0
   -3.9329   22.8714  -30.2831 H   0  0  0  0  0  0  0  0  0  0  0  0
   -3.1270   25.6660  -30.3940 H   0  0  0  0  0  0  0  0  0  0  0  0
   -4.9445   24.8005  -28.9868 H   0  0  0  0  0  0  0  0  0  0  0  0
   -5.3624   26.1326  -30.1278 H   0  0  0  0  0  0  0  0  0  0  0  0
   -6.3801   23.3795  -30.0030 H   0  0  0  0  0  0  0  0  0  0  0  0
   -7.0105   24.8115  -30.9010 H   0  0  0  0  0  0  0  0  0  0  0  0
   -4.8960   24.1480  -32.4850 H   0  0  0  0  0  0  0  0  0  0  0  0
   -8.1372   23.7237  -31.8510 H   0  0  0  0  0  0  0  0  0  0  0  0
  -10.4454   22.8210  -31.6350 H   0  0  0  0  0  0  0  0  0  0  0  0
  -10.8643   20.3822  -31.9018 H   0  0  0  0  0  0  0  0  0  0  0  0
   -8.9804   18.8339  -32.3915 H   0  0  0  0  0  0  0  0  0  0  0  0
   -6.5335   18.0405  -31.1522 H   0  0  0  0  0  0  0  0  0  0  0  0
   -7.4641   17.7168  -32.6541 H   0  0  0  0  0  0  0  0  0  0  0  0
   -5.6750   17.5569  -32.6541 H   0  0  0  0  0  0  0  0  0  0  0  0
   -4.7371   17.2113  -33.7207 H   0  0  0  0  0  0  0  0  0  0  0  0
   -5.4146   18.1660  -35.0831 H   0  0  0  0  0  0  0  0  0  0  0  0
   -3.6774   17.7090  -35.0831 H   0  0  0  0  0  0  0  0  0  0  0  0
   -0.1643   19.4724  -35.4159 H   0  0  0  0  0  0  0  0  0  0  0  0
   -0.2645   20.0164  -33.7014 H   0  0  0  0  0  0  0  0  0  0  0  0
    0.1079   17.1426  -34.6935 H   0  0  0  0  0  0  0  0  0  0  0  0
    1.3442   18.2317  -33.8745 H   0  0  0  0  0  0  0  0  0  0  0  0
   -0.3602   18.1692  -30.6484 H   0  0  0  0  0  0  0  0  0  0  0  0
    0.1696   19.3744  -31.8705 H   0  0  0  0  0  0  0  0  0  0  0  0
   -1.5259   18.7810  -31.8705 H   0  0  0  0  0  0  0  0  0  0  0  0
    1.0385   16.7452  -30.9367 H   0  0  0  0  0  0  0  0  0  0  0  0
    1.1056   15.6669  -32.3719 H   0  0  0  0  0  0  0  0  0  0  0  0
    2.0091   17.2195  -32.3719 H   0  0  0  0  0  0  0  0  0  0  0  0
   -1.5236   16.1343  -31.6941 H   0  0  0  0  0  0  0  0  0  0  0  0
   -2.0431   16.8740  -33.2464 H   0  0  0  0  0  0  0  0  0  0  0  0
   -0.8518   15.5297  -33.2464 H   0  0  0  0  0  0  0  0  0  0  0  0
   -1.5529   21.4645  -33.4971 H   0  0  0  0  0  0  0  0  0  0  0  0
   -3.3621   22.9632  -32.7109 H   0  0  0  0  0  0  0  0  0  0  0  0
  1  2  1  0
  2  3  1  0
  3  4  1  0
  4  5  1  0
  5  6  1  0
  6  7  1  0
  7  8  1  0
  8  9  1  0
  9 10  1  0
 10 11  1  0
 11 12  1  0
 12 13  1  0
 13 14  1  0
 14 15  2  0
 15 16  1  0
 16 17  2  0
 17 18  1  0
 18 19  2  0
 19 20  1  0
 20 21  2  0
 21 22  1  0
 21 23  1  0
 23 24  2  0
 24 25  1  0
 24 26  1  0
 26 27  1  0
 27 28  1  0
 28 29  1  0
 29 30  1  0
 30 31  1  0
 30 32  1  0
 30 33  1  0
 26 34  2  0
 34 35  1  0
 35 36  2  0
 36 14  1  0
 20 15  1  0
 36 23  1  0
  1 37  1  0
  1 38  1  0
  1 39  1  0
  2 40  1  0
  2 41  1  0
  3 42  1  0
  4 43  1  0
  4 44  1  0
  5 45  1  0
  5 46  1  0
  6 47  1  0
  6 48  1  0
  7 49  1  0
  8 50  1  0
  8 51  1  0
  9 52  1  0
  9 53  1  0
 10 54  1  0
 11 55  1  0
 11 56  1  0
 12 57  1  0
 12 58  1  0
 13 59  1  0
 16 60  1  0
 17 61  1  0
 18 62  1  0
 19 63  1  0
 22 64  1  0
 22 65  1  0
 22 66  1  0
 25 67  1  0
 25 68  1  0
 25 69  1  0
 28 70  1  0
 28 71  1  0
 29 72  1  0
 29 73  1  0
 31 74  1  0
 31 75  1  0
 31 76  1  0
 32 77  1  0
 32 78  1  0
 32 79  1  0
 33 80  1  0
 33 81  1  0
 33 82  1  0
 34 83  1  0
 35 84  1  0
M  CHG  2  21   1  30   1
M  END
>  <UniqueID>  (5) 
5

>  <SMILES>  (5) 
CCNCCCNCCNCCNc1c2ccccc2[n+](C)c2c(C)c(OCC[N+](C)(C)C)ccc12

>  <Energy>  (5) 
115.13068750604117

>  <Genealogy>  (5) 
CCNCCCNCCNCCNc1c2ccccc2[n+](C)c2c(C)c(OCC[N+](C)(C)C)ccc12 (3D coordinates assigned)
CCNCCCNCCNCCNc1c2ccccc2[n+](C)c2c(C)c(OCC[N+](C)(C)C)ccc12 (optimized conformer: 115.13068750604117 kcal/mol)

>  <smiles>  (5) 
CCNCCCNCCNCCNc1c2ccccc2[n+](C)c2c(C)c(OCC[N+](C)(C)C)ccc12

>  <score_type>  (5) 
oracle

>  <origin>  (5) 
adg

>  <m_score__min__energy>  (5) 
-8.0999999999999996

>  <m_primary>  (5) 
energy

$$$$
5:0
     RDKit          3D

 64 66  0  0  0  0  0  0  0  0999 V2000
   -9.4630   21.8660  -31.5100 C   0  0  0  0  0  0  0  0  0  0  0  0
   -8.4800   20.6980  -31.5490 C   0  0  0  0  0  0  0  0  0  0  0  0
   -7.2030   21.1170  -32.1740 N   0  0  0  0  0  0  0  0  0  0  0  0
   -6.2570   19.9790  -32.2620 C   0  0  0  0  0  0  0  0  0  0  0  0
   -6.9930   18.7130  -32.6900 C   0  0  0  0  0  0  0  0  0  0  0  0
   -6.6020   22.2580  -31.4460 C   0  0  0  0  0  0  0  0  0  0  0  0
   -6.5530   23.4950  -32.3460 C   0  0  0  0  0  0  0  0  0  0  0  0
   -5.6720   24.4520  -31.7910 O   0  0  0  0  0  0  0  0  0  0  0  0
   -6.0680   24.7970  -30.4800 C   0  0  0  0  0  0  0  0  0  0  0  0
   -4.8490   24.7970  -29.5640 C   0  0  0  0  0  0  0  0  0  0  0  0
   -3.6400   24.4630  -30.3160 N   0  0  0  0  0  0  0  0  0  0  0  0
   -2.8460   23.3140  -29.9720 C   0  0  0  0  0  0  0  0  0  0  0  0
   -2.1170   23.2950  -28.7700 C   0  0  0  0  0  0  0  0  0  0  0  0
   -2.0570   24.4360  -27.9420 C   0  0  0  0  0  0  0  0  0  0  0  0
   -1.2960   24.4310  -26.7760 C   0  0  0  0  0  0  0  0  0  0  0  0
   -0.5700   23.3000  -26.4250 C   0  0  0  0  0  0  0  0  0  0  0  0
   -0.6110   22.1610  -27.2290 C   0  0  0  0  0  0  0  0  0  0  0  0
   -1.4080   22.1210  -28.4020 C   0  0  0  0  0  0  0  0  0  0  0  0
   -1.4890   20.9870  -29.1880 N   0  0  0  0  0  0  0  0  0  0  0  0
   -1.0210   19.6870  -28.6590 C   0  0  0  0  0  0  0  0  0  0  0  0
   -2.0380   21.0610  -30.4560 C   0  0  0  0  0  0  0  0  0  0  0  0
   -1.9070   20.0010  -31.3890 C   0  0  0  0  0  0  0  0  0  0  0  0
   -2.5390   20.0390  -32.6460 C   0  0  0  0  0  0  0  0  0  0  0  0
   -2.4250   18.9290  -33.5680 N   0  0  0  0  0  0  0  0  0  0  0  0
   -3.6190   18.1850  -33.9900 C   0  0  0  0  0  0  0  0  0  0  0  0
   -1.1150   18.5400  -34.1000 C   0  0  0  0  0  0  0  0  0  0  0  0
   -3.2880   21.1730  -32.9850 C   0  0  0  0  0  0  0  0  0  0  0  0
   -3.3820   22.2500  -32.1130 C   0  0  0  0  0  0  0  0  0  0  0  0
   -2.7550   22.2190  -30.8510 C   0  0  0  0  0  0  0  0  0  0  0  0
   -9.6820   22.1262  -30.4639 H   0  0  0  0  0  0  0  0  0  0  0  0
   -9.0204   22.7349  -32.0190 H   0  0  0  0  0  0  0  0  0  0  0  0
  -10.3947   21.5782  -32.0190 H   0  0  0  0  0  0  0  0  0  0  0  0
   -8.2852   20.3540  -30.5225 H   0  0  0  0  0  0  0  0  0  0  0  0
   -8.9179   19.8833  -32.1445 H   0  0  0  0  0  0  0  0  0  0  0  0
   -5.4759   20.2123  -33.0005 H   0  0  0  0  0  0  0  0  0  0  0  0
   -5.8027   19.8131  -31.2740 H   0  0  0  0  0  0  0  0  0  0  0  0
   -7.3161   18.1572  -31.7974 H   0  0  0  0  0  0  0  0  0  0  0  0
   -7.8732   18.9859  -33.2906 H   0  0  0  0  0  0  0  0  0  0  0  0
   -6.3203   18.0831  -33.2906 H   0  0  0  0  0  0  0  0  0  0  0  0
   -7.2086   22.4806  -30.5558 H   0  0  0  0  0  0  0  0  0  0  0  0
   -5.5774   21.9921  -31.1467 H   0  0  0  0  0  0  0  0  0  0  0  0
   -6.1968   23.2062  -33.3458 H   0  0  0  0  0  0  0  0  0  0  0  0
   -7.5607   23.9291  -32.4248 H   0  0  0  0  0  0  0  0  0  0  0  0
   -6.5222   25.7988  -30.4859 H   0  0  0  0  0  0  0  0  0  0  0  0
   -6.8017   24.0638  -30.1138 H   0  0  0  0  0  0  0  0  0  0  0  0
   -4.7326   25.7954  -29.1172 H   0  0  0  0  0  0  0  0  0  0  0  0
   -4.9968   24.0428  -28.7770 H   0  0  0  0  0  0  0  0  0  0  0  0
   -3.4890   24.9250  -31.2410 H   0  0  0  0  0  0  0  0  0  0  0  0
   -2.6181   25.3401  -28.2210 H   0  0  0  0  0  0  0  0  0  0  0  0
   -1.2697   25.3229  -26.1327 H   0  0  0  0  0  0  0  0  0  0  0  0
    0.0396   23.3026  -25.5094 H   0  0  0  0  0  0  0  0  0  0  0  0
   -0.0157   21.2794  -26.9490 H   0  0  0  0  0  0  0  0  0  0  0  0
   -1.0306   19.7137  -27.5594 H   0  0  0  0  0  0  0  0  0  0  0  0
   -1.6873   18.8861  -29.0122 H   0  0  0  0  0  0  0  0  0  0  0  0
    0.0028   19.4946  -29.0122 H   0  0  0  0  0  0  0  0  0  0  0  0
   -1.2954   19.1262  -31.1233 H   0  0  0  0  0  0  0  0  0  0  0  0
   -4.1700   17.8417  -33.1020 H   0  0  0  0  0  0  0  0  0  0  0  0
   -4.2656   18.8403  -34.5920 H   0  0  0  0  0  0  0  0  0  0  0  0
   -3.3156   17.3158  -34.5920 H   0  0  0  0  0  0  0  0  0  0  0  0
   -0.4268   18.3356  -33.2666 H   0  0  0  0  0  0  0  0  0  0  0  0
   -1.2235   17.6353  -34.7162 H   0  0  0  0  0  0  0  0  0  0  0  0
   -0.7121   19.3573  -34.7162 H   0  0  0  0  0  0  0  0  0  0  0  0
   -3.8081   21.2111  -33.9535 H   0  0  0  0  0  0  0  0  0  0  0  0
   -3.9544   23.1406  -32.4118 H   0  0  0  0  0  0  0  0  0  0  0  0
  1  2  1  0
  2  3  1  0
  3  4  1  0
  4  5  1  0
  3  6  1  0
  6  7  1  0
  7  8  1  0
  8  9  1  0
  9 10  1  0
 10 11  1  0
 11 12  1  0
 12 13  2  0
 13 14  1  0
 14 15  2  0
 15 16  1  0
 16 17  2  0
 17 18  1  0
 18 19  2  0
 19 20  1  0
 19 21  1  0
 21 22  2  0
 22 23  1  0
 23 24  1  0
 24 25  1  0
 24 26  1  0
 23 27  2  0
 27 28  1  0
 28 29  2  0
 29 12  1  0
 18 13  1  0
 29 21  1  0
  1 30  1  0
  1 31  1  0
  1 32  1  0
  2 33  1  0
  2 34  1  0
  4 35  1  0
  4 36  1  0
  5 37  1  0
  5 38  1  0
  5 39  1  0
  6 40  1  0
  6 41  1  0
  7 42  1  0
  7 43  1  0
  9 44  1  0
  9 45  1  0
 10 46  1  0
 10 47  1  0
 11 48  1  0
 14 49  1  0
 15 50  1  0
 16 51  1  0
 17 52  1  0
 20 53  1  0
 20 54  1  0
 20 55  1  0
 22 56  1  0
 25 57  1  0
 25 58  1  0
 25 59  1  0
 26 60  1  0
 26 61  1  0
 26 62  1  0
 27 63  1  0
 28 64  1  0
M  CHG  1  19   1
M  END
>  <UniqueID>  (6) 
6

>  <SMILES>  (6) 
CCN(CC)CCOCCNc1c2ccccc2[n+](C)c2cc(N(C)C)ccc12

>  <Energy>  (6) 
88.7831619773165

>  <Genealogy>  (6) 
CCN(CC)CCOCCNc1c2ccccc2[n+](C)c2cc(N(C)C)ccc12 (3D coordinates assigned)
CCN(CC)CCOCCNc1c2ccccc2[n+](C)c2cc(N(C)C)ccc12 (optimized conformer: 88.7831619773165 kcal/mol)

>  <smiles>  (6) 
CCN(CC)CCOCCNc1c2ccccc2[n+](C)c2cc(N(C)C)ccc12

>  <score_type>  (6) 
oracle

>  <origin>  (6) 
adg

>  <m_score__min__energy>  (6) 
-8.9700000000000006

>  <m_primary>  (6) 
energy

$$$$
6:0
     RDKit          3D

 56 60  0  0  0  0  0  0  0  0999 V2000
   -1.6730   14.5060  -32.5420 C   0  0  0  0  0  0  0  0  0  0  0  0
   -2.9290   13.7300  -32.3920 N   0  0  0  0  0  0  0  0  0  0  0  0
   -3.0670   12.8680  -33.5940 C   0  0  0  0  0  0  0  0  0  0  0  0
   -2.8350   12.8500  -31.2040 C   0  0  0  0  0  0  0  0  0  0  0  0
   -4.1300   14.6310  -32.3370 C   0  0  0  0  0  0  0  0  0  0  0  0
   -5.3690   14.2300  -33.1840 C   0  0  0  0  0  0  0  0  0  0  0  0
   -5.4970   14.9930  -34.4390 N   0  0  0  0  0  0  0  0  0  0  0  0
   -4.5770   16.1120  -34.4530 C   0  0  0  0  0  0  0  0  0  0  0  0
   -3.2980   15.9360  -35.0190 C   0  0  0  0  0  0  0  0  0  0  0  0
   -2.3850   16.9870  -35.0650 C   0  0  0  0  0  0  0  0  0  0  0  0
   -2.7190   18.2310  -34.5380 C   0  0  0  0  0  0  0  0  0  0  0  0
   -3.9730   18.4330  -33.9420 C   0  0  0  0  0  0  0  0  0  0  0  0
   -4.2910   19.6790  -33.3940 C   0  0  0  0  0  0  0  0  0  0  0  0
   -5.5350   19.8800  -32.7720 C   0  0  0  0  0  0  0  0  0  0  0  0
   -6.4510   18.8560  -32.7500 N   0  0  0  0  0  0  0  0  0  0  0  0
   -6.1490   17.6250  -33.2640 C   0  0  0  0  0  0  0  0  0  0  0  0
   -4.9110   17.3770  -33.8880 C   0  0  0  0  0  0  0  0  0  0  0  0
   -7.7520   19.0380  -32.0800 C   0  0  0  0  0  0  0  0  0  0  0  0
   -8.3070   20.4450  -32.3220 C   0  0  0  0  0  0  0  0  0  0  0  0
   -7.2780   21.4740  -31.9490 C   0  0  0  0  0  0  0  0  0  0  0  0
   -7.6820   22.7170  -31.4190 C   0  0  0  0  0  0  0  0  0  0  0  0
   -6.6950   23.6410  -31.1000 C   0  0  0  0  0  0  0  0  0  0  0  0
   -5.3790   23.3800  -31.2900 C   0  0  0  0  0  0  0  0  0  0  0  0
   -4.9330   22.1760  -31.8240 C   0  0  0  0  0  0  0  0  0  0  0  0
   -5.9010   21.2040  -32.1850 C   0  0  0  0  0  0  0  0  0  0  0  0
   -4.6300   24.4640  -30.8760 O   0  0  0  0  0  0  0  0  0  0  0  0
   -5.5330   25.4710  -30.3990 C   0  0  0  0  0  0  0  0  0  0  0  0
   -6.8410   24.9040  -30.5600 O   0  0  0  0  0  0  0  0  0  0  0  0
   -1.2735   14.7528  -31.5473 H   0  0  0  0  0  0  0  0  0  0  0  0
   -0.9352   13.9061  -33.0950 H   0  0  0  0  0  0  0  0  0  0  0  0
   -1.8793   15.4343  -33.0950 H   0  0  0  0  0  0  0  0  0  0  0  0
   -3.2337   11.8267  -33.2812 H   0  0  0  0  0  0  0  0  0  0  0  0
   -3.9216   13.2115  -34.1954 H   0  0  0  0  0  0  0  0  0  0  0  0
   -2.1479   12.9276  -34.1954 H   0  0  0  0  0  0  0  0  0  0  0  0
   -2.9001   13.4592  -30.2904 H   0  0  0  0  0  0  0  0  0  0  0  0
   -3.6606   12.1233  -31.2197 H   0  0  0  0  0  0  0  0  0  0  0  0
   -1.8745   12.3141  -31.2197 H   0  0  0  0  0  0  0  0  0  0  0  0
   -4.4528   14.6854  -31.2868 H   0  0  0  0  0  0  0  0  0  0  0  0
   -3.7875   15.5802  -32.7748 H   0  0  0  0  0  0  0  0  0  0  0  0
   -5.2892   13.1615  -33.4330 H   0  0  0  0  0  0  0  0  0  0  0  0
   -6.2599   14.4526  -32.5784 H   0  0  0  0  0  0  0  0  0  0  0  0
   -6.4720   15.3300  -34.5970 H   0  0  0  0  0  0  0  0  0  0  0  0
   -5.2630   14.3590  -35.2370 H   0  0  0  0  0  0  0  0  0  0  0  0
   -3.0171   14.9551  -35.4300 H   0  0  0  0  0  0  0  0  0  0  0  0
   -1.3954   16.8330  -35.5200 H   0  0  0  0  0  0  0  0  0  0  0  0
   -1.9969   19.0593  -34.5889 H   0  0  0  0  0  0  0  0  0  0  0  0
   -3.5657   20.5042  -33.4498 H   0  0  0  0  0  0  0  0  0  0  0  0
   -6.8873   16.8130  -33.1886 H   0  0  0  0  0  0  0  0  0  0  0  0
   -8.4649   18.2984  -32.4734 H   0  0  0  0  0  0  0  0  0  0  0  0
   -7.6090   18.9010  -30.9980 H   0  0  0  0  0  0  0  0  0  0  0  0
   -8.5653   20.5569  -33.3854 H   0  0  0  0  0  0  0  0  0  0  0  0
   -9.2045   20.5907  -31.7029 H   0  0  0  0  0  0  0  0  0  0  0  0
   -8.7462   22.9477  -31.2630 H   0  0  0  0  0  0  0  0  0  0  0  0
   -3.8590   21.9827  -31.9627 H   0  0  0  0  0  0  0  0  0  0  0  0
   -5.3369   25.6959  -29.3402 H   0  0  0  0  0  0  0  0  0  0  0  0
   -5.4229   26.4178  -30.9480 H   0  0  0  0  0  0  0  0  0  0  0  0
  1  2  1  0
  2  3  1  0
  2  4  1  0
  2  5  1  0
  5  6  1  0
  6  7  1  0
  7  8  1  0
  8  9  2  0
  9 10  1  0
 10 11  2  0
 11 12  1  0
 12 13  2  0
 13 14  1  0
 14 15  2  0
 15 16  1  0
 16 17  2  0
 15 18  1  0
 18 19  1  0
 19 20  1  0
 20 21  2  0
 21 22  1  0
 22 23  2  0
 23 24  1  0
 24 25  2  0
 23 26  1  0
 26 27  1  0
 27 28  1  0
 17  8  1  0
 25 20  1  0
 17 12  1  0
 28 22  1  0
 25 14  1  0
  1 29  1  0
  1 30  1  0
  1 31  1  0
  3 32  1  0
  3 33  1  0
  3 34  1  0
  4 35  1  0
  4 36  1  0
  4 37  1  0
  5 38  1  0
  5 39  1  0
  6 40  1  0
  6 41  1  0
  7 42  1  0
  7 43  1  0
  9 44  1  0
 10 45  1  0
 11 46  1  0
 13 47  1  0
 16 48  1  0
 18 49  1  0
 18 50  1  0
 19 51  1  0
 19 52  1  0
 21 53  1  0
 24 54  1  0
 27 55  1  0
 27 56  1  0
M  CHG  3   2   1   7   1  15   1
M  END
>  <UniqueID>  (7) 
7

>  <SMILES>  (7) 
C[N+](C)(C)CC[NH2+]c1cccc2cc3[n+](cc12)CCc1cc2c(cc1-3)OCO2

>  <Energy>  (7) 
112.15715894517531

>  <Genealogy>  (7) 
C[N+](C)(C)CC[NH2+]c1cccc2cc3[n+](cc12)CCc1cc2c(cc1-3)OCO2 (protonated)
C[N+](C)(C)CC[NH2+]c1cccc2cc3[n+](cc12)CCc1cc2c(cc1-3)OCO2 (3D coordinates assigned)
C[N+](C)(C)CC[NH2+]c1cccc2cc3[n+](cc12)CCc1cc2c(cc1-3)OCO2 (nonaromatic ring conformer: 112.15715894517531 kcal/mol)

>  <smiles>  (7) 
C[N+](C)(C)CCNc1cccc2cc3[n+](cc12)CCc1cc2c(cc1-3)OCO2

>  <score_type>  (7) 
oracle

>  <origin>  (7) 
adg

>  <m_score__min__energy>  (7) 
-7.4199999999999999

>  <m_primary>  (7) 
energy

$$$$
7:0
     RDKit          3D

 68 70  0  0  0  0  0  0  0  0999 V2000
   -0.0950   18.6890  -30.9630 C   0  0  0  0  0  0  0  0  0  0  0  0
   -1.0460   19.0070  -32.1250 C   0  0  0  0  0  0  0  0  0  0  0  0
   -1.0940   20.4420  -32.4910 N   0  0  0  0  0  0  0  0  0  0  0  0
    0.2370   21.0740  -32.4300 C   0  0  0  0  0  0  0  0  0  0  0  0
   -1.7680   20.6740  -33.7880 C   0  0  0  0  0  0  0  0  0  0  0  0
   -3.1480   21.3310  -33.5700 C   0  0  0  0  0  0  0  0  0  0  0  0
   -3.6990   21.2340  -32.1930 N   0  0  0  0  0  0  0  0  0  0  0  0
   -5.0580   20.7080  -32.0840 C   0  0  0  0  0  0  0  0  0  0  0  0
   -5.3100   19.3330  -32.3900 C   0  0  0  0  0  0  0  0  0  0  0  0
   -4.2650   18.4280  -32.7170 C   0  0  0  0  0  0  0  0  0  0  0  0
   -4.5250   17.0970  -33.0330 C   0  0  0  0  0  0  0  0  0  0  0  0
   -5.8270   16.6300  -33.0520 C   0  0  0  0  0  0  0  0  0  0  0  0
   -6.8770   17.4840  -32.7340 C   0  0  0  0  0  0  0  0  0  0  0  0
   -6.6440   18.8380  -32.3700 C   0  0  0  0  0  0  0  0  0  0  0  0
   -7.6890   19.6680  -32.0390 N   0  0  0  0  0  0  0  0  0  0  0  0
   -9.0210   19.0940  -31.7340 C   0  0  0  0  0  0  0  0  0  0  0  0
   -7.4950   21.0290  -31.9600 C   0  0  0  0  0  0  0  0  0  0  0  0
   -8.5990   21.9110  -32.0180 C   0  0  0  0  0  0  0  0  0  0  0  0
   -8.4370   23.2760  -31.8550 C   0  0  0  0  0  0  0  0  0  0  0  0
   -7.1890   23.7940  -31.5670 C   0  0  0  0  0  0  0  0  0  0  0  0
   -6.0610   22.9580  -31.4950 C   0  0  0  0  0  0  0  0  0  0  0  0
   -4.8410   23.4780  -31.0370 O   0  0  0  0  0  0  0  0  0  0  0  0
   -4.4740   23.7310  -29.6800 C   0  0  0  0  0  0  0  0  0  0  0  0
   -3.8420   22.4990  -28.9840 C   0  0  0  0  0  0  0  0  0  0  0  0
   -2.7760   21.8030  -29.7480 N   0  0  0  0  0  0  0  0  0  0  0  0
   -1.6280   22.6630  -30.1130 C   0  0  0  0  0  0  0  0  0  0  0  0
   -1.1550   23.4720  -28.9120 C   0  0  0  0  0  0  0  0  0  0  0  0
   -2.3730   20.5100  -29.1590 C   0  0  0  0  0  0  0  0  0  0  0  0
   -2.7140   20.4700  -27.6710 C   0  0  0  0  0  0  0  0  0  0  0  0
   -6.1800   21.5720  -31.8410 C   0  0  0  0  0  0  0  0  0  0  0  0
   -0.6124   18.8620  -30.0078 H   0  0  0  0  0  0  0  0  0  0  0  0
    0.2197   17.6367  -31.0242 H   0  0  0  0  0  0  0  0  0  0  0  0
    0.7893   19.3403  -31.0242 H   0  0  0  0  0  0  0  0  0  0  0  0
   -0.7178   18.4364  -33.0063 H   0  0  0  0  0  0  0  0  0  0  0  0
   -2.0573   18.7300  -31.7926 H   0  0  0  0  0  0  0  0  0  0  0  0
    0.5292   21.2127  -31.3786 H   0  0  0  0  0  0  0  0  0  0  0  0
    0.9726   20.4290  -32.9329 H   0  0  0  0  0  0  0  0  0  0  0  0
    0.2021   22.0517  -32.9329 H   0  0  0  0  0  0  0  0  0  0  0  0
   -1.1450   21.3370  -34.4063 H   0  0  0  0  0  0  0  0  0  0  0  0
   -1.9099   19.7073  -34.2933 H   0  0  0  0  0  0  0  0  0  0  0  0
   -3.0581   22.3976  -33.8234 H   0  0  0  0  0  0  0  0  0  0  0  0
   -3.8482   20.7767  -34.2123 H   0  0  0  0  0  0  0  0  0  0  0  0
   -3.0480   20.6720  -31.6020 H   0  0  0  0  0  0  0  0  0  0  0  0
   -3.6150   22.1610  -31.7230 H   0  0  0  0  0  0  0  0  0  0  0  0
   -3.2253   18.7873  -32.7207 H   0  0  0  0  0  0  0  0  0  0  0  0
   -3.6938   16.4159  -33.2679 H   0  0  0  0  0  0  0  0  0  0  0  0
   -6.0316   15.5826  -33.3188 H   0  0  0  0  0  0  0  0  0  0  0  0
   -7.9089   17.1041  -32.7647 H   0  0  0  0  0  0  0  0  0  0  0  0
   -9.1545   19.0365  -30.6437 H   0  0  0  0  0  0  0  0  0  0  0  0
   -9.8040   19.7346  -32.1660 H   0  0  0  0  0  0  0  0  0  0  0  0
   -9.0931   18.0849  -32.1660 H   0  0  0  0  0  0  0  0  0  0  0  0
   -9.6055   21.5046  -32.1960 H   0  0  0  0  0  0  0  0  0  0  0  0
   -9.3019   23.9483  -31.9548 H   0  0  0  0  0  0  0  0  0  0  0  0
   -7.0765   24.8741  -31.3918 H   0  0  0  0  0  0  0  0  0  0  0  0
   -3.7463   24.5557  -29.6616 H   0  0  0  0  0  0  0  0  0  0  0  0
   -5.3938   23.9828  -29.1318 H   0  0  0  0  0  0  0  0  0  0  0  0
   -3.4094   22.8350  -28.0301 H   0  0  0  0  0  0  0  0  0  0  0  0
   -4.6562   21.7679  -28.8723 H   0  0  0  0  0  0  0  0  0  0  0  0
   -0.8020   22.0299  -30.4693 H   0  0  0  0  0  0  0  0  0  0  0  0
   -1.9458   23.3586  -30.9037 H   0  0  0  0  0  0  0  0  0  0  0  0
   -1.4538   22.9609  -27.9849 H   0  0  0  0  0  0  0  0  0  0  0  0
   -0.0595   23.5663  -28.9419 H   0  0  0  0  0  0  0  0  0  0  0  0
   -1.6102   24.4730  -28.9419 H   0  0  0  0  0  0  0  0  0  0  0  0
   -2.9046   19.6963  -29.6741 H   0  0  0  0  0  0  0  0  0  0  0  0
   -1.2862   20.3884  -29.2781 H   0  0  0  0  0  0  0  0  0  0  0  0
   -1.7922   20.5781  -27.0806 H   0  0  0  0  0  0  0  0  0  0  0  0
   -3.4023   21.2936  -27.4303 H   0  0  0  0  0  0  0  0  0  0  0  0
   -3.1931   19.5095  -27.4303 H   0  0  0  0  0  0  0  0  0  0  0  0
  1  2  1  0
  2  3  1  0
  3  4  1  0
  3  5  1  0
  5  6  1  0
  6  7  1  0
  7  8  1  0
  8  9  2  0
  9 10  1  0
 10 11  2  0
 11 12  1  0
 12 13  2  0
 13 14  1  0
 14 15  2  0
 15 16  1  0
 15 17  1  0
 17 18  2  0
 18 19  1  0
 19 20  2  0
 20 21  1  0
 21 22  1  0
 22 23  1  0
 23 24  1  0
 24 25  1  0
 25 26  1  0
 26 27  1  0
 25 28  1  0
 28 29  1  0
 21 30  2  0
 30  8  1  0
 14  9  1  0
 30 17  1  0
  1 31  1  0
  1 32  1  0
  1 33  1  0
  2 34  1  0
  2 35  1  0
  4 36  1  0
  4 37  1  0
  4 38  1  0
  5 39  1  0
  5 40  1  0
  6 41  1  0
  6 42  1  0
  7 43  1  0
  7 44  1  0
 10 45  1  0
 11 46  1  0
 12 47  1  0
 13 48  1  0
 16 49  1  0
 16 50  1  0
 16 51  1  0
 18 52  1  0
 19 53  1  0
 20 54  1  0
 23 55  1  0
 23 56  1  0
 24 57  1  0
 24 58  1  0
 26 59  1  0
 26 60  1  0
 27 61  1  0
 27 62  1  0
 27 63  1  0
 28 64  1  0
 28 65  1  0
 29 66  1  0
 29 67  1  0
 29 68  1  0
M  CHG  2   7   1  15   1
M  END
>  <UniqueID>  (8) 
8

>  <SMILES>  (8) 
CCN(C)CC[NH2+]c1c2ccccc2[n+](C)c2cccc(OCCN(CC)CC)c12

>  <Energy>  (8) 
109.91462294743489

>  <Genealogy>  (8) 
CCN(C)CC[NH2+]c1c2ccccc2[n+](C)c2cccc(OCCN(CC)CC)c12 (protonated)
CCN(C)CC[NH2+]c1c2ccccc2[n+](C)c2cccc(OCCN(CC)CC)c12 (3D coordinates assigned)
CCN(C)CC[NH2+]c1c2ccccc2[n+](C)c2cccc(OCCN(CC)CC)c12 (optimized conformer: 109.91462294743489 kcal/mol)

>  <smiles>  (8) 
CCN(C)CCNc1c2ccccc2[n+](C)c2cccc(OCCN(CC)CC)c12

>  <score_type>  (8) 
oracle

>  <origin>  (8) 
adg

>  <m_score__min__energy>  (8) 
-7.8499999999999996

>  <m_primary>  (8) 
energy

$$$$
8:0
     RDKit          3D

 57 59  0  0  0  0  0  0  0  0999 V2000
   -2.6590   21.0750  -33.1760 C   0  0  0  0  0  0  0  0  0  0  0  0
   -2.2630   20.6560  -31.7580 C   0  0  0  0  0  0  0  0  0  0  0  0
   -1.0630   21.4500  -31.2190 C   0  0  0  0  0  0  0  0  0  0  0  0
   -1.3200   22.0270  -29.8160 C   0  0  0  0  0  0  0  0  0  0  0  0
   -0.8390   23.4150  -29.7290 N   0  0  0  0  0  0  0  0  0  0  0  0
   -1.1280   23.9780  -28.3990 C   0  0  0  0  0  0  0  0  0  0  0  0
   -2.4830   24.6900  -28.3790 C   0  0  0  0  0  0  0  0  0  0  0  0
   -2.9260   24.9330  -29.7130 O   0  0  0  0  0  0  0  0  0  0  0  0
   -4.1360   24.4640  -30.2440 C   0  0  0  0  0  0  0  0  0  0  0  0
   -5.2970   25.2590  -30.2940 C   0  0  0  0  0  0  0  0  0  0  0  0
   -6.4830   24.7490  -30.8310 C   0  0  0  0  0  0  0  0  0  0  0  0
   -6.5250   23.4350  -31.3270 C   0  0  0  0  0  0  0  0  0  0  0  0
   -7.6890   22.8780  -31.8800 C   0  0  0  0  0  0  0  0  0  0  0  0
   -8.7550   23.5460  -31.9580 O   0  0  0  0  0  0  0  0  0  0  0  0
   -7.6620   21.5660  -32.3550 C   0  0  0  0  0  0  0  0  0  0  0  0
   -6.4690   20.8260  -32.2680 C   0  0  0  0  0  0  0  0  0  0  0  0
   -6.3790   19.4290  -32.7590 C   0  0  0  0  0  0  0  0  0  0  0  0
   -5.6870   19.1560  -33.9490 C   0  0  0  0  0  0  0  0  0  0  0  0
   -5.5770   17.8490  -34.4280 C   0  0  0  0  0  0  0  0  0  0  0  0
   -6.1500   16.7690  -33.7260 C   0  0  0  0  0  0  0  0  0  0  0  0
   -6.0340   15.4080  -34.2210 N   0  0  0  0  0  0  0  0  0  0  0  0
   -7.2350   14.6160  -34.5130 C   0  0  0  0  0  0  0  0  0  0  0  0
   -4.7140   14.8030  -34.4410 C   0  0  0  0  0  0  0  0  0  0  0  0
   -6.8350   17.0480  -32.5240 C   0  0  0  0  0  0  0  0  0  0  0  0
   -6.9440   18.3570  -32.0460 C   0  0  0  0  0  0  0  0  0  0  0  0
   -5.3810   21.3920  -31.7440 O   0  0  0  0  0  0  0  0  0  0  0  0
   -5.3620   22.6370  -31.2800 C   0  0  0  0  0  0  0  0  0  0  0  0
   -4.1800   23.1550  -30.7400 C   0  0  0  0  0  0  0  0  0  0  0  0
   -3.4138   21.8736  -33.1251 H   0  0  0  0  0  0  0  0  0  0  0  0
   -1.7712   21.4432  -33.7110 H   0  0  0  0  0  0  0  0  0  0  0  0
   -3.0767   20.2093  -33.7110 H   0  0  0  0  0  0  0  0  0  0  0  0
   -3.1216   20.8190  -31.0900 H   0  0  0  0  0  0  0  0  0  0  0  0
   -1.9713   19.5960  -31.7938 H   0  0  0  0  0  0  0  0  0  0  0  0
   -0.1907   20.7816  -31.1711 H   0  0  0  0  0  0  0  0  0  0  0  0
   -0.8882   22.2952  -31.9009 H   0  0  0  0  0  0  0  0  0  0  0  0
   -2.4001   22.0054  -29.6088 H   0  0  0  0  0  0  0  0  0  0  0  0
   -0.7779   21.4176  -29.0779 H   0  0  0  0  0  0  0  0  0  0  0  0
   -1.3200   23.9900  -30.4590 H   0  0  0  0  0  0  0  0  0  0  0  0
    0.1940   23.4310  -29.8940 H   0  0  0  0  0  0  0  0  0  0  0  0
   -1.1403   23.1633  -27.6600 H   0  0  0  0  0  0  0  0  0  0  0  0
   -0.3462   24.7125  -28.1555 H   0  0  0  0  0  0  0  0  0  0  0  0
   -3.2189   24.0582  -27.8601 H   0  0  0  0  0  0  0  0  0  0  0  0
   -2.3787   25.6502  -27.8525 H   0  0  0  0  0  0  0  0  0  0  0  0
   -5.2708   26.2887  -29.9078 H   0  0  0  0  0  0  0  0  0  0  0  0
   -7.3850   25.3777  -30.8652 H   0  0  0  0  0  0  0  0  0  0  0  0
   -8.5647   21.1151  -32.7930 H   0  0  0  0  0  0  0  0  0  0  0  0
   -5.2258   19.9814  -34.5111 H   0  0  0  0  0  0  0  0  0  0  0  0
   -5.0355   17.6593  -35.3665 H   0  0  0  0  0  0  0  0  0  0  0  0
   -7.7072   14.3046  -33.5696 H   0  0  0  0  0  0  0  0  0  0  0  0
   -7.9433   15.2247  -35.0941 H   0  0  0  0  0  0  0  0  0  0  0  0
   -6.9544   13.7252  -35.0941 H   0  0  0  0  0  0  0  0  0  0  0  0
   -4.2432   14.5872  -33.4705 H   0  0  0  0  0  0  0  0  0  0  0  0
   -4.8293   13.8678  -35.0086 H   0  0  0  0  0  0  0  0  0  0  0  0
   -4.0808   15.5008  -35.0086 H   0  0  0  0  0  0  0  0  0  0  0  0
   -7.2896   16.2235  -31.9552 H   0  0  0  0  0  0  0  0  0  0  0  0
   -7.4768   18.5502  -31.1032 H   0  0  0  0  0  0  0  0  0  0  0  0
   -3.2767   22.5283  -30.7046 H   0  0  0  0  0  0  0  0  0  0  0  0
  1  2  1  0
  2  3  1  0
  3  4  1  0
  4  5  1  0
  5  6  1  0
  6  7  1  0
  7  8  1  0
  8  9  1  0
  9 10  2  0
 10 11  1  0
 11 12  2  0
 12 13  1  0
 13 14  2  0
 13 15  1  0
 15 16  2  0
 16 17  1  0
 17 18  2  0
 18 19  1  0
 19 20  2  0
 20 21  1  0
 21 22  1  0
 21 23  1  0
 20 24  1  0
 24 25  2  0
 16 26  1  0
 26 27  1  0
 27 28  2  0
 28  9  1  0
 27 12  1  0
 25 17  1  0
  1 29  1  0
  1 30  1  0
  1 31  1  0
  2 32  1  0
  2 33  1  0
  3 34  1  0
  3 35  1  0
  4 36  1  0
  4 37  1  0
  5 38  1  0
  5 39  1  0
  6 40  1  0
  6 41  1  0
  7 42  1  0
  7 43  1  0
 10 44  1  0
 11 45  1  0
 15 46  1  0
 18 47  1  0
 19 48  1  0
 22 49  1  0
 22 50  1  0
 22 51  1  0
 23 52  1  0
 23 53  1  0
 23 54  1  0
 24 55  1  0
 25 56  1  0
 28 57  1  0
M  CHG  1   5   1
M  END
>  <UniqueID>  (9) 
9

>  <SMILES>  (9) 
CCCC[NH2+]CCOc1ccc2c(=O)cc(-c3ccc(N(C)C)cc3)oc2c1

>  <Energy>  (9) 
59.26465788101528

>  <Genealogy>  (9) 
CCCC[NH2+]CCOc1ccc2c(=O)cc(-c3ccc(N(C)C)cc3)oc2c1 (protonated)
CCCC[NH2+]CCOc1ccc2c(=O)cc(-c3ccc(N(C)C)cc3)oc2c1 (3D coordinates assigned)
CCCC[NH2+]CCOc1ccc2c(=O)cc(-c3ccc(N(C)C)cc3)oc2c1 (optimized conformer: 59.26465788101528 kcal/mol)

>  <smiles>  (9) 
CCCCNCCOc1ccc2c(=O)cc(-c3ccc(N(C)C)cc3)oc2c1

>  <score_type>  (9) 
oracle

>  <origin>  (9) 
adg

>  <m_score__min__energy>  (9) 
-7.8399999999999999

>  <m_primary>  (9) 
energy

$$$$
9:0
     RDKit          3D

 41 41  0  0  0  0  0  0  0  0999 V2000
   -3.8680   24.1550  -28.3490 C   0  0  0  0  0  0  0  0  0  0  0  0
   -3.1260   24.3900  -29.6560 C   0  0  0  0  0  0  0  0  0  0  0  0
   -3.8680   25.2870  -30.4520 O   0  0  0  0  0  0  0  0  0  0  0  0
   -5.2480   25.0560  -30.2630 C   0  0  0  0  0  0  0  0  0  0  0  0
   -5.8430   24.4960  -31.5540 C   0  0  0  0  0  0  0  0  0  0  0  0
   -6.4470   23.1650  -31.3070 N   0  0  0  0  0  0  0  0  0  0  0  0
   -5.6200   22.3120  -30.4280 C   0  0  0  0  0  0  0  0  0  0  0  0
   -4.6110   21.5000  -31.2520 C   0  0  0  0  0  0  0  0  0  0  0  0
   -3.8520   22.3490  -32.0950 O   0  0  0  0  0  0  0  0  0  0  0  0
   -3.2370   21.6020  -33.1220 C   0  0  0  0  0  0  0  0  0  0  0  0
   -6.8830   22.4730  -32.5440 C   0  0  0  0  0  0  0  0  0  0  0  0
   -7.6020   21.1650  -32.2940 C   0  0  0  0  0  0  0  0  0  0  0  0
   -8.7410   21.0150  -31.5230 C   0  0  0  0  0  0  0  0  0  0  0  0
   -9.0880   19.6810  -31.5850 C   0  0  0  0  0  0  0  0  0  0  0  0
   -8.1570   19.0670  -32.3990 C   0  0  0  0  0  0  0  0  0  0  0  0
   -7.2530   19.9690  -32.8240 N   0  0  0  0  0  0  0  0  0  0  0  0
   -6.1750   19.7000  -33.7730 C   0  0  0  0  0  0  0  0  0  0  0  0
   -3.1974   24.3674  -27.5033 H   0  0  0  0  0  0  0  0  0  0  0  0
   -4.7428   24.8201  -28.2993 H   0  0  0  0  0  0  0  0  0  0  0  0
   -4.2004   23.1076  -28.2993 H   0  0  0  0  0  0  0  0  0  0  0  0
   -2.1347   24.8177  -29.4452 H   0  0  0  0  0  0  0  0  0  0  0  0
   -3.0024   23.4358  -30.1892 H   0  0  0  0  0  0  0  0  0  0  0  0
   -5.3919   24.3325  -29.4470 H   0  0  0  0  0  0  0  0  0  0  0  0
   -5.7494   25.9999  -30.0030 H   0  0  0  0  0  0  0  0  0  0  0  0
   -6.6180   25.1831  -31.9243 H   0  0  0  0  0  0  0  0  0  0  0  0
   -5.0427   24.3927  -32.3015 H   0  0  0  0  0  0  0  0  0  0  0  0
   -5.0750   22.9489  -29.7158 H   0  0  0  0  0  0  0  0  0  0  0  0
   -6.2793   21.6149  -29.8900 H   0  0  0  0  0  0  0  0  0  0  0  0
   -3.9318   20.9688  -30.5690 H   0  0  0  0  0  0  0  0  0  0  0  0
   -5.1623   20.7826  -31.8776 H   0  0  0  0  0  0  0  0  0  0  0  0
   -2.5974   20.8251  -32.6777 H   0  0  0  0  0  0  0  0  0  0  0  0
   -4.0105   21.1284  -33.7445 H   0  0  0  0  0  0  0  0  0  0  0  0
   -2.6237   22.2701  -33.7445 H   0  0  0  0  0  0  0  0  0  0  0  0
   -7.5615   23.1416  -33.0941 H   0  0  0  0  0  0  0  0  0  0  0  0
   -5.9729   22.2333  -33.1135 H   0  0  0  0  0  0  0  0  0  0  0  0
   -9.2676   21.8056  -30.9684 H   0  0  0  0  0  0  0  0  0  0  0  0
   -9.9407   19.2001  -31.0834 H   0  0  0  0  0  0  0  0  0  0  0  0
   -8.1545   17.9987  -32.6613 H   0  0  0  0  0  0  0  0  0  0  0  0
   -5.2510   19.4694  -33.2225 H   0  0  0  0  0  0  0  0  0  0  0  0
   -6.4487   18.8426  -34.4054 H   0  0  0  0  0  0  0  0  0  0  0  0
   -6.0138   20.5855  -34.4054 H   0  0  0  0  0  0  0  0  0  0  0  0
  1  2  1  0
  2  3  1  0
  3  4  1  0
  4  5  1  0
  5  6  1  0
  6  7  1  0
  7  8  1  0
  8  9  1  0
  9 10  1  0
  6 11  1  0
 11 12  1  0
 12 13  2  0
 13 14  1  0
 14 15  2  0
 15 16  1  0
 16 17  1  0
 16 12  1  0
  1 18  1  0
  1 19  1  0
  1 20  1  0
  2 21  1  0
  2 22  1  0
  4 23  1  0
  4 24  1  0
  5 25  1  0
  5 26  1  0
  7 27  1  0
  7 28  1  0
  8 29  1  0
  8 30  1  0
 10 31  1  0
 10 32  1  0
 10 33  1  0
 11 34  1  0
 11 35  1  0
 13 36  1  0
 14 37  1  0
 15 38  1  0
 17 39  1  0
 17 40  1  0
 17 41  1  0
M  END
>  <UniqueID>  (10) 
10

>  <SMILES>  (10) 
CCOCCN(CCOC)Cc1cccn1C

>  <Energy>  (10) 
64.05917557251757

>  <Genealogy>  (10) 
CCOCCN(CCOC)Cc1cccn1C (3D coordinates assigned)
CCOCCN(CCOC)Cc1cccn1C (optimized conformer: 64.05917557251757 kcal/mol)

>  <smiles>  (10) 
CCOCCN(CCOC)Cc1cccn1C

>  <score_type>  (10) 
oracle

>  <origin>  (10) 
adg

>  <m_score__min__energy>  (10) 
-5.5300000000000002

>  <m_primary>  (10) 
energy

$$$$
10:0
     RDKit          3D

 62 66  0  0  0  0  0  0  0  0999 V2000
   -8.7120   21.5930  -31.1410 C   0  0  0  0  0  0  0  0  0  0  0  0
   -7.6500   22.2760  -30.2660 C   0  0  0  0  0  0  0  0  0  0  0  0
   -6.8400   23.2890  -30.9810 N   0  0  0  0  0  0  0  0  0  0  0  0
   -7.2300   23.4100  -32.3980 C   0  0  0  0  0  0  0  0  0  0  0  0
   -6.8300   24.5990  -30.2920 C   0  0  0  0  0  0  0  0  0  0  0  0
   -5.3970   25.0050  -29.9260 C   0  0  0  0  0  0  0  0  0  0  0  0
   -4.6570   23.8760  -29.4660 O   0  0  0  0  0  0  0  0  0  0  0  0
   -3.7690   23.1040  -30.2370 C   0  0  0  0  0  0  0  0  0  0  0  0
   -4.2030   22.3270  -31.2760 N   0  0  0  0  0  0  0  0  0  0  0  0
   -3.3420   21.5580  -32.0040 C   0  0  0  0  0  0  0  0  0  0  0  0
   -3.8120   20.7700  -33.0690 C   0  0  0  0  0  0  0  0  0  0  0  0
   -2.9240   19.9770  -33.8020 C   0  0  0  0  0  0  0  0  0  0  0  0
   -1.5640   19.9610  -33.4790 C   0  0  0  0  0  0  0  0  0  0  0  0
   -1.0840   20.7390  -32.4220 C   0  0  0  0  0  0  0  0  0  0  0  0
   -1.9660   21.5420  -31.6830 C   0  0  0  0  0  0  0  0  0  0  0  0
   -1.5080   22.3310  -30.6260 C   0  0  0  0  0  0  0  0  0  0  0  0
   -2.3990   23.1510  -29.9270 C   0  0  0  0  0  0  0  0  0  0  0  0
   -1.9180   23.9670  -28.7990 C   0  0  0  0  0  0  0  0  0  0  0  0
   -1.6520   25.2880  -28.9610 N   0  0  0  0  0  0  0  0  0  0  0  0
   -1.2470   25.6700  -27.7390 C   0  0  0  0  0  0  0  0  0  0  0  0
   -0.8570   26.9490  -27.3460 C   0  0  0  0  0  0  0  0  0  0  0  0
   -0.4810   27.1350  -26.0030 C   0  0  0  0  0  0  0  0  0  0  0  0
   -0.5120   26.0530  -25.0990 C   0  0  0  0  0  0  0  0  0  0  0  0
   -0.9090   24.7730  -25.5280 C   0  0  0  0  0  0  0  0  0  0  0  0
   -1.2680   24.6160  -26.8730 C   0  0  0  0  0  0  0  0  0  0  0  0
   -1.6770   23.5090  -27.5300 N   0  0  0  0  0  0  0  0  0  0  0  0
   -1.8540   22.1580  -26.9520 C   0  0  0  0  0  0  0  0  0  0  0  0
   -3.1180   21.4730  -27.4740 C   0  0  0  0  0  0  0  0  0  0  0  0
   -2.7220   20.0460  -27.8190 C   0  0  0  0  0  0  0  0  0  0  0  0
   -1.2250   20.0720  -28.0750 C   0  0  0  0  0  0  0  0  0  0  0  0
   -0.6760   21.2170  -27.2360 C   0  0  0  0  0  0  0  0  0  0  0  0
   -9.4623   21.1105  -30.4974 H   0  0  0  0  0  0  0  0  0  0  0  0
   -9.2029   22.3452  -31.7761 H   0  0  0  0  0  0  0  0  0  0  0  0
   -8.2312   20.8343  -31.7761 H   0  0  0  0  0  0  0  0  0  0  0  0
   -8.1599   22.7709  -29.4263 H   0  0  0  0  0  0  0  0  0  0  0  0
   -6.9559   21.4890  -29.9360 H   0  0  0  0  0  0  0  0  0  0  0  0
   -8.2788   23.7354  -32.4631 H   0  0  0  0  0  0  0  0  0  0  0  0
   -6.5849   24.1502  -32.8939 H   0  0  0  0  0  0  0  0  0  0  0  0
   -7.1172   22.4346  -32.8939 H   0  0  0  0  0  0  0  0  0  0  0  0
   -7.2629   25.3607  -30.9571 H   0  0  0  0  0  0  0  0  0  0  0  0
   -7.4228   24.5189  -29.3689 H   0  0  0  0  0  0  0  0  0  0  0  0
   -4.9020   25.4240  -30.8145 H   0  0  0  0  0  0  0  0  0  0  0  0
   -5.4354   25.7550  -29.1223 H   0  0  0  0  0  0  0  0  0  0  0  0
   -5.2150   22.3120  -31.5300 H   0  0  0  0  0  0  0  0  0  0  0  0
   -4.8814   20.7773  -33.3264 H   0  0  0  0  0  0  0  0  0  0  0  0
   -3.2967   19.3637  -34.6356 H   0  0  0  0  0  0  0  0  0  0  0  0
   -0.8699   19.3344  -34.0583 H   0  0  0  0  0  0  0  0  0  0  0  0
   -0.0136   20.7219  -32.1691 H   0  0  0  0  0  0  0  0  0  0  0  0
   -0.4453   22.3074  -30.3430 H   0  0  0  0  0  0  0  0  0  0  0  0
   -0.8436   27.7845  -28.0614 H   0  0  0  0  0  0  0  0  0  0  0  0
   -0.1614   28.1289  -25.6566 H   0  0  0  0  0  0  0  0  0  0  0  0
   -0.2233   26.2110  -24.0494 H   0  0  0  0  0  0  0  0  0  0  0  0
   -0.9366   23.9233  -24.8300 H   0  0  0  0  0  0  0  0  0  0  0  0
   -1.9261   22.3334  -25.8685 H   0  0  0  0  0  0  0  0  0  0  0  0
   -3.8989   21.4743  -26.6993 H   0  0  0  0  0  0  0  0  0  0  0  0
   -3.5223   21.9979  -28.3521 H   0  0  0  0  0  0  0  0  0  0  0  0
   -2.9539   19.3726  -26.9807 H   0  0  0  0  0  0  0  0  0  0  0  0
   -3.2726   19.6783  -28.6974 H   0  0  0  0  0  0  0  0  0  0  0  0
   -0.7681   19.1197  -27.7678 H   0  0  0  0  0  0  0  0  0  0  0  0
   -1.0011   20.2115  -29.1429 H   0  0  0  0  0  0  0  0  0  0  0  0
   -0.2624   20.8315  -26.2924 H   0  0  0  0  0  0  0  0  0  0  0  0
    0.1328   21.7430  -27.7644 H   0  0  0  0  0  0  0  0  0  0  0  0
  1  2  1  0
  2  3  1  0
  3  4  1  0
  3  5  1  0
  5  6  1  0
  6  7  1  0
  7  8  1  0
  8  9  2  0
  9 10  1  0
 10 11  2  0
 11 12  1  0
 12 13  2  0
 13 14  1  0
 14 15  2  0
 15 16  1  0
 16 17  2  0
 17 18  1  0
 18 19  2  0
 19 20  1  0
 20 21  2  0
 21 22  1  0
 22 23  2  0
 23 24  1  0
 24 25  2  0
 25 26  1  0
 26 27  1  0
 27 28  1  0
 28 29  1  0
 29 30  1  0
 30 31  1  0
 17  8  1  0
 26 18  1  0
 31 27  1  0
 15 10  1  0
 25 20  1  0
  1 32  1  0
  1 33  1  0
  1 34  1  0
  2 35  1  0
  2 36  1  0
  4 37  1  0
  4 38  1  0
  4 39  1  0
  5 40  1  0
  5 41  1  0
  6 42  1  0
  6 43  1  0
  9 44  1  0
 11 45  1  0
 12 46  1  0
 13 47  1  0
 14 48  1  0
 16 49  1  0
 21 50  1  0
 22 51  1  0
 23 52  1  0
 24 53  1  0
 27 54  1  0
 28 55  1  0
 28 56  1  0
 29 57  1  0
 29 58  1  0
 30 59  1  0
 30 60  1  0
 31 61  1  0
 31 62  1  0
M  CHG  1   9   1
M  END
>  <UniqueID>  (11) 
11

>  <SMILES>  (11) 
CCN(C)CCOc1[nH+]c2ccccc2cc1-c1nc2ccccc2n1C1CCCC1

>  <Energy>  (11) 
116.60829610904582

>  <Genealogy>  (11) 
CCN(C)CCOc1[nH+]c2ccccc2cc1-c1nc2ccccc2n1C1CCCC1 (protonated)
CCN(C)CCOc1[nH+]c2ccccc2cc1-c1nc2ccccc2n1C1CCCC1 (3D coordinates assigned)
CCN(C)CCOc1[nH+]c2ccccc2cc1-c1nc2ccccc2n1C1CCCC1 (nonaromatic ring conformer: 116.60829610904582 kcal/mol)

>  <smiles>  (11) 
CCN(C)CCOc1nc2ccccc2cc1-c1nc2ccccc2n1C1CCCC1

>  <score_type>  (11) 
oracle

>  <origin>  (11) 
adg

>  <m_score__min__energy>  (11) 
-8.6799999999999997

>  <m_primary>  (11) 
energy

$$$$
11:0
     RDKit          3D

 39 39  0  0  0  0  0  0  0  0999 V2000
   -6.1180   25.5040  -29.6810 C   0  0  0  0  0  0  0  0  0  0  0  0
   -5.2870   25.0130  -30.8580 C   0  0  0  0  0  0  0  0  0  0  0  0
   -3.8820   25.3070  -30.6200 N   0  0  0  0  0  0  0  0  0  0  0  0
   -3.0660   24.5460  -29.7280 C   0  0  0  0  0  0  0  0  0  0  0  0
   -1.9950   25.0310  -29.2730 O   0  0  0  0  0  0  0  0  0  0  0  0
   -3.4650   23.1460  -29.3750 C   0  0  0  0  0  0  0  0  0  0  0  0
   -3.1220   22.2160  -30.4610 N   0  0  0  0  0  0  0  0  0  0  0  0
   -1.7070   21.9790  -30.7900 C   0  0  0  0  0  0  0  0  0  0  0  0
   -1.5730   21.4190  -32.2020 C   0  0  0  0  0  0  0  0  0  0  0  0
   -4.1460   21.4670  -31.1570 C   0  0  0  0  0  0  0  0  0  0  0  0
   -4.3220   20.2490  -30.8770 O   0  0  0  0  0  0  0  0  0  0  0  0
   -5.0280   22.0920  -32.2110 C   0  0  0  0  0  0  0  0  0  0  0  0
   -6.2870   21.3530  -32.3840 N   0  0  0  0  0  0  0  0  0  0  0  0
   -6.5480   20.3050  -33.1980 C   0  0  0  0  0  0  0  0  0  0  0  0
   -5.5930   19.6170  -34.0170 N   0  0  0  0  0  0  0  0  0  0  0  0
   -4.3820   19.6280  -33.7210 O   0  0  0  0  0  0  0  0  0  0  0  0
   -6.0320   18.7560  -34.9930 O   0  0  0  0  0  0  0  0  0  0  0  0
   -7.8630   19.9310  -33.0460 C   0  0  0  0  0  0  0  0  0  0  0  0
   -8.4330   20.7040  -32.1040 N   0  0  0  0  0  0  0  0  0  0  0  0
   -7.4510   21.5440  -31.7110 C   0  0  0  0  0  0  0  0  0  0  0  0
   -7.6560   22.5580  -30.6260 C   0  0  0  0  0  0  0  0  0  0  0  0
   -5.6278   25.2143  -28.7399 H   0  0  0  0  0  0  0  0  0  0  0  0
   -6.2065   26.5995  -29.7263 H   0  0  0  0  0  0  0  0  0  0  0  0
   -7.1203   25.0530  -29.7263 H   0  0  0  0  0  0  0  0  0  0  0  0
   -5.4195   23.9270  -30.9720 H   0  0  0  0  0  0  0  0  0  0  0  0
   -5.6165   25.5225  -31.7755 H   0  0  0  0  0  0  0  0  0  0  0  0
   -2.9380   22.8409  -28.4589 H   0  0  0  0  0  0  0  0  0  0  0  0
   -4.5533   23.1185  -29.2177 H   0  0  0  0  0  0  0  0  0  0  0  0
   -1.1560   22.9287  -30.7235 H   0  0  0  0  0  0  0  0  0  0  0  0
   -1.2937   21.2498  -30.0776 H   0  0  0  0  0  0  0  0  0  0  0  0
   -1.3173   20.3504  -32.1499 H   0  0  0  0  0  0  0  0  0  0  0  0
   -2.5260   21.5423  -32.7373 H   0  0  0  0  0  0  0  0  0  0  0  0
   -0.7790   21.9603  -32.7373 H   0  0  0  0  0  0  0  0  0  0  0  0
   -5.2605   23.1249  -31.9127 H   0  0  0  0  0  0  0  0  0  0  0  0
   -4.4849   22.0669  -33.1673 H   0  0  0  0  0  0  0  0  0  0  0  0
   -8.3674   19.1289  -33.6048 H   0  0  0  0  0  0  0  0  0  0  0  0
   -7.5574   22.0703  -29.6450 H   0  0  0  0  0  0  0  0  0  0  0  0
   -6.9002   23.3518  -30.7185 H   0  0  0  0  0  0  0  0  0  0  0  0
   -8.6608   22.9959  -30.7185 H   0  0  0  0  0  0  0  0  0  0  0  0
  1  2  1  0
  2  3  1  0
  3  4  1  0
  4  5  2  0
  4  6  1  0
  6  7  1  0
  7  8  1  0
  8  9  1  0
  7 10  1  0
 10 11  2  0
 10 12  1  0
 12 13  1  0
 13 14  1  0
 14 15  1  0
 15 16  2  0
 15 17  1  0
 14 18  2  0
 18 19  1  0
 19 20  2  0
 20 21  1  0
 20 13  1  0
  1 22  1  0
  1 23  1  0
  1 24  1  0
  2 25  1  0
  2 26  1  0
  6 27  1  0
  6 28  1  0
  8 29  1  0
  8 30  1  0
  9 31  1  0
  9 32  1  0
  9 33  1  0
 12 34  1  0
 12 35  1  0
 18 36  1  0
 21 37  1  0
 21 38  1  0
 21 39  1  0
M  CHG  3   3  -1  15   1  17  -1
M  END
>  <UniqueID>  (12) 
12

>  <SMILES>  (12) 
CC[N-]C(=O)CN(CC)C(=O)Cn1c([N+](=O)[O-])cnc1C

>  <Energy>  (12) 
56.859364401904315

>  <Genealogy>  (12) 
CC[N-]C(=O)CN(CC)C(=O)Cn1c([N+](=O)[O-])cnc1C (protonated)
CC[N-]C(=O)CN(CC)C(=O)Cn1c([N+](=O)[O-])cnc1C (3D coordinates assigned)
CC[N-]C(=O)CN(CC)C(=O)Cn1c([N+](=O)[O-])cnc1C (optimized conformer: 56.859364401904315 kcal/mol)

>  <smiles>  (12) 
CCNC(=O)CN(CC)C(=O)Cn1c([N+](=O)[O-])cnc1C

>  <score_type>  (12) 
oracle

>  <origin>  (12) 
adg

>  <m_score__min__energy>  (12) 
-7.8399999999999999

>  <m_primary>  (12) 
energy

$$$$
12:0
     RDKit          3D

 57 59  0  0  0  0  0  0  0  0999 V2000
   -6.2410   25.5470  -29.3600 C   0  0  0  0  0  0  0  0  0  0  0  0
   -5.2690   25.8060  -30.5090 C   0  0  0  0  0  0  0  0  0  0  0  0
   -4.4120   24.6300  -30.7270 N   0  0  0  0  0  0  0  0  0  0  0  0
   -4.0850   23.9100  -29.4820 C   0  0  0  0  0  0  0  0  0  0  0  0
   -2.8200   23.0340  -29.5950 C   0  0  0  0  0  0  0  0  0  0  0  0
   -2.4790   22.7750  -30.9460 O   0  0  0  0  0  0  0  0  0  0  0  0
   -3.0120   21.5380  -31.3670 C   0  0  0  0  0  0  0  0  0  0  0  0
   -2.8180   21.4040  -32.8740 C   0  0  0  0  0  0  0  0  0  0  0  0
   -4.1070   21.4750  -33.5610 N   0  0  0  0  0  0  0  0  0  0  0  0
   -5.2360   20.7130  -33.1000 C   0  0  0  0  0  0  0  0  0  0  0  0
   -6.3080   21.3570  -32.4580 C   0  0  0  0  0  0  0  0  0  0  0  0
   -6.2460   22.7340  -32.1530 C   0  0  0  0  0  0  0  0  0  0  0  0
   -7.2920   23.3630  -31.4830 C   0  0  0  0  0  0  0  0  0  0  0  0
   -8.4050   22.6290  -31.0870 C   0  0  0  0  0  0  0  0  0  0  0  0
   -8.4850   21.2650  -31.3690 C   0  0  0  0  0  0  0  0  0  0  0  0
   -7.4520   20.6030  -32.0830 C   0  0  0  0  0  0  0  0  0  0  0  0
   -7.5290   19.2580  -32.3910 N   0  0  0  0  0  0  0  0  0  0  0  0
   -8.8210   18.5460  -32.2710 C   0  0  0  0  0  0  0  0  0  0  0  0
   -6.4030   18.5850  -32.8300 C   0  0  0  0  0  0  0  0  0  0  0  0
   -6.3540   17.1680  -32.8850 C   0  0  0  0  0  0  0  0  0  0  0  0
   -5.2260   16.4970  -33.3850 C   0  0  0  0  0  0  0  0  0  0  0  0
   -5.1840   15.0620  -33.4640 N   0  0  0  0  0  0  0  0  0  0  0  0
   -6.1570   14.2620  -34.1560 C   0  0  0  0  0  0  0  0  0  0  0  0
   -5.9350   12.7940  -34.3180 C   0  0  0  0  0  0  0  0  0  0  0  0
   -7.2400   14.7700  -34.5540 O   0  0  0  0  0  0  0  0  0  0  0  0
   -4.1450   17.2370  -33.8630 C   0  0  0  0  0  0  0  0  0  0  0  0
   -4.1490   18.6250  -33.7780 C   0  0  0  0  0  0  0  0  0  0  0  0
   -5.2520   19.3130  -33.2350 C   0  0  0  0  0  0  0  0  0  0  0  0
   -5.7204   25.6857  -28.4010 H   0  0  0  0  0  0  0  0  0  0  0  0
   -7.0826   26.2522  -29.4257 H   0  0  0  0  0  0  0  0  0  0  0  0
   -6.6201   24.5165  -29.4257 H   0  0  0  0  0  0  0  0  0  0  0  0
   -5.8388   26.0150  -31.4264 H   0  0  0  0  0  0  0  0  0  0  0  0
   -4.6355   26.6685  -30.2546 H   0  0  0  0  0  0  0  0  0  0  0  0
   -3.5340   24.9250  -31.2170 H   0  0  0  0  0  0  0  0  0  0  0  0
   -3.9270   24.6493  -28.6829 H   0  0  0  0  0  0  0  0  0  0  0  0
   -4.9277   23.2371  -29.2651 H   0  0  0  0  0  0  0  0  0  0  0  0
   -1.9815   23.5549  -29.1096 H   0  0  0  0  0  0  0  0  0  0  0  0
   -3.0251   22.0716  -29.1032 H   0  0  0  0  0  0  0  0  0  0  0  0
   -2.4905   20.7171  -30.8531 H   0  0  0  0  0  0  0  0  0  0  0  0
   -4.0837   21.4916  -31.1235 H   0  0  0  0  0  0  0  0  0  0  0  0
   -2.1717   22.2196  -33.2304 H   0  0  0  0  0  0  0  0  0  0  0  0
   -2.3515   20.4313  -33.0892 H   0  0  0  0  0  0  0  0  0  0  0  0
   -4.2690   22.2590  -34.2320 H   0  0  0  0  0  0  0  0  0  0  0  0
   -5.3610   23.3168  -32.4481 H   0  0  0  0  0  0  0  0  0  0  0  0
   -7.2381   24.4402  -31.2669 H   0  0  0  0  0  0  0  0  0  0  0  0
   -9.2257   23.1261  -30.5491 H   0  0  0  0  0  0  0  0  0  0  0  0
   -9.3626   20.6934  -31.0327 H   0  0  0  0  0  0  0  0  0  0  0  0
   -9.0674   18.4102  -31.2076 H   0  0  0  0  0  0  0  0  0  0  0  0
   -9.6114   19.1359  -32.7581 H   0  0  0  0  0  0  0  0  0  0  0  0
   -8.7444   17.5627  -32.7581 H   0  0  0  0  0  0  0  0  0  0  0  0
   -7.2157   16.5840  -32.5293 H   0  0  0  0  0  0  0  0  0  0  0  0
   -4.4500   14.5600  -32.9110 H   0  0  0  0  0  0  0  0  0  0  0  0
   -5.8637   12.3224  -33.3268 H   0  0  0  0  0  0  0  0  0  0  0  0
   -6.7770   12.3549  -34.8733 H   0  0  0  0  0  0  0  0  0  0  0  0
   -5.0009   12.6235  -34.8733 H   0  0  0  0  0  0  0  0  0  0  0  0
   -3.2835   16.7194  -34.3102 H   0  0  0  0  0  0  0  0  0  0  0  0
   -3.2794   19.1933  -34.1396 H   0  0  0  0  0  0  0  0  0  0  0  0
  1  2  1  0
  2  3  1  0
  3  4  1  0
  4  5  1  0
  5  6  1  0
  6  7  1  0
  7  8  1  0
  8  9  1  0
  9 10  1  0
 10 11  2  0
 11 12  1  0
 12 13  2  0
 13 14  1  0
 14 15  2  0
 15 16  1  0
 16 17  2  0
 17 18  1  0
 17 19  1  0
 19 20  2  0
 20 21  1  0
 21 22  1  0
 22 23  1  0
 23 24  1  0
 23 25  2  0
 21 26  2  0
 26 27  1  0
 27 28  2  0
 28 10  1  0
 16 11  1  0
 28 19  1  0
  1 29  1  0
  1 30  1  0
  1 31  1  0
  2 32  1  0
  2 33  1  0
  3 34  1  0
  4 35  1  0
  4 36  1  0
  5 37  1  0
  5 38  1  0
  7 39  1  0
  7 40  1  0
  8 41  1  0
  8 42  1  0
  9 43  1  0
 12 44  1  0
 13 45  1  0
 14 46  1  0
 15 47  1  0
 18 48  1  0
 18 49  1  0
 18 50  1  0
 20 51  1  0
 22 52  1  0
 24 53  1  0
 24 54  1  0
 24 55  1  0
 26 56  1  0
 27 57  1  0
M  CHG  1  17   1
M  END
>  <UniqueID>  (13) 
13

>  <SMILES>  (13) 
CCNCCOCCNc1c2ccccc2[n+](C)c2cc(NC(C)=O)ccc12

>  <Energy>  (13) 
83.69811341841304

>  <Genealogy>  (13) 
CCNCCOCCNc1c2ccccc2[n+](C)c2cc(NC(C)=O)ccc12 (3D coordinates assigned)
CCNCCOCCNc1c2ccccc2[n+](C)c2cc(NC(C)=O)ccc12 (optimized conformer: 83.69811341841304 kcal/mol)

>  <smiles>  (13) 
CCNCCOCCNc1c2ccccc2[n+](C)c2cc(NC(C)=O)ccc12

>  <score_type>  (13) 
oracle

>  <origin>  (13) 
adg

>  <m_score__min__energy>  (13) 
-9.5899999999999999

>  <m_primary>  (13) 
energy

$$$$
13:0
     RDKit          3D

 65 68  0  0  0  0  0  0  0  0999 V2000
   -8.4250   22.6760  -31.9160 C   0  0  0  0  0  0  0  0  0  0  0  0
   -6.9070   22.7930  -32.0320 C   0  0  0  0  0  0  0  0  0  0  0  0
   -6.2100   21.5100  -31.5530 C   0  0  0  0  0  0  0  0  0  0  0  0
   -6.5960   20.3330  -32.3650 N   0  0  0  0  0  0  0  0  0  0  0  0
   -6.3440   19.0630  -31.6460 C   0  0  0  0  0  0  0  0  0  0  0  0
   -7.5860   18.1670  -31.7180 C   0  0  0  0  0  0  0  0  0  0  0  0
   -8.8360   18.9750  -32.0560 C   0  0  0  0  0  0  0  0  0  0  0  0
   -6.0380   20.3230  -33.7400 C   0  0  0  0  0  0  0  0  0  0  0  0
   -4.5500   19.9070  -33.8140 C   0  0  0  0  0  0  0  0  0  0  0  0
   -3.6450   21.0610  -33.6550 N   0  0  0  0  0  0  0  0  0  0  0  0
   -2.7420   20.8900  -32.5270 C   0  0  0  0  0  0  0  0  0  0  0  0
   -2.6880   21.8760  -31.5210 C   0  0  0  0  0  0  0  0  0  0  0  0
   -1.8080   21.7260  -30.4220 C   0  0  0  0  0  0  0  0  0  0  0  0
   -1.2280   20.4960  -30.1920 N   0  0  0  0  0  0  0  0  0  0  0  0
   -0.7670   20.1390  -28.8330 C   0  0  0  0  0  0  0  0  0  0  0  0
   -1.1820   19.5500  -31.1950 C   0  0  0  0  0  0  0  0  0  0  0  0
   -0.3920   18.3800  -31.0630 C   0  0  0  0  0  0  0  0  0  0  0  0
   -0.3560   17.4180  -32.0690 C   0  0  0  0  0  0  0  0  0  0  0  0
   -1.1000   17.5930  -33.2280 C   0  0  0  0  0  0  0  0  0  0  0  0
   -1.8800   18.7350  -33.3920 C   0  0  0  0  0  0  0  0  0  0  0  0
   -1.9310   19.7340  -32.3900 C   0  0  0  0  0  0  0  0  0  0  0  0
   -1.4850   22.9190  -29.5530 C   0  0  0  0  0  0  0  0  0  0  0  0
   -0.1820   23.0970  -29.0450 C   0  0  0  0  0  0  0  0  0  0  0  0
    0.1230   24.1710  -28.2060 C   0  0  0  0  0  0  0  0  0  0  0  0
   -0.8600   25.1120  -27.8770 C   0  0  0  0  0  0  0  0  0  0  0  0
   -0.5170   26.2850  -27.0080 C   0  0  0  0  0  0  0  0  0  0  0  0
   -2.1310   25.0050  -28.4560 C   0  0  0  0  0  0  0  0  0  0  0  0
   -2.4350   23.9300  -29.3000 C   0  0  0  0  0  0  0  0  0  0  0  0
   -3.9320   23.9180  -30.1870 S   0  0  0  0  0  0  0  0  0  0  0  0
   -5.0290   23.2760  -29.3860 O   0  0  0  0  0  0  0  0  0  0  0  0
   -4.3220   25.3110  -30.5900 O   0  0  0  0  0  0  0  0  0  0  0  0
   -3.5900   22.9870  -31.5880 N   0  0  0  0  0  0  0  0  0  0  0  0
   -8.7110   22.6540  -30.8541 H   0  0  0  0  0  0  0  0  0  0  0  0
   -8.8978   23.5404  -32.4052 H   0  0  0  0  0  0  0  0  0  0  0  0
   -8.7598   21.7494  -32.4052 H   0  0  0  0  0  0  0  0  0  0  0  0
   -6.6409   22.9740  -33.0839 H   0  0  0  0  0  0  0  0  0  0  0  0
   -6.5735   23.6271  -31.3971 H   0  0  0  0  0  0  0  0  0  0  0  0
   -5.1212   21.6493  -31.6246 H   0  0  0  0  0  0  0  0  0  0  0  0
   -6.5195   21.3226  -30.5142 H   0  0  0  0  0  0  0  0  0  0  0  0
   -5.4924   18.5439  -32.1101 H   0  0  0  0  0  0  0  0  0  0  0  0
   -6.1165   19.2824  -30.5924 H   0  0  0  0  0  0  0  0  0  0  0  0
   -7.4322   17.4037  -32.4950 H   0  0  0  0  0  0  0  0  0  0  0  0
   -7.7323   17.6979  -30.7339 H   0  0  0  0  0  0  0  0  0  0  0  0
   -9.3292   19.2938  -31.1259 H   0  0  0  0  0  0  0  0  0  0  0  0
   -8.5523   19.8611  -32.6429 H   0  0  0  0  0  0  0  0  0  0  0  0
   -9.5274   18.3525  -32.6429 H   0  0  0  0  0  0  0  0  0  0  0  0
   -6.6248   19.6169  -34.3459 H   0  0  0  0  0  0  0  0  0  0  0  0
   -6.0980   21.3555  -34.1145 H   0  0  0  0  0  0  0  0  0  0  0  0
   -4.3439   19.1812  -33.0136 H   0  0  0  0  0  0  0  0  0  0  0  0
   -4.3690   19.4674  -34.8060 H   0  0  0  0  0  0  0  0  0  0  0  0
   -4.2130   21.9340  -33.5690 H   0  0  0  0  0  0  0  0  0  0  0  0
   -3.0970   21.2030  -34.5330 H   0  0  0  0  0  0  0  0  0  0  0  0
   -1.4062   20.6340  -28.0871 H   0  0  0  0  0  0  0  0  0  0  0  0
   -0.8258   19.0486  -28.7005 H   0  0  0  0  0  0  0  0  0  0  0  0
    0.2740   20.4688  -28.7005 H   0  0  0  0  0  0  0  0  0  0  0  0
    0.2028   18.2297  -30.1500 H   0  0  0  0  0  0  0  0  0  0  0  0
    0.2633   16.5174  -31.9452 H   0  0  0  0  0  0  0  0  0  0  0  0
   -1.0733   16.8282  -34.0182 H   0  0  0  0  0  0  0  0  0  0  0  0
   -2.4656   18.8629  -34.3144 H   0  0  0  0  0  0  0  0  0  0  0  0
    0.6067   22.3788  -29.3136 H   0  0  0  0  0  0  0  0  0  0  0  0
    1.1404   24.2781  -27.8018 H   0  0  0  0  0  0  0  0  0  0  0  0
   -0.6018   25.9950  -25.9503 H   0  0  0  0  0  0  0  0  0  0  0  0
    0.5133   26.6082  -27.2181 H   0  0  0  0  0  0  0  0  0  0  0  0
   -1.2108   27.1123  -27.2181 H   0  0  0  0  0  0  0  0  0  0  0  0
   -2.8940   25.7692  -28.2466 H   0  0  0  0  0  0  0  0  0  0  0  0
  1  2  1  0
  2  3  1  0
  3  4  1  0
  4  5  1  0
  5  6  1  0
  6  7  1  0
  4  8  1  0
  8  9  1  0
  9 10  1  0
 10 11  1  0
 11 12  2  0
 12 13  1  0
 13 14  2  0
 14 15  1  0
 14 16  1  0
 16 17  2  0
 17 18  1  0
 18 19  2  0
 19 20  1  0
 20 21  2  0
 13 22  1  0
 22 23  2  0
 23 24  1  0
 24 25  2  0
 25 26  1  0
 25 27  1  0
 27 28  2  0
 28 29  1  0
 29 30  2  0
 29 31  2  0
 29 32  1  0
 21 11  1  0
 28 22  1  0
 32 12  1  0
 21 16  1  0
  1 33  1  0
  1 34  1  0
  1 35  1  0
  2 36  1  0
  2 37  1  0
  3 38  1  0
  3 39  1  0
  5 40  1  0
  5 41  1  0
  6 42  1  0
  6 43  1  0
  7 44  1  0
  7 45  1  0
  7 46  1  0
  8 47  1  0
  8 48  1  0
  9 49  1  0
  9 50  1  0
 10 51  1  0
 10 52  1  0
 15 53  1  0
 15 54  1  0
 15 55  1  0
 17 56  1  0
 18 57  1  0
 19 58  1  0
 20 59  1  0
 23 60  1  0
 24 61  1  0
 26 62  1  0
 26 63  1  0
 26 64  1  0
 27 65  1  0
M  CHG  3  10   1  14   1  32  -1
M  END
>  <UniqueID>  (14) 
14

>  <SMILES>  (14) 
CCCN(CCC)CC[NH2+]c1c2c([n+](C)c3ccccc13)-c1ccc(C)cc1S(=O)(=O)[N-]2

>  <Energy>  (14) 
98.95890016121474

>  <Genealogy>  (14) 
CCCN(CCC)CC[NH2+]c1c2c([n+](C)c3ccccc13)-c1ccc(C)cc1S(=O)(=O)[N-]2 (protonated)
CCCN(CCC)CC[NH2+]c1c2c([n+](C)c3ccccc13)-c1ccc(C)cc1S(=O)(=O)[N-]2 (3D coordinates assigned)
CCCN(CCC)CC[NH2+]c1c2c([n+](C)c3ccccc13)-c1ccc(C)cc1S(=O)(=O)[N-]2 (nonaromatic ring conformer: 98.95890016121474 kcal/mol)

>  <smiles>  (14) 
CCCN(CCC)CCNc1c2c([n+](C)c3ccccc13)-c1ccc(C)cc1S(=O)(=O)N2

>  <score_type>  (14) 
oracle

>  <origin>  (14) 
adg

>  <m_score__min__energy>  (14) 
-8.9000000000000004

>  <m_primary>  (14) 
energy

$$$$
14:0
     RDKit          3D

 77 79  0  0  0  0  0  0  0  0999 V2000
   -2.3850   22.6080  -27.4650 C   0  0  0  0  0  0  0  0  0  0  0  0
   -1.3100   21.6140  -27.9160 C   0  0  0  0  0  0  0  0  0  0  0  0
   -1.8300   20.2590  -28.2070 N   0  0  0  0  0  0  0  0  0  0  0  0
   -3.0800   19.9070  -27.4830 C   0  0  0  0  0  0  0  0  0  0  0  0
   -2.9020   18.9220  -26.3160 C   0  0  0  0  0  0  0  0  0  0  0  0
   -0.7810   19.2180  -28.2690 C   0  0  0  0  0  0  0  0  0  0  0  0
   -0.1510   19.1280  -29.6610 C   0  0  0  0  0  0  0  0  0  0  0  0
   -1.1070   19.4530  -30.6490 O   0  0  0  0  0  0  0  0  0  0  0  0
   -0.7470   20.6730  -31.2710 C   0  0  0  0  0  0  0  0  0  0  0  0
   -1.9480   21.6320  -31.2850 C   0  0  0  0  0  0  0  0  0  0  0  0
   -3.0690   21.1290  -30.4570 N   0  0  0  0  0  0  0  0  0  0  0  0
   -4.3870   21.4330  -31.0080 C   0  0  0  0  0  0  0  0  0  0  0  0
   -4.9750   22.7030  -30.7520 C   0  0  0  0  0  0  0  0  0  0  0  0
   -4.2060   23.8030  -30.3030 C   0  0  0  0  0  0  0  0  0  0  0  0
   -4.7790   25.0590  -30.1150 C   0  0  0  0  0  0  0  0  0  0  0  0
   -6.1280   25.2510  -30.3710 C   0  0  0  0  0  0  0  0  0  0  0  0
   -6.9210   24.1770  -30.7680 C   0  0  0  0  0  0  0  0  0  0  0  0
   -6.3730   22.8770  -30.9160 C   0  0  0  0  0  0  0  0  0  0  0  0
   -7.1740   21.7880  -31.1710 N   0  0  0  0  0  0  0  0  0  0  0  0
   -8.6290   21.8710  -30.9080 C   0  0  0  0  0  0  0  0  0  0  0  0
   -6.6170   20.6130  -31.6320 C   0  0  0  0  0  0  0  0  0  0  0  0
   -7.4410   19.5760  -32.1350 C   0  0  0  0  0  0  0  0  0  0  0  0
   -6.9050   18.3730  -32.5630 C   0  0  0  0  0  0  0  0  0  0  0  0
   -5.5340   18.1940  -32.5860 C   0  0  0  0  0  0  0  0  0  0  0  0
   -4.6680   19.2140  -32.1680 C   0  0  0  0  0  0  0  0  0  0  0  0
   -3.2860   19.0890  -32.5250 N   0  0  0  0  0  0  0  0  0  0  0  0
   -2.7840   19.4800  -33.8440 C   0  0  0  0  0  0  0  0  0  0  0  0
   -1.5420   18.6410  -34.2150 C   0  0  0  0  0  0  0  0  0  0  0  0
   -1.7900   17.1760  -34.3790 N   0  0  0  0  0  0  0  0  0  0  0  0
   -3.1790   16.9030  -34.8220 C   0  0  0  0  0  0  0  0  0  0  0  0
   -0.8320   16.5780  -35.3420 C   0  0  0  0  0  0  0  0  0  0  0  0
   -1.5870   16.5260  -33.0610 C   0  0  0  0  0  0  0  0  0  0  0  0
   -5.1980   20.4230  -31.6140 C   0  0  0  0  0  0  0  0  0  0  0  0
   -2.4181   22.6386  -26.3659 H   0  0  0  0  0  0  0  0  0  0  0  0
   -2.1446   23.6090  -27.8526 H   0  0  0  0  0  0  0  0  0  0  0  0
   -3.3641   22.2901  -27.8526 H   0  0  0  0  0  0  0  0  0  0  0  0
   -0.8363   22.0064  -28.8279 H   0  0  0  0  0  0  0  0  0  0  0  0
   -0.6002   21.5112  -27.0820 H   0  0  0  0  0  0  0  0  0  0  0  0
   -3.5148   20.8347  -27.0827 H   0  0  0  0  0  0  0  0  0  0  0  0
   -3.7262   19.4010  -28.2153 H   0  0  0  0  0  0  0  0  0  0  0  0
   -2.9995   19.4617  -25.3625 H   0  0  0  0  0  0  0  0  0  0  0  0
   -3.6734   18.1400  -26.3753 H   0  0  0  0  0  0  0  0  0  0  0  0
   -1.9057   18.4595  -26.3753 H   0  0  0  0  0  0  0  0  0  0  0  0
    0.0043   19.4599  -27.5377 H   0  0  0  0  0  0  0  0  0  0  0  0
   -1.2478   18.2483  -28.0417 H   0  0  0  0  0  0  0  0  0  0  0  0
    0.6919   19.8319  -29.7250 H   0  0  0  0  0  0  0  0  0  0  0  0
    0.2052   18.1009  -29.8290 H   0  0  0  0  0  0  0  0  0  0  0  0
    0.0813   21.1351  -30.7139 H   0  0  0  0  0  0  0  0  0  0  0  0
   -0.4346   20.4714  -32.3063 H   0  0  0  0  0  0  0  0  0  0  0  0
   -1.6274   22.6086  -30.8933 H   0  0  0  0  0  0  0  0  0  0  0  0
   -2.3032   21.7169  -32.3226 H   0  0  0  0  0  0  0  0  0  0  0  0
   -3.0250   21.5420  -29.4960 H   0  0  0  0  0  0  0  0  0  0  0  0
   -2.9550   20.1040  -30.2910 H   0  0  0  0  0  0  0  0  0  0  0  0
   -3.1343   23.6635  -30.0983 H   0  0  0  0  0  0  0  0  0  0  0  0
   -4.1610   25.8984  -29.7634 H   0  0  0  0  0  0  0  0  0  0  0  0
   -6.5719   26.2514  -30.2606 H   0  0  0  0  0  0  0  0  0  0  0  0
   -7.9900   24.3396  -30.9701 H   0  0  0  0  0  0  0  0  0  0  0  0
   -8.8054   21.8811  -29.8223 H   0  0  0  0  0  0  0  0  0  0  0  0
   -9.0300   22.7935  -31.3532 H   0  0  0  0  0  0  0  0  0  0  0  0
   -9.1323   21.0001  -31.3532 H   0  0  0  0  0  0  0  0  0  0  0  0
   -8.5290   19.7296  -32.1866 H   0  0  0  0  0  0  0  0  0  0  0  0
   -7.5707   17.5587  -32.8851 H   0  0  0  0  0  0  0  0  0  0  0  0
   -5.1174   17.2384  -32.9370 H   0  0  0  0  0  0  0  0  0  0  0  0
   -2.6090   19.1010  -31.7290 H   0  0  0  0  0  0  0  0  0  0  0  0
   -3.5706   19.3154  -34.5951 H   0  0  0  0  0  0  0  0  0  0  0  0
   -2.5032   20.5433  -33.8192 H   0  0  0  0  0  0  0  0  0  0  0  0
   -1.1417   19.0268  -35.1642 H   0  0  0  0  0  0  0  0  0  0  0  0
   -0.8433   18.7400  -33.3712 H   0  0  0  0  0  0  0  0  0  0  0  0
   -3.8263   16.7758  -33.9417 H   0  0  0  0  0  0  0  0  0  0  0  0
   -3.5436   17.7467  -35.4264 H   0  0  0  0  0  0  0  0  0  0  0  0
   -3.1972   15.9841  -35.4264 H   0  0  0  0  0  0  0  0  0  0  0  0
   -0.0245   16.0739  -34.7908 H   0  0  0  0  0  0  0  0  0  0  0  0
   -1.3563   15.8465  -35.9745 H   0  0  0  0  0  0  0  0  0  0  0  0
   -0.4052   17.3703  -35.9745 H   0  0  0  0  0  0  0  0  0  0  0  0
   -1.8115   17.2448  -32.2592 H   0  0  0  0  0  0  0  0  0  0  0  0
   -2.2568   15.6579  -32.9733 H   0  0  0  0  0  0  0  0  0  0  0  0
   -0.5422   16.1933  -32.9733 H   0  0  0  0  0  0  0  0  0  0  0  0
  1  2  1  0
  2  3  1  0
  3  4  1  0
  4  5  1  0
  3  6  1  0
  6  7  1  0
  7  8  1  0
  8  9  1  0
  9 10  1  0
 10 11  1  0
 11 12  1  0
 12 13  2  0
 13 14  1  0
 14 15  2  0
 15 16  1  0
 16 17  2  0
 17 18  1  0
 18 19  2  0
 19 20  1  0
 19 21  1  0
 21 22  2  0
 22 23  1  0
 23 24  2  0
 24 25  1  0
 25 26  1  0
 26 27  1  0
 27 28  1  0
 28 29  1  0
 29 30  1  0
 29 31  1  0
 29 32  1  0
 25 33  2  0
 33 12  1  0
 18 13  1  0
 33 21  1  0
  1 34  1  0
  1 35  1  0
  1 36  1  0
  2 37  1  0
  2 38  1  0
  4 39  1  0
  4 40  1  0
  5 41  1  0
  5 42  1  0
  5 43  1  0
  6 44  1  0
  6 45  1  0
  7 46  1  0
  7 47  1  0
  9 48  1  0
  9 49  1  0
 10 50  1  0
 10 51  1  0
 11 52  1  0
 11 53  1  0
 14 54  1  0
 15 55  1  0
 16 56  1  0
 17 57  1  0
 20 58  1  0
 20 59  1  0
 20 60  1  0
 22 61  1  0
 23 62  1  0
 24 63  1  0
 26 64  1  0
 27 65  1  0
 27 66  1  0
 28 67  1  0
 28 68  1  0
 30 69  1  0
 30 70  1  0
 30 71  1  0
 31 72  1  0
 31 73  1  0
 31 74  1  0
 32 75  1  0
 32 76  1  0
 32 77  1  0
M  CHG  3  11   1  19   1  29   1
M  END
>  <UniqueID>  (15) 
15

>  <SMILES>  (15) 
CCN(CC)CCOCC[NH2+]c1c2ccccc2[n+](C)c2cccc(NCC[N+](C)(C)C)c12

>  <Energy>  (15) 
127.42034932339547

>  <Genealogy>  (15) 
CCN(CC)CCOCC[NH2+]c1c2ccccc2[n+](C)c2cccc(NCC[N+](C)(C)C)c12 (protonated)
CCN(CC)CCOCC[NH2+]c1c2ccccc2[n+](C)c2cccc(NCC[N+](C)(C)C)c12 (3D coordinates assigned)
CCN(CC)CCOCC[NH2+]c1c2ccccc2[n+](C)c2cccc(NCC[N+](C)(C)C)c12 (optimized conformer: 127.42034932339547 kcal/mol)

>  <smiles>  (15) 
CCN(CC)CCOCCNc1c2ccccc2[n+](C)c2cccc(NCC[N+](C)(C)C)c12

>  <score_type>  (15) 
oracle

>  <origin>  (15) 
adg

>  <m_score__min__energy>  (15) 
-6.25

>  <m_primary>  (15) 
energy

$$$$
15:0
     RDKit          3D

 40 42  0  0  0  0  0  0  0  0999 V2000
   -7.3940   23.0590  -29.7150 C   0  0  0  0  0  0  0  0  0  0  0  0
   -6.5530   22.7560  -30.8710 N   0  0  0  0  0  0  0  0  0  0  0  0
   -6.3650   21.5360  -31.3470 N   0  0  0  0  0  0  0  0  0  0  0  0
   -5.4390   21.5900  -32.3270 C   0  0  0  0  0  0  0  0  0  0  0  0
   -4.9020   20.4100  -33.0470 C   0  0  0  0  0  0  0  0  0  0  0  0
   -5.7710   19.4820  -33.6540 C   0  0  0  0  0  0  0  0  0  0  0  0
   -5.2590   18.3800  -34.3460 C   0  0  0  0  0  0  0  0  0  0  0  0
   -3.8790   18.1880  -34.4400 C   0  0  0  0  0  0  0  0  0  0  0  0
   -3.3870   17.1190  -35.1110 F   0  0  0  0  0  0  0  0  0  0  0  0
   -3.0080   19.0990  -33.8380 C   0  0  0  0  0  0  0  0  0  0  0  0
   -3.5130   20.2040  -33.1470 C   0  0  0  0  0  0  0  0  0  0  0  0
   -5.0210   22.9060  -32.4750 C   0  0  0  0  0  0  0  0  0  0  0  0
   -5.7390   23.6110  -31.5260 C   0  0  0  0  0  0  0  0  0  0  0  0
   -5.5270   25.0570  -31.1740 C   0  0  0  0  0  0  0  0  0  0  0  0
   -4.2040   25.2580  -30.5620 N   0  0  0  0  0  0  0  0  0  0  0  0
   -4.0380   24.5020  -29.3080 C   0  0  0  0  0  0  0  0  0  0  0  0
   -3.2970   23.2170  -29.5490 C   0  0  0  0  0  0  0  0  0  0  0  0
   -3.4460   22.1260  -28.6780 C   0  0  0  0  0  0  0  0  0  0  0  0
   -2.7150   20.9600  -28.9100 C   0  0  0  0  0  0  0  0  0  0  0  0
   -1.8540   20.8860  -30.0060 C   0  0  0  0  0  0  0  0  0  0  0  0
   -1.7460   21.9810  -30.8650 C   0  0  0  0  0  0  0  0  0  0  0  0
   -2.4650   23.1100  -30.6220 N   0  0  0  0  0  0  0  0  0  0  0  0
   -6.8332   22.8569  -28.7905 H   0  0  0  0  0  0  0  0  0  0  0  0
   -7.6865   24.1190  -29.7421 H   0  0  0  0  0  0  0  0  0  0  0  0
   -8.2954   22.4291  -29.7421 H   0  0  0  0  0  0  0  0  0  0  0  0
   -6.8240   20.6800  -30.9630 H   0  0  0  0  0  0  0  0  0  0  0  0
   -6.8593   19.6252  -33.5831 H   0  0  0  0  0  0  0  0  0  0  0  0
   -5.9457   17.6619  -34.8180 H   0  0  0  0  0  0  0  0  0  0  0  0
   -1.9209   18.9463  -33.9080 H   0  0  0  0  0  0  0  0  0  0  0  0
   -2.8200   20.9179  -32.6779 H   0  0  0  0  0  0  0  0  0  0  0  0
   -4.2826   23.3003  -33.1887 H   0  0  0  0  0  0  0  0  0  0  0  0
   -5.5974   25.6646  -32.0882 H   0  0  0  0  0  0  0  0  0  0  0  0
   -6.2991   25.3606  -30.4517 H   0  0  0  0  0  0  0  0  0  0  0  0
   -3.4930   24.8940  -31.2370 H   0  0  0  0  0  0  0  0  0  0  0  0
   -3.4722   25.1146  -28.5906 H   0  0  0  0  0  0  0  0  0  0  0  0
   -5.0344   24.2627  -28.9080 H   0  0  0  0  0  0  0  0  0  0  0  0
   -4.1324   22.1896  -27.8208 H   0  0  0  0  0  0  0  0  0  0  0  0
   -2.8172   20.1011  -28.2305 H   0  0  0  0  0  0  0  0  0  0  0  0
   -1.2667   19.9744  -30.1909 H   0  0  0  0  0  0  0  0  0  0  0  0
   -1.0794   21.9310  -31.7386 H   0  0  0  0  0  0  0  0  0  0  0  0
  1  2  1  0
  2  3  1  0
  3  4  2  0
  4  5  1  0
  5  6  2  0
  6  7  1  0
  7  8  2  0
  8  9  1  0
  8 10  1  0
 10 11  2  0
  4 12  1  0
 12 13  2  0
 13 14  1  0
 14 15  1  0
 15 16  1  0
 16 17  1  0
 17 18  2  0
 18 19  1  0
 19 20  2  0
 20 21  1  0
 21 22  2  0
 13  2  1  0
 22 17  1  0
 11  5  1  0
  1 23  1  0
  1 24  1  0
  1 25  1  0
  3 26  1  0
  6 27  1  0
  7 28  1  0
 10 29  1  0
 11 30  1  0
 12 31  1  0
 14 32  1  0
 14 33  1  0
 15 34  1  0
 16 35  1  0
 16 36  1  0
 18 37  1  0
 19 38  1  0
 20 39  1  0
 21 40  1  0
M  CHG  1   3   1
M  END
>  <UniqueID>  (16) 
16

>  <SMILES>  (16) 
Cn1[nH+]c(-c2ccc(F)cc2)cc1CNCc1ccccn1

>  <Energy>  (16) 
70.10468906190162

>  <Genealogy>  (16) 
Cn1[nH+]c(-c2ccc(F)cc2)cc1CNCc1ccccn1 (protonated)
Cn1[nH+]c(-c2ccc(F)cc2)cc1CNCc1ccccn1 (3D coordinates assigned)
Cn1[nH+]c(-c2ccc(F)cc2)cc1CNCc1ccccn1 (optimized conformer: 70.10468906190162 kcal/mol)

>  <smiles>  (16) 
Cn1nc(-c2ccc(F)cc2)cc1CNCc1ccccn1

>  <score_type>  (16) 
oracle

>  <origin>  (16) 
adg

>  <m_score__min__energy>  (16) 
-6.9699999999999998

>  <m_primary>  (16) 
energy

$$$$
16:0
     RDKit          3D

 50 52  0  0  0  0  0  0  0  0999 V2000
   -2.5200   16.9070  -33.7390 C   0  0  0  0  0  0  0  0  0  0  0  0
   -3.6840   17.6440  -33.0700 C   0  0  0  0  0  0  0  0  0  0  0  0
   -4.2910   18.6510  -33.9550 N   0  0  0  0  0  0  0  0  0  0  0  0
   -5.2070   18.0400  -34.9290 C   0  0  0  0  0  0  0  0  0  0  0  0
   -6.0420   16.9460  -34.2520 C   0  0  0  0  0  0  0  0  0  0  0  0
   -7.1390   17.5210  -33.3410 C   0  0  0  0  0  0  0  0  0  0  0  0
   -6.8910   18.9310  -33.0030 N   0  0  0  0  0  0  0  0  0  0  0  0
   -7.8370   19.4270  -31.9960 C   0  0  0  0  0  0  0  0  0  0  0  0
   -7.4440   20.8080  -31.5630 C   0  0  0  0  0  0  0  0  0  0  0  0
   -8.2920   21.8760  -31.2920 C   0  0  0  0  0  0  0  0  0  0  0  0
   -7.5780   22.9960  -31.0270 N   0  0  0  0  0  0  0  0  0  0  0  0
   -6.2760   22.6520  -31.1390 C   0  0  0  0  0  0  0  0  0  0  0  0
   -5.1240   23.4460  -30.9890 C   0  0  0  0  0  0  0  0  0  0  0  0
   -5.1630   24.8770  -30.5960 C   0  0  0  0  0  0  0  0  0  0  0  0
   -3.9500   25.6170  -30.4660 N   0  0  0  0  0  0  0  0  0  0  0  0
   -6.2560   25.4520  -30.3550 O   0  0  0  0  0  0  0  0  0  0  0  0
   -3.8820   22.8050  -31.2180 C   0  0  0  0  0  0  0  0  0  0  0  0
   -3.8310   21.4330  -31.5810 C   0  0  0  0  0  0  0  0  0  0  0  0
   -2.5380   20.7460  -31.8080 C   0  0  0  0  0  0  0  0  0  0  0  0
   -2.0530   20.5770  -33.1200 C   0  0  0  0  0  0  0  0  0  0  0  0
   -2.7730   21.0010  -34.1890 F   0  0  0  0  0  0  0  0  0  0  0  0
   -0.8230   19.9480  -33.3410 C   0  0  0  0  0  0  0  0  0  0  0  0
   -0.0640   19.4910  -32.2630 C   0  0  0  0  0  0  0  0  0  0  0  0
   -0.5290   19.6640  -30.9580 C   0  0  0  0  0  0  0  0  0  0  0  0
   -1.7580   20.2900  -30.7250 C   0  0  0  0  0  0  0  0  0  0  0  0
   -2.1550   20.4920  -29.4430 F   0  0  0  0  0  0  0  0  0  0  0  0
   -4.9900   20.7210  -31.7010 N   0  0  0  0  0  0  0  0  0  0  0  0
   -6.1750   21.3330  -31.4780 C   0  0  0  0  0  0  0  0  0  0  0  0
   -1.8586   16.4882  -32.9662 H   0  0  0  0  0  0  0  0  0  0  0  0
   -2.9132   16.0929  -34.3656 H   0  0  0  0  0  0  0  0  0  0  0  0
   -1.9522   17.6106  -34.3656 H   0  0  0  0  0  0  0  0  0  0  0  0
   -4.4535   16.9094  -32.7901 H   0  0  0  0  0  0  0  0  0  0  0  0
   -3.2876   18.1674  -32.1874 H   0  0  0  0  0  0  0  0  0  0  0  0
   -4.8140   19.3550  -33.3820 H   0  0  0  0  0  0  0  0  0  0  0  0
   -5.8779   18.8129  -35.3321 H   0  0  0  0  0  0  0  0  0  0  0  0
   -4.6197   17.5923  -35.7443 H   0  0  0  0  0  0  0  0  0  0  0  0
   -6.5168   16.3317  -35.0312 H   0  0  0  0  0  0  0  0  0  0  0  0
   -5.3644   16.3495  -33.6234 H   0  0  0  0  0  0  0  0  0  0  0  0
   -8.1066   17.4447  -33.8585 H   0  0  0  0  0  0  0  0  0  0  0  0
   -7.1417   16.9425  -32.4054 H   0  0  0  0  0  0  0  0  0  0  0  0
   -5.9300   18.9920  -32.5910 H   0  0  0  0  0  0  0  0  0  0  0  0
   -8.8484   19.4541  -32.4277 H   0  0  0  0  0  0  0  0  0  0  0  0
   -7.8227   18.7563  -31.1242 H   0  0  0  0  0  0  0  0  0  0  0  0
   -9.3905   21.8192  -31.2927 H   0  0  0  0  0  0  0  0  0  0  0  0
   -7.9850   23.9320  -30.8150 H   0  0  0  0  0  0  0  0  0  0  0  0
   -3.4850   26.0360  -31.3010 H   0  0  0  0  0  0  0  0  0  0  0  0
   -2.9474   23.3757  -31.1136 H   0  0  0  0  0  0  0  0  0  0  0  0
   -0.4530   19.8133  -34.3681 H   0  0  0  0  0  0  0  0  0  0  0  0
    0.9011   18.9942  -32.4414 H   0  0  0  0  0  0  0  0  0  0  0  0
    0.0734   19.3067  -30.1098 H   0  0  0  0  0  0  0  0  0  0  0  0
  1  2  1  0
  2  3  1  0
  3  4  1  0
  4  5  1  0
  5  6  1  0
  6  7  1  0
  7  8  1  0
  8  9  1  0
  9 10  2  0
 10 11  1  0
 11 12  1  0
 12 13  2  0
 13 14  1  0
 14 15  1  0
 14 16  2  0
 13 17  1  0
 17 18  2  0
 18 19  1  0
 19 20  2  0
 20 21  1  0
 20 22  1  0
 22 23  2  0
 23 24  1  0
 24 25  2  0
 25 26  1  0
 18 27  1  0
 27 28  2  0
 28  9  1  0
 28 12  1  0
 25 19  1  0
  1 29  1  0
  1 30  1  0
  1 31  1  0
  2 32  1  0
  2 33  1  0
  3 34  1  0
  4 35  1  0
  4 36  1  0
  5 37  1  0
  5 38  1  0
  6 39  1  0
  6 40  1  0
  7 41  1  0
  8 42  1  0
  8 43  1  0
 10 44  1  0
 11 45  1  0
 15 46  1  0
 17 47  1  0
 22 48  1  0
 23 49  1  0
 24 50  1  0
M  CHG  1  15  -1
M  END
>  <UniqueID>  (17) 
17

>  <SMILES>  (17) 
CCNCCCNCc1c[nH]c2c(C([NH-])=O)cc(-c3c(F)cccc3F)nc12

>  <Energy>  (17) 
83.92038392451417

>  <Genealogy>  (17) 
CCNCCCNCc1c[nH]c2c(C([NH-])=O)cc(-c3c(F)cccc3F)nc12 (protonated)
CCNCCCNCc1c[nH]c2c(C([NH-])=O)cc(-c3c(F)cccc3F)nc12 (3D coordinates assigned)
CCNCCCNCc1c[nH]c2c(C([NH-])=O)cc(-c3c(F)cccc3F)nc12 (optimized conformer: 83.92038392451417 kcal/mol)

>  <smiles>  (17) 
CCNCCCNCc1c[nH]c2c(C(N)=O)cc(-c3c(F)cccc3F)nc12

>  <score_type>  (17) 
oracle

>  <origin>  (17) 
adg

>  <m_score__min__energy>  (17) 
-10.08

>  <m_primary>  (17) 
energy

$$$$
17:0
     RDKit          3D

 55 58  0  0  0  0  0  0  0  0999 V2000
   -2.5640   24.5700  -27.2070 C   0  0  0  0  0  0  0  0  0  0  0  0
   -4.0420   24.1970  -27.3210 C   0  0  0  0  0  0  0  0  0  0  0  0
   -4.4350   23.7530  -28.7450 C   0  0  0  0  0  0  0  0  0  0  0  0
   -5.4250   24.6470  -29.3790 N   0  0  0  0  0  0  0  0  0  0  0  0
   -5.5290   24.4150  -30.8300 C   0  0  0  0  0  0  0  0  0  0  0  0
   -4.5710   23.3100  -31.2960 C   0  0  0  0  0  0  0  0  0  0  0  0
   -4.9880   22.7550  -32.5840 N   0  0  0  0  0  0  0  0  0  0  0  0
   -5.5130   21.4220  -32.6740 C   0  0  0  0  0  0  0  0  0  0  0  0
   -6.8470   21.1220  -32.3100 C   0  0  0  0  0  0  0  0  0  0  0  0
   -7.6810   22.1090  -31.7480 C   0  0  0  0  0  0  0  0  0  0  0  0
   -8.9890   21.8110  -31.3760 C   0  0  0  0  0  0  0  0  0  0  0  0
   -9.4870   20.5240  -31.5420 C   0  0  0  0  0  0  0  0  0  0  0  0
   -8.6880   19.5240  -32.0970 C   0  0  0  0  0  0  0  0  0  0  0  0
   -7.3620   19.7960  -32.5150 C   0  0  0  0  0  0  0  0  0  0  0  0
   -6.5700   18.8180  -33.0990 N   0  0  0  0  0  0  0  0  0  0  0  0
   -7.1090   17.4840  -33.4240 C   0  0  0  0  0  0  0  0  0  0  0  0
   -5.2560   19.1130  -33.3530 C   0  0  0  0  0  0  0  0  0  0  0  0
   -4.3040   18.2480  -33.7830 N   0  0  0  0  0  0  0  0  0  0  0  0
   -3.1700   18.9740  -33.8440 C   0  0  0  0  0  0  0  0  0  0  0  0
   -1.9040   18.5120  -34.1950 C   0  0  0  0  0  0  0  0  0  0  0  0
   -0.8310   19.4170  -34.1430 C   0  0  0  0  0  0  0  0  0  0  0  0
   -1.0280   20.7530  -33.7250 C   0  0  0  0  0  0  0  0  0  0  0  0
    0.0860   21.6040  -33.6790 O   0  0  0  0  0  0  0  0  0  0  0  0
    1.1950   21.5240  -34.5680 C   0  0  0  0  0  0  0  0  0  0  0  0
   -2.3260   21.1900  -33.3620 C   0  0  0  0  0  0  0  0  0  0  0  0
   -3.3810   20.2790  -33.4560 C   0  0  0  0  0  0  0  0  0  0  0  0
   -4.7280   20.3730  -33.1480 C   0  0  0  0  0  0  0  0  0  0  0  0
   -2.2845   24.6405  -26.1455 H   0  0  0  0  0  0  0  0  0  0  0  0
   -1.9522   23.7981  -27.6968 H   0  0  0  0  0  0  0  0  0  0  0  0
   -2.3917   25.5398  -27.6968 H   0  0  0  0  0  0  0  0  0  0  0  0
   -4.2516   23.3718  -26.6245 H   0  0  0  0  0  0  0  0  0  0  0  0
   -4.6310   25.0936  -27.0778 H   0  0  0  0  0  0  0  0  0  0  0  0
   -3.5291   23.7358  -29.3687 H   0  0  0  0  0  0  0  0  0  0  0  0
   -4.8975   22.7584  -28.6621 H   0  0  0  0  0  0  0  0  0  0  0  0
   -6.3580   24.4480  -28.9470 H   0  0  0  0  0  0  0  0  0  0  0  0
   -5.1940   25.6460  -29.1830 H   0  0  0  0  0  0  0  0  0  0  0  0
   -6.5604   24.1182  -31.0710 H   0  0  0  0  0  0  0  0  0  0  0  0
   -5.2571   25.3467  -31.3476 H   0  0  0  0  0  0  0  0  0  0  0  0
   -3.5600   23.7313  -31.3975 H   0  0  0  0  0  0  0  0  0  0  0  0
   -4.5822   22.5023  -30.5493 H   0  0  0  0  0  0  0  0  0  0  0  0
   -4.6720   23.2330  -33.4580 H   0  0  0  0  0  0  0  0  0  0  0  0
   -7.2936   23.1280  -31.6013 H   0  0  0  0  0  0  0  0  0  0  0  0
   -9.6303   22.5964  -30.9494 H   0  0  0  0  0  0  0  0  0  0  0  0
  -10.5173   20.2925  -31.2339 H   0  0  0  0  0  0  0  0  0  0  0  0
   -9.0941   18.5082  -32.2119 H   0  0  0  0  0  0  0  0  0  0  0  0
   -7.3286   16.9405  -32.4932 H   0  0  0  0  0  0  0  0  0  0  0  0
   -8.0329   17.5948  -34.0106 H   0  0  0  0  0  0  0  0  0  0  0  0
   -6.3674   16.9219  -34.0106 H   0  0  0  0  0  0  0  0  0  0  0  0
   -4.3810   17.2260  -33.9780 H   0  0  0  0  0  0  0  0  0  0  0  0
   -1.7487   17.4678  -34.5042 H   0  0  0  0  0  0  0  0  0  0  0  0
    0.1761   19.0816  -34.4314 H   0  0  0  0  0  0  0  0  0  0  0  0
    2.1266   21.4568  -33.9870 H   0  0  0  0  0  0  0  0  0  0  0  0
    1.0930   20.6309  -35.2020 H   0  0  0  0  0  0  0  0  0  0  0  0
    1.2223   22.4225  -35.2020 H   0  0  0  0  0  0  0  0  0  0  0  0
   -2.4985   22.2196  -33.0153 H   0  0  0  0  0  0  0  0  0  0  0  0
  1  2  1  0
  2  3  1  0
  3  4  1  0
  4  5  1  0
  5  6  1  0
  6  7  1  0
  7  8  1  0
  8  9  2  0
  9 10  1  0
 10 11  2  0
 11 12  1  0
 12 13  2  0
 13 14  1  0
 14 15  2  0
 15 16  1  0
 15 17  1  0
 17 18  1  0
 18 19  1  0
 19 20  2  0
 20 21  1  0
 21 22  2  0
 22 23  1  0
 23 24  1  0
 22 25  1  0
 25 26  2  0
 26 27  1  0
 27  8  1  0
 14  9  1  0
 27 17  2  0
 26 19  1  0
  1 28  1  0
  1 29  1  0
  1 30  1  0
  2 31  1  0
  2 32  1  0
  3 33  1  0
  3 34  1  0
  4 35  1  0
  4 36  1  0
  5 37  1  0
  5 38  1  0
  6 39  1  0
  6 40  1  0
  7 41  1  0
 10 42  1  0
 11 43  1  0
 12 44  1  0
 13 45  1  0
 16 46  1  0
 16 47  1  0
 16 48  1  0
 18 49  1  0
 20 50  1  0
 21 51  1  0
 24 52  1  0
 24 53  1  0
 24 54  1  0
 25 55  1  0
M  CHG  2   4   1  15   1
M  END
>  <UniqueID>  (18) 
18

>  <SMILES>  (18) 
CCC[NH2+]CCNc1c2ccccc2[n+](C)c2[nH]c3ccc(OC)cc3c12

>  <Energy>  (18) 
108.48222111555957

>  <Genealogy>  (18) 
CCC[NH2+]CCNc1c2ccccc2[n+](C)c2[nH]c3ccc(OC)cc3c12 (protonated)
CCC[NH2+]CCNc1c2ccccc2[n+](C)c2[nH]c3ccc(OC)cc3c12 (3D coordinates assigned)
CCC[NH2+]CCNc1c2ccccc2[n+](C)c2[nH]c3ccc(OC)cc3c12 (optimized conformer: 108.48222111555957 kcal/mol)

>  <smiles>  (18) 
CCCNCCNc1c2ccccc2[n+](C)c2[nH]c3ccc(OC)cc3c12

>  <score_type>  (18) 
oracle

>  <origin>  (18) 
adg

>  <m_score__min__energy>  (18) 
-7.7699999999999996

>  <m_primary>  (18) 
energy

$$$$
18:0
     RDKit          3D

 34 33  0  0  0  0  0  0  0  0999 V2000
   -8.9026   23.2729  -31.6064 H   0  0  0  0  0  0  0  0  0  0  0  0
   -7.8510   22.9510  -31.6290 C   0  0  0  0  0  0  0  0  0  0  0  0
   -7.5670   21.5680  -31.9180 C   0  0  0  0  0  0  0  0  0  0  0  0
   -7.3550   20.3970  -32.1200 C   0  0  0  0  0  0  0  0  0  0  0  0
   -7.0700   18.9790  -32.4090 C   0  0  0  0  0  0  0  0  0  0  0  0
   -6.0660   18.4440  -31.3750 C   0  0  0  0  0  0  0  0  0  0  0  0
   -6.4421   18.6444  -30.3609 H   0  0  0  0  0  0  0  0  0  0  0  0
   -5.9411   17.3597  -31.5121 H   0  0  0  0  0  0  0  0  0  0  0  0
   -5.0964   18.9450  -31.5121 H   0  0  0  0  0  0  0  0  0  0  0  0
   -6.4680   18.8720  -33.8200 C   0  0  0  0  0  0  0  0  0  0  0  0
   -5.3876   18.6800  -33.7441 H   0  0  0  0  0  0  0  0  0  0  0  0
   -6.9501   18.0455  -34.3626 H   0  0  0  0  0  0  0  0  0  0  0  0
   -6.6357   19.8140  -34.3626 H   0  0  0  0  0  0  0  0  0  0  0  0
   -8.3770   18.1710  -32.3420 C   0  0  0  0  0  0  0  0  0  0  0  0
   -8.6502   18.0021  -31.2899 H   0  0  0  0  0  0  0  0  0  0  0  0
   -9.1801   18.7304  -32.8441 H   0  0  0  0  0  0  0  0  0  0  0  0
   -8.2355   17.2025  -32.8441 H   0  0  0  0  0  0  0  0  0  0  0  0
   -6.9050   23.8630  -31.3870 C   0  0  0  0  0  0  0  0  0  0  0  0
   -7.2247   24.8570  -31.0408 H   0  0  0  0  0  0  0  0  0  0  0  0
   -5.4280   23.6170  -31.5580 C   0  0  0  0  0  0  0  0  0  0  0  0
   -5.1831   23.6471  -32.6300 H   0  0  0  0  0  0  0  0  0  0  0  0
   -5.1918   22.6326  -31.1278 H   0  0  0  0  0  0  0  0  0  0  0  0
   -4.6190   24.6360  -30.8520 N   0  0  0  0  0  0  0  0  0  0  0  0
   -5.4960   25.6150  -30.1810 C   0  0  0  0  0  0  0  0  0  0  0  0
   -5.3993   25.5070  -29.0906 H   0  0  0  0  0  0  0  0  0  0  0  0
   -5.2022   26.6331  -30.4761 H   0  0  0  0  0  0  0  0  0  0  0  0
   -6.5402   25.4346  -30.4761 H   0  0  0  0  0  0  0  0  0  0  0  0
   -3.7370   23.9950  -29.8500 C   0  0  0  0  0  0  0  0  0  0  0  0
   -2.7475   24.4745  -29.8814 H   0  0  0  0  0  0  0  0  0  0  0  0
   -3.6516   22.9246  -30.0889 H   0  0  0  0  0  0  0  0  0  0  0  0
   -4.3180   24.1380  -28.4460 C   0  0  0  0  0  0  0  0  0  0  0  0
   -3.5312   23.9443  -27.7021 H   0  0  0  0  0  0  0  0  0  0  0  0
   -4.7061   25.1585  -28.3120 H   0  0  0  0  0  0  0  0  0  0  0  0
   -5.1354   23.4142  -28.3120 H   0  0  0  0  0  0  0  0  0  0  0  0
  1  2  1  0
  2  3  1  0
  3  4  3  0
  4  5  1  0
  5  6  1  0
  6  7  1  0
  6  8  1  0
  6  9  1  0
  5 10  1  0
 10 11  1  0
 10 12  1  0
 10 13  1  0
  5 14  1  0
 14 15  1  0
 14 16  1  0
 14 17  1  0
  2 18  2  0
 18 19  1  0
 18 20  1  0
 20 21  1  0
 20 22  1  0
 20 23  1  0
 23 24  1  0
 24 25  1  0
 24 26  1  0
 24 27  1  0
 23 28  1  0
 28 29  1  0
 28 30  1  0
 28 31  1  0
 31 32  1  0
 31 33  1  0
 31 34  1  0
M  END
>  <UniqueID>  (19) 
19

>  <SMILES>  (19) 
CCN(C)C/C=C\C#CC(C)(C)C

>  <Energy>  (19) 
15.561666274720626

>  <Genealogy>  (19) 
CCN(C)C/C=C\C#CC(C)(C)C (cis-trans isomerization)
CCN(C)C/C=C\C#CC(C)(C)C (3D coordinates assigned)
CCN(C)C/C=C\C#CC(C)(C)C (optimized conformer: 15.561666274720626 kcal/mol)

>  <smiles>  (19) 
CCN(C)CC=CC#CC(C)(C)C

>  <score_type>  (19) 
oracle

>  <origin>  (19) 
adg

>  <m_score__min__energy>  (19) 
-5.2699999999999996

>  <m_primary>  (19) 
energy

$$$$
19:0
     RDKit          3D

 51 52  0  0  0  0  0  0  0  0999 V2000
   -2.4360   24.8900  -26.9550 C   0  0  0  0  0  0  0  0  0  0  0  0
   -1.2870   25.3490  -27.8430 C   0  0  0  0  0  0  0  0  0  0  0  0
   -1.5190   24.9080  -29.2250 N   0  0  0  0  0  0  0  0  0  0  0  0
   -2.3510   23.6940  -29.2950 C   0  0  0  0  0  0  0  0  0  0  0  0
   -3.7780   23.9620  -29.8060 C   0  0  0  0  0  0  0  0  0  0  0  0
   -3.8720   25.2310  -30.4290 O   0  0  0  0  0  0  0  0  0  0  0  0
   -5.2070   25.5330  -30.7910 C   0  0  0  0  0  0  0  0  0  0  0  0
   -6.1810   24.8700  -29.8090 C   0  0  0  0  0  0  0  0  0  0  0  0
   -7.0860   23.8270  -30.4810 C   0  0  0  0  0  0  0  0  0  0  0  0
   -6.9350   23.8140  -32.0160 C   0  0  0  0  0  0  0  0  0  0  0  0
   -7.3790   22.5390  -32.6100 N   0  0  0  0  0  0  0  0  0  0  0  0
   -7.2350   21.4070  -31.6780 C   0  0  0  0  0  0  0  0  0  0  0  0
   -6.5430   20.2380  -32.3600 C   0  0  0  0  0  0  0  0  0  0  0  0
   -7.2590   19.0350  -32.5820 C   0  0  0  0  0  0  0  0  0  0  0  0
   -9.0760   18.7820  -32.0070 Br  0  0  0  0  0  0  0  0  0  0  0  0
   -6.6500   17.9590  -33.2290 C   0  0  0  0  0  0  0  0  0  0  0  0
   -5.3270   18.0370  -33.6480 C   0  0  0  0  0  0  0  0  0  0  0  0
   -4.5770   19.1930  -33.4060 C   0  0  0  0  0  0  0  0  0  0  0  0
   -3.2340   19.2450  -33.8110 C   0  0  0  0  0  0  0  0  0  0  0  0
   -2.4650   20.3790  -33.5570 C   0  0  0  0  0  0  0  0  0  0  0  0
   -3.0250   21.4680  -32.8930 C   0  0  0  0  0  0  0  0  0  0  0  0
   -4.3610   21.4360  -32.4860 C   0  0  0  0  0  0  0  0  0  0  0  0
   -5.1700   20.3040  -32.7450 C   0  0  0  0  0  0  0  0  0  0  0  0
   -2.1511   25.0038  -25.8987 H   0  0  0  0  0  0  0  0  0  0  0  0
   -3.3266   25.5014  -27.1625 H   0  0  0  0  0  0  0  0  0  0  0  0
   -2.6602   23.8333  -27.1625 H   0  0  0  0  0  0  0  0  0  0  0  0
   -1.2208   26.4467  -27.8162 H   0  0  0  0  0  0  0  0  0  0  0  0
   -0.3469   24.9118  -27.4753 H   0  0  0  0  0  0  0  0  0  0  0  0
   -1.9780   25.6810  -29.7620 H   0  0  0  0  0  0  0  0  0  0  0  0
   -1.8660   22.9771  -29.9739 H   0  0  0  0  0  0  0  0  0  0  0  0
   -2.4401   23.3009  -28.2715 H   0  0  0  0  0  0  0  0  0  0  0  0
   -4.0496   23.1841  -30.5347 H   0  0  0  0  0  0  0  0  0  0  0  0
   -4.4635   23.9459  -28.9458 H   0  0  0  0  0  0  0  0  0  0  0  0
   -5.3527   26.6231  -30.7681 H   0  0  0  0  0  0  0  0  0  0  0  0
   -5.4010   25.1512  -31.8042 H   0  0  0  0  0  0  0  0  0  0  0  0
   -5.5993   24.3734  -29.0185 H   0  0  0  0  0  0  0  0  0  0  0  0
   -6.8305   25.6595  -29.4030 H   0  0  0  0  0  0  0  0  0  0  0  0
   -6.8253   22.8314  -30.0926 H   0  0  0  0  0  0  0  0  0  0  0  0
   -8.1285   24.0914  -30.2503 H   0  0  0  0  0  0  0  0  0  0  0  0
   -7.5392   24.6306  -32.4381 H   0  0  0  0  0  0  0  0  0  0  0  0
   -5.8680   23.9419  -32.2509 H   0  0  0  0  0  0  0  0  0  0  0  0
   -8.3710   22.6210  -32.9330 H   0  0  0  0  0  0  0  0  0  0  0  0
   -6.7830   22.3520  -33.4510 H   0  0  0  0  0  0  0  0  0  0  0  0
   -6.6369   21.7258  -30.8116 H   0  0  0  0  0  0  0  0  0  0  0  0
   -8.2354   21.0861  -31.3521 H   0  0  0  0  0  0  0  0  0  0  0  0
   -7.2238   17.0381  -33.4096 H   0  0  0  0  0  0  0  0  0  0  0  0
   -4.8676   17.1860  -34.1722 H   0  0  0  0  0  0  0  0  0  0  0  0
   -2.7861   18.3858  -34.3318 H   0  0  0  0  0  0  0  0  0  0  0  0
   -1.4145   20.4143  -33.8812 H   0  0  0  0  0  0  0  0  0  0  0  0
   -2.4119   22.3580  -32.6880 H   0  0  0  0  0  0  0  0  0  0  0  0
   -4.7892   22.3008  -31.9580 H   0  0  0  0  0  0  0  0  0  0  0  0
  1  2  1  0
  2  3  1  0
  3  4  1  0
  4  5  1  0
  5  6  1  0
  6  7  1  0
  7  8  1  0
  8  9  1  0
  9 10  1  0
 10 11  1  0
 11 12  1  0
 12 13  1  0
 13 14  2  0
 14 15  1  0
 14 16  1  0
 16 17  2  0
 17 18  1  0
 18 19  2  0
 19 20  1  0
 20 21  2  0
 21 22  1  0
 22 23  2  0
 23 13  1  0
 23 18  1  0
  1 24  1  0
  1 25  1  0
  1 26  1  0
  2 27  1  0
  2 28  1  0
  3 29  1  0
  4 30  1  0
  4 31  1  0
  5 32  1  0
  5 33  1  0
  7 34  1  0
  7 35  1  0
  8 36  1  0
  8 37  1  0
  9 38  1  0
  9 39  1  0
 10 40  1  0
 10 41  1  0
 11 42  1  0
 11 43  1  0
 12 44  1  0
 12 45  1  0
 16 46  1  0
 17 47  1  0
 19 48  1  0
 20 49  1  0
 21 50  1  0
 22 51  1  0
M  CHG  1  11   1
M  END
>  <UniqueID>  (20) 
20

>  <SMILES>  (20) 
CCNCCOCCCC[NH2+]Cc1c(Br)ccc2ccccc12

>  <Energy>  (20) 
53.20481906519821

>  <Genealogy>  (20) 
CCNCCOCCCC[NH2+]Cc1c(Br)ccc2ccccc12 (protonated)
CCNCCOCCCC[NH2+]Cc1c(Br)ccc2ccccc12 (3D coordinates assigned)
CCNCCOCCCC[NH2+]Cc1c(Br)ccc2ccccc12 (optimized conformer: 53.20481906519821 kcal/mol)

>  <smiles>  (20) 
CCNCCOCCCCNCc1c(Br)ccc2ccccc12

>  <score_type>  (20) 
oracle

>  <origin>  (20) 
adg

>  <m_score__min__energy>  (20) 
-8.25

>  <m_primary>  (20) 
energy

$$$$
20:0
     RDKit          3D

 92 96  0  0  0  0  0  0  0  0999 V2000
   -3.2770   23.0410  -29.7770 C   0  0  0  0  0  0  0  0  0  0  0  0
   -3.4940   24.5310  -30.0240 C   0  0  0  0  0  0  0  0  0  0  0  0
   -4.3720   24.7260  -31.1880 N   0  0  0  0  0  0  0  0  0  0  0  0
   -5.7900   24.7200  -30.7930 C   0  0  0  0  0  0  0  0  0  0  0  0
   -6.4480   23.3900  -31.1810 C   0  0  0  0  0  0  0  0  0  0  0  0
   -5.8690   22.8620  -32.4150 N   0  0  0  0  0  0  0  0  0  0  0  0
   -5.6790   21.4520  -32.6170 C   0  0  0  0  0  0  0  0  0  0  0  0
   -4.4480   20.9540  -33.0400 C   0  0  0  0  0  0  0  0  0  0  0  0
   -4.2470   19.5980  -33.2010 C   0  0  0  0  0  0  0  0  0  0  0  0
   -5.2170   18.6740  -32.8920 N   0  0  0  0  0  0  0  0  0  0  0  0
   -4.8660   17.2510  -32.7800 C   0  0  0  0  0  0  0  0  0  0  0  0
   -6.4990   19.1330  -32.6210 C   0  0  0  0  0  0  0  0  0  0  0  0
   -7.5630   18.2680  -32.5210 N   0  0  0  0  0  0  0  0  0  0  0  0
   -8.8110   18.6930  -32.1940 C   0  0  0  0  0  0  0  0  0  0  0  0
   -9.0630   20.0420  -31.9720 C   0  0  0  0  0  0  0  0  0  0  0  0
   -8.0330   20.9650  -32.1200 C   0  0  0  0  0  0  0  0  0  0  0  0
   -6.7370   20.5340  -32.4550 C   0  0  0  0  0  0  0  0  0  0  0  0
   -2.8790   19.4390  -33.7230 C   0  0  0  0  0  0  0  0  0  0  0  0
   -2.1770   18.2830  -34.1190 C   0  0  0  0  0  0  0  0  0  0  0  0
   -0.8550   18.4430  -34.5660 C   0  0  0  0  0  0  0  0  0  0  0  0
   -0.3030   19.7080  -34.6660 C   0  0  0  0  0  0  0  0  0  0  0  0
   -1.0370   20.8420  -34.3080 C   0  0  0  0  0  0  0  0  0  0  0  0
   -0.5360   21.9960  -34.4000 O   0  0  0  0  0  0  0  0  0  0  0  0
   -2.3060   20.6660  -33.8480 N   0  0  0  0  0  0  0  0  0  0  0  0
   -3.2220   21.7230  -33.4300 C   0  0  0  0  0  0  0  0  0  0  0  0
    1.1040   19.6760  -35.1150 C   0  0  0  0  0  0  0  0  0  0  0  0
    1.3140   18.2060  -35.5050 C   0  0  0  0  0  0  0  0  0  0  0  0
    0.1610   17.3760  -34.8680 C   0  0  1  0  0  0  0  0  0  0  0  0
    0.6310   16.6950  -33.5500 C   0  0  0  0  0  0  0  0  0  0  0  0
    2.1510   16.6420  -33.3760 C   0  0  0  0  0  0  0  0  0  0  0  0
   -0.3080   16.4350  -35.8530 O   0  0  0  0  0  0  0  0  0  0  0  0
   -0.1690   15.0370  -35.8500 C   0  0  0  0  0  0  0  0  0  0  0  0
    0.8380   14.4710  -36.3520 O   0  0  0  0  0  0  0  0  0  0  0  0
   -1.2560   14.2100  -35.2240 C   0  0  0  0  0  0  0  0  0  0  0  0
   -2.2920   14.9910  -34.6510 O   0  0  0  0  0  0  0  0  0  0  0  0
   -2.2490   14.9820  -33.2320 C   0  0  0  0  0  0  0  0  0  0  0  0
   -1.4620   13.7950  -32.6700 C   0  0  0  0  0  0  0  0  0  0  0  0
   -0.1410   14.1940  -32.3730 O   0  0  0  0  0  0  0  0  0  0  0  0
    0.0560   14.1520  -30.9730 C   0  0  0  0  0  0  0  0  0  0  0  0
    0.7520   15.4350  -30.5000 C   0  0  0  0  0  0  0  0  0  0  0  0
   -0.0210   16.6060  -30.7040 O   0  0  0  0  0  0  0  0  0  0  0  0
    0.5780   17.7670  -30.1500 C   0  0  0  0  0  0  0  0  0  0  0  0
    0.5320   18.9780  -31.0910 C   0  0  0  0  0  0  0  0  0  0  0  0
   -0.8150   19.3120  -31.3640 O   0  0  0  0  0  0  0  0  0  0  0  0
   -1.1190   20.5570  -30.7770 C   0  0  0  0  0  0  0  0  0  0  0  0
   -3.2490   22.8491  -28.6942 H   0  0  0  0  0  0  0  0  0  0  0  0
   -4.1015   22.4704  -30.2294 H   0  0  0  0  0  0  0  0  0  0  0  0
   -2.3240   22.7293  -30.2294 H   0  0  0  0  0  0  0  0  0  0  0  0
   -3.9604   24.9832  -29.1363 H   0  0  0  0  0  0  0  0  0  0  0  0
   -2.5231   25.0094  -30.2202 H   0  0  0  0  0  0  0  0  0  0  0  0
   -4.1550   25.6670  -31.5940 H   0  0  0  0  0  0  0  0  0  0  0  0
   -5.8634   24.8565  -29.7040 H   0  0  0  0  0  0  0  0  0  0  0  0
   -6.3084   25.5393  -31.3126 H   0  0  0  0  0  0  0  0  0  0  0  0
   -6.2941   22.6621  -30.3707 H   0  0  0  0  0  0  0  0  0  0  0  0
   -7.5221   23.5633  -31.3428 H   0  0  0  0  0  0  0  0  0  0  0  0
   -5.7270   23.5130  -33.2200 H   0  0  0  0  0  0  0  0  0  0  0  0
   -4.7974   16.9728  -31.7180 H   0  0  0  0  0  0  0  0  0  0  0  0
   -5.6410   16.6426  -33.2691 H   0  0  0  0  0  0  0  0  0  0  0  0
   -3.8970   17.0728  -33.2691 H   0  0  0  0  0  0  0  0  0  0  0  0
   -7.4680   17.2550  -32.7430 H   0  0  0  0  0  0  0  0  0  0  0  0
   -9.6293   17.9634  -32.1041 H   0  0  0  0  0  0  0  0  0  0  0  0
  -10.0696   20.3770  -31.6814 H   0  0  0  0  0  0  0  0  0  0  0  0
   -8.2331   22.0368  -31.9744 H   0  0  0  0  0  0  0  0  0  0  0  0
   -2.6480   17.2897  -34.0794 H   0  0  0  0  0  0  0  0  0  0  0  0
   -2.8169   22.2853  -32.5758 H   0  0  0  0  0  0  0  0  0  0  0  0
   -3.4066   22.4770  -34.2094 H   0  0  0  0  0  0  0  0  0  0  0  0
    1.2576   20.3392  -35.9790 H   0  0  0  0  0  0  0  0  0  0  0  0
    1.8102   20.0237  -34.3466 H   0  0  0  0  0  0  0  0  0  0  0  0
    1.2895   18.1020  -36.5998 H   0  0  0  0  0  0  0  0  0  0  0  0
    2.2898   17.8482  -35.1448 H   0  0  0  0  0  0  0  0  0  0  0  0
    0.2065   17.2539  -32.7030 H   0  0  0  0  0  0  0  0  0  0  0  0
    0.2821   15.6527  -33.5920 H   0  0  0  0  0  0  0  0  0  0  0  0
    2.3973   16.6334  -32.3040 H   0  0  0  0  0  0  0  0  0  0  0  0
    2.5427   15.7297  -33.8495 H   0  0  0  0  0  0  0  0  0  0  0  0
    2.6053   17.5249  -33.8495 H   0  0  0  0  0  0  0  0  0  0  0  0
   -1.6934   13.5632  -35.9988 H   0  0  0  0  0  0  0  0  0  0  0  0
   -0.7972   13.6282  -34.4110 H   0  0  0  0  0  0  0  0  0  0  0  0
   -1.7739   15.9129  -32.8888 H   0  0  0  0  0  0  0  0  0  0  0  0
   -3.2840   14.8946  -32.8698 H   0  0  0  0  0  0  0  0  0  0  0  0
   -1.9498   13.4353  -31.7520 H   0  0  0  0  0  0  0  0  0  0  0  0
   -1.4381   12.9886  -33.4178 H   0  0  0  0  0  0  0  0  0  0  0  0
   -0.9185   14.0604  -30.4710 H   0  0  0  0  0  0  0  0  0  0  0  0
    0.6879   13.2867  -30.7240 H   0  0  0  0  0  0  0  0  0  0  0  0
    0.9633   15.3403  -29.4247 H   0  0  0  0  0  0  0  0  0  0  0  0
    1.6691   15.5446  -31.0974 H   0  0  0  0  0  0  0  0  0  0  0  0
    0.0474   18.0252  -29.2217 H   0  0  0  0  0  0  0  0  0  0  0  0
    1.6376   17.5336  -29.9688 H   0  0  0  0  0  0  0  0  0  0  0  0
    1.0321   19.8331  -30.6128 H   0  0  0  0  0  0  0  0  0  0  0  0
    1.0465   18.7313  -32.0315 H   0  0  0  0  0  0  0  0  0  0  0  0
   -1.0956   20.4613  -29.6814 H   0  0  0  0  0  0  0  0  0  0  0  0
   -0.3768   21.3037  -31.0958 H   0  0  0  0  0  0  0  0  0  0  0  0
   -2.1218   20.8776  -31.0958 H   0  0  0  0  0  0  0  0  0  0  0  0
  1  2  1  0
  2  3  1  0
  3  4  1  0
  4  5  1  0
  5  6  1  0
  6  7  1  0
  7  8  2  0
  8  9  1  0
  9 10  2  0
 10 11  1  0
 10 12  1  0
 12 13  2  0
 13 14  1  0
 14 15  2  0
 15 16  1  0
 16 17  2  0
  9 18  1  0
 18 19  2  0
 19 20  1  0
 20 21  2  0
 21 22  1  0
 22 23  2  0
 22 24  1  0
 24 25  1  0
 21 26  1  0
 26 27  1  0
 27 28  1  0
 28 29  1  0
 29 30  1  0
 28 31  1  6
 31 32  1  0
 32 33  2  0
 32 34  1  0
 34 35  1  0
 35 36  1  0
 36 37  1  0
 37 38  1  0
 38 39  1  0
 39 40  1  0
 40 41  1  0
 41 42  1  0
 42 43  1  0
 43 44  1  0
 44 45  1  0
 17  7  1  0
 24 18  1  0
 25  8  1  0
 17 12  1  0
 28 20  1  0
  1 46  1  0
  1 47  1  0
  1 48  1  0
  2 49  1  0
  2 50  1  0
  3 51  1  0
  4 52  1  0
  4 53  1  0
  5 54  1  0
  5 55  1  0
  6 56  1  0
 11 57  1  0
 11 58  1  0
 11 59  1  0
 13 60  1  0
 14 61  1  0
 15 62  1  0
 16 63  1  0
 19 64  1  0
 25 65  1  0
 25 66  1  0
 26 67  1  0
 26 68  1  0
 27 69  1  0
 27 70  1  0
 29 71  1  0
 29 72  1  0
 30 73  1  0
 30 74  1  0
 30 75  1  0
 34 76  1  0
 34 77  1  0
 36 78  1  0
 36 79  1  0
 37 80  1  0
 37 81  1  0
 39 82  1  0
 39 83  1  0
 40 84  1  0
 40 85  1  0
 42 86  1  0
 42 87  1  0
 43 88  1  0
 43 89  1  0
 45 90  1  0
 45 91  1  0
 45 92  1  0
M  CHG  2  10   1  13   1
M  END
>  <UniqueID>  (21) 
21

>  <SMILES>  (21) 
CCNCCNc1c2c([n+](C)c3[nH+]cccc13)-c1cc3c(c(=O)n1C2)CC[C@]3(CC)OC(=O)COCCOCCOCCOC

>  <Energy>  (21) 
154.12825241103843

>  <Genealogy>  (21) 
CCNCCNc1c2c([n+](C)c3[nH+]cccc13)-c1cc3c(c(=O)n1C2)CCC3(CC)OC(=O)COCCOCCOCCOC (protonated)
CCNCCNc1c2c([n+](C)c3[nH+]cccc13)-c1cc3c(c(=O)n1C2)CC[C@]3(CC)OC(=O)COCCOCCOCCOC (chirality)
CCNCCNc1c2c([n+](C)c3[nH+]cccc13)-c1cc3c(c(=O)n1C2)CC[C@]3(CC)OC(=O)COCCOCCOCCOC (3D coordinates assigned)
CCNCCNc1c2c([n+](C)c3[nH+]cccc13)-c1cc3c(c(=O)n1C2)CC[C@]3(CC)OC(=O)COCCOCCOCCOC (nonaromatic ring conformer: 154.12825241103843 kcal/mol)

>  <smiles>  (21) 
CCNCCNc1c2c([n+](C)c3ncccc13)-c1cc3c(c(=O)n1C2)CCC3(CC)OC(=O)COCCOCCOCCOC

>  <score_type>  (21) 
oracle

>  <origin>  (21) 
adg

>  <m_score__min__energy>  (21) 
-7.6900000000000004

>  <m_primary>  (21) 
energy

$$$$
21:0
     RDKit          3D

 78 81  0  0  0  0  0  0  0  0999 V2000
   -5.6360   21.1403  -30.6630 H   0  0  0  0  0  0  0  0  0  0  0  0
   -5.5710   22.2230  -30.4800 C   0  0  0  0  0  0  0  0  0  0  0  0
   -6.6520   23.1020  -30.5820 C   0  0  0  0  0  0  0  0  0  0  0  0
   -8.0090   22.7250  -30.8790 N   0  0  0  0  0  0  0  0  0  0  0  0
   -8.4160   22.2130  -30.0640 H   0  0  0  0  0  0  0  0  0  0  0  0
   -8.5680   23.5970  -31.0290 H   0  0  0  0  0  0  0  0  0  0  0  0
   -8.1050   21.8850  -32.0870 C   0  0  0  0  0  0  0  0  0  0  0  0
   -8.8012   22.3615  -32.7929 H   0  0  0  0  0  0  0  0  0  0  0  0
   -7.0942   21.7957  -32.5116 H   0  0  0  0  0  0  0  0  0  0  0  0
   -8.6100   20.4610  -31.7810 C   0  0  0  0  0  0  0  0  0  0  0  0
   -8.5008   20.2635  -30.7044 H   0  0  0  0  0  0  0  0  0  0  0  0
   -9.6666   20.3907  -32.0786 H   0  0  0  0  0  0  0  0  0  0  0  0
   -7.8360   19.4530  -32.5400 N   0  0  0  0  0  0  0  0  0  0  0  0
   -6.9420   18.6690  -31.6540 C   0  0  0  0  0  0  0  0  0  0  0  0
   -6.4888   19.3463  -30.9152 H   0  0  0  0  0  0  0  0  0  0  0  0
   -7.5440   17.8925  -31.1594 H   0  0  0  0  0  0  0  0  0  0  0  0
   -5.8220   17.9750  -32.4470 C   0  0  0  0  0  0  0  0  0  0  0  0
   -5.1887   17.4140  -31.7440 H   0  0  0  0  0  0  0  0  0  0  0  0
   -6.2987   17.3117  -33.1837 H   0  0  0  0  0  0  0  0  0  0  0  0
   -4.9680   18.9350  -33.1940 N   0  0  0  0  0  0  0  0  0  0  0  0
   -3.6410   19.1060  -32.5580 C   0  0  0  0  0  0  0  0  0  0  0  0
   -3.7305   19.8325  -31.7369 H   0  0  0  0  0  0  0  0  0  0  0  0
   -3.3120   18.1254  -32.1836 H   0  0  0  0  0  0  0  0  0  0  0  0
   -2.5900   19.6130  -33.5590 C   0  0  0  0  0  0  0  0  0  0  0  0
   -1.6054   19.2034  -33.2890 H   0  0  0  0  0  0  0  0  0  0  0  0
   -2.8728   19.2838  -34.5698 H   0  0  0  0  0  0  0  0  0  0  0  0
   -2.5260   21.0810  -33.5370 N   0  0  0  0  0  0  0  0  0  0  0  0
   -2.3250   21.4130  -34.5100 H   0  0  0  0  0  0  0  0  0  0  0  0
   -1.4250   21.5350  -32.6870 C   0  0  0  0  0  0  0  0  0  0  0  0
   -1.7061   21.4191  -31.6299 H   0  0  0  0  0  0  0  0  0  0  0  0
   -0.5282   20.9333  -32.8961 H   0  0  0  0  0  0  0  0  0  0  0  0
   -1.2130   22.5939  -32.8961 H   0  0  0  0  0  0  0  0  0  0  0  0
   -5.6300   20.2380  -33.4420 C   0  0  0  0  0  0  0  0  0  0  0  0
   -5.4963   20.8830  -32.5610 H   0  0  0  0  0  0  0  0  0  0  0  0
   -5.1738   20.6997  -34.3301 H   0  0  0  0  0  0  0  0  0  0  0  0
   -7.1300   20.0510  -33.7040 C   0  0  0  0  0  0  0  0  0  0  0  0
   -7.5760   21.0326  -33.9221 H   0  0  0  0  0  0  0  0  0  0  0  0
   -7.2397   19.3619  -34.5544 H   0  0  0  0  0  0  0  0  0  0  0  0
   -6.1500   24.6870  -30.2500 S   0  0  0  0  0  0  0  0  0  0  0  0
   -4.5590   24.2370  -29.9660 C   0  0  0  0  0  0  0  0  0  0  0  0
   -3.5380   25.0430  -29.6200 N   0  0  0  0  0  0  0  0  0  0  0  0
   -2.2960   24.5310  -29.3830 C   0  0  0  0  0  0  0  0  0  0  0  0
   -1.3660   25.4220  -29.1480 N   0  0  0  0  0  0  0  0  0  0  0  0
   -0.8880   26.1520  -27.9750 C   0  0  0  0  0  0  0  0  0  0  0  0
   -1.1475   27.2156  -28.0820 H   0  0  0  0  0  0  0  0  0  0  0  0
    0.2027   26.0286  -27.9039 H   0  0  0  0  0  0  0  0  0  0  0  0
   -1.5260   25.6070  -26.6980 C   0  0  0  0  0  0  0  0  0  0  0  0
   -1.0201   26.0392  -25.8221 H   0  0  0  0  0  0  0  0  0  0  0  0
   -2.5920   25.8776  -26.6763 H   0  0  0  0  0  0  0  0  0  0  0  0
   -1.4252   24.5118  -26.6763 H   0  0  0  0  0  0  0  0  0  0  0  0
   -2.0980   23.1420  -29.4320 N   0  0  0  0  0  0  0  0  0  0  0  0
   -0.9220   22.4550  -28.8470 C   0  0  0  0  0  0  0  0  0  0  0  0
   -0.7201   21.5343  -29.4141 H   0  0  0  0  0  0  0  0  0  0  0  0
   -0.0525   23.1268  -28.8982 H   0  0  0  0  0  0  0  0  0  0  0  0
   -1.1920   22.0960  -27.3750 C   0  0  0  0  0  0  0  0  0  0  0  0
   -0.7716   22.8832  -26.7319 H   0  0  0  0  0  0  0  0  0  0  0  0
   -2.2797   22.0147  -27.2327 H   0  0  0  0  0  0  0  0  0  0  0  0
   -0.5770   20.7990  -27.0130 N   0  0  0  0  0  0  0  0  0  0  0  0
   -1.5910   19.7190  -26.9210 C   0  0  0  0  0  0  0  0  0  0  0  0
   -2.0783   19.7678  -25.9361 H   0  0  0  0  0  0  0  0  0  0  0  0
   -2.3264   19.8632  -27.7262 H   0  0  0  0  0  0  0  0  0  0  0  0
   -0.9490   18.3370  -27.0930 C   0  0  0  0  0  0  0  0  0  0  0  0
   -0.1550   18.2133  -26.3419 H   0  0  0  0  0  0  0  0  0  0  0  0
   -1.7269   17.5705  -26.9614 H   0  0  0  0  0  0  0  0  0  0  0  0
   -0.3640   18.1880  -28.4450 N   0  0  0  0  0  0  0  0  0  0  0  0
    0.6590   17.1310  -28.4490 C   0  0  0  0  0  0  0  0  0  0  0  0
    0.9160   16.8655  -27.4129 H   0  0  0  0  0  0  0  0  0  0  0  0
    0.2676   16.2439  -28.9685 H   0  0  0  0  0  0  0  0  0  0  0  0
    1.5584   17.4932  -28.9685 H   0  0  0  0  0  0  0  0  0  0  0  0
    0.1640   19.4560  -29.0070 C   0  0  0  0  0  0  0  0  0  0  0  0
    1.0516   19.2301  -29.6162 H   0  0  0  0  0  0  0  0  0  0  0  0
   -0.6333   19.9132  -29.6114 H   0  0  0  0  0  0  0  0  0  0  0  0
    0.5590   20.4620  -27.9120 C   0  0  0  0  0  0  0  0  0  0  0  0
    1.3695   20.0270  -27.3088 H   0  0  0  0  0  0  0  0  0  0  0  0
    0.8789   21.3896  -28.4093 H   0  0  0  0  0  0  0  0  0  0  0  0
   -3.1490   22.3330  -29.8390 C   0  0  0  0  0  0  0  0  0  0  0  0
   -3.0140   21.0800  -29.9290 O   0  0  0  0  0  0  0  0  0  0  0  0
   -4.3940   22.8900  -30.1160 C   0  0  0  0  0  0  0  0  0  0  0  0
  1  2  1  0
  2  3  2  0
  3  4  1  0
  4  5  1  0
  4  6  1  0
  4  7  1  0
  7  8  1  0
  7  9  1  0
  7 10  1  0
 10 11  1  0
 10 12  1  0
 10 13  1  0
 13 14  1  0
 14 15  1  0
 14 16  1  0
 14 17  1  0
 17 18  1  0
 17 19  1  0
 17 20  1  0
 20 21  1  0
 21 22  1  0
 21 23  1  0
 21 24  1  0
 24 25  1  0
 24 26  1  0
 24 27  1  0
 27 28  1  0
 27 29  1  0
 29 30  1  0
 29 31  1  0
 29 32  1  0
 20 33  1  0
 33 34  1  0
 33 35  1  0
 33 36  1  0
 36 37  1  0
 36 38  1  0
  3 39  1  0
 39 40  1  0
 40 41  1  0
 41 42  1  0
 42 43  2  0
 43 44  1  0
 44 45  1  0
 44 46  1  0
 44 47  1  0
 47 48  1  0
 47 49  1  0
 47 50  1  0
 42 51  1  0
 51 52  1  0
 52 53  1  0
 52 54  1  0
 52 55  1  0
 55 56  1  0
 55 57  1  0
 55 58  1  0
 58 59  1  0
 59 60  1  0
 59 61  1  0
 59 62  1  0
 62 63  1  0
 62 64  1  0
 62 65  1  0
 65 66  1  0
 66 67  1  0
 66 68  1  0
 66 69  1  0
 65 70  1  0
 70 71  1  0
 70 72  1  0
 70 73  1  0
 73 74  1  0
 73 75  1  0
 51 76  1  0
 76 77  2  0
 76 78  1  0
 78  2  1  0
 36 13  1  0
 78 40  2  0
 73 58  1  0
M  CHG  2   4   1  41  -1
M  END
>  <UniqueID>  (22) 
22

>  <SMILES>  (22) 
CC/N=c1/[n-]c2sc([NH2+]CCN3CCN(CCNC)CC3)cc2c(=O)n1CCN1CCN(C)CC1

>  <Energy>  (22) 
155.45465601079758

>  <Genealogy>  (22) 
CCN=c1[n-]c2sc([NH2+]CCN3CCN(CCNC)CC3)cc2c(=O)n1CCN1CCN(C)CC1 (protonated)
CC/N=c1/[n-]c2sc([NH2+]CCN3CCN(CCNC)CC3)cc2c(=O)n1CCN1CCN(C)CC1 (cis-trans isomerization)
CC/N=c1/[n-]c2sc([NH2+]CCN3CCN(CCNC)CC3)cc2c(=O)n1CCN1CCN(C)CC1 (3D coordinates assigned)
CC/N=c1/[n-]c2sc([NH2+]CCN3CCN(CCNC)CC3)cc2c(=O)n1CCN1CCN(C)CC1 (nonaromatic ring conformer: 155.45465601079758 kcal/mol)

>  <smiles>  (22) 
CCN=c1[nH]c2sc(NCCN3CCN(CCNC)CC3)cc2c(=O)n1CCN1CCN(C)CC1

>  <score_type>  (22) 
oracle

>  <origin>  (22) 
adg

>  <m_score__min__energy>  (22) 
-9.9499999999999993

>  <m_primary>  (22) 
energy

$$$$
22:0
     RDKit          3D

 57 59  0  0  0  0  0  0  0  0999 V2000
   -1.0850   20.4640  -34.1910 C   0  0  0  0  0  0  0  0  0  0  0  0
   -2.4030   19.6870  -34.2080 C   0  0  0  0  0  0  0  0  0  0  0  0
   -2.1860   18.2270  -34.1010 N   0  0  0  0  0  0  0  0  0  0  0  0
   -1.7670   17.7650  -32.7500 C   0  0  0  0  0  0  0  0  0  0  0  0
   -1.1360   16.3670  -32.7100 C   0  0  0  0  0  0  0  0  0  0  0  0
   -3.3420   17.4750  -34.6380 C   0  0  0  0  0  0  0  0  0  0  0  0
   -4.6100   17.8520  -33.9120 C   0  0  0  0  0  0  0  0  0  0  0  0
   -5.3880   18.9170  -34.3880 C   0  0  0  0  0  0  0  0  0  0  0  0
   -6.5910   19.2490  -33.7590 C   0  0  0  0  0  0  0  0  0  0  0  0
   -7.0420   18.5190  -32.6540 C   0  0  0  0  0  0  0  0  0  0  0  0
   -8.2730   18.8790  -32.0840 O   0  0  0  0  0  0  0  0  0  0  0  0
   -9.3430   19.5390  -32.7600 C   0  0  0  0  0  0  0  0  0  0  0  0
   -9.8750   20.7400  -31.9640 C   0  0  0  0  0  0  0  0  0  0  0  0
   -8.8950   21.9240  -31.9540 C   0  0  0  0  0  0  0  0  0  0  0  0
   -7.6730   21.5910  -31.2150 N   0  0  0  0  0  0  0  0  0  0  0  0
   -6.5840   22.5180  -31.0190 C   0  0  0  0  0  0  0  0  0  0  0  0
   -6.8490   23.8790  -30.7990 C   0  0  0  0  0  0  0  0  0  0  0  0
   -5.8040   24.7800  -30.6250 C   0  0  0  0  0  0  0  0  0  0  0  0
   -4.5120   24.3640  -30.6720 N   0  0  0  0  0  0  0  0  0  0  0  0
   -3.5190   25.3020  -30.4930 O   0  0  0  0  0  0  0  0  0  0  0  0
   -4.1980   23.0510  -30.8960 C   0  0  0  0  0  0  0  0  0  0  0  0
   -2.8520   22.6380  -30.9440 C   0  0  0  0  0  0  0  0  0  0  0  0
   -2.5280   21.2990  -31.1660 C   0  0  0  0  0  0  0  0  0  0  0  0
   -3.5380   20.3570  -31.3430 C   0  0  0  0  0  0  0  0  0  0  0  0
   -4.8780   20.7430  -31.3030 C   0  0  0  0  0  0  0  0  0  0  0  0
   -5.2320   22.0910  -31.0810 C   0  0  0  0  0  0  0  0  0  0  0  0
   -6.2530   17.4610  -32.1630 C   0  0  0  0  0  0  0  0  0  0  0  0
   -5.0480   17.1270  -32.7890 C   0  0  0  0  0  0  0  0  0  0  0  0
   -4.3190   16.0890  -32.3060 F   0  0  0  0  0  0  0  0  0  0  0  0
   -0.7791   20.6443  -33.1499 H   0  0  0  0  0  0  0  0  0  0  0  0
   -0.3081   19.8794  -34.7054 H   0  0  0  0  0  0  0  0  0  0  0  0
   -1.2203   21.4268  -34.7054 H   0  0  0  0  0  0  0  0  0  0  0  0
   -3.0212   20.0174  -33.3603 H   0  0  0  0  0  0  0  0  0  0  0  0
   -2.9037   19.8872  -35.1668 H   0  0  0  0  0  0  0  0  0  0  0  0
   -1.0320   18.4826  -32.3566 H   0  0  0  0  0  0  0  0  0  0  0  0
   -2.6850   17.7055  -32.1469 H   0  0  0  0  0  0  0  0  0  0  0  0
   -0.9963   16.0576  -31.6637 H   0  0  0  0  0  0  0  0  0  0  0  0
   -1.7983   15.6511  -33.2188 H   0  0  0  0  0  0  0  0  0  0  0  0
   -0.1610   16.3901  -33.2188 H   0  0  0  0  0  0  0  0  0  0  0  0
   -3.4567   17.7052  -35.7075 H   0  0  0  0  0  0  0  0  0  0  0  0
   -3.1603   16.3995  -34.4953 H   0  0  0  0  0  0  0  0  0  0  0  0
   -5.0497   19.4942  -35.2611 H   0  0  0  0  0  0  0  0  0  0  0  0
   -7.1887   20.0919  -34.1361 H   0  0  0  0  0  0  0  0  0  0  0  0
   -8.9811   19.8929  -33.7366 H   0  0  0  0  0  0  0  0  0  0  0  0
  -10.1659   18.8184  -32.8769 H   0  0  0  0  0  0  0  0  0  0  0  0
  -10.8220   21.0704  -32.4158 H   0  0  0  0  0  0  0  0  0  0  0  0
  -10.0140   20.4140  -30.9226 H   0  0  0  0  0  0  0  0  0  0  0  0
   -8.6297   22.1797  -32.9905 H   0  0  0  0  0  0  0  0  0  0  0  0
   -9.3820   22.7767  -31.4582 H   0  0  0  0  0  0  0  0  0  0  0  0
   -7.4970   20.5780  -31.0380 H   0  0  0  0  0  0  0  0  0  0  0  0
   -7.8893   24.2348  -30.7640 H   0  0  0  0  0  0  0  0  0  0  0  0
   -6.0266   25.8425  -30.4472 H   0  0  0  0  0  0  0  0  0  0  0  0
   -2.0495   23.3774  -30.8053 H   0  0  0  0  0  0  0  0  0  0  0  0
   -1.4737   20.9873  -31.2012 H   0  0  0  0  0  0  0  0  0  0  0  0
   -3.2778   19.3022  -31.5154 H   0  0  0  0  0  0  0  0  0  0  0  0
   -5.6664   19.9893  -31.4459 H   0  0  0  0  0  0  0  0  0  0  0  0
   -6.5866   16.8938  -31.2816 H   0  0  0  0  0  0  0  0  0  0  0  0
  1  2  1  0
  2  3  1  0
  3  4  1  0
  4  5  1  0
  3  6  1  0
  6  7  1  0
  7  8  2  0
  8  9  1  0
  9 10  2  0
 10 11  1  0
 11 12  1  0
 12 13  1  0
 13 14  1  0
 14 15  1  0
 15 16  1  0
 16 17  2  0
 17 18  1  0
 18 19  2  0
 19 20  1  0
 19 21  1  0
 21 22  2  0
 22 23  1  0
 23 24  2  0
 24 25  1  0
 25 26  2  0
 10 27  1  0
 27 28  2  0
 28 29  1  0
 28  7  1  0
 26 16  1  0
 26 21  1  0
  1 30  1  0
  1 31  1  0
  1 32  1  0
  2 33  1  0
  2 34  1  0
  4 35  1  0
  4 36  1  0
  5 37  1  0
  5 38  1  0
  5 39  1  0
  6 40  1  0
  6 41  1  0
  8 42  1  0
  9 43  1  0
 12 44  1  0
 12 45  1  0
 13 46  1  0
 13 47  1  0
 14 48  1  0
 14 49  1  0
 15 50  1  0
 17 51  1  0
 18 52  1  0
 22 53  1  0
 23 54  1  0
 24 55  1  0
 25 56  1  0
 27 57  1  0
M  CHG  2  19   1  20  -1
M  END
>  <UniqueID>  (23) 
23

>  <SMILES>  (23) 
CCN(CC)Cc1ccc(OCCCNc2cc[n+]([O-])c3ccccc23)cc1F

>  <Energy>  (23) 
63.119200734894974

>  <Genealogy>  (23) 
CCN(CC)Cc1ccc(OCCCNc2cc[n+]([O-])c3ccccc23)cc1F (3D coordinates assigned)
CCN(CC)Cc1ccc(OCCCNc2cc[n+]([O-])c3ccccc23)cc1F (optimized conformer: 63.119200734894974 kcal/mol)

>  <smiles>  (23) 
CCN(CC)Cc1ccc(OCCCNc2cc[n+]([O-])c3ccccc23)cc1F

>  <score_type>  (23) 
oracle

>  <origin>  (23) 
adg

>  <m_score__min__energy>  (23) 
-9.0999999999999996

>  <m_primary>  (23) 
energy

$$$$
23:0
     RDKit          3D

 25 26  0  0  0  0  0  0  0  0999 V2000
   -3.5540   19.6220  -32.4120 C   0  0  0  0  0  0  0  0  0  0  0  0
   -4.8860   19.8770  -32.9570 N   0  0  0  0  0  0  0  0  0  0  0  0
   -5.3090   19.1970  -34.1820 C   0  0  0  0  0  0  0  0  0  0  0  0
   -5.6610   20.9650  -32.4310 C   0  0  0  0  0  0  0  0  0  0  0  0
   -5.0220   22.1000  -32.0360 N   0  0  0  0  0  0  0  0  0  0  0  0
   -5.7050   23.1670  -31.5510 C   0  0  0  0  0  0  0  0  0  0  0  0
   -4.9950   24.3490  -31.1500 C   0  0  0  0  0  0  0  0  0  0  0  0
   -4.4220   25.3010  -30.8280 N   0  0  0  0  0  0  0  0  0  0  0  0
   -7.0570   23.1230  -31.4470 N   0  0  0  0  0  0  0  0  0  0  0  0
   -7.7510   22.0150  -31.8130 C   0  0  0  0  0  0  0  0  0  0  0  0
   -9.1440   21.9880  -31.6820 C   0  0  0  0  0  0  0  0  0  0  0  0
   -9.8580   20.8390  -32.0340 C   0  0  0  0  0  0  0  0  0  0  0  0
   -9.1840   19.7120  -32.5110 C   0  0  0  0  0  0  0  0  0  0  0  0
   -7.7920   19.7280  -32.6480 C   0  0  0  0  0  0  0  0  0  0  0  0
   -7.0640   20.8860  -32.3140 C   0  0  0  0  0  0  0  0  0  0  0  0
   -3.5997   19.6307  -31.3130 H   0  0  0  0  0  0  0  0  0  0  0  0
   -3.1988   18.6395  -32.7564 H   0  0  0  0  0  0  0  0  0  0  0  0
   -2.8611   20.4038  -32.7564 H   0  0  0  0  0  0  0  0  0  0  0  0
   -5.8735   18.2896  -33.9214 H   0  0  0  0  0  0  0  0  0  0  0  0
   -5.9484   19.8696  -34.7726 H   0  0  0  0  0  0  0  0  0  0  0  0
   -4.4231   18.9208  -34.7726 H   0  0  0  0  0  0  0  0  0  0  0  0
   -9.6775   22.8716  -31.3017 H   0  0  0  0  0  0  0  0  0  0  0  0
  -10.9534   20.8221  -31.9352 H   0  0  0  0  0  0  0  0  0  0  0  0
   -9.7504   18.8082  -32.7800 H   0  0  0  0  0  0  0  0  0  0  0  0
   -7.2657   18.8353  -33.0169 H   0  0  0  0  0  0  0  0  0  0  0  0
  1  2  1  0
  2  3  1  0
  2  4  1  0
  4  5  2  0
  5  6  1  0
  6  7  1  0
  7  8  3  0
  6  9  2  0
  9 10  1  0
 10 11  2  0
 11 12  1  0
 12 13  2  0
 13 14  1  0
 14 15  2  0
 15  4  1  0
 15 10  1  0
  1 16  1  0
  1 17  1  0
  1 18  1  0
  3 19  1  0
  3 20  1  0
  3 21  1  0
 11 22  1  0
 12 23  1  0
 13 24  1  0
 14 25  1  0
M  END
>  <UniqueID>  (24) 
24

>  <SMILES>  (24) 
CN(C)c1nc(C#N)nc2ccccc12

>  <Energy>  (24) 
31.840579658146932

>  <Genealogy>  (24) 
CN(C)c1nc(C#N)nc2ccccc12 (3D coordinates assigned)
CN(C)c1nc(C#N)nc2ccccc12 (optimized conformer: 31.840579658146932 kcal/mol)

>  <smiles>  (24) 
CN(C)c1nc(C#N)nc2ccccc12

>  <score_type>  (24) 
oracle

>  <origin>  (24) 
adg

>  <m_score__min__energy>  (24) 
-6.0999999999999996

>  <m_primary>  (24) 
energy

$$$$
24:0
     RDKit          3D

 61 63  0  0  0  0  0  0  0  0999 V2000
   -6.2250   25.4360  -29.3620 C   0  0  0  0  0  0  0  0  0  0  0  0
   -4.9600   24.5820  -29.2230 C   0  0  0  0  0  0  0  0  0  0  0  0
   -4.4330   24.1300  -30.5250 N   0  0  0  0  0  0  0  0  0  0  0  0
   -5.4440   24.1470  -31.5920 C   0  0  0  0  0  0  0  0  0  0  0  0
   -5.1820   23.0230  -32.6010 C   0  0  0  0  0  0  0  0  0  0  0  0
   -4.7700   21.7950  -31.9090 N   0  0  0  0  0  0  0  0  0  0  0  0
   -5.2960   20.5140  -32.2960 C   0  0  0  0  0  0  0  0  0  0  0  0
   -6.6970   20.3290  -32.2900 C   0  0  0  0  0  0  0  0  0  0  0  0
   -7.5740   21.3920  -31.9710 C   0  0  0  0  0  0  0  0  0  0  0  0
   -8.9520   21.2020  -31.9460 C   0  0  0  0  0  0  0  0  0  0  0  0
   -9.4890   19.9630  -32.2660 C   0  0  0  0  0  0  0  0  0  0  0  0
   -8.6520   18.9110  -32.6290 C   0  0  0  0  0  0  0  0  0  0  0  0
   -7.2420   19.0720  -32.6520 C   0  0  0  0  0  0  0  0  0  0  0  0
   -6.4100   18.0610  -33.0790 N   0  0  0  0  0  0  0  0  0  0  0  0
   -6.9290   16.6830  -33.2350 C   0  0  0  0  0  0  0  0  0  0  0  0
   -5.0920   18.3360  -33.3800 C   0  0  0  0  0  0  0  0  0  0  0  0
   -4.3650   17.4910  -34.2470 C   0  0  0  0  0  0  0  0  0  0  0  0
   -3.0540   17.7790  -34.5920 C   0  0  0  0  0  0  0  0  0  0  0  0
   -2.3940   18.8350  -33.9880 C   0  0  0  0  0  0  0  0  0  0  0  0
   -3.0240   19.6190  -32.9980 C   0  0  0  0  0  0  0  0  0  0  0  0
   -2.2300   20.5530  -32.2090 N   0  0  0  0  0  0  0  0  0  0  0  0
   -0.8030   20.1990  -32.0150 C   0  0  0  0  0  0  0  0  0  0  0  0
   -0.1550   20.8660  -30.7820 C   0  0  0  0  0  0  0  0  0  0  0  0
   -0.6500   22.2910  -30.5040 C   0  0  0  0  0  0  0  0  0  0  0  0
   -2.0730   22.3060  -30.4530 O   0  0  0  0  0  0  0  0  0  0  0  0
   -2.7920   21.8190  -29.3580 C   0  0  0  0  0  0  0  0  0  0  0  0
   -2.2780   22.0630  -27.9800 C   0  0  0  0  0  0  0  0  0  0  0  0
   -3.8460   21.1450  -29.5260 O   0  0  0  0  0  0  0  0  0  0  0  0
   -4.4580   19.5060  -32.8610 C   0  0  0  0  0  0  0  0  0  0  0  0
   -6.6056   25.6929  -28.3624 H   0  0  0  0  0  0  0  0  0  0  0  0
   -5.9861   26.3584  -29.9117 H   0  0  0  0  0  0  0  0  0  0  0  0
   -6.9912   24.8696  -29.9117 H   0  0  0  0  0  0  0  0  0  0  0  0
   -4.1861   25.1787  -28.7180 H   0  0  0  0  0  0  0  0  0  0  0  0
   -5.2257   23.6861  -28.6426 H   0  0  0  0  0  0  0  0  0  0  0  0
   -4.0560   23.1580  -30.4280 H   0  0  0  0  0  0  0  0  0  0  0  0
   -6.4408   24.0091  -31.1478 H   0  0  0  0  0  0  0  0  0  0  0  0
   -5.3912   25.1130  -32.1154 H   0  0  0  0  0  0  0  0  0  0  0  0
   -6.1024   22.8261  -33.1703 H   0  0  0  0  0  0  0  0  0  0  0  0
   -4.3752   23.3360  -33.2800 H   0  0  0  0  0  0  0  0  0  0  0  0
   -4.2180   21.8520  -31.0270 H   0  0  0  0  0  0  0  0  0  0  0  0
   -7.1600   22.3844  -31.7391 H   0  0  0  0  0  0  0  0  0  0  0  0
   -9.6166   22.0347  -31.6723 H   0  0  0  0  0  0  0  0  0  0  0  0
  -10.5780   19.8116  -32.2328 H   0  0  0  0  0  0  0  0  0  0  0  0
   -9.0905   17.9399  -32.9022 H   0  0  0  0  0  0  0  0  0  0  0  0
   -7.0960   16.2395  -32.2423 H   0  0  0  0  0  0  0  0  0  0  0  0
   -7.8788   16.7095  -33.7893 H   0  0  0  0  0  0  0  0  0  0  0  0
   -6.1978   16.0763  -33.7893 H   0  0  0  0  0  0  0  0  0  0  0  0
   -4.8468   16.5902  -34.6549 H   0  0  0  0  0  0  0  0  0  0  0  0
   -2.5375   17.1677  -35.3466 H   0  0  0  0  0  0  0  0  0  0  0  0
   -1.3605   19.0672  -34.2847 H   0  0  0  0  0  0  0  0  0  0  0  0
   -2.6130   20.6200  -31.2490 H   0  0  0  0  0  0  0  0  0  0  0  0
   -2.2830   21.4920  -32.6680 H   0  0  0  0  0  0  0  0  0  0  0  0
   -0.7298   19.1078  -31.8970 H   0  0  0  0  0  0  0  0  0  0  0  0
   -0.2600   20.5656  -32.8986 H   0  0  0  0  0  0  0  0  0  0  0  0
   -0.3743   20.2466  -29.8998 H   0  0  0  0  0  0  0  0  0  0  0  0
    0.9219   20.9415  -30.9934 H   0  0  0  0  0  0  0  0  0  0  0  0
   -0.2464   22.6364  -29.5408 H   0  0  0  0  0  0  0  0  0  0  0  0
   -0.3084   22.9577  -31.3095 H   0  0  0  0  0  0  0  0  0  0  0  0
   -3.0176   21.7119  -27.2453 H   0  0  0  0  0  0  0  0  0  0  0  0
   -1.3334   21.5172  -27.8390 H   0  0  0  0  0  0  0  0  0  0  0  0
   -2.1038   23.1399  -27.8390 H   0  0  0  0  0  0  0  0  0  0  0  0
  1  2  1  0
  2  3  1  0
  3  4  1  0
  4  5  1  0
  5  6  1  0
  6  7  1  0
  7  8  2  0
  8  9  1  0
  9 10  2  0
 10 11  1  0
 11 12  2  0
 12 13  1  0
 13 14  2  0
 14 15  1  0
 14 16  1  0
 16 17  2  0
 17 18  1  0
 18 19  2  0
 19 20  1  0
 20 21  1  0
 21 22  1  0
 22 23  1  0
 23 24  1  0
 24 25  1  0
 25 26  1  0
 26 27  1  0
 26 28  2  0
 20 29  2  0
 29  7  1  0
 13  8  1  0
 29 16  1  0
  1 30  1  0
  1 31  1  0
  1 32  1  0
  2 33  1  0
  2 34  1  0
  3 35  1  0
  4 36  1  0
  4 37  1  0
  5 38  1  0
  5 39  1  0
  6 40  1  0
  9 41  1  0
 10 42  1  0
 11 43  1  0
 12 44  1  0
 15 45  1  0
 15 46  1  0
 15 47  1  0
 17 48  1  0
 18 49  1  0
 19 50  1  0
 21 51  1  0
 21 52  1  0
 22 53  1  0
 22 54  1  0
 23 55  1  0
 23 56  1  0
 24 57  1  0
 24 58  1  0
 27 59  1  0
 27 60  1  0
 27 61  1  0
M  CHG  2  14   1  21   1
M  END
>  <UniqueID>  (25) 
25

>  <SMILES>  (25) 
CCNCCNc1c2ccccc2[n+](C)c2cccc([NH2+]CCCOC(C)=O)c12

>  <Energy>  (25) 
95.4273122622561

>  <Genealogy>  (25) 
CCNCCNc1c2ccccc2[n+](C)c2cccc([NH2+]CCCOC(C)=O)c12 (protonated)
CCNCCNc1c2ccccc2[n+](C)c2cccc([NH2+]CCCOC(C)=O)c12 (3D coordinates assigned)
CCNCCNc1c2ccccc2[n+](C)c2cccc([NH2+]CCCOC(C)=O)c12 (optimized conformer: 95.4273122622561 kcal/mol)

>  <smiles>  (25) 
CCNCCNc1c2ccccc2[n+](C)c2cccc(NCCCOC(C)=O)c12

>  <score_type>  (25) 
oracle

>  <origin>  (25) 
adg

>  <m_score__min__energy>  (25) 
-7.8499999999999996

>  <m_primary>  (25) 
energy

$$$$
25:0
     RDKit          3D

 33 33  0  0  0  0  0  0  0  0999 V2000
   -4.6320   26.0130  -29.5630 H   0  0  0  0  0  0  0  0  0  0  0  0
   -4.2280   25.6740  -30.4650 N   0  0  0  0  0  0  0  0  0  0  0  0
   -3.7960   24.4630  -30.6010 C   0  0  0  0  0  0  0  0  0  0  0  0
   -4.3000   23.6610  -31.5770 N   0  0  0  0  0  0  0  0  0  0  0  0
   -3.8650   22.3820  -31.7410 C   0  0  0  0  0  0  0  0  0  0  0  0
   -4.4360   21.5860  -32.7950 N   0  0  0  0  0  0  0  0  0  0  0  0
   -5.3110   21.9340  -33.2490 H   0  0  0  0  0  0  0  0  0  0  0  0
   -3.8660   20.3350  -33.2990 C   0  0  0  0  0  0  0  0  0  0  0  0
   -3.1969   20.5570  -34.1434 H   0  0  0  0  0  0  0  0  0  0  0  0
   -3.3057   19.8484  -32.4870 H   0  0  0  0  0  0  0  0  0  0  0  0
   -4.9710   19.3910  -33.7690 C   0  0  0  0  0  0  0  0  0  0  0  0
   -4.7201   18.9969  -34.7649 H   0  0  0  0  0  0  0  0  0  0  0  0
   -5.0687   18.5535  -33.0626 H   0  0  0  0  0  0  0  0  0  0  0  0
   -6.1890   20.1030  -33.8350 O   0  0  0  0  0  0  0  0  0  0  0  0
   -7.1620   19.5130  -32.9920 C   0  0  0  0  0  0  0  0  0  0  0  0
   -7.9189   19.0070  -33.6093 H   0  0  0  0  0  0  0  0  0  0  0  0
   -6.6697   18.7854  -32.3300 H   0  0  0  0  0  0  0  0  0  0  0  0
   -7.8410   20.5850  -32.1380 C   0  0  0  0  0  0  0  0  0  0  0  0
   -8.9172   20.5986  -32.3651 H   0  0  0  0  0  0  0  0  0  0  0  0
   -7.6763   20.3467  -31.0768 H   0  0  0  0  0  0  0  0  0  0  0  0
   -7.2940   21.8630  -32.4060 O   0  0  0  0  0  0  0  0  0  0  0  0
   -7.9370   22.8510  -31.6270 C   0  0  0  0  0  0  0  0  0  0  0  0
   -8.0059   23.7861  -32.2022 H   0  0  0  0  0  0  0  0  0  0  0  0
   -8.9495   22.5124  -31.3622 H   0  0  0  0  0  0  0  0  0  0  0  0
   -7.1300   23.0910  -30.3600 C   0  0  0  0  0  0  0  0  0  0  0  0
   -7.7634   22.9026  -29.4806 H   0  0  0  0  0  0  0  0  0  0  0  0
   -6.2655   22.4111  -30.3416 H   0  0  0  0  0  0  0  0  0  0  0  0
   -6.7775   24.1328  -30.3416 H   0  0  0  0  0  0  0  0  0  0  0  0
   -2.8690   21.8860  -30.8830 C   0  0  0  0  0  0  0  0  0  0  0  0
   -2.4940   20.8578  -30.9936 H   0  0  0  0  0  0  0  0  0  0  0  0
   -2.3650   22.7250  -29.8870 C   0  0  0  0  0  0  0  0  0  0  0  0
   -1.4750   22.3080  -29.1010 O   0  0  0  0  0  0  0  0  0  0  0  0
   -2.8370   23.9910  -29.7640 N   0  0  0  0  0  0  0  0  0  0  0  0
  1  2  1  0
  2  3  2  0
  3  4  1  0
  4  5  1  0
  5  6  1  0
  6  7  1  0
  6  8  1  0
  8  9  1  0
  8 10  1  0
  8 11  1  0
 11 12  1  0
 11 13  1  0
 11 14  1  0
 14 15  1  0
 15 16  1  0
 15 17  1  0
 15 18  1  0
 18 19  1  0
 18 20  1  0
 18 21  1  0
 21 22  1  0
 22 23  1  0
 22 24  1  0
 22 25  1  0
 25 26  1  0
 25 27  1  0
 25 28  1  0
  5 29  2  0
 29 30  1  0
 29 31  1  0
 31 32  2  0
 31 33  1  0
 33  3  1  0
M  CHG  2   4  -1  33  -1
M  END
>  <UniqueID>  (26) 
26

>  <SMILES>  (26) 
[H]/N=c1\[n-]c(NCCOCCOCC)cc(=O)[n-]1

>  <Energy>  (26) 
26.830192766580208

>  <Genealogy>  (26) 
CCOCCOCCNc1cc(=O)[n-]c(=N)[n-]1 (protonated)
[H]/N=c1\[n-]c(NCCOCCOCC)cc(=O)[n-]1 (cis-trans isomerization)
[H]/N=c1\[n-]c(NCCOCCOCC)cc(=O)[n-]1 (3D coordinates assigned)
[H]/N=c1\[n-]c(NCCOCCOCC)cc(=O)[n-]1 (optimized conformer: 26.830192766580208 kcal/mol)

>  <smiles>  (26) 
CCOCCOCCNc1cc(=O)[nH]c(=N)[nH]1

>  <score_type>  (26) 
oracle

>  <origin>  (26) 
adg

>  <m_score__min__energy>  (26) 
-7.5999999999999996

>  <m_primary>  (26) 
energy

$$$$
27:0
     RDKit          3D

 57 57  0  0  0  0  0  0  0  0999 V2000
   -4.2680   20.5040  -33.1870 C   0  0  0  0  0  0  0  0  0  0  0  0
   -3.2910   21.6740  -33.2110 C   0  0  0  0  0  0  0  0  0  0  0  0
   -2.6620   21.8430  -31.8810 N   0  0  0  0  0  0  0  0  0  0  0  0
   -1.7020   20.7490  -31.5970 C   0  0  0  0  0  0  0  0  0  0  0  0
   -0.7870   21.1350  -30.4380 C   0  0  0  0  0  0  0  0  0  0  0  0
   -3.6750   21.9760  -30.8040 C   0  0  0  0  0  0  0  0  0  0  0  0
   -3.6630   23.4030  -30.2450 C   0  0  0  0  0  0  0  0  0  0  0  0
   -4.6130   24.2400  -30.9050 O   0  0  0  0  0  0  0  0  0  0  0  0
   -5.8000   23.7640  -31.4740 C   0  0  0  0  0  0  0  0  0  0  0  0
   -5.9740   23.7890  -32.7220 O   0  0  0  0  0  0  0  0  0  0  0  0
   -6.8830   23.2510  -30.5790 C   0  0  0  0  0  0  0  0  0  0  0  0
   -7.7010   22.1960  -31.2780 C   0  0  0  0  0  0  0  0  0  0  0  0
   -9.1020   22.2870  -31.2880 C   0  0  0  0  0  0  0  0  0  0  0  0
   -9.8660   21.2990  -31.9160 C   0  0  0  0  0  0  0  0  0  0  0  0
   -9.2400   20.2130  -32.5340 C   0  0  0  0  0  0  0  0  0  0  0  0
   -7.8380   20.1010  -32.5200 C   0  0  0  0  0  0  0  0  0  0  0  0
   -7.1730   19.0070  -33.1710 N   0  0  0  0  0  0  0  0  0  0  0  0
   -6.5370   17.9320  -32.4620 C   0  0  0  0  0  0  0  0  0  0  0  0
   -6.2940   18.0370  -31.2280 O   0  0  0  0  0  0  0  0  0  0  0  0
   -6.1440   16.6740  -33.1870 C   0  0  0  0  0  0  0  0  0  0  0  0
   -4.8420   16.8230  -34.0270 C   0  0  0  0  0  0  0  0  0  0  0  0
   -4.4540   15.4360  -34.5770 C   0  0  0  0  0  0  0  0  0  0  0  0
   -3.6840   17.3480  -33.1520 C   0  0  0  0  0  0  0  0  0  0  0  0
   -5.0620   17.7820  -35.2180 C   0  0  0  0  0  0  0  0  0  0  0  0
   -7.0750   21.1060  -31.9030 C   0  0  0  0  0  0  0  0  0  0  0  0
   -4.4925   20.2351  -32.1443 H   0  0  0  0  0  0  0  0  0  0  0  0
   -5.1976   20.7920  -33.6997 H   0  0  0  0  0  0  0  0  0  0  0  0
   -3.8188   19.6406  -33.6997 H   0  0  0  0  0  0  0  0  0  0  0  0
   -2.5096   21.4794  -33.9603 H   0  0  0  0  0  0  0  0  0  0  0  0
   -3.8380   22.5929  -33.4685 H   0  0  0  0  0  0  0  0  0  0  0  0
   -2.2583   19.8377  -31.3322 H   0  0  0  0  0  0  0  0  0  0  0  0
   -1.0889   20.5694  -32.4925 H   0  0  0  0  0  0  0  0  0  0  0  0
   -1.2928   20.9216  -29.4848 H   0  0  0  0  0  0  0  0  0  0  0  0
    0.1447   20.5533  -30.4970 H   0  0  0  0  0  0  0  0  0  0  0  0
   -0.5535   22.2083  -30.4970 H   0  0  0  0  0  0  0  0  0  0  0  0
   -4.6719   21.7533  -31.2123 H   0  0  0  0  0  0  0  0  0  0  0  0
   -3.4363   21.2698  -29.9951 H   0  0  0  0  0  0  0  0  0  0  0  0
   -3.9048   23.3671  -29.1725 H   0  0  0  0  0  0  0  0  0  0  0  0
   -2.6614   23.8264  -30.4110 H   0  0  0  0  0  0  0  0  0  0  0  0
   -6.4289   22.8159  -29.6765 H   0  0  0  0  0  0  0  0  0  0  0  0
   -7.5438   24.0883  -30.3100 H   0  0  0  0  0  0  0  0  0  0  0  0
   -9.5999   23.1381  -30.8003 H   0  0  0  0  0  0  0  0  0  0  0  0
  -10.9632   21.3766  -31.9238 H   0  0  0  0  0  0  0  0  0  0  0  0
   -9.8461   19.4428  -33.0333 H   0  0  0  0  0  0  0  0  0  0  0  0
   -7.0870   19.0300  -34.2130 H   0  0  0  0  0  0  0  0  0  0  0  0
   -5.9899   15.8776  -32.4441 H   0  0  0  0  0  0  0  0  0  0  0  0
   -6.9570   16.4376  -33.8892 H   0  0  0  0  0  0  0  0  0  0  0  0
   -4.2620   14.7498  -33.7390 H   0  0  0  0  0  0  0  0  0  0  0  0
   -5.2765   15.0423  -35.1922 H   0  0  0  0  0  0  0  0  0  0  0  0
   -3.5466   15.5262  -35.1922 H   0  0  0  0  0  0  0  0  0  0  0  0
   -3.9444   17.2299  -32.0898 H   0  0  0  0  0  0  0  0  0  0  0  0
   -2.7703   16.7761  -33.3713 H   0  0  0  0  0  0  0  0  0  0  0  0
   -3.5120   18.4121  -33.3713 H   0  0  0  0  0  0  0  0  0  0  0  0
   -5.2930   18.7889  -34.8402 H   0  0  0  0  0  0  0  0  0  0  0  0
   -4.1494   17.8208  -35.8309 H   0  0  0  0  0  0  0  0  0  0  0  0
   -5.9002   17.4191  -35.8309 H   0  0  0  0  0  0  0  0  0  0  0  0
   -5.9771   21.0383  -31.9096 H   0  0  0  0  0  0  0  0  0  0  0  0
  1  2  1  0
  2  3  1  0
  3  4  1  0
  4  5  1  0
  3  6  1  0
  6  7  1  0
  7  8  1  0
  8  9  1  0
  9 10  2  0
  9 11  1  0
 11 12  1  0
 12 13  2  0
 13 14  1  0
 14 15  2  0
 15 16  1  0
 16 17  1  0
 17 18  1  0
 18 19  2  0
 18 20  1  0
 20 21  1  0
 21 22  1  0
 21 23  1  0
 21 24  1  0
 16 25  2  0
 25 12  1  0
  1 26  1  0
  1 27  1  0
  1 28  1  0
  2 29  1  0
  2 30  1  0
  4 31  1  0
  4 32  1  0
  5 33  1  0
  5 34  1  0
  5 35  1  0
  6 36  1  0
  6 37  1  0
  7 38  1  0
  7 39  1  0
 11 40  1  0
 11 41  1  0
 13 42  1  0
 14 43  1  0
 15 44  1  0
 17 45  1  0
 20 46  1  0
 20 47  1  0
 22 48  1  0
 22 49  1  0
 22 50  1  0
 23 51  1  0
 23 52  1  0
 23 53  1  0
 24 54  1  0
 24 55  1  0
 24 56  1  0
 25 57  1  0
M  END
>  <UniqueID>  (27) 
27

>  <SMILES>  (27) 
CCN(CC)CCOC(=O)Cc1cccc(NC(=O)CC(C)(C)C)c1

>  <Energy>  (27) 
46.12838563099501

>  <Genealogy>  (27) 
CCN(CC)CCOC(=O)Cc1cccc(NC(=O)CC(C)(C)C)c1 (3D coordinates assigned)
CCN(CC)CCOC(=O)Cc1cccc(NC(=O)CC(C)(C)C)c1 (optimized conformer: 46.12838563099501 kcal/mol)

>  <smiles>  (27) 
CCN(CC)CCOC(=O)Cc1cccc(NC(=O)CC(C)(C)C)c1

>  <score_type>  (27) 
oracle

>  <origin>  (27) 
adg

>  <m_score__min__energy>  (27) 
-7.7000000000000002

>  <m_primary>  (27) 
energy

$$$$
28:0
     RDKit          3D

 66 68  0  0  0  0  0  0  0  0999 V2000
   -0.2680   27.1750  -23.3330 C   0  0  0  0  0  0  0  0  0  0  0  0
   -0.8660   26.0410  -24.1720 C   0  0  0  0  0  0  0  0  0  0  0  0
    0.1410   25.0160  -24.5500 N   0  0  0  0  0  0  0  0  0  0  0  0
   -0.5110   23.7000  -24.8460 C   0  0  0  0  0  0  0  0  0  0  0  0
   -0.2170   22.6520  -23.7670 C   0  0  0  0  0  0  0  0  0  0  0  0
    0.9150   25.5110  -25.7220 C   0  0  0  0  0  0  0  0  0  0  0  0
    0.9250   24.5190  -26.9010 C   0  0  0  0  0  0  0  0  0  0  0  0
   -0.0270   24.8980  -27.8800 O   0  0  0  0  0  0  0  0  0  0  0  0
   -0.4250   23.8190  -28.7090 C   0  0  0  0  0  0  0  0  0  0  0  0
   -1.7790   24.1520  -29.3370 C   0  0  0  0  0  0  0  0  0  0  0  0
   -2.4750   22.9200  -29.9280 C   0  0  0  0  0  0  0  0  0  0  0  0
   -3.3320   23.2710  -31.0680 N   0  0  0  0  0  0  0  0  0  0  0  0
   -4.0220   22.2530  -31.8170 C   0  0  0  0  0  0  0  0  0  0  0  0
   -3.2700   21.3270  -32.5650 C   0  0  0  0  0  0  0  0  0  0  0  0
   -1.9080   21.5650  -32.8510 C   0  0  0  0  0  0  0  0  0  0  0  0
   -1.1760   20.6620  -33.6170 C   0  0  0  0  0  0  0  0  0  0  0  0
   -1.7800   19.5050  -34.0980 C   0  0  0  0  0  0  0  0  0  0  0  0
   -3.1170   19.2420  -33.8110 C   0  0  0  0  0  0  0  0  0  0  0  0
   -3.8870   20.1470  -33.0380 C   0  0  0  0  0  0  0  0  0  0  0  0
   -5.2070   19.8990  -32.7420 N   0  0  0  0  0  0  0  0  0  0  0  0
   -5.7340   18.5230  -32.8810 C   0  0  0  0  0  0  0  0  0  0  0  0
   -6.0160   20.9290  -32.2990 C   0  0  0  0  0  0  0  0  0  0  0  0
   -7.4250   20.8110  -32.3490 C   0  0  0  0  0  0  0  0  0  0  0  0
   -8.2600   21.8250  -31.8890 C   0  0  0  0  0  0  0  0  0  0  0  0
   -9.7540   21.6670  -31.9320 C   0  0  0  0  0  0  0  0  0  0  0  0
   -7.7030   22.9910  -31.3770 C   0  0  0  0  0  0  0  0  0  0  0  0
   -6.3130   23.1910  -31.3610 C   0  0  0  0  0  0  0  0  0  0  0  0
   -5.8400   24.5650  -30.9480 C   0  0  0  0  0  0  0  0  0  0  0  0
   -5.4410   22.1450  -31.8140 C   0  0  0  0  0  0  0  0  0  0  0  0
   -0.3898   26.9440  -22.2644 H   0  0  0  0  0  0  0  0  0  0  0  0
    0.8020   27.2786  -23.5661 H   0  0  0  0  0  0  0  0  0  0  0  0
   -0.7869   28.1165  -23.5661 H   0  0  0  0  0  0  0  0  0  0  0  0
   -1.6622   25.5543  -23.5896 H   0  0  0  0  0  0  0  0  0  0  0  0
   -1.2547   26.4838  -25.1009 H   0  0  0  0  0  0  0  0  0  0  0  0
    0.8070   24.9300  -23.7460 H   0  0  0  0  0  0  0  0  0  0  0  0
   -1.5991   23.8497  -24.9072 H   0  0  0  0  0  0  0  0  0  0  0  0
   -0.1036   23.3280  -25.7977 H   0  0  0  0  0  0  0  0  0  0  0  0
   -0.3439   23.1043  -22.7723 H   0  0  0  0  0  0  0  0  0  0  0  0
   -0.9128   21.8072  -23.8771 H   0  0  0  0  0  0  0  0  0  0  0  0
    0.8167   22.2924  -23.8771 H   0  0  0  0  0  0  0  0  0  0  0  0
    0.4677   26.4562  -26.0633 H   0  0  0  0  0  0  0  0  0  0  0  0
    1.9570   25.6434  -25.3953 H   0  0  0  0  0  0  0  0  0  0  0  0
    1.9265   24.5082  -27.3558 H   0  0  0  0  0  0  0  0  0  0  0  0
    0.6672   23.5181  -26.5245 H   0  0  0  0  0  0  0  0  0  0  0  0
    0.3225   23.6667  -29.5015 H   0  0  0  0  0  0  0  0  0  0  0  0
   -0.5069   22.8993  -28.1111 H   0  0  0  0  0  0  0  0  0  0  0  0
   -2.4289   24.5861  -28.5630 H   0  0  0  0  0  0  0  0  0  0  0  0
   -1.5991   24.8593  -30.1600 H   0  0  0  0  0  0  0  0  0  0  0  0
   -1.7091   22.2060  -30.2651 H   0  0  0  0  0  0  0  0  0  0  0  0
   -3.1106   22.4789  -29.1460 H   0  0  0  0  0  0  0  0  0  0  0  0
   -3.1010   24.1550  -31.5760 H   0  0  0  0  0  0  0  0  0  0  0  0
   -1.4207   22.4725  -32.4649 H   0  0  0  0  0  0  0  0  0  0  0  0
   -0.1184   20.8638  -33.8422 H   0  0  0  0  0  0  0  0  0  0  0  0
   -1.1999   18.7958  -34.7068 H   0  0  0  0  0  0  0  0  0  0  0  0
   -3.5819   18.3196  -34.1892 H   0  0  0  0  0  0  0  0  0  0  0  0
   -5.8994   18.0911  -31.8829 H   0  0  0  0  0  0  0  0  0  0  0  0
   -6.6859   18.5488  -33.4317 H   0  0  0  0  0  0  0  0  0  0  0  0
   -5.0084   17.9063  -33.4317 H   0  0  0  0  0  0  0  0  0  0  0  0
   -7.8719   19.8946  -32.7619 H   0  0  0  0  0  0  0  0  0  0  0  0
  -10.1480   21.6253  -30.9058 H   0  0  0  0  0  0  0  0  0  0  0  0
  -10.1982   22.5232  -32.4608 H   0  0  0  0  0  0  0  0  0  0  0  0
  -10.0093   20.7368  -32.4608 H   0  0  0  0  0  0  0  0  0  0  0  0
   -8.3645   23.7731  -30.9761 H   0  0  0  0  0  0  0  0  0  0  0  0
   -5.8175   24.6304  -29.8502 H   0  0  0  0  0  0  0  0  0  0  0  0
   -4.8298   24.7402  -31.3465 H   0  0  0  0  0  0  0  0  0  0  0  0
   -6.5283   25.3249  -31.3465 H   0  0  0  0  0  0  0  0  0  0  0  0
  1  2  1  0
  2  3  1  0
  3  4  1  0
  4  5  1  0
  3  6  1  0
  6  7  1  0
  7  8  1  0
  8  9  1  0
  9 10  1  0
 10 11  1  0
 11 12  1  0
 12 13  1  0
 13 14  2  0
 14 15  1  0
 15 16  2  0
 16 17  1  0
 17 18  2  0
 18 19  1  0
 19 20  2  0
 20 21  1  0
 20 22  1  0
 22 23  2  0
 23 24  1  0
 24 25  1  0
 24 26  2  0
 26 27  1  0
 27 28  1  0
 27 29  2  0
 29 13  1  0
 19 14  1  0
 29 22  1  0
  1 30  1  0
  1 31  1  0
  1 32  1  0
  2 33  1  0
  2 34  1  0
  3 35  1  0
  4 36  1  0
  4 37  1  0
  5 38  1  0
  5 39  1  0
  5 40  1  0
  6 41  1  0
  6 42  1  0
  7 43  1  0
  7 44  1  0
  9 45  1  0
  9 46  1  0
 10 47  1  0
 10 48  1  0
 11 49  1  0
 11 50  1  0
 12 51  1  0
 15 52  1  0
 16 53  1  0
 17 54  1  0
 18 55  1  0
 21 56  1  0
 21 57  1  0
 21 58  1  0
 23 59  1  0
 25 60  1  0
 25 61  1  0
 25 62  1  0
 26 63  1  0
 28 64  1  0
 28 65  1  0
 28 66  1  0
M  CHG  2   3   1  20   1
M  END
>  <UniqueID>  (28) 
28

>  <SMILES>  (28) 
CC[NH+](CC)CCOCCCNc1c2ccccc2[n+](C)c2cc(C)cc(C)c12

>  <Energy>  (28) 
102.14535754759385

>  <Genealogy>  (28) 
CC[NH+](CC)CCOCCCNc1c2ccccc2[n+](C)c2cc(C)cc(C)c12 (protonated)
CC[NH+](CC)CCOCCCNc1c2ccccc2[n+](C)c2cc(C)cc(C)c12 (3D coordinates assigned)
CC[NH+](CC)CCOCCCNc1c2ccccc2[n+](C)c2cc(C)cc(C)c12 (optimized conformer: 102.14535754759385 kcal/mol)

>  <smiles>  (28) 
CCN(CC)CCOCCCNc1c2ccccc2[n+](C)c2cc(C)cc(C)c12

>  <score_type>  (28) 
oracle

>  <origin>  (28) 
adg

>  <m_score__min__energy>  (28) 
-7.9800000000000004

>  <m_primary>  (28) 
energy

$$$$
29:0
     RDKit          3D

 55 57  0  0  0  0  0  0  0  0999 V2000
   -0.5460   21.1590  -33.7980 C   0  0  0  0  0  0  0  0  0  0  0  0
   -1.9000   20.5250  -33.6570 C   0  0  0  0  0  0  0  0  0  0  0  0
   -2.1450   19.2670  -34.2000 C   0  0  0  0  0  0  0  0  0  0  0  0
   -3.4190   18.7100  -34.1400 C   0  0  0  0  0  0  0  0  0  0  0  0
   -4.5030   19.4100  -33.5500 C   0  0  0  0  0  0  0  0  0  0  0  0
   -4.2370   20.6530  -32.9130 C   0  0  0  0  0  0  0  0  0  0  0  0
   -2.9400   21.2150  -33.0280 C   0  0  0  0  0  0  0  0  0  0  0  0
   -5.2690   21.3060  -32.1860 C   0  0  0  0  0  0  0  0  0  0  0  0
   -4.9830   22.5100  -31.4200 N   0  0  0  0  0  0  0  0  0  0  0  0
   -5.8470   23.6160  -31.8640 C   0  0  0  0  0  0  0  0  0  0  0  0
   -5.4540   24.9500  -31.2150 C   0  0  0  0  0  0  0  0  0  0  0  0
   -4.1640   24.8260  -30.5190 N   0  0  0  0  0  0  0  0  0  0  0  0
   -4.3390   24.4790  -29.1010 C   0  0  0  0  0  0  0  0  0  0  0  0
   -3.2440   23.5130  -28.6370 C   0  0  0  0  0  0  0  0  0  0  0  0
   -2.9940   22.4880  -29.6780 N   0  0  0  0  0  0  0  0  0  0  0  0
   -1.6680   22.6620  -30.2940 C   0  0  0  0  0  0  0  0  0  0  0  0
   -3.1070   21.1300  -29.1250 C   0  0  0  0  0  0  0  0  0  0  0  0
   -6.5650   20.7280  -32.1760 C   0  0  0  0  0  0  0  0  0  0  0  0
   -7.6610   21.3670  -31.5410 C   0  0  0  0  0  0  0  0  0  0  0  0
   -8.9010   20.7420  -31.4450 C   0  0  0  0  0  0  0  0  0  0  0  0
   -9.0820   19.4710  -31.9690 C   0  0  0  0  0  0  0  0  0  0  0  0
   -8.0410   18.8420  -32.6460 C   0  0  0  0  0  0  0  0  0  0  0  0
   -6.7830   19.4770  -32.8190 C   0  0  0  0  0  0  0  0  0  0  0  0
   -5.7870   18.9020  -33.5820 N   0  0  0  0  0  0  0  0  0  0  0  0
   -6.1120   17.7760  -34.4890 C   0  0  0  0  0  0  0  0  0  0  0  0
   -0.1272   21.3551  -32.7999 H   0  0  0  0  0  0  0  0  0  0  0  0
    0.1214   20.4798  -34.3487 H   0  0  0  0  0  0  0  0  0  0  0  0
   -0.6404   22.1065  -34.3487 H   0  0  0  0  0  0  0  0  0  0  0  0
   -1.3267   18.7097  -34.6794 H   0  0  0  0  0  0  0  0  0  0  0  0
   -3.5890   17.7070  -34.5584 H   0  0  0  0  0  0  0  0  0  0  0  0
   -2.7484   22.2156  -32.6132 H   0  0  0  0  0  0  0  0  0  0  0  0
   -5.0970   22.3510  -30.3950 H   0  0  0  0  0  0  0  0  0  0  0  0
   -3.9740   22.7580  -31.5040 H   0  0  0  0  0  0  0  0  0  0  0  0
   -5.7640   23.7147  -32.9564 H   0  0  0  0  0  0  0  0  0  0  0  0
   -6.8788   23.3828  -31.5623 H   0  0  0  0  0  0  0  0  0  0  0  0
   -5.3715   25.7212  -31.9950 H   0  0  0  0  0  0  0  0  0  0  0  0
   -6.2265   25.2302  -30.4837 H   0  0  0  0  0  0  0  0  0  0  0  0
   -3.6310   24.0450  -30.9710 H   0  0  0  0  0  0  0  0  0  0  0  0
   -4.2898   25.3968  -28.4966 H   0  0  0  0  0  0  0  0  0  0  0  0
   -5.3162   23.9897  -28.9762 H   0  0  0  0  0  0  0  0  0  0  0  0
   -2.3174   24.0758  -28.4507 H   0  0  0  0  0  0  0  0  0  0  0  0
   -3.5717   23.0147  -27.7127 H   0  0  0  0  0  0  0  0  0  0  0  0
   -0.9076   22.7618  -29.5054 H   0  0  0  0  0  0  0  0  0  0  0  0
   -1.4360   21.7866  -30.9184 H   0  0  0  0  0  0  0  0  0  0  0  0
   -1.6697   23.5676  -30.9184 H   0  0  0  0  0  0  0  0  0  0  0  0
   -3.1028   21.1801  -28.0261 H   0  0  0  0  0  0  0  0  0  0  0  0
   -4.0464   20.6716  -29.4676 H   0  0  0  0  0  0  0  0  0  0  0  0
   -2.2563   20.5226  -29.4676 H   0  0  0  0  0  0  0  0  0  0  0  0
   -7.5286   22.3735  -31.1173 H   0  0  0  0  0  0  0  0  0  0  0  0
   -9.7389   21.2573  -30.9526 H   0  0  0  0  0  0  0  0  0  0  0  0
  -10.0486   18.9596  -31.8497 H   0  0  0  0  0  0  0  0  0  0  0  0
   -8.1961   17.8328  -33.0551 H   0  0  0  0  0  0  0  0  0  0  0  0
   -6.3684   16.8876  -33.8932 H   0  0  0  0  0  0  0  0  0  0  0  0
   -6.9673   18.0514  -35.1235 H   0  0  0  0  0  0  0  0  0  0  0  0
   -5.2415   17.5533  -35.1235 H   0  0  0  0  0  0  0  0  0  0  0  0
  1  2  1  0
  2  3  2  0
  3  4  1  0
  4  5  2  0
  5  6  1  0
  6  7  2  0
  6  8  1  0
  8  9  1  0
  9 10  1  0
 10 11  1  0
 11 12  1  0
 12 13  1  0
 13 14  1  0
 14 15  1  0
 15 16  1  0
 15 17  1  0
  8 18  2  0
 18 19  1  0
 19 20  2  0
 20 21  1  0
 21 22  2  0
 22 23  1  0
 23 24  2  0
 24 25  1  0
  7  2  1  0
 23 18  1  0
 24  5  1  0
  1 26  1  0
  1 27  1  0
  1 28  1  0
  3 29  1  0
  4 30  1  0
  7 31  1  0
  9 32  1  0
  9 33  1  0
 10 34  1  0
 10 35  1  0
 11 36  1  0
 11 37  1  0
 12 38  1  0
 13 39  1  0
 13 40  1  0
 14 41  1  0
 14 42  1  0
 16 43  1  0
 16 44  1  0
 16 45  1  0
 17 46  1  0
 17 47  1  0
 17 48  1  0
 19 49  1  0
 20 50  1  0
 21 51  1  0
 22 52  1  0
 25 53  1  0
 25 54  1  0
 25 55  1  0
M  CHG  2   9   1  24   1
M  END
>  <UniqueID>  (29) 
29

>  <SMILES>  (29) 
Cc1ccc2c(c1)c([NH2+]CCNCCN(C)C)c1ccccc1[n+]2C

>  <Energy>  (29) 
81.26671208657132

>  <Genealogy>  (29) 
Cc1ccc2c(c1)c([NH2+]CCNCCN(C)C)c1ccccc1[n+]2C (protonated)
Cc1ccc2c(c1)c([NH2+]CCNCCN(C)C)c1ccccc1[n+]2C (3D coordinates assigned)
Cc1ccc2c(c1)c([NH2+]CCNCCN(C)C)c1ccccc1[n+]2C (optimized conformer: 81.26671208657132 kcal/mol)

>  <smiles>  (29) 
Cc1ccc2c(c1)c(NCCNCCN(C)C)c1ccccc1[n+]2C

>  <score_type>  (29) 
oracle

>  <origin>  (29) 
adg

>  <m_score__min__energy>  (29) 
-6.4900000000000002

>  <m_primary>  (29) 
energy

$$$$
30:0
     RDKit          3D

 89 93  0  0  0  0  0  0  0  0999 V2000
   -3.1480   18.8980  -26.3460 C   0  0  0  0  0  0  0  0  0  0  0  0
   -1.7330   18.5400  -26.7930 C   0  0  0  0  0  0  0  0  0  0  0  0
   -1.3160   19.3770  -27.9350 N   0  0  0  0  0  0  0  0  0  0  0  0
   -1.4920   20.8190  -27.6670 C   0  0  0  0  0  0  0  0  0  0  0  0
    0.0320   19.0420  -28.4610 C   0  0  0  0  0  0  0  0  0  0  0  0
    0.4140   17.5370  -28.4510 C   0  0  0  0  0  0  0  0  0  0  0  0
    1.3880   17.1630  -29.4970 N   0  0  0  0  0  0  0  0  0  0  0  0
    1.0200   15.9090  -30.1460 C   0  0  0  0  0  0  0  0  0  0  0  0
    1.1570   14.6680  -29.4650 C   0  0  0  0  0  0  0  0  0  0  0  0
    1.7750   14.5790  -28.1930 C   0  0  0  0  0  0  0  0  0  0  0  0
    1.8040   13.3770  -27.4900 C   0  0  0  0  0  0  0  0  0  0  0  0
    1.2180   12.2390  -28.0290 C   0  0  0  0  0  0  0  0  0  0  0  0
    0.6560   12.2820  -29.3030 C   0  0  0  0  0  0  0  0  0  0  0  0
    0.6700   13.4750  -30.0740 C   0  0  0  0  0  0  0  0  0  0  0  0
    0.2110   13.4900  -31.3750 N   0  0  0  0  0  0  0  0  0  0  0  0
    0.0010   12.2150  -32.1040 C   0  0  0  0  0  0  0  0  0  0  0  0
   -0.0080   14.6900  -32.0220 C   0  0  0  0  0  0  0  0  0  0  0  0
   -0.7220   14.7450  -33.2490 C   0  0  0  0  0  0  0  0  0  0  0  0
   -0.8990   15.9530  -33.9410 C   0  0  0  0  0  0  0  0  0  0  0  0
   -1.6510   16.0610  -35.1260 O   0  0  0  0  0  0  0  0  0  0  0  0
   -3.0130   15.6670  -35.2960 C   0  0  0  0  0  0  0  0  0  0  0  0
   -3.8070   15.9350  -34.0000 C   0  0  0  0  0  0  0  0  0  0  0  0
   -4.3340   17.3330  -33.8230 N   0  0  2  0  0  0  0  0  0  0  0  0
   -3.2720   18.2330  -34.3550 C   0  0  0  0  0  0  0  0  0  0  0  0
   -4.5520   17.6520  -32.3770 C   0  0  0  0  0  0  0  0  0  0  0  0
   -5.4150   18.9140  -32.1880 C   0  0  0  0  0  0  0  0  0  0  0  0
   -6.7960   18.7800  -32.7650 N   0  0  1  0  0  0  0  0  0  0  0  0
   -7.7420   18.4120  -31.6790 C   0  0  0  0  0  0  0  0  0  0  0  0
   -7.2380   20.0620  -33.4120 C   0  0  0  0  0  0  0  0  0  0  0  0
   -6.8970   21.3340  -32.6410 C   0  0  0  0  0  0  0  0  0  0  0  0
   -5.5640   21.7940  -32.6360 C   0  0  0  0  0  0  0  0  0  0  0  0
   -5.2060   22.9400  -31.9180 C   0  0  0  0  0  0  0  0  0  0  0  0
   -6.1600   23.6200  -31.1640 C   0  0  0  0  0  0  0  0  0  0  0  0
   -5.7010   25.0520  -30.2590 Cl  0  0  0  0  0  0  0  0  0  0  0  0
   -7.4730   23.1440  -31.1050 C   0  0  0  0  0  0  0  0  0  0  0  0
   -7.8450   21.9950  -31.8200 C   0  0  0  0  0  0  0  0  0  0  0  0
   -9.4720   21.3740  -31.5550 Cl  0  0  0  0  0  0  0  0  0  0  0  0
   -6.8650   17.6860  -33.7940 C   0  0  0  0  0  0  0  0  0  0  0  0
   -5.5790   17.5550  -34.6380 C   0  0  0  0  0  0  0  0  0  0  0  0
   -0.3240   17.1110  -33.4310 C   0  0  0  0  0  0  0  0  0  0  0  0
    0.3480   17.0950  -32.2150 C   0  0  0  0  0  0  0  0  0  0  0  0
    0.4570   15.9080  -31.4530 C   0  0  0  0  0  0  0  0  0  0  0  0
   -3.1935   18.9095  -25.2470 H   0  0  0  0  0  0  0  0  0  0  0  0
   -3.4148   19.8919  -26.7344 H   0  0  0  0  0  0  0  0  0  0  0  0
   -3.8554   18.1505  -26.7344 H   0  0  0  0  0  0  0  0  0  0  0  0
   -1.0386   18.7013  -25.9553 H   0  0  0  0  0  0  0  0  0  0  0  0
   -1.7183   17.4853  -27.1052 H   0  0  0  0  0  0  0  0  0  0  0  0
   -1.5129   20.9902  -26.5806 H   0  0  0  0  0  0  0  0  0  0  0  0
   -0.6556   21.3791  -28.1104 H   0  0  0  0  0  0  0  0  0  0  0  0
   -2.4386   21.1615  -28.1104 H   0  0  0  0  0  0  0  0  0  0  0  0
    0.0842   19.3952  -29.5015 H   0  0  0  0  0  0  0  0  0  0  0  0
    0.7447   19.5325  -27.7817 H   0  0  0  0  0  0  0  0  0  0  0  0
    0.8489   17.2959  -27.4698 H   0  0  0  0  0  0  0  0  0  0  0  0
   -0.5072   16.9709  -28.6533 H   0  0  0  0  0  0  0  0  0  0  0  0
    2.3580   17.1010  -29.1270 H   0  0  0  0  0  0  0  0  0  0  0  0
    1.4660   17.9320  -30.1940 H   0  0  0  0  0  0  0  0  0  0  0  0
    2.2395   15.4740  -27.7535 H   0  0  0  0  0  0  0  0  0  0  0  0
    2.2922   13.3289  -26.5055 H   0  0  0  0  0  0  0  0  0  0  0  0
    1.1976   11.3039  -27.4500 H   0  0  0  0  0  0  0  0  0  0  0  0
    0.1929   11.3754  -29.7196 H   0  0  0  0  0  0  0  0  0  0  0  0
   -0.1337   11.3971  -31.3809 H   0  0  0  0  0  0  0  0  0  0  0  0
   -0.8957   12.2973  -32.7358 H   0  0  0  0  0  0  0  0  0  0  0  0
    0.8767   12.0053  -32.7358 H   0  0  0  0  0  0  0  0  0  0  0  0
   -1.1458   13.8196  -33.6662 H   0  0  0  0  0  0  0  0  0  0  0  0
   -3.4581   16.2423  -36.1212 H   0  0  0  0  0  0  0  0  0  0  0  0
   -3.0513   14.5921  -35.5266 H   0  0  0  0  0  0  0  0  0  0  0  0
   -4.6657   15.2477  -33.9839 H   0  0  0  0  0  0  0  0  0  0  0  0
   -3.0913   15.7832  -33.1786 H   0  0  0  0  0  0  0  0  0  0  0  0
   -2.7283   18.6938  -33.5171 H   0  0  0  0  0  0  0  0  0  0  0  0
   -2.5713   17.6496  -34.9703 H   0  0  0  0  0  0  0  0  0  0  0  0
   -3.7326   19.0200  -34.9703 H   0  0  0  0  0  0  0  0  0  0  0  0
   -5.0579   16.8008  -31.8979 H   0  0  0  0  0  0  0  0  0  0  0  0
   -3.5698   17.8404  -31.9189 H   0  0  0  0  0  0  0  0  0  0  0  0
   -5.5047   19.1178  -31.1108 H   0  0  0  0  0  0  0  0  0  0  0  0
   -4.9154   19.7343  -32.7242 H   0  0  0  0  0  0  0  0  0  0  0  0
   -7.2692   18.5959  -30.7030 H   0  0  0  0  0  0  0  0  0  0  0  0
   -8.6540   19.0209  -31.7652 H   0  0  0  0  0  0  0  0  0  0  0  0
   -8.0028   17.3468  -31.7652 H   0  0  0  0  0  0  0  0  0  0  0  0
   -6.7603   20.1258  -34.4008 H   0  0  0  0  0  0  0  0  0  0  0  0
   -8.3363   20.0178  -33.4546 H   0  0  0  0  0  0  0  0  0  0  0  0
   -4.7972   21.2457  -33.2029 H   0  0  0  0  0  0  0  0  0  0  0  0
   -4.1688   23.3051  -31.9488 H   0  0  0  0  0  0  0  0  0  0  0  0
   -8.2193   23.6733  -30.4944 H   0  0  0  0  0  0  0  0  0  0  0  0
   -7.0410   16.7314  -33.2765 H   0  0  0  0  0  0  0  0  0  0  0  0
   -7.6818   17.9417  -34.4850 H   0  0  0  0  0  0  0  0  0  0  0  0
   -5.7002   16.7036  -35.3238 H   0  0  0  0  0  0  0  0  0  0  0  0
   -5.4470   18.5096  -35.1684 H   0  0  0  0  0  0  0  0  0  0  0  0
   -0.4018   18.0512  -33.9967 H   0  0  0  0  0  0  0  0  0  0  0  0
    0.8037   18.0224  -31.8378 H   0  0  0  0  0  0  0  0  0  0  0  0
  1  2  1  0
  2  3  1  0
  3  4  1  0
  3  5  1  0
  5  6  1  0
  6  7  1  0
  7  8  1  0
  8  9  2  0
  9 10  1  0
 10 11  2  0
 11 12  1  0
 12 13  2  0
 13 14  1  0
 14 15  2  0
 15 16  1  0
 15 17  1  0
 17 18  2  0
 18 19  1  0
 19 20  1  0
 20 21  1  0
 21 22  1  0
 23 22  1  1
 23 24  1  0
 23 25  1  0
 25 26  1  0
 26 27  1  0
 27 28  1  1
 27 29  1  0
 29 30  1  0
 30 31  2  0
 31 32  1  0
 32 33  2  0
 33 34  1  0
 33 35  1  0
 35 36  2  0
 36 37  1  0
 27 38  1  0
 38 39  1  0
 19 40  2  0
 40 41  1  0
 41 42  2  0
 42  8  1  0
 14  9  1  0
 42 17  1  0
 39 23  1  0
 36 30  1  0
  1 43  1  0
  1 44  1  0
  1 45  1  0
  2 46  1  0
  2 47  1  0
  4 48  1  0
  4 49  1  0
  4 50  1  0
  5 51  1  0
  5 52  1  0
  6 53  1  0
  6 54  1  0
  7 55  1  0
  7 56  1  0
 10 57  1  0
 11 58  1  0
 12 59  1  0
 13 60  1  0
 16 61  1  0
 16 62  1  0
 16 63  1  0
 18 64  1  0
 21 65  1  0
 21 66  1  0
 22 67  1  0
 22 68  1  0
 24 69  1  0
 24 70  1  0
 24 71  1  0
 25 72  1  0
 25 73  1  0
 26 74  1  0
 26 75  1  0
 28 76  1  0
 28 77  1  0
 28 78  1  0
 29 79  1  0
 29 80  1  0
 31 81  1  0
 32 82  1  0
 35 83  1  0
 38 84  1  0
 38 85  1  0
 39 86  1  0
 39 87  1  0
 40 88  1  0
 41 89  1  0
M  CHG  4   7   1  15   1  23   1  27   1
M  END
>  <UniqueID>  (30) 
30

>  <SMILES>  (30) 
CCN(C)CC[NH2+]c1c2ccccc2[n+](C)c2cc(OCC[N+]3(C)CC[N+](C)(Cc4ccc(Cl)cc4Cl)CC3)ccc12

>  <Energy>  (30) 
164.70893650136514

>  <Genealogy>  (30) 
CCN(C)CC[NH2+]c1c2ccccc2[n+](C)c2cc(OCC[N+]3(C)CC[N+](C)(Cc4ccc(Cl)cc4Cl)CC3)ccc12 (protonated)
CCN(C)CC[NH2+]c1c2ccccc2[n+](C)c2cc(OCC[N+]3(C)CC[N+](C)(Cc4ccc(Cl)cc4Cl)CC3)ccc12 (3D coordinates assigned)
CCN(C)CC[NH2+]c1c2ccccc2[n+](C)c2cc(OCC[N+]3(C)CC[N+](C)(Cc4ccc(Cl)cc4Cl)CC3)ccc12 (nonaromatic ring conformer: 164.70893650136514 kcal/mol)

>  <smiles>  (30) 
CCN(C)CCNc1c2ccccc2[n+](C)c2cc(OCC[N+]3(C)CC[N+](C)(Cc4ccc(Cl)cc4Cl)CC3)ccc12

>  <score_type>  (30) 
oracle

>  <origin>  (30) 
adg

>  <m_score__min__energy>  (30) 
-8.9600000000000009

>  <m_primary>  (30) 
energy

$$$$
31:0
     RDKit          3D

 71 74  0  0  0  0  0  0  0  0999 V2000
    0.6770   21.5290  -35.6930 C   0  0  0  0  0  0  0  0  0  0  0  0
   -0.0400   20.4950  -34.8200 C   0  0  0  0  0  0  0  0  0  0  0  0
   -1.3310   20.9910  -34.3060 N   0  0  0  0  0  0  0  0  0  0  0  0
   -1.3110   21.1720  -32.8440 C   0  0  0  0  0  0  0  0  0  0  0  0
   -2.7270   21.4280  -32.3120 C   0  0  0  0  0  0  0  0  0  0  0  0
   -3.7410   21.1710  -33.3390 N   0  0  0  0  0  0  0  0  0  0  0  0
   -5.1200   20.9290  -33.0110 C   0  0  0  0  0  0  0  0  0  0  0  0
   -5.8540   21.9270  -32.3430 C   0  0  0  0  0  0  0  0  0  0  0  0
   -5.3100   23.2150  -32.1420 C   0  0  0  0  0  0  0  0  0  0  0  0
   -6.0010   24.1740  -31.4050 C   0  0  0  0  0  0  0  0  0  0  0  0
   -7.2380   23.8680  -30.8550 C   0  0  0  0  0  0  0  0  0  0  0  0
   -7.8190   22.6220  -31.0840 C   0  0  0  0  0  0  0  0  0  0  0  0
   -7.1630   21.6430  -31.8790 C   0  0  0  0  0  0  0  0  0  0  0  0
   -7.7650   20.4410  -32.1900 N   0  0  0  0  0  0  0  0  0  0  0  0
   -9.2210   20.2680  -31.9680 C   0  0  0  0  0  0  0  0  0  0  0  0
   -7.0270   19.4200  -32.7620 C   0  0  0  0  0  0  0  0  0  0  0  0
   -7.5500   18.1090  -32.8570 C   0  0  0  0  0  0  0  0  0  0  0  0
   -6.8620   17.1070  -33.5220 C   0  0  0  0  0  0  0  0  0  0  0  0
   -5.6290   17.3660  -34.0950 C   0  0  0  0  0  0  0  0  0  0  0  0
   -5.0220   18.6280  -33.9600 C   0  0  0  0  0  0  0  0  0  0  0  0
   -3.7780   18.8980  -34.5650 O   0  0  0  0  0  0  0  0  0  0  0  0
   -2.6260   18.0500  -34.5880 C   0  0  0  0  0  0  0  0  0  0  0  0
   -2.5490   17.1060  -33.3500 C   0  0  0  0  0  0  0  0  0  0  0  0
   -2.7570   15.6190  -33.5380 N   0  0  0  0  0  0  0  0  0  0  0  0
   -1.4550   15.0050  -33.0880 C   0  0  0  0  0  0  0  0  0  0  0  0
   -1.5550   13.8470  -32.0860 C   0  0  0  0  0  0  0  0  0  0  0  0
   -3.8720   15.1460  -32.6350 C   0  0  0  0  0  0  0  0  0  0  0  0
   -4.7450   14.0080  -33.1970 C   0  0  0  0  0  0  0  0  0  0  0  0
   -5.0620   14.2260  -34.5480 O   0  0  0  0  0  0  0  0  0  0  0  0
   -3.8770   14.1290  -35.2940 C   0  0  0  0  0  0  0  0  0  0  0  0
   -2.9660   15.3270  -35.0000 C   0  0  0  0  0  0  0  0  0  0  0  0
   -5.7080   19.6630  -33.2520 C   0  0  0  0  0  0  0  0  0  0  0  0
    1.1855   22.2624  -35.0499 H   0  0  0  0  0  0  0  0  0  0  0  0
    1.4183   21.0219  -36.3281 H   0  0  0  0  0  0  0  0  0  0  0  0
   -0.0578   22.0454  -36.3281 H   0  0  0  0  0  0  0  0  0  0  0  0
   -0.2224   19.5915  -35.4203 H   0  0  0  0  0  0  0  0  0  0  0  0
    0.6053   20.2809  -33.9553 H   0  0  0  0  0  0  0  0  0  0  0  0
   -2.0640   20.2820  -34.5430 H   0  0  0  0  0  0  0  0  0  0  0  0
   -1.5820   21.8930  -34.7790 H   0  0  0  0  0  0  0  0  0  0  0  0
   -0.9065   20.2640  -32.3729 H   0  0  0  0  0  0  0  0  0  0  0  0
   -0.6794   22.0397  -32.6028 H   0  0  0  0  0  0  0  0  0  0  0  0
   -2.9116   20.7654  -31.4536 H   0  0  0  0  0  0  0  0  0  0  0  0
   -2.7979   22.4843  -32.0134 H   0  0  0  0  0  0  0  0  0  0  0  0
   -3.4610   21.1900  -34.3450 H   0  0  0  0  0  0  0  0  0  0  0  0
   -4.3288   23.4637  -32.5727 H   0  0  0  0  0  0  0  0  0  0  0  0
   -5.5663   25.1738  -31.2589 H   0  0  0  0  0  0  0  0  0  0  0  0
   -7.7617   24.6115  -30.2362 H   0  0  0  0  0  0  0  0  0  0  0  0
   -8.8002   22.3926  -30.6428 H   0  0  0  0  0  0  0  0  0  0  0  0
   -9.4268   20.2435  -30.8877 H   0  0  0  0  0  0  0  0  0  0  0  0
   -9.7641   21.1079  -32.4258 H   0  0  0  0  0  0  0  0  0  0  0  0
   -9.5521   19.3242  -32.4258 H   0  0  0  0  0  0  0  0  0  0  0  0
   -8.5214   17.8808  -32.3941 H   0  0  0  0  0  0  0  0  0  0  0  0
   -7.2982   16.0998  -33.5950 H   0  0  0  0  0  0  0  0  0  0  0  0
   -5.1172   16.5752  -34.6631 H   0  0  0  0  0  0  0  0  0  0  0  0
   -2.6607   17.4340  -35.4987 H   0  0  0  0  0  0  0  0  0  0  0  0
   -1.7367   18.6971  -34.5682 H   0  0  0  0  0  0  0  0  0  0  0  0
   -1.5501   17.2369  -32.9084 H   0  0  0  0  0  0  0  0  0  0  0  0
   -3.4075   17.4132  -32.7346 H   0  0  0  0  0  0  0  0  0  0  0  0
   -0.9358   14.6295  -33.9821 H   0  0  0  0  0  0  0  0  0  0  0  0
   -0.9237   15.8069  -32.5545 H   0  0  0  0  0  0  0  0  0  0  0  0
   -1.5206   14.2450  -31.0611 H   0  0  0  0  0  0  0  0  0  0  0  0
   -2.5028   13.3103  -32.2393 H   0  0  0  0  0  0  0  0  0  0  0  0
   -0.7132   13.1557  -32.2393 H   0  0  0  0  0  0  0  0  0  0  0  0
   -3.4207   14.7942  -31.6955 H   0  0  0  0  0  0  0  0  0  0  0  0
   -4.5442   16.0076  -32.5096 H   0  0  0  0  0  0  0  0  0  0  0  0
   -4.1973   13.0584  -33.1064 H   0  0  0  0  0  0  0  0  0  0  0  0
   -5.6822   13.9738  -32.6221 H   0  0  0  0  0  0  0  0  0  0  0  0
   -3.3534   13.1998  -35.0249 H   0  0  0  0  0  0  0  0  0  0  0  0
   -4.1270   14.1228  -36.3652 H   0  0  0  0  0  0  0  0  0  0  0  0
   -1.9834   15.1287  -35.4530 H   0  0  0  0  0  0  0  0  0  0  0  0
   -3.4694   16.2091  -35.4225 H   0  0  0  0  0  0  0  0  0  0  0  0
  1  2  1  0
  2  3  1  0
  3  4  1  0
  4  5  1  0
  5  6  1  0
  6  7  1  0
  7  8  2  0
  8  9  1  0
  9 10  2  0
 10 11  1  0
 11 12  2  0
 12 13  1  0
 13 14  2  0
 14 15  1  0
 14 16  1  0
 16 17  2  0
 17 18  1  0
 18 19  2  0
 19 20  1  0
 20 21  1  0
 21 22  1  0
 22 23  1  0
 23 24  1  0
 24 25  1  0
 25 26  1  0
 24 27  1  0
 27 28  1  0
 28 29  1  0
 29 30  1  0
 30 31  1  0
 20 32  2  0
 32  7  1  0
 13  8  1  0
 32 16  1  0
 31 24  1  0
  1 33  1  0
  1 34  1  0
  1 35  1  0
  2 36  1  0
  2 37  1  0
  3 38  1  0
  3 39  1  0
  4 40  1  0
  4 41  1  0
  5 42  1  0
  5 43  1  0
  6 44  1  0
  9 45  1  0
 10 46  1  0
 11 47  1  0
 12 48  1  0
 15 49  1  0
 15 50  1  0
 15 51  1  0
 17 52  1  0
 18 53  1  0
 19 54  1  0
 22 55  1  0
 22 56  1  0
 23 57  1  0
 23 58  1  0
 25 59  1  0
 25 60  1  0
 26 61  1  0
 26 62  1  0
 26 63  1  0
 27 64  1  0
 27 65  1  0
 28 66  1  0
 28 67  1  0
 30 68  1  0
 30 69  1  0
 31 70  1  0
 31 71  1  0
M  CHG  3   3   1  14   1  24   1
M  END
>  <UniqueID>  (31) 
31

>  <SMILES>  (31) 
CC[NH2+]CCNc1c2ccccc2[n+](C)c2cccc(OCC[N+]3(CC)CCOCC3)c12

>  <Energy>  (31) 
133.33987654009593

>  <Genealogy>  (31) 
CC[NH2+]CCNc1c2ccccc2[n+](C)c2cccc(OCC[N+]3(CC)CCOCC3)c12 (protonated)
CC[NH2+]CCNc1c2ccccc2[n+](C)c2cccc(OCC[N+]3(CC)CCOCC3)c12 (3D coordinates assigned)
CC[NH2+]CCNc1c2ccccc2[n+](C)c2cccc(OCC[N+]3(CC)CCOCC3)c12 (nonaromatic ring conformer: 133.33987654009593 kcal/mol)

>  <smiles>  (31) 
CCNCCNc1c2ccccc2[n+](C)c2cccc(OCC[N+]3(CC)CCOCC3)c12

>  <score_type>  (31) 
oracle

>  <origin>  (31) 
adg

>  <m_score__min__energy>  (31) 
-8.0500000000000007

>  <m_primary>  (31) 
energy

$$$$
32:0
     RDKit          3D

 73 76  0  0  0  0  0  0  0  0999 V2000
   -0.4710   19.1180  -30.7830 C   0  0  0  0  0  0  0  0  0  0  0  0
   -0.9920   18.7260  -32.1670 C   0  0  0  0  0  0  0  0  0  0  0  0
   -1.5430   19.8650  -32.9310 N   0  0  0  0  0  0  0  0  0  0  0  0
   -0.6340   21.0350  -33.0440 C   0  0  0  0  0  0  0  0  0  0  0  0
   -0.2010   21.3900  -34.4720 C   0  0  0  0  0  0  0  0  0  0  0  0
   -2.3050   19.4730  -34.1390 C   0  0  0  0  0  0  0  0  0  0  0  0
   -3.8290   19.3950  -33.8580 C   0  0  0  0  0  0  0  0  0  0  0  0
   -4.2420   19.3110  -32.4290 N   0  0  0  0  0  0  0  0  0  0  0  0
   -5.1640   20.3350  -31.9590 C   0  0  0  0  0  0  0  0  0  0  0  0
   -4.6320   21.5150  -31.3650 C   0  0  0  0  0  0  0  0  0  0  0  0
   -3.2470   21.6540  -31.0870 C   0  0  0  0  0  0  0  0  0  0  0  0
   -2.7520   22.7700  -30.4170 C   0  0  0  0  0  0  0  0  0  0  0  0
   -3.6150   23.7740  -30.0080 C   0  0  0  0  0  0  0  0  0  0  0  0
   -4.9710   23.6860  -30.3030 C   0  0  0  0  0  0  0  0  0  0  0  0
   -5.4980   22.5840  -31.0240 C   0  0  0  0  0  0  0  0  0  0  0  0
   -6.8190   22.5410  -31.3940 N   0  0  0  0  0  0  0  0  0  0  0  0
   -7.6130   23.7950  -31.4090 C   0  0  0  0  0  0  0  0  0  0  0  0
   -7.4000   21.3490  -31.7740 C   0  0  0  0  0  0  0  0  0  0  0  0
   -8.8110   21.2450  -31.8460 C   0  0  0  0  0  0  0  0  0  0  0  0
   -9.4310   20.0890  -32.2740 C   0  0  0  0  0  0  0  0  0  0  0  0
   -8.6770   18.9860  -32.6130 C   0  0  0  0  0  0  0  0  0  0  0  0
   -7.2790   19.0010  -32.5220 C   0  0  0  0  0  0  0  0  0  0  0  0
   -6.6180   17.7510  -32.7840 N   0  0  0  0  0  0  0  0  0  0  0  0
   -6.4510   17.1960  -34.1330 C   0  0  0  0  0  0  0  0  0  0  0  0
   -5.2020   16.3070  -34.2200 C   0  0  0  0  0  0  0  0  0  0  0  0
   -4.4710   16.2780  -32.9310 N   0  0  0  0  0  0  0  0  0  0  0  0
   -4.9790   15.2330  -31.9980 C   0  0  0  0  0  0  0  0  0  0  0  0
   -4.0630   13.9960  -31.8710 C   0  0  0  0  0  0  0  0  0  0  0  0
   -3.3560   13.6920  -33.1890 C   0  0  0  0  0  0  0  0  0  0  0  0
   -2.5050   14.8860  -33.6560 C   0  0  0  0  0  0  0  0  0  0  0  0
   -3.0000   16.2310  -33.0870 C   0  0  0  0  0  0  0  0  0  0  0  0
   -6.5950   20.2010  -32.0860 C   0  0  0  0  0  0  0  0  0  0  0  0
   -1.0958   18.6479  -30.0093 H   0  0  0  0  0  0  0  0  0  0  0  0
    0.5687   18.7763  -30.6723 H   0  0  0  0  0  0  0  0  0  0  0  0
   -0.5113   20.2117  -30.6723 H   0  0  0  0  0  0  0  0  0  0  0  0
   -0.1615   18.2899  -32.7415 H   0  0  0  0  0  0  0  0  0  0  0  0
   -1.8129   18.0100  -32.0141 H   0  0  0  0  0  0  0  0  0  0  0  0
   -1.1489   21.9085  -32.6175 H   0  0  0  0  0  0  0  0  0  0  0  0
    0.2851   20.7606  -32.5056 H   0  0  0  0  0  0  0  0  0  0  0  0
    0.6492   22.0870  -34.4348 H   0  0  0  0  0  0  0  0  0  0  0  0
    0.0986   20.4742  -35.0027 H   0  0  0  0  0  0  0  0  0  0  0  0
   -1.0403   21.8633  -35.0027 H   0  0  0  0  0  0  0  0  0  0  0  0
   -2.1262   20.2165  -34.9297 H   0  0  0  0  0  0  0  0  0  0  0  0
   -1.9629   18.4750  -34.4505 H   0  0  0  0  0  0  0  0  0  0  0  0
   -4.2936   20.2951  -34.2870 H   0  0  0  0  0  0  0  0  0  0  0  0
   -4.1585   18.4481  -34.3105 H   0  0  0  0  0  0  0  0  0  0  0  0
   -4.6640   18.3700  -32.2570 H   0  0  0  0  0  0  0  0  0  0  0  0
   -3.4150   19.2370  -31.8070 H   0  0  0  0  0  0  0  0  0  0  0  0
   -2.5510   20.8646  -31.4071 H   0  0  0  0  0  0  0  0  0  0  0  0
   -1.6745   22.8546  -30.2122 H   0  0  0  0  0  0  0  0  0  0  0  0
   -3.2278   24.6397  -29.4506 H   0  0  0  0  0  0  0  0  0  0  0  0
   -5.6482   24.4866  -29.9708 H   0  0  0  0  0  0  0  0  0  0  0  0
   -7.8147   24.1136  -30.3757 H   0  0  0  0  0  0  0  0  0  0  0  0
   -7.0475   24.5808  -31.9312 H   0  0  0  0  0  0  0  0  0  0  0  0
   -8.5652   23.6199  -31.9312 H   0  0  0  0  0  0  0  0  0  0  0  0
   -9.4278   22.1075  -31.5534 H   0  0  0  0  0  0  0  0  0  0  0  0
  -10.5279   20.0476  -32.3447 H   0  0  0  0  0  0  0  0  0  0  0  0
   -9.1838   18.0744  -32.9625 H   0  0  0  0  0  0  0  0  0  0  0  0
   -6.4020   17.1220  -31.9850 H   0  0  0  0  0  0  0  0  0  0  0  0
   -7.3370   16.5948  -34.3853 H   0  0  0  0  0  0  0  0  0  0  0  0
   -6.3329   18.0307  -34.8396 H   0  0  0  0  0  0  0  0  0  0  0  0
   -5.5083   15.2833  -34.4814 H   0  0  0  0  0  0  0  0  0  0  0  0
   -4.5336   16.7215  -34.9890 H   0  0  0  0  0  0  0  0  0  0  0  0
   -5.0883   15.6848  -31.0010 H   0  0  0  0  0  0  0  0  0  0  0  0
   -5.9337   14.8772  -32.4126 H   0  0  0  0  0  0  0  0  0  0  0  0
   -3.3074   14.1878  -31.0950 H   0  0  0  0  0  0  0  0  0  0  0  0
   -4.6850   13.1294  -31.6027 H   0  0  0  0  0  0  0  0  0  0  0  0
   -2.7022   12.8181  -33.0515 H   0  0  0  0  0  0  0  0  0  0  0  0
   -4.1201   13.4902  -33.9541 H   0  0  0  0  0  0  0  0  0  0  0  0
   -1.4668   14.7269  -33.3292 H   0  0  0  0  0  0  0  0  0  0  0  0
   -2.5839   14.9407  -34.7518 H   0  0  0  0  0  0  0  0  0  0  0  0
   -2.5364   16.3885  -32.1020 H   0  0  0  0  0  0  0  0  0  0  0  0
   -2.7161   17.0185  -33.8006 H   0  0  0  0  0  0  0  0  0  0  0  0
  1  2  1  0
  2  3  1  0
  3  4  1  0
  4  5  1  0
  3  6  1  0
  6  7  1  0
  7  8  1  0
  8  9  1  0
  9 10  2  0
 10 11  1  0
 11 12  2  0
 12 13  1  0
 13 14  2  0
 14 15  1  0
 15 16  2  0
 16 17  1  0
 16 18  1  0
 18 19  2  0
 19 20  1  0
 20 21  2  0
 21 22  1  0
 22 23  1  0
 23 24  1  0
 24 25  1  0
 25 26  1  0
 26 27  1  0
 27 28  1  0
 28 29  1  0
 29 30  1  0
 30 31  1  0
 22 32  2  0
 32  9  1  0
 15 10  1  0
 32 18  1  0
 31 26  1  0
  1 33  1  0
  1 34  1  0
  1 35  1  0
  2 36  1  0
  2 37  1  0
  4 38  1  0
  4 39  1  0
  5 40  1  0
  5 41  1  0
  5 42  1  0
  6 43  1  0
  6 44  1  0
  7 45  1  0
  7 46  1  0
  8 47  1  0
  8 48  1  0
 11 49  1  0
 12 50  1  0
 13 51  1  0
 14 52  1  0
 17 53  1  0
 17 54  1  0
 17 55  1  0
 19 56  1  0
 20 57  1  0
 21 58  1  0
 23 59  1  0
 24 60  1  0
 24 61  1  0
 25 62  1  0
 25 63  1  0
 27 64  1  0
 27 65  1  0
 28 66  1  0
 28 67  1  0
 29 68  1  0
 29 69  1  0
 30 70  1  0
 30 71  1  0
 31 72  1  0
 31 73  1  0
M  CHG  2   8   1  16   1
M  END
>  <UniqueID>  (32) 
32

>  <SMILES>  (32) 
CCN(CC)CC[NH2+]c1c2ccccc2[n+](C)c2cccc(NCCN3CCCCC3)c12

>  <Energy>  (32) 
134.98777641585082

>  <Genealogy>  (32) 
CCN(CC)CC[NH2+]c1c2ccccc2[n+](C)c2cccc(NCCN3CCCCC3)c12 (protonated)
CCN(CC)CC[NH2+]c1c2ccccc2[n+](C)c2cccc(NCCN3CCCCC3)c12 (3D coordinates assigned)
CCN(CC)CC[NH2+]c1c2ccccc2[n+](C)c2cccc(NCCN3CCCCC3)c12 (nonaromatic ring conformer: 134.98777641585082 kcal/mol)

>  <smiles>  (32) 
CCN(CC)CCNc1c2ccccc2[n+](C)c2cccc(NCCN3CCCCC3)c12

>  <score_type>  (32) 
oracle

>  <origin>  (32) 
adg

>  <m_score__min__energy>  (32) 
-9.3200000000000003

>  <m_primary>  (32) 
energy

$$$$
33:0
     RDKit          3D

 53 55  0  0  0  0  0  0  0  0999 V2000
   -2.4490   24.8480  -27.0890 C   0  0  0  0  0  0  0  0  0  0  0  0
   -3.8440   24.2320  -27.1130 C   0  0  0  0  0  0  0  0  0  0  0  0
   -4.2660   23.8730  -28.5490 C   0  0  0  0  0  0  0  0  0  0  0  0
   -5.3870   24.7030  -29.0280 N   0  0  0  0  0  0  0  0  0  0  0  0
   -5.7830   24.3630  -30.4070 C   0  0  0  0  0  0  0  0  0  0  0  0
   -4.7040   23.5310  -31.1150 C   0  0  0  0  0  0  0  0  0  0  0  0
   -5.1740   23.0150  -32.4030 N   0  0  0  0  0  0  0  0  0  0  0  0
   -5.7150   21.6890  -32.4850 C   0  0  0  0  0  0  0  0  0  0  0  0
   -7.1020   21.5130  -32.3180 C   0  0  0  0  0  0  0  0  0  0  0  0
   -7.9330   22.5950  -31.9520 C   0  0  0  0  0  0  0  0  0  0  0  0
   -9.3040   22.4140  -31.7820 C   0  0  0  0  0  0  0  0  0  0  0  0
   -9.8710   21.1600  -31.9770 C   0  0  0  0  0  0  0  0  0  0  0  0
   -9.0680   20.0780  -32.3360 C   0  0  0  0  0  0  0  0  0  0  0  0
   -7.6690   20.2300  -32.5030 C   0  0  0  0  0  0  0  0  0  0  0  0
   -6.8680   19.1670  -32.8560 N   0  0  0  0  0  0  0  0  0  0  0  0
   -7.3460   17.7930  -32.5880 C   0  0  0  0  0  0  0  0  0  0  0  0
   -5.5660   19.3840  -33.2660 C   0  0  0  0  0  0  0  0  0  0  0  0
   -4.8450   18.4420  -34.0620 C   0  0  0  0  0  0  0  0  0  0  0  0
   -5.5190   17.3790  -34.8990 C   0  0  0  0  0  0  0  0  0  0  0  0
   -3.4600   18.5710  -34.2000 C   0  0  0  0  0  0  0  0  0  0  0  0
   -2.7870   19.6360  -33.6250 C   0  0  0  0  0  0  0  0  0  0  0  0
   -3.4850   20.6560  -32.9690 C   0  0  0  0  0  0  0  0  0  0  0  0
   -2.6590   21.7330  -32.3100 C   0  0  0  0  0  0  0  0  0  0  0  0
   -4.9110   20.5970  -32.8980 C   0  0  0  0  0  0  0  0  0  0  0  0
   -2.1286   24.9895  -26.0463 H   0  0  0  0  0  0  0  0  0  0  0  0
   -1.7434   24.1778  -27.6017 H   0  0  0  0  0  0  0  0  0  0  0  0
   -2.4690   25.8210  -27.6017 H   0  0  0  0  0  0  0  0  0  0  0  0
   -3.8443   23.3190  -26.4995 H   0  0  0  0  0  0  0  0  0  0  0  0
   -4.5576   24.9669  -26.7123 H   0  0  0  0  0  0  0  0  0  0  0  0
   -3.4054   24.0211  -29.2179 H   0  0  0  0  0  0  0  0  0  0  0  0
   -4.5998   22.8249  -28.5491 H   0  0  0  0  0  0  0  0  0  0  0  0
   -6.2070   24.6010  -28.3860 H   0  0  0  0  0  0  0  0  0  0  0  0
   -5.0740   25.7020  -29.0010 H   0  0  0  0  0  0  0  0  0  0  0  0
   -6.7181   23.7845  -30.3777 H   0  0  0  0  0  0  0  0  0  0  0  0
   -5.9186   25.2998  -30.9674 H   0  0  0  0  0  0  0  0  0  0  0  0
   -3.8209   24.1642  -31.2858 H   0  0  0  0  0  0  0  0  0  0  0  0
   -4.4566   22.6732  -30.4723 H   0  0  0  0  0  0  0  0  0  0  0  0
   -4.8790   23.4770  -33.2930 H   0  0  0  0  0  0  0  0  0  0  0  0
   -7.4929   23.5915  -31.7995 H   0  0  0  0  0  0  0  0  0  0  0  0
   -9.9386   23.2647  -31.4930 H   0  0  0  0  0  0  0  0  0  0  0  0
  -10.9545   21.0210  -31.8480 H   0  0  0  0  0  0  0  0  0  0  0  0
   -9.5277   19.0909  -32.4920 H   0  0  0  0  0  0  0  0  0  0  0  0
   -7.4027   17.6299  -31.5016 H   0  0  0  0  0  0  0  0  0  0  0  0
   -8.3436   17.6588  -33.0315 H   0  0  0  0  0  0  0  0  0  0  0  0
   -6.6471   17.0686  -33.0315 H   0  0  0  0  0  0  0  0  0  0  0  0
   -5.9900   16.6361  -34.2384 H   0  0  0  0  0  0  0  0  0  0  0  0
   -6.2873   17.8446  -35.5338 H   0  0  0  0  0  0  0  0  0  0  0  0
   -4.7702   16.8827  -35.5338 H   0  0  0  0  0  0  0  0  0  0  0  0
   -2.8982   17.8179  -34.7719 H   0  0  0  0  0  0  0  0  0  0  0  0
   -1.6895   19.6807  -33.6847 H   0  0  0  0  0  0  0  0  0  0  0  0
   -2.7339   21.6353  -31.2169 H   0  0  0  0  0  0  0  0  0  0  0  0
   -1.6078   21.6279  -32.6163 H   0  0  0  0  0  0  0  0  0  0  0  0
   -3.0331   22.7210  -32.6163 H   0  0  0  0  0  0  0  0  0  0  0  0
  1  2  1  0
  2  3  1  0
  3  4  1  0
  4  5  1  0
  5  6  1  0
  6  7  1  0
  7  8  1  0
  8  9  2  0
  9 10  1  0
 10 11  2  0
 11 12  1  0
 12 13  2  0
 13 14  1  0
 14 15  2  0
 15 16  1  0
 15 17  1  0
 17 18  2  0
 18 19  1  0
 18 20  1  0
 20 21  2  0
 21 22  1  0
 22 23  1  0
 22 24  2  0
 24  8  1  0
 14  9  1  0
 24 17  1  0
  1 25  1  0
  1 26  1  0
  1 27  1  0
  2 28  1  0
  2 29  1  0
  3 30  1  0
  3 31  1  0
  4 32  1  0
  4 33  1  0
  5 34  1  0
  5 35  1  0
  6 36  1  0
  6 37  1  0
  7 38  1  0
 10 39  1  0
 11 40  1  0
 12 41  1  0
 13 42  1  0
 16 43  1  0
 16 44  1  0
 16 45  1  0
 19 46  1  0
 19 47  1  0
 19 48  1  0
 20 49  1  0
 21 50  1  0
 23 51  1  0
 23 52  1  0
 23 53  1  0
M  CHG  2   4   1  15   1
M  END
>  <UniqueID>  (33) 
33

>  <SMILES>  (33) 
CCC[NH2+]CCNc1c2ccccc2[n+](C)c2c(C)ccc(C)c12

>  <Energy>  (33) 
91.10530940152371

>  <Genealogy>  (33) 
CCC[NH2+]CCNc1c2ccccc2[n+](C)c2c(C)ccc(C)c12 (protonated)
CCC[NH2+]CCNc1c2ccccc2[n+](C)c2c(C)ccc(C)c12 (3D coordinates assigned)
CCC[NH2+]CCNc1c2ccccc2[n+](C)c2c(C)ccc(C)c12 (optimized conformer: 91.10530940152371 kcal/mol)

>  <smiles>  (33) 
CCCNCCNc1c2ccccc2[n+](C)c2c(C)ccc(C)c12

>  <score_type>  (33) 
oracle

>  <origin>  (33) 
adg

>  <m_score__min__energy>  (33) 
-8.1699999999999999

>  <m_primary>  (33) 
energy

$$$$
34:0
     RDKit          3D

 39 41  0  0  0  0  0  0  0  0999 V2000
   -4.6120   15.9470  -33.5050 C   0  0  0  0  0  0  0  0  0  0  0  0
   -4.9930   15.6910  -32.1880 C   0  0  0  0  0  0  0  0  0  0  0  0
   -5.7420   16.6060  -31.5160 N   0  0  0  0  0  0  0  0  0  0  0  0
   -6.1200   17.7780  -32.1040 C   0  0  0  0  0  0  0  0  0  0  0  0
   -5.7540   18.0230  -33.4400 C   0  0  0  0  0  0  0  0  0  0  0  0
   -4.9960   17.1060  -34.0990 N   0  0  0  0  0  0  0  0  0  0  0  0
   -6.1010   19.3130  -34.1230 C   0  0  0  0  0  0  0  0  0  0  0  0
   -7.2080   20.0780  -33.3790 C   0  0  0  0  0  0  0  0  0  0  0  0
   -6.9760   20.1120  -31.9200 N   0  0  0  0  0  0  0  0  0  0  0  0
   -5.7520   20.8610  -31.5520 C   0  0  0  0  0  0  0  0  0  0  0  0
   -5.6670   22.1710  -32.3650 C   0  0  0  0  0  0  0  0  0  0  0  0
   -5.0400   23.3010  -31.6460 N   0  0  0  0  0  0  0  0  0  0  0  0
   -5.9970   24.1980  -30.9760 C   0  0  0  0  0  0  0  0  0  0  0  0
   -5.2580   25.4540  -30.4660 C   0  0  0  0  0  0  0  0  0  0  0  0
   -3.8470   25.3040  -30.4740 O   0  0  0  0  0  0  0  0  0  0  0  0
   -3.4870   24.0770  -29.8720 C   0  0  0  0  0  0  0  0  0  0  0  0
   -3.9510   22.8910  -30.7390 C   0  0  0  0  0  0  0  0  0  0  0  0
   -7.0040   18.7460  -31.3520 C   0  0  0  0  0  0  0  0  0  0  0  0
   -4.0049   15.2154  -34.0584 H   0  0  0  0  0  0  0  0  0  0  0  0
   -4.6897   14.7551  -31.6960 H   0  0  0  0  0  0  0  0  0  0  0  0
   -6.0300   16.3970  -30.5340 H   0  0  0  0  0  0  0  0  0  0  0  0
   -5.2014   19.9444  -34.1680 H   0  0  0  0  0  0  0  0  0  0  0  0
   -6.4705   19.0753  -35.1314 H   0  0  0  0  0  0  0  0  0  0  0  0
   -7.2412   21.1105  -33.7570 H   0  0  0  0  0  0  0  0  0  0  0  0
   -8.1597   19.5564  -33.5586 H   0  0  0  0  0  0  0  0  0  0  0  0
   -5.7807   21.1001  -30.4787 H   0  0  0  0  0  0  0  0  0  0  0  0
   -4.8705   20.2416  -31.7740 H   0  0  0  0  0  0  0  0  0  0  0  0
   -5.0791   21.9736  -33.2736 H   0  0  0  0  0  0  0  0  0  0  0  0
   -6.7027   22.4733  -32.5791 H   0  0  0  0  0  0  0  0  0  0  0  0
   -6.7792   24.4975  -31.6890 H   0  0  0  0  0  0  0  0  0  0  0  0
   -6.4563   23.6732  -30.1254 H   0  0  0  0  0  0  0  0  0  0  0  0
   -5.5245   26.3044  -31.1108 H   0  0  0  0  0  0  0  0  0  0  0  0
   -5.5672   25.6192  -29.4234 H   0  0  0  0  0  0  0  0  0  0  0  0
   -2.3935   24.0366  -29.7595 H   0  0  0  0  0  0  0  0  0  0  0  0
   -3.9735   24.0086  -28.8878 H   0  0  0  0  0  0  0  0  0  0  0  0
   -3.1020   22.5266  -31.3361 H   0  0  0  0  0  0  0  0  0  0  0  0
   -4.3232   22.0946  -30.0778 H   0  0  0  0  0  0  0  0  0  0  0  0
   -6.6633   18.7933  -30.3071 H   0  0  0  0  0  0  0  0  0  0  0  0
   -8.0376   18.3775  -31.4294 H   0  0  0  0  0  0  0  0  0  0  0  0
  1  2  2  0
  2  3  1  0
  3  4  2  0
  4  5  1  0
  5  6  2  0
  5  7  1  0
  7  8  1  0
  8  9  1  0
  9 10  1  0
 10 11  1  0
 11 12  1  0
 12 13  1  0
 13 14  1  0
 14 15  1  0
 15 16  1  0
 16 17  1  0
  9 18  1  0
  6  1  1  0
 17 12  1  0
 18  4  1  0
  1 19  1  0
  2 20  1  0
  3 21  1  0
  7 22  1  0
  7 23  1  0
  8 24  1  0
  8 25  1  0
 10 26  1  0
 10 27  1  0
 11 28  1  0
 11 29  1  0
 13 30  1  0
 13 31  1  0
 14 32  1  0
 14 33  1  0
 16 34  1  0
 16 35  1  0
 17 36  1  0
 17 37  1  0
 18 38  1  0
 18 39  1  0
M  CHG  1   3   1
M  END
>  <UniqueID>  (34) 
34

>  <SMILES>  (34) 
c1c[nH+]c2c(n1)CCN(CCN1CCOCC1)C2

>  <Energy>  (34) 
58.005592633980356

>  <Genealogy>  (34) 
c1c[nH+]c2c(n1)CCN(CCN1CCOCC1)C2 (protonated)
c1c[nH+]c2c(n1)CCN(CCN1CCOCC1)C2 (3D coordinates assigned)
c1c[nH+]c2c(n1)CCN(CCN1CCOCC1)C2 (nonaromatic ring conformer: 58.005592633980356 kcal/mol)

>  <smiles>  (34) 
c1cnc2c(n1)CCN(CCN1CCOCC1)C2

>  <score_type>  (34) 
oracle

>  <origin>  (34) 
adg

>  <m_score__min__energy>  (34) 
-6.9000000000000004

>  <m_primary>  (34) 
energy

$$$$
