0:0
     RDKit          3D

 30 31  0  0  0  0  0  0  0  0999 V2000
   -9.3490   21.4280  -32.2600 C   0  0  0  0  0  0  0  0  0  0  0  0
   -8.3520   20.7800  -31.3800 N   0  0  0  0  0  0  0  0  0  0  0  0
   -8.6820   19.3550  -31.2160 C   0  0  0  0  0  0  0  0  0  0  0  0
   -7.9230   18.5690  -32.2850 C   0  0  0  0  0  0  0  0  0  0  0  0
   -6.8940   19.5350  -32.8480 C   0  0  0  0  0  0  0  0  0  0  0  0
   -6.9870   20.7620  -31.9440 C   0  0  1  0  0  0  0  0  0  0  0  0
   -6.5510   22.0770  -32.6360 C   0  0  0  0  0  0  0  0  0  0  0  0
   -6.2880   23.1660  -31.6260 C   0  0  0  0  0  0  0  0  0  0  0  0
   -7.3320   23.6720  -30.8360 C   0  0  0  0  0  0  0  0  0  0  0  0
   -7.0890   24.7030  -29.9230 C   0  0  0  0  0  0  0  0  0  0  0  0
   -5.8060   25.2420  -29.7990 C   0  0  0  0  0  0  0  0  0  0  0  0
   -4.7620   24.7510  -30.5890 C   0  0  0  0  0  0  0  0  0  0  0  0
   -3.4880   25.2910  -30.4700 O   0  0  0  0  0  0  0  0  0  0  0  0
   -5.0010   23.7190  -31.5030 C   0  0  0  0  0  0  0  0  0  0  0  0
  -10.1134   21.9248  -31.6445 H   0  0  0  0  0  0  0  0  0  0  0  0
   -8.8480   22.1736  -32.8949 H   0  0  0  0  0  0  0  0  0  0  0  0
   -9.8269   20.6675  -32.8949 H   0  0  0  0  0  0  0  0  0  0  0  0
   -8.3779   19.0140  -30.2154 H   0  0  0  0  0  0  0  0  0  0  0  0
   -9.7655   19.1986  -31.3235 H   0  0  0  0  0  0  0  0  0  0  0  0
   -7.4257   17.6952  -31.8387 H   0  0  0  0  0  0  0  0  0  0  0  0
   -8.5970   18.1902  -33.0675 H   0  0  0  0  0  0  0  0  0  0  0  0
   -5.8858   19.0969  -32.8065 H   0  0  0  0  0  0  0  0  0  0  0  0
   -7.0824   19.7782  -33.9041 H   0  0  0  0  0  0  0  0  0  0  0  0
   -6.2594   20.6898  -31.1222 H   0  0  0  0  0  0  0  0  0  0  0  0
   -5.6317   21.8917  -33.2109 H   0  0  0  0  0  0  0  0  0  0  0  0
   -7.3644   22.4070  -33.2989 H   0  0  0  0  0  0  0  0  0  0  0  0
   -8.3454   23.2559  -30.9354 H   0  0  0  0  0  0  0  0  0  0  0  0
   -7.9096   25.0904  -29.3013 H   0  0  0  0  0  0  0  0  0  0  0  0
   -5.6172   26.0527  -29.0799 H   0  0  0  0  0  0  0  0  0  0  0  0
   -4.1792   23.3389  -32.1276 H   0  0  0  0  0  0  0  0  0  0  0  0
  1  2  1  0
  2  3  1  0
  3  4  1  0
  4  5  1  0
  5  6  1  0
  6  7  1  0
  7  8  1  0
  8  9  2  0
  9 10  1  0
 10 11  2  0
 11 12  1  0
 12 13  1  0
 12 14  2  0
  6  2  1  0
 14  8  1  0
  1 15  1  0
  1 16  1  0
  1 17  1  0
  3 18  1  0
  3 19  1  0
  4 20  1  0
  4 21  1  0
  5 22  1  0
  5 23  1  0
  6 24  1  1
  7 25  1  0
  7 26  1  0
  9 27  1  0
 10 28  1  0
 11 29  1  0
 14 30  1  0
M  CHG  1  13  -1
M  END
>  <UniqueID>  (1) 
1

>  <SMILES>  (1) 
CN1CCC[C@H]1Cc1cccc([O-])c1

>  <Energy>  (1) 
33.978465571131736

>  <Genealogy>  (1) 
CN1CCCC1Cc1cccc([O-])c1 (protonated)
CN1CCC[C@H]1Cc1cccc([O-])c1 (chirality)
CN1CCC[C@H]1Cc1cccc([O-])c1 (3D coordinates assigned)
CN1CCC[C@H]1Cc1cccc([O-])c1 (nonaromatic ring conformer: 33.978465571131736 kcal/mol)

>  <smiles>  (1) 
CN1CCCC1Cc1cccc(O)c1

>  <score_type>  (1) 
oracle

>  <origin>  (1) 
adg

>  <m_score__min__energy>  (1) 
-9.7200000000000006

>  <m_primary>  (1) 
energy

$$$$
1:0
     RDKit          3D

 41 44  0  0  0  0  0  0  0  0999 V2000
    2.3000   20.9910  -36.7980 H   0  0  0  0  0  0  0  0  0  0  0  0
    2.0670   21.2360  -35.8090 N   0  0  0  0  0  0  0  0  0  0  0  0
    0.9160   20.9490  -35.2940 C   0  0  0  0  0  0  0  0  0  0  0  0
    0.2450   21.8680  -34.5500 N   0  0  0  0  0  0  0  0  0  0  0  0
   -0.9640   21.5860  -33.9980 C   0  0  0  0  0  0  0  0  0  0  0  0
   -1.4898   22.3453  -33.4004 H   0  0  0  0  0  0  0  0  0  0  0  0
   -1.5400   20.3170  -34.1950 C   0  0  0  0  0  0  0  0  0  0  0  0
   -2.8610   19.9520  -33.6210 C   0  0  0  0  0  0  0  0  0  0  0  0
   -3.6450   18.9290  -34.1770 C   0  0  0  0  0  0  0  0  0  0  0  0
   -3.2793   18.3787  -35.0565 H   0  0  0  0  0  0  0  0  0  0  0  0
   -4.8840   18.6040  -33.6240 C   0  0  0  0  0  0  0  0  0  0  0  0
   -5.4635   17.7692  -34.0451 H   0  0  0  0  0  0  0  0  0  0  0  0
   -5.4030   19.3290  -32.5350 C   0  0  0  0  0  0  0  0  0  0  0  0
   -6.7370   18.9360  -31.9090 C   0  0  0  0  0  0  0  0  0  0  0  0
   -6.3268   18.5621  -30.9593 H   0  0  0  0  0  0  0  0  0  0  0  0
   -7.6530   18.0430  -32.7560 C   0  0  0  0  0  0  0  0  0  0  0  0
   -7.2676   17.8351  -33.7651 H   0  0  0  0  0  0  0  0  0  0  0  0
   -7.8724   17.0134  -32.4370 H   0  0  0  0  0  0  0  0  0  0  0  0
   -8.7400   19.1060  -32.7150 C   0  0  0  0  0  0  0  0  0  0  0  0
   -9.0301   19.4895  -33.7043 H   0  0  0  0  0  0  0  0  0  0  0  0
   -9.7390   18.8646  -32.3228 H   0  0  0  0  0  0  0  0  0  0  0  0
   -7.8140   20.0270  -31.9410 C   0  0  0  0  0  0  0  0  0  0  0  0
   -7.5185   20.9314  -32.4931 H   0  0  0  0  0  0  0  0  0  0  0  0
   -8.1548   20.4952  -31.0058 H   0  0  0  0  0  0  0  0  0  0  0  0
   -4.5960   20.3240  -31.9380 C   0  0  0  0  0  0  0  0  0  0  0  0
   -5.0250   20.9490  -30.7570 O   0  0  0  0  0  0  0  0  0  0  0  0
   -5.3560   22.3060  -30.6310 C   0  0  0  0  0  0  0  0  0  0  0  0
   -6.6890   22.6610  -30.3980 C   0  0  0  0  0  0  0  0  0  0  0  0
   -7.4551   21.8774  -30.3032 H   0  0  0  0  0  0  0  0  0  0  0  0
   -7.0430   23.9700  -30.2880 N   0  0  0  0  0  0  0  0  0  0  0  0
   -6.1290   24.9690  -30.4080 C   0  0  0  0  0  0  0  0  0  0  0  0
   -6.4446   26.0178  -30.3057 H   0  0  0  0  0  0  0  0  0  0  0  0
   -4.7900   24.6650  -30.6610 C   0  0  0  0  0  0  0  0  0  0  0  0
   -3.8530   25.6810  -30.7980 O   0  0  0  0  0  0  0  0  0  0  0  0
   -4.4030   23.3280  -30.7790 C   0  0  0  0  0  0  0  0  0  0  0  0
   -3.3529   23.0753  -30.9876 H   0  0  0  0  0  0  0  0  0  0  0  0
   -3.3430   20.6350  -32.4960 C   0  0  0  0  0  0  0  0  0  0  0  0
   -2.7308   21.4279  -32.0417 H   0  0  0  0  0  0  0  0  0  0  0  0
   -0.8630   19.4090  -34.9510 N   0  0  0  0  0  0  0  0  0  0  0  0
    0.3470   19.6910  -35.5020 C   0  0  0  0  0  0  0  0  0  0  0  0
    0.8725   18.9362  -36.1054 H   0  0  0  0  0  0  0  0  0  0  0  0
  1  2  1  0
  2  3  2  0
  3  4  1  0
  4  5  1  0
  5  6  1  0
  5  7  2  0
  7  8  1  0
  8  9  2  0
  9 10  1  0
  9 11  1  0
 11 12  1  0
 11 13  2  0
 13 14  1  0
 14 15  1  0
 14 16  1  0
 16 17  1  0
 16 18  1  0
 16 19  1  0
 19 20  1  0
 19 21  1  0
 19 22  1  0
 22 23  1  0
 22 24  1  0
 13 25  1  0
 25 26  1  0
 26 27  1  0
 27 28  2  0
 28 29  1  0
 28 30  1  0
 30 31  2  0
 31 32  1  0
 31 33  1  0
 33 34  1  0
 33 35  2  0
 35 36  1  0
 25 37  2  0
 37 38  1  0
  7 39  1  0
 39 40  2  0
 40 41  1  0
 40  3  1  0
 37  8  1  0
 22 14  1  0
 35 27  1  0
M  CHG  2   4  -1  34  -1
M  END
>  <UniqueID>  (2) 
2

>  <SMILES>  (2) 
[H]/N=c1/cnc(-c2ccc(C3CCC3)c(Oc3cncc([O-])c3)c2)c[n-]1

>  <Energy>  (2) 
121.05220352298262

>  <Genealogy>  (2) 
N=c1cnc(-c2ccc(C3CCC3)c(Oc3cncc([O-])c3)c2)c[n-]1 (protonated)
[H]/N=c1/cnc(-c2ccc(C3CCC3)c(Oc3cncc([O-])c3)c2)c[n-]1 (cis-trans isomerization)
[H]/N=c1/cnc(-c2ccc(C3CCC3)c(Oc3cncc([O-])c3)c2)c[n-]1 (3D coordinates assigned)
[H]/N=c1/cnc(-c2ccc(C3CCC3)c(Oc3cncc([O-])c3)c2)c[n-]1 (nonaromatic ring conformer: 121.05220352298262 kcal/mol)

>  <smiles>  (2) 
N=c1cnc(-c2ccc(C3CCC3)c(Oc3cncc(O)c3)c2)c[nH]1

>  <score_type>  (2) 
oracle

>  <origin>  (2) 
adg

>  <m_score__min__energy>  (2) 
-11.779999999999999

>  <m_primary>  (2) 
energy

$$$$
2:0
     RDKit          3D

 31 32  0  0  1  0  0  0  0  0999 V2000
   -3.8850   22.9100  -27.8520 C   0  0  0  0  0  0  0  0  0  0  0  0
   -4.1080   24.1830  -28.6150 C   0  0  0  0  0  0  0  0  0  0  0  0
   -3.5710   24.0840  -30.0430 C   0  0  0  0  0  0  0  0  0  0  0  0
   -4.6140   24.6480  -30.8790 N   0  0  0  0  0  0  0  0  0  0  0  0
   -5.5260   23.9180  -31.3530 C   0  0  0  0  0  0  0  0  0  0  0  0
   -5.8890   23.5070  -32.5480 N   0  0  0  0  0  0  0  0  0  0  0  0
   -6.9200   22.7400  -32.6070 N   0  0  0  0  0  0  0  0  0  0  0  0
   -7.6120   22.3280  -31.7760 C   0  0  0  0  0  0  0  0  0  0  0  0
   -9.0660   21.2970  -31.4290 S   0  0  0  0  0  0  0  0  0  0  0  0
   -8.9190   19.8500  -32.4630 C   0  0  0  0  0  0  0  0  0  0  0  0
   -9.8840   19.3450  -33.0880 O   0  0  0  0  0  0  0  0  0  0  0  0
   -7.6170   19.2200  -32.5890 C   0  0  0  0  0  0  0  0  0  0  0  0
   -7.3300   18.1450  -31.7670 C   0  0  0  0  0  0  0  0  0  0  0  0
   -6.1230   17.4790  -31.8100 C   0  0  0  0  0  0  0  0  0  0  0  0
   -5.1680   17.9020  -32.7080 C   0  0  0  0  0  0  0  0  0  0  0  0
   -5.4500   18.9690  -33.5250 C   0  0  0  0  0  0  0  0  0  0  0  0
   -6.6650   19.6480  -33.4890 C   0  0  0  0  0  0  0  0  0  0  0  0
   -6.8080   23.1050  -30.2480 S   0  0  0  0  0  0  0  0  0  0  0  0
   -3.9215   23.1183  -26.7725 H   0  0  0  0  0  0  0  0  0  0  0  0
   -4.6697   22.1843  -28.1121 H   0  0  0  0  0  0  0  0  0  0  0  0
   -2.9004   22.4943  -28.1121 H   0  0  0  0  0  0  0  0  0  0  0  0
   -5.1873   24.3921  -28.6531 H   0  0  0  0  0  0  0  0  0  0  0  0
   -3.5693   24.9920  -28.0999 H   0  0  0  0  0  0  0  0  0  0  0  0
   -2.6396   24.6601  -30.1461 H   0  0  0  0  0  0  0  0  0  0  0  0
   -3.3339   23.0470  -30.3232 H   0  0  0  0  0  0  0  0  0  0  0  0
   -5.3470   23.8000  -33.4280 H   0  0  0  0  0  0  0  0  0  0  0  0
   -8.0943   17.8082  -31.0511 H   0  0  0  0  0  0  0  0  0  0  0  0
   -5.9271   16.6279  -31.1412 H   0  0  0  0  0  0  0  0  0  0  0  0
   -4.1948   17.3931  -32.7697 H   0  0  0  0  0  0  0  0  0  0  0  0
   -4.6824   19.3019  -34.2392 H   0  0  0  0  0  0  0  0  0  0  0  0
   -6.8590   20.4994  -34.1579 H   0  0  0  0  0  0  0  0  0  0  0  0
  1  2  1  0
  2  3  1  0
  3  4  1  0
  4  5  2  0
  5  6  1  0
  6  7  1  0
  7  8  2  0
  8  9  1  0
  9 10  1  0
 10 11  2  0
 10 12  1  0
 12 13  2  0
 13 14  1  0
 14 15  2  0
 15 16  1  0
 16 17  2  0
  8 18  1  0
 18  5  1  0
 17 12  1  0
  1 19  1  0
  1 20  1  0
  1 21  1  0
  2 22  1  0
  2 23  1  0
  3 24  1  0
  3 25  1  0
  6 26  1  0
 13 27  1  0
 14 28  1  0
 15 29  1  0
 16 30  1  0
 17 31  1  0
M  END
>  <smiles>  (3) 
CCCN=c1[nH]nc(SC(=O)c2ccccc2)s1

>  <score_type>  (3) 
oracle

>  <origin>  (3) 
adg

>  <m_score__min__energy>  (3) 
-7.6799999999999997

>  <m_primary>  (3) 
energy

$$$$
3:0
     RDKit          3D

 44 46  0  0  0  0  0  0  0  0999 V2000
   -4.6890   18.4720  -33.6840 C   0  0  0  0  0  0  0  0  0  0  0  0
   -6.1370   18.1930  -34.1020 C   0  0  0  0  0  0  0  0  0  0  0  0
   -7.0620   18.8570  -33.1260 C   0  0  0  0  0  0  0  0  0  0  0  0
   -7.8150   17.9870  -32.3400 C   0  0  0  0  0  0  0  0  0  0  0  0
   -8.6950   18.5550  -31.4130 C   0  0  0  0  0  0  0  0  0  0  0  0
   -8.7960   19.9290  -31.2980 C   0  0  0  0  0  0  0  0  0  0  0  0
   -8.0380   20.7840  -32.0860 C   0  0  0  0  0  0  0  0  0  0  0  0
   -8.1820   22.2470  -31.9260 C   0  0  0  0  0  0  0  0  0  0  0  0
   -7.0740   22.9310  -32.5610 N   0  0  0  0  0  0  0  0  0  0  0  0
   -5.9750   23.3530  -31.7620 C   0  0  0  0  0  0  0  0  0  0  0  0
   -6.1690   24.4400  -30.9240 C   0  0  0  0  0  0  0  0  0  0  0  0
   -5.1960   24.9510  -30.1000 C   0  0  0  0  0  0  0  0  0  0  0  0
   -3.9650   24.3350  -30.1220 C   0  0  0  0  0  0  0  0  0  0  0  0
   -2.9910   24.8180  -29.3220 N   0  0  0  0  0  0  0  0  0  0  0  0
   -1.7700   24.2540  -29.3040 C   0  0  0  0  0  0  0  0  0  0  0  0
   -0.8620   24.7470  -28.5210 N   0  0  0  0  0  0  0  0  0  0  0  0
   -1.5090   23.1950  -30.0910 N   0  0  0  0  0  0  0  0  0  0  0  0
   -2.4750   22.7000  -30.8980 C   0  0  0  0  0  0  0  0  0  0  0  0
   -2.1510   21.6880  -31.6220 N   0  0  0  0  0  0  0  0  0  0  0  0
   -3.7440   23.2350  -30.9600 C   0  0  0  0  0  0  0  0  0  0  0  0
   -4.7400   22.7370  -31.7830 C   0  0  0  0  0  0  0  0  0  0  0  0
   -4.4330   21.5830  -32.6310 C   0  0  0  0  0  0  0  0  0  0  0  0
   -7.1580   20.2260  -33.0150 C   0  0  0  0  0  0  0  0  0  0  0  0
   -4.6203   18.4852  -32.5862 H   0  0  0  0  0  0  0  0  0  0  0  0
   -4.0338   17.6836  -34.0829 H   0  0  0  0  0  0  0  0  0  0  0  0
   -4.3737   19.4474  -34.0829 H   0  0  0  0  0  0  0  0  0  0  0  0
   -6.3140   18.5951  -35.1104 H   0  0  0  0  0  0  0  0  0  0  0  0
   -6.3199   17.1083  -34.1094 H   0  0  0  0  0  0  0  0  0  0  0  0
   -7.7210   16.8960  -32.4445 H   0  0  0  0  0  0  0  0  0  0  0  0
   -9.3096   17.9054  -30.7725 H   0  0  0  0  0  0  0  0  0  0  0  0
   -9.4948   20.3555  -30.5633 H   0  0  0  0  0  0  0  0  0  0  0  0
   -9.1244   22.5724  -32.3908 H   0  0  0  0  0  0  0  0  0  0  0  0
   -8.1881   22.4920  -30.8536 H   0  0  0  0  0  0  0  0  0  0  0  0
   -7.1500   23.0750  -33.5880 H   0  0  0  0  0  0  0  0  0  0  0  0
   -7.1584   24.9207  -30.9186 H   0  0  0  0  0  0  0  0  0  0  0  0
   -5.3922   25.8162  -29.4497 H   0  0  0  0  0  0  0  0  0  0  0  0
   -3.1690   25.6510  -28.6910 H   0  0  0  0  0  0  0  0  0  0  0  0
   -0.0990   25.3380  -28.9530 H   0  0  0  0  0  0  0  0  0  0  0  0
   -0.5450   22.7760  -30.0550 H   0  0  0  0  0  0  0  0  0  0  0  0
   -2.3580   20.7190  -31.3070 H   0  0  0  0  0  0  0  0  0  0  0  0
   -4.2018   20.7138  -31.9977 H   0  0  0  0  0  0  0  0  0  0  0  0
   -5.3013   21.3533  -33.2661 H   0  0  0  0  0  0  0  0  0  0  0  0
   -3.5654   21.8151  -33.2661 H   0  0  0  0  0  0  0  0  0  0  0  0
   -6.5443   20.8768  -33.6552 H   0  0  0  0  0  0  0  0  0  0  0  0
  1  2  1  0
  2  3  1  0
  3  4  2  0
  4  5  1  0
  5  6  2  0
  6  7  1  0
  7  8  1  0
  8  9  1  0
  9 10  1  0
 10 11  2  0
 11 12  1  0
 12 13  2  0
 13 14  1  0
 14 15  1  0
 15 16  2  3
 15 17  1  0
 17 18  1  0
 18 19  2  3
 18 20  1  0
 20 21  2  0
 21 22  1  0
  7 23  2  0
 23  3  1  0
 21 10  1  0
 20 13  1  0
  1 24  1  0
  1 25  1  0
  1 26  1  0
  2 27  1  0
  2 28  1  0
  4 29  1  0
  5 30  1  0
  6 31  1  0
  8 32  1  0
  8 33  1  0
  9 34  1  0
 11 35  1  0
 12 36  1  0
 14 37  1  0
 16 38  1  0
 17 39  1  0
 19 40  1  0
 22 41  1  0
 22 42  1  0
 22 43  1  0
 23 44  1  0
M  END
>  <smiles>  (4) 
CCc1cccc(CNc2ccc3[nH]c(=N)[nH]c(=N)c3c2C)c1

>  <score_type>  (4) 
oracle

>  <origin>  (4) 
adg

>  <m_score__min__energy>  (4) 
-8.7400000000000002

>  <m_primary>  (4) 
energy

$$$$
4:0
     RDKit          3D

 32 34  0  0  0  0  0  0  0  0999 V2000
   -4.5190   25.6580  -30.8470 O   0  0  0  0  0  0  0  0  0  0  0  0
   -4.9810   24.2450  -30.6200 S   0  0  0  0  0  0  0  0  0  0  0  0
   -6.3940   24.2650  -30.1110 O   0  0  0  0  0  0  0  0  0  0  0  0
   -4.9320   23.3840  -32.1250 N   0  0  0  0  0  0  0  0  0  0  0  0
   -5.4100   22.0460  -32.3390 C   0  0  0  0  0  0  0  0  0  0  0  0
   -4.5280   21.0020  -32.6760 C   0  0  0  0  0  0  0  0  0  0  0  0
   -5.0030   19.7040  -32.8720 C   0  0  0  0  0  0  0  0  0  0  0  0
   -6.3630   19.4250  -32.7390 C   0  0  0  0  0  0  0  0  0  0  0  0
   -7.2600   20.4470  -32.4070 C   0  0  0  0  0  0  0  0  0  0  0  0
   -8.6270   20.1810  -32.2700 C   0  0  0  0  0  0  0  0  0  0  0  0
   -9.5060   21.2110  -31.9380 C   0  0  0  0  0  0  0  0  0  0  0  0
   -9.0110   22.5000  -31.7450 C   0  0  0  0  0  0  0  0  0  0  0  0
   -7.6800   22.7560  -31.8790 N   0  0  0  0  0  0  0  0  0  0  0  0
   -6.7890   21.7700  -32.2050 C   0  0  0  0  0  0  0  0  0  0  0  0
   -3.9590   23.4420  -29.4300 C   0  0  0  0  0  0  0  0  0  0  0  0
   -3.8580   22.0430  -29.4140 C   0  0  0  0  0  0  0  0  0  0  0  0
   -3.0540   21.4090  -28.4610 C   0  0  0  0  0  0  0  0  0  0  0  0
   -2.3490   22.1680  -27.5230 C   0  0  0  0  0  0  0  0  0  0  0  0
   -2.4430   23.5640  -27.5380 C   0  0  0  0  0  0  0  0  0  0  0  0
   -1.5580   24.5160  -26.3600 Cl  0  0  0  0  0  0  0  0  0  0  0  0
   -3.2460   24.2000  -28.4920 C   0  0  0  0  0  0  0  0  0  0  0  0
   -3.4537   21.2110  -32.7860 H   0  0  0  0  0  0  0  0  0  0  0  0
   -4.3015   18.8977  -33.1325 H   0  0  0  0  0  0  0  0  0  0  0  0
   -6.7313   18.4003  -32.8952 H   0  0  0  0  0  0  0  0  0  0  0  0
   -9.0076   19.1605  -32.4241 H   0  0  0  0  0  0  0  0  0  0  0  0
  -10.5817   21.0082  -31.8292 H   0  0  0  0  0  0  0  0  0  0  0  0
   -9.7003   23.3161  -31.4826 H   0  0  0  0  0  0  0  0  0  0  0  0
   -7.3600   23.7370  -31.7240 H   0  0  0  0  0  0  0  0  0  0  0  0
   -4.4117   21.4438  -30.1518 H   0  0  0  0  0  0  0  0  0  0  0  0
   -2.9766   20.3118  -28.4499 H   0  0  0  0  0  0  0  0  0  0  0  0
   -1.7197   21.6676  -26.7723 H   0  0  0  0  0  0  0  0  0  0  0  0
   -3.3174   25.2976  -28.5052 H   0  0  0  0  0  0  0  0  0  0  0  0
  1  2  2  0
  2  3  2  0
  2  4  1  0
  4  5  1  0
  5  6  2  0
  6  7  1  0
  7  8  2  0
  8  9  1  0
  9 10  2  0
 10 11  1  0
 11 12  2  0
 12 13  1  0
 13 14  2  0
  2 15  1  0
 15 16  2  0
 16 17  1  0
 17 18  2  0
 18 19  1  0
 19 20  1  0
 19 21  2  0
 14  5  1  0
 21 15  1  0
 14  9  1  0
  6 22  1  0
  7 23  1  0
  8 24  1  0
 10 25  1  0
 11 26  1  0
 12 27  1  0
 13 28  1  0
 16 29  1  0
 17 30  1  0
 18 31  1  0
 21 32  1  0
M  CHG  2   4  -1  13   1
M  END
>  <UniqueID>  (5) 
3

>  <SMILES>  (5) 
O=S(=O)([N-]c1cccc2ccc[nH+]c12)c1cccc(Cl)c1

>  <Energy>  (5) 
41.837506032594035

>  <Genealogy>  (5) 
O=S(=O)([N-]c1cccc2ccc[nH+]c12)c1cccc(Cl)c1 (protonated)
O=S(=O)([N-]c1cccc2ccc[nH+]c12)c1cccc(Cl)c1 (3D coordinates assigned)
O=S(=O)([N-]c1cccc2ccc[nH+]c12)c1cccc(Cl)c1 (optimized conformer: 41.837506032594035 kcal/mol)

>  <smiles>  (5) 
O=S(=O)(Nc1cccc2cccnc12)c1cccc(Cl)c1

>  <score_type>  (5) 
oracle

>  <origin>  (5) 
adg

>  <m_score__min__energy>  (5) 
-8.5600000000000005

>  <m_primary>  (5) 
energy

$$$$
5:0
     RDKit          3D

 31 32  0  0  0  0  0  0  0  0999 V2000
   -1.1400   26.1000  -24.5520 C   0  0  0  0  0  0  0  0  0  0  0  0
   -1.1740   25.2180  -25.7650 C   0  0  0  0  0  0  0  0  0  0  0  0
   -0.7260   23.8910  -25.6850 C   0  0  0  0  0  0  0  0  0  0  0  0
   -0.8130   23.0520  -26.7980 C   0  0  0  0  0  0  0  0  0  0  0  0
   -1.3480   23.5290  -27.9970 C   0  0  0  0  0  0  0  0  0  0  0  0
   -1.7930   24.8540  -28.0960 C   0  0  0  0  0  0  0  0  0  0  0  0
   -2.3660   25.2950  -29.3360 N   0  0  0  0  0  0  0  0  0  0  0  0
   -3.6450   24.9190  -29.8620 C   0  0  0  0  0  0  0  0  0  0  0  0
   -4.1560   25.5470  -30.8280 O   0  0  0  0  0  0  0  0  0  0  0  0
   -4.3780   23.7650  -29.2590 C   0  0  0  0  0  0  0  0  0  0  0  0
   -5.3450   23.1940  -30.2580 C   0  0  0  0  0  0  0  0  0  0  0  0
   -6.7230   23.4380  -30.1290 C   0  0  0  0  0  0  0  0  0  0  0  0
   -7.6170   22.9370  -31.0810 C   0  0  0  0  0  0  0  0  0  0  0  0
   -7.1440   22.1990  -32.1690 C   0  0  0  0  0  0  0  0  0  0  0  0
   -5.7720   21.9640  -32.3110 C   0  0  0  0  0  0  0  0  0  0  0  0
   -4.8740   22.4630  -31.3620 C   0  0  0  0  0  0  0  0  0  0  0  0
   -1.7290   25.6900  -26.9660 C   0  0  0  0  0  0  0  0  0  0  0  0
   -1.1640   25.4776  -23.6453 H   0  0  0  0  0  0  0  0  0  0  0  0
   -0.2181   26.7000  -24.5606 H   0  0  0  0  0  0  0  0  0  0  0  0
   -2.0130   26.7692  -24.5606 H   0  0  0  0  0  0  0  0  0  0  0  0
   -0.3049   23.5102  -24.7428 H   0  0  0  0  0  0  0  0  0  0  0  0
   -0.4593   22.0126  -26.7303 H   0  0  0  0  0  0  0  0  0  0  0  0
   -1.4203   22.8610  -28.8679 H   0  0  0  0  0  0  0  0  0  0  0  0
   -3.6566   22.9884  -28.9648 H   0  0  0  0  0  0  0  0  0  0  0  0
   -4.9334   24.1112  -28.3749 H   0  0  0  0  0  0  0  0  0  0  0  0
   -7.0993   24.0242  -29.2776 H   0  0  0  0  0  0  0  0  0  0  0  0
   -8.6955   23.1246  -30.9728 H   0  0  0  0  0  0  0  0  0  0  0  0
   -7.8500   21.8028  -32.9137 H   0  0  0  0  0  0  0  0  0  0  0  0
   -5.3994   21.3863  -33.1697 H   0  0  0  0  0  0  0  0  0  0  0  0
   -3.7953   22.2827  -31.4801 H   0  0  0  0  0  0  0  0  0  0  0  0
   -2.1155   26.7183  -27.0234 H   0  0  0  0  0  0  0  0  0  0  0  0
  1  2  1  0
  2  3  2  0
  3  4  1  0
  4  5  2  0
  5  6  1  0
  6  7  1  0
  7  8  1  0
  8  9  2  0
  8 10  1  0
 10 11  1  0
 11 12  2  0
 12 13  1  0
 13 14  2  0
 14 15  1  0
 15 16  2  0
  6 17  2  0
 17  2  1  0
 16 11  1  0
  1 18  1  0
  1 19  1  0
  1 20  1  0
  3 21  1  0
  4 22  1  0
  5 23  1  0
 10 24  1  0
 10 25  1  0
 12 26  1  0
 13 27  1  0
 14 28  1  0
 15 29  1  0
 16 30  1  0
 17 31  1  0
M  CHG  1   7  -1
M  END
>  <UniqueID>  (6) 
4

>  <SMILES>  (6) 
Cc1cccc([N-]C(=O)Cc2ccccc2)c1

>  <Energy>  (6) 
31.919339786674747

>  <Genealogy>  (6) 
Cc1cccc([N-]C(=O)Cc2ccccc2)c1 (protonated)
Cc1cccc([N-]C(=O)Cc2ccccc2)c1 (3D coordinates assigned)
Cc1cccc([N-]C(=O)Cc2ccccc2)c1 (optimized conformer: 31.919339786674747 kcal/mol)

>  <smiles>  (6) 
Cc1cccc(NC(=O)Cc2ccccc2)c1

>  <score_type>  (6) 
oracle

>  <origin>  (6) 
adg

>  <m_score__min__energy>  (6) 
-8.4000000000000004

>  <m_primary>  (6) 
energy

$$$$
6:0
     RDKit          3D

 55 58  0  0  0  0  0  0  0  0999 V2000
   -4.5950   13.5730  -32.0860 C   0  0  0  0  0  0  0  0  0  0  0  0
   -4.7520   14.0920  -33.1620 C   0  0  0  0  0  0  0  0  0  0  0  0
   -4.9430   14.7250  -34.4730 C   0  0  0  0  0  0  0  0  0  0  0  0
   -4.4300   16.1050  -34.4600 N   0  0  0  0  0  0  0  0  0  0  0  0
   -3.0090   16.3600  -34.7490 C   0  0  0  0  0  0  0  0  0  0  0  0
   -2.4180   17.3410  -33.7700 C   0  0  0  0  0  0  0  0  0  0  0  0
   -1.4260   16.9280  -32.8650 C   0  0  0  0  0  0  0  0  0  0  0  0
   -0.8530   17.8420  -31.9760 C   0  0  0  0  0  0  0  0  0  0  0  0
   -1.2620   19.1780  -31.9840 C   0  0  0  0  0  0  0  0  0  0  0  0
   -0.7030   20.0660  -31.1210 N   0  0  0  0  0  0  0  0  0  0  0  0
   -1.0770   21.3730  -31.1170 C   0  0  0  0  0  0  0  0  0  0  0  0
   -0.4750   22.3190  -30.1330 C   0  0  0  0  0  0  0  0  0  0  0  0
   -2.0420   21.8050  -31.9720 N   0  0  0  0  0  0  0  0  0  0  0  0
   -2.6350   20.9610  -32.8570 C   0  0  0  0  0  0  0  0  0  0  0  0
   -3.5190   21.4050  -33.6360 O   0  0  0  0  0  0  0  0  0  0  0  0
   -2.2550   19.6080  -32.8890 C   0  0  0  0  0  0  0  0  0  0  0  0
   -2.8280   18.6840  -33.7810 C   0  0  0  0  0  0  0  0  0  0  0  0
   -5.2480   17.1670  -33.9220 C   0  0  0  0  0  0  0  0  0  0  0  0
   -5.6240   17.1560  -32.5700 C   0  0  0  0  0  0  0  0  0  0  0  0
   -6.4130   18.1830  -32.0420 C   0  0  0  0  0  0  0  0  0  0  0  0
   -6.8460   19.2420  -32.8580 C   0  0  0  0  0  0  0  0  0  0  0  0
   -7.6750   20.3420  -32.3100 C   0  0  0  0  0  0  0  0  0  0  0  0
   -8.8580   20.4900  -32.7230 O   0  0  0  0  0  0  0  0  0  0  0  0
   -7.1580   21.2300  -31.3060 N   0  0  0  0  0  0  0  0  0  0  0  0
   -7.8510   22.4570  -30.9190 C   0  0  0  0  0  0  0  0  0  0  0  0
   -6.8640   23.5790  -30.7540 C   0  0  0  0  0  0  0  0  0  0  0  0
   -7.1640   24.6680  -29.9240 C   0  0  0  0  0  0  0  0  0  0  0  0
   -6.2340   25.6960  -29.7560 C   0  0  0  0  0  0  0  0  0  0  0  0
   -5.0070   25.6220  -30.4180 C   0  0  0  0  0  0  0  0  0  0  0  0
   -4.7260   24.5560  -31.2140 N   0  0  0  0  0  0  0  0  0  0  0  0
   -5.6150   23.5430  -31.3930 C   0  0  0  0  0  0  0  0  0  0  0  0
   -6.4570   19.2600  -34.2090 C   0  0  0  0  0  0  0  0  0  0  0  0
   -5.6700   18.2320  -34.7360 C   0  0  0  0  0  0  0  0  0  0  0  0
   -4.4517   13.0992  -31.1037 H   0  0  0  0  0  0  0  0  0  0  0  0
   -4.4034   14.1456  -35.2366 H   0  0  0  0  0  0  0  0  0  0  0  0
   -6.0184   14.7478  -34.7033 H   0  0  0  0  0  0  0  0  0  0  0  0
   -2.4547   15.4120  -34.6849 H   0  0  0  0  0  0  0  0  0  0  0  0
   -2.9319   16.7888  -35.7590 H   0  0  0  0  0  0  0  0  0  0  0  0
   -1.0979   15.8781  -32.8559 H   0  0  0  0  0  0  0  0  0  0  0  0
   -0.0789   17.5089  -31.2690 H   0  0  0  0  0  0  0  0  0  0  0  0
   -0.6943   21.9744  -29.1116 H   0  0  0  0  0  0  0  0  0  0  0  0
    0.6143   22.3579  -30.2809 H   0  0  0  0  0  0  0  0  0  0  0  0
   -0.9011   23.3223  -30.2809 H   0  0  0  0  0  0  0  0  0  0  0  0
   -3.6008   19.0148  -34.4905 H   0  0  0  0  0  0  0  0  0  0  0  0
   -5.2952   16.3321  -31.9196 H   0  0  0  0  0  0  0  0  0  0  0  0
   -6.6969   18.1616  -30.9795 H   0  0  0  0  0  0  0  0  0  0  0  0
   -6.2820   20.9810  -30.7930 H   0  0  0  0  0  0  0  0  0  0  0  0
   -8.5790   22.7249  -31.6989 H   0  0  0  0  0  0  0  0  0  0  0  0
   -8.3696   22.2909  -29.9633 H   0  0  0  0  0  0  0  0  0  0  0  0
   -8.1326   24.7128  -29.4047 H   0  0  0  0  0  0  0  0  0  0  0  0
   -6.4656   26.5549  -29.1090 H   0  0  0  0  0  0  0  0  0  0  0  0
   -4.2670   26.4267  -30.2955 H   0  0  0  0  0  0  0  0  0  0  0  0
   -5.3545   22.6928  -32.0405 H   0  0  0  0  0  0  0  0  0  0  0  0
   -6.7747   20.0903  -34.8569 H   0  0  0  0  0  0  0  0  0  0  0  0
   -5.3786   18.2568  -35.7964 H   0  0  0  0  0  0  0  0  0  0  0  0
  1  2  3  0
  2  3  1  0
  3  4  1  0
  4  5  1  0
  5  6  1  0
  6  7  2  0
  7  8  1  0
  8  9  2  0
  9 10  1  0
 10 11  2  0
 11 12  1  0
 11 13  1  0
 13 14  1  0
 14 15  2  0
 14 16  1  0
 16 17  2  0
  4 18  1  0
 18 19  2  0
 19 20  1  0
 20 21  2  0
 21 22  1  0
 22 23  2  0
 22 24  1  0
 24 25  1  0
 25 26  1  0
 26 27  2  0
 27 28  1  0
 28 29  2  0
 29 30  1  0
 30 31  2  0
 21 32  1  0
 32 33  2  0
 17  6  1  0
 33 18  1  0
 16  9  1  0
 31 26  1  0
  1 34  1  0
  3 35  1  0
  3 36  1  0
  5 37  1  0
  5 38  1  0
  7 39  1  0
  8 40  1  0
 12 41  1  0
 12 42  1  0
 12 43  1  0
 17 44  1  0
 19 45  1  0
 20 46  1  0
 24 47  1  0
 25 48  1  0
 25 49  1  0
 27 50  1  0
 28 51  1  0
 29 52  1  0
 31 53  1  0
 32 54  1  0
 33 55  1  0
M  CHG  1  13  -1
M  END
>  <UniqueID>  (7) 
5

>  <SMILES>  (7) 
C#CCN(Cc1ccc2nc(C)[n-]c(=O)c2c1)c1ccc(C(=O)NCc2cccnc2)cc1

>  <Energy>  (7) 
64.5055135826828

>  <Genealogy>  (7) 
C#CCN(Cc1ccc2nc(C)[n-]c(=O)c2c1)c1ccc(C(=O)NCc2cccnc2)cc1 (protonated)
C#CCN(Cc1ccc2nc(C)[n-]c(=O)c2c1)c1ccc(C(=O)NCc2cccnc2)cc1 (3D coordinates assigned)
C#CCN(Cc1ccc2nc(C)[n-]c(=O)c2c1)c1ccc(C(=O)NCc2cccnc2)cc1 (optimized conformer: 64.5055135826828 kcal/mol)

>  <smiles>  (7) 
C#CCN(Cc1ccc2nc(C)[nH]c(=O)c2c1)c1ccc(C(=O)NCc2cccnc2)cc1

>  <score_type>  (7) 
oracle

>  <origin>  (7) 
adg

>  <m_score__min__energy>  (7) 
-10.27

>  <m_primary>  (7) 
energy

$$$$
7:0
     RDKit          3D

 38 40  0  0  0  0  0  0  0  0999 V2000
   -2.0540   24.9040  -28.8690 C   0  0  0  0  0  0  0  0  0  0  0  0
   -3.1140   25.2780  -29.7430 O   0  0  0  0  0  0  0  0  0  0  0  0
   -4.3340   24.5930  -29.8490 C   0  0  0  0  0  0  0  0  0  0  0  0
   -5.5760   25.2550  -29.8210 C   0  0  0  0  0  0  0  0  0  0  0  0
   -6.7650   24.5270  -29.9330 C   0  0  0  0  0  0  0  0  0  0  0  0
   -6.7320   23.1320  -30.0680 C   0  0  0  0  0  0  0  0  0  0  0  0
   -8.0120   22.3560  -30.2260 C   0  0  0  0  0  0  0  0  0  0  0  0
   -8.5660   22.3510  -31.9680 S   0  0  0  0  0  0  0  0  0  0  0  0
   -7.9640   20.6980  -32.3160 C   0  0  0  0  0  0  0  0  0  0  0  0
   -8.6340   19.5800  -31.8300 C   0  0  0  0  0  0  0  0  0  0  0  0
   -8.1250   18.3130  -32.0990 C   0  0  0  0  0  0  0  0  0  0  0  0
   -6.9520   18.1860  -32.8600 C   0  0  0  0  0  0  0  0  0  0  0  0
   -6.3710   16.8520  -33.1600 C   0  0  0  0  0  0  0  0  0  0  0  0
   -6.8230   15.9250  -34.1050 C   0  0  0  0  0  0  0  0  0  0  0  0
   -6.1060   14.7700  -34.1690 N   0  0  0  0  0  0  0  0  0  0  0  0
   -5.0740   14.7650  -33.2990 C   0  0  0  0  0  0  0  0  0  0  0  0
   -4.1650   13.6000  -33.1070 C   0  0  0  0  0  0  0  0  0  0  0  0
   -5.0270   16.1780  -32.3930 S   0  0  0  0  0  0  0  0  0  0  0  0
   -6.3440   19.3210  -33.3180 N   0  0  0  0  0  0  0  0  0  0  0  0
   -6.8380   20.5320  -33.0550 N   0  0  0  0  0  0  0  0  0  0  0  0
   -5.4930   22.4730  -30.0950 C   0  0  0  0  0  0  0  0  0  0  0  0
   -4.3050   23.2000  -29.9860 C   0  0  0  0  0  0  0  0  0  0  0  0
   -2.3814   25.0195  -27.8252 H   0  0  0  0  0  0  0  0  0  0  0  0
   -1.7797   23.8548  -29.0533 H   0  0  0  0  0  0  0  0  0  0  0  0
   -1.1820   25.5488  -29.0533 H   0  0  0  0  0  0  0  0  0  0  0  0
   -5.6115   26.3489  -29.7106 H   0  0  0  0  0  0  0  0  0  0  0  0
   -7.7315   25.0520  -29.9151 H   0  0  0  0  0  0  0  0  0  0  0  0
   -7.8465   21.3190  -29.8984 H   0  0  0  0  0  0  0  0  0  0  0  0
   -8.7896   22.8350  -29.6129 H   0  0  0  0  0  0  0  0  0  0  0  0
   -9.5552   19.6960  -31.2401 H   0  0  0  0  0  0  0  0  0  0  0  0
   -8.6380   17.4176  -31.7182 H   0  0  0  0  0  0  0  0  0  0  0  0
   -7.6941   16.1156  -34.7492 H   0  0  0  0  0  0  0  0  0  0  0  0
   -4.0235   13.4187  -32.0313 H   0  0  0  0  0  0  0  0  0  0  0  0
   -4.6083   12.7081  -33.5740 H   0  0  0  0  0  0  0  0  0  0  0  0
   -3.1921   13.8132  -33.5740 H   0  0  0  0  0  0  0  0  0  0  0  0
   -5.4740   19.2630  -33.8910 H   0  0  0  0  0  0  0  0  0  0  0  0
   -5.4572   21.3788  -30.2025 H   0  0  0  0  0  0  0  0  0  0  0  0
   -3.3393   22.6738  -30.0080 H   0  0  0  0  0  0  0  0  0  0  0  0
  1  2  1  0
  2  3  1  0
  3  4  2  0
  4  5  1  0
  5  6  2  0
  6  7  1  0
  7  8  1  0
  8  9  1  0
  9 10  2  0
 10 11  1  0
 11 12  2  0
 12 13  1  0
 13 14  2  0
 14 15  1  0
 15 16  2  0
 16 17  1  0
 16 18  1  0
 12 19  1  0
 19 20  2  0
  6 21  1  0
 21 22  2  0
 22  3  1  0
 20  9  1  0
 18 13  1  0
  1 23  1  0
  1 24  1  0
  1 25  1  0
  4 26  1  0
  5 27  1  0
  7 28  1  0
  7 29  1  0
 10 30  1  0
 11 31  1  0
 14 32  1  0
 17 33  1  0
 17 34  1  0
 17 35  1  0
 19 36  1  0
 21 37  1  0
 22 38  1  0
M  CHG  1  19   1
M  END
>  <UniqueID>  (8) 
6

>  <SMILES>  (8) 
COc1ccc(CSc2ccc(-c3cnc(C)s3)[nH+]n2)cc1

>  <Energy>  (8) 
65.26639562420048

>  <Genealogy>  (8) 
COc1ccc(CSc2ccc(-c3cnc(C)s3)[nH+]n2)cc1 (protonated)
COc1ccc(CSc2ccc(-c3cnc(C)s3)[nH+]n2)cc1 (3D coordinates assigned)
COc1ccc(CSc2ccc(-c3cnc(C)s3)[nH+]n2)cc1 (optimized conformer: 65.26639562420048 kcal/mol)

>  <smiles>  (8) 
COc1ccc(CSc2ccc(-c3cnc(C)s3)nn2)cc1

>  <score_type>  (8) 
oracle

>  <origin>  (8) 
adg

>  <m_score__min__energy>  (8) 
-8.0899999999999999

>  <m_primary>  (8) 
energy

$$$$
8:0
     RDKit          3D

 45 48  0  0  1  0  0  0  0  0999 V2000
   -6.5380   16.9360  -33.3610 C   0  0  0  0  0  0  0  0  0  0  0  0
   -7.1800   18.1900  -32.9190 C   0  0  0  0  0  0  0  0  0  0  0  0
   -8.1760   18.1690  -31.9640 C   0  0  0  0  0  0  0  0  0  0  0  0
   -8.7860   19.3270  -31.5360 C   0  0  0  0  0  0  0  0  0  0  0  0
   -8.4160   20.5550  -32.0580 C   0  0  0  0  0  0  0  0  0  0  0  0
   -9.0760   21.8100  -31.5980 C   0  0  0  0  0  0  0  0  0  0  0  0
   -3.6810   24.6590  -30.4770 N   0  0  0  0  0  0  0  0  0  0  0  0
   -4.8800   24.2870  -30.7800 C   0  0  0  0  0  0  0  0  0  0  0  0
   -5.9780   24.5470  -29.9820 C   0  0  0  0  0  0  0  0  0  0  0  0
   -7.2060   24.0840  -30.4380 C   0  0  0  0  0  0  0  0  0  0  0  0
   -7.3210   23.4010  -31.6260 C   0  0  0  0  0  0  0  0  0  0  0  0
   -8.4240   22.9490  -32.1000 N   0  0  0  0  0  0  0  0  0  0  0  0
   -3.0350   23.9740  -29.4100 C   0  0  0  0  0  0  0  0  0  0  0  0
   -2.1740   24.5870  -28.5260 C   0  0  0  0  0  0  0  0  0  0  0  0
   -1.6090   23.8080  -27.5290 C   0  0  0  0  0  0  0  0  0  0  0  0
   -1.8940   22.4480  -27.4110 C   0  0  0  0  0  0  0  0  0  0  0  0
   -1.3140   21.7300  -26.4160 N   0  0  0  0  0  0  0  0  0  0  0  0
   -1.5630   20.4160  -26.2680 C   0  0  0  0  0  0  0  0  0  0  0  0
   -2.4350   19.8070  -27.1640 C   0  0  0  0  0  0  0  0  0  0  0  0
   -3.0340   20.5070  -28.1790 C   0  0  0  0  0  0  0  0  0  0  0  0
   -2.7630   21.8540  -28.3100 C   0  0  0  0  0  0  0  0  0  0  0  0
   -3.3270   22.6130  -29.3000 C   0  0  0  0  0  0  0  0  0  0  0  0
   -6.2030   23.1860  -32.3470 N   0  0  0  0  0  0  0  0  0  0  0  0
   -5.0050   23.6090  -31.9540 N   0  0  0  0  0  0  0  0  0  0  0  0
   -7.4090   20.5730  -33.0240 C   0  0  0  0  0  0  0  0  0  0  0  0
   -6.7960   19.4000  -33.4500 C   0  0  0  0  0  0  0  0  0  0  0  0
   -6.2371   16.3482  -32.4812 H   0  0  0  0  0  0  0  0  0  0  0  0
   -7.2488   16.3535  -33.9655 H   0  0  0  0  0  0  0  0  0  0  0  0
   -5.6498   17.1721  -33.9655 H   0  0  0  0  0  0  0  0  0  0  0  0
   -8.4896   17.2058  -31.5351 H   0  0  0  0  0  0  0  0  0  0  0  0
   -9.5753   19.2760  -30.7716 H   0  0  0  0  0  0  0  0  0  0  0  0
  -10.1195   21.8132  -31.9459 H   0  0  0  0  0  0  0  0  0  0  0  0
   -9.0291   21.8418  -30.4995 H   0  0  0  0  0  0  0  0  0  0  0  0
   -5.8843   25.0938  -29.0322 H   0  0  0  0  0  0  0  0  0  0  0  0
   -8.1072   24.2680  -29.8347 H   0  0  0  0  0  0  0  0  0  0  0  0
   -1.9428   25.6592  -28.6090 H   0  0  0  0  0  0  0  0  0  0  0  0
   -0.9176   24.2746  -26.8119 H   0  0  0  0  0  0  0  0  0  0  0  0
   -1.0895   19.8390  -25.4600 H   0  0  0  0  0  0  0  0  0  0  0  0
   -2.6500   18.7337  -27.0552 H   0  0  0  0  0  0  0  0  0  0  0  0
   -3.7190   20.0038  -28.8772 H   0  0  0  0  0  0  0  0  0  0  0  0
   -4.0180   22.1454  -30.0169 H   0  0  0  0  0  0  0  0  0  0  0  0
   -6.2120   22.6710  -33.2660 H   0  0  0  0  0  0  0  0  0  0  0  0
   -4.1510   23.4200  -32.5500 H   0  0  0  0  0  0  0  0  0  0  0  0
   -7.0941   21.5340  -33.4568 H   0  0  0  0  0  0  0  0  0  0  0  0
   -6.0036   19.4393  -34.2119 H   0  0  0  0  0  0  0  0  0  0  0  0
  1  2  1  0
  2  3  2  0
  3  4  1  0
  4  5  2  0
  5  6  1  0
  6  7  1  0
  7  8  2  0
  8  9  1  0
  9 10  2  0
 10 11  1  0
 11 12  2  0
 12 13  1  0
 13 14  2  0
 14 15  1  0
 15 16  2  0
 16 17  1  0
 17 18  2  0
 18 19  1  0
 19 20  2  0
 20 21  1  0
 21 22  2  0
 11 23  1  0
 23 24  1  0
  5 25  1  0
 25 26  2  0
 26  2  1  0
 24  8  1  0
 22 13  1  0
 21 16  1  0
  1 27  1  0
  1 28  1  0
  1 29  1  0
  3 30  1  0
  4 31  1  0
  6 32  1  0
  6 33  1  0
  9 34  1  0
 10 35  1  0
 14 36  1  0
 15 37  1  0
 18 38  1  0
 19 39  1  0
 20 40  1  0
 22 41  1  0
 23 42  1  0
 24 43  1  0
 25 44  1  0
 26 45  1  0
M  END
>  <smiles>  (9) 
Cc1ccc(CN=c2ccc(=Nc3ccc4ncccc4c3)[nH][nH]2)cc1

>  <score_type>  (9) 
oracle

>  <origin>  (9) 
adg

>  <m_score__min__energy>  (9) 
-10.300000000000001

>  <m_primary>  (9) 
energy

$$$$
9:0
     RDKit          3D

 30 31  0  0  0  0  0  0  0  0999 V2000
   -2.2830   24.7880  -28.6810 C   0  0  0  0  0  0  0  0  0  0  0  0
   -3.4810   24.5420  -29.5330 C   0  0  0  0  0  0  0  0  0  0  0  0
   -4.3880   23.5150  -29.3870 C   0  0  0  0  0  0  0  0  0  0  0  0
   -5.3000   23.7490  -30.3970 C   0  0  0  0  0  0  0  0  0  0  0  0
   -6.4870   22.9340  -30.6970 C   0  0  0  0  0  0  0  0  0  0  0  0
   -7.3310   22.7090  -29.7860 O   0  0  0  0  0  0  0  0  0  0  0  0
   -6.6890   22.3990  -32.0130 N   0  0  0  0  0  0  0  0  0  0  0  0
   -7.8140   21.5280  -32.3420 C   0  0  0  0  0  0  0  0  0  0  0  0
   -7.3230   20.1770  -32.7690 C   0  0  0  0  0  0  0  0  0  0  0  0
   -6.0110   19.9100  -33.7880 S   0  0  0  0  0  0  0  0  0  0  0  0
   -6.1960   18.2390  -33.7570 C   0  0  0  0  0  0  0  0  0  0  0  0
   -5.3730   17.2800  -34.5460 C   0  0  0  0  0  0  0  0  0  0  0  0
   -7.2570   17.8680  -33.0070 N   0  0  0  0  0  0  0  0  0  0  0  0
   -7.8800   18.9380  -32.4410 C   0  0  0  0  0  0  0  0  0  0  0  0
   -9.1020   18.7710  -31.5930 C   0  0  0  0  0  0  0  0  0  0  0  0
   -4.9430   24.8510  -31.0870 N   0  0  0  0  0  0  0  0  0  0  0  0
   -3.8490   25.3000  -30.5390 O   0  0  0  0  0  0  0  0  0  0  0  0
   -2.5690   24.7293  -27.6205 H   0  0  0  0  0  0  0  0  0  0  0  0
   -1.5173   24.0283  -28.8969 H   0  0  0  0  0  0  0  0  0  0  0  0
   -1.8786   25.7879  -28.8969 H   0  0  0  0  0  0  0  0  0  0  0  0
   -4.3860   22.7036  -28.6443 H   0  0  0  0  0  0  0  0  0  0  0  0
   -6.0150   22.6400  -32.7740 H   0  0  0  0  0  0  0  0  0  0  0  0
   -8.4569   21.4165  -31.4564 H   0  0  0  0  0  0  0  0  0  0  0  0
   -8.3832   21.9780  -33.1687 H   0  0  0  0  0  0  0  0  0  0  0  0
   -4.8128   16.6272  -33.8605 H   0  0  0  0  0  0  0  0  0  0  0  0
   -6.0309   16.6675  -35.1800 H   0  0  0  0  0  0  0  0  0  0  0  0
   -4.6677   17.8373  -35.1800 H   0  0  0  0  0  0  0  0  0  0  0  0
   -8.8192   18.8096  -30.5307 H   0  0  0  0  0  0  0  0  0  0  0  0
   -9.8141   19.5802  -31.8126 H   0  0  0  0  0  0  0  0  0  0  0  0
   -9.5708   17.8004  -31.8126 H   0  0  0  0  0  0  0  0  0  0  0  0
  1  2  1  0
  2  3  2  0
  3  4  1  0
  4  5  1  0
  5  6  2  0
  5  7  1  0
  7  8  1  0
  8  9  1  0
  9 10  1  0
 10 11  1  0
 11 12  1  0
 11 13  2  0
 13 14  1  0
 14 15  1  0
  4 16  2  0
 16 17  1  0
 17  2  1  0
 14  9  2  0
  1 18  1  0
  1 19  1  0
  1 20  1  0
  3 21  1  0
  7 22  1  0
  8 23  1  0
  8 24  1  0
 12 25  1  0
 12 26  1  0
 12 27  1  0
 15 28  1  0
 15 29  1  0
 15 30  1  0
M  END
>  <UniqueID>  (10) 
7

>  <SMILES>  (10) 
Cc1cc(C(=O)NCc2sc(C)nc2C)no1

>  <Energy>  (10) 
81.21991597117402

>  <Genealogy>  (10) 
Cc1cc(C(=O)NCc2sc(C)nc2C)no1 (3D coordinates assigned)
Cc1cc(C(=O)NCc2sc(C)nc2C)no1 (optimized conformer: 81.21991597117402 kcal/mol)

>  <smiles>  (10) 
Cc1cc(C(=O)NCc2sc(C)nc2C)no1

>  <score_type>  (10) 
oracle

>  <origin>  (10) 
adg

>  <m_score__min__energy>  (10) 
-7.9100000000000001

>  <m_primary>  (10) 
energy

$$$$
10:0
     RDKit          3D

 41 43  0  0  0  0  0  0  0  0999 V2000
   -5.3860   18.9050  -34.3530 N   0  0  0  0  0  0  0  0  0  0  0  0
   -6.1790   19.4140  -33.6810 C   0  0  0  0  0  0  0  0  0  0  0  0
   -7.1680   20.0490  -32.8450 C   0  0  0  0  0  0  0  0  0  0  0  0
   -8.5130   19.6720  -32.9660 C   0  0  0  0  0  0  0  0  0  0  0  0
   -9.4900   20.2940  -32.1850 C   0  0  0  0  0  0  0  0  0  0  0  0
   -9.1330   21.2970  -31.2820 C   0  0  0  0  0  0  0  0  0  0  0  0
   -7.7940   21.6790  -31.1550 C   0  0  0  0  0  0  0  0  0  0  0  0
   -6.8040   21.0590  -31.9300 C   0  0  0  0  0  0  0  0  0  0  0  0
   -5.4330   21.4590  -31.7830 N   0  0  0  0  0  0  0  0  0  0  0  0
   -5.0130   22.7970  -32.2140 C   0  0  0  0  0  0  0  0  0  0  0  0
   -4.0370   23.4010  -31.1940 C   0  0  0  0  0  0  0  0  0  0  0  0
   -3.0730   22.4070  -30.6950 N   0  0  0  0  0  0  0  0  0  0  0  0
   -2.2190   22.7690  -29.5880 C   0  0  0  0  0  0  0  0  0  0  0  0
   -1.6780   21.6280  -28.5300 S   0  0  0  0  0  0  0  0  0  0  0  0
   -1.8040   24.1350  -29.4320 N   0  0  0  0  0  0  0  0  0  0  0  0
   -1.6570   24.7970  -28.1640 C   0  0  0  0  0  0  0  0  0  0  0  0
   -0.4790   25.4940  -27.8370 C   0  0  0  0  0  0  0  0  0  0  0  0
   -0.3460   26.1050  -26.5860 C   0  0  0  0  0  0  0  0  0  0  0  0
   -1.3790   26.0150  -25.6480 C   0  0  0  0  0  0  0  0  0  0  0  0
   -1.2090   26.7820  -24.0790 Cl  0  0  0  0  0  0  0  0  0  0  0  0
   -2.5440   25.3060  -25.9590 C   0  0  0  0  0  0  0  0  0  0  0  0
   -2.6780   24.6930  -27.2080 C   0  0  0  0  0  0  0  0  0  0  0  0
   -3.0350   21.0720  -31.3140 C   0  0  0  0  0  0  0  0  0  0  0  0
   -4.4440   20.4730  -31.3290 C   0  0  0  0  0  0  0  0  0  0  0  0
   -8.7997   18.8841  -33.6780 H   0  0  0  0  0  0  0  0  0  0  0  0
  -10.5435   19.9927  -32.2818 H   0  0  0  0  0  0  0  0  0  0  0  0
   -9.9051   21.7868  -30.6704 H   0  0  0  0  0  0  0  0  0  0  0  0
   -7.5160   22.4702  -30.4432 H   0  0  0  0  0  0  0  0  0  0  0  0
   -4.5165   22.7242  -33.1929 H   0  0  0  0  0  0  0  0  0  0  0  0
   -5.8992   23.4443  -32.2895 H   0  0  0  0  0  0  0  0  0  0  0  0
   -3.4839   24.2213  -31.6749 H   0  0  0  0  0  0  0  0  0  0  0  0
   -4.6237   23.7639  -30.3373 H   0  0  0  0  0  0  0  0  0  0  0  0
   -1.5760   24.6740  -30.2980 H   0  0  0  0  0  0  0  0  0  0  0  0
    0.3403   25.5585  -28.5681 H   0  0  0  0  0  0  0  0  0  0  0  0
    0.5728   26.6573  -26.3396 H   0  0  0  0  0  0  0  0  0  0  0  0
   -3.3553   25.2308  -25.2200 H   0  0  0  0  0  0  0  0  0  0  0  0
   -3.5904   24.1252  -27.4428 H   0  0  0  0  0  0  0  0  0  0  0  0
   -2.6623   21.1571  -32.3454 H   0  0  0  0  0  0  0  0  0  0  0  0
   -2.3664   20.4190  -30.7338 H   0  0  0  0  0  0  0  0  0  0  0  0
   -4.4598   19.6089  -32.0095 H   0  0  0  0  0  0  0  0  0  0  0  0
   -4.7031   20.1641  -30.3056 H   0  0  0  0  0  0  0  0  0  0  0  0
  1  2  3  0
  2  3  1  0
  3  4  2  0
  4  5  1  0
  5  6  2  0
  6  7  1  0
  7  8  2  0
  8  9  1  0
  9 10  1  0
 10 11  1  0
 11 12  1  0
 12 13  1  0
 13 14  2  0
 13 15  1  0
 15 16  1  0
 16 17  2  0
 17 18  1  0
 18 19  2  0
 19 20  1  0
 19 21  1  0
 21 22  2  0
 12 23  1  0
 23 24  1  0
  8  3  1  0
 24  9  1  0
 22 16  1  0
  4 25  1  0
  5 26  1  0
  6 27  1  0
  7 28  1  0
 10 29  1  0
 10 30  1  0
 11 31  1  0
 11 32  1  0
 15 33  1  0
 17 34  1  0
 18 35  1  0
 21 36  1  0
 22 37  1  0
 23 38  1  0
 23 39  1  0
 24 40  1  0
 24 41  1  0
M  END
>  <UniqueID>  (11) 
8

>  <SMILES>  (11) 
N#Cc1ccccc1N1CCN(C(=S)Nc2ccc(Cl)cc2)CC1

>  <Energy>  (11) 
55.68005318507873

>  <Genealogy>  (11) 
N#Cc1ccccc1N1CCN(C(=S)Nc2ccc(Cl)cc2)CC1 (3D coordinates assigned)
N#Cc1ccccc1N1CCN(C(=S)Nc2ccc(Cl)cc2)CC1 (nonaromatic ring conformer: 55.68005318507873 kcal/mol)

>  <smiles>  (11) 
N#Cc1ccccc1N1CCN(C(=S)Nc2ccc(Cl)cc2)CC1

>  <score_type>  (11) 
oracle

>  <origin>  (11) 
adg

>  <m_score__min__energy>  (11) 
-9.0299999999999994

>  <m_primary>  (11) 
energy

$$$$
11:0
     RDKit          3D

 31 32  0  0  0  0  0  0  0  0999 V2000
   -8.0670   22.2590  -30.2650 O   0  0  0  0  0  0  0  0  0  0  0  0
   -7.8250   22.0410  -31.4820 C   0  0  0  0  0  0  0  0  0  0  0  0
   -8.7250   21.1300  -32.2590 C   0  0  0  0  0  0  0  0  0  0  0  0
   -7.9630   19.9120  -32.7010 C   0  0  0  0  0  0  0  0  0  0  0  0
   -6.8700   20.0370  -33.5740 C   0  0  0  0  0  0  0  0  0  0  0  0
   -6.1390   18.9060  -33.9530 C   0  0  0  0  0  0  0  0  0  0  0  0
   -6.4880   17.6480  -33.4560 C   0  0  0  0  0  0  0  0  0  0  0  0
   -7.5670   17.5170  -32.5770 C   0  0  0  0  0  0  0  0  0  0  0  0
   -8.3000   18.6450  -32.1950 C   0  0  0  0  0  0  0  0  0  0  0  0
   -6.6970   22.6540  -32.1270 N   0  0  0  0  0  0  0  0  0  0  0  0
   -5.6190   23.2950  -31.4220 C   0  0  0  0  0  0  0  0  0  0  0  0
   -5.7950   24.5960  -30.9380 C   0  0  0  0  0  0  0  0  0  0  0  0
   -4.7570   25.2470  -30.2720 C   0  0  0  0  0  0  0  0  0  0  0  0
   -3.5240   24.6140  -30.0920 C   0  0  0  0  0  0  0  0  0  0  0  0
   -2.5170   25.2970  -29.4170 O   0  0  0  0  0  0  0  0  0  0  0  0
   -3.3150   23.3110  -30.5940 C   0  0  0  0  0  0  0  0  0  0  0  0
   -2.0150   22.6100  -30.4410 C   0  0  0  0  0  0  0  0  0  0  0  0
   -1.4280   22.5640  -29.3280 O   0  0  0  0  0  0  0  0  0  0  0  0
   -1.4200   21.9880  -31.5340 O   0  0  0  0  0  0  0  0  0  0  0  0
   -4.3720   22.6650  -31.2640 C   0  0  0  0  0  0  0  0  0  0  0  0
   -9.5684   20.8218  -31.6236 H   0  0  0  0  0  0  0  0  0  0  0  0
   -9.1016   21.6625  -33.1448 H   0  0  0  0  0  0  0  0  0  0  0  0
   -6.5878   21.0273  -33.9610 H   0  0  0  0  0  0  0  0  0  0  0  0
   -5.2885   19.0074  -34.6431 H   0  0  0  0  0  0  0  0  0  0  0  0
   -5.9132   16.7596  -33.7566 H   0  0  0  0  0  0  0  0  0  0  0  0
   -7.8397   16.5259  -32.1855 H   0  0  0  0  0  0  0  0  0  0  0  0
   -9.1430   18.5402  -31.4962 H   0  0  0  0  0  0  0  0  0  0  0  0
   -6.6940   22.6940  -33.1710 H   0  0  0  0  0  0  0  0  0  0  0  0
   -6.7575   25.1082  -31.0836 H   0  0  0  0  0  0  0  0  0  0  0  0
   -4.9097   26.2656  -29.8857 H   0  0  0  0  0  0  0  0  0  0  0  0
   -4.2199   21.6537  -31.6692 H   0  0  0  0  0  0  0  0  0  0  0  0
  1  2  2  0
  2  3  1  0
  3  4  1  0
  4  5  2  0
  5  6  1  0
  6  7  2  0
  7  8  1  0
  8  9  2  0
  2 10  1  0
 10 11  1  0
 11 12  2  0
 12 13  1  0
 13 14  2  0
 14 15  1  0
 14 16  1  0
 16 17  1  0
 17 18  2  0
 17 19  1  0
 16 20  2  0
  9  4  1  0
 20 11  1  0
  3 21  1  0
  3 22  1  0
  5 23  1  0
  6 24  1  0
  7 25  1  0
  8 26  1  0
  9 27  1  0
 10 28  1  0
 12 29  1  0
 13 30  1  0
 20 31  1  0
M  CHG  2  15  -1  19  -1
M  END
>  <UniqueID>  (12) 
9

>  <SMILES>  (12) 
O=C(Cc1ccccc1)Nc1ccc([O-])c(C(=O)[O-])c1

>  <Energy>  (12) 
35.20346766226251

>  <Genealogy>  (12) 
O=C(Cc1ccccc1)Nc1ccc([O-])c(C(=O)[O-])c1 (protonated)
O=C(Cc1ccccc1)Nc1ccc([O-])c(C(=O)[O-])c1 (3D coordinates assigned)
O=C(Cc1ccccc1)Nc1ccc([O-])c(C(=O)[O-])c1 (optimized conformer: 35.20346766226251 kcal/mol)

>  <smiles>  (12) 
O=C(Cc1ccccc1)Nc1ccc(O)c(C(=O)O)c1

>  <score_type>  (12) 
oracle

>  <origin>  (12) 
adg

>  <m_score__min__energy>  (12) 
-11.17

>  <m_primary>  (12) 
energy

$$$$
12:0
     RDKit          3D

 31 32  0  0  0  0  0  0  0  0999 V2000
   -1.8270   25.6170  -28.9660 O   0  0  0  0  0  0  0  0  0  0  0  0
   -2.7520   24.8030  -29.2290 C   0  0  0  0  0  0  0  0  0  0  0  0
   -3.0760   23.6960  -28.3080 C   0  0  0  0  0  0  0  0  0  0  0  0
   -3.2400   22.4090  -28.6530 C   0  0  0  0  0  0  0  0  0  0  0  0
   -2.4850   21.2690  -28.0920 C   0  0  0  0  0  0  0  0  0  0  0  0
   -1.1480   21.0780  -28.4720 C   0  0  0  0  0  0  0  0  0  0  0  0
   -0.4290   19.9790  -27.9900 C   0  0  0  0  0  0  0  0  0  0  0  0
   -1.0470   19.0520  -27.1450 C   0  0  0  0  0  0  0  0  0  0  0  0
   -2.3870   19.2190  -26.7880 C   0  0  0  0  0  0  0  0  0  0  0  0
   -3.1100   20.3170  -27.2670 C   0  0  0  0  0  0  0  0  0  0  0  0
   -3.5050   24.9260  -30.4420 N   0  0  0  0  0  0  0  0  0  0  0  0
   -4.8000   24.3640  -30.7080 C   0  0  0  0  0  0  0  0  0  0  0  0
   -4.8910   23.2680  -31.5730 C   0  0  0  0  0  0  0  0  0  0  0  0
   -6.1340   22.7030  -31.8740 C   0  0  0  0  0  0  0  0  0  0  0  0
   -7.3120   23.2380  -31.3250 C   0  0  0  0  0  0  0  0  0  0  0  0
   -8.5940   22.6610  -31.6330 N   0  0  0  0  0  0  0  0  0  0  0  0
   -8.8870   21.5120  -31.2410 O   0  0  0  0  0  0  0  0  0  0  0  0
   -9.5230   23.3670  -32.3630 O   0  0  0  0  0  0  0  0  0  0  0  0
   -7.2210   24.3560  -30.4770 C   0  0  0  0  0  0  0  0  0  0  0  0
   -5.9770   24.9190  -30.1770 C   0  0  0  0  0  0  0  0  0  0  0  0
   -3.1936   23.9481  -27.2438 H   0  0  0  0  0  0  0  0  0  0  0  0
   -3.9993   22.1843  -29.4165 H   0  0  0  0  0  0  0  0  0  0  0  0
   -0.6635   21.7948  -29.1512 H   0  0  0  0  0  0  0  0  0  0  0  0
    0.6245   19.8438  -28.2763 H   0  0  0  0  0  0  0  0  0  0  0  0
   -0.4783   18.1919  -26.7617 H   0  0  0  0  0  0  0  0  0  0  0  0
   -2.8749   18.4858  -26.1289 H   0  0  0  0  0  0  0  0  0  0  0  0
   -4.1699   20.4358  -26.9976 H   0  0  0  0  0  0  0  0  0  0  0  0
   -3.9778   22.8477  -32.0196 H   0  0  0  0  0  0  0  0  0  0  0  0
   -6.1904   21.8335  -32.5454 H   0  0  0  0  0  0  0  0  0  0  0  0
   -8.1352   24.7907  -30.0466 H   0  0  0  0  0  0  0  0  0  0  0  0
   -5.9191   25.8008  -29.5220 H   0  0  0  0  0  0  0  0  0  0  0  0
  1  2  2  0
  2  3  1  0
  3  4  2  3
  4  5  1  0
  5  6  2  0
  6  7  1  0
  7  8  2  0
  8  9  1  0
  9 10  2  0
  2 11  1  0
 11 12  1  0
 12 13  2  0
 13 14  1  0
 14 15  2  0
 15 16  1  0
 16 17  2  0
 16 18  1  0
 15 19  1  0
 19 20  2  0
 10  5  1  0
 20 12  1  0
  3 21  1  0
  4 22  1  0
  6 23  1  0
  7 24  1  0
  8 25  1  0
  9 26  1  0
 10 27  1  0
 13 28  1  0
 14 29  1  0
 19 30  1  0
 20 31  1  0
M  CHG  3  11  -1  16   1  18  -1
M  END
>  <UniqueID>  (13) 
10

>  <SMILES>  (13) 
O=C(C=Cc1ccccc1)[N-]c1ccc([N+](=O)[O-])cc1

>  <Energy>  (13) 
44.01967572830835

>  <Genealogy>  (13) 
O=C(C=Cc1ccccc1)[N-]c1ccc([N+](=O)[O-])cc1 (protonated)
O=C(C=Cc1ccccc1)[N-]c1ccc([N+](=O)[O-])cc1 (3D coordinates assigned)
O=C(C=Cc1ccccc1)[N-]c1ccc([N+](=O)[O-])cc1 (optimized conformer: 44.01967572830835 kcal/mol)

>  <smiles>  (13) 
O=C(C=Cc1ccccc1)Nc1ccc([N+](=O)[O-])cc1

>  <score_type>  (13) 
oracle

>  <origin>  (13) 
adg

>  <m_score__min__energy>  (13) 
-8.9499999999999993

>  <m_primary>  (13) 
energy

$$$$
13:0
     RDKit          3D

 32 34  0  0  1  0  0  0  0  0999 V2000
   -2.4740   24.5970  -28.6350 C   0  0  0  0  0  0  0  0  0  0  0  0
   -3.1530   25.2350  -29.7180 O   0  0  0  0  0  0  0  0  0  0  0  0
   -4.0590   24.4550  -30.4270 C   0  0  0  0  0  0  0  0  0  0  0  0
   -3.6780   23.1400  -30.7210 C   0  0  0  0  0  0  0  0  0  0  0  0
   -4.5160   22.3000  -31.4190 C   0  0  0  0  0  0  0  0  0  0  0  0
   -5.7480   22.7520  -31.8400 C   0  0  0  0  0  0  0  0  0  0  0  0
   -6.6710   21.9470  -32.5650 N   0  0  0  0  0  0  0  0  0  0  0  0
   -6.5000   20.6870  -32.7830 C   0  0  0  0  0  0  0  0  0  0  0  0
   -5.3720   20.2680  -33.4680 C   0  0  0  0  0  0  0  0  0  0  0  0
   -5.1840   18.9200  -33.7040 C   0  0  0  0  0  0  0  0  0  0  0  0
   -4.0030   18.3820  -34.4300 C   0  0  0  0  0  0  0  0  0  0  0  0
   -6.1180   18.0360  -33.2550 N   0  0  0  0  0  0  0  0  0  0  0  0
   -7.2090   18.4810  -32.5890 C   0  0  0  0  0  0  0  0  0  0  0  0
   -8.2810   17.8470  -32.0380 N   0  0  0  0  0  0  0  0  0  0  0  0
   -9.1070   18.7700  -31.4770 C   0  0  0  0  0  0  0  0  0  0  0  0
   -8.5440   19.9680  -31.6850 N   0  0  0  0  0  0  0  0  0  0  0  0
   -7.4130   19.8000  -32.3470 N   0  0  0  0  0  0  0  0  0  0  0  0
   -6.1230   24.0650  -31.5440 C   0  0  0  0  0  0  0  0  0  0  0  0
   -5.2900   24.9170  -30.8440 C   0  0  0  0  0  0  0  0  0  0  0  0
   -2.8727   24.9716  -27.6807 H   0  0  0  0  0  0  0  0  0  0  0  0
   -2.6283   23.5095  -28.6952 H   0  0  0  0  0  0  0  0  0  0  0  0
   -1.3982   24.8186  -28.6952 H   0  0  0  0  0  0  0  0  0  0  0  0
   -2.6954   22.7731  -30.3896 H   0  0  0  0  0  0  0  0  0  0  0  0
   -4.2026   21.2691  -31.6405 H   0  0  0  0  0  0  0  0  0  0  0  0
   -4.6324   21.0018  -33.8210 H   0  0  0  0  0  0  0  0  0  0  0  0
   -3.2510   18.0394  -33.7039 H   0  0  0  0  0  0  0  0  0  0  0  0
   -4.3145   17.5370  -35.0616 H   0  0  0  0  0  0  0  0  0  0  0  0
   -3.5698   19.1716  -35.0616 H   0  0  0  0  0  0  0  0  0  0  0  0
   -5.9710   17.0240  -33.4360 H   0  0  0  0  0  0  0  0  0  0  0  0
  -10.0540   18.5716  -30.9537 H   0  0  0  0  0  0  0  0  0  0  0  0
   -7.1061   24.4297  -31.8765 H   0  0  0  0  0  0  0  0  0  0  0  0
   -5.6038   25.9478  -30.6227 H   0  0  0  0  0  0  0  0  0  0  0  0
  1  2  1  0
  2  3  1  0
  3  4  2  0
  4  5  1  0
  5  6  2  0
  6  7  1  0
  7  8  2  0
  8  9  1  0
  9 10  2  0
 10 11  1  0
 10 12  1  0
 12 13  1  0
 13 14  2  0
 14 15  1  0
 15 16  2  0
 16 17  1  0
  6 18  1  0
 18 19  2  0
 19  3  1  0
 17  8  1  0
 17 13  1  0
  1 20  1  0
  1 21  1  0
  1 22  1  0
  4 23  1  0
  5 24  1  0
  9 25  1  0
 11 26  1  0
 11 27  1  0
 11 28  1  0
 12 29  1  0
 15 30  1  0
 18 31  1  0
 19 32  1  0
M  END
>  <smiles>  (14) 
COc1ccc(N=c2cc(C)[nH]c3ncnn23)cc1

>  <score_type>  (14) 
oracle

>  <origin>  (14) 
adg

>  <m_score__min__energy>  (14) 
-7

>  <m_primary>  (14) 
energy

$$$$
14:0
     RDKit          3D

 39 41  0  0  0  0  0  0  0  0999 V2000
   -3.3570   24.1600  -30.0110 C   0  0  0  0  0  0  0  0  0  0  0  0
   -4.4870   24.2760  -30.8710 O   0  0  0  0  0  0  0  0  0  0  0  0
   -5.5960   23.4180  -30.8420 C   0  0  0  0  0  0  0  0  0  0  0  0
   -6.4900   23.3780  -29.7590 C   0  0  0  0  0  0  0  0  0  0  0  0
   -7.5830   22.5100  -29.7810 C   0  0  0  0  0  0  0  0  0  0  0  0
   -7.7930   21.6530  -30.8720 C   0  0  0  0  0  0  0  0  0  0  0  0
   -6.8990   21.6840  -31.9620 C   0  0  0  0  0  0  0  0  0  0  0  0
   -5.8120   22.5760  -31.9380 C   0  0  0  0  0  0  0  0  0  0  0  0
   -7.0720   20.7600  -33.1520 C   0  0  1  0  0  0  0  0  0  0  0  0
   -5.9270   19.7670  -33.3350 C   0  0  0  0  0  0  0  0  0  0  0  0
   -4.7160   19.8500  -32.6130 C   0  0  0  0  0  0  0  0  0  0  0  0
   -3.7030   18.9070  -32.8110 C   0  0  0  0  0  0  0  0  0  0  0  0
   -3.8790   17.8720  -33.7310 C   0  0  0  0  0  0  0  0  0  0  0  0
   -5.0680   17.7790  -34.4570 C   0  0  0  0  0  0  0  0  0  0  0  0
   -6.0840   18.7180  -34.2620 C   0  0  0  0  0  0  0  0  0  0  0  0
   -8.4530   20.0530  -33.1600 C   0  0  0  0  0  0  0  0  0  0  0  0
   -8.9310   19.6500  -31.8200 N   0  0  1  0  0  0  0  0  0  0  0  0
   -8.1380   18.5600  -31.2210 C   0  0  0  0  0  0  0  0  0  0  0  0
   -9.0450   20.8100  -30.9130 C   0  0  0  0  0  0  0  0  0  0  0  0
   -3.6889   24.1941  -28.9628 H   0  0  0  0  0  0  0  0  0  0  0  0
   -2.8465   23.2047  -30.2031 H   0  0  0  0  0  0  0  0  0  0  0  0
   -2.6631   24.9916  -30.2031 H   0  0  0  0  0  0  0  0  0  0  0  0
   -6.3281   24.0332  -28.8904 H   0  0  0  0  0  0  0  0  0  0  0  0
   -8.2862   22.4977  -28.9352 H   0  0  0  0  0  0  0  0  0  0  0  0
   -5.1216   22.6121  -32.7936 H   0  0  0  0  0  0  0  0  0  0  0  0
   -7.0374   21.4215  -34.0302 H   0  0  0  0  0  0  0  0  0  0  0  0
   -4.5685   20.6641  -31.8882 H   0  0  0  0  0  0  0  0  0  0  0  0
   -2.7653   18.9808  -32.2406 H   0  0  0  0  0  0  0  0  0  0  0  0
   -3.0814   17.1301  -33.8839 H   0  0  0  0  0  0  0  0  0  0  0  0
   -5.2051   16.9649  -35.1839 H   0  0  0  0  0  0  0  0  0  0  0  0
   -7.0171   18.6372  -34.8389 H   0  0  0  0  0  0  0  0  0  0  0  0
   -9.1911   20.7411  -33.5979 H   0  0  0  0  0  0  0  0  0  0  0  0
   -8.3341   19.1297  -33.7460 H   0  0  0  0  0  0  0  0  0  0  0  0
   -9.9000   19.2710  -31.9520 H   0  0  0  0  0  0  0  0  0  0  0  0
   -8.1886   18.6296  -30.1244 H   0  0  0  0  0  0  0  0  0  0  0  0
   -8.5433   17.5904  -31.5460 H   0  0  0  0  0  0  0  0  0  0  0  0
   -7.0907   18.6471  -31.5460 H   0  0  0  0  0  0  0  0  0  0  0  0
   -9.8805   21.4397  -31.2528 H   0  0  0  0  0  0  0  0  0  0  0  0
   -9.2113   20.4189  -29.8984 H   0  0  0  0  0  0  0  0  0  0  0  0
  1  2  1  0
  2  3  1  0
  3  4  2  0
  4  5  1  0
  5  6  2  0
  6  7  1  0
  7  8  2  0
  7  9  1  0
  9 10  1  0
 10 11  2  0
 11 12  1  0
 12 13  2  0
 13 14  1  0
 14 15  2  0
  9 16  1  0
 16 17  1  0
 17 18  1  0
 17 19  1  0
  8  3  1  0
 15 10  1  0
 19  6  1  0
  1 20  1  0
  1 21  1  0
  1 22  1  0
  4 23  1  0
  5 24  1  0
  8 25  1  0
  9 26  1  6
 11 27  1  0
 12 28  1  0
 13 29  1  0
 14 30  1  0
 15 31  1  0
 16 32  1  0
 16 33  1  0
 17 34  1  6
 18 35  1  0
 18 36  1  0
 18 37  1  0
 19 38  1  0
 19 39  1  0
M  CHG  1  17   1
M  END
>  <UniqueID>  (15) 
11

>  <SMILES>  (15) 
COc1ccc2c(c1)[C@@H](c1ccccc1)C[N@@H+](C)C2

>  <Energy>  (15) 
50.35957741311259

>  <Genealogy>  (15) 
COc1ccc2c(c1)C(c1ccccc1)C[NH+](C)C2 (protonated)
COc1ccc2c(c1)[C@@H](c1ccccc1)C[N@@H+](C)C2 (chirality)
COc1ccc2c(c1)[C@@H](c1ccccc1)C[N@@H+](C)C2 (3D coordinates assigned)
COc1ccc2c(c1)[C@@H](c1ccccc1)C[N@@H+](C)C2 (nonaromatic ring conformer: 50.35957741311259 kcal/mol)

>  <smiles>  (15) 
COc1ccc2c(c1)C(c1ccccc1)CN(C)C2

>  <score_type>  (15) 
oracle

>  <origin>  (15) 
adg

>  <m_score__min__energy>  (15) 
-6.5800000000000001

>  <m_primary>  (15) 
energy

$$$$
15:0
     RDKit          3D

 82 81  0  0  0  0  0  0  0  0999 V2000
   -2.3100   20.7570  -29.1000 N   0  0  0  0  0  0  0  0  0  0  0  0
   -3.0840   20.4720  -27.8960 C   0  0  0  0  0  0  0  0  0  0  0  0
   -2.1680   20.0500  -26.7410 C   0  0  0  0  0  0  0  0  0  0  0  0
   -1.2750   18.8510  -27.0860 C   0  0  0  0  0  0  0  0  0  0  0  0
   -0.4740   19.1210  -28.2900 N   0  0  0  0  0  0  0  0  0  0  0  0
    0.4280   18.0030  -28.6150 C   0  0  0  0  0  0  0  0  0  0  0  0
    0.3190   17.5790  -30.0900 C   0  0  0  0  0  0  0  0  0  0  0  0
    1.0850   18.5430  -31.0080 C   0  0  0  0  0  0  0  0  0  0  0  0
    1.0110   19.9990  -30.5010 C   0  0  0  0  0  0  0  0  0  0  0  0
   -0.3290   20.5820  -30.6820 N   0  0  0  0  0  0  0  0  0  0  0  0
   -0.6610   20.7610  -32.1040 C   0  0  0  0  0  0  0  0  0  0  0  0
   -1.9470   21.5800  -32.2830 C   0  0  0  0  0  0  0  0  0  0  0  0
   -3.2080   20.7030  -32.2180 C   0  0  0  0  0  0  0  0  0  0  0  0
   -4.4170   21.4480  -31.6240 C   0  0  0  0  0  0  0  0  0  0  0  0
   -5.6950   20.5960  -31.4580 C   0  0  0  0  0  0  0  0  0  0  0  0
   -7.0010   21.3920  -31.2730 C   0  0  0  0  0  0  0  0  0  0  0  0
   -7.1930   22.4750  -32.3450 C   0  0  0  0  0  0  0  0  0  0  0  0
   -7.7240   23.7750  -31.7320 C   0  0  0  0  0  0  0  0  0  0  0  0
   -7.0270   24.0700  -30.3950 C   0  0  0  0  0  0  0  0  0  0  0  0
   -5.8740   25.0700  -30.5470 C   0  0  0  0  0  0  0  0  0  0  0  0
   -4.6120   24.5600  -29.9090 C   0  0  0  0  0  0  0  0  0  0  0  0
   -3.5130   24.6990  -30.5110 O   0  0  0  0  0  0  0  0  0  0  0  0
   -4.6550   23.9300  -28.6220 N   0  0  0  0  0  0  0  0  0  0  0  0
   -3.4440   23.5770  -27.8860 C   0  0  0  0  0  0  0  0  0  0  0  0
   -2.6690   24.8340  -27.4640 C   0  0  0  0  0  0  0  0  0  0  0  0
   -1.4120   24.5430  -26.6170 C   0  0  0  0  0  0  0  0  0  0  0  0
   -0.1390   25.2010  -27.1720 C   0  0  0  0  0  0  0  0  0  0  0  0
    0.3070   24.4950  -28.3710 N   0  0  0  0  0  0  0  0  0  0  0  0
   -0.1500   23.3510  -28.7940 C   0  0  0  0  0  0  0  0  0  0  0  0
   -1.1020   23.3370  -29.8550 N   0  0  0  0  0  0  0  0  0  0  0  0
    0.2930   22.1090  -28.2330 N   0  0  0  0  0  0  0  0  0  0  0  0
   -1.3560   21.0610  -28.7960 H   0  0  0  0  0  0  0  0  0  0  0  0
   -2.1800   19.8630  -29.6280 H   0  0  0  0  0  0  0  0  0  0  0  0
   -3.6393   21.3753  -27.6031 H   0  0  0  0  0  0  0  0  0  0  0  0
   -3.7778   19.6464  -28.1127 H   0  0  0  0  0  0  0  0  0  0  0  0
   -1.5236   20.9014  -26.4766 H   0  0  0  0  0  0  0  0  0  0  0  0
   -2.8147   19.7464  -25.9046 H   0  0  0  0  0  0  0  0  0  0  0  0
   -0.5992   18.6507  -26.2415 H   0  0  0  0  0  0  0  0  0  0  0  0
   -1.9173   17.9793  -27.2799 H   0  0  0  0  0  0  0  0  0  0  0  0
   -1.1150   19.3020  -29.0990 H   0  0  0  0  0  0  0  0  0  0  0  0
    1.4637   18.3124  -28.4108 H   0  0  0  0  0  0  0  0  0  0  0  0
    0.1376   17.1429  -27.9938 H   0  0  0  0  0  0  0  0  0  0  0  0
    0.7374   16.5680  -30.2037 H   0  0  0  0  0  0  0  0  0  0  0  0
   -0.7425   17.5967  -30.3779 H   0  0  0  0  0  0  0  0  0  0  0  0
    2.1398   18.2334  -31.0485 H   0  0  0  0  0  0  0  0  0  0  0  0
    0.6228   18.5047  -32.0054 H   0  0  0  0  0  0  0  0  0  0  0  0
    1.2629   20.0148  -29.4303 H   0  0  0  0  0  0  0  0  0  0  0  0
    1.7228   20.5982  -31.0878 H   0  0  0  0  0  0  0  0  0  0  0  0
   -1.0140   19.9030  -30.2730 H   0  0  0  0  0  0  0  0  0  0  0  0
    0.1685   21.2849  -32.6015 H   0  0  0  0  0  0  0  0  0  0  0  0
   -0.8199   19.7676  -32.5489 H   0  0  0  0  0  0  0  0  0  0  0  0
   -1.9996   22.3357  -31.4854 H   0  0  0  0  0  0  0  0  0  0  0  0
   -1.9129   22.0491  -33.2774 H   0  0  0  0  0  0  0  0  0  0  0  0
   -3.4620   20.3751  -33.2368 H   0  0  0  0  0  0  0  0  0  0  0  0
   -2.9867   19.8494  -31.5605 H   0  0  0  0  0  0  0  0  0  0  0  0
   -4.1296   21.8279  -30.6325 H   0  0  0  0  0  0  0  0  0  0  0  0
   -4.6697   22.2427  -32.3414 H   0  0  0  0  0  0  0  0  0  0  0  0
   -5.8039   19.9693  -32.3554 H   0  0  0  0  0  0  0  0  0  0  0  0
   -5.5571   20.0206  -30.5307 H   0  0  0  0  0  0  0  0  0  0  0  0
   -7.8490   20.6931  -31.3232 H   0  0  0  0  0  0  0  0  0  0  0  0
   -6.9466   21.8969  -30.2972 H   0  0  0  0  0  0  0  0  0  0  0  0
   -6.2259   22.6757  -32.8292 H   0  0  0  0  0  0  0  0  0  0  0  0
   -7.9270   22.1114  -33.0792 H   0  0  0  0  0  0  0  0  0  0  0  0
   -7.5358   24.6056  -32.4282 H   0  0  0  0  0  0  0  0  0  0  0  0
   -8.8035   23.6653  -31.5512 H   0  0  0  0  0  0  0  0  0  0  0  0
   -7.7664   24.4865  -29.6951 H   0  0  0  0  0  0  0  0  0  0  0  0
   -6.6057   23.1256  -30.0199 H   0  0  0  0  0  0  0  0  0  0  0  0
   -5.6888   25.2414  -31.6177 H   0  0  0  0  0  0  0  0  0  0  0  0
   -6.1607   26.0051  -30.0436 H   0  0  0  0  0  0  0  0  0  0  0  0
   -5.5810   23.7000  -28.1930 H   0  0  0  0  0  0  0  0  0  0  0  0
   -3.7228   23.0078  -26.9870 H   0  0  0  0  0  0  0  0  0  0  0  0
   -2.7999   22.9723  -28.5413 H   0  0  0  0  0  0  0  0  0  0  0  0
   -2.3571   25.3692  -28.3730 H   0  0  0  0  0  0  0  0  0  0  0  0
   -3.3466   25.4283  -26.8333 H   0  0  0  0  0  0  0  0  0  0  0  0
   -1.5833   24.9190  -25.5975 H   0  0  0  0  0  0  0  0  0  0  0  0
   -1.2511   23.4550  -26.6361 H   0  0  0  0  0  0  0  0  0  0  0  0
   -0.3520   26.2501  -27.4251 H   0  0  0  0  0  0  0  0  0  0  0  0
    0.6530   25.1542  -26.4101 H   0  0  0  0  0  0  0  0  0  0  0  0
   -1.4440   24.2300  -30.2760 H   0  0  0  0  0  0  0  0  0  0  0  0
   -1.4490   22.4310  -30.2420 H   0  0  0  0  0  0  0  0  0  0  0  0
   -0.0670   21.2050  -28.6130 H   0  0  0  0  0  0  0  0  0  0  0  0
    1.0180   22.0620  -27.4860 H   0  0  0  0  0  0  0  0  0  0  0  0
  1  2  1  0
  2  3  1  0
  3  4  1  0
  4  5  1  0
  5  6  1  0
  6  7  1  0
  7  8  1  0
  8  9  1  0
  9 10  1  0
 10 11  1  0
 11 12  1  0
 12 13  1  0
 13 14  1  0
 14 15  1  0
 15 16  1  0
 16 17  1  0
 17 18  1  0
 18 19  1  0
 19 20  1  0
 20 21  1  0
 21 22  2  0
 21 23  1  0
 23 24  1  0
 24 25  1  0
 25 26  1  0
 26 27  1  0
 27 28  1  0
 28 29  2  3
 29 30  1  0
 29 31  1  0
  1 32  1  0
  1 33  1  0
  2 34  1  0
  2 35  1  0
  3 36  1  0
  3 37  1  0
  4 38  1  0
  4 39  1  0
  5 40  1  0
  6 41  1  0
  6 42  1  0
  7 43  1  0
  7 44  1  0
  8 45  1  0
  8 46  1  0
  9 47  1  0
  9 48  1  0
 10 49  1  0
 11 50  1  0
 11 51  1  0
 12 52  1  0
 12 53  1  0
 13 54  1  0
 13 55  1  0
 14 56  1  0
 14 57  1  0
 15 58  1  0
 15 59  1  0
 16 60  1  0
 16 61  1  0
 17 62  1  0
 17 63  1  0
 18 64  1  0
 18 65  1  0
 19 66  1  0
 19 67  1  0
 20 68  1  0
 20 69  1  0
 23 70  1  0
 24 71  1  0
 24 72  1  0
 25 73  1  0
 25 74  1  0
 26 75  1  0
 26 76  1  0
 27 77  1  0
 27 78  1  0
 30 79  1  0
 30 80  1  0
 31 81  1  0
 31 82  1  0
M  END
>  <UniqueID>  (16) 
12

>  <SMILES>  (16) 
NCCCNCCCCNCCCCCCCCCCC(=O)NCCCCN=C(N)N

>  <Energy>  (16) 
38.77062869917125

>  <Genealogy>  (16) 
NCCCNCCCCNCCCCCCCCCCC(=O)NCCCCN=C(N)N (3D coordinates assigned)
NCCCNCCCCNCCCCCCCCCCC(=O)NCCCCN=C(N)N (optimized conformer: 38.77062869917125 kcal/mol)

>  <smiles>  (16) 
NCCCNCCCCNCCCCCCCCCCC(=O)NCCCCN=C(N)N

>  <score_type>  (16) 
oracle

>  <origin>  (16) 
adg

>  <m_score__min__energy>  (16) 
-7.5599999999999996

>  <m_primary>  (16) 
energy

$$$$
16:0
     RDKit          3D

 43 46  0  0  0  0  0  0  0  0999 V2000
   -8.8853   22.0809  -31.2129 H   0  0  0  0  0  0  0  0  0  0  0  0
   -7.9160   22.5970  -31.1480 C   0  0  0  0  0  0  0  0  0  0  0  0
   -7.3120   22.7960  -29.9040 C   0  0  0  0  0  0  0  0  0  0  0  0
   -7.8029   22.4300  -28.9902 H   0  0  0  0  0  0  0  0  0  0  0  0
   -6.0840   23.4600  -29.8190 C   0  0  0  0  0  0  0  0  0  0  0  0
   -5.6037   23.5975  -28.8390 H   0  0  0  0  0  0  0  0  0  0  0  0
   -5.4620   23.9510  -30.9740 C   0  0  0  0  0  0  0  0  0  0  0  0
   -4.1850   24.5980  -30.8460 N   0  0  0  0  0  0  0  0  0  0  0  0
   -3.1640   24.1870  -30.1460 C   0  0  0  0  0  0  0  0  0  0  0  0
   -2.4580   25.0310  -29.3390 N   0  0  0  0  0  0  0  0  0  0  0  0
   -1.2700   24.0950  -28.6550 S   0  0  0  0  0  0  0  0  0  0  0  0
   -1.6900   22.6570  -29.3630 C   0  0  0  0  0  0  0  0  0  0  0  0
   -1.0700   21.5330  -29.1290 N   0  0  0  0  0  0  0  0  0  0  0  0
   -1.4730   20.4790  -28.2460 C   0  0  0  0  0  0  0  0  0  0  0  0
   -0.5840   19.4340  -27.9640 C   0  0  0  0  0  0  0  0  0  0  0  0
    0.4147   19.4232  -28.4251 H   0  0  0  0  0  0  0  0  0  0  0  0
   -0.9640   18.4040  -27.0970 C   0  0  0  0  0  0  0  0  0  0  0  0
   -0.2722   17.5734  -26.8935 H   0  0  0  0  0  0  0  0  0  0  0  0
   -2.2230   18.4300  -26.4890 C   0  0  0  0  0  0  0  0  0  0  0  0
   -2.5262   17.6128  -25.8180 H   0  0  0  0  0  0  0  0  0  0  0  0
   -3.0960   19.4930  -26.7330 C   0  0  0  0  0  0  0  0  0  0  0  0
   -4.0811   19.5187  -26.2443 H   0  0  0  0  0  0  0  0  0  0  0  0
   -2.7180   20.5240  -27.5980 C   0  0  0  0  0  0  0  0  0  0  0  0
   -3.3969   21.3720  -27.7714 H   0  0  0  0  0  0  0  0  0  0  0  0
   -2.7640   22.8680  -30.1790 N   0  0  0  0  0  0  0  0  0  0  0  0
   -3.3300   21.9190  -31.1000 C   0  0  0  0  0  0  0  0  0  0  0  0
   -2.9720   21.9520  -32.4560 C   0  0  0  0  0  0  0  0  0  0  0  0
   -2.2421   22.6938  -32.8124 H   0  0  0  0  0  0  0  0  0  0  0  0
   -3.5400   21.0450  -33.3560 C   0  0  0  0  0  0  0  0  0  0  0  0
   -3.2741   21.0919  -34.4224 H   0  0  0  0  0  0  0  0  0  0  0  0
   -4.4480   20.0750  -32.9040 C   0  0  0  0  0  0  0  0  0  0  0  0
   -5.1020   19.1410  -33.8780 C   0  0  0  0  0  0  0  0  0  0  0  0
   -5.6483   18.3608  -33.3276 H   0  0  0  0  0  0  0  0  0  0  0  0
   -5.8044   19.7037  -34.5104 H   0  0  0  0  0  0  0  0  0  0  0  0
   -4.3330   18.6734  -34.5104 H   0  0  0  0  0  0  0  0  0  0  0  0
   -4.7940   20.0330  -31.5450 C   0  0  0  0  0  0  0  0  0  0  0  0
   -5.5168   19.2856  -31.1860 H   0  0  0  0  0  0  0  0  0  0  0  0
   -4.2230   20.9380  -30.6460 C   0  0  0  0  0  0  0  0  0  0  0  0
   -4.4754   20.8804  -29.5769 H   0  0  0  0  0  0  0  0  0  0  0  0
   -6.0600   23.7200  -32.2280 C   0  0  0  0  0  0  0  0  0  0  0  0
   -5.5604   24.0641  -33.1456 H   0  0  0  0  0  0  0  0  0  0  0  0
   -7.2880   23.0540  -32.3100 C   0  0  0  0  0  0  0  0  0  0  0  0
   -7.7596   22.8900  -33.2901 H   0  0  0  0  0  0  0  0  0  0  0  0
  1  2  1  0
  2  3  2  0
  3  4  1  0
  3  5  1  0
  5  6  1  0
  5  7  2  0
  7  8  1  0
  8  9  2  0
  9 10  1  0
 10 11  1  0
 11 12  1  0
 12 13  2  0
 13 14  1  0
 14 15  2  0
 15 16  1  0
 15 17  1  0
 17 18  1  0
 17 19  2  0
 19 20  1  0
 19 21  1  0
 21 22  1  0
 21 23  2  0
 23 24  1  0
 12 25  1  0
 25 26  1  0
 26 27  2  0
 27 28  1  0
 27 29  1  0
 29 30  1  0
 29 31  2  0
 31 32  1  0
 32 33  1  0
 32 34  1  0
 32 35  1  0
 31 36  1  0
 36 37  1  0
 36 38  2  0
 38 39  1  0
  7 40  1  0
 40 41  1  0
 40 42  2  0
 42 43  1  0
 42  2  1  0
 25  9  1  0
 38 26  1  0
 23 14  1  0
M  CHG  1  10  -1
M  END
>  <UniqueID>  (17) 
13

>  <SMILES>  (17) 
Cc1ccc(-n2/c(=N/c3ccccc3)[n-]s/c2=N/c2ccccc2)cc1

>  <Energy>  (17) 
108.2124876108691

>  <Genealogy>  (17) 
Cc1ccc(-n2c(=Nc3ccccc3)[n-]sc2=Nc2ccccc2)cc1 (protonated)
Cc1ccc(-n2/c(=N/c3ccccc3)[n-]s/c2=N/c2ccccc2)cc1 (cis-trans isomerization)
Cc1ccc(-n2/c(=N/c3ccccc3)[n-]s/c2=N/c2ccccc2)cc1 (3D coordinates assigned)
Cc1ccc(-n2/c(=N/c3ccccc3)[n-]s/c2=N/c2ccccc2)cc1 (optimized conformer: 108.2124876108691 kcal/mol)

>  <smiles>  (17) 
Cc1ccc(-n2c(=Nc3ccccc3)[nH]sc2=Nc2ccccc2)cc1

>  <score_type>  (17) 
oracle

>  <origin>  (17) 
adg

>  <m_score__min__energy>  (17) 
-10.06

>  <m_primary>  (17) 
energy

$$$$
17:0
     RDKit          3D

 42 45  0  0  0  0  0  0  0  0999 V2000
   -3.5170   25.2840  -30.4870 N   0  0  0  0  0  0  0  0  0  0  0  0
   -3.9270   23.9560  -30.8080 C   0  0  0  0  0  0  0  0  0  0  0  0
   -5.0090   23.7740  -31.4290 O   0  0  0  0  0  0  0  0  0  0  0  0
   -3.1000   22.8020  -30.3960 C   0  0  0  0  0  0  0  0  0  0  0  0
   -2.1760   22.8370  -29.3190 C   0  0  0  0  0  0  0  0  0  0  0  0
   -1.9780   23.9830  -28.4020 C   0  0  0  0  0  0  0  0  0  0  0  0
   -2.8590   24.1800  -27.3220 C   0  0  0  0  0  0  0  0  0  0  0  0
   -2.6910   25.2710  -26.4640 C   0  0  0  0  0  0  0  0  0  0  0  0
   -1.6510   26.1790  -26.6810 C   0  0  0  0  0  0  0  0  0  0  0  0
   -0.7800   26.0010  -27.7600 C   0  0  0  0  0  0  0  0  0  0  0  0
   -0.9460   24.9120  -28.6220 C   0  0  0  0  0  0  0  0  0  0  0  0
   -1.4750   21.6430  -29.1510 C   0  0  0  0  0  0  0  0  0  0  0  0
   -1.9930   20.5480  -30.3080 S   0  0  0  0  0  0  0  0  0  0  0  0
   -3.1090   21.5650  -31.0560 C   0  0  0  0  0  0  0  0  0  0  0  0
   -3.9000   21.2350  -32.2160 N   0  0  0  0  0  0  0  0  0  0  0  0
   -3.9150   19.9520  -32.8620 C   0  0  0  0  0  0  0  0  0  0  0  0
   -3.0520   19.0750  -32.5840 O   0  0  0  0  0  0  0  0  0  0  0  0
   -4.9970   19.6220  -33.8450 C   0  0  0  0  0  0  0  0  0  0  0  0
   -6.3010   19.4660  -33.1250 C   0  0  0  0  0  0  0  0  0  0  0  0
   -6.9010   18.2700  -32.7470 C   0  0  0  0  0  0  0  0  0  0  0  0
   -7.9910   18.5130  -32.0380 O   0  0  0  0  0  0  0  0  0  0  0  0
   -8.1160   19.8150  -31.9280 C   0  0  0  0  0  0  0  0  0  0  0  0
   -9.1100   20.5200  -31.2500 C   0  0  0  0  0  0  0  0  0  0  0  0
   -9.0330   21.9260  -31.2460 C   0  0  0  0  0  0  0  0  0  0  0  0
   -7.9770   22.5870  -31.9130 C   0  0  0  0  0  0  0  0  0  0  0  0
   -6.9890   21.8470  -32.5920 C   0  0  0  0  0  0  0  0  0  0  0  0
   -7.0930   20.4560  -32.5790 C   0  0  0  0  0  0  0  0  0  0  0  0
   -3.5100   26.0360  -31.2120 H   0  0  0  0  0  0  0  0  0  0  0  0
   -3.6837   23.4721  -27.1523 H   0  0  0  0  0  0  0  0  0  0  0  0
   -3.3782   25.4149  -25.6172 H   0  0  0  0  0  0  0  0  0  0  0  0
   -1.5176   27.0344  -26.0023 H   0  0  0  0  0  0  0  0  0  0  0  0
    0.0365   26.7179  -27.9312 H   0  0  0  0  0  0  0  0  0  0  0  0
   -0.2656   24.7818  -29.4764 H   0  0  0  0  0  0  0  0  0  0  0  0
   -0.7087   21.4520  -28.3853 H   0  0  0  0  0  0  0  0  0  0  0  0
   -4.5190   21.9680  -32.6200 H   0  0  0  0  0  0  0  0  0  0  0  0
   -5.0812   20.4337  -34.5826 H   0  0  0  0  0  0  0  0  0  0  0  0
   -4.7489   18.6813  -34.3584 H   0  0  0  0  0  0  0  0  0  0  0  0
   -6.5243   17.2681  -33.0005 H   0  0  0  0  0  0  0  0  0  0  0  0
   -9.9278   19.9947  -30.7350 H   0  0  0  0  0  0  0  0  0  0  0  0
   -9.7999   22.5137  -30.7202 H   0  0  0  0  0  0  0  0  0  0  0  0
   -7.9261   23.6858  -31.9020 H   0  0  0  0  0  0  0  0  0  0  0  0
   -6.1624   22.3498  -33.1154 H   0  0  0  0  0  0  0  0  0  0  0  0
  1  2  1  0
  2  3  2  0
  2  4  1  0
  4  5  1  0
  5  6  1  0
  6  7  2  0
  7  8  1  0
  8  9  2  0
  9 10  1  0
 10 11  2  0
  5 12  2  0
 12 13  1  0
 13 14  1  0
 14 15  1  0
 15 16  1  0
 16 17  2  0
 16 18  1  0
 18 19  1  0
 19 20  2  0
 20 21  1  0
 21 22  1  0
 22 23  2  0
 23 24  1  0
 24 25  2  0
 25 26  1  0
 26 27  2  0
 14  4  2  0
 27 19  1  0
 11  6  1  0
 27 22  1  0
  1 28  1  0
  7 29  1  0
  8 30  1  0
  9 31  1  0
 10 32  1  0
 11 33  1  0
 12 34  1  0
 15 35  1  0
 18 36  1  0
 18 37  1  0
 20 38  1  0
 23 39  1  0
 24 40  1  0
 25 41  1  0
 26 42  1  0
M  CHG  1   1  -1
M  END
>  <UniqueID>  (18) 
14

>  <SMILES>  (18) 
[NH-]C(=O)c1c(-c2ccccc2)csc1NC(=O)Cc1coc2ccccc12

>  <Energy>  (18) 
115.51968100885377

>  <Genealogy>  (18) 
[NH-]C(=O)c1c(-c2ccccc2)csc1NC(=O)Cc1coc2ccccc12 (protonated)
[NH-]C(=O)c1c(-c2ccccc2)csc1NC(=O)Cc1coc2ccccc12 (3D coordinates assigned)
[NH-]C(=O)c1c(-c2ccccc2)csc1NC(=O)Cc1coc2ccccc12 (optimized conformer: 115.51968100885377 kcal/mol)

>  <smiles>  (18) 
NC(=O)c1c(-c2ccccc2)csc1NC(=O)Cc1coc2ccccc12

>  <score_type>  (18) 
oracle

>  <origin>  (18) 
adg

>  <m_score__min__energy>  (18) 
-11.68

>  <m_primary>  (18) 
energy

$$$$
18:0
     RDKit          3D

 26 27  0  0  0  0  0  0  0  0999 V2000
   -6.9890   19.3420  -33.4770 N   0  0  0  0  0  0  0  0  0  0  0  0
   -7.4940   18.4800  -32.4200 C   0  0  0  0  0  0  0  0  0  0  0  0
   -8.7760   19.1150  -31.8900 C   0  0  0  0  0  0  0  0  0  0  0  0
   -8.5790   20.5760  -31.7450 C   0  0  0  0  0  0  0  0  0  0  0  0
   -9.5040   21.5560  -31.9700 C   0  0  0  0  0  0  0  0  0  0  0  0
   -8.9270   22.7360  -31.7250 N   0  0  0  0  0  0  0  0  0  0  0  0
   -7.6470   22.5290  -31.3470 C   0  0  0  0  0  0  0  0  0  0  0  0
   -6.6260   23.5010  -30.9790 C   0  0  0  0  0  0  0  0  0  0  0  0
   -6.8980   24.5500  -30.0940 C   0  0  0  0  0  0  0  0  0  0  0  0
   -5.8850   25.4370  -29.7870 C   0  0  0  0  0  0  0  0  0  0  0  0
   -4.6260   25.2770  -30.3560 C   0  0  0  0  0  0  0  0  0  0  0  0
   -4.3740   24.2570  -31.2130 N   0  0  0  0  0  0  0  0  0  0  0  0
   -5.3550   23.3660  -31.5330 C   0  0  0  0  0  0  0  0  0  0  0  0
   -7.4380   21.1900  -31.3620 N   0  0  0  0  0  0  0  0  0  0  0  0
   -7.7810   19.6730  -34.0890 H   0  0  0  0  0  0  0  0  0  0  0  0
   -6.4980   20.1610  -33.0070 H   0  0  0  0  0  0  0  0  0  0  0  0
   -7.7081   17.4784  -32.8212 H   0  0  0  0  0  0  0  0  0  0  0  0
   -6.7509   18.3737  -31.6159 H   0  0  0  0  0  0  0  0  0  0  0  0
   -9.5986   18.9239  -32.5949 H   0  0  0  0  0  0  0  0  0  0  0  0
   -9.0239   18.6791  -30.9110 H   0  0  0  0  0  0  0  0  0  0  0  0
  -10.5430   21.4006  -32.2961 H   0  0  0  0  0  0  0  0  0  0  0  0
   -9.3790   23.6680  -31.8080 H   0  0  0  0  0  0  0  0  0  0  0  0
   -7.8985   24.6659  -29.6517 H   0  0  0  0  0  0  0  0  0  0  0  0
   -6.0737   26.2694  -29.0930 H   0  0  0  0  0  0  0  0  0  0  0  0
   -3.8239   25.9875  -30.1074 H   0  0  0  0  0  0  0  0  0  0  0  0
   -5.1429   22.5406  -32.2285 H   0  0  0  0  0  0  0  0  0  0  0  0
  1  2  1  0
  2  3  1  0
  3  4  1  0
  4  5  2  0
  5  6  1  0
  6  7  1  0
  7  8  1  0
  8  9  2  0
  9 10  1  0
 10 11  2  0
 11 12  1  0
 12 13  2  0
  7 14  2  0
 14  4  1  0
 13  8  1  0
  1 15  1  0
  1 16  1  0
  2 17  1  0
  2 18  1  0
  3 19  1  0
  3 20  1  0
  5 21  1  0
  6 22  1  0
  9 23  1  0
 10 24  1  0
 11 25  1  0
 13 26  1  0
M  END
>  <smiles>  (19) 
NCCc1c[nH]c(-c2cccnc2)n1

>  <score_type>  (19) 
oracle

>  <origin>  (19) 
adg

>  <m_score__min__energy>  (19) 
-6.5700000000000003

>  <m_primary>  (19) 
energy

$$$$
19:0
     RDKit          3D

 44 46  0  0  0  0  0  0  0  0999 V2000
   -4.8900   22.0800  -33.1640 H   0  0  0  0  0  0  0  0  0  0  0  0
   -5.0870   21.1570  -33.4740 O   0  0  0  0  0  0  0  0  0  0  0  0
   -5.6120   20.4790  -32.3640 C   0  0  0  0  0  0  0  0  0  0  0  0
   -4.8033   20.2919  -31.6422 H   0  0  0  0  0  0  0  0  0  0  0  0
   -6.0499   19.5310  -32.7097 H   0  0  0  0  0  0  0  0  0  0  0  0
   -6.7170   21.3060  -31.6780 C   0  0  2  0  0  0  0  0  0  0  0  0
   -6.4303   21.2893  -30.6162 H   0  0  0  0  0  0  0  0  0  0  0  0
   -8.1060   20.7140  -31.8710 C   0  0  0  0  0  0  0  0  0  0  0  0
   -8.3121   19.9450  -31.1119 H   0  0  0  0  0  0  0  0  0  0  0  0
   -8.2228   20.2182  -32.8460 H   0  0  0  0  0  0  0  0  0  0  0  0
   -9.0380   21.9000  -31.7040 C   0  0  0  0  0  0  0  0  0  0  0  0
   -9.4495   21.9236  -30.6841 H   0  0  0  0  0  0  0  0  0  0  0  0
   -9.8915   21.8456  -32.3957 H   0  0  0  0  0  0  0  0  0  0  0  0
   -8.1810   23.1410  -31.9620 C   0  0  0  0  0  0  0  0  0  0  0  0
   -8.2269   23.8146  -31.0936 H   0  0  0  0  0  0  0  0  0  0  0  0
   -8.5497   23.6859  -32.8435 H   0  0  0  0  0  0  0  0  0  0  0  0
   -6.7910   22.6930  -32.1770 N   0  0  1  0  0  0  0  0  0  0  0  0
   -6.6300   22.6920  -33.2130 H   0  0  0  0  0  0  0  0  0  0  0  0
   -5.8070   23.5660  -31.5620 C   0  0  0  0  0  0  0  0  0  0  0  0
   -4.5730   23.0720  -31.2690 N   0  0  0  0  0  0  0  0  0  0  0  0
   -3.6140   23.8370  -30.6840 C   0  0  0  0  0  0  0  0  0  0  0  0
   -2.4610   23.3040  -30.4060 N   0  0  0  0  0  0  0  0  0  0  0  0
   -2.2090   22.2160  -29.5000 C   0  0  0  0  0  0  0  0  0  0  0  0
   -1.2400   21.2310  -29.7690 C   0  0  0  0  0  0  0  0  0  0  0  0
   -0.6283   21.2988  -30.6807 H   0  0  0  0  0  0  0  0  0  0  0  0
   -1.0520   20.1670  -28.8820 C   0  0  0  0  0  0  0  0  0  0  0  0
   -0.2785   19.4127  -29.0886 H   0  0  0  0  0  0  0  0  0  0  0  0
   -1.8450   20.0560  -27.7290 C   0  0  0  0  0  0  0  0  0  0  0  0
   -1.6200   18.9270  -26.7590 C   0  0  0  0  0  0  0  0  0  0  0  0
   -0.8224   19.2090  -26.0560 H   0  0  0  0  0  0  0  0  0  0  0  0
   -1.3318   18.0284  -27.3241 H   0  0  0  0  0  0  0  0  0  0  0  0
   -2.8930   18.6250  -25.9760 C   0  0  0  0  0  0  0  0  0  0  0  0
   -2.6809   18.6753  -24.8978 H   0  0  0  0  0  0  0  0  0  0  0  0
   -3.6655   19.3648  -26.2327 H   0  0  0  0  0  0  0  0  0  0  0  0
   -3.2509   17.6170  -26.2327 H   0  0  0  0  0  0  0  0  0  0  0  0
   -2.8200   21.0310  -27.4690 C   0  0  0  0  0  0  0  0  0  0  0  0
   -3.4383   20.9589  -26.5621 H   0  0  0  0  0  0  0  0  0  0  0  0
   -3.0090   22.0930  -28.3570 C   0  0  0  0  0  0  0  0  0  0  0  0
   -3.7925   22.8386  -28.1568 H   0  0  0  0  0  0  0  0  0  0  0  0
   -3.8940   25.1300  -30.3600 N   0  0  0  0  0  0  0  0  0  0  0  0
   -5.1080   25.6730  -30.6270 C   0  0  0  0  0  0  0  0  0  0  0  0
   -5.3108   26.7219  -30.3648 H   0  0  0  0  0  0  0  0  0  0  0  0
   -6.0980   24.9030  -31.2330 C   0  0  0  0  0  0  0  0  0  0  0  0
   -7.0876   25.3315  -31.4501 H   0  0  0  0  0  0  0  0  0  0  0  0
  1  2  1  0
  2  3  1  0
  3  4  1  0
  3  5  1  0
  3  6  1  0
  6  7  1  1
  6  8  1  0
  8  9  1  0
  8 10  1  0
  8 11  1  0
 11 12  1  0
 11 13  1  0
 11 14  1  0
 14 15  1  0
 14 16  1  0
 14 17  1  0
 17 18  1  6
 17 19  1  0
 19 20  2  0
 20 21  1  0
 21 22  2  0
 22 23  1  0
 23 24  2  0
 24 25  1  0
 24 26  1  0
 26 27  1  0
 26 28  2  0
 28 29  1  0
 29 30  1  0
 29 31  1  0
 29 32  1  0
 32 33  1  0
 32 34  1  0
 32 35  1  0
 28 36  1  0
 36 37  1  0
 36 38  2  0
 38 39  1  0
 21 40  1  0
 40 41  1  0
 41 42  1  0
 41 43  2  0
 43 44  1  0
 17  6  1  0
 43 19  1  0
 38 23  1  0
M  CHG  2  17   1  40  -1
M  END
>  <UniqueID>  (20) 
15

>  <SMILES>  (20) 
CCc1ccc(/N=c2/nc([N@@H+]3CCC[C@H]3CO)cc[n-]2)cc1

>  <Energy>  (20) 
55.2448395005948

>  <Genealogy>  (20) 
CCc1ccc(N=c2nc([NH+]3CCCC3CO)cc[n-]2)cc1 (protonated)
CCc1ccc(N=c2nc([N@@H+]3CCC[C@H]3CO)cc[n-]2)cc1 (chirality)
CCc1ccc(/N=c2/nc([N@@H+]3CCC[C@H]3CO)cc[n-]2)cc1 (cis-trans isomerization)
CCc1ccc(/N=c2/nc([N@@H+]3CCC[C@H]3CO)cc[n-]2)cc1 (3D coordinates assigned)
CCc1ccc(/N=c2/nc([N@@H+]3CCC[C@H]3CO)cc[n-]2)cc1 (nonaromatic ring conformer: 55.2448395005948 kcal/mol)

>  <smiles>  (20) 
CCc1ccc(N=c2nc(N3CCCC3CO)cc[nH]2)cc1

>  <score_type>  (20) 
oracle

>  <origin>  (20) 
adg

>  <m_score__min__energy>  (20) 
-8.0199999999999996

>  <m_primary>  (20) 
energy

$$$$
20:0
     RDKit          3D

 23 24  0  0  0  0  0  0  0  0999 V2000
   -0.8780   22.1160  -30.4670 C   0  0  0  0  0  0  0  0  0  0  0  0
   -1.8860   22.0750  -29.3610 C   0  0  0  0  0  0  0  0  0  0  0  0
   -2.1330   20.9160  -28.6890 N   0  0  0  0  0  0  0  0  0  0  0  0
   -3.0700   21.0610  -27.7280 C   0  0  0  0  0  0  0  0  0  0  0  0
   -3.6340   22.6410  -27.6740 S   0  0  0  0  0  0  0  0  0  0  0  0
   -2.6420   23.1730  -28.9270 C   0  0  0  0  0  0  0  0  0  0  0  0
   -2.6240   24.5590  -29.4330 C   0  0  0  0  0  0  0  0  0  0  0  0
   -1.7660   25.3650  -28.9840 O   0  0  0  0  0  0  0  0  0  0  0  0
   -3.5320   24.9720  -30.4620 N   0  0  0  0  0  0  0  0  0  0  0  0
   -4.8210   24.4100  -30.7470 C   0  0  0  0  0  0  0  0  0  0  0  0
   -4.9900   23.3100  -31.6060 C   0  0  0  0  0  0  0  0  0  0  0  0
   -6.2720   22.8210  -31.8680 C   0  0  0  0  0  0  0  0  0  0  0  0
   -7.3740   23.4430  -31.2790 C   0  0  0  0  0  0  0  0  0  0  0  0
   -7.1970   24.5200  -30.4690 N   0  0  0  0  0  0  0  0  0  0  0  0
   -5.9590   25.0140  -30.2000 C   0  0  0  0  0  0  0  0  0  0  0  0
    0.1345   22.1572  -30.0390 H   0  0  0  0  0  0  0  0  0  0  0  0
   -0.9774   21.2131  -31.0874 H   0  0  0  0  0  0  0  0  0  0  0  0
   -1.0504   23.0079  -31.0874 H   0  0  0  0  0  0  0  0  0  0  0  0
   -3.4174   20.2520  -27.0686 H   0  0  0  0  0  0  0  0  0  0  0  0
   -4.1137   22.8349  -32.0713 H   0  0  0  0  0  0  0  0  0  0  0  0
   -6.4116   21.9548  -32.5315 H   0  0  0  0  0  0  0  0  0  0  0  0
   -8.3875   23.0609  -31.4707 H   0  0  0  0  0  0  0  0  0  0  0  0
   -5.8512   25.8937  -29.5485 H   0  0  0  0  0  0  0  0  0  0  0  0
  1  2  1  0
  2  3  1  0
  3  4  2  0
  4  5  1  0
  5  6  1  0
  6  7  1  0
  7  8  2  0
  7  9  1  0
  9 10  1  0
 10 11  2  0
 11 12  1  0
 12 13  2  0
 13 14  1  0
 14 15  2  0
  6  2  2  0
 15 10  1  0
  1 16  1  0
  1 17  1  0
  1 18  1  0
  4 19  1  0
 11 20  1  0
 12 21  1  0
 13 22  1  0
 15 23  1  0
M  CHG  1   9  -1
M  END
>  <UniqueID>  (21) 
16

>  <SMILES>  (21) 
Cc1ncsc1C(=O)[N-]c1cccnc1

>  <Energy>  (21) 
56.81937131771689

>  <Genealogy>  (21) 
Cc1ncsc1C(=O)[N-]c1cccnc1 (protonated)
Cc1ncsc1C(=O)[N-]c1cccnc1 (3D coordinates assigned)
Cc1ncsc1C(=O)[N-]c1cccnc1 (optimized conformer: 56.81937131771689 kcal/mol)

>  <smiles>  (21) 
Cc1ncsc1C(=O)Nc1cccnc1

>  <score_type>  (21) 
oracle

>  <origin>  (21) 
adg

>  <m_score__min__energy>  (21) 
-6.9000000000000004

>  <m_primary>  (21) 
energy

$$$$
21:0
     RDKit          3D

 67 69  0  0  0  0  0  0  0  0999 V2000
   -2.3800   19.8480  -27.5230 C   0  0  0  0  0  0  0  0  0  0  0  0
   -1.9610   20.6470  -28.6250 O   0  0  0  0  0  0  0  0  0  0  0  0
   -1.3060   20.1430  -29.7590 C   0  0  0  0  0  0  0  0  0  0  0  0
   -0.0640   19.4860  -29.6830 C   0  0  0  0  0  0  0  0  0  0  0  0
    0.5410   18.9880  -30.8400 C   0  0  0  0  0  0  0  0  0  0  0  0
   -0.0880   19.1310  -32.0780 C   0  0  0  0  0  0  0  0  0  0  0  0
   -1.3260   19.7800  -32.1670 C   0  0  0  0  0  0  0  0  0  0  0  0
   -2.1010   19.9800  -33.7360 S   0  0  0  0  0  0  0  0  0  0  0  0
   -1.2000   20.7350  -34.6740 O   0  0  0  0  0  0  0  0  0  0  0  0
   -3.3750   20.7600  -33.5650 O   0  0  0  0  0  0  0  0  0  0  0  0
   -2.4670   18.4310  -34.4090 N   0  0  0  0  0  0  0  0  0  0  0  0
   -3.5370   17.6490  -33.8800 C   0  0  0  0  0  0  0  0  0  0  0  0
   -3.2680   16.4110  -33.2980 C   0  0  0  0  0  0  0  0  0  0  0  0
   -4.3080   15.6620  -32.7550 C   0  0  0  0  0  0  0  0  0  0  0  0
   -5.6100   16.1610  -32.8020 C   0  0  0  0  0  0  0  0  0  0  0  0
   -5.8770   17.3700  -33.3840 N   0  0  0  0  0  0  0  0  0  0  0  0
   -7.2550   17.8850  -33.3620 C   0  0  0  0  0  0  0  0  0  0  0  0
   -7.3570   19.0260  -32.3950 C   0  0  0  0  0  0  0  0  0  0  0  0
   -8.2100   18.9790  -31.4680 O   0  0  0  0  0  0  0  0  0  0  0  0
   -6.5160   20.1770  -32.5560 N   0  0  0  0  0  0  0  0  0  0  0  0
   -6.5260   21.3050  -31.6210 C   0  0  0  0  0  0  0  0  0  0  0  0
   -5.1320   21.4560  -30.9560 C   0  0  0  0  0  0  0  0  0  0  0  0
   -4.4350   22.7780  -31.2980 C   0  0  0  0  0  0  0  0  0  0  0  0
   -5.3450   23.9060  -31.0570 N   0  0  0  0  0  0  0  0  0  0  0  0
   -4.8660   25.1150  -30.4400 C   0  0  0  0  0  0  0  0  0  0  0  0
   -5.6740   26.0510  -30.1890 O   0  0  0  0  0  0  0  0  0  0  0  0
   -3.5040   25.2440  -30.1240 O   0  0  0  0  0  0  0  0  0  0  0  0
   -2.7850   24.5020  -29.1260 C   0  0  0  0  0  0  0  0  0  0  0  0
   -3.8300   23.7970  -28.2480 C   0  0  0  0  0  0  0  0  0  0  0  0
   -1.8870   23.4370  -29.7840 C   0  0  0  0  0  0  0  0  0  0  0  0
   -1.9500   25.4480  -28.2420 C   0  0  0  0  0  0  0  0  0  0  0  0
   -6.7410   23.8320  -31.5160 C   0  0  0  0  0  0  0  0  0  0  0  0
   -6.9950   22.5770  -32.3550 C   0  0  0  0  0  0  0  0  0  0  0  0
   -4.8590   18.1200  -33.9220 C   0  0  0  0  0  0  0  0  0  0  0  0
   -5.1010   19.2370  -34.4560 O   0  0  0  0  0  0  0  0  0  0  0  0
   -1.9230   20.2970  -31.0080 C   0  0  0  0  0  0  0  0  0  0  0  0
   -2.1152   20.3530  -26.5823 H   0  0  0  0  0  0  0  0  0  0  0  0
   -3.4696   19.7041  -27.5678 H   0  0  0  0  0  0  0  0  0  0  0  0
   -1.8788   18.8698  -27.5678 H   0  0  0  0  0  0  0  0  0  0  0  0
    0.4326   19.3639  -28.7091 H   0  0  0  0  0  0  0  0  0  0  0  0
    1.5155   18.4819  -30.7751 H   0  0  0  0  0  0  0  0  0  0  0  0
    0.3896   18.7332  -32.9855 H   0  0  0  0  0  0  0  0  0  0  0  0
   -2.2375   16.0275  -33.2680 H   0  0  0  0  0  0  0  0  0  0  0  0
   -4.1050   14.6847  -32.2927 H   0  0  0  0  0  0  0  0  0  0  0  0
   -6.4323   15.5750  -32.3656 H   0  0  0  0  0  0  0  0  0  0  0  0
   -7.5303   18.2338  -34.3683 H   0  0  0  0  0  0  0  0  0  0  0  0
   -7.9373   17.0814  -33.0478 H   0  0  0  0  0  0  0  0  0  0  0  0
   -5.7640   20.1400  -33.2820 H   0  0  0  0  0  0  0  0  0  0  0  0
   -7.2410   21.1235  -30.8050 H   0  0  0  0  0  0  0  0  0  0  0  0
   -5.2583   21.4004  -29.8647 H   0  0  0  0  0  0  0  0  0  0  0  0
   -4.4978   20.6447  -31.3427 H   0  0  0  0  0  0  0  0  0  0  0  0
   -3.5405   22.8912  -30.6679 H   0  0  0  0  0  0  0  0  0  0  0  0
   -4.1466   22.7687  -32.3595 H   0  0  0  0  0  0  0  0  0  0  0  0
   -3.5881   23.9602  -27.1874 H   0  0  0  0  0  0  0  0  0  0  0  0
   -4.8274   24.2075  -28.4639 H   0  0  0  0  0  0  0  0  0  0  0  0
   -3.8228   22.7184  -28.4639 H   0  0  0  0  0  0  0  0  0  0  0  0
   -1.3878   22.8449  -29.0029 H   0  0  0  0  0  0  0  0  0  0  0  0
   -2.5027   22.7739  -30.4095 H   0  0  0  0  0  0  0  0  0  0  0  0
   -1.1294   23.9318  -30.4095 H   0  0  0  0  0  0  0  0  0  0  0  0
   -2.1451   25.2270  -27.1822 H   0  0  0  0  0  0  0  0  0  0  0  0
   -0.8810   25.3019  -28.4563 H   0  0  0  0  0  0  0  0  0  0  0  0
   -2.2277   26.4906  -28.4563 H   0  0  0  0  0  0  0  0  0  0  0  0
   -7.4043   23.8147  -30.6387 H   0  0  0  0  0  0  0  0  0  0  0  0
   -6.9424   24.7117  -32.1449 H   0  0  0  0  0  0  0  0  0  0  0  0
   -8.0727   22.4953  -32.5595 H   0  0  0  0  0  0  0  0  0  0  0  0
   -6.4254   22.6659  -33.2919 H   0  0  0  0  0  0  0  0  0  0  0  0
   -2.8837   20.8279  -31.0798 H   0  0  0  0  0  0  0  0  0  0  0  0
  1  2  1  0
  2  3  1  0
  3  4  2  0
  4  5  1  0
  5  6  2  0
  6  7  1  0
  7  8  1  0
  8  9  2  0
  8 10  2  0
  8 11  1  0
 11 12  1  0
 12 13  2  0
 13 14  1  0
 14 15  2  0
 15 16  1  0
 16 17  1  0
 17 18  1  0
 18 19  2  0
 18 20  1  0
 20 21  1  0
 21 22  1  0
 22 23  1  0
 23 24  1  0
 24 25  1  0
 25 26  2  0
 25 27  1  0
 27 28  1  0
 28 29  1  0
 28 30  1  0
 28 31  1  0
 24 32  1  0
 32 33  1  0
 16 34  1  0
 34 35  2  0
  7 36  2  0
 36  3  1  0
 34 12  1  0
 33 21  1  0
  1 37  1  0
  1 38  1  0
  1 39  1  0
  4 40  1  0
  5 41  1  0
  6 42  1  0
 13 43  1  0
 14 44  1  0
 15 45  1  0
 17 46  1  0
 17 47  1  0
 20 48  1  0
 21 49  1  0
 22 50  1  0
 22 51  1  0
 23 52  1  0
 23 53  1  0
 29 54  1  0
 29 55  1  0
 29 56  1  0
 30 57  1  0
 30 58  1  0
 30 59  1  0
 31 60  1  0
 31 61  1  0
 31 62  1  0
 32 63  1  0
 32 64  1  0
 33 65  1  0
 33 66  1  0
 36 67  1  0
M  CHG  1  11  -1
M  END
>  <UniqueID>  (22) 
17

>  <SMILES>  (22) 
COc1cccc(S(=O)(=O)[N-]c2cccn(CC(=O)NC3CCN(C(=O)OC(C)(C)C)CC3)c2=O)c1

>  <Energy>  (22) 
69.44229389409524

>  <Genealogy>  (22) 
COc1cccc(S(=O)(=O)[N-]c2cccn(CC(=O)NC3CCN(C(=O)OC(C)(C)C)CC3)c2=O)c1 (protonated)
COc1cccc(S(=O)(=O)[N-]c2cccn(CC(=O)NC3CCN(C(=O)OC(C)(C)C)CC3)c2=O)c1 (3D coordinates assigned)
COc1cccc(S(=O)(=O)[N-]c2cccn(CC(=O)NC3CCN(C(=O)OC(C)(C)C)CC3)c2=O)c1 (nonaromatic ring conformer: 69.44229389409524 kcal/mol)

>  <smiles>  (22) 
COc1cccc(S(=O)(=O)Nc2cccn(CC(=O)NC3CCN(C(=O)OC(C)(C)C)CC3)c2=O)c1

>  <score_type>  (22) 
oracle

>  <origin>  (22) 
adg

>  <m_score__min__energy>  (22) 
-9.3599999999999994

>  <m_primary>  (22) 
energy

$$$$
22:0
     RDKit          3D

 27 29  0  0  0  0  0  0  0  0999 V2000
   -4.1000   25.2960  -30.8880 O   0  0  0  0  0  0  0  0  0  0  0  0
   -4.0620   24.6210  -29.8250 C   0  0  0  0  0  0  0  0  0  0  0  0
   -5.2380   23.9430  -29.3610 N   0  0  0  0  0  0  0  0  0  0  0  0
   -6.3110   23.5230  -30.2220 C   0  0  0  0  0  0  0  0  0  0  0  0
   -6.3560   23.8850  -31.5790 C   0  0  0  0  0  0  0  0  0  0  0  0
   -7.4020   23.4370  -32.3880 C   0  0  0  0  0  0  0  0  0  0  0  0
   -8.3910   22.6190  -31.8370 C   0  0  0  0  0  0  0  0  0  0  0  0
   -8.3260   22.2600  -30.5280 N   0  0  0  0  0  0  0  0  0  0  0  0
   -7.3170   22.6830  -29.7200 C   0  0  0  0  0  0  0  0  0  0  0  0
   -2.8210   24.6100  -29.0310 C   0  0  0  0  0  0  0  0  0  0  0  0
   -1.9700   25.6620  -28.9650 N   0  0  0  0  0  0  0  0  0  0  0  0
   -0.9470   25.3490  -28.1760 N   0  0  0  0  0  0  0  0  0  0  0  0
   -1.1440   24.0910  -27.7460 C   0  0  0  0  0  0  0  0  0  0  0  0
   -0.3120   23.3370  -26.9210 C   0  0  0  0  0  0  0  0  0  0  0  0
   -0.7000   22.0160  -26.6340 C   0  0  0  0  0  0  0  0  0  0  0  0
   -1.8880   21.4830  -27.1830 C   0  0  0  0  0  0  0  0  0  0  0  0
   -2.7050   22.2690  -28.0170 C   0  0  0  0  0  0  0  0  0  0  0  0
   -2.3050   23.5840  -28.2620 C   0  0  0  0  0  0  0  0  0  0  0  0
   -5.3690   23.8510  -28.3290 H   0  0  0  0  0  0  0  0  0  0  0  0
   -5.5664   24.5219  -32.0043 H   0  0  0  0  0  0  0  0  0  0  0  0
   -7.4468   23.7253  -33.4486 H   0  0  0  0  0  0  0  0  0  0  0  0
   -9.2232   22.2651  -32.4632 H   0  0  0  0  0  0  0  0  0  0  0  0
   -7.2893   22.3650  -28.6673 H   0  0  0  0  0  0  0  0  0  0  0  0
    0.6158   23.7601  -26.5086 H   0  0  0  0  0  0  0  0  0  0  0  0
   -0.0743   21.3934  -25.9776 H   0  0  0  0  0  0  0  0  0  0  0  0
   -2.1764   20.4459  -26.9568 H   0  0  0  0  0  0  0  0  0  0  0  0
   -3.6258   21.8618  -28.4600 H   0  0  0  0  0  0  0  0  0  0  0  0
  1  2  2  0
  2  3  1  0
  3  4  1  0
  4  5  2  0
  5  6  1  0
  6  7  2  0
  7  8  1  0
  8  9  2  0
  2 10  1  0
 10 11  1  0
 11 12  1  0
 12 13  2  0
 13 14  1  0
 14 15  2  0
 15 16  1  0
 16 17  2  0
 17 18  1  0
  9  4  1  0
 18 10  2  0
 18 13  1  0
  3 19  1  0
  5 20  1  0
  6 21  1  0
  7 22  1  0
  9 23  1  0
 14 24  1  0
 15 25  1  0
 16 26  1  0
 17 27  1  0
M  CHG  1  11  -1
M  END
>  <UniqueID>  (23) 
18

>  <SMILES>  (23) 
O=C(Nc1cccnc1)c1[n-]nc2ccccc12

>  <Energy>  (23) 
73.90940064798457

>  <Genealogy>  (23) 
O=C(Nc1cccnc1)c1[n-]nc2ccccc12 (protonated)
O=C(Nc1cccnc1)c1[n-]nc2ccccc12 (3D coordinates assigned)
O=C(Nc1cccnc1)c1[n-]nc2ccccc12 (optimized conformer: 73.90940064798457 kcal/mol)

>  <smiles>  (23) 
O=C(Nc1cccnc1)c1[nH]nc2ccccc12

>  <score_type>  (23) 
oracle

>  <origin>  (23) 
adg

>  <m_score__min__energy>  (23) 
-8.9100000000000001

>  <m_primary>  (23) 
energy

$$$$
23:0
     RDKit          3D

 29 31  0  0  0  0  0  0  0  0999 V2000
   -4.9650   23.6970  -31.1670 C   0  0  0  0  0  0  0  0  0  0  0  0
   -5.9170   22.6350  -31.6190 C   0  0  0  0  0  0  0  0  0  0  0  0
   -7.1920   22.8040  -31.4040 N   0  0  0  0  0  0  0  0  0  0  0  0
   -8.1250   21.8080  -31.8170 C   0  0  0  0  0  0  0  0  0  0  0  0
   -9.4600   21.8780  -31.6440 N   0  0  0  0  0  0  0  0  0  0  0  0
   -9.8780   20.7900  -32.3380 C   0  0  0  0  0  0  0  0  0  0  0  0
   -8.8520   20.1270  -32.9100 N   0  0  0  0  0  0  0  0  0  0  0  0
   -7.7530   20.7620  -32.5530 N   0  0  0  0  0  0  0  0  0  0  0  0
   -6.4050   20.5940  -33.0930 C   0  0  2  0  0  0  0  0  0  0  0  0
   -6.0490   19.1290  -33.2330 C   0  0  0  0  0  0  0  0  0  0  0  0
   -6.1070   18.2780  -32.1150 C   0  0  0  0  0  0  0  0  0  0  0  0
   -5.7990   16.9200  -32.2450 C   0  0  0  0  0  0  0  0  0  0  0  0
   -5.4390   16.3980  -33.4900 C   0  0  0  0  0  0  0  0  0  0  0  0
   -5.1420   15.0800  -33.6120 F   0  0  0  0  0  0  0  0  0  0  0  0
   -5.3900   17.2330  -34.6090 C   0  0  0  0  0  0  0  0  0  0  0  0
   -5.6980   18.5910  -34.4840 C   0  0  0  0  0  0  0  0  0  0  0  0
   -5.3790   21.3250  -32.1860 C   0  0  0  0  0  0  0  0  0  0  0  0
   -4.9408   23.7240  -30.0676 H   0  0  0  0  0  0  0  0  0  0  0  0
   -3.9583   23.4744  -31.5505 H   0  0  0  0  0  0  0  0  0  0  0  0
   -5.2959   24.6734  -31.5505 H   0  0  0  0  0  0  0  0  0  0  0  0
  -10.9311   20.4840  -32.4243 H   0  0  0  0  0  0  0  0  0  0  0  0
   -8.9050   19.3030  -33.5500 H   0  0  0  0  0  0  0  0  0  0  0  0
   -6.3746   21.0396  -34.0983 H   0  0  0  0  0  0  0  0  0  0  0  0
   -6.3960   18.6823  -31.1337 H   0  0  0  0  0  0  0  0  0  0  0  0
   -5.8403   16.2613  -31.3650 H   0  0  0  0  0  0  0  0  0  0  0  0
   -5.1087   16.8215  -35.5896 H   0  0  0  0  0  0  0  0  0  0  0  0
   -5.6656   19.2426  -35.3696 H   0  0  0  0  0  0  0  0  0  0  0  0
   -5.1154   20.6620  -31.3488 H   0  0  0  0  0  0  0  0  0  0  0  0
   -4.5037   21.5680  -32.8063 H   0  0  0  0  0  0  0  0  0  0  0  0
  1  2  1  0
  2  3  2  0
  3  4  1  0
  4  5  2  0
  5  6  1  0
  6  7  2  0
  7  8  1  0
  8  9  1  0
  9 10  1  0
 10 11  2  0
 11 12  1  0
 12 13  2  0
 13 14  1  0
 13 15  1  0
 15 16  2  0
  9 17  1  0
 17  2  1  0
  8  4  1  0
 16 10  1  0
  1 18  1  0
  1 19  1  0
  1 20  1  0
  6 21  1  0
  7 22  1  0
  9 23  1  6
 11 24  1  0
 12 25  1  0
 15 26  1  0
 16 27  1  0
 17 28  1  0
 17 29  1  0
M  CHG  1   7   1
M  END
>  <UniqueID>  (24) 
19

>  <SMILES>  (24) 
CC1=Nc2nc[nH+]n2[C@H](c2ccc(F)cc2)C1

>  <Energy>  (24) 
67.72882202962292

>  <Genealogy>  (24) 
CC1=Nc2nc[nH+]n2C(c2ccc(F)cc2)C1 (protonated)
CC1=Nc2nc[nH+]n2[C@H](c2ccc(F)cc2)C1 (chirality)
CC1=Nc2nc[nH+]n2[C@H](c2ccc(F)cc2)C1 (3D coordinates assigned)
CC1=Nc2nc[nH+]n2[C@H](c2ccc(F)cc2)C1 (nonaromatic ring conformer: 67.72882202962292 kcal/mol)

>  <smiles>  (24) 
CC1=Nc2ncnn2C(c2ccc(F)cc2)C1

>  <score_type>  (24) 
oracle

>  <origin>  (24) 
adg

>  <m_score__min__energy>  (24) 
-6.3899999999999997

>  <m_primary>  (24) 
energy

$$$$
24:0
     RDKit          3D

 46 47  0  0  0  0  0  0  0  0999 V2000
   -4.8524   21.8670  -28.0770 H   0  0  0  0  0  0  0  0  0  0  0  0
   -4.4460   22.4450  -28.9200 C   0  0  0  0  0  0  0  0  0  0  0  0
   -5.2180   22.6450  -29.9900 C   0  0  0  0  0  0  0  0  0  0  0  0
   -5.6579   21.7832  -30.5133 H   0  0  0  0  0  0  0  0  0  0  0  0
   -5.5380   24.2700  -30.5700 S   0  0  0  0  0  0  0  0  0  0  0  0
   -4.2370   24.9720  -30.8440 O   0  0  0  0  0  0  0  0  0  0  0  0
   -6.3180   25.0290  -29.5340 O   0  0  0  0  0  0  0  0  0  0  0  0
   -6.4870   24.1680  -32.0780 C   0  0  0  0  0  0  0  0  0  0  0  0
   -7.2812   24.9288  -32.0586 H   0  0  0  0  0  0  0  0  0  0  0  0
   -5.8175   24.3421  -32.9333 H   0  0  0  0  0  0  0  0  0  0  0  0
   -7.1090   22.8060  -32.2150 C   0  0  0  0  0  0  0  0  0  0  0  0
   -8.4450   22.5960  -31.8360 C   0  0  0  0  0  0  0  0  0  0  0  0
   -9.0464   23.4370  -31.4605 H   0  0  0  0  0  0  0  0  0  0  0  0
   -9.0140   21.3220  -31.9340 C   0  0  0  0  0  0  0  0  0  0  0  0
  -10.0626   21.1659  -31.6407 H   0  0  0  0  0  0  0  0  0  0  0  0
   -8.2520   20.2430  -32.4050 C   0  0  0  0  0  0  0  0  0  0  0  0
   -8.8340   18.9410  -32.5030 N   0  0  0  0  0  0  0  0  0  0  0  0
   -8.9920   18.3600  -31.6510 H   0  0  0  0  0  0  0  0  0  0  0  0
   -9.1120   18.5490  -33.4310 H   0  0  0  0  0  0  0  0  0  0  0  0
   -6.9150   20.4490  -32.7730 C   0  0  0  0  0  0  0  0  0  0  0  0
   -6.3118   19.6054  -33.1397 H   0  0  0  0  0  0  0  0  0  0  0  0
   -6.3450   21.7220  -32.6760 C   0  0  0  0  0  0  0  0  0  0  0  0
   -5.2939   21.8749  -32.9620 H   0  0  0  0  0  0  0  0  0  0  0  0
   -3.0630   22.9700  -28.8210 C   0  0  0  0  0  0  0  0  0  0  0  0
   -2.8100   24.0520  -27.9540 C   0  0  0  0  0  0  0  0  0  0  0  0
   -3.8750   24.5840  -27.2050 O   0  0  0  0  0  0  0  0  0  0  0  0
   -3.7310   25.2860  -25.9740 C   0  0  0  0  0  0  0  0  0  0  0  0
   -3.8740   24.5887  -25.1354 H   0  0  0  0  0  0  0  0  0  0  0  0
   -2.7241   25.7252  -25.9180 H   0  0  0  0  0  0  0  0  0  0  0  0
   -4.4837   26.0862  -25.9180 H   0  0  0  0  0  0  0  0  0  0  0  0
   -1.5040   24.5670  -27.8470 C   0  0  0  0  0  0  0  0  0  0  0  0
   -1.3042   25.4083  -27.1670 H   0  0  0  0  0  0  0  0  0  0  0  0
   -0.4540   24.0170  -28.6000 C   0  0  0  0  0  0  0  0  0  0  0  0
    0.8630   24.4950  -28.5150 O   0  0  0  0  0  0  0  0  0  0  0  0
    1.6230   24.5580  -27.3130 C   0  0  0  0  0  0  0  0  0  0  0  0
    0.9460   24.5019  -26.4478 H   0  0  0  0  0  0  0  0  0  0  0  0
    2.3293   23.7153  -27.2812 H   0  0  0  0  0  0  0  0  0  0  0  0
    2.1809   25.5055  -27.2812 H   0  0  0  0  0  0  0  0  0  0  0  0
   -0.7170   22.9590  -29.4710 C   0  0  0  0  0  0  0  0  0  0  0  0
    0.1043   22.5279  -30.0623 H   0  0  0  0  0  0  0  0  0  0  0  0
   -2.0150   22.4350  -29.6050 C   0  0  0  0  0  0  0  0  0  0  0  0
   -2.2990   21.4090  -30.5220 O   0  0  0  0  0  0  0  0  0  0  0  0
   -2.5300   21.6030  -31.9130 C   0  0  0  0  0  0  0  0  0  0  0  0
   -3.3656   22.3048  -32.0515 H   0  0  0  0  0  0  0  0  0  0  0  0
   -1.6238   22.0148  -32.3812 H   0  0  0  0  0  0  0  0  0  0  0  0
   -2.7791   20.6393  -32.3812 H   0  0  0  0  0  0  0  0  0  0  0  0
  1  2  1  0
  2  3  2  0
  3  4  1  0
  3  5  1  0
  5  6  2  0
  5  7  2  0
  5  8  1  0
  8  9  1  0
  8 10  1  0
  8 11  1  0
 11 12  2  0
 12 13  1  0
 12 14  1  0
 14 15  1  0
 14 16  2  0
 16 17  1  0
 17 18  1  0
 17 19  1  0
 16 20  1  0
 20 21  1  0
 20 22  2  0
 22 23  1  0
  2 24  1  0
 24 25  2  0
 25 26  1  0
 26 27  1  0
 27 28  1  0
 27 29  1  0
 27 30  1  0
 25 31  1  0
 31 32  1  0
 31 33  2  0
 33 34  1  0
 34 35  1  0
 35 36  1  0
 35 37  1  0
 35 38  1  0
 33 39  1  0
 39 40  1  0
 39 41  2  0
 41 42  1  0
 42 43  1  0
 43 44  1  0
 43 45  1  0
 43 46  1  0
 22 11  1  0
 41 24  1  0
M  END
>  <UniqueID>  (25) 
20

>  <SMILES>  (25) 
COc1cc(OC)c(/C=C/S(=O)(=O)Cc2ccc(N)cc2)c(OC)c1

>  <Energy>  (25) 
44.52701305055404

>  <Genealogy>  (25) 
COc1cc(OC)c(/C=C/S(=O)(=O)Cc2ccc(N)cc2)c(OC)c1 (cis-trans isomerization)
COc1cc(OC)c(/C=C/S(=O)(=O)Cc2ccc(N)cc2)c(OC)c1 (3D coordinates assigned)
COc1cc(OC)c(/C=C/S(=O)(=O)Cc2ccc(N)cc2)c(OC)c1 (optimized conformer: 44.52701305055404 kcal/mol)

>  <smiles>  (25) 
COc1cc(OC)c(C=CS(=O)(=O)Cc2ccc(N)cc2)c(OC)c1

>  <score_type>  (25) 
oracle

>  <origin>  (25) 
adg

>  <m_score__min__energy>  (25) 
-7.7699999999999996

>  <m_primary>  (25) 
energy

$$$$
25:0
     RDKit          3D

 37 39  0  0  0  0  0  0  0  0999 V2000
   -2.3870   24.9230  -27.0570 C   0  0  0  0  0  0  0  0  0  0  0  0
   -1.3830   24.9490  -28.2050 C   0  0  0  0  0  0  0  0  0  0  0  0
   -1.6290   23.8320  -29.1300 N   0  0  0  0  0  0  0  0  0  0  0  0
   -0.5250   22.9190  -29.4530 C   0  0  0  0  0  0  0  0  0  0  0  0
   -2.9410   23.6600  -29.7250 C   0  0  0  0  0  0  0  0  0  0  0  0
   -3.6620   22.4590  -29.6010 C   0  0  0  0  0  0  0  0  0  0  0  0
   -4.9180   22.3480  -30.1930 C   0  0  0  0  0  0  0  0  0  0  0  0
   -5.4410   23.4340  -30.8920 C   0  0  0  0  0  0  0  0  0  0  0  0
   -7.0180   23.3380  -31.6570 S   0  0  0  0  0  0  0  0  0  0  0  0
   -6.9360   23.8150  -33.0810 O   0  0  0  0  0  0  0  0  0  0  0  0
   -7.9840   24.2030  -30.8960 O   0  0  0  0  0  0  0  0  0  0  0  0
   -7.5730   21.6710  -31.6590 C   0  0  0  0  0  0  0  0  0  0  0  0
   -8.6770   21.1700  -30.9770 C   0  0  0  0  0  0  0  0  0  0  0  0
   -8.7400   19.8090  -31.2570 C   0  0  0  0  0  0  0  0  0  0  0  0
   -7.7210   19.4820  -32.0740 N   0  0  0  0  0  0  0  0  0  0  0  0
   -7.3850   18.2790  -32.6020 C   0  0  0  0  0  0  0  0  0  0  0  0
   -6.2560   18.2190  -33.4330 C   0  0  0  0  0  0  0  0  0  0  0  0
   -5.7590   16.6990  -34.1530 Cl  0  0  0  0  0  0  0  0  0  0  0  0
   -5.5300   19.4010  -33.6770 C   0  0  0  0  0  0  0  0  0  0  0  0
   -5.9200   20.5810  -33.1130 N   0  0  0  0  0  0  0  0  0  0  0  0
   -7.0190   20.5970  -32.3170 C   0  0  0  0  0  0  0  0  0  0  0  0
   -4.7100   24.5740  -30.9900 N   0  0  0  0  0  0  0  0  0  0  0  0
   -3.5070   24.6820  -30.4260 N   0  0  0  0  0  0  0  0  0  0  0  0
   -1.8481   24.9370  -26.0982 H   0  0  0  0  0  0  0  0  0  0  0  0
   -3.0417   25.8045  -27.1225 H   0  0  0  0  0  0  0  0  0  0  0  0
   -2.9952   24.0088  -27.1225 H   0  0  0  0  0  0  0  0  0  0  0  0
   -1.4814   25.8991  -28.7505 H   0  0  0  0  0  0  0  0  0  0  0  0
   -0.3680   24.8521  -27.7922 H   0  0  0  0  0  0  0  0  0  0  0  0
   -0.0736   22.5457  -28.5219 H   0  0  0  0  0  0  0  0  0  0  0  0
   -0.9096   22.0716  -30.0395 H   0  0  0  0  0  0  0  0  0  0  0  0
    0.2351   23.4559  -30.0395 H   0  0  0  0  0  0  0  0  0  0  0  0
   -3.2371   21.6132  -29.0405 H   0  0  0  0  0  0  0  0  0  0  0  0
   -5.4910   21.4127  -30.1095 H   0  0  0  0  0  0  0  0  0  0  0  0
   -9.3677   21.7406  -30.3387 H   0  0  0  0  0  0  0  0  0  0  0  0
   -9.4997   19.1123  -30.8730 H   0  0  0  0  0  0  0  0  0  0  0  0
   -7.9788   17.3786  -32.3857 H   0  0  0  0  0  0  0  0  0  0  0  0
   -4.6427   19.3729  -34.3265 H   0  0  0  0  0  0  0  0  0  0  0  0
  1  2  1  0
  2  3  1  0
  3  4  1  0
  3  5  1  0
  5  6  2  0
  6  7  1  0
  7  8  2  0
  8  9  1  0
  9 10  2  0
  9 11  2  0
  9 12  1  0
 12 13  1  0
 13 14  2  0
 14 15  1  0
 15 16  1  0
 16 17  2  0
 17 18  1  0
 17 19  1  0
 19 20  2  0
 20 21  1  0
  8 22  1  0
 22 23  2  0
 23  5  1  0
 21 12  2  0
 21 15  1  0
  1 24  1  0
  1 25  1  0
  1 26  1  0
  2 27  1  0
  2 28  1  0
  4 29  1  0
  4 30  1  0
  4 31  1  0
  6 32  1  0
  7 33  1  0
 13 34  1  0
 14 35  1  0
 16 36  1  0
 19 37  1  0
M  END
>  <UniqueID>  (26) 
21

>  <SMILES>  (26) 
CCN(C)c1ccc(S(=O)(=O)c2ccn3cc(Cl)cnc23)nn1

>  <Energy>  (26) 
72.84098585261879

>  <Genealogy>  (26) 
CCN(C)c1ccc(S(=O)(=O)c2ccn3cc(Cl)cnc23)nn1 (3D coordinates assigned)
CCN(C)c1ccc(S(=O)(=O)c2ccn3cc(Cl)cnc23)nn1 (optimized conformer: 72.84098585261879 kcal/mol)

>  <smiles>  (26) 
CCN(C)c1ccc(S(=O)(=O)c2ccn3cc(Cl)cnc23)nn1

>  <score_type>  (26) 
oracle

>  <origin>  (26) 
adg

>  <m_score__min__energy>  (26) 
-8.3499999999999996

>  <m_primary>  (26) 
energy

$$$$
26:0
     RDKit          3D

 48 51  0  0  0  0  0  0  0  0999 V2000
   -3.5570   24.9810  -30.4510 O   0  0  0  0  0  0  0  0  0  0  0  0
   -2.6190   24.5580  -29.7210 C   0  0  0  0  0  0  0  0  0  0  0  0
   -1.6430   25.4710  -29.2030 N   0  0  0  0  0  0  0  0  0  0  0  0
   -1.4360   25.8300  -27.8300 C   0  0  0  0  0  0  0  0  0  0  0  0
   -0.4760   26.7810  -27.4380 C   0  0  0  0  0  0  0  0  0  0  0  0
   -0.3120   27.0970  -26.0850 C   0  0  0  0  0  0  0  0  0  0  0  0
   -1.1100   26.4800  -25.1180 C   0  0  0  0  0  0  0  0  0  0  0  0
   -2.0820   25.5540  -25.5040 C   0  0  0  0  0  0  0  0  0  0  0  0
   -2.2510   25.2390  -26.8550 C   0  0  0  0  0  0  0  0  0  0  0  0
   -2.5260   23.1070  -29.4320 C   0  0  0  0  0  0  0  0  0  0  0  0
   -1.2870   22.5800  -29.0240 C   0  0  0  0  0  0  0  0  0  0  0  0
   -1.1590   21.2270  -28.7170 C   0  0  0  0  0  0  0  0  0  0  0  0
   -2.2700   20.3960  -28.8230 C   0  0  0  0  0  0  0  0  0  0  0  0
   -3.4640   20.9070  -29.2170 N   0  0  0  0  0  0  0  0  0  0  0  0
   -3.6300   22.2240  -29.5180 C   0  0  0  0  0  0  0  0  0  0  0  0
   -5.2830   22.7610  -29.9860 S   0  0  0  0  0  0  0  0  0  0  0  0
   -5.4730   21.5510  -31.3420 C   0  0  0  0  0  0  0  0  0  0  0  0
   -6.9300   21.3700  -31.7100 C   0  0  0  0  0  0  0  0  0  0  0  0
   -7.8320   22.3820  -31.3320 C   0  0  0  0  0  0  0  0  0  0  0  0
   -9.2000   22.2460  -31.5680 C   0  0  0  0  0  0  0  0  0  0  0  0
   -9.6880   21.1050  -32.1990 C   0  0  0  0  0  0  0  0  0  0  0  0
   -8.8100   20.1020  -32.6090 C   0  0  0  0  0  0  0  0  0  0  0  0
   -7.4270   20.2190  -32.3810 C   0  0  0  0  0  0  0  0  0  0  0  0
   -6.5420   19.1370  -32.8740 C   0  0  0  0  0  0  0  0  0  0  0  0
   -5.9460   19.2350  -34.1440 C   0  0  0  0  0  0  0  0  0  0  0  0
   -5.1120   18.2180  -34.6140 C   0  0  0  0  0  0  0  0  0  0  0  0
   -4.8810   17.0840  -33.8310 C   0  0  0  0  0  0  0  0  0  0  0  0
   -5.4980   16.9590  -32.5830 C   0  0  0  0  0  0  0  0  0  0  0  0
   -5.2840   15.8490  -31.8340 F   0  0  0  0  0  0  0  0  0  0  0  0
   -6.3370   17.9730  -32.1090 C   0  0  0  0  0  0  0  0  0  0  0  0
   -6.9510   17.8190  -30.9090 F   0  0  0  0  0  0  0  0  0  0  0  0
    0.1469   27.2771  -28.1969 H   0  0  0  0  0  0  0  0  0  0  0  0
    0.4471   27.8331  -25.7817 H   0  0  0  0  0  0  0  0  0  0  0  0
   -0.9729   26.7232  -24.0540 H   0  0  0  0  0  0  0  0  0  0  0  0
   -2.7148   25.0724  -24.7440 H   0  0  0  0  0  0  0  0  0  0  0  0
   -3.0293   24.5220  -27.1553 H   0  0  0  0  0  0  0  0  0  0  0  0
   -0.4118   23.2418  -28.9467 H   0  0  0  0  0  0  0  0  0  0  0  0
   -0.1895   20.8199  -28.3941 H   0  0  0  0  0  0  0  0  0  0  0  0
   -2.1806   19.3252  -28.5875 H   0  0  0  0  0  0  0  0  0  0  0  0
   -4.9216   21.9097  -32.2236 H   0  0  0  0  0  0  0  0  0  0  0  0
   -5.0747   20.5827  -31.0048 H   0  0  0  0  0  0  0  0  0  0  0  0
   -7.4532   23.2922  -30.8440 H   0  0  0  0  0  0  0  0  0  0  0  0
   -9.8935   23.0406  -31.2554 H   0  0  0  0  0  0  0  0  0  0  0  0
  -10.7683   20.9944  -32.3745 H   0  0  0  0  0  0  0  0  0  0  0  0
   -9.2036   19.2090  -33.1166 H   0  0  0  0  0  0  0  0  0  0  0  0
   -6.1379   20.1181  -34.7711 H   0  0  0  0  0  0  0  0  0  0  0  0
   -4.6365   18.3099  -35.6016 H   0  0  0  0  0  0  0  0  0  0  0  0
   -4.2136   16.2897  -34.1967 H   0  0  0  0  0  0  0  0  0  0  0  0
  1  2  2  0
  2  3  1  0
  3  4  1  0
  4  5  2  0
  5  6  1  0
  6  7  2  0
  7  8  1  0
  8  9  2  0
  2 10  1  0
 10 11  2  0
 11 12  1  0
 12 13  2  0
 13 14  1  0
 14 15  2  0
 15 16  1  0
 16 17  1  0
 17 18  1  0
 18 19  2  0
 19 20  1  0
 20 21  2  0
 21 22  1  0
 22 23  2  0
 23 24  1  0
 24 25  2  0
 25 26  1  0
 26 27  2  0
 27 28  1  0
 28 29  1  0
 28 30  2  0
 30 31  1  0
  9  4  1  0
 15 10  1  0
 23 18  1  0
 30 24  1  0
  5 32  1  0
  6 33  1  0
  7 34  1  0
  8 35  1  0
  9 36  1  0
 11 37  1  0
 12 38  1  0
 13 39  1  0
 17 40  1  0
 17 41  1  0
 19 42  1  0
 20 43  1  0
 21 44  1  0
 22 45  1  0
 25 46  1  0
 26 47  1  0
 27 48  1  0
M  CHG  1   3  -1
M  END
>  <UniqueID>  (27) 
22

>  <SMILES>  (27) 
O=C([N-]c1ccccc1)c1cccnc1SCc1ccccc1-c1cccc(F)c1F

>  <Energy>  (27) 
61.44827088155225

>  <Genealogy>  (27) 
O=C([N-]c1ccccc1)c1cccnc1SCc1ccccc1-c1cccc(F)c1F (protonated)
O=C([N-]c1ccccc1)c1cccnc1SCc1ccccc1-c1cccc(F)c1F (3D coordinates assigned)
O=C([N-]c1ccccc1)c1cccnc1SCc1ccccc1-c1cccc(F)c1F (optimized conformer: 61.44827088155225 kcal/mol)

>  <smiles>  (27) 
O=C(Nc1ccccc1)c1cccnc1SCc1ccccc1-c1cccc(F)c1F

>  <score_type>  (27) 
oracle

>  <origin>  (27) 
adg

>  <m_score__min__energy>  (27) 
-11.789999999999999

>  <m_primary>  (27) 
energy

$$$$
27:0
     RDKit          3D

 26 26  0  0  0  0  0  0  0  0999 V2000
   -4.2470   24.1720  -28.0840 C   0  0  0  0  0  0  0  0  0  0  0  0
   -4.9130   23.5040  -29.2070 N   0  0  0  0  0  0  0  0  0  0  0  0
   -4.0930   22.3830  -29.6840 C   0  0  0  0  0  0  0  0  0  0  0  0
   -5.1570   24.6380  -30.5110 S   0  0  0  0  0  0  0  0  0  0  0  0
   -3.8660   25.3380  -30.8330 O   0  0  0  0  0  0  0  0  0  0  0  0
   -6.1490   25.6810  -30.0780 O   0  0  0  0  0  0  0  0  0  0  0  0
   -5.7870   23.8350  -31.9210 N   0  0  0  0  0  0  0  0  0  0  0  0
   -6.5770   22.6330  -31.8960 C   0  0  0  0  0  0  0  0  0  0  0  0
   -6.0230   21.4450  -32.4000 C   0  0  0  0  0  0  0  0  0  0  0  0
   -6.7650   20.2600  -32.4060 C   0  0  0  0  0  0  0  0  0  0  0  0
   -8.0760   20.2510  -31.9190 C   0  0  0  0  0  0  0  0  0  0  0  0
   -8.8420   19.0320  -31.9270 C   0  0  0  0  0  0  0  0  0  0  0  0
   -9.4580   18.0520  -31.9340 N   0  0  0  0  0  0  0  0  0  0  0  0
   -8.6440   21.4330  -31.4310 C   0  0  0  0  0  0  0  0  0  0  0  0
   -7.9020   22.6190  -31.4240 C   0  0  0  0  0  0  0  0  0  0  0  0
   -4.6412   23.7766  -27.1362 H   0  0  0  0  0  0  0  0  0  0  0  0
   -3.1641   23.9861  -28.1368 H   0  0  0  0  0  0  0  0  0  0  0  0
   -4.4362   25.2543  -28.1368 H   0  0  0  0  0  0  0  0  0  0  0  0
   -3.6894   21.8312  -28.8222 H   0  0  0  0  0  0  0  0  0  0  0  0
   -4.7126   21.7088  -30.2935 H   0  0  0  0  0  0  0  0  0  0  0  0
   -3.2628   22.7693  -30.2935 H   0  0  0  0  0  0  0  0  0  0  0  0
   -5.4140   24.1640  -32.8400 H   0  0  0  0  0  0  0  0  0  0  0  0
   -4.9959   21.4468  -32.7937 H   0  0  0  0  0  0  0  0  0  0  0  0
   -6.3170   19.3334  -32.7943 H   0  0  0  0  0  0  0  0  0  0  0  0
   -9.6766   21.4297  -31.0519 H   0  0  0  0  0  0  0  0  0  0  0  0
   -8.3577   23.5465  -31.0470 H   0  0  0  0  0  0  0  0  0  0  0  0
  1  2  1  0
  2  3  1  0
  2  4  1  0
  4  5  2  0
  4  6  2  0
  4  7  1  0
  7  8  1  0
  8  9  2  0
  9 10  1  0
 10 11  2  0
 11 12  1  0
 12 13  3  0
 11 14  1  0
 14 15  2  0
 15  8  1  0
  1 16  1  0
  1 17  1  0
  1 18  1  0
  3 19  1  0
  3 20  1  0
  3 21  1  0
  7 22  1  0
  9 23  1  0
 10 24  1  0
 14 25  1  0
 15 26  1  0
M  END
>  <UniqueID>  (28) 
23

>  <SMILES>  (28) 
CN(C)S(=O)(=O)Nc1ccc(C#N)cc1

>  <Energy>  (28) 
23.819139497762524

>  <Genealogy>  (28) 
CN(C)S(=O)(=O)Nc1ccc(C#N)cc1 (3D coordinates assigned)
CN(C)S(=O)(=O)Nc1ccc(C#N)cc1 (optimized conformer: 23.819139497762524 kcal/mol)

>  <smiles>  (28) 
CN(C)S(=O)(=O)Nc1ccc(C#N)cc1

>  <score_type>  (28) 
oracle

>  <origin>  (28) 
adg

>  <m_score__min__energy>  (28) 
-6.5300000000000002

>  <m_primary>  (28) 
energy

$$$$
28:0
     RDKit          3D

 43 46  0  0  0  0  0  0  0  0999 V2000
   -8.9150   18.5600  -33.5330 H   0  0  0  0  0  0  0  0  0  0  0  0
   -9.2940   19.3900  -33.0890 O   0  0  0  0  0  0  0  0  0  0  0  0
   -8.5030   20.2610  -32.3690 N   0  0  0  0  0  0  0  0  0  0  0  0
   -7.2420   20.4410  -32.7160 C   0  0  0  0  0  0  0  0  0  0  0  0
   -6.2920   19.4710  -33.0850 C   0  0  0  0  0  0  0  0  0  0  0  0
   -5.1280   20.1860  -33.2750 C   0  0  0  0  0  0  0  0  0  0  0  0
   -5.3260   21.4920  -33.0570 N   0  0  0  0  0  0  0  0  0  0  0  0
   -6.6030   21.6550  -32.7290 N   0  0  0  0  0  0  0  0  0  0  0  0
   -7.1050   22.9770  -32.3360 C   0  0  0  0  0  0  0  0  0  0  0  0
   -6.9731   23.6748  -33.1761 H   0  0  0  0  0  0  0  0  0  0  0  0
   -8.1689   22.8808  -32.0737 H   0  0  0  0  0  0  0  0  0  0  0  0
   -6.3640   23.5090  -31.1340 C   0  0  0  0  0  0  0  0  0  0  0  0
   -5.5320   22.6640  -30.3780 C   0  0  0  0  0  0  0  0  0  0  0  0
   -5.4373   21.6024  -30.6501 H   0  0  0  0  0  0  0  0  0  0  0  0
   -4.8240   23.1680  -29.2810 C   0  0  0  0  0  0  0  0  0  0  0  0
   -4.1825   22.5001  -28.6874 H   0  0  0  0  0  0  0  0  0  0  0  0
   -4.9310   24.5180  -28.9390 C   0  0  0  0  0  0  0  0  0  0  0  0
   -4.3798   24.9104  -28.0717 H   0  0  0  0  0  0  0  0  0  0  0  0
   -5.7370   25.3700  -29.6970 C   0  0  0  0  0  0  0  0  0  0  0  0
   -5.8154   26.4342  -29.4300 H   0  0  0  0  0  0  0  0  0  0  0  0
   -6.4450   24.8710  -30.7960 C   0  0  0  0  0  0  0  0  0  0  0  0
   -7.0682   25.5481  -31.3986 H   0  0  0  0  0  0  0  0  0  0  0  0
   -3.9280   19.5790  -33.6750 C   0  0  0  0  0  0  0  0  0  0  0  0
   -2.7690   20.3390  -33.8460 O   0  0  0  0  0  0  0  0  0  0  0  0
   -2.2350   21.1650  -32.8180 C   0  0  0  0  0  0  0  0  0  0  0  0
   -2.5042   20.7486  -31.8361 H   0  0  0  0  0  0  0  0  0  0  0  0
   -1.1397   21.2049  -32.9115 H   0  0  0  0  0  0  0  0  0  0  0  0
   -2.6482   22.1801  -32.9115 H   0  0  0  0  0  0  0  0  0  0  0  0
   -3.9360   18.2290  -33.9030 N   0  0  0  0  0  0  0  0  0  0  0  0
   -5.0740   17.5510  -33.7330 N   0  0  0  0  0  0  0  0  0  0  0  0
   -5.3490   16.2620  -33.9710 C   0  0  0  0  0  0  0  0  0  0  0  0
   -4.3780   15.2550  -34.4940 C   0  0  0  0  0  0  0  0  0  0  0  0
   -3.8875   14.7463  -33.6510 H   0  0  0  0  0  0  0  0  0  0  0  0
   -4.9122   14.5151  -35.1081 H   0  0  0  0  0  0  0  0  0  0  0  0
   -3.6191   15.7619  -35.1081 H   0  0  0  0  0  0  0  0  0  0  0  0
   -6.6640   16.0400  -33.7620 N   0  0  0  0  0  0  0  0  0  0  0  0
   -7.1750   15.1380  -33.8910 H   0  0  0  0  0  0  0  0  0  0  0  0
   -7.2330   17.1810  -33.3830 N   0  0  0  0  0  0  0  0  0  0  0  0
   -6.2440   18.0960  -33.3590 C   0  0  0  0  0  0  0  0  0  0  0  0
   -9.1290   20.9300  -31.2280 C   0  0  0  0  0  0  0  0  0  0  0  0
   -8.7333   20.5072  -30.2928 H   0  0  0  0  0  0  0  0  0  0  0  0
   -8.9063   22.0065  -31.2668 H   0  0  0  0  0  0  0  0  0  0  0  0
  -10.2179   20.7792  -31.2668 H   0  0  0  0  0  0  0  0  0  0  0  0
  1  2  1  0
  2  3  1  0
  3  4  2  0
  4  5  1  0
  5  6  2  0
  6  7  1  0
  7  8  1  0
  8  9  1  0
  9 10  1  0
  9 11  1  0
  9 12  1  0
 12 13  2  0
 13 14  1  0
 13 15  1  0
 15 16  1  0
 15 17  2  0
 17 18  1  0
 17 19  1  0
 19 20  1  0
 19 21  2  0
 21 22  1  0
  6 23  1  0
 23 24  1  0
 24 25  1  0
 25 26  1  0
 25 27  1  0
 25 28  1  0
 23 29  2  0
 29 30  1  0
 30 31  1  0
 31 32  1  0
 32 33  1  0
 32 34  1  0
 32 35  1  0
 31 36  2  0
 36 37  1  0
 36 38  1  0
 38 39  2  0
  3 40  1  0
 40 41  1  0
 40 42  1  0
 40 43  1  0
  8  4  1  0
 21 12  1  0
 39 30  1  0
 39  5  1  0
M  CHG  3   3   1   7  -1  36   1
M  END
>  <UniqueID>  (29) 
24

>  <SMILES>  (29) 
COc1nn2c(C)[nH+]nc2c2/c(=[N+](\C)O)n(Cc3ccccc3)[n-]c12

>  <Energy>  (29) 
141.30668109601086

>  <Genealogy>  (29) 
COc1nn2c(C)[nH+]nc2c2c(=[N+](C)O)n(Cc3ccccc3)[n-]c12 (protonated)
COc1nn2c(C)[nH+]nc2c2/c(=[N+](\C)O)n(Cc3ccccc3)[n-]c12 (cis-trans isomerization)
COc1nn2c(C)[nH+]nc2c2/c(=[N+](\C)O)n(Cc3ccccc3)[n-]c12 (3D coordinates assigned)
COc1nn2c(C)[nH+]nc2c2/c(=[N+](\C)O)n(Cc3ccccc3)[n-]c12 (optimized conformer: 141.30668109601086 kcal/mol)

>  <smiles>  (29) 
COc1nn2c(C)nnc2c2c(=[N+](C)[O-])n(Cc3ccccc3)[nH]c12

>  <score_type>  (29) 
oracle

>  <origin>  (29) 
adg

>  <m_score__min__energy>  (29) 
-7.1699999999999999

>  <m_primary>  (29) 
energy

$$$$
29:0
     RDKit          3D

 40 43  0  0  0  0  0  0  0  0999 V2000
   -8.6690   18.4470  -31.9530 C   0  0  0  0  0  0  0  0  0  0  0  0
   -9.4470   19.5940  -32.1120 C   0  0  0  0  0  0  0  0  0  0  0  0
   -8.8560   20.8590  -32.0330 C   0  0  0  0  0  0  0  0  0  0  0  0
   -7.4760   20.9900  -31.7910 C   0  0  0  0  0  0  0  0  0  0  0  0
   -6.8660   22.3410  -31.7110 C   0  0  0  0  0  0  0  0  0  0  0  0
   -6.3980   22.8810  -30.5640 N   0  0  0  0  0  0  0  0  0  0  0  0
   -5.9650   24.0890  -30.9820 C   0  0  0  0  0  0  0  0  0  0  0  0
   -5.3280   25.1120  -30.0860 C   0  0  0  0  0  0  0  0  0  0  0  0
   -3.8620   25.1570  -30.2290 N   0  0  0  0  0  0  0  0  0  0  0  0
   -3.0310   24.3620  -29.2950 C   0  0  1  0  0  0  0  0  0  0  0  0
   -3.7350   23.9710  -27.9800 C   0  0  0  0  0  0  0  0  0  0  0  0
   -3.3910   22.4720  -27.8510 C   0  0  2  0  0  0  0  0  0  0  0  0
   -1.8750   22.3170  -27.6070 C   0  0  0  0  0  0  0  0  0  0  0  0
   -1.2690   22.6230  -28.9910 C   0  0  0  0  0  0  0  0  0  0  0  0
   -2.5100   22.9980  -29.8270 C   0  0  1  0  0  0  0  0  0  0  0  0
   -3.5120   22.0000  -29.2770 C   0  0  0  0  0  0  0  0  0  0  0  0
   -6.1490   24.2510  -32.2690 O   0  0  0  0  0  0  0  0  0  0  0  0
   -6.7090   23.1870  -32.7510 N   0  0  0  0  0  0  0  0  0  0  0  0
   -6.7020   19.8230  -31.6310 C   0  0  0  0  0  0  0  0  0  0  0  0
   -7.2990   18.5610  -31.7110 C   0  0  0  0  0  0  0  0  0  0  0  0
   -9.1351   17.4528  -32.0183 H   0  0  0  0  0  0  0  0  0  0  0  0
  -10.5270   19.5033  -32.2998 H   0  0  0  0  0  0  0  0  0  0  0  0
   -9.4751   21.7592  -32.1611 H   0  0  0  0  0  0  0  0  0  0  0  0
   -5.7368   26.1022  -30.3357 H   0  0  0  0  0  0  0  0  0  0  0  0
   -5.5526   24.8303  -29.0467 H   0  0  0  0  0  0  0  0  0  0  0  0
   -3.5920   24.9200  -31.2140 H   0  0  0  0  0  0  0  0  0  0  0  0
   -2.2090   25.0785  -29.1504 H   0  0  0  0  0  0  0  0  0  0  0  0
   -3.3372   24.5449  -27.1301 H   0  0  0  0  0  0  0  0  0  0  0  0
   -4.8160   24.1745  -27.9836 H   0  0  0  0  0  0  0  0  0  0  0  0
   -3.9945   21.9765  -27.0763 H   0  0  0  0  0  0  0  0  0  0  0  0
   -1.5204   23.0347  -26.8525 H   0  0  0  0  0  0  0  0  0  0  0  0
   -1.5968   21.3251  -27.2212 H   0  0  0  0  0  0  0  0  0  0  0  0
   -0.5587   23.4612  -28.9368 H   0  0  0  0  0  0  0  0  0  0  0  0
   -0.6952   21.7844  -29.4122 H   0  0  0  0  0  0  0  0  0  0  0  0
   -2.3434   23.0181  -30.9141 H   0  0  0  0  0  0  0  0  0  0  0  0
   -4.5228   22.1339  -29.6898 H   0  0  0  0  0  0  0  0  0  0  0  0
   -3.3379   20.9331  -29.4807 H   0  0  0  0  0  0  0  0  0  0  0  0
   -6.9710   23.0550  -33.7510 H   0  0  0  0  0  0  0  0  0  0  0  0
   -5.6215   19.9055  -31.4420 H   0  0  0  0  0  0  0  0  0  0  0  0
   -6.6874   17.6557  -31.5829 H   0  0  0  0  0  0  0  0  0  0  0  0
  1  2  2  0
  2  3  1  0
  3  4  2  0
  4  5  1  0
  5  6  1  0
  6  7  2  0
  7  8  1  0
  8  9  1  0
  9 10  1  0
 10 11  1  0
 11 12  1  0
 12 13  1  0
 13 14  1  0
 14 15  1  0
 15 16  1  0
  7 17  1  0
 17 18  1  0
  4 19  1  0
 19 20  2  0
 20  1  1  0
 18  5  2  0
 15 10  1  0
 16 12  1  0
  1 21  1  0
  2 22  1  0
  3 23  1  0
  8 24  1  0
  8 25  1  0
  9 26  1  0
 10 27  1  1
 11 28  1  0
 11 29  1  0
 12 30  1  1
 13 31  1  0
 13 32  1  0
 14 33  1  0
 14 34  1  0
 15 35  1  6
 16 36  1  0
 16 37  1  0
 18 38  1  0
 19 39  1  0
 20 40  1  0
M  CHG  1  18   1
M  END
>  <UniqueID>  (30) 
25

>  <SMILES>  (30) 
c1ccc(-c2nc(CN[C@H]3C[C@@H]4CCC3C4)o[nH+]2)cc1

>  <Energy>  (30) 
111.34205551182383

>  <Genealogy>  (30) 
c1ccc(-c2nc(CNC3CC4CCC3C4)o[nH+]2)cc1 (protonated)
c1ccc(-c2nc(CN[C@H]3C[C@@H]4CCC3C4)o[nH+]2)cc1 (chirality)
c1ccc(-c2nc(CN[C@H]3C[C@@H]4CCC3C4)o[nH+]2)cc1 (3D coordinates assigned)
c1ccc(-c2nc(CN[C@H]3C[C@@H]4CCC3C4)o[nH+]2)cc1 (nonaromatic ring conformer: 111.34205551182383 kcal/mol)

>  <smiles>  (30) 
c1ccc(-c2noc(CNC3CC4CCC3C4)n2)cc1

>  <score_type>  (30) 
oracle

>  <origin>  (30) 
adg

>  <m_score__min__energy>  (30) 
-8.5

>  <m_primary>  (30) 
energy

$$$$
30:0
     RDKit          3D

 32 32  0  0  0  0  0  0  0  0999 V2000
   -6.4927   24.9952  -32.0532 H   0  0  0  0  0  0  0  0  0  0  0  0
   -6.1690   24.3350  -31.2350 C   0  0  0  0  0  0  0  0  0  0  0  0
   -5.0690   24.8180  -30.3730 C   0  0  0  0  0  0  0  0  0  0  0  0
   -4.2440   25.6360  -30.8600 O   0  0  0  0  0  0  0  0  0  0  0  0
   -4.8790   24.3360  -28.9550 C   0  0  0  0  0  0  0  0  0  0  0  0
   -5.8060   23.8489  -28.6183 H   0  0  0  0  0  0  0  0  0  0  0  0
   -4.6376   25.2080  -28.3294 H   0  0  0  0  0  0  0  0  0  0  0  0
   -3.7210   23.3330  -28.8380 C   0  0  0  0  0  0  0  0  0  0  0  0
   -4.0895   22.3307  -29.1017 H   0  0  0  0  0  0  0  0  0  0  0  0
   -3.3500   23.3568  -27.8027 H   0  0  0  0  0  0  0  0  0  0  0  0
   -2.6000   23.6840  -29.7380 N   0  0  0  0  0  0  0  0  0  0  0  0
   -1.4510   24.1600  -28.9490 C   0  0  0  0  0  0  0  0  0  0  0  0
   -1.6782   24.0659  -27.8768 H   0  0  0  0  0  0  0  0  0  0  0  0
   -0.5646   23.5551  -29.1904 H   0  0  0  0  0  0  0  0  0  0  0  0
   -1.2521   25.2146  -29.1904 H   0  0  0  0  0  0  0  0  0  0  0  0
   -2.1880   22.5280  -30.5530 C   0  0  0  0  0  0  0  0  0  0  0  0
   -1.8928   21.6998  -29.8919 H   0  0  0  0  0  0  0  0  0  0  0  0
   -3.0278   22.2090  -31.1878 H   0  0  0  0  0  0  0  0  0  0  0  0
   -1.3357   22.8120  -31.1878 H   0  0  0  0  0  0  0  0  0  0  0  0
   -6.8070   23.1610  -31.1060 C   0  0  0  0  0  0  0  0  0  0  0  0
   -7.5638   23.0771  -30.3121 H   0  0  0  0  0  0  0  0  0  0  0  0
   -6.5680   21.9740  -31.9510 C   0  0  0  0  0  0  0  0  0  0  0  0
   -5.2640   21.7090  -32.3890 C   0  0  0  0  0  0  0  0  0  0  0  0
   -4.4419   22.3821  -32.1042 H   0  0  0  0  0  0  0  0  0  0  0  0
   -5.0060   20.5940  -33.1850 C   0  0  0  0  0  0  0  0  0  0  0  0
   -3.9806   20.3749  -33.5175 H   0  0  0  0  0  0  0  0  0  0  0  0
   -6.0590   19.7590  -33.5560 C   0  0  0  0  0  0  0  0  0  0  0  0
   -5.7460   18.3520  -34.5570 Cl  0  0  0  0  0  0  0  0  0  0  0  0
   -7.3290   20.0410  -33.1540 N   0  0  0  0  0  0  0  0  0  0  0  0
   -8.1080   19.4160  -33.4590 H   0  0  0  0  0  0  0  0  0  0  0  0
   -7.6100   21.1240  -32.3760 C   0  0  0  0  0  0  0  0  0  0  0  0
   -9.2930   21.4580  -31.9690 Cl  0  0  0  0  0  0  0  0  0  0  0  0
  1  2  1  0
  2  3  1  0
  3  4  2  0
  3  5  1  0
  5  6  1  0
  5  7  1  0
  5  8  1  0
  8  9  1  0
  8 10  1  0
  8 11  1  0
 11 12  1  0
 12 13  1  0
 12 14  1  0
 12 15  1  0
 11 16  1  0
 16 17  1  0
 16 18  1  0
 16 19  1  0
  2 20  2  0
 20 21  1  0
 20 22  1  0
 22 23  2  0
 23 24  1  0
 23 25  1  0
 25 26  1  0
 25 27  2  0
 27 28  1  0
 27 29  1  0
 29 30  1  0
 29 31  2  0
 31 32  1  0
 31 22  1  0
M  CHG  1  29   1
M  END
>  <UniqueID>  (31) 
26

>  <SMILES>  (31) 
CN(C)CCC(=O)/C=C\c1ccc(Cl)[nH+]c1Cl

>  <Energy>  (31) 
39.1972947898378

>  <Genealogy>  (31) 
CN(C)CCC(=O)C=Cc1ccc(Cl)[nH+]c1Cl (protonated)
CN(C)CCC(=O)/C=C\c1ccc(Cl)[nH+]c1Cl (cis-trans isomerization)
CN(C)CCC(=O)/C=C\c1ccc(Cl)[nH+]c1Cl (3D coordinates assigned)
CN(C)CCC(=O)/C=C\c1ccc(Cl)[nH+]c1Cl (optimized conformer: 39.1972947898378 kcal/mol)

>  <smiles>  (31) 
CN(C)CCC(=O)C=Cc1ccc(Cl)nc1Cl

>  <score_type>  (31) 
oracle

>  <origin>  (31) 
adg

>  <m_score__min__energy>  (31) 
-7.4100000000000001

>  <m_primary>  (31) 
energy

$$$$
31:0
     RDKit          3D

 39 41  0  0  0  0  0  0  0  0999 V2000
   -8.1740   21.6050  -32.0170 O   0  0  0  0  0  0  0  0  0  0  0  0
   -6.9720   21.9340  -32.2120 C   0  0  0  0  0  0  0  0  0  0  0  0
   -6.1830   21.2180  -33.1770 N   0  0  0  0  0  0  0  0  0  0  0  0
   -6.6710   20.0200  -33.8560 C   0  0  0  0  0  0  0  0  0  0  0  0
   -6.3280   18.7860  -33.0560 C   0  0  0  0  0  0  0  0  0  0  0  0
   -6.7230   18.7290  -31.7080 C   0  0  0  0  0  0  0  0  0  0  0  0
   -6.4190   17.6160  -30.9220 C   0  0  0  0  0  0  0  0  0  0  0  0
   -5.7170   16.5420  -31.4730 C   0  0  0  0  0  0  0  0  0  0  0  0
   -5.3190   16.5820  -32.8120 C   0  0  0  0  0  0  0  0  0  0  0  0
   -5.6170   17.6930  -33.6090 C   0  0  0  0  0  0  0  0  0  0  0  0
   -5.0860   17.6660  -35.2890 Cl  0  0  0  0  0  0  0  0  0  0  0  0
   -6.4060   23.0810  -31.4700 C   0  0  0  0  0  0  0  0  0  0  0  0
   -7.2420   23.8580  -30.6520 C   0  0  0  0  0  0  0  0  0  0  0  0
   -6.7290   24.9570  -29.9630 C   0  0  0  0  0  0  0  0  0  0  0  0
   -5.3750   25.2670  -30.0860 C   0  0  0  0  0  0  0  0  0  0  0  0
   -4.5690   24.4960  -30.8600 N   0  0  0  0  0  0  0  0  0  0  0  0
   -5.0390   23.4170  -31.5480 C   0  0  0  0  0  0  0  0  0  0  0  0
   -4.1580   22.6200  -32.2900 O   0  0  0  0  0  0  0  0  0  0  0  0
   -3.0450   21.9750  -31.7400 C   0  0  0  0  0  0  0  0  0  0  0  0
   -2.5450   22.4280  -30.5130 C   0  0  0  0  0  0  0  0  0  0  0  0
   -1.4310   21.8140  -29.9340 C   0  0  0  0  0  0  0  0  0  0  0  0
   -0.8180   20.7330  -30.5710 C   0  0  0  0  0  0  0  0  0  0  0  0
   -1.3250   20.2560  -31.7830 C   0  0  0  0  0  0  0  0  0  0  0  0
   -2.4400   20.8660  -32.3700 C   0  0  0  0  0  0  0  0  0  0  0  0
   -3.1060   20.1700  -33.8430 Cl  0  0  0  0  0  0  0  0  0  0  0  0
   -5.2500   21.5920  -33.4570 H   0  0  0  0  0  0  0  0  0  0  0  0
   -7.7631   20.0868  -33.9692 H   0  0  0  0  0  0  0  0  0  0  0  0
   -6.1927   19.9495  -34.8440 H   0  0  0  0  0  0  0  0  0  0  0  0
   -7.2777   19.5707  -31.2677 H   0  0  0  0  0  0  0  0  0  0  0  0
   -6.7326   17.5851  -29.8681 H   0  0  0  0  0  0  0  0  0  0  0  0
   -5.4775   15.6651  -30.8535 H   0  0  0  0  0  0  0  0  0  0  0  0
   -4.7672   15.7336  -33.2429 H   0  0  0  0  0  0  0  0  0  0  0  0
   -8.3065   23.5988  -30.5541 H   0  0  0  0  0  0  0  0  0  0  0  0
   -7.3851   25.5722  -29.3298 H   0  0  0  0  0  0  0  0  0  0  0  0
   -4.9598   26.1367  -29.5556 H   0  0  0  0  0  0  0  0  0  0  0  0
   -3.0317   23.2718  -30.0020 H   0  0  0  0  0  0  0  0  0  0  0  0
   -1.0367   22.1826  -28.9756 H   0  0  0  0  0  0  0  0  0  0  0  0
    0.0643   20.2567  -30.1187 H   0  0  0  0  0  0  0  0  0  0  0  0
   -0.8461   19.3980  -32.2775 H   0  0  0  0  0  0  0  0  0  0  0  0
  1  2  2  0
  2  3  1  0
  3  4  1  0
  4  5  1  0
  5  6  2  0
  6  7  1  0
  7  8  2  0
  8  9  1  0
  9 10  2  0
 10 11  1  0
  2 12  1  0
 12 13  2  0
 13 14  1  0
 14 15  2  0
 15 16  1  0
 16 17  2  0
 17 18  1  0
 18 19  1  0
 19 20  2  0
 20 21  1  0
 21 22  2  0
 22 23  1  0
 23 24  2  0
 24 25  1  0
 10  5  1  0
 17 12  1  0
 24 19  1  0
  3 26  1  0
  4 27  1  0
  4 28  1  0
  6 29  1  0
  7 30  1  0
  8 31  1  0
  9 32  1  0
 13 33  1  0
 14 34  1  0
 15 35  1  0
 20 36  1  0
 21 37  1  0
 22 38  1  0
 23 39  1  0
M  END
>  <UniqueID>  (32) 
27

>  <SMILES>  (32) 
O=C(NCc1ccccc1Cl)c1cccnc1Oc1ccccc1Cl

>  <Energy>  (32) 
53.17355893883655

>  <Genealogy>  (32) 
O=C(NCc1ccccc1Cl)c1cccnc1Oc1ccccc1Cl (3D coordinates assigned)
O=C(NCc1ccccc1Cl)c1cccnc1Oc1ccccc1Cl (optimized conformer: 53.17355893883655 kcal/mol)

>  <smiles>  (32) 
O=C(NCc1ccccc1Cl)c1cccnc1Oc1ccccc1Cl

>  <score_type>  (32) 
oracle

>  <origin>  (32) 
adg

>  <m_score__min__energy>  (32) 
-8.1300000000000008

>  <m_primary>  (32) 
energy

$$$$
32:0
     RDKit          3D

 32 33  0  0  0  0  0  0  0  0999 V2000
   -5.9510   24.7290  -30.2990 C   0  0  0  0  0  0  0  0  0  0  0  0
   -5.0160   24.3110  -31.2880 O   0  0  0  0  0  0  0  0  0  0  0  0
   -3.9870   23.3790  -31.0690 C   0  0  0  0  0  0  0  0  0  0  0  0
   -3.1100   23.4860  -29.9710 C   0  0  0  0  0  0  0  0  0  0  0  0
   -2.1020   22.5390  -29.7750 C   0  0  0  0  0  0  0  0  0  0  0  0
   -1.2650   22.6500  -28.7140 F   0  0  0  0  0  0  0  0  0  0  0  0
   -1.9570   21.4770  -30.6670 C   0  0  0  0  0  0  0  0  0  0  0  0
   -2.8160   21.3590  -31.7600 C   0  0  0  0  0  0  0  0  0  0  0  0
   -3.8350   22.3060  -31.9750 C   0  0  0  0  0  0  0  0  0  0  0  0
   -4.7420   22.1440  -33.0910 N   0  0  0  0  0  0  0  0  0  0  0  0
   -5.3460   20.8020  -33.1060 C   0  0  0  0  0  0  0  0  0  0  0  0
   -6.7770   20.8250  -32.6250 C   0  0  0  0  0  0  0  0  0  0  0  0
   -7.3480   22.0220  -32.1620 C   0  0  0  0  0  0  0  0  0  0  0  0
   -8.6860   22.0530  -31.7570 C   0  0  0  0  0  0  0  0  0  0  0  0
   -9.4640   20.8930  -31.8170 C   0  0  0  0  0  0  0  0  0  0  0  0
   -8.9050   19.7000  -32.2840 C   0  0  0  0  0  0  0  0  0  0  0  0
   -9.6630   18.5780  -32.3490 F   0  0  0  0  0  0  0  0  0  0  0  0
   -7.5670   19.6640  -32.6880 C   0  0  0  0  0  0  0  0  0  0  0  0
   -5.5341   24.5426  -29.2983 H   0  0  0  0  0  0  0  0  0  0  0  0
   -6.1541   25.8036  -30.4173 H   0  0  0  0  0  0  0  0  0  0  0  0
   -6.8872   24.1637  -30.4173 H   0  0  0  0  0  0  0  0  0  0  0  0
   -3.2200   24.3210  -29.2634 H   0  0  0  0  0  0  0  0  0  0  0  0
   -1.1641   20.7312  -30.5086 H   0  0  0  0  0  0  0  0  0  0  0  0
   -2.6959   20.5188  -32.4597 H   0  0  0  0  0  0  0  0  0  0  0  0
   -5.5040   22.8580  -33.0230 H   0  0  0  0  0  0  0  0  0  0  0  0
   -4.2460   22.3200  -33.9960 H   0  0  0  0  0  0  0  0  0  0  0  0
   -5.3224   20.4126  -34.1345 H   0  0  0  0  0  0  0  0  0  0  0  0
   -4.7674   20.1594  -32.4261 H   0  0  0  0  0  0  0  0  0  0  0  0
   -6.7406   22.9380  -32.1179 H   0  0  0  0  0  0  0  0  0  0  0  0
   -9.1272   22.9917  -31.3906 H   0  0  0  0  0  0  0  0  0  0  0  0
  -10.5160   20.9191  -31.4967 H   0  0  0  0  0  0  0  0  0  0  0  0
   -7.1309   18.7238  -33.0565 H   0  0  0  0  0  0  0  0  0  0  0  0
  1  2  1  0
  2  3  1  0
  3  4  2  0
  4  5  1  0
  5  6  1  0
  5  7  2  0
  7  8  1  0
  8  9  2  0
  9 10  1  0
 10 11  1  0
 11 12  1  0
 12 13  2  0
 13 14  1  0
 14 15  2  0
 15 16  1  0
 16 17  1  0
 16 18  2  0
  9  3  1  0
 18 12  1  0
  1 19  1  0
  1 20  1  0
  1 21  1  0
  4 22  1  0
  7 23  1  0
  8 24  1  0
 10 25  1  0
 10 26  1  0
 11 27  1  0
 11 28  1  0
 13 29  1  0
 14 30  1  0
 15 31  1  0
 18 32  1  0
M  CHG  1  10   1
M  END
>  <UniqueID>  (33) 
28

>  <SMILES>  (33) 
COc1cc(F)ccc1[NH2+]Cc1cccc(F)c1

>  <Energy>  (33) 
32.32856515706783

>  <Genealogy>  (33) 
COc1cc(F)ccc1[NH2+]Cc1cccc(F)c1 (protonated)
COc1cc(F)ccc1[NH2+]Cc1cccc(F)c1 (3D coordinates assigned)
COc1cc(F)ccc1[NH2+]Cc1cccc(F)c1 (optimized conformer: 32.32856515706783 kcal/mol)

>  <smiles>  (33) 
COc1cc(F)ccc1NCc1cccc(F)c1

>  <score_type>  (33) 
oracle

>  <origin>  (33) 
adg

>  <m_score__min__energy>  (33) 
-5.7400000000000002

>  <m_primary>  (33) 
energy

$$$$
33:0
     RDKit          3D

 40 43  0  0  0  0  0  0  0  0999 V2000
   -0.0580   26.0320  -23.7180 C   0  0  0  0  0  0  0  0  0  0  0  0
    0.7200   24.5770  -24.4850 S   0  0  0  0  0  0  0  0  0  0  0  0
   -0.6070   24.3410  -25.6690 C   0  0  0  0  0  0  0  0  0  0  0  0
   -1.3960   25.4260  -26.0630 C   0  0  0  0  0  0  0  0  0  0  0  0
   -2.4320   25.2420  -26.9840 C   0  0  0  0  0  0  0  0  0  0  0  0
   -2.6960   23.9680  -27.5190 C   0  0  0  0  0  0  0  0  0  0  0  0
   -3.7990   23.8000  -28.4940 C   0  0  0  0  0  0  0  0  0  0  0  0
   -4.8640   24.6390  -28.6160 N   0  0  0  0  0  0  0  0  0  0  0  0
   -5.5810   24.0910  -29.6070 C   0  0  0  0  0  0  0  0  0  0  0  0
   -6.7760   24.5360  -30.1630 C   0  0  0  0  0  0  0  0  0  0  0  0
   -7.3300   23.7740  -31.2100 C   0  0  0  0  0  0  0  0  0  0  0  0
   -6.6860   22.5880  -31.6650 C   0  0  0  0  0  0  0  0  0  0  0  0
   -7.2080   21.8190  -32.7150 O   0  0  0  0  0  0  0  0  0  0  0  0
   -7.1400   20.4220  -32.8020 C   0  0  0  0  0  0  0  0  0  0  0  0
   -6.1760   19.8470  -33.6400 C   0  0  0  0  0  0  0  0  0  0  0  0
   -6.0720   18.4580  -33.7500 C   0  0  0  0  0  0  0  0  0  0  0  0
   -6.9220   17.6310  -33.0100 C   0  0  0  0  0  0  0  0  0  0  0  0
   -6.8180   16.2840  -33.1160 F   0  0  0  0  0  0  0  0  0  0  0  0
   -7.8710   18.1940  -32.1530 C   0  0  0  0  0  0  0  0  0  0  0  0
   -7.9790   19.5850  -32.0400 C   0  0  0  0  0  0  0  0  0  0  0  0
   -8.8680   20.1090  -31.1590 F   0  0  0  0  0  0  0  0  0  0  0  0
   -5.4670   22.1870  -31.0800 C   0  0  0  0  0  0  0  0  0  0  0  0
   -4.9520   22.9670  -30.0490 C   0  0  0  0  0  0  0  0  0  0  0  0
   -3.8550   22.7940  -29.3570 O   0  0  0  0  0  0  0  0  0  0  0  0
   -1.8980   22.8820  -27.1110 C   0  0  0  0  0  0  0  0  0  0  0  0
   -0.8630   23.0690  -26.1910 C   0  0  0  0  0  0  0  0  0  0  0  0
   -0.0086   25.9397  -22.6230 H   0  0  0  0  0  0  0  0  0  0  0  0
    0.4742   26.9415  -24.0337 H   0  0  0  0  0  0  0  0  0  0  0  0
   -1.1099   26.0945  -24.0337 H   0  0  0  0  0  0  0  0  0  0  0  0
   -1.2015   26.4259  -25.6478 H   0  0  0  0  0  0  0  0  0  0  0  0
   -3.0459   26.1009  -27.2929 H   0  0  0  0  0  0  0  0  0  0  0  0
   -5.0890   25.5070  -28.0830 H   0  0  0  0  0  0  0  0  0  0  0  0
   -7.2698   25.4489  -29.7986 H   0  0  0  0  0  0  0  0  0  0  0  0
   -8.2697   24.0982  -31.6811 H   0  0  0  0  0  0  0  0  0  0  0  0
   -5.4965   20.4931  -34.2152 H   0  0  0  0  0  0  0  0  0  0  0  0
   -5.3203   18.0147  -34.4197 H   0  0  0  0  0  0  0  0  0  0  0  0
   -8.5349   17.5426  -31.5657 H   0  0  0  0  0  0  0  0  0  0  0  0
   -4.9400   21.2862  -31.4277 H   0  0  0  0  0  0  0  0  0  0  0  0
   -2.0908   21.8790  -27.5195 H   0  0  0  0  0  0  0  0  0  0  0  0
   -0.2477   22.2132  -25.8764 H   0  0  0  0  0  0  0  0  0  0  0  0
  1  2  1  0
  2  3  1  0
  3  4  2  0
  4  5  1  0
  5  6  2  0
  6  7  1  0
  7  8  2  0
  8  9  1  0
  9 10  2  0
 10 11  1  0
 11 12  2  0
 12 13  1  0
 13 14  1  0
 14 15  2  0
 15 16  1  0
 16 17  2  0
 17 18  1  0
 17 19  1  0
 19 20  2  0
 20 21  1  0
 12 22  1  0
 22 23  2  0
 23 24  1  0
  6 25  1  0
 25 26  2  0
 26  3  1  0
 24  7  1  0
 23  9  1  0
 20 14  1  0
  1 27  1  0
  1 28  1  0
  1 29  1  0
  4 30  1  0
  5 31  1  0
  8 32  1  0
 10 33  1  0
 11 34  1  0
 15 35  1  0
 16 36  1  0
 19 37  1  0
 22 38  1  0
 25 39  1  0
 26 40  1  0
M  CHG  1   8   1
M  END
>  <UniqueID>  (34) 
29

>  <SMILES>  (34) 
CSc1ccc(-c2[nH+]c3ccc(Oc4ccc(F)cc4F)cc3o2)cc1

>  <Energy>  (34) 
88.23648735502177

>  <Genealogy>  (34) 
CSc1ccc(-c2[nH+]c3ccc(Oc4ccc(F)cc4F)cc3o2)cc1 (protonated)
CSc1ccc(-c2[nH+]c3ccc(Oc4ccc(F)cc4F)cc3o2)cc1 (3D coordinates assigned)
CSc1ccc(-c2[nH+]c3ccc(Oc4ccc(F)cc4F)cc3o2)cc1 (optimized conformer: 88.23648735502177 kcal/mol)

>  <smiles>  (34) 
CSc1ccc(-c2nc3ccc(Oc4ccc(F)cc4F)cc3o2)cc1

>  <score_type>  (34) 
oracle

>  <origin>  (34) 
adg

>  <m_score__min__energy>  (34) 
-7.54

>  <m_primary>  (34) 
energy

$$$$
34:0
     RDKit          3D

 49 51  0  0  1  0  0  0  0  0999 V2000
   -9.2440   19.7560  -32.4300 C   0  0  0  0  0  0  0  0  0  0  0  0
   -9.0730   20.6350  -31.3590 O   0  0  0  0  0  0  0  0  0  0  0  0
   -8.0840   21.6030  -31.2530 C   0  0  0  0  0  0  0  0  0  0  0  0
   -7.8700   22.3480  -30.1130 C   0  0  0  0  0  0  0  0  0  0  0  0
   -6.8540   23.3060  -30.0800 C   0  0  0  0  0  0  0  0  0  0  0  0
   -6.0460   23.5170  -31.2010 C   0  0  0  0  0  0  0  0  0  0  0  0
   -5.0050   24.5020  -31.1620 N   0  0  0  0  0  0  0  0  0  0  0  0
   -3.9500   24.2630  -30.4580 C   0  0  0  0  0  0  0  0  0  0  0  0
   -3.0900   23.3100  -30.8810 N   0  0  0  0  0  0  0  0  0  0  0  0
   -1.9620   23.0000  -30.1990 C   0  0  0  0  0  0  0  0  0  0  0  0
   -1.0690   21.9360  -30.7360 C   0  0  0  0  0  0  0  0  0  0  0  0
   -1.2790   21.7430  -32.1360 O   0  0  0  0  0  0  0  0  0  0  0  0
   -2.4210   21.1410  -32.5990 C   0  0  0  0  0  0  0  0  0  0  0  0
   -3.0910   21.6030  -33.5830 O   0  0  0  0  0  0  0  0  0  0  0  0
   -2.9760   19.8940  -31.9880 C   0  0  0  0  0  0  0  0  0  0  0  0
   -4.3900   20.0870  -31.4770 C   0  0  0  0  0  0  0  0  0  0  0  0
   -5.2460   19.1350  -32.2670 C   0  0  0  0  0  0  0  0  0  0  0  0
   -5.1700   19.0620  -33.6430 C   0  0  0  0  0  0  0  0  0  0  0  0
   -5.9540   18.1890  -34.3710 C   0  0  0  0  0  0  0  0  0  0  0  0
   -6.8480   17.3560  -33.7150 C   0  0  0  0  0  0  0  0  0  0  0  0
   -6.9280   17.4260  -32.3240 C   0  0  0  0  0  0  0  0  0  0  0  0
   -6.1370   18.3050  -31.6140 C   0  0  0  0  0  0  0  0  0  0  0  0
   -1.6950   23.6710  -29.0600 N   0  0  0  0  0  0  0  0  0  0  0  0
   -2.5340   24.6380  -28.5970 C   0  0  0  0  0  0  0  0  0  0  0  0
   -2.2910   25.2890  -27.5060 N   0  0  0  0  0  0  0  0  0  0  0  0
   -3.6480   24.9050  -29.3220 N   0  0  0  0  0  0  0  0  0  0  0  0
   -6.2720   22.7550  -32.3530 C   0  0  0  0  0  0  0  0  0  0  0  0
   -7.2820   21.8160  -32.3560 C   0  0  0  0  0  0  0  0  0  0  0  0
   -9.4408   18.7442  -32.0461 H   0  0  0  0  0  0  0  0  0  0  0  0
  -10.0946   20.0871  -33.0439 H   0  0  0  0  0  0  0  0  0  0  0  0
   -8.3313   19.7441  -33.0439 H   0  0  0  0  0  0  0  0  0  0  0  0
   -8.5013   22.1875  -29.2266 H   0  0  0  0  0  0  0  0  0  0  0  0
   -6.6889   23.8974  -29.1673 H   0  0  0  0  0  0  0  0  0  0  0  0
   -3.2810   22.7820  -31.7600 H   0  0  0  0  0  0  0  0  0  0  0  0
   -0.0218   22.2274  -30.5671 H   0  0  0  0  0  0  0  0  0  0  0  0
   -1.2981   20.9940  -30.2163 H   0  0  0  0  0  0  0  0  0  0  0  0
   -2.9794   19.0985  -32.7477 H   0  0  0  0  0  0  0  0  0  0  0  0
   -2.3408   19.6263  -31.1308 H   0  0  0  0  0  0  0  0  0  0  0  0
   -4.4449   19.8510  -30.4040 H   0  0  0  0  0  0  0  0  0  0  0  0
   -4.7252   21.1277  -31.5978 H   0  0  0  0  0  0  0  0  0  0  0  0
   -4.4650   19.7178  -34.1749 H   0  0  0  0  0  0  0  0  0  0  0  0
   -5.8698   18.1544  -35.4672 H   0  0  0  0  0  0  0  0  0  0  0  0
   -7.4805   16.6551  -34.2795 H   0  0  0  0  0  0  0  0  0  0  0  0
   -7.6306   16.7720  -31.7868 H   0  0  0  0  0  0  0  0  0  0  0  0
   -6.2162   18.3456  -30.5176 H   0  0  0  0  0  0  0  0  0  0  0  0
   -3.1050   25.7830  -27.0690 H   0  0  0  0  0  0  0  0  0  0  0  0
   -4.2910   25.6420  -28.9720 H   0  0  0  0  0  0  0  0  0  0  0  0
   -5.6497   22.9037  -33.2478 H   0  0  0  0  0  0  0  0  0  0  0  0
   -7.4535   21.2193  -33.2640 H   0  0  0  0  0  0  0  0  0  0  0  0
  1  2  1  0
  2  3  1  0
  3  4  2  0
  4  5  1  0
  5  6  2  0
  6  7  1  0
  7  8  2  0
  8  9  1  0
  9 10  1  0
 10 11  1  0
 11 12  1  0
 12 13  1  0
 13 14  2  0
 13 15  1  0
 15 16  1  0
 16 17  1  0
 17 18  2  0
 18 19  1  0
 19 20  2  0
 20 21  1  0
 21 22  2  0
 10 23  2  0
 23 24  1  0
 24 25  2  3
 24 26  1  0
  6 27  1  0
 27 28  2  0
 28  3  1  0
 26  8  1  0
 22 17  1  0
  1 29  1  0
  1 30  1  0
  1 31  1  0
  4 32  1  0
  5 33  1  0
  9 34  1  0
 11 35  1  0
 11 36  1  0
 15 37  1  0
 15 38  1  0
 16 39  1  0
 16 40  1  0
 18 41  1  0
 19 42  1  0
 20 43  1  0
 21 44  1  0
 22 45  1  0
 25 46  1  0
 26 47  1  0
 27 48  1  0
 28 49  1  0
M  END
>  <smiles>  (35) 
COc1ccc(N=c2[nH]c(COC(=O)CCc3ccccc3)nc(=N)[nH]2)cc1

>  <score_type>  (35) 
oracle

>  <origin>  (35) 
adg

>  <m_score__min__energy>  (35) 
-7.8200000000000003

>  <m_primary>  (35) 
energy

$$$$
35:0
     RDKit          3D

 46 47  0  0  0  0  0  0  0  0999 V2000
   -6.8770   25.5280  -29.7120 C   0  0  0  0  0  0  0  0  0  0  0  0
   -5.5150   24.9310  -29.8510 C   0  0  0  0  0  0  0  0  0  0  0  0
   -4.5800   25.2560  -30.8080 C   0  0  0  0  0  0  0  0  0  0  0  0
   -3.5150   24.4500  -30.6660 N   0  0  0  0  0  0  0  0  0  0  0  0
   -3.8410   23.6610  -29.6170 C   0  0  0  0  0  0  0  0  0  0  0  0
   -2.9620   22.5480  -29.1330 C   0  0  0  0  0  0  0  0  0  0  0  0
   -1.9890   22.0820  -30.2270 C   0  0  0  0  0  0  0  0  0  0  0  0
   -2.3880   20.7340  -30.8510 C   0  0  0  0  0  0  0  0  0  0  0  0
   -2.3330   20.8050  -32.3320 N   0  0  0  0  0  0  0  0  0  0  0  0
   -0.9390   20.8960  -32.7990 C   0  0  0  0  0  0  0  0  0  0  0  0
   -3.1120   21.9480  -32.8490 C   0  0  0  0  0  0  0  0  0  0  0  0
   -4.5760   21.6680  -32.7290 C   0  0  0  0  0  0  0  0  0  0  0  0
   -5.3990   22.2880  -31.8670 N   0  0  0  0  0  0  0  0  0  0  0  0
   -6.5930   21.7210  -32.1300 C   0  0  0  0  0  0  0  0  0  0  0  0
   -7.8840   22.0940  -31.4240 C   0  0  0  0  0  0  0  0  0  0  0  0
   -8.8950   20.9440  -31.5800 C   0  0  0  0  0  0  0  0  0  0  0  0
   -8.4840   23.3820  -32.0240 C   0  0  0  0  0  0  0  0  0  0  0  0
   -7.5940   22.3300  -29.9270 C   0  0  0  0  0  0  0  0  0  0  0  0
   -6.4870   20.7850  -33.0980 N   0  0  0  0  0  0  0  0  0  0  0  0
   -5.2320   20.7840  -33.4420 O   0  0  0  0  0  0  0  0  0  0  0  0
   -5.0640   23.9120  -29.1020 N   0  0  0  0  0  0  0  0  0  0  0  0
   -7.1230   25.6358  -28.6453 H   0  0  0  0  0  0  0  0  0  0  0  0
   -6.8950   26.5165  -30.1942 H   0  0  0  0  0  0  0  0  0  0  0  0
   -7.6161   24.8713  -30.1942 H   0  0  0  0  0  0  0  0  0  0  0  0
   -4.6876   26.0466  -31.5652 H   0  0  0  0  0  0  0  0  0  0  0  0
   -2.3832   22.9007  -28.2666 H   0  0  0  0  0  0  0  0  0  0  0  0
   -3.6028   21.6978  -28.8563 H   0  0  0  0  0  0  0  0  0  0  0  0
   -1.9643   22.8425  -31.0214 H   0  0  0  0  0  0  0  0  0  0  0  0
   -1.0039   21.9482  -29.7562 H   0  0  0  0  0  0  0  0  0  0  0  0
   -1.6950   19.9548  -30.5009 H   0  0  0  0  0  0  0  0  0  0  0  0
   -3.4174   20.4941  -30.5464 H   0  0  0  0  0  0  0  0  0  0  0  0
   -0.2639   20.9401  -31.9317 H   0  0  0  0  0  0  0  0  0  0  0  0
   -0.6975   20.0117  -33.4070 H   0  0  0  0  0  0  0  0  0  0  0  0
   -0.8145   21.8042  -33.4070 H   0  0  0  0  0  0  0  0  0  0  0  0
   -2.8651   22.8490  -32.2683 H   0  0  0  0  0  0  0  0  0  0  0  0
   -2.8610   22.1052  -33.9084 H   0  0  0  0  0  0  0  0  0  0  0  0
   -5.1640   23.0300  -31.1690 H   0  0  0  0  0  0  0  0  0  0  0  0
   -9.2052   20.5911  -30.5854 H   0  0  0  0  0  0  0  0  0  0  0  0
   -9.7757   21.3025  -32.1330 H   0  0  0  0  0  0  0  0  0  0  0  0
   -8.4266   20.1165  -32.1330 H   0  0  0  0  0  0  0  0  0  0  0  0
   -8.7970   24.0539  -31.2112 H   0  0  0  0  0  0  0  0  0  0  0  0
   -7.7273   23.8846  -32.6443 H   0  0  0  0  0  0  0  0  0  0  0  0
   -9.3556   23.1261  -32.6443 H   0  0  0  0  0  0  0  0  0  0  0  0
   -8.3055   21.7510  -29.3200 H   0  0  0  0  0  0  0  0  0  0  0  0
   -6.5680   22.0070  -29.6969 H   0  0  0  0  0  0  0  0  0  0  0  0
   -7.7018   23.4003  -29.6969 H   0  0  0  0  0  0  0  0  0  0  0  0
  1  2  1  0
  2  3  2  0
  3  4  1  0
  4  5  1  0
  5  6  1  0
  6  7  1  0
  7  8  1  0
  8  9  1  0
  9 10  1  0
  9 11  1  0
 11 12  1  0
 12 13  2  0
 13 14  1  0
 14 15  1  0
 15 16  1  0
 15 17  1  0
 15 18  1  0
 14 19  2  0
 19 20  1  0
  5 21  2  0
 21  2  1  0
 20 12  1  0
  1 22  1  0
  1 23  1  0
  1 24  1  0
  3 25  1  0
  6 26  1  0
  6 27  1  0
  7 28  1  0
  7 29  1  0
  8 30  1  0
  8 31  1  0
 10 32  1  0
 10 33  1  0
 10 34  1  0
 11 35  1  0
 11 36  1  0
 13 37  1  0
 16 38  1  0
 16 39  1  0
 16 40  1  0
 17 41  1  0
 17 42  1  0
 17 43  1  0
 18 44  1  0
 18 45  1  0
 18 46  1  0
M  CHG  2   4  -1  13   1
M  END
>  <UniqueID>  (36) 
30

>  <SMILES>  (36) 
Cc1c[n-]c(CCCN(C)Cc2[nH+]c(C(C)(C)C)no2)n1

>  <Energy>  (36) 
94.00435108574077

>  <Genealogy>  (36) 
Cc1c[n-]c(CCCN(C)Cc2[nH+]c(C(C)(C)C)no2)n1 (protonated)
Cc1c[n-]c(CCCN(C)Cc2[nH+]c(C(C)(C)C)no2)n1 (3D coordinates assigned)
Cc1c[n-]c(CCCN(C)Cc2[nH+]c(C(C)(C)C)no2)n1 (optimized conformer: 94.00435108574077 kcal/mol)

>  <smiles>  (36) 
Cc1c[nH]c(CCCN(C)Cc2nc(C(C)(C)C)no2)n1

>  <score_type>  (36) 
oracle

>  <origin>  (36) 
adg

>  <m_score__min__energy>  (36) 
-8.2599999999999998

>  <m_primary>  (36) 
energy

$$$$
36:0
     RDKit          3D

 45 48  0  0  0  0  0  0  0  0999 V2000
   -9.8650   21.2530  -31.9270 C   0  0  0  0  0  0  0  0  0  0  0  0
   -8.6590   20.3560  -31.9100 C   0  0  0  0  0  0  0  0  0  0  0  0
   -8.8190   18.9870  -32.1820 C   0  0  0  0  0  0  0  0  0  0  0  0
   -7.7150   18.1310  -32.1850 C   0  0  0  0  0  0  0  0  0  0  0  0
   -6.4410   18.6300  -31.9110 C   0  0  0  0  0  0  0  0  0  0  0  0
   -6.2690   19.9850  -31.6210 C   0  0  0  0  0  0  0  0  0  0  0  0
   -7.3700   20.8550  -31.6020 C   0  0  0  0  0  0  0  0  0  0  0  0
   -7.1630   22.2370  -31.2660 N   0  0  0  0  0  0  0  0  0  0  0  0
   -6.7880   22.6150  -29.9010 C   0  0  0  0  0  0  0  0  0  0  0  0
   -5.9970   23.9330  -29.9040 C   0  0  0  0  0  0  0  0  0  0  0  0
   -5.0680   24.0160  -31.0570 N   0  0  0  0  0  0  0  0  0  0  0  0
   -3.9590   23.0360  -30.9870 C   0  0  0  0  0  0  0  0  0  0  0  0
   -2.9150   23.4650  -30.0020 C   0  0  0  0  0  0  0  0  0  0  0  0
   -1.6250   22.9890  -29.9290 C   0  0  0  0  0  0  0  0  0  0  0  0
   -1.0240   23.6430  -28.9670 O   0  0  0  0  0  0  0  0  0  0  0  0
   -1.8960   24.4900  -28.4670 C   0  0  0  0  0  0  0  0  0  0  0  0
   -1.5940   25.4090  -27.3660 C   0  0  0  0  0  0  0  0  0  0  0  0
   -2.1660   25.3850  -26.1000 C   0  0  0  0  0  0  0  0  0  0  0  0
   -1.6790   26.3920  -25.2580 C   0  0  0  0  0  0  0  0  0  0  0  0
   -0.7270   27.2080  -25.8560 C   0  0  0  0  0  0  0  0  0  0  0  0
   -0.4900   26.6750  -27.4350 S   0  0  0  0  0  0  0  0  0  0  0  0
   -3.0990   24.4270  -29.0780 N   0  0  0  0  0  0  0  0  0  0  0  0
   -5.7750   23.9630  -32.3650 C   0  0  0  0  0  0  0  0  0  0  0  0
   -7.1460   23.2570  -32.3160 C   0  0  0  0  0  0  0  0  0  0  0  0
  -10.1686   21.4788  -30.8941 H   0  0  0  0  0  0  0  0  0  0  0  0
   -9.6185   22.1890  -32.4497 H   0  0  0  0  0  0  0  0  0  0  0  0
  -10.6905   20.7477  -32.4497 H   0  0  0  0  0  0  0  0  0  0  0  0
   -9.8211   18.5861  -32.3942 H   0  0  0  0  0  0  0  0  0  0  0  0
   -7.8503   17.0615  -32.4038 H   0  0  0  0  0  0  0  0  0  0  0  0
   -5.5720   17.9557  -31.9235 H   0  0  0  0  0  0  0  0  0  0  0  0
   -5.2627   20.3735  -31.4058 H   0  0  0  0  0  0  0  0  0  0  0  0
   -7.6989   22.7412  -29.2974 H   0  0  0  0  0  0  0  0  0  0  0  0
   -6.1560   21.8224  -29.4739 H   0  0  0  0  0  0  0  0  0  0  0  0
   -6.7052   24.7730  -29.9564 H   0  0  0  0  0  0  0  0  0  0  0  0
   -5.4003   23.9754  -28.9809 H   0  0  0  0  0  0  0  0  0  0  0  0
   -4.3623   22.0599  -30.6794 H   0  0  0  0  0  0  0  0  0  0  0  0
   -3.4920   22.9685  -31.9807 H   0  0  0  0  0  0  0  0  0  0  0  0
   -1.1819   22.2053  -30.5611 H   0  0  0  0  0  0  0  0  0  0  0  0
   -2.9239   24.6501  -25.7909 H   0  0  0  0  0  0  0  0  0  0  0  0
   -2.0184   26.5246  -24.2201 H   0  0  0  0  0  0  0  0  0  0  0  0
   -0.2155   28.0572  -25.3792 H   0  0  0  0  0  0  0  0  0  0  0  0
   -5.9306   24.9942  -32.7148 H   0  0  0  0  0  0  0  0  0  0  0  0
   -5.1405   23.3734  -33.0431 H   0  0  0  0  0  0  0  0  0  0  0  0
   -7.9289   24.0016  -32.1094 H   0  0  0  0  0  0  0  0  0  0  0  0
   -7.3295   22.7710  -33.2856 H   0  0  0  0  0  0  0  0  0  0  0  0
  1  2  1  0
  2  3  2  0
  3  4  1  0
  4  5  2  0
  5  6  1  0
  6  7  2  0
  7  8  1  0
  8  9  1  0
  9 10  1  0
 10 11  1  0
 11 12  1  0
 12 13  1  0
 13 14  2  0
 14 15  1  0
 15 16  1  0
 16 17  1  0
 17 18  2  0
 18 19  1  0
 19 20  2  0
 20 21  1  0
 16 22  2  0
 11 23  1  0
 23 24  1  0
  7  2  1  0
 24  8  1  0
 22 13  1  0
 21 17  1  0
  1 25  1  0
  1 26  1  0
  1 27  1  0
  3 28  1  0
  4 29  1  0
  5 30  1  0
  6 31  1  0
  9 32  1  0
  9 33  1  0
 10 34  1  0
 10 35  1  0
 12 36  1  0
 12 37  1  0
 14 38  1  0
 18 39  1  0
 19 40  1  0
 20 41  1  0
 23 42  1  0
 23 43  1  0
 24 44  1  0
 24 45  1  0
M  END
>  <UniqueID>  (37) 
31

>  <SMILES>  (37) 
Cc1ccccc1N1CCN(Cc2coc(-c3cccs3)n2)CC1

>  <Energy>  (37) 
115.97147201073508

>  <Genealogy>  (37) 
Cc1ccccc1N1CCN(Cc2coc(-c3cccs3)n2)CC1 (3D coordinates assigned)
Cc1ccccc1N1CCN(Cc2coc(-c3cccs3)n2)CC1 (nonaromatic ring conformer: 115.97147201073508 kcal/mol)

>  <smiles>  (37) 
Cc1ccccc1N1CCN(Cc2coc(-c3cccs3)n2)CC1

>  <score_type>  (37) 
oracle

>  <origin>  (37) 
adg

>  <m_score__min__energy>  (37) 
-8.7100000000000009

>  <m_primary>  (37) 
energy

$$$$
37:0
     RDKit          3D

 14 14  0  0  0  0  0  0  0  0999 V2000
   -3.3330   21.6670  -33.0350 N   0  0  0  0  0  0  0  0  0  0  0  0
   -4.4410   21.7820  -32.7200 C   0  0  0  0  0  0  0  0  0  0  0  0
   -5.8220   21.9260  -32.3260 C   0  0  0  0  0  0  0  0  0  0  0  0
   -6.7420   20.9340  -32.6960 C   0  0  0  0  0  0  0  0  0  0  0  0
   -8.0850   21.0460  -32.3290 C   0  0  0  0  0  0  0  0  0  0  0  0
   -8.5190   22.1490  -31.5880 C   0  0  0  0  0  0  0  0  0  0  0  0
   -7.6110   23.1430  -31.2150 C   0  0  0  0  0  0  0  0  0  0  0  0
   -6.2600   23.0400  -31.5790 C   0  0  0  0  0  0  0  0  0  0  0  0
   -5.3460   24.0820  -31.1770 C   0  0  0  0  0  0  0  0  0  0  0  0
   -4.6130   24.9180  -30.8540 N   0  0  0  0  0  0  0  0  0  0  0  0
   -6.4043   20.0638  -33.2779 H   0  0  0  0  0  0  0  0  0  0  0  0
   -8.8019   20.2654  -32.6234 H   0  0  0  0  0  0  0  0  0  0  0  0
   -9.5767   22.2344  -31.2983 H   0  0  0  0  0  0  0  0  0  0  0  0
   -7.9568   24.0102  -30.6334 H   0  0  0  0  0  0  0  0  0  0  0  0
  1  2  3  0
  2  3  1  0
  3  4  2  0
  4  5  1  0
  5  6  2  0
  6  7  1  0
  7  8  2  0
  8  9  1  0
  9 10  3  0
  8  3  1  0
  4 11  1  0
  5 12  1  0
  6 13  1  0
  7 14  1  0
M  END
>  <UniqueID>  (38) 
32

>  <SMILES>  (38) 
N#Cc1ccccc1C#N

>  <Energy>  (38) 
12.535820901278925

>  <Genealogy>  (38) 
N#Cc1ccccc1C#N (3D coordinates assigned)
N#Cc1ccccc1C#N (optimized conformer: 12.535820901278925 kcal/mol)

>  <smiles>  (38) 
N#Cc1ccccc1C#N

>  <score_type>  (38) 
oracle

>  <origin>  (38) 
adg

>  <m_score__min__energy>  (38) 
-4.7699999999999996

>  <m_primary>  (38) 
energy

$$$$
38:0
     RDKit          3D

 36 37  0  0  0  0  0  0  0  0999 V2000
   -0.1955   27.5612  -25.6395 H   0  0  0  0  0  0  0  0  0  0  0  0
   -0.8290   26.8250  -26.1560 C   0  0  0  0  0  0  0  0  0  0  0  0
   -0.5590   26.4800  -27.4840 C   0  0  0  0  0  0  0  0  0  0  0  0
    0.2829   26.9501  -28.0134 H   0  0  0  0  0  0  0  0  0  0  0  0
   -1.3580   25.5380  -28.1400 C   0  0  0  0  0  0  0  0  0  0  0  0
   -1.1471   25.2720  -29.1863 H   0  0  0  0  0  0  0  0  0  0  0  0
   -2.4280   24.9320  -27.4650 C   0  0  0  0  0  0  0  0  0  0  0  0
   -3.2630   23.9160  -28.1440 C   0  0  0  0  0  0  0  0  0  0  0  0
   -4.5070   24.1630  -28.4480 N   0  0  0  0  0  0  0  0  0  0  0  0
   -5.0950   24.7240  -29.9860 S   0  0  0  0  0  0  0  0  0  0  0  0
   -5.9890   25.9100  -29.7650 O   0  0  0  0  0  0  0  0  0  0  0  0
   -3.9320   25.1500  -30.8380 O   0  0  0  0  0  0  0  0  0  0  0  0
   -6.0290   23.4640  -30.7880 C   0  0  0  0  0  0  0  0  0  0  0  0
   -7.2710   23.0820  -30.2620 C   0  0  0  0  0  0  0  0  0  0  0  0
   -7.6766   23.6003  -29.3806 H   0  0  0  0  0  0  0  0  0  0  0  0
   -7.9950   22.0440  -30.8550 C   0  0  0  0  0  0  0  0  0  0  0  0
   -8.9682   21.7454  -30.4382 H   0  0  0  0  0  0  0  0  0  0  0  0
   -7.4840   21.3840  -31.9780 C   0  0  0  0  0  0  0  0  0  0  0  0
   -8.3860   20.0710  -32.7120 Cl  0  0  0  0  0  0  0  0  0  0  0  0
   -6.2490   21.7680  -32.5100 C   0  0  0  0  0  0  0  0  0  0  0  0
   -5.8482   21.2523  -33.3951 H   0  0  0  0  0  0  0  0  0  0  0  0
   -5.5230   22.8060  -31.9190 C   0  0  0  0  0  0  0  0  0  0  0  0
   -4.5531   23.1075  -32.3415 H   0  0  0  0  0  0  0  0  0  0  0  0
   -2.6930   22.6340  -28.4950 N   0  0  0  0  0  0  0  0  0  0  0  0
   -1.3570   22.2580  -28.0170 C   0  0  0  0  0  0  0  0  0  0  0  0
   -1.3484   22.2556  -26.9170 H   0  0  0  0  0  0  0  0  0  0  0  0
   -1.1041   21.2538  -28.3879 H   0  0  0  0  0  0  0  0  0  0  0  0
   -0.6174   22.9829  -28.3879 H   0  0  0  0  0  0  0  0  0  0  0  0
   -3.4710   21.6930  -29.3090 C   0  0  0  0  0  0  0  0  0  0  0  0
   -4.0320   21.0145  -28.6495 H   0  0  0  0  0  0  0  0  0  0  0  0
   -4.1743   22.2519  -29.9438 H   0  0  0  0  0  0  0  0  0  0  0  0
   -2.7899   21.1073  -29.9438 H   0  0  0  0  0  0  0  0  0  0  0  0
   -2.7060   25.2950  -26.1380 C   0  0  0  0  0  0  0  0  0  0  0  0
   -3.5571   24.8392  -25.6109 H   0  0  0  0  0  0  0  0  0  0  0  0
   -1.9030   26.2350  -25.4850 C   0  0  0  0  0  0  0  0  0  0  0  0
   -2.1171   26.5103  -24.4418 H   0  0  0  0  0  0  0  0  0  0  0  0
  1  2  1  0
  2  3  2  0
  3  4  1  0
  3  5  1  0
  5  6  1  0
  5  7  2  0
  7  8  1  0
  8  9  2  0
  9 10  1  0
 10 11  2  0
 10 12  2  0
 10 13  1  0
 13 14  2  0
 14 15  1  0
 14 16  1  0
 16 17  1  0
 16 18  2  0
 18 19  1  0
 18 20  1  0
 20 21  1  0
 20 22  2  0
 22 23  1  0
  8 24  1  0
 24 25  1  0
 25 26  1  0
 25 27  1  0
 25 28  1  0
 24 29  1  0
 29 30  1  0
 29 31  1  0
 29 32  1  0
  7 33  1  0
 33 34  1  0
 33 35  2  0
 35 36  1  0
 35  2  1  0
 22 13  1  0
M  END
>  <UniqueID>  (39) 
33

>  <SMILES>  (39) 
CN(C)/C(=N/S(=O)(=O)c1ccc(Cl)cc1)c1ccccc1

>  <Energy>  (39) 
41.50416645455004

>  <Genealogy>  (39) 
CN(C)/C(=N/S(=O)(=O)c1ccc(Cl)cc1)c1ccccc1 (cis-trans isomerization)
CN(C)/C(=N/S(=O)(=O)c1ccc(Cl)cc1)c1ccccc1 (3D coordinates assigned)
CN(C)/C(=N/S(=O)(=O)c1ccc(Cl)cc1)c1ccccc1 (optimized conformer: 41.50416645455004 kcal/mol)

>  <smiles>  (39) 
CN(C)C(=NS(=O)(=O)c1ccc(Cl)cc1)c1ccccc1

>  <score_type>  (39) 
oracle

>  <origin>  (39) 
adg

>  <m_score__min__energy>  (39) 
-8.2400000000000002

>  <m_primary>  (39) 
energy

$$$$
39:0
     RDKit          3D

 38 40  0  0  0  0  0  0  0  0999 V2000
   -0.5980   24.6240  -25.0390 C   0  0  0  0  0  0  0  0  0  0  0  0
   -1.2780   24.6920  -26.3690 C   0  0  0  0  0  0  0  0  0  0  0  0
   -0.6330   25.2750  -27.4660 C   0  0  0  0  0  0  0  0  0  0  0  0
   -1.2960   25.3440  -28.6930 C   0  0  0  0  0  0  0  0  0  0  0  0
   -2.5890   24.8250  -28.8250 C   0  0  0  0  0  0  0  0  0  0  0  0
   -3.2740   24.9280  -30.0850 N   0  0  0  0  0  0  0  0  0  0  0  0
   -4.3620   24.0790  -30.4910 C   0  0  0  0  0  0  0  0  0  0  0  0
   -4.1340   22.8710  -31.1690 C   0  0  0  0  0  0  0  0  0  0  0  0
   -5.2060   22.0750  -31.5790 C   0  0  0  0  0  0  0  0  0  0  0  0
   -6.5340   22.4760  -31.3340 C   0  0  0  0  0  0  0  0  0  0  0  0
   -7.6460   21.6510  -31.7560 N   0  0  0  0  0  0  0  0  0  0  0  0
   -9.0320   22.0970  -31.7690 C   0  0  0  0  0  0  0  0  0  0  0  0
   -9.8620   20.8700  -32.1140 C   0  0  0  0  0  0  0  0  0  0  0  0
   -8.8870   19.8660  -32.7190 C   0  0  0  0  0  0  0  0  0  0  0  0
   -7.5090   20.2780  -32.2190 C   0  0  0  0  0  0  0  0  0  0  0  0
   -6.7550   23.7000  -30.6740 C   0  0  0  0  0  0  0  0  0  0  0  0
   -5.6800   24.4950  -30.2660 C   0  0  0  0  0  0  0  0  0  0  0  0
   -3.2120   24.2770  -27.6900 C   0  0  0  0  0  0  0  0  0  0  0  0
   -2.5490   24.2230  -26.5050 N   0  0  0  0  0  0  0  0  0  0  0  0
   -1.3491   24.6991  -24.2389 H   0  0  0  0  0  0  0  0  0  0  0  0
   -0.0617   23.6677  -24.9499 H   0  0  0  0  0  0  0  0  0  0  0  0
    0.1170   25.4551  -24.9499 H   0  0  0  0  0  0  0  0  0  0  0  0
    0.3865   25.6750  -27.3625 H   0  0  0  0  0  0  0  0  0  0  0  0
   -0.8004   25.8078  -29.5586 H   0  0  0  0  0  0  0  0  0  0  0  0
   -2.9610   25.6710  -30.7500 H   0  0  0  0  0  0  0  0  0  0  0  0
   -3.1034   22.5490  -31.3789 H   0  0  0  0  0  0  0  0  0  0  0  0
   -5.0112   21.1252  -32.0986 H   0  0  0  0  0  0  0  0  0  0  0  0
   -9.3178   22.4867  -30.7808 H   0  0  0  0  0  0  0  0  0  0  0  0
   -9.1884   22.9076  -32.4959 H   0  0  0  0  0  0  0  0  0  0  0  0
  -10.3265   20.4545  -31.2076 H   0  0  0  0  0  0  0  0  0  0  0  0
  -10.6761   21.1150  -32.8120 H   0  0  0  0  0  0  0  0  0  0  0  0
   -9.1281   18.8467  -32.3829 H   0  0  0  0  0  0  0  0  0  0  0  0
   -8.9364   19.8634  -33.8179 H   0  0  0  0  0  0  0  0  0  0  0  0
   -7.1912   19.6255  -31.3924 H   0  0  0  0  0  0  0  0  0  0  0  0
   -6.7503   20.1929  -33.0109 H   0  0  0  0  0  0  0  0  0  0  0  0
   -7.7844   24.0342  -30.4774 H   0  0  0  0  0  0  0  0  0  0  0  0
   -5.8710   25.4551  -29.7642 H   0  0  0  0  0  0  0  0  0  0  0  0
   -4.2395   23.8907  -27.7614 H   0  0  0  0  0  0  0  0  0  0  0  0
  1  2  1  0
  2  3  2  0
  3  4  1  0
  4  5  2  0
  5  6  1  0
  6  7  1  0
  7  8  2  0
  8  9  1  0
  9 10  2  0
 10 11  1  0
 11 12  1  0
 12 13  1  0
 13 14  1  0
 14 15  1  0
 10 16  1  0
 16 17  2  0
  5 18  1  0
 18 19  2  0
 19  2  1  0
 17  7  1  0
 15 11  1  0
  1 20  1  0
  1 21  1  0
  1 22  1  0
  3 23  1  0
  4 24  1  0
  6 25  1  0
  8 26  1  0
  9 27  1  0
 12 28  1  0
 12 29  1  0
 13 30  1  0
 13 31  1  0
 14 32  1  0
 14 33  1  0
 15 34  1  0
 15 35  1  0
 16 36  1  0
 17 37  1  0
 18 38  1  0
M  END
>  <UniqueID>  (40) 
34

>  <SMILES>  (40) 
Cc1ccc(Nc2ccc(N3CCCC3)cc2)cn1

>  <Energy>  (40) 
45.25758111147894

>  <Genealogy>  (40) 
Cc1ccc(Nc2ccc(N3CCCC3)cc2)cn1 (3D coordinates assigned)
Cc1ccc(Nc2ccc(N3CCCC3)cc2)cn1 (nonaromatic ring conformer: 45.25758111147894 kcal/mol)

>  <smiles>  (40) 
Cc1ccc(Nc2ccc(N3CCCC3)cc2)cn1

>  <score_type>  (40) 
oracle

>  <origin>  (40) 
adg

>  <m_score__min__energy>  (40) 
-7.4900000000000002

>  <m_primary>  (40) 
energy

$$$$
40:0
     RDKit          3D

 41 43  0  0  0  0  0  0  0  0999 V2000
   -5.1130   24.9220  -28.5880 O   0  0  0  0  0  0  0  0  0  0  0  0
   -4.7890   24.3080  -29.9210 S   0  0  0  0  0  0  0  0  0  0  0  0
   -4.2950   25.3830  -30.8490 O   0  0  0  0  0  0  0  0  0  0  0  0
   -3.5480   23.1130  -29.7230 N   0  0  0  0  0  0  0  0  0  0  0  0
   -3.0340   22.3220  -30.8080 C   0  0  0  0  0  0  0  0  0  0  0  0
   -1.8810   21.5480  -30.6160 C   0  0  0  0  0  0  0  0  0  0  0  0
   -1.3820   20.7590  -31.6540 C   0  0  0  0  0  0  0  0  0  0  0  0
   -2.0390   20.7560  -32.8860 C   0  0  0  0  0  0  0  0  0  0  0  0
   -1.4330   19.7770  -34.2060 Cl  0  0  0  0  0  0  0  0  0  0  0  0
   -3.1470   21.5210  -33.0670 N   0  0  0  0  0  0  0  0  0  0  0  0
   -3.6530   22.2980  -32.0710 C   0  0  0  0  0  0  0  0  0  0  0  0
   -6.2390   23.5430  -30.5620 C   0  0  0  0  0  0  0  0  0  0  0  0
   -6.9620   22.6530  -29.7580 C   0  0  0  0  0  0  0  0  0  0  0  0
   -8.0460   21.9490  -30.2890 C   0  0  0  0  0  0  0  0  0  0  0  0
   -8.4140   22.1230  -31.6310 C   0  0  0  0  0  0  0  0  0  0  0  0
   -9.5120   21.2810  -32.2270 C   0  0  0  0  0  0  0  0  0  0  0  0
   -8.9460   20.2200  -33.0630 N   0  0  0  0  0  0  0  0  0  0  0  0
   -7.6960   19.5600  -32.7900 C   0  0  0  0  0  0  0  0  0  0  0  0
   -7.5820   18.5710  -31.7920 C   0  0  0  0  0  0  0  0  0  0  0  0
   -6.3610   17.9290  -31.5700 C   0  0  0  0  0  0  0  0  0  0  0  0
   -5.2410   18.2700  -32.3310 C   0  0  0  0  0  0  0  0  0  0  0  0
   -5.3390   19.2560  -33.3150 C   0  0  0  0  0  0  0  0  0  0  0  0
   -6.5600   19.9010  -33.5410 C   0  0  0  0  0  0  0  0  0  0  0  0
   -7.7170   23.0520  -32.4210 C   0  0  0  0  0  0  0  0  0  0  0  0
   -6.6340   23.7560  -31.8890 C   0  0  0  0  0  0  0  0  0  0  0  0
   -3.2820   22.8620  -28.7430 H   0  0  0  0  0  0  0  0  0  0  0  0
   -1.3673   21.5624  -29.6434 H   0  0  0  0  0  0  0  0  0  0  0  0
   -0.4810   20.1463  -31.5029 H   0  0  0  0  0  0  0  0  0  0  0  0
   -4.5490   22.9093  -32.2541 H   0  0  0  0  0  0  0  0  0  0  0  0
   -6.6759   22.5078  -28.7058 H   0  0  0  0  0  0  0  0  0  0  0  0
   -8.6133   21.2551  -29.6514 H   0  0  0  0  0  0  0  0  0  0  0  0
  -10.1017   20.8279  -31.4164 H   0  0  0  0  0  0  0  0  0  0  0  0
  -10.1542   21.9212  -32.8497 H   0  0  0  0  0  0  0  0  0  0  0  0
   -9.5470   19.8490  -33.8340 H   0  0  0  0  0  0  0  0  0  0  0  0
   -8.4591   18.3032  -31.1846 H   0  0  0  0  0  0  0  0  0  0  0  0
   -6.2819   17.1533  -30.7941 H   0  0  0  0  0  0  0  0  0  0  0  0
   -4.2813   17.7619  -32.1554 H   0  0  0  0  0  0  0  0  0  0  0  0
   -4.4559   19.5258  -33.9128 H   0  0  0  0  0  0  0  0  0  0  0  0
   -6.6303   20.6813  -34.3131 H   0  0  0  0  0  0  0  0  0  0  0  0
   -8.0251   23.2259  -33.4626 H   0  0  0  0  0  0  0  0  0  0  0  0
   -6.0899   24.4796  -32.5138 H   0  0  0  0  0  0  0  0  0  0  0  0
  1  2  2  0
  2  3  2  0
  2  4  1  0
  4  5  1  0
  5  6  2  0
  6  7  1  0
  7  8  2  0
  8  9  1  0
  8 10  1  0
 10 11  2  0
  2 12  1  0
 12 13  2  0
 13 14  1  0
 14 15  2  0
 15 16  1  0
 16 17  1  0
 17 18  1  0
 18 19  2  0
 19 20  1  0
 20 21  2  0
 21 22  1  0
 22 23  2  0
 15 24  1  0
 24 25  2  0
 11  5  1  0
 25 12  1  0
 23 18  1  0
  4 26  1  0
  6 27  1  0
  7 28  1  0
 11 29  1  0
 13 30  1  0
 14 31  1  0
 16 32  1  0
 16 33  1  0
 17 34  1  0
 19 35  1  0
 20 36  1  0
 21 37  1  0
 22 38  1  0
 23 39  1  0
 24 40  1  0
 25 41  1  0
M  END
>  <UniqueID>  (41) 
35

>  <SMILES>  (41) 
O=S(=O)(Nc1ccc(Cl)nc1)c1ccc(CNc2ccccc2)cc1

>  <Energy>  (41) 
44.471095622827136

>  <Genealogy>  (41) 
O=S(=O)(Nc1ccc(Cl)nc1)c1ccc(CNc2ccccc2)cc1 (3D coordinates assigned)
O=S(=O)(Nc1ccc(Cl)nc1)c1ccc(CNc2ccccc2)cc1 (optimized conformer: 44.471095622827136 kcal/mol)

>  <smiles>  (41) 
O=S(=O)(Nc1ccc(Cl)nc1)c1ccc(CNc2ccccc2)cc1

>  <score_type>  (41) 
oracle

>  <origin>  (41) 
adg

>  <m_score__min__energy>  (41) 
-9.9600000000000009

>  <m_primary>  (41) 
energy

$$$$
41:0
     RDKit          3D

 18 18  0  0  0  0  0  0  0  0999 V2000
   -3.4950   25.2990  -30.4680 O   0  0  0  0  0  0  0  0  0  0  0  0
   -4.6550   24.5610  -30.6660 C   0  0  0  0  0  0  0  0  0  0  0  0
   -4.5900   23.3070  -31.2780 C   0  0  0  0  0  0  0  0  0  0  0  0
   -5.7570   22.5630  -31.4790 C   0  0  0  0  0  0  0  0  0  0  0  0
   -7.0030   23.0620  -31.0560 C   0  0  0  0  0  0  0  0  0  0  0  0
   -8.2720   22.2750  -31.3080 C   0  0  0  0  0  0  0  0  0  0  0  0
   -9.1800   23.0490  -32.0140 F   0  0  0  0  0  0  0  0  0  0  0  0
   -8.8650   21.9290  -30.1040 F   0  0  0  0  0  0  0  0  0  0  0  0
   -7.9800   21.0000  -32.1030 C   0  0  0  0  0  0  0  0  0  0  0  0
   -7.4540   20.0230  -31.2760 F   0  0  0  0  0  0  0  0  0  0  0  0
   -9.1360   20.5230  -32.6960 F   0  0  0  0  0  0  0  0  0  0  0  0
   -7.0580   24.3350  -30.4580 C   0  0  0  0  0  0  0  0  0  0  0  0
   -5.8890   25.0760  -30.2590 C   0  0  0  0  0  0  0  0  0  0  0  0
   -3.6192   22.9040  -31.6024 H   0  0  0  0  0  0  0  0  0  0  0  0
   -5.7006   21.5809  -31.9712 H   0  0  0  0  0  0  0  0  0  0  0  0
   -7.2466   21.2471  -32.8847 H   0  0  0  0  0  0  0  0  0  0  0  0
   -8.0275   24.7499  -30.1450 H   0  0  0  0  0  0  0  0  0  0  0  0
   -5.9406   26.0656  -29.7815 H   0  0  0  0  0  0  0  0  0  0  0  0
  1  2  1  0
  2  3  2  0
  3  4  1  0
  4  5  2  0
  5  6  1  0
  6  7  1  0
  6  8  1  0
  6  9  1  0
  9 10  1  0
  9 11  1  0
  5 12  1  0
 12 13  2  0
 13  2  1  0
  3 14  1  0
  4 15  1  0
  9 16  1  0
 12 17  1  0
 13 18  1  0
M  CHG  1   1  -1
M  END
>  <UniqueID>  (42) 
36

>  <SMILES>  (42) 
[O-]c1ccc(C(F)(F)C(F)F)cc1

>  <Energy>  (42) 
15.452930751081679

>  <Genealogy>  (42) 
[O-]c1ccc(C(F)(F)C(F)F)cc1 (protonated)
[O-]c1ccc(C(F)(F)C(F)F)cc1 (3D coordinates assigned)
[O-]c1ccc(C(F)(F)C(F)F)cc1 (optimized conformer: 15.452930751081679 kcal/mol)

>  <smiles>  (42) 
Oc1ccc(C(F)(F)C(F)F)cc1

>  <score_type>  (42) 
oracle

>  <origin>  (42) 
adg

>  <m_score__min__energy>  (42) 
-7.5300000000000002

>  <m_primary>  (42) 
energy

$$$$
42:0
     RDKit          3D

 39 41  0  0  1  0  0  0  0  0999 V2000
   -3.8820   25.2180  -30.8450 O   0  0  0  0  0  0  0  0  0  0  0  0
   -5.0170   24.4120  -30.8410 C   0  0  0  0  0  0  0  0  0  0  0  0
   -5.8140   24.2760  -31.9680 C   0  0  0  0  0  0  0  0  0  0  0  0
   -6.9350   23.4690  -31.9430 C   0  0  0  0  0  0  0  0  0  0  0  0
   -7.2260   22.8160  -30.7640 C   0  0  0  0  0  0  0  0  0  0  0  0
   -8.4410   21.9110  -30.6490 C   0  0  0  0  0  0  0  0  0  0  0  0
   -8.4980   21.1820  -31.9480 C   0  0  0  0  0  0  0  0  0  0  0  0
   -8.1570   19.7980  -31.9200 N   0  0  0  0  0  0  0  0  0  0  0  0
   -7.1790   19.2570  -32.5370 C   0  0  0  0  0  0  0  0  0  0  0  0
   -5.9190   19.8340  -32.5800 C   0  0  0  0  0  0  0  0  0  0  0  0
   -4.8550   19.2510  -33.2480 C   0  0  0  0  0  0  0  0  0  0  0  0
   -3.5430   19.8670  -33.2840 C   0  0  0  0  0  0  0  0  0  0  0  0
   -3.2160   20.9310  -32.4690 C   0  0  0  0  0  0  0  0  0  0  0  0
   -1.9480   21.5250  -32.5050 C   0  0  0  0  0  0  0  0  0  0  0  0
   -0.9640   21.0740  -33.3570 C   0  0  0  0  0  0  0  0  0  0  0  0
   -1.2860   20.0110  -34.1730 C   0  0  0  0  0  0  0  0  0  0  0  0
   -2.5550   19.4190  -34.1370 C   0  0  0  0  0  0  0  0  0  0  0  0
   -5.1130   18.0810  -33.8610 N   0  0  0  0  0  0  0  0  0  0  0  0
   -6.3270   17.4890  -33.8410 C   0  0  0  0  0  0  0  0  0  0  0  0
   -7.3260   18.0920  -33.1800 N   0  0  0  0  0  0  0  0  0  0  0  0
   -6.4280   22.9580  -29.6490 C   0  0  0  0  0  0  0  0  0  0  0  0
   -5.3080   23.7580  -29.6630 C   0  0  0  0  0  0  0  0  0  0  0  0
   -3.2060   25.2480  -31.5940 H   0  0  0  0  0  0  0  0  0  0  0  0
   -5.5512   24.8155  -32.8899 H   0  0  0  0  0  0  0  0  0  0  0  0
   -7.5725   23.3516  -32.8317 H   0  0  0  0  0  0  0  0  0  0  0  0
   -8.3208   21.2054  -29.8138 H   0  0  0  0  0  0  0  0  0  0  0  0
   -9.3629   22.4773  -30.4502 H   0  0  0  0  0  0  0  0  0  0  0  0
   -9.5255   21.2646  -32.3320 H   0  0  0  0  0  0  0  0  0  0  0  0
   -7.7325   21.6561  -32.5799 H   0  0  0  0  0  0  0  0  0  0  0  0
   -5.7582   20.7918  -32.0636 H   0  0  0  0  0  0  0  0  0  0  0  0
   -3.9713   21.3234  -31.7722 H   0  0  0  0  0  0  0  0  0  0  0  0
   -1.7328   22.3719  -31.8369 H   0  0  0  0  0  0  0  0  0  0  0  0
    0.0319   21.5403  -33.3848 H   0  0  0  0  0  0  0  0  0  0  0  0
   -0.5293   19.6186  -34.8683 H   0  0  0  0  0  0  0  0  0  0  0  0
   -2.7700   18.5736  -34.8072 H   0  0  0  0  0  0  0  0  0  0  0  0
   -4.3760   17.5510  -34.3980 H   0  0  0  0  0  0  0  0  0  0  0  0
   -6.4929   16.5315  -34.3565 H   0  0  0  0  0  0  0  0  0  0  0  0
   -6.6923   22.4196  -28.7269 H   0  0  0  0  0  0  0  0  0  0  0  0
   -4.6724   23.8706  -28.7723 H   0  0  0  0  0  0  0  0  0  0  0  0
  1  2  1  0
  2  3  2  0
  3  4  1  0
  4  5  2  0
  5  6  1  0
  6  7  1  0
  7  8  1  0
  8  9  2  0
  9 10  1  0
 10 11  2  0
 11 12  1  0
 12 13  2  0
 13 14  1  0
 14 15  2  0
 15 16  1  0
 16 17  2  0
 11 18  1  0
 18 19  1  0
 19 20  2  0
  5 21  1  0
 21 22  2  0
 22  2  1  0
 20  9  1  0
 17 12  1  0
  1 23  1  0
  3 24  1  0
  4 25  1  0
  6 26  1  0
  6 27  1  0
  7 28  1  0
  7 29  1  0
 10 30  1  0
 13 31  1  0
 14 32  1  0
 15 33  1  0
 16 34  1  0
 17 35  1  0
 18 36  1  0
 19 37  1  0
 21 38  1  0
 22 39  1  0
M  END
>  <smiles>  (43) 
Oc1ccc(CCN=c2cc(-c3ccccc3)[nH]cn2)cc1

>  <score_type>  (43) 
oracle

>  <origin>  (43) 
adg

>  <m_score__min__energy>  (43) 
-8.9000000000000004

>  <m_primary>  (43) 
energy

$$$$
43:0
     RDKit          3D

 27 29  0  0  0  0  0  0  0  0999 V2000
   -5.2350   15.6750  -34.0160 C   0  0  0  0  0  0  0  0  0  0  0  0
   -4.7450   15.0040  -32.8990 C   0  0  0  0  0  0  0  0  0  0  0  0
   -4.9990   15.4810  -31.6540 N   0  0  0  0  0  0  0  0  0  0  0  0
   -5.7290   16.6140  -31.4550 C   0  0  0  0  0  0  0  0  0  0  0  0
   -6.2510   17.3360  -32.5510 C   0  0  0  0  0  0  0  0  0  0  0  0
   -7.0590   18.5870  -32.3910 C   0  0  0  0  0  0  0  0  0  0  0  0
   -8.4630   18.5800  -32.2390 C   0  0  0  0  0  0  0  0  0  0  0  0
   -9.1550   19.7840  -32.0940 C   0  0  0  0  0  0  0  0  0  0  0  0
   -8.4600   20.9960  -32.1010 C   0  0  0  0  0  0  0  0  0  0  0  0
   -9.1270   22.2240  -31.9590 C   0  0  0  0  0  0  0  0  0  0  0  0
   -8.4000   23.4180  -31.9700 C   0  0  0  0  0  0  0  0  0  0  0  0
   -7.0100   23.3940  -32.1220 C   0  0  0  0  0  0  0  0  0  0  0  0
   -6.3380   22.1750  -32.2640 C   0  0  0  0  0  0  0  0  0  0  0  0
   -7.0590   20.9750  -32.2550 C   0  0  0  0  0  0  0  0  0  0  0  0
   -6.4120   19.7880  -32.3920 N   0  0  0  0  0  0  0  0  0  0  0  0
   -5.9850   16.8380  -33.8420 C   0  0  0  0  0  0  0  0  0  0  0  0
   -5.0325   15.2914  -35.0268 H   0  0  0  0  0  0  0  0  0  0  0  0
   -4.1515   14.0865  -33.0255 H   0  0  0  0  0  0  0  0  0  0  0  0
   -4.6240   14.9650  -30.8270 H   0  0  0  0  0  0  0  0  0  0  0  0
   -5.9137   16.9700  -30.4307 H   0  0  0  0  0  0  0  0  0  0  0  0
   -9.0112   17.6264  -32.2348 H   0  0  0  0  0  0  0  0  0  0  0  0
  -10.2484   19.7783  -31.9741 H   0  0  0  0  0  0  0  0  0  0  0  0
  -10.2202   22.2461  -31.8393 H   0  0  0  0  0  0  0  0  0  0  0  0
   -8.9229   24.3794  -31.8588 H   0  0  0  0  0  0  0  0  0  0  0  0
   -6.4431   24.3366  -32.1300 H   0  0  0  0  0  0  0  0  0  0  0  0
   -5.2445   22.1595  -32.3826 H   0  0  0  0  0  0  0  0  0  0  0  0
   -6.3729   17.3721  -34.7219 H   0  0  0  0  0  0  0  0  0  0  0  0
  1  2  2  0
  2  3  1  0
  3  4  2  0
  4  5  1  0
  5  6  1  0
  6  7  2  0
  7  8  1  0
  8  9  2  0
  9 10  1  0
 10 11  2  0
 11 12  1  0
 12 13  2  0
 13 14  1  0
 14 15  2  0
  5 16  2  0
 16  1  1  0
 15  6  1  0
 14  9  1  0
  1 17  1  0
  2 18  1  0
  3 19  1  0
  4 20  1  0
  7 21  1  0
  8 22  1  0
 10 23  1  0
 11 24  1  0
 12 25  1  0
 13 26  1  0
 16 27  1  0
M  CHG  1   3   1
M  END
>  <UniqueID>  (44) 
37

>  <SMILES>  (44) 
c1c[nH+]cc(-c2ccc3ccccc3n2)c1

>  <Energy>  (44) 
37.638882238713975

>  <Genealogy>  (44) 
c1c[nH+]cc(-c2ccc3ccccc3n2)c1 (protonated)
c1c[nH+]cc(-c2ccc3ccccc3n2)c1 (3D coordinates assigned)
c1c[nH+]cc(-c2ccc3ccccc3n2)c1 (optimized conformer: 37.638882238713975 kcal/mol)

>  <smiles>  (44) 
c1cncc(-c2ccc3ccccc3n2)c1

>  <score_type>  (44) 
oracle

>  <origin>  (44) 
adg

>  <m_score__min__energy>  (44) 
-6.3899999999999997

>  <m_primary>  (44) 
energy

$$$$
44:0
     RDKit          3D

 18 19  0  0  0  0  0  0  0  0999 V2000
   -1.9880   25.6700  -29.7350 H   0  0  0  0  0  0  0  0  0  0  0  0
   -2.6520   24.9130  -29.4580 N   0  0  0  0  0  0  0  0  0  0  0  0
   -3.7160   24.6710  -30.1520 C   0  0  0  0  0  0  0  0  0  0  0  0
   -4.3970   25.6100  -30.8340 N   0  0  0  0  0  0  0  0  0  0  0  0
   -5.4070   24.9720  -31.4040 N   0  0  0  0  0  0  0  0  0  0  0  0
   -5.2980   23.6750  -31.0440 C   0  0  0  0  0  0  0  0  0  0  0  0
   -6.2290   22.6100  -31.4650 C   0  0  0  0  0  0  0  0  0  0  0  0
   -5.7910   21.5890  -32.3260 C   0  0  0  0  0  0  0  0  0  0  0  0
   -4.7519   21.5854  -32.6868 H   0  0  0  0  0  0  0  0  0  0  0  0
   -6.6700   20.5780  -32.7260 C   0  0  0  0  0  0  0  0  0  0  0  0
   -6.3203   19.7810  -33.3986 H   0  0  0  0  0  0  0  0  0  0  0  0
   -7.9920   20.5780  -32.2730 C   0  0  0  0  0  0  0  0  0  0  0  0
   -8.6820   19.7820  -32.5897 H   0  0  0  0  0  0  0  0  0  0  0  0
   -8.4370   21.5890  -31.4180 C   0  0  0  0  0  0  0  0  0  0  0  0
   -9.4778   21.5886  -31.0619 H   0  0  0  0  0  0  0  0  0  0  0  0
   -7.5610   22.6020  -31.0140 C   0  0  0  0  0  0  0  0  0  0  0  0
   -7.9157   23.3960  -30.3404 H   0  0  0  0  0  0  0  0  0  0  0  0
   -4.2530   23.4850  -30.2700 O   0  0  0  0  0  0  0  0  0  0  0  0
  1  2  1  0
  2  3  2  0
  3  4  1  0
  4  5  1  0
  5  6  2  0
  6  7  1  0
  7  8  2  0
  8  9  1  0
  8 10  1  0
 10 11  1  0
 10 12  2  0
 12 13  1  0
 12 14  1  0
 14 15  1  0
 14 16  2  0
 16 17  1  0
  6 18  1  0
 18  3  1  0
 16  7  1  0
M  CHG  1   4  -1
M  END
>  <UniqueID>  (45) 
38

>  <SMILES>  (45) 
[H]/N=c1\[n-]nc(-c2ccccc2)o1

>  <Energy>  (45) 
53.956955283009826

>  <Genealogy>  (45) 
N=c1[n-]nc(-c2ccccc2)o1 (protonated)
[H]/N=c1\[n-]nc(-c2ccccc2)o1 (cis-trans isomerization)
[H]/N=c1\[n-]nc(-c2ccccc2)o1 (3D coordinates assigned)
[H]/N=c1\[n-]nc(-c2ccccc2)o1 (optimized conformer: 53.956955283009826 kcal/mol)

>  <smiles>  (45) 
N=c1[nH]nc(-c2ccccc2)o1

>  <score_type>  (45) 
oracle

>  <origin>  (45) 
adg

>  <m_score__min__energy>  (45) 
-7.3499999999999996

>  <m_primary>  (45) 
energy

$$$$
45:0
     RDKit          3D

 40 41  0  0  0  0  0  0  0  0999 V2000
   -9.1200   18.5460  -31.6330 C   0  0  0  0  0  0  0  0  0  0  0  0
   -7.7600   18.9440  -32.1260 C   0  0  0  0  0  0  0  0  0  0  0  0
   -7.6210   19.9990  -33.0410 C   0  0  0  0  0  0  0  0  0  0  0  0
   -6.3510   20.3950  -33.4720 C   0  0  0  0  0  0  0  0  0  0  0  0
   -5.2050   19.7430  -32.9920 C   0  0  0  0  0  0  0  0  0  0  0  0
   -3.8360   20.1980  -33.4280 C   0  0  0  0  0  0  0  0  0  0  0  0
   -3.7840   21.6670  -33.5160 N   0  0  0  0  0  0  0  0  0  0  0  0
   -3.5680   22.2930  -32.1910 C   0  0  0  0  0  0  0  0  0  0  0  0
   -4.7980   23.0700  -31.6770 C   0  0  1  0  0  0  0  0  0  0  0  0
   -5.6150   22.2470  -30.6480 C   0  0  0  0  0  0  0  0  0  0  0  0
   -6.8320   22.9700  -30.2120 N   0  0  0  0  0  0  0  0  0  0  0  0
   -8.0310   22.4800  -30.9090 C   0  0  0  0  0  0  0  0  0  0  0  0
   -6.7120   24.4390  -30.3550 C   0  0  0  0  0  0  0  0  0  0  0  0
   -5.2500   24.8880  -30.2010 C   0  0  0  0  0  0  0  0  0  0  0  0
   -4.3820   24.3410  -31.1850 O   0  0  0  0  0  0  0  0  0  0  0  0
   -5.3430   18.7100  -32.0520 C   0  0  0  0  0  0  0  0  0  0  0  0
   -6.6130   18.3140  -31.6210 C   0  0  0  0  0  0  0  0  0  0  0  0
   -9.1253   18.5444  -30.5330 H   0  0  0  0  0  0  0  0  0  0  0  0
   -9.8682   19.2629  -32.0023 H   0  0  0  0  0  0  0  0  0  0  0  0
   -9.3636   17.5389  -32.0023 H   0  0  0  0  0  0  0  0  0  0  0  0
   -8.5144   20.5164  -33.4206 H   0  0  0  0  0  0  0  0  0  0  0  0
   -6.2499   21.2216  -34.1907 H   0  0  0  0  0  0  0  0  0  0  0  0
   -3.0900   19.8526  -32.6971 H   0  0  0  0  0  0  0  0  0  0  0  0
   -3.6197   19.7745  -34.4199 H   0  0  0  0  0  0  0  0  0  0  0  0
   -3.0430   21.9540  -34.1970 H   0  0  0  0  0  0  0  0  0  0  0  0
   -4.7010   22.0010  -33.8970 H   0  0  0  0  0  0  0  0  0  0  0  0
   -3.3265   21.5018  -31.4659 H   0  0  0  0  0  0  0  0  0  0  0  0
   -2.7474   23.0171  -32.3019 H   0  0  0  0  0  0  0  0  0  0  0  0
   -5.4923   23.2460  -32.5118 H   0  0  0  0  0  0  0  0  0  0  0  0
   -5.9125   21.2937  -31.1093 H   0  0  0  0  0  0  0  0  0  0  0  0
   -4.9821   22.0764  -29.7647 H   0  0  0  0  0  0  0  0  0  0  0  0
   -8.7848   22.1719  -30.1695 H   0  0  0  0  0  0  0  0  0  0  0  0
   -8.4422   23.2822  -31.5394 H   0  0  0  0  0  0  0  0  0  0  0  0
   -7.7627   21.6194  -31.5394 H   0  0  0  0  0  0  0  0  0  0  0  0
   -7.0767   24.7349  -31.3497 H   0  0  0  0  0  0  0  0  0  0  0  0
   -7.3116   24.9187  -29.5673 H   0  0  0  0  0  0  0  0  0  0  0  0
   -5.2130   25.9849  -30.2752 H   0  0  0  0  0  0  0  0  0  0  0  0
   -4.9010   24.5239  -29.2234 H   0  0  0  0  0  0  0  0  0  0  0  0
   -4.4484   18.2098  -31.6526 H   0  0  0  0  0  0  0  0  0  0  0  0
   -6.7130   17.5048  -30.8826 H   0  0  0  0  0  0  0  0  0  0  0  0
  1  2  1  0
  2  3  2  0
  3  4  1  0
  4  5  2  0
  5  6  1  0
  6  7  1  0
  7  8  1  0
  8  9  1  0
  9 10  1  0
 10 11  1  0
 11 12  1  0
 11 13  1  0
 13 14  1  0
 14 15  1  0
  5 16  1  0
 16 17  2  0
 17  2  1  0
 15  9  1  0
  1 18  1  0
  1 19  1  0
  1 20  1  0
  3 21  1  0
  4 22  1  0
  6 23  1  0
  6 24  1  0
  7 25  1  0
  7 26  1  0
  8 27  1  0
  8 28  1  0
  9 29  1  6
 10 30  1  0
 10 31  1  0
 12 32  1  0
 12 33  1  0
 12 34  1  0
 13 35  1  0
 13 36  1  0
 14 37  1  0
 14 38  1  0
 16 39  1  0
 17 40  1  0
M  CHG  1   7   1
M  END
>  <UniqueID>  (46) 
39

>  <SMILES>  (46) 
Cc1ccc(C[NH2+]C[C@H]2CN(C)CCO2)cc1

>  <Energy>  (46) 
52.10363207945598

>  <Genealogy>  (46) 
Cc1ccc(C[NH2+]CC2CN(C)CCO2)cc1 (protonated)
Cc1ccc(C[NH2+]C[C@H]2CN(C)CCO2)cc1 (chirality)
Cc1ccc(C[NH2+]C[C@H]2CN(C)CCO2)cc1 (3D coordinates assigned)
Cc1ccc(C[NH2+]C[C@H]2CN(C)CCO2)cc1 (nonaromatic ring conformer: 52.10363207945598 kcal/mol)

>  <smiles>  (46) 
Cc1ccc(CNCC2CN(C)CCO2)cc1

>  <score_type>  (46) 
oracle

>  <origin>  (46) 
adg

>  <m_score__min__energy>  (46) 
-6.8799999999999999

>  <m_primary>  (46) 
energy

$$$$
46:0
     RDKit          3D

 41 43  0  0  0  0  0  0  0  0999 V2000
   -6.8680   25.3140  -29.7730 C   0  0  0  0  0  0  0  0  0  0  0  0
   -5.7160   24.6170  -30.3590 N   0  0  0  0  0  0  0  0  0  0  0  0
   -4.3930   25.2520  -30.3310 C   0  0  0  0  0  0  0  0  0  0  0  0
   -5.9080   23.3130  -30.9620 C   0  0  0  0  0  0  0  0  0  0  0  0
   -7.0850   22.7580  -30.9130 N   0  0  0  0  0  0  0  0  0  0  0  0
   -7.3880   21.4700  -31.4730 C   0  0  0  0  0  0  0  0  0  0  0  0
   -6.5300   20.8780  -32.3360 C   0  0  0  0  0  0  0  0  0  0  0  0
   -6.9870   19.6780  -33.0980 C   0  0  0  0  0  0  0  0  0  0  0  0
   -6.3560   19.2900  -34.1180 O   0  0  0  0  0  0  0  0  0  0  0  0
   -8.2570   18.9620  -32.7290 C   0  0  0  0  0  0  0  0  0  0  0  0
   -8.7370   19.3620  -31.3320 C   0  0  0  0  0  0  0  0  0  0  0  0
   -8.7490   20.8860  -31.1920 C   0  0  0  0  0  0  0  0  0  0  0  0
   -5.2140   21.5810  -32.6610 C   0  0  2  0  0  0  0  0  0  0  0  0
   -4.0920   20.6440  -33.0930 C   0  0  0  0  0  0  0  0  0  0  0  0
   -4.0750   19.2890  -32.7050 C   0  0  0  0  0  0  0  0  0  0  0  0
   -3.0180   18.4560  -33.0840 C   0  0  0  0  0  0  0  0  0  0  0  0
   -1.9600   18.9660  -33.8410 C   0  0  0  0  0  0  0  0  0  0  0  0
   -0.5160   17.8260  -34.3550 Br  0  0  0  0  0  0  0  0  0  0  0  0
   -1.9570   20.3110  -34.2160 C   0  0  0  0  0  0  0  0  0  0  0  0
   -3.0120   21.1480  -33.8410 C   0  0  0  0  0  0  0  0  0  0  0  0
   -4.7450   22.5130  -31.5070 C   0  0  2  0  0  0  0  0  0  0  0  0
   -4.1460   21.7690  -30.3840 C   0  0  0  0  0  0  0  0  0  0  0  0
   -3.6720   21.1820  -29.5050 N   0  0  0  0  0  0  0  0  0  0  0  0
   -6.8016   25.2738  -28.6757 H   0  0  0  0  0  0  0  0  0  0  0  0
   -6.8678   26.3636  -30.1021 H   0  0  0  0  0  0  0  0  0  0  0  0
   -7.7976   24.8267  -30.1021 H   0  0  0  0  0  0  0  0  0  0  0  0
   -4.0803   25.4021  -29.2871 H   0  0  0  0  0  0  0  0  0  0  0  0
   -3.6649   24.6052  -30.8425 H   0  0  0  0  0  0  0  0  0  0  0  0
   -4.4422   26.2246  -30.8425 H   0  0  0  0  0  0  0  0  0  0  0  0
   -9.0370   19.2159  -33.4619 H   0  0  0  0  0  0  0  0  0  0  0  0
   -8.0578   17.8802  -32.7304 H   0  0  0  0  0  0  0  0  0  0  0  0
   -9.7542   18.9747  -31.1729 H   0  0  0  0  0  0  0  0  0  0  0  0
   -8.0518   18.9387  -30.5828 H   0  0  0  0  0  0  0  0  0  0  0  0
   -9.4738   21.3061  -31.9048 H   0  0  0  0  0  0  0  0  0  0  0  0
   -9.0299   21.1387  -30.1589 H   0  0  0  0  0  0  0  0  0  0  0  0
   -5.4437   22.2033  -33.5385 H   0  0  0  0  0  0  0  0  0  0  0  0
   -4.8993   18.8840  -32.0996 H   0  0  0  0  0  0  0  0  0  0  0  0
   -3.0193   17.3972  -32.7857 H   0  0  0  0  0  0  0  0  0  0  0  0
   -1.1219   20.7132  -34.8083 H   0  0  0  0  0  0  0  0  0  0  0  0
   -2.9978   22.2085  -34.1328 H   0  0  0  0  0  0  0  0  0  0  0  0
   -3.9820   23.1740  -31.9440 H   0  0  0  0  0  0  0  0  0  0  0  0
  1  2  1  0
  2  3  1  0
  2  4  1  0
  4  5  2  0
  5  6  1  0
  6  7  2  0
  7  8  1  0
  8  9  2  0
  8 10  1  0
 10 11  1  0
 11 12  1  0
  7 13  1  0
 13 14  1  0
 14 15  2  0
 15 16  1  0
 16 17  2  0
 17 18  1  0
 17 19  1  0
 19 20  2  0
 13 21  1  0
 21 22  1  0
 22 23  3  0
 21  4  1  0
 12  6  1  0
 20 14  1  0
  1 24  1  0
  1 25  1  0
  1 26  1  0
  3 27  1  0
  3 28  1  0
  3 29  1  0
 10 30  1  0
 10 31  1  0
 11 32  1  0
 11 33  1  0
 12 34  1  0
 12 35  1  0
 13 36  1  6
 15 37  1  0
 16 38  1  0
 19 39  1  0
 20 40  1  0
 21 41  1  6
M  END
>  <UniqueID>  (47) 
40

>  <SMILES>  (47) 
CN(C)C1=NC2=C(C(=O)CCC2)[C@H](c2ccc(Br)cc2)[C@@H]1C#N

>  <Energy>  (47) 
45.847202859536566

>  <Genealogy>  (47) 
CN(C)C1=NC2=C(C(=O)CCC2)[C@H](c2ccc(Br)cc2)[C@@H]1C#N (chirality)
CN(C)C1=NC2=C(C(=O)CCC2)[C@H](c2ccc(Br)cc2)[C@@H]1C#N (3D coordinates assigned)
CN(C)C1=NC2=C(C(=O)CCC2)[C@H](c2ccc(Br)cc2)[C@@H]1C#N (nonaromatic ring conformer: 45.847202859536566 kcal/mol)

>  <smiles>  (47) 
CN(C)C1=NC2=C(C(=O)CCC2)C(c2ccc(Br)cc2)C1C#N

>  <score_type>  (47) 
oracle

>  <origin>  (47) 
adg

>  <m_score__min__energy>  (47) 
-7.6799999999999997

>  <m_primary>  (47) 
energy

$$$$
47:0
     RDKit          3D

 39 41  0  0  0  0  0  0  0  0999 V2000
   -5.9740   15.3800  -33.8730 C   0  0  0  0  0  0  0  0  0  0  0  0
   -6.8390   16.5010  -34.0230 O   0  0  0  0  0  0  0  0  0  0  0  0
   -6.5980   17.7670  -33.4680 C   0  0  0  0  0  0  0  0  0  0  0  0
   -5.7190   18.6950  -34.0570 C   0  0  0  0  0  0  0  0  0  0  0  0
   -5.5130   19.9430  -33.4640 C   0  0  0  0  0  0  0  0  0  0  0  0
   -6.1740   20.2940  -32.2720 C   0  0  0  0  0  0  0  0  0  0  0  0
   -5.9440   21.5880  -31.6740 N   0  0  0  0  0  0  0  0  0  0  0  0
   -4.7650   22.2360  -31.5490 C   0  0  0  0  0  0  0  0  0  0  0  0
   -4.9920   23.4500  -30.9320 C   0  0  0  0  0  0  0  0  0  0  0  0
   -3.9860   24.4720  -30.5720 C   0  0  0  0  0  0  0  0  0  0  0  0
   -4.2030   25.6800  -30.8490 O   0  0  0  0  0  0  0  0  0  0  0  0
   -2.7950   24.1350  -29.8500 N   0  0  0  0  0  0  0  0  0  0  0  0
   -2.5330   22.8890  -29.1870 C   0  0  0  0  0  0  0  0  0  0  0  0
   -1.4210   22.0950  -29.5220 C   0  0  0  0  0  0  0  0  0  0  0  0
   -1.1900   20.8910  -28.8500 C   0  0  0  0  0  0  0  0  0  0  0  0
   -2.0540   20.4790  -27.8310 C   0  0  0  0  0  0  0  0  0  0  0  0
   -1.7370   18.8340  -26.9140 Br  0  0  0  0  0  0  0  0  0  0  0  0
   -3.1460   21.2790  -27.4770 C   0  0  0  0  0  0  0  0  0  0  0  0
   -3.3790   22.4830  -28.1480 C   0  0  0  0  0  0  0  0  0  0  0  0
   -6.3580   23.4720  -30.6960 C   0  0  0  0  0  0  0  0  0  0  0  0
   -7.1380   24.5590  -30.0310 C   0  0  0  0  0  0  0  0  0  0  0  0
   -6.9110   22.3330  -31.1570 N   0  0  0  0  0  0  0  0  0  0  0  0
   -7.0530   19.3600  -31.6910 C   0  0  0  0  0  0  0  0  0  0  0  0
   -7.2590   18.1110  -32.2850 C   0  0  0  0  0  0  0  0  0  0  0  0
   -5.8180   15.1778  -32.8031 H   0  0  0  0  0  0  0  0  0  0  0  0
   -6.4289   14.4994  -34.3500 H   0  0  0  0  0  0  0  0  0  0  0  0
   -5.0068   15.5968  -34.3500 H   0  0  0  0  0  0  0  0  0  0  0  0
   -5.1923   18.4367  -34.9875 H   0  0  0  0  0  0  0  0  0  0  0  0
   -4.8252   20.6608  -33.9348 H   0  0  0  0  0  0  0  0  0  0  0  0
   -3.7871   21.8591  -31.8832 H   0  0  0  0  0  0  0  0  0  0  0  0
   -0.7318   22.4222  -30.3144 H   0  0  0  0  0  0  0  0  0  0  0  0
   -0.3267   20.2666  -29.1236 H   0  0  0  0  0  0  0  0  0  0  0  0
   -3.8219   20.9602  -26.6698 H   0  0  0  0  0  0  0  0  0  0  0  0
   -4.2316   23.1148  -27.8581 H   0  0  0  0  0  0  0  0  0  0  0  0
   -7.0603   24.4507  -28.9391 H   0  0  0  0  0  0  0  0  0  0  0  0
   -6.7343   25.5369  -30.3321 H   0  0  0  0  0  0  0  0  0  0  0  0
   -8.1937   24.4897  -30.3321 H   0  0  0  0  0  0  0  0  0  0  0  0
   -7.5825   19.6152  -30.7612 H   0  0  0  0  0  0  0  0  0  0  0  0
   -7.9477   17.3922  -31.8170 H   0  0  0  0  0  0  0  0  0  0  0  0
  1  2  1  0
  2  3  1  0
  3  4  2  0
  4  5  1  0
  5  6  2  0
  6  7  1  0
  7  8  1  0
  8  9  2  0
  9 10  1  0
 10 11  2  0
 10 12  1  0
 12 13  1  0
 13 14  2  0
 14 15  1  0
 15 16  2  0
 16 17  1  0
 16 18  1  0
 18 19  2  0
  9 20  1  0
 20 21  1  0
 20 22  2  0
  6 23  1  0
 23 24  2  0
 24  3  1  0
 22  7  1  0
 19 13  1  0
  1 25  1  0
  1 26  1  0
  1 27  1  0
  4 28  1  0
  5 29  1  0
  8 30  1  0
 14 31  1  0
 15 32  1  0
 18 33  1  0
 19 34  1  0
 21 35  1  0
 21 36  1  0
 21 37  1  0
 23 38  1  0
 24 39  1  0
M  CHG  1  12  -1
M  END
>  <UniqueID>  (48) 
41

>  <SMILES>  (48) 
COc1ccc(-n2cc(C(=O)[N-]c3ccc(Br)cc3)c(C)n2)cc1

>  <Energy>  (48) 
77.68859998778858

>  <Genealogy>  (48) 
COc1ccc(-n2cc(C(=O)[N-]c3ccc(Br)cc3)c(C)n2)cc1 (protonated)
COc1ccc(-n2cc(C(=O)[N-]c3ccc(Br)cc3)c(C)n2)cc1 (3D coordinates assigned)
COc1ccc(-n2cc(C(=O)[N-]c3ccc(Br)cc3)c(C)n2)cc1 (optimized conformer: 77.68859998778858 kcal/mol)

>  <smiles>  (48) 
COc1ccc(-n2cc(C(=O)Nc3ccc(Br)cc3)c(C)n2)cc1

>  <score_type>  (48) 
oracle

>  <origin>  (48) 
adg

>  <m_score__min__energy>  (48) 
-9.9499999999999993

>  <m_primary>  (48) 
energy

$$$$
48:0
     RDKit          3D

 39 40  0  0  0  0  0  0  0  0999 V2000
   -5.9520   24.9810  -29.4640 C   0  0  0  0  0  0  0  0  0  0  0  0
   -5.2800   25.6420  -30.6580 C   0  0  0  0  0  0  0  0  0  0  0  0
   -3.8640   25.2970  -30.6740 N   0  0  0  0  0  0  0  0  0  0  0  0
   -3.2980   24.1210  -30.0800 C   0  0  0  0  0  0  0  0  0  0  0  0
   -2.4440   24.2620  -29.1640 O   0  0  0  0  0  0  0  0  0  0  0  0
   -3.6280   22.7310  -30.5840 C   0  0  2  0  0  0  0  0  0  0  0  0
   -2.3530   21.8860  -30.8350 C   0  0  0  0  0  0  0  0  0  0  0  0
   -2.0270   21.7790  -32.3240 C   0  0  0  0  0  0  0  0  0  0  0  0
   -3.2050   21.1620  -33.1080 C   0  0  0  0  0  0  0  0  0  0  0  0
   -4.5490   21.5800  -32.6240 N   0  0  0  0  0  0  0  0  0  0  0  0
   -5.2630   20.4800  -31.9340 C   0  0  0  0  0  0  0  0  0  0  0  0
   -6.7570   20.6130  -32.0770 C   0  0  0  0  0  0  0  0  0  0  0  0
   -7.4750   21.4790  -31.2410 C   0  0  0  0  0  0  0  0  0  0  0  0
   -8.8630   21.5720  -31.3610 C   0  0  0  0  0  0  0  0  0  0  0  0
   -9.5210   20.7960  -32.3170 C   0  0  0  0  0  0  0  0  0  0  0  0
   -8.8140   19.9540  -33.1190 N   0  0  0  0  0  0  0  0  0  0  0  0
   -7.4600   19.8470  -33.0190 C   0  0  0  0  0  0  0  0  0  0  0  0
   -4.5130   22.8400  -31.8490 C   0  0  0  0  0  0  0  0  0  0  0  0
   -5.5337   25.3925  -28.5336 H   0  0  0  0  0  0  0  0  0  0  0  0
   -7.0340   25.1766  -29.4975 H   0  0  0  0  0  0  0  0  0  0  0  0
   -5.7743   23.8960  -29.4975 H   0  0  0  0  0  0  0  0  0  0  0  0
   -5.7534   25.2894  -31.5862 H   0  0  0  0  0  0  0  0  0  0  0  0
   -5.3895   26.7338  -30.5810 H   0  0  0  0  0  0  0  0  0  0  0  0
   -4.1925   22.1975  -29.8050 H   0  0  0  0  0  0  0  0  0  0  0  0
   -1.5050   22.3588  -30.3180 H   0  0  0  0  0  0  0  0  0  0  0  0
   -2.5343   20.8713  -30.4510 H   0  0  0  0  0  0  0  0  0  0  0  0
   -1.8196   22.7843  -32.7195 H   0  0  0  0  0  0  0  0  0  0  0  0
   -1.1486   21.1277  -32.4434 H   0  0  0  0  0  0  0  0  0  0  0  0
   -3.1106   21.4601  -34.1626 H   0  0  0  0  0  0  0  0  0  0  0  0
   -3.1431   20.0732  -32.9642 H   0  0  0  0  0  0  0  0  0  0  0  0
   -4.9467   19.5206  -32.3694 H   0  0  0  0  0  0  0  0  0  0  0  0
   -5.0143   20.5265  -30.8635 H   0  0  0  0  0  0  0  0  0  0  0  0
   -6.9455   22.0849  -30.4910 H   0  0  0  0  0  0  0  0  0  0  0  0
   -9.4326   22.2502  -30.7086 H   0  0  0  0  0  0  0  0  0  0  0  0
  -10.6138   20.8653  -32.4223 H   0  0  0  0  0  0  0  0  0  0  0  0
   -9.3210   19.3760  -33.8260 H   0  0  0  0  0  0  0  0  0  0  0  0
   -6.9151   19.1568  -33.6798 H   0  0  0  0  0  0  0  0  0  0  0  0
   -4.1135   23.6384  -32.4916 H   0  0  0  0  0  0  0  0  0  0  0  0
   -5.5396   23.0611  -31.5214 H   0  0  0  0  0  0  0  0  0  0  0  0
  1  2  1  0
  2  3  1  0
  3  4  1  0
  4  5  2  0
  4  6  1  0
  6  7  1  0
  7  8  1  0
  8  9  1  0
  9 10  1  0
 10 11  1  0
 11 12  1  0
 12 13  2  0
 13 14  1  0
 14 15  2  0
 15 16  1  0
 16 17  2  0
 10 18  1  0
 18  6  1  0
 17 12  1  0
  1 19  1  0
  1 20  1  0
  1 21  1  0
  2 22  1  0
  2 23  1  0
  6 24  1  1
  7 25  1  0
  7 26  1  0
  8 27  1  0
  8 28  1  0
  9 29  1  0
  9 30  1  0
 11 31  1  0
 11 32  1  0
 13 33  1  0
 14 34  1  0
 15 35  1  0
 16 36  1  0
 17 37  1  0
 18 38  1  0
 18 39  1  0
M  CHG  2   3  -1  16   1
M  END
>  <UniqueID>  (49) 
42

>  <SMILES>  (49) 
CC[N-]C(=O)[C@@H]1CCCN(Cc2ccc[nH+]c2)C1

>  <Energy>  (49) 
42.062698663898004

>  <Genealogy>  (49) 
CC[N-]C(=O)C1CCCN(Cc2ccc[nH+]c2)C1 (protonated)
CC[N-]C(=O)[C@@H]1CCCN(Cc2ccc[nH+]c2)C1 (chirality)
CC[N-]C(=O)[C@@H]1CCCN(Cc2ccc[nH+]c2)C1 (3D coordinates assigned)
CC[N-]C(=O)[C@@H]1CCCN(Cc2ccc[nH+]c2)C1 (nonaromatic ring conformer: 42.062698663898004 kcal/mol)

>  <smiles>  (49) 
CCNC(=O)C1CCCN(Cc2cccnc2)C1

>  <score_type>  (49) 
oracle

>  <origin>  (49) 
adg

>  <m_score__min__energy>  (49) 
-8.3599999999999994

>  <m_primary>  (49) 
energy

$$$$
49:0
     RDKit          3D

 35 36  0  0  0  0  0  0  0  0999 V2000
   -8.5920   19.2620  -31.5720 C   0  0  0  0  0  0  0  0  0  0  0  0
   -8.1090   20.2640  -32.6150 C   0  0  0  0  0  0  0  0  0  0  0  0
   -7.3730   21.4010  -31.9620 C   0  0  0  0  0  0  0  0  0  0  0  0
   -6.1170   21.8010  -32.4440 C   0  0  0  0  0  0  0  0  0  0  0  0
   -5.4340   22.8590  -31.8380 C   0  0  0  0  0  0  0  0  0  0  0  0
   -5.9940   23.5220  -30.7380 C   0  0  0  0  0  0  0  0  0  0  0  0
   -5.1880   24.9130  -30.0160 S   0  0  0  0  0  0  0  0  0  0  0  0
   -5.3090   24.8700  -28.5180 O   0  0  0  0  0  0  0  0  0  0  0  0
   -5.8530   26.1650  -30.5130 O   0  0  0  0  0  0  0  0  0  0  0  0
   -3.5060   24.9440  -30.4660 N   0  0  0  0  0  0  0  0  0  0  0  0
   -2.8060   23.7480  -29.9940 C   0  0  0  0  0  0  0  0  0  0  0  0
   -2.2030   23.9840  -28.6400 C   0  0  0  0  0  0  0  0  0  0  0  0
   -1.1190   23.2530  -28.1560 C   0  0  0  0  0  0  0  0  0  0  0  0
   -0.7880   23.7960  -26.5960 S   0  0  0  0  0  0  0  0  0  0  0  0
   -2.0340   24.9250  -26.5990 C   0  0  0  0  0  0  0  0  0  0  0  0
   -2.3380   25.8630  -25.4790 C   0  0  0  0  0  0  0  0  0  0  0  0
   -2.6910   24.9180  -27.7780 N   0  0  0  0  0  0  0  0  0  0  0  0
   -7.2330   23.1030  -30.2350 C   0  0  0  0  0  0  0  0  0  0  0  0
   -7.9170   22.0480  -30.8410 C   0  0  0  0  0  0  0  0  0  0  0  0
   -8.4001   19.6601  -30.5647 H   0  0  0  0  0  0  0  0  0  0  0  0
   -9.6712   19.0915  -31.6995 H   0  0  0  0  0  0  0  0  0  0  0  0
   -8.0531   18.3116  -31.6995 H   0  0  0  0  0  0  0  0  0  0  0  0
   -7.4345   19.7548  -33.3192 H   0  0  0  0  0  0  0  0  0  0  0  0
   -8.9829   20.6686  -33.1467 H   0  0  0  0  0  0  0  0  0  0  0  0
   -5.6683   21.2796  -33.3024 H   0  0  0  0  0  0  0  0  0  0  0  0
   -4.4535   23.1723  -32.2259 H   0  0  0  0  0  0  0  0  0  0  0  0
   -3.5199   22.9136  -29.9306 H   0  0  0  0  0  0  0  0  0  0  0  0
   -1.9995   23.5083  -30.7026 H   0  0  0  0  0  0  0  0  0  0  0  0
   -0.5768   22.4629  -28.6962 H   0  0  0  0  0  0  0  0  0  0  0  0
   -2.1727   25.3530  -24.5185 H   0  0  0  0  0  0  0  0  0  0  0  0
   -1.6783   26.7406  -25.5464 H   0  0  0  0  0  0  0  0  0  0  0  0
   -3.3871   26.1868  -25.5464 H   0  0  0  0  0  0  0  0  0  0  0  0
   -3.4940   25.5490  -27.9970 H   0  0  0  0  0  0  0  0  0  0  0  0
   -7.6680   23.6073  -29.3595 H   0  0  0  0  0  0  0  0  0  0  0  0
   -8.8872   21.7218  -30.4382 H   0  0  0  0  0  0  0  0  0  0  0  0
  1  2  1  0
  2  3  1  0
  3  4  2  0
  4  5  1  0
  5  6  2  0
  6  7  1  0
  7  8  2  0
  7  9  2  0
  7 10  1  0
 10 11  1  0
 11 12  1  0
 12 13  2  0
 13 14  1  0
 14 15  1  0
 15 16  1  0
 15 17  2  0
  6 18  1  0
 18 19  2  0
 19  3  1  0
 17 12  1  0
  1 20  1  0
  1 21  1  0
  1 22  1  0
  2 23  1  0
  2 24  1  0
  4 25  1  0
  5 26  1  0
 11 27  1  0
 11 28  1  0
 13 29  1  0
 16 30  1  0
 16 31  1  0
 16 32  1  0
 17 33  1  0
 18 34  1  0
 19 35  1  0
M  CHG  2  10  -1  17   1
M  END
>  <UniqueID>  (50) 
43

>  <SMILES>  (50) 
CCc1ccc(S(=O)(=O)[N-]Cc2csc(C)[nH+]2)cc1

>  <Energy>  (50) 
53.01751304851867

>  <Genealogy>  (50) 
CCc1ccc(S(=O)(=O)[N-]Cc2csc(C)[nH+]2)cc1 (protonated)
CCc1ccc(S(=O)(=O)[N-]Cc2csc(C)[nH+]2)cc1 (3D coordinates assigned)
CCc1ccc(S(=O)(=O)[N-]Cc2csc(C)[nH+]2)cc1 (optimized conformer: 53.01751304851867 kcal/mol)

>  <smiles>  (50) 
CCc1ccc(S(=O)(=O)NCc2csc(C)n2)cc1

>  <score_type>  (50) 
oracle

>  <origin>  (50) 
adg

>  <m_score__min__energy>  (50) 
-8.1799999999999997

>  <m_primary>  (50) 
energy

$$$$
