0:0
     RDKit          3D

 65 68  0  0  1  0  0  0  0  0999 V2000
    3.0060   18.2840  -28.3890 C   0  0  0  0  0  0  0  0  0  0  0  0
    2.0240   17.2570  -28.1830 N   0  0  0  0  0  0  0  0  0  0  0  0
    1.5760   16.6780  -29.4370 C   0  0  0  0  0  0  0  0  0  0  0  0
    1.3350   17.7770  -30.4670 C   0  0  0  0  0  0  0  0  0  0  0  0
   -0.0760   18.3330  -30.3170 C   0  0  0  0  0  0  0  0  0  0  0  0
   -0.1090   19.2810  -29.2440 N   0  0  0  0  0  0  0  0  0  0  0  0
   -0.9580   20.4190  -29.3360 C   0  0  0  0  0  0  0  0  0  0  0  0
   -0.7290   21.4070  -30.2960 C   0  0  0  0  0  0  0  0  0  0  0  0
   -1.5380   22.5200  -30.4070 C   0  0  0  0  0  0  0  0  0  0  0  0
   -2.6110   22.6850  -29.5550 C   0  0  0  0  0  0  0  0  0  0  0  0
   -3.4670   23.8200  -29.6390 N   0  0  0  0  0  0  0  0  0  0  0  0
   -4.6160   23.7170  -30.1930 C   0  0  0  0  0  0  0  0  0  0  0  0
   -5.5930   24.5360  -29.7230 N   0  0  0  0  0  0  0  0  0  0  0  0
   -6.8390   24.5090  -30.2360 C   0  0  0  0  0  0  0  0  0  0  0  0
   -7.1190   23.6260  -31.2590 C   0  0  0  0  0  0  0  0  0  0  0  0
   -8.7170   23.5460  -31.9640 Cl  0  0  0  0  0  0  0  0  0  0  0  0
   -6.0940   22.8070  -31.7080 C   0  0  0  0  0  0  0  0  0  0  0  0
   -6.3760   21.9940  -32.6630 N   0  0  0  0  0  0  0  0  0  0  0  0
   -6.8530   20.6690  -32.4080 C   0  0  0  0  0  0  0  0  0  0  0  0
   -8.1950   20.3850  -32.2440 C   0  0  0  0  0  0  0  0  0  0  0  0
   -8.6730   19.1200  -32.0010 C   0  0  0  0  0  0  0  0  0  0  0  0
   -7.7680   18.0910  -31.9170 C   0  0  0  0  0  0  0  0  0  0  0  0
   -6.4250   18.3630  -32.0790 C   0  0  0  0  0  0  0  0  0  0  0  0
   -5.9310   19.6200  -32.3230 C   0  0  0  0  0  0  0  0  0  0  0  0
   -4.2470   19.9950  -32.5430 S   0  0  0  0  0  0  0  0  0  0  0  0
   -3.5820   20.3660  -31.2480 O   0  0  0  0  0  0  0  0  0  0  0  0
   -4.1510   21.2040  -33.4340 O   0  0  0  0  0  0  0  0  0  0  0  0
   -3.4320   18.6530  -33.1940 N   0  0  0  0  0  0  0  0  0  0  0  0
   -2.0100   18.7660  -33.2610 C   0  0  0  0  0  0  0  0  0  0  0  0
   -4.0570   18.1410  -34.3910 C   0  0  0  0  0  0  0  0  0  0  0  0
   -4.8560   22.8450  -31.1890 N   0  0  0  0  0  0  0  0  0  0  0  0
   -2.8670   21.7270  -28.5950 C   0  0  0  0  0  0  0  0  0  0  0  0
   -2.0430   20.6230  -28.5060 C   0  0  0  0  0  0  0  0  0  0  0  0
   -2.4160   19.4430  -27.2700 Cl  0  0  0  0  0  0  0  0  0  0  0  0
    0.6610   19.2280  -27.9920 C   0  0  0  0  0  0  0  0  0  0  0  0
    0.8370   17.8090  -27.5240 C   0  0  0  0  0  0  0  0  0  0  0  0
    3.3596   18.6538  -27.4152 H   0  0  0  0  0  0  0  0  0  0  0  0
    3.8545   17.8718  -28.9548 H   0  0  0  0  0  0  0  0  0  0  0  0
    2.5562   19.1132  -28.9548 H   0  0  0  0  0  0  0  0  0  0  0  0
    2.3454   15.9884  -29.8144 H   0  0  0  0  0  0  0  0  0  0  0  0
    0.6357   16.1334  -29.2658 H   0  0  0  0  0  0  0  0  0  0  0  0
    2.0636   18.5865  -30.3129 H   0  0  0  0  0  0  0  0  0  0  0  0
    1.4516   17.3567  -31.4768 H   0  0  0  0  0  0  0  0  0  0  0  0
   -0.3752   18.8286  -31.2523 H   0  0  0  0  0  0  0  0  0  0  0  0
   -0.7710   17.5092  -30.0972 H   0  0  0  0  0  0  0  0  0  0  0  0
    0.1216   21.2950  -30.9844 H   0  0  0  0  0  0  0  0  0  0  0  0
   -1.3269   23.2772  -31.1764 H   0  0  0  0  0  0  0  0  0  0  0  0
   -5.4200   25.2170  -28.9500 H   0  0  0  0  0  0  0  0  0  0  0  0
   -7.6193   25.1792  -29.8461 H   0  0  0  0  0  0  0  0  0  0  0  0
   -8.9165   21.2126  -32.3113 H   0  0  0  0  0  0  0  0  0  0  0  0
   -9.7506   18.9368  -31.8772 H   0  0  0  0  0  0  0  0  0  0  0  0
   -8.1090   17.0633  -31.7231 H   0  0  0  0  0  0  0  0  0  0  0  0
   -5.7124   17.5280  -32.0089 H   0  0  0  0  0  0  0  0  0  0  0  0
   -1.5964   18.7989  -32.2423 H   0  0  0  0  0  0  0  0  0  0  0  0
   -1.5980   17.8978  -33.7962 H   0  0  0  0  0  0  0  0  0  0  0  0
   -1.7403   19.6884  -33.7962 H   0  0  0  0  0  0  0  0  0  0  0  0
   -4.8806   17.4663  -34.1147 H   0  0  0  0  0  0  0  0  0  0  0  0
   -4.4524   18.9782  -34.9850 H   0  0  0  0  0  0  0  0  0  0  0  0
   -3.3140   17.5886  -34.9850 H   0  0  0  0  0  0  0  0  0  0  0  0
   -4.0990   22.2190  -31.5440 H   0  0  0  0  0  0  0  0  0  0  0  0
   -3.7185   21.8419  -27.9082 H   0  0  0  0  0  0  0  0  0  0  0  0
    1.6513   19.6763  -28.1601 H   0  0  0  0  0  0  0  0  0  0  0  0
    0.1105   19.7849  -27.2195 H   0  0  0  0  0  0  0  0  0  0  0  0
    0.9737   17.7904  -26.4327 H   0  0  0  0  0  0  0  0  0  0  0  0
   -0.0516   17.2114  -27.7756 H   0  0  0  0  0  0  0  0  0  0  0  0
  1  2  1  0
  2  3  1  0
  3  4  1  0
  4  5  1  0
  5  6  1  0
  6  7  1  0
  7  8  2  0
  8  9  1  0
  9 10  2  0
 10 11  1  0
 11 12  2  0
 12 13  1  0
 13 14  1  0
 14 15  2  0
 15 16  1  0
 15 17  1  0
 17 18  2  0
 18 19  1  0
 19 20  2  0
 20 21  1  0
 21 22  2  0
 22 23  1  0
 23 24  2  0
 24 25  1  0
 25 26  2  0
 25 27  2  0
 25 28  1  0
 28 29  1  0
 28 30  1  0
 17 31  1  0
 10 32  1  0
 32 33  2  0
 33 34  1  0
  6 35  1  0
 35 36  1  0
 36  2  1  0
 33  7  1  0
 31 12  1  0
 24 19  1  0
  1 37  1  0
  1 38  1  0
  1 39  1  0
  3 40  1  0
  3 41  1  0
  4 42  1  0
  4 43  1  0
  5 44  1  0
  5 45  1  0
  8 46  1  0
  9 47  1  0
 13 48  1  0
 14 49  1  0
 20 50  1  0
 21 51  1  0
 22 52  1  0
 23 53  1  0
 29 54  1  0
 29 55  1  0
 29 56  1  0
 30 57  1  0
 30 58  1  0
 30 59  1  0
 31 60  1  0
 32 61  1  0
 35 62  1  0
 35 63  1  0
 36 64  1  0
 36 65  1  0
M  END
>  <smiles>  (1) 
CN1CCCN(c2ccc(N=c3[nH]cc(Cl)c(=Nc4ccccc4S(=O)(=O)N(C)C)[nH]3)cc2Cl)CC1

>  <score_type>  (1) 
oracle

>  <origin>  (1) 
adg

>  <m_score__min__energy>  (1) 
-8.0199999999999996

>  <m_primary>  (1) 
energy

$$$$
1:0
     RDKit          3D

 56 60  0  0  0  0  0  0  0  0999 V2000
   -6.4840   19.6850  -34.6900 O   0  0  0  0  0  0  0  0  0  0  0  0
   -6.6530   19.1150  -33.5790 C   0  0  0  0  0  0  0  0  0  0  0  0
   -6.0890   17.8000  -33.3500 N   0  0  0  0  0  0  0  0  0  0  0  0
   -5.4110   17.0870  -34.4430 C   0  0  0  0  0  0  0  0  0  0  0  0
   -4.1130   16.4070  -33.9420 C   0  0  0  0  0  0  0  0  0  0  0  0
   -4.0250   16.2750  -32.5300 O   0  0  0  0  0  0  0  0  0  0  0  0
   -5.2760   15.9270  -31.9780 C   0  0  0  0  0  0  0  0  0  0  0  0
   -6.2080   17.1340  -32.0460 C   0  0  0  0  0  0  0  0  0  0  0  0
   -7.4160   19.8040  -32.5610 N   0  0  0  0  0  0  0  0  0  0  0  0
   -8.8590   19.5370  -32.4650 C   0  0  0  0  0  0  0  0  0  0  0  0
   -9.6520   20.8410  -32.3370 C   0  0  0  0  0  0  0  0  0  0  0  0
   -9.1620   21.6370  -31.1310 C   0  0  0  0  0  0  0  0  0  0  0  0
   -7.6770   21.8660  -31.2050 C   0  0  0  0  0  0  0  0  0  0  0  0
   -7.1230   23.0100  -30.6100 C   0  0  0  0  0  0  0  0  0  0  0  0
   -5.7420   23.2320  -30.6490 C   0  0  0  0  0  0  0  0  0  0  0  0
   -5.0850   24.7730  -30.1000 S   0  0  0  0  0  0  0  0  0  0  0  0
   -6.2240   25.6940  -29.7640 O   0  0  0  0  0  0  0  0  0  0  0  0
   -4.2970   25.4080  -31.2150 O   0  0  0  0  0  0  0  0  0  0  0  0
   -4.0150   24.5400  -28.7510 N   0  0  0  0  0  0  0  0  0  0  0  0
   -2.6920   23.9850  -28.7700 C   0  0  0  0  0  0  0  0  0  0  0  0
   -2.4900   22.7990  -29.4840 C   0  0  0  0  0  0  0  0  0  0  0  0
   -1.2110   22.2490  -29.6060 C   0  0  0  0  0  0  0  0  0  0  0  0
   -0.1120   22.8960  -29.0390 C   0  0  0  0  0  0  0  0  0  0  0  0
   -0.2900   24.1040  -28.3660 C   0  0  0  0  0  0  0  0  0  0  0  0
   -1.5760   24.6510  -28.2210 C   0  0  0  0  0  0  0  0  0  0  0  0
   -1.6970   25.8840  -27.5760 O   0  0  0  0  0  0  0  0  0  0  0  0
   -0.6400   26.4070  -26.7700 C   0  0  0  0  0  0  0  0  0  0  0  0
    0.7110   26.1620  -27.4510 C   0  0  0  0  0  0  0  0  0  0  0  0
    0.8140   24.7960  -27.8540 O   0  0  0  0  0  0  0  0  0  0  0  0
   -4.9050   22.2600  -31.2060 C   0  0  0  0  0  0  0  0  0  0  0  0
   -5.4440   21.1110  -31.7840 C   0  0  0  0  0  0  0  0  0  0  0  0
   -6.8360   20.9140  -31.8300 C   0  0  0  0  0  0  0  0  0  0  0  0
   -6.0875   16.3184  -34.8451 H   0  0  0  0  0  0  0  0  0  0  0  0
   -5.1460   17.8146  -35.2243 H   0  0  0  0  0  0  0  0  0  0  0  0
   -4.0585   15.4017  -34.3853 H   0  0  0  0  0  0  0  0  0  0  0  0
   -3.2804   17.0574  -34.2482 H   0  0  0  0  0  0  0  0  0  0  0  0
   -5.7111   15.0936  -32.5491 H   0  0  0  0  0  0  0  0  0  0  0  0
   -5.1449   15.6200  -30.9299 H   0  0  0  0  0  0  0  0  0  0  0  0
   -7.2460   16.7989  -31.9035 H   0  0  0  0  0  0  0  0  0  0  0  0
   -5.9286   17.8456  -31.2551 H   0  0  0  0  0  0  0  0  0  0  0  0
   -9.1870   19.0040  -33.3696 H   0  0  0  0  0  0  0  0  0  0  0  0
   -9.0431   18.9259  -31.5691 H   0  0  0  0  0  0  0  0  0  0  0  0
   -9.5151   21.4409  -33.2488 H   0  0  0  0  0  0  0  0  0  0  0  0
  -10.7173   20.6025  -32.2020 H   0  0  0  0  0  0  0  0  0  0  0  0
   -9.6755   22.6095  -31.1088 H   0  0  0  0  0  0  0  0  0  0  0  0
   -9.3837   21.0640  -30.2186 H   0  0  0  0  0  0  0  0  0  0  0  0
   -7.7791   23.7373  -30.1094 H   0  0  0  0  0  0  0  0  0  0  0  0
   -3.3467   22.2941  -29.9542 H   0  0  0  0  0  0  0  0  0  0  0  0
   -1.0701   21.3036  -30.1504 H   0  0  0  0  0  0  0  0  0  0  0  0
    0.8918   22.4541  -29.1229 H   0  0  0  0  0  0  0  0  0  0  0  0
   -0.7877   27.4884  -26.6329 H   0  0  0  0  0  0  0  0  0  0  0  0
   -0.6480   25.9018  -25.7929 H   0  0  0  0  0  0  0  0  0  0  0  0
    0.7959   26.8102  -28.3357 H   0  0  0  0  0  0  0  0  0  0  0  0
    1.5198   26.3912  -26.7416 H   0  0  0  0  0  0  0  0  0  0  0  0
   -3.8144   22.4027  -31.1881 H   0  0  0  0  0  0  0  0  0  0  0  0
   -4.7729   20.3500  -32.2088 H   0  0  0  0  0  0  0  0  0  0  0  0
  1  2  2  0
  2  3  1  0
  3  4  1  0
  4  5  1  0
  5  6  1  0
  6  7  1  0
  7  8  1  0
  2  9  1  0
  9 10  1  0
 10 11  1  0
 11 12  1  0
 12 13  1  0
 13 14  2  0
 14 15  1  0
 15 16  1  0
 16 17  2  0
 16 18  2  0
 16 19  1  0
 19 20  1  0
 20 21  2  0
 21 22  1  0
 22 23  2  0
 23 24  1  0
 24 25  2  0
 25 26  1  0
 26 27  1  0
 27 28  1  0
 28 29  1  0
 15 30  2  0
 30 31  1  0
 31 32  2  0
  8  3  1  0
 32  9  1  0
 32 13  1  0
 25 20  1  0
 29 24  1  0
  4 33  1  0
  4 34  1  0
  5 35  1  0
  5 36  1  0
  7 37  1  0
  7 38  1  0
  8 39  1  0
  8 40  1  0
 10 41  1  0
 10 42  1  0
 11 43  1  0
 11 44  1  0
 12 45  1  0
 12 46  1  0
 14 47  1  0
 21 48  1  0
 22 49  1  0
 23 50  1  0
 27 51  1  0
 27 52  1  0
 28 53  1  0
 28 54  1  0
 30 55  1  0
 31 56  1  0
M  CHG  1  19  -1
M  END
>  <UniqueID>  (2) 
1

>  <SMILES>  (2) 
O=C(N1CCOCC1)N1CCCc2cc(S(=O)(=O)[N-]c3cccc4c3OCCO4)ccc21

>  <Energy>  (2) 
87.17402068230805

>  <Genealogy>  (2) 
O=C(N1CCOCC1)N1CCCc2cc(S(=O)(=O)[N-]c3cccc4c3OCCO4)ccc21 (protonated)
O=C(N1CCOCC1)N1CCCc2cc(S(=O)(=O)[N-]c3cccc4c3OCCO4)ccc21 (3D coordinates assigned)
O=C(N1CCOCC1)N1CCCc2cc(S(=O)(=O)[N-]c3cccc4c3OCCO4)ccc21 (nonaromatic ring conformer: 87.17402068230805 kcal/mol)

>  <smiles>  (2) 
O=C(N1CCOCC1)N1CCCc2cc(S(=O)(=O)Nc3cccc4c3OCCO4)ccc21

>  <score_type>  (2) 
oracle

>  <origin>  (2) 
adg

>  <m_score__min__energy>  (2) 
-12.800000000000001

>  <m_primary>  (2) 
energy

$$$$
2:0
     RDKit          3D

 49 52  0  0  0  0  0  0  0  0999 V2000
   -2.8041   17.7091  -34.0701 H   0  0  0  0  0  0  0  0  0  0  0  0
   -3.0180   18.7420  -33.7580 C   0  0  0  0  0  0  0  0  0  0  0  0
   -4.2900   19.0930  -33.4000 N   0  0  0  0  0  0  0  0  0  0  0  0
   -4.5330   20.3700  -33.0120 C   0  0  0  0  0  0  0  0  0  0  0  0
   -3.5590   21.3170  -32.9840 C   0  0  0  0  0  0  0  0  0  0  0  0
   -2.2480   21.0200  -33.3370 C   0  0  0  0  0  0  0  0  0  0  0  0
   -1.4589   21.7859  -33.3101 H   0  0  0  0  0  0  0  0  0  0  0  0
   -1.9740   19.6980  -33.7300 C   0  0  0  0  0  0  0  0  0  0  0  0
   -0.9520   19.4075  -34.0147 H   0  0  0  0  0  0  0  0  0  0  0  0
   -4.0880   22.4900  -32.6120 N   0  0  0  0  0  0  0  0  0  0  0  0
   -3.6010   23.4090  -32.5210 H   0  0  0  0  0  0  0  0  0  0  0  0
   -5.3990   22.2130  -32.3940 C   0  0  0  0  0  0  0  0  0  0  0  0
   -6.5660   23.4930  -31.9030 S   0  0  0  0  0  0  0  0  0  0  0  0
   -5.7910   23.9030  -30.2930 C   0  0  0  0  0  0  0  0  0  0  0  0
   -5.6107   22.9718  -29.7359 H   0  0  0  0  0  0  0  0  0  0  0  0
   -6.4741   24.5647  -29.7403 H   0  0  0  0  0  0  0  0  0  0  0  0
   -4.4820   24.6240  -30.4770 C   0  0  0  0  0  0  0  0  0  0  0  0
   -4.5240   25.8640  -30.6930 O   0  0  0  0  0  0  0  0  0  0  0  0
   -3.1870   23.9900  -30.4540 N   0  0  0  0  0  0  0  0  0  0  0  0
   -2.1940   24.1290  -29.6260 C   0  0  0  0  0  0  0  0  0  0  0  0
   -1.5750   25.2950  -29.3400 N   0  0  0  0  0  0  0  0  0  0  0  0
   -0.6080   25.1670  -28.4330 N   0  0  0  0  0  0  0  0  0  0  0  0
   -0.4500   23.8960  -28.0010 C   0  0  0  0  0  0  0  0  0  0  0  0
    0.5310   23.4990  -26.9440 C   0  0  0  0  0  0  0  0  0  0  0  0
    1.2275   24.3316  -26.7660 H   0  0  0  0  0  0  0  0  0  0  0  0
    1.0809   22.6099  -27.2860 H   0  0  0  0  0  0  0  0  0  0  0  0
   -0.1890   23.1620  -25.6450 C   0  0  0  0  0  0  0  0  0  0  0  0
    0.4388   23.4559  -24.7909 H   0  0  0  0  0  0  0  0  0  0  0  0
   -1.1437   23.7068  -25.6029 H   0  0  0  0  0  0  0  0  0  0  0  0
   -0.3822   22.0799  -25.6029 H   0  0  0  0  0  0  0  0  0  0  0  0
   -1.5530   22.8540  -28.7350 S   0  0  0  0  0  0  0  0  0  0  0  0
   -5.7140   20.9060  -32.6490 N   0  0  0  0  0  0  0  0  0  0  0  0
   -7.0230   20.2300  -32.7200 C   0  0  0  0  0  0  0  0  0  0  0  0
   -7.2964   20.1609  -33.7832 H   0  0  0  0  0  0  0  0  0  0  0  0
   -6.9580   18.7780  -32.1890 C   0  0  0  0  0  0  0  0  0  0  0  0
   -6.6320   18.1201  -33.0081 H   0  0  0  0  0  0  0  0  0  0  0  0
   -6.2510   18.7687  -31.3464 H   0  0  0  0  0  0  0  0  0  0  0  0
   -8.3120   18.2660  -31.6580 C   0  0  0  0  0  0  0  0  0  0  0  0
   -8.3554   17.1745  -31.7872 H   0  0  0  0  0  0  0  0  0  0  0  0
   -8.3891   18.5417  -30.5959 H   0  0  0  0  0  0  0  0  0  0  0  0
   -9.4920   18.9010  -32.4020 C   0  0  0  0  0  0  0  0  0  0  0  0
   -9.4119   18.6554  -33.4712 H   0  0  0  0  0  0  0  0  0  0  0  0
  -10.4217   18.5004  -31.9716 H   0  0  0  0  0  0  0  0  0  0  0  0
   -9.5140   20.4360  -32.2430 C   0  0  0  0  0  0  0  0  0  0  0  0
   -9.9464   20.8740  -33.1547 H   0  0  0  0  0  0  0  0  0  0  0  0
  -10.1126   20.6593  -31.3475 H   0  0  0  0  0  0  0  0  0  0  0  0
   -8.1180   21.0530  -32.0200 C   0  0  0  0  0  0  0  0  0  0  0  0
   -8.1101   22.0762  -32.4239 H   0  0  0  0  0  0  0  0  0  0  0  0
   -7.9101   21.0584  -30.9398 H   0  0  0  0  0  0  0  0  0  0  0  0
  1  2  1  0
  2  3  2  0
  3  4  1  0
  4  5  2  0
  5  6  1  0
  6  7  1  0
  6  8  2  0
  8  9  1  0
  5 10  1  0
 10 11  1  0
 10 12  2  0
 12 13  1  0
 13 14  1  0
 14 15  1  0
 14 16  1  0
 14 17  1  0
 17 18  2  0
 17 19  1  0
 19 20  2  0
 20 21  1  0
 21 22  1  0
 22 23  2  0
 23 24  1  0
 24 25  1  0
 24 26  1  0
 24 27  1  0
 27 28  1  0
 27 29  1  0
 27 30  1  0
 23 31  1  0
 12 32  1  0
 32 33  1  0
 33 34  1  0
 33 35  1  0
 35 36  1  0
 35 37  1  0
 35 38  1  0
 38 39  1  0
 38 40  1  0
 38 41  1  0
 41 42  1  0
 41 43  1  0
 41 44  1  0
 44 45  1  0
 44 46  1  0
 44 47  1  0
 47 48  1  0
 47 49  1  0
  8  2  1  0
 31 20  1  0
 47 33  1  0
 32  4  1  0
M  CHG  2  10   1  21  -1
M  END
>  <UniqueID>  (3) 
2

>  <SMILES>  (3) 
CCc1n[n-]/c(=N\C(=O)CSc2[nH+]c3cccnc3n2C2CCCCC2)s1

>  <Energy>  (3) 
124.46064334559478

>  <Genealogy>  (3) 
CCc1n[n-]c(=NC(=O)CSc2[nH+]c3cccnc3n2C2CCCCC2)s1 (protonated)
CCc1n[n-]/c(=N\C(=O)CSc2[nH+]c3cccnc3n2C2CCCCC2)s1 (cis-trans isomerization)
CCc1n[n-]/c(=N\C(=O)CSc2[nH+]c3cccnc3n2C2CCCCC2)s1 (3D coordinates assigned)
CCc1n[n-]/c(=N\C(=O)CSc2[nH+]c3cccnc3n2C2CCCCC2)s1 (nonaromatic ring conformer: 124.46064334559478 kcal/mol)

>  <smiles>  (3) 
CCc1n[nH]c(=NC(=O)CSc2nc3cccnc3n2C2CCCCC2)s1

>  <score_type>  (3) 
oracle

>  <origin>  (3) 
adg

>  <m_score__min__energy>  (3) 
-11.18

>  <m_primary>  (3) 
energy

$$$$
3:0
     RDKit          3D

 35 37  0  0  0  0  0  0  0  0999 V2000
   -2.6870   23.8260  -28.0290 C   0  0  0  0  0  0  0  0  0  0  0  0
   -2.5390   24.9260  -29.0350 C   0  0  0  0  0  0  0  0  0  0  0  0
   -1.5160   25.6580  -28.9920 O   0  0  0  0  0  0  0  0  0  0  0  0
   -3.5060   25.1470  -30.0710 N   0  0  0  0  0  0  0  0  0  0  0  0
   -4.3980   24.1740  -30.6310 C   0  0  0  0  0  0  0  0  0  0  0  0
   -5.7890   24.4400  -30.6160 C   0  0  0  0  0  0  0  0  0  0  0  0
   -6.7090   23.5050  -31.1280 C   0  0  0  0  0  0  0  0  0  0  0  0
   -6.2010   22.3050  -31.6300 C   0  0  0  0  0  0  0  0  0  0  0  0
   -4.8640   22.0360  -31.6250 C   0  0  0  0  0  0  0  0  0  0  0  0
   -3.9260   22.9370  -31.1270 C   0  0  0  0  0  0  0  0  0  0  0  0
   -4.6450   20.8200  -32.1510 N   0  0  0  0  0  0  0  0  0  0  0  0
   -5.8810   20.3680  -32.4860 C   0  0  0  0  0  0  0  0  0  0  0  0
   -6.0990   19.0580  -33.1370 C   0  0  0  0  0  0  0  0  0  0  0  0
   -5.4940   18.7530  -34.3690 C   0  0  0  0  0  0  0  0  0  0  0  0
   -5.6920   17.5020  -34.9620 C   0  0  0  0  0  0  0  0  0  0  0  0
   -6.4840   16.5430  -34.3260 C   0  0  0  0  0  0  0  0  0  0  0  0
   -7.0750   16.8320  -33.0920 C   0  0  0  0  0  0  0  0  0  0  0  0
   -6.8780   18.0810  -32.4960 C   0  0  0  0  0  0  0  0  0  0  0  0
   -6.8640   21.2560  -32.1570 N   0  0  0  0  0  0  0  0  0  0  0  0
   -8.3110   21.1140  -32.3150 C   0  0  0  0  0  0  0  0  0  0  0  0
   -2.6304   24.2470  -27.0143 H   0  0  0  0  0  0  0  0  0  0  0  0
   -3.6598   23.3314  -28.1670 H   0  0  0  0  0  0  0  0  0  0  0  0
   -1.8795   23.0919  -28.1670 H   0  0  0  0  0  0  0  0  0  0  0  0
   -6.1555   25.3896  -30.1989 H   0  0  0  0  0  0  0  0  0  0  0  0
   -7.7893   23.7124  -31.1324 H   0  0  0  0  0  0  0  0  0  0  0  0
   -2.8532   22.6942  -31.1198 H   0  0  0  0  0  0  0  0  0  0  0  0
   -3.7260   20.3450  -32.2940 H   0  0  0  0  0  0  0  0  0  0  0  0
   -4.8620   19.5019  -34.8688 H   0  0  0  0  0  0  0  0  0  0  0  0
   -5.2235   17.2729  -35.9305 H   0  0  0  0  0  0  0  0  0  0  0  0
   -6.6427   15.5610  -34.7956 H   0  0  0  0  0  0  0  0  0  0  0  0
   -7.6957   16.0755  -32.5897 H   0  0  0  0  0  0  0  0  0  0  0  0
   -7.3355   18.2997  -31.5199 H   0  0  0  0  0  0  0  0  0  0  0  0
   -8.7853   21.0675  -31.3236 H   0  0  0  0  0  0  0  0  0  0  0  0
   -8.7057   21.9777  -32.8701 H   0  0  0  0  0  0  0  0  0  0  0  0
   -8.5303   20.1900  -32.8701 H   0  0  0  0  0  0  0  0  0  0  0  0
  1  2  1  0
  2  3  2  0
  2  4  1  0
  4  5  1  0
  5  6  2  0
  6  7  1  0
  7  8  2  0
  8  9  1  0
  9 10  2  0
  9 11  1  0
 11 12  2  0
 12 13  1  0
 13 14  2  0
 14 15  1  0
 15 16  2  0
 16 17  1  0
 17 18  2  0
 12 19  1  0
 19 20  1  0
 10  5  1  0
 18 13  1  0
 19  8  1  0
  1 21  1  0
  1 22  1  0
  1 23  1  0
  6 24  1  0
  7 25  1  0
 10 26  1  0
 11 27  1  0
 14 28  1  0
 15 29  1  0
 16 30  1  0
 17 31  1  0
 18 32  1  0
 20 33  1  0
 20 34  1  0
 20 35  1  0
M  CHG  2   4  -1  11   1
M  END
>  <UniqueID>  (4) 
3

>  <SMILES>  (4) 
CC(=O)[N-]c1ccc2c(c1)[nH+]c(-c1ccccc1)n2C

>  <Energy>  (4) 
84.09514895646417

>  <Genealogy>  (4) 
CC(=O)[N-]c1ccc2c(c1)[nH+]c(-c1ccccc1)n2C (protonated)
CC(=O)[N-]c1ccc2c(c1)[nH+]c(-c1ccccc1)n2C (3D coordinates assigned)
CC(=O)[N-]c1ccc2c(c1)[nH+]c(-c1ccccc1)n2C (optimized conformer: 84.09514895646417 kcal/mol)

>  <smiles>  (4) 
CC(=O)Nc1ccc2c(c1)nc(-c1ccccc1)n2C

>  <score_type>  (4) 
oracle

>  <origin>  (4) 
adg

>  <m_score__min__energy>  (4) 
-9.1500000000000004

>  <m_primary>  (4) 
energy

$$$$
4:0
     RDKit          3D

 34 35  0  0  0  0  0  0  0  0999 V2000
   -5.4630   21.6350  -32.3020 C   0  0  0  0  0  0  0  0  0  0  0  0
   -4.8510   22.8300  -31.6470 C   0  0  0  0  0  0  0  0  0  0  0  0
   -5.3620   24.0360  -31.6710 O   0  0  0  0  0  0  0  0  0  0  0  0
   -4.5910   24.8490  -31.0110 N   0  0  0  0  0  0  0  0  0  0  0  0
   -3.5440   24.1930  -30.5310 N   0  0  0  0  0  0  0  0  0  0  0  0
   -3.6790   22.9100  -30.9170 C   0  0  0  0  0  0  0  0  0  0  0  0
   -2.7290   21.8160  -30.6030 C   0  0  0  0  0  0  0  0  0  0  0  0
   -1.5160   21.9510  -30.9120 O   0  0  0  0  0  0  0  0  0  0  0  0
   -3.1280   20.5980  -29.9590 N   0  0  0  0  0  0  0  0  0  0  0  0
   -3.1270   20.3410  -28.5230 C   0  0  0  0  0  0  0  0  0  0  0  0
   -1.6910   20.0690  -28.0330 C   0  0  1  0  0  0  0  0  0  0  0  0
   -0.7490   20.1240  -29.1530 N   0  0  0  0  0  0  0  0  0  0  0  0
   -1.2730   21.0770  -26.9430 C   0  0  0  0  0  0  0  0  0  0  0  0
   -1.3250   22.4930  -27.4560 C   0  0  0  0  0  0  0  0  0  0  0  0
   -2.4770   23.2760  -27.2720 C   0  0  0  0  0  0  0  0  0  0  0  0
   -2.5310   24.5800  -27.7740 C   0  0  0  0  0  0  0  0  0  0  0  0
   -1.4400   25.1100  -28.4700 C   0  0  0  0  0  0  0  0  0  0  0  0
   -1.4960   26.4050  -28.9670 O   0  0  0  0  0  0  0  0  0  0  0  0
   -0.2940   24.3330  -28.6650 C   0  0  0  0  0  0  0  0  0  0  0  0
   -0.2360   23.0290  -28.1650 C   0  0  0  0  0  0  0  0  0  0  0  0
   -5.8205   20.9370  -31.5307 H   0  0  0  0  0  0  0  0  0  0  0  0
   -6.3090   21.9535  -32.9288 H   0  0  0  0  0  0  0  0  0  0  0  0
   -4.7102   21.1346  -32.9288 H   0  0  0  0  0  0  0  0  0  0  0  0
   -3.5308   21.2183  -27.9964 H   0  0  0  0  0  0  0  0  0  0  0  0
   -3.7507   19.4590  -28.3153 H   0  0  0  0  0  0  0  0  0  0  0  0
   -1.6708   19.0599  -27.5957 H   0  0  0  0  0  0  0  0  0  0  0  0
   -0.3680   21.0950  -29.2400 H   0  0  0  0  0  0  0  0  0  0  0  0
   -1.2620   19.9080  -30.0380 H   0  0  0  0  0  0  0  0  0  0  0  0
   -1.9559   20.9813  -26.0860 H   0  0  0  0  0  0  0  0  0  0  0  0
   -0.2382   20.8545  -26.6436 H   0  0  0  0  0  0  0  0  0  0  0  0
   -3.3402   22.8614  -26.7307 H   0  0  0  0  0  0  0  0  0  0  0  0
   -3.4334   25.1901  -27.6211 H   0  0  0  0  0  0  0  0  0  0  0  0
    0.5641   24.7490  -29.2133 H   0  0  0  0  0  0  0  0  0  0  0  0
    0.6655   22.4198  -28.3270 H   0  0  0  0  0  0  0  0  0  0  0  0
  1  2  1  0
  2  3  1  0
  3  4  1  0
  4  5  2  0
  5  6  1  0
  6  7  1  0
  7  8  2  0
  7  9  1  0
  9 10  1  0
 10 11  1  0
 11 12  1  0
 11 13  1  0
 13 14  1  0
 14 15  2  0
 15 16  1  0
 16 17  2  0
 17 18  1  0
 17 19  1  0
 19 20  2  0
  6  2  2  0
 20 14  1  0
  1 21  1  0
  1 22  1  0
  1 23  1  0
 10 24  1  0
 10 25  1  0
 11 26  1  1
 12 27  1  0
 12 28  1  0
 13 29  1  0
 13 30  1  0
 15 31  1  0
 16 32  1  0
 19 33  1  0
 20 34  1  0
M  CHG  2   9  -1  18  -1
M  END
>  <UniqueID>  (5) 
4

>  <SMILES>  (5) 
Cc1onnc1C(=O)[N-]C[C@@H](N)Cc1ccc([O-])cc1

>  <Energy>  (5) 
64.7296179853778

>  <Genealogy>  (5) 
Cc1onnc1C(=O)[N-]CC(N)Cc1ccc([O-])cc1 (protonated)
Cc1onnc1C(=O)[N-]C[C@@H](N)Cc1ccc([O-])cc1 (chirality)
Cc1onnc1C(=O)[N-]C[C@@H](N)Cc1ccc([O-])cc1 (3D coordinates assigned)
Cc1onnc1C(=O)[N-]C[C@@H](N)Cc1ccc([O-])cc1 (optimized conformer: 64.7296179853778 kcal/mol)

>  <smiles>  (5) 
Cc1onnc1C(=O)NCC(N)Cc1ccc(O)cc1

>  <score_type>  (5) 
oracle

>  <origin>  (5) 
adg

>  <m_score__min__energy>  (5) 
-9.6799999999999997

>  <m_primary>  (5) 
energy

$$$$
5:0
     RDKit          3D

 38 41  0  0  1  0  0  0  0  0999 V2000
   -5.0180   23.1650  -29.2510 O   0  0  0  0  0  0  0  0  0  0  0  0
   -3.5320   23.1580  -29.5980 S   0  0  0  0  0  0  0  0  0  0  0  0
   -3.7420   24.4250  -30.5920 O   0  0  0  0  0  0  0  0  0  0  0  0
   -2.8480   22.2330  -30.6310 N   0  0  0  0  0  0  0  0  0  0  0  0
   -2.2590   21.8740  -31.5680 C   0  0  0  0  0  0  0  0  0  0  0  0
   -0.9750   21.7140  -31.7050 N   0  0  0  0  0  0  0  0  0  0  0  0
   -0.3260   21.3070  -32.8230 C   0  0  0  0  0  0  0  0  0  0  0  0
    0.9340   21.0810  -33.1800 N   0  0  0  0  0  0  0  0  0  0  0  0
    0.9430   20.6960  -34.4210 O   0  0  0  0  0  0  0  0  0  0  0  0
   -0.2890   20.6630  -34.8910 N   0  0  0  0  0  0  0  0  0  0  0  0
   -1.1110   21.0400  -33.9170 C   0  0  0  0  0  0  0  0  0  0  0  0
   -2.4400   21.1970  -33.8030 N   0  0  0  0  0  0  0  0  0  0  0  0
   -3.0600   21.5920  -32.7100 C   0  0  0  0  0  0  0  0  0  0  0  0
   -4.1990   21.7290  -32.5310 N   0  0  0  0  0  0  0  0  0  0  0  0
   -5.4480   21.6900  -32.3030 C   0  0  0  0  0  0  0  0  0  0  0  0
   -6.1910   22.8640  -32.0490 C   0  0  0  0  0  0  0  0  0  0  0  0
   -7.5390   22.8140  -31.8640 C   0  0  0  0  0  0  0  0  0  0  0  0
   -8.1460   21.5870  -31.9350 C   0  0  0  0  0  0  0  0  0  0  0  0
   -9.8700   21.5260  -31.6750 Cl  0  0  0  0  0  0  0  0  0  0  0  0
   -7.5030   20.3980  -32.1790 C   0  0  0  0  0  0  0  0  0  0  0  0
   -8.3870   18.8870  -32.2500 Cl  0  0  0  0  0  0  0  0  0  0  0  0
   -6.1530   20.4460  -32.3630 C   0  0  0  0  0  0  0  0  0  0  0  0
   -2.6490   24.1340  -28.4170 C   0  0  0  0  0  0  0  0  0  0  0  0
   -1.3910   24.6590  -28.7270 C   0  0  0  0  0  0  0  0  0  0  0  0
   -0.7160   25.4790  -27.8110 C   0  0  0  0  0  0  0  0  0  0  0  0
   -1.2800   25.7850  -26.5890 C   0  0  0  0  0  0  0  0  0  0  0  0
   -2.5190   25.2730  -26.2800 C   0  0  0  0  0  0  0  0  0  0  0  0
   -3.1560   24.4750  -27.1920 C   0  0  0  0  0  0  0  0  0  0  0  0
   -0.3450   21.9070  -30.8920 H   0  0  0  0  0  0  0  0  0  0  0  0
   -2.9940   20.9840  -34.6570 H   0  0  0  0  0  0  0  0  0  0  0  0
   -5.6729   23.8331  -31.9999 H   0  0  0  0  0  0  0  0  0  0  0  0
   -8.1205   23.7262  -31.6646 H   0  0  0  0  0  0  0  0  0  0  0  0
   -5.5985   19.5166  -32.5601 H   0  0  0  0  0  0  0  0  0  0  0  0
   -0.9269   24.4272  -29.6970 H   0  0  0  0  0  0  0  0  0  0  0  0
    0.2740   25.8828  -28.0694 H   0  0  0  0  0  0  0  0  0  0  0  0
   -0.7471   26.4283  -25.8733 H   0  0  0  0  0  0  0  0  0  0  0  0
   -2.9914   25.5017  -25.3133 H   0  0  0  0  0  0  0  0  0  0  0  0
   -4.1460   24.0795  -26.9210 H   0  0  0  0  0  0  0  0  0  0  0  0
  1  2  2  0
  2  3  2  0
  2  4  1  0
  4  5  2  0
  5  6  1  0
  6  7  1  0
  7  8  2  0
  8  9  1  0
  9 10  1  0
 10 11  2  0
 11 12  1  0
 12 13  1  0
 13 14  2  0
 14 15  1  0
 15 16  2  0
 16 17  1  0
 17 18  2  0
 18 19  1  0
 18 20  1  0
 20 21  1  0
 20 22  2  0
  2 23  1  0
 23 24  2  0
 24 25  1  0
 25 26  2  0
 26 27  1  0
 27 28  2  0
 13  5  1  0
 22 15  1  0
 28 23  1  0
 11  7  1  0
  6 29  1  0
 12 30  1  0
 16 31  1  0
 17 32  1  0
 22 33  1  0
 24 34  1  0
 25 35  1  0
 26 36  1  0
 27 37  1  0
 28 38  1  0
M  END
>  <smiles>  (6) 
O=S(=O)(N=c1[nH]c2nonc2[nH]c1=Nc1ccc(Cl)c(Cl)c1)c1ccccc1

>  <score_type>  (6) 
oracle

>  <origin>  (6) 
adg

>  <m_score__min__energy>  (6) 
-9.7799999999999994

>  <m_primary>  (6) 
energy

$$$$
6:0
     RDKit          3D

 46 48  0  0  0  0  0  0  0  0999 V2000
   -1.7780   21.4680  -31.9280 C   0  0  0  0  0  0  0  0  0  0  0  0
   -3.0860   20.9890  -32.3520 N   0  0  0  0  0  0  0  0  0  0  0  0
   -3.8330   20.0750  -31.7080 C   0  0  0  0  0  0  0  0  0  0  0  0
   -5.0310   19.9480  -32.3890 C   0  0  0  0  0  0  0  0  0  0  0  0
   -6.2460   19.1170  -32.0280 C   0  0  2  0  0  0  0  0  0  0  0  0
   -6.9560   18.4510  -33.2010 C   0  0  0  0  0  0  0  0  0  0  0  0
   -8.3590   18.1860  -32.6820 C   0  0  0  0  0  0  0  0  0  0  0  0
   -8.5150   19.0490  -31.4280 C   0  0  0  0  0  0  0  0  0  0  0  0
   -7.2780   19.8250  -31.2440 N   0  0  0  0  0  0  0  0  0  0  0  0
   -7.4670   21.2760  -31.5110 C   0  0  0  0  0  0  0  0  0  0  0  0
   -7.9030   22.1130  -30.2870 C   0  0  0  0  0  0  0  0  0  0  0  0
   -6.7860   23.0550  -29.8200 C   0  0  0  0  0  0  0  0  0  0  0  0
   -5.7030   23.1220  -30.8310 N   0  0  0  0  0  0  0  0  0  0  0  0
   -4.3590   22.9250  -30.2460 C   0  0  0  0  0  0  0  0  0  0  0  0
   -3.8300   24.2020  -29.5640 C   0  0  0  0  0  0  0  0  0  0  0  0
   -3.8600   25.3040  -30.4500 O   0  0  0  0  0  0  0  0  0  0  0  0
   -5.1920   25.5550  -30.8470 C   0  0  0  0  0  0  0  0  0  0  0  0
   -5.7480   24.3600  -31.6330 C   0  0  0  0  0  0  0  0  0  0  0  0
   -4.9490   20.8620  -33.4250 C   0  0  0  0  0  0  0  0  0  0  0  0
   -3.7550   21.4830  -33.3820 N   0  0  0  0  0  0  0  0  0  0  0  0
   -1.7322   21.4848  -30.8291 H   0  0  0  0  0  0  0  0  0  0  0  0
   -0.9980   20.7972  -32.3173 H   0  0  0  0  0  0  0  0  0  0  0  0
   -1.6157   22.4839  -32.3173 H   0  0  0  0  0  0  0  0  0  0  0  0
   -3.5431   19.5254  -30.8003 H   0  0  0  0  0  0  0  0  0  0  0  0
   -5.7716   18.3447  -31.4047 H   0  0  0  0  0  0  0  0  0  0  0  0
   -6.9822   19.1209  -34.0731 H   0  0  0  0  0  0  0  0  0  0  0  0
   -6.4493   17.5339  -33.5360 H   0  0  0  0  0  0  0  0  0  0  0  0
   -9.1061   18.4709  -33.4374 H   0  0  0  0  0  0  0  0  0  0  0  0
   -8.5112   17.1197  -32.4587 H   0  0  0  0  0  0  0  0  0  0  0  0
   -9.3681   19.7325  -31.5507 H   0  0  0  0  0  0  0  0  0  0  0  0
   -8.6968   18.4120  -30.5499 H   0  0  0  0  0  0  0  0  0  0  0  0
   -6.5138   21.6822  -31.8803 H   0  0  0  0  0  0  0  0  0  0  0  0
   -8.2854   21.3504  -32.2422 H   0  0  0  0  0  0  0  0  0  0  0  0
   -8.7843   22.7120  -30.5598 H   0  0  0  0  0  0  0  0  0  0  0  0
   -8.1370   21.4222  -29.4636 H   0  0  0  0  0  0  0  0  0  0  0  0
   -7.2020   24.0620  -29.6686 H   0  0  0  0  0  0  0  0  0  0  0  0
   -6.3684   22.6702  -28.8779 H   0  0  0  0  0  0  0  0  0  0  0  0
   -4.4122   22.1198  -29.4984 H   0  0  0  0  0  0  0  0  0  0  0  0
   -3.6689   22.6668  -31.0627 H   0  0  0  0  0  0  0  0  0  0  0  0
   -4.4572   24.4278  -28.6890 H   0  0  0  0  0  0  0  0  0  0  0  0
   -2.7875   24.0281  -29.2590 H   0  0  0  0  0  0  0  0  0  0  0  0
   -5.8116   25.7215  -29.9535 H   0  0  0  0  0  0  0  0  0  0  0  0
   -5.2114   26.4467  -31.4908 H   0  0  0  0  0  0  0  0  0  0  0  0
   -6.7915   24.5687  -31.9114 H   0  0  0  0  0  0  0  0  0  0  0  0
   -5.1271   24.2153  -32.5294 H   0  0  0  0  0  0  0  0  0  0  0  0
   -5.7372   21.0518  -34.1685 H   0  0  0  0  0  0  0  0  0  0  0  0
  1  2  1  0
  2  3  1  0
  3  4  2  0
  4  5  1  0
  5  6  1  0
  6  7  1  0
  7  8  1  0
  8  9  1  0
  9 10  1  0
 10 11  1  0
 11 12  1  0
 12 13  1  0
 13 14  1  0
 14 15  1  0
 15 16  1  0
 16 17  1  0
 17 18  1  0
  4 19  1  0
 19 20  2  0
 20  2  1  0
  9  5  1  0
 18 13  1  0
  1 21  1  0
  1 22  1  0
  1 23  1  0
  3 24  1  0
  5 25  1  1
  6 26  1  0
  6 27  1  0
  7 28  1  0
  7 29  1  0
  8 30  1  0
  8 31  1  0
 10 32  1  0
 10 33  1  0
 11 34  1  0
 11 35  1  0
 12 36  1  0
 12 37  1  0
 14 38  1  0
 14 39  1  0
 15 40  1  0
 15 41  1  0
 17 42  1  0
 17 43  1  0
 18 44  1  0
 18 45  1  0
 19 46  1  0
M  END
>  <UniqueID>  (7) 
5

>  <SMILES>  (7) 
Cn1cc([C@@H]2CCCN2CCCN2CCOCC2)cn1

>  <Energy>  (7) 
89.05611536550225

>  <Genealogy>  (7) 
Cn1cc([C@@H]2CCCN2CCCN2CCOCC2)cn1 (chirality)
Cn1cc([C@@H]2CCCN2CCCN2CCOCC2)cn1 (3D coordinates assigned)
Cn1cc([C@@H]2CCCN2CCCN2CCOCC2)cn1 (nonaromatic ring conformer: 89.05611536550225 kcal/mol)

>  <smiles>  (7) 
Cn1cc(C2CCCN2CCCN2CCOCC2)cn1

>  <score_type>  (7) 
oracle

>  <origin>  (7) 
adg

>  <m_score__min__energy>  (7) 
-7.6100000000000003

>  <m_primary>  (7) 
energy

$$$$
7:0
     RDKit          3D

 59 61  0  0  1  0  0  0  0  0999 V2000
   -8.4900   18.1790  -31.6110 C   0  0  0  0  0  0  0  0  0  0  0  0
   -9.1160   19.5670  -31.7890 C   0  0  0  0  0  0  0  0  0  0  0  0
   -8.4960   20.1360  -33.0430 C   0  0  0  0  0  0  0  0  0  0  0  0
   -7.2010   20.7210  -32.8370 N   0  0  0  0  0  0  0  0  0  0  0  0
   -6.0650   20.0340  -33.0510 C   0  0  0  0  0  0  0  0  0  0  0  0
   -6.0930   18.8350  -33.4450 O   0  0  0  0  0  0  0  0  0  0  0  0
   -4.8400   20.6360  -32.8400 C   0  0  0  0  0  0  0  0  0  0  0  0
   -3.5530   20.2580  -32.9510 N   0  0  0  0  0  0  0  0  0  0  0  0
   -2.7580   21.2930  -32.6030 C   0  0  0  0  0  0  0  0  0  0  0  0
   -1.2910   21.3280  -32.5750 C   0  0  0  0  0  0  0  0  0  0  0  0
   -0.6560   21.4060  -31.4200 C   0  0  0  0  0  0  0  0  0  0  0  0
   -1.2300   21.9910  -30.2170 C   0  0  0  0  0  0  0  0  0  0  0  0
   -1.7120   21.2460  -29.1640 C   0  0  0  0  0  0  0  0  0  0  0  0
   -2.2510   21.8650  -28.0390 C   0  0  0  0  0  0  0  0  0  0  0  0
   -2.7340   21.1040  -26.9800 O   0  0  0  0  0  0  0  0  0  0  0  0
   -2.2470   19.7900  -26.7720 C   0  0  0  0  0  0  0  0  0  0  0  0
   -2.3180   23.2350  -27.9440 C   0  0  0  0  0  0  0  0  0  0  0  0
   -2.8460   23.8970  -26.8450 O   0  0  0  0  0  0  0  0  0  0  0  0
   -4.1200   24.4980  -26.9840 C   0  0  0  0  0  0  0  0  0  0  0  0
   -1.8400   23.9970  -28.9910 C   0  0  0  0  0  0  0  0  0  0  0  0
   -1.9040   25.3810  -28.9040 O   0  0  0  0  0  0  0  0  0  0  0  0
   -1.1670   26.0840  -27.9320 C   0  0  0  0  0  0  0  0  0  0  0  0
   -1.3110   23.3620  -30.0960 C   0  0  0  0  0  0  0  0  0  0  0  0
   -3.5740   22.3150  -32.2750 N   0  0  0  0  0  0  0  0  0  0  0  0
   -4.8580   21.9440  -32.4100 C   0  0  0  0  0  0  0  0  0  0  0  0
   -5.9960   22.6360  -32.1940 N   0  0  0  0  0  0  0  0  0  0  0  0
   -5.9710   24.0230  -31.7380 C   0  0  0  0  0  0  0  0  0  0  0  0
   -5.6290   24.0120  -30.2580 C   0  0  0  0  0  0  0  0  0  0  0  0
   -6.1260   25.2900  -29.6150 C   0  0  0  0  0  0  0  0  0  0  0  0
   -7.1770   22.0180  -32.4100 C   0  0  0  0  0  0  0  0  0  0  0  0
   -8.2500   22.6490  -32.2130 O   0  0  0  0  0  0  0  0  0  0  0  0
   -8.3898   17.9568  -30.5383 H   0  0  0  0  0  0  0  0  0  0  0  0
   -9.1342   17.4229  -32.0835 H   0  0  0  0  0  0  0  0  0  0  0  0
   -7.4968   18.1614  -32.0835 H   0  0  0  0  0  0  0  0  0  0  0  0
  -10.2068   19.4841  -31.9038 H   0  0  0  0  0  0  0  0  0  0  0  0
   -8.9318   20.2109  -30.9163 H   0  0  0  0  0  0  0  0  0  0  0  0
   -8.3966   19.3248  -33.7792 H   0  0  0  0  0  0  0  0  0  0  0  0
   -9.1593   20.9419  -33.3902 H   0  0  0  0  0  0  0  0  0  0  0  0
   -3.2170   19.3180  -33.2560 H   0  0  0  0  0  0  0  0  0  0  0  0
   -0.7212   21.2893  -33.5151 H   0  0  0  0  0  0  0  0  0  0  0  0
    0.3669   21.0054  -31.3635 H   0  0  0  0  0  0  0  0  0  0  0  0
   -1.6708   20.1478  -29.2121 H   0  0  0  0  0  0  0  0  0  0  0  0
   -2.1739   19.5927  -25.6923 H   0  0  0  0  0  0  0  0  0  0  0  0
   -2.9367   19.0664  -27.2311 H   0  0  0  0  0  0  0  0  0  0  0  0
   -1.2523   19.6907  -27.2311 H   0  0  0  0  0  0  0  0  0  0  0  0
   -4.5421   24.6971  -25.9879 H   0  0  0  0  0  0  0  0  0  0  0  0
   -4.0208   25.4443  -27.5360 H   0  0  0  0  0  0  0  0  0  0  0  0
   -4.7872   23.8197  -27.5360 H   0  0  0  0  0  0  0  0  0  0  0  0
   -1.4932   25.7729  -26.9286 H   0  0  0  0  0  0  0  0  0  0  0  0
   -0.0961   25.8643  -28.0540 H   0  0  0  0  0  0  0  0  0  0  0  0
   -1.3359   27.1641  -28.0540 H   0  0  0  0  0  0  0  0  0  0  0  0
   -0.9344   23.9817  -30.9231 H   0  0  0  0  0  0  0  0  0  0  0  0
   -5.2090   24.5877  -32.2952 H   0  0  0  0  0  0  0  0  0  0  0  0
   -6.9461   24.5034  -31.9063 H   0  0  0  0  0  0  0  0  0  0  0  0
   -6.1108   23.1481  -29.7768 H   0  0  0  0  0  0  0  0  0  0  0  0
   -4.5384   23.9397  -30.1344 H   0  0  0  0  0  0  0  0  0  0  0  0
   -6.0867   25.1890  -28.5203 H   0  0  0  0  0  0  0  0  0  0  0  0
   -5.4890   26.1301  -29.9288 H   0  0  0  0  0  0  0  0  0  0  0  0
   -7.1632   25.4791  -29.9288 H   0  0  0  0  0  0  0  0  0  0  0  0
  1  2  1  0
  2  3  1  0
  3  4  1  0
  4  5  1  0
  5  6  2  0
  5  7  1  0
  7  8  1  0
  8  9  1  0
  9 10  1  0
 10 11  2  0
 11 12  1  0
 12 13  2  0
 13 14  1  0
 14 15  1  0
 15 16  1  0
 14 17  2  0
 17 18  1  0
 18 19  1  0
 17 20  1  0
 20 21  1  0
 21 22  1  0
 20 23  2  0
  9 24  2  0
 24 25  1  0
 25 26  1  0
 26 27  1  0
 27 28  1  0
 28 29  1  0
 26 30  1  0
 30 31  2  0
 30  4  1  0
 25  7  2  0
 23 12  1  0
  1 32  1  0
  1 33  1  0
  1 34  1  0
  2 35  1  0
  2 36  1  0
  3 37  1  0
  3 38  1  0
  8 39  1  0
 10 40  1  0
 11 41  1  0
 13 42  1  0
 16 43  1  0
 16 44  1  0
 16 45  1  0
 19 46  1  0
 19 47  1  0
 19 48  1  0
 22 49  1  0
 22 50  1  0
 22 51  1  0
 23 52  1  0
 27 53  1  0
 27 54  1  0
 28 55  1  0
 28 56  1  0
 29 57  1  0
 29 58  1  0
 29 59  1  0
M  END
>  <smiles>  (8) 
CCCn1c(=O)c2[nH]c(C=Cc3cc(OC)c(OC)c(OC)c3)nc2n(CCC)c1=O

>  <score_type>  (8) 
oracle

>  <origin>  (8) 
adg

>  <m_score__min__energy>  (8) 
-8.3200000000000003

>  <m_primary>  (8) 
energy

$$$$
8:0
     RDKit          3D

 40 42  0  0  0  0  0  0  0  0999 V2000
   -9.5040   21.4130  -32.3330 C   0  0  0  0  0  0  0  0  0  0  0  0
   -8.6730   22.2310  -31.4020 C   0  0  0  0  0  0  0  0  0  0  0  0
   -8.3230   21.9180  -30.1030 C   0  0  0  0  0  0  0  0  0  0  0  0
   -7.4760   22.8570  -29.6370 N   0  0  0  0  0  0  0  0  0  0  0  0
   -7.2870   23.7430  -30.6040 N   0  0  0  0  0  0  0  0  0  0  0  0
   -6.3740   24.8780  -30.5020 C   0  0  0  0  0  0  0  0  0  0  0  0
   -5.0280   24.5590  -31.1770 C   0  0  2  0  0  0  0  0  0  0  0  0
   -4.8210   23.0400  -31.3970 C   0  0  0  0  0  0  0  0  0  0  0  0
   -3.3780   22.7570  -31.3940 N   0  0  0  0  0  0  0  0  0  0  0  0
   -3.0370   21.4020  -31.8790 C   0  0  0  0  0  0  0  0  0  0  0  0
   -4.2390   20.5580  -32.2330 C   0  0  0  0  0  0  0  0  0  0  0  0
   -4.7380   20.5270  -33.5440 C   0  0  0  0  0  0  0  0  0  0  0  0
   -5.8490   19.7320  -33.8370 C   0  0  0  0  0  0  0  0  0  0  0  0
   -6.4530   18.9850  -32.8250 C   0  0  0  0  0  0  0  0  0  0  0  0
   -5.9360   19.0450  -31.5290 C   0  0  0  0  0  0  0  0  0  0  0  0
   -4.8540   19.8240  -31.2640 N   0  0  0  0  0  0  0  0  0  0  0  0
   -2.7770   23.0770  -30.0840 C   0  0  0  0  0  0  0  0  0  0  0  0
   -3.4240   24.3330  -29.4680 C   0  0  0  0  0  0  0  0  0  0  0  0
   -3.9560   25.1790  -30.4700 O   0  0  0  0  0  0  0  0  0  0  0  0
   -7.9850   23.3860  -31.7000 C   0  0  0  0  0  0  0  0  0  0  0  0
  -10.1694   20.7581  -31.7513 H   0  0  0  0  0  0  0  0  0  0  0  0
  -10.1077   22.0790  -32.9670 H   0  0  0  0  0  0  0  0  0  0  0  0
   -8.8476   20.7989  -32.9670 H   0  0  0  0  0  0  0  0  0  0  0  0
   -8.6785   21.0428  -29.5394 H   0  0  0  0  0  0  0  0  0  0  0  0
   -6.8269   25.7507  -30.9953 H   0  0  0  0  0  0  0  0  0  0  0  0
   -6.1932   25.0906  -29.4380 H   0  0  0  0  0  0  0  0  0  0  0  0
   -5.0420   24.9914  -32.1883 H   0  0  0  0  0  0  0  0  0  0  0  0
   -5.3103   22.4784  -30.5875 H   0  0  0  0  0  0  0  0  0  0  0  0
   -5.2611   22.7365  -32.3584 H   0  0  0  0  0  0  0  0  0  0  0  0
   -2.4086   21.5032  -32.7761 H   0  0  0  0  0  0  0  0  0  0  0  0
   -2.5182   20.8893  -31.0556 H   0  0  0  0  0  0  0  0  0  0  0  0
   -4.2587   21.1234  -34.3343 H   0  0  0  0  0  0  0  0  0  0  0  0
   -6.2462   19.6951  -34.8621 H   0  0  0  0  0  0  0  0  0  0  0  0
   -7.3275   18.3553  -33.0457 H   0  0  0  0  0  0  0  0  0  0  0  0
   -6.4045   18.4618  -30.7225 H   0  0  0  0  0  0  0  0  0  0  0  0
   -2.9255   22.2259  -29.4032 H   0  0  0  0  0  0  0  0  0  0  0  0
   -1.7045   23.2728  -30.2304 H   0  0  0  0  0  0  0  0  0  0  0  0
   -4.2348   24.0239  -28.7919 H   0  0  0  0  0  0  0  0  0  0  0  0
   -2.6504   24.8888  -28.9178 H   0  0  0  0  0  0  0  0  0  0  0  0
   -8.0021   23.9214  -32.6608 H   0  0  0  0  0  0  0  0  0  0  0  0
  1  2  1  0
  2  3  1  0
  3  4  2  0
  4  5  1  0
  5  6  1  0
  6  7  1  0
  7  8  1  0
  8  9  1  0
  9 10  1  0
 10 11  1  0
 11 12  2  0
 12 13  1  0
 13 14  2  0
 14 15  1  0
 15 16  2  0
  9 17  1  0
 17 18  1  0
 18 19  1  0
  5 20  1  0
 20  2  2  0
 19  7  1  0
 16 11  1  0
  1 21  1  0
  1 22  1  0
  1 23  1  0
  3 24  1  0
  6 25  1  0
  6 26  1  0
  7 27  1  6
  8 28  1  0
  8 29  1  0
 10 30  1  0
 10 31  1  0
 12 32  1  0
 13 33  1  0
 14 34  1  0
 15 35  1  0
 17 36  1  0
 17 37  1  0
 18 38  1  0
 18 39  1  0
 20 40  1  0
M  END
>  <UniqueID>  (9) 
6

>  <SMILES>  (9) 
Cc1cnn(C[C@@H]2CN(Cc3ccccn3)CCO2)c1

>  <Energy>  (9) 
80.5307493607341

>  <Genealogy>  (9) 
Cc1cnn(C[C@@H]2CN(Cc3ccccn3)CCO2)c1 (chirality)
Cc1cnn(C[C@@H]2CN(Cc3ccccn3)CCO2)c1 (3D coordinates assigned)
Cc1cnn(C[C@@H]2CN(Cc3ccccn3)CCO2)c1 (nonaromatic ring conformer: 80.5307493607341 kcal/mol)

>  <smiles>  (9) 
Cc1cnn(CC2CN(Cc3ccccn3)CCO2)c1

>  <score_type>  (9) 
oracle

>  <origin>  (9) 
adg

>  <m_score__min__energy>  (9) 
-7.7000000000000002

>  <m_primary>  (9) 
energy

$$$$
9:0
     RDKit          3D

 52 55  0  0  1  0  0  0  0  0999 V2000
   -3.7220   23.4960  -30.6400 C   0  0  0  0  0  0  0  0  0  0  0  0
   -4.1680   24.7980  -30.6510 O   0  0  0  0  0  0  0  0  0  0  0  0
   -5.4240   24.8670  -31.1970 C   0  0  2  0  0  0  0  0  0  0  0  0
   -6.5100   24.8900  -30.1120 C   0  0  0  0  0  0  0  0  0  0  0  0
   -6.8260   23.4850  -29.7350 C   0  0  0  0  0  0  0  0  0  0  0  0
   -7.7330   22.7910  -30.8060 C   0  0  2  0  0  0  0  0  0  0  0  0
   -7.1350   21.6310  -31.0370 N   0  0  0  0  0  0  0  0  0  0  0  0
   -7.3460   20.6060  -31.6720 C   0  0  0  0  0  0  0  0  0  0  0  0
   -8.5810   20.0840  -31.7480 N   0  0  0  0  0  0  0  0  0  0  0  0
   -8.8790   18.9490  -32.4010 C   0  0  0  0  0  0  0  0  0  0  0  0
   -7.8760   18.2950  -33.0170 N   0  0  0  0  0  0  0  0  0  0  0  0
   -6.6300   18.7960  -32.9560 C   0  0  0  0  0  0  0  0  0  0  0  0
   -5.6410   18.1000  -33.6000 C   0  0  0  0  0  0  0  0  0  0  0  0
   -4.3710   18.6320  -33.5320 C   0  0  0  0  0  0  0  0  0  0  0  0
   -4.0440   19.7830  -32.8780 C   0  0  0  0  0  0  0  0  0  0  0  0
   -2.6630   20.2540  -32.8740 C   0  0  0  0  0  0  0  0  0  0  0  0
   -2.0020   20.4460  -31.6620 C   0  0  0  0  0  0  0  0  0  0  0  0
   -0.7060   20.8890  -31.6010 C   0  0  0  0  0  0  0  0  0  0  0  0
   -0.0350   21.1530  -32.7670 C   0  0  0  0  0  0  0  0  0  0  0  0
   -0.6660   20.9720  -33.9840 C   0  0  0  0  0  0  0  0  0  0  0  0
   -0.0020   21.2380  -35.2820 C   0  0  0  0  0  0  0  0  0  0  0  0
    0.2450   22.6190  -35.3370 O   0  0  0  0  0  0  0  0  0  0  0  0
   -1.9800   20.5220  -34.0390 C   0  0  0  0  0  0  0  0  0  0  0  0
   -5.0660   20.5010  -32.2140 C   0  0  0  0  0  0  0  0  0  0  0  0
   -6.3060   19.9600  -32.2910 C   0  0  0  0  0  0  0  0  0  0  0  0
   -7.2280   23.5730  -32.1190 C   0  0  0  0  0  0  0  0  0  0  0  0
   -5.7370   23.5950  -32.0010 C   0  0  0  0  0  0  0  0  0  0  0  0
   -3.6059   23.1570  -29.6000 H   0  0  0  0  0  0  0  0  0  0  0  0
   -4.4515   22.8542  -31.1556 H   0  0  0  0  0  0  0  0  0  0  0  0
   -2.7522   23.4363  -31.1556 H   0  0  0  0  0  0  0  0  0  0  0  0
   -5.4292   25.7791  -31.8119 H   0  0  0  0  0  0  0  0  0  0  0  0
   -6.1438   25.4378  -29.2312 H   0  0  0  0  0  0  0  0  0  0  0  0
   -7.4125   25.3923  -30.4905 H   0  0  0  0  0  0  0  0  0  0  0  0
   -5.8866   22.9202  -29.6428 H   0  0  0  0  0  0  0  0  0  0  0  0
   -7.3711   23.4994  -28.7797 H   0  0  0  0  0  0  0  0  0  0  0  0
   -8.8047   22.7480  -30.5620 H   0  0  0  0  0  0  0  0  0  0  0  0
   -9.4010   20.5620  -31.2800 H   0  0  0  0  0  0  0  0  0  0  0  0
   -9.9096   18.5658  -32.4317 H   0  0  0  0  0  0  0  0  0  0  0  0
   -5.8493   17.1661  -34.1426 H   0  0  0  0  0  0  0  0  0  0  0  0
   -3.5624   18.0883  -34.0426 H   0  0  0  0  0  0  0  0  0  0  0  0
   -2.5373   20.2353  -30.7244 H   0  0  0  0  0  0  0  0  0  0  0  0
   -0.2109   21.0308  -30.6290 H   0  0  0  0  0  0  0  0  0  0  0  0
    1.0054   21.5088  -32.7344 H   0  0  0  0  0  0  0  0  0  0  0  0
    0.9448   20.6814  -35.3439 H   0  0  0  0  0  0  0  0  0  0  0  0
   -0.6356   20.9171  -36.1220 H   0  0  0  0  0  0  0  0  0  0  0  0
   -0.5490   23.0550  -35.7350 H   0  0  0  0  0  0  0  0  0  0  0  0
   -2.4734   20.3802  -35.0119 H   0  0  0  0  0  0  0  0  0  0  0  0
   -4.8673   21.4368  -31.6710 H   0  0  0  0  0  0  0  0  0  0  0  0
   -7.5367   23.0398  -33.0303 H   0  0  0  0  0  0  0  0  0  0  0  0
   -7.6539   24.5848  -32.1891 H   0  0  0  0  0  0  0  0  0  0  0  0
   -5.3775   22.7021  -31.4686 H   0  0  0  0  0  0  0  0  0  0  0  0
   -5.2432   23.5938  -32.9839 H   0  0  0  0  0  0  0  0  0  0  0  0
  1  2  1  0
  2  3  1  0
  3  4  1  0
  4  5  1  0
  5  6  1  0
  6  7  1  0
  7  8  2  0
  8  9  1  0
  9 10  1  0
 10 11  2  0
 11 12  1  0
 12 13  2  0
 13 14  1  0
 14 15  2  0
 15 16  1  0
 16 17  2  0
 17 18  1  0
 18 19  2  0
 19 20  1  0
 20 21  1  0
 21 22  1  0
 20 23  2  0
 15 24  1  0
 24 25  2  0
  6 26  1  0
 26 27  1  0
 27  3  1  0
 25  8  1  0
 25 12  1  0
 23 16  1  0
  1 28  1  0
  1 29  1  0
  1 30  1  0
  3 31  1  6
  4 32  1  0
  4 33  1  0
  5 34  1  0
  5 35  1  0
  6 36  1  1
  9 37  1  0
 10 38  1  0
 13 39  1  0
 14 40  1  0
 17 41  1  0
 18 42  1  0
 19 43  1  0
 21 44  1  0
 21 45  1  0
 22 46  1  0
 23 47  1  0
 24 48  1  0
 26 49  1  0
 26 50  1  0
 27 51  1  0
 27 52  1  0
M  END
>  <smiles>  (10) 
COC1CCC(N=c2[nH]cnc3ccc(-c4cccc(CO)c4)cc23)CC1

>  <score_type>  (10) 
oracle

>  <origin>  (10) 
adg

>  <m_score__min__energy>  (10) 
-10.08

>  <m_primary>  (10) 
energy

$$$$
10:0
     RDKit          3D

 54 57  0  0  0  0  0  0  0  0999 V2000
   -1.9800   20.4920  -30.0300 C   0  0  0  0  0  0  0  0  0  0  0  0
   -1.7360   20.1020  -31.3620 O   0  0  0  0  0  0  0  0  0  0  0  0
   -2.8400   19.8230  -32.1780 C   0  0  0  0  0  0  0  0  0  0  0  0
   -4.1230   20.1570  -31.7970 C   0  0  0  0  0  0  0  0  0  0  0  0
   -5.2300   19.8820  -32.6070 C   0  0  0  0  0  0  0  0  0  0  0  0
   -6.5510   20.2910  -32.1650 C   0  0  0  0  0  0  0  0  0  0  0  0
   -7.4910   19.2530  -32.0600 C   0  0  0  0  0  0  0  0  0  0  0  0
   -8.7710   19.4860  -31.6260 C   0  0  0  0  0  0  0  0  0  0  0  0
   -9.1130   20.7630  -31.2940 C   0  0  0  0  0  0  0  0  0  0  0  0
   -8.1960   21.8050  -31.3910 C   0  0  0  0  0  0  0  0  0  0  0  0
   -6.8880   21.5870  -31.8320 C   0  0  0  0  0  0  0  0  0  0  0  0
   -5.7630   22.8970  -32.0060 S   0  0  0  0  0  0  0  0  0  0  0  0
   -4.7330   22.5470  -33.0300 O   0  0  0  0  0  0  0  0  0  0  0  0
   -6.4740   24.1790  -32.3980 O   0  0  0  0  0  0  0  0  0  0  0  0
   -4.9120   23.1630  -30.5270 N   0  0  0  0  0  0  0  0  0  0  0  0
   -3.5160   23.3890  -30.7790 C   0  0  0  0  0  0  0  0  0  0  0  0
   -5.5450   24.1730  -29.7170 C   0  0  0  0  0  0  0  0  0  0  0  0
   -4.9600   19.2620  -33.8010 C   0  0  0  0  0  0  0  0  0  0  0  0
   -3.6720   18.9170  -34.2010 C   0  0  0  0  0  0  0  0  0  0  0  0
   -2.5950   19.1990  -33.3840 C   0  0  0  0  0  0  0  0  0  0  0  0
   -1.2270   18.8600  -33.7550 C   0  0  0  0  0  0  0  0  0  0  0  0
   -0.6290   17.6210  -33.8690 C   0  0  0  0  0  0  0  0  0  0  0  0
    0.6500   17.8340  -34.2380 N   0  0  0  0  0  0  0  0  0  0  0  0
    1.6050   16.7650  -34.4610 C   0  0  0  0  0  0  0  0  0  0  0  0
    0.8880   19.1570  -34.3630 C   0  0  0  0  0  0  0  0  0  0  0  0
    1.9840   19.8720  -34.7030 N   0  0  0  0  0  0  0  0  0  0  0  0
    1.9460   21.2330  -34.7520 C   0  0  0  0  0  0  0  0  0  0  0  0
    0.7960   21.9070  -34.4570 N   0  0  0  0  0  0  0  0  0  0  0  0
   -0.3110   21.2130  -34.1150 C   0  0  0  0  0  0  0  0  0  0  0  0
   -1.4350   21.8070  -33.8250 N   0  0  0  0  0  0  0  0  0  0  0  0
   -0.2820   19.8290  -34.0630 C   0  0  0  0  0  0  0  0  0  0  0  0
   -1.5236   19.7624  -29.3449 H   0  0  0  0  0  0  0  0  0  0  0  0
   -1.5420   21.4854  -29.8527 H   0  0  0  0  0  0  0  0  0  0  0  0
   -3.0649   20.5326  -29.8527 H   0  0  0  0  0  0  0  0  0  0  0  0
   -4.2802   20.6539  -30.8283 H   0  0  0  0  0  0  0  0  0  0  0  0
   -7.1939   18.2294  -32.3321 H   0  0  0  0  0  0  0  0  0  0  0  0
   -9.5003   18.6662  -31.5481 H   0  0  0  0  0  0  0  0  0  0  0  0
  -10.1338   20.9739  -30.9426 H   0  0  0  0  0  0  0  0  0  0  0  0
   -8.5076   22.8230  -31.1144 H   0  0  0  0  0  0  0  0  0  0  0  0
   -2.9801   23.4758  -29.8223 H   0  0  0  0  0  0  0  0  0  0  0  0
   -3.1059   22.5455  -31.3538 H   0  0  0  0  0  0  0  0  0  0  0  0
   -3.3930   24.3188  -31.3538 H   0  0  0  0  0  0  0  0  0  0  0  0
   -5.3965   23.9361  -28.6531 H   0  0  0  0  0  0  0  0  0  0  0  0
   -5.0998   25.1539  -29.9398 H   0  0  0  0  0  0  0  0  0  0  0  0
   -6.6219   24.2000  -29.9398 H   0  0  0  0  0  0  0  0  0  0  0  0
   -5.7991   19.0270  -34.4723 H   0  0  0  0  0  0  0  0  0  0  0  0
   -3.5120   18.4193  -35.1688 H   0  0  0  0  0  0  0  0  0  0  0  0
   -1.1055   16.6454  -33.6923 H   0  0  0  0  0  0  0  0  0  0  0  0
    1.9526   16.3759  -33.4926 H   0  0  0  0  0  0  0  0  0  0  0  0
    1.1235   15.9559  -35.0297 H   0  0  0  0  0  0  0  0  0  0  0  0
    2.4631   17.1526  -35.0297 H   0  0  0  0  0  0  0  0  0  0  0  0
    2.8880   19.3980  -34.9360 H   0  0  0  0  0  0  0  0  0  0  0  0
    2.8500   21.7938  -35.0318 H   0  0  0  0  0  0  0  0  0  0  0  0
   -1.8070   21.6770  -32.8540 H   0  0  0  0  0  0  0  0  0  0  0  0
  1  2  1  0
  2  3  1  0
  3  4  2  0
  4  5  1  0
  5  6  1  0
  6  7  2  0
  7  8  1  0
  8  9  2  0
  9 10  1  0
 10 11  2  0
 11 12  1  0
 12 13  2  0
 12 14  2  0
 12 15  1  0
 15 16  1  0
 15 17  1  0
  5 18  2  0
 18 19  1  0
 19 20  2  0
 20 21  1  0
 21 22  2  0
 22 23  1  0
 23 24  1  0
 23 25  1  0
 25 26  1  0
 26 27  1  0
 27 28  2  0
 28 29  1  0
 29 30  2  3
 29 31  1  0
 20  3  1  0
 31 21  1  0
 11  6  1  0
 31 25  2  0
  1 32  1  0
  1 33  1  0
  1 34  1  0
  4 35  1  0
  7 36  1  0
  8 37  1  0
  9 38  1  0
 10 39  1  0
 16 40  1  0
 16 41  1  0
 16 42  1  0
 17 43  1  0
 17 44  1  0
 17 45  1  0
 18 46  1  0
 19 47  1  0
 22 48  1  0
 24 49  1  0
 24 50  1  0
 24 51  1  0
 26 52  1  0
 27 53  1  0
 30 54  1  0
M  END
>  <smiles>  (11) 
COc1cc(-c2ccccc2S(=O)(=O)N(C)C)ccc1-c1cn(C)c2[nH]cnc(=N)c12

>  <score_type>  (11) 
oracle

>  <origin>  (11) 
adg

>  <m_score__min__energy>  (11) 
-9.0500000000000007

>  <m_primary>  (11) 
energy

$$$$
11:0
     RDKit          3D

 44 45  0  0  0  0  0  0  0  0999 V2000
   -9.2370   21.9240  -30.8530 C   0  0  0  0  0  0  0  0  0  0  0  0
   -8.4310   22.6220  -31.9560 C   0  0  0  0  0  0  0  0  0  0  0  0
   -7.1710   21.9080  -32.2700 N   0  0  1  0  0  0  0  0  0  0  0  0
   -6.2510   21.8460  -31.1050 C   0  0  0  0  0  0  0  0  0  0  0  0
   -5.3080   23.0280  -30.9730 C   0  0  0  0  0  0  0  0  0  0  0  0
   -5.6010   24.3190  -30.5470 C   0  0  0  0  0  0  0  0  0  0  0  0
   -6.9200   24.8620  -30.0960 C   0  0  0  0  0  0  0  0  0  0  0  0
   -4.4710   25.0490  -30.5240 N   0  0  0  0  0  0  0  0  0  0  0  0
   -3.4990   24.2670  -30.8930 O   0  0  0  0  0  0  0  0  0  0  0  0
   -3.9330   23.0580  -31.1590 C   0  0  0  0  0  0  0  0  0  0  0  0
   -3.0200   21.9240  -31.5000 C   0  0  0  0  0  0  0  0  0  0  0  0
   -7.4250   20.5900  -32.8290 C   0  0  0  0  0  0  0  0  0  0  0  0
   -8.6150   20.2070  -33.0120 O   0  0  0  0  0  0  0  0  0  0  0  0
   -6.3200   19.6570  -33.1750 C   0  0  0  0  0  0  0  0  0  0  0  0
   -5.0060   20.1130  -33.3820 C   0  0  0  0  0  0  0  0  0  0  0  0
   -3.9820   19.2180  -33.7280 C   0  0  0  0  0  0  0  0  0  0  0  0
   -2.5800   19.7180  -33.9190 C   0  0  0  0  0  0  0  0  0  0  0  0
   -4.2680   17.8510  -33.8440 C   0  0  0  0  0  0  0  0  0  0  0  0
   -5.5740   17.3800  -33.6490 C   0  0  0  0  0  0  0  0  0  0  0  0
   -5.8880   15.9250  -33.8360 C   0  0  0  0  0  0  0  0  0  0  0  0
   -6.5980   18.2880  -33.3440 C   0  0  0  0  0  0  0  0  0  0  0  0
   -8.8660   22.2453  -29.8686 H   0  0  0  0  0  0  0  0  0  0  0  0
  -10.2994   22.1920  -30.9498 H   0  0  0  0  0  0  0  0  0  0  0  0
   -9.1235   20.8342  -30.9498 H   0  0  0  0  0  0  0  0  0  0  0  0
   -9.0462   22.6708  -32.8666 H   0  0  0  0  0  0  0  0  0  0  0  0
   -8.1670   23.6270  -31.5949 H   0  0  0  0  0  0  0  0  0  0  0  0
   -6.6690   22.4940  -32.9730 H   0  0  0  0  0  0  0  0  0  0  0  0
   -6.8603   21.7909  -30.1908 H   0  0  0  0  0  0  0  0  0  0  0  0
   -5.6168   20.9605  -31.2590 H   0  0  0  0  0  0  0  0  0  0  0  0
   -6.9542   24.8761  -28.9966 H   0  0  0  0  0  0  0  0  0  0  0  0
   -7.0459   25.8851  -30.4799 H   0  0  0  0  0  0  0  0  0  0  0  0
   -7.7297   24.2241  -30.4799 H   0  0  0  0  0  0  0  0  0  0  0  0
   -2.6478   21.4617  -30.5739 H   0  0  0  0  0  0  0  0  0  0  0  0
   -3.5699   21.1748  -32.0885 H   0  0  0  0  0  0  0  0  0  0  0  0
   -2.1707   22.3013  -32.0885 H   0  0  0  0  0  0  0  0  0  0  0  0
   -4.7782   21.1835  -33.2715 H   0  0  0  0  0  0  0  0  0  0  0  0
   -2.1131   19.8845  -32.9370 H   0  0  0  0  0  0  0  0  0  0  0  0
   -1.9979   18.9720  -34.4800 H   0  0  0  0  0  0  0  0  0  0  0  0
   -2.6013   20.6640  -34.4800 H   0  0  0  0  0  0  0  0  0  0  0  0
   -3.4627   17.1431  -34.0896 H   0  0  0  0  0  0  0  0  0  0  0  0
   -5.9920   15.4430  -32.8527 H   0  0  0  0  0  0  0  0  0  0  0  0
   -6.8290   15.8220  -34.3962 H   0  0  0  0  0  0  0  0  0  0  0  0
   -5.0732   15.4431  -34.3962 H   0  0  0  0  0  0  0  0  0  0  0  0
   -7.6310   17.9258  -33.2356 H   0  0  0  0  0  0  0  0  0  0  0  0
  1  2  1  0
  2  3  1  0
  3  4  1  0
  4  5  1  0
  5  6  1  0
  6  7  1  0
  6  8  2  0
  8  9  1  0
  9 10  1  0
 10 11  1  0
  3 12  1  0
 12 13  2  0
 12 14  1  0
 14 15  2  0
 15 16  1  0
 16 17  1  0
 16 18  2  0
 18 19  1  0
 19 20  1  0
 19 21  2  0
 10  5  2  0
 21 14  1  0
  1 22  1  0
  1 23  1  0
  1 24  1  0
  2 25  1  0
  2 26  1  0
  3 27  1  6
  4 28  1  0
  4 29  1  0
  7 30  1  0
  7 31  1  0
  7 32  1  0
 11 33  1  0
 11 34  1  0
 11 35  1  0
 15 36  1  0
 17 37  1  0
 17 38  1  0
 17 39  1  0
 18 40  1  0
 20 41  1  0
 20 42  1  0
 20 43  1  0
 21 44  1  0
M  CHG  1   3   1
M  END
>  <UniqueID>  (12) 
7

>  <SMILES>  (12) 
CC[N@@H+](Cc1c(C)noc1C)C(=O)c1cc(C)cc(C)c1

>  <Energy>  (12) 
78.42195977998738

>  <Genealogy>  (12) 
CC[NH+](Cc1c(C)noc1C)C(=O)c1cc(C)cc(C)c1 (protonated)
CC[N@@H+](Cc1c(C)noc1C)C(=O)c1cc(C)cc(C)c1 (chirality)
CC[N@@H+](Cc1c(C)noc1C)C(=O)c1cc(C)cc(C)c1 (3D coordinates assigned)
CC[N@@H+](Cc1c(C)noc1C)C(=O)c1cc(C)cc(C)c1 (optimized conformer: 78.42195977998738 kcal/mol)

>  <smiles>  (12) 
CCN(Cc1c(C)noc1C)C(=O)c1cc(C)cc(C)c1

>  <score_type>  (12) 
oracle

>  <origin>  (12) 
adg

>  <m_score__min__energy>  (12) 
-8.0999999999999996

>  <m_primary>  (12) 
energy

$$$$
12:0
     RDKit          3D

 41 43  0  0  0  0  0  0  0  0999 V2000
   -4.1240   13.0260  -35.4370 N   0  0  0  0  0  0  0  0  0  0  0  0
   -5.4720   12.4640  -35.4250 C   0  0  0  0  0  0  0  0  0  0  0  0
   -6.3010   13.0540  -34.2810 C   0  0  0  0  0  0  0  0  0  0  0  0
   -5.8920   14.4640  -33.9720 C   0  0  0  0  0  0  0  0  0  0  0  0
   -4.7060   14.6970  -33.6120 O   0  0  0  0  0  0  0  0  0  0  0  0
   -6.8230   15.5420  -34.1640 N   0  0  0  0  0  0  0  0  0  0  0  0
   -6.5830   16.8980  -33.7520 C   0  0  0  0  0  0  0  0  0  0  0  0
   -5.4730   17.5950  -34.2870 C   0  0  0  0  0  0  0  0  0  0  0  0
   -5.2150   18.9290  -33.9270 C   0  0  0  0  0  0  0  0  0  0  0  0
   -6.0890   19.5520  -33.0400 C   0  0  0  0  0  0  0  0  0  0  0  0
   -7.1870   18.8860  -32.5270 C   0  0  0  0  0  0  0  0  0  0  0  0
   -7.4650   17.5650  -32.8690 C   0  0  0  0  0  0  0  0  0  0  0  0
   -7.9150   19.8040  -31.6570 C   0  0  0  0  0  0  0  0  0  0  0  0
   -8.9700   19.5580  -31.0150 O   0  0  0  0  0  0  0  0  0  0  0  0
   -7.1790   21.0640  -31.6770 C   0  0  0  0  0  0  0  0  0  0  0  0
   -7.4380   22.2670  -31.0240 C   0  0  0  0  0  0  0  0  0  0  0  0
   -6.5540   23.3490  -31.2190 C   0  0  0  0  0  0  0  0  0  0  0  0
   -6.8190   24.5950  -30.5450 N   0  0  0  0  0  0  0  0  0  0  0  0
   -5.9060   25.2340  -29.5970 C   0  0  0  0  0  0  0  0  0  0  0  0
   -4.4850   24.9330  -29.9540 C   0  0  0  0  0  0  0  0  0  0  0  0
   -3.8800   25.6440  -30.7980 O   0  0  0  0  0  0  0  0  0  0  0  0
   -3.8190   23.8860  -29.3320 O   0  0  0  0  0  0  0  0  0  0  0  0
   -5.4310   23.1860  -32.0770 C   0  0  0  0  0  0  0  0  0  0  0  0
   -5.1920   21.9620  -32.7260 C   0  0  0  0  0  0  0  0  0  0  0  0
   -6.0830   20.9140  -32.5070 C   0  0  0  0  0  0  0  0  0  0  0  0
   -3.7420   12.9560  -34.4660 H   0  0  0  0  0  0  0  0  0  0  0  0
   -4.1950   14.0490  -35.6470 H   0  0  0  0  0  0  0  0  0  0  0  0
   -5.9653   12.6915  -36.3815 H   0  0  0  0  0  0  0  0  0  0  0  0
   -5.3974   11.3762  -35.2796 H   0  0  0  0  0  0  0  0  0  0  0  0
   -7.3628   13.0452  -34.5683 H   0  0  0  0  0  0  0  0  0  0  0  0
   -6.1317   12.4422  -33.3827 H   0  0  0  0  0  0  0  0  0  0  0  0
   -7.6890   15.3450  -34.7170 H   0  0  0  0  0  0  0  0  0  0  0  0
   -4.8027   17.0852  -34.9947 H   0  0  0  0  0  0  0  0  0  0  0  0
   -4.3461   19.4663  -34.3350 H   0  0  0  0  0  0  0  0  0  0  0  0
   -8.3492   17.0522  -32.4624 H   0  0  0  0  0  0  0  0  0  0  0  0
   -8.3153   22.3713  -30.3687 H   0  0  0  0  0  0  0  0  0  0  0  0
   -7.7230   25.0830  -30.7370 H   0  0  0  0  0  0  0  0  0  0  0  0
   -6.0625   26.3225  -29.6213 H   0  0  0  0  0  0  0  0  0  0  0  0
   -6.1098   24.8439  -28.5889 H   0  0  0  0  0  0  0  0  0  0  0  0
   -4.7411   24.0281  -32.2346 H   0  0  0  0  0  0  0  0  0  0  0  0
   -4.3239   21.8352  -33.3895 H   0  0  0  0  0  0  0  0  0  0  0  0
  1  2  1  0
  2  3  1  0
  3  4  1  0
  4  5  2  0
  4  6  1  0
  6  7  1  0
  7  8  2  0
  8  9  1  0
  9 10  2  0
 10 11  1  0
 11 12  2  0
 11 13  1  0
 13 14  2  0
 13 15  1  0
 15 16  2  0
 16 17  1  0
 17 18  1  0
 18 19  1  0
 19 20  1  0
 20 21  2  0
 20 22  1  0
 17 23  2  0
 23 24  1  0
 24 25  2  0
 12  7  1  0
 25 15  1  0
 25 10  1  0
  1 26  1  0
  1 27  1  0
  2 28  1  0
  2 29  1  0
  3 30  1  0
  3 31  1  0
  6 32  1  0
  8 33  1  0
  9 34  1  0
 12 35  1  0
 16 36  1  0
 18 37  1  0
 19 38  1  0
 19 39  1  0
 23 40  1  0
 24 41  1  0
M  CHG  1  22  -1
M  END
>  <UniqueID>  (13) 
8

>  <SMILES>  (13) 
NCCC(=O)Nc1ccc2c(c1)C(=O)c1cc(NCC(=O)[O-])ccc1-2

>  <Energy>  (13) 
74.26271418298651

>  <Genealogy>  (13) 
NCCC(=O)Nc1ccc2c(c1)C(=O)c1cc(NCC(=O)[O-])ccc1-2 (protonated)
NCCC(=O)Nc1ccc2c(c1)C(=O)c1cc(NCC(=O)[O-])ccc1-2 (3D coordinates assigned)
NCCC(=O)Nc1ccc2c(c1)C(=O)c1cc(NCC(=O)[O-])ccc1-2 (nonaromatic ring conformer: 74.26271418298651 kcal/mol)

>  <smiles>  (13) 
NCCC(=O)Nc1ccc2c(c1)C(=O)c1cc(NCC(=O)O)ccc1-2

>  <score_type>  (13) 
oracle

>  <origin>  (13) 
adg

>  <m_score__min__energy>  (13) 
-9.4299999999999997

>  <m_primary>  (13) 
energy

$$$$
13:0
     RDKit          3D

 33 34  0  0  0  0  0  0  0  0999 V2000
   -3.1200   23.1450  -31.0350 O   0  0  0  0  0  0  0  0  0  0  0  0
   -3.1730   24.1280  -30.2440 C   0  0  0  0  0  0  0  0  0  0  0  0
   -3.8770   25.3090  -30.6400 N   0  0  0  0  0  0  0  0  0  0  0  0
   -5.1670   25.6890  -30.0750 C   0  0  0  0  0  0  0  0  0  0  0  0
   -6.2880   24.8680  -30.7080 C   0  0  0  0  0  0  0  0  0  0  0  0
   -5.7920   24.1780  -31.9110 N   0  0  0  0  0  0  0  0  0  0  0  0
   -6.6930   23.1010  -32.3340 C   0  0  0  0  0  0  0  0  0  0  0  0
   -5.8970   21.8670  -32.6070 C   0  0  0  0  0  0  0  0  0  0  0  0
   -6.4150   20.6000  -32.7840 C   0  0  0  0  0  0  0  0  0  0  0  0
   -5.3300   19.7900  -33.0390 C   0  0  0  0  0  0  0  0  0  0  0  0
   -4.2210   20.6150  -33.0080 C   0  0  0  0  0  0  0  0  0  0  0  0
   -4.5930   21.8480  -32.7510 O   0  0  0  0  0  0  0  0  0  0  0  0
   -2.4850   24.0570  -28.9290 C   0  0  0  0  0  0  0  0  0  0  0  0
   -2.7720   22.9870  -28.0570 C   0  0  0  0  0  0  0  0  0  0  0  0
   -2.1300   22.8820  -26.8200 C   0  0  0  0  0  0  0  0  0  0  0  0
   -1.1950   23.8410  -26.4340 C   0  0  0  0  0  0  0  0  0  0  0  0
   -0.9040   24.9120  -27.2790 C   0  0  0  0  0  0  0  0  0  0  0  0
   -1.5430   25.0300  -28.5190 C   0  0  0  0  0  0  0  0  0  0  0  0
   -1.2400   26.1250  -29.3200 O   0  0  0  0  0  0  0  0  0  0  0  0
   -5.1545   25.5093  -28.9898 H   0  0  0  0  0  0  0  0  0  0  0  0
   -5.3461   26.7549  -30.2796 H   0  0  0  0  0  0  0  0  0  0  0  0
   -6.6472   24.1227  -29.9831 H   0  0  0  0  0  0  0  0  0  0  0  0
   -7.1109   25.5405  -30.9919 H   0  0  0  0  0  0  0  0  0  0  0  0
   -4.8610   23.7510  -31.6920 H   0  0  0  0  0  0  0  0  0  0  0  0
   -7.4225   22.8981  -31.5361 H   0  0  0  0  0  0  0  0  0  0  0  0
   -7.2252   23.4046  -33.2476 H   0  0  0  0  0  0  0  0  0  0  0  0
   -7.4720   20.2999  -32.7323 H   0  0  0  0  0  0  0  0  0  0  0  0
   -5.3434   18.7066  -33.2288 H   0  0  0  0  0  0  0  0  0  0  0  0
   -3.1838   20.2881  -33.1736 H   0  0  0  0  0  0  0  0  0  0  0  0
   -3.5093   22.2264  -28.3535 H   0  0  0  0  0  0  0  0  0  0  0  0
   -2.3629   22.0413  -26.1500 H   0  0  0  0  0  0  0  0  0  0  0  0
   -0.6864   23.7532  -25.4626 H   0  0  0  0  0  0  0  0  0  0  0  0
   -0.1680   25.6685  -26.9691 H   0  0  0  0  0  0  0  0  0  0  0  0
  1  2  2  0
  2  3  1  0
  3  4  1  0
  4  5  1  0
  5  6  1  0
  6  7  1  0
  7  8  1  0
  8  9  2  0
  9 10  1  0
 10 11  2  0
 11 12  1  0
  2 13  1  0
 13 14  2  0
 14 15  1  0
 15 16  2  0
 16 17  1  0
 17 18  2  0
 18 19  1  0
 12  8  1  0
 18 13  1  0
  4 20  1  0
  4 21  1  0
  5 22  1  0
  5 23  1  0
  6 24  1  0
  7 25  1  0
  7 26  1  0
  9 27  1  0
 10 28  1  0
 11 29  1  0
 14 30  1  0
 15 31  1  0
 16 32  1  0
 17 33  1  0
M  CHG  2   3  -1  19  -1
M  END
>  <UniqueID>  (14) 
9

>  <SMILES>  (14) 
O=C([N-]CCNCc1ccco1)c1ccccc1[O-]

>  <Energy>  (14) 
56.14877942214658

>  <Genealogy>  (14) 
O=C([N-]CCNCc1ccco1)c1ccccc1[O-] (protonated)
O=C([N-]CCNCc1ccco1)c1ccccc1[O-] (3D coordinates assigned)
O=C([N-]CCNCc1ccco1)c1ccccc1[O-] (optimized conformer: 56.14877942214658 kcal/mol)

>  <smiles>  (14) 
O=C(NCCNCc1ccco1)c1ccccc1O

>  <score_type>  (14) 
oracle

>  <origin>  (14) 
adg

>  <m_score__min__energy>  (14) 
-10.77

>  <m_primary>  (14) 
energy

$$$$
14:0
     RDKit          3D

 43 44  0  0  0  0  0  0  0  0999 V2000
   -7.0370   24.5567  -32.7368 H   0  0  0  0  0  0  0  0  0  0  0  0
   -6.7010   23.8780  -31.9390 C   0  0  0  0  0  0  0  0  0  0  0  0
   -6.0120   24.4150  -30.9110 C   0  0  0  0  0  0  0  0  0  0  0  0
   -6.6930   25.1390  -29.8600 C   0  0  0  0  0  0  0  0  0  0  0  0
   -7.2400   25.7190  -29.0190 N   0  0  0  0  0  0  0  0  0  0  0  0
   -4.5400   24.2250  -30.8130 C   0  0  0  0  0  0  0  0  0  0  0  0
   -3.7770   25.2320  -30.8240 O   0  0  0  0  0  0  0  0  0  0  0  0
   -3.9690   22.9090  -30.6990 N   0  0  0  0  0  0  0  0  0  0  0  0
   -4.5850   22.0780  -30.8390 H   0  0  0  0  0  0  0  0  0  0  0  0
   -2.5290   22.7000  -30.4890 C   0  0  0  0  0  0  0  0  0  0  0  0
   -1.9998   22.9878  -31.4094 H   0  0  0  0  0  0  0  0  0  0  0  0
   -2.2260   21.2120  -30.2190 C   0  0  0  0  0  0  0  0  0  0  0  0
   -2.6486   20.6136  -31.0396 H   0  0  0  0  0  0  0  0  0  0  0  0
   -1.1331   21.1052  -30.1537 H   0  0  0  0  0  0  0  0  0  0  0  0
   -2.8200   20.7080  -28.8860 C   0  0  0  0  0  0  0  0  0  0  0  0
   -3.8167   20.2877  -29.0860 H   0  0  0  0  0  0  0  0  0  0  0  0
   -2.1228   19.9576  -28.4850 H   0  0  0  0  0  0  0  0  0  0  0  0
   -2.9610   21.8090  -27.8200 C   0  0  0  0  0  0  0  0  0  0  0  0
   -3.9519   22.2764  -27.9178 H   0  0  0  0  0  0  0  0  0  0  0  0
   -2.8421   21.3470  -26.8288 H   0  0  0  0  0  0  0  0  0  0  0  0
   -1.8860   22.8850  -27.9800 C   0  0  0  0  0  0  0  0  0  0  0  0
   -1.9988   23.6254  -27.1743 H   0  0  0  0  0  0  0  0  0  0  0  0
   -0.9008   22.3983  -27.9299 H   0  0  0  0  0  0  0  0  0  0  0  0
   -2.0020   23.6030  -29.3400 C   0  0  0  0  0  0  0  0  0  0  0  0
   -2.6906   24.4530  -29.2246 H   0  0  0  0  0  0  0  0  0  0  0  0
   -0.9859   23.9159  -29.6221 H   0  0  0  0  0  0  0  0  0  0  0  0
   -7.0390   22.4400  -32.0730 C   0  0  0  0  0  0  0  0  0  0  0  0
   -8.2440   21.9710  -31.5310 C   0  0  0  0  0  0  0  0  0  0  0  0
   -8.9332   22.6743  -31.0406 H   0  0  0  0  0  0  0  0  0  0  0  0
   -8.5750   20.6150  -31.6100 C   0  0  0  0  0  0  0  0  0  0  0  0
   -9.5268   20.2591  -31.1887 H   0  0  0  0  0  0  0  0  0  0  0  0
   -7.7010   19.7060  -32.2230 C   0  0  0  0  0  0  0  0  0  0  0  0
   -8.0420   18.2420  -32.2780 C   0  0  0  0  0  0  0  0  0  0  0  0
   -8.5671   18.0289  -33.2208 H   0  0  0  0  0  0  0  0  0  0  0  0
   -8.6838   17.9964  -31.4191 H   0  0  0  0  0  0  0  0  0  0  0  0
   -6.7790   17.3900  -32.2050 C   0  0  0  0  0  0  0  0  0  0  0  0
   -6.5165   17.2129  -31.1516 H   0  0  0  0  0  0  0  0  0  0  0  0
   -6.9571   16.4267  -32.7054 H   0  0  0  0  0  0  0  0  0  0  0  0
   -5.9525   17.9159  -32.7054 H   0  0  0  0  0  0  0  0  0  0  0  0
   -6.4750   20.1670  -32.7280 C   0  0  0  0  0  0  0  0  0  0  0  0
   -5.7717   19.4576  -33.1885 H   0  0  0  0  0  0  0  0  0  0  0  0
   -6.1430   21.5220  -32.6490 C   0  0  0  0  0  0  0  0  0  0  0  0
   -5.1760   21.8723  -33.0393 H   0  0  0  0  0  0  0  0  0  0  0  0
  1  2  1  0
  2  3  2  0
  3  4  1  0
  4  5  3  0
  3  6  1  0
  6  7  2  0
  6  8  1  0
  8  9  1  0
  8 10  1  0
 10 11  1  0
 10 12  1  0
 12 13  1  0
 12 14  1  0
 12 15  1  0
 15 16  1  0
 15 17  1  0
 15 18  1  0
 18 19  1  0
 18 20  1  0
 18 21  1  0
 21 22  1  0
 21 23  1  0
 21 24  1  0
 24 25  1  0
 24 26  1  0
  2 27  1  0
 27 28  2  0
 28 29  1  0
 28 30  1  0
 30 31  1  0
 30 32  2  0
 32 33  1  0
 33 34  1  0
 33 35  1  0
 33 36  1  0
 36 37  1  0
 36 38  1  0
 36 39  1  0
 32 40  1  0
 40 41  1  0
 40 42  2  0
 42 43  1  0
 24 10  1  0
 42 27  1  0
M  END
>  <UniqueID>  (15) 
10

>  <SMILES>  (15) 
CCc1ccc(/C=C(\C#N)C(=O)NC2CCCCC2)cc1

>  <Energy>  (15) 
45.620467771589766

>  <Genealogy>  (15) 
CCc1ccc(/C=C(\C#N)C(=O)NC2CCCCC2)cc1 (cis-trans isomerization)
CCc1ccc(/C=C(\C#N)C(=O)NC2CCCCC2)cc1 (3D coordinates assigned)
CCc1ccc(/C=C(\C#N)C(=O)NC2CCCCC2)cc1 (nonaromatic ring conformer: 45.620467771589766 kcal/mol)

>  <smiles>  (15) 
CCc1ccc(C=C(C#N)C(=O)NC2CCCCC2)cc1

>  <score_type>  (15) 
oracle

>  <origin>  (15) 
adg

>  <m_score__min__energy>  (15) 
-8.3900000000000006

>  <m_primary>  (15) 
energy

$$$$
15:0
     RDKit          3D

 44 46  0  0  0  0  0  0  0  0999 V2000
   -7.2350   12.3200  -34.7430 C   0  0  0  0  0  0  0  0  0  0  0  0
   -6.0410   12.9030  -34.2260 O   0  0  0  0  0  0  0  0  0  0  0  0
   -5.9190   14.2480  -33.8450 C   0  0  0  0  0  0  0  0  0  0  0  0
   -6.9250   15.1430  -34.2290 C   0  0  0  0  0  0  0  0  0  0  0  0
   -6.8510   16.4920  -33.8680 C   0  0  0  0  0  0  0  0  0  0  0  0
   -5.7650   16.9600  -33.1190 C   0  0  0  0  0  0  0  0  0  0  0  0
   -5.6910   18.3470  -32.7480 C   0  0  0  0  0  0  0  0  0  0  0  0
   -5.6300   19.5100  -32.4330 C   0  0  0  0  0  0  0  0  0  0  0  0
   -5.5570   20.8990  -32.0700 C   0  0  0  0  0  0  0  0  0  0  0  0
   -4.3120   21.5340  -31.9840 C   0  0  0  0  0  0  0  0  0  0  0  0
   -4.2350   22.8740  -31.5920 C   0  0  0  0  0  0  0  0  0  0  0  0
   -5.4030   23.5930  -31.2870 C   0  0  0  0  0  0  0  0  0  0  0  0
   -5.2980   24.9840  -30.7250 C   0  0  0  0  0  0  0  0  0  0  0  0
   -3.8940   25.2990  -30.4960 N   0  0  0  0  0  0  0  0  0  0  0  0
   -3.2030   24.9040  -29.3070 C   0  0  0  0  0  0  0  0  0  0  0  0
   -2.0270   25.3020  -29.0910 O   0  0  0  0  0  0  0  0  0  0  0  0
   -3.9310   24.1270  -28.2600 C   0  0  0  0  0  0  0  0  0  0  0  0
   -3.1520   22.8880  -27.9480 C   0  0  0  0  0  0  0  0  0  0  0  0
   -3.4020   21.6210  -28.4660 C   0  0  0  0  0  0  0  0  0  0  0  0
   -2.4300   20.6780  -28.1090 C   0  0  0  0  0  0  0  0  0  0  0  0
   -1.4070   21.2000  -27.3250 C   0  0  0  0  0  0  0  0  0  0  0  0
   -1.7110   22.8370  -27.0800 S   0  0  0  0  0  0  0  0  0  0  0  0
   -6.6500   22.9520  -31.3760 C   0  0  0  0  0  0  0  0  0  0  0  0
   -6.7260   21.6110  -31.7680 C   0  0  0  0  0  0  0  0  0  0  0  0
   -4.7530   16.0730  -32.7330 C   0  0  0  0  0  0  0  0  0  0  0  0
   -4.8260   14.7230  -33.0910 C   0  0  0  0  0  0  0  0  0  0  0  0
   -7.8800   12.0051  -33.9094 H   0  0  0  0  0  0  0  0  0  0  0  0
   -7.7672   13.0596  -35.3592 H   0  0  0  0  0  0  0  0  0  0  0  0
   -6.9790   11.4455  -35.3592 H   0  0  0  0  0  0  0  0  0  0  0  0
   -7.7802   14.7822  -34.8193 H   0  0  0  0  0  0  0  0  0  0  0  0
   -7.6476   17.1865  -34.1731 H   0  0  0  0  0  0  0  0  0  0  0  0
   -3.3938   20.9783  -32.2250 H   0  0  0  0  0  0  0  0  0  0  0  0
   -3.2546   23.3680  -31.5220 H   0  0  0  0  0  0  0  0  0  0  0  0
   -5.7255   25.7033  -31.4390 H   0  0  0  0  0  0  0  0  0  0  0  0
   -5.8516   25.0440  -29.7764 H   0  0  0  0  0  0  0  0  0  0  0  0
   -4.0333   24.7378  -27.3509 H   0  0  0  0  0  0  0  0  0  0  0  0
   -4.9325   23.8560  -28.6253 H   0  0  0  0  0  0  0  0  0  0  0  0
   -4.2746   21.3840  -29.0924 H   0  0  0  0  0  0  0  0  0  0  0  0
   -2.4719   19.6236  -28.4196 H   0  0  0  0  0  0  0  0  0  0  0  0
   -0.5463   20.6389  -26.9322 H   0  0  0  0  0  0  0  0  0  0  0  0
   -7.5696   23.5062  -31.1367 H   0  0  0  0  0  0  0  0  0  0  0  0
   -7.7050   21.1146  -31.8393 H   0  0  0  0  0  0  0  0  0  0  0  0
   -3.8976   16.4391  -32.1462 H   0  0  0  0  0  0  0  0  0  0  0  0
   -4.0289   14.0300  -32.7837 H   0  0  0  0  0  0  0  0  0  0  0  0
  1  2  1  0
  2  3  1  0
  3  4  2  0
  4  5  1  0
  5  6  2  0
  6  7  1  0
  7  8  3  0
  8  9  1  0
  9 10  2  0
 10 11  1  0
 11 12  2  0
 12 13  1  0
 13 14  1  0
 14 15  1  0
 15 16  2  0
 15 17  1  0
 17 18  1  0
 18 19  2  0
 19 20  1  0
 20 21  2  0
 21 22  1  0
 12 23  1  0
 23 24  2  0
  6 25  1  0
 25 26  2  0
 26  3  1  0
 24  9  1  0
 22 18  1  0
  1 27  1  0
  1 28  1  0
  1 29  1  0
  4 30  1  0
  5 31  1  0
 10 32  1  0
 11 33  1  0
 13 34  1  0
 13 35  1  0
 17 36  1  0
 17 37  1  0
 19 38  1  0
 20 39  1  0
 21 40  1  0
 23 41  1  0
 24 42  1  0
 25 43  1  0
 26 44  1  0
M  CHG  1  14  -1
M  END
>  <UniqueID>  (16) 
11

>  <SMILES>  (16) 
COc1ccc(C#Cc2ccc(C[N-]C(=O)Cc3cccs3)cc2)cc1

>  <Energy>  (16) 
61.00947672520438

>  <Genealogy>  (16) 
COc1ccc(C#Cc2ccc(C[N-]C(=O)Cc3cccs3)cc2)cc1 (protonated)
COc1ccc(C#Cc2ccc(C[N-]C(=O)Cc3cccs3)cc2)cc1 (3D coordinates assigned)
COc1ccc(C#Cc2ccc(C[N-]C(=O)Cc3cccs3)cc2)cc1 (optimized conformer: 61.00947672520438 kcal/mol)

>  <smiles>  (16) 
COc1ccc(C#Cc2ccc(CNC(=O)Cc3cccs3)cc2)cc1

>  <score_type>  (16) 
oracle

>  <origin>  (16) 
adg

>  <m_score__min__energy>  (16) 
-9.1899999999999995

>  <m_primary>  (16) 
energy

$$$$
16:0
     RDKit          3D

 50 55  0  0  0  0  0  0  0  0999 V2000
   -1.5980   19.8000  -26.7930 O   0  0  0  0  0  0  0  0  0  0  0  0
   -1.6320   20.0180  -27.9940 C   0  0  0  0  0  0  0  0  0  0  0  0
   -0.3720   19.8970  -28.8100 C   0  0  0  0  0  0  0  0  0  0  0  0
   -0.2160   21.0570  -29.8100 C   0  0  2  0  0  0  0  0  0  0  0  0
    0.2130   22.2480  -29.1380 O   0  0  0  0  0  0  0  0  0  0  0  0
   -0.7550   23.2270  -29.2250 C   0  0  0  0  0  0  0  0  0  0  0  0
   -0.7780   24.4520  -28.5610 C   0  0  0  0  0  0  0  0  0  0  0  0
    0.3340   24.8870  -27.8440 O   0  0  0  0  0  0  0  0  0  0  0  0
   -1.9640   25.2120  -28.6140 C   0  0  0  0  0  0  0  0  0  0  0  0
   -3.1110   24.6920  -29.2500 C   0  0  0  0  0  0  0  0  0  0  0  0
   -3.0500   23.4470  -29.9070 C   0  0  0  0  0  0  0  0  0  0  0  0
   -1.8120   22.8050  -29.9720 C   0  0  0  0  0  0  0  0  0  0  0  0
   -1.5630   21.4440  -30.5320 C   0  0  1  0  0  0  0  0  0  0  0  0
   -1.3940   21.5380  -32.0830 C   0  0  0  0  0  0  0  0  0  0  0  0
   -2.5840   20.9530  -32.8660 C   0  0  0  0  0  0  0  0  0  0  0  0
   -3.8840   21.3960  -32.3200 N   0  0  0  0  0  0  0  0  0  0  0  0
   -4.9950   20.7610  -33.0610 C   0  0  0  0  0  0  0  0  0  0  0  0
   -6.3150   21.0850  -32.4110 C   0  0  0  0  0  0  0  0  0  0  0  0
   -7.1400   20.0480  -31.9450 C   0  0  0  0  0  0  0  0  0  0  0  0
   -8.3810   20.3380  -31.3700 C   0  0  0  0  0  0  0  0  0  0  0  0
   -8.8080   21.6640  -31.2580 C   0  0  0  0  0  0  0  0  0  0  0  0
  -10.0120   21.9440  -30.7020 F   0  0  0  0  0  0  0  0  0  0  0  0
   -7.9930   22.7010  -31.7210 C   0  0  0  0  0  0  0  0  0  0  0  0
   -6.7510   22.4150  -32.2960 C   0  0  0  0  0  0  0  0  0  0  0  0
   -4.0340   21.2580  -30.8370 C   0  0  2  0  0  0  0  0  0  0  0  0
   -4.3070   22.6840  -30.2640 C   0  0  0  0  0  0  0  0  0  0  0  0
   -2.7900   20.5760  -30.1710 C   0  0  2  0  0  0  0  0  0  0  0  0
   -2.9460   20.3670  -28.6440 C   0  0  0  0  0  0  0  0  0  0  0  0
    0.4924   19.8965  -28.1297 H   0  0  0  0  0  0  0  0  0  0  0  0
   -0.4288   18.9603  -29.3840 H   0  0  0  0  0  0  0  0  0  0  0  0
    0.5166   20.6966  -30.5471 H   0  0  0  0  0  0  0  0  0  0  0  0
    1.1220   24.2750  -27.6710 H   0  0  0  0  0  0  0  0  0  0  0  0
   -1.9953   26.2128  -28.1585 H   0  0  0  0  0  0  0  0  0  0  0  0
   -4.0535   25.2589  -29.2330 H   0  0  0  0  0  0  0  0  0  0  0  0
   -1.2831   22.5973  -32.3578 H   0  0  0  0  0  0  0  0  0  0  0  0
   -0.5075   20.9436  -32.3490 H   0  0  0  0  0  0  0  0  0  0  0  0
   -2.5115   21.2768  -33.9147 H   0  0  0  0  0  0  0  0  0  0  0  0
   -2.5380   19.8572  -32.7811 H   0  0  0  0  0  0  0  0  0  0  0  0
   -4.9998   21.1338  -34.0959 H   0  0  0  0  0  0  0  0  0  0  0  0
   -4.8517   19.6704  -33.0518 H   0  0  0  0  0  0  0  0  0  0  0  0
   -6.8081   19.0029  -32.0329 H   0  0  0  0  0  0  0  0  0  0  0  0
   -9.0219   19.5217  -31.0054 H   0  0  0  0  0  0  0  0  0  0  0  0
   -8.3296   23.7445  -31.6328 H   0  0  0  0  0  0  0  0  0  0  0  0
   -6.1134   23.2344  -32.6594 H   0  0  0  0  0  0  0  0  0  0  0  0
   -4.8762   20.5897  -30.6044 H   0  0  0  0  0  0  0  0  0  0  0  0
   -4.8611   23.2613  -31.0188 H   0  0  0  0  0  0  0  0  0  0  0  0
   -4.8785   22.5525  -29.3333 H   0  0  0  0  0  0  0  0  0  0  0  0
   -2.6706   19.5537  -30.5592 H   0  0  0  0  0  0  0  0  0  0  0  0
   -3.3314   21.2941  -28.1945 H   0  0  0  0  0  0  0  0  0  0  0  0
   -3.6428   19.5316  -28.4808 H   0  0  0  0  0  0  0  0  0  0  0  0
  1  2  2  0
  2  3  1  0
  3  4  1  0
  4  5  1  0
  5  6  1  0
  6  7  2  0
  7  8  1  0
  7  9  1  0
  9 10  2  0
 10 11  1  0
 11 12  2  0
 12 13  1  0
 13 14  1  6
 14 15  1  0
 15 16  1  0
 16 17  1  0
 17 18  1  0
 18 19  2  0
 19 20  1  0
 20 21  2  0
 21 22  1  0
 21 23  1  0
 23 24  2  0
 16 25  1  0
 25 26  1  0
 25 27  1  0
 27 28  1  0
 28  2  1  0
 13  4  1  0
 24 18  1  0
 12  6  1  0
 27 13  1  0
 26 11  1  0
  3 29  1  0
  3 30  1  0
  4 31  1  6
  8 32  1  0
  9 33  1  0
 10 34  1  0
 14 35  1  0
 14 36  1  0
 15 37  1  0
 15 38  1  0
 17 39  1  0
 17 40  1  0
 19 41  1  0
 20 42  1  0
 23 43  1  0
 24 44  1  0
 25 45  1  6
 26 46  1  0
 26 47  1  0
 27 48  1  6
 28 49  1  0
 28 50  1  0
M  END
>  <UniqueID>  (17) 
12

>  <SMILES>  (17) 
O=C1CC2C3Cc4ccc(O)c5c4[C@@]2(CCN3Cc2ccc(F)cc2)[C@H](C1)O5

>  <Energy>  (17) 
99.0200483135116

>  <Genealogy>  (17) 
O=C1CC2C3Cc4ccc(O)c5c4[C@@]2(CCN3Cc2ccc(F)cc2)[C@H](C1)O5 (chirality)
O=C1CC2C3Cc4ccc(O)c5c4[C@@]2(CCN3Cc2ccc(F)cc2)[C@H](C1)O5 (3D coordinates assigned)
O=C1CC2C3Cc4ccc(O)c5c4[C@@]2(CCN3Cc2ccc(F)cc2)[C@H](C1)O5 (nonaromatic ring conformer: 99.0200483135116 kcal/mol)

>  <smiles>  (17) 
O=C1CC2Oc3c(O)ccc4c3C23CCN(Cc2ccc(F)cc2)C(C4)C3C1

>  <score_type>  (17) 
oracle

>  <origin>  (17) 
adg

>  <m_score__min__energy>  (17) 
-7.7400000000000002

>  <m_primary>  (17) 
energy

$$$$
17:0
     RDKit          3D

 35 36  0  0  0  0  0  0  0  0999 V2000
   -6.2660   25.2570  -30.0600 C   0  0  0  0  0  0  0  0  0  0  0  0
   -4.9940   24.9200  -30.8440 C   0  0  0  0  0  0  0  0  0  0  0  0
   -3.8850   24.3930  -30.0130 N   0  0  0  0  0  0  0  0  0  0  0  0
   -4.2200   24.1890  -28.5820 C   0  0  0  0  0  0  0  0  0  0  0  0
   -3.8530   22.8010  -28.0300 C   0  0  0  0  0  0  0  0  0  0  0  0
   -3.0830   23.3180  -30.6320 C   0  0  0  0  0  0  0  0  0  0  0  0
   -3.9460   22.4230  -31.4660 C   0  0  0  0  0  0  0  0  0  0  0  0
   -3.6700   21.9790  -32.7380 C   0  0  0  0  0  0  0  0  0  0  0  0
   -4.6570   21.1990  -33.0990 O   0  0  0  0  0  0  0  0  0  0  0  0
   -5.5130   21.1500  -32.1020 C   0  0  0  0  0  0  0  0  0  0  0  0
   -6.7760   20.3660  -32.1120 C   0  0  0  0  0  0  0  0  0  0  0  0
   -6.7020   18.9610  -32.1900 C   0  0  0  0  0  0  0  0  0  0  0  0
   -7.8600   18.1820  -32.2030 C   0  0  0  0  0  0  0  0  0  0  0  0
   -9.1120   18.7910  -32.1390 C   0  0  0  0  0  0  0  0  0  0  0  0
   -9.2090   20.1810  -32.0610 C   0  0  0  0  0  0  0  0  0  0  0  0
   -8.0550   20.9760  -32.0480 C   0  0  0  0  0  0  0  0  0  0  0  0
   -8.2850   22.7190  -31.9460 Cl  0  0  0  0  0  0  0  0  0  0  0  0
   -5.1140   21.8990  -31.0490 N   0  0  0  0  0  0  0  0  0  0  0  0
   -6.0574   25.2017  -28.9814 H   0  0  0  0  0  0  0  0  0  0  0  0
   -6.5970   26.2738  -30.3178 H   0  0  0  0  0  0  0  0  0  0  0  0
   -7.0571   24.5375  -30.3178 H   0  0  0  0  0  0  0  0  0  0  0  0
   -5.2467   24.1630  -31.6010 H   0  0  0  0  0  0  0  0  0  0  0  0
   -4.6367   25.8629  -31.2837 H   0  0  0  0  0  0  0  0  0  0  0  0
   -3.6820   24.9459  -27.9924 H   0  0  0  0  0  0  0  0  0  0  0  0
   -5.3136   24.2770  -28.5022 H   0  0  0  0  0  0  0  0  0  0  0  0
   -3.8607   22.8299  -26.9304 H   0  0  0  0  0  0  0  0  0  0  0  0
   -4.5862   22.0606  -28.3824 H   0  0  0  0  0  0  0  0  0  0  0  0
   -2.8496   22.5198  -28.3824 H   0  0  0  0  0  0  0  0  0  0  0  0
   -2.3080   23.7681  -31.2698 H   0  0  0  0  0  0  0  0  0  0  0  0
   -2.6216   22.7184  -29.8335 H   0  0  0  0  0  0  0  0  0  0  0  0
   -2.7847   22.2322  -33.3398 H   0  0  0  0  0  0  0  0  0  0  0  0
   -5.7182   18.4715  -32.2413 H   0  0  0  0  0  0  0  0  0  0  0  0
   -7.7844   17.0863  -32.2638 H   0  0  0  0  0  0  0  0  0  0  0  0
  -10.0239   18.1759  -32.1500 H   0  0  0  0  0  0  0  0  0  0  0  0
  -10.1995   20.6566  -32.0093 H   0  0  0  0  0  0  0  0  0  0  0  0
  1  2  1  0
  2  3  1  0
  3  4  1  0
  4  5  1  0
  3  6  1  0
  6  7  1  0
  7  8  2  0
  8  9  1  0
  9 10  1  0
 10 11  1  0
 11 12  2  0
 12 13  1  0
 13 14  2  0
 14 15  1  0
 15 16  2  0
 16 17  1  0
 10 18  2  0
 18  7  1  0
 16 11  1  0
  1 19  1  0
  1 20  1  0
  1 21  1  0
  2 22  1  0
  2 23  1  0
  4 24  1  0
  4 25  1  0
  5 26  1  0
  5 27  1  0
  5 28  1  0
  6 29  1  0
  6 30  1  0
  8 31  1  0
 12 32  1  0
 13 33  1  0
 14 34  1  0
 15 35  1  0
M  END
>  <UniqueID>  (18) 
13

>  <SMILES>  (18) 
CCN(CC)Cc1coc(-c2ccccc2Cl)n1

>  <Energy>  (18) 
72.6293025282766

>  <Genealogy>  (18) 
CCN(CC)Cc1coc(-c2ccccc2Cl)n1 (3D coordinates assigned)
CCN(CC)Cc1coc(-c2ccccc2Cl)n1 (optimized conformer: 72.6293025282766 kcal/mol)

>  <smiles>  (18) 
CCN(CC)Cc1coc(-c2ccccc2Cl)n1

>  <score_type>  (18) 
oracle

>  <origin>  (18) 
adg

>  <m_score__min__energy>  (18) 
-6.5899999999999999

>  <m_primary>  (18) 
energy

$$$$
18:0
     RDKit          3D

 24 25  0  0  0  0  0  0  0  0999 V2000
   -6.5970   21.7250  -30.8150 O   0  0  0  0  0  0  0  0  0  0  0  0
   -5.7750   22.3500  -31.5380 C   0  0  0  0  0  0  0  0  0  0  0  0
   -5.2810   21.7620  -32.7540 N   0  0  0  0  0  0  0  0  0  0  0  0
   -5.4420   20.3750  -33.0990 C   0  0  0  0  0  0  0  0  0  0  0  0
   -6.6840   19.7290  -32.9800 C   0  0  0  0  0  0  0  0  0  0  0  0
   -6.8100   18.3730  -33.2980 C   0  0  0  0  0  0  0  0  0  0  0  0
   -5.6970   17.6390  -33.7460 C   0  0  0  0  0  0  0  0  0  0  0  0
   -5.8220   16.1650  -34.0410 C   0  0  0  0  0  0  0  0  0  0  0  0
   -4.8430   15.7970  -34.9430 F   0  0  0  0  0  0  0  0  0  0  0  0
   -7.0650   15.8790  -34.5810 F   0  0  0  0  0  0  0  0  0  0  0  0
   -5.6730   15.4220  -32.8820 F   0  0  0  0  0  0  0  0  0  0  0  0
   -4.4470   18.2760  -33.8160 C   0  0  0  0  0  0  0  0  0  0  0  0
   -4.3220   19.6310  -33.4970 C   0  0  0  0  0  0  0  0  0  0  0  0
   -5.3580   23.7030  -31.1450 C   0  0  0  0  0  0  0  0  0  0  0  0
   -6.2140   24.6650  -30.7360 N   0  0  0  0  0  0  0  0  0  0  0  0
   -5.3580   25.6780  -30.5080 C   0  0  0  0  0  0  0  0  0  0  0  0
   -5.7170   26.8130  -30.1010 O   0  0  0  0  0  0  0  0  0  0  0  0
   -4.1170   25.3520  -30.7570 O   0  0  0  0  0  0  0  0  0  0  0  0
   -4.0740   24.1190  -31.1600 N   0  0  0  0  0  0  0  0  0  0  0  0
   -4.8590   22.3950  -33.4690 H   0  0  0  0  0  0  0  0  0  0  0  0
   -7.5627   20.2933  -32.6346 H   0  0  0  0  0  0  0  0  0  0  0  0
   -7.7866   17.8769  -33.1970 H   0  0  0  0  0  0  0  0  0  0  0  0
   -3.5595   17.7039  -34.1243 H   0  0  0  0  0  0  0  0  0  0  0  0
   -3.3374   20.1176  -33.5586 H   0  0  0  0  0  0  0  0  0  0  0  0
  1  2  2  0
  2  3  1  0
  3  4  1  0
  4  5  2  0
  5  6  1  0
  6  7  2  0
  7  8  1  0
  8  9  1  0
  8 10  1  0
  8 11  1  0
  7 12  1  0
 12 13  2  0
  2 14  1  0
 14 15  2  0
 15 16  1  0
 16 17  2  0
 16 18  1  0
 18 19  1  0
 13  4  1  0
 19 14  1  0
  3 20  1  0
  5 21  1  0
  6 22  1  0
 12 23  1  0
 13 24  1  0
M  CHG  1  19  -1
M  END
>  <UniqueID>  (19) 
14

>  <SMILES>  (19) 
O=C(Nc1ccc(C(F)(F)F)cc1)c1nc(=O)o[n-]1

>  <Energy>  (19) 
61.49705637053559

>  <Genealogy>  (19) 
O=C(Nc1ccc(C(F)(F)F)cc1)c1nc(=O)o[n-]1 (protonated)
O=C(Nc1ccc(C(F)(F)F)cc1)c1nc(=O)o[n-]1 (3D coordinates assigned)
O=C(Nc1ccc(C(F)(F)F)cc1)c1nc(=O)o[n-]1 (optimized conformer: 61.49705637053559 kcal/mol)

>  <smiles>  (19) 
O=C(Nc1ccc(C(F)(F)F)cc1)c1nc(=O)o[nH]1

>  <score_type>  (19) 
oracle

>  <origin>  (19) 
adg

>  <m_score__min__energy>  (19) 
-7.6399999999999997

>  <m_primary>  (19) 
energy

$$$$
19:0
     RDKit          3D

 62 66  0  0  0  0  0  0  0  0999 V2000
   -3.9600   25.6570  -30.6080 O   0  0  0  0  0  0  0  0  0  0  0  0
   -5.3580   25.7320  -30.6540 C   0  0  0  0  0  0  0  0  0  0  0  0
   -5.9610   24.3770  -30.3040 C   0  0  0  0  0  0  0  0  0  0  0  0
   -5.1440   23.3550  -30.8340 O   0  0  0  0  0  0  0  0  0  0  0  0
   -4.6570   22.5370  -29.7890 C   0  0  0  0  0  0  0  0  0  0  0  0
   -3.2860   23.0200  -29.3840 C   0  0  0  0  0  0  0  0  0  0  0  0
   -3.1550   23.9560  -28.3440 C   0  0  0  0  0  0  0  0  0  0  0  0
   -1.8930   24.4240  -27.9660 C   0  0  0  0  0  0  0  0  0  0  0  0
   -0.7500   23.9680  -28.6230 C   0  0  0  0  0  0  0  0  0  0  0  0
   -0.8610   23.0370  -29.6580 C   0  0  0  0  0  0  0  0  0  0  0  0
   -2.1210   22.5520  -30.0420 C   0  0  0  0  0  0  0  0  0  0  0  0
   -2.2060   21.5840  -31.1500 C   0  0  0  0  0  0  0  0  0  0  0  0
   -2.8290   21.9500  -32.3500 C   0  0  0  0  0  0  0  0  0  0  0  0
   -3.0140   21.0060  -33.3610 C   0  0  0  0  0  0  0  0  0  0  0  0
   -2.5630   19.6860  -33.1930 C   0  0  0  0  0  0  0  0  0  0  0  0
   -2.8060   18.6580  -34.2690 C   0  0  0  0  0  0  0  0  0  0  0  0
   -3.8380   17.6530  -33.8330 C   0  0  0  0  0  0  0  0  0  0  0  0
   -5.2320   17.7780  -33.8570 C   0  0  0  0  0  0  0  0  0  0  0  0
   -6.0240   18.9550  -34.3490 C   0  0  0  0  0  0  0  0  0  0  0  0
   -6.8690   19.5390  -33.2490 C   0  0  0  0  0  0  0  0  0  0  0  0
   -7.8980   18.7820  -32.6620 C   0  0  0  0  0  0  0  0  0  0  0  0
   -8.6920   19.3380  -31.6520 C   0  0  0  0  0  0  0  0  0  0  0  0
   -8.4610   20.6450  -31.2180 C   0  0  0  0  0  0  0  0  0  0  0  0
   -7.4310   21.4000  -31.7870 C   0  0  0  0  0  0  0  0  0  0  0  0
   -6.6350   20.8500  -32.7970 C   0  0  0  0  0  0  0  0  0  0  0  0
   -5.7990   16.6900  -33.3700 O   0  0  0  0  0  0  0  0  0  0  0  0
   -4.8450   15.8540  -33.0410 C   0  0  0  0  0  0  0  0  0  0  0  0
   -4.9850   14.5810  -32.4930 C   0  0  0  0  0  0  0  0  0  0  0  0
   -3.8150   13.8480  -32.2250 C   0  0  0  0  0  0  0  0  0  0  0  0
   -2.5460   14.3970  -32.5110 C   0  0  0  0  0  0  0  0  0  0  0  0
   -2.4350   15.6860  -33.0640 C   0  0  0  0  0  0  0  0  0  0  0  0
   -3.6140   16.3920  -33.3120 C   0  0  0  0  0  0  0  0  0  0  0  0
   -1.9060   19.3330  -32.0020 C   0  0  0  0  0  0  0  0  0  0  0  0
   -1.7360   20.2750  -30.9840 C   0  0  0  0  0  0  0  0  0  0  0  0
   -3.7050   24.9210  -31.2250 H   0  0  0  0  0  0  0  0  0  0  0  0
   -5.7070   26.4843  -29.9314 H   0  0  0  0  0  0  0  0  0  0  0  0
   -5.6725   26.0176  -31.6686 H   0  0  0  0  0  0  0  0  0  0  0  0
   -6.0194   24.2716  -29.2106 H   0  0  0  0  0  0  0  0  0  0  0  0
   -6.9720   24.3008  -30.7307 H   0  0  0  0  0  0  0  0  0  0  0  0
   -5.3380   22.5956  -28.9271 H   0  0  0  0  0  0  0  0  0  0  0  0
   -4.5967   21.4935  -30.1317 H   0  0  0  0  0  0  0  0  0  0  0  0
   -4.0519   24.3231  -27.8236 H   0  0  0  0  0  0  0  0  0  0  0  0
   -1.8011   25.1539  -27.1482 H   0  0  0  0  0  0  0  0  0  0  0  0
    0.2405   24.3424  -28.3253 H   0  0  0  0  0  0  0  0  0  0  0  0
    0.0430   22.6822  -30.1746 H   0  0  0  0  0  0  0  0  0  0  0  0
   -3.1734   22.9845  -32.4959 H   0  0  0  0  0  0  0  0  0  0  0  0
   -3.5161   21.2972  -34.2954 H   0  0  0  0  0  0  0  0  0  0  0  0
   -3.1604   19.1659  -35.1781 H   0  0  0  0  0  0  0  0  0  0  0  0
   -1.8625   18.1279  -34.4661 H   0  0  0  0  0  0  0  0  0  0  0  0
   -5.3307   19.7258  -34.7169 H   0  0  0  0  0  0  0  0  0  0  0  0
   -6.6890   18.6150  -35.1566 H   0  0  0  0  0  0  0  0  0  0  0  0
   -8.0797   17.7502  -32.9972 H   0  0  0  0  0  0  0  0  0  0  0  0
   -9.4996   18.7440  -31.1993 H   0  0  0  0  0  0  0  0  0  0  0  0
   -9.0899   21.0809  -30.4278 H   0  0  0  0  0  0  0  0  0  0  0  0
   -7.2465   22.4274  -31.4401 H   0  0  0  0  0  0  0  0  0  0  0  0
   -5.8227   21.4452  -33.2396 H   0  0  0  0  0  0  0  0  0  0  0  0
   -5.9790   14.1624  -32.2768 H   0  0  0  0  0  0  0  0  0  0  0  0
   -3.8890   12.8405  -31.7898 H   0  0  0  0  0  0  0  0  0  0  0  0
   -1.6380   13.8130  -32.3001 H   0  0  0  0  0  0  0  0  0  0  0  0
   -1.4520   16.1231  -33.2934 H   0  0  0  0  0  0  0  0  0  0  0  0
   -1.5236   18.3100  -31.8704 H   0  0  0  0  0  0  0  0  0  0  0  0
   -1.2316   19.9877  -30.0496 H   0  0  0  0  0  0  0  0  0  0  0  0
  1  2  1  0
  2  3  1  0
  3  4  1  0
  4  5  1  0
  5  6  1  0
  6  7  2  0
  7  8  1  0
  8  9  2  0
  9 10  1  0
 10 11  2  0
 11 12  1  0
 12 13  2  0
 13 14  1  0
 14 15  2  0
 15 16  1  0
 16 17  1  0
 17 18  2  0
 18 19  1  0
 19 20  1  0
 20 21  2  0
 21 22  1  0
 22 23  2  0
 23 24  1  0
 24 25  2  0
 18 26  1  0
 26 27  1  0
 27 28  2  0
 28 29  1  0
 29 30  2  0
 30 31  1  0
 31 32  2  0
 15 33  1  0
 33 34  2  0
 11  6  1  0
 34 12  1  0
 32 17  1  0
 25 20  1  0
 32 27  1  0
  1 35  1  0
  2 36  1  0
  2 37  1  0
  3 38  1  0
  3 39  1  0
  5 40  1  0
  5 41  1  0
  7 42  1  0
  8 43  1  0
  9 44  1  0
 10 45  1  0
 13 46  1  0
 14 47  1  0
 16 48  1  0
 16 49  1  0
 19 50  1  0
 19 51  1  0
 21 52  1  0
 22 53  1  0
 23 54  1  0
 24 55  1  0
 25 56  1  0
 28 57  1  0
 29 58  1  0
 30 59  1  0
 31 60  1  0
 33 61  1  0
 34 62  1  0
M  END
>  <UniqueID>  (20) 
15

>  <SMILES>  (20) 
OCCOCc1ccccc1-c1ccc(Cc2c(Cc3ccccc3)oc3ccccc23)cc1

>  <Energy>  (20) 
99.07905877725297

>  <Genealogy>  (20) 
OCCOCc1ccccc1-c1ccc(Cc2c(Cc3ccccc3)oc3ccccc23)cc1 (3D coordinates assigned)
OCCOCc1ccccc1-c1ccc(Cc2c(Cc3ccccc3)oc3ccccc23)cc1 (optimized conformer: 99.07905877725297 kcal/mol)

>  <smiles>  (20) 
OCCOCc1ccccc1-c1ccc(Cc2c(Cc3ccccc3)oc3ccccc23)cc1

>  <score_type>  (20) 
oracle

>  <origin>  (20) 
adg

>  <m_score__min__energy>  (20) 
-10.279999999999999

>  <m_primary>  (20) 
energy

$$$$
20:0
     RDKit          3D

 55 59  0  0  0  0  0  0  0  0999 V2000
   -4.3850   25.6640  -30.8490 O   0  0  0  0  0  0  0  0  0  0  0  0
   -4.3330   24.4050  -30.8170 C   0  0  0  0  0  0  0  0  0  0  0  0
   -3.1040   23.7550  -30.4760 N   0  0  0  0  0  0  0  0  0  0  0  0
   -2.3760   23.8980  -28.9120 S   0  0  0  0  0  0  0  0  0  0  0  0
   -1.1290   24.7300  -29.0280 O   0  0  0  0  0  0  0  0  0  0  0  0
   -3.3340   24.5820  -27.9800 O   0  0  0  0  0  0  0  0  0  0  0  0
   -2.0050   22.2950  -28.2810 C   0  0  0  0  0  0  0  0  0  0  0  0
   -3.0380   21.4060  -27.9500 C   0  0  0  0  0  0  0  0  0  0  0  0
   -2.7410   20.1310  -27.4610 C   0  0  0  0  0  0  0  0  0  0  0  0
   -1.4110   19.7350  -27.3000 C   0  0  0  0  0  0  0  0  0  0  0  0
   -0.3760   20.6150  -27.6270 C   0  0  0  0  0  0  0  0  0  0  0  0
   -0.6680   21.8910  -28.1170 C   0  0  0  0  0  0  0  0  0  0  0  0
    0.3490   22.7300  -28.4370 F   0  0  0  0  0  0  0  0  0  0  0  0
   -5.5370   23.6040  -31.1360 C   0  0  0  0  0  0  0  0  0  0  0  0
   -6.8170   24.1800  -31.0540 C   0  0  0  0  0  0  0  0  0  0  0  0
   -7.9520   23.4270  -31.3650 C   0  0  0  0  0  0  0  0  0  0  0  0
   -7.8250   22.0950  -31.7620 C   0  0  0  0  0  0  0  0  0  0  0  0
   -6.5570   21.4970  -31.8550 C   0  0  0  0  0  0  0  0  0  0  0  0
   -6.4190   20.0860  -32.2980 C   0  0  0  0  0  0  0  0  0  0  0  0
   -7.4220   19.1310  -31.9800 C   0  0  0  0  0  0  0  0  0  0  0  0
   -7.2880   17.7880  -32.3760 C   0  0  0  0  0  0  0  0  0  0  0  0
   -6.1500   17.4280  -33.0870 C   0  0  0  0  0  0  0  0  0  0  0  0
   -5.7540   16.2030  -33.5780 C   0  0  0  0  0  0  0  0  0  0  0  0
   -4.5250   16.4310  -34.1870 C   0  0  0  0  0  0  0  0  0  0  0  0
   -4.1780   17.7350  -34.0850 N   0  0  0  0  0  0  0  0  0  0  0  0
   -2.9330   18.3350  -34.5660 C   0  0  0  0  0  0  0  0  0  0  0  0
   -2.3760   19.2840  -33.5390 C   0  0  0  0  0  0  0  0  0  0  0  0
   -2.4680   20.6740  -33.7230 C   0  0  0  0  0  0  0  0  0  0  0  0
   -1.9620   21.5480  -32.7560 C   0  0  0  0  0  0  0  0  0  0  0  0
   -1.3600   21.0420  -31.6010 C   0  0  0  0  0  0  0  0  0  0  0  0
   -1.2620   19.6620  -31.4110 C   0  0  0  0  0  0  0  0  0  0  0  0
   -1.7660   18.7840  -32.3760 C   0  0  0  0  0  0  0  0  0  0  0  0
   -5.1770   18.3370  -33.4060 C   0  0  0  0  0  0  0  0  0  0  0  0
   -5.2780   19.6780  -33.0270 C   0  0  0  0  0  0  0  0  0  0  0  0
   -5.4180   22.2600  -31.5370 C   0  0  0  0  0  0  0  0  0  0  0  0
   -4.0866   21.7137  -28.0758 H   0  0  0  0  0  0  0  0  0  0  0  0
   -3.5555   19.4383  -27.2025 H   0  0  0  0  0  0  0  0  0  0  0  0
   -1.1786   18.7308  -26.9159 H   0  0  0  0  0  0  0  0  0  0  0  0
    0.6709   20.3028  -27.4985 H   0  0  0  0  0  0  0  0  0  0  0  0
   -6.9254   25.2296  -30.7432 H   0  0  0  0  0  0  0  0  0  0  0  0
   -8.9495   23.8857  -31.2967 H   0  0  0  0  0  0  0  0  0  0  0  0
   -8.7241   21.5092  -32.0038 H   0  0  0  0  0  0  0  0  0  0  0  0
   -8.3135   19.4456  -31.4177 H   0  0  0  0  0  0  0  0  0  0  0  0
   -8.0610   17.0450  -32.1301 H   0  0  0  0  0  0  0  0  0  0  0  0
   -6.2949   15.2481  -33.5040 H   0  0  0  0  0  0  0  0  0  0  0  0
   -3.9189   15.6586  -34.6829 H   0  0  0  0  0  0  0  0  0  0  0  0
   -2.1987   17.5393  -34.7600 H   0  0  0  0  0  0  0  0  0  0  0  0
   -3.1402   18.8925  -35.4913 H   0  0  0  0  0  0  0  0  0  0  0  0
   -2.9400   21.0762  -34.6315 H   0  0  0  0  0  0  0  0  0  0  0  0
   -2.0379   22.6353  -32.9047 H   0  0  0  0  0  0  0  0  0  0  0  0
   -0.9631   21.7311  -30.8410 H   0  0  0  0  0  0  0  0  0  0  0  0
   -0.7878   19.2650  -30.5013 H   0  0  0  0  0  0  0  0  0  0  0  0
   -1.6846   17.6976  -32.2240 H   0  0  0  0  0  0  0  0  0  0  0  0
   -4.4894   20.3987  -33.2892 H   0  0  0  0  0  0  0  0  0  0  0  0
   -4.4211   21.7998  -31.6027 H   0  0  0  0  0  0  0  0  0  0  0  0
  1  2  2  0
  2  3  1  0
  3  4  1  0
  4  5  2  0
  4  6  2  0
  4  7  1  0
  7  8  2  0
  8  9  1  0
  9 10  2  0
 10 11  1  0
 11 12  2  0
 12 13  1  0
  2 14  1  0
 14 15  2  0
 15 16  1  0
 16 17  2  0
 17 18  1  0
 18 19  1  0
 19 20  2  0
 20 21  1  0
 21 22  2  0
 22 23  1  0
 23 24  2  0
 24 25  1  0
 25 26  1  0
 26 27  1  0
 27 28  2  0
 28 29  1  0
 29 30  2  0
 30 31  1  0
 31 32  2  0
 25 33  1  0
 33 34  2  0
 18 35  2  0
 12  7  1  0
 35 14  1  0
 34 19  1  0
 33 22  1  0
 32 27  1  0
  8 36  1  0
  9 37  1  0
 10 38  1  0
 11 39  1  0
 15 40  1  0
 16 41  1  0
 17 42  1  0
 20 43  1  0
 21 44  1  0
 23 45  1  0
 24 46  1  0
 26 47  1  0
 26 48  1  0
 28 49  1  0
 29 50  1  0
 30 51  1  0
 31 52  1  0
 32 53  1  0
 34 54  1  0
 35 55  1  0
M  CHG  1   3  -1
M  END
>  <UniqueID>  (21) 
16

>  <SMILES>  (21) 
O=C([N-]S(=O)(=O)c1ccccc1F)c1cccc(-c2ccc3ccn(Cc4ccccc4)c3c2)c1

>  <Energy>  (21) 
101.79337568850734

>  <Genealogy>  (21) 
O=C([N-]S(=O)(=O)c1ccccc1F)c1cccc(-c2ccc3ccn(Cc4ccccc4)c3c2)c1 (protonated)
O=C([N-]S(=O)(=O)c1ccccc1F)c1cccc(-c2ccc3ccn(Cc4ccccc4)c3c2)c1 (3D coordinates assigned)
O=C([N-]S(=O)(=O)c1ccccc1F)c1cccc(-c2ccc3ccn(Cc4ccccc4)c3c2)c1 (optimized conformer: 101.79337568850734 kcal/mol)

>  <smiles>  (21) 
O=C(NS(=O)(=O)c1ccccc1F)c1cccc(-c2ccc3ccn(Cc4ccccc4)c3c2)c1

>  <score_type>  (21) 
oracle

>  <origin>  (21) 
adg

>  <m_score__min__energy>  (21) 
-12.199999999999999

>  <m_primary>  (21) 
energy

$$$$
21:0
     RDKit          3D

 42 44  0  0  0  0  0  0  0  0999 V2000
   -6.8600   24.4460  -30.0400 C   0  0  0  0  0  0  0  0  0  0  0  0
   -5.5120   24.9130  -31.1690 S   0  0  0  0  0  0  0  0  0  0  0  0
   -4.9330   23.2270  -31.3460 C   0  0  0  0  0  0  0  0  0  0  0  0
   -5.0750   22.6010  -32.4790 N   0  0  0  0  0  0  0  0  0  0  0  0
   -4.6710   21.1990  -32.6600 C   0  0  2  0  0  0  0  0  0  0  0  0
   -5.8670   20.2730  -32.5180 C   0  0  0  0  0  0  0  0  0  0  0  0
   -7.1650   20.8150  -32.4700 C   0  0  0  0  0  0  0  0  0  0  0  0
   -8.2810   19.9790  -32.3770 C   0  0  0  0  0  0  0  0  0  0  0  0
   -8.1170   18.5930  -32.3420 C   0  0  0  0  0  0  0  0  0  0  0  0
   -6.8360   18.0400  -32.4060 C   0  0  0  0  0  0  0  0  0  0  0  0
   -5.7160   18.8710  -32.4990 C   0  0  0  0  0  0  0  0  0  0  0  0
   -3.5250   20.7990  -31.6870 C   0  0  1  0  0  0  0  0  0  0  0  0
   -2.1810   21.2410  -32.2320 C   0  0  0  0  0  0  0  0  0  0  0  0
   -1.6440   22.2770  -31.7500 O   0  0  0  0  0  0  0  0  0  0  0  0
   -1.4760   20.5090  -33.3180 C   0  0  0  0  0  0  0  0  0  0  0  0
   -1.7130   19.1420  -33.5660 C   0  0  0  0  0  0  0  0  0  0  0  0
   -1.0300   18.4790  -34.5900 C   0  0  0  0  0  0  0  0  0  0  0  0
   -0.1010   19.1670  -35.3740 C   0  0  0  0  0  0  0  0  0  0  0  0
    0.1510   20.5190  -35.1320 C   0  0  0  0  0  0  0  0  0  0  0  0
   -0.5280   21.1860  -34.1080 C   0  0  0  0  0  0  0  0  0  0  0  0
   -3.7380   21.4220  -30.3270 C   0  0  0  0  0  0  0  0  0  0  0  0
   -3.1170   20.8060  -29.1130 C   0  0  0  0  0  0  0  0  0  0  0  0
   -4.3330   22.5720  -30.2220 N   0  0  0  0  0  0  0  0  0  0  0  0
   -6.5235   24.5626  -28.9992 H   0  0  0  0  0  0  0  0  0  0  0  0
   -7.7298   25.0952  -30.2191 H   0  0  0  0  0  0  0  0  0  0  0  0
   -7.1417   23.3979  -30.2191 H   0  0  0  0  0  0  0  0  0  0  0  0
   -5.5360   23.0880  -33.2800 H   0  0  0  0  0  0  0  0  0  0  0  0
   -4.2764   21.0935  -33.6813 H   0  0  0  0  0  0  0  0  0  0  0  0
   -7.3022   21.9058  -32.5060 H   0  0  0  0  0  0  0  0  0  0  0  0
   -9.2904   20.4138  -32.3313 H   0  0  0  0  0  0  0  0  0  0  0  0
   -8.9963   17.9367  -32.2640 H   0  0  0  0  0  0  0  0  0  0  0  0
   -6.7083   16.9477  -32.3831 H   0  0  0  0  0  0  0  0  0  0  0  0
   -4.7106   18.4287  -32.5577 H   0  0  0  0  0  0  0  0  0  0  0  0
   -3.5351   19.7033  -31.5903 H   0  0  0  0  0  0  0  0  0  0  0  0
   -2.4402   18.5930  -32.9498 H   0  0  0  0  0  0  0  0  0  0  0  0
   -1.2247   17.4129  -34.7787 H   0  0  0  0  0  0  0  0  0  0  0  0
    0.4319   18.6440  -36.1818 H   0  0  0  0  0  0  0  0  0  0  0  0
    0.8846   21.0599  -35.7478 H   0  0  0  0  0  0  0  0  0  0  0  0
   -0.3195   22.2492  -33.9180 H   0  0  0  0  0  0  0  0  0  0  0  0
   -3.5622   21.2476  -28.2093 H   0  0  0  0  0  0  0  0  0  0  0  0
   -3.2986   19.7211  -29.1186 H   0  0  0  0  0  0  0  0  0  0  0  0
   -2.0336   20.9964  -29.1186 H   0  0  0  0  0  0  0  0  0  0  0  0
  1  2  1  0
  2  3  1  0
  3  4  2  0
  4  5  1  0
  5  6  1  0
  6  7  2  0
  7  8  1  0
  8  9  2  0
  9 10  1  0
 10 11  2  0
  5 12  1  0
 12 13  1  0
 13 14  2  0
 13 15  1  0
 15 16  2  0
 16 17  1  0
 17 18  2  0
 18 19  1  0
 19 20  2  0
 12 21  1  0
 21 22  1  0
 21 23  2  0
 23  3  1  0
 11  6  1  0
 20 15  1  0
  1 24  1  0
  1 25  1  0
  1 26  1  0
  4 27  1  0
  5 28  1  6
  7 29  1  0
  8 30  1  0
  9 31  1  0
 10 32  1  0
 11 33  1  0
 12 34  1  1
 16 35  1  0
 17 36  1  0
 18 37  1  0
 19 38  1  0
 20 39  1  0
 22 40  1  0
 22 41  1  0
 22 42  1  0
M  CHG  1   4   1
M  END
>  <UniqueID>  (22) 
17

>  <SMILES>  (22) 
CSC1=[NH+][C@H](c2ccccc2)[C@@H](C(=O)c2ccccc2)C(C)=N1

>  <Energy>  (22) 
43.19867497994041

>  <Genealogy>  (22) 
CSC1=[NH+]C(c2ccccc2)C(C(=O)c2ccccc2)C(C)=N1 (protonated)
CSC1=[NH+][C@H](c2ccccc2)[C@@H](C(=O)c2ccccc2)C(C)=N1 (chirality)
CSC1=[NH+][C@H](c2ccccc2)[C@@H](C(=O)c2ccccc2)C(C)=N1 (3D coordinates assigned)
CSC1=[NH+][C@H](c2ccccc2)[C@@H](C(=O)c2ccccc2)C(C)=N1 (nonaromatic ring conformer: 43.19867497994041 kcal/mol)

>  <smiles>  (22) 
CSC1=NC(c2ccccc2)C(C(=O)c2ccccc2)C(C)=N1

>  <score_type>  (22) 
oracle

>  <origin>  (22) 
adg

>  <m_score__min__energy>  (22) 
-7.2999999999999998

>  <m_primary>  (22) 
energy

$$$$
22:0
     RDKit          3D

 49 49  0  0  0  0  0  0  0  0999 V2000
   -4.3445   23.9903  -28.0762 H   0  0  0  0  0  0  0  0  0  0  0  0
   -3.3860   23.8250  -28.5900 C   0  0  0  0  0  0  0  0  0  0  0  0
   -2.8900   24.9220  -29.4490 C   0  0  0  0  0  0  0  0  0  0  0  0
   -3.5470   25.2380  -30.4740 O   0  0  0  0  0  0  0  0  0  0  0  0
   -1.7100   25.6040  -29.1730 O   0  0  0  0  0  0  0  0  0  0  0  0
   -2.7750   22.6400  -28.3760 C   0  0  0  0  0  0  0  0  0  0  0  0
   -1.8290   22.4140  -27.2210 C   0  0  0  0  0  0  0  0  0  0  0  0
   -2.3709   22.5434  -26.2725 H   0  0  0  0  0  0  0  0  0  0  0  0
   -1.4222   21.3934  -27.2745 H   0  0  0  0  0  0  0  0  0  0  0  0
   -1.0048   23.1405  -27.2745 H   0  0  0  0  0  0  0  0  0  0  0  0
   -3.1210   21.4700  -29.2680 C   0  0  0  0  0  0  0  0  0  0  0  0
   -2.7266   20.5519  -28.8082 H   0  0  0  0  0  0  0  0  0  0  0  0
   -4.2165   21.4475  -29.3653 H   0  0  0  0  0  0  0  0  0  0  0  0
   -2.4260   21.6180  -30.9660 S   0  0  0  0  0  0  0  0  0  0  0  0
   -3.8690   22.2440  -31.9310 C   0  0  1  0  0  0  0  0  0  0  0  0
   -3.7567   23.3348  -32.0185 H   0  0  0  0  0  0  0  0  0  0  0  0
   -3.8650   21.6670  -33.3520 C   0  0  0  0  0  0  0  0  0  0  0  0
   -3.8574   20.5682  -33.3015 H   0  0  0  0  0  0  0  0  0  0  0  0
   -4.7655   22.0033  -33.8868 H   0  0  0  0  0  0  0  0  0  0  0  0
   -2.9693   22.0157  -33.8868 H   0  0  0  0  0  0  0  0  0  0  0  0
   -5.2130   22.0400  -31.2040 C   0  0  0  0  0  0  0  0  0  0  0  0
   -5.7843   21.2619  -31.7314 H   0  0  0  0  0  0  0  0  0  0  0  0
   -4.9902   21.7471  -30.1674 H   0  0  0  0  0  0  0  0  0  0  0  0
   -6.0590   23.3240  -31.1540 C   0  0  0  0  0  0  0  0  0  0  0  0
   -6.6137   23.3423  -30.2043 H   0  0  0  0  0  0  0  0  0  0  0  0
   -5.3702   24.1772  -31.2417 H   0  0  0  0  0  0  0  0  0  0  0  0
   -7.0670   23.4220  -32.3140 C   0  0  0  0  0  0  0  0  0  0  0  0
   -7.0601   24.4578  -32.6842 H   0  0  0  0  0  0  0  0  0  0  0  0
   -6.7423   22.6852  -33.0635 H   0  0  0  0  0  0  0  0  0  0  0  0
   -8.5200   23.0540  -31.9540 C   0  0  0  0  0  0  0  0  0  0  0  0
   -8.9549   23.8773  -31.3684 H   0  0  0  0  0  0  0  0  0  0  0  0
   -9.0604   22.8899  -32.8979 H   0  0  0  0  0  0  0  0  0  0  0  0
   -8.6280   21.7580  -31.1320 C   0  0  0  0  0  0  0  0  0  0  0  0
   -7.6297   21.4954  -30.7519 H   0  0  0  0  0  0  0  0  0  0  0  0
   -9.3352   21.9381  -30.3089 H   0  0  0  0  0  0  0  0  0  0  0  0
   -9.1640   20.5850  -31.9660 C   0  0  0  0  0  0  0  0  0  0  0  0
   -9.8748   20.0103  -31.3541 H   0  0  0  0  0  0  0  0  0  0  0  0
   -9.6519   21.0001  -32.8602 H   0  0  0  0  0  0  0  0  0  0  0  0
   -8.0610   19.6640  -32.4240 C   0  0  0  0  0  0  0  0  0  0  0  0
   -7.1600   20.0810  -33.4170 C   0  0  0  0  0  0  0  0  0  0  0  0
   -7.2498   21.0879  -33.8506 H   0  0  0  0  0  0  0  0  0  0  0  0
   -6.1480   19.2200  -33.8570 C   0  0  0  0  0  0  0  0  0  0  0  0
   -5.4415   19.5524  -34.6318 H   0  0  0  0  0  0  0  0  0  0  0  0
   -6.0350   17.9380  -33.3120 C   0  0  0  0  0  0  0  0  0  0  0  0
   -5.2394   17.2620  -33.6585 H   0  0  0  0  0  0  0  0  0  0  0  0
   -6.9310   17.5140  -32.3280 C   0  0  0  0  0  0  0  0  0  0  0  0
   -6.8413   16.5039  -31.9018 H   0  0  0  0  0  0  0  0  0  0  0  0
   -7.9420   18.3720  -31.8840 C   0  0  0  0  0  0  0  0  0  0  0  0
   -8.6465   18.0345  -31.1095 H   0  0  0  0  0  0  0  0  0  0  0  0
  1  2  1  0
  2  3  1  0
  3  4  2  0
  3  5  1  0
  2  6  2  0
  6  7  1  0
  7  8  1  0
  7  9  1  0
  7 10  1  0
  6 11  1  0
 11 12  1  0
 11 13  1  0
 11 14  1  0
 14 15  1  0
 15 16  1  6
 15 17  1  0
 17 18  1  0
 17 19  1  0
 17 20  1  0
 15 21  1  0
 21 22  1  0
 21 23  1  0
 21 24  1  0
 24 25  1  0
 24 26  1  0
 24 27  1  0
 27 28  1  0
 27 29  1  0
 27 30  1  0
 30 31  1  0
 30 32  1  0
 30 33  1  0
 33 34  1  0
 33 35  1  0
 33 36  1  0
 36 37  1  0
 36 38  1  0
 36 39  1  0
 39 40  2  0
 40 41  1  0
 40 42  1  0
 42 43  1  0
 42 44  2  0
 44 45  1  0
 44 46  1  0
 46 47  1  0
 46 48  2  0
 48 49  1  0
 48 39  1  0
M  CHG  1   5  -1
M  END
>  <UniqueID>  (23) 
18

>  <SMILES>  (23) 
C/C(=C\C(=O)[O-])CS[C@@H](C)CCCCCCc1ccccc1

>  <Energy>  (23) 
34.30432884335939

>  <Genealogy>  (23) 
CC(=CC(=O)[O-])CSC(C)CCCCCCc1ccccc1 (protonated)
CC(=CC(=O)[O-])CS[C@@H](C)CCCCCCc1ccccc1 (chirality)
C/C(=C\C(=O)[O-])CS[C@@H](C)CCCCCCc1ccccc1 (cis-trans isomerization)
C/C(=C\C(=O)[O-])CS[C@@H](C)CCCCCCc1ccccc1 (3D coordinates assigned)
C/C(=C\C(=O)[O-])CS[C@@H](C)CCCCCCc1ccccc1 (optimized conformer: 34.30432884335939 kcal/mol)

>  <smiles>  (23) 
CC(=CC(=O)O)CSC(C)CCCCCCc1ccccc1

>  <score_type>  (23) 
oracle

>  <origin>  (23) 
adg

>  <m_score__min__energy>  (23) 
-10.41

>  <m_primary>  (23) 
energy

$$$$
23:0
     RDKit          3D

 42 45  0  0  1  0  0  0  0  0999 V2000
   -6.3970   23.9740  -30.0110 N   0  0  0  0  0  0  0  0  0  0  0  0
   -5.3440   24.5690  -30.4560 C   0  0  0  0  0  0  0  0  0  0  0  0
   -5.3310   25.9940  -30.5480 N   0  0  0  0  0  0  0  0  0  0  0  0
   -4.2110   23.8030  -30.8480 N   0  0  0  0  0  0  0  0  0  0  0  0
   -4.3150   22.7090  -31.5240 C   0  0  0  0  0  0  0  0  0  0  0  0
   -3.2200   22.1730  -32.1970 C   0  0  0  0  0  0  0  0  0  0  0  0
   -3.3300   21.0000  -32.9240 C   0  0  0  0  0  0  0  0  0  0  0  0
   -2.1760   20.4490  -33.6250 C   0  0  0  0  0  0  0  0  0  0  0  0
   -2.0580   19.1020  -33.9010 C   0  0  0  0  0  0  0  0  0  0  0  0
   -0.9450   18.5860  -34.5740 C   0  0  0  0  0  0  0  0  0  0  0  0
    0.0780   19.4020  -34.9880 C   0  0  0  0  0  0  0  0  0  0  0  0
    1.1730   18.8930  -35.6510 C   0  0  0  0  0  0  0  0  0  0  0  0
    2.2020   19.7150  -36.0680 C   0  0  0  0  0  0  0  0  0  0  0  0
    2.0950   21.0640  -35.7970 C   0  0  0  0  0  0  0  0  0  0  0  0
    1.0030   21.5710  -35.1370 C   0  0  0  0  0  0  0  0  0  0  0  0
   -0.0270   20.7410  -34.7200 C   0  0  0  0  0  0  0  0  0  0  0  0
   -1.1400   21.2570  -34.0470 C   0  0  0  0  0  0  0  0  0  0  0  0
   -4.5440   20.4200  -32.9360 N   0  0  0  0  0  0  0  0  0  0  0  0
   -5.6160   20.9200  -32.2950 C   0  0  0  0  0  0  0  0  0  0  0  0
   -6.9250   20.2920  -32.3110 C   0  0  0  0  0  0  0  0  0  0  0  0
   -8.0850   21.0760  -32.3230 C   0  0  0  0  0  0  0  0  0  0  0  0
   -9.3420   20.5210  -32.3370 C   0  0  0  0  0  0  0  0  0  0  0  0
   -9.4790   19.1760  -32.3420 N   0  0  0  0  0  0  0  0  0  0  0  0
   -8.4050   18.3660  -32.3300 C   0  0  0  0  0  0  0  0  0  0  0  0
   -7.1310   18.9330  -32.3140 C   0  0  0  0  0  0  0  0  0  0  0  0
   -5.4840   22.0630  -31.5950 N   0  0  0  0  0  0  0  0  0  0  0  0
   -6.3940   22.9180  -30.0080 H   0  0  0  0  0  0  0  0  0  0  0  0
   -5.3000   26.5360  -29.6510 H   0  0  0  0  0  0  0  0  0  0  0  0
   -5.3520   26.4340  -31.4780 H   0  0  0  0  0  0  0  0  0  0  0  0
   -2.2506   22.6907  -32.1501 H   0  0  0  0  0  0  0  0  0  0  0  0
   -2.8585   18.4172  -33.5842 H   0  0  0  0  0  0  0  0  0  0  0  0
   -0.8889   17.5060  -34.7751 H   0  0  0  0  0  0  0  0  0  0  0  0
    1.2290   17.8130  -35.8519 H   0  0  0  0  0  0  0  0  0  0  0  0
    3.0762   19.3085  -36.5976 H   0  0  0  0  0  0  0  0  0  0  0  0
    2.8984   21.7447  -36.1152 H   0  0  0  0  0  0  0  0  0  0  0  0
    0.9442   22.6509  -34.9361 H   0  0  0  0  0  0  0  0  0  0  0  0
   -1.1906   22.3378  -33.8486 H   0  0  0  0  0  0  0  0  0  0  0  0
   -4.6950   19.5370  -33.4630 H   0  0  0  0  0  0  0  0  0  0  0  0
   -7.9869   22.1716  -32.3212 H   0  0  0  0  0  0  0  0  0  0  0  0
  -10.2319   21.1675  -32.3441 H   0  0  0  0  0  0  0  0  0  0  0  0
   -8.5298   17.2731  -32.3328 H   0  0  0  0  0  0  0  0  0  0  0  0
   -6.2562   18.2662  -32.3034 H   0  0  0  0  0  0  0  0  0  0  0  0
  1  2  2  0
  2  3  1  0
  2  4  1  0
  4  5  2  0
  5  6  1  0
  6  7  2  0
  7  8  1  0
  8  9  2  0
  9 10  1  0
 10 11  2  0
 11 12  1  0
 12 13  2  0
 13 14  1  0
 14 15  2  0
 15 16  1  0
 16 17  2  0
  7 18  1  0
 18 19  1  0
 19 20  1  0
 20 21  2  0
 21 22  1  0
 22 23  2  0
 23 24  1  0
 24 25  2  0
 19 26  2  0
 26  5  1  0
 17  8  1  0
 25 20  1  0
 16 11  1  0
  1 27  1  0
  3 28  1  0
  3 29  1  0
  6 30  1  0
  9 31  1  0
 10 32  1  0
 12 33  1  0
 13 34  1  0
 14 35  1  0
 15 36  1  0
 17 37  1  0
 18 38  1  0
 21 39  1  0
 22 40  1  0
 24 41  1  0
 25 42  1  0
M  END
>  <smiles>  (24) 
N=C(N)N=c1cc(-c2ccc3ccccc3c2)[nH]c(-c2ccncc2)n1

>  <score_type>  (24) 
oracle

>  <origin>  (24) 
adg

>  <m_score__min__energy>  (24) 
-8.8300000000000001

>  <m_primary>  (24) 
energy

$$$$
24:0
     RDKit          3D

 25 26  0  0  0  0  0  0  0  0999 V2000
   -2.4200   24.5560  -28.6900 C   0  0  0  0  0  0  0  0  0  0  0  0
   -3.1190   25.2860  -29.6910 O   0  0  0  0  0  0  0  0  0  0  0  0
   -4.3840   24.9080  -30.1510 C   0  0  0  0  0  0  0  0  0  0  0  0
   -4.8480   25.3850  -31.2230 O   0  0  0  0  0  0  0  0  0  0  0  0
   -5.1700   23.8900  -29.3900 C   0  0  0  0  0  0  0  0  0  0  0  0
   -5.7230   22.8580  -30.3300 C   0  0  0  0  0  0  0  0  0  0  0  0
   -7.0590   22.6030  -30.3280 N   0  0  0  0  0  0  0  0  0  0  0  0
   -7.5970   21.6990  -31.1850 C   0  0  0  0  0  0  0  0  0  0  0  0
   -8.9700   21.4340  -31.1810 C   0  0  0  0  0  0  0  0  0  0  0  0
   -9.5000   20.4960  -32.0740 C   0  0  0  0  0  0  0  0  0  0  0  0
   -8.6590   19.8260  -32.9710 C   0  0  0  0  0  0  0  0  0  0  0  0
   -7.2850   20.0900  -32.9790 C   0  0  0  0  0  0  0  0  0  0  0  0
   -6.7490   21.0260  -32.0890 C   0  0  0  0  0  0  0  0  0  0  0  0
   -5.4470   21.2910  -32.0880 O   0  0  0  0  0  0  0  0  0  0  0  0
   -4.9060   22.1750  -31.2530 C   0  0  0  0  0  0  0  0  0  0  0  0
   -3.6660   22.3910  -31.3020 O   0  0  0  0  0  0  0  0  0  0  0  0
   -2.7446   24.8949  -27.6951 H   0  0  0  0  0  0  0  0  0  0  0  0
   -2.6362   23.4831  -28.8004 H   0  0  0  0  0  0  0  0  0  0  0  0
   -1.3388   24.7254  -28.8004 H   0  0  0  0  0  0  0  0  0  0  0  0
   -4.5149   23.3992  -28.6552 H   0  0  0  0  0  0  0  0  0  0  0  0
   -6.0026   24.3900  -28.8735 H   0  0  0  0  0  0  0  0  0  0  0  0
   -9.6315   21.9613  -30.4779 H   0  0  0  0  0  0  0  0  0  0  0  0
  -10.5795   20.2846  -32.0713 H   0  0  0  0  0  0  0  0  0  0  0  0
   -9.0799   19.0898  -33.6716 H   0  0  0  0  0  0  0  0  0  0  0  0
   -6.6270   19.5618  -33.6847 H   0  0  0  0  0  0  0  0  0  0  0  0
  1  2  1  0
  2  3  1  0
  3  4  2  0
  3  5  1  0
  5  6  1  0
  6  7  2  0
  7  8  1  0
  8  9  2  0
  9 10  1  0
 10 11  2  0
 11 12  1  0
 12 13  2  0
 13 14  1  0
 14 15  1  0
 15 16  2  0
 15  6  1  0
 13  8  1  0
  1 17  1  0
  1 18  1  0
  1 19  1  0
  5 20  1  0
  5 21  1  0
  9 22  1  0
 10 23  1  0
 11 24  1  0
 12 25  1  0
M  END
>  <UniqueID>  (25) 
19

>  <SMILES>  (25) 
COC(=O)Cc1nc2ccccc2oc1=O

>  <Energy>  (25) 
26.501636228508968

>  <Genealogy>  (25) 
COC(=O)Cc1nc2ccccc2oc1=O (3D coordinates assigned)
COC(=O)Cc1nc2ccccc2oc1=O (optimized conformer: 26.501636228508968 kcal/mol)

>  <smiles>  (25) 
COC(=O)Cc1nc2ccccc2oc1=O

>  <score_type>  (25) 
oracle

>  <origin>  (25) 
adg

>  <m_score__min__energy>  (25) 
-6.4900000000000002

>  <m_primary>  (25) 
energy

$$$$
25:0
     RDKit          3D

 42 45  0  0  0  0  0  0  0  0999 V2000
   -9.1580   22.6100  -31.6680 C   0  0  0  0  0  0  0  0  0  0  0  0
   -9.4760   21.2720  -31.4410 C   0  0  0  0  0  0  0  0  0  0  0  0
   -8.5960   20.2690  -31.8500 C   0  0  0  0  0  0  0  0  0  0  0  0
   -7.3980   20.6210  -32.4930 C   0  0  0  0  0  0  0  0  0  0  0  0
   -6.4800   19.5640  -32.9790 C   0  0  0  0  0  0  0  0  0  0  0  0
   -6.9360   18.2400  -33.0990 C   0  0  0  0  0  0  0  0  0  0  0  0
   -6.0990   17.2470  -33.6130 C   0  0  0  0  0  0  0  0  0  0  0  0
   -4.8030   17.5670  -34.0180 C   0  0  0  0  0  0  0  0  0  0  0  0
   -4.3390   18.8790  -33.9130 C   0  0  0  0  0  0  0  0  0  0  0  0
   -5.1720   19.8880  -33.3950 C   0  0  0  0  0  0  0  0  0  0  0  0
   -4.7350   21.2190  -33.3040 O   0  0  0  0  0  0  0  0  0  0  0  0
   -3.4200   21.6120  -32.9200 C   0  0  0  0  0  0  0  0  0  0  0  0
   -3.3600   21.8320  -31.4240 C   0  0  0  0  0  0  0  0  0  0  0  0
   -2.4990   21.0240  -30.6610 C   0  0  0  0  0  0  0  0  0  0  0  0
   -2.3630   21.2260  -29.2880 C   0  0  0  0  0  0  0  0  0  0  0  0
   -3.0740   22.2410  -28.6520 C   0  0  0  0  0  0  0  0  0  0  0  0
   -3.9390   23.0640  -29.3840 C   0  0  0  0  0  0  0  0  0  0  0  0
   -4.6420   24.0940  -28.7380 C   0  0  0  0  0  0  0  0  0  0  0  0
   -5.5000   24.9230  -29.4610 C   0  0  0  0  0  0  0  0  0  0  0  0
   -5.6730   24.7260  -30.8310 C   0  0  0  0  0  0  0  0  0  0  0  0
   -4.9850   23.7050  -31.4890 C   0  0  0  0  0  0  0  0  0  0  0  0
   -4.0980   22.8620  -30.7820 C   0  0  0  0  0  0  0  0  0  0  0  0
   -7.1060   21.9400  -32.6970 N   0  0  0  0  0  0  0  0  0  0  0  0
   -7.9560   22.9280  -32.3030 C   0  0  0  0  0  0  0  0  0  0  0  0
   -9.8467   23.4067  -31.3503 H   0  0  0  0  0  0  0  0  0  0  0  0
  -10.4190   21.0071  -30.9403 H   0  0  0  0  0  0  0  0  0  0  0  0
   -8.8387   19.2113  -31.6702 H   0  0  0  0  0  0  0  0  0  0  0  0
   -7.9590   17.9841  -32.7860 H   0  0  0  0  0  0  0  0  0  0  0  0
   -6.4619   16.2121  -33.6985 H   0  0  0  0  0  0  0  0  0  0  0  0
   -4.1450   16.7831  -34.4212 H   0  0  0  0  0  0  0  0  0  0  0  0
   -3.3171   19.1256  -34.2368 H   0  0  0  0  0  0  0  0  0  0  0  0
   -2.7075   20.8223  -33.2006 H   0  0  0  0  0  0  0  0  0  0  0  0
   -3.1598   22.5497  -33.4329 H   0  0  0  0  0  0  0  0  0  0  0  0
   -1.9263   20.2237  -31.1525 H   0  0  0  0  0  0  0  0  0  0  0  0
   -1.6906   20.5803  -28.7040 H   0  0  0  0  0  0  0  0  0  0  0  0
   -2.9555   22.3969  -27.5696 H   0  0  0  0  0  0  0  0  0  0  0  0
   -4.5154   24.2479  -27.6562 H   0  0  0  0  0  0  0  0  0  0  0  0
   -6.0409   25.7332  -28.9500 H   0  0  0  0  0  0  0  0  0  0  0  0
   -6.3551   25.3785  -31.3958 H   0  0  0  0  0  0  0  0  0  0  0  0
   -5.1347   23.5551  -32.5684 H   0  0  0  0  0  0  0  0  0  0  0  0
   -6.2080   22.2120  -33.1580 H   0  0  0  0  0  0  0  0  0  0  0  0
   -7.6947   23.9808  -32.4857 H   0  0  0  0  0  0  0  0  0  0  0  0
  1  2  2  0
  2  3  1  0
  3  4  2  0
  4  5  1  0
  5  6  2  0
  6  7  1  0
  7  8  2  0
  8  9  1  0
  9 10  2  0
 10 11  1  0
 11 12  1  0
 12 13  1  0
 13 14  2  0
 14 15  1  0
 15 16  2  0
 16 17  1  0
 17 18  2  0
 18 19  1  0
 19 20  2  0
 20 21  1  0
 21 22  2  0
  4 23  1  0
 23 24  2  0
 24  1  1  0
 10  5  1  0
 22 13  1  0
 22 17  1  0
  1 25  1  0
  2 26  1  0
  3 27  1  0
  6 28  1  0
  7 29  1  0
  8 30  1  0
  9 31  1  0
 12 32  1  0
 12 33  1  0
 14 34  1  0
 15 35  1  0
 16 36  1  0
 18 37  1  0
 19 38  1  0
 20 39  1  0
 21 40  1  0
 23 41  1  0
 24 42  1  0
M  CHG  1  23   1
M  END
>  <UniqueID>  (26) 
20

>  <SMILES>  (26) 
c1ccc(-c2ccccc2OCc2cccc3ccccc23)[nH+]c1

>  <Energy>  (26) 
56.75571929405445

>  <Genealogy>  (26) 
c1ccc(-c2ccccc2OCc2cccc3ccccc23)[nH+]c1 (protonated)
c1ccc(-c2ccccc2OCc2cccc3ccccc23)[nH+]c1 (3D coordinates assigned)
c1ccc(-c2ccccc2OCc2cccc3ccccc23)[nH+]c1 (optimized conformer: 56.75571929405445 kcal/mol)

>  <smiles>  (26) 
c1ccc(-c2ccccc2OCc2cccc3ccccc23)nc1

>  <score_type>  (26) 
oracle

>  <origin>  (26) 
adg

>  <m_score__min__energy>  (26) 
-7.8099999999999996

>  <m_primary>  (26) 
energy

$$$$
26:0
     RDKit          3D

 50 54  0  0  0  0  0  0  0  0999 V2000
   -5.4246   17.8903  -35.6564 H   0  0  0  0  0  0  0  0  0  0  0  0
   -5.4890   17.5390  -34.6160 C   0  0  0  0  0  0  0  0  0  0  0  0
   -5.2920   16.2250  -34.3300 N   0  0  0  0  0  0  0  0  0  0  0  0
   -5.3700   15.7350  -33.0610 C   0  0  0  0  0  0  0  0  0  0  0  0
   -5.1440   14.3310  -32.8270 N   0  0  0  0  0  0  0  0  0  0  0  0
   -5.4340   13.2770  -33.7850 C   0  0  0  0  0  0  0  0  0  0  0  0
   -6.4795   13.3413  -34.1210 H   0  0  0  0  0  0  0  0  0  0  0  0
   -4.8011   13.3579  -34.6811 H   0  0  0  0  0  0  0  0  0  0  0  0
   -5.1940   11.9680  -33.0440 C   0  0  0  0  0  0  0  0  0  0  0  0
   -6.1516   11.5143  -32.7488 H   0  0  0  0  0  0  0  0  0  0  0  0
   -4.6689   11.2366  -33.6759 H   0  0  0  0  0  0  0  0  0  0  0  0
   -4.3750   12.3310  -31.8080 C   0  0  0  0  0  0  0  0  0  0  0  0
   -4.7191   11.7532  -30.9375 H   0  0  0  0  0  0  0  0  0  0  0  0
   -3.3082   12.1022  -31.9483 H   0  0  0  0  0  0  0  0  0  0  0  0
   -4.6030   13.8190  -31.5800 C   0  0  0  0  0  0  0  0  0  0  0  0
   -5.3181   13.9758  -30.7590 H   0  0  0  0  0  0  0  0  0  0  0  0
   -3.6718   14.3336  -31.3006 H   0  0  0  0  0  0  0  0  0  0  0  0
   -5.6880   16.6110  -32.0090 C   0  0  0  0  0  0  0  0  0  0  0  0
   -5.7701   16.2331  -30.9792 H   0  0  0  0  0  0  0  0  0  0  0  0
   -5.8990   17.9640  -32.2800 C   0  0  0  0  0  0  0  0  0  0  0  0
   -6.1642   18.6509  -31.4628 H   0  0  0  0  0  0  0  0  0  0  0  0
   -5.7750   18.4500  -33.5840 C   0  0  0  0  0  0  0  0  0  0  0  0
   -6.0260   19.8440  -33.8330 N   0  0  0  0  0  0  0  0  0  0  0  0
   -6.4130   20.7330  -32.9650 C   0  0  0  0  0  0  0  0  0  0  0  0
   -5.5340   21.6040  -32.3830 N   0  0  0  0  0  0  0  0  0  0  0  0
   -5.9240   22.5280  -31.4490 C   0  0  0  0  0  0  0  0  0  0  0  0
   -4.9170   23.4400  -30.8750 C   0  0  0  0  0  0  0  0  0  0  0  0
   -4.9820   24.8220  -30.8390 C   0  0  0  0  0  0  0  0  0  0  0  0
   -5.8006   25.4314  -31.2496 H   0  0  0  0  0  0  0  0  0  0  0  0
   -3.8850   25.3040  -30.2220 N   0  0  0  0  0  0  0  0  0  0  0  0
   -3.1300   24.2710  -29.8830 N   0  0  0  0  0  0  0  0  0  0  0  0
   -1.8790   24.3880  -29.1420 C   0  0  0  0  0  0  0  0  0  0  0  0
   -2.1013   24.5503  -28.0770 H   0  0  0  0  0  0  0  0  0  0  0  0
   -1.3045   25.2377  -29.5395 H   0  0  0  0  0  0  0  0  0  0  0  0
   -1.0550   23.1150  -29.2960 C   0  0  0  0  0  0  0  0  0  0  0  0
   -0.7998   22.7208  -28.3013 H   0  0  0  0  0  0  0  0  0  0  0  0
   -1.6392   22.3647  -29.8489 H   0  0  0  0  0  0  0  0  0  0  0  0
   -0.1313   23.3408  -29.8489 H   0  0  0  0  0  0  0  0  0  0  0  0
   -3.7260   23.1210  -30.2520 C   0  0  0  0  0  0  0  0  0  0  0  0
   -3.3337   22.1068  -30.0865 H   0  0  0  0  0  0  0  0  0  0  0  0
   -7.2780   22.5790  -31.0640 C   0  0  0  0  0  0  0  0  0  0  0  0
   -7.6316   23.3070  -30.3191 H   0  0  0  0  0  0  0  0  0  0  0  0
   -8.1300   21.6980  -31.6450 N   0  0  0  0  0  0  0  0  0  0  0  0
   -9.4500   21.5210  -31.4660 C   0  0  0  0  0  0  0  0  0  0  0  0
  -10.0979   22.0906  -30.7836 H   0  0  0  0  0  0  0  0  0  0  0  0
   -9.8440   20.4850  -32.3030 C   0  0  0  0  0  0  0  0  0  0  0  0
  -10.8681   20.0941  -32.3943 H   0  0  0  0  0  0  0  0  0  0  0  0
   -8.7690   20.0330  -32.9880 N   0  0  0  0  0  0  0  0  0  0  0  0
   -8.7470   19.2620  -33.6920 H   0  0  0  0  0  0  0  0  0  0  0  0
   -7.7460   20.7970  -32.5610 C   0  0  0  0  0  0  0  0  0  0  0  0
  1  2  1  0
  2  3  2  0
  3  4  1  0
  4  5  1  0
  5  6  1  0
  6  7  1  0
  6  8  1  0
  6  9  1  0
  9 10  1  0
  9 11  1  0
  9 12  1  0
 12 13  1  0
 12 14  1  0
 12 15  1  0
 15 16  1  0
 15 17  1  0
  4 18  2  0
 18 19  1  0
 18 20  1  0
 20 21  1  0
 20 22  2  0
 22 23  1  0
 23 24  2  0
 24 25  1  0
 25 26  1  0
 26 27  1  0
 27 28  1  0
 28 29  1  0
 28 30  2  0
 30 31  1  0
 31 32  1  0
 32 33  1  0
 32 34  1  0
 32 35  1  0
 35 36  1  0
 35 37  1  0
 35 38  1  0
 31 39  1  0
 39 40  1  0
 26 41  2  0
 41 42  1  0
 41 43  1  0
 43 44  1  0
 44 45  1  0
 44 46  2  0
 46 47  1  0
 46 48  1  0
 48 49  1  0
 48 50  2  0
 22  2  1  0
 50 24  1  0
 15  5  1  0
 39 27  2  0
 50 43  1  0
M  CHG  2  25  -1  48   1
M  END
>  <UniqueID>  (27) 
21

>  <SMILES>  (27) 
CCn1cc(-c2cn3cc[nH+]c3/c(=N/c3ccc(N4CCCC4)nc3)[n-]2)cn1

>  <Energy>  (27) 
125.26833194765776

>  <Genealogy>  (27) 
CCn1cc(-c2cn3cc[nH+]c3c(=Nc3ccc(N4CCCC4)nc3)[n-]2)cn1 (protonated)
CCn1cc(-c2cn3cc[nH+]c3/c(=N/c3ccc(N4CCCC4)nc3)[n-]2)cn1 (cis-trans isomerization)
CCn1cc(-c2cn3cc[nH+]c3/c(=N/c3ccc(N4CCCC4)nc3)[n-]2)cn1 (3D coordinates assigned)
CCn1cc(-c2cn3cc[nH+]c3/c(=N/c3ccc(N4CCCC4)nc3)[n-]2)cn1 (nonaromatic ring conformer: 125.26833194765776 kcal/mol)

>  <smiles>  (27) 
CCn1cc(-c2cn3ccnc3c(=Nc3ccc(N4CCCC4)nc3)[nH]2)cn1

>  <score_type>  (27) 
oracle

>  <origin>  (27) 
adg

>  <m_score__min__energy>  (27) 
-8.3300000000000001

>  <m_primary>  (27) 
energy

$$$$
27:0
     RDKit          3D

 28 29  0  0  0  0  0  0  0  0999 V2000
   -3.8660   25.6710  -30.5040 F   0  0  0  0  0  0  0  0  0  0  0  0
   -4.5960   24.5800  -30.0680 C   0  0  0  0  0  0  0  0  0  0  0  0
   -6.0740   24.7560  -30.4150 C   0  0  0  0  0  0  0  0  0  0  0  0
   -6.4120   24.1230  -31.7650 C   0  0  0  0  0  0  0  0  0  0  0  0
   -5.9800   22.3530  -31.7430 S   0  0  0  0  0  0  0  0  0  0  0  0
   -7.6920   21.8200  -31.8410 C   0  0  0  0  0  0  0  0  0  0  0  0
   -8.7400   22.6090  -31.5660 N   0  0  0  0  0  0  0  0  0  0  0  0
   -9.8220   21.9110  -31.8740 N   0  0  0  0  0  0  0  0  0  0  0  0
   -9.4570   20.7190  -32.3290 N   0  0  0  0  0  0  0  0  0  0  0  0
   -8.1350   20.6350  -32.3100 N   0  0  0  0  0  0  0  0  0  0  0  0
   -7.3860   19.5040  -32.7850 C   0  0  0  0  0  0  0  0  0  0  0  0
   -6.4600   19.6690  -33.8270 C   0  0  0  0  0  0  0  0  0  0  0  0
   -5.7280   18.5760  -34.3030 C   0  0  0  0  0  0  0  0  0  0  0  0
   -5.9260   17.3080  -33.7500 C   0  0  0  0  0  0  0  0  0  0  0  0
   -6.8600   17.1310  -32.7260 C   0  0  0  0  0  0  0  0  0  0  0  0
   -7.5930   18.2210  -32.2490 C   0  0  0  0  0  0  0  0  0  0  0  0
   -4.2149   23.6705  -30.5554 H   0  0  0  0  0  0  0  0  0  0  0  0
   -4.4931   24.4946  -28.9762 H   0  0  0  0  0  0  0  0  0  0  0  0
   -6.6838   24.2787  -29.6338 H   0  0  0  0  0  0  0  0  0  0  0  0
   -6.2883   25.8332  -30.4757 H   0  0  0  0  0  0  0  0  0  0  0  0
   -7.4888   24.2336  -31.9607 H   0  0  0  0  0  0  0  0  0  0  0  0
   -5.8375   24.6270  -32.5562 H   0  0  0  0  0  0  0  0  0  0  0  0
   -8.7320   23.5910  -31.2140 H   0  0  0  0  0  0  0  0  0  0  0  0
   -6.3090   20.6636  -34.2719 H   0  0  0  0  0  0  0  0  0  0  0  0
   -4.9965   18.7147  -35.1127 H   0  0  0  0  0  0  0  0  0  0  0  0
   -5.3467   16.4495  -34.1207 H   0  0  0  0  0  0  0  0  0  0  0  0
   -7.0187   16.1317  -32.2945 H   0  0  0  0  0  0  0  0  0  0  0  0
   -8.3353   18.0744  -31.4505 H   0  0  0  0  0  0  0  0  0  0  0  0
  1  2  1  0
  2  3  1  0
  3  4  1  0
  4  5  1  0
  5  6  1  0
  6  7  2  0
  7  8  1  0
  8  9  2  0
  9 10  1  0
 10 11  1  0
 11 12  2  0
 12 13  1  0
 13 14  2  0
 14 15  1  0
 15 16  2  0
 10  6  1  0
 16 11  1  0
  2 17  1  0
  2 18  1  0
  3 19  1  0
  3 20  1  0
  4 21  1  0
  4 22  1  0
  7 23  1  0
 12 24  1  0
 13 25  1  0
 14 26  1  0
 15 27  1  0
 16 28  1  0
M  CHG  1   7   1
M  END
>  <UniqueID>  (28) 
22

>  <SMILES>  (28) 
FCCCSc1[nH+]nnn1-c1ccccc1

>  <Energy>  (28) 
65.1995363370989

>  <Genealogy>  (28) 
FCCCSc1[nH+]nnn1-c1ccccc1 (protonated)
FCCCSc1[nH+]nnn1-c1ccccc1 (3D coordinates assigned)
FCCCSc1[nH+]nnn1-c1ccccc1 (optimized conformer: 65.1995363370989 kcal/mol)

>  <smiles>  (28) 
FCCCSc1nnnn1-c1ccccc1

>  <score_type>  (28) 
oracle

>  <origin>  (28) 
adg

>  <m_score__min__energy>  (28) 
-6.5199999999999996

>  <m_primary>  (28) 
energy

$$$$
28:0
     RDKit          3D

 31 31  0  0  0  0  0  0  0  0999 V2000
   -6.8580   16.8750  -33.1690 C   0  0  0  0  0  0  0  0  0  0  0  0
   -7.1070   18.3250  -32.8820 C   0  0  0  0  0  0  0  0  0  0  0  0
   -6.2310   19.3030  -33.3730 C   0  0  0  0  0  0  0  0  0  0  0  0
   -6.4430   20.6520  -33.0760 C   0  0  0  0  0  0  0  0  0  0  0  0
   -7.5220   21.0510  -32.2650 C   0  0  0  0  0  0  0  0  0  0  0  0
   -7.7210   22.4980  -31.9720 C   0  0  0  0  0  0  0  0  0  0  0  0
   -8.8600   22.8890  -31.5930 O   0  0  0  0  0  0  0  0  0  0  0  0
   -6.6530   23.5400  -32.2050 C   0  0  0  0  0  0  0  0  0  0  0  0
   -5.3500   23.2720  -31.4120 C   0  0  0  0  0  0  0  0  0  0  0  0
   -4.6820   24.4710  -30.8570 N   0  0  0  0  0  0  0  0  0  0  0  0
   -3.7050   24.1610  -29.8010 C   0  0  0  0  0  0  0  0  0  0  0  0
   -5.6150   25.5280  -30.4380 C   0  0  0  0  0  0  0  0  0  0  0  0
   -8.3920   20.0600  -31.7680 C   0  0  0  0  0  0  0  0  0  0  0  0
   -8.1800   18.7110  -32.0680 C   0  0  0  0  0  0  0  0  0  0  0  0
   -6.7635   16.3246  -32.2213 H   0  0  0  0  0  0  0  0  0  0  0  0
   -7.6991   16.4662  -33.7482 H   0  0  0  0  0  0  0  0  0  0  0  0
   -5.9287   16.7702  -33.7482 H   0  0  0  0  0  0  0  0  0  0  0  0
   -5.3731   19.0074  -33.9947 H   0  0  0  0  0  0  0  0  0  0  0  0
   -5.7581   21.4115  -33.4811 H   0  0  0  0  0  0  0  0  0  0  0  0
   -6.4110   23.5576  -33.2779 H   0  0  0  0  0  0  0  0  0  0  0  0
   -7.0552   24.5018  -31.8541 H   0  0  0  0  0  0  0  0  0  0  0  0
   -5.5951   22.6026  -30.5742 H   0  0  0  0  0  0  0  0  0  0  0  0
   -4.6416   22.8393  -32.1337 H   0  0  0  0  0  0  0  0  0  0  0  0
   -4.1709   24.3088  -28.8156 H   0  0  0  0  0  0  0  0  0  0  0  0
   -3.3785   23.1151  -29.8991 H   0  0  0  0  0  0  0  0  0  0  0  0
   -2.8353   24.8273  -29.8991 H   0  0  0  0  0  0  0  0  0  0  0  0
   -5.6521   25.5700  -29.3394 H   0  0  0  0  0  0  0  0  0  0  0  0
   -5.2720   26.4966  -30.8306 H   0  0  0  0  0  0  0  0  0  0  0  0
   -6.6187   25.3079  -30.8306 H   0  0  0  0  0  0  0  0  0  0  0  0
   -9.2458   20.3505  -31.1382 H   0  0  0  0  0  0  0  0  0  0  0  0
   -8.8602   17.9476  -31.6622 H   0  0  0  0  0  0  0  0  0  0  0  0
  1  2  1  0
  2  3  2  0
  3  4  1  0
  4  5  2  0
  5  6  1  0
  6  7  2  0
  6  8  1  0
  8  9  1  0
  9 10  1  0
 10 11  1  0
 10 12  1  0
  5 13  1  0
 13 14  2  0
 14  2  1  0
  1 15  1  0
  1 16  1  0
  1 17  1  0
  3 18  1  0
  4 19  1  0
  8 20  1  0
  8 21  1  0
  9 22  1  0
  9 23  1  0
 11 24  1  0
 11 25  1  0
 11 26  1  0
 12 27  1  0
 12 28  1  0
 12 29  1  0
 13 30  1  0
 14 31  1  0
M  END
>  <UniqueID>  (29) 
23

>  <SMILES>  (29) 
Cc1ccc(C(=O)CCN(C)C)cc1

>  <Energy>  (29) 
34.30804927767601

>  <Genealogy>  (29) 
Cc1ccc(C(=O)CCN(C)C)cc1 (3D coordinates assigned)
Cc1ccc(C(=O)CCN(C)C)cc1 (optimized conformer: 34.30804927767601 kcal/mol)

>  <smiles>  (29) 
Cc1ccc(C(=O)CCN(C)C)cc1

>  <score_type>  (29) 
oracle

>  <origin>  (29) 
adg

>  <m_score__min__energy>  (29) 
-6.4199999999999999

>  <m_primary>  (29) 
energy

$$$$
29:0
     RDKit          3D

 35 37  0  0  0  0  0  0  0  0999 V2000
   -0.4800   28.6050  -26.2700 C   0  0  0  0  0  0  0  0  0  0  0  0
   -0.3020   27.6120  -25.1650 C   0  0  0  0  0  0  0  0  0  0  0  0
    0.4880   27.8350  -24.0970 N   0  0  0  0  0  0  0  0  0  0  0  0
    0.3830   26.7740  -23.3100 N   0  0  0  0  0  0  0  0  0  0  0  0
   -0.4690   25.9180  -23.9070 C   0  0  0  0  0  0  0  0  0  0  0  0
   -0.9090   26.4080  -25.0810 N   0  0  0  0  0  0  0  0  0  0  0  0
   -1.8300   25.7770  -25.9890 C   0  0  0  0  0  0  0  0  0  0  0  0
   -1.4130   25.3620  -27.2630 C   0  0  0  0  0  0  0  0  0  0  0  0
   -2.3120   24.7390  -28.1340 C   0  0  0  0  0  0  0  0  0  0  0  0
   -3.6360   24.4990  -27.7390 C   0  0  0  0  0  0  0  0  0  0  0  0
   -4.5460   23.8770  -28.6610 N   0  0  0  0  0  0  0  0  0  0  0  0
   -4.4880   24.0490  -30.0860 C   0  0  0  0  0  0  0  0  0  0  0  0
   -3.8860   25.0450  -30.5730 O   0  0  0  0  0  0  0  0  0  0  0  0
   -5.1800   23.0990  -30.9890 C   0  0  0  0  0  0  0  0  0  0  0  0
   -6.5890   23.0830  -31.0660 C   0  0  0  0  0  0  0  0  0  0  0  0
   -7.3370   23.9160  -30.2990 F   0  0  0  0  0  0  0  0  0  0  0  0
   -7.2390   22.1860  -31.9190 C   0  0  0  0  0  0  0  0  0  0  0  0
   -6.5010   21.3020  -32.7060 C   0  0  0  0  0  0  0  0  0  0  0  0
   -5.1060   21.3140  -32.6470 C   0  0  0  0  0  0  0  0  0  0  0  0
   -4.4440   22.2070  -31.7980 C   0  0  0  0  0  0  0  0  0  0  0  0
   -3.0870   22.2230  -31.8000 F   0  0  0  0  0  0  0  0  0  0  0  0
   -4.0550   24.9180  -26.4640 C   0  0  0  0  0  0  0  0  0  0  0  0
   -3.1550   25.5410  -25.5930 C   0  0  0  0  0  0  0  0  0  0  0  0
   -0.6588   29.6022  -25.8415 H   0  0  0  0  0  0  0  0  0  0  0  0
    0.4280   28.6299  -26.8904 H   0  0  0  0  0  0  0  0  0  0  0  0
   -1.3401   28.3129  -26.8904 H   0  0  0  0  0  0  0  0  0  0  0  0
   -0.7665   24.9449  -23.4893 H   0  0  0  0  0  0  0  0  0  0  0  0
   -0.3723   25.5279  -27.5784 H   0  0  0  0  0  0  0  0  0  0  0  0
   -1.9781   24.4347  -29.1370 H   0  0  0  0  0  0  0  0  0  0  0  0
   -5.3610   23.3520  -28.2670 H   0  0  0  0  0  0  0  0  0  0  0  0
   -8.3378   22.1774  -31.9697 H   0  0  0  0  0  0  0  0  0  0  0  0
   -7.0176   20.5959  -33.3727 H   0  0  0  0  0  0  0  0  0  0  0  0
   -4.5253   20.6184  -33.2707 H   0  0  0  0  0  0  0  0  0  0  0  0
   -5.0964   24.7550  -26.1496 H   0  0  0  0  0  0  0  0  0  0  0  0
   -3.4885   25.8480  -24.5907 H   0  0  0  0  0  0  0  0  0  0  0  0
  1  2  1  0
  2  3  2  0
  3  4  1  0
  4  5  2  0
  5  6  1  0
  6  7  1  0
  7  8  2  0
  8  9  1  0
  9 10  2  0
 10 11  1  0
 11 12  1  0
 12 13  2  0
 12 14  1  0
 14 15  2  0
 15 16  1  0
 15 17  1  0
 17 18  2  0
 18 19  1  0
 19 20  2  0
 20 21  1  0
 10 22  1  0
 22 23  2  0
  6  2  1  0
 23  7  1  0
 20 14  1  0
  1 24  1  0
  1 25  1  0
  1 26  1  0
  5 27  1  0
  8 28  1  0
  9 29  1  0
 11 30  1  0
 17 31  1  0
 18 32  1  0
 19 33  1  0
 22 34  1  0
 23 35  1  0
M  END
>  <UniqueID>  (30) 
24

>  <SMILES>  (30) 
Cc1nncn1-c1ccc(NC(=O)c2c(F)cccc2F)cc1

>  <Energy>  (30) 
84.1208687772194

>  <Genealogy>  (30) 
Cc1nncn1-c1ccc(NC(=O)c2c(F)cccc2F)cc1 (3D coordinates assigned)
Cc1nncn1-c1ccc(NC(=O)c2c(F)cccc2F)cc1 (optimized conformer: 84.1208687772194 kcal/mol)

>  <smiles>  (30) 
Cc1nncn1-c1ccc(NC(=O)c2c(F)cccc2F)cc1

>  <score_type>  (30) 
oracle

>  <origin>  (30) 
adg

>  <m_score__min__energy>  (30) 
-7.1600000000000001

>  <m_primary>  (30) 
energy

$$$$
30:0
     RDKit          3D

 32 34  0  0  0  0  0  0  0  0999 V2000
   -9.6056   22.4171  -31.3245 H   0  0  0  0  0  0  0  0  0  0  0  0
   -8.5560   22.1780  -31.5510 C   0  0  0  0  0  0  0  0  0  0  0  0
   -8.2580   21.0960  -32.3160 N   0  0  0  0  0  0  0  0  0  0  0  0
   -6.9730   20.7670  -32.6220 C   0  0  0  0  0  0  0  0  0  0  0  0
   -6.6920   19.5450  -33.4360 C   0  0  0  0  0  0  0  0  0  0  0  0
   -6.4965   18.6949  -32.7658 H   0  0  0  0  0  0  0  0  0  0  0  0
   -7.5617   19.3192  -34.0706 H   0  0  0  0  0  0  0  0  0  0  0  0
   -5.8111   19.7217  -34.0706 H   0  0  0  0  0  0  0  0  0  0  0  0
   -5.9180   21.5510  -32.1320 C   0  0  0  0  0  0  0  0  0  0  0  0
   -4.8761   21.2782  -32.3557 H   0  0  0  0  0  0  0  0  0  0  0  0
   -6.1990   22.6850  -31.3550 C   0  0  0  0  0  0  0  0  0  0  0  0
   -5.1140   23.5310  -30.8150 C   0  0  0  0  0  0  0  0  0  0  0  0
   -4.8890   24.8070  -31.2140 N   0  0  0  0  0  0  0  0  0  0  0  0
   -3.8470   25.2970  -30.5470 N   0  0  0  0  0  0  0  0  0  0  0  0
   -3.4070   24.3280  -29.7260 C   0  0  0  0  0  0  0  0  0  0  0  0
   -2.3200   24.3770  -28.8610 C   0  0  0  0  0  0  0  0  0  0  0  0
   -1.7190   25.2914  -28.7482 H   0  0  0  0  0  0  0  0  0  0  0  0
   -2.0190   23.2070  -28.1340 C   0  0  0  0  0  0  0  0  0  0  0  0
   -1.0090   23.2190  -27.3110 N   0  0  0  0  0  0  0  0  0  0  0  0
    0.3540   23.5560  -27.6100 C   0  0  0  0  0  0  0  0  0  0  0  0
    1.2300   22.6530  -27.5500 O   0  0  0  0  0  0  0  0  0  0  0  0
    0.7330   24.8890  -27.9720 N   0  0  0  0  0  0  0  0  0  0  0  0
    0.0840   26.0710  -27.4260 C   0  0  0  0  0  0  0  0  0  0  0  0
    0.1078   26.0277  -26.3271 H   0  0  0  0  0  0  0  0  0  0  0  0
    0.6140   26.9718  -27.7690 H   0  0  0  0  0  0  0  0  0  0  0  0
   -0.9605   26.1072  -27.7690 H   0  0  0  0  0  0  0  0  0  0  0  0
   -2.7850   22.0800  -28.3120 N   0  0  0  0  0  0  0  0  0  0  0  0
   -3.8500   22.0430  -29.1660 C   0  0  0  0  0  0  0  0  0  0  0  0
   -4.4403   21.1241  -29.2974 H   0  0  0  0  0  0  0  0  0  0  0  0
   -4.1650   23.2050  -29.8650 C   0  0  0  0  0  0  0  0  0  0  0  0
   -7.5340   22.9880  -31.0510 C   0  0  0  0  0  0  0  0  0  0  0  0
   -7.7748   23.8582  -30.4227 H   0  0  0  0  0  0  0  0  0  0  0  0
  1  2  1  0
  2  3  2  0
  3  4  1  0
  4  5  1  0
  5  6  1  0
  5  7  1  0
  5  8  1  0
  4  9  2  0
  9 10  1  0
  9 11  1  0
 11 12  1  0
 12 13  2  0
 13 14  1  0
 14 15  1  0
 15 16  2  0
 16 17  1  0
 16 18  1  0
 18 19  2  0
 19 20  1  0
 20 21  2  0
 20 22  1  0
 22 23  1  0
 23 24  1  0
 23 25  1  0
 23 26  1  0
 18 27  1  0
 27 28  1  0
 28 29  1  0
 28 30  2  0
 11 31  2  0
 31 32  1  0
 31  2  1  0
 30 12  1  0
 30 15  1  0
M  CHG  3  14  -1  22  -1  27  -1
M  END
>  <UniqueID>  (31) 
25

>  <SMILES>  (31) 
C[N-]C(=O)/N=c1/cc2[n-]nc(-c3ccnc(C)c3)c2c[n-]1

>  <Energy>  (31) 
77.59268270970175

>  <Genealogy>  (31) 
C[N-]C(=O)N=c1cc2[n-]nc(-c3ccnc(C)c3)c2c[n-]1 (protonated)
C[N-]C(=O)/N=c1/cc2[n-]nc(-c3ccnc(C)c3)c2c[n-]1 (cis-trans isomerization)
C[N-]C(=O)/N=c1/cc2[n-]nc(-c3ccnc(C)c3)c2c[n-]1 (3D coordinates assigned)
C[N-]C(=O)/N=c1/cc2[n-]nc(-c3ccnc(C)c3)c2c[n-]1 (optimized conformer: 77.59268270970175 kcal/mol)

>  <smiles>  (31) 
CNC(=O)N=c1cc2[nH]nc(-c3ccnc(C)c3)c2c[nH]1

>  <score_type>  (31) 
oracle

>  <origin>  (31) 
adg

>  <m_score__min__energy>  (31) 
-9.9100000000000001

>  <m_primary>  (31) 
energy

$$$$
31:0
     RDKit          3D

 28 30  0  0  1  0  0  0  0  0999 V2000
   -0.6770   21.5160  -32.0020 S   0  0  0  0  0  0  0  0  0  0  0  0
   -2.2470   21.5640  -32.4670 C   0  0  0  0  0  0  0  0  0  0  0  0
   -2.6260   21.3670  -33.7420 N   0  0  0  0  0  0  0  0  0  0  0  0
   -3.9440   21.4770  -33.7380 N   0  0  0  0  0  0  0  0  0  0  0  0
   -4.3810   21.7380  -32.4750 C   0  0  0  0  0  0  0  0  0  0  0  0
   -5.7880   21.9160  -32.1350 C   0  0  0  0  0  0  0  0  0  0  0  0
   -6.3890   23.1640  -32.2900 C   0  0  0  0  0  0  0  0  0  0  0  0
   -7.7170   23.3530  -31.9750 C   0  0  0  0  0  0  0  0  0  0  0  0
   -8.4580   22.3290  -31.5100 N   0  0  0  0  0  0  0  0  0  0  0  0
   -7.9290   21.1140  -31.3430 C   0  0  0  0  0  0  0  0  0  0  0  0
   -6.5910   20.9100  -31.6580 C   0  0  0  0  0  0  0  0  0  0  0  0
   -3.3080   21.7920  -31.6770 N   0  0  0  0  0  0  0  0  0  0  0  0
   -3.2970   22.0330  -30.3210 N   0  0  0  0  0  0  0  0  0  0  0  0
   -3.1690   23.2320  -29.8650 C   0  0  0  0  0  0  0  0  0  0  0  0
   -4.2140   24.2450  -29.9540 C   0  0  0  0  0  0  0  0  0  0  0  0
   -5.4210   24.1380  -29.2640 C   0  0  0  0  0  0  0  0  0  0  0  0
   -6.1810   25.2710  -29.5750 C   0  0  0  0  0  0  0  0  0  0  0  0
   -5.3700   26.0030  -30.4480 C   0  0  0  0  0  0  0  0  0  0  0  0
   -4.2380   25.3650  -30.6360 O   0  0  0  0  0  0  0  0  0  0  0  0
   -2.0780   21.1700  -34.5880 H   0  0  0  0  0  0  0  0  0  0  0  0
   -5.7954   24.0091  -32.6688 H   0  0  0  0  0  0  0  0  0  0  0  0
   -8.1742   24.3451  -32.1039 H   0  0  0  0  0  0  0  0  0  0  0  0
   -8.5442   20.2859  -30.9612 H   0  0  0  0  0  0  0  0  0  0  0  0
   -6.1602   19.9073  -31.5203 H   0  0  0  0  0  0  0  0  0  0  0  0
   -2.2193   23.5059  -29.3823 H   0  0  0  0  0  0  0  0  0  0  0  0
   -5.7204   23.3151  -28.5983 H   0  0  0  0  0  0  0  0  0  0  0  0
   -7.1881   25.5277  -29.2145 H   0  0  0  0  0  0  0  0  0  0  0  0
   -5.6392   26.9658  -30.9069 H   0  0  0  0  0  0  0  0  0  0  0  0
  1  2  2  0
  2  3  1  0
  3  4  1  0
  4  5  2  0
  5  6  1  0
  6  7  2  0
  7  8  1  0
  8  9  2  0
  9 10  1  0
 10 11  2  0
  5 12  1  0
 12 13  1  0
 13 14  2  0
 14 15  1  0
 15 16  2  0
 16 17  1  0
 17 18  2  0
 18 19  1  0
 12  2  1  0
 19 15  1  0
 11  6  1  0
  3 20  1  0
  7 21  1  0
  8 22  1  0
 10 23  1  0
 11 24  1  0
 14 25  1  0
 16 26  1  0
 17 27  1  0
 18 28  1  0
M  END
>  <smiles>  (32) 
S=c1[nH]nc(-c2ccncc2)n1N=Cc1ccco1

>  <score_type>  (32) 
oracle

>  <origin>  (32) 
adg

>  <m_score__min__energy>  (32) 
-7.1299999999999999

>  <m_primary>  (32) 
energy

$$$$
32:0
     RDKit          3D

 50 52  0  0  0  0  0  0  0  0999 V2000
   -7.2660   21.9290  -31.6180 C   0  0  0  0  0  0  0  0  0  0  0  0
   -6.5130   23.1180  -31.0790 C   0  0  0  0  0  0  0  0  0  0  0  0
   -7.2340   24.1490  -30.4540 C   0  0  0  0  0  0  0  0  0  0  0  0
   -6.5800   25.2790  -29.9620 C   0  0  0  0  0  0  0  0  0  0  0  0
   -5.1970   25.3920  -30.0810 C   0  0  0  0  0  0  0  0  0  0  0  0
   -4.4600   24.3710  -30.6850 C   0  0  0  0  0  0  0  0  0  0  0  0
   -5.1000   23.2200  -31.1830 C   0  0  0  0  0  0  0  0  0  0  0  0
   -4.2760   22.1430  -31.7840 C   0  0  0  0  0  0  0  0  0  0  0  0
   -3.8520   21.0470  -31.0270 C   0  0  0  0  0  0  0  0  0  0  0  0
   -3.0930   20.0510  -31.6310 C   0  0  0  0  0  0  0  0  0  0  0  0
   -2.7680   20.1530  -32.9940 C   0  0  0  0  0  0  0  0  0  0  0  0
   -1.9810   19.1270  -33.6480 N   0  0  0  0  0  0  0  0  0  0  0  0
   -0.5550   19.3490  -33.9130 C   0  0  0  0  0  0  0  0  0  0  0  0
   -2.5820   17.8490  -34.0610 C   0  0  0  0  0  0  0  0  0  0  0  0
   -4.0480   18.0430  -34.4850 C   0  0  0  0  0  0  0  0  0  0  0  0
   -5.0290   17.7810  -33.3160 C   0  0  2  0  0  0  0  0  0  0  0  0
   -6.0960   16.7460  -33.6560 C   0  0  0  0  0  0  0  0  0  0  0  0
   -7.2440   17.0680  -32.7140 C   0  0  0  0  0  0  0  0  0  0  0  0
   -6.8540   18.3790  -32.0290 C   0  0  0  0  0  0  0  0  0  0  0  0
   -5.7340   18.9660  -32.7810 N   0  0  0  0  0  0  0  0  0  0  0  0
   -6.2620   19.8660  -33.8270 C   0  0  0  0  0  0  0  0  0  0  0  0
   -3.2090   21.2450  -33.6860 N   0  0  0  0  0  0  0  0  0  0  0  0
   -3.9360   22.1980  -33.0990 N   0  0  0  0  0  0  0  0  0  0  0  0
   -7.6477   21.3264  -30.7806 H   0  0  0  0  0  0  0  0  0  0  0  0
   -8.1088   22.2769  -32.2334 H   0  0  0  0  0  0  0  0  0  0  0  0
   -6.5912   21.3159  -32.2334 H   0  0  0  0  0  0  0  0  0  0  0  0
   -8.3259   24.0645  -30.3514 H   0  0  0  0  0  0  0  0  0  0  0  0
   -7.1573   26.0815  -29.4796 H   0  0  0  0  0  0  0  0  0  0  0  0
   -4.6843   26.2869  -29.6986 H   0  0  0  0  0  0  0  0  0  0  0  0
   -3.3677   24.4671  -30.7726 H   0  0  0  0  0  0  0  0  0  0  0  0
   -4.1168   20.9732  -29.9619 H   0  0  0  0  0  0  0  0  0  0  0  0
   -2.7484   19.1868  -31.0442 H   0  0  0  0  0  0  0  0  0  0  0  0
   -0.0136   19.4333  -32.9592 H   0  0  0  0  0  0  0  0  0  0  0  0
   -0.1530   18.5026  -34.4892 H   0  0  0  0  0  0  0  0  0  0  0  0
   -0.4293   20.2775  -34.4892 H   0  0  0  0  0  0  0  0  0  0  0  0
   -2.0128   17.4409  -34.9092 H   0  0  0  0  0  0  0  0  0  0  0  0
   -2.5519   17.1548  -33.2083 H   0  0  0  0  0  0  0  0  0  0  0  0
   -4.1823   19.0766  -34.8365 H   0  0  0  0  0  0  0  0  0  0  0  0
   -4.2696   17.3195  -35.2834 H   0  0  0  0  0  0  0  0  0  0  0  0
   -4.3438   17.4128  -32.5382 H   0  0  0  0  0  0  0  0  0  0  0  0
   -6.4133   16.8433  -34.7047 H   0  0  0  0  0  0  0  0  0  0  0  0
   -5.7332   15.7141  -33.5395 H   0  0  0  0  0  0  0  0  0  0  0  0
   -8.1805   17.1923  -33.2774 H   0  0  0  0  0  0  0  0  0  0  0  0
   -7.4133   16.2612  -31.9857 H   0  0  0  0  0  0  0  0  0  0  0  0
   -7.7092   19.0708  -32.0314 H   0  0  0  0  0  0  0  0  0  0  0  0
   -6.5596   18.1934  -30.9855 H   0  0  0  0  0  0  0  0  0  0  0  0
   -6.7646   20.7226  -33.3541 H   0  0  0  0  0  0  0  0  0  0  0  0
   -5.4326   20.2272  -34.4528 H   0  0  0  0  0  0  0  0  0  0  0  0
   -6.9819   19.3182  -34.4528 H   0  0  0  0  0  0  0  0  0  0  0  0
   -2.9690   21.3700  -34.6900 H   0  0  0  0  0  0  0  0  0  0  0  0
  1  2  1  0
  2  3  2  0
  3  4  1  0
  4  5  2  0
  5  6  1  0
  6  7  2  0
  7  8  1  0
  8  9  2  0
  9 10  1  0
 10 11  2  0
 11 12  1  0
 12 13  1  0
 12 14  1  0
 14 15  1  0
 15 16  1  0
 16 17  1  0
 17 18  1  0
 18 19  1  0
 19 20  1  0
 20 21  1  0
 11 22  1  0
 22 23  2  0
  7  2  1  0
 23  8  1  0
 20 16  1  0
  1 24  1  0
  1 25  1  0
  1 26  1  0
  3 27  1  0
  4 28  1  0
  5 29  1  0
  6 30  1  0
  9 31  1  0
 10 32  1  0
 13 33  1  0
 13 34  1  0
 13 35  1  0
 14 36  1  0
 14 37  1  0
 15 38  1  0
 15 39  1  0
 16 40  1  1
 17 41  1  0
 17 42  1  0
 18 43  1  0
 18 44  1  0
 19 45  1  0
 19 46  1  0
 21 47  1  0
 21 48  1  0
 21 49  1  0
 22 50  1  0
M  CHG  1  22   1
M  END
>  <UniqueID>  (33) 
26

>  <SMILES>  (33) 
Cc1ccccc1-c1ccc(N(C)CC[C@@H]2CCCN2C)[nH+]n1

>  <Energy>  (33) 
63.51520280104806

>  <Genealogy>  (33) 
Cc1ccccc1-c1ccc(N(C)CCC2CCCN2C)[nH+]n1 (protonated)
Cc1ccccc1-c1ccc(N(C)CC[C@@H]2CCCN2C)[nH+]n1 (chirality)
Cc1ccccc1-c1ccc(N(C)CC[C@@H]2CCCN2C)[nH+]n1 (3D coordinates assigned)
Cc1ccccc1-c1ccc(N(C)CC[C@@H]2CCCN2C)[nH+]n1 (nonaromatic ring conformer: 63.51520280104806 kcal/mol)

>  <smiles>  (33) 
Cc1ccccc1-c1ccc(N(C)CCC2CCCN2C)nn1

>  <score_type>  (33) 
oracle

>  <origin>  (33) 
adg

>  <m_score__min__energy>  (33) 
-7.8200000000000003

>  <m_primary>  (33) 
energy

$$$$
33:0
     RDKit          3D

 41 43  0  0  0  0  0  0  0  0999 V2000
   -1.0150   26.2140  -27.8720 C   0  0  0  0  0  0  0  0  0  0  0  0
   -1.6340   25.6720  -29.0330 O   0  0  0  0  0  0  0  0  0  0  0  0
   -1.7160   24.3010  -29.3260 C   0  0  0  0  0  0  0  0  0  0  0  0
   -0.5890   23.4570  -29.2300 C   0  0  0  0  0  0  0  0  0  0  0  0
   -0.6960   22.0970  -29.5230 C   0  0  0  0  0  0  0  0  0  0  0  0
   -1.9190   21.5590  -29.9190 C   0  0  0  0  0  0  0  0  0  0  0  0
   -3.0430   22.3800  -30.0200 C   0  0  0  0  0  0  0  0  0  0  0  0
   -2.9590   23.7490  -29.7160 C   0  0  0  0  0  0  0  0  0  0  0  0
   -4.2070   24.5970  -29.8010 C   0  0  0  0  0  0  0  0  0  0  0  0
   -4.6430   24.7520  -31.2010 N   0  0  0  0  0  0  0  0  0  0  0  0
   -6.1050   24.8400  -31.3350 C   0  0  0  0  0  0  0  0  0  0  0  0
   -6.6930   23.5030  -31.6690 C   0  0  0  0  0  0  0  0  0  0  0  0
   -8.0310   23.2150  -31.8290 C   0  0  0  0  0  0  0  0  0  0  0  0
   -8.1210   21.9740  -32.2490 O   0  0  0  0  0  0  0  0  0  0  0  0
   -6.8980   21.4970  -32.3550 C   0  0  0  0  0  0  0  0  0  0  0  0
   -6.5720   20.1350  -32.8430 C   0  0  0  0  0  0  0  0  0  0  0  0
   -5.4290   19.9440  -33.6420 C   0  0  0  0  0  0  0  0  0  0  0  0
   -5.1020   18.6760  -34.1260 C   0  0  0  0  0  0  0  0  0  0  0  0
   -5.9090   17.5800  -33.8190 C   0  0  0  0  0  0  0  0  0  0  0  0
   -5.5900   16.3500  -34.2920 F   0  0  0  0  0  0  0  0  0  0  0  0
   -7.0450   17.7500  -33.0280 C   0  0  0  0  0  0  0  0  0  0  0  0
   -7.3850   19.0170  -32.5360 C   0  0  0  0  0  0  0  0  0  0  0  0
   -8.8630   19.1510  -31.5860 Cl  0  0  0  0  0  0  0  0  0  0  0  0
   -5.9770   22.4130  -31.9890 N   0  0  0  0  0  0  0  0  0  0  0  0
   -1.4921   25.7962  -26.9732 H   0  0  0  0  0  0  0  0  0  0  0  0
    0.0545   25.9567  -27.8727 H   0  0  0  0  0  0  0  0  0  0  0  0
   -1.1289   27.3081  -27.8727 H   0  0  0  0  0  0  0  0  0  0  0  0
    0.3810   23.8744  -28.9219 H   0  0  0  0  0  0  0  0  0  0  0  0
    0.1879   21.4474  -29.4411 H   0  0  0  0  0  0  0  0  0  0  0  0
   -1.9985   20.4869  -30.1520 H   0  0  0  0  0  0  0  0  0  0  0  0
   -4.0038   21.9511  -30.3407 H   0  0  0  0  0  0  0  0  0  0  0  0
   -5.0103   24.1145  -29.2249 H   0  0  0  0  0  0  0  0  0  0  0  0
   -3.9843   25.5926  -29.3898 H   0  0  0  0  0  0  0  0  0  0  0  0
   -4.2480   25.6570  -31.5500 H   0  0  0  0  0  0  0  0  0  0  0  0
   -6.5329   25.1946  -30.3857 H   0  0  0  0  0  0  0  0  0  0  0  0
   -6.3416   25.5411  -32.1489 H   0  0  0  0  0  0  0  0  0  0  0  0
   -8.8707   23.8998  -31.6395 H   0  0  0  0  0  0  0  0  0  0  0  0
   -4.7868   20.8027  -33.8876 H   0  0  0  0  0  0  0  0  0  0  0  0
   -4.2066   18.5408  -34.7505 H   0  0  0  0  0  0  0  0  0  0  0  0
   -7.6785   16.8832  -32.7887 H   0  0  0  0  0  0  0  0  0  0  0  0
   -4.9360   22.3310  -32.0120 H   0  0  0  0  0  0  0  0  0  0  0  0
  1  2  1  0
  2  3  1  0
  3  4  2  0
  4  5  1  0
  5  6  2  0
  6  7  1  0
  7  8  2  0
  8  9  1  0
  9 10  1  0
 10 11  1  0
 11 12  1  0
 12 13  2  0
 13 14  1  0
 14 15  1  0
 15 16  1  0
 16 17  2  0
 17 18  1  0
 18 19  2  0
 19 20  1  0
 19 21  1  0
 21 22  2  0
 22 23  1  0
 15 24  2  0
  8  3  1  0
 24 12  1  0
 22 16  1  0
  1 25  1  0
  1 26  1  0
  1 27  1  0
  4 28  1  0
  5 29  1  0
  6 30  1  0
  7 31  1  0
  9 32  1  0
  9 33  1  0
 10 34  1  0
 11 35  1  0
 11 36  1  0
 13 37  1  0
 17 38  1  0
 18 39  1  0
 21 40  1  0
 24 41  1  0
M  CHG  1  24   1
M  END
>  <UniqueID>  (34) 
27

>  <SMILES>  (34) 
COc1ccccc1CNCc1coc(-c2ccc(F)cc2Cl)[nH+]1

>  <Energy>  (34) 
72.54593806491025

>  <Genealogy>  (34) 
COc1ccccc1CNCc1coc(-c2ccc(F)cc2Cl)[nH+]1 (protonated)
COc1ccccc1CNCc1coc(-c2ccc(F)cc2Cl)[nH+]1 (3D coordinates assigned)
COc1ccccc1CNCc1coc(-c2ccc(F)cc2Cl)[nH+]1 (optimized conformer: 72.54593806491025 kcal/mol)

>  <smiles>  (34) 
COc1ccccc1CNCc1coc(-c2ccc(F)cc2Cl)n1

>  <score_type>  (34) 
oracle

>  <origin>  (34) 
adg

>  <m_score__min__energy>  (34) 
-8.3599999999999994

>  <m_primary>  (34) 
energy

$$$$
34:0
     RDKit          3D

 51 54  0  0  0  0  0  0  0  0999 V2000
   -1.1950   26.1380  -25.0140 C   0  0  0  0  0  0  0  0  0  0  0  0
   -1.8660   25.5500  -26.2200 C   0  0  0  0  0  0  0  0  0  0  0  0
   -1.2190   25.5580  -27.4650 C   0  0  0  0  0  0  0  0  0  0  0  0
   -1.8590   25.0460  -28.5960 C   0  0  0  0  0  0  0  0  0  0  0  0
   -3.1580   24.5280  -28.4970 C   0  0  0  0  0  0  0  0  0  0  0  0
   -3.9870   23.9010  -29.9210 S   0  0  0  0  0  0  0  0  0  0  0  0
   -5.2820   23.2540  -29.5130 O   0  0  0  0  0  0  0  0  0  0  0  0
   -4.2910   25.0670  -30.8190 O   0  0  0  0  0  0  0  0  0  0  0  0
   -2.9810   22.7030  -30.7540 C   0  0  0  0  0  0  0  0  0  0  0  0
   -1.6200   22.6150  -30.4270 C   0  0  0  0  0  0  0  0  0  0  0  0
   -0.8250   21.6870  -31.0140 N   0  0  0  0  0  0  0  0  0  0  0  0
   -1.3050   20.8010  -31.9220 C   0  0  0  0  0  0  0  0  0  0  0  0
   -0.4430   19.8530  -32.4870 C   0  0  0  0  0  0  0  0  0  0  0  0
   -0.9330   18.9190  -33.4020 C   0  0  0  0  0  0  0  0  0  0  0  0
   -2.2840   18.9210  -33.7520 C   0  0  0  0  0  0  0  0  0  0  0  0
   -2.7570   18.0030  -34.6310 F   0  0  0  0  0  0  0  0  0  0  0  0
   -3.1530   19.8640  -33.1950 C   0  0  0  0  0  0  0  0  0  0  0  0
   -2.6720   20.8250  -32.2830 C   0  0  0  0  0  0  0  0  0  0  0  0
   -3.5150   21.8000  -31.7020 C   0  0  0  0  0  0  0  0  0  0  0  0
   -4.9040   21.8620  -32.0680 N   0  0  0  0  0  0  0  0  0  0  0  0
   -5.7690   20.7030  -31.8040 C   0  0  0  0  0  0  0  0  0  0  0  0
   -7.2220   20.9960  -32.1900 C   0  0  0  0  0  0  0  0  0  0  0  0
   -7.6660   22.3490  -31.6030 C   0  0  0  0  0  0  0  0  0  0  0  0
   -9.1270   22.6370  -31.9650 C   0  0  0  0  0  0  0  0  0  0  0  0
   -6.7380   23.5200  -32.0360 C   0  0  0  0  0  0  0  0  0  0  0  0
   -5.4370   23.0650  -32.7150 C   0  0  0  0  0  0  0  0  0  0  0  0
   -3.8160   24.5400  -27.2600 C   0  0  0  0  0  0  0  0  0  0  0  0
   -3.1750   25.0520  -26.1280 C   0  0  0  0  0  0  0  0  0  0  0  0
   -1.6580   25.7322  -24.1024 H   0  0  0  0  0  0  0  0  0  0  0  0
   -0.1255   25.8810  -25.0276 H   0  0  0  0  0  0  0  0  0  0  0  0
   -1.3094   27.2320  -25.0276 H   0  0  0  0  0  0  0  0  0  0  0  0
   -0.2025   25.9696  -27.5508 H   0  0  0  0  0  0  0  0  0  0  0  0
   -1.3424   25.0492  -29.5671 H   0  0  0  0  0  0  0  0  0  0  0  0
   -1.1929   23.3067  -29.6860 H   0  0  0  0  0  0  0  0  0  0  0  0
    0.6214   19.8441  -32.2097 H   0  0  0  0  0  0  0  0  0  0  0  0
   -0.2521   18.1793  -33.8483 H   0  0  0  0  0  0  0  0  0  0  0  0
   -4.2180   19.8559  -33.4700 H   0  0  0  0  0  0  0  0  0  0  0  0
   -5.4081   19.8451  -32.3904 H   0  0  0  0  0  0  0  0  0  0  0  0
   -5.7331   20.4800  -30.7274 H   0  0  0  0  0  0  0  0  0  0  0  0
   -7.3069   21.0301  -33.2862 H   0  0  0  0  0  0  0  0  0  0  0  0
   -7.8674   20.2012  -31.7878 H   0  0  0  0  0  0  0  0  0  0  0  0
   -7.5823   22.2730  -30.5088 H   0  0  0  0  0  0  0  0  0  0  0  0
   -9.7169   22.7533  -31.0439 H   0  0  0  0  0  0  0  0  0  0  0  0
   -9.1827   23.5634  -32.5555 H   0  0  0  0  0  0  0  0  0  0  0  0
   -9.5301   21.8010  -32.5555 H   0  0  0  0  0  0  0  0  0  0  0  0
   -7.2915   24.1582  -32.7405 H   0  0  0  0  0  0  0  0  0  0  0  0
   -6.4495   24.0546  -31.1189 H   0  0  0  0  0  0  0  0  0  0  0  0
   -5.6407   22.8449  -33.7733 H   0  0  0  0  0  0  0  0  0  0  0  0
   -4.6935   23.8709  -32.6272 H   0  0  0  0  0  0  0  0  0  0  0  0
   -4.8397   24.1455  -27.1794 H   0  0  0  0  0  0  0  0  0  0  0  0
   -3.6989   25.0646  -25.1609 H   0  0  0  0  0  0  0  0  0  0  0  0
  1  2  1  0
  2  3  2  0
  3  4  1  0
  4  5  2  0
  5  6  1  0
  6  7  2  0
  6  8  2  0
  6  9  1  0
  9 10  2  0
 10 11  1  0
 11 12  2  0
 12 13  1  0
 13 14  2  0
 14 15  1  0
 15 16  1  0
 15 17  2  0
 17 18  1  0
 18 19  2  0
 19 20  1  0
 20 21  1  0
 21 22  1  0
 22 23  1  0
 23 24  1  0
 23 25  1  0
 25 26  1  0
  5 27  1  0
 27 28  2  0
 28  2  1  0
 19  9  1  0
 26 20  1  0
 18 12  1  0
  1 29  1  0
  1 30  1  0
  1 31  1  0
  3 32  1  0
  4 33  1  0
 10 34  1  0
 13 35  1  0
 14 36  1  0
 17 37  1  0
 21 38  1  0
 21 39  1  0
 22 40  1  0
 22 41  1  0
 23 42  1  0
 24 43  1  0
 24 44  1  0
 24 45  1  0
 25 46  1  0
 25 47  1  0
 26 48  1  0
 26 49  1  0
 27 50  1  0
 28 51  1  0
M  END
>  <UniqueID>  (35) 
28

>  <SMILES>  (35) 
Cc1ccc(S(=O)(=O)c2cnc3ccc(F)cc3c2N2CCC(C)CC2)cc1

>  <Energy>  (35) 
65.58075774527083

>  <Genealogy>  (35) 
Cc1ccc(S(=O)(=O)c2cnc3ccc(F)cc3c2N2CCC(C)CC2)cc1 (3D coordinates assigned)
Cc1ccc(S(=O)(=O)c2cnc3ccc(F)cc3c2N2CCC(C)CC2)cc1 (nonaromatic ring conformer: 65.58075774527083 kcal/mol)

>  <smiles>  (35) 
Cc1ccc(S(=O)(=O)c2cnc3ccc(F)cc3c2N2CCC(C)CC2)cc1

>  <score_type>  (35) 
oracle

>  <origin>  (35) 
adg

>  <m_score__min__energy>  (35) 
-9.4900000000000002

>  <m_primary>  (35) 
energy

$$$$
35:0
     RDKit          3D

 42 43  0  0  0  0  0  0  0  0999 V2000
   -8.9430   23.4230  -32.3560 O   0  0  0  0  0  0  0  0  0  0  0  0
   -7.8220   23.0500  -31.9160 C   0  0  0  0  0  0  0  0  0  0  0  0
   -6.6910   24.0320  -31.8400 C   0  0  0  0  0  0  0  0  0  0  0  0
   -5.9610   23.9500  -30.4940 C   0  0  0  0  0  0  0  0  0  0  0  0
   -5.2950   25.2830  -30.1390 C   0  0  0  0  0  0  0  0  0  0  0  0
   -3.9070   25.2970  -30.6130 N   0  0  0  0  0  0  0  0  0  0  0  0
   -2.9130   24.1870  -29.7160 S   0  0  0  0  0  0  0  0  0  0  0  0
   -1.6200   24.8650  -29.3560 O   0  0  0  0  0  0  0  0  0  0  0  0
   -3.6040   23.7780  -28.4450 O   0  0  0  0  0  0  0  0  0  0  0  0
   -2.5640   22.7720  -30.7070 C   0  0  0  0  0  0  0  0  0  0  0  0
   -3.4600   22.3890  -31.7160 C   0  0  0  0  0  0  0  0  0  0  0  0
   -3.2220   21.2340  -32.4660 C   0  0  0  0  0  0  0  0  0  0  0  0
   -2.0920   20.4530  -32.2090 C   0  0  0  0  0  0  0  0  0  0  0  0
   -1.1950   20.8310  -31.2060 C   0  0  0  0  0  0  0  0  0  0  0  0
   -1.4290   21.9880  -30.4560 C   0  0  0  0  0  0  0  0  0  0  0  0
   -7.6410   21.7100  -31.4410 N   0  0  0  0  0  0  0  0  0  0  0  0
   -8.7780   20.8120  -31.2320 C   0  0  0  0  0  0  0  0  0  0  0  0
   -8.8640   19.7530  -32.3380 C   0  0  0  0  0  0  0  0  0  0  0  0
   -7.5060   19.2160  -32.6820 C   0  0  0  0  0  0  0  0  0  0  0  0
   -6.6790   19.6830  -33.6950 C   0  0  0  0  0  0  0  0  0  0  0  0
   -5.5040   18.9350  -33.8360 C   0  0  0  0  0  0  0  0  0  0  0  0
   -5.4070   17.8750  -32.9430 C   0  0  0  0  0  0  0  0  0  0  0  0
   -6.7850   17.8670  -31.9800 S   0  0  0  0  0  0  0  0  0  0  0  0
   -5.9760   23.8160  -32.6475 H   0  0  0  0  0  0  0  0  0  0  0  0
   -7.1074   25.0448  -31.9441 H   0  0  0  0  0  0  0  0  0  0  0  0
   -6.6862   23.6915  -29.7084 H   0  0  0  0  0  0  0  0  0  0  0  0
   -5.1784   23.1807  -30.5702 H   0  0  0  0  0  0  0  0  0  0  0  0
   -5.8500   26.1048  -30.6151 H   0  0  0  0  0  0  0  0  0  0  0  0
   -5.3027   25.4087  -29.0462 H   0  0  0  0  0  0  0  0  0  0  0  0
   -4.3526   22.9995  -31.9175 H   0  0  0  0  0  0  0  0  0  0  0  0
   -3.9248   20.9394  -33.2593 H   0  0  0  0  0  0  0  0  0  0  0  0
   -1.9085   19.5410  -32.7960 H   0  0  0  0  0  0  0  0  0  0  0  0
   -0.3039   20.2177  -31.0063 H   0  0  0  0  0  0  0  0  0  0  0  0
   -0.7212   22.2835  -29.6676 H   0  0  0  0  0  0  0  0  0  0  0  0
   -6.6790   21.3980  -31.1770 H   0  0  0  0  0  0  0  0  0  0  0  0
   -8.6622   20.3075  -30.2614 H   0  0  0  0  0  0  0  0  0  0  0  0
   -9.7007   21.4105  -31.2526 H   0  0  0  0  0  0  0  0  0  0  0  0
   -9.5005   18.9248  -31.9930 H   0  0  0  0  0  0  0  0  0  0  0  0
   -9.2909   20.2220  -33.2368 H   0  0  0  0  0  0  0  0  0  0  0  0
   -6.9224   20.5526  -34.3231 H   0  0  0  0  0  0  0  0  0  0  0  0
   -4.7304   19.1649  -34.5834 H   0  0  0  0  0  0  0  0  0  0  0  0
   -4.5713   17.1627  -32.8773 H   0  0  0  0  0  0  0  0  0  0  0  0
  1  2  2  0
  2  3  1  0
  3  4  1  0
  4  5  1  0
  5  6  1  0
  6  7  1  0
  7  8  2  0
  7  9  2  0
  7 10  1  0
 10 11  2  0
 11 12  1  0
 12 13  2  0
 13 14  1  0
 14 15  2  0
  2 16  1  0
 16 17  1  0
 17 18  1  0
 18 19  1  0
 19 20  2  0
 20 21  1  0
 21 22  2  0
 22 23  1  0
 15 10  1  0
 23 19  1  0
  3 24  1  0
  3 25  1  0
  4 26  1  0
  4 27  1  0
  5 28  1  0
  5 29  1  0
 11 30  1  0
 12 31  1  0
 13 32  1  0
 14 33  1  0
 15 34  1  0
 16 35  1  0
 17 36  1  0
 17 37  1  0
 18 38  1  0
 18 39  1  0
 20 40  1  0
 21 41  1  0
 22 42  1  0
M  CHG  1   6  -1
M  END
>  <UniqueID>  (36) 
29

>  <SMILES>  (36) 
O=C(CCC[N-]S(=O)(=O)c1ccccc1)NCCc1cccs1

>  <Energy>  (36) 
54.99739256666077

>  <Genealogy>  (36) 
O=C(CCC[N-]S(=O)(=O)c1ccccc1)NCCc1cccs1 (protonated)
O=C(CCC[N-]S(=O)(=O)c1ccccc1)NCCc1cccs1 (3D coordinates assigned)
O=C(CCC[N-]S(=O)(=O)c1ccccc1)NCCc1cccs1 (optimized conformer: 54.99739256666077 kcal/mol)

>  <smiles>  (36) 
O=C(CCCNS(=O)(=O)c1ccccc1)NCCc1cccs1

>  <score_type>  (36) 
oracle

>  <origin>  (36) 
adg

>  <m_score__min__energy>  (36) 
-9.8300000000000001

>  <m_primary>  (36) 
energy

$$$$
36:0
     RDKit          3D

 26 28  0  0  0  0  0  0  0  0999 V2000
   -9.0230   19.2630  -31.9550 C   0  0  0  0  0  0  0  0  0  0  0  0
   -8.3510   20.1410  -32.8030 O   0  0  0  0  0  0  0  0  0  0  0  0
   -6.9730   20.2650  -32.9220 C   0  0  0  0  0  0  0  0  0  0  0  0
   -6.1890   19.3570  -33.6050 C   0  0  0  0  0  0  0  0  0  0  0  0
   -4.8250   19.5450  -33.6840 C   0  0  0  0  0  0  0  0  0  0  0  0
   -4.2360   20.6390  -33.0820 C   0  0  0  0  0  0  0  0  0  0  0  0
   -2.3500   20.9060  -33.1850 Br  0  0  0  0  0  0  0  0  0  0  0  0
   -5.0130   21.5660  -32.3880 C   0  0  0  0  0  0  0  0  0  0  0  0
   -4.4270   22.6730  -31.7770 C   0  0  0  0  0  0  0  0  0  0  0  0
   -5.2470   23.5700  -31.0960 C   0  0  0  0  0  0  0  0  0  0  0  0
   -4.7220   24.6910  -30.4680 C   0  0  0  0  0  0  0  0  0  0  0  0
   -3.4900   24.9230  -30.4990 O   0  0  0  0  0  0  0  0  0  0  0  0
   -5.5680   25.5220  -29.8240 N   0  0  0  0  0  0  0  0  0  0  0  0
   -6.9070   25.2840  -29.7810 C   0  0  0  0  0  0  0  0  0  0  0  0
   -7.4280   24.1980  -30.3890 N   0  0  0  0  0  0  0  0  0  0  0  0
   -6.6160   23.3390  -31.0450 C   0  0  0  0  0  0  0  0  0  0  0  0
   -7.1190   22.2620  -31.6480 N   0  0  0  0  0  0  0  0  0  0  0  0
   -6.3760   21.3570  -32.3230 C   0  0  0  0  0  0  0  0  0  0  0  0
   -8.8162   19.5332  -30.9089 H   0  0  0  0  0  0  0  0  0  0  0  0
  -10.1049   19.3272  -32.1433 H   0  0  0  0  0  0  0  0  0  0  0  0
   -8.6784   18.2355  -32.1433 H   0  0  0  0  0  0  0  0  0  0  0  0
   -6.6524   18.4832  -34.0864 H   0  0  0  0  0  0  0  0  0  0  0  0
   -4.2033   18.8197  -34.2294 H   0  0  0  0  0  0  0  0  0  0  0  0
   -3.3404   22.8350  -31.8313 H   0  0  0  0  0  0  0  0  0  0  0  0
   -5.1930   26.3740  -29.3430 H   0  0  0  0  0  0  0  0  0  0  0  0
   -7.5691   25.9815  -29.2471 H   0  0  0  0  0  0  0  0  0  0  0  0
  1  2  1  0
  2  3  1  0
  3  4  2  0
  4  5  1  0
  5  6  2  0
  6  7  1  0
  6  8  1  0
  8  9  2  0
  9 10  1  0
 10 11  1  0
 11 12  2  0
 11 13  1  0
 13 14  1  0
 14 15  2  0
 15 16  1  0
 16 17  1  0
 17 18  2  0
 18  3  1  0
 18  8  1  0
 16 10  2  0
  1 19  1  0
  1 20  1  0
  1 21  1  0
  4 22  1  0
  5 23  1  0
  9 24  1  0
 13 25  1  0
 14 26  1  0
M  END
>  <smiles>  (37) 
COc1ccc(Br)c2cc3c(=O)[nH]cnc3nc12

>  <score_type>  (37) 
oracle

>  <origin>  (37) 
adg

>  <m_score__min__energy>  (37) 
-7.7400000000000002

>  <m_primary>  (37) 
energy

$$$$
37:0
     RDKit          3D

 32 35  0  0  0  0  0  0  0  0999 V2000
   -7.2150   15.9900  -34.5730 N   0  0  0  0  0  0  0  0  0  0  0  0
   -6.8160   16.9420  -34.0490 C   0  0  0  0  0  0  0  0  0  0  0  0
   -6.3190   18.1260  -33.3980 C   0  0  0  0  0  0  0  0  0  0  0  0
   -6.1500   18.1530  -32.0110 C   0  0  0  0  0  0  0  0  0  0  0  0
   -5.6690   19.3070  -31.3930 C   0  0  0  0  0  0  0  0  0  0  0  0
   -5.3500   20.4300  -32.1740 C   0  0  0  0  0  0  0  0  0  0  0  0
   -4.8450   21.6620  -31.5300 C   0  0  0  0  0  0  0  0  0  0  0  0
   -3.5710   21.6410  -30.9130 C   0  0  0  0  0  0  0  0  0  0  0  0
   -3.1230   22.8060  -30.2990 C   0  0  0  0  0  0  0  0  0  0  0  0
   -1.9610   22.9990  -29.6580 N   0  0  0  0  0  0  0  0  0  0  0  0
   -2.0530   24.2980  -29.2670 C   0  0  0  0  0  0  0  0  0  0  0  0
   -0.9910   24.9770  -28.5140 C   0  0  0  0  0  0  0  0  0  0  0  0
   -1.0380   26.2510  -27.9890 C   0  0  0  0  0  0  0  0  0  0  0  0
    0.1830   26.4420  -27.3760 C   0  0  0  0  0  0  0  0  0  0  0  0
    0.9250   25.3640  -27.5150 O   0  0  0  0  0  0  0  0  0  0  0  0
    0.2500   24.4650  -28.1930 C   0  0  0  0  0  0  0  0  0  0  0  0
   -3.2070   24.9160  -29.6320 N   0  0  0  0  0  0  0  0  0  0  0  0
   -3.8640   23.9450  -30.2820 C   0  0  0  0  0  0  0  0  0  0  0  0
   -5.1150   24.0190  -30.8830 C   0  0  0  0  0  0  0  0  0  0  0  0
   -5.6140   22.8650  -31.5190 C   0  0  0  0  0  0  0  0  0  0  0  0
   -7.1650   22.9790  -32.3440 Cl  0  0  0  0  0  0  0  0  0  0  0  0
   -5.5340   20.3830  -33.5280 N   0  0  0  0  0  0  0  0  0  0  0  0
   -6.0040   19.2640  -34.1470 C   0  0  0  0  0  0  0  0  0  0  0  0
   -6.3957   17.2663  -31.4082 H   0  0  0  0  0  0  0  0  0  0  0  0
   -5.5403   19.3375  -30.3010 H   0  0  0  0  0  0  0  0  0  0  0  0
   -2.9538   20.7305  -30.9190 H   0  0  0  0  0  0  0  0  0  0  0  0
   -1.8731   26.9647  -28.0468 H   0  0  0  0  0  0  0  0  0  0  0  0
    0.4903   27.3579  -26.8500 H   0  0  0  0  0  0  0  0  0  0  0  0
    0.6153   23.4630  -28.4624 H   0  0  0  0  0  0  0  0  0  0  0  0
   -5.6985   24.9513  -30.8627 H   0  0  0  0  0  0  0  0  0  0  0  0
   -5.3300   21.2250  -34.1110 H   0  0  0  0  0  0  0  0  0  0  0  0
   -6.1360   19.2557  -35.2390 H   0  0  0  0  0  0  0  0  0  0  0  0
  1  2  3  0
  2  3  1  0
  3  4  2  0
  4  5  1  0
  5  6  2  0
  6  7  1  0
  7  8  2  0
  8  9  1  0
  9 10  1  0
 10 11  2  0
 11 12  1  0
 12 13  1  0
 13 14  2  0
 14 15  1  0
 15 16  1  0
 11 17  1  0
 17 18  1  0
 18 19  1  0
 19 20  2  0
 20 21  1  0
  6 22  1  0
 22 23  2  0
 23  3  1  0
 20  7  1  0
 18  9  2  0
 16 12  2  0
  4 24  1  0
  5 25  1  0
  8 26  1  0
 13 27  1  0
 14 28  1  0
 16 29  1  0
 19 30  1  0
 22 31  1  0
 23 32  1  0
M  CHG  2  17  -1  22   1
M  END
>  <UniqueID>  (38) 
30

>  <SMILES>  (38) 
N#Cc1ccc(-c2cc3nc(-c4ccoc4)[n-]c3cc2Cl)[nH+]c1

>  <Energy>  (38) 
103.41946649013231

>  <Genealogy>  (38) 
N#Cc1ccc(-c2cc3nc(-c4ccoc4)[n-]c3cc2Cl)[nH+]c1 (protonated)
N#Cc1ccc(-c2cc3nc(-c4ccoc4)[n-]c3cc2Cl)[nH+]c1 (3D coordinates assigned)
N#Cc1ccc(-c2cc3nc(-c4ccoc4)[n-]c3cc2Cl)[nH+]c1 (optimized conformer: 103.41946649013231 kcal/mol)

>  <smiles>  (38) 
N#Cc1ccc(-c2cc3nc(-c4ccoc4)[nH]c3cc2Cl)nc1

>  <score_type>  (38) 
oracle

>  <origin>  (38) 
adg

>  <m_score__min__energy>  (38) 
-7.8799999999999999

>  <m_primary>  (38) 
energy

$$$$
38:0
     RDKit          3D

 56 59  0  0  0  0  0  0  0  0999 V2000
   -4.5920   24.7340  -30.8920 O   0  0  0  0  0  0  0  0  0  0  0  0
   -4.3960   23.9850  -29.8960 C   0  0  0  0  0  0  0  0  0  0  0  0
   -5.0390   22.7000  -29.8270 N   0  0  0  0  0  0  0  0  0  0  0  0
   -6.1120   22.2890  -30.6910 C   0  0  0  0  0  0  0  0  0  0  0  0
   -7.3240   23.0000  -30.7430 C   0  0  0  0  0  0  0  0  0  0  0  0
   -8.3650   22.5570  -31.5620 C   0  0  0  0  0  0  0  0  0  0  0  0
   -8.2130   21.4020  -32.3300 C   0  0  0  0  0  0  0  0  0  0  0  0
   -7.0110   20.6760  -32.2920 C   0  0  0  0  0  0  0  0  0  0  0  0
   -6.8420   19.4420  -33.0950 C   0  0  0  0  0  0  0  0  0  0  0  0
   -7.7560   18.5750  -33.0890 O   0  0  0  0  0  0  0  0  0  0  0  0
   -5.6450   19.1960  -33.8610 N   0  0  0  0  0  0  0  0  0  0  0  0
   -4.3210   19.4510  -33.2700 C   0  0  0  0  0  0  0  0  0  0  0  0
   -3.3860   18.2310  -33.4230 C   0  0  0  0  0  0  0  0  0  0  0  0
   -4.1230   16.9750  -33.9640 C   0  0  0  0  0  0  0  0  0  0  0  0
   -5.1900   16.4560  -33.0470 N   0  0  0  0  0  0  0  0  0  0  0  0
   -6.3320   15.8250  -33.7580 C   0  0  0  0  0  0  0  0  0  0  0  0
   -5.9840   14.4430  -34.3420 C   0  0  0  0  0  0  0  0  0  0  0  0
   -5.4070   13.5160  -33.2690 C   0  0  0  0  0  0  0  0  0  0  0  0
   -4.2640   14.1950  -32.5130 C   0  0  0  0  0  0  0  0  0  0  0  0
   -4.7300   15.5520  -31.9660 C   0  0  0  0  0  0  0  0  0  0  0  0
   -4.7210   17.4000  -35.3270 C   0  0  0  0  0  0  0  0  0  0  0  0
   -5.7380   18.5540  -35.1820 C   0  0  0  0  0  0  0  0  0  0  0  0
   -5.9720   21.1190  -31.4530 C   0  0  0  0  0  0  0  0  0  0  0  0
   -3.4730   24.4170  -28.8240 C   0  0  0  0  0  0  0  0  0  0  0  0
   -3.8220   24.3010  -27.4670 C   0  0  0  0  0  0  0  0  0  0  0  0
   -2.9480   24.7140  -26.5120 N   0  0  0  0  0  0  0  0  0  0  0  0
   -1.7380   25.2350  -26.8400 C   0  0  0  0  0  0  0  0  0  0  0  0
   -1.3830   25.3470  -28.1840 C   0  0  0  0  0  0  0  0  0  0  0  0
   -2.2560   24.9380  -29.1420 N   0  0  0  0  0  0  0  0  0  0  0  0
   -4.6560   21.9870  -29.1630 H   0  0  0  0  0  0  0  0  0  0  0  0
   -7.4527   23.9085  -30.1364 H   0  0  0  0  0  0  0  0  0  0  0  0
   -9.3086   23.1210  -31.6017 H   0  0  0  0  0  0  0  0  0  0  0  0
   -9.0395   21.0579  -32.9691 H   0  0  0  0  0  0  0  0  0  0  0  0
   -3.8653   20.3157  -33.7746 H   0  0  0  0  0  0  0  0  0  0  0  0
   -4.4556   19.6491  -32.1964 H   0  0  0  0  0  0  0  0  0  0  0  0
   -2.5775   18.4927  -34.1214 H   0  0  0  0  0  0  0  0  0  0  0  0
   -2.9967   17.9834  -32.4244 H   0  0  0  0  0  0  0  0  0  0  0  0
   -3.4149   16.1380  -34.0540 H   0  0  0  0  0  0  0  0  0  0  0  0
   -7.1649   15.7070  -33.0492 H   0  0  0  0  0  0  0  0  0  0  0  0
   -6.6005   16.4810  -34.5992 H   0  0  0  0  0  0  0  0  0  0  0  0
   -6.8964   13.9885  -34.7555 H   0  0  0  0  0  0  0  0  0  0  0  0
   -5.2266   14.5785  -35.1281 H   0  0  0  0  0  0  0  0  0  0  0  0
   -6.2024   13.2520  -32.5565 H   0  0  0  0  0  0  0  0  0  0  0  0
   -5.0140   12.6139  -33.7606 H   0  0  0  0  0  0  0  0  0  0  0  0
   -3.9487   13.5538  -31.6766 H   0  0  0  0  0  0  0  0  0  0  0  0
   -3.4198   14.3531  -33.2003 H   0  0  0  0  0  0  0  0  0  0  0  0
   -5.5604   15.3861  -31.2639 H   0  0  0  0  0  0  0  0  0  0  0  0
   -3.8751   16.0287  -31.4641 H   0  0  0  0  0  0  0  0  0  0  0  0
   -3.9036   17.7285  -35.9858 H   0  0  0  0  0  0  0  0  0  0  0  0
   -5.2507   16.5333  -35.7491 H   0  0  0  0  0  0  0  0  0  0  0  0
   -5.5375   19.3061  -35.9592 H   0  0  0  0  0  0  0  0  0  0  0  0
   -6.7498   18.1363  -35.2908 H   0  0  0  0  0  0  0  0  0  0  0  0
   -5.0381   20.5408  -31.3936 H   0  0  0  0  0  0  0  0  0  0  0  0
   -4.7963   23.8786  -27.1802 H   0  0  0  0  0  0  0  0  0  0  0  0
   -1.0442   25.5657  -26.0531 H   0  0  0  0  0  0  0  0  0  0  0  0
   -0.4046   25.7629  -28.4664 H   0  0  0  0  0  0  0  0  0  0  0  0
  1  2  2  0
  2  3  1  0
  3  4  1  0
  4  5  2  0
  5  6  1  0
  6  7  2  0
  7  8  1  0
  8  9  1  0
  9 10  2  0
  9 11  1  0
 11 12  1  0
 12 13  1  0
 13 14  1  0
 14 15  1  0
 15 16  1  0
 16 17  1  0
 17 18  1  0
 18 19  1  0
 19 20  1  0
 14 21  1  0
 21 22  1  0
  8 23  2  0
  2 24  1  0
 24 25  2  0
 25 26  1  0
 26 27  2  0
 27 28  1  0
 28 29  2  0
 23  4  1  0
 29 24  1  0
 22 11  1  0
 20 15  1  0
  3 30  1  0
  5 31  1  0
  6 32  1  0
  7 33  1  0
 12 34  1  0
 12 35  1  0
 13 36  1  0
 13 37  1  0
 14 38  1  0
 16 39  1  0
 16 40  1  0
 17 41  1  0
 17 42  1  0
 18 43  1  0
 18 44  1  0
 19 45  1  0
 19 46  1  0
 20 47  1  0
 20 48  1  0
 21 49  1  0
 21 50  1  0
 22 51  1  0
 22 52  1  0
 23 53  1  0
 25 54  1  0
 27 55  1  0
 28 56  1  0
M  END
>  <UniqueID>  (39) 
31

>  <SMILES>  (39) 
O=C(Nc1cccc(C(=O)N2CCC(N3CCCCC3)CC2)c1)c1cnccn1

>  <Energy>  (39) 
81.33484412601116

>  <Genealogy>  (39) 
O=C(Nc1cccc(C(=O)N2CCC(N3CCCCC3)CC2)c1)c1cnccn1 (3D coordinates assigned)
O=C(Nc1cccc(C(=O)N2CCC(N3CCCCC3)CC2)c1)c1cnccn1 (nonaromatic ring conformer: 81.33484412601116 kcal/mol)

>  <smiles>  (39) 
O=C(Nc1cccc(C(=O)N2CCC(N3CCCCC3)CC2)c1)c1cnccn1

>  <score_type>  (39) 
oracle

>  <origin>  (39) 
adg

>  <m_score__min__energy>  (39) 
-9.0999999999999996

>  <m_primary>  (39) 
energy

$$$$
39:0
     RDKit          3D

 28 29  0  0  0  0  0  0  0  0999 V2000
   -4.2570   25.6480  -30.8270 O   0  0  0  0  0  0  0  0  0  0  0  0
   -3.8670   24.8920  -29.9000 C   0  0  0  0  0  0  0  0  0  0  0  0
   -4.8450   23.9260  -29.2820 C   0  0  0  0  0  0  0  0  0  0  0  0
   -5.6560   23.2200  -30.3380 C   0  0  0  0  0  0  0  0  0  0  0  0
   -5.0250   22.4450  -31.3270 C   0  0  0  0  0  0  0  0  0  0  0  0
   -5.7820   21.8150  -32.3180 C   0  0  0  0  0  0  0  0  0  0  0  0
   -7.1730   21.9460  -32.3270 C   0  0  0  0  0  0  0  0  0  0  0  0
   -7.8100   22.7060  -31.3430 C   0  0  0  0  0  0  0  0  0  0  0  0
   -7.0560   23.3410  -30.3500 C   0  0  0  0  0  0  0  0  0  0  0  0
   -2.4850   24.9290  -29.5160 N   0  0  0  0  0  0  0  0  0  0  0  0
   -1.9870   25.3100  -28.2280 C   0  0  0  0  0  0  0  0  0  0  0  0
   -0.8510   26.1250  -28.1480 C   0  0  0  0  0  0  0  0  0  0  0  0
   -0.3470   26.5090  -26.9010 C   0  0  0  0  0  0  0  0  0  0  0  0
   -0.9890   26.0970  -25.7300 C   0  0  0  0  0  0  0  0  0  0  0  0
   -2.1420   25.3100  -25.8040 C   0  0  0  0  0  0  0  0  0  0  0  0
   -2.6470   24.9240  -27.0500 C   0  0  0  0  0  0  0  0  0  0  0  0
   -4.2895   23.1783  -28.6969 H   0  0  0  0  0  0  0  0  0  0  0  0
   -5.5322   24.4921  -28.6360 H   0  0  0  0  0  0  0  0  0  0  0  0
   -3.9306   22.3342  -31.3205 H   0  0  0  0  0  0  0  0  0  0  0  0
   -5.2820   21.2148  -33.0925 H   0  0  0  0  0  0  0  0  0  0  0  0
   -7.7668   21.4505  -33.1092 H   0  0  0  0  0  0  0  0  0  0  0  0
   -8.9055   22.8053  -31.3489 H   0  0  0  0  0  0  0  0  0  0  0  0
   -7.5611   23.9372  -29.5758 H   0  0  0  0  0  0  0  0  0  0  0  0
   -0.3535   26.4642  -29.0686 H   0  0  0  0  0  0  0  0  0  0  0  0
    0.5552   27.1356  -26.8420 H   0  0  0  0  0  0  0  0  0  0  0  0
   -0.5869   26.3921  -24.7496 H   0  0  0  0  0  0  0  0  0  0  0  0
   -2.6523   24.9942  -24.8821 H   0  0  0  0  0  0  0  0  0  0  0  0
   -3.5626   24.3171  -27.1073 H   0  0  0  0  0  0  0  0  0  0  0  0
  1  2  2  0
  2  3  1  0
  3  4  1  0
  4  5  2  0
  5  6  1  0
  6  7  2  0
  7  8  1  0
  8  9  2  0
  2 10  1  0
 10 11  1  0
 11 12  2  0
 12 13  1  0
 13 14  2  0
 14 15  1  0
 15 16  2  0
  9  4  1  0
 16 11  1  0
  3 17  1  0
  3 18  1  0
  5 19  1  0
  6 20  1  0
  7 21  1  0
  8 22  1  0
  9 23  1  0
 12 24  1  0
 13 25  1  0
 14 26  1  0
 15 27  1  0
 16 28  1  0
M  CHG  1  10  -1
M  END
>  <UniqueID>  (40) 
32

>  <SMILES>  (40) 
O=C(Cc1ccccc1)[N-]c1ccccc1

>  <Energy>  (40) 
31.679522729770557

>  <Genealogy>  (40) 
O=C(Cc1ccccc1)[N-]c1ccccc1 (protonated)
O=C(Cc1ccccc1)[N-]c1ccccc1 (3D coordinates assigned)
O=C(Cc1ccccc1)[N-]c1ccccc1 (optimized conformer: 31.679522729770557 kcal/mol)

>  <smiles>  (40) 
O=C(Cc1ccccc1)Nc1ccccc1

>  <score_type>  (40) 
oracle

>  <origin>  (40) 
adg

>  <m_score__min__energy>  (40) 
-8.1099999999999994

>  <m_primary>  (40) 
energy

$$$$
40:0
     RDKit          3D

 35 37  0  0  0  0  0  0  0  0999 V2000
   -9.4970   22.0660  -31.5380 O   0  0  0  0  0  0  0  0  0  0  0  0
   -8.3090   21.7170  -31.7260 C   0  0  0  0  0  0  0  0  0  0  0  0
   -7.3120   22.5740  -31.4900 N   0  0  0  0  0  0  0  0  0  0  0  0
   -6.0210   22.2170  -31.6870 C   0  0  0  0  0  0  0  0  0  0  0  0
   -5.0460   23.2130  -31.4190 N   0  0  0  0  0  0  0  0  0  0  0  0
   -5.4220   24.6290  -31.2190 C   0  0  0  0  0  0  0  0  0  0  0  0
   -4.9330   24.9160  -29.7940 C   0  0  0  0  0  0  0  0  0  0  0  0
   -3.5630   24.8400  -29.8160 O   0  0  0  0  0  0  0  0  0  0  0  0
   -3.0260   23.6000  -30.0850 C   0  0  0  0  0  0  0  0  0  0  0  0
   -3.6250   22.9420  -31.3050 C   0  0  0  0  0  0  0  0  0  0  0  0
   -5.7280   20.9850  -32.1280 N   0  0  0  0  0  0  0  0  0  0  0  0
   -6.6820   20.0400  -32.3980 C   0  0  0  0  0  0  0  0  0  0  0  0
   -6.2110   18.7550  -32.8070 C   0  0  0  0  0  0  0  0  0  0  0  0
   -5.9260   17.8250  -31.7990 C   0  0  0  0  0  0  0  0  0  0  0  0
   -5.3940   16.5840  -32.0500 C   0  0  0  0  0  0  0  0  0  0  0  0
   -5.1090   16.1920  -33.3310 C   0  0  0  0  0  0  0  0  0  0  0  0
   -5.3690   17.0680  -34.3430 C   0  0  0  0  0  0  0  0  0  0  0  0
   -5.9150   18.3360  -34.0810 C   0  0  0  0  0  0  0  0  0  0  0  0
   -6.1150   19.1190  -35.1970 O   0  0  0  0  0  0  0  0  0  0  0  0
   -7.9740   20.4320  -32.1860 C   0  0  0  0  0  0  0  0  0  0  0  0
   -9.4710   19.2500  -32.3760 Br  0  0  0  0  0  0  0  0  0  0  0  0
   -4.9175   25.2792  -31.9489 H   0  0  0  0  0  0  0  0  0  0  0  0
   -6.4974   24.8160  -31.3549 H   0  0  0  0  0  0  0  0  0  0  0  0
   -5.2504   25.9217  -29.4813 H   0  0  0  0  0  0  0  0  0  0  0  0
   -5.3545   24.1917  -29.0815 H   0  0  0  0  0  0  0  0  0  0  0  0
   -1.9440   23.7155  -30.2463 H   0  0  0  0  0  0  0  0  0  0  0  0
   -3.2497   22.9540  -29.2233 H   0  0  0  0  0  0  0  0  0  0  0  0
   -3.1162   23.3246  -32.2021 H   0  0  0  0  0  0  0  0  0  0  0  0
   -3.4904   21.8545  -31.2084 H   0  0  0  0  0  0  0  0  0  0  0  0
   -4.7040   20.7890  -32.2650 H   0  0  0  0  0  0  0  0  0  0  0  0
   -6.1386   18.1021  -30.7559 H   0  0  0  0  0  0  0  0  0  0  0  0
   -5.1947   15.8978  -31.2137 H   0  0  0  0  0  0  0  0  0  0  0  0
   -4.6827   15.1992  -33.5374 H   0  0  0  0  0  0  0  0  0  0  0  0
   -5.1479   16.7776  -35.3807 H   0  0  0  0  0  0  0  0  0  0  0  0
   -7.0480   19.4200  -35.4330 H   0  0  0  0  0  0  0  0  0  0  0  0
  1  2  2  0
  2  3  1  0
  3  4  2  0
  4  5  1  0
  5  6  1  0
  6  7  1  0
  7  8  1  0
  8  9  1  0
  9 10  1  0
  4 11  1  0
 11 12  1  0
 12 13  1  0
 13 14  2  0
 14 15  1  0
 15 16  2  0
 16 17  1  0
 17 18  2  0
 18 19  1  0
 12 20  2  0
 20 21  1  0
 20  2  1  0
 10  5  1  0
 18 13  1  0
  6 22  1  0
  6 23  1  0
  7 24  1  0
  7 25  1  0
  9 26  1  0
  9 27  1  0
 10 28  1  0
 10 29  1  0
 11 30  1  0
 14 31  1  0
 15 32  1  0
 16 33  1  0
 17 34  1  0
 19 35  1  0
M  END
>  <smiles>  (41) 
O=c1nc(N2CCOCC2)[nH]c(-c2ccccc2O)c1Br

>  <score_type>  (41) 
oracle

>  <origin>  (41) 
adg

>  <m_score__min__energy>  (41) 
-8.3499999999999996

>  <m_primary>  (41) 
energy

$$$$
41:0
     RDKit          3D

 26 27  0  0  0  0  0  0  0  0999 V2000
   -0.1282   25.5057  -28.1203 H   0  0  0  0  0  0  0  0  0  0  0  0
   -1.1590   25.1250  -28.1710 C   0  0  0  0  0  0  0  0  0  0  0  0
   -1.8930   25.2980  -29.3020 N   0  0  0  0  0  0  0  0  0  0  0  0
   -3.1780   24.8490  -29.4060 C   0  0  0  0  0  0  0  0  0  0  0  0
   -3.8620   25.0010  -30.5040 N   0  0  0  0  0  0  0  0  0  0  0  0
   -5.0010   24.2310  -30.9260 C   0  0  0  0  0  0  0  0  0  0  0  0
   -4.7840   23.0440  -31.6360 C   0  0  0  0  0  0  0  0  0  0  0  0
   -3.7571   22.7346  -31.8802 H   0  0  0  0  0  0  0  0  0  0  0  0
   -5.8610   22.2490  -32.0370 C   0  0  0  0  0  0  0  0  0  0  0  0
   -5.6786   21.3276  -32.6095 H   0  0  0  0  0  0  0  0  0  0  0  0
   -7.1790   22.6230  -31.7110 C   0  0  0  0  0  0  0  0  0  0  0  0
   -8.2940   21.8610  -32.0910 O   0  0  0  0  0  0  0  0  0  0  0  0
   -8.4680   20.4820  -31.7810 C   0  0  0  0  0  0  0  0  0  0  0  0
   -8.4845   20.3509  -30.6890 H   0  0  0  0  0  0  0  0  0  0  0  0
   -9.4180   20.1274  -32.2073 H   0  0  0  0  0  0  0  0  0  0  0  0
   -7.6359   19.9025  -32.2073 H   0  0  0  0  0  0  0  0  0  0  0  0
   -7.3930   23.7930  -30.9750 C   0  0  0  0  0  0  0  0  0  0  0  0
   -8.4184   24.0896  -30.7092 H   0  0  0  0  0  0  0  0  0  0  0  0
   -6.3160   24.5890  -30.5740 C   0  0  0  0  0  0  0  0  0  0  0  0
   -6.4968   25.4980  -29.9815 H   0  0  0  0  0  0  0  0  0  0  0  0
   -3.7590   24.1720  -28.3270 C   0  0  0  0  0  0  0  0  0  0  0  0
   -4.7879   23.7902  -28.4015 H   0  0  0  0  0  0  0  0  0  0  0  0
   -3.0220   23.9850  -27.1550 C   0  0  0  0  0  0  0  0  0  0  0  0
   -3.4717   23.4616  -26.2984 H   0  0  0  0  0  0  0  0  0  0  0  0
   -1.7140   24.4640  -27.0740 C   0  0  0  0  0  0  0  0  0  0  0  0
   -1.1262   24.3222  -26.1551 H   0  0  0  0  0  0  0  0  0  0  0  0
  1  2  1  0
  2  3  1  0
  3  4  1  0
  4  5  2  0
  5  6  1  0
  6  7  2  0
  7  8  1  0
  7  9  1  0
  9 10  1  0
  9 11  2  0
 11 12  1  0
 12 13  1  0
 13 14  1  0
 13 15  1  0
 13 16  1  0
 11 17  1  0
 17 18  1  0
 17 19  2  0
 19 20  1  0
  4 21  1  0
 21 22  1  0
 21 23  2  0
 23 24  1  0
 23 25  1  0
 25 26  1  0
 25  2  2  0
 19  6  1  0
M  CHG  1   3  -1
M  END
>  <UniqueID>  (42) 
33

>  <SMILES>  (42) 
COc1ccc(/N=c2/cccc[n-]2)cc1

>  <Energy>  (42) 
33.15697667235385

>  <Genealogy>  (42) 
COc1ccc(N=c2cccc[n-]2)cc1 (protonated)
COc1ccc(/N=c2/cccc[n-]2)cc1 (cis-trans isomerization)
COc1ccc(/N=c2/cccc[n-]2)cc1 (3D coordinates assigned)
COc1ccc(/N=c2/cccc[n-]2)cc1 (optimized conformer: 33.15697667235385 kcal/mol)

>  <smiles>  (42) 
COc1ccc(N=c2cccc[nH]2)cc1

>  <score_type>  (42) 
oracle

>  <origin>  (42) 
adg

>  <m_score__min__energy>  (42) 
-7.5199999999999996

>  <m_primary>  (42) 
energy

$$$$
42:0
     RDKit          3D

 38 40  0  0  0  0  0  0  0  0999 V2000
   -3.4650   18.7240  -26.1380 C   0  0  0  0  0  0  0  0  0  0  0  0
   -2.1170   19.1060  -26.7390 C   0  0  0  0  0  0  0  0  0  0  0  0
   -2.2850   20.0470  -27.7980 O   0  0  0  0  0  0  0  0  0  0  0  0
   -1.3390   21.0260  -28.1150 C   0  0  0  0  0  0  0  0  0  0  0  0
   -0.6480   21.5740  -27.2130 O   0  0  0  0  0  0  0  0  0  0  0  0
   -1.1890   21.4680  -29.5360 C   0  0  0  0  0  0  0  0  0  0  0  0
   -2.1040   22.5870  -29.8170 N   0  0  0  0  0  0  0  0  0  0  0  0
   -1.7640   23.8800  -29.4890 C   0  0  0  0  0  0  0  0  0  0  0  0
   -0.6460   24.1370  -28.9660 O   0  0  0  0  0  0  0  0  0  0  0  0
   -2.6340   24.9040  -29.7200 N   0  0  0  0  0  0  0  0  0  0  0  0
   -3.8620   24.6990  -30.2690 C   0  0  0  0  0  0  0  0  0  0  0  0
   -4.6320   25.6770  -30.4550 O   0  0  0  0  0  0  0  0  0  0  0  0
   -4.2390   23.3960  -30.6030 C   0  0  0  0  0  0  0  0  0  0  0  0
   -5.4520   22.9480  -31.1640 C   0  0  0  0  0  0  0  0  0  0  0  0
   -5.4920   21.5650  -31.2960 C   0  0  0  0  0  0  0  0  0  0  0  0
   -4.0300   20.8900  -30.7950 S   0  0  0  0  0  0  0  0  0  0  0  0
   -3.3420   22.3680  -30.3560 C   0  0  0  0  0  0  0  0  0  0  0  0
   -6.6480   20.8240  -31.8950 C   0  0  0  0  0  0  0  0  0  0  0  0
   -7.8920   21.6270  -31.8520 N   0  0  0  0  0  0  0  0  0  0  0  0
   -8.5160   21.6000  -30.5180 C   0  0  0  0  0  0  0  0  0  0  0  0
   -7.6760   23.0080  -32.3430 C   0  0  0  0  0  0  0  0  0  0  0  0
   -6.6440   23.7980  -31.5080 C   0  0  0  0  0  0  0  0  0  0  0  0
   -3.3959   18.7436  -25.0404 H   0  0  0  0  0  0  0  0  0  0  0  0
   -4.2308   19.4405  -26.4700 H   0  0  0  0  0  0  0  0  0  0  0  0
   -3.7410   17.7123  -26.4700 H   0  0  0  0  0  0  0  0  0  0  0  0
   -1.4862   19.5523  -25.9562 H   0  0  0  0  0  0  0  0  0  0  0  0
   -1.6408   18.2005  -27.1430 H   0  0  0  0  0  0  0  0  0  0  0  0
   -0.1525   21.7935  -29.7083 H   0  0  0  0  0  0  0  0  0  0  0  0
   -1.4329   20.6274  -30.2022 H   0  0  0  0  0  0  0  0  0  0  0  0
   -6.4140   20.5843  -32.9427 H   0  0  0  0  0  0  0  0  0  0  0  0
   -6.8099   19.9074  -31.3088 H   0  0  0  0  0  0  0  0  0  0  0  0
   -7.7330   21.6339  -29.7462 H   0  0  0  0  0  0  0  0  0  0  0  0
   -9.1793   22.4703  -30.4058 H   0  0  0  0  0  0  0  0  0  0  0  0
   -9.1017   20.6757  -30.4058 H   0  0  0  0  0  0  0  0  0  0  0  0
   -7.3192   22.9574  -33.3823 H   0  0  0  0  0  0  0  0  0  0  0  0
   -8.6366   23.5376  -32.2603 H   0  0  0  0  0  0  0  0  0  0  0  0
   -6.3067   24.6701  -32.0874 H   0  0  0  0  0  0  0  0  0  0  0  0
   -7.1257   24.1150  -30.5713 H   0  0  0  0  0  0  0  0  0  0  0  0
  1  2  1  0
  2  3  1  0
  3  4  1  0
  4  5  2  0
  4  6  1  0
  6  7  1  0
  7  8  1  0
  8  9  2  0
  8 10  1  0
 10 11  1  0
 11 12  2  0
 11 13  1  0
 13 14  1  0
 14 15  2  0
 15 16  1  0
 16 17  1  0
 15 18  1  0
 18 19  1  0
 19 20  1  0
 19 21  1  0
 21 22  1  0
 17  7  1  0
 17 13  2  0
 22 14  1  0
  1 23  1  0
  1 24  1  0
  1 25  1  0
  2 26  1  0
  2 27  1  0
  6 28  1  0
  6 29  1  0
 18 30  1  0
 18 31  1  0
 20 32  1  0
 20 33  1  0
 20 34  1  0
 21 35  1  0
 21 36  1  0
 22 37  1  0
 22 38  1  0
M  CHG  1  10  -1
M  END
>  <UniqueID>  (43) 
34

>  <SMILES>  (43) 
CCOC(=O)Cn1c(=O)[n-]c(=O)c2c3c(sc21)CN(C)CC3

>  <Energy>  (43) 
75.598094376278

>  <Genealogy>  (43) 
CCOC(=O)Cn1c(=O)[n-]c(=O)c2c3c(sc21)CN(C)CC3 (protonated)
CCOC(=O)Cn1c(=O)[n-]c(=O)c2c3c(sc21)CN(C)CC3 (3D coordinates assigned)
CCOC(=O)Cn1c(=O)[n-]c(=O)c2c3c(sc21)CN(C)CC3 (nonaromatic ring conformer: 75.598094376278 kcal/mol)

>  <smiles>  (43) 
CCOC(=O)Cn1c(=O)[nH]c(=O)c2c3c(sc21)CN(C)CC3

>  <score_type>  (43) 
oracle

>  <origin>  (43) 
adg

>  <m_score__min__energy>  (43) 
-8.0299999999999994

>  <m_primary>  (43) 
energy

$$$$
43:0
     RDKit          3D

 32 33  0  0  0  0  0  0  0  0999 V2000
    0.0920   27.0720  -23.2170 C   0  0  0  0  0  0  0  0  0  0  0  0
   -1.1550   26.8800  -23.8780 O   0  0  0  0  0  0  0  0  0  0  0  0
   -1.2880   26.5090  -25.2240 C   0  0  0  0  0  0  0  0  0  0  0  0
   -2.2700   25.5730  -25.5630 C   0  0  0  0  0  0  0  0  0  0  0  0
   -2.4410   25.1700  -26.8900 C   0  0  0  0  0  0  0  0  0  0  0  0
   -1.6200   25.6860  -27.9000 C   0  0  0  0  0  0  0  0  0  0  0  0
   -1.8420   25.2600  -29.2520 N   0  0  0  0  0  0  0  0  0  0  0  0
   -2.9920   24.5650  -29.7500 C   0  0  0  0  0  0  0  0  0  0  0  0
   -3.8060   25.1330  -30.5250 O   0  0  0  0  0  0  0  0  0  0  0  0
   -3.1770   23.1190  -29.4160 C   0  0  0  0  0  0  0  0  0  0  0  0
   -4.6000   22.8960  -28.2960 S   0  0  0  0  0  0  0  0  0  0  0  0
   -5.8310   23.2290  -29.5590 C   0  0  0  0  0  0  0  0  0  0  0  0
   -6.3530   22.2990  -30.3770 N   0  0  0  0  0  0  0  0  0  0  0  0
   -7.2250   22.8990  -31.1780 N   0  0  0  0  0  0  0  0  0  0  0  0
   -7.2260   24.2050  -30.8340 C   0  0  0  0  0  0  0  0  0  0  0  0
   -6.3650   24.4310  -29.8260 N   0  0  0  0  0  0  0  0  0  0  0  0
   -6.0880   25.6580  -29.2070 N   0  0  0  0  0  0  0  0  0  0  0  0
   -0.6470   26.6450  -27.5680 C   0  0  0  0  0  0  0  0  0  0  0  0
   -0.4760   27.0490  -26.2410 C   0  0  0  0  0  0  0  0  0  0  0  0
   -0.0627   27.0482  -22.1282 H   0  0  0  0  0  0  0  0  0  0  0  0
    0.7875   26.2704  -23.5062 H   0  0  0  0  0  0  0  0  0  0  0  0
    0.5142   28.0457  -23.5062 H   0  0  0  0  0  0  0  0  0  0  0  0
   -2.9138   25.1500  -24.7778 H   0  0  0  0  0  0  0  0  0  0  0  0
   -3.2261   24.4423  -27.1429 H   0  0  0  0  0  0  0  0  0  0  0  0
   -3.3542   22.5536  -30.3428 H   0  0  0  0  0  0  0  0  0  0  0  0
   -2.2696   22.7519  -28.9142 H   0  0  0  0  0  0  0  0  0  0  0  0
   -6.1240   21.2810  -30.3980 H   0  0  0  0  0  0  0  0  0  0  0  0
   -7.8458   24.9776  -31.3125 H   0  0  0  0  0  0  0  0  0  0  0  0
   -6.8590   26.3200  -28.9680 H   0  0  0  0  0  0  0  0  0  0  0  0
   -5.1040   25.9210  -28.9760 H   0  0  0  0  0  0  0  0  0  0  0  0
   -0.0165   27.0800  -28.3574 H   0  0  0  0  0  0  0  0  0  0  0  0
    0.2956   27.7915  -25.9896 H   0  0  0  0  0  0  0  0  0  0  0  0
  1  2  1  0
  2  3  1  0
  3  4  2  0
  4  5  1  0
  5  6  2  0
  6  7  1  0
  7  8  1  0
  8  9  2  0
  8 10  1  0
 10 11  1  0
 11 12  1  0
 12 13  2  0
 13 14  1  0
 14 15  2  0
 15 16  1  0
 16 17  1  0
  6 18  1  0
 18 19  2  0
 19  3  1  0
 16 12  1  0
  1 20  1  0
  1 21  1  0
  1 22  1  0
  4 23  1  0
  5 24  1  0
 10 25  1  0
 10 26  1  0
 13 27  1  0
 15 28  1  0
 17 29  1  0
 17 30  1  0
 18 31  1  0
 19 32  1  0
M  CHG  2   7  -1  13   1
M  END
>  <UniqueID>  (44) 
35

>  <SMILES>  (44) 
COc1ccc([N-]C(=O)CSc2[nH+]ncn2N)cc1

>  <Energy>  (44) 
65.74819166604958

>  <Genealogy>  (44) 
COc1ccc([N-]C(=O)CSc2[nH+]ncn2N)cc1 (protonated)
COc1ccc([N-]C(=O)CSc2[nH+]ncn2N)cc1 (3D coordinates assigned)
COc1ccc([N-]C(=O)CSc2[nH+]ncn2N)cc1 (optimized conformer: 65.74819166604958 kcal/mol)

>  <smiles>  (44) 
COc1ccc(NC(=O)CSc2nncn2N)cc1

>  <score_type>  (44) 
oracle

>  <origin>  (44) 
adg

>  <m_score__min__energy>  (44) 
-7.8899999999999997

>  <m_primary>  (44) 
energy

$$$$
44:0
     RDKit          3D

 19 20  0  0  0  0  0  0  0  0999 V2000
   -3.6020   22.9690  -27.8580 C   0  0  0  0  0  0  0  0  0  0  0  0
   -3.9720   23.7080  -29.1060 C   0  0  0  0  0  0  0  0  0  0  0  0
   -3.2970   24.7810  -29.6860 C   0  0  0  0  0  0  0  0  0  0  0  0
   -2.1050   25.3280  -29.2200 O   0  0  0  0  0  0  0  0  0  0  0  0
   -3.9400   25.2630  -30.7770 N   0  0  0  0  0  0  0  0  0  0  0  0
   -5.0370   24.4880  -30.8690 C   0  0  0  0  0  0  0  0  0  0  0  0
   -6.0060   24.6060  -31.8100 N   0  0  0  0  0  0  0  0  0  0  0  0
   -7.0800   23.7620  -31.7750 C   0  0  0  0  0  0  0  0  0  0  0  0
   -7.1860   22.7770  -30.7650 C   0  0  0  0  0  0  0  0  0  0  0  0
   -8.3210   21.8940  -30.7310 C   0  0  0  0  0  0  0  0  0  0  0  0
   -9.2350   21.1830  -30.7060 N   0  0  0  0  0  0  0  0  0  0  0  0
   -6.1750   22.6650  -29.7910 C   0  0  0  0  0  0  0  0  0  0  0  0
   -5.1000   23.5460  -29.8780 C   0  0  0  0  0  0  0  0  0  0  0  0
   -3.8985   23.5612  -26.9797 H   0  0  0  0  0  0  0  0  0  0  0  0
   -4.1209   21.9993  -27.8386 H   0  0  0  0  0  0  0  0  0  0  0  0
   -2.5147   22.8035  -27.8386 H   0  0  0  0  0  0  0  0  0  0  0  0
   -1.6180   26.0510  -29.7340 H   0  0  0  0  0  0  0  0  0  0  0  0
   -7.8679   23.8490  -32.5376 H   0  0  0  0  0  0  0  0  0  0  0  0
   -6.2322   21.9108  -28.9924 H   0  0  0  0  0  0  0  0  0  0  0  0
  1  2  1  0
  2  3  2  0
  3  4  1  0
  3  5  1  0
  5  6  1  0
  6  7  2  0
  7  8  1  0
  8  9  2  0
  9 10  1  0
 10 11  3  0
  9 12  1  0
 12 13  2  0
 13  2  1  0
 13  6  1  0
  1 14  1  0
  1 15  1  0
  1 16  1  0
  4 17  1  0
  8 18  1  0
 12 19  1  0
M  CHG  1   5  -1
M  END
>  <UniqueID>  (45) 
36

>  <SMILES>  (45) 
Cc1c(O)[n-]c2ncc(C#N)cc12

>  <Energy>  (45) 
52.1967672629063

>  <Genealogy>  (45) 
Cc1c(O)[n-]c2ncc(C#N)cc12 (protonated)
Cc1c(O)[n-]c2ncc(C#N)cc12 (3D coordinates assigned)
Cc1c(O)[n-]c2ncc(C#N)cc12 (optimized conformer: 52.1967672629063 kcal/mol)

>  <smiles>  (45) 
Cc1c(O)[nH]c2ncc(C#N)cc12

>  <score_type>  (45) 
oracle

>  <origin>  (45) 
adg

>  <m_score__min__energy>  (45) 
-7.7199999999999998

>  <m_primary>  (45) 
energy

$$$$
45:0
     RDKit          3D

 46 48  0  0  0  0  0  0  0  0999 V2000
   -6.2820   25.2161  -31.6697 H   0  0  0  0  0  0  0  0  0  0  0  0
   -5.3760   25.6160  -31.1910 C   0  0  0  0  0  0  0  0  0  0  0  0
   -5.0421   26.6399  -31.4146 H   0  0  0  0  0  0  0  0  0  0  0  0
   -4.6820   24.8590  -30.3390 C   0  0  0  0  0  0  0  0  0  0  0  0
   -3.5640   25.2970  -29.7230 N   0  0  0  0  0  0  0  0  0  0  0  0
   -3.1070   24.3230  -28.9490 N   0  0  0  0  0  0  0  0  0  0  0  0
   -1.9230   24.4500  -28.1400 C   0  0  0  0  0  0  0  0  0  0  0  0
   -0.7640   23.7330  -28.4830 C   0  0  0  0  0  0  0  0  0  0  0  0
   -0.7665   23.0842  -29.3713 H   0  0  0  0  0  0  0  0  0  0  0  0
    0.3920   23.8380  -27.7040 C   0  0  0  0  0  0  0  0  0  0  0  0
    1.2977   23.2833  -27.9905 H   0  0  0  0  0  0  0  0  0  0  0  0
    0.4020   24.6460  -26.5610 C   0  0  0  0  0  0  0  0  0  0  0  0
    1.8630   24.7860  -25.5900 S   0  0  0  0  0  0  0  0  0  0  0  0
    2.1550   26.2350  -25.3160 O   0  0  0  0  0  0  0  0  0  0  0  0
    3.0280   24.1930  -26.3340 O   0  0  0  0  0  0  0  0  0  0  0  0
    1.6450   23.9440  -24.0970 N   0  0  0  0  0  0  0  0  0  0  0  0
    0.6200   23.9500  -23.8900 H   0  0  0  0  0  0  0  0  0  0  0  0
    2.1050   24.5140  -23.3530 H   0  0  0  0  0  0  0  0  0  0  0  0
   -0.7530   25.3560  -26.2070 C   0  0  0  0  0  0  0  0  0  0  0  0
   -0.7499   25.9962  -25.3125 H   0  0  0  0  0  0  0  0  0  0  0  0
   -1.9090   25.2540  -26.9860 C   0  0  0  0  0  0  0  0  0  0  0  0
   -2.8144   25.8065  -26.6945 H   0  0  0  0  0  0  0  0  0  0  0  0
   -3.9350   23.2610  -29.0510 C   0  0  0  0  0  0  0  0  0  0  0  0
   -3.7730   22.1760  -28.4310 O   0  0  0  0  0  0  0  0  0  0  0  0
   -4.9680   23.5540  -29.9320 C   0  0  0  0  0  0  0  0  0  0  0  0
   -5.9900   22.7710  -30.3340 C   0  0  0  0  0  0  0  0  0  0  0  0
   -6.9406   22.8421  -29.7851 H   0  0  0  0  0  0  0  0  0  0  0  0
   -5.9130   21.8240  -31.4650 C   0  0  0  0  0  0  0  0  0  0  0  0
   -4.6730   21.5170  -32.0430 C   0  0  0  0  0  0  0  0  0  0  0  0
   -3.7621   22.0119  -31.6750 H   0  0  0  0  0  0  0  0  0  0  0  0
   -4.5850   20.5890  -33.0810 C   0  0  0  0  0  0  0  0  0  0  0  0
   -3.6087   20.3665  -33.5364 H   0  0  0  0  0  0  0  0  0  0  0  0
   -5.7410   19.9370  -33.5470 C   0  0  0  0  0  0  0  0  0  0  0  0
   -5.7050   18.9980  -34.5890 O   0  0  0  0  0  0  0  0  0  0  0  0
   -5.9870   17.6110  -34.4330 C   0  0  0  0  0  0  0  0  0  0  0  0
   -6.0370   17.3652  -33.3620 H   0  0  0  0  0  0  0  0  0  0  0  0
   -6.9511   17.3771  -34.9083 H   0  0  0  0  0  0  0  0  0  0  0  0
   -5.1908   17.0192  -34.9083 H   0  0  0  0  0  0  0  0  0  0  0  0
   -6.9740   20.2240  -32.9530 C   0  0  0  0  0  0  0  0  0  0  0  0
   -7.8798   19.7122  -33.3101 H   0  0  0  0  0  0  0  0  0  0  0  0
   -7.0730   21.1590  -31.9040 C   0  0  0  0  0  0  0  0  0  0  0  0
   -8.3000   21.4570  -31.2870 O   0  0  0  0  0  0  0  0  0  0  0  0
   -9.5710   21.3390  -31.9170 C   0  0  0  0  0  0  0  0  0  0  0  0
  -10.3554   21.2662  -31.1493 H   0  0  0  0  0  0  0  0  0  0  0  0
   -9.7529   22.2241  -32.5443 H   0  0  0  0  0  0  0  0  0  0  0  0
   -9.5869   20.4355  -32.5443 H   0  0  0  0  0  0  0  0  0  0  0  0
  1  2  1  0
  2  3  1  0
  2  4  2  0
  4  5  1  0
  5  6  1  0
  6  7  1  0
  7  8  2  0
  8  9  1  0
  8 10  1  0
 10 11  1  0
 10 12  2  0
 12 13  1  0
 13 14  2  0
 13 15  2  0
 13 16  1  0
 16 17  1  0
 16 18  1  0
 12 19  1  0
 19 20  1  0
 19 21  2  0
 21 22  1  0
  6 23  1  0
 23 24  2  0
 23 25  1  0
 25 26  2  0
 26 27  1  0
 26 28  1  0
 28 29  2  0
 29 30  1  0
 29 31  1  0
 31 32  1  0
 31 33  2  0
 33 34  1  0
 34 35  1  0
 35 36  1  0
 35 37  1  0
 35 38  1  0
 33 39  1  0
 39 40  1  0
 39 41  2  0
 41 42  1  0
 42 43  1  0
 43 44  1  0
 43 45  1  0
 43 46  1  0
 25  4  1  0
 41 28  1  0
 21  7  1  0
M  CHG  1   5  -1
M  END
>  <UniqueID>  (46) 
37

>  <SMILES>  (46) 
C=c1[n-]n(-c2ccc(S(N)(=O)=O)cc2)c(=O)/c1=C\c1ccc(OC)cc1OC

>  <Energy>  (46) 
92.95017393740767

>  <Genealogy>  (46) 
C=c1[n-]n(-c2ccc(S(N)(=O)=O)cc2)c(=O)c1=Cc1ccc(OC)cc1OC (protonated)
C=c1[n-]n(-c2ccc(S(N)(=O)=O)cc2)c(=O)/c1=C\c1ccc(OC)cc1OC (cis-trans isomerization)
C=c1[n-]n(-c2ccc(S(N)(=O)=O)cc2)c(=O)/c1=C\c1ccc(OC)cc1OC (3D coordinates assigned)
C=c1[n-]n(-c2ccc(S(N)(=O)=O)cc2)c(=O)/c1=C\c1ccc(OC)cc1OC (optimized conformer: 92.95017393740767 kcal/mol)

>  <smiles>  (46) 
C=c1[nH]n(-c2ccc(S(N)(=O)=O)cc2)c(=O)c1=Cc1ccc(OC)cc1OC

>  <score_type>  (46) 
oracle

>  <origin>  (46) 
adg

>  <m_score__min__energy>  (46) 
-9

>  <m_primary>  (46) 
energy

$$$$
46:0
     RDKit          3D

 43 46  0  0  0  0  0  0  0  0999 V2000
   -5.8400   19.2610  -34.2130 C   0  0  0  0  0  0  0  0  0  0  0  0
   -5.9910   20.1940  -33.0570 C   0  0  0  0  0  0  0  0  0  0  0  0
   -4.9680   20.8220  -32.3510 C   0  0  0  0  0  0  0  0  0  0  0  0
   -5.4840   21.6240  -31.3860 N   0  0  0  0  0  0  0  0  0  0  0  0
   -4.7270   22.4480  -30.4850 C   0  0  0  0  0  0  0  0  0  0  0  0
   -5.2420   23.6830  -30.0590 C   0  0  0  0  0  0  0  0  0  0  0  0
   -4.5200   24.4800  -29.1670 C   0  0  0  0  0  0  0  0  0  0  0  0
   -3.2760   24.0510  -28.6830 C   0  0  0  0  0  0  0  0  0  0  0  0
   -2.5410   24.8690  -27.7570 N   0  0  0  0  0  0  0  0  0  0  0  0
   -2.9400   24.8380  -26.3420 C   0  0  0  0  0  0  0  0  0  0  0  0
   -2.4060   26.0480  -25.5710 C   0  0  0  0  0  0  0  0  0  0  0  0
   -0.9000   26.1870  -25.7860 C   0  0  0  0  0  0  0  0  0  0  0  0
   -0.5910   26.4600  -27.2580 C   0  0  0  0  0  0  0  0  0  0  0  0
   -1.3100   25.5050  -28.1680 C   0  0  0  0  0  0  0  0  0  0  0  0
   -0.8710   25.3410  -29.3390 O   0  0  0  0  0  0  0  0  0  0  0  0
   -2.7690   22.8070  -29.0910 C   0  0  0  0  0  0  0  0  0  0  0  0
   -3.4920   22.0100  -29.9830 C   0  0  0  0  0  0  0  0  0  0  0  0
   -6.8260   21.4980  -31.4810 C   0  0  0  0  0  0  0  0  0  0  0  0
   -7.7650   22.0660  -30.6750 N   0  0  0  0  0  0  0  0  0  0  0  0
   -9.0870   21.8050  -30.9070 C   0  0  0  0  0  0  0  0  0  0  0  0
   -9.4770   20.9440  -31.9580 C   0  0  0  0  0  0  0  0  0  0  0  0
   -8.4990   20.3420  -32.7670 C   0  0  0  0  0  0  0  0  0  0  0  0
   -7.1680   20.6390  -32.4910 C   0  0  0  0  0  0  0  0  0  0  0  0
   -5.6746   18.2393  -33.8404 H   0  0  0  0  0  0  0  0  0  0  0  0
   -6.7537   19.2847  -34.8251 H   0  0  0  0  0  0  0  0  0  0  0  0
   -4.9804   19.5717  -34.8251 H   0  0  0  0  0  0  0  0  0  0  0  0
   -3.8942   20.6870  -32.5478 H   0  0  0  0  0  0  0  0  0  0  0  0
   -6.2196   24.0249  -30.4297 H   0  0  0  0  0  0  0  0  0  0  0  0
   -4.9293   25.4482  -28.8430 H   0  0  0  0  0  0  0  0  0  0  0  0
   -4.0384   24.8349  -26.2823 H   0  0  0  0  0  0  0  0  0  0  0  0
   -2.5153   23.9304  -25.8881 H   0  0  0  0  0  0  0  0  0  0  0  0
   -2.9097   26.9581  -25.9287 H   0  0  0  0  0  0  0  0  0  0  0  0
   -2.6041   25.9064  -24.4983 H   0  0  0  0  0  0  0  0  0  0  0  0
   -0.5230   27.0215  -25.1764 H   0  0  0  0  0  0  0  0  0  0  0  0
   -0.4105   25.2479  -25.4885 H   0  0  0  0  0  0  0  0  0  0  0  0
   -0.9022   27.4864  -27.5022 H   0  0  0  0  0  0  0  0  0  0  0  0
    0.4903   26.3266  -27.4097 H   0  0  0  0  0  0  0  0  0  0  0  0
   -1.7990   22.4582  -28.7072 H   0  0  0  0  0  0  0  0  0  0  0  0
   -3.0906   21.0340  -30.2932 H   0  0  0  0  0  0  0  0  0  0  0  0
   -7.4960   22.6780  -29.8740 H   0  0  0  0  0  0  0  0  0  0  0  0
   -9.8541   22.2693  -30.2699 H   0  0  0  0  0  0  0  0  0  0  0  0
  -10.5433   20.7459  -32.1419 H   0  0  0  0  0  0  0  0  0  0  0  0
   -8.7747   19.6623  -33.5867 H   0  0  0  0  0  0  0  0  0  0  0  0
  1  2  1  0
  2  3  2  0
  3  4  1  0
  4  5  1  0
  5  6  2  0
  6  7  1  0
  7  8  2  0
  8  9  1  0
  9 10  1  0
 10 11  1  0
 11 12  1  0
 12 13  1  0
 13 14  1  0
 14 15  2  0
  8 16  1  0
 16 17  2  0
  4 18  1  0
 18 19  2  0
 19 20  1  0
 20 21  2  0
 21 22  1  0
 22 23  2  0
 23  2  1  0
 17  5  1  0
 23 18  1  0
 14  9  1  0
  1 24  1  0
  1 25  1  0
  1 26  1  0
  3 27  1  0
  6 28  1  0
  7 29  1  0
 10 30  1  0
 10 31  1  0
 11 32  1  0
 11 33  1  0
 12 34  1  0
 12 35  1  0
 13 36  1  0
 13 37  1  0
 16 38  1  0
 17 39  1  0
 19 40  1  0
 20 41  1  0
 21 42  1  0
 22 43  1  0
M  CHG  1  19   1
M  END
>  <UniqueID>  (47) 
38

>  <SMILES>  (47) 
Cc1cn(-c2ccc(N3CCCCC3=O)cc2)c2[nH+]cccc12

>  <Energy>  (47) 
89.48022216942726

>  <Genealogy>  (47) 
Cc1cn(-c2ccc(N3CCCCC3=O)cc2)c2[nH+]cccc12 (protonated)
Cc1cn(-c2ccc(N3CCCCC3=O)cc2)c2[nH+]cccc12 (3D coordinates assigned)
Cc1cn(-c2ccc(N3CCCCC3=O)cc2)c2[nH+]cccc12 (nonaromatic ring conformer: 89.48022216942726 kcal/mol)

>  <smiles>  (47) 
Cc1cn(-c2ccc(N3CCCCC3=O)cc2)c2ncccc12

>  <score_type>  (47) 
oracle

>  <origin>  (47) 
adg

>  <m_score__min__energy>  (47) 
-7.6900000000000004

>  <m_primary>  (47) 
energy

$$$$
