0:0
     RDKit          3D

 53 56  0  0  0  0  0  0  0  0999 V2000
   -0.8660   26.5450  -28.1860 C   0  0  0  0  0  0  0  0  0  0  0  0
   -1.5260   25.4580  -28.8270 O   0  0  0  0  0  0  0  0  0  0  0  0
   -1.6020   24.1530  -28.3110 C   0  0  0  0  0  0  0  0  0  0  0  0
   -1.0990   23.8330  -27.0320 C   0  0  0  0  0  0  0  0  0  0  0  0
   -1.1770   22.5260  -26.5490 C   0  0  0  0  0  0  0  0  0  0  0  0
   -1.7470   21.5230  -27.3300 C   0  0  0  0  0  0  0  0  0  0  0  0
   -2.2500   21.8240  -28.5960 C   0  0  0  0  0  0  0  0  0  0  0  0
   -2.1960   23.1380  -29.0940 C   0  0  0  0  0  0  0  0  0  0  0  0
   -2.7550   23.4370  -30.4740 C   0  0  0  0  0  0  0  0  0  0  0  0
   -4.2190   23.6570  -30.4990 N   0  0  0  0  0  0  0  0  0  0  0  0
   -4.9560   22.8620  -29.5060 C   0  0  0  0  0  0  0  0  0  0  0  0
   -6.4610   22.8610  -29.8490 C   0  0  0  0  0  0  0  0  0  0  0  0
   -6.8810   24.0360  -30.6520 N   0  0  0  0  0  0  0  0  0  0  0  0
   -6.8410   23.7780  -32.1080 C   0  0  0  0  0  0  0  0  0  0  0  0
   -6.5450   22.3310  -32.3630 C   0  0  0  0  0  0  0  0  0  0  0  0
   -5.3060   21.7780  -32.6700 C   0  0  0  0  0  0  0  0  0  0  0  0
   -5.4170   20.4330  -32.7960 N   0  0  0  0  0  0  0  0  0  0  0  0
   -4.3330   19.5010  -33.0840 C   0  0  0  0  0  0  0  0  0  0  0  0
   -6.7100   20.1320  -32.5600 C   0  0  0  0  0  0  0  0  0  0  0  0
   -7.3140   18.8720  -32.5530 C   0  0  0  0  0  0  0  0  0  0  0  0
   -8.6890   18.8020  -32.2660 C   0  0  0  0  0  0  0  0  0  0  0  0
   -9.4240   19.9760  -31.9900 C   0  0  0  0  0  0  0  0  0  0  0  0
   -8.7910   21.2320  -32.0000 C   0  0  0  0  0  0  0  0  0  0  0  0
   -7.4270   21.2710  -32.2920 C   0  0  0  0  0  0  0  0  0  0  0  0
   -6.1300   25.2520  -30.2790 C   0  0  0  0  0  0  0  0  0  0  0  0
   -4.6050   25.0810  -30.4470 C   0  0  0  0  0  0  0  0  0  0  0  0
   -0.9383   26.4259  -27.0949 H   0  0  0  0  0  0  0  0  0  0  0  0
    0.1928   26.5582  -28.4840 H   0  0  0  0  0  0  0  0  0  0  0  0
   -1.3426   27.4905  -28.4840 H   0  0  0  0  0  0  0  0  0  0  0  0
   -0.6426   24.6186  -26.4119 H   0  0  0  0  0  0  0  0  0  0  0  0
   -0.7872   22.2870  -25.5485 H   0  0  0  0  0  0  0  0  0  0  0  0
   -1.8005   20.4928  -26.9481 H   0  0  0  0  0  0  0  0  0  0  0  0
   -2.6929   21.0262  -29.2103 H   0  0  0  0  0  0  0  0  0  0  0  0
   -2.2630   24.3432  -30.8570 H   0  0  0  0  0  0  0  0  0  0  0  0
   -2.5569   22.5510  -31.0951 H   0  0  0  0  0  0  0  0  0  0  0  0
   -4.5792   21.8286  -29.5132 H   0  0  0  0  0  0  0  0  0  0  0  0
   -4.8113   23.3026  -28.5085 H   0  0  0  0  0  0  0  0  0  0  0  0
   -6.6883   21.9487  -30.4200 H   0  0  0  0  0  0  0  0  0  0  0  0
   -7.0119   22.9029  -28.8978 H   0  0  0  0  0  0  0  0  0  0  0  0
   -7.8149   24.0343  -32.5505 H   0  0  0  0  0  0  0  0  0  0  0  0
   -6.0515   24.3942  -32.5629 H   0  0  0  0  0  0  0  0  0  0  0  0
   -4.3734   22.3483  -32.7925 H   0  0  0  0  0  0  0  0  0  0  0  0
   -3.9051   19.1331  -32.1397 H   0  0  0  0  0  0  0  0  0  0  0  0
   -4.7236   18.6524  -33.6647 H   0  0  0  0  0  0  0  0  0  0  0  0
   -3.5526   20.0145  -33.6647 H   0  0  0  0  0  0  0  0  0  0  0  0
   -6.7321   17.9630  -32.7654 H   0  0  0  0  0  0  0  0  0  0  0  0
   -9.1957   17.8257  -32.2564 H   0  0  0  0  0  0  0  0  0  0  0  0
  -10.4987   19.9076  -31.7657 H   0  0  0  0  0  0  0  0  0  0  0  0
   -9.3526   22.1530  -31.7848 H   0  0  0  0  0  0  0  0  0  0  0  0
   -6.4642   26.0827  -30.9180 H   0  0  0  0  0  0  0  0  0  0  0  0
   -6.3282   25.4538  -29.2160 H   0  0  0  0  0  0  0  0  0  0  0  0
   -4.2920   25.5698  -31.3814 H   0  0  0  0  0  0  0  0  0  0  0  0
   -4.1102   25.5395  -29.5781 H   0  0  0  0  0  0  0  0  0  0  0  0
  1  2  1  0
  2  3  1  0
  3  4  2  0
  4  5  1  0
  5  6  2  0
  6  7  1  0
  7  8  2  0
  8  9  1  0
  9 10  1  0
 10 11  1  0
 11 12  1  0
 12 13  1  0
 13 14  1  0
 14 15  1  0
 15 16  2  0
 16 17  1  0
 17 18  1  0
 17 19  1  0
 19 20  2  0
 20 21  1  0
 21 22  2  0
 22 23  1  0
 23 24  2  0
 13 25  1  0
 25 26  1  0
  8  3  1  0
 26 10  1  0
 24 15  1  0
 24 19  1  0
  1 27  1  0
  1 28  1  0
  1 29  1  0
  4 30  1  0
  5 31  1  0
  6 32  1  0
  7 33  1  0
  9 34  1  0
  9 35  1  0
 11 36  1  0
 11 37  1  0
 12 38  1  0
 12 39  1  0
 14 40  1  0
 14 41  1  0
 16 42  1  0
 18 43  1  0
 18 44  1  0
 18 45  1  0
 20 46  1  0
 21 47  1  0
 22 48  1  0
 23 49  1  0
 25 50  1  0
 25 51  1  0
 26 52  1  0
 26 53  1  0
M  END
>  <UniqueID>  (1) 
1

>  <SMILES>  (1) 
COc1ccccc1CN1CCN(Cc2cn(C)c3ccccc23)CC1

>  <Energy>  (1) 
101.95126656063455

>  <Genealogy>  (1) 
COc1ccccc1CN1CCN(Cc2cn(C)c3ccccc23)CC1 (3D coordinates assigned)
COc1ccccc1CN1CCN(Cc2cn(C)c3ccccc23)CC1 (nonaromatic ring conformer: 101.95126656063455 kcal/mol)

>  <smiles>  (1) 
COc1ccccc1CN1CCN(Cc2cn(C)c3ccccc23)CC1

>  <score_type>  (1) 
oracle

>  <origin>  (1) 
adg

>  <m_score__min__energy>  (1) 
-8.9700000000000006

>  <m_primary>  (1) 
energy

$$$$
1:0
     RDKit          3D

 56 58  0  0  0  0  0  0  0  0999 V2000
   -6.1100   25.2870  -29.5710 C   0  0  0  0  0  0  0  0  0  0  0  0
   -5.2750   25.6710  -30.7830 C   0  0  0  0  0  0  0  0  0  0  0  0
   -3.9280   25.3120  -30.5510 O   0  0  0  0  0  0  0  0  0  0  0  0
   -3.8550   24.1160  -29.7970 C   0  0  0  0  0  0  0  0  0  0  0  0
   -2.8880   23.1300  -30.4700 C   0  0  0  0  0  0  0  0  0  0  0  0
   -3.1000   21.7400  -30.0340 N   0  0  0  0  0  0  0  0  0  0  0  0
   -3.6610   20.8990  -31.0990 C   0  0  0  0  0  0  0  0  0  0  0  0
   -3.3120   21.4960  -32.4630 C   0  0  0  0  0  0  0  0  0  0  0  0
   -4.4800   21.4980  -33.3430 N   0  0  0  0  0  0  0  0  0  0  0  0
   -5.6490   20.7380  -33.0040 C   0  0  0  0  0  0  0  0  0  0  0  0
   -6.7840   21.3850  -32.4930 C   0  0  0  0  0  0  0  0  0  0  0  0
   -6.7950   22.7850  -32.3120 C   0  0  0  0  0  0  0  0  0  0  0  0
   -7.9420   23.4330  -31.8630 C   0  0  0  0  0  0  0  0  0  0  0  0
   -9.0970   22.7040  -31.6010 C   0  0  0  0  0  0  0  0  0  0  0  0
   -9.1020   21.3170  -31.7550 C   0  0  0  0  0  0  0  0  0  0  0  0
   -7.9370   20.6220  -32.1680 C   0  0  0  0  0  0  0  0  0  0  0  0
   -7.9080   19.2430  -32.2740 N   0  0  0  0  0  0  0  0  0  0  0  0
   -8.9910   18.4340  -31.6700 C   0  0  0  0  0  0  0  0  0  0  0  0
   -6.8510   18.6190  -32.9110 C   0  0  0  0  0  0  0  0  0  0  0  0
   -6.9010   17.2500  -33.2730 C   0  0  0  0  0  0  0  0  0  0  0  0
   -5.8040   16.6030  -33.8630 C   0  0  0  0  0  0  0  0  0  0  0  0
   -5.9110   15.1400  -34.2130 C   0  0  0  0  0  0  0  0  0  0  0  0
   -4.6150   17.3220  -34.0930 C   0  0  0  0  0  0  0  0  0  0  0  0
   -3.4070   16.6640  -34.7080 C   0  0  0  0  0  0  0  0  0  0  0  0
   -4.5740   18.6910  -33.7990 C   0  0  0  0  0  0  0  0  0  0  0  0
   -5.6830   19.3520  -33.2380 C   0  0  0  0  0  0  0  0  0  0  0  0
   -5.5605   25.5397  -28.6522 H   0  0  0  0  0  0  0  0  0  0  0  0
   -7.0619   25.8378  -29.5922 H   0  0  0  0  0  0  0  0  0  0  0  0
   -6.3114   24.2058  -29.5922 H   0  0  0  0  0  0  0  0  0  0  0  0
   -5.6495   25.1407  -31.6710 H   0  0  0  0  0  0  0  0  0  0  0  0
   -5.3449   26.7557  -30.9517 H   0  0  0  0  0  0  0  0  0  0  0  0
   -3.4945   24.3456  -28.7834 H   0  0  0  0  0  0  0  0  0  0  0  0
   -4.8551   23.6613  -29.7426 H   0  0  0  0  0  0  0  0  0  0  0  0
   -3.0325   23.1832  -31.5592 H   0  0  0  0  0  0  0  0  0  0  0  0
   -1.8662   23.4169  -30.1810 H   0  0  0  0  0  0  0  0  0  0  0  0
   -2.1860   21.3330  -29.7210 H   0  0  0  0  0  0  0  0  0  0  0  0
   -3.2402   19.8854  -31.0247 H   0  0  0  0  0  0  0  0  0  0  0  0
   -4.7546   20.8531  -30.9898 H   0  0  0  0  0  0  0  0  0  0  0  0
   -2.9623   22.5298  -32.3254 H   0  0  0  0  0  0  0  0  0  0  0  0
   -2.5236   20.8835  -32.9248 H   0  0  0  0  0  0  0  0  0  0  0  0
   -4.4750   22.0280  -34.2440 H   0  0  0  0  0  0  0  0  0  0  0  0
   -5.8884   23.3693  -32.5279 H   0  0  0  0  0  0  0  0  0  0  0  0
   -7.9350   24.5230  -31.7152 H   0  0  0  0  0  0  0  0  0  0  0  0
  -10.0095   23.2223  -31.2713 H   0  0  0  0  0  0  0  0  0  0  0  0
  -10.0248   20.7536  -31.5527 H   0  0  0  0  0  0  0  0  0  0  0  0
   -8.9203   18.4868  -30.5736 H   0  0  0  0  0  0  0  0  0  0  0  0
   -9.9662   18.8266  -31.9939 H   0  0  0  0  0  0  0  0  0  0  0  0
   -8.8912   17.3875  -31.9939 H   0  0  0  0  0  0  0  0  0  0  0  0
   -7.8230   16.6797  -33.0869 H   0  0  0  0  0  0  0  0  0  0  0  0
   -5.9546   14.5442  -33.2893 H   0  0  0  0  0  0  0  0  0  0  0  0
   -6.8240   14.9698  -34.8025 H   0  0  0  0  0  0  0  0  0  0  0  0
   -5.0325   14.8388  -34.8025 H   0  0  0  0  0  0  0  0  0  0  0  0
   -2.7413   16.3014  -33.9109 H   0  0  0  0  0  0  0  0  0  0  0  0
   -3.7285   15.8164  -35.3310 H   0  0  0  0  0  0  0  0  0  0  0  0
   -2.8693   17.3938  -35.3310 H   0  0  0  0  0  0  0  0  0  0  0  0
   -3.6571   19.2607  -34.0107 H   0  0  0  0  0  0  0  0  0  0  0  0
  1  2  1  0
  2  3  1  0
  3  4  1  0
  4  5  1  0
  5  6  1  0
  6  7  1  0
  7  8  1  0
  8  9  1  0
  9 10  1  0
 10 11  2  0
 11 12  1  0
 12 13  2  0
 13 14  1  0
 14 15  2  0
 15 16  1  0
 16 17  2  0
 17 18  1  0
 17 19  1  0
 19 20  2  0
 20 21  1  0
 21 22  1  0
 21 23  2  0
 23 24  1  0
 23 25  1  0
 25 26  2  0
 26 10  1  0
 16 11  1  0
 26 19  1  0
  1 27  1  0
  1 28  1  0
  1 29  1  0
  2 30  1  0
  2 31  1  0
  4 32  1  0
  4 33  1  0
  5 34  1  0
  5 35  1  0
  6 36  1  0
  7 37  1  0
  7 38  1  0
  8 39  1  0
  8 40  1  0
  9 41  1  0
 12 42  1  0
 13 43  1  0
 14 44  1  0
 15 45  1  0
 18 46  1  0
 18 47  1  0
 18 48  1  0
 20 49  1  0
 22 50  1  0
 22 51  1  0
 22 52  1  0
 24 53  1  0
 24 54  1  0
 24 55  1  0
 25 56  1  0
M  CHG  1  17   1
M  END
>  <UniqueID>  (2) 
2

>  <SMILES>  (2) 
CCOCCNCCNc1c2ccccc2[n+](C)c2cc(C)c(C)cc12

>  <Energy>  (2) 
79.69654806587431

>  <Genealogy>  (2) 
CCOCCNCCNc1c2ccccc2[n+](C)c2cc(C)c(C)cc12 (3D coordinates assigned)
CCOCCNCCNc1c2ccccc2[n+](C)c2cc(C)c(C)cc12 (optimized conformer: 79.69654806587431 kcal/mol)

>  <smiles>  (2) 
CCOCCNCCNc1c2ccccc2[n+](C)c2cc(C)c(C)cc12

>  <score_type>  (2) 
oracle

>  <origin>  (2) 
adg

>  <m_score__min__energy>  (2) 
-9.4000000000000004

>  <m_primary>  (2) 
energy

$$$$
2:0
     RDKit          3D

 51 53  0  0  0  0  0  0  0  0999 V2000
   -4.1010   24.1670  -27.5870 C   0  0  0  0  0  0  0  0  0  0  0  0
   -4.4620   23.6250  -28.9670 C   0  0  0  0  0  0  0  0  0  0  0  0
   -3.6930   24.3730  -30.0710 C   0  0  0  0  0  0  0  0  0  0  0  0
   -4.5550   24.7460  -31.2040 N   0  0  0  0  0  0  0  0  0  0  0  0
   -5.9710   24.8440  -30.8240 C   0  0  0  0  0  0  0  0  0  0  0  0
   -6.7540   23.6530  -31.3890 C   0  0  0  0  0  0  0  0  0  0  0  0
   -6.2060   23.2170  -32.6860 N   0  0  0  0  0  0  0  0  0  0  0  0
   -5.9850   21.7790  -32.7020 C   0  0  0  0  0  0  0  0  0  0  0  0
   -7.0750   20.8760  -32.6020 C   0  0  0  0  0  0  0  0  0  0  0  0
   -8.3850   21.3190  -32.2940 C   0  0  0  0  0  0  0  0  0  0  0  0
   -9.4390   20.4170  -32.1730 C   0  0  0  0  0  0  0  0  0  0  0  0
   -9.2150   19.0580  -32.3360 C   0  0  0  0  0  0  0  0  0  0  0  0
   -7.9390   18.5910  -32.6390 C   0  0  0  0  0  0  0  0  0  0  0  0
   -6.8500   19.4850  -32.8050 C   0  0  0  0  0  0  0  0  0  0  0  0
   -5.5920   19.0280  -33.1420 N   0  0  0  0  0  0  0  0  0  0  0  0
   -5.4230   17.6580  -33.6770 C   0  0  0  0  0  0  0  0  0  0  0  0
   -4.4960   19.8510  -32.9890 C   0  0  0  0  0  0  0  0  0  0  0  0
   -3.1750   19.3310  -33.0130 C   0  0  0  0  0  0  0  0  0  0  0  0
   -2.0580   20.1590  -32.8970 C   0  0  0  0  0  0  0  0  0  0  0  0
   -0.7860   19.5710  -32.9400 O   0  0  0  0  0  0  0  0  0  0  0  0
    0.3560   20.1660  -33.5490 C   0  0  0  0  0  0  0  0  0  0  0  0
   -2.2430   21.5350  -32.7340 C   0  0  0  0  0  0  0  0  0  0  0  0
   -3.5270   22.0710  -32.6720 C   0  0  0  0  0  0  0  0  0  0  0  0
   -4.6720   21.2480  -32.7900 C   0  0  0  0  0  0  0  0  0  0  0  0
   -4.5342   23.5166  -26.8128 H   0  0  0  0  0  0  0  0  0  0  0  0
   -3.0068   24.1897  -27.4767 H   0  0  0  0  0  0  0  0  0  0  0  0
   -4.5018   25.1854  -27.4767 H   0  0  0  0  0  0  0  0  0  0  0  0
   -4.2068   22.5559  -29.0118 H   0  0  0  0  0  0  0  0  0  0  0  0
   -5.5401   23.7706  -29.1301 H   0  0  0  0  0  0  0  0  0  0  0  0
   -3.2597   25.2881  -29.6411 H   0  0  0  0  0  0  0  0  0  0  0  0
   -2.9134   23.6970  -30.4523 H   0  0  0  0  0  0  0  0  0  0  0  0
   -4.2400   25.6660  -31.5950 H   0  0  0  0  0  0  0  0  0  0  0  0
   -6.0536   24.8458  -29.7271 H   0  0  0  0  0  0  0  0  0  0  0  0
   -6.3891   25.7754  -31.2335 H   0  0  0  0  0  0  0  0  0  0  0  0
   -6.6969   22.8166  -30.6768 H   0  0  0  0  0  0  0  0  0  0  0  0
   -7.7978   23.9651  -31.5410 H   0  0  0  0  0  0  0  0  0  0  0  0
   -5.3180   23.7250  -32.8980 H   0  0  0  0  0  0  0  0  0  0  0  0
   -6.8400   23.5000  -33.4650 H   0  0  0  0  0  0  0  0  0  0  0  0
   -8.5726   22.3930  -32.1481 H   0  0  0  0  0  0  0  0  0  0  0  0
  -10.4515   20.7831  -31.9476 H   0  0  0  0  0  0  0  0  0  0  0  0
  -10.0475   18.3475  -32.2256 H   0  0  0  0  0  0  0  0  0  0  0  0
   -7.7722   17.5096  -32.7517 H   0  0  0  0  0  0  0  0  0  0  0  0
   -5.3353   16.9467  -32.8425 H   0  0  0  0  0  0  0  0  0  0  0  0
   -6.2955   17.3947  -34.2930 H   0  0  0  0  0  0  0  0  0  0  0  0
   -4.5127   17.6146  -34.2930 H   0  0  0  0  0  0  0  0  0  0  0  0
   -3.0283   18.2467  -33.1260 H   0  0  0  0  0  0  0  0  0  0  0  0
    1.0432   20.5240  -32.7682 H   0  0  0  0  0  0  0  0  0  0  0  0
    0.8684   19.4202  -34.1745 H   0  0  0  0  0  0  0  0  0  0  0  0
    0.0384   21.0132  -34.1745 H   0  0  0  0  0  0  0  0  0  0  0  0
   -1.3692   22.1984  -32.6542 H   0  0  0  0  0  0  0  0  0  0  0  0
   -3.6534   23.1543  -32.5286 H   0  0  0  0  0  0  0  0  0  0  0  0
  1  2  1  0
  2  3  1  0
  3  4  1  0
  4  5  1  0
  5  6  1  0
  6  7  1  0
  7  8  1  0
  8  9  2  0
  9 10  1  0
 10 11  2  0
 11 12  1  0
 12 13  2  0
 13 14  1  0
 14 15  2  0
 15 16  1  0
 15 17  1  0
 17 18  2  0
 18 19  1  0
 19 20  1  0
 20 21  1  0
 19 22  2  0
 22 23  1  0
 23 24  2  0
 24  8  1  0
 14  9  1  0
 24 17  1  0
  1 25  1  0
  1 26  1  0
  1 27  1  0
  2 28  1  0
  2 29  1  0
  3 30  1  0
  3 31  1  0
  4 32  1  0
  5 33  1  0
  5 34  1  0
  6 35  1  0
  6 36  1  0
  7 37  1  0
  7 38  1  0
 10 39  1  0
 11 40  1  0
 12 41  1  0
 13 42  1  0
 16 43  1  0
 16 44  1  0
 16 45  1  0
 18 46  1  0
 21 47  1  0
 21 48  1  0
 21 49  1  0
 22 50  1  0
 23 51  1  0
M  CHG  2   7   1  15   1
M  END
>  <UniqueID>  (3) 
3

>  <SMILES>  (3) 
CCCNCC[NH2+]c1c2ccccc2[n+](C)c2cc(OC)ccc12

>  <Energy>  (3) 
73.0485066581042

>  <Genealogy>  (3) 
CCCNCC[NH2+]c1c2ccccc2[n+](C)c2cc(OC)ccc12 (protonated)
CCCNCC[NH2+]c1c2ccccc2[n+](C)c2cc(OC)ccc12 (3D coordinates assigned)
CCCNCC[NH2+]c1c2ccccc2[n+](C)c2cc(OC)ccc12 (optimized conformer: 73.0485066581042 kcal/mol)

>  <smiles>  (3) 
CCCNCCNc1c2ccccc2[n+](C)c2cc(OC)ccc12

>  <score_type>  (3) 
oracle

>  <origin>  (3) 
adg

>  <m_score__min__energy>  (3) 
-7.7599999999999998

>  <m_primary>  (3) 
energy

$$$$
3:0
     RDKit          3D

 38 38  0  0  0  0  0  0  0  0999 V2000
   -8.8350   19.3640  -32.2070 C   0  0  0  0  0  0  0  0  0  0  0  0
   -7.6440   20.1590  -31.6550 C   0  0  0  0  0  0  0  0  0  0  0  0
   -7.9720   21.5860  -31.4020 N   0  0  2  0  0  0  0  0  0  0  0  0
   -9.4230   21.8230  -31.5500 C   0  0  0  0  0  0  0  0  0  0  0  0
   -7.1980   22.4400  -32.3430 C   0  0  0  0  0  0  0  0  0  0  0  0
   -6.7990   23.8100  -31.7560 C   0  0  0  0  0  0  0  0  0  0  0  0
   -7.0990   23.8960  -30.3750 O   0  0  0  0  0  0  0  0  0  0  0  0
   -6.1370   24.6810  -29.7040 C   0  0  0  0  0  0  0  0  0  0  0  0
   -5.2220   25.3360  -30.7370 C   0  0  0  0  0  0  0  0  0  0  0  0
   -3.8620   24.9630  -30.5160 O   0  0  0  0  0  0  0  0  0  0  0  0
   -3.4190   23.9400  -29.6590 C   0  0  0  0  0  0  0  0  0  0  0  0
   -3.1100   24.1700  -28.3020 C   0  0  0  0  0  0  0  0  0  0  0  0
   -2.6760   23.1190  -27.4900 C   0  0  0  0  0  0  0  0  0  0  0  0
   -2.5480   21.8300  -28.0160 C   0  0  0  0  0  0  0  0  0  0  0  0
   -1.9540   20.3970  -26.9030 Br  0  0  0  0  0  0  0  0  0  0  0  0
   -2.8560   21.5930  -29.3590 C   0  0  0  0  0  0  0  0  0  0  0  0
   -3.2910   22.6410  -30.1780 C   0  0  0  0  0  0  0  0  0  0  0  0
   -3.7020   22.2790  -32.0120 Br  0  0  0  0  0  0  0  0  0  0  0  0
   -9.4298   18.9670  -31.3712 H   0  0  0  0  0  0  0  0  0  0  0  0
   -9.4631   20.0246  -32.8227 H   0  0  0  0  0  0  0  0  0  0  0  0
   -8.4658   18.5306  -32.8227 H   0  0  0  0  0  0  0  0  0  0  0  0
   -7.3227   19.6991  -30.7088 H   0  0  0  0  0  0  0  0  0  0  0  0
   -6.8475   20.1316  -32.4132 H   0  0  0  0  0  0  0  0  0  0  0  0
   -7.6880   21.8220  -30.4230 H   0  0  0  0  0  0  0  0  0  0  0  0
   -9.8856   21.8986  -30.5548 H   0  0  0  0  0  0  0  0  0  0  0  0
   -9.5870   22.7598  -32.1027 H   0  0  0  0  0  0  0  0  0  0  0  0
   -9.8766   20.9870  -32.1027 H   0  0  0  0  0  0  0  0  0  0  0  0
   -6.2803   21.9026  -32.6243 H   0  0  0  0  0  0  0  0  0  0  0  0
   -7.8506   22.6389  -33.2059 H   0  0  0  0  0  0  0  0  0  0  0  0
   -5.7177   23.9563  -31.8956 H   0  0  0  0  0  0  0  0  0  0  0  0
   -7.3733   24.5879  -32.2805 H   0  0  0  0  0  0  0  0  0  0  0  0
   -6.6427   25.4590  -29.1132 H   0  0  0  0  0  0  0  0  0  0  0  0
   -5.5428   24.0458  -29.0307 H   0  0  0  0  0  0  0  0  0  0  0  0
   -5.5256   25.0138  -31.7440 H   0  0  0  0  0  0  0  0  0  0  0  0
   -5.3084   26.4286  -30.6432 H   0  0  0  0  0  0  0  0  0  0  0  0
   -3.2112   25.1813  -27.8812 H   0  0  0  0  0  0  0  0  0  0  0  0
   -2.4342   23.3064  -26.4334 H   0  0  0  0  0  0  0  0  0  0  0  0
   -2.7560   20.5790  -29.7734 H   0  0  0  0  0  0  0  0  0  0  0  0
  1  2  1  0
  2  3  1  0
  3  4  1  0
  3  5  1  0
  5  6  1  0
  6  7  1  0
  7  8  1  0
  8  9  1  0
  9 10  1  0
 10 11  1  0
 11 12  2  0
 12 13  1  0
 13 14  2  0
 14 15  1  0
 14 16  1  0
 16 17  2  0
 17 18  1  0
 17 11  1  0
  1 19  1  0
  1 20  1  0
  1 21  1  0
  2 22  1  0
  2 23  1  0
  3 24  1  1
  4 25  1  0
  4 26  1  0
  4 27  1  0
  5 28  1  0
  5 29  1  0
  6 30  1  0
  6 31  1  0
  8 32  1  0
  8 33  1  0
  9 34  1  0
  9 35  1  0
 12 36  1  0
 13 37  1  0
 16 38  1  0
M  CHG  1   3   1
M  END
>  <UniqueID>  (4) 
4

>  <SMILES>  (4) 
CC[N@H+](C)CCOCCOc1ccc(Br)cc1Br

>  <Energy>  (4) 
36.8509881118981

>  <Genealogy>  (4) 
CC[NH+](C)CCOCCOc1ccc(Br)cc1Br (protonated)
CC[N@H+](C)CCOCCOc1ccc(Br)cc1Br (chirality)
CC[N@H+](C)CCOCCOc1ccc(Br)cc1Br (3D coordinates assigned)
CC[N@H+](C)CCOCCOc1ccc(Br)cc1Br (optimized conformer: 36.8509881118981 kcal/mol)

>  <smiles>  (4) 
CCN(C)CCOCCOc1ccc(Br)cc1Br

>  <score_type>  (4) 
oracle

>  <origin>  (4) 
adg

>  <m_score__min__energy>  (4) 
-6.2599999999999998

>  <m_primary>  (4) 
energy

$$$$
4:0
     RDKit          3D

 91 95  0  0  0  0  0  0  0  0999 V2000
   -2.2380   16.6740  -35.3000 C   0  0  0  0  0  0  0  0  0  0  0  0
   -3.7650   16.7080  -35.3620 C   0  0  0  0  0  0  0  0  0  0  0  0
   -4.3860   16.4460  -34.0440 N   0  0  0  0  0  0  0  0  0  0  0  0
   -3.3520   16.1590  -33.0340 C   0  0  0  0  0  0  0  0  0  0  0  0
   -5.4590   15.4180  -34.0470 C   0  0  0  0  0  0  0  0  0  0  0  0
   -6.8790   15.9820  -33.8390 C   0  0  0  0  0  0  0  0  0  0  0  0
   -6.8570   17.2270  -32.9450 C   0  0  0  0  0  0  0  0  0  0  0  0
   -6.1980   18.3370  -33.6340 N   0  0  0  0  0  0  0  0  0  0  0  0
   -6.0210   19.6040  -32.9850 C   0  0  0  0  0  0  0  0  0  0  0  0
   -7.1400   20.3180  -32.5220 C   0  0  0  0  0  0  0  0  0  0  0  0
   -8.4450   19.8250  -32.7360 C   0  0  0  0  0  0  0  0  0  0  0  0
   -9.5550   20.5600  -32.3240 C   0  0  0  0  0  0  0  0  0  0  0  0
   -9.3860   21.7960  -31.7110 C   0  0  0  0  0  0  0  0  0  0  0  0
   -8.1050   22.2970  -31.4800 C   0  0  0  0  0  0  0  0  0  0  0  0
   -6.9510   21.5510  -31.8420 C   0  0  0  0  0  0  0  0  0  0  0  0
   -5.6740   22.0010  -31.5600 N   0  0  0  0  0  0  0  0  0  0  0  0
   -5.4750   23.1280  -30.6160 C   0  0  0  0  0  0  0  0  0  0  0  0
   -4.5770   21.3710  -32.1220 C   0  0  0  0  0  0  0  0  0  0  0  0
   -3.2760   21.9240  -32.0330 C   0  0  0  0  0  0  0  0  0  0  0  0
   -2.1670   21.2340  -32.5130 C   0  0  0  0  0  0  0  0  0  0  0  0
   -2.3090   19.9940  -33.1290 C   0  0  0  0  0  0  0  0  0  0  0  0
   -1.1390   19.3490  -33.5640 O   0  0  0  0  0  0  0  0  0  0  0  0
    0.1010   19.9700  -33.8870 C   0  0  0  0  0  0  0  0  0  0  0  0
    1.1040   20.0750  -32.7040 C   0  0  0  0  0  0  0  0  0  0  0  0
    1.5670   18.8120  -32.0320 N   0  0  2  0  0  0  0  0  0  0  0  0
    2.6160   18.1500  -32.8570 C   0  0  0  0  0  0  0  0  0  0  0  0
    0.4390   17.8460  -31.7900 C   0  0  0  0  0  0  0  0  0  0  0  0
   -0.0750   17.8410  -30.3380 C   0  0  0  0  0  0  0  0  0  0  0  0
    0.9890   17.4630  -29.3550 N   0  0  2  0  0  0  0  0  0  0  0  0
    1.1650   15.9840  -29.3530 C   0  0  0  0  0  0  0  0  0  0  0  0
    0.5910   17.9230  -27.9820 C   0  0  0  0  0  0  0  0  0  0  0  0
   -0.3880   19.0840  -27.9560 C   0  0  0  0  0  0  0  0  0  0  0  0
   -0.0100   20.3470  -28.4440 C   0  0  0  0  0  0  0  0  0  0  0  0
   -0.9100   21.4180  -28.3970 C   0  0  0  0  0  0  0  0  0  0  0  0
   -2.1960   21.2350  -27.8730 C   0  0  0  0  0  0  0  0  0  0  0  0
   -3.4310   22.6900  -27.8180 Br  0  0  0  0  0  0  0  0  0  0  0  0
   -2.5770   19.9880  -27.3740 C   0  0  0  0  0  0  0  0  0  0  0  0
   -1.6770   18.9180  -27.4080 C   0  0  0  0  0  0  0  0  0  0  0  0
    2.3140   18.0950  -29.7060 C   0  0  0  0  0  0  0  0  0  0  0  0
    2.1980   19.2370  -30.7360 C   0  0  0  0  0  0  0  0  0  0  0  0
   -3.5950   19.4530  -33.2920 C   0  0  0  0  0  0  0  0  0  0  0  0
   -4.7330   20.1370  -32.8070 C   0  0  0  0  0  0  0  0  0  0  0  0
   -1.9138   16.6668  -34.2489 H   0  0  0  0  0  0  0  0  0  0  0  0
   -1.8707   15.7675  -35.8032 H   0  0  0  0  0  0  0  0  0  0  0  0
   -1.8307   17.5633  -35.8032 H   0  0  0  0  0  0  0  0  0  0  0  0
   -4.0829   17.7012  -35.7118 H   0  0  0  0  0  0  0  0  0  0  0  0
   -4.0918   15.9159  -36.0518 H   0  0  0  0  0  0  0  0  0  0  0  0
   -3.7796   16.2777  -32.0275 H   0  0  0  0  0  0  0  0  0  0  0  0
   -2.9925   15.1271  -33.1603 H   0  0  0  0  0  0  0  0  0  0  0  0
   -2.5121   16.8580  -33.1603 H   0  0  0  0  0  0  0  0  0  0  0  0
   -5.4338   14.8967  -35.0153 H   0  0  0  0  0  0  0  0  0  0  0  0
   -5.2577   14.7502  -33.1964 H   0  0  0  0  0  0  0  0  0  0  0  0
   -7.3050   16.2503  -34.8170 H   0  0  0  0  0  0  0  0  0  0  0  0
   -7.4906   15.2114  -33.3470 H   0  0  0  0  0  0  0  0  0  0  0  0
   -7.8897   17.5149  -32.6988 H   0  0  0  0  0  0  0  0  0  0  0  0
   -6.2998   16.9964  -32.0250 H   0  0  0  0  0  0  0  0  0  0  0  0
   -5.6830   18.1720  -34.5270 H   0  0  0  0  0  0  0  0  0  0  0  0
   -8.5870   18.8533  -33.2317 H   0  0  0  0  0  0  0  0  0  0  0  0
  -10.5675   20.1610  -32.4843 H   0  0  0  0  0  0  0  0  0  0  0  0
  -10.2662   22.3814  -31.4068 H   0  0  0  0  0  0  0  0  0  0  0  0
   -7.9862   23.2846  -31.0104 H   0  0  0  0  0  0  0  0  0  0  0  0
   -5.5406   22.7567  -29.5826 H   0  0  0  0  0  0  0  0  0  0  0  0
   -4.4840   23.5753  -30.7827 H   0  0  0  0  0  0  0  0  0  0  0  0
   -6.2529   23.8877  -30.7827 H   0  0  0  0  0  0  0  0  0  0  0  0
   -3.1400   22.9156  -31.5767 H   0  0  0  0  0  0  0  0  0  0  0  0
   -1.1649   21.6744  -32.4042 H   0  0  0  0  0  0  0  0  0  0  0  0
    0.5773   19.3869  -34.6890 H   0  0  0  0  0  0  0  0  0  0  0  0
   -0.1371   21.0020  -34.1842 H   0  0  0  0  0  0  0  0  0  0  0  0
    2.0006   20.5859  -33.0849 H   0  0  0  0  0  0  0  0  0  0  0  0
    0.5374   20.6003  -31.9210 H   0  0  0  0  0  0  0  0  0  0  0  0
    3.3599   17.6805  -32.1965 H   0  0  0  0  0  0  0  0  0  0  0  0
    2.1520   17.3808  -33.4918 H   0  0  0  0  0  0  0  0  0  0  0  0
    3.1107   18.8999  -33.4918 H   0  0  0  0  0  0  0  0  0  0  0  0
    0.7907   16.8334  -32.0368 H   0  0  0  0  0  0  0  0  0  0  0  0
   -0.3995   18.1672  -32.4254 H   0  0  0  0  0  0  0  0  0  0  0  0
   -0.9012   17.1192  -30.2587 H   0  0  0  0  0  0  0  0  0  0  0  0
   -0.4057   18.8620  -30.0968 H   0  0  0  0  0  0  0  0  0  0  0  0
    1.2082   15.6213  -28.3154 H   0  0  0  0  0  0  0  0  0  0  0  0
    0.3166   15.5131  -29.8711 H   0  0  0  0  0  0  0  0  0  0  0  0
    2.1003   15.7253  -29.8711 H   0  0  0  0  0  0  0  0  0  0  0  0
    0.1282   17.0739  -27.4578 H   0  0  0  0  0  0  0  0  0  0  0  0
    1.5108   18.2838  -27.4985 H   0  0  0  0  0  0  0  0  0  0  0  0
    0.9960   20.4940  -28.8640 H   0  0  0  0  0  0  0  0  0  0  0  0
   -0.6064   22.4063  -28.7727 H   0  0  0  0  0  0  0  0  0  0  0  0
   -3.5841   19.8472  -26.9545 H   0  0  0  0  0  0  0  0  0  0  0  0
   -1.9767   17.9396  -27.0043 H   0  0  0  0  0  0  0  0  0  0  0  0
    2.9715   17.3171  -30.1214 H   0  0  0  0  0  0  0  0  0  0  0  0
    2.7181   18.5333  -28.7815 H   0  0  0  0  0  0  0  0  0  0  0  0
    3.2077   19.6183  -30.9486 H   0  0  0  0  0  0  0  0  0  0  0  0
    1.5466   20.0060  -30.2952 H   0  0  0  0  0  0  0  0  0  0  0  0
   -3.7179   18.4865  -33.8026 H   0  0  0  0  0  0  0  0  0  0  0  0
  1  2  1  0
  2  3  1  0
  3  4  1  0
  3  5  1  0
  5  6  1  0
  6  7  1  0
  7  8  1  0
  8  9  1  0
  9 10  2  0
 10 11  1  0
 11 12  2  0
 12 13  1  0
 13 14  2  0
 14 15  1  0
 15 16  2  0
 16 17  1  0
 16 18  1  0
 18 19  2  0
 19 20  1  0
 20 21  2  0
 21 22  1  0
 22 23  1  0
 23 24  1  0
 25 24  1  6
 25 26  1  0
 25 27  1  0
 27 28  1  0
 28 29  1  0
 29 30  1  1
 29 31  1  0
 31 32  1  0
 32 33  2  0
 33 34  1  0
 34 35  2  0
 35 36  1  0
 35 37  1  0
 37 38  2  0
 29 39  1  0
 39 40  1  0
 21 41  1  0
 41 42  2  0
 42  9  1  0
 15 10  1  0
 42 18  1  0
 40 25  1  0
 38 32  1  0
  1 43  1  0
  1 44  1  0
  1 45  1  0
  2 46  1  0
  2 47  1  0
  4 48  1  0
  4 49  1  0
  4 50  1  0
  5 51  1  0
  5 52  1  0
  6 53  1  0
  6 54  1  0
  7 55  1  0
  7 56  1  0
  8 57  1  0
 11 58  1  0
 12 59  1  0
 13 60  1  0
 14 61  1  0
 17 62  1  0
 17 63  1  0
 17 64  1  0
 19 65  1  0
 20 66  1  0
 23 67  1  0
 23 68  1  0
 24 69  1  0
 24 70  1  0
 26 71  1  0
 26 72  1  0
 26 73  1  0
 27 74  1  0
 27 75  1  0
 28 76  1  0
 28 77  1  0
 30 78  1  0
 30 79  1  0
 30 80  1  0
 31 81  1  0
 31 82  1  0
 33 83  1  0
 34 84  1  0
 37 85  1  0
 38 86  1  0
 39 87  1  0
 39 88  1  0
 40 89  1  0
 40 90  1  0
 41 91  1  0
M  CHG  3  16   1  25   1  29   1
M  END
>  <UniqueID>  (5) 
5

>  <SMILES>  (5) 
CCN(C)CCCNc1c2ccccc2[n+](C)c2ccc(OCC[N+]3(C)CC[N+](C)(Cc4ccc(Br)cc4)CC3)cc12

>  <Energy>  (5) 
157.55192157734407

>  <Genealogy>  (5) 
CCN(C)CCCNc1c2ccccc2[n+](C)c2ccc(OCC[N+]3(C)CC[N+](C)(Cc4ccc(Br)cc4)CC3)cc12 (3D coordinates assigned)
CCN(C)CCCNc1c2ccccc2[n+](C)c2ccc(OCC[N+]3(C)CC[N+](C)(Cc4ccc(Br)cc4)CC3)cc12 (nonaromatic ring conformer: 157.55192157734407 kcal/mol)

>  <smiles>  (5) 
CCN(C)CCCNc1c2ccccc2[n+](C)c2ccc(OCC[N+]3(C)CC[N+](C)(Cc4ccc(Br)cc4)CC3)cc12

>  <score_type>  (5) 
oracle

>  <origin>  (5) 
adg

>  <m_score__min__energy>  (5) 
-9.0999999999999996

>  <m_primary>  (5) 
energy

$$$$
5:0
     RDKit          3D

 82 85  0  0  0  0  0  0  0  0999 V2000
   -4.4274   24.9776  -27.9601 H   0  0  0  0  0  0  0  0  0  0  0  0
   -3.8070   24.1780  -28.3910 C   0  0  0  0  0  0  0  0  0  0  0  0
   -3.3670   23.1310  -27.5810 C   0  0  0  0  0  0  0  0  0  0  0  0
   -3.6373   23.1140  -26.5149 H   0  0  0  0  0  0  0  0  0  0  0  0
   -2.5830   22.1010  -28.1170 C   0  0  0  0  0  0  0  0  0  0  0  0
   -2.1410   21.0280  -27.2700 N   0  0  0  0  0  0  0  0  0  0  0  0
   -2.7960   19.7180  -27.4000 C   0  0  0  0  0  0  0  0  0  0  0  0
   -3.8265   19.7905  -27.0220 H   0  0  0  0  0  0  0  0  0  0  0  0
   -2.7980   19.4276  -28.4610 H   0  0  0  0  0  0  0  0  0  0  0  0
   -2.0430   18.6560  -26.6020 C   0  0  0  0  0  0  0  0  0  0  0  0
   -1.8028   19.0531  -25.6047 H   0  0  0  0  0  0  0  0  0  0  0  0
   -2.6763   17.7616  -26.5072 H   0  0  0  0  0  0  0  0  0  0  0  0
   -0.4000   18.1750  -27.5130 Br  0  0  0  0  0  0  0  0  0  0  0  0
   -1.2430   21.3010  -26.1360 C   0  0  0  0  0  0  0  0  0  0  0  0
   -0.6943   20.3804  -25.8882 H   0  0  0  0  0  0  0  0  0  0  0  0
   -1.8588   21.6380  -25.2891 H   0  0  0  0  0  0  0  0  0  0  0  0
   -0.2290   22.4120  -26.4570 C   0  0  0  0  0  0  0  0  0  0  0  0
   -0.4032   22.7631  -27.4848 H   0  0  0  0  0  0  0  0  0  0  0  0
    0.7799   21.9892  -26.3412 H   0  0  0  0  0  0  0  0  0  0  0  0
   -0.3480   23.6030  -25.5040 C   0  0  0  0  0  0  0  0  0  0  0  0
   -0.3123   23.2456  -24.4643 H   0  0  0  0  0  0  0  0  0  0  0  0
    0.4851   24.2991  -25.6813 H   0  0  0  0  0  0  0  0  0  0  0  0
   -1.3023   24.1205  -25.6813 H   0  0  0  0  0  0  0  0  0  0  0  0
   -2.2380   22.1190  -29.4800 C   0  0  0  0  0  0  0  0  0  0  0  0
   -1.4720   21.0570  -29.9890 O   0  0  0  0  0  0  0  0  0  0  0  0
   -0.0650   20.8830  -29.8130 C   0  0  0  0  0  0  0  0  0  0  0  0
    0.4474   21.8237  -30.0629 H   0  0  0  0  0  0  0  0  0  0  0  0
    0.1245   20.6060  -28.7654 H   0  0  0  0  0  0  0  0  0  0  0  0
    0.4740   19.7580  -30.7230 C   0  0  0  0  0  0  0  0  0  0  0  0
    1.0366   20.2176  -31.5490 H   0  0  0  0  0  0  0  0  0  0  0  0
    1.1063   19.1105  -30.0978 H   0  0  0  0  0  0  0  0  0  0  0  0
   -0.6340   18.8690  -31.3220 C   0  0  0  0  0  0  0  0  0  0  0  0
   -0.4168   17.8207  -31.0691 H   0  0  0  0  0  0  0  0  0  0  0  0
   -1.5908   19.2054  -30.8962 H   0  0  0  0  0  0  0  0  0  0  0  0
   -0.7440   18.9910  -32.8500 C   0  0  0  0  0  0  0  0  0  0  0  0
    0.0008   18.3246  -33.3095 H   0  0  0  0  0  0  0  0  0  0  0  0
   -1.7709   18.7131  -33.1296 H   0  0  0  0  0  0  0  0  0  0  0  0
   -0.5000   20.4230  -33.3570 C   0  0  0  0  0  0  0  0  0  0  0  0
    0.0181   20.9910  -32.5703 H   0  0  0  0  0  0  0  0  0  0  0  0
    0.1042   20.3517  -34.2734 H   0  0  0  0  0  0  0  0  0  0  0  0
   -1.8040   21.1580  -33.7170 C   0  0  0  0  0  0  0  0  0  0  0  0
   -1.5966   22.2379  -33.7465 H   0  0  0  0  0  0  0  0  0  0  0  0
   -2.1345   20.7659  -34.6902 H   0  0  0  0  0  0  0  0  0  0  0  0
   -2.9530   20.9110  -32.7200 C   0  0  0  0  0  0  0  0  0  0  0  0
   -2.8484   19.9012  -32.2965 H   0  0  0  0  0  0  0  0  0  0  0  0
   -2.8952   21.6739  -31.9297 H   0  0  0  0  0  0  0  0  0  0  0  0
   -4.2580   21.0210  -33.3710 N   0  0  0  0  0  0  0  0  0  0  0  0
   -5.4170   20.4430  -33.1600 C   0  0  0  0  0  0  0  0  0  0  0  0
   -6.5220   21.0580  -32.4890 C   0  0  0  0  0  0  0  0  0  0  0  0
   -7.5750   20.2230  -32.0220 C   0  0  0  0  0  0  0  0  0  0  0  0
   -7.5980   18.9020  -32.3480 N   0  0  0  0  0  0  0  0  0  0  0  0
   -8.4010   18.3190  -32.0160 H   0  0  0  0  0  0  0  0  0  0  0  0
   -6.6440   18.3310  -33.1290 C   0  0  0  0  0  0  0  0  0  0  0  0
   -6.7500   16.9760  -33.4860 C   0  0  0  0  0  0  0  0  0  0  0  0
   -7.6149   16.3875  -33.1461 H   0  0  0  0  0  0  0  0  0  0  0  0
   -5.7650   16.3720  -34.2690 C   0  0  0  0  0  0  0  0  0  0  0  0
   -5.8572   15.3117  -34.5470 H   0  0  0  0  0  0  0  0  0  0  0  0
   -4.6640   17.1120  -34.6990 C   0  0  0  0  0  0  0  0  0  0  0  0
   -3.8906   16.6351  -35.3190 H   0  0  0  0  0  0  0  0  0  0  0  0
   -4.5410   18.4580  -34.3440 C   0  0  0  0  0  0  0  0  0  0  0  0
   -3.6636   19.0312  -34.6780 H   0  0  0  0  0  0  0  0  0  0  0  0
   -5.5340   19.0910  -33.5590 C   0  0  0  0  0  0  0  0  0  0  0  0
   -8.7430   20.7640  -31.2210 C   0  0  0  0  0  0  0  0  0  0  0  0
   -9.6532   20.6841  -31.8335 H   0  0  0  0  0  0  0  0  0  0  0  0
   -8.8099   20.1675  -30.2992 H   0  0  0  0  0  0  0  0  0  0  0  0
   -8.5660   22.2220  -30.8040 C   0  0  0  0  0  0  0  0  0  0  0  0
   -9.5293   22.6243  -30.4574 H   0  0  0  0  0  0  0  0  0  0  0  0
   -7.8296   22.2848  -29.9893 H   0  0  0  0  0  0  0  0  0  0  0  0
   -8.0770   23.0310  -31.9950 C   0  0  0  0  0  0  0  0  0  0  0  0
   -8.7613   22.8832  -32.8435 H   0  0  0  0  0  0  0  0  0  0  0  0
   -8.0490   24.0970  -31.7252 H   0  0  0  0  0  0  0  0  0  0  0  0
   -6.6720   22.5700  -32.3880 C   0  0  0  0  0  0  0  0  0  0  0  0
   -6.4252   23.0082  -33.3663 H   0  0  0  0  0  0  0  0  0  0  0  0
   -5.9925   22.9047  -31.5904 H   0  0  0  0  0  0  0  0  0  0  0  0
   -2.6690   23.1920  -30.2870 C   0  0  0  0  0  0  0  0  0  0  0  0
   -2.3806   23.2272  -31.3479 H   0  0  0  0  0  0  0  0  0  0  0  0
   -3.4660   24.2190  -29.7450 C   0  0  0  0  0  0  0  0  0  0  0  0
   -3.9390   25.2900  -30.5180 O   0  0  0  0  0  0  0  0  0  0  0  0
   -5.3100   25.6600  -30.6260 C   0  0  0  0  0  0  0  0  0  0  0  0
   -5.7389   25.7758  -29.6197 H   0  0  0  0  0  0  0  0  0  0  0  0
   -5.3910   26.6121  -31.1709 H   0  0  0  0  0  0  0  0  0  0  0  0
   -5.8590   24.8779  -31.1709 H   0  0  0  0  0  0  0  0  0  0  0  0
  1  2  1  0
  2  3  2  0
  3  4  1  0
  3  5  1  0
  5  6  1  0
  6  7  1  0
  7  8  1  0
  7  9  1  0
  7 10  1  0
 10 11  1  0
 10 12  1  0
 10 13  1  0
  6 14  1  0
 14 15  1  0
 14 16  1  0
 14 17  1  0
 17 18  1  0
 17 19  1  0
 17 20  1  0
 20 21  1  0
 20 22  1  0
 20 23  1  0
  5 24  2  0
 24 25  1  0
 25 26  1  0
 26 27  1  0
 26 28  1  0
 26 29  1  0
 29 30  1  0
 29 31  1  0
 29 32  1  0
 32 33  1  0
 32 34  1  0
 32 35  1  0
 35 36  1  0
 35 37  1  0
 35 38  1  0
 38 39  1  0
 38 40  1  0
 38 41  1  0
 41 42  1  0
 41 43  1  0
 41 44  1  0
 44 45  1  0
 44 46  1  0
 44 47  1  0
 47 48  2  0
 48 49  1  0
 49 50  2  0
 50 51  1  0
 51 52  1  0
 51 53  1  0
 53 54  2  0
 54 55  1  0
 54 56  1  0
 56 57  1  0
 56 58  2  0
 58 59  1  0
 58 60  1  0
 60 61  1  0
 60 62  2  0
 50 63  1  0
 63 64  1  0
 63 65  1  0
 63 66  1  0
 66 67  1  0
 66 68  1  0
 66 69  1  0
 69 70  1  0
 69 71  1  0
 69 72  1  0
 72 73  1  0
 72 74  1  0
 24 75  1  0
 75 76  1  0
 75 77  2  0
 77 78  1  0
 78 79  1  0
 79 80  1  0
 79 81  1  0
 79 82  1  0
 77  2  1  0
 62 48  1  0
 72 49  1  0
 62 53  1  0
M  END
>  <UniqueID>  (6) 
6

>  <SMILES>  (6) 
CCCN(CCBr)c1ccc(OC)cc1OCCCCCCC/N=c1\c2c([nH]c3ccccc13)CCCC2

>  <Energy>  (6) 
94.84210193789362

>  <Genealogy>  (6) 
CCCN(CCBr)c1ccc(OC)cc1OCCCCCCC/N=c1\c2c([nH]c3ccccc13)CCCC2 (cis-trans isomerization)
CCCN(CCBr)c1ccc(OC)cc1OCCCCCCC/N=c1\c2c([nH]c3ccccc13)CCCC2 (3D coordinates assigned)
CCCN(CCBr)c1ccc(OC)cc1OCCCCCCC/N=c1\c2c([nH]c3ccccc13)CCCC2 (nonaromatic ring conformer: 94.84210193789362 kcal/mol)

>  <smiles>  (6) 
CCCN(CCBr)c1ccc(OC)cc1OCCCCCCCN=c1c2c([nH]c3ccccc13)CCCC2

>  <score_type>  (6) 
oracle

>  <origin>  (6) 
adg

>  <m_score__min__energy>  (6) 
-10.09

>  <m_primary>  (6) 
energy

$$$$
6:0
     RDKit          3D

 69 71  0  0  0  0  0  0  0  0999 V2000
   -1.8409   22.1283  -33.0579 H   0  0  0  0  0  0  0  0  0  0  0  0
   -1.8490   21.1390  -32.5770 C   0  0  0  0  0  0  0  0  0  0  0  0
   -2.1540   21.0640  -31.1700 C   0  0  0  0  0  0  0  0  0  0  0  0
   -2.4170   20.9610  -30.0000 C   0  0  0  0  0  0  0  0  0  0  0  0
   -2.7390   20.8870  -28.5630 C   0  0  0  0  0  0  0  0  0  0  0  0
   -2.2842   21.7525  -28.0589 H   0  0  0  0  0  0  0  0  0  0  0  0
   -3.8356   20.8835  -28.4762 H   0  0  0  0  0  0  0  0  0  0  0  0
   -2.2460   19.6530  -27.9120 N   0  0  0  0  0  0  0  0  0  0  0  0
   -0.8010   19.7130  -27.6340 C   0  0  0  0  0  0  0  0  0  0  0  0
   -0.6368   19.7198  -26.5463 H   0  0  0  0  0  0  0  0  0  0  0  0
   -0.3062   18.8346  -28.0740 H   0  0  0  0  0  0  0  0  0  0  0  0
   -0.3807   20.6294  -28.0740 H   0  0  0  0  0  0  0  0  0  0  0  0
   -3.0100   19.3120  -26.6980 C   0  0  0  0  0  0  0  0  0  0  0  0
   -2.4202   19.5752  -25.8076 H   0  0  0  0  0  0  0  0  0  0  0  0
   -3.9560   19.8733  -26.6903 H   0  0  0  0  0  0  0  0  0  0  0  0
   -3.2238   18.2330  -26.6903 H   0  0  0  0  0  0  0  0  0  0  0  0
   -1.5750   20.0640  -33.3280 C   0  0  0  0  0  0  0  0  0  0  0  0
   -1.0138   20.2222  -34.2608 H   0  0  0  0  0  0  0  0  0  0  0  0
   -1.9820   18.6490  -32.9850 C   0  0  0  0  0  0  0  0  0  0  0  0
   -2.5170   18.6648  -32.0240 H   0  0  0  0  0  0  0  0  0  0  0  0
   -1.0599   18.0507  -32.9423 H   0  0  0  0  0  0  0  0  0  0  0  0
   -2.8620   18.0180  -34.0010 N   0  0  1  0  0  0  0  0  0  0  0  0
   -2.5840   18.4790  -34.8990 H   0  0  0  0  0  0  0  0  0  0  0  0
   -2.5330   16.5920  -34.1960 C   0  0  0  0  0  0  0  0  0  0  0  0
   -2.4205   16.1044  -33.2164 H   0  0  0  0  0  0  0  0  0  0  0  0
   -3.3418   16.1027  -34.7584 H   0  0  0  0  0  0  0  0  0  0  0  0
   -1.5915   16.5065  -34.7584 H   0  0  0  0  0  0  0  0  0  0  0  0
   -4.3220   18.3030  -33.7890 C   0  0  1  0  0  0  0  0  0  0  0  0
   -4.6038   18.9069  -34.6642 H   0  0  0  0  0  0  0  0  0  0  0  0
   -5.1490   16.9960  -33.7280 C   0  0  0  0  0  0  0  0  0  0  0  0
   -4.9860   16.4227  -34.6525 H   0  0  0  0  0  0  0  0  0  0  0  0
   -4.8234   16.4134  -32.8536 H   0  0  0  0  0  0  0  0  0  0  0  0
   -6.5440   17.2830  -33.5940 O   0  0  0  0  0  0  0  0  0  0  0  0
   -7.0250   18.3900  -32.8840 C   0  0  0  0  0  0  0  0  0  0  0  0
   -8.4020   18.5540  -32.7130 C   0  0  0  0  0  0  0  0  0  0  0  0
   -9.0982   17.8162  -33.1384 H   0  0  0  0  0  0  0  0  0  0  0  0
   -8.8990   19.6510  -32.0040 C   0  0  0  0  0  0  0  0  0  0  0  0
   -9.9845   19.7753  -31.8764 H   0  0  0  0  0  0  0  0  0  0  0  0
   -8.0170   20.5950  -31.4540 C   0  0  0  0  0  0  0  0  0  0  0  0
   -8.5420   21.7750  -30.6820 C   0  0  0  0  0  0  0  0  0  0  0  0
   -7.9404   21.9093  -29.7710 H   0  0  0  0  0  0  0  0  0  0  0  0
   -9.5930   21.5894  -30.4156 H   0  0  0  0  0  0  0  0  0  0  0  0
   -8.4450   23.2920  -31.6980 S   0  0  0  0  0  0  0  0  0  0  0  0
   -6.8310   23.7810  -31.0820 C   0  0  0  0  0  0  0  0  0  0  0  0
   -6.7390   24.6750  -30.0100 C   0  0  0  0  0  0  0  0  0  0  0  0
   -7.6535   25.0864  -29.5578 H   0  0  0  0  0  0  0  0  0  0  0  0
   -5.4870   25.0460  -29.5130 C   0  0  0  0  0  0  0  0  0  0  0  0
   -5.4213   25.7486  -28.6692 H   0  0  0  0  0  0  0  0  0  0  0  0
   -4.3140   24.5300  -30.0810 C   0  0  0  0  0  0  0  0  0  0  0  0
   -3.0830   24.9320  -29.5360 O   0  0  0  0  0  0  0  0  0  0  0  0
   -2.7320   24.8540  -28.1580 C   0  0  0  0  0  0  0  0  0  0  0  0
   -3.5468   24.3682  -27.6011 H   0  0  0  0  0  0  0  0  0  0  0  0
   -2.5686   25.8695  -27.7681 H   0  0  0  0  0  0  0  0  0  0  0  0
   -1.4990   24.0710  -27.9990 C   0  0  0  0  0  0  0  0  0  0  0  0
   -0.4860   23.4310  -27.8460 C   0  0  0  0  0  0  0  0  0  0  0  0
    0.7530   22.6750  -27.6480 C   0  0  0  0  0  0  0  0  0  0  0  0
    0.9435   22.5588  -26.5709 H   0  0  0  0  0  0  0  0  0  0  0  0
    0.6551   21.6826  -28.1122 H   0  0  0  0  0  0  0  0  0  0  0  0
    1.5908   23.2160  -28.1122 H   0  0  0  0  0  0  0  0  0  0  0  0
   -4.4120   23.6210  -31.1540 C   0  0  0  0  0  0  0  0  0  0  0  0
   -3.4995   23.2149  -31.6149 H   0  0  0  0  0  0  0  0  0  0  0  0
   -5.6670   23.2350  -31.6330 C   0  0  0  0  0  0  0  0  0  0  0  0
   -5.7397   22.4986  -32.4469 H   0  0  0  0  0  0  0  0  0  0  0  0
   -6.6330   20.4350  -31.6350 C   0  0  0  0  0  0  0  0  0  0  0  0
   -5.9368   21.1672  -31.2002 H   0  0  0  0  0  0  0  0  0  0  0  0
   -6.1330   19.3470  -32.3670 C   0  0  0  0  0  0  0  0  0  0  0  0
   -4.6460   19.1480  -32.5220 C   0  0  0  0  0  0  0  0  0  0  0  0
   -4.1596   20.1305  -32.6115 H   0  0  0  0  0  0  0  0  0  0  0  0
   -4.2718   18.6101  -31.6385 H   0  0  0  0  0  0  0  0  0  0  0  0
  1  2  1  0
  2  3  1  0
  3  4  3  0
  4  5  1  0
  5  6  1  0
  5  7  1  0
  5  8  1  0
  8  9  1  0
  9 10  1  0
  9 11  1  0
  9 12  1  0
  8 13  1  0
 13 14  1  0
 13 15  1  0
 13 16  1  0
  2 17  2  0
 17 18  1  0
 17 19  1  0
 19 20  1  0
 19 21  1  0
 19 22  1  0
 22 23  1  6
 22 24  1  0
 24 25  1  0
 24 26  1  0
 24 27  1  0
 22 28  1  0
 28 29  1  6
 28 30  1  0
 30 31  1  0
 30 32  1  0
 30 33  1  0
 33 34  1  0
 34 35  2  0
 35 36  1  0
 35 37  1  0
 37 38  1  0
 37 39  2  0
 39 40  1  0
 40 41  1  0
 40 42  1  0
 40 43  1  0
 43 44  1  0
 44 45  2  0
 45 46  1  0
 45 47  1  0
 47 48  1  0
 47 49  2  0
 49 50  1  0
 50 51  1  0
 51 52  1  0
 51 53  1  0
 51 54  1  0
 54 55  3  0
 55 56  1  0
 56 57  1  0
 56 58  1  0
 56 59  1  0
 49 60  1  0
 60 61  1  0
 60 62  2  0
 62 63  1  0
 39 64  1  0
 64 65  1  0
 64 66  2  0
 66 67  1  0
 67 68  1  0
 67 69  1  0
 67 28  1  0
 66 34  1  0
 62 44  1  0
M  CHG  1  22   1
M  END
>  <UniqueID>  (7) 
7

>  <SMILES>  (7) 
CC#CCOc1ccc(SCc2ccc3c(c2)C[C@@H]([N@H+](C)C/C=C\C#CCN(C)C)CO3)cc1

>  <Energy>  (7) 
66.94109425500116

>  <Genealogy>  (7) 
CC#CCOc1ccc(SCc2ccc3c(c2)CC([NH+](C)CC=CC#CCN(C)C)CO3)cc1 (protonated)
CC#CCOc1ccc(SCc2ccc3c(c2)C[C@@H]([N@H+](C)CC=CC#CCN(C)C)CO3)cc1 (chirality)
CC#CCOc1ccc(SCc2ccc3c(c2)C[C@@H]([N@H+](C)C/C=C\C#CCN(C)C)CO3)cc1 (cis-trans isomerization)
CC#CCOc1ccc(SCc2ccc3c(c2)C[C@@H]([N@H+](C)C/C=C\C#CCN(C)C)CO3)cc1 (3D coordinates assigned)
CC#CCOc1ccc(SCc2ccc3c(c2)C[C@@H]([N@H+](C)C/C=C\C#CCN(C)C)CO3)cc1 (nonaromatic ring conformer: 66.94109425500116 kcal/mol)

>  <smiles>  (7) 
CC#CCOc1ccc(SCc2ccc3c(c2)CC(N(C)CC=CC#CCN(C)C)CO3)cc1

>  <score_type>  (7) 
oracle

>  <origin>  (7) 
adg

>  <m_score__min__energy>  (7) 
-8.5800000000000001

>  <m_primary>  (7) 
energy

$$$$
7:0
     RDKit          3D

 65 68  0  0  0  0  0  0  0  0999 V2000
   -3.5290   18.5510  -25.9590 C   0  0  0  0  0  0  0  0  0  0  0  0
   -2.3510   19.1250  -26.7390 C   0  0  0  0  0  0  0  0  0  0  0  0
   -2.8010   19.6880  -27.9560 O   0  0  0  0  0  0  0  0  0  0  0  0
   -2.7360   21.1010  -27.9060 C   0  0  0  0  0  0  0  0  0  0  0  0
   -1.8370   21.6110  -29.0290 C   0  0  0  0  0  0  0  0  0  0  0  0
   -1.9700   20.7900  -30.1750 O   0  0  0  0  0  0  0  0  0  0  0  0
   -0.7240   20.2330  -30.5400 C   0  0  0  0  0  0  0  0  0  0  0  0
   -0.2560   20.8490  -31.8520 C   0  0  0  0  0  0  0  0  0  0  0  0
   -1.3120   21.5890  -32.4270 O   0  0  0  0  0  0  0  0  0  0  0  0
   -1.7400   20.9540  -33.6150 C   0  0  0  0  0  0  0  0  0  0  0  0
   -3.2220   20.5920  -33.5000 C   0  0  0  0  0  0  0  0  0  0  0  0
   -3.6580   20.5690  -32.0930 N   0  0  0  0  0  0  0  0  0  0  0  0
   -5.1010   20.4960  -32.0060 C   0  0  0  0  0  0  0  0  0  0  0  0
   -5.8210   19.3220  -32.3740 C   0  0  0  0  0  0  0  0  0  0  0  0
   -5.1530   18.1120  -32.6790 C   0  0  0  0  0  0  0  0  0  0  0  0
   -5.8650   16.9650  -33.0180 C   0  0  0  0  0  0  0  0  0  0  0  0
   -7.2520   16.9840  -33.0480 C   0  0  0  0  0  0  0  0  0  0  0  0
   -7.9450   18.1530  -32.7460 C   0  0  0  0  0  0  0  0  0  0  0  0
   -7.2580   19.3490  -32.4180 C   0  0  0  0  0  0  0  0  0  0  0  0
   -7.9470   20.5120  -32.1220 N   0  0  0  0  0  0  0  0  0  0  0  0
   -9.4080   20.6100  -32.3040 C   0  0  0  0  0  0  0  0  0  0  0  0
   -7.2450   21.5770  -31.6290 C   0  0  0  0  0  0  0  0  0  0  0  0
   -7.7800   22.7250  -31.1490 N   0  0  0  0  0  0  0  0  0  0  0  0
   -6.7310   23.4770  -30.7740 C   0  0  0  0  0  0  0  0  0  0  0  0
   -6.7930   24.7380  -30.1860 C   0  0  0  0  0  0  0  0  0  0  0  0
   -5.5910   25.3580  -29.8160 C   0  0  0  0  0  0  0  0  0  0  0  0
   -4.3490   24.7030  -30.0220 C   0  0  0  0  0  0  0  0  0  0  0  0
   -3.1280   25.2910  -29.6580 O   0  0  0  0  0  0  0  0  0  0  0  0
   -2.3590   24.9110  -28.5220 C   0  0  0  0  0  0  0  0  0  0  0  0
   -4.3210   23.4240  -30.6090 C   0  0  0  0  0  0  0  0  0  0  0  0
   -5.5320   22.8310  -30.9990 C   0  0  0  0  0  0  0  0  0  0  0  0
   -5.8620   21.5940  -31.5590 C   0  0  0  0  0  0  0  0  0  0  0  0
   -3.3354   18.6453  -24.8803 H   0  0  0  0  0  0  0  0  0  0  0  0
   -4.4441   19.1042  -26.2170 H   0  0  0  0  0  0  0  0  0  0  0  0
   -3.6573   17.4894  -26.2170 H   0  0  0  0  0  0  0  0  0  0  0  0
   -1.8613   19.9045  -26.1368 H   0  0  0  0  0  0  0  0  0  0  0  0
   -1.6372   18.3174  -26.9585 H   0  0  0  0  0  0  0  0  0  0  0  0
   -3.7464   21.5187  -28.0273 H   0  0  0  0  0  0  0  0  0  0  0  0
   -2.3228   21.4141  -26.9358 H   0  0  0  0  0  0  0  0  0  0  0  0
   -2.1250   22.6413  -29.2851 H   0  0  0  0  0  0  0  0  0  0  0  0
   -0.7909   21.5859  -28.6898 H   0  0  0  0  0  0  0  0  0  0  0  0
    0.0154   20.4417  -29.7528 H   0  0  0  0  0  0  0  0  0  0  0  0
   -0.8313   19.1453  -30.6639 H   0  0  0  0  0  0  0  0  0  0  0  0
    0.5974   21.5161  -31.6602 H   0  0  0  0  0  0  0  0  0  0  0  0
    0.0513   20.0504  -32.5432 H   0  0  0  0  0  0  0  0  0  0  0  0
   -1.5948   21.6350  -34.4665 H   0  0  0  0  0  0  0  0  0  0  0  0
   -1.1518   20.0376  -33.7710 H   0  0  0  0  0  0  0  0  0  0  0  0
   -3.8169   21.3378  -34.0477 H   0  0  0  0  0  0  0  0  0  0  0  0
   -3.3692   19.5887  -33.9263 H   0  0  0  0  0  0  0  0  0  0  0  0
   -3.2980   21.4090  -31.5890 H   0  0  0  0  0  0  0  0  0  0  0  0
   -3.2360   19.7660  -31.5770 H   0  0  0  0  0  0  0  0  0  0  0  0
   -4.0540   18.0775  -32.6476 H   0  0  0  0  0  0  0  0  0  0  0  0
   -5.3251   16.0385  -33.2634 H   0  0  0  0  0  0  0  0  0  0  0  0
   -7.8065   16.0713  -33.3116 H   0  0  0  0  0  0  0  0  0  0  0  0
   -9.0449   18.1487  -32.7621 H   0  0  0  0  0  0  0  0  0  0  0  0
   -9.8987   20.6429  -31.3201 H   0  0  0  0  0  0  0  0  0  0  0  0
   -9.6471   21.5262  -32.8638 H   0  0  0  0  0  0  0  0  0  0  0  0
   -9.7673   19.7339  -32.8638 H   0  0  0  0  0  0  0  0  0  0  0  0
   -8.7840   22.9830  -31.0330 H   0  0  0  0  0  0  0  0  0  0  0  0
   -7.7597   25.2346  -30.0163 H   0  0  0  0  0  0  0  0  0  0  0  0
   -5.6109   26.3600  -29.3625 H   0  0  0  0  0  0  0  0  0  0  0  0
   -2.9029   25.1798  -27.6044 H   0  0  0  0  0  0  0  0  0  0  0  0
   -2.1878   23.8246  -28.5418 H   0  0  0  0  0  0  0  0  0  0  0  0
   -1.3920   25.4350  -28.5418 H   0  0  0  0  0  0  0  0  0  0  0  0
   -3.3666   22.8982  -30.7595 H   0  0  0  0  0  0  0  0  0  0  0  0
  1  2  1  0
  2  3  1  0
  3  4  1  0
  4  5  1  0
  5  6  1  0
  6  7  1  0
  7  8  1  0
  8  9  1  0
  9 10  1  0
 10 11  1  0
 11 12  1  0
 12 13  1  0
 13 14  2  0
 14 15  1  0
 15 16  2  0
 16 17  1  0
 17 18  2  0
 18 19  1  0
 19 20  2  0
 20 21  1  0
 20 22  1  0
 22 23  1  0
 23 24  1  0
 24 25  2  0
 25 26  1  0
 26 27  2  0
 27 28  1  0
 28 29  1  0
 27 30  1  0
 30 31  2  0
 31 32  1  0
 32 13  1  0
 19 14  1  0
 32 22  2  0
 31 24  1  0
  1 33  1  0
  1 34  1  0
  1 35  1  0
  2 36  1  0
  2 37  1  0
  4 38  1  0
  4 39  1  0
  5 40  1  0
  5 41  1  0
  7 42  1  0
  7 43  1  0
  8 44  1  0
  8 45  1  0
 10 46  1  0
 10 47  1  0
 11 48  1  0
 11 49  1  0
 12 50  1  0
 12 51  1  0
 15 52  1  0
 16 53  1  0
 17 54  1  0
 18 55  1  0
 21 56  1  0
 21 57  1  0
 21 58  1  0
 23 59  1  0
 25 60  1  0
 26 61  1  0
 29 62  1  0
 29 63  1  0
 29 64  1  0
 30 65  1  0
M  CHG  2  12   1  20   1
M  END
>  <UniqueID>  (8) 
8

>  <SMILES>  (8) 
CCOCCOCCOCC[NH2+]c1c2ccccc2[n+](C)c2[nH]c3ccc(OC)cc3c12

>  <Energy>  (8) 
119.67951078351211

>  <Genealogy>  (8) 
CCOCCOCCOCC[NH2+]c1c2ccccc2[n+](C)c2[nH]c3ccc(OC)cc3c12 (protonated)
CCOCCOCCOCC[NH2+]c1c2ccccc2[n+](C)c2[nH]c3ccc(OC)cc3c12 (3D coordinates assigned)
CCOCCOCCOCC[NH2+]c1c2ccccc2[n+](C)c2[nH]c3ccc(OC)cc3c12 (optimized conformer: 119.67951078351211 kcal/mol)

>  <smiles>  (8) 
CCOCCOCCOCCNc1c2ccccc2[n+](C)c2[nH]c3ccc(OC)cc3c12

>  <score_type>  (8) 
oracle

>  <origin>  (8) 
adg

>  <m_score__min__energy>  (8) 
-8.7400000000000002

>  <m_primary>  (8) 
energy

$$$$
8:0
     RDKit          3D

 36 37  0  0  0  0  0  0  0  0999 V2000
   -9.0960   18.5630  -31.5920 C   0  0  0  0  0  0  0  0  0  0  0  0
   -8.3320   19.8410  -31.7710 C   0  0  0  0  0  0  0  0  0  0  0  0
   -7.1310   19.8530  -32.4980 C   0  0  0  0  0  0  0  0  0  0  0  0
   -6.4370   21.0510  -32.6940 C   0  0  0  0  0  0  0  0  0  0  0  0
   -6.9430   22.2470  -32.1740 C   0  0  0  0  0  0  0  0  0  0  0  0
   -6.0530   23.7850  -32.4220 S   0  0  0  0  0  0  0  0  0  0  0  0
   -6.2040   24.2930  -30.6790 C   0  0  0  0  0  0  0  0  0  0  0  0
   -5.2650   25.4310  -30.4080 C   0  0  0  0  0  0  0  0  0  0  0  0
   -5.7400   26.5540  -30.0980 O   0  0  0  0  0  0  0  0  0  0  0  0
   -3.8400   25.2630  -30.4280 N   0  0  0  0  0  0  0  0  0  0  0  0
   -3.1280   24.0290  -30.1080 C   0  0  0  0  0  0  0  0  0  0  0  0
   -2.0310   24.2930  -29.0690 C   0  0  2  0  0  0  0  0  0  0  0  0
   -2.5710   24.2120  -27.6510 C   0  0  0  0  0  0  0  0  0  0  0  0
   -1.6940   25.1750  -26.9160 C   0  0  0  0  0  0  0  0  0  0  0  0
   -1.2770   26.1550  -27.9960 C   0  0  0  0  0  0  0  0  0  0  0  0
   -1.4760   25.5750  -29.2670 O   0  0  0  0  0  0  0  0  0  0  0  0
   -8.1510   22.2450  -31.4650 C   0  0  0  0  0  0  0  0  0  0  0  0
   -8.8450   21.0470  -31.2680 C   0  0  0  0  0  0  0  0  0  0  0  0
   -9.2193   18.3568  -30.5186 H   0  0  0  0  0  0  0  0  0  0  0  0
  -10.0855   18.6583  -32.0631 H   0  0  0  0  0  0  0  0  0  0  0  0
   -8.5437   17.7366  -32.0631 H   0  0  0  0  0  0  0  0  0  0  0  0
   -6.7342   18.9158  -32.9153 H   0  0  0  0  0  0  0  0  0  0  0  0
   -5.4923   21.0530  -33.2576 H   0  0  0  0  0  0  0  0  0  0  0  0
   -7.2369   24.6139  -30.4785 H   0  0  0  0  0  0  0  0  0  0  0  0
   -5.9510   23.4447  -30.0260 H   0  0  0  0  0  0  0  0  0  0  0  0
   -3.8404   23.2951  -29.7031 H   0  0  0  0  0  0  0  0  0  0  0  0
   -2.6617   23.6404  -31.0253 H   0  0  0  0  0  0  0  0  0  0  0  0
   -1.2621   23.5174  -29.2001 H   0  0  0  0  0  0  0  0  0  0  0  0
   -3.6254   24.5224  -27.6087 H   0  0  0  0  0  0  0  0  0  0  0  0
   -2.5536   23.1950  -27.2322 H   0  0  0  0  0  0  0  0  0  0  0  0
   -2.2506   25.6836  -26.1150 H   0  0  0  0  0  0  0  0  0  0  0  0
   -0.8405   24.6900  -26.4197 H   0  0  0  0  0  0  0  0  0  0  0  0
   -1.8819   27.0700  -27.9128 H   0  0  0  0  0  0  0  0  0  0  0  0
   -0.2126   26.4033  -27.8714 H   0  0  0  0  0  0  0  0  0  0  0  0
   -8.5540   23.1863  -31.0630 H   0  0  0  0  0  0  0  0  0  0  0  0
   -9.7968   21.0497  -30.7166 H   0  0  0  0  0  0  0  0  0  0  0  0
  1  2  1  0
  2  3  2  0
  3  4  1  0
  4  5  2  0
  5  6  1  0
  6  7  1  0
  7  8  1  0
  8  9  2  0
  8 10  1  0
 10 11  1  0
 11 12  1  0
 12 13  1  0
 13 14  1  0
 14 15  1  0
 15 16  1  0
  5 17  1  0
 17 18  2  0
 18  2  1  0
 16 12  1  0
  1 19  1  0
  1 20  1  0
  1 21  1  0
  3 22  1  0
  4 23  1  0
  7 24  1  0
  7 25  1  0
 11 26  1  0
 11 27  1  0
 12 28  1  1
 13 29  1  0
 13 30  1  0
 14 31  1  0
 14 32  1  0
 15 33  1  0
 15 34  1  0
 17 35  1  0
 18 36  1  0
M  CHG  1  10  -1
M  END
>  <UniqueID>  (9) 
9

>  <SMILES>  (9) 
Cc1ccc(SCC(=O)[N-]C[C@@H]2CCCO2)cc1

>  <Energy>  (9) 
25.459963421801007

>  <Genealogy>  (9) 
Cc1ccc(SCC(=O)[N-]CC2CCCO2)cc1 (protonated)
Cc1ccc(SCC(=O)[N-]C[C@@H]2CCCO2)cc1 (chirality)
Cc1ccc(SCC(=O)[N-]C[C@@H]2CCCO2)cc1 (3D coordinates assigned)
Cc1ccc(SCC(=O)[N-]C[C@@H]2CCCO2)cc1 (nonaromatic ring conformer: 25.459963421801007 kcal/mol)

>  <smiles>  (9) 
Cc1ccc(SCC(=O)NCC2CCCO2)cc1

>  <score_type>  (9) 
oracle

>  <origin>  (9) 
adg

>  <m_score__min__energy>  (9) 
-9.8300000000000001

>  <m_primary>  (9) 
energy

$$$$
9:0
     RDKit          3D

 41 42  0  0  0  0  0  0  0  0999 V2000
   -2.2900   21.4940  -33.0940 C   0  0  0  0  0  0  0  0  0  0  0  0
   -2.6640   21.5520  -31.6170 C   0  0  0  0  0  0  0  0  0  0  0  0
   -3.3380   22.7630  -31.3300 O   0  0  0  0  0  0  0  0  0  0  0  0
   -3.3590   22.9990  -29.9370 C   0  0  0  0  0  0  0  0  0  0  0  0
   -4.0720   24.3210  -29.6570 C   0  0  0  0  0  0  0  0  0  0  0  0
   -4.6260   24.8480  -30.8480 O   0  0  0  0  0  0  0  0  0  0  0  0
   -6.0210   25.0240  -30.7130 C   0  0  0  0  0  0  0  0  0  0  0  0
   -6.7410   23.8620  -31.4080 C   0  0  0  0  0  0  0  0  0  0  0  0
   -5.8340   23.0680  -32.2560 N   0  0  0  0  0  0  0  0  0  0  0  0
   -6.2620   21.6910  -32.3490 C   0  0  0  0  0  0  0  0  0  0  0  0
   -7.4020   21.2550  -31.6520 C   0  0  0  0  0  0  0  0  0  0  0  0
   -7.8360   19.9320  -31.7540 C   0  0  0  0  0  0  0  0  0  0  0  0
   -7.1370   19.0220  -32.5590 C   0  0  0  0  0  0  0  0  0  0  0  0
   -7.5670   17.6890  -32.6710 C   0  0  0  0  0  0  0  0  0  0  0  0
   -6.8630   16.7910  -33.4800 C   0  0  0  0  0  0  0  0  0  0  0  0
   -5.7300   17.2140  -34.1800 C   0  0  0  0  0  0  0  0  0  0  0  0
   -5.2920   18.5370  -34.0760 C   0  0  0  0  0  0  0  0  0  0  0  0
   -5.9880   19.4490  -33.2670 C   0  0  0  0  0  0  0  0  0  0  0  0
   -5.5590   20.7800  -33.1570 C   0  0  0  0  0  0  0  0  0  0  0  0
   -1.2073   21.3261  -33.1918 H   0  0  0  0  0  0  0  0  0  0  0  0
   -2.8341   20.6695  -33.5779 H   0  0  0  0  0  0  0  0  0  0  0  0
   -2.5588   22.4446  -33.5779 H   0  0  0  0  0  0  0  0  0  0  0  0
   -3.3218   20.7041  -31.3753 H   0  0  0  0  0  0  0  0  0  0  0  0
   -1.7465   21.5002  -31.0124 H   0  0  0  0  0  0  0  0  0  0  0  0
   -3.8938   22.1799  -29.4340 H   0  0  0  0  0  0  0  0  0  0  0  0
   -2.3278   23.0501  -29.5574 H   0  0  0  0  0  0  0  0  0  0  0  0
   -4.8776   24.1503  -28.9278 H   0  0  0  0  0  0  0  0  0  0  0  0
   -3.3428   25.0401  -29.2555 H   0  0  0  0  0  0  0  0  0  0  0  0
   -6.2892   25.0388  -29.6463 H   0  0  0  0  0  0  0  0  0  0  0  0
   -6.3216   25.9763  -31.1743 H   0  0  0  0  0  0  0  0  0  0  0  0
   -7.1735   23.2040  -30.6399 H   0  0  0  0  0  0  0  0  0  0  0  0
   -7.5200   24.2890  -32.0567 H   0  0  0  0  0  0  0  0  0  0  0  0
   -5.7620   23.5010  -33.2070 H   0  0  0  0  0  0  0  0  0  0  0  0
   -4.8760   23.0960  -31.8360 H   0  0  0  0  0  0  0  0  0  0  0  0
   -7.9578   21.9632  -31.0199 H   0  0  0  0  0  0  0  0  0  0  0  0
   -8.7284   19.6030  -31.2014 H   0  0  0  0  0  0  0  0  0  0  0  0
   -8.4583   17.3513  -32.1219 H   0  0  0  0  0  0  0  0  0  0  0  0
   -7.2024   15.7482  -33.5655 H   0  0  0  0  0  0  0  0  0  0  0  0
   -5.1810   16.5032  -34.8151 H   0  0  0  0  0  0  0  0  0  0  0  0
   -4.3996   18.8646  -34.6295 H   0  0  0  0  0  0  0  0  0  0  0  0
   -4.6664   21.1134  -33.7067 H   0  0  0  0  0  0  0  0  0  0  0  0
  1  2  1  0
  2  3  1  0
  3  4  1  0
  4  5  1  0
  5  6  1  0
  6  7  1  0
  7  8  1  0
  8  9  1  0
  9 10  1  0
 10 11  2  0
 11 12  1  0
 12 13  2  0
 13 14  1  0
 14 15  2  0
 15 16  1  0
 16 17  2  0
 17 18  1  0
 18 19  2  0
 19 10  1  0
 18 13  1  0
  1 20  1  0
  1 21  1  0
  1 22  1  0
  2 23  1  0
  2 24  1  0
  4 25  1  0
  4 26  1  0
  5 27  1  0
  5 28  1  0
  7 29  1  0
  7 30  1  0
  8 31  1  0
  8 32  1  0
  9 33  1  0
  9 34  1  0
 11 35  1  0
 12 36  1  0
 14 37  1  0
 15 38  1  0
 16 39  1  0
 17 40  1  0
 19 41  1  0
M  CHG  1   9   1
M  END
>  <UniqueID>  (10) 
10

>  <SMILES>  (10) 
CCOCCOCC[NH2+]c1ccc2ccccc2c1

>  <Energy>  (10) 
42.45284692846607

>  <Genealogy>  (10) 
CCOCCOCC[NH2+]c1ccc2ccccc2c1 (protonated)
CCOCCOCC[NH2+]c1ccc2ccccc2c1 (3D coordinates assigned)
CCOCCOCC[NH2+]c1ccc2ccccc2c1 (optimized conformer: 42.45284692846607 kcal/mol)

>  <smiles>  (10) 
CCOCCOCCNc1ccc2ccccc2c1

>  <score_type>  (10) 
oracle

>  <origin>  (10) 
adg

>  <m_score__min__energy>  (10) 
-6.1900000000000004

>  <m_primary>  (10) 
energy

$$$$
10:0
     RDKit          3D

 57 59  0  0  0  0  0  0  0  0999 V2000
   -2.4350   20.5350  -28.3590 C   0  0  0  0  0  0  0  0  0  0  0  0
   -2.9970   20.6650  -29.7660 C   0  0  0  0  0  0  0  0  0  0  0  0
   -3.6970   21.8850  -29.8710 O   0  0  0  0  0  0  0  0  0  0  0  0
   -3.1040   22.8460  -29.0240 C   0  0  0  0  0  0  0  0  0  0  0  0
   -2.9990   24.1730  -29.7630 C   0  0  0  0  0  0  0  0  0  0  0  0
   -4.2160   24.4360  -30.4280 O   0  0  0  0  0  0  0  0  0  0  0  0
   -5.2310   24.6770  -29.4780 C   0  0  0  0  0  0  0  0  0  0  0  0
   -6.5300   25.0400  -30.1960 C   0  0  0  0  0  0  0  0  0  0  0  0
   -7.1910   23.8730  -30.6490 O   0  0  0  0  0  0  0  0  0  0  0  0
   -7.3000   23.7980  -32.0600 C   0  0  0  0  0  0  0  0  0  0  0  0
   -5.9590   23.3990  -32.6960 C   0  0  0  0  0  0  0  0  0  0  0  0
   -5.1780   22.4510  -31.8740 N   0  0  0  0  0  0  0  0  0  0  0  0
   -5.2970   21.0780  -32.3570 C   0  0  0  0  0  0  0  0  0  0  0  0
   -6.5130   20.3600  -32.1640 C   0  0  0  0  0  0  0  0  0  0  0  0
   -7.5940   20.9060  -31.4240 C   0  0  0  0  0  0  0  0  0  0  0  0
   -8.7640   20.1820  -31.2130 C   0  0  0  0  0  0  0  0  0  0  0  0
   -8.8870   18.8960  -31.7150 C   0  0  0  0  0  0  0  0  0  0  0  0
   -7.8510   18.3360  -32.4540 C   0  0  0  0  0  0  0  0  0  0  0  0
   -6.6620   19.0630  -32.7270 C   0  0  0  0  0  0  0  0  0  0  0  0
   -5.6680   18.5290  -33.5170 N   0  0  0  0  0  0  0  0  0  0  0  0
   -5.9570   17.3570  -34.3760 C   0  0  0  0  0  0  0  0  0  0  0  0
   -4.4160   19.1060  -33.5380 C   0  0  0  0  0  0  0  0  0  0  0  0
   -3.3060   18.4110  -34.0820 C   0  0  0  0  0  0  0  0  0  0  0  0
   -2.0590   19.0130  -34.1890 C   0  0  0  0  0  0  0  0  0  0  0  0
   -1.8780   20.3160  -33.7560 C   0  0  0  0  0  0  0  0  0  0  0  0
   -0.1690   21.1520  -33.9460 Br  0  0  0  0  0  0  0  0  0  0  0  0
   -2.9340   21.0110  -33.1700 C   0  0  0  0  0  0  0  0  0  0  0  0
   -4.2140   20.4150  -33.0100 C   0  0  0  0  0  0  0  0  0  0  0  0
   -3.2344   20.7199  -27.6263 H   0  0  0  0  0  0  0  0  0  0  0  0
   -2.0345   19.5205  -28.2164 H   0  0  0  0  0  0  0  0  0  0  0  0
   -1.6296   21.2706  -28.2164 H   0  0  0  0  0  0  0  0  0  0  0  0
   -2.1733   20.6487  -30.4949 H   0  0  0  0  0  0  0  0  0  0  0  0
   -3.6789   19.8268  -29.9723 H   0  0  0  0  0  0  0  0  0  0  0  0
   -3.7235   22.9747  -28.1242 H   0  0  0  0  0  0  0  0  0  0  0  0
   -2.0994   22.5078  -28.7302 H   0  0  0  0  0  0  0  0  0  0  0  0
   -2.7923   24.9787  -29.0432 H   0  0  0  0  0  0  0  0  0  0  0  0
   -2.1821   24.1211  -30.4978 H   0  0  0  0  0  0  0  0  0  0  0  0
   -5.3880   23.7721  -28.8726 H   0  0  0  0  0  0  0  0  0  0  0  0
   -4.9298   25.5095  -28.8251 H   0  0  0  0  0  0  0  0  0  0  0  0
   -7.1883   25.5817  -29.5008 H   0  0  0  0  0  0  0  0  0  0  0  0
   -6.2911   25.6722  -31.0639 H   0  0  0  0  0  0  0  0  0  0  0  0
   -8.0600   23.0474  -32.3226 H   0  0  0  0  0  0  0  0  0  0  0  0
   -7.5880   24.7884  -32.4422 H   0  0  0  0  0  0  0  0  0  0  0  0
   -6.1611   22.9309  -33.6707 H   0  0  0  0  0  0  0  0  0  0  0  0
   -5.3594   24.3163  -32.7913 H   0  0  0  0  0  0  0  0  0  0  0  0
   -4.2020   22.7920  -31.7810 H   0  0  0  0  0  0  0  0  0  0  0  0
   -5.5100   22.4970  -30.8850 H   0  0  0  0  0  0  0  0  0  0  0  0
   -7.5055   21.9209  -31.0092 H   0  0  0  0  0  0  0  0  0  0  0  0
   -9.5929   20.6315  -30.6465 H   0  0  0  0  0  0  0  0  0  0  0  0
   -9.8044   18.3183  -31.5287 H   0  0  0  0  0  0  0  0  0  0  0  0
   -7.9544   17.3092  -32.8349 H   0  0  0  0  0  0  0  0  0  0  0  0
   -6.1725   16.4831  -33.7436 H   0  0  0  0  0  0  0  0  0  0  0  0
   -6.8286   17.5739  -35.0111 H   0  0  0  0  0  0  0  0  0  0  0  0
   -5.0845   17.1438  -35.0111 H   0  0  0  0  0  0  0  0  0  0  0  0
   -3.4353   17.3742  -34.4261 H   0  0  0  0  0  0  0  0  0  0  0  0
   -1.2142   18.4543  -34.6181 H   0  0  0  0  0  0  0  0  0  0  0  0
   -2.7734   22.0427  -32.8240 H   0  0  0  0  0  0  0  0  0  0  0  0
  1  2  1  0
  2  3  1  0
  3  4  1  0
  4  5  1  0
  5  6  1  0
  6  7  1  0
  7  8  1  0
  8  9  1  0
  9 10  1  0
 10 11  1  0
 11 12  1  0
 12 13  1  0
 13 14  2  0
 14 15  1  0
 15 16  2  0
 16 17  1  0
 17 18  2  0
 18 19  1  0
 19 20  2  0
 20 21  1  0
 20 22  1  0
 22 23  2  0
 23 24  1  0
 24 25  2  0
 25 26  1  0
 25 27  1  0
 27 28  2  0
 28 13  1  0
 19 14  1  0
 28 22  1  0
  1 29  1  0
  1 30  1  0
  1 31  1  0
  2 32  1  0
  2 33  1  0
  4 34  1  0
  4 35  1  0
  5 36  1  0
  5 37  1  0
  7 38  1  0
  7 39  1  0
  8 40  1  0
  8 41  1  0
 10 42  1  0
 10 43  1  0
 11 44  1  0
 11 45  1  0
 12 46  1  0
 12 47  1  0
 15 48  1  0
 16 49  1  0
 17 50  1  0
 18 51  1  0
 21 52  1  0
 21 53  1  0
 21 54  1  0
 23 55  1  0
 24 56  1  0
 27 57  1  0
M  CHG  2  12   1  20   1
M  END
>  <UniqueID>  (11) 
11

>  <SMILES>  (11) 
CCOCCOCCOCC[NH2+]c1c2ccccc2[n+](C)c2ccc(Br)cc12

>  <Energy>  (11) 
80.89843315448182

>  <Genealogy>  (11) 
CCOCCOCCOCC[NH2+]c1c2ccccc2[n+](C)c2ccc(Br)cc12 (protonated)
CCOCCOCCOCC[NH2+]c1c2ccccc2[n+](C)c2ccc(Br)cc12 (3D coordinates assigned)
CCOCCOCCOCC[NH2+]c1c2ccccc2[n+](C)c2ccc(Br)cc12 (optimized conformer: 80.89843315448182 kcal/mol)

>  <smiles>  (11) 
CCOCCOCCOCCNc1c2ccccc2[n+](C)c2ccc(Br)cc12

>  <score_type>  (11) 
oracle

>  <origin>  (11) 
adg

>  <m_score__min__energy>  (11) 
-8.5

>  <m_primary>  (11) 
energy

$$$$
11:0
     RDKit          3D

 58 61  0  0  0  0  0  0  0  0999 V2000
   -4.0941   24.2741  -26.0339 H   0  0  0  0  0  0  0  0  0  0  0  0
   -3.4630   24.4670  -26.9140 C   0  0  0  0  0  0  0  0  0  0  0  0
   -3.8130   23.8230  -28.0500 C   0  0  0  0  0  0  0  0  0  0  0  0
   -3.8660   22.3170  -28.0050 C   0  0  0  0  0  0  0  0  0  0  0  0
   -3.8778   21.9817  -26.9574 H   0  0  0  0  0  0  0  0  0  0  0  0
   -4.7770   21.9668  -28.5124 H   0  0  0  0  0  0  0  0  0  0  0  0
   -2.9818   21.9037  -28.5124 H   0  0  0  0  0  0  0  0  0  0  0  0
   -4.2840   24.5040  -29.3210 C   0  0  0  0  0  0  0  0  0  0  0  0
   -5.0595   25.2411  -29.0656 H   0  0  0  0  0  0  0  0  0  0  0  0
   -3.4189   24.9939  -29.7917 H   0  0  0  0  0  0  0  0  0  0  0  0
   -4.8650   23.4940  -30.3150 C   0  0  0  0  0  0  0  0  0  0  0  0
   -4.8968   22.5001  -29.8447 H   0  0  0  0  0  0  0  0  0  0  0  0
   -5.8798   23.8129  -30.5950 H   0  0  0  0  0  0  0  0  0  0  0  0
   -4.0350   23.4300  -31.5260 N   0  0  0  0  0  0  0  0  0  0  0  0
   -3.4650   24.3070  -31.5720 H   0  0  0  0  0  0  0  0  0  0  0  0
   -3.1100   22.2870  -31.4870 C   0  0  0  0  0  0  0  0  0  0  0  0
   -2.0758   22.6588  -31.5340 H   0  0  0  0  0  0  0  0  0  0  0  0
   -3.2764   21.7318  -30.5521 H   0  0  0  0  0  0  0  0  0  0  0  0
   -3.3590   21.3390  -32.6730 C   0  0  0  0  0  0  0  0  0  0  0  0
   -2.4965   21.3941  -33.3535 H   0  0  0  0  0  0  0  0  0  0  0  0
   -3.4935   20.3267  -32.2641 H   0  0  0  0  0  0  0  0  0  0  0  0
   -4.5810   21.6770  -33.4320 N   0  0  0  0  0  0  0  0  0  0  0  0
   -4.8470   22.6680  -33.2340 H   0  0  0  0  0  0  0  0  0  0  0  0
   -4.3890   21.7240  -34.4540 H   0  0  0  0  0  0  0  0  0  0  0  0
   -5.6960   20.8010  -33.0920 C   0  0  0  0  0  0  0  0  0  0  0  0
   -6.9050   21.3550  -32.5820 C   0  0  0  0  0  0  0  0  0  0  0  0
   -7.0400   22.7480  -32.3390 C   0  0  0  0  0  0  0  0  0  0  0  0
   -6.1744   23.4093  -32.4921 H   0  0  0  0  0  0  0  0  0  0  0  0
   -8.2470   23.2910  -31.9110 C   0  0  0  0  0  0  0  0  0  0  0  0
   -8.3242   24.3709  -31.7164 H   0  0  0  0  0  0  0  0  0  0  0  0
   -9.3530   22.4750  -31.7290 C   0  0  0  0  0  0  0  0  0  0  0  0
  -10.3149   22.9129  -31.4240 H   0  0  0  0  0  0  0  0  0  0  0  0
   -9.2470   21.1020  -31.9320 C   0  0  0  0  0  0  0  0  0  0  0  0
  -10.1344   20.4662  -31.7972 H   0  0  0  0  0  0  0  0  0  0  0  0
   -8.0140   20.5070  -32.3100 C   0  0  0  0  0  0  0  0  0  0  0  0
   -7.8890   19.1380  -32.4280 N   0  0  0  0  0  0  0  0  0  0  0  0
   -8.9200   18.2480  -31.8430 C   0  0  0  0  0  0  0  0  0  0  0  0
   -8.8652   18.2953  -30.7454 H   0  0  0  0  0  0  0  0  0  0  0  0
   -9.9168   18.5740  -32.1748 H   0  0  0  0  0  0  0  0  0  0  0  0
   -8.7430   17.2143  -32.1748 H   0  0  0  0  0  0  0  0  0  0  0  0
   -6.7840   18.5930  -33.0480 C   0  0  0  0  0  0  0  0  0  0  0  0
   -6.7610   17.2250  -33.4300 C   0  0  0  0  0  0  0  0  0  0  0  0
   -7.6627   16.6108  -33.2893 H   0  0  0  0  0  0  0  0  0  0  0  0
   -5.6200   16.6460  -33.9790 C   0  0  0  0  0  0  0  0  0  0  0  0
   -5.6261   15.5845  -34.2674 H   0  0  0  0  0  0  0  0  0  0  0  0
   -4.4770   17.4070  -34.1620 C   0  0  0  0  0  0  0  0  0  0  0  0
   -3.5638   16.9387  -34.5580 H   0  0  0  0  0  0  0  0  0  0  0  0
   -4.4810   18.7630  -33.8460 C   0  0  0  0  0  0  0  0  0  0  0  0
   -3.5663   19.3545  -33.9994 H   0  0  0  0  0  0  0  0  0  0  0  0
   -5.6410   19.3980  -33.3300 C   0  0  0  0  0  0  0  0  0  0  0  0
   -2.3330   25.4000  -26.7130 C   0  0  0  0  0  0  0  0  0  0  0  0
   -1.1350   25.8400  -27.8140 S   0  0  0  0  0  0  0  0  0  0  0  0
   -0.1890   26.7220  -26.7450 C   0  0  0  0  0  0  0  0  0  0  0  0
    0.7387   27.2583  -26.9934 H   0  0  0  0  0  0  0  0  0  0  0  0
   -0.7820   26.6560  -25.4940 C   0  0  0  0  0  0  0  0  0  0  0  0
   -0.3630   27.1463  -24.6029 H   0  0  0  0  0  0  0  0  0  0  0  0
   -1.9640   25.9070  -25.4710 C   0  0  0  0  0  0  0  0  0  0  0  0
   -2.5479   25.7349  -24.5548 H   0  0  0  0  0  0  0  0  0  0  0  0
  1  2  1  0
  2  3  2  0
  3  4  1  0
  4  5  1  0
  4  6  1  0
  4  7  1  0
  3  8  1  0
  8  9  1  0
  8 10  1  0
  8 11  1  0
 11 12  1  0
 11 13  1  0
 11 14  1  0
 14 15  1  0
 14 16  1  0
 16 17  1  0
 16 18  1  0
 16 19  1  0
 19 20  1  0
 19 21  1  0
 19 22  1  0
 22 23  1  0
 22 24  1  0
 22 25  1  0
 25 26  1  0
 26 27  2  0
 27 28  1  0
 27 29  1  0
 29 30  1  0
 29 31  2  0
 31 32  1  0
 31 33  1  0
 33 34  1  0
 33 35  2  0
 35 36  1  0
 36 37  1  0
 37 38  1  0
 37 39  1  0
 37 40  1  0
 36 41  2  0
 41 42  1  0
 42 43  1  0
 42 44  2  0
 44 45  1  0
 44 46  1  0
 46 47  1  0
 46 48  2  0
 48 49  1  0
 48 50  1  0
  2 51  1  0
 51 52  1  0
 52 53  1  0
 53 54  1  0
 53 55  2  0
 55 56  1  0
 55 57  1  0
 57 58  1  0
 50 25  2  0
 57 51  2  0
 35 26  1  0
 50 41  1  0
M  CHG  2  22   1  36   1
M  END
>  <UniqueID>  (12) 
12

>  <SMILES>  (12) 
C/C(=C/c1cccs1)CCNCC[NH2+]c1c2ccccc2[n+](C)c2ccccc12

>  <Energy>  (12) 
114.88106445641878

>  <Genealogy>  (12) 
CC(=Cc1cccs1)CCNCC[NH2+]c1c2ccccc2[n+](C)c2ccccc12 (protonated)
C/C(=C/c1cccs1)CCNCC[NH2+]c1c2ccccc2[n+](C)c2ccccc12 (cis-trans isomerization)
C/C(=C/c1cccs1)CCNCC[NH2+]c1c2ccccc2[n+](C)c2ccccc12 (3D coordinates assigned)
C/C(=C/c1cccs1)CCNCC[NH2+]c1c2ccccc2[n+](C)c2ccccc12 (optimized conformer: 114.88106445641878 kcal/mol)

>  <smiles>  (12) 
CC(=Cc1cccs1)CCNCCNc1c2ccccc2[n+](C)c2ccccc12

>  <score_type>  (12) 
oracle

>  <origin>  (12) 
adg

>  <m_score__min__energy>  (12) 
-9.5399999999999991

>  <m_primary>  (12) 
energy

$$$$
12:0
     RDKit          3D

 49 52  0  0  0  0  0  0  0  0999 V2000
   -2.8660   20.4090  -32.7230 C   0  0  0  0  0  0  0  0  0  0  0  0
   -2.6400   21.7580  -32.0470 C   0  0  0  0  0  0  0  0  0  0  0  0
   -2.0740   21.5830  -30.6330 C   0  0  0  0  0  0  0  0  0  0  0  0
   -1.9830   22.8800  -29.9560 N   0  0  0  0  0  0  0  0  0  0  0  0
   -0.8560   23.3810  -29.4180 C   0  0  0  0  0  0  0  0  0  0  0  0
   -1.1340   24.6280  -28.9130 C   0  0  0  0  0  0  0  0  0  0  0  0
   -2.4300   24.9230  -29.1290 N   0  0  0  0  0  0  0  0  0  0  0  0
   -2.9250   23.8410  -29.7730 C   0  0  0  0  0  0  0  0  0  0  0  0
   -4.3850   23.7670  -30.1680 C   0  0  0  0  0  0  0  0  0  0  0  0
   -4.9830   25.1590  -30.4740 C   0  0  0  0  0  0  0  0  0  0  0  0
   -6.4640   25.2600  -30.0640 C   0  0  0  0  0  0  0  0  0  0  0  0
   -7.2230   24.0220  -30.3590 N   0  0  0  0  0  0  0  0  0  0  0  0
   -7.4360   23.8000  -31.8070 C   0  0  0  0  0  0  0  0  0  0  0  0
   -7.4590   22.3370  -32.1310 C   0  0  0  0  0  0  0  0  0  0  0  0
   -8.5470   21.4830  -31.9830 C   0  0  0  0  0  0  0  0  0  0  0  0
   -8.3000   20.1880  -32.3140 N   0  0  0  0  0  0  0  0  0  0  0  0
   -7.0240   20.0040  -32.7230 C   0  0  0  0  0  0  0  0  0  0  0  0
   -6.4910   18.6990  -33.1360 C   0  0  0  0  0  0  0  0  0  0  0  0
   -5.8950   18.4020  -34.3570 C   0  0  0  0  0  0  0  0  0  0  0  0
   -5.4850   17.0670  -34.4600 C   0  0  0  0  0  0  0  0  0  0  0  0
   -5.7570   16.3110  -33.3260 C   0  0  0  0  0  0  0  0  0  0  0  0
   -6.5060   17.3040  -32.1960 S   0  0  0  0  0  0  0  0  0  0  0  0
   -6.1490   21.4430  -32.6860 S   0  0  0  0  0  0  0  0  0  0  0  0
   -6.6770   22.8150  -29.6780 C   0  0  0  0  0  0  0  0  0  0  0  0
   -5.2340   22.9770  -29.1590 C   0  0  0  0  0  0  0  0  0  0  0  0
   -2.9962   19.6316  -31.9557 H   0  0  0  0  0  0  0  0  0  0  0  0
   -3.7682   20.4598  -33.3503 H   0  0  0  0  0  0  0  0  0  0  0  0
   -1.9966   20.1630  -33.3503 H   0  0  0  0  0  0  0  0  0  0  0  0
   -1.9297   22.3454  -32.6474 H   0  0  0  0  0  0  0  0  0  0  0  0
   -3.6074   22.2762  -31.9727 H   0  0  0  0  0  0  0  0  0  0  0  0
   -2.7355   20.9190  -30.0572 H   0  0  0  0  0  0  0  0  0  0  0  0
   -1.0674   21.1450  -30.7028 H   0  0  0  0  0  0  0  0  0  0  0  0
    0.1216   22.8777  -29.3877 H   0  0  0  0  0  0  0  0  0  0  0  0
   -0.4092   25.2847  -28.4095 H   0  0  0  0  0  0  0  0  0  0  0  0
   -4.4176   23.1975  -31.1085 H   0  0  0  0  0  0  0  0  0  0  0  0
   -4.4104   25.9193  -29.9227 H   0  0  0  0  0  0  0  0  0  0  0  0
   -4.9220   25.3208  -31.5603 H   0  0  0  0  0  0  0  0  0  0  0  0
   -6.5176   25.4569  -28.9831 H   0  0  0  0  0  0  0  0  0  0  0  0
   -6.9164   26.0751  -30.6480 H   0  0  0  0  0  0  0  0  0  0  0  0
   -8.3963   24.2484  -32.1017 H   0  0  0  0  0  0  0  0  0  0  0  0
   -6.6061   24.2668  -32.3578 H   0  0  0  0  0  0  0  0  0  0  0  0
   -9.5288   21.8281  -31.6266 H   0  0  0  0  0  0  0  0  0  0  0  0
   -5.7594   19.1410  -35.1605 H   0  0  0  0  0  0  0  0  0  0  0  0
   -4.9939   16.6555  -35.3542 H   0  0  0  0  0  0  0  0  0  0  0  0
   -5.5221   15.2449  -33.1912 H   0  0  0  0  0  0  0  0  0  0  0  0
   -7.3264   22.5791  -28.8221 H   0  0  0  0  0  0  0  0  0  0  0  0
   -6.6528   22.0129  -30.4304 H   0  0  0  0  0  0  0  0  0  0  0  0
   -5.2524   23.5164  -28.2005 H   0  0  0  0  0  0  0  0  0  0  0  0
   -4.7901   21.9796  -29.0241 H   0  0  0  0  0  0  0  0  0  0  0  0
  1  2  1  0
  2  3  1  0
  3  4  1  0
  4  5  1  0
  5  6  2  0
  6  7  1  0
  7  8  2  0
  8  9  1  0
  9 10  1  0
 10 11  1  0
 11 12  1  0
 12 13  1  0
 13 14  1  0
 14 15  2  0
 15 16  1  0
 16 17  2  0
 17 18  1  0
 18 19  2  0
 19 20  1  0
 20 21  2  0
 21 22  1  0
 17 23  1  0
 12 24  1  0
 24 25  1  0
  8  4  1  0
 25  9  1  0
 23 14  1  0
 22 18  1  0
  1 26  1  0
  1 27  1  0
  1 28  1  0
  2 29  1  0
  2 30  1  0
  3 31  1  0
  3 32  1  0
  5 33  1  0
  6 34  1  0
  9 35  1  0
 10 36  1  0
 10 37  1  0
 11 38  1  0
 11 39  1  0
 13 40  1  0
 13 41  1  0
 15 42  1  0
 19 43  1  0
 20 44  1  0
 21 45  1  0
 24 46  1  0
 24 47  1  0
 25 48  1  0
 25 49  1  0
M  END
>  <UniqueID>  (13) 
13

>  <SMILES>  (13) 
CCCn1ccnc1C1CCN(Cc2cnc(-c3cccs3)s2)CC1

>  <Energy>  (13) 
140.96859181125956

>  <Genealogy>  (13) 
CCCn1ccnc1C1CCN(Cc2cnc(-c3cccs3)s2)CC1 (3D coordinates assigned)
CCCn1ccnc1C1CCN(Cc2cnc(-c3cccs3)s2)CC1 (nonaromatic ring conformer: 140.96859181125956 kcal/mol)

>  <smiles>  (13) 
CCCn1ccnc1C1CCN(Cc2cnc(-c3cccs3)s2)CC1

>  <score_type>  (13) 
oracle

>  <origin>  (13) 
adg

>  <m_score__min__energy>  (13) 
-8.7899999999999991

>  <m_primary>  (13) 
energy

$$$$
13:0
     RDKit          3D

 35 36  0  0  1  0  0  0  0  0999 V2000
   -8.9140   18.6380  -31.3450 C   0  0  0  0  0  0  0  0  0  0  0  0
   -7.9650   18.2530  -32.4630 C   0  0  0  0  0  0  0  0  0  0  0  0
   -6.5170   17.4670  -31.6840 S   0  0  0  0  0  0  0  0  0  0  0  0
   -5.6890   16.5200  -32.9600 C   0  0  0  0  0  0  0  0  0  0  0  0
   -4.2730   16.9810  -33.1970 C   0  0  0  0  0  0  0  0  0  0  0  0
   -4.1160   18.1910  -33.6810 O   0  0  0  0  0  0  0  0  0  0  0  0
   -4.9540   19.1810  -33.8480 C   0  0  0  0  0  0  0  0  0  0  0  0
   -4.5820   20.4610  -33.2970 N   0  0  0  0  0  0  0  0  0  0  0  0
   -3.4470   21.1110  -33.1430 C   0  0  0  0  0  0  0  0  0  0  0  0
   -3.6200   22.3030  -32.5150 N   0  0  0  0  0  0  0  0  0  0  0  0
   -4.9240   22.4140  -32.2580 C   0  0  0  0  0  0  0  0  0  0  0  0
   -5.6140   23.4350  -31.6350 C   0  0  0  0  0  0  0  0  0  0  0  0
   -4.9830   24.4670  -31.2130 N   0  0  0  0  0  0  0  0  0  0  0  0
   -5.4480   25.2880  -30.1050 C   0  0  0  0  0  0  0  0  0  0  0  0
   -6.9470   23.2690  -31.5120 N   0  0  0  0  0  0  0  0  0  0  0  0
   -7.5350   22.1550  -31.9830 C   0  0  0  0  0  0  0  0  0  0  0  0
   -9.2900   22.0460  -31.7660 Cl  0  0  0  0  0  0  0  0  0  0  0  0
   -6.8710   21.1580  -32.5910 N   0  0  0  0  0  0  0  0  0  0  0  0
   -5.5350   21.2790  -32.7370 C   0  0  0  0  0  0  0  0  0  0  0  0
   -8.4349   18.4436  -30.3741 H   0  0  0  0  0  0  0  0  0  0  0  0
   -9.1602   19.7071  -31.4249 H   0  0  0  0  0  0  0  0  0  0  0  0
   -9.8355   18.0426  -31.4249 H   0  0  0  0  0  0  0  0  0  0  0  0
   -8.4555   17.5463  -33.1486 H   0  0  0  0  0  0  0  0  0  0  0  0
   -7.6662   19.1363  -33.0465 H   0  0  0  0  0  0  0  0  0  0  0  0
   -5.6693   15.4626  -32.6573 H   0  0  0  0  0  0  0  0  0  0  0  0
   -6.2474   16.6633  -33.8968 H   0  0  0  0  0  0  0  0  0  0  0  0
   -3.7435   16.9370  -32.2338 H   0  0  0  0  0  0  0  0  0  0  0  0
   -3.8782   16.3082  -33.9725 H   0  0  0  0  0  0  0  0  0  0  0  0
   -5.0954   19.3155  -34.9305 H   0  0  0  0  0  0  0  0  0  0  0  0
   -5.8560   18.8850  -33.2923 H   0  0  0  0  0  0  0  0  0  0  0  0
   -2.4719   20.7325  -33.4835 H   0  0  0  0  0  0  0  0  0  0  0  0
   -5.1760   24.8078  -29.1535 H   0  0  0  0  0  0  0  0  0  0  0  0
   -4.9782   26.2810  -30.1620 H   0  0  0  0  0  0  0  0  0  0  0  0
   -6.5412   25.3957  -30.1620 H   0  0  0  0  0  0  0  0  0  0  0  0
   -7.5200   24.0280  -31.0390 H   0  0  0  0  0  0  0  0  0  0  0  0
  1  2  1  0
  2  3  1  0
  3  4  1  0
  4  5  1  0
  5  6  1  0
  6  7  1  0
  7  8  1  0
  8  9  1  0
  9 10  2  0
 10 11  1  0
 11 12  1  0
 12 13  2  0
 13 14  1  0
 12 15  1  0
 15 16  1  0
 16 17  1  0
 16 18  2  0
 18 19  1  0
 19  8  1  0
 19 11  2  0
  1 20  1  0
  1 21  1  0
  1 22  1  0
  2 23  1  0
  2 24  1  0
  4 25  1  0
  4 26  1  0
  5 27  1  0
  5 28  1  0
  7 29  1  0
  7 30  1  0
  9 31  1  0
 14 32  1  0
 14 33  1  0
 14 34  1  0
 15 35  1  0
M  END
>  <smiles>  (14) 
CCSCCOCn1cnc2c(=NC)[nH]c(Cl)nc21

>  <score_type>  (14) 
oracle

>  <origin>  (14) 
adg

>  <m_score__min__energy>  (14) 
-5.9900000000000002

>  <m_primary>  (14) 
energy

$$$$
14:0
     RDKit          3D

 44 45  0  0  0  0  0  0  0  0999 V2000
   -7.3560   17.8680  -31.5950 C   0  0  0  0  0  0  0  0  0  0  0  0
   -8.7220   18.5480  -31.5790 C   0  0  0  0  0  0  0  0  0  0  0  0
   -8.5870   20.0620  -31.7640 C   0  0  0  0  0  0  0  0  0  0  0  0
   -7.8520   20.4310  -33.0580 C   0  0  0  0  0  0  0  0  0  0  0  0
   -6.4570   20.8180  -32.8090 N   0  0  0  0  0  0  0  0  0  0  0  0
   -6.0200   21.9600  -32.2090 C   0  0  0  0  0  0  0  0  0  0  0  0
   -7.1020   23.1500  -31.4050 S   0  0  0  0  0  0  0  0  0  0  0  0
   -5.8390   23.8880  -30.2960 C   0  0  0  0  0  0  0  0  0  0  0  0
   -5.2720   25.2180  -30.7990 C   0  0  0  0  0  0  0  0  0  0  0  0
   -3.8880   25.2770  -30.5220 O   0  0  0  0  0  0  0  0  0  0  0  0
   -3.5820   24.4420  -29.4280 C   0  0  0  0  0  0  0  0  0  0  0  0
   -2.5460   23.4170  -29.8670 C   0  0  0  0  0  0  0  0  0  0  0  0
   -4.6730   22.1240  -32.2620 N   0  0  0  0  0  0  0  0  0  0  0  0
   -4.2630   21.0140  -32.9040 C   0  0  0  0  0  0  0  0  0  0  0  0
   -5.3210   20.2280  -33.2380 C   0  0  0  0  0  0  0  0  0  0  0  0
   -5.1070   19.0300  -33.9150 C   0  0  0  0  0  0  0  0  0  0  0  0
   -6.0570   18.2770  -34.2520 O   0  0  0  0  0  0  0  0  0  0  0  0
   -3.8180   18.6780  -34.1990 N   0  0  0  0  0  0  0  0  0  0  0  0
   -2.7610   19.4760  -33.8410 C   0  0  0  0  0  0  0  0  0  0  0  0
   -1.5870   19.0960  -34.1030 O   0  0  0  0  0  0  0  0  0  0  0  0
   -2.9760   20.6760  -33.2000 N   0  0  0  0  0  0  0  0  0  0  0  0
   -1.8580   21.5240  -32.7690 C   0  0  0  0  0  0  0  0  0  0  0  0
   -7.0180   17.6998  -30.5618 H   0  0  0  0  0  0  0  0  0  0  0  0
   -7.4329   16.9030  -32.1174 H   0  0  0  0  0  0  0  0  0  0  0  0
   -6.6324   18.5111  -32.1174 H   0  0  0  0  0  0  0  0  0  0  0  0
   -9.3360   18.1398  -32.3953 H   0  0  0  0  0  0  0  0  0  0  0  0
   -9.1961   18.3562  -30.6051 H   0  0  0  0  0  0  0  0  0  0  0  0
   -9.5933   20.5054  -31.7909 H   0  0  0  0  0  0  0  0  0  0  0  0
   -7.9967   20.4509  -30.9212 H   0  0  0  0  0  0  0  0  0  0  0  0
   -7.8643   19.5626  -33.7331 H   0  0  0  0  0  0  0  0  0  0  0  0
   -8.3679   21.2924  -33.5072 H   0  0  0  0  0  0  0  0  0  0  0  0
   -6.2995   24.0581  -29.3116 H   0  0  0  0  0  0  0  0  0  0  0  0
   -4.9990   23.1791  -30.2528 H   0  0  0  0  0  0  0  0  0  0  0  0
   -5.4320   25.2973  -31.8844 H   0  0  0  0  0  0  0  0  0  0  0  0
   -5.7826   26.0490  -30.2904 H   0  0  0  0  0  0  0  0  0  0  0  0
   -3.1770   25.0469  -28.6033 H   0  0  0  0  0  0  0  0  0  0  0  0
   -4.4921   23.9291  -29.0837 H   0  0  0  0  0  0  0  0  0  0  0  0
   -2.0838   22.9597  -28.9797 H   0  0  0  0  0  0  0  0  0  0  0  0
   -3.0344   22.6368  -30.4693 H   0  0  0  0  0  0  0  0  0  0  0  0
   -1.7711   23.9137  -30.4693 H   0  0  0  0  0  0  0  0  0  0  0  0
   -3.6330   17.7760  -34.6940 H   0  0  0  0  0  0  0  0  0  0  0  0
   -1.8214   21.5518  -31.6700 H   0  0  0  0  0  0  0  0  0  0  0  0
   -0.9147   21.1122  -33.1570 H   0  0  0  0  0  0  0  0  0  0  0  0
   -2.0002   22.5434  -33.1570 H   0  0  0  0  0  0  0  0  0  0  0  0
  1  2  1  0
  2  3  1  0
  3  4  1  0
  4  5  1  0
  5  6  1  0
  6  7  1  0
  7  8  1  0
  8  9  1  0
  9 10  1  0
 10 11  1  0
 11 12  1  0
  6 13  2  0
 13 14  1  0
 14 15  2  0
 15 16  1  0
 16 17  2  0
 16 18  1  0
 18 19  1  0
 19 20  2  0
 19 21  1  0
 21 22  1  0
 15  5  1  0
 21 14  1  0
  1 23  1  0
  1 24  1  0
  1 25  1  0
  2 26  1  0
  2 27  1  0
  3 28  1  0
  3 29  1  0
  4 30  1  0
  4 31  1  0
  8 32  1  0
  8 33  1  0
  9 34  1  0
  9 35  1  0
 11 36  1  0
 11 37  1  0
 12 38  1  0
 12 39  1  0
 12 40  1  0
 18 41  1  0
 22 42  1  0
 22 43  1  0
 22 44  1  0
M  END
>  <UniqueID>  (15) 
14

>  <SMILES>  (15) 
CCCCn1c(SCCOCC)nc2c1c(=O)[nH]c(=O)n2C

>  <Energy>  (15) 
72.29387208447439

>  <Genealogy>  (15) 
CCCCn1c(SCCOCC)nc2c1c(=O)[nH]c(=O)n2C (3D coordinates assigned)
CCCCn1c(SCCOCC)nc2c1c(=O)[nH]c(=O)n2C (optimized conformer: 72.29387208447439 kcal/mol)

>  <smiles>  (15) 
CCCCn1c(SCCOCC)nc2c1c(=O)[nH]c(=O)n2C

>  <score_type>  (15) 
oracle

>  <origin>  (15) 
adg

>  <m_score__min__energy>  (15) 
-7.1399999999999997

>  <m_primary>  (15) 
energy

$$$$
