0:0
     RDKit          3D

 61 63  0  0  0  0  0  0  0  0999 V2000
   -3.8590   22.6560  -27.8300 C   0  0  0  0  0  0  0  0  0  0  0  0
   -3.5070   23.9480  -28.5660 C   0  0  0  0  0  0  0  0  0  0  0  0
   -3.3050   23.7190  -30.0690 C   0  0  0  0  0  0  0  0  0  0  0  0
   -4.4190   24.3320  -30.8350 N   0  0  0  0  0  0  0  0  0  0  0  0
   -5.4310   24.9710  -29.9630 C   0  0  0  0  0  0  0  0  0  0  0  0
   -6.8790   24.5400  -30.2810 C   0  0  0  0  0  0  0  0  0  0  0  0
   -7.1730   23.1550  -29.7140 C   0  0  0  0  0  0  0  0  0  0  0  0
   -5.0230   23.4190  -31.8320 C   0  0  0  0  0  0  0  0  0  0  0  0
   -4.0590   22.2830  -32.1880 C   0  0  0  0  0  0  0  0  0  0  0  0
   -4.5210   21.5660  -33.3760 N   0  0  0  0  0  0  0  0  0  0  0  0
   -5.0580   20.2350  -33.2970 C   0  0  0  0  0  0  0  0  0  0  0  0
   -6.3820   20.0360  -32.8730 C   0  0  0  0  0  0  0  0  0  0  0  0
   -7.1720   21.1210  -32.4390 C   0  0  0  0  0  0  0  0  0  0  0  0
   -8.4730   20.9170  -31.9850 C   0  0  0  0  0  0  0  0  0  0  0  0
   -9.0020   19.6320  -31.9440 C   0  0  0  0  0  0  0  0  0  0  0  0
   -8.2430   18.5460  -32.3800 C   0  0  0  0  0  0  0  0  0  0  0  0
   -6.9310   18.7260  -32.8880 C   0  0  0  0  0  0  0  0  0  0  0  0
   -6.1860   17.6690  -33.3770 N   0  0  0  0  0  0  0  0  0  0  0  0
   -6.8430   16.3770  -33.6760 C   0  0  0  0  0  0  0  0  0  0  0  0
   -4.8300   17.8260  -33.6050 C   0  0  0  0  0  0  0  0  0  0  0  0
   -3.9790   16.7150  -33.8320 C   0  0  0  0  0  0  0  0  0  0  0  0
   -2.6080   16.8810  -34.0830 C   0  0  0  0  0  0  0  0  0  0  0  0
   -1.7700   15.7380  -34.3480 N   0  0  0  0  0  0  0  0  0  0  0  0
   -2.0890   15.1700  -35.6590 C   0  0  0  0  0  0  0  0  0  0  0  0
   -2.0700   18.1710  -34.1080 C   0  0  0  0  0  0  0  0  0  0  0  0
   -2.8760   19.2760  -33.8500 C   0  0  0  0  0  0  0  0  0  0  0  0
   -4.2530   19.1220  -33.5930 C   0  0  0  0  0  0  0  0  0  0  0  0
   -3.8122   22.8279  -26.7445 H   0  0  0  0  0  0  0  0  0  0  0  0
   -4.8757   22.3411  -28.1078 H   0  0  0  0  0  0  0  0  0  0  0  0
   -3.1426   21.8689  -28.1078 H   0  0  0  0  0  0  0  0  0  0  0  0
   -4.3238   24.6709  -28.4240 H   0  0  0  0  0  0  0  0  0  0  0  0
   -2.5616   24.3275  -28.1511 H   0  0  0  0  0  0  0  0  0  0  0  0
   -2.3544   24.1758  -30.3817 H   0  0  0  0  0  0  0  0  0  0  0  0
   -3.2851   22.6373  -30.2679 H   0  0  0  0  0  0  0  0  0  0  0  0
   -5.2096   24.7038  -28.9192 H   0  0  0  0  0  0  0  0  0  0  0  0
   -5.3705   26.0553  -30.1382 H   0  0  0  0  0  0  0  0  0  0  0  0
   -7.5762   25.2660  -29.8373 H   0  0  0  0  0  0  0  0  0  0  0  0
   -7.0029   24.5054  -31.3735 H   0  0  0  0  0  0  0  0  0  0  0  0
   -7.1636   23.1992  -28.6149 H   0  0  0  0  0  0  0  0  0  0  0  0
   -8.1623   22.8200  -30.0591 H   0  0  0  0  0  0  0  0  0  0  0  0
   -6.4051   22.4470  -30.0591 H   0  0  0  0  0  0  0  0  0  0  0  0
   -5.9463   22.9904  -31.4150 H   0  0  0  0  0  0  0  0  0  0  0  0
   -5.2433   23.9918  -32.7449 H   0  0  0  0  0  0  0  0  0  0  0  0
   -3.0621   22.7039  -32.3853 H   0  0  0  0  0  0  0  0  0  0  0  0
   -4.0158   21.5785  -31.3443 H   0  0  0  0  0  0  0  0  0  0  0  0
   -4.4150   22.0120  -34.3160 H   0  0  0  0  0  0  0  0  0  0  0  0
   -6.7562   22.1392  -32.4593 H   0  0  0  0  0  0  0  0  0  0  0  0
   -9.0820   21.7730  -31.6588 H   0  0  0  0  0  0  0  0  0  0  0  0
  -10.0226   19.4712  -31.5664 H   0  0  0  0  0  0  0  0  0  0  0  0
   -8.6690   17.5331  -32.3290 H   0  0  0  0  0  0  0  0  0  0  0  0
   -7.1007   15.8701  -32.7344 H   0  0  0  0  0  0  0  0  0  0  0  0
   -7.7589   16.5574  -34.2579 H   0  0  0  0  0  0  0  0  0  0  0  0
   -6.1577   15.7432  -34.2579 H   0  0  0  0  0  0  0  0  0  0  0  0
   -4.4027   15.7001  -33.8109 H   0  0  0  0  0  0  0  0  0  0  0  0
   -0.7610   16.0180  -34.3320 H   0  0  0  0  0  0  0  0  0  0  0  0
   -1.9110   15.0070  -33.6120 H   0  0  0  0  0  0  0  0  0  0  0  0
   -2.6237   14.2180  -35.5259 H   0  0  0  0  0  0  0  0  0  0  0  0
   -2.7246   15.8724  -36.2181 H   0  0  0  0  0  0  0  0  0  0  0  0
   -1.1584   14.9928  -36.2181 H   0  0  0  0  0  0  0  0  0  0  0  0
   -1.0028   18.3137  -34.3330 H   0  0  0  0  0  0  0  0  0  0  0  0
   -2.4324   20.2826  -33.8467 H   0  0  0  0  0  0  0  0  0  0  0  0
  1  2  1  0
  2  3  1  0
  3  4  1  0
  4  5  1  0
  5  6  1  0
  6  7  1  0
  4  8  1  0
  8  9  1  0
  9 10  1  0
 10 11  1  0
 11 12  2  0
 12 13  1  0
 13 14  2  0
 14 15  1  0
 15 16  2  0
 16 17  1  0
 17 18  2  0
 18 19  1  0
 18 20  1  0
 20 21  2  0
 21 22  1  0
 22 23  1  0
 23 24  1  0
 22 25  2  0
 25 26  1  0
 26 27  2  0
 27 11  1  0
 17 12  1  0
 27 20  1  0
  1 28  1  0
  1 29  1  0
  1 30  1  0
  2 31  1  0
  2 32  1  0
  3 33  1  0
  3 34  1  0
  5 35  1  0
  5 36  1  0
  6 37  1  0
  6 38  1  0
  7 39  1  0
  7 40  1  0
  7 41  1  0
  8 42  1  0
  8 43  1  0
  9 44  1  0
  9 45  1  0
 10 46  1  0
 13 47  1  0
 14 48  1  0
 15 49  1  0
 16 50  1  0
 19 51  1  0
 19 52  1  0
 19 53  1  0
 21 54  1  0
 23 55  1  0
 23 56  1  0
 24 57  1  0
 24 58  1  0
 24 59  1  0
 25 60  1  0
 26 61  1  0
M  CHG  2  18   1  23   1
M  END
>  <UniqueID>  (1) 
1

>  <SMILES>  (1) 
CCCN(CCC)CCNc1c2ccccc2[n+](C)c2cc([NH2+]C)ccc12

>  <Energy>  (1) 
82.53621346478222

>  <Genealogy>  (1) 
CCCN(CCC)CCNc1c2ccccc2[n+](C)c2cc([NH2+]C)ccc12 (protonated)
CCCN(CCC)CCNc1c2ccccc2[n+](C)c2cc([NH2+]C)ccc12 (3D coordinates assigned)
CCCN(CCC)CCNc1c2ccccc2[n+](C)c2cc([NH2+]C)ccc12 (optimized conformer: 82.53621346478222 kcal/mol)

>  <smiles>  (1) 
CCCN(CCC)CCNc1c2ccccc2[n+](C)c2cc(NC)ccc12

>  <score_type>  (1) 
oracle

>  <origin>  (1) 
adg

>  <m_score__min__energy>  (1) 
-8.0199999999999996

>  <m_primary>  (1) 
energy

$$$$
1:0
     RDKit          3D

 70 72  0  0  0  0  0  0  0  0999 V2000
   -2.6600   23.1110  -29.2000 C   0  0  0  0  0  0  0  0  0  0  0  0
   -1.3060   22.5960  -28.7240 C   0  0  0  0  0  0  0  0  0  0  0  0
   -1.4770   21.3200  -28.0150 N   0  0  0  0  0  0  0  0  0  0  0  0
   -2.8960   20.9440  -27.9060 C   0  0  0  0  0  0  0  0  0  0  0  0
   -3.0900   19.6740  -27.0610 C   0  0  0  0  0  0  0  0  0  0  0  0
   -1.7710   18.9730  -26.7200 C   0  0  0  0  0  0  0  0  0  0  0  0
   -1.1390   18.5400  -27.9080 O   0  0  0  0  0  0  0  0  0  0  0  0
    0.0010   17.7690  -27.5890 C   0  0  0  0  0  0  0  0  0  0  0  0
    1.2520   18.5000  -28.0760 C   0  0  0  0  0  0  0  0  0  0  0  0
    0.8960   19.5950  -28.8970 O   0  0  0  0  0  0  0  0  0  0  0  0
    1.1300   19.3130  -30.2630 C   0  0  0  0  0  0  0  0  0  0  0  0
   -0.2090   19.1560  -30.9680 C   0  0  0  0  0  0  0  0  0  0  0  0
   -1.0040   20.2850  -30.6820 O   0  0  0  0  0  0  0  0  0  0  0  0
   -2.1800   20.2580  -31.4620 C   0  0  0  0  0  0  0  0  0  0  0  0
   -2.2600   21.5330  -32.3020 C   0  0  0  0  0  0  0  0  0  0  0  0
   -3.3270   21.4400  -33.3000 N   0  0  0  0  0  0  0  0  0  0  0  0
   -4.6580   21.0200  -32.9550 C   0  0  0  0  0  0  0  0  0  0  0  0
   -5.1010   19.7320  -33.3000 C   0  0  0  0  0  0  0  0  0  0  0  0
   -4.2200   18.7980  -33.8840 C   0  0  0  0  0  0  0  0  0  0  0  0
   -4.6610   17.5230  -34.2240 C   0  0  0  0  0  0  0  0  0  0  0  0
   -5.9750   17.1480  -33.9710 C   0  0  0  0  0  0  0  0  0  0  0  0
   -6.8640   18.0540  -33.3900 C   0  0  0  0  0  0  0  0  0  0  0  0
   -6.4550   19.3730  -33.0670 C   0  0  0  0  0  0  0  0  0  0  0  0
   -7.3320   20.2950  -32.5280 N   0  0  0  0  0  0  0  0  0  0  0  0
   -8.7900   20.0360  -32.5590 C   0  0  0  0  0  0  0  0  0  0  0  0
   -6.8500   21.4710  -31.9860 C   0  0  0  0  0  0  0  0  0  0  0  0
   -7.6610   22.3070  -31.1800 C   0  0  0  0  0  0  0  0  0  0  0  0
   -7.1800   23.5230  -30.6910 C   0  0  0  0  0  0  0  0  0  0  0  0
   -5.8720   23.9260  -30.9600 C   0  0  0  0  0  0  0  0  0  0  0  0
   -5.3620   25.2460  -30.4570 C   0  0  0  0  0  0  0  0  0  0  0  0
   -5.0420   23.1020  -31.7240 C   0  0  0  0  0  0  0  0  0  0  0  0
   -5.5110   21.8710  -32.2310 C   0  0  0  0  0  0  0  0  0  0  0  0
   -3.2882   23.3499  -28.3292 H   0  0  0  0  0  0  0  0  0  0  0  0
   -2.5150   24.0168  -29.8071 H   0  0  0  0  0  0  0  0  0  0  0  0
   -3.1536   22.3378  -29.8071 H   0  0  0  0  0  0  0  0  0  0  0  0
   -0.6474   22.4455  -29.5921 H   0  0  0  0  0  0  0  0  0  0  0  0
   -0.8583   23.3327  -28.0407 H   0  0  0  0  0  0  0  0  0  0  0  0
   -0.9940   20.5790  -28.5780 H   0  0  0  0  0  0  0  0  0  0  0  0
   -3.4479   21.7714  -27.4361 H   0  0  0  0  0  0  0  0  0  0  0  0
   -3.2732   20.7401  -28.9190 H   0  0  0  0  0  0  0  0  0  0  0  0
   -3.5923   19.9511  -26.1224 H   0  0  0  0  0  0  0  0  0  0  0  0
   -3.6908   18.9714  -27.6571 H   0  0  0  0  0  0  0  0  0  0  0  0
   -1.1106   19.6749  -26.1897 H   0  0  0  0  0  0  0  0  0  0  0  0
   -1.9767   18.1027  -26.0795 H   0  0  0  0  0  0  0  0  0  0  0  0
    0.0574   17.6283  -26.4995 H   0  0  0  0  0  0  0  0  0  0  0  0
   -0.0678   16.7862  -28.0782 H   0  0  0  0  0  0  0  0  0  0  0  0
    1.8181   18.8675  -27.2074 H   0  0  0  0  0  0  0  0  0  0  0  0
    1.8680   17.8013  -28.6611 H   0  0  0  0  0  0  0  0  0  0  0  0
    1.6936   20.1399  -30.7199 H   0  0  0  0  0  0  0  0  0  0  0  0
    1.7134   18.3853  -30.3583 H   0  0  0  0  0  0  0  0  0  0  0  0
   -0.0494   19.0808  -32.0538 H   0  0  0  0  0  0  0  0  0  0  0  0
   -0.7131   18.2433  -30.6175 H   0  0  0  0  0  0  0  0  0  0  0  0
   -2.1601   19.3813  -32.1261 H   0  0  0  0  0  0  0  0  0  0  0  0
   -3.0579   20.1964  -30.8021 H   0  0  0  0  0  0  0  0  0  0  0  0
   -2.4611   22.3878  -31.6395 H   0  0  0  0  0  0  0  0  0  0  0  0
   -1.3021   21.6672  -32.8258 H   0  0  0  0  0  0  0  0  0  0  0  0
   -3.1160   21.6810  -34.2970 H   0  0  0  0  0  0  0  0  0  0  0  0
   -3.1737   19.0805  -34.0725 H   0  0  0  0  0  0  0  0  0  0  0  0
   -3.9678   16.8100  -34.6943 H   0  0  0  0  0  0  0  0  0  0  0  0
   -6.3155   16.1344  -34.2293 H   0  0  0  0  0  0  0  0  0  0  0  0
   -7.8971   17.7402  -33.1796 H   0  0  0  0  0  0  0  0  0  0  0  0
   -9.1723   19.9681  -31.5298 H   0  0  0  0  0  0  0  0  0  0  0  0
   -9.2973   20.8581  -33.0851 H   0  0  0  0  0  0  0  0  0  0  0  0
   -8.9832   19.0895  -33.0851 H   0  0  0  0  0  0  0  0  0  0  0  0
   -8.6865   21.9931  -30.9354 H   0  0  0  0  0  0  0  0  0  0  0  0
   -7.8373   24.1679  -30.0893 H   0  0  0  0  0  0  0  0  0  0  0  0
   -5.3627   25.2443  -29.3570 H   0  0  0  0  0  0  0  0  0  0  0  0
   -4.3371   25.4066  -30.8228 H   0  0  0  0  0  0  0  0  0  0  0  0
   -6.0127   26.0540  -30.8228 H   0  0  0  0  0  0  0  0  0  0  0  0
   -4.0090   23.4168  -31.9333 H   0  0  0  0  0  0  0  0  0  0  0  0
  1  2  1  0
  2  3  1  0
  3  4  1  0
  4  5  1  0
  5  6  1  0
  6  7  1  0
  7  8  1  0
  8  9  1  0
  9 10  1  0
 10 11  1  0
 11 12  1  0
 12 13  1  0
 13 14  1  0
 14 15  1  0
 15 16  1  0
 16 17  1  0
 17 18  2  0
 18 19  1  0
 19 20  2  0
 20 21  1  0
 21 22  2  0
 22 23  1  0
 23 24  2  0
 24 25  1  0
 24 26  1  0
 26 27  2  0
 27 28  1  0
 28 29  2  0
 29 30  1  0
 29 31  1  0
 31 32  2  0
 32 17  1  0
 23 18  1  0
 32 26  1  0
  1 33  1  0
  1 34  1  0
  1 35  1  0
  2 36  1  0
  2 37  1  0
  3 38  1  0
  4 39  1  0
  4 40  1  0
  5 41  1  0
  5 42  1  0
  6 43  1  0
  6 44  1  0
  8 45  1  0
  8 46  1  0
  9 47  1  0
  9 48  1  0
 11 49  1  0
 11 50  1  0
 12 51  1  0
 12 52  1  0
 14 53  1  0
 14 54  1  0
 15 55  1  0
 15 56  1  0
 16 57  1  0
 19 58  1  0
 20 59  1  0
 21 60  1  0
 22 61  1  0
 25 62  1  0
 25 63  1  0
 25 64  1  0
 27 65  1  0
 28 66  1  0
 30 67  1  0
 30 68  1  0
 30 69  1  0
 31 70  1  0
M  CHG  1  24   1
M  END
>  <UniqueID>  (2) 
2

>  <SMILES>  (2) 
CCNCCCOCCOCCOCCNc1c2ccccc2[n+](C)c2ccc(C)cc12

>  <Energy>  (2) 
77.0885385688521

>  <Genealogy>  (2) 
CCNCCCOCCOCCOCCNc1c2ccccc2[n+](C)c2ccc(C)cc12 (3D coordinates assigned)
CCNCCCOCCOCCOCCNc1c2ccccc2[n+](C)c2ccc(C)cc12 (optimized conformer: 77.0885385688521 kcal/mol)

>  <smiles>  (2) 
CCNCCCOCCOCCOCCNc1c2ccccc2[n+](C)c2ccc(C)cc12

>  <score_type>  (2) 
oracle

>  <origin>  (2) 
adg

>  <m_score__min__energy>  (2) 
-9.75

>  <m_primary>  (2) 
energy

$$$$
2:0
     RDKit          3D

 43 45  0  0  0  0  0  0  0  0999 V2000
   -2.4580   24.9490  -26.9240 C   0  0  0  0  0  0  0  0  0  0  0  0
   -1.6170   25.3510  -28.1310 C   0  0  0  0  0  0  0  0  0  0  0  0
   -2.3890   25.2900  -29.3310 O   0  0  0  0  0  0  0  0  0  0  0  0
   -2.9590   24.1280  -29.8800 C   0  0  0  0  0  0  0  0  0  0  0  0
   -2.1360   23.0110  -30.0560 C   0  0  0  0  0  0  0  0  0  0  0  0
   -2.6460   21.8330  -30.6080 C   0  0  0  0  0  0  0  0  0  0  0  0
   -3.9860   21.7620  -30.9930 C   0  0  0  0  0  0  0  0  0  0  0  0
   -4.8310   22.8700  -30.8230 C   0  0  0  0  0  0  0  0  0  0  0  0
   -6.2390   22.8020  -31.2590 C   0  0  0  0  0  0  0  0  0  0  0  0
   -6.9970   21.6890  -31.1680 N   0  0  0  0  0  0  0  0  0  0  0  0
   -8.2010   22.1010  -31.6100 C   0  0  0  0  0  0  0  0  0  0  0  0
   -9.4200   21.2320  -31.6670 C   0  0  0  0  0  0  0  0  0  0  0  0
   -9.1150   19.8560  -31.2410 N   0  0  0  0  0  0  0  0  0  0  0  0
   -9.0060   18.9200  -32.3740 C   0  0  0  0  0  0  0  0  0  0  0  0
   -7.5620   18.6920  -32.7370 C   0  0  0  0  0  0  0  0  0  0  0  0
   -6.8590   19.6360  -33.5040 C   0  0  0  0  0  0  0  0  0  0  0  0
   -5.5390   19.3850  -33.8940 C   0  0  0  0  0  0  0  0  0  0  0  0
   -4.9100   18.1950  -33.5150 C   0  0  0  0  0  0  0  0  0  0  0  0
   -5.5990   17.2570  -32.7400 C   0  0  0  0  0  0  0  0  0  0  0  0
   -6.9200   17.5030  -32.3520 C   0  0  0  0  0  0  0  0  0  0  0  0
   -8.1290   23.4250  -31.9760 C   0  0  0  0  0  0  0  0  0  0  0  0
   -6.9050   23.8290  -31.7440 O   0  0  0  0  0  0  0  0  0  0  0  0
   -4.3130   24.0520  -30.2650 C   0  0  0  0  0  0  0  0  0  0  0  0
   -1.9196   25.2063  -25.9999 H   0  0  0  0  0  0  0  0  0  0  0  0
   -3.4178   25.4857  -26.9507 H   0  0  0  0  0  0  0  0  0  0  0  0
   -2.6431   23.8650  -26.9507 H   0  0  0  0  0  0  0  0  0  0  0  0
   -1.2514   26.3788  -27.9894 H   0  0  0  0  0  0  0  0  0  0  0  0
   -0.7720   24.6524  -28.2199 H   0  0  0  0  0  0  0  0  0  0  0  0
   -1.0784   23.0602  -29.7574 H   0  0  0  0  0  0  0  0  0  0  0  0
   -1.9902   20.9597  -30.7395 H   0  0  0  0  0  0  0  0  0  0  0  0
   -4.3814   20.8339  -31.4314 H   0  0  0  0  0  0  0  0  0  0  0  0
  -10.1902   21.6507  -31.0025 H   0  0  0  0  0  0  0  0  0  0  0  0
   -9.7779   21.2028  -32.7067 H   0  0  0  0  0  0  0  0  0  0  0  0
   -8.1830   19.8830  -30.7660 H   0  0  0  0  0  0  0  0  0  0  0  0
   -9.4645   17.9598  -32.0949 H   0  0  0  0  0  0  0  0  0  0  0  0
   -9.5256   19.3521  -33.2419 H   0  0  0  0  0  0  0  0  0  0  0  0
   -7.3482   20.5760  -33.7990 H   0  0  0  0  0  0  0  0  0  0  0  0
   -4.9952   20.1249  -34.4997 H   0  0  0  0  0  0  0  0  0  0  0  0
   -3.8738   17.9969  -33.8264 H   0  0  0  0  0  0  0  0  0  0  0  0
   -5.1015   16.3245  -32.4351 H   0  0  0  0  0  0  0  0  0  0  0  0
   -7.4587   16.7623  -31.7427 H   0  0  0  0  0  0  0  0  0  0  0  0
   -8.9484   24.0325  -32.3877 H   0  0  0  0  0  0  0  0  0  0  0  0
   -4.9692   24.9241  -30.1278 H   0  0  0  0  0  0  0  0  0  0  0  0
  1  2  1  0
  2  3  1  0
  3  4  1  0
  4  5  2  0
  5  6  1  0
  6  7  2  0
  7  8  1  0
  8  9  1  0
  9 10  2  0
 10 11  1  0
 11 12  1  0
 12 13  1  0
 13 14  1  0
 14 15  1  0
 15 16  2  0
 16 17  1  0
 17 18  2  0
 18 19  1  0
 19 20  2  0
 11 21  2  0
 21 22  1  0
  8 23  2  0
 23  4  1  0
 22  9  1  0
 20 15  1  0
  1 24  1  0
  1 25  1  0
  1 26  1  0
  2 27  1  0
  2 28  1  0
  5 29  1  0
  6 30  1  0
  7 31  1  0
 12 32  1  0
 12 33  1  0
 13 34  1  0
 14 35  1  0
 14 36  1  0
 16 37  1  0
 17 38  1  0
 18 39  1  0
 19 40  1  0
 20 41  1  0
 21 42  1  0
 23 43  1  0
M  END
>  <UniqueID>  (3) 
3

>  <SMILES>  (3) 
CCOc1cccc(-c2nc(CNCc3ccccc3)co2)c1

>  <Energy>  (3) 
67.93211377184534

>  <Genealogy>  (3) 
CCOc1cccc(-c2nc(CNCc3ccccc3)co2)c1 (3D coordinates assigned)
CCOc1cccc(-c2nc(CNCc3ccccc3)co2)c1 (optimized conformer: 67.93211377184534 kcal/mol)

>  <smiles>  (3) 
CCOc1cccc(-c2nc(CNCc3ccccc3)co2)c1

>  <score_type>  (3) 
oracle

>  <origin>  (3) 
adg

>  <m_score__min__energy>  (3) 
-8.1500000000000004

>  <m_primary>  (3) 
energy

$$$$
3:0
     RDKit          3D

 66 68  0  0  0  0  0  0  0  0999 V2000
   -0.8520   26.7400  -23.7020 C   0  0  0  0  0  0  0  0  0  0  0  0
   -1.0250   25.7570  -24.8510 C   0  0  0  0  0  0  0  0  0  0  0  0
   -2.3080   25.9420  -25.4270 O   0  0  0  0  0  0  0  0  0  0  0  0
   -2.3240   25.4350  -26.7030 N   0  0  0  0  0  0  0  0  0  0  0  0
   -3.4700   24.5340  -26.8580 C   0  0  0  0  0  0  0  0  0  0  0  0
   -3.7140   24.2440  -28.3370 C   0  0  0  0  0  0  0  0  0  0  0  0
   -2.7080   24.8660  -29.1220 O   0  0  0  0  0  0  0  0  0  0  0  0
   -1.6140   23.9910  -29.3160 C   0  0  0  0  0  0  0  0  0  0  0  0
   -2.1380   22.5830  -29.5540 C   0  0  0  0  0  0  0  0  0  0  0  0
   -1.9770   22.2630  -30.9160 O   0  0  0  0  0  0  0  0  0  0  0  0
   -2.9130   21.2820  -31.2970 C   0  0  0  0  0  0  0  0  0  0  0  0
   -2.9410   21.1790  -32.8220 C   0  0  0  0  0  0  0  0  0  0  0  0
   -4.2130   21.6560  -33.3670 N   0  0  0  0  0  0  0  0  0  0  0  0
   -5.4540   21.5290  -32.6520 C   0  0  0  0  0  0  0  0  0  0  0  0
   -5.9170   22.5760  -31.8360 C   0  0  0  0  0  0  0  0  0  0  0  0
   -5.1390   23.7360  -31.6410 C   0  0  0  0  0  0  0  0  0  0  0  0
   -5.5570   24.7380  -30.7680 C   0  0  0  0  0  0  0  0  0  0  0  0
   -6.7400   24.5910  -30.0560 C   0  0  0  0  0  0  0  0  0  0  0  0
   -7.5290   23.4530  -30.2340 C   0  0  0  0  0  0  0  0  0  0  0  0
   -7.1550   22.4360  -31.1530 C   0  0  0  0  0  0  0  0  0  0  0  0
   -7.9410   21.3160  -31.3640 N   0  0  0  0  0  0  0  0  0  0  0  0
   -9.3400   21.2790  -30.8770 C   0  0  0  0  0  0  0  0  0  0  0  0
   -7.4200   20.2230  -32.0340 C   0  0  0  0  0  0  0  0  0  0  0  0
   -8.0950   18.9780  -32.0670 C   0  0  0  0  0  0  0  0  0  0  0  0
   -7.5720   17.8880  -32.7590 C   0  0  0  0  0  0  0  0  0  0  0  0
   -6.3470   17.9830  -33.4330 C   0  0  0  0  0  0  0  0  0  0  0  0
   -5.7950   16.8410  -34.1320 N   0  0  0  0  0  0  0  0  0  0  0  0
   -4.4550   16.9060  -34.7270 C   0  0  0  0  0  0  0  0  0  0  0  0
   -6.5530   15.5880  -34.2110 C   0  0  0  0  0  0  0  0  0  0  0  0
   -5.6530   19.2020  -33.3880 C   0  0  0  0  0  0  0  0  0  0  0  0
   -6.1690   20.3200  -32.6970 C   0  0  0  0  0  0  0  0  0  0  0  0
   -0.9460   26.2057  -22.7451 H   0  0  0  0  0  0  0  0  0  0  0  0
    0.1421   27.2067  -23.7652 H   0  0  0  0  0  0  0  0  0  0  0  0
   -1.6270   27.5180  -23.7652 H   0  0  0  0  0  0  0  0  0  0  0  0
   -0.2501   25.9373  -25.6106 H   0  0  0  0  0  0  0  0  0  0  0  0
   -0.9304   24.7270  -24.4767 H   0  0  0  0  0  0  0  0  0  0  0  0
   -2.3240   26.1730  -27.4520 H   0  0  0  0  0  0  0  0  0  0  0  0
   -3.2646   23.5903  -26.3314 H   0  0  0  0  0  0  0  0  0  0  0  0
   -4.3643   25.0131  -26.4330 H   0  0  0  0  0  0  0  0  0  0  0  0
   -3.6883   23.1572  -28.5050 H   0  0  0  0  0  0  0  0  0  0  0  0
   -4.6980   24.6410  -28.6271 H   0  0  0  0  0  0  0  0  0  0  0  0
   -1.0303   24.3191  -30.1887 H   0  0  0  0  0  0  0  0  0  0  0  0
   -0.9696   24.0005  -28.4245 H   0  0  0  0  0  0  0  0  0  0  0  0
   -1.5727   21.8689  -28.9371 H   0  0  0  0  0  0  0  0  0  0  0  0
   -3.2021   22.5291  -29.2807 H   0  0  0  0  0  0  0  0  0  0  0  0
   -2.6238   20.3113  -30.8680 H   0  0  0  0  0  0  0  0  0  0  0  0
   -3.9109   21.5600  -30.9271 H   0  0  0  0  0  0  0  0  0  0  0  0
   -2.1236   21.7872  -33.2367 H   0  0  0  0  0  0  0  0  0  0  0  0
   -2.8207   20.1214  -33.0995 H   0  0  0  0  0  0  0  0  0  0  0  0
   -4.2180   22.1470  -34.2880 H   0  0  0  0  0  0  0  0  0  0  0  0
   -4.1900   23.8511  -32.1852 H   0  0  0  0  0  0  0  0  0  0  0  0
   -4.9494   25.6463  -30.6426 H   0  0  0  0  0  0  0  0  0  0  0  0
   -7.0563   25.3730  -29.3500 H   0  0  0  0  0  0  0  0  0  0  0  0
   -8.4562   23.3418  -29.6527 H   0  0  0  0  0  0  0  0  0  0  0  0
   -9.3454   21.2789  -29.7770 H   0  0  0  0  0  0  0  0  0  0  0  0
   -9.8803   22.1632  -31.2462 H   0  0  0  0  0  0  0  0  0  0  0  0
   -9.8328   20.3675  -31.2462 H   0  0  0  0  0  0  0  0  0  0  0  0
   -9.0518   18.8697  -31.5352 H   0  0  0  0  0  0  0  0  0  0  0  0
   -8.1284   16.9393  -32.7766 H   0  0  0  0  0  0  0  0  0  0  0  0
   -3.7002   16.9426  -33.9276 H   0  0  0  0  0  0  0  0  0  0  0  0
   -4.2867   16.0150  -35.3497 H   0  0  0  0  0  0  0  0  0  0  0  0
   -4.3737   17.8091  -35.3497 H   0  0  0  0  0  0  0  0  0  0  0  0
   -6.7714   15.2269  -33.1952 H   0  0  0  0  0  0  0  0  0  0  0  0
   -7.4965   15.7635  -34.7485 H   0  0  0  0  0  0  0  0  0  0  0  0
   -5.9596   14.8337  -34.7485 H   0  0  0  0  0  0  0  0  0  0  0  0
   -4.6848   19.2884  -33.9029 H   0  0  0  0  0  0  0  0  0  0  0  0
  1  2  1  0
  2  3  1  0
  3  4  1  0
  4  5  1  0
  5  6  1  0
  6  7  1  0
  7  8  1  0
  8  9  1  0
  9 10  1  0
 10 11  1  0
 11 12  1  0
 12 13  1  0
 13 14  1  0
 14 15  2  0
 15 16  1  0
 16 17  2  0
 17 18  1  0
 18 19  2  0
 19 20  1  0
 20 21  2  0
 21 22  1  0
 21 23  1  0
 23 24  2  0
 24 25  1  0
 25 26  2  0
 26 27  1  0
 27 28  1  0
 27 29  1  0
 26 30  1  0
 30 31  2  0
 31 14  1  0
 20 15  1  0
 31 23  1  0
  1 32  1  0
  1 33  1  0
  1 34  1  0
  2 35  1  0
  2 36  1  0
  4 37  1  0
  5 38  1  0
  5 39  1  0
  6 40  1  0
  6 41  1  0
  8 42  1  0
  8 43  1  0
  9 44  1  0
  9 45  1  0
 11 46  1  0
 11 47  1  0
 12 48  1  0
 12 49  1  0
 13 50  1  0
 16 51  1  0
 17 52  1  0
 18 53  1  0
 19 54  1  0
 22 55  1  0
 22 56  1  0
 22 57  1  0
 24 58  1  0
 25 59  1  0
 28 60  1  0
 28 61  1  0
 28 62  1  0
 29 63  1  0
 29 64  1  0
 29 65  1  0
 30 66  1  0
M  CHG  1  21   1
M  END
>  <UniqueID>  (4) 
4

>  <SMILES>  (4) 
CCONCCOCCOCCNc1c2ccccc2[n+](C)c2ccc(N(C)C)cc12

>  <Energy>  (4) 
85.69740383038628

>  <Genealogy>  (4) 
CCONCCOCCOCCNc1c2ccccc2[n+](C)c2ccc(N(C)C)cc12 (3D coordinates assigned)
CCONCCOCCOCCNc1c2ccccc2[n+](C)c2ccc(N(C)C)cc12 (optimized conformer: 85.69740383038628 kcal/mol)

>  <smiles>  (4) 
CCONCCOCCOCCNc1c2ccccc2[n+](C)c2ccc(N(C)C)cc12

>  <score_type>  (4) 
oracle

>  <origin>  (4) 
adg

>  <m_score__min__energy>  (4) 
-8.9299999999999997

>  <m_primary>  (4) 
energy

$$$$
4:0
     RDKit          3D

 57 59  0  0  0  0  0  0  0  0999 V2000
   -0.1950   20.3990  -34.9660 C   0  0  0  0  0  0  0  0  0  0  0  0
   -1.5040   20.2010  -34.2060 C   0  0  0  0  0  0  0  0  0  0  0  0
   -2.0650   21.4990  -33.8060 N   0  0  0  0  0  0  0  0  0  0  0  0
   -2.1610   21.6200  -32.3450 C   0  0  0  0  0  0  0  0  0  0  0  0
   -3.5740   21.2730  -31.8670 C   0  0  0  0  0  0  0  0  0  0  0  0
   -4.5650   21.4710  -32.9230 N   0  0  0  0  0  0  0  0  0  0  0  0
   -5.7820   20.7140  -32.9100 C   0  0  0  0  0  0  0  0  0  0  0  0
   -5.7410   19.3740  -33.3350 C   0  0  0  0  0  0  0  0  0  0  0  0
   -4.5800   18.8380  -33.9380 C   0  0  0  0  0  0  0  0  0  0  0  0
   -4.5580   17.5250  -34.3990 C   0  0  0  0  0  0  0  0  0  0  0  0
   -5.6890   16.7270  -34.2790 C   0  0  0  0  0  0  0  0  0  0  0  0
   -6.8370   17.2270  -33.6650 C   0  0  0  0  0  0  0  0  0  0  0  0
   -6.8730   18.5480  -33.1480 C   0  0  0  0  0  0  0  0  0  0  0  0
   -7.9730   19.0320  -32.4720 N   0  0  0  0  0  0  0  0  0  0  0  0
   -8.9960   18.0890  -31.9630 C   0  0  0  0  0  0  0  0  0  0  0  0
   -8.1080   20.3910  -32.2500 C   0  0  0  0  0  0  0  0  0  0  0  0
   -9.3440   20.9320  -31.8260 C   0  0  0  0  0  0  0  0  0  0  0  0
   -9.4870   22.2850  -31.5690 C   0  0  0  0  0  0  0  0  0  0  0  0
   -8.4250   23.1500  -31.7610 C   0  0  0  0  0  0  0  0  0  0  0  0
   -7.1800   22.6840  -32.2190 C   0  0  0  0  0  0  0  0  0  0  0  0
   -6.1580   23.6520  -32.5430 N   0  0  0  0  0  0  0  0  0  0  0  0
   -5.4620   24.5140  -31.5750 C   0  0  0  0  0  0  0  0  0  0  0  0
   -5.9390   24.2950  -30.1210 C   0  0  0  0  0  0  0  0  0  0  0  0
   -6.4680   25.5810  -29.4710 C   0  0  0  0  0  0  0  0  0  0  0  0
   -4.7910   23.7250  -29.2770 C   0  0  0  0  0  0  0  0  0  0  0  0
   -7.0050   21.2790  -32.4630 C   0  0  0  0  0  0  0  0  0  0  0  0
    0.6299   20.5238  -34.2491 H   0  0  0  0  0  0  0  0  0  0  0  0
   -0.0015   19.5199  -35.5983 H   0  0  0  0  0  0  0  0  0  0  0  0
   -0.2702   21.2960  -35.5983 H   0  0  0  0  0  0  0  0  0  0  0  0
   -2.2238   19.6790  -34.8536 H   0  0  0  0  0  0  0  0  0  0  0  0
   -1.3060   19.6042  -33.3034 H   0  0  0  0  0  0  0  0  0  0  0  0
   -3.0330   21.5590  -34.2010 H   0  0  0  0  0  0  0  0  0  0  0  0
   -1.4419   20.9315  -31.8772 H   0  0  0  0  0  0  0  0  0  0  0  0
   -1.9350   22.6580  -32.0595 H   0  0  0  0  0  0  0  0  0  0  0  0
   -3.5950   20.2195  -31.5512 H   0  0  0  0  0  0  0  0  0  0  0  0
   -3.8266   21.9402  -31.0297 H   0  0  0  0  0  0  0  0  0  0  0  0
   -4.2880   21.9290  -33.8210 H   0  0  0  0  0  0  0  0  0  0  0  0
   -3.6833   19.4663  -34.0441 H   0  0  0  0  0  0  0  0  0  0  0  0
   -3.6448   17.1189  -34.8585 H   0  0  0  0  0  0  0  0  0  0  0  0
   -5.6789   15.6986  -34.6691 H   0  0  0  0  0  0  0  0  0  0  0  0
   -7.7281   16.5877  -33.5802 H   0  0  0  0  0  0  0  0  0  0  0  0
   -8.9872   18.0971  -30.8631 H   0  0  0  0  0  0  0  0  0  0  0  0
   -9.9889   18.3952  -32.3240 H   0  0  0  0  0  0  0  0  0  0  0  0
   -8.7714   17.0745  -32.3240 H   0  0  0  0  0  0  0  0  0  0  0  0
  -10.2090   20.2646  -31.6978 H   0  0  0  0  0  0  0  0  0  0  0  0
  -10.4511   22.6743  -31.2099 H   0  0  0  0  0  0  0  0  0  0  0  0
   -8.5568   24.2218  -31.5516 H   0  0  0  0  0  0  0  0  0  0  0  0
   -6.0710   23.9400  -33.5420 H   0  0  0  0  0  0  0  0  0  0  0  0
   -4.3842   24.3003  -31.6265 H   0  0  0  0  0  0  0  0  0  0  0  0
   -5.6863   25.5573  -31.8419 H   0  0  0  0  0  0  0  0  0  0  0  0
   -6.7750   23.5811  -30.1595 H   0  0  0  0  0  0  0  0  0  0  0  0
   -6.4273   25.4820  -28.3762 H   0  0  0  0  0  0  0  0  0  0  0  0
   -5.8473   26.4329  -29.7855 H   0  0  0  0  0  0  0  0  0  0  0  0
   -7.5085   25.7496  -29.7855 H   0  0  0  0  0  0  0  0  0  0  0  0
   -5.0276   23.8425  -28.2092 H   0  0  0  0  0  0  0  0  0  0  0  0
   -4.6607   22.6575  -29.5084 H   0  0  0  0  0  0  0  0  0  0  0  0
   -3.8619   24.2664  -29.5084 H   0  0  0  0  0  0  0  0  0  0  0  0
  1  2  1  0
  2  3  1  0
  3  4  1  0
  4  5  1  0
  5  6  1  0
  6  7  1  0
  7  8  2  0
  8  9  1  0
  9 10  2  0
 10 11  1  0
 11 12  2  0
 12 13  1  0
 13 14  2  0
 14 15  1  0
 14 16  1  0
 16 17  2  0
 17 18  1  0
 18 19  2  0
 19 20  1  0
 20 21  1  0
 21 22  1  0
 22 23  1  0
 23 24  1  0
 23 25  1  0
 20 26  2  0
 26  7  1  0
 13  8  1  0
 26 16  1  0
  1 27  1  0
  1 28  1  0
  1 29  1  0
  2 30  1  0
  2 31  1  0
  3 32  1  0
  4 33  1  0
  4 34  1  0
  5 35  1  0
  5 36  1  0
  6 37  1  0
  9 38  1  0
 10 39  1  0
 11 40  1  0
 12 41  1  0
 15 42  1  0
 15 43  1  0
 15 44  1  0
 17 45  1  0
 18 46  1  0
 19 47  1  0
 21 48  1  0
 22 49  1  0
 22 50  1  0
 23 51  1  0
 24 52  1  0
 24 53  1  0
 24 54  1  0
 25 55  1  0
 25 56  1  0
 25 57  1  0
M  CHG  1  14   1
M  END
>  <UniqueID>  (5) 
5

>  <SMILES>  (5) 
CCNCCNc1c2ccccc2[n+](C)c2cccc(NCC(C)C)c12

>  <Energy>  (5) 
82.26279144453343

>  <Genealogy>  (5) 
CCNCCNc1c2ccccc2[n+](C)c2cccc(NCC(C)C)c12 (3D coordinates assigned)
CCNCCNc1c2ccccc2[n+](C)c2cccc(NCC(C)C)c12 (optimized conformer: 82.26279144453343 kcal/mol)

>  <smiles>  (5) 
CCNCCNc1c2ccccc2[n+](C)c2cccc(NCC(C)C)c12

>  <score_type>  (5) 
oracle

>  <origin>  (5) 
adg

>  <m_score__min__energy>  (5) 
-8.6999999999999993

>  <m_primary>  (5) 
energy

$$$$
5:0
     RDKit          3D

 57 60  0  0  0  0  0  0  0  0999 V2000
    0.3000   26.9310  -25.4880 C   0  0  0  0  0  0  0  0  0  0  0  0
    0.0770   25.4140  -25.3610 C   0  0  0  0  0  0  0  0  0  0  0  0
   -0.9530   24.8330  -26.2750 N   0  0  1  0  0  0  0  0  0  0  0  0
   -0.6400   25.1010  -27.7060 C   0  0  0  0  0  0  0  0  0  0  0  0
   -1.7000   24.4420  -28.6280 C   0  0  0  0  0  0  0  0  0  0  0  0
   -2.7150   23.7080  -27.8220 N   0  0  1  0  0  0  0  0  0  0  0  0
   -3.7170   22.9850  -28.6750 C   0  0  0  0  0  0  0  0  0  0  0  0
   -4.1180   23.6390  -30.0240 C   0  0  0  0  0  0  0  0  0  0  0  0
   -5.3330   23.0340  -30.6760 C   0  0  0  0  0  0  0  0  0  0  0  0
   -6.6050   23.5750  -30.4400 C   0  0  0  0  0  0  0  0  0  0  0  0
   -7.7370   22.9930  -31.0120 C   0  0  0  0  0  0  0  0  0  0  0  0
   -7.6150   21.8680  -31.8420 C   0  0  0  0  0  0  0  0  0  0  0  0
   -6.3390   21.3180  -32.0920 C   0  0  0  0  0  0  0  0  0  0  0  0
   -5.2050   21.9220  -31.5230 C   0  0  0  0  0  0  0  0  0  0  0  0
   -6.1700   20.1030  -32.9870 C   0  0  0  0  0  0  0  0  0  0  0  0
   -6.8320   18.7910  -32.4790 C   0  0  0  0  0  0  0  0  0  0  0  0
   -8.2990   18.7410  -32.6290 N   0  0  0  0  0  0  0  0  0  0  0  0
   -9.0060   19.7720  -31.8390 C   0  0  0  0  0  0  0  0  0  0  0  0
   -8.8490   21.2010  -32.3900 C   0  0  0  0  0  0  0  0  0  0  0  0
   -1.9990   22.6890  -27.0030 C   0  0  0  0  0  0  0  0  0  0  0  0
   -0.9630   23.3580  -26.0740 C   0  0  0  0  0  0  0  0  0  0  0  0
   -3.3710   24.6610  -26.8810 C   0  0  0  0  0  0  0  0  0  0  0  0
   -2.3180   25.3450  -25.9710 C   0  0  0  0  0  0  0  0  0  0  0  0
    0.3656   27.3772  -24.4847 H   0  0  0  0  0  0  0  0  0  0  0  0
    1.2355   27.1196  -26.0350 H   0  0  0  0  0  0  0  0  0  0  0  0
   -0.5417   27.3808  -26.0350 H   0  0  0  0  0  0  0  0  0  0  0  0
    1.0341   24.9129  -25.5680 H   0  0  0  0  0  0  0  0  0  0  0  0
   -0.2999   25.2501  -24.3407 H   0  0  0  0  0  0  0  0  0  0  0  0
   -0.6361   26.1874  -27.8782 H   0  0  0  0  0  0  0  0  0  0  0  0
    0.3474   24.6759  -27.9394 H   0  0  0  0  0  0  0  0  0  0  0  0
   -2.2026   25.2236  -29.2166 H   0  0  0  0  0  0  0  0  0  0  0  0
   -1.1942   23.7282  -29.2948 H   0  0  0  0  0  0  0  0  0  0  0  0
   -3.3008   21.9923  -28.9015 H   0  0  0  0  0  0  0  0  0  0  0  0
   -4.6418   22.9844  -28.0794 H   0  0  0  0  0  0  0  0  0  0  0  0
   -4.3209   24.7047  -29.8420 H   0  0  0  0  0  0  0  0  0  0  0  0
   -3.2777   23.4721  -30.7139 H   0  0  0  0  0  0  0  0  0  0  0  0
   -6.7111   24.4635  -29.8002 H   0  0  0  0  0  0  0  0  0  0  0  0
   -8.7312   23.4187  -30.8110 H   0  0  0  0  0  0  0  0  0  0  0  0
   -4.2057   21.5188  -31.7438 H   0  0  0  0  0  0  0  0  0  0  0  0
   -6.6060   20.3431  -33.9679 H   0  0  0  0  0  0  0  0  0  0  0  0
   -5.0891   19.9007  -33.0152 H   0  0  0  0  0  0  0  0  0  0  0  0
   -6.4014   17.9499  -33.0421 H   0  0  0  0  0  0  0  0  0  0  0  0
   -6.6287   18.7390  -31.3992 H   0  0  0  0  0  0  0  0  0  0  0  0
   -8.6680   17.7860  -32.4100 H   0  0  0  0  0  0  0  0  0  0  0  0
   -8.5230   18.9160  -33.6360 H   0  0  0  0  0  0  0  0  0  0  0  0
  -10.0773   19.5226  -31.8250 H   0  0  0  0  0  0  0  0  0  0  0  0
   -8.5564   19.7671  -30.8351 H   0  0  0  0  0  0  0  0  0  0  0  0
   -8.7745   21.1557  -33.4865 H   0  0  0  0  0  0  0  0  0  0  0  0
   -9.7263   21.7892  -32.0827 H   0  0  0  0  0  0  0  0  0  0  0  0
   -2.7301   22.1402  -26.3911 H   0  0  0  0  0  0  0  0  0  0  0  0
   -1.4715   22.0012  -27.6802 H   0  0  0  0  0  0  0  0  0  0  0  0
   -1.2206   23.1377  -25.0275 H   0  0  0  0  0  0  0  0  0  0  0  0
    0.0349   22.9612  -26.3124 H   0  0  0  0  0  0  0  0  0  0  0  0
   -3.9031   25.4308  -27.4592 H   0  0  0  0  0  0  0  0  0  0  0  0
   -4.0768   24.1034  -26.2478 H   0  0  0  0  0  0  0  0  0  0  0  0
   -2.3433   26.4314  -26.1418 H   0  0  0  0  0  0  0  0  0  0  0  0
   -2.5561   25.1200  -24.9209 H   0  0  0  0  0  0  0  0  0  0  0  0
  1  2  1  0
  3  2  1  1
  3  4  1  0
  4  5  1  0
  5  6  1  0
  6  7  1  6
  7  8  1  0
  8  9  1  0
  9 10  2  0
 10 11  1  0
 11 12  2  0
 12 13  1  0
 13 14  2  0
 13 15  1  0
 15 16  1  0
 16 17  1  0
 17 18  1  0
 18 19  1  0
  6 20  1  0
 20 21  1  0
  6 22  1  0
 22 23  1  0
 21  3  1  0
 23  3  1  0
 14  9  1  0
 19 12  1  0
  1 24  1  0
  1 25  1  0
  1 26  1  0
  2 27  1  0
  2 28  1  0
  4 29  1  0
  4 30  1  0
  5 31  1  0
  5 32  1  0
  7 33  1  0
  7 34  1  0
  8 35  1  0
  8 36  1  0
 10 37  1  0
 11 38  1  0
 14 39  1  0
 15 40  1  0
 15 41  1  0
 16 42  1  0
 16 43  1  0
 17 44  1  0
 17 45  1  0
 18 46  1  0
 18 47  1  0
 19 48  1  0
 19 49  1  0
 20 50  1  0
 20 51  1  0
 21 52  1  0
 21 53  1  0
 22 54  1  0
 22 55  1  0
 23 56  1  0
 23 57  1  0
M  CHG  3   3   1   6   1  17   1
M  END
>  <UniqueID>  (6) 
6

>  <SMILES>  (6) 
CC[N+]12CC[N+](CCc3ccc4c(c3)CC[NH2+]CC4)(CC1)CC2

>  <Energy>  (6) 
97.75491669701715

>  <Genealogy>  (6) 
CC[N+]12CC[N+](CCc3ccc4c(c3)CC[NH2+]CC4)(CC1)CC2 (protonated)
CC[N+]12CC[N+](CCc3ccc4c(c3)CC[NH2+]CC4)(CC1)CC2 (3D coordinates assigned)
CC[N+]12CC[N+](CCc3ccc4c(c3)CC[NH2+]CC4)(CC1)CC2 (nonaromatic ring conformer: 97.75491669701715 kcal/mol)

>  <smiles>  (6) 
CC[N+]12CC[N+](CCc3ccc4c(c3)CCNCC4)(CC1)CC2

>  <score_type>  (6) 
oracle

>  <origin>  (6) 
adg

>  <m_score__min__energy>  (6) 
-4.3899999999999997

>  <m_primary>  (6) 
energy

$$$$
6:0
     RDKit          3D

 65 67  0  0  0  0  0  0  0  0999 V2000
   -2.6570   17.5020  -33.8170 C   0  0  0  0  0  0  0  0  0  0  0  0
   -1.1320   17.4760  -33.6890 C   0  0  0  0  0  0  0  0  0  0  0  0
   -0.6730   17.7570  -32.3150 N   0  0  0  0  0  0  0  0  0  0  0  0
   -0.1130   16.5840  -31.6130 C   0  0  0  0  0  0  0  0  0  0  0  0
    0.5390   16.9000  -30.2470 C   0  0  0  0  0  0  0  0  0  0  0  0
    0.8680   18.3830  -30.0460 C   0  0  0  0  0  0  0  0  0  0  0  0
   -0.2900   19.1640  -30.2730 O   0  0  0  0  0  0  0  0  0  0  0  0
    0.0590   20.5290  -30.3430 C   0  0  0  0  0  0  0  0  0  0  0  0
   -0.4930   21.1380  -31.6370 C   0  0  0  0  0  0  0  0  0  0  0  0
   -1.2810   20.2240  -32.3800 O   0  0  0  0  0  0  0  0  0  0  0  0
   -1.6760   20.7660  -33.6270 C   0  0  0  0  0  0  0  0  0  0  0  0
   -3.1530   21.1570  -33.5780 C   0  0  0  0  0  0  0  0  0  0  0  0
   -3.6060   21.3920  -32.2050 N   0  0  0  0  0  0  0  0  0  0  0  0
   -4.9890   21.6180  -31.8830 C   0  0  0  0  0  0  0  0  0  0  0  0
   -5.9360   20.6180  -32.1680 C   0  0  0  0  0  0  0  0  0  0  0  0
   -5.5300   19.3380  -32.6040 C   0  0  0  0  0  0  0  0  0  0  0  0
   -6.4680   18.3370  -32.8440 C   0  0  0  0  0  0  0  0  0  0  0  0
   -7.8200   18.5870  -32.6400 C   0  0  0  0  0  0  0  0  0  0  0  0
   -8.2450   19.8490  -32.2260 C   0  0  0  0  0  0  0  0  0  0  0  0
   -7.3160   20.9030  -32.0200 C   0  0  0  0  0  0  0  0  0  0  0  0
   -7.7260   22.1800  -31.6960 N   0  0  0  0  0  0  0  0  0  0  0  0
   -9.1400   22.5700  -31.8850 C   0  0  0  0  0  0  0  0  0  0  0  0
   -6.8110   23.0920  -31.2010 C   0  0  0  0  0  0  0  0  0  0  0  0
   -7.2360   24.2960  -30.5880 C   0  0  0  0  0  0  0  0  0  0  0  0
   -6.3200   25.2120  -30.0880 C   0  0  0  0  0  0  0  0  0  0  0  0
   -4.9610   24.9370  -30.1320 C   0  0  0  0  0  0  0  0  0  0  0  0
   -4.4900   23.7330  -30.6790 C   0  0  0  0  0  0  0  0  0  0  0  0
   -3.1260   23.4050  -30.6050 O   0  0  0  0  0  0  0  0  0  0  0  0
   -2.4520   22.9530  -29.4350 C   0  0  0  0  0  0  0  0  0  0  0  0
   -5.4130   22.8200  -31.2680 C   0  0  0  0  0  0  0  0  0  0  0  0
   -3.1090   17.5097  -32.8142 H   0  0  0  0  0  0  0  0  0  0  0  0
   -2.9637   18.4055  -34.3644 H   0  0  0  0  0  0  0  0  0  0  0  0
   -2.9943   16.6095  -34.3644 H   0  0  0  0  0  0  0  0  0  0  0  0
   -0.7706   16.4799  -33.9844 H   0  0  0  0  0  0  0  0  0  0  0  0
   -0.7293   18.2639  -34.3425 H   0  0  0  0  0  0  0  0  0  0  0  0
    0.0330   18.5260  -32.3460 H   0  0  0  0  0  0  0  0  0  0  0  0
   -1.4760   18.1230  -31.7530 H   0  0  0  0  0  0  0  0  0  0  0  0
   -0.9273   15.8637  -31.4457 H   0  0  0  0  0  0  0  0  0  0  0  0
    0.6877   16.1897  -32.2560 H   0  0  0  0  0  0  0  0  0  0  0  0
   -0.1538   16.5878  -29.4517 H   0  0  0  0  0  0  0  0  0  0  0  0
    1.4929   16.3533  -30.2137 H   0  0  0  0  0  0  0  0  0  0  0  0
    1.2207   18.5429  -29.0164 H   0  0  0  0  0  0  0  0  0  0  0  0
    1.6532   18.6812  -30.7563 H   0  0  0  0  0  0  0  0  0  0  0  0
   -0.3663   21.0599  -29.4786 H   0  0  0  0  0  0  0  0  0  0  0  0
    1.1547   20.6257  -30.3335 H   0  0  0  0  0  0  0  0  0  0  0  0
   -1.1136   22.0088  -31.3791 H   0  0  0  0  0  0  0  0  0  0  0  0
    0.3659   21.4211  -32.2632 H   0  0  0  0  0  0  0  0  0  0  0  0
   -1.0696   21.6572  -33.8463 H   0  0  0  0  0  0  0  0  0  0  0  0
   -1.5261   20.0123  -34.4141 H   0  0  0  0  0  0  0  0  0  0  0  0
   -3.2979   22.0769  -34.1635 H   0  0  0  0  0  0  0  0  0  0  0  0
   -3.7415   20.3269  -33.9959 H   0  0  0  0  0  0  0  0  0  0  0  0
   -2.9060   21.3580  -31.4290 H   0  0  0  0  0  0  0  0  0  0  0  0
   -4.4608   19.1290  -32.7558 H   0  0  0  0  0  0  0  0  0  0  0  0
   -6.1388   17.3479  -33.1952 H   0  0  0  0  0  0  0  0  0  0  0  0
   -8.5568   17.7871  -32.8056 H   0  0  0  0  0  0  0  0  0  0  0  0
   -9.3165   20.0308  -32.0564 H   0  0  0  0  0  0  0  0  0  0  0  0
   -9.6183   22.7019  -30.9033 H   0  0  0  0  0  0  0  0  0  0  0  0
   -9.1879   23.5149  -32.4462 H   0  0  0  0  0  0  0  0  0  0  0  0
   -9.6655   21.7833  -32.4462 H   0  0  0  0  0  0  0  0  0  0  0  0
   -8.3120   24.5095  -30.5065 H   0  0  0  0  0  0  0  0  0  0  0  0
   -6.6734   26.1595  -29.6553 H   0  0  0  0  0  0  0  0  0  0  0  0
   -4.2445   25.6705  -29.7338 H   0  0  0  0  0  0  0  0  0  0  0  0
   -2.9862   23.3112  -28.5426 H   0  0  0  0  0  0  0  0  0  0  0  0
   -2.4248   21.8534  -29.4292 H   0  0  0  0  0  0  0  0  0  0  0  0
   -1.4243   23.3452  -29.4292 H   0  0  0  0  0  0  0  0  0  0  0  0
  1  2  1  0
  2  3  1  0
  3  4  1  0
  4  5  1  0
  5  6  1  0
  6  7  1  0
  7  8  1  0
  8  9  1  0
  9 10  1  0
 10 11  1  0
 11 12  1  0
 12 13  1  0
 13 14  1  0
 14 15  2  0
 15 16  1  0
 16 17  2  0
 17 18  1  0
 18 19  2  0
 19 20  1  0
 20 21  2  0
 21 22  1  0
 21 23  1  0
 23 24  2  0
 24 25  1  0
 25 26  2  0
 26 27  1  0
 27 28  1  0
 28 29  1  0
 27 30  2  0
 30 14  1  0
 20 15  1  0
 30 23  1  0
  1 31  1  0
  1 32  1  0
  1 33  1  0
  2 34  1  0
  2 35  1  0
  3 36  1  0
  3 37  1  0
  4 38  1  0
  4 39  1  0
  5 40  1  0
  5 41  1  0
  6 42  1  0
  6 43  1  0
  8 44  1  0
  8 45  1  0
  9 46  1  0
  9 47  1  0
 11 48  1  0
 11 49  1  0
 12 50  1  0
 12 51  1  0
 13 52  1  0
 16 53  1  0
 17 54  1  0
 18 55  1  0
 19 56  1  0
 22 57  1  0
 22 58  1  0
 22 59  1  0
 24 60  1  0
 25 61  1  0
 26 62  1  0
 29 63  1  0
 29 64  1  0
 29 65  1  0
M  CHG  2   3   1  21   1
M  END
>  <UniqueID>  (7) 
7

>  <SMILES>  (7) 
CC[NH2+]CCCOCCOCCNc1c2ccccc2[n+](C)c2cccc(OC)c12

>  <Energy>  (7) 
87.29914607187513

>  <Genealogy>  (7) 
CC[NH2+]CCCOCCOCCNc1c2ccccc2[n+](C)c2cccc(OC)c12 (protonated)
CC[NH2+]CCCOCCOCCNc1c2ccccc2[n+](C)c2cccc(OC)c12 (3D coordinates assigned)
CC[NH2+]CCCOCCOCCNc1c2ccccc2[n+](C)c2cccc(OC)c12 (optimized conformer: 87.29914607187513 kcal/mol)

>  <smiles>  (7) 
CCNCCCOCCOCCNc1c2ccccc2[n+](C)c2cccc(OC)c12

>  <score_type>  (7) 
oracle

>  <origin>  (7) 
adg

>  <m_score__min__energy>  (7) 
-8.7699999999999996

>  <m_primary>  (7) 
energy

$$$$
7:0
     RDKit          3D

 71 73  0  0  0  0  0  0  0  0999 V2000
   -3.8011   16.3826  -34.7552 H   0  0  0  0  0  0  0  0  0  0  0  0
   -4.5340   17.0900  -34.3400 C   0  0  0  0  0  0  0  0  0  0  0  0
   -5.8670   16.7150  -34.2100 C   0  0  0  0  0  0  0  0  0  0  0  0
   -6.1941   15.7247  -34.5598 H   0  0  0  0  0  0  0  0  0  0  0  0
   -6.7920   17.5910  -33.6370 C   0  0  0  0  0  0  0  0  0  0  0  0
   -7.8404   17.2759  -33.5296 H   0  0  0  0  0  0  0  0  0  0  0  0
   -6.4020   18.8810  -33.1910 C   0  0  0  0  0  0  0  0  0  0  0  0
   -5.0590   19.2880  -33.4250 C   0  0  0  0  0  0  0  0  0  0  0  0
   -4.1280   18.3620  -33.9440 C   0  0  0  0  0  0  0  0  0  0  0  0
   -3.0700   18.6485  -34.0366 H   0  0  0  0  0  0  0  0  0  0  0  0
   -4.6700   20.6090  -33.1150 C   0  0  0  0  0  0  0  0  0  0  0  0
   -3.3270   21.0600  -33.3740 N   0  0  0  0  0  0  0  0  0  0  0  0
   -3.1260   21.5110  -34.2940 H   0  0  0  0  0  0  0  0  0  0  0  0
   -2.2670   21.0220  -32.3620 C   0  0  0  0  0  0  0  0  0  0  0  0
   -2.6238   20.4470  -31.4948 H   0  0  0  0  0  0  0  0  0  0  0  0
   -2.0279   22.0580  -32.0800 H   0  0  0  0  0  0  0  0  0  0  0  0
   -0.9890   20.3690  -32.8970 C   0  0  0  0  0  0  0  0  0  0  0  0
   -1.0122   19.2920  -32.6746 H   0  0  0  0  0  0  0  0  0  0  0  0
   -0.1199   20.8374  -32.4119 H   0  0  0  0  0  0  0  0  0  0  0  0
   -0.8870   20.5540  -34.2990 O   0  0  0  0  0  0  0  0  0  0  0  0
   -0.4170   21.8550  -34.5950 C   0  0  0  0  0  0  0  0  0  0  0  0
    0.2274   22.2070  -33.7759 H   0  0  0  0  0  0  0  0  0  0  0  0
   -1.2730   22.5366  -34.7078 H   0  0  0  0  0  0  0  0  0  0  0  0
    0.3860   21.8250  -35.8990 C   0  0  0  0  0  0  0  0  0  0  0  0
   -0.2398   22.2167  -36.7145 H   0  0  0  0  0  0  0  0  0  0  0  0
    0.6818   20.7850  -36.1012 H   0  0  0  0  0  0  0  0  0  0  0  0
    1.6670   22.6850  -35.7890 C   0  0  0  0  0  0  0  0  0  0  0  0
    2.5208   22.0724  -36.1142 H   0  0  0  0  0  0  0  0  0  0  0  0
    1.7406   23.0031  -34.7386 H   0  0  0  0  0  0  0  0  0  0  0  0
    1.6490   23.9130  -36.5970 N   0  0  0  0  0  0  0  0  0  0  0  0
    1.3860   23.6880  -37.5900 H   0  0  0  0  0  0  0  0  0  0  0  0
    0.8260   25.0220  -36.0920 C   0  0  0  0  0  0  0  0  0  0  0  0
    1.4469   25.6582  -35.4441 H   0  0  0  0  0  0  0  0  0  0  0  0
   -0.0193   24.5908  -35.5356 H   0  0  0  0  0  0  0  0  0  0  0  0
    0.2530   25.8840  -37.2330 C   0  0  0  0  0  0  0  0  0  0  0  0
    0.2055   25.2684  -38.1434 H   0  0  0  0  0  0  0  0  0  0  0  0
    0.9201   26.7511  -37.3477 H   0  0  0  0  0  0  0  0  0  0  0  0
   -1.1550   26.4340  -36.9440 C   0  0  0  0  0  0  0  0  0  0  0  0
   -1.5110   26.0055  -35.9955 H   0  0  0  0  0  0  0  0  0  0  0  0
   -1.7992   26.1508  -37.7894 H   0  0  0  0  0  0  0  0  0  0  0  0
   -1.1870   27.8800  -36.8390 N   0  0  0  0  0  0  0  0  0  0  0  0
   -0.6800   28.6070  -35.8950 C   0  0  0  0  0  0  0  0  0  0  0  0
   -0.9310   28.3220  -34.4280 C   0  0  0  0  0  0  0  0  0  0  0  0
   -0.3282   29.0065  -33.8131 H   0  0  0  0  0  0  0  0  0  0  0  0
   -1.9975   28.4699  -34.2030 H   0  0  0  0  0  0  0  0  0  0  0  0
   -0.6495   27.2827  -34.2030 H   0  0  0  0  0  0  0  0  0  0  0  0
    0.2330   29.7500  -36.2870 C   0  0  0  0  0  0  0  0  0  0  0  0
    1.0935   29.3317  -36.8298 H   0  0  0  0  0  0  0  0  0  0  0  0
    0.7760   30.4770  -35.0500 C   0  0  0  0  0  0  0  0  0  0  0  0
    0.4054   29.9808  -34.1409 H   0  0  0  0  0  0  0  0  0  0  0  0
    1.8756   30.4483  -35.0611 H   0  0  0  0  0  0  0  0  0  0  0  0
    0.4364   31.5232  -35.0611 H   0  0  0  0  0  0  0  0  0  0  0  0
   -0.5020   30.7230  -37.2150 C   0  0  0  0  0  0  0  0  0  0  0  0
   -1.0564   31.4570  -36.6118 H   0  0  0  0  0  0  0  0  0  0  0  0
    0.2281   31.2466  -37.8497 H   0  0  0  0  0  0  0  0  0  0  0  0
   -1.2052   30.1639  -37.8497 H   0  0  0  0  0  0  0  0  0  0  0  0
   -5.6210   21.5010  -32.5800 C   0  0  0  0  0  0  0  0  0  0  0  0
   -5.2700   22.8400  -32.3020 C   0  0  0  0  0  0  0  0  0  0  0  0
   -4.2302   23.1694  -32.4443 H   0  0  0  0  0  0  0  0  0  0  0  0
   -6.2230   23.7490  -31.8500 C   0  0  0  0  0  0  0  0  0  0  0  0
   -5.9342   24.7895  -31.6402 H   0  0  0  0  0  0  0  0  0  0  0  0
   -7.5370   23.3430  -31.6640 C   0  0  0  0  0  0  0  0  0  0  0  0
   -8.2917   24.0672  -31.3233 H   0  0  0  0  0  0  0  0  0  0  0  0
   -7.9040   22.0180  -31.9080 C   0  0  0  0  0  0  0  0  0  0  0  0
   -8.9504   21.7120  -31.7618 H   0  0  0  0  0  0  0  0  0  0  0  0
   -6.9500   21.0570  -32.3420 C   0  0  0  0  0  0  0  0  0  0  0  0
   -7.2870   19.7290  -32.5430 N   0  0  0  0  0  0  0  0  0  0  0  0
   -8.5670   19.2090  -32.0220 C   0  0  0  0  0  0  0  0  0  0  0  0
   -8.5458   19.2176  -30.9222 H   0  0  0  0  0  0  0  0  0  0  0  0
   -9.3924   19.8431  -32.3778 H   0  0  0  0  0  0  0  0  0  0  0  0
   -8.7163   18.1789  -32.3778 H   0  0  0  0  0  0  0  0  0  0  0  0
  1  2  1  0
  2  3  2  0
  3  4  1  0
  3  5  1  0
  5  6  1  0
  5  7  2  0
  7  8  1  0
  8  9  2  0
  9 10  1  0
  8 11  1  0
 11 12  1  0
 12 13  1  0
 12 14  1  0
 14 15  1  0
 14 16  1  0
 14 17  1  0
 17 18  1  0
 17 19  1  0
 17 20  1  0
 20 21  1  0
 21 22  1  0
 21 23  1  0
 21 24  1  0
 24 25  1  0
 24 26  1  0
 24 27  1  0
 27 28  1  0
 27 29  1  0
 27 30  1  0
 30 31  1  0
 30 32  1  0
 32 33  1  0
 32 34  1  0
 32 35  1  0
 35 36  1  0
 35 37  1  0
 35 38  1  0
 38 39  1  0
 38 40  1  0
 38 41  1  0
 41 42  2  0
 42 43  1  0
 43 44  1  0
 43 45  1  0
 43 46  1  0
 42 47  1  0
 47 48  1  0
 47 49  1  0
 49 50  1  0
 49 51  1  0
 49 52  1  0
 47 53  1  0
 53 54  1  0
 53 55  1  0
 53 56  1  0
 11 57  2  0
 57 58  1  0
 58 59  1  0
 58 60  2  0
 60 61  1  0
 60 62  1  0
 62 63  1  0
 62 64  2  0
 64 65  1  0
 64 66  1  0
 66 67  2  0
 67 68  1  0
 68 69  1  0
 68 70  1  0
 68 71  1  0
  9  2  1  0
 66 57  1  0
 67  7  1  0
M  CHG  1  67   1
M  END
>  <UniqueID>  (8) 
8

>  <SMILES>  (8) 
C/C(=N\CCCNCCCOCCNc1c2ccccc2[n+](C)c2ccccc12)C(C)C

>  <Energy>  (8) 
86.78389070877608

>  <Genealogy>  (8) 
C/C(=N\CCCNCCCOCCNc1c2ccccc2[n+](C)c2ccccc12)C(C)C (cis-trans isomerization)
C/C(=N\CCCNCCCOCCNc1c2ccccc2[n+](C)c2ccccc12)C(C)C (3D coordinates assigned)
C/C(=N\CCCNCCCOCCNc1c2ccccc2[n+](C)c2ccccc12)C(C)C (optimized conformer: 86.78389070877608 kcal/mol)

>  <smiles>  (8) 
CC(=NCCCNCCCOCCNc1c2ccccc2[n+](C)c2ccccc12)C(C)C

>  <score_type>  (8) 
oracle

>  <origin>  (8) 
adg

>  <m_score__min__energy>  (8) 
-9.9700000000000006

>  <m_primary>  (8) 
energy

$$$$
8:0
     RDKit          3D

 51 53  0  0  0  0  0  0  0  0999 V2000
   -1.0550   17.8540  -34.3460 C   0  0  0  0  0  0  0  0  0  0  0  0
   -1.1460   19.0400  -33.5650 O   0  0  0  0  0  0  0  0  0  0  0  0
   -2.3290   19.7700  -33.3640 C   0  0  0  0  0  0  0  0  0  0  0  0
   -2.3230   21.1430  -33.0910 C   0  0  0  0  0  0  0  0  0  0  0  0
   -3.5190   21.8200  -32.8710 C   0  0  0  0  0  0  0  0  0  0  0  0
   -4.7560   21.1470  -32.9390 C   0  0  0  0  0  0  0  0  0  0  0  0
   -5.9690   21.8230  -32.7000 C   0  0  0  0  0  0  0  0  0  0  0  0
   -5.9890   23.2610  -32.5880 N   0  0  0  0  0  0  0  0  0  0  0  0
   -6.1230   23.9620  -31.3050 C   0  0  0  0  0  0  0  0  0  0  0  0
   -5.3530   23.2750  -30.1640 C   0  0  0  0  0  0  0  0  0  0  0  0
   -4.5280   24.2110  -29.2530 C   0  0  0  0  0  0  0  0  0  0  0  0
   -4.3910   23.7450  -27.8510 N   0  0  0  0  0  0  0  0  0  0  0  0
   -3.4100   24.5520  -27.1000 C   0  0  0  0  0  0  0  0  0  0  0  0
   -3.9760   22.3300  -27.8400 C   0  0  0  0  0  0  0  0  0  0  0  0
   -7.1460   21.0680  -32.5370 C   0  0  0  0  0  0  0  0  0  0  0  0
   -8.3080   21.6430  -31.9810 C   0  0  0  0  0  0  0  0  0  0  0  0
   -9.4670   20.8900  -31.8140 C   0  0  0  0  0  0  0  0  0  0  0  0
   -9.4790   19.5440  -32.1630 C   0  0  0  0  0  0  0  0  0  0  0  0
   -8.3300   18.9420  -32.6760 C   0  0  0  0  0  0  0  0  0  0  0  0
   -7.1420   19.6900  -32.8810 C   0  0  0  0  0  0  0  0  0  0  0  0
   -5.9900   19.1010  -33.3670 N   0  0  0  0  0  0  0  0  0  0  0  0
   -6.0500   17.7660  -34.0030 C   0  0  0  0  0  0  0  0  0  0  0  0
   -4.7830   19.7630  -33.2550 C   0  0  0  0  0  0  0  0  0  0  0  0
   -3.5470   19.0920  -33.4370 C   0  0  0  0  0  0  0  0  0  0  0  0
   -0.9880   16.9809  -33.6803 H   0  0  0  0  0  0  0  0  0  0  0  0
   -1.9488   17.7635  -34.9807 H   0  0  0  0  0  0  0  0  0  0  0  0
   -0.1578   17.9009  -34.9807 H   0  0  0  0  0  0  0  0  0  0  0  0
   -1.3690   21.6891  -33.0502 H   0  0  0  0  0  0  0  0  0  0  0  0
   -3.4988   22.8955  -32.6408 H   0  0  0  0  0  0  0  0  0  0  0  0
   -5.9580   23.8350  -33.4590 H   0  0  0  0  0  0  0  0  0  0  0  0
   -5.7373   24.9854  -31.4223 H   0  0  0  0  0  0  0  0  0  0  0  0
   -7.1893   23.9548  -31.0348 H   0  0  0  0  0  0  0  0  0  0  0  0
   -6.0835   22.7474  -29.5332 H   0  0  0  0  0  0  0  0  0  0  0  0
   -4.6232   22.6121  -30.6518 H   0  0  0  0  0  0  0  0  0  0  0  0
   -3.5200   24.3071  -29.6827 H   0  0  0  0  0  0  0  0  0  0  0  0
   -5.0724   25.1659  -29.2124 H   0  0  0  0  0  0  0  0  0  0  0  0
   -5.3160   23.7940  -27.3660 H   0  0  0  0  0  0  0  0  0  0  0  0
   -3.5739   24.4172  -26.0207 H   0  0  0  0  0  0  0  0  0  0  0  0
   -2.3919   24.2266  -27.3598 H   0  0  0  0  0  0  0  0  0  0  0  0
   -3.5330   25.6138  -27.3598 H   0  0  0  0  0  0  0  0  0  0  0  0
   -3.8750   21.9856  -26.8002 H   0  0  0  0  0  0  0  0  0  0  0  0
   -4.7336   21.7217  -28.3558 H   0  0  0  0  0  0  0  0  0  0  0  0
   -3.0099   22.2272  -28.3558 H   0  0  0  0  0  0  0  0  0  0  0  0
   -8.2982   22.6997  -31.6755 H   0  0  0  0  0  0  0  0  0  0  0  0
  -10.3738   21.3601  -31.4057 H   0  0  0  0  0  0  0  0  0  0  0  0
  -10.3973   18.9522  -32.0342 H   0  0  0  0  0  0  0  0  0  0  0  0
   -8.3452   17.8708  -32.9255 H   0  0  0  0  0  0  0  0  0  0  0  0
   -6.0849   16.9900  -33.2241 H   0  0  0  0  0  0  0  0  0  0  0  0
   -6.9521   17.6982  -34.6288 H   0  0  0  0  0  0  0  0  0  0  0  0
   -5.1576   17.6175  -34.6288 H   0  0  0  0  0  0  0  0  0  0  0  0
   -3.5481   18.0110  -33.6406 H   0  0  0  0  0  0  0  0  0  0  0  0
  1  2  1  0
  2  3  1  0
  3  4  2  0
  4  5  1  0
  5  6  2  0
  6  7  1  0
  7  8  1  0
  8  9  1  0
  9 10  1  0
 10 11  1  0
 11 12  1  0
 12 13  1  0
 12 14  1  0
  7 15  2  0
 15 16  1  0
 16 17  2  0
 17 18  1  0
 18 19  2  0
 19 20  1  0
 20 21  2  0
 21 22  1  0
 21 23  1  0
 23 24  2  0
 24  3  1  0
 23  6  1  0
 20 15  1  0
  1 25  1  0
  1 26  1  0
  1 27  1  0
  4 28  1  0
  5 29  1  0
  8 30  1  0
  9 31  1  0
  9 32  1  0
 10 33  1  0
 10 34  1  0
 11 35  1  0
 11 36  1  0
 12 37  1  0
 13 38  1  0
 13 39  1  0
 13 40  1  0
 14 41  1  0
 14 42  1  0
 14 43  1  0
 16 44  1  0
 17 45  1  0
 18 46  1  0
 19 47  1  0
 22 48  1  0
 22 49  1  0
 22 50  1  0
 24 51  1  0
M  CHG  2  12   1  21   1
M  END
>  <UniqueID>  (9) 
9

>  <SMILES>  (9) 
COc1ccc2c(NCCC[NH+](C)C)c3ccccc3[n+](C)c2c1

>  <Energy>  (9) 
77.96764919473166

>  <Genealogy>  (9) 
COc1ccc2c(NCCC[NH+](C)C)c3ccccc3[n+](C)c2c1 (protonated)
COc1ccc2c(NCCC[NH+](C)C)c3ccccc3[n+](C)c2c1 (3D coordinates assigned)
COc1ccc2c(NCCC[NH+](C)C)c3ccccc3[n+](C)c2c1 (optimized conformer: 77.96764919473166 kcal/mol)

>  <smiles>  (9) 
COc1ccc2c(NCCCN(C)C)c3ccccc3[n+](C)c2c1

>  <score_type>  (9) 
oracle

>  <origin>  (9) 
adg

>  <m_score__min__energy>  (9) 
-6.6600000000000001

>  <m_primary>  (9) 
energy

$$$$
9:0
     RDKit          3D

 29 30  0  0  0  0  0  0  0  0999 V2000
   -9.1170   23.4240  -32.0260 C   0  0  0  0  0  0  0  0  0  0  0  0
   -7.7100   22.9170  -32.0150 C   0  0  0  0  0  0  0  0  0  0  0  0
   -6.6640   23.7380  -31.6020 C   0  0  0  0  0  0  0  0  0  0  0  0
   -5.3680   23.2220  -31.5920 C   0  0  0  0  0  0  0  0  0  0  0  0
   -4.4210   23.9650  -31.2120 O   0  0  0  0  0  0  0  0  0  0  0  0
   -5.1310   21.9300  -31.9890 N   0  0  0  0  0  0  0  0  0  0  0  0
   -3.7520   21.4150  -32.0100 C   0  0  0  0  0  0  0  0  0  0  0  0
   -6.1900   21.1250  -32.3370 C   0  0  0  0  0  0  0  0  0  0  0  0
   -5.9990   19.7440  -32.6780 N   0  0  0  0  0  0  0  0  0  0  0  0
   -6.3840   18.6600  -31.7920 C   0  0  0  0  0  0  0  0  0  0  0  0
   -6.1700   17.3850  -32.5960 C   0  0  0  0  0  0  0  0  0  0  0  0
   -6.1150   17.8190  -34.0580 C   0  0  0  0  0  0  0  0  0  0  0  0
   -5.7790   19.3050  -34.0450 C   0  0  0  0  0  0  0  0  0  0  0  0
   -7.4520   21.6310  -32.3570 N   0  0  0  0  0  0  0  0  0  0  0  0
   -9.4691   23.5509  -30.9916 H   0  0  0  0  0  0  0  0  0  0  0  0
   -9.1539   24.3920  -32.5472 H   0  0  0  0  0  0  0  0  0  0  0  0
   -9.7628   22.7020  -32.5472 H   0  0  0  0  0  0  0  0  0  0  0  0
   -6.8562   24.7749  -31.2892 H   0  0  0  0  0  0  0  0  0  0  0  0
   -3.3947   21.2816  -30.9782 H   0  0  0  0  0  0  0  0  0  0  0  0
   -3.7297   20.4479  -32.5337 H   0  0  0  0  0  0  0  0  0  0  0  0
   -3.1012   22.1307  -32.5337 H   0  0  0  0  0  0  0  0  0  0  0  0
   -5.7532   18.6571  -30.8908 H   0  0  0  0  0  0  0  0  0  0  0  0
   -7.4256   18.7595  -31.4526 H   0  0  0  0  0  0  0  0  0  0  0  0
   -5.2257   16.9021  -32.3041 H   0  0  0  0  0  0  0  0  0  0  0  0
   -6.9748   16.6560  -32.4203 H   0  0  0  0  0  0  0  0  0  0  0  0
   -5.3367   17.2563  -34.5943 H   0  0  0  0  0  0  0  0  0  0  0  0
   -7.0692   17.6271  -34.5704 H   0  0  0  0  0  0  0  0  0  0  0  0
   -4.7299   19.4639  -34.3350 H   0  0  0  0  0  0  0  0  0  0  0  0
   -6.3990   19.8684  -34.7579 H   0  0  0  0  0  0  0  0  0  0  0  0
  1  2  1  0
  2  3  2  0
  3  4  1  0
  4  5  2  0
  4  6  1  0
  6  7  1  0
  6  8  1  0
  8  9  1  0
  9 10  1  0
 10 11  1  0
 11 12  1  0
 12 13  1  0
  8 14  2  0
 14  2  1  0
 13  9  1  0
  1 15  1  0
  1 16  1  0
  1 17  1  0
  3 18  1  0
  7 19  1  0
  7 20  1  0
  7 21  1  0
 10 22  1  0
 10 23  1  0
 11 24  1  0
 11 25  1  0
 12 26  1  0
 12 27  1  0
 13 28  1  0
 13 29  1  0
M  END
>  <UniqueID>  (10) 
10

>  <SMILES>  (10) 
Cc1cc(=O)n(C)c(N2CCCC2)n1

>  <Energy>  (10) 
35.66167179648717

>  <Genealogy>  (10) 
Cc1cc(=O)n(C)c(N2CCCC2)n1 (3D coordinates assigned)
Cc1cc(=O)n(C)c(N2CCCC2)n1 (nonaromatic ring conformer: 35.66167179648717 kcal/mol)

>  <smiles>  (10) 
Cc1cc(=O)n(C)c(N2CCCC2)n1

>  <score_type>  (10) 
oracle

>  <origin>  (10) 
adg

>  <m_score__min__energy>  (10) 
-5.5999999999999996

>  <m_primary>  (10) 
energy

$$$$
10:0
     RDKit          3D

 46 48  0  0  0  0  0  0  0  0999 V2000
   -8.8250   18.4330  -31.6120 C   0  0  0  0  0  0  0  0  0  0  0  0
   -9.4860   19.7380  -32.0520 C   0  0  0  0  0  0  0  0  0  0  0  0
   -9.0790   20.9380  -31.1810 C   0  0  0  0  0  0  0  0  0  0  0  0
   -8.6630   22.1840  -31.9840 C   0  0  0  0  0  0  0  0  0  0  0  0
   -7.2080   22.4140  -31.9180 N   0  0  0  0  0  0  0  0  0  0  0  0
   -6.7410   23.5550  -31.3100 C   0  0  0  0  0  0  0  0  0  0  0  0
   -5.3550   23.8230  -31.1920 C   0  0  0  0  0  0  0  0  0  0  0  0
   -4.9010   25.0660  -30.5130 C   0  0  0  0  0  0  0  0  0  0  0  0
   -5.7280   25.9700  -30.2120 O   0  0  0  0  0  0  0  0  0  0  0  0
   -3.5150   25.2460  -30.2000 N   0  0  0  0  0  0  0  0  0  0  0  0
   -2.8840   24.7720  -28.9690 C   0  0  0  0  0  0  0  0  0  0  0  0
   -3.9430   24.1470  -28.0250 C   0  0  0  0  0  0  0  0  0  0  0  0
   -4.0490   22.6290  -28.2090 C   0  0  0  0  0  0  0  0  0  0  0  0
   -2.7130   21.9240  -27.8990 C   0  0  0  0  0  0  0  0  0  0  0  0
   -1.4760   22.7960  -28.2020 C   0  0  0  0  0  0  0  0  0  0  0  0
   -1.7500   23.7880  -29.3350 C   0  0  0  0  0  0  0  0  0  0  0  0
   -4.4400   22.8870  -31.7260 C   0  0  0  0  0  0  0  0  0  0  0  0
   -3.1930   23.0610  -31.6550 O   0  0  0  0  0  0  0  0  0  0  0  0
   -4.9480   21.7480  -32.3380 C   0  0  0  0  0  0  0  0  0  0  0  0
   -4.1050   20.4820  -33.0500 S   0  0  0  0  0  0  0  0  0  0  0  0
   -5.4790   19.6090  -33.4950 C   0  0  0  0  0  0  0  0  0  0  0  0
   -6.6130   20.3080  -33.0870 C   0  0  0  0  0  0  0  0  0  0  0  0
   -6.3080   21.5160  -32.4310 C   0  0  0  0  0  0  0  0  0  0  0  0
   -8.8013   18.3862  -30.5132 H   0  0  0  0  0  0  0  0  0  0  0  0
   -9.4001   17.5807  -32.0030 H   0  0  0  0  0  0  0  0  0  0  0  0
   -7.7976   18.3924  -32.0030 H   0  0  0  0  0  0  0  0  0  0  0  0
   -9.1957   19.9451  -33.0926 H   0  0  0  0  0  0  0  0  0  0  0  0
  -10.5734   19.6086  -31.9485 H   0  0  0  0  0  0  0  0  0  0  0  0
   -9.9335   21.2075  -30.5429 H   0  0  0  0  0  0  0  0  0  0  0  0
   -8.1982   20.6253  -30.6010 H   0  0  0  0  0  0  0  0  0  0  0  0
   -8.9546   22.0444  -33.0354 H   0  0  0  0  0  0  0  0  0  0  0  0
   -9.1687   23.0580  -31.5477 H   0  0  0  0  0  0  0  0  0  0  0  0
   -7.4628   24.2792  -30.9043 H   0  0  0  0  0  0  0  0  0  0  0  0
   -2.4369   25.6122  -28.4175 H   0  0  0  0  0  0  0  0  0  0  0  0
   -3.6606   24.3600  -26.9834 H   0  0  0  0  0  0  0  0  0  0  0  0
   -4.9203   24.5888  -28.2696 H   0  0  0  0  0  0  0  0  0  0  0  0
   -4.8232   22.2406  -27.5309 H   0  0  0  0  0  0  0  0  0  0  0  0
   -4.3085   22.4274  -29.2588 H   0  0  0  0  0  0  0  0  0  0  0  0
   -2.6988   21.6571  -26.8320 H   0  0  0  0  0  0  0  0  0  0  0  0
   -2.6540   21.0388  -28.5493 H   0  0  0  0  0  0  0  0  0  0  0  0
   -1.2032   23.3560  -27.2954 H   0  0  0  0  0  0  0  0  0  0  0  0
   -0.6562   22.1331  -28.5157 H   0  0  0  0  0  0  0  0  0  0  0  0
   -0.8327   24.3602  -29.5379 H   0  0  0  0  0  0  0  0  0  0  0  0
   -2.0625   23.2182  -30.2225 H   0  0  0  0  0  0  0  0  0  0  0  0
   -5.4792   18.6436  -34.0223 H   0  0  0  0  0  0  0  0  0  0  0  0
   -7.6398   19.9531  -33.2594 H   0  0  0  0  0  0  0  0  0  0  0  0
  1  2  1  0
  2  3  1  0
  3  4  1  0
  4  5  1  0
  5  6  1  0
  6  7  2  0
  7  8  1  0
  8  9  2  0
  8 10  1  0
 10 11  1  0
 11 12  1  0
 12 13  1  0
 13 14  1  0
 14 15  1  0
 15 16  1  0
  7 17  1  0
 17 18  2  0
 17 19  1  0
 19 20  1  0
 20 21  1  0
 21 22  2  0
 22 23  1  0
 23  5  1  0
 16 11  1  0
 23 19  2  0
  1 24  1  0
  1 25  1  0
  1 26  1  0
  2 27  1  0
  2 28  1  0
  3 29  1  0
  3 30  1  0
  4 31  1  0
  4 32  1  0
  6 33  1  0
 11 34  1  0
 12 35  1  0
 12 36  1  0
 13 37  1  0
 13 38  1  0
 14 39  1  0
 14 40  1  0
 15 41  1  0
 15 42  1  0
 16 43  1  0
 16 44  1  0
 21 45  1  0
 22 46  1  0
M  CHG  1  10  -1
M  END
>  <UniqueID>  (11) 
11

>  <SMILES>  (11) 
CCCCn1cc(C(=O)[N-]C2CCCCC2)c(=O)c2sccc21

>  <Energy>  (11) 
77.04287386417361

>  <Genealogy>  (11) 
CCCCn1cc(C(=O)[N-]C2CCCCC2)c(=O)c2sccc21 (protonated)
CCCCn1cc(C(=O)[N-]C2CCCCC2)c(=O)c2sccc21 (3D coordinates assigned)
CCCCn1cc(C(=O)[N-]C2CCCCC2)c(=O)c2sccc21 (nonaromatic ring conformer: 77.04287386417361 kcal/mol)

>  <smiles>  (11) 
CCCCn1cc(C(=O)NC2CCCCC2)c(=O)c2sccc21

>  <score_type>  (11) 
oracle

>  <origin>  (11) 
adg

>  <m_score__min__energy>  (11) 
-10.460000000000001

>  <m_primary>  (11) 
energy

$$$$
11:0
     RDKit          3D

 52 53  0  0  0  0  0  0  0  0999 V2000
   -6.3810   25.2980  -29.7340 C   0  0  0  0  0  0  0  0  0  0  0  0
   -5.3960   25.6730  -30.8370 C   0  0  0  0  0  0  0  0  0  0  0  0
   -4.0880   25.2550  -30.4940 O   0  0  0  0  0  0  0  0  0  0  0  0
   -4.1100   24.2630  -29.4830 C   0  0  0  0  0  0  0  0  0  0  0  0
   -3.0490   24.5530  -28.4230 C   0  0  0  0  0  0  0  0  0  0  0  0
   -2.0160   25.3290  -28.9940 O   0  0  0  0  0  0  0  0  0  0  0  0
   -0.7490   24.8420  -28.5950 C   0  0  0  0  0  0  0  0  0  0  0  0
   -0.6940   23.3190  -28.7430 C   0  0  0  0  0  0  0  0  0  0  0  0
   -0.7870   22.9530  -30.1070 O   0  0  0  0  0  0  0  0  0  0  0  0
   -0.9270   21.5530  -30.2370 C   0  0  0  0  0  0  0  0  0  0  0  0
   -2.3950   21.1700  -30.0580 C   0  0  0  0  0  0  0  0  0  0  0  0
   -2.9760   20.6990  -31.3160 N   0  0  0  0  0  0  0  0  0  0  0  0
   -3.7030   21.5800  -32.1810 C   0  0  0  0  0  0  0  0  0  0  0  0
   -3.8130   22.8020  -31.8900 O   0  0  0  0  0  0  0  0  0  0  0  0
   -4.3590   21.0580  -33.4280 C   0  0  0  0  0  0  0  0  0  0  0  0
   -5.6530   20.3320  -33.0960 C   0  0  0  0  0  0  0  0  0  0  0  0
   -5.7330   18.9360  -33.3410 C   0  0  0  0  0  0  0  0  0  0  0  0
   -4.2590   17.9080  -34.0250 Br  0  0  0  0  0  0  0  0  0  0  0  0
   -6.9130   18.2370  -33.0900 C   0  0  0  0  0  0  0  0  0  0  0  0
   -8.0360   18.8910  -32.6020 C   0  0  0  0  0  0  0  0  0  0  0  0
   -8.0010   20.2660  -32.3510 C   0  0  0  0  0  0  0  0  0  0  0  0
   -9.1500   20.9050  -31.8610 C   0  0  0  0  0  0  0  0  0  0  0  0
   -9.1400   22.2730  -31.6020 C   0  0  0  0  0  0  0  0  0  0  0  0
   -7.9850   23.0160  -31.8280 C   0  0  0  0  0  0  0  0  0  0  0  0
   -6.8300   22.3970  -32.3140 C   0  0  0  0  0  0  0  0  0  0  0  0
   -6.8100   21.0080  -32.5930 C   0  0  0  0  0  0  0  0  0  0  0  0
   -5.9170   25.4747  -28.7524 H   0  0  0  0  0  0  0  0  0  0  0  0
   -7.2877   25.9139  -29.8271 H   0  0  0  0  0  0  0  0  0  0  0  0
   -6.6486   24.2351  -29.8271 H   0  0  0  0  0  0  0  0  0  0  0  0
   -5.6985   25.1839  -31.7747 H   0  0  0  0  0  0  0  0  0  0  0  0
   -5.3998   26.7658  -30.9622 H   0  0  0  0  0  0  0  0  0  0  0  0
   -5.1022   24.2525  -29.0082 H   0  0  0  0  0  0  0  0  0  0  0  0
   -3.8970   23.2855  -29.9402 H   0  0  0  0  0  0  0  0  0  0  0  0
   -3.5052   25.1059  -27.5886 H   0  0  0  0  0  0  0  0  0  0  0  0
   -2.6336   23.6053  -28.0497 H   0  0  0  0  0  0  0  0  0  0  0  0
    0.0293   25.2962  -29.2258 H   0  0  0  0  0  0  0  0  0  0  0  0
   -0.5806   25.1052  -27.5403 H   0  0  0  0  0  0  0  0  0  0  0  0
    0.2570   22.9489  -28.3323 H   0  0  0  0  0  0  0  0  0  0  0  0
   -1.5394   22.8762  -28.1959 H   0  0  0  0  0  0  0  0  0  0  0  0
   -0.5857   21.2414  -31.2352 H   0  0  0  0  0  0  0  0  0  0  0  0
   -0.3204   21.0506  -29.4691 H   0  0  0  0  0  0  0  0  0  0  0  0
   -2.4680   20.3695  -29.3071 H   0  0  0  0  0  0  0  0  0  0  0  0
   -2.9501   22.0612  -29.7299 H   0  0  0  0  0  0  0  0  0  0  0  0
   -2.8700   19.6970  -31.5900 H   0  0  0  0  0  0  0  0  0  0  0  0
   -4.5808   21.9013  -34.0985 H   0  0  0  0  0  0  0  0  0  0  0  0
   -3.6734   20.3497  -33.9161 H   0  0  0  0  0  0  0  0  0  0  0  0
   -6.9546   17.1545  -33.2809 H   0  0  0  0  0  0  0  0  0  0  0  0
   -8.9591   18.3239  -32.4116 H   0  0  0  0  0  0  0  0  0  0  0  0
  -10.0647   20.3214  -31.6803 H   0  0  0  0  0  0  0  0  0  0  0  0
  -10.0452   22.7667  -31.2187 H   0  0  0  0  0  0  0  0  0  0  0  0
   -7.9812   24.0967  -31.6229 H   0  0  0  0  0  0  0  0  0  0  0  0
   -5.9234   22.9968  -32.4823 H   0  0  0  0  0  0  0  0  0  0  0  0
  1  2  1  0
  2  3  1  0
  3  4  1  0
  4  5  1  0
  5  6  1  0
  6  7  1  0
  7  8  1  0
  8  9  1  0
  9 10  1  0
 10 11  1  0
 11 12  1  0
 12 13  1  0
 13 14  2  0
 13 15  1  0
 15 16  1  0
 16 17  2  0
 17 18  1  0
 17 19  1  0
 19 20  2  0
 20 21  1  0
 21 22  2  0
 22 23  1  0
 23 24  2  0
 24 25  1  0
 25 26  2  0
 26 16  1  0
 26 21  1  0
  1 27  1  0
  1 28  1  0
  1 29  1  0
  2 30  1  0
  2 31  1  0
  4 32  1  0
  4 33  1  0
  5 34  1  0
  5 35  1  0
  7 36  1  0
  7 37  1  0
  8 38  1  0
  8 39  1  0
 10 40  1  0
 10 41  1  0
 11 42  1  0
 11 43  1  0
 12 44  1  0
 15 45  1  0
 15 46  1  0
 19 47  1  0
 20 48  1  0
 22 49  1  0
 23 50  1  0
 24 51  1  0
 25 52  1  0
M  END
>  <UniqueID>  (12) 
12

>  <SMILES>  (12) 
CCOCCOCCOCCNC(=O)Cc1c(Br)ccc2ccccc12

>  <Energy>  (12) 
55.5193445313802

>  <Genealogy>  (12) 
CCOCCOCCOCCNC(=O)Cc1c(Br)ccc2ccccc12 (3D coordinates assigned)
CCOCCOCCOCCNC(=O)Cc1c(Br)ccc2ccccc12 (optimized conformer: 55.5193445313802 kcal/mol)

>  <smiles>  (12) 
CCOCCOCCOCCNC(=O)Cc1c(Br)ccc2ccccc12

>  <score_type>  (12) 
oracle

>  <origin>  (12) 
adg

>  <m_score__min__energy>  (12) 
-9.0800000000000001

>  <m_primary>  (12) 
energy

$$$$
12:0
     RDKit          3D

 46 48  0  0  0  0  0  0  0  0999 V2000
   -6.2853   26.0242  -31.3876 H   0  0  0  0  0  0  0  0  0  0  0  0
   -5.5460   25.2360  -31.1820 C   0  0  0  0  0  0  0  0  0  0  0  0
   -4.4330   25.5220  -30.4600 N   0  0  0  0  0  0  0  0  0  0  0  0
   -3.5050   24.5630  -30.1970 C   0  0  0  0  0  0  0  0  0  0  0  0
   -2.4370   24.8370  -29.5090 N   0  0  0  0  0  0  0  0  0  0  0  0
   -2.3800   24.8300  -28.0500 C   0  0  0  0  0  0  0  0  0  0  0  0
   -3.3380   25.1875  -27.6446 H   0  0  0  0  0  0  0  0  0  0  0  0
   -1.5678   25.4910  -27.7131 H   0  0  0  0  0  0  0  0  0  0  0  0
   -2.1160   23.4070  -27.5530 C   0  0  0  0  0  0  0  0  0  0  0  0
   -2.8002   23.1830  -26.7213 H   0  0  0  0  0  0  0  0  0  0  0  0
   -1.0703   23.3394  -27.2183 H   0  0  0  0  0  0  0  0  0  0  0  0
   -2.3300   22.4270  -28.6310 N   0  0  0  0  0  0  0  0  0  0  0  0
   -3.3600   22.3100  -28.7790 H   0  0  0  0  0  0  0  0  0  0  0  0
   -1.9110   22.7800  -29.5230 H   0  0  0  0  0  0  0  0  0  0  0  0
   -1.7700   21.1050  -28.3020 C   0  0  0  0  0  0  0  0  0  0  0  0
   -0.8762   21.2461  -27.6765 H   0  0  0  0  0  0  0  0  0  0  0  0
   -1.5253   20.6004  -29.2483 H   0  0  0  0  0  0  0  0  0  0  0  0
   -2.7650   20.2190  -27.5450 C   0  0  0  0  0  0  0  0  0  0  0  0
   -2.6205   20.3477  -26.4622 H   0  0  0  0  0  0  0  0  0  0  0  0
   -3.7917   20.5074  -27.8147 H   0  0  0  0  0  0  0  0  0  0  0  0
   -2.5971   19.1659  -27.8147 H   0  0  0  0  0  0  0  0  0  0  0  0
   -3.6930   23.2990  -30.6590 N   0  0  0  0  0  0  0  0  0  0  0  0
   -4.7970   22.9570  -31.3800 C   0  0  0  0  0  0  0  0  0  0  0  0
   -4.9470   21.5600  -31.8640 C   0  0  0  0  0  0  0  0  0  0  0  0
   -3.8280   20.7710  -32.1880 C   0  0  0  0  0  0  0  0  0  0  0  0
   -2.8165   21.1891  -32.0780 H   0  0  0  0  0  0  0  0  0  0  0  0
   -3.9890   19.4620  -32.6480 C   0  0  0  0  0  0  0  0  0  0  0  0
   -3.1034   18.8565  -32.8910 H   0  0  0  0  0  0  0  0  0  0  0  0
   -5.2730   18.9120  -32.8030 C   0  0  0  0  0  0  0  0  0  0  0  0
   -5.4440   17.5190  -33.2940 C   0  0  0  0  0  0  0  0  0  0  0  0
   -4.3510   16.6320  -33.3260 C   0  0  0  0  0  0  0  0  0  0  0  0
   -3.3615   16.9717  -32.9861 H   0  0  0  0  0  0  0  0  0  0  0  0
   -4.5150   15.3220  -33.7870 C   0  0  0  0  0  0  0  0  0  0  0  0
   -3.6558   14.6354  -33.8069 H   0  0  0  0  0  0  0  0  0  0  0  0
   -5.7670   14.8840  -34.2220 C   0  0  0  0  0  0  0  0  0  0  0  0
   -5.8931   13.8540  -34.5868 H   0  0  0  0  0  0  0  0  0  0  0  0
   -6.8600   15.7540  -34.1940 C   0  0  0  0  0  0  0  0  0  0  0  0
   -7.8467   15.4070  -34.5347 H   0  0  0  0  0  0  0  0  0  0  0  0
   -6.7020   17.0640  -33.7340 C   0  0  0  0  0  0  0  0  0  0  0  0
   -7.5661   17.7444  -33.7155 H   0  0  0  0  0  0  0  0  0  0  0  0
   -6.3920   19.7020  -32.4920 C   0  0  0  0  0  0  0  0  0  0  0  0
   -7.4034   19.2865  -32.6122 H   0  0  0  0  0  0  0  0  0  0  0  0
   -6.2310   21.0120  -32.0310 C   0  0  0  0  0  0  0  0  0  0  0  0
   -7.1174   21.6198  -31.7967 H   0  0  0  0  0  0  0  0  0  0  0  0
   -5.7530   23.9450  -31.6630 C   0  0  0  0  0  0  0  0  0  0  0  0
   -6.6492   23.7044  -32.2537 H   0  0  0  0  0  0  0  0  0  0  0  0
  1  2  1  0
  2  3  1  0
  3  4  1  0
  4  5  2  0
  5  6  1  0
  6  7  1  0
  6  8  1  0
  6  9  1  0
  9 10  1  0
  9 11  1  0
  9 12  1  0
 12 13  1  0
 12 14  1  0
 12 15  1  0
 15 16  1  0
 15 17  1  0
 15 18  1  0
 18 19  1  0
 18 20  1  0
 18 21  1  0
  4 22  1  0
 22 23  2  0
 23 24  1  0
 24 25  2  0
 25 26  1  0
 25 27  1  0
 27 28  1  0
 27 29  2  0
 29 30  1  0
 30 31  2  0
 31 32  1  0
 31 33  1  0
 33 34  1  0
 33 35  2  0
 35 36  1  0
 35 37  1  0
 37 38  1  0
 37 39  2  0
 39 40  1  0
 29 41  1  0
 41 42  1  0
 41 43  2  0
 43 44  1  0
 23 45  1  0
 45 46  1  0
 45  2  2  0
 43 24  1  0
 39 30  1  0
M  CHG  2   3  -1  12   1
M  END
>  <UniqueID>  (13) 
13

>  <SMILES>  (13) 
CC[NH2+]CC/N=c1/nc(-c2ccc(-c3ccccc3)cc2)cc[n-]1

>  <Energy>  (13) 
53.31811127595198

>  <Genealogy>  (13) 
CC[NH2+]CCN=c1nc(-c2ccc(-c3ccccc3)cc2)cc[n-]1 (protonated)
CC[NH2+]CC/N=c1/nc(-c2ccc(-c3ccccc3)cc2)cc[n-]1 (cis-trans isomerization)
CC[NH2+]CC/N=c1/nc(-c2ccc(-c3ccccc3)cc2)cc[n-]1 (3D coordinates assigned)
CC[NH2+]CC/N=c1/nc(-c2ccc(-c3ccccc3)cc2)cc[n-]1 (optimized conformer: 53.31811127595198 kcal/mol)

>  <smiles>  (13) 
CCNCCN=c1nc(-c2ccc(-c3ccccc3)cc2)cc[nH]1

>  <score_type>  (13) 
oracle

>  <origin>  (13) 
adg

>  <m_score__min__energy>  (13) 
-8.5500000000000007

>  <m_primary>  (13) 
energy

$$$$
13:0
     RDKit          3D

 68 70  0  0  0  0  0  0  0  0999 V2000
   -6.5630   25.0930  -29.9450 C   0  0  0  0  0  0  0  0  0  0  0  0
   -5.3450   25.6400  -30.6840 C   0  0  0  0  0  0  0  0  0  0  0  0
   -4.2190   24.7000  -30.5910 N   0  0  0  0  0  0  0  0  0  0  0  0
   -4.6380   23.2880  -30.6890 C   0  0  0  0  0  0  0  0  0  0  0  0
   -3.8920   22.5000  -31.7870 C   0  0  0  0  0  0  0  0  0  0  0  0
   -4.7210   22.2930  -32.9890 N   0  0  0  0  0  0  0  0  0  0  0  0
   -5.3160   20.9660  -32.9990 C   0  0  0  0  0  0  0  0  0  0  0  0
   -6.6900   20.8490  -32.6240 C   0  0  0  0  0  0  0  0  0  0  0  0
   -7.4300   21.9540  -32.1170 C   0  0  0  0  0  0  0  0  0  0  0  0
   -8.8000   21.8680  -31.8910 C   0  0  0  0  0  0  0  0  0  0  0  0
   -9.4730   20.6860  -32.1590 C   0  0  0  0  0  0  0  0  0  0  0  0
   -8.7640   19.5650  -32.5810 C   0  0  0  0  0  0  0  0  0  0  0  0
   -7.3540   19.6060  -32.7510 C   0  0  0  0  0  0  0  0  0  0  0  0
   -6.6400   18.4680  -33.0290 N   0  0  0  0  0  0  0  0  0  0  0  0
   -7.2550   17.1430  -32.7680 C   0  0  0  0  0  0  0  0  0  0  0  0
   -5.3350   18.5460  -33.4710 C   0  0  0  0  0  0  0  0  0  0  0  0
   -4.7050   17.3840  -33.9840 C   0  0  0  0  0  0  0  0  0  0  0  0
   -3.3630   17.3630  -34.2890 C   0  0  0  0  0  0  0  0  0  0  0  0
   -2.6110   18.5070  -34.1530 C   0  0  0  0  0  0  0  0  0  0  0  0
   -3.1960   19.7280  -33.7930 C   0  0  0  0  0  0  0  0  0  0  0  0
   -1.9840   21.0730  -33.7790 S   0  0  0  0  0  0  0  0  0  0  0  0
   -0.9470   20.4190  -32.4060 C   0  0  0  0  0  0  0  0  0  0  0  0
   -0.6550   21.4810  -31.3370 C   0  0  0  0  0  0  0  0  0  0  0  0
   -1.1050   21.0660  -29.9270 C   0  0  0  0  0  0  0  0  0  0  0  0
   -1.7690   22.2170  -29.1560 C   0  0  0  0  0  0  0  0  0  0  0  0
   -1.2670   23.5880  -29.6360 C   0  0  0  0  0  0  0  0  0  0  0  0
   -1.9060   24.6890  -28.8800 N   0  0  0  0  0  0  0  0  0  0  0  0
   -0.8880   25.5200  -28.2150 C   0  0  0  0  0  0  0  0  0  0  0  0
   -2.8560   24.1750  -27.8800 C   0  0  0  0  0  0  0  0  0  0  0  0
   -4.6010   19.7850  -33.4290 C   0  0  0  0  0  0  0  0  0  0  0  0
   -6.3975   25.1673  -28.8601 H   0  0  0  0  0  0  0  0  0  0  0  0
   -7.4527   25.6780  -30.2211 H   0  0  0  0  0  0  0  0  0  0  0  0
   -6.7168   24.0394  -30.2211 H   0  0  0  0  0  0  0  0  0  0  0  0
   -5.6025   25.7922  -31.7425 H   0  0  0  0  0  0  0  0  0  0  0  0
   -5.0496   26.5943  -30.2235 H   0  0  0  0  0  0  0  0  0  0  0  0
   -3.5130   24.9290  -31.3290 H   0  0  0  0  0  0  0  0  0  0  0  0
   -4.4491   22.8006  -29.7211 H   0  0  0  0  0  0  0  0  0  0  0  0
   -5.7051   23.2846  -30.9561 H   0  0  0  0  0  0  0  0  0  0  0  0
   -2.9889   23.0595  -32.0723 H   0  0  0  0  0  0  0  0  0  0  0  0
   -3.6393   21.5106  -31.3782 H   0  0  0  0  0  0  0  0  0  0  0  0
   -4.2000   22.5000  -33.8530 H   0  0  0  0  0  0  0  0  0  0  0  0
   -5.4670   23.0180  -33.0490 H   0  0  0  0  0  0  0  0  0  0  0  0
   -6.9071   22.8969  -31.8990 H   0  0  0  0  0  0  0  0  0  0  0  0
   -9.3489   22.7373  -31.4999 H   0  0  0  0  0  0  0  0  0  0  0  0
  -10.5651   20.6341  -32.0384 H   0  0  0  0  0  0  0  0  0  0  0  0
   -9.3055   18.6299  -32.7867 H   0  0  0  0  0  0  0  0  0  0  0  0
   -7.3302   16.9811  -31.6826 H   0  0  0  0  0  0  0  0  0  0  0  0
   -8.2600   17.1110  -33.2140 H   0  0  0  0  0  0  0  0  0  0  0  0
   -6.6307   16.3547  -33.2140 H   0  0  0  0  0  0  0  0  0  0  0  0
   -5.3045   16.4754  -34.1424 H   0  0  0  0  0  0  0  0  0  0  0  0
   -2.8925   16.4331  -34.6409 H   0  0  0  0  0  0  0  0  0  0  0  0
   -1.5264   18.4620  -34.3309 H   0  0  0  0  0  0  0  0  0  0  0  0
   -1.4757   19.5781  -31.9335 H   0  0  0  0  0  0  0  0  0  0  0  0
    0.0149   20.1005  -32.8342 H   0  0  0  0  0  0  0  0  0  0  0  0
    0.4290   21.6668  -31.3167 H   0  0  0  0  0  0  0  0  0  0  0  0
   -1.2255   22.3814  -31.6087 H   0  0  0  0  0  0  0  0  0  0  0  0
   -1.8257   20.2398  -30.0161 H   0  0  0  0  0  0  0  0  0  0  0  0
   -0.2081   20.7634  -29.3666 H   0  0  0  0  0  0  0  0  0  0  0  0
   -2.8576   22.1641  -29.3046 H   0  0  0  0  0  0  0  0  0  0  0  0
   -1.5103   22.1108  -28.0921 H   0  0  0  0  0  0  0  0  0  0  0  0
   -0.1775   23.6407  -29.4938 H   0  0  0  0  0  0  0  0  0  0  0  0
   -1.5263   23.7002  -30.6991 H   0  0  0  0  0  0  0  0  0  0  0  0
   -0.9973   25.4308  -27.1241 H   0  0  0  0  0  0  0  0  0  0  0  0
    0.1148   25.1792  -28.5121 H   0  0  0  0  0  0  0  0  0  0  0  0
   -1.0211   26.5707  -28.5121 H   0  0  0  0  0  0  0  0  0  0  0  0
   -2.4730   24.3822  -26.8699 H   0  0  0  0  0  0  0  0  0  0  0  0
   -3.8299   24.6693  -28.0114 H   0  0  0  0  0  0  0  0  0  0  0  0
   -2.9751   23.0894  -28.0114 H   0  0  0  0  0  0  0  0  0  0  0  0
  1  2  1  0
  2  3  1  0
  3  4  1  0
  4  5  1  0
  5  6  1  0
  6  7  1  0
  7  8  2  0
  8  9  1  0
  9 10  2  0
 10 11  1  0
 11 12  2  0
 12 13  1  0
 13 14  2  0
 14 15  1  0
 14 16  1  0
 16 17  2  0
 17 18  1  0
 18 19  2  0
 19 20  1  0
 20 21  1  0
 21 22  1  0
 22 23  1  0
 23 24  1  0
 24 25  1  0
 25 26  1  0
 26 27  1  0
 27 28  1  0
 27 29  1  0
 20 30  2  0
 30  7  1  0
 13  8  1  0
 30 16  1  0
  1 31  1  0
  1 32  1  0
  1 33  1  0
  2 34  1  0
  2 35  1  0
  3 36  1  0
  4 37  1  0
  4 38  1  0
  5 39  1  0
  5 40  1  0
  6 41  1  0
  6 42  1  0
  9 43  1  0
 10 44  1  0
 11 45  1  0
 12 46  1  0
 15 47  1  0
 15 48  1  0
 15 49  1  0
 17 50  1  0
 18 51  1  0
 19 52  1  0
 22 53  1  0
 22 54  1  0
 23 55  1  0
 23 56  1  0
 24 57  1  0
 24 58  1  0
 25 59  1  0
 25 60  1  0
 26 61  1  0
 26 62  1  0
 28 63  1  0
 28 64  1  0
 28 65  1  0
 29 66  1  0
 29 67  1  0
 29 68  1  0
M  CHG  2   6   1  14   1
M  END
>  <UniqueID>  (14) 
14

>  <SMILES>  (14) 
CCNCC[NH2+]c1c2ccccc2[n+](C)c2cccc(SCCCCCN(C)C)c12

>  <Energy>  (14) 
103.65511000217336

>  <Genealogy>  (14) 
CCNCC[NH2+]c1c2ccccc2[n+](C)c2cccc(SCCCCCN(C)C)c12 (protonated)
CCNCC[NH2+]c1c2ccccc2[n+](C)c2cccc(SCCCCCN(C)C)c12 (3D coordinates assigned)
CCNCC[NH2+]c1c2ccccc2[n+](C)c2cccc(SCCCCCN(C)C)c12 (optimized conformer: 103.65511000217336 kcal/mol)

>  <smiles>  (14) 
CCNCCNc1c2ccccc2[n+](C)c2cccc(SCCCCCN(C)C)c12

>  <score_type>  (14) 
oracle

>  <origin>  (14) 
adg

>  <m_score__min__energy>  (14) 
-9.0399999999999991

>  <m_primary>  (14) 
energy

$$$$
14:0
     RDKit          3D

 60 61  0  0  0  0  0  0  0  0999 V2000
   -5.4810   25.5360  -30.6730 C   0  0  0  0  0  0  0  0  0  0  0  0
   -4.4360   24.6040  -30.8470 O   0  0  0  0  0  0  0  0  0  0  0  0
   -4.5060   23.5870  -29.8620 C   0  0  0  0  0  0  0  0  0  0  0  0
   -5.5750   22.5340  -30.2210 C   0  0  0  0  0  0  0  0  0  0  0  0
   -5.6910   22.1710  -31.6590 N   0  0  1  0  0  0  0  0  0  0  0  0
   -4.8820   21.0050  -31.9990 C   0  0  0  0  0  0  0  0  0  0  0  0
   -4.9970   19.9590  -31.3760 O   0  0  0  0  0  0  0  0  0  0  0  0
   -3.8430   21.0840  -33.0880 C   0  0  0  0  0  0  0  0  0  0  0  0
   -2.5060   21.2710  -32.4810 N   0  0  0  0  0  0  0  0  0  0  0  0
   -2.1100   20.1650  -31.5830 C   0  0  0  0  0  0  0  0  0  0  0  0
   -1.6080   18.9230  -32.3470 C   0  0  0  0  0  0  0  0  0  0  0  0
   -1.7700   19.0930  -33.8040 N   0  0  0  0  0  0  0  0  0  0  0  0
   -1.3380   17.8830  -34.5350 C   0  0  0  0  0  0  0  0  0  0  0  0
   -2.0300   16.6450  -33.9540 C   0  0  0  0  0  0  0  0  0  0  0  0
   -3.3220   16.4710  -34.5370 O   0  0  0  0  0  0  0  0  0  0  0  0
   -4.5070   17.0810  -34.0880 C   0  0  0  0  0  0  0  0  0  0  0  0
   -4.9930   18.2850  -34.6400 C   0  0  0  0  0  0  0  0  0  0  0  0
   -6.1800   18.8490  -34.1660 C   0  0  0  0  0  0  0  0  0  0  0  0
   -6.8920   18.2250  -33.1390 C   0  0  0  0  0  0  0  0  0  0  0  0
   -6.4200   17.0330  -32.5850 C   0  0  0  0  0  0  0  0  0  0  0  0
   -5.2330   16.4610  -33.0580 C   0  0  0  0  0  0  0  0  0  0  0  0
   -4.6600   14.9640  -32.3370 Cl  0  0  0  0  0  0  0  0  0  0  0  0
   -1.0220   20.2820  -34.2560 C   0  0  0  0  0  0  0  0  0  0  0  0
   -1.4560   21.5500  -33.4820 C   0  0  0  0  0  0  0  0  0  0  0  0
   -7.0920   22.1640  -32.2000 C   0  0  0  0  0  0  0  0  0  0  0  0
   -7.8780   20.9290  -31.7150 C   0  0  0  0  0  0  0  0  0  0  0  0
   -7.9220   23.4290  -31.8810 C   0  0  0  0  0  0  0  0  0  0  0  0
   -5.6571   25.6931  -29.5986 H   0  0  0  0  0  0  0  0  0  0  0  0
   -5.2025   26.4910  -31.1424 H   0  0  0  0  0  0  0  0  0  0  0  0
   -6.3981   25.1505  -31.1424 H   0  0  0  0  0  0  0  0  0  0  0  0
   -3.5264   23.0924  -29.7869 H   0  0  0  0  0  0  0  0  0  0  0  0
   -4.7818   24.0498  -28.9030 H   0  0  0  0  0  0  0  0  0  0  0  0
   -5.3409   21.6159  -29.6622 H   0  0  0  0  0  0  0  0  0  0  0  0
   -6.5384   22.9951  -29.9580 H   0  0  0  0  0  0  0  0  0  0  0  0
   -5.2130   22.9800  -32.1240 H   0  0  0  0  0  0  0  0  0  0  0  0
   -3.8532   20.1525  -33.6729 H   0  0  0  0  0  0  0  0  0  0  0  0
   -4.0681   21.9341  -33.7488 H   0  0  0  0  0  0  0  0  0  0  0  0
   -1.3052   20.5200  -30.9225 H   0  0  0  0  0  0  0  0  0  0  0  0
   -3.0028   19.8649  -31.0149 H   0  0  0  0  0  0  0  0  0  0  0  0
   -0.5430   18.7678  -32.1198 H   0  0  0  0  0  0  0  0  0  0  0  0
   -2.2023   18.0537  -32.0288 H   0  0  0  0  0  0  0  0  0  0  0  0
   -1.6046   17.9845  -35.5974 H   0  0  0  0  0  0  0  0  0  0  0  0
   -0.2487   17.7691  -34.4332 H   0  0  0  0  0  0  0  0  0  0  0  0
   -1.4164   15.7563  -34.1632 H   0  0  0  0  0  0  0  0  0  0  0  0
   -2.1462   16.7804  -32.8686 H   0  0  0  0  0  0  0  0  0  0  0  0
   -4.4348   18.7819  -35.4472 H   0  0  0  0  0  0  0  0  0  0  0  0
   -6.5547   19.7866  -34.6025 H   0  0  0  0  0  0  0  0  0  0  0  0
   -7.8251   18.6727  -32.7663 H   0  0  0  0  0  0  0  0  0  0  0  0
   -6.9816   16.5430  -31.7760 H   0  0  0  0  0  0  0  0  0  0  0  0
    0.0524   20.1127  -34.0918 H   0  0  0  0  0  0  0  0  0  0  0  0
   -1.2337   20.4389  -35.3240 H   0  0  0  0  0  0  0  0  0  0  0  0
   -0.5781   21.9657  -32.9657 H   0  0  0  0  0  0  0  0  0  0  0  0
   -1.8708   22.2610  -34.2117 H   0  0  0  0  0  0  0  0  0  0  0  0
   -6.9514   22.1368  -33.2906 H   0  0  0  0  0  0  0  0  0  0  0  0
   -7.8898   20.9105  -30.6152 H   0  0  0  0  0  0  0  0  0  0  0  0
   -8.9101   20.9800  -32.0919 H   0  0  0  0  0  0  0  0  0  0  0  0
   -7.3947   20.0156  -32.0919 H   0  0  0  0  0  0  0  0  0  0  0  0
   -8.0014   23.5501  -30.7906 H   0  0  0  0  0  0  0  0  0  0  0  0
   -7.4266   24.3111  -32.3127 H   0  0  0  0  0  0  0  0  0  0  0  0
   -8.9284   23.3257  -32.3127 H   0  0  0  0  0  0  0  0  0  0  0  0
  1  2  1  0
  2  3  1  0
  3  4  1  0
  4  5  1  0
  5  6  1  0
  6  7  2  0
  6  8  1  0
  8  9  1  0
  9 10  1  0
 10 11  1  0
 11 12  1  0
 12 13  1  0
 13 14  1  0
 14 15  1  0
 15 16  1  0
 16 17  2  0
 17 18  1  0
 18 19  2  0
 19 20  1  0
 20 21  2  0
 21 22  1  0
 12 23  1  0
 23 24  1  0
  5 25  1  0
 25 26  1  0
 25 27  1  0
 24  9  1  0
 21 16  1  0
  1 28  1  0
  1 29  1  0
  1 30  1  0
  3 31  1  0
  3 32  1  0
  4 33  1  0
  4 34  1  0
  5 35  1  6
  8 36  1  0
  8 37  1  0
 10 38  1  0
 10 39  1  0
 11 40  1  0
 11 41  1  0
 13 42  1  0
 13 43  1  0
 14 44  1  0
 14 45  1  0
 17 46  1  0
 18 47  1  0
 19 48  1  0
 20 49  1  0
 23 50  1  0
 23 51  1  0
 24 52  1  0
 24 53  1  0
 25 54  1  0
 26 55  1  0
 26 56  1  0
 26 57  1  0
 27 58  1  0
 27 59  1  0
 27 60  1  0
M  CHG  1   5   1
M  END
>  <UniqueID>  (15) 
15

>  <SMILES>  (15) 
COCC[N@@H+](C(=O)CN1CCN(CCOc2ccccc2Cl)CC1)C(C)C

>  <Energy>  (15) 
82.58189453475651

>  <Genealogy>  (15) 
COCC[NH+](C(=O)CN1CCN(CCOc2ccccc2Cl)CC1)C(C)C (protonated)
COCC[N@@H+](C(=O)CN1CCN(CCOc2ccccc2Cl)CC1)C(C)C (chirality)
COCC[N@@H+](C(=O)CN1CCN(CCOc2ccccc2Cl)CC1)C(C)C (3D coordinates assigned)
COCC[N@@H+](C(=O)CN1CCN(CCOc2ccccc2Cl)CC1)C(C)C (nonaromatic ring conformer: 82.58189453475651 kcal/mol)

>  <smiles>  (15) 
COCCN(C(=O)CN1CCN(CCOc2ccccc2Cl)CC1)C(C)C

>  <score_type>  (15) 
oracle

>  <origin>  (15) 
adg

>  <m_score__min__energy>  (15) 
-6.5599999999999996

>  <m_primary>  (15) 
energy

$$$$
15:0
     RDKit          3D

 54 56  0  0  0  0  0  0  0  0999 V2000
   -2.6990   25.0180  -26.5720 C   0  0  0  0  0  0  0  0  0  0  0  0
   -3.3820   24.5490  -27.8540 C   0  0  0  0  0  0  0  0  0  0  0  0
   -2.4770   24.7240  -29.0130 N   0  0  0  0  0  0  0  0  0  0  0  0
   -1.1890   25.3020  -28.5860 C   0  0  0  0  0  0  0  0  0  0  0  0
   -2.2490   23.4460  -29.7250 C   0  0  0  0  0  0  0  0  0  0  0  0
   -3.5190   22.9960  -30.4610 C   0  0  0  0  0  0  0  0  0  0  0  0
   -4.1230   24.1230  -31.1900 N   0  0  0  0  0  0  0  0  0  0  0  0
   -5.4690   24.4660  -30.6960 C   0  0  0  0  0  0  0  0  0  0  0  0
   -6.5500   23.4940  -31.1980 C   0  0  0  0  0  0  0  0  0  0  0  0
   -6.1480   22.8700  -32.4600 N   0  0  0  0  0  0  0  0  0  0  0  0
   -6.0270   21.4420  -32.6000 C   0  0  0  0  0  0  0  0  0  0  0  0
   -7.1650   20.6210  -32.4850 C   0  0  0  0  0  0  0  0  0  0  0  0
   -8.4470   21.1780  -32.2830 C   0  0  0  0  0  0  0  0  0  0  0  0
   -9.5730   20.3630  -32.2070 C   0  0  0  0  0  0  0  0  0  0  0  0
   -9.4460   18.9850  -32.3410 C   0  0  0  0  0  0  0  0  0  0  0  0
   -8.1890   18.4100  -32.5180 C   0  0  0  0  0  0  0  0  0  0  0  0
   -7.0170   19.2100  -32.5560 C   0  0  0  0  0  0  0  0  0  0  0  0
   -5.7580   18.6480  -32.6650 N   0  0  0  0  0  0  0  0  0  0  0  0
   -5.5720   17.1990  -32.4250 C   0  0  0  0  0  0  0  0  0  0  0  0
   -4.6710   19.4440  -32.9740 C   0  0  0  0  0  0  0  0  0  0  0  0
   -3.4300   18.8870  -33.3730 C   0  0  0  0  0  0  0  0  0  0  0  0
   -2.3320   19.7020  -33.6590 C   0  0  0  0  0  0  0  0  0  0  0  0
   -0.6730   18.9170  -34.1910 Br  0  0  0  0  0  0  0  0  0  0  0  0
   -2.4500   21.0840  -33.5770 C   0  0  0  0  0  0  0  0  0  0  0  0
   -3.6660   21.6620  -33.2250 C   0  0  0  0  0  0  0  0  0  0  0  0
   -4.7870   20.8600  -32.9200 C   0  0  0  0  0  0  0  0  0  0  0  0
   -3.2530   24.6376  -25.7011 H   0  0  0  0  0  0  0  0  0  0  0  0
   -1.6675   24.6368  -26.5455 H   0  0  0  0  0  0  0  0  0  0  0  0
   -2.6843   26.1176  -26.5455 H   0  0  0  0  0  0  0  0  0  0  0  0
   -3.6451   23.4854  -27.7566 H   0  0  0  0  0  0  0  0  0  0  0  0
   -4.2898   25.1489  -28.0155 H   0  0  0  0  0  0  0  0  0  0  0  0
   -1.1427   25.3228  -27.4872 H   0  0  0  0  0  0  0  0  0  0  0  0
   -0.3641   24.6877  -28.9762 H   0  0  0  0  0  0  0  0  0  0  0  0
   -1.0996   26.3266  -28.9762 H   0  0  0  0  0  0  0  0  0  0  0  0
   -1.4376   23.5803  -30.4555 H   0  0  0  0  0  0  0  0  0  0  0  0
   -1.9780   22.6759  -28.9878 H   0  0  0  0  0  0  0  0  0  0  0  0
   -3.2600   22.2007  -31.1755 H   0  0  0  0  0  0  0  0  0  0  0  0
   -4.2434   22.6231  -29.7220 H   0  0  0  0  0  0  0  0  0  0  0  0
   -3.4910   24.9520  -31.1100 H   0  0  0  0  0  0  0  0  0  0  0  0
   -5.4572   24.4420  -29.5963 H   0  0  0  0  0  0  0  0  0  0  0  0
   -5.7184   25.4670  -31.0779 H   0  0  0  0  0  0  0  0  0  0  0  0
   -6.7076   22.7098  -30.4429 H   0  0  0  0  0  0  0  0  0  0  0  0
   -7.4789   24.0587  -31.3660 H   0  0  0  0  0  0  0  0  0  0  0  0
   -6.0970   23.4690  -33.3150 H   0  0  0  0  0  0  0  0  0  0  0  0
   -8.5570   22.2681  -32.1846 H   0  0  0  0  0  0  0  0  0  0  0  0
  -10.5643   20.8098  -32.0407 H   0  0  0  0  0  0  0  0  0  0  0  0
  -10.3410   18.3463  -32.3072 H   0  0  0  0  0  0  0  0  0  0  0  0
   -8.1036   17.3191  -32.6300 H   0  0  0  0  0  0  0  0  0  0  0  0
   -5.5473   17.0069  -31.3422 H   0  0  0  0  0  0  0  0  0  0  0  0
   -6.4061   16.6424  -32.8772 H   0  0  0  0  0  0  0  0  0  0  0  0
   -4.6244   16.8711  -32.8772 H   0  0  0  0  0  0  0  0  0  0  0  0
   -3.3299   17.7949  -33.4588 H   0  0  0  0  0  0  0  0  0  0  0  0
   -1.5803   21.7227  -33.7908 H   0  0  0  0  0  0  0  0  0  0  0  0
   -3.7548   22.7576  -33.1839 H   0  0  0  0  0  0  0  0  0  0  0  0
  1  2  1  0
  2  3  1  0
  3  4  1  0
  3  5  1  0
  5  6  1  0
  6  7  1  0
  7  8  1  0
  8  9  1  0
  9 10  1  0
 10 11  1  0
 11 12  2  0
 12 13  1  0
 13 14  2  0
 14 15  1  0
 15 16  2  0
 16 17  1  0
 17 18  2  0
 18 19  1  0
 18 20  1  0
 20 21  2  0
 21 22  1  0
 22 23  1  0
 22 24  2  0
 24 25  1  0
 25 26  2  0
 26 11  1  0
 17 12  1  0
 26 20  1  0
  1 27  1  0
  1 28  1  0
  1 29  1  0
  2 30  1  0
  2 31  1  0
  4 32  1  0
  4 33  1  0
  4 34  1  0
  5 35  1  0
  5 36  1  0
  6 37  1  0
  6 38  1  0
  7 39  1  0
  8 40  1  0
  8 41  1  0
  9 42  1  0
  9 43  1  0
 10 44  1  0
 13 45  1  0
 14 46  1  0
 15 47  1  0
 16 48  1  0
 19 49  1  0
 19 50  1  0
 19 51  1  0
 21 52  1  0
 24 53  1  0
 25 54  1  0
M  CHG  1  18   1
M  END
>  <UniqueID>  (16) 
16

>  <SMILES>  (16) 
CCN(C)CCNCCNc1c2ccccc2[n+](C)c2cc(Br)ccc12

>  <Energy>  (16) 
79.29842676541925

>  <Genealogy>  (16) 
CCN(C)CCNCCNc1c2ccccc2[n+](C)c2cc(Br)ccc12 (3D coordinates assigned)
CCN(C)CCNCCNc1c2ccccc2[n+](C)c2cc(Br)ccc12 (optimized conformer: 79.29842676541925 kcal/mol)

>  <smiles>  (16) 
CCN(C)CCNCCNc1c2ccccc2[n+](C)c2cc(Br)ccc12

>  <score_type>  (16) 
oracle

>  <origin>  (16) 
adg

>  <m_score__min__energy>  (16) 
-9.1099999999999994

>  <m_primary>  (16) 
energy

$$$$
16:0
     RDKit          3D

 70 71  0  0  0  0  0  0  0  0999 V2000
   -2.5320   24.3210  -28.9950 C   0  0  0  0  0  0  0  0  0  0  0  0
   -3.3800   23.8790  -30.1840 C   0  0  0  0  0  0  0  0  0  0  0  0
   -4.0470   24.9840  -30.7650 O   0  0  0  0  0  0  0  0  0  0  0  0
   -5.4290   24.7150  -30.9060 C   0  0  0  0  0  0  0  0  0  0  0  0
   -5.7370   23.3130  -30.3650 C   0  0  0  0  0  0  0  0  0  0  0  0
   -6.6330   22.5660  -31.1760 O   0  0  0  0  0  0  0  0  0  0  0  0
   -7.9540   23.0810  -31.1610 C   0  0  0  0  0  0  0  0  0  0  0  0
   -8.9440   22.2240  -31.9710 C   0  0  0  0  0  0  0  0  0  0  0  0
   -9.3820   21.1220  -31.1990 O   0  0  0  0  0  0  0  0  0  0  0  0
   -9.1210   19.9000  -31.8670 C   0  0  0  0  0  0  0  0  0  0  0  0
   -8.0030   20.1230  -32.8950 C   0  0  0  0  0  0  0  0  0  0  0  0
   -6.6770   20.0850  -32.2710 N   0  0  0  0  0  0  0  0  0  0  0  0
   -5.5240   19.4950  -32.8990 C   0  0  0  0  0  0  0  0  0  0  0  0
   -4.3750   20.1800  -33.2750 C   0  0  0  0  0  0  0  0  0  0  0  0
   -4.0960   21.6460  -33.1120 C   0  0  0  0  0  0  0  0  0  0  0  0
   -2.6660   21.9120  -33.3160 N   0  0  0  0  0  0  0  0  0  0  0  0
   -1.8750   21.2980  -32.2420 C   0  0  0  0  0  0  0  0  0  0  0  0
   -0.7470   20.4360  -32.8230 C   0  0  0  0  0  0  0  0  0  0  0  0
   -0.7820   20.4380  -34.3040 N   0  0  0  0  0  0  0  0  0  0  0  0
   -0.3760   19.1270  -34.8600 C   0  0  0  0  0  0  0  0  0  0  0  0
   -0.5750   18.0300  -33.8170 C   0  0  0  0  0  0  0  0  0  0  0  0
    0.0360   21.5370  -34.8600 C   0  0  0  0  0  0  0  0  0  0  0  0
    0.3190   21.2900  -36.3400 C   0  0  0  0  0  0  0  0  0  0  0  0
   -3.5910   19.3530  -33.9990 N   0  0  0  0  0  0  0  0  0  0  0  0
   -4.2590   18.1850  -34.0340 C   0  0  0  0  0  0  0  0  0  0  0  0
   -3.8360   17.0210  -34.6710 C   0  0  0  0  0  0  0  0  0  0  0  0
   -4.6600   15.8930  -34.5810 C   0  0  0  0  0  0  0  0  0  0  0  0
   -5.8580   15.9470  -33.8460 C   0  0  0  0  0  0  0  0  0  0  0  0
   -6.2330   17.1430  -33.2200 C   0  0  0  0  0  0  0  0  0  0  0  0
   -5.4300   18.2310  -33.3690 N   0  0  0  0  0  0  0  0  0  0  0  0
   -3.0449   24.0537  -28.0593 H   0  0  0  0  0  0  0  0  0  0  0  0
   -1.5548   23.8175  -29.0343 H   0  0  0  0  0  0  0  0  0  0  0  0
   -2.3850   25.4104  -29.0343 H   0  0  0  0  0  0  0  0  0  0  0  0
   -2.7284   23.4139  -30.9384 H   0  0  0  0  0  0  0  0  0  0  0  0
   -4.1329   23.1587  -29.8313 H   0  0  0  0  0  0  0  0  0  0  0  0
   -6.0069   25.4609  -30.3406 H   0  0  0  0  0  0  0  0  0  0  0  0
   -5.7048   24.7654  -31.9697 H   0  0  0  0  0  0  0  0  0  0  0  0
   -4.7917   22.7557  -30.2897 H   0  0  0  0  0  0  0  0  0  0  0  0
   -6.2271   23.4482  -29.3895 H   0  0  0  0  0  0  0  0  0  0  0  0
   -8.3009   23.1255  -30.1181 H   0  0  0  0  0  0  0  0  0  0  0  0
   -7.9238   24.0770  -31.6270 H   0  0  0  0  0  0  0  0  0  0  0  0
   -9.8119   22.8389  -32.2515 H   0  0  0  0  0  0  0  0  0  0  0  0
   -8.4399   21.8512  -32.8748 H   0  0  0  0  0  0  0  0  0  0  0  0
   -8.8049   19.1405  -31.1368 H   0  0  0  0  0  0  0  0  0  0  0  0
  -10.0317   19.5526  -32.3769 H   0  0  0  0  0  0  0  0  0  0  0  0
   -8.0597   19.3346  -33.6600 H   0  0  0  0  0  0  0  0  0  0  0  0
   -8.1427   21.1179  -33.3431 H   0  0  0  0  0  0  0  0  0  0  0  0
   -6.5230   20.6930  -31.4350 H   0  0  0  0  0  0  0  0  0  0  0  0
   -4.6808   22.2124  -33.8517 H   0  0  0  0  0  0  0  0  0  0  0  0
   -4.3790   21.9561  -32.0953 H   0  0  0  0  0  0  0  0  0  0  0  0
   -2.3790   21.4560  -34.2130 H   0  0  0  0  0  0  0  0  0  0  0  0
   -1.4381   22.0908  -31.6171 H   0  0  0  0  0  0  0  0  0  0  0  0
   -2.5351   20.6567  -31.6395 H   0  0  0  0  0  0  0  0  0  0  0  0
    0.2207   20.8362  -32.4861 H   0  0  0  0  0  0  0  0  0  0  0  0
   -0.8816   19.4022  -32.4721 H   0  0  0  0  0  0  0  0  0  0  0  0
   -0.9883   18.9022  -35.7457 H   0  0  0  0  0  0  0  0  0  0  0  0
    0.6869   19.1686  -35.1402 H   0  0  0  0  0  0  0  0  0  0  0  0
   -0.4963   18.4637  -32.8092 H   0  0  0  0  0  0  0  0  0  0  0  0
   -1.5697   17.5783  -33.9452 H   0  0  0  0  0  0  0  0  0  0  0  0
    0.1977   17.2577  -33.9452 H   0  0  0  0  0  0  0  0  0  0  0  0
   -0.5077   22.4866  -34.7480 H   0  0  0  0  0  0  0  0  0  0  0  0
    0.9908   21.5832  -34.3158 H   0  0  0  0  0  0  0  0  0  0  0  0
    1.1443   20.5697  -36.4403 H   0  0  0  0  0  0  0  0  0  0  0  0
   -0.5823   20.8845  -36.8230 H   0  0  0  0  0  0  0  0  0  0  0  0
    0.5989   22.2378  -36.8230 H   0  0  0  0  0  0  0  0  0  0  0  0
   -2.6840   19.5810  -34.4630 H   0  0  0  0  0  0  0  0  0  0  0  0
   -2.8868   16.9891  -35.2259 H   0  0  0  0  0  0  0  0  0  0  0  0
   -4.3694   14.9606  -35.0871 H   0  0  0  0  0  0  0  0  0  0  0  0
   -6.4968   15.0553  -33.7632 H   0  0  0  0  0  0  0  0  0  0  0  0
   -7.1547   17.2009  -32.6223 H   0  0  0  0  0  0  0  0  0  0  0  0
  1  2  1  0
  2  3  1  0
  3  4  1  0
  4  5  1  0
  5  6  1  0
  6  7  1  0
  7  8  1  0
  8  9  1  0
  9 10  1  0
 10 11  1  0
 11 12  1  0
 12 13  1  0
 13 14  2  0
 14 15  1  0
 15 16  1  0
 16 17  1  0
 17 18  1  0
 18 19  1  0
 19 20  1  0
 20 21  1  0
 19 22  1  0
 22 23  1  0
 14 24  1  0
 24 25  2  0
 25 26  1  0
 26 27  2  0
 27 28  1  0
 28 29  2  0
 29 30  1  0
 30 13  1  0
 30 25  1  0
  1 31  1  0
  1 32  1  0
  1 33  1  0
  2 34  1  0
  2 35  1  0
  4 36  1  0
  4 37  1  0
  5 38  1  0
  5 39  1  0
  7 40  1  0
  7 41  1  0
  8 42  1  0
  8 43  1  0
 10 44  1  0
 10 45  1  0
 11 46  1  0
 11 47  1  0
 12 48  1  0
 15 49  1  0
 15 50  1  0
 16 51  1  0
 17 52  1  0
 17 53  1  0
 18 54  1  0
 18 55  1  0
 20 56  1  0
 20 57  1  0
 21 58  1  0
 21 59  1  0
 21 60  1  0
 22 61  1  0
 22 62  1  0
 23 63  1  0
 23 64  1  0
 23 65  1  0
 24 66  1  0
 26 67  1  0
 27 68  1  0
 28 69  1  0
 29 70  1  0
M  CHG  1  24   1
M  END
>  <UniqueID>  (17) 
17

>  <SMILES>  (17) 
CCOCCOCCOCCNc1c(CNCCN(CC)CC)[nH+]c2ccccn12

>  <Energy>  (17) 
101.79198757129255

>  <Genealogy>  (17) 
CCOCCOCCOCCNc1c(CNCCN(CC)CC)[nH+]c2ccccn12 (protonated)
CCOCCOCCOCCNc1c(CNCCN(CC)CC)[nH+]c2ccccn12 (3D coordinates assigned)
CCOCCOCCOCCNc1c(CNCCN(CC)CC)[nH+]c2ccccn12 (optimized conformer: 101.79198757129255 kcal/mol)

>  <smiles>  (17) 
CCOCCOCCOCCNc1c(CNCCN(CC)CC)nc2ccccn12

>  <score_type>  (17) 
oracle

>  <origin>  (17) 
adg

>  <m_score__min__energy>  (17) 
-6.6799999999999997

>  <m_primary>  (17) 
energy

$$$$
17:0
     RDKit          3D

 29 31  0  0  0  0  0  0  0  0999 V2000
   -3.1730   24.2730  -27.5030 C   0  0  0  0  0  0  0  0  0  0  0  0
   -2.3530   24.9110  -28.6200 C   0  0  0  0  0  0  0  0  0  0  0  0
   -3.1900   25.2780  -29.7160 O   0  0  0  0  0  0  0  0  0  0  0  0
   -4.3560   24.6030  -30.1170 C   0  0  0  0  0  0  0  0  0  0  0  0
   -5.6610   25.1280  -29.8960 C   0  0  0  0  0  0  0  0  0  0  0  0
   -6.8020   24.4200  -30.3160 C   0  0  0  0  0  0  0  0  0  0  0  0
   -6.6090   23.1980  -30.9510 C   0  0  0  0  0  0  0  0  0  0  0  0
   -5.3500   22.6820  -31.1750 C   0  0  0  0  0  0  0  0  0  0  0  0
   -4.2050   23.3630  -30.7690 C   0  0  0  0  0  0  0  0  0  0  0  0
   -5.4080   21.4880  -31.8070 N   0  0  0  0  0  0  0  0  0  0  0  0
   -6.7280   21.2560  -31.9830 C   0  0  0  0  0  0  0  0  0  0  0  0
   -7.3140   20.1480  -32.5920 C   0  0  0  0  0  0  0  0  0  0  0  0
   -8.7190   20.1040  -32.6710 C   0  0  0  0  0  0  0  0  0  0  0  0
   -9.5000   21.1590  -32.1460 C   0  0  0  0  0  0  0  0  0  0  0  0
   -8.8870   22.2670  -31.5340 C   0  0  0  0  0  0  0  0  0  0  0  0
   -7.4950   22.2830  -31.4710 C   0  0  0  0  0  0  0  0  0  0  0  0
   -2.7708   24.5860  -26.5282 H   0  0  0  0  0  0  0  0  0  0  0  0
   -4.2213   24.5954  -27.5877 H   0  0  0  0  0  0  0  0  0  0  0  0
   -3.1182   23.1776  -27.5877 H   0  0  0  0  0  0  0  0  0  0  0  0
   -1.8523   25.8101  -28.2316 H   0  0  0  0  0  0  0  0  0  0  0  0
   -1.6093   24.1813  -28.9728 H   0  0  0  0  0  0  0  0  0  0  0  0
   -5.7784   26.0982  -29.3911 H   0  0  0  0  0  0  0  0  0  0  0  0
   -7.8129   24.8197  -30.1477 H   0  0  0  0  0  0  0  0  0  0  0  0
   -3.2054   22.9424  -30.9531 H   0  0  0  0  0  0  0  0  0  0  0  0
   -4.6100   20.8810  -32.0970 H   0  0  0  0  0  0  0  0  0  0  0  0
   -6.6976   19.3327  -32.9986 H   0  0  0  0  0  0  0  0  0  0  0  0
   -9.2126   19.2426  -33.1446 H   0  0  0  0  0  0  0  0  0  0  0  0
  -10.5968   21.1129  -32.2168 H   0  0  0  0  0  0  0  0  0  0  0  0
   -9.4853   23.0919  -31.1197 H   0  0  0  0  0  0  0  0  0  0  0  0
  1  2  1  0
  2  3  1  0
  3  4  1  0
  4  5  2  0
  5  6  1  0
  6  7  2  0
  7  8  1  0
  8  9  2  0
  8 10  1  0
 10 11  1  0
 11 12  2  0
 12 13  1  0
 13 14  2  0
 14 15  1  0
 15 16  2  0
  9  4  1  0
 16 11  1  0
 16  7  1  0
  1 17  1  0
  1 18  1  0
  1 19  1  0
  2 20  1  0
  2 21  1  0
  5 22  1  0
  6 23  1  0
  9 24  1  0
 10 25  1  0
 12 26  1  0
 13 27  1  0
 14 28  1  0
 15 29  1  0
M  END
>  <UniqueID>  (18) 
18

>  <SMILES>  (18) 
CCOc1ccc2c(c1)[nH]c1ccccc12

>  <Energy>  (18) 
69.76301552191354

>  <Genealogy>  (18) 
CCOc1ccc2c(c1)[nH]c1ccccc12 (3D coordinates assigned)
CCOc1ccc2c(c1)[nH]c1ccccc12 (optimized conformer: 69.76301552191354 kcal/mol)

>  <smiles>  (18) 
CCOc1ccc2c(c1)[nH]c1ccccc12

>  <score_type>  (18) 
oracle

>  <origin>  (18) 
adg

>  <m_score__min__energy>  (18) 
-7.3799999999999999

>  <m_primary>  (18) 
energy

$$$$
18:0
     RDKit          3D

 69 71  0  0  0  0  0  0  0  0999 V2000
    0.9790   24.8880  -36.0880 C   0  0  0  0  0  0  0  0  0  0  0  0
    0.3110   23.5160  -36.0850 C   0  0  0  0  0  0  0  0  0  0  0  0
    0.9000   22.6820  -35.1060 O   0  0  0  0  0  0  0  0  0  0  0  0
    2.1540   22.2050  -35.5500 C   0  0  0  0  0  0  0  0  0  0  0  0
    2.4760   20.8690  -34.8620 C   0  0  0  0  0  0  0  0  0  0  0  0
    1.3300   20.3300  -34.1050 N   0  0  0  0  0  0  0  0  0  0  0  0
    1.7390   19.3670  -33.0510 C   0  0  0  0  0  0  0  0  0  0  0  0
    0.8700   18.1030  -33.0520 C   0  0  0  0  0  0  0  0  0  0  0  0
    0.4010   17.8570  -34.3630 O   0  0  0  0  0  0  0  0  0  0  0  0
   -0.9780   18.1590  -34.4770 C   0  0  0  0  0  0  0  0  0  0  0  0
   -1.4290   19.1410  -33.3870 C   0  0  0  0  0  0  0  0  0  0  0  0
   -1.2460   20.4830  -33.7950 O   0  0  0  0  0  0  0  0  0  0  0  0
   -1.2820   21.3710  -32.6900 C   0  0  0  0  0  0  0  0  0  0  0  0
   -2.7270   21.7500  -32.3700 C   0  0  0  0  0  0  0  0  0  0  0  0
   -3.6260   21.2780  -33.4230 N   0  0  0  0  0  0  0  0  0  0  0  0
   -4.9230   20.7400  -33.1110 C   0  0  0  0  0  0  0  0  0  0  0  0
   -5.8930   21.5580  -32.5030 C   0  0  0  0  0  0  0  0  0  0  0  0
   -7.1740   21.0170  -32.2120 C   0  0  0  0  0  0  0  0  0  0  0  0
   -7.4240   19.6740  -32.4280 N   0  0  0  0  0  0  0  0  0  0  0  0
   -8.6680   19.0570  -31.9120 C   0  0  0  0  0  0  0  0  0  0  0  0
   -6.5290   18.9060  -33.1500 C   0  0  0  0  0  0  0  0  0  0  0  0
   -6.8550   17.5960  -33.5910 C   0  0  0  0  0  0  0  0  0  0  0  0
   -5.9340   16.8250  -34.2990 C   0  0  0  0  0  0  0  0  0  0  0  0
   -4.6740   17.3320  -34.5900 C   0  0  0  0  0  0  0  0  0  0  0  0
   -4.3340   18.6230  -34.1950 C   0  0  0  0  0  0  0  0  0  0  0  0
   -5.2530   19.4270  -33.4860 C   0  0  0  0  0  0  0  0  0  0  0  0
   -8.2480   21.9130  -31.6030 C   0  0  0  0  0  0  0  0  0  0  0  0
   -8.0090   23.4040  -31.8330 C   0  0  0  0  0  0  0  0  0  0  0  0
   -6.5910   23.7640  -31.4240 C   0  0  0  0  0  0  0  0  0  0  0  0
   -5.5940   23.0400  -32.3270 C   0  0  0  0  0  0  0  0  0  0  0  0
    1.1404   25.2195  -35.0516 H   0  0  0  0  0  0  0  0  0  0  0  0
    1.9466   24.8236  -36.6073 H   0  0  0  0  0  0  0  0  0  0  0  0
    0.3315   25.6099  -36.6073 H   0  0  0  0  0  0  0  0  0  0  0  0
   -0.7598   23.6349  -35.8630 H   0  0  0  0  0  0  0  0  0  0  0  0
    0.4433   23.0530  -37.0740 H   0  0  0  0  0  0  0  0  0  0  0  0
    2.1234   22.0566  -36.6395 H   0  0  0  0  0  0  0  0  0  0  0  0
    2.9323   22.9403  -35.2978 H   0  0  0  0  0  0  0  0  0  0  0  0
    2.7657   20.1376  -35.6309 H   0  0  0  0  0  0  0  0  0  0  0  0
    3.2919   21.0506  -34.1469 H   0  0  0  0  0  0  0  0  0  0  0  0
    0.6320   19.9190  -34.7700 H   0  0  0  0  0  0  0  0  0  0  0  0
    0.8540   21.1400  -33.6410 H   0  0  0  0  0  0  0  0  0  0  0  0
    2.7861   19.0771  -33.2231 H   0  0  0  0  0  0  0  0  0  0  0  0
    1.6153   19.8610  -32.0760 H   0  0  0  0  0  0  0  0  0  0  0  0
    1.4683   17.2459  -32.7093 H   0  0  0  0  0  0  0  0  0  0  0  0
    0.0140   18.2449  -32.3759 H   0  0  0  0  0  0  0  0  0  0  0  0
   -1.1654   18.6085  -35.4633 H   0  0  0  0  0  0  0  0  0  0  0  0
   -1.5475   17.2254  -34.3585 H   0  0  0  0  0  0  0  0  0  0  0  0
   -2.4950   18.9739  -33.1733 H   0  0  0  0  0  0  0  0  0  0  0  0
   -0.8192   18.9656  -32.4885 H   0  0  0  0  0  0  0  0  0  0  0  0
   -0.8316   20.8809  -31.8142 H   0  0  0  0  0  0  0  0  0  0  0  0
   -0.7173   22.2812  -32.9402 H   0  0  0  0  0  0  0  0  0  0  0  0
   -3.0180   21.2917  -31.4133 H   0  0  0  0  0  0  0  0  0  0  0  0
   -2.8010   22.8455  -32.3039 H   0  0  0  0  0  0  0  0  0  0  0  0
   -3.2310   21.1150  -34.3760 H   0  0  0  0  0  0  0  0  0  0  0  0
   -8.6523   19.0648  -30.8121 H   0  0  0  0  0  0  0  0  0  0  0  0
   -9.5368   19.6286  -32.2704 H   0  0  0  0  0  0  0  0  0  0  0  0
   -8.7387   18.0194  -32.2704 H   0  0  0  0  0  0  0  0  0  0  0  0
   -7.8503   17.1829  -33.3704 H   0  0  0  0  0  0  0  0  0  0  0  0
   -6.2062   15.8114  -34.6284 H   0  0  0  0  0  0  0  0  0  0  0  0
   -3.9444   16.7131  -35.1328 H   0  0  0  0  0  0  0  0  0  0  0  0
   -3.3379   19.0213  -34.4381 H   0  0  0  0  0  0  0  0  0  0  0  0
   -9.2174   21.6443  -32.0481 H   0  0  0  0  0  0  0  0  0  0  0  0
   -8.2244   21.7484  -30.5156 H   0  0  0  0  0  0  0  0  0  0  0  0
   -8.1527   23.6373  -32.8983 H   0  0  0  0  0  0  0  0  0  0  0  0
   -8.7212   23.9847  -31.2284 H   0  0  0  0  0  0  0  0  0  0  0  0
   -6.4480   24.8505  -31.5190 H   0  0  0  0  0  0  0  0  0  0  0  0
   -6.4248   23.4588  -30.3803 H   0  0  0  0  0  0  0  0  0  0  0  0
   -5.6118   23.5180  -33.3176 H   0  0  0  0  0  0  0  0  0  0  0  0
   -4.6089   23.1142  -31.8431 H   0  0  0  0  0  0  0  0  0  0  0  0
  1  2  1  0
  2  3  1  0
  3  4  1  0
  4  5  1  0
  5  6  1  0
  6  7  1  0
  7  8  1  0
  8  9  1  0
  9 10  1  0
 10 11  1  0
 11 12  1  0
 12 13  1  0
 13 14  1  0
 14 15  1  0
 15 16  1  0
 16 17  2  0
 17 18  1  0
 18 19  2  0
 19 20  1  0
 19 21  1  0
 21 22  2  0
 22 23  1  0
 23 24  2  0
 24 25  1  0
 25 26  2  0
 18 27  1  0
 27 28  1  0
 28 29  1  0
 29 30  1  0
 26 16  1  0
 30 17  1  0
 26 21  1  0
  1 31  1  0
  1 32  1  0
  1 33  1  0
  2 34  1  0
  2 35  1  0
  4 36  1  0
  4 37  1  0
  5 38  1  0
  5 39  1  0
  6 40  1  0
  6 41  1  0
  7 42  1  0
  7 43  1  0
  8 44  1  0
  8 45  1  0
 10 46  1  0
 10 47  1  0
 11 48  1  0
 11 49  1  0
 13 50  1  0
 13 51  1  0
 14 52  1  0
 14 53  1  0
 15 54  1  0
 20 55  1  0
 20 56  1  0
 20 57  1  0
 22 58  1  0
 23 59  1  0
 24 60  1  0
 25 61  1  0
 27 62  1  0
 27 63  1  0
 28 64  1  0
 28 65  1  0
 29 66  1  0
 29 67  1  0
 30 68  1  0
 30 69  1  0
M  CHG  2   6   1  19   1
M  END
>  <UniqueID>  (19) 
19

>  <SMILES>  (19) 
CCOCC[NH2+]CCOCCOCCNc1c2c([n+](C)c3ccccc13)CCCC2

>  <Energy>  (19) 
90.74946468036924

>  <Genealogy>  (19) 
CCOCC[NH2+]CCOCCOCCNc1c2c([n+](C)c3ccccc13)CCCC2 (protonated)
CCOCC[NH2+]CCOCCOCCNc1c2c([n+](C)c3ccccc13)CCCC2 (3D coordinates assigned)
CCOCC[NH2+]CCOCCOCCNc1c2c([n+](C)c3ccccc13)CCCC2 (nonaromatic ring conformer: 90.74946468036924 kcal/mol)

>  <smiles>  (19) 
CCOCCNCCOCCOCCNc1c2c([n+](C)c3ccccc13)CCCC2

>  <score_type>  (19) 
oracle

>  <origin>  (19) 
adg

>  <m_score__min__energy>  (19) 
-7.7800000000000002

>  <m_primary>  (19) 
energy

$$$$
19:0
     RDKit          3D

 36 36  0  0  0  0  0  0  0  0999 V2000
   -6.5940   23.3720  -31.2690 C   0  0  0  0  0  0  0  0  0  0  0  0
   -6.2630   23.1390  -29.8000 C   0  0  0  0  0  0  0  0  0  0  0  0
   -4.9110   22.7400  -29.6610 O   0  0  0  0  0  0  0  0  0  0  0  0
   -4.1780   23.6680  -28.8770 C   0  0  2  0  0  0  0  0  0  0  0  0
   -3.4920   24.6660  -29.7650 C   0  0  0  0  0  0  0  0  0  0  0  0
   -4.0270   25.0300  -30.8450 O   0  0  0  0  0  0  0  0  0  0  0  0
   -2.2830   25.2960  -29.3310 N   0  0  0  0  0  0  0  0  0  0  0  0
   -1.5000   24.8180  -28.1930 C   0  0  0  0  0  0  0  0  0  0  0  0
   -2.3300   23.9230  -27.2620 C   0  0  0  0  0  0  0  0  0  0  0  0
   -3.1990   22.9830  -28.0010 N   0  0  0  0  0  0  0  0  0  0  0  0
   -2.5280   21.7630  -28.5240 C   0  0  0  0  0  0  0  0  0  0  0  0
   -3.0860   20.4230  -27.9900 C   0  0  0  0  0  0  0  0  0  0  0  0
   -2.3120   19.9100  -26.7540 C   0  0  0  0  0  0  0  0  0  0  0  0
   -3.0780   18.8010  -26.0160 C   0  0  0  0  0  0  0  0  0  0  0  0
   -0.9290   19.3950  -27.1760 C   0  0  0  0  0  0  0  0  0  0  0  0
   -7.4912   24.0036  -31.3470 H   0  0  0  0  0  0  0  0  0  0  0  0
   -5.7479   23.8747  -31.7602 H   0  0  0  0  0  0  0  0  0  0  0  0
   -6.7818   22.4059  -31.7602 H   0  0  0  0  0  0  0  0  0  0  0  0
   -6.4266   24.0706  -29.2384 H   0  0  0  0  0  0  0  0  0  0  0  0
   -6.9142   22.3444  -29.4068 H   0  0  0  0  0  0  0  0  0  0  0  0
   -4.8865   24.2006  -28.2256 H   0  0  0  0  0  0  0  0  0  0  0  0
   -0.6421   24.2412  -28.5689 H   0  0  0  0  0  0  0  0  0  0  0  0
   -1.1674   25.6937  -27.6164 H   0  0  0  0  0  0  0  0  0  0  0  0
   -1.6438   23.3432  -26.6272 H   0  0  0  0  0  0  0  0  0  0  0  0
   -2.9810   24.5780  -26.6643 H   0  0  0  0  0  0  0  0  0  0  0  0
   -2.6303   21.7617  -29.6192 H   0  0  0  0  0  0  0  0  0  0  0  0
   -1.4847   21.8176  -28.1796 H   0  0  0  0  0  0  0  0  0  0  0  0
   -4.1405   20.5659  -27.7116 H   0  0  0  0  0  0  0  0  0  0  0  0
   -2.9764   19.6736  -28.7878 H   0  0  0  0  0  0  0  0  0  0  0  0
   -2.1975   20.7563  -26.0607 H   0  0  0  0  0  0  0  0  0  0  0  0
   -2.9777   18.9462  -24.9302 H   0  0  0  0  0  0  0  0  0  0  0  0
   -4.1413   18.8419  -26.2947 H   0  0  0  0  0  0  0  0  0  0  0  0
   -2.6633   17.8210  -26.2947 H   0  0  0  0  0  0  0  0  0  0  0  0
   -0.3314   19.1725  -26.2797 H   0  0  0  0  0  0  0  0  0  0  0  0
   -1.0457   18.4800  -27.7754 H   0  0  0  0  0  0  0  0  0  0  0  0
   -0.4188   20.1634  -27.7754 H   0  0  0  0  0  0  0  0  0  0  0  0
  1  2  1  0
  2  3  1  0
  3  4  1  0
  4  5  1  0
  5  6  2  0
  5  7  1  0
  7  8  1  0
  8  9  1  0
  9 10  1  0
 10 11  1  0
 11 12  1  0
 12 13  1  0
 13 14  1  0
 13 15  1  0
 10  4  1  0
  1 16  1  0
  1 17  1  0
  1 18  1  0
  2 19  1  0
  2 20  1  0
  4 21  1  1
  8 22  1  0
  8 23  1  0
  9 24  1  0
  9 25  1  0
 11 26  1  0
 11 27  1  0
 12 28  1  0
 12 29  1  0
 13 30  1  0
 14 31  1  0
 14 32  1  0
 14 33  1  0
 15 34  1  0
 15 35  1  0
 15 36  1  0
M  CHG  1   7  -1
M  END
>  <UniqueID>  (20) 
20

>  <SMILES>  (20) 
CCO[C@@H]1C(=O)[N-]CCN1CCC(C)C

>  <Energy>  (20) 
39.346031689533085

>  <Genealogy>  (20) 
CCOC1C(=O)[N-]CCN1CCC(C)C (protonated)
CCO[C@@H]1C(=O)[N-]CCN1CCC(C)C (chirality)
CCO[C@@H]1C(=O)[N-]CCN1CCC(C)C (3D coordinates assigned)
CCO[C@@H]1C(=O)[N-]CCN1CCC(C)C (nonaromatic ring conformer: 39.346031689533085 kcal/mol)

>  <smiles>  (20) 
CCOC1C(=O)NCCN1CCC(C)C

>  <score_type>  (20) 
oracle

>  <origin>  (20) 
adg

>  <m_score__min__energy>  (20) 
-7.46

>  <m_primary>  (20) 
energy

$$$$
20:0
     RDKit          3D

 36 37  0  0  0  0  0  0  0  0999 V2000
   -2.9430   22.2710  -31.2450 C   0  0  0  0  0  0  0  0  0  0  0  0
   -3.6080   22.5950  -29.9100 C   0  0  0  0  0  0  0  0  0  0  0  0
   -3.4830   24.0760  -29.5390 C   0  0  0  0  0  0  0  0  0  0  0  0
   -3.8560   24.9280  -30.6810 N   0  0  0  0  0  0  0  0  0  0  0  0
   -5.1340   25.6150  -30.4540 C   0  0  0  0  0  0  0  0  0  0  0  0
   -6.3200   24.6830  -30.7440 C   0  0  0  0  0  0  0  0  0  0  0  0
   -6.0950   23.7600  -31.9530 C   0  0  0  0  0  0  0  0  0  0  0  0
   -7.0480   22.6470  -31.9730 N   0  0  0  0  0  0  0  0  0  0  0  0
   -8.3510   22.7050  -31.6030 C   0  0  0  0  0  0  0  0  0  0  0  0
   -8.9540   21.4600  -31.7330 C   0  0  0  0  0  0  0  0  0  0  0  0
   -7.9680   20.6270  -32.2140 C   0  0  0  0  0  0  0  0  0  0  0  0
   -8.0120   19.2740  -32.5430 C   0  0  0  0  0  0  0  0  0  0  0  0
   -6.8370   18.6780  -33.0380 C   0  0  0  0  0  0  0  0  0  0  0  0
   -6.8360   16.9790  -33.4680 Cl  0  0  0  0  0  0  0  0  0  0  0  0
   -5.6600   19.4460  -33.1950 C   0  0  0  0  0  0  0  0  0  0  0  0
   -5.6470   20.8100  -32.8560 C   0  0  0  0  0  0  0  0  0  0  0  0
   -6.8260   21.3730  -32.3560 C   0  0  0  0  0  0  0  0  0  0  0  0
   -1.9677   21.7958  -31.0631 H   0  0  0  0  0  0  0  0  0  0  0  0
   -3.5844   21.5844  -31.8170 H   0  0  0  0  0  0  0  0  0  0  0  0
   -2.7976   23.1992  -31.8170 H   0  0  0  0  0  0  0  0  0  0  0  0
   -4.6751   22.3360  -29.9749 H   0  0  0  0  0  0  0  0  0  0  0  0
   -3.0977   22.0100  -29.1306 H   0  0  0  0  0  0  0  0  0  0  0  0
   -4.1497   24.2943  -28.6917 H   0  0  0  0  0  0  0  0  0  0  0  0
   -2.4388   24.2867  -29.2645 H   0  0  0  0  0  0  0  0  0  0  0  0
   -3.1160   25.6590  -30.8010 H   0  0  0  0  0  0  0  0  0  0  0  0
   -5.1838   25.9447  -29.4058 H   0  0  0  0  0  0  0  0  0  0  0  0
   -5.1929   26.4783  -31.1332 H   0  0  0  0  0  0  0  0  0  0  0  0
   -6.4959   24.0573  -29.8566 H   0  0  0  0  0  0  0  0  0  0  0  0
   -7.1827   25.3226  -30.9820 H   0  0  0  0  0  0  0  0  0  0  0  0
   -6.2135   24.3468  -32.8758 H   0  0  0  0  0  0  0  0  0  0  0  0
   -5.0809   23.3404  -31.8787 H   0  0  0  0  0  0  0  0  0  0  0  0
   -8.8608   23.6130  -31.2486 H   0  0  0  0  0  0  0  0  0  0  0  0
   -9.9964   21.1959  -31.5013 H   0  0  0  0  0  0  0  0  0  0  0  0
   -8.9359   18.6899  -32.4198 H   0  0  0  0  0  0  0  0  0  0  0  0
   -4.7474   18.9721  -33.5855 H   0  0  0  0  0  0  0  0  0  0  0  0
   -4.7376   21.4162  -32.9801 H   0  0  0  0  0  0  0  0  0  0  0  0
  1  2  1  0
  2  3  1  0
  3  4  1  0
  4  5  1  0
  5  6  1  0
  6  7  1  0
  7  8  1  0
  8  9  1  0
  9 10  2  0
 10 11  1  0
 11 12  2  0
 12 13  1  0
 13 14  1  0
 13 15  2  0
 15 16  1  0
 16 17  2  0
 17  8  1  0
 17 11  1  0
  1 18  1  0
  1 19  1  0
  1 20  1  0
  2 21  1  0
  2 22  1  0
  3 23  1  0
  3 24  1  0
  4 25  1  0
  5 26  1  0
  5 27  1  0
  6 28  1  0
  6 29  1  0
  7 30  1  0
  7 31  1  0
  9 32  1  0
 10 33  1  0
 12 34  1  0
 15 35  1  0
 16 36  1  0
M  END
>  <UniqueID>  (21) 
21

>  <SMILES>  (21) 
CCCNCCCn1ccc2cc(Cl)ccc21

>  <Energy>  (21) 
59.742800048291905

>  <Genealogy>  (21) 
CCCNCCCn1ccc2cc(Cl)ccc21 (3D coordinates assigned)
CCCNCCCn1ccc2cc(Cl)ccc21 (optimized conformer: 59.742800048291905 kcal/mol)

>  <smiles>  (21) 
CCCNCCCn1ccc2cc(Cl)ccc21

>  <score_type>  (21) 
oracle

>  <origin>  (21) 
adg

>  <m_score__min__energy>  (21) 
-7.9500000000000002

>  <m_primary>  (21) 
energy

$$$$
21:0
     RDKit          3D

 61 60  0  0  0  0  0  0  0  0999 V2000
   -2.0049   20.6956  -29.2024 H   0  0  0  0  0  0  0  0  0  0  0  0
   -2.8550   21.3290  -29.4960 C   0  0  0  0  0  0  0  0  0  0  0  0
   -3.9140   20.7490  -29.9840 N   0  0  0  0  0  0  0  0  0  0  0  0
   -4.1110   20.2260  -31.3100 C   0  0  0  0  0  0  0  0  0  0  0  0
   -5.0450   19.4200  -31.5700 O   0  0  0  0  0  0  0  0  0  0  0  0
   -3.2070   20.6820  -32.4170 C   0  0  0  0  0  0  0  0  0  0  0  0
   -2.3610   21.2332  -31.9807 H   0  0  0  0  0  0  0  0  0  0  0  0
   -2.8617   19.7917  -32.9631 H   0  0  0  0  0  0  0  0  0  0  0  0
   -3.9350   21.5970  -33.4120 C   0  0  0  0  0  0  0  0  0  0  0  0
   -3.1883   22.1987  -33.9508 H   0  0  0  0  0  0  0  0  0  0  0  0
   -4.5080   20.9578  -34.0998 H   0  0  0  0  0  0  0  0  0  0  0  0
   -4.9250   22.5450  -32.7160 C   0  0  0  0  0  0  0  0  0  0  0  0
   -4.4154   23.0536  -31.8844 H   0  0  0  0  0  0  0  0  0  0  0  0
   -5.2855   23.2827  -33.4480 H   0  0  0  0  0  0  0  0  0  0  0  0
   -6.0770   21.7930  -32.1910 N   0  0  0  0  0  0  0  0  0  0  0  0
   -6.2060   20.9420  -32.7860 H   0  0  0  0  0  0  0  0  0  0  0  0
   -5.8890   21.4630  -31.2170 H   0  0  0  0  0  0  0  0  0  0  0  0
   -7.3320   22.5660  -32.2460 C   0  0  0  0  0  0  0  0  0  0  0  0
   -7.1592   23.5393  -31.7634 H   0  0  0  0  0  0  0  0  0  0  0  0
   -7.5998   22.6591  -33.3088 H   0  0  0  0  0  0  0  0  0  0  0  0
   -8.5290   21.8820  -31.5440 C   0  0  0  0  0  0  0  0  0  0  0  0
   -8.2131   21.5903  -30.5315 H   0  0  0  0  0  0  0  0  0  0  0  0
   -9.3514   22.6125  -31.5430 H   0  0  0  0  0  0  0  0  0  0  0  0
   -9.0560   20.6290  -32.2630 C   0  0  0  0  0  0  0  0  0  0  0  0
   -9.8005   20.1326  -31.6232 H   0  0  0  0  0  0  0  0  0  0  0  0
   -9.5127   20.9355  -33.2156 H   0  0  0  0  0  0  0  0  0  0  0  0
   -7.9630   19.6910  -32.5460 N   0  0  0  0  0  0  0  0  0  0  0  0
   -8.1420   19.2780  -33.4910 H   0  0  0  0  0  0  0  0  0  0  0  0
   -7.9460   18.5950  -31.5660 C   0  0  0  0  0  0  0  0  0  0  0  0
   -7.5268   18.9632  -30.6180 H   0  0  0  0  0  0  0  0  0  0  0  0
   -8.9752   18.2388  -31.4117 H   0  0  0  0  0  0  0  0  0  0  0  0
   -7.0890   17.4310  -32.0790 C   0  0  0  0  0  0  0  0  0  0  0  0
   -6.0331   17.6332  -31.8464 H   0  0  0  0  0  0  0  0  0  0  0  0
   -7.4251   16.5073  -31.5853 H   0  0  0  0  0  0  0  0  0  0  0  0
   -7.2360   17.2620  -33.5320 N   0  0  0  0  0  0  0  0  0  0  0  0
   -7.5860   18.1660  -33.9240 H   0  0  0  0  0  0  0  0  0  0  0  0
   -5.9420   16.9890  -34.1710 C   0  0  0  0  0  0  0  0  0  0  0  0
   -5.2522   16.5695  -33.4239 H   0  0  0  0  0  0  0  0  0  0  0  0
   -6.0980   16.2738  -34.9921 H   0  0  0  0  0  0  0  0  0  0  0  0
   -5.3390   18.2720  -34.7460 C   0  0  0  0  0  0  0  0  0  0  0  0
   -4.2928   18.3605  -34.4180 H   0  0  0  0  0  0  0  0  0  0  0  0
   -5.3861   18.2298  -35.8442 H   0  0  0  0  0  0  0  0  0  0  0  0
   -6.0890   19.4330  -34.2820 N   0  0  0  0  0  0  0  0  0  0  0  0
   -6.0330   19.4510  -33.2370 H   0  0  0  0  0  0  0  0  0  0  0  0
   -7.0970   19.2880  -34.5240 H   0  0  0  0  0  0  0  0  0  0  0  0
   -2.7290   22.8190  -29.3110 C   0  0  0  0  0  0  0  0  0  0  0  0
   -1.7266   23.0395  -28.9154 H   0  0  0  0  0  0  0  0  0  0  0  0
   -3.5227   23.1324  -28.6169 H   0  0  0  0  0  0  0  0  0  0  0  0
   -2.9240   23.6060  -30.6180 C   0  0  0  0  0  0  0  0  0  0  0  0
   -3.4993   22.9833  -31.3190 H   0  0  0  0  0  0  0  0  0  0  0  0
   -1.9240   23.8482  -31.0070 H   0  0  0  0  0  0  0  0  0  0  0  0
   -3.6380   24.8750  -30.4260 N   0  0  0  0  0  0  0  0  0  0  0  0
   -3.0750   25.6740  -30.8000 H   0  0  0  0  0  0  0  0  0  0  0  0
   -4.8050   24.8350  -31.1240 O   0  0  0  0  0  0  0  0  0  0  0  0
   -5.7090   25.6480  -30.4200 C   0  0  0  0  0  0  0  0  0  0  0  0
   -6.1711   26.3674  -31.1120 H   0  0  0  0  0  0  0  0  0  0  0  0
   -5.1733   26.1933  -29.6290 H   0  0  0  0  0  0  0  0  0  0  0  0
   -6.7900   24.7790  -29.7950 C   0  0  0  0  0  0  0  0  0  0  0  0
   -6.7185   24.8365  -28.6988 H   0  0  0  0  0  0  0  0  0  0  0  0
   -7.7793   25.1361  -30.1171 H   0  0  0  0  0  0  0  0  0  0  0  0
   -6.6539   23.7361  -30.1171 H   0  0  0  0  0  0  0  0  0  0  0  0
  1  2  1  0
  2  3  2  0
  3  4  1  0
  4  5  2  0
  4  6  1  0
  6  7  1  0
  6  8  1  0
  6  9  1  0
  9 10  1  0
  9 11  1  0
  9 12  1  0
 12 13  1  0
 12 14  1  0
 12 15  1  0
 15 16  1  0
 15 17  1  0
 15 18  1  0
 18 19  1  0
 18 20  1  0
 18 21  1  0
 21 22  1  0
 21 23  1  0
 21 24  1  0
 24 25  1  0
 24 26  1  0
 24 27  1  0
 27 28  1  0
 27 29  1  0
 29 30  1  0
 29 31  1  0
 29 32  1  0
 32 33  1  0
 32 34  1  0
 32 35  1  0
 35 36  1  0
 35 37  1  0
 37 38  1  0
 37 39  1  0
 37 40  1  0
 40 41  1  0
 40 42  1  0
 40 43  1  0
 43 44  1  0
 43 45  1  0
  2 46  1  0
 46 47  1  0
 46 48  1  0
 46 49  1  0
 49 50  1  0
 49 51  1  0
 49 52  1  0
 52 53  1  0
 52 54  1  0
 54 55  1  0
 55 56  1  0
 55 57  1  0
 55 58  1  0
 58 59  1  0
 58 60  1  0
 58 61  1  0
M  CHG  1  15   1
M  END
>  <UniqueID>  (22) 
22

>  <SMILES>  (22) 
CCONCC/C=N\C(=O)CCC[NH2+]CCCNCCNCCN

>  <Energy>  (22) 
39.270405257431186

>  <Genealogy>  (22) 
CCONCCC=NC(=O)CCC[NH2+]CCCNCCNCCN (protonated)
CCONCC/C=N\C(=O)CCC[NH2+]CCCNCCNCCN (cis-trans isomerization)
CCONCC/C=N\C(=O)CCC[NH2+]CCCNCCNCCN (3D coordinates assigned)
CCONCC/C=N\C(=O)CCC[NH2+]CCCNCCNCCN (optimized conformer: 39.270405257431186 kcal/mol)

>  <smiles>  (22) 
CCONCCC=NC(=O)CCCNCCCNCCNCCN

>  <score_type>  (22) 
oracle

>  <origin>  (22) 
adg

>  <m_score__min__energy>  (22) 
-4

>  <m_primary>  (22) 
energy

$$$$
22:0
     RDKit          3D

 42 43  0  0  0  0  0  0  0  0999 V2000
   -6.6300   17.9320  -31.6620 C   0  0  0  0  0  0  0  0  0  0  0  0
   -7.1800   18.3120  -33.0330 C   0  0  0  0  0  0  0  0  0  0  0  0
   -6.7070   19.6010  -33.4280 O   0  0  0  0  0  0  0  0  0  0  0  0
   -6.7770   20.7700  -32.6510 C   0  0  0  0  0  0  0  0  0  0  0  0
   -7.9520   21.1780  -31.9880 C   0  0  0  0  0  0  0  0  0  0  0  0
   -7.9580   22.3460  -31.2200 C   0  0  0  0  0  0  0  0  0  0  0  0
   -6.7940   23.1130  -31.0970 C   0  0  0  0  0  0  0  0  0  0  0  0
   -6.7920   24.6090  -30.1050 S   0  0  0  0  0  0  0  0  0  0  0  0
   -5.1710   24.2900  -29.3240 C   0  0  0  0  0  0  0  0  0  0  0  0
   -4.0570   24.9350  -30.0870 C   0  0  0  0  0  0  0  0  0  0  0  0
   -4.2930   25.4700  -31.2050 O   0  0  0  0  0  0  0  0  0  0  0  0
   -2.7300   24.9230  -29.5550 N   0  0  0  0  0  0  0  0  0  0  0  0
   -1.9050   23.7200  -29.4460 C   0  0  0  0  0  0  0  0  0  0  0  0
   -2.3660   22.6980  -30.5130 C   0  0  0  0  0  0  0  0  0  0  0  0
   -2.0980   21.2550  -30.0750 C   0  0  0  0  0  0  0  0  0  0  0  0
   -2.8680   20.9030  -28.7860 C   0  0  0  0  0  0  0  0  0  0  0  0
   -3.0800   22.1120  -27.8500 C   0  0  0  0  0  0  0  0  0  0  0  0
   -1.9610   23.1470  -28.0060 C   0  0  0  0  0  0  0  0  0  0  0  0
   -5.6300   22.7190  -31.7640 C   0  0  0  0  0  0  0  0  0  0  0  0
   -5.6210   21.5510  -32.5310 C   0  0  0  0  0  0  0  0  0  0  0  0
   -7.2647   18.3705  -30.8779 H   0  0  0  0  0  0  0  0  0  0  0  0
   -6.6249   16.8368  -31.5597 H   0  0  0  0  0  0  0  0  0  0  0  0
   -5.6038   18.3146  -31.5597 H   0  0  0  0  0  0  0  0  0  0  0  0
   -6.8538   17.5657  -33.7723 H   0  0  0  0  0  0  0  0  0  0  0  0
   -8.2782   18.3403  -32.9777 H   0  0  0  0  0  0  0  0  0  0  0  0
   -8.8678   20.5750  -32.0753 H   0  0  0  0  0  0  0  0  0  0  0  0
   -8.8802   22.6631  -30.7110 H   0  0  0  0  0  0  0  0  0  0  0  0
   -5.1824   24.6921  -28.3002 H   0  0  0  0  0  0  0  0  0  0  0  0
   -4.9998   23.2034  -29.3167 H   0  0  0  0  0  0  0  0  0  0  0  0
   -0.8499   23.9637  -29.6394 H   0  0  0  0  0  0  0  0  0  0  0  0
   -3.4456   22.8235  -30.6826 H   0  0  0  0  0  0  0  0  0  0  0  0
   -1.7953   22.8862  -31.4344 H   0  0  0  0  0  0  0  0  0  0  0  0
   -2.4147   20.5731  -30.8780 H   0  0  0  0  0  0  0  0  0  0  0  0
   -1.0217   21.1499  -29.8735 H   0  0  0  0  0  0  0  0  0  0  0  0
   -3.8532   20.5021  -29.0666 H   0  0  0  0  0  0  0  0  0  0  0  0
   -2.2620   20.1682  -28.2357 H   0  0  0  0  0  0  0  0  0  0  0  0
   -4.0422   22.5869  -28.0921 H   0  0  0  0  0  0  0  0  0  0  0  0
   -3.0721   21.7496  -26.8115 H   0  0  0  0  0  0  0  0  0  0  0  0
   -2.1382   23.9724  -27.3007 H   0  0  0  0  0  0  0  0  0  0  0  0
   -1.0025   22.6490  -27.7980 H   0  0  0  0  0  0  0  0  0  0  0  0
   -4.7188   23.3302  -31.6847 H   0  0  0  0  0  0  0  0  0  0  0  0
   -4.6984   21.2426  -33.0446 H   0  0  0  0  0  0  0  0  0  0  0  0
  1  2  1  0
  2  3  1  0
  3  4  1  0
  4  5  2  0
  5  6  1  0
  6  7  2  0
  7  8  1  0
  8  9  1  0
  9 10  1  0
 10 11  2  0
 10 12  1  0
 12 13  1  0
 13 14  1  0
 14 15  1  0
 15 16  1  0
 16 17  1  0
 17 18  1  0
  7 19  1  0
 19 20  2  0
 20  4  1  0
 18 13  1  0
  1 21  1  0
  1 22  1  0
  1 23  1  0
  2 24  1  0
  2 25  1  0
  5 26  1  0
  6 27  1  0
  9 28  1  0
  9 29  1  0
 13 30  1  0
 14 31  1  0
 14 32  1  0
 15 33  1  0
 15 34  1  0
 16 35  1  0
 16 36  1  0
 17 37  1  0
 17 38  1  0
 18 39  1  0
 18 40  1  0
 19 41  1  0
 20 42  1  0
M  CHG  1  12  -1
M  END
>  <UniqueID>  (23) 
23

>  <SMILES>  (23) 
CCOc1ccc(SCC(=O)[N-]C2CCCCC2)cc1

>  <Energy>  (23) 
32.405677162802455

>  <Genealogy>  (23) 
CCOc1ccc(SCC(=O)[N-]C2CCCCC2)cc1 (protonated)
CCOc1ccc(SCC(=O)[N-]C2CCCCC2)cc1 (3D coordinates assigned)
CCOc1ccc(SCC(=O)[N-]C2CCCCC2)cc1 (nonaromatic ring conformer: 32.405677162802455 kcal/mol)

>  <smiles>  (23) 
CCOc1ccc(SCC(=O)NC2CCCCC2)cc1

>  <score_type>  (23) 
oracle

>  <origin>  (23) 
adg

>  <m_score__min__energy>  (23) 
-9.1899999999999995

>  <m_primary>  (23) 
energy

$$$$
23:0
     RDKit          3D

 37 37  0  0  0  0  0  0  0  0999 V2000
   -9.4560   21.8970  -31.3320 C   0  0  0  0  0  0  0  0  0  0  0  0
   -8.4180   22.9020  -31.8290 C   0  0  0  0  0  0  0  0  0  0  0  0
   -7.2790   23.0780  -30.8220 C   0  0  0  0  0  0  0  0  0  0  0  0
   -6.1740   23.8600  -31.4220 N   0  0  0  0  0  0  0  0  0  0  0  0
   -6.0900   25.2410  -30.9030 C   0  0  0  0  0  0  0  0  0  0  0  0
   -6.1150   25.3350  -29.3710 C   0  0  0  0  0  0  0  0  0  0  0  0
   -4.6370   23.0200  -31.3290 S   0  0  0  0  0  0  0  0  0  0  0  0
   -3.5470   23.9800  -30.9380 O   0  0  0  0  0  0  0  0  0  0  0  0
   -4.7030   21.9350  -30.2900 O   0  0  0  0  0  0  0  0  0  0  0  0
   -4.2780   22.2920  -32.8720 N   0  0  0  0  0  0  0  0  0  0  0  0
   -4.0280   20.8510  -32.7510 C   0  0  0  0  0  0  0  0  0  0  0  0
   -5.3170   20.0860  -32.6100 C   0  0  0  0  0  0  0  0  0  0  0  0
   -6.4760   20.5310  -33.2680 C   0  0  0  0  0  0  0  0  0  0  0  0
   -7.6790   19.8360  -33.1210 C   0  0  0  0  0  0  0  0  0  0  0  0
   -7.7330   18.6880  -32.3270 C   0  0  0  0  0  0  0  0  0  0  0  0
   -6.5810   18.2300  -31.6810 C   0  0  0  0  0  0  0  0  0  0  0  0
   -5.3760   18.9260  -31.8200 C   0  0  0  0  0  0  0  0  0  0  0  0
   -9.4627   21.8905  -30.2320 H   0  0  0  0  0  0  0  0  0  0  0  0
  -10.4510   22.1837  -31.7031 H   0  0  0  0  0  0  0  0  0  0  0  0
   -9.2015   20.8932  -31.7031 H   0  0  0  0  0  0  0  0  0  0  0  0
   -8.0006   22.5430  -32.7813 H   0  0  0  0  0  0  0  0  0  0  0  0
   -8.9151   23.8744  -31.9605 H   0  0  0  0  0  0  0  0  0  0  0  0
   -7.6579   23.6077  -29.9355 H   0  0  0  0  0  0  0  0  0  0  0  0
   -6.8993   22.0858  -30.5367 H   0  0  0  0  0  0  0  0  0  0  0  0
   -5.1515   25.6888  -31.2617 H   0  0  0  0  0  0  0  0  0  0  0  0
   -6.9804   25.7732  -31.2690 H   0  0  0  0  0  0  0  0  0  0  0  0
   -5.8550   24.3572  -28.9394 H   0  0  0  0  0  0  0  0  0  0  0  0
   -5.3860   26.0884  -29.0379 H   0  0  0  0  0  0  0  0  0  0  0  0
   -7.1220   25.6267  -29.0379 H   0  0  0  0  0  0  0  0  0  0  0  0
   -5.1310   22.4130  -33.4650 H   0  0  0  0  0  0  0  0  0  0  0  0
   -3.4996   20.5015  -33.6503 H   0  0  0  0  0  0  0  0  0  0  0  0
   -3.4189   20.6769  -31.8517 H   0  0  0  0  0  0  0  0  0  0  0  0
   -6.4360   21.4297  -33.9011 H   0  0  0  0  0  0  0  0  0  0  0  0
   -8.5854   20.1935  -33.6315 H   0  0  0  0  0  0  0  0  0  0  0  0
   -8.6821   18.1443  -32.2101 H   0  0  0  0  0  0  0  0  0  0  0  0
   -6.6224   17.3212  -31.0627 H   0  0  0  0  0  0  0  0  0  0  0  0
   -4.4716   18.5640  -31.3091 H   0  0  0  0  0  0  0  0  0  0  0  0
  1  2  1  0
  2  3  1  0
  3  4  1  0
  4  5  1  0
  5  6  1  0
  4  7  1  0
  7  8  2  0
  7  9  2  0
  7 10  1  0
 10 11  1  0
 11 12  1  0
 12 13  2  0
 13 14  1  0
 14 15  2  0
 15 16  1  0
 16 17  2  0
 17 12  1  0
  1 18  1  0
  1 19  1  0
  1 20  1  0
  2 21  1  0
  2 22  1  0
  3 23  1  0
  3 24  1  0
  5 25  1  0
  5 26  1  0
  6 27  1  0
  6 28  1  0
  6 29  1  0
 10 30  1  0
 11 31  1  0
 11 32  1  0
 13 33  1  0
 14 34  1  0
 15 35  1  0
 16 36  1  0
 17 37  1  0
M  END
>  <UniqueID>  (24) 
24

>  <SMILES>  (24) 
CCCN(CC)S(=O)(=O)NCc1ccccc1

>  <Energy>  (24) 
26.34041032823495

>  <Genealogy>  (24) 
CCCN(CC)S(=O)(=O)NCc1ccccc1 (3D coordinates assigned)
CCCN(CC)S(=O)(=O)NCc1ccccc1 (optimized conformer: 26.34041032823495 kcal/mol)

>  <smiles>  (24) 
CCCN(CC)S(=O)(=O)NCc1ccccc1

>  <score_type>  (24) 
oracle

>  <origin>  (24) 
adg

>  <m_score__min__energy>  (24) 
-6.9199999999999999

>  <m_primary>  (24) 
energy

$$$$
24:0
     RDKit          3D

 48 50  0  0  0  0  0  0  0  0999 V2000
   -6.5020   24.9130  -30.1160 C   0  0  0  0  0  0  0  0  0  0  0  0
   -5.3730   24.9890  -31.1320 C   0  0  0  0  0  0  0  0  0  0  0  0
   -4.1380   24.8090  -30.4670 O   0  0  0  0  0  0  0  0  0  0  0  0
   -4.3480   24.3600  -29.1420 C   0  0  0  0  0  0  0  0  0  0  0  0
   -3.2800   23.3800  -28.7310 C   0  0  0  0  0  0  0  0  0  0  0  0
   -2.7320   23.3020  -27.4620 C   0  0  0  0  0  0  0  0  0  0  0  0
   -1.9530   22.1590  -27.4920 C   0  0  0  0  0  0  0  0  0  0  0  0
   -1.2250   21.5640  -26.3320 C   0  0  0  0  0  0  0  0  0  0  0  0
   -2.0610   21.5780  -28.7000 N   0  0  0  0  0  0  0  0  0  0  0  0
   -2.8520   22.3210  -29.4560 N   0  0  0  0  0  0  0  0  0  0  0  0
   -3.2430   21.9640  -30.7890 C   0  0  0  0  0  0  0  0  0  0  0  0
   -2.2820   21.8240  -31.8010 C   0  0  0  0  0  0  0  0  0  0  0  0
   -2.6760   21.5090  -33.1030 C   0  0  0  0  0  0  0  0  0  0  0  0
   -4.0290   21.3330  -33.4050 C   0  0  0  0  0  0  0  0  0  0  0  0
   -5.0000   21.4610  -32.3980 C   0  0  0  0  0  0  0  0  0  0  0  0
   -6.4650   21.3130  -32.7200 C   0  0  0  0  0  0  0  0  0  0  0  0
   -7.2010   20.7730  -31.5550 N   0  0  0  0  0  0  0  0  0  0  0  0
   -8.0570   19.6470  -31.9490 C   0  0  0  0  0  0  0  0  0  0  0  0
   -9.4280   20.2040  -32.2970 C   0  0  0  0  0  0  0  0  0  0  0  0
   -9.4920   21.5630  -31.6280 C   0  0  0  0  0  0  0  0  0  0  0  0
   -8.1250   21.7680  -30.9880 C   0  0  0  0  0  0  0  0  0  0  0  0
   -4.5970   21.7540  -31.0860 C   0  0  0  0  0  0  0  0  0  0  0  0
   -6.0829   24.9412  -29.0994 H   0  0  0  0  0  0  0  0  0  0  0  0
   -7.1802   25.7675  -30.2569 H   0  0  0  0  0  0  0  0  0  0  0  0
   -7.0595   23.9753  -30.2569 H   0  0  0  0  0  0  0  0  0  0  0  0
   -5.5032   24.1995  -31.8868 H   0  0  0  0  0  0  0  0  0  0  0  0
   -5.3868   25.9707  -31.6280 H   0  0  0  0  0  0  0  0  0  0  0  0
   -4.3256   25.2237  -28.4612 H   0  0  0  0  0  0  0  0  0  0  0  0
   -5.3249   23.8568  -29.0920 H   0  0  0  0  0  0  0  0  0  0  0  0
   -2.8821   23.9932  -26.6195 H   0  0  0  0  0  0  0  0  0  0  0  0
   -1.6701   21.9278  -25.3941 H   0  0  0  0  0  0  0  0  0  0  0  0
   -1.3027   20.4675  -26.3737 H   0  0  0  0  0  0  0  0  0  0  0  0
   -0.1659   21.8584  -26.3737 H   0  0  0  0  0  0  0  0  0  0  0  0
   -1.6190   20.6780  -28.9980 H   0  0  0  0  0  0  0  0  0  0  0  0
   -1.2158   21.9626  -31.5685 H   0  0  0  0  0  0  0  0  0  0  0  0
   -1.9190   21.3990  -33.8935 H   0  0  0  0  0  0  0  0  0  0  0  0
   -4.3346   21.0935  -34.4342 H   0  0  0  0  0  0  0  0  0  0  0  0
   -6.8785   22.2974  -32.9846 H   0  0  0  0  0  0  0  0  0  0  0  0
   -6.5746   20.6158  -33.5637 H   0  0  0  0  0  0  0  0  0  0  0  0
   -7.6267   19.1384  -32.8243 H   0  0  0  0  0  0  0  0  0  0  0  0
   -8.1355   18.9189  -31.1282 H   0  0  0  0  0  0  0  0  0  0  0  0
   -9.5367   20.3060  -33.3869 H   0  0  0  0  0  0  0  0  0  0  0  0
  -10.2373   19.5416  -31.9560 H   0  0  0  0  0  0  0  0  0  0  0  0
   -9.6895   22.3486  -32.3722 H   0  0  0  0  0  0  0  0  0  0  0  0
  -10.3015   21.6137  -30.8850 H   0  0  0  0  0  0  0  0  0  0  0  0
   -7.7598   22.7825  -31.2056 H   0  0  0  0  0  0  0  0  0  0  0  0
   -8.1930   21.6467  -29.8968 H   0  0  0  0  0  0  0  0  0  0  0  0
   -5.3485   21.8193  -30.2854 H   0  0  0  0  0  0  0  0  0  0  0  0
  1  2  1  0
  2  3  1  0
  3  4  1  0
  4  5  1  0
  5  6  2  0
  6  7  1  0
  7  8  1  0
  7  9  2  0
  9 10  1  0
 10 11  1  0
 11 12  2  0
 12 13  1  0
 13 14  2  0
 14 15  1  0
 15 16  1  0
 16 17  1  0
 17 18  1  0
 18 19  1  0
 19 20  1  0
 20 21  1  0
 15 22  2  0
 10  5  1  0
 22 11  1  0
 21 17  1  0
  1 23  1  0
  1 24  1  0
  1 25  1  0
  2 26  1  0
  2 27  1  0
  4 28  1  0
  4 29  1  0
  6 30  1  0
  8 31  1  0
  8 32  1  0
  8 33  1  0
  9 34  1  0
 12 35  1  0
 13 36  1  0
 14 37  1  0
 16 38  1  0
 16 39  1  0
 18 40  1  0
 18 41  1  0
 19 42  1  0
 19 43  1  0
 20 44  1  0
 20 45  1  0
 21 46  1  0
 21 47  1  0
 22 48  1  0
M  CHG  1   9   1
M  END
>  <UniqueID>  (25) 
25

>  <SMILES>  (25) 
CCOCc1cc(C)[nH+]n1-c1cccc(CN2CCCC2)c1

>  <Energy>  (25) 
83.02661790962162

>  <Genealogy>  (25) 
CCOCc1cc(C)[nH+]n1-c1cccc(CN2CCCC2)c1 (protonated)
CCOCc1cc(C)[nH+]n1-c1cccc(CN2CCCC2)c1 (3D coordinates assigned)
CCOCc1cc(C)[nH+]n1-c1cccc(CN2CCCC2)c1 (nonaromatic ring conformer: 83.02661790962162 kcal/mol)

>  <smiles>  (25) 
CCOCc1cc(C)nn1-c1cccc(CN2CCCC2)c1

>  <score_type>  (25) 
oracle

>  <origin>  (25) 
adg

>  <m_score__min__energy>  (25) 
-7.29

>  <m_primary>  (25) 
energy

$$$$
