0:0
     RDKit          3D

 37 39  0  0  0  0  0  0  0  0999 V2000
   -5.2650   19.4760  -31.2390 O   0  0  0  0  0  0  0  0  0  0  0  0
   -6.1940   20.0890  -31.7430 C   0  0  0  0  0  0  0  0  0  0  0  0
   -5.9180   21.1720  -32.7500 C   0  0  0  0  0  0  0  0  0  0  0  0
   -6.7510   22.4420  -32.4700 C   0  0  2  0  0  0  0  0  0  0  0  0
   -6.1390   23.3050  -31.3710 C   0  0  0  0  0  0  0  0  0  0  0  0
   -4.7890   23.1750  -30.9850 C   0  0  0  0  0  0  0  0  0  0  0  0
   -4.2570   23.9850  -29.9780 C   0  0  0  0  0  0  0  0  0  0  0  0
   -5.0600   24.9340  -29.3430 C   0  0  0  0  0  0  0  0  0  0  0  0
   -6.3960   25.0780  -29.7160 C   0  0  0  0  0  0  0  0  0  0  0  0
   -6.9350   24.2710  -30.7230 C   0  0  0  0  0  0  0  0  0  0  0  0
   -8.2420   22.1260  -32.2160 C   0  0  0  0  0  0  0  0  0  0  0  0
   -8.4360   20.9760  -31.2590 C   0  0  0  0  0  0  0  0  0  0  0  0
   -9.3220   21.0310  -30.4200 O   0  0  0  0  0  0  0  0  0  0  0  0
   -7.6140   19.7240  -31.3970 C   0  0  1  0  0  0  0  0  0  0  0  0
   -8.3450   18.6780  -32.7070 S   0  0  0  0  0  0  0  0  0  0  0  0
   -6.7980   17.8940  -33.1740 C   0  0  0  0  0  0  0  0  0  0  0  0
   -6.1430   18.2770  -34.3510 C   0  0  0  0  0  0  0  0  0  0  0  0
   -4.9400   17.6640  -34.7160 C   0  0  0  0  0  0  0  0  0  0  0  0
   -4.3950   16.6610  -33.9090 C   0  0  0  0  0  0  0  0  0  0  0  0
   -5.0510   16.2690  -32.7390 C   0  0  0  0  0  0  0  0  0  0  0  0
   -6.2530   16.8820  -32.3720 C   0  0  0  0  0  0  0  0  0  0  0  0
   -4.8497   21.4311  -32.7103 H   0  0  0  0  0  0  0  0  0  0  0  0
   -6.1965   20.7930  -33.7444 H   0  0  0  0  0  0  0  0  0  0  0  0
   -6.7191   23.0447  -33.3896 H   0  0  0  0  0  0  0  0  0  0  0  0
   -4.1493   22.4299  -31.4806 H   0  0  0  0  0  0  0  0  0  0  0  0
   -3.2025   23.8744  -29.6850 H   0  0  0  0  0  0  0  0  0  0  0  0
   -4.6391   25.5680  -28.5487 H   0  0  0  0  0  0  0  0  0  0  0  0
   -7.0273   25.8280  -29.2170 H   0  0  0  0  0  0  0  0  0  0  0  0
   -7.9896   24.3912  -31.0119 H   0  0  0  0  0  0  0  0  0  0  0  0
   -8.7250   23.0201  -31.7950 H   0  0  0  0  0  0  0  0  0  0  0  0
   -8.6904   21.8381  -33.1783 H   0  0  0  0  0  0  0  0  0  0  0  0
   -7.6100   19.1661  -30.4490 H   0  0  0  0  0  0  0  0  0  0  0  0
   -6.5754   19.0614  -34.9896 H   0  0  0  0  0  0  0  0  0  0  0  0
   -4.4232   17.9708  -35.6373 H   0  0  0  0  0  0  0  0  0  0  0  0
   -3.4483   16.1796  -34.1954 H   0  0  0  0  0  0  0  0  0  0  0  0
   -4.6217   15.4780  -32.1066 H   0  0  0  0  0  0  0  0  0  0  0  0
   -6.7712   16.5698  -31.4533 H   0  0  0  0  0  0  0  0  0  0  0  0
  1  2  2  0
  2  3  1  0
  3  4  1  0
  4  5  1  0
  5  6  2  0
  6  7  1  0
  7  8  2  0
  8  9  1  0
  9 10  2  0
  4 11  1  0
 11 12  1  0
 12 13  2  0
 12 14  1  0
 14 15  1  0
 15 16  1  0
 16 17  2  0
 17 18  1  0
 18 19  2  0
 19 20  1  0
 20 21  2  0
 14  2  1  0
 21 16  1  0
 10  5  1  0
  3 22  1  0
  3 23  1  0
  4 24  1  6
  6 25  1  0
  7 26  1  0
  8 27  1  0
  9 28  1  0
 10 29  1  0
 11 30  1  0
 11 31  1  0
 14 32  1  1
 17 33  1  0
 18 34  1  0
 19 35  1  0
 20 36  1  0
 21 37  1  0
M  END
>  <UniqueID>  (1) 
1

>  <SMILES>  (1) 
O=C1CC(c2ccccc2)CC(=O)C1Sc1ccccc1

>  <Energy>  (1) 
36.547911550855055

>  <Genealogy>  (1) 
O=C1CC(c2ccccc2)CC(=O)C1Sc1ccccc1 (3D coordinates assigned)
O=C1CC(c2ccccc2)CC(=O)C1Sc1ccccc1 (nonaromatic ring conformer: 36.547911550855055 kcal/mol)

>  <smiles>  (1) 
O=C1CC(c2ccccc2)CC(=O)C1Sc1ccccc1

>  <score_type>  (1) 
oracle

>  <origin>  (1) 
adg

>  <m_score__min__energy>  (1) 
-8.0600000000000005

>  <m_primary>  (1) 
energy

$$$$
1:0
     RDKit          3D

 43 45  0  0  0  0  0  0  0  0999 V2000
   -4.9120   15.4950  -33.2090 C   0  0  0  0  0  0  0  0  0  0  0  0
   -5.3780   16.4960  -32.1540 C   0  0  0  0  0  0  0  0  0  0  0  0
   -6.3980   17.3980  -32.6980 N   0  0  0  0  0  0  0  0  0  0  0  0
   -6.5000   17.5870  -34.1500 C   0  0  0  0  0  0  0  0  0  0  0  0
   -5.7520   18.8480  -34.6130 C   0  0  0  0  0  0  0  0  0  0  0  0
   -6.2140   20.0390  -34.0050 O   0  0  0  0  0  0  0  0  0  0  0  0
   -5.6870   20.2050  -32.6980 C   0  0  1  0  0  0  0  0  0  0  0  0
   -5.3190   21.6950  -32.4810 C   0  0  0  0  0  0  0  0  0  0  0  0
   -6.4480   22.5710  -32.0430 N   0  0  2  0  0  0  0  0  0  0  0  0
   -6.3570   22.9480  -30.6090 C   0  0  0  0  0  0  0  0  0  0  0  0
   -5.1020   23.7240  -30.3120 C   0  0  0  0  0  0  0  0  0  0  0  0
   -4.0990   23.3620  -29.4390 C   0  0  0  0  0  0  0  0  0  0  0  0
   -3.1780   24.3880  -29.4900 C   0  0  0  0  0  0  0  0  0  0  0  0
   -3.5870   25.3120  -30.3310 O   0  0  0  0  0  0  0  0  0  0  0  0
   -4.7390   24.9450  -30.8420 C   0  0  0  0  0  0  0  0  0  0  0  0
   -7.7750   21.9990  -32.3610 C   0  0  0  0  0  0  0  0  0  0  0  0
   -8.0060   20.6210  -31.7130 C   0  0  0  0  0  0  0  0  0  0  0  0
   -6.7310   19.7450  -31.6670 C   0  0  1  0  0  0  0  0  0  0  0  0
   -7.1090   18.2870  -31.8110 C   0  0  0  0  0  0  0  0  0  0  0  0
   -8.1430   17.8730  -31.2190 O   0  0  0  0  0  0  0  0  0  0  0  0
   -4.4977   14.6051  -32.7125 H   0  0  0  0  0  0  0  0  0  0  0  0
   -5.7655   15.2004  -33.8372 H   0  0  0  0  0  0  0  0  0  0  0  0
   -4.1371   15.9585  -33.8372 H   0  0  0  0  0  0  0  0  0  0  0  0
   -5.8020   15.9472  -31.3002 H   0  0  0  0  0  0  0  0  0  0  0  0
   -4.5134   17.0969  -31.8357 H   0  0  0  0  0  0  0  0  0  0  0  0
   -6.0677   16.7105  -34.6549 H   0  0  0  0  0  0  0  0  0  0  0  0
   -7.5631   17.7051  -34.4067 H   0  0  0  0  0  0  0  0  0  0  0  0
   -4.6854   18.7268  -34.3730 H   0  0  0  0  0  0  0  0  0  0  0  0
   -5.9304   18.9488  -35.6938 H   0  0  0  0  0  0  0  0  0  0  0  0
   -4.7792   19.5962  -32.5745 H   0  0  0  0  0  0  0  0  0  0  0  0
   -4.5329   21.7432  -31.7131 H   0  0  0  0  0  0  0  0  0  0  0  0
   -4.9985   22.0767  -33.4616 H   0  0  0  0  0  0  0  0  0  0  0  0
   -6.3870   23.4580  -32.5990 H   0  0  0  0  0  0  0  0  0  0  0  0
   -7.2281   23.5668  -30.3479 H   0  0  0  0  0  0  0  0  0  0  0  0
   -6.3353   22.0232  -30.0138 H   0  0  0  0  0  0  0  0  0  0  0  0
   -4.0442   22.4477  -28.8299 H   0  0  0  0  0  0  0  0  0  0  0  0
   -2.2420   24.4270  -28.9135 H   0  0  0  0  0  0  0  0  0  0  0  0
   -5.3225   25.5198  -31.5763 H   0  0  0  0  0  0  0  0  0  0  0  0
   -8.5506   22.6906  -32.0004 H   0  0  0  0  0  0  0  0  0  0  0  0
   -7.8223   21.8625  -33.4515 H   0  0  0  0  0  0  0  0  0  0  0  0
   -8.3616   20.7745  -30.6834 H   0  0  0  0  0  0  0  0  0  0  0  0
   -8.7444   20.0897  -32.3315 H   0  0  0  0  0  0  0  0  0  0  0  0
   -6.2450   19.8662  -30.6877 H   0  0  0  0  0  0  0  0  0  0  0  0
  1  2  1  0
  2  3  1  0
  3  4  1  0
  4  5  1  0
  5  6  1  0
  6  7  1  0
  7  8  1  0
  8  9  1  0
  9 10  1  0
 10 11  1  0
 11 12  1  0
 12 13  2  0
 13 14  1  0
 14 15  1  0
  9 16  1  0
 16 17  1  0
 17 18  1  0
 18 19  1  0
 19 20  2  0
 19  3  1  0
 18  7  1  0
 15 11  2  0
  1 21  1  0
  1 22  1  0
  1 23  1  0
  2 24  1  0
  2 25  1  0
  4 26  1  0
  4 27  1  0
  5 28  1  0
  5 29  1  0
  7 30  1  6
  8 31  1  0
  8 32  1  0
  9 33  1  6
 10 34  1  0
 10 35  1  0
 12 36  1  0
 13 37  1  0
 15 38  1  0
 16 39  1  0
 16 40  1  0
 17 41  1  0
 17 42  1  0
 18 43  1  1
M  CHG  1   9   1
M  END
>  <UniqueID>  (2) 
2

>  <SMILES>  (2) 
CCN1CCO[C@H]2C[N@H+](Cc3ccoc3)CCC2C1=O

>  <Energy>  (2) 
88.37174218240524

>  <Genealogy>  (2) 
CCN1CCOC2C[NH+](Cc3ccoc3)CCC2C1=O (protonated)
CCN1CCO[C@H]2C[N@H+](Cc3ccoc3)CCC2C1=O (chirality)
CCN1CCO[C@H]2C[N@H+](Cc3ccoc3)CCC2C1=O (3D coordinates assigned)
CCN1CCO[C@H]2C[N@H+](Cc3ccoc3)CCC2C1=O (nonaromatic ring conformer: 88.37174218240524 kcal/mol)

>  <smiles>  (2) 
CCN1CCOC2CN(Cc3ccoc3)CCC2C1=O

>  <score_type>  (2) 
oracle

>  <origin>  (2) 
adg

>  <m_score__min__energy>  (2) 
-5.3399999999999999

>  <m_primary>  (2) 
energy

$$$$
2:0
     RDKit          3D

 43 44  0  0  0  0  0  0  0  0999 V2000
   -3.7440   24.5380  -26.9320 C   0  0  0  0  0  0  0  0  0  0  0  0
   -4.1810   24.0520  -28.3090 C   0  0  0  0  0  0  0  0  0  0  0  0
   -3.0130   24.5490  -29.5630 S   0  0  0  0  0  0  0  0  0  0  0  0
   -1.9960   25.4760  -28.9590 O   0  0  0  0  0  0  0  0  0  0  0  0
   -2.3210   23.3330  -30.1130 O   0  0  0  0  0  0  0  0  0  0  0  0
   -3.8770   25.3560  -30.8400 N   0  0  0  0  0  0  0  0  0  0  0  0
   -5.3180   25.1160  -30.7360 C   0  0  0  0  0  0  0  0  0  0  0  0
   -5.6690   23.7510  -31.3260 C   0  0  0  0  0  0  0  0  0  0  0  0
   -4.5060   23.1910  -32.0170 N   0  0  0  0  0  0  0  0  0  0  0  0
   -4.1850   21.5870  -31.4260 S   0  0  0  0  0  0  0  0  0  0  0  0
   -4.3720   21.5490  -29.9360 O   0  0  0  0  0  0  0  0  0  0  0  0
   -2.7500   21.2430  -31.7170 O   0  0  0  0  0  0  0  0  0  0  0  0
   -5.2550   20.3990  -32.1980 C   0  0  0  0  0  0  0  0  0  0  0  0
   -4.6820   19.4830  -33.0980 C   0  0  0  0  0  0  0  0  0  0  0  0
   -5.4650   18.5150  -33.7280 C   0  0  0  0  0  0  0  0  0  0  0  0
   -6.8320   18.4450  -33.4720 C   0  0  0  0  0  0  0  0  0  0  0  0
   -7.4310   19.3610  -32.5990 C   0  0  0  0  0  0  0  0  0  0  0  0
   -6.6540   20.3510  -31.9630 C   0  0  0  0  0  0  0  0  0  0  0  0
   -7.3820   21.2870  -31.0220 C   0  0  0  0  0  0  0  0  0  0  0  0
   -8.6890   21.7810  -31.6590 C   0  0  0  0  0  0  0  0  0  0  0  0
   -9.5620   20.6540  -32.2700 C   0  0  0  0  0  0  0  0  0  0  0  0
   -8.8990   19.2660  -32.2780 C   0  0  0  0  0  0  0  0  0  0  0  0
   -4.2653   23.9582  -26.1561 H   0  0  0  0  0  0  0  0  0  0  0  0
   -2.6578   24.4027  -26.8231 H   0  0  0  0  0  0  0  0  0  0  0  0
   -3.9935   25.6038  -26.8231 H   0  0  0  0  0  0  0  0  0  0  0  0
   -4.2511   22.9543  -28.2975 H   0  0  0  0  0  0  0  0  0  0  0  0
   -5.1586   24.4982  -28.5441 H   0  0  0  0  0  0  0  0  0  0  0  0
   -5.6152   25.1416  -29.6772 H   0  0  0  0  0  0  0  0  0  0  0  0
   -5.8535   25.8974  -31.2952 H   0  0  0  0  0  0  0  0  0  0  0  0
   -5.9739   23.0716  -30.5164 H   0  0  0  0  0  0  0  0  0  0  0  0
   -6.4939   23.8689  -32.0441 H   0  0  0  0  0  0  0  0  0  0  0  0
   -3.6760   23.7860  -31.7900 H   0  0  0  0  0  0  0  0  0  0  0  0
   -3.6033   19.5301  -33.3080 H   0  0  0  0  0  0  0  0  0  0  0  0
   -5.0012   17.8052  -34.4288 H   0  0  0  0  0  0  0  0  0  0  0  0
   -7.4423   17.6686  -33.9566 H   0  0  0  0  0  0  0  0  0  0  0  0
   -7.6134   20.7536  -30.0882 H   0  0  0  0  0  0  0  0  0  0  0  0
   -6.7378   22.1540  -30.8139 H   0  0  0  0  0  0  0  0  0  0  0  0
   -9.2787   22.2931  -30.8844 H   0  0  0  0  0  0  0  0  0  0  0  0
   -8.4058   22.4469  -32.4875 H   0  0  0  0  0  0  0  0  0  0  0  0
  -10.4928   20.5867  -31.6877 H   0  0  0  0  0  0  0  0  0  0  0  0
   -9.7313   20.9256  -33.3224 H   0  0  0  0  0  0  0  0  0  0  0  0
   -9.0196   18.8059  -31.2861 H   0  0  0  0  0  0  0  0  0  0  0  0
   -9.3843   18.6547  -33.0531 H   0  0  0  0  0  0  0  0  0  0  0  0
  1  2  1  0
  2  3  1  0
  3  4  2  0
  3  5  2  0
  3  6  1  0
  6  7  1  0
  7  8  1  0
  8  9  1  0
  9 10  1  0
 10 11  2  0
 10 12  2  0
 10 13  1  0
 13 14  2  0
 14 15  1  0
 15 16  2  0
 16 17  1  0
 17 18  2  0
 18 19  1  0
 19 20  1  0
 20 21  1  0
 21 22  1  0
 18 13  1  0
 22 17  1  0
  1 23  1  0
  1 24  1  0
  1 25  1  0
  2 26  1  0
  2 27  1  0
  7 28  1  0
  7 29  1  0
  8 30  1  0
  8 31  1  0
  9 32  1  0
 14 33  1  0
 15 34  1  0
 16 35  1  0
 19 36  1  0
 19 37  1  0
 20 38  1  0
 20 39  1  0
 21 40  1  0
 21 41  1  0
 22 42  1  0
 22 43  1  0
M  CHG  1   6  -1
M  END
>  <UniqueID>  (3) 
3

>  <SMILES>  (3) 
CCS(=O)(=O)[N-]CCNS(=O)(=O)c1cccc2c1CCCC2

>  <Energy>  (3) 
37.0268736986948

>  <Genealogy>  (3) 
CCS(=O)(=O)[N-]CCNS(=O)(=O)c1cccc2c1CCCC2 (protonated)
CCS(=O)(=O)[N-]CCNS(=O)(=O)c1cccc2c1CCCC2 (3D coordinates assigned)
CCS(=O)(=O)[N-]CCNS(=O)(=O)c1cccc2c1CCCC2 (nonaromatic ring conformer: 37.0268736986948 kcal/mol)

>  <smiles>  (3) 
CCS(=O)(=O)NCCNS(=O)(=O)c1cccc2c1CCCC2

>  <score_type>  (3) 
oracle

>  <origin>  (3) 
adg

>  <m_score__min__energy>  (3) 
-11.31

>  <m_primary>  (3) 
energy

$$$$
3:0
     RDKit          3D

 54 56  0  0  0  0  0  0  0  0999 V2000
   -6.2396   16.8643  -32.2939 H   0  0  0  0  0  0  0  0  0  0  0  0
   -6.2190   17.9180  -32.6090 C   0  0  0  0  0  0  0  0  0  0  0  0
   -7.3680   18.6060  -32.5510 C   0  0  0  0  0  0  0  0  0  0  0  0
   -8.2462   18.0979  -32.1260 H   0  0  0  0  0  0  0  0  0  0  0  0
   -7.5440   20.0310  -33.0280 C   0  0  0  0  0  0  0  0  0  0  0  0
   -8.5717   20.1552  -33.4001 H   0  0  0  0  0  0  0  0  0  0  0  0
   -6.8047   20.2141  -33.8217 H   0  0  0  0  0  0  0  0  0  0  0  0
   -7.3040   21.0230  -31.9440 N   0  0  1  0  0  0  0  0  0  0  0  0
   -6.5590   20.6180  -31.3210 H   0  0  0  0  0  0  0  0  0  0  0  0
   -6.7390   22.2860  -32.5140 C   0  0  0  0  0  0  0  0  0  0  0  0
   -5.8676   22.0213  -33.1309 H   0  0  0  0  0  0  0  0  0  0  0  0
   -7.5539   22.7555  -33.0845 H   0  0  0  0  0  0  0  0  0  0  0  0
   -6.2940   23.3150  -31.4880 C   0  0  0  0  0  0  0  0  0  0  0  0
   -7.2500   24.0510  -30.7680 C   0  0  0  0  0  0  0  0  0  0  0  0
   -8.3210   23.8541  -30.9235 H   0  0  0  0  0  0  0  0  0  0  0  0
   -6.8510   25.0300  -29.8570 C   0  0  0  0  0  0  0  0  0  0  0  0
   -7.6071   25.5870  -29.2842 H   0  0  0  0  0  0  0  0  0  0  0  0
   -5.4970   25.3040  -29.6710 C   0  0  0  0  0  0  0  0  0  0  0  0
   -5.1921   26.0964  -28.9716 H   0  0  0  0  0  0  0  0  0  0  0  0
   -4.5200   24.5780  -30.3680 C   0  0  0  0  0  0  0  0  0  0  0  0
   -3.1720   24.8970  -30.1520 O   0  0  0  0  0  0  0  0  0  0  0  0
   -2.2950   24.1580  -29.3020 C   0  0  0  0  0  0  0  0  0  0  0  0
   -2.5420   24.3661  -28.2505 H   0  0  0  0  0  0  0  0  0  0  0  0
   -2.4124   23.0824  -29.5003 H   0  0  0  0  0  0  0  0  0  0  0  0
   -1.2549   24.4560  -29.5003 H   0  0  0  0  0  0  0  0  0  0  0  0
   -4.9260   23.5720  -31.2660 C   0  0  0  0  0  0  0  0  0  0  0  0
   -4.1675   22.9806  -31.7998 H   0  0  0  0  0  0  0  0  0  0  0  0
   -8.5300   21.2090  -31.1190 C   0  0  0  0  0  0  0  0  0  0  0  0
   -8.3923   22.0999  -30.4886 H   0  0  0  0  0  0  0  0  0  0  0  0
   -8.6607   20.2913  -30.5268 H   0  0  0  0  0  0  0  0  0  0  0  0
   -9.8150   21.3950  -31.9500 C   0  0  0  0  0  0  0  0  0  0  0  0
  -10.6739   21.5193  -31.2742 H   0  0  0  0  0  0  0  0  0  0  0  0
   -9.7153   22.2881  -32.5844 H   0  0  0  0  0  0  0  0  0  0  0  0
   -9.9727   20.5103  -32.5844 H   0  0  0  0  0  0  0  0  0  0  0  0
   -4.9240   18.4720  -33.0660 C   0  0  0  0  0  0  0  0  0  0  0  0
   -4.4440   19.6600  -32.4970 C   0  0  0  0  0  0  0  0  0  0  0  0
   -5.0311   20.1729  -31.7210 H   0  0  0  0  0  0  0  0  0  0  0  0
   -3.2220   20.1940  -32.9130 C   0  0  0  0  0  0  0  0  0  0  0  0
   -2.8714   21.1467  -32.4893 H   0  0  0  0  0  0  0  0  0  0  0  0
   -2.4350   19.5250  -33.8690 C   0  0  0  0  0  0  0  0  0  0  0  0
   -1.1170   20.0810  -34.2870 C   0  0  0  0  0  0  0  0  0  0  0  0
   -0.8390   21.4580  -34.1620 C   0  0  0  0  0  0  0  0  0  0  0  0
   -1.6064   22.1351  -33.7588 H   0  0  0  0  0  0  0  0  0  0  0  0
    0.3670   21.9540  -34.5350 N   0  0  0  0  0  0  0  0  0  0  0  0
    1.3460   21.1590  -35.0500 C   0  0  0  0  0  0  0  0  0  0  0  0
    2.3094   21.5954  -35.3522 H   0  0  0  0  0  0  0  0  0  0  0  0
    1.1220   19.7870  -35.1930 C   0  0  0  0  0  0  0  0  0  0  0  0
    1.9077   19.1367  -35.6050 H   0  0  0  0  0  0  0  0  0  0  0  0
   -0.1090   19.2480  -34.8080 C   0  0  0  0  0  0  0  0  0  0  0  0
   -0.2908   18.1682  -34.9126 H   0  0  0  0  0  0  0  0  0  0  0  0
   -2.9020   18.3090  -34.4000 C   0  0  0  0  0  0  0  0  0  0  0  0
   -2.2909   17.7643  -35.1347 H   0  0  0  0  0  0  0  0  0  0  0  0
   -4.1360   17.7870  -34.0020 C   0  0  0  0  0  0  0  0  0  0  0  0
   -4.4903   16.8352  -34.4246 H   0  0  0  0  0  0  0  0  0  0  0  0
  1  2  1  0
  2  3  2  0
  3  4  1  0
  3  5  1  0
  5  6  1  0
  5  7  1  0
  5  8  1  0
  8  9  1  1
  8 10  1  0
 10 11  1  0
 10 12  1  0
 10 13  1  0
 13 14  2  0
 14 15  1  0
 14 16  1  0
 16 17  1  0
 16 18  2  0
 18 19  1  0
 18 20  1  0
 20 21  1  0
 21 22  1  0
 22 23  1  0
 22 24  1  0
 22 25  1  0
 20 26  2  0
 26 27  1  0
  8 28  1  0
 28 29  1  0
 28 30  1  0
 28 31  1  0
 31 32  1  0
 31 33  1  0
 31 34  1  0
  2 35  1  0
 35 36  2  0
 36 37  1  0
 36 38  1  0
 38 39  1  0
 38 40  2  0
 40 41  1  0
 41 42  2  0
 42 43  1  0
 42 44  1  0
 44 45  2  0
 45 46  1  0
 45 47  1  0
 47 48  1  0
 47 49  2  0
 49 50  1  0
 40 51  1  0
 51 52  1  0
 51 53  2  0
 53 54  1  0
 26 13  1  0
 53 35  1  0
 49 41  1  0
M  CHG  1   8   1
M  END
>  <UniqueID>  (4) 
4

>  <SMILES>  (4) 
CC[N@@H+](C/C=C\c1ccc(-c2cccnc2)cc1)Cc1cccc(OC)c1

>  <Energy>  (4) 
75.35976966269531

>  <Genealogy>  (4) 
CC[NH+](CC=Cc1ccc(-c2cccnc2)cc1)Cc1cccc(OC)c1 (protonated)
CC[N@@H+](CC=Cc1ccc(-c2cccnc2)cc1)Cc1cccc(OC)c1 (chirality)
CC[N@@H+](C/C=C\c1ccc(-c2cccnc2)cc1)Cc1cccc(OC)c1 (cis-trans isomerization)
CC[N@@H+](C/C=C\c1ccc(-c2cccnc2)cc1)Cc1cccc(OC)c1 (3D coordinates assigned)
CC[N@@H+](C/C=C\c1ccc(-c2cccnc2)cc1)Cc1cccc(OC)c1 (optimized conformer: 75.35976966269531 kcal/mol)

>  <smiles>  (4) 
CCN(CC=Cc1ccc(-c2cccnc2)cc1)Cc1cccc(OC)c1

>  <score_type>  (4) 
oracle

>  <origin>  (4) 
adg

>  <m_score__min__energy>  (4) 
-8.4800000000000004

>  <m_primary>  (4) 
energy

$$$$
4:0
     RDKit          3D

 38 38  0  0  0  0  0  0  0  0999 V2000
   -2.1900   24.9430  -27.0840 C   0  0  0  0  0  0  0  0  0  0  0  0
   -2.5910   24.5400  -28.5070 C   0  0  0  0  0  0  0  0  0  0  0  0
   -4.0570   24.3900  -28.6580 N   0  0  0  0  0  0  0  0  0  0  0  0
   -4.4960   23.1050  -28.0650 C   0  0  0  0  0  0  0  0  0  0  0  0
   -3.4450   22.0010  -28.2270 C   0  0  0  0  0  0  0  0  0  0  0  0
   -4.4340   24.4470  -30.0620 C   0  0  0  0  0  0  0  0  0  0  0  0
   -3.8660   25.2780  -30.8250 O   0  0  0  0  0  0  0  0  0  0  0  0
   -5.4310   23.5110  -30.6450 C   0  0  0  0  0  0  0  0  0  0  0  0
   -4.9930   22.4590  -31.4680 C   0  0  0  0  0  0  0  0  0  0  0  0
   -5.9090   21.5650  -32.0300 C   0  0  0  0  0  0  0  0  0  0  0  0
   -7.2870   21.7090  -31.7880 C   0  0  0  0  0  0  0  0  0  0  0  0
   -8.2930   20.7470  -32.3920 C   0  0  0  0  0  0  0  0  0  0  0  0
   -9.7250   21.1270  -31.9990 C   0  0  0  0  0  0  0  0  0  0  0  0
   -7.9780   19.2990  -31.9970 C   0  0  0  0  0  0  0  0  0  0  0  0
   -7.7260   22.7690  -30.9790 C   0  0  0  0  0  0  0  0  0  0  0  0
   -6.8100   23.6620  -30.4160 C   0  0  0  0  0  0  0  0  0  0  0  0
   -2.7733   24.3567  -26.3587 H   0  0  0  0  0  0  0  0  0  0  0  0
   -1.1177   24.7473  -26.9359 H   0  0  0  0  0  0  0  0  0  0  0  0
   -2.3911   26.0143  -26.9359 H   0  0  0  0  0  0  0  0  0  0  0  0
   -2.2410   25.3143  -29.2056 H   0  0  0  0  0  0  0  0  0  0  0  0
   -2.1295   23.5651  -28.7228 H   0  0  0  0  0  0  0  0  0  0  0  0
   -4.5200   25.1530  -28.1130 H   0  0  0  0  0  0  0  0  0  0  0  0
   -4.6869   23.2572  -26.9924 H   0  0  0  0  0  0  0  0  0  0  0  0
   -5.4059   22.7838  -28.5931 H   0  0  0  0  0  0  0  0  0  0  0  0
   -3.1180   21.6575  -27.2345 H   0  0  0  0  0  0  0  0  0  0  0  0
   -3.8819   21.1573  -28.7814 H   0  0  0  0  0  0  0  0  0  0  0  0
   -2.5809   22.3959  -28.7814 H   0  0  0  0  0  0  0  0  0  0  0  0
   -3.9188   22.3380  -31.6718 H   0  0  0  0  0  0  0  0  0  0  0  0
   -5.5494   20.7428  -32.6662 H   0  0  0  0  0  0  0  0  0  0  0  0
   -8.2140   20.8217  -33.4866 H   0  0  0  0  0  0  0  0  0  0  0  0
   -9.8105   21.1497  -30.9026 H   0  0  0  0  0  0  0  0  0  0  0  0
   -9.9657   22.1201  -32.4062 H   0  0  0  0  0  0  0  0  0  0  0  0
  -10.4264   20.3839  -32.4062 H   0  0  0  0  0  0  0  0  0  0  0  0
   -7.9595   19.2138  -30.9005 H   0  0  0  0  0  0  0  0  0  0  0  0
   -8.7519   18.6314  -32.4036 H   0  0  0  0  0  0  0  0  0  0  0  0
   -6.9967   19.0132  -32.4036 H   0  0  0  0  0  0  0  0  0  0  0  0
   -8.8013   22.8980  -30.7863 H   0  0  0  0  0  0  0  0  0  0  0  0
   -7.1711   24.4901  -29.7884 H   0  0  0  0  0  0  0  0  0  0  0  0
  1  2  1  0
  2  3  1  0
  3  4  1  0
  4  5  1  0
  3  6  1  0
  6  7  2  0
  6  8  1  0
  8  9  2  0
  9 10  1  0
 10 11  2  0
 11 12  1  0
 12 13  1  0
 12 14  1  0
 11 15  1  0
 15 16  2  0
 16  8  1  0
  1 17  1  0
  1 18  1  0
  1 19  1  0
  2 20  1  0
  2 21  1  0
  3 22  1  0
  4 23  1  0
  4 24  1  0
  5 25  1  0
  5 26  1  0
  5 27  1  0
  9 28  1  0
 10 29  1  0
 12 30  1  0
 13 31  1  0
 13 32  1  0
 13 33  1  0
 14 34  1  0
 14 35  1  0
 14 36  1  0
 15 37  1  0
 16 38  1  0
M  CHG  1   3   1
M  END
>  <UniqueID>  (5) 
5

>  <SMILES>  (5) 
CC[NH+](CC)C(=O)c1ccc(C(C)C)cc1

>  <Energy>  (5) 
34.11841829811778

>  <Genealogy>  (5) 
CC[NH+](CC)C(=O)c1ccc(C(C)C)cc1 (protonated)
CC[NH+](CC)C(=O)c1ccc(C(C)C)cc1 (3D coordinates assigned)
CC[NH+](CC)C(=O)c1ccc(C(C)C)cc1 (optimized conformer: 34.11841829811778 kcal/mol)

>  <smiles>  (5) 
CCN(CC)C(=O)c1ccc(C(C)C)cc1

>  <score_type>  (5) 
oracle

>  <origin>  (5) 
adg

>  <m_score__min__energy>  (5) 
-6.1600000000000001

>  <m_primary>  (5) 
energy

$$$$
5:0
     RDKit          3D

 49 52  0  0  1  0  0  0  0  0999 V2000
   -0.8380   20.4870  -29.7140 N   0  0  0  0  0  0  0  0  0  0  0  0
   -0.9310   21.8580  -29.3220 C   0  0  0  0  0  0  0  0  0  0  0  0
    0.0760   22.3830  -28.8310 O   0  0  0  0  0  0  0  0  0  0  0  0
   -2.1700   22.6040  -29.4980 C   0  0  0  0  0  0  0  0  0  0  0  0
   -2.6670   23.4600  -28.5400 C   0  0  0  0  0  0  0  0  0  0  0  0
   -3.8190   24.1700  -28.6710 C   0  0  0  0  0  0  0  0  0  0  0  0
   -4.5720   24.0340  -29.8640 C   0  0  0  0  0  0  0  0  0  0  0  0
   -4.0620   23.1890  -30.7930 C   0  0  0  0  0  0  0  0  0  0  0  0
   -4.7390   23.0080  -31.9690 C   0  0  0  0  0  0  0  0  0  0  0  0
   -5.7320   23.6790  -32.2740 N   0  0  0  0  0  0  0  0  0  0  0  0
   -7.0290   23.6690  -31.8090 C   0  0  0  0  0  0  0  0  0  0  0  0
   -7.7900   22.3880  -31.9690 C   0  0  0  0  0  0  0  0  0  0  0  0
   -9.1820   22.3450  -31.8120 C   0  0  0  0  0  0  0  0  0  0  0  0
   -9.8970   21.1760  -31.9610 C   0  0  0  0  0  0  0  0  0  0  0  0
   -9.2250   20.0120  -32.2720 C   0  0  0  0  0  0  0  0  0  0  0  0
   -7.8660   19.9920  -32.4360 C   0  0  0  0  0  0  0  0  0  0  0  0
   -7.0950   18.8540  -32.7550 N   0  0  0  0  0  0  0  0  0  0  0  0
   -5.8940   18.8340  -33.4940 C   0  0  0  0  0  0  0  0  0  0  0  0
   -5.3990   19.8900  -33.9480 O   0  0  0  0  0  0  0  0  0  0  0  0
   -5.1460   17.6010  -33.7860 C   0  0  0  0  0  0  0  0  0  0  0  0
   -4.4300   17.5340  -34.9630 C   0  0  0  0  0  0  0  0  0  0  0  0
   -3.6930   16.3960  -35.3120 C   0  0  0  0  0  0  0  0  0  0  0  0
   -3.6680   15.3040  -34.4710 C   0  0  0  0  0  0  0  0  0  0  0  0
   -4.3890   15.3930  -33.3050 C   0  0  0  0  0  0  0  0  0  0  0  0
   -4.3710   14.0110  -32.2200 Cl  0  0  0  0  0  0  0  0  0  0  0  0
   -5.1170   16.5180  -32.9600 C   0  0  0  0  0  0  0  0  0  0  0  0
   -7.1980   21.1870  -32.2780 C   0  0  0  0  0  0  0  0  0  0  0  0
   -4.2400   22.1510  -32.8910 N   0  0  0  0  0  0  0  0  0  0  0  0
   -3.1020   21.4590  -32.7270 C   0  0  0  0  0  0  0  0  0  0  0  0
   -2.4180   21.6280  -31.5840 N   0  0  0  0  0  0  0  0  0  0  0  0
   -2.8910   22.4720  -30.6480 C   0  0  0  0  0  0  0  0  0  0  0  0
   -0.4510   19.7870  -29.0130 H   0  0  0  0  0  0  0  0  0  0  0  0
   -1.1380   20.1480  -30.6630 H   0  0  0  0  0  0  0  0  0  0  0  0
   -2.0944   23.5767  -27.6081 H   0  0  0  0  0  0  0  0  0  0  0  0
   -4.1603   24.8376  -27.8661 H   0  0  0  0  0  0  0  0  0  0  0  0
   -5.5127   24.5807  -30.0260 H   0  0  0  0  0  0  0  0  0  0  0  0
   -7.0004   23.9082  -30.7357 H   0  0  0  0  0  0  0  0  0  0  0  0
   -7.5645   24.4034  -32.4285 H   0  0  0  0  0  0  0  0  0  0  0  0
   -9.7199   23.2715  -31.5625 H   0  0  0  0  0  0  0  0  0  0  0  0
  -10.9896   21.1713  -31.8335 H   0  0  0  0  0  0  0  0  0  0  0  0
   -9.7943   19.0783  -32.3910 H   0  0  0  0  0  0  0  0  0  0  0  0
   -7.4290   17.9020  -32.4170 H   0  0  0  0  0  0  0  0  0  0  0  0
   -4.4383   18.3970  -35.6451 H   0  0  0  0  0  0  0  0  0  0  0  0
   -3.1331   16.3732  -36.2586 H   0  0  0  0  0  0  0  0  0  0  0  0
   -3.0949   14.3995  -34.7229 H   0  0  0  0  0  0  0  0  0  0  0  0
   -5.6759   16.5380  -32.0128 H   0  0  0  0  0  0  0  0  0  0  0  0
   -6.1059   21.1788  -32.4095 H   0  0  0  0  0  0  0  0  0  0  0  0
   -4.7410   21.9900  -33.7970 H   0  0  0  0  0  0  0  0  0  0  0  0
   -2.7398   20.7728  -33.5068 H   0  0  0  0  0  0  0  0  0  0  0  0
  1  2  1  0
  2  3  2  0
  2  4  1  0
  4  5  2  0
  5  6  1  0
  6  7  2  0
  7  8  1  0
  8  9  1  0
  9 10  2  0
 10 11  1  0
 11 12  1  0
 12 13  2  0
 13 14  1  0
 14 15  2  0
 15 16  1  0
 16 17  1  0
 17 18  1  0
 18 19  2  0
 18 20  1  0
 20 21  2  0
 21 22  1  0
 22 23  2  0
 23 24  1  0
 24 25  1  0
 24 26  2  0
 16 27  2  0
  9 28  1  0
 28 29  1  0
 29 30  2  0
 30 31  1  0
 31  4  1  0
 31  8  2  0
 27 12  1  0
 26 20  1  0
  1 32  1  0
  1 33  1  0
  5 34  1  0
  6 35  1  0
  7 36  1  0
 11 37  1  0
 11 38  1  0
 13 39  1  0
 14 40  1  0
 15 41  1  0
 17 42  1  0
 21 43  1  0
 22 44  1  0
 23 45  1  0
 26 46  1  0
 27 47  1  0
 28 48  1  0
 29 49  1  0
M  END
>  <smiles>  (6) 
NC(=O)c1cccc2c(=NCc3cccc(NC(=O)c4cccc(Cl)c4)c3)[nH]cnc12

>  <score_type>  (6) 
oracle

>  <origin>  (6) 
adg

>  <m_score__min__energy>  (6) 
-10.35

>  <m_primary>  (6) 
energy

$$$$
6:0
     RDKit          3D

 56 59  0  0  0  0  0  0  0  0999 V2000
   -4.4744   19.7681  -26.4389 H   0  0  0  0  0  0  0  0  0  0  0  0
   -3.4210   19.6530  -26.7340 C   0  0  0  0  0  0  0  0  0  0  0  0
   -2.7190   18.4970  -26.3810 C   0  0  0  0  0  0  0  0  0  0  0  0
   -3.2230   17.6995  -25.8153 H   0  0  0  0  0  0  0  0  0  0  0  0
   -1.3770   18.3530  -26.7460 C   0  0  0  0  0  0  0  0  0  0  0  0
   -0.8238   17.4470  -26.4577 H   0  0  0  0  0  0  0  0  0  0  0  0
   -0.7340   19.3630  -27.4800 C   0  0  0  0  0  0  0  0  0  0  0  0
    0.9900   19.1470  -27.9380 S   0  0  0  0  0  0  0  0  0  0  0  0
    0.9130   17.3310  -27.8370 C   0  0  0  0  0  0  0  0  0  0  0  0
    0.8999   17.0227  -26.7812 H   0  0  0  0  0  0  0  0  0  0  0  0
   -0.0011   16.9745  -28.3344 H   0  0  0  0  0  0  0  0  0  0  0  0
    1.7936   16.8984  -28.3344 H   0  0  0  0  0  0  0  0  0  0  0  0
   -1.4470   20.5130  -27.8710 C   0  0  0  0  0  0  0  0  0  0  0  0
   -0.7840   21.5420  -28.6240 N   0  0  0  0  0  0  0  0  0  0  0  0
   -1.2280   22.7520  -28.8080 C   0  0  0  0  0  0  0  0  0  0  0  0
   -0.5180   23.8050  -28.3300 N   0  0  0  0  0  0  0  0  0  0  0  0
   -0.9410   25.0790  -28.5540 C   0  0  0  0  0  0  0  0  0  0  0  0
   -0.2180   26.1720  -28.0660 O   0  0  0  0  0  0  0  0  0  0  0  0
   -0.5310   26.8130  -26.8350 C   0  0  0  0  0  0  0  0  0  0  0  0
   -0.2179   26.1719  -25.9978 H   0  0  0  0  0  0  0  0  0  0  0  0
   -0.0015   27.7755  -26.7777 H   0  0  0  0  0  0  0  0  0  0  0  0
   -1.6156   26.9873  -26.7777 H   0  0  0  0  0  0  0  0  0  0  0  0
   -2.0760   25.2980  -29.2670 N   0  0  0  0  0  0  0  0  0  0  0  0
   -2.7950   24.2530  -29.7470 C   0  0  0  0  0  0  0  0  0  0  0  0
   -3.8600   24.4800  -30.4610 N   0  0  0  0  0  0  0  0  0  0  0  0
   -4.6190   23.4600  -31.1300 C   0  0  0  0  0  0  0  0  0  0  0  0
   -3.9670   22.5550  -31.9740 C   0  0  0  0  0  0  0  0  0  0  0  0
   -2.8906   22.6668  -32.1713 H   0  0  0  0  0  0  0  0  0  0  0  0
   -4.6800   21.5080  -32.5680 C   0  0  0  0  0  0  0  0  0  0  0  0
   -4.1565   20.7875  -33.2136 H   0  0  0  0  0  0  0  0  0  0  0  0
   -6.0610   21.3710  -32.3450 C   0  0  0  0  0  0  0  0  0  0  0  0
   -6.7820   20.2500  -32.8960 N   0  0  0  0  0  0  0  0  0  0  0  0
   -8.2110   20.0550  -32.6320 C   0  0  0  0  0  0  0  0  0  0  0  0
   -8.5772   20.8706  -31.9911 H   0  0  0  0  0  0  0  0  0  0  0  0
   -8.7570   20.0556  -33.5869 H   0  0  0  0  0  0  0  0  0  0  0  0
   -8.4390   18.7060  -31.9210 C   0  0  0  0  0  0  0  0  0  0  0  0
   -8.3401   18.8641  -30.8369 H   0  0  0  0  0  0  0  0  0  0  0  0
   -9.4433   18.3592  -32.2056 H   0  0  0  0  0  0  0  0  0  0  0  0
   -7.4800   17.6420  -32.3300 N   0  0  0  0  0  0  0  0  0  0  0  0
   -6.4800   17.3710  -31.2800 C   0  0  0  0  0  0  0  0  0  0  0  0
   -6.9439   17.4967  -30.2906 H   0  0  0  0  0  0  0  0  0  0  0  0
   -6.1101   16.3402  -31.3832 H   0  0  0  0  0  0  0  0  0  0  0  0
   -5.6402   18.0740  -31.3832 H   0  0  0  0  0  0  0  0  0  0  0  0
   -6.8450   17.8930  -33.6430 C   0  0  0  0  0  0  0  0  0  0  0  0
   -6.1510   17.0692  -33.8658 H   0  0  0  0  0  0  0  0  0  0  0  0
   -7.6404   17.9567  -34.4001 H   0  0  0  0  0  0  0  0  0  0  0  0
   -6.0640   19.2200  -33.6580 C   0  0  0  0  0  0  0  0  0  0  0  0
   -5.0731   19.0616  -33.2073 H   0  0  0  0  0  0  0  0  0  0  0  0
   -5.9583   19.5580  -34.6994 H   0  0  0  0  0  0  0  0  0  0  0  0
   -6.7210   22.3140  -31.5390 C   0  0  0  0  0  0  0  0  0  0  0  0
   -7.8044   22.2270  -31.3694 H   0  0  0  0  0  0  0  0  0  0  0  0
   -6.0080   23.3600  -30.9530 C   0  0  0  0  0  0  0  0  0  0  0  0
   -6.5374   24.1111  -30.3485 H   0  0  0  0  0  0  0  0  0  0  0  0
   -2.3620   22.9820  -29.5200 N   0  0  0  0  0  0  0  0  0  0  0  0
   -2.7850   20.6630  -27.4620 C   0  0  0  0  0  0  0  0  0  0  0  0
   -3.3344   21.5813  -27.7168 H   0  0  0  0  0  0  0  0  0  0  0  0
  1  2  1  0
  2  3  2  0
  3  4  1  0
  3  5  1  0
  5  6  1  0
  5  7  2  0
  7  8  1  0
  8  9  1  0
  9 10  1  0
  9 11  1  0
  9 12  1  0
  7 13  1  0
 13 14  1  0
 14 15  2  0
 15 16  1  0
 16 17  2  0
 17 18  1  0
 18 19  1  0
 19 20  1  0
 19 21  1  0
 19 22  1  0
 17 23  1  0
 23 24  1  0
 24 25  2  0
 25 26  1  0
 26 27  2  0
 27 28  1  0
 27 29  1  0
 29 30  1  0
 29 31  2  0
 31 32  1  0
 32 33  1  0
 33 34  1  0
 33 35  1  0
 33 36  1  0
 36 37  1  0
 36 38  1  0
 36 39  1  0
 39 40  1  0
 40 41  1  0
 40 42  1  0
 40 43  1  0
 39 44  1  0
 44 45  1  0
 44 46  1  0
 44 47  1  0
 47 48  1  0
 47 49  1  0
 31 50  1  0
 50 51  1  0
 50 52  2  0
 52 53  1  0
 24 54  1  0
 13 55  2  0
 55 56  1  0
 55  2  1  0
 54 15  1  0
 52 26  1  0
 47 32  1  0
M  CHG  2  23  -1  54  -1
M  END
>  <UniqueID>  (7) 
6

>  <SMILES>  (7) 
COc1n/c(=N/c2ccccc2SC)[n-]/c(=N\c2ccc(N3CCN(C)CC3)cc2)[n-]1

>  <Energy>  (7) 
75.64720483001035

>  <Genealogy>  (7) 
COc1nc(=Nc2ccccc2SC)[n-]c(=Nc2ccc(N3CCN(C)CC3)cc2)[n-]1 (protonated)
COc1n/c(=N/c2ccccc2SC)[n-]/c(=N\c2ccc(N3CCN(C)CC3)cc2)[n-]1 (cis-trans isomerization)
COc1n/c(=N/c2ccccc2SC)[n-]/c(=N\c2ccc(N3CCN(C)CC3)cc2)[n-]1 (3D coordinates assigned)
COc1n/c(=N/c2ccccc2SC)[n-]/c(=N\c2ccc(N3CCN(C)CC3)cc2)[n-]1 (nonaromatic ring conformer: 75.64720483001035 kcal/mol)

>  <smiles>  (7) 
COc1nc(=Nc2ccccc2SC)[nH]c(=Nc2ccc(N3CCN(C)CC3)cc2)[nH]1

>  <score_type>  (7) 
oracle

>  <origin>  (7) 
adg

>  <m_score__min__energy>  (7) 
-11.869999999999999

>  <m_primary>  (7) 
energy

$$$$
7:0
     RDKit          3D

 39 42  0  0  0  0  0  0  0  0999 V2000
   -0.4360   20.3810  -34.5900 C   0  0  0  0  0  0  0  0  0  0  0  0
   -1.3930   19.8100  -33.7050 O   0  0  0  0  0  0  0  0  0  0  0  0
   -2.3640   20.5470  -33.0110 C   0  0  0  0  0  0  0  0  0  0  0  0
   -2.0490   21.5920  -32.1130 C   0  0  0  0  0  0  0  0  0  0  0  0
   -3.0730   22.3130  -31.4450 C   0  0  0  0  0  0  0  0  0  0  0  0
   -2.7420   23.4170  -30.5080 C   0  0  0  0  0  0  0  0  0  0  0  0
   -1.6160   23.5520  -29.7160 C   0  0  0  0  0  0  0  0  0  0  0  0
   -1.7020   24.6960  -29.0140 N   0  0  0  0  0  0  0  0  0  0  0  0
   -2.8400   25.2980  -29.3250 N   0  0  0  0  0  0  0  0  0  0  0  0
   -3.4920   24.5460  -30.2300 C   0  0  0  0  0  0  0  0  0  0  0  0
   -4.4170   21.9600  -31.6920 C   0  0  0  0  0  0  0  0  0  0  0  0
   -4.6680   20.9390  -32.5510 N   0  0  0  0  0  0  0  0  0  0  0  0
   -5.8150   20.3980  -32.9990 C   0  0  0  0  0  0  0  0  0  0  0  0
   -7.1740   20.7840  -32.5670 C   0  0  0  0  0  0  0  0  0  0  0  0
   -7.4610   22.1400  -32.3390 C   0  0  0  0  0  0  0  0  0  0  0  0
   -8.7330   22.5330  -31.9200 C   0  0  0  0  0  0  0  0  0  0  0  0
   -9.7320   21.5780  -31.7230 C   0  0  0  0  0  0  0  0  0  0  0  0
   -9.4620   20.2270  -31.9510 C   0  0  0  0  0  0  0  0  0  0  0  0
   -8.1890   19.8210  -32.3750 C   0  0  0  0  0  0  0  0  0  0  0  0
   -7.9120   18.0720  -32.7070 S   0  0  0  0  0  0  0  0  0  0  0  0
   -6.8230   17.8480  -31.2680 C   0  0  0  0  0  0  0  0  0  0  0  0
   -5.5430   19.4190  -33.8890 N   0  0  0  0  0  0  0  0  0  0  0  0
   -4.2260   19.3220  -34.0220 N   0  0  0  0  0  0  0  0  0  0  0  0
   -3.7110   20.2590  -33.2010 C   0  0  0  0  0  0  0  0  0  0  0  0
    0.3644   20.8586  -34.0059 H   0  0  0  0  0  0  0  0  0  0  0  0
   -0.0062   19.5916  -35.2241 H   0  0  0  0  0  0  0  0  0  0  0  0
   -0.9265   21.1342  -35.2241 H   0  0  0  0  0  0  0  0  0  0  0  0
   -0.9956   21.8501  -31.9292 H   0  0  0  0  0  0  0  0  0  0  0  0
   -0.7818   22.8366  -29.6679 H   0  0  0  0  0  0  0  0  0  0  0  0
   -4.4666   24.7899  -30.6779 H   0  0  0  0  0  0  0  0  0  0  0  0
   -5.2407   22.4987  -31.2007 H   0  0  0  0  0  0  0  0  0  0  0  0
   -6.6779   22.8973  -32.4917 H   0  0  0  0  0  0  0  0  0  0  0  0
   -8.9487   23.5973  -31.7447 H   0  0  0  0  0  0  0  0  0  0  0  0
  -10.7323   21.8898  -31.3880 H   0  0  0  0  0  0  0  0  0  0  0  0
  -10.2523   19.4775  -31.7971 H   0  0  0  0  0  0  0  0  0  0  0  0
   -7.4073   17.9682  -30.3438 H   0  0  0  0  0  0  0  0  0  0  0  0
   -6.3824   16.8404  -31.2949 H   0  0  0  0  0  0  0  0  0  0  0  0
   -6.0205   18.5999  -31.2949 H   0  0  0  0  0  0  0  0  0  0  0  0
   -6.2330   18.8130  -34.3860 H   0  0  0  0  0  0  0  0  0  0  0  0
  1  2  1  0
  2  3  1  0
  3  4  2  0
  4  5  1  0
  5  6  1  0
  6  7  1  0
  7  8  2  0
  8  9  1  0
  9 10  1  0
  5 11  2  0
 11 12  1  0
 12 13  1  0
 13 14  1  0
 14 15  2  0
 15 16  1  0
 16 17  2  0
 17 18  1  0
 18 19  2  0
 19 20  1  0
 20 21  1  0
 13 22  2  0
 22 23  1  0
 23 24  2  0
 24  3  1  0
 10  6  2  0
 24 12  1  0
 19 14  1  0
  1 25  1  0
  1 26  1  0
  1 27  1  0
  4 28  1  0
  7 29  1  0
 10 30  1  0
 11 31  1  0
 15 32  1  0
 16 33  1  0
 17 34  1  0
 18 35  1  0
 21 36  1  0
 21 37  1  0
 21 38  1  0
 22 39  1  0
M  CHG  2   9  -1  22   1
M  END
>  <UniqueID>  (8) 
7

>  <SMILES>  (8) 
COc1cc(-c2cn[n-]c2)cn2c(-c3ccccc3SC)[nH+]nc12

>  <Energy>  (8) 
117.10764199472796

>  <Genealogy>  (8) 
COc1cc(-c2cn[n-]c2)cn2c(-c3ccccc3SC)[nH+]nc12 (protonated)
COc1cc(-c2cn[n-]c2)cn2c(-c3ccccc3SC)[nH+]nc12 (3D coordinates assigned)
COc1cc(-c2cn[n-]c2)cn2c(-c3ccccc3SC)[nH+]nc12 (optimized conformer: 117.10764199472796 kcal/mol)

>  <smiles>  (8) 
COc1cc(-c2cn[nH]c2)cn2c(-c3ccccc3SC)nnc12

>  <score_type>  (8) 
oracle

>  <origin>  (8) 
adg

>  <m_score__min__energy>  (8) 
-9.0899999999999999

>  <m_primary>  (8) 
energy

$$$$
8:0
     RDKit          3D

 52 55  0  0  0  0  0  0  0  0999 V2000
   -8.4840   22.1490  -31.9700 C   0  0  0  0  0  0  0  0  0  0  0  0
   -8.5080   20.8400  -31.1880 C   0  0  0  0  0  0  0  0  0  0  0  0
   -7.7210   19.8090  -31.8920 N   0  0  0  0  0  0  0  0  0  0  0  0
   -8.3530   18.7050  -32.4170 C   0  0  0  0  0  0  0  0  0  0  0  0
   -9.6020   18.5580  -32.3030 O   0  0  0  0  0  0  0  0  0  0  0  0
   -7.6210   17.7150  -33.0800 C   0  0  0  0  0  0  0  0  0  0  0  0
   -6.2410   17.8360  -33.2020 C   0  0  0  0  0  0  0  0  0  0  0  0
   -5.5910   18.9430  -32.6420 C   0  0  0  0  0  0  0  0  0  0  0  0
   -4.1980   19.1150  -32.7170 C   0  0  0  0  0  0  0  0  0  0  0  0
   -3.3700   18.1880  -33.4340 N   0  0  0  0  0  0  0  0  0  0  0  0
   -3.4830   16.7700  -33.0790 C   0  0  0  0  0  0  0  0  0  0  0  0
   -2.4340   15.9110  -33.7780 C   0  0  0  0  0  0  0  0  0  0  0  0
   -1.1960   16.5870  -33.8500 O   0  0  0  0  0  0  0  0  0  0  0  0
   -1.3210   17.6570  -34.7590 C   0  0  0  0  0  0  0  0  0  0  0  0
   -2.2590   18.7380  -34.2140 C   0  0  0  0  0  0  0  0  0  0  0  0
   -3.6180   20.2030  -32.1360 N   0  0  0  0  0  0  0  0  0  0  0  0
   -4.3580   21.1260  -31.4600 C   0  0  0  0  0  0  0  0  0  0  0  0
   -3.7170   22.2900  -30.7970 C   0  0  0  0  0  0  0  0  0  0  0  0
   -2.3920   22.2200  -30.3390 C   0  0  0  0  0  0  0  0  0  0  0  0
   -1.7900   23.3240  -29.7310 C   0  0  0  0  0  0  0  0  0  0  0  0
   -2.5170   24.5080  -29.5200 C   0  0  0  0  0  0  0  0  0  0  0  0
   -1.9380   25.6730  -28.9080 N   0  0  0  0  0  0  0  0  0  0  0  0
   -0.8550   25.7010  -27.9640 C   0  0  0  0  0  0  0  0  0  0  0  0
   -1.0010   26.4900  -26.7070 C   0  0  0  0  0  0  0  0  0  0  0  0
    0.2130   25.0650  -28.1760 O   0  0  0  0  0  0  0  0  0  0  0  0
   -3.8370   24.5790  -29.9730 C   0  0  0  0  0  0  0  0  0  0  0  0
   -4.4340   23.4820  -30.6020 C   0  0  0  0  0  0  0  0  0  0  0  0
   -5.7090   20.9820  -31.4030 N   0  0  0  0  0  0  0  0  0  0  0  0
   -6.3510   19.9250  -31.9750 C   0  0  0  0  0  0  0  0  0  0  0  0
   -8.4685   22.9955  -31.2677 H   0  0  0  0  0  0  0  0  0  0  0  0
   -7.5851   22.1814  -32.6032 H   0  0  0  0  0  0  0  0  0  0  0  0
   -9.3811   22.2143  -32.6032 H   0  0  0  0  0  0  0  0  0  0  0  0
   -8.0779   21.0059  -30.1892 H   0  0  0  0  0  0  0  0  0  0  0  0
   -9.5489   20.4961  -31.0973 H   0  0  0  0  0  0  0  0  0  0  0  0
   -8.1365   16.8410  -33.5048 H   0  0  0  0  0  0  0  0  0  0  0  0
   -5.6633   17.0667  -33.7353 H   0  0  0  0  0  0  0  0  0  0  0  0
   -3.3565   16.6669  -31.9912 H   0  0  0  0  0  0  0  0  0  0  0  0
   -4.4740   16.4205  -33.4041 H   0  0  0  0  0  0  0  0  0  0  0  0
   -2.3013   14.9753  -33.2151 H   0  0  0  0  0  0  0  0  0  0  0  0
   -2.7784   15.6983  -34.8008 H   0  0  0  0  0  0  0  0  0  0  0  0
   -0.3284   18.0976  -34.9336 H   0  0  0  0  0  0  0  0  0  0  0  0
   -1.7432   17.2697  -35.6980 H   0  0  0  0  0  0  0  0  0  0  0  0
   -1.6783   19.4141  -33.5693 H   0  0  0  0  0  0  0  0  0  0  0  0
   -2.6910   19.2660  -35.0769 H   0  0  0  0  0  0  0  0  0  0  0  0
   -2.5890   20.3320  -32.2520 H   0  0  0  0  0  0  0  0  0  0  0  0
   -1.8223   21.2868  -30.4601 H   0  0  0  0  0  0  0  0  0  0  0  0
   -0.7380   23.2662  -29.4147 H   0  0  0  0  0  0  0  0  0  0  0  0
   -0.8778   25.8244  -25.8399 H   0  0  0  0  0  0  0  0  0  0  0  0
   -0.2333   27.2772  -26.6769 H   0  0  0  0  0  0  0  0  0  0  0  0
   -1.9996   26.9504  -26.6769 H   0  0  0  0  0  0  0  0  0  0  0  0
   -4.4118   25.5064  -29.8335 H   0  0  0  0  0  0  0  0  0  0  0  0
   -5.4759   23.5533  -30.9476 H   0  0  0  0  0  0  0  0  0  0  0  0
  1  2  1  0
  2  3  1  0
  3  4  1  0
  4  5  2  0
  4  6  1  0
  6  7  2  0
  7  8  1  0
  8  9  2  0
  9 10  1  0
 10 11  1  0
 11 12  1  0
 12 13  1  0
 13 14  1  0
 14 15  1  0
  9 16  1  0
 16 17  2  0
 17 18  1  0
 18 19  2  0
 19 20  1  0
 20 21  2  0
 21 22  1  0
 22 23  1  0
 23 24  1  0
 23 25  2  0
 21 26  1  0
 26 27  2  0
 17 28  1  0
 28 29  2  0
 29  3  1  0
 29  8  1  0
 15 10  1  0
 27 18  1  0
  1 30  1  0
  1 31  1  0
  1 32  1  0
  2 33  1  0
  2 34  1  0
  6 35  1  0
  7 36  1  0
 11 37  1  0
 11 38  1  0
 12 39  1  0
 12 40  1  0
 14 41  1  0
 14 42  1  0
 15 43  1  0
 15 44  1  0
 16 45  1  0
 19 46  1  0
 20 47  1  0
 24 48  1  0
 24 49  1  0
 24 50  1  0
 26 51  1  0
 27 52  1  0
M  CHG  2  16   1  22  -1
M  END
>  <UniqueID>  (9) 
8

>  <SMILES>  (9) 
CCn1c(=O)ccc2c(N3CCOCC3)[nH+]c(-c3ccc([N-]C(C)=O)cc3)nc21

>  <Energy>  (9) 
74.2908674290863

>  <Genealogy>  (9) 
CCn1c(=O)ccc2c(N3CCOCC3)[nH+]c(-c3ccc([N-]C(C)=O)cc3)nc21 (protonated)
CCn1c(=O)ccc2c(N3CCOCC3)[nH+]c(-c3ccc([N-]C(C)=O)cc3)nc21 (3D coordinates assigned)
CCn1c(=O)ccc2c(N3CCOCC3)[nH+]c(-c3ccc([N-]C(C)=O)cc3)nc21 (nonaromatic ring conformer: 74.2908674290863 kcal/mol)

>  <smiles>  (9) 
CCn1c(=O)ccc2c(N3CCOCC3)nc(-c3ccc(NC(C)=O)cc3)nc21

>  <score_type>  (9) 
oracle

>  <origin>  (9) 
adg

>  <m_score__min__energy>  (9) 
-9.4299999999999997

>  <m_primary>  (9) 
energy

$$$$
9:0
     RDKit          3D

 48 52  0  0  0  0  0  0  0  0999 V2000
   -5.6330   26.4640  -30.4450 O   0  0  0  0  0  0  0  0  0  0  0  0
   -5.0590   25.3500  -30.5670 C   0  0  0  0  0  0  0  0  0  0  0  0
   -3.6300   25.2940  -30.4570 N   0  0  0  0  0  0  0  0  0  0  0  0
   -2.8810   24.4030  -29.6190 C   0  0  0  0  0  0  0  0  0  0  0  0
   -3.3140   23.0760  -29.4920 C   0  0  0  0  0  0  0  0  0  0  0  0
   -2.6080   22.1750  -28.6890 C   0  0  0  0  0  0  0  0  0  0  0  0
   -1.4530   22.5900  -28.0210 C   0  0  0  0  0  0  0  0  0  0  0  0
   -0.9960   23.9030  -28.1650 C   0  0  0  0  0  0  0  0  0  0  0  0
   -1.6980   24.8090  -28.9680 C   0  0  0  0  0  0  0  0  0  0  0  0
   -1.2010   26.0590  -29.1360 F   0  0  0  0  0  0  0  0  0  0  0  0
   -5.8680   24.1550  -30.8770 C   0  0  0  0  0  0  0  0  0  0  0  0
   -5.6380   23.2600  -31.9260 C   0  0  0  0  0  0  0  0  0  0  0  0
   -6.6560   22.3410  -31.8210 C   0  0  0  0  0  0  0  0  0  0  0  0
   -6.9130   21.2540  -32.5900 N   0  0  0  0  0  0  0  0  0  0  0  0
   -7.9970   20.4660  -32.3000 C   0  0  0  0  0  0  0  0  0  0  0  0
   -8.2360   19.3410  -33.1060 O   0  0  0  0  0  0  0  0  0  0  0  0
   -7.4810   18.1300  -33.0780 C   0  0  0  0  0  0  0  0  0  0  0  0
   -6.0260   18.4000  -33.3620 C   0  0  0  0  0  0  0  0  0  0  0  0
   -5.4350   17.9220  -34.5410 C   0  0  0  0  0  0  0  0  0  0  0  0
   -4.1210   18.1600  -34.7970 N   0  0  0  0  0  0  0  0  0  0  0  0
   -3.3370   18.8540  -33.9300 C   0  0  0  0  0  0  0  0  0  0  0  0
   -1.9890   19.0820  -34.2300 C   0  0  0  0  0  0  0  0  0  0  0  0
   -1.1840   19.7940  -33.3350 C   0  0  0  0  0  0  0  0  0  0  0  0
   -1.7230   20.2820  -32.1400 C   0  0  0  0  0  0  0  0  0  0  0  0
   -3.0700   20.0590  -31.8320 C   0  0  0  0  0  0  0  0  0  0  0  0
   -3.8830   19.3450  -32.7240 C   0  0  0  0  0  0  0  0  0  0  0  0
   -5.2350   19.1070  -32.4450 C   0  0  0  0  0  0  0  0  0  0  0  0
   -8.8420   20.8090  -31.2060 C   0  0  0  0  0  0  0  0  0  0  0  0
   -8.5590   21.9420  -30.4240 C   0  0  0  0  0  0  0  0  0  0  0  0
   -7.4420   22.6930  -30.7660 C   0  0  0  0  0  0  0  0  0  0  0  0
   -6.9780   23.8060  -30.1770 N   0  0  0  0  0  0  0  0  0  0  0  0
   -4.2148   22.7413  -30.0274 H   0  0  0  0  0  0  0  0  0  0  0  0
   -2.9620   21.1389  -28.5831 H   0  0  0  0  0  0  0  0  0  0  0  0
   -0.9034   21.8833  -27.3818 H   0  0  0  0  0  0  0  0  0  0  0  0
   -0.0816   24.2253  -27.6455 H   0  0  0  0  0  0  0  0  0  0  0  0
   -4.8262   23.2851  -32.6679 H   0  0  0  0  0  0  0  0  0  0  0  0
   -6.2880   21.0150  -33.3910 H   0  0  0  0  0  0  0  0  0  0  0  0
   -7.5749   17.6694  -32.0835 H   0  0  0  0  0  0  0  0  0  0  0  0
   -7.8716   17.4529  -33.8520 H   0  0  0  0  0  0  0  0  0  0  0  0
   -6.0381   17.3513  -35.2626 H   0  0  0  0  0  0  0  0  0  0  0  0
   -1.5627   18.7011  -35.1698 H   0  0  0  0  0  0  0  0  0  0  0  0
   -0.1243   19.9707  -33.5714 H   0  0  0  0  0  0  0  0  0  0  0  0
   -1.0862   20.8428  -31.4401 H   0  0  0  0  0  0  0  0  0  0  0  0
   -3.4905   20.4435  -30.8911 H   0  0  0  0  0  0  0  0  0  0  0  0
   -5.6761   19.4746  -31.5068 H   0  0  0  0  0  0  0  0  0  0  0  0
   -9.7179   20.1859  -30.9726 H   0  0  0  0  0  0  0  0  0  0  0  0
   -9.1977   22.2231  -29.5737 H   0  0  0  0  0  0  0  0  0  0  0  0
   -7.3880   24.2980  -29.3510 H   0  0  0  0  0  0  0  0  0  0  0  0
  1  2  2  0
  2  3  1  0
  3  4  1  0
  4  5  2  0
  5  6  1  0
  6  7  2  0
  7  8  1  0
  8  9  2  0
  9 10  1  0
  2 11  1  0
 11 12  2  0
 12 13  1  0
 13 14  2  0
 14 15  1  0
 15 16  1  0
 16 17  1  0
 17 18  1  0
 18 19  2  0
 19 20  1  0
 20 21  2  0
 21 22  1  0
 22 23  2  0
 23 24  1  0
 24 25  2  0
 25 26  1  0
 26 27  2  0
 15 28  2  0
 28 29  1  0
 29 30  2  0
 30 31  1  0
  9  4  1  0
 31 11  1  0
 30 13  1  0
 27 18  1  0
 26 21  1  0
  5 32  1  0
  6 33  1  0
  7 34  1  0
  8 35  1  0
 12 36  1  0
 14 37  1  0
 17 38  1  0
 17 39  1  0
 19 40  1  0
 22 41  1  0
 23 42  1  0
 24 43  1  0
 25 44  1  0
 27 45  1  0
 28 46  1  0
 29 47  1  0
 31 48  1  0
M  CHG  2   3  -1  14   1
M  END
>  <UniqueID>  (10) 
9

>  <SMILES>  (10) 
O=C([N-]c1ccccc1F)c1cc2[nH+]c(OCc3cnc4ccccc4c3)ccc2[nH]1

>  <Energy>  (10) 
98.49006463642279

>  <Genealogy>  (10) 
O=C([N-]c1ccccc1F)c1cc2[nH+]c(OCc3cnc4ccccc4c3)ccc2[nH]1 (protonated)
O=C([N-]c1ccccc1F)c1cc2[nH+]c(OCc3cnc4ccccc4c3)ccc2[nH]1 (3D coordinates assigned)
O=C([N-]c1ccccc1F)c1cc2[nH+]c(OCc3cnc4ccccc4c3)ccc2[nH]1 (optimized conformer: 98.49006463642279 kcal/mol)

>  <smiles>  (10) 
O=C(Nc1ccccc1F)c1cc2nc(OCc3cnc4ccccc4c3)ccc2[nH]1

>  <score_type>  (10) 
oracle

>  <origin>  (10) 
adg

>  <m_score__min__energy>  (10) 
-10.93

>  <m_primary>  (10) 
energy

$$$$
10:0
     RDKit          3D

 47 49  0  0  0  0  0  0  0  0999 V2000
   -2.9660   20.0920  -27.2140 C   0  0  0  0  0  0  0  0  0  0  0  0
   -2.7790   21.4800  -27.7500 C   0  0  0  0  0  0  0  0  0  0  0  0
   -1.5240   21.8970  -28.2150 C   0  0  0  0  0  0  0  0  0  0  0  0
   -1.3590   23.1820  -28.7380 C   0  0  0  0  0  0  0  0  0  0  0  0
   -2.4470   24.0570  -28.8130 C   0  0  0  0  0  0  0  0  0  0  0  0
   -2.2640   25.2990  -29.3300 F   0  0  0  0  0  0  0  0  0  0  0  0
   -3.7170   23.6500  -28.3620 C   0  0  0  0  0  0  0  0  0  0  0  0
   -4.8520   24.5430  -28.4480 N   0  0  0  0  0  0  0  0  0  0  0  0
   -5.7730   24.1450  -29.5280 C   0  0  0  0  0  0  0  0  0  0  0  0
   -5.0850   24.1550  -30.8690 C   0  0  0  0  0  0  0  0  0  0  0  0
   -4.2940   25.0960  -31.1480 O   0  0  0  0  0  0  0  0  0  0  0  0
   -5.2340   23.0590  -31.7840 N   0  0  0  0  0  0  0  0  0  0  0  0
   -4.0310   22.3860  -32.2900 C   0  0  0  0  0  0  0  0  0  0  0  0
   -4.3730   21.3330  -33.3520 C   0  0  0  0  0  0  0  0  0  0  0  0
   -5.5260   20.5230  -32.9230 N   0  0  0  0  0  0  0  0  0  0  0  0
   -5.6090   19.1400  -33.3140 C   0  0  0  0  0  0  0  0  0  0  0  0
   -6.7840   18.4070  -33.0690 C   0  0  0  0  0  0  0  0  0  0  0  0
   -6.8670   17.0600  -33.4340 C   0  0  0  0  0  0  0  0  0  0  0  0
   -5.7840   16.4320  -34.0530 C   0  0  0  0  0  0  0  0  0  0  0  0
   -4.6160   17.1550  -34.3120 C   0  0  0  0  0  0  0  0  0  0  0  0
   -4.5230   18.5020  -33.9440 C   0  0  0  0  0  0  0  0  0  0  0  0
   -3.3940   19.1900  -34.2420 F   0  0  0  0  0  0  0  0  0  0  0  0
   -6.6980   21.1680  -32.3080 C   0  0  0  0  0  0  0  0  0  0  0  0
   -6.5560   22.6920  -32.3040 C   0  0  0  0  0  0  0  0  0  0  0  0
   -3.8740   22.3530  -27.8400 C   0  0  0  0  0  0  0  0  0  0  0  0
   -2.9622   20.1200  -26.1144 H   0  0  0  0  0  0  0  0  0  0  0  0
   -3.9266   19.6889  -27.5672 H   0  0  0  0  0  0  0  0  0  0  0  0
   -2.1464   19.4490  -27.5672 H   0  0  0  0  0  0  0  0  0  0  0  0
   -0.6661   21.2101  -28.1679 H   0  0  0  0  0  0  0  0  0  0  0  0
   -0.3694   23.5066  -29.0921 H   0  0  0  0  0  0  0  0  0  0  0  0
   -5.3660   24.5730  -27.5340 H   0  0  0  0  0  0  0  0  0  0  0  0
   -4.5120   25.5150  -28.6340 H   0  0  0  0  0  0  0  0  0  0  0  0
   -6.1459   23.1303  -29.3246 H   0  0  0  0  0  0  0  0  0  0  0  0
   -6.6025   24.8667  -29.5591 H   0  0  0  0  0  0  0  0  0  0  0  0
   -3.3630   23.1377  -32.7358 H   0  0  0  0  0  0  0  0  0  0  0  0
   -3.5435   21.8757  -31.4462 H   0  0  0  0  0  0  0  0  0  0  0  0
   -4.6178   21.8389  -34.2976 H   0  0  0  0  0  0  0  0  0  0  0  0
   -3.5050   20.6714  -33.4894 H   0  0  0  0  0  0  0  0  0  0  0  0
   -7.6431   18.8966  -32.5872 H   0  0  0  0  0  0  0  0  0  0  0  0
   -7.7880   16.4931  -33.2330 H   0  0  0  0  0  0  0  0  0  0  0  0
   -5.8499   15.3711  -34.3360 H   0  0  0  0  0  0  0  0  0  0  0  0
   -3.7660   16.6629  -34.8074 H   0  0  0  0  0  0  0  0  0  0  0  0
   -7.5981   20.8935  -32.8776 H   0  0  0  0  0  0  0  0  0  0  0  0
   -6.7767   20.8240  -31.2662 H   0  0  0  0  0  0  0  0  0  0  0  0
   -6.6650   23.0730  -33.3301 H   0  0  0  0  0  0  0  0  0  0  0  0
   -7.3361   23.1311  -31.6648 H   0  0  0  0  0  0  0  0  0  0  0  0
   -4.8653   22.0198  -27.4989 H   0  0  0  0  0  0  0  0  0  0  0  0
  1  2  1  0
  2  3  2  0
  3  4  1  0
  4  5  2  0
  5  6  1  0
  5  7  1  0
  7  8  1  0
  8  9  1  0
  9 10  1  0
 10 11  2  0
 10 12  1  0
 12 13  1  0
 13 14  1  0
 14 15  1  0
 15 16  1  0
 16 17  2  0
 17 18  1  0
 18 19  2  0
 19 20  1  0
 20 21  2  0
 21 22  1  0
 15 23  1  0
 23 24  1  0
  7 25  2  0
 25  2  1  0
 24 12  1  0
 21 16  1  0
  1 26  1  0
  1 27  1  0
  1 28  1  0
  3 29  1  0
  4 30  1  0
  8 31  1  0
  8 32  1  0
  9 33  1  0
  9 34  1  0
 13 35  1  0
 13 36  1  0
 14 37  1  0
 14 38  1  0
 17 39  1  0
 18 40  1  0
 19 41  1  0
 20 42  1  0
 23 43  1  0
 23 44  1  0
 24 45  1  0
 24 46  1  0
 25 47  1  0
M  CHG  1   8   1
M  END
>  <UniqueID>  (11) 
10

>  <SMILES>  (11) 
Cc1ccc(F)c([NH2+]CC(=O)N2CCN(c3ccccc3F)CC2)c1

>  <Energy>  (11) 
56.58382936296172

>  <Genealogy>  (11) 
Cc1ccc(F)c([NH2+]CC(=O)N2CCN(c3ccccc3F)CC2)c1 (protonated)
Cc1ccc(F)c([NH2+]CC(=O)N2CCN(c3ccccc3F)CC2)c1 (3D coordinates assigned)
Cc1ccc(F)c([NH2+]CC(=O)N2CCN(c3ccccc3F)CC2)c1 (nonaromatic ring conformer: 56.58382936296172 kcal/mol)

>  <smiles>  (11) 
Cc1ccc(F)c(NCC(=O)N2CCN(c3ccccc3F)CC2)c1

>  <score_type>  (11) 
oracle

>  <origin>  (11) 
adg

>  <m_score__min__energy>  (11) 
-9.1400000000000006

>  <m_primary>  (11) 
energy

$$$$
11:0
     RDKit          3D

 40 42  0  0  0  0  0  0  0  0999 V2000
   -2.8574   21.1585  -27.0027 H   0  0  0  0  0  0  0  0  0  0  0  0
   -2.7320   22.1440  -27.4750 C   0  0  0  0  0  0  0  0  0  0  0  0
   -3.7480   22.6630  -28.2830 C   0  0  0  0  0  0  0  0  0  0  0  0
   -4.6643   22.0792  -28.4549 H   0  0  0  0  0  0  0  0  0  0  0  0
   -3.6020   23.9260  -28.8750 C   0  0  0  0  0  0  0  0  0  0  0  0
   -4.8610   24.5800  -29.9180 S   0  0  0  0  0  0  0  0  0  0  0  0
   -4.2470   25.5820  -30.8540 O   0  0  0  0  0  0  0  0  0  0  0  0
   -5.9210   25.2710  -29.1050 O   0  0  0  0  0  0  0  0  0  0  0  0
   -5.5970   23.2720  -30.8420 C   0  0  0  0  0  0  0  0  0  0  0  0
   -6.9280   23.0410  -30.7050 N   0  0  0  0  0  0  0  0  0  0  0  0
   -7.5510   22.0540  -31.3950 C   0  0  0  0  0  0  0  0  0  0  0  0
   -8.9250   21.8380  -31.2340 C   0  0  0  0  0  0  0  0  0  0  0  0
   -9.5053   22.4684  -30.5442 H   0  0  0  0  0  0  0  0  0  0  0  0
   -9.5580   20.8180  -31.9530 C   0  0  0  0  0  0  0  0  0  0  0  0
  -10.6376   20.6478  -31.8283 H   0  0  0  0  0  0  0  0  0  0  0  0
   -8.8220   20.0140  -32.8300 C   0  0  0  0  0  0  0  0  0  0  0  0
   -9.3242   19.2134  -33.3928 H   0  0  0  0  0  0  0  0  0  0  0  0
   -7.4480   20.2260  -32.9930 C   0  0  0  0  0  0  0  0  0  0  0  0
   -6.8718   19.5919  -33.6829 H   0  0  0  0  0  0  0  0  0  0  0  0
   -6.8050   21.2480  -32.2760 C   0  0  0  0  0  0  0  0  0  0  0  0
   -5.4670   21.4750  -32.4200 N   0  0  0  0  0  0  0  0  0  0  0  0
   -4.9370   20.8700  -33.0850 H   0  0  0  0  0  0  0  0  0  0  0  0
   -4.8380   22.4690  -31.7190 C   0  0  0  0  0  0  0  0  0  0  0  0
   -3.5590   22.7000  -31.8470 N   0  0  0  0  0  0  0  0  0  0  0  0
   -2.4840   21.7180  -31.9800 C   0  0  0  0  0  0  0  0  0  0  0  0
   -1.9794   21.8644  -32.9464 H   0  0  0  0  0  0  0  0  0  0  0  0
   -2.9192   20.7093  -31.9240 H   0  0  0  0  0  0  0  0  0  0  0  0
   -1.4650   21.8740  -30.8550 C   0  0  0  0  0  0  0  0  0  0  0  0
   -1.9760   21.7958  -29.8840 H   0  0  0  0  0  0  0  0  0  0  0  0
   -0.7063   21.0815  -30.9350 H   0  0  0  0  0  0  0  0  0  0  0  0
   -0.9781   22.8571  -30.9350 H   0  0  0  0  0  0  0  0  0  0  0  0
   -2.4320   24.6620  -28.6540 C   0  0  0  0  0  0  0  0  0  0  0  0
   -2.3121   25.6521  -29.1179 H   0  0  0  0  0  0  0  0  0  0  0  0
   -1.4150   24.1440  -27.8460 C   0  0  0  0  0  0  0  0  0  0  0  0
   -0.5038   24.7335  -27.6662 H   0  0  0  0  0  0  0  0  0  0  0  0
   -1.5530   22.8750  -27.2640 C   0  0  0  0  0  0  0  0  0  0  0  0
   -0.4790   22.3350  -26.3670 C   0  0  0  0  0  0  0  0  0  0  0  0
   -0.7706   22.4816  -25.3165 H   0  0  0  0  0  0  0  0  0  0  0  0
   -0.3428   21.2613  -26.5633 H   0  0  0  0  0  0  0  0  0  0  0  0
    0.4641   22.8661  -26.5633 H   0  0  0  0  0  0  0  0  0  0  0  0
  1  2  1  0
  2  3  2  0
  3  4  1  0
  3  5  1  0
  5  6  1  0
  6  7  2  0
  6  8  2  0
  6  9  1  0
  9 10  2  0
 10 11  1  0
 11 12  2  0
 12 13  1  0
 12 14  1  0
 14 15  1  0
 14 16  2  0
 16 17  1  0
 16 18  1  0
 18 19  1  0
 18 20  2  0
 20 21  1  0
 21 22  1  0
 21 23  1  0
 23 24  2  0
 24 25  1  0
 25 26  1  0
 25 27  1  0
 25 28  1  0
 28 29  1  0
 28 30  1  0
 28 31  1  0
  5 32  2  0
 32 33  1  0
 32 34  1  0
 34 35  1  0
 34 36  2  0
 36 37  1  0
 37 38  1  0
 37 39  1  0
 37 40  1  0
 36  2  1  0
 23  9  1  0
 20 11  1  0
M  END
>  <UniqueID>  (12) 
11

>  <SMILES>  (12) 
CC/N=c1\[nH]c2ccccc2nc1S(=O)(=O)c1ccc(C)cc1

>  <Energy>  (12) 
46.57466257774496

>  <Genealogy>  (12) 
CC/N=c1\[nH]c2ccccc2nc1S(=O)(=O)c1ccc(C)cc1 (cis-trans isomerization)
CC/N=c1\[nH]c2ccccc2nc1S(=O)(=O)c1ccc(C)cc1 (3D coordinates assigned)
CC/N=c1\[nH]c2ccccc2nc1S(=O)(=O)c1ccc(C)cc1 (optimized conformer: 46.57466257774496 kcal/mol)

>  <smiles>  (12) 
CCN=c1[nH]c2ccccc2nc1S(=O)(=O)c1ccc(C)cc1

>  <score_type>  (12) 
oracle

>  <origin>  (12) 
adg

>  <m_score__min__energy>  (12) 
-8.5700000000000003

>  <m_primary>  (12) 
energy

$$$$
12:0
     RDKit          3D

 28 30  0  0  0  0  0  0  0  0999 V2000
   -6.1450   19.1880  -34.4530 O   0  0  0  0  0  0  0  0  0  0  0  0
   -6.1090   18.4110  -33.4570 C   0  0  0  0  0  0  0  0  0  0  0  0
   -6.8300   18.7280  -32.2890 C   0  0  0  0  0  0  0  0  0  0  0  0
   -7.6170   19.9820  -32.1740 C   0  0  0  0  0  0  0  0  0  0  0  0
   -9.0220   19.9380  -32.1250 C   0  0  0  0  0  0  0  0  0  0  0  0
   -9.7630   21.1180  -32.0070 C   0  0  0  0  0  0  0  0  0  0  0  0
   -9.1100   22.3510  -31.9330 C   0  0  0  0  0  0  0  0  0  0  0  0
   -7.7150   22.4060  -31.9730 C   0  0  0  0  0  0  0  0  0  0  0  0
   -6.9700   21.2280  -32.0910 C   0  0  0  0  0  0  0  0  0  0  0  0
   -6.8040   17.8260  -31.2140 C   0  0  0  0  0  0  0  0  0  0  0  0
   -6.0850   16.6750  -31.2890 N   0  0  0  0  0  0  0  0  0  0  0  0
   -5.3680   16.3500  -32.4010 C   0  0  0  0  0  0  0  0  0  0  0  0
   -4.6330   15.1540  -32.4450 C   0  0  0  0  0  0  0  0  0  0  0  0
   -3.9000   14.8180  -33.5870 C   0  0  0  0  0  0  0  0  0  0  0  0
   -2.9860   13.3230  -33.6340 Cl  0  0  0  0  0  0  0  0  0  0  0  0
   -3.8970   15.6730  -34.6930 C   0  0  0  0  0  0  0  0  0  0  0  0
   -4.6240   16.8660  -34.6630 C   0  0  0  0  0  0  0  0  0  0  0  0
   -5.3650   17.2180  -33.5190 C   0  0  0  0  0  0  0  0  0  0  0  0
   -9.5410   18.9697  -32.1798 H   0  0  0  0  0  0  0  0  0  0  0  0
  -10.8616   21.0754  -31.9724 H   0  0  0  0  0  0  0  0  0  0  0  0
   -9.6946   23.2784  -31.8432 H   0  0  0  0  0  0  0  0  0  0  0  0
   -7.2015   23.3769  -31.9116 H   0  0  0  0  0  0  0  0  0  0  0  0
   -5.8714   21.2765  -32.1190 H   0  0  0  0  0  0  0  0  0  0  0  0
   -7.3722   18.0533  -30.3000 H   0  0  0  0  0  0  0  0  0  0  0  0
   -6.0890   16.0350  -30.4620 H   0  0  0  0  0  0  0  0  0  0  0  0
   -4.6341   14.4785  -31.5768 H   0  0  0  0  0  0  0  0  0  0  0  0
   -3.3200   15.4056  -35.5905 H   0  0  0  0  0  0  0  0  0  0  0  0
   -4.6172   17.5333  -35.5375 H   0  0  0  0  0  0  0  0  0  0  0  0
  1  2  2  0
  2  3  1  0
  3  4  1  0
  4  5  2  0
  5  6  1  0
  6  7  2  0
  7  8  1  0
  8  9  2  0
  3 10  2  0
 10 11  1  0
 11 12  1  0
 12 13  2  0
 13 14  1  0
 14 15  1  0
 14 16  2  0
 16 17  1  0
 17 18  2  0
 18  2  1  0
  9  4  1  0
 18 12  1  0
  5 19  1  0
  6 20  1  0
  7 21  1  0
  8 22  1  0
  9 23  1  0
 10 24  1  0
 11 25  1  0
 13 26  1  0
 16 27  1  0
 17 28  1  0
M  END
>  <UniqueID>  (13) 
12

>  <SMILES>  (13) 
O=c1c(-c2ccccc2)c[nH]c2cc(Cl)ccc12

>  <Energy>  (13) 
42.346765335188095

>  <Genealogy>  (13) 
O=c1c(-c2ccccc2)c[nH]c2cc(Cl)ccc12 (3D coordinates assigned)
O=c1c(-c2ccccc2)c[nH]c2cc(Cl)ccc12 (optimized conformer: 42.346765335188095 kcal/mol)

>  <smiles>  (13) 
O=c1c(-c2ccccc2)c[nH]c2cc(Cl)ccc12

>  <score_type>  (13) 
oracle

>  <origin>  (13) 
adg

>  <m_score__min__energy>  (13) 
-7.21

>  <m_primary>  (13) 
energy

$$$$
13:0
     RDKit          3D

 48 51  0  0  0  0  0  0  0  0999 V2000
    0.5490   19.6030  -34.1250 C   0  0  0  0  0  0  0  0  0  0  0  0
    0.1580   20.9890  -33.7360 C   0  0  0  0  0  0  0  0  0  0  0  0
    0.5150   21.9600  -34.4560 O   0  0  0  0  0  0  0  0  0  0  0  0
   -0.5240   21.2050  -32.4950 N   0  0  0  0  0  0  0  0  0  0  0  0
   -1.9160   21.5160  -32.3290 C   0  0  0  0  0  0  0  0  0  0  0  0
   -2.8580   20.7620  -33.0330 C   0  0  0  0  0  0  0  0  0  0  0  0
   -4.2200   21.0450  -32.9180 C   0  0  0  0  0  0  0  0  0  0  0  0
   -4.6580   22.0990  -32.1090 C   0  0  0  0  0  0  0  0  0  0  0  0
   -6.0610   22.3730  -32.0200 N   0  0  0  0  0  0  0  0  0  0  0  0
   -6.6590   23.5880  -32.0120 C   0  0  0  0  0  0  0  0  0  0  0  0
   -8.0160   23.5140  -31.9710 N   0  0  0  0  0  0  0  0  0  0  0  0
   -8.2470   22.1860  -31.9620 C   0  0  0  0  0  0  0  0  0  0  0  0
   -9.4790   21.5370  -31.9270 C   0  0  0  0  0  0  0  0  0  0  0  0
   -9.4780   20.1290  -31.9310 C   0  0  0  0  0  0  0  0  0  0  0  0
   -8.2580   19.4140  -31.9690 C   0  0  0  0  0  0  0  0  0  0  0  0
   -7.0300   20.1000  -32.0040 C   0  0  0  0  0  0  0  0  0  0  0  0
   -7.0730   21.4950  -31.9990 C   0  0  0  0  0  0  0  0  0  0  0  0
   -3.7190   22.8760  -31.4010 C   0  0  0  0  0  0  0  0  0  0  0  0
   -4.2370   24.2170  -30.3680 S   0  0  0  0  0  0  0  0  0  0  0  0
   -5.2670   23.7460  -29.3790 O   0  0  0  0  0  0  0  0  0  0  0  0
   -4.8540   25.2860  -31.2230 O   0  0  0  0  0  0  0  0  0  0  0  0
   -2.8790   24.8800  -29.5150 N   0  0  0  0  0  0  0  0  0  0  0  0
   -2.8340   24.3440  -28.1570 C   0  0  0  0  0  0  0  0  0  0  0  0
   -2.3260   22.9320  -28.2030 C   0  0  0  0  0  0  0  0  0  0  0  0
   -3.1930   21.8620  -27.9260 C   0  0  0  0  0  0  0  0  0  0  0  0
   -2.7120   20.5480  -27.9300 C   0  0  0  0  0  0  0  0  0  0  0  0
   -1.3640   20.2960  -28.2010 C   0  0  0  0  0  0  0  0  0  0  0  0
   -0.4930   21.3580  -28.4640 C   0  0  0  0  0  0  0  0  0  0  0  0
   -0.9710   22.6720  -28.4610 C   0  0  0  0  0  0  0  0  0  0  0  0
   -2.3500   22.5880  -31.5280 C   0  0  0  0  0  0  0  0  0  0  0  0
    0.7185   19.0020  -33.2194 H   0  0  0  0  0  0  0  0  0  0  0  0
   -0.2560   19.1486  -34.7212 H   0  0  0  0  0  0  0  0  0  0  0  0
    1.4728   19.6363  -34.7212 H   0  0  0  0  0  0  0  0  0  0  0  0
   -2.5241   19.9395  -33.6826 H   0  0  0  0  0  0  0  0  0  0  0  0
   -4.9533   20.4357  -33.4667 H   0  0  0  0  0  0  0  0  0  0  0  0
   -6.1039   24.5373  -32.0362 H   0  0  0  0  0  0  0  0  0  0  0  0
  -10.4205   22.1051  -31.8973 H   0  0  0  0  0  0  0  0  0  0  0  0
  -10.4318   19.5816  -31.9044 H   0  0  0  0  0  0  0  0  0  0  0  0
   -8.2694   18.3141  -31.9712 H   0  0  0  0  0  0  0  0  0  0  0  0
   -6.0733   19.5579  -32.0341 H   0  0  0  0  0  0  0  0  0  0  0  0
   -2.1606   24.9579  -27.5408 H   0  0  0  0  0  0  0  0  0  0  0  0
   -3.8425   24.3610  -27.7182 H   0  0  0  0  0  0  0  0  0  0  0  0
   -4.2528   22.0576  -27.7054 H   0  0  0  0  0  0  0  0  0  0  0  0
   -3.3955   19.7122  -27.7196 H   0  0  0  0  0  0  0  0  0  0  0  0
   -0.9883   19.2622  -28.2074 H   0  0  0  0  0  0  0  0  0  0  0  0
    0.5685   21.1596  -28.6733 H   0  0  0  0  0  0  0  0  0  0  0  0
   -0.2821   23.5057  -28.6617 H   0  0  0  0  0  0  0  0  0  0  0  0
   -1.6111   23.2059  -30.9967 H   0  0  0  0  0  0  0  0  0  0  0  0
  1  2  1  0
  2  3  2  0
  2  4  1  0
  4  5  1  0
  5  6  2  0
  6  7  1  0
  7  8  2  0
  8  9  1  0
  9 10  1  0
 10 11  2  0
 11 12  1  0
 12 13  2  0
 13 14  1  0
 14 15  2  0
 15 16  1  0
 16 17  2  0
  8 18  1  0
 18 19  1  0
 19 20  2  0
 19 21  2  0
 19 22  1  0
 22 23  1  0
 23 24  1  0
 24 25  2  0
 25 26  1  0
 26 27  2  0
 27 28  1  0
 28 29  2  0
 18 30  2  0
 30  5  1  0
 17  9  1  0
 29 24  1  0
 17 12  1  0
  1 31  1  0
  1 32  1  0
  1 33  1  0
  6 34  1  0
  7 35  1  0
 10 36  1  0
 13 37  1  0
 14 38  1  0
 15 39  1  0
 16 40  1  0
 23 41  1  0
 23 42  1  0
 25 43  1  0
 26 44  1  0
 27 45  1  0
 28 46  1  0
 29 47  1  0
 30 48  1  0
M  CHG  2   4  -1  22  -1
M  END
>  <UniqueID>  (14) 
13

>  <SMILES>  (14) 
CC(=O)[N-]c1ccc(-n2cnc3ccccc32)c(S(=O)(=O)[N-]Cc2ccccc2)c1

>  <Energy>  (14) 
95.79574533729365

>  <Genealogy>  (14) 
CC(=O)[N-]c1ccc(-n2cnc3ccccc32)c(S(=O)(=O)[N-]Cc2ccccc2)c1 (protonated)
CC(=O)[N-]c1ccc(-n2cnc3ccccc32)c(S(=O)(=O)[N-]Cc2ccccc2)c1 (3D coordinates assigned)
CC(=O)[N-]c1ccc(-n2cnc3ccccc32)c(S(=O)(=O)[N-]Cc2ccccc2)c1 (optimized conformer: 95.79574533729365 kcal/mol)

>  <smiles>  (14) 
CC(=O)Nc1ccc(-n2cnc3ccccc32)c(S(=O)(=O)NCc2ccccc2)c1

>  <score_type>  (14) 
oracle

>  <origin>  (14) 
adg

>  <m_score__min__energy>  (14) 
-11.25

>  <m_primary>  (14) 
energy

$$$$
14:0
     RDKit          3D

 35 38  0  0  0  0  0  0  0  0999 V2000
   -5.5970   25.2680  -31.2280 O   0  0  0  0  0  0  0  0  0  0  0  0
   -4.7290   24.4510  -30.8160 C   0  0  0  0  0  0  0  0  0  0  0  0
   -3.4910   24.9220  -30.2720 N   0  0  0  0  0  0  0  0  0  0  0  0
   -2.7850   24.3670  -29.1510 C   0  0  0  0  0  0  0  0  0  0  0  0
   -3.1920   23.1680  -28.5350 C   0  0  0  0  0  0  0  0  0  0  0  0
   -2.4640   22.6460  -27.4610 C   0  0  0  0  0  0  0  0  0  0  0  0
   -1.3220   23.3070  -27.0010 C   0  0  0  0  0  0  0  0  0  0  0  0
   -0.8990   24.4840  -27.6230 C   0  0  0  0  0  0  0  0  0  0  0  0
   -1.6230   25.0080  -28.6990 C   0  0  0  0  0  0  0  0  0  0  0  0
   -1.1970   26.1500  -29.2970 F   0  0  0  0  0  0  0  0  0  0  0  0
   -4.9280   23.0390  -30.9750 N   0  0  0  0  0  0  0  0  0  0  0  0
   -6.1840   22.4350  -31.3330 C   0  0  0  0  0  0  0  0  0  0  0  0
   -7.4210   23.0680  -31.0340 C   0  0  0  0  0  0  0  0  0  0  0  0
   -8.6420   22.4560  -31.3690 C   0  0  0  0  0  0  0  0  0  0  0  0
   -8.5940   21.2090  -31.9840 C   0  0  0  0  0  0  0  0  0  0  0  0
   -9.6320   20.4510  -32.3780 N   0  0  0  0  0  0  0  0  0  0  0  0
   -9.1300   19.3380  -32.9050 N   0  0  0  0  0  0  0  0  0  0  0  0
   -7.7780   19.3880  -32.8460 C   0  0  0  0  0  0  0  0  0  0  0  0
   -6.9020   18.3170  -33.3430 C   0  0  0  0  0  0  0  0  0  0  0  0
   -6.9120   17.0490  -32.8770 N   0  0  0  0  0  0  0  0  0  0  0  0
   -6.0000   16.2650  -33.5110 C   0  0  0  0  0  0  0  0  0  0  0  0
   -5.2530   16.9050  -34.4930 C   0  0  0  0  0  0  0  0  0  0  0  0
   -5.7590   18.5070  -34.5620 S   0  0  0  0  0  0  0  0  0  0  0  0
   -7.4120   20.5820  -32.2560 C   0  0  0  0  0  0  0  0  0  0  0  0
   -6.1820   21.1590  -31.9400 C   0  0  0  0  0  0  0  0  0  0  0  0
   -4.0855   22.6402  -28.8997 H   0  0  0  0  0  0  0  0  0  0  0  0
   -2.7909   21.7136  -26.9776 H   0  0  0  0  0  0  0  0  0  0  0  0
   -0.7564   22.9007  -26.1495 H   0  0  0  0  0  0  0  0  0  0  0  0
    0.0048   24.9996  -27.2661 H   0  0  0  0  0  0  0  0  0  0  0  0
   -4.0870   22.4240  -30.8990 H   0  0  0  0  0  0  0  0  0  0  0  0
   -7.4233   24.0481  -30.5347 H   0  0  0  0  0  0  0  0  0  0  0  0
   -9.6024   22.9466  -31.1522 H   0  0  0  0  0  0  0  0  0  0  0  0
   -5.8632   15.2017  -33.2648 H   0  0  0  0  0  0  0  0  0  0  0  0
   -4.4703   16.4454  -35.1143 H   0  0  0  0  0  0  0  0  0  0  0  0
   -5.2387   20.6363  -32.1568 H   0  0  0  0  0  0  0  0  0  0  0  0
  1  2  2  0
  2  3  1  0
  3  4  1  0
  4  5  2  0
  5  6  1  0
  6  7  2  0
  7  8  1  0
  8  9  2  0
  9 10  1  0
  2 11  1  0
 11 12  1  0
 12 13  2  0
 13 14  1  0
 14 15  2  0
 15 16  1  0
 16 17  1  0
 17 18  2  0
 18 19  1  0
 19 20  2  0
 20 21  1  0
 21 22  2  0
 22 23  1  0
 18 24  1  0
 24 25  2  0
  9  4  1  0
 25 12  1  0
 24 15  1  0
 23 19  1  0
  5 26  1  0
  6 27  1  0
  7 28  1  0
  8 29  1  0
 11 30  1  0
 13 31  1  0
 14 32  1  0
 21 33  1  0
 22 34  1  0
 25 35  1  0
M  CHG  2   3  -1  16  -1
M  END
>  <UniqueID>  (15) 
14

>  <SMILES>  (15) 
O=C([N-]c1ccccc1F)Nc1ccc2[n-]nc(-c3nccs3)c2c1

>  <Energy>  (15) 
114.32106234771989

>  <Genealogy>  (15) 
O=C([N-]c1ccccc1F)Nc1ccc2[n-]nc(-c3nccs3)c2c1 (protonated)
O=C([N-]c1ccccc1F)Nc1ccc2[n-]nc(-c3nccs3)c2c1 (3D coordinates assigned)
O=C([N-]c1ccccc1F)Nc1ccc2[n-]nc(-c3nccs3)c2c1 (optimized conformer: 114.32106234771989 kcal/mol)

>  <smiles>  (15) 
O=C(Nc1ccc2[nH]nc(-c3nccs3)c2c1)Nc1ccccc1F

>  <score_type>  (15) 
oracle

>  <origin>  (15) 
adg

>  <m_score__min__energy>  (15) 
-9.8599999999999994

>  <m_primary>  (15) 
energy

$$$$
15:0
     RDKit          3D

 44 46  0  0  0  0  0  0  0  0999 V2000
   -3.8570   25.2900  -30.8470 O   0  0  0  0  0  0  0  0  0  0  0  0
   -4.1390   24.5360  -29.5750 S   0  0  0  0  0  0  0  0  0  0  0  0
   -3.1250   24.9420  -28.5440 O   0  0  0  0  0  0  0  0  0  0  0  0
   -4.0270   22.8130  -29.8130 N   0  0  0  0  0  0  0  0  0  0  0  0
   -2.6460   22.3370  -29.7240 C   0  0  0  0  0  0  0  0  0  0  0  0
   -2.1780   21.8090  -31.0540 C   0  0  0  0  0  0  0  0  0  0  0  0
   -3.0930   21.5890  -32.0980 C   0  0  0  0  0  0  0  0  0  0  0  0
   -2.6520   21.0900  -33.3280 C   0  0  0  0  0  0  0  0  0  0  0  0
   -1.2990   20.8000  -33.5230 C   0  0  0  0  0  0  0  0  0  0  0  0
   -0.3840   21.0060  -32.4860 C   0  0  0  0  0  0  0  0  0  0  0  0
   -0.8200   21.5060  -31.2550 C   0  0  0  0  0  0  0  0  0  0  0  0
   -5.7210   24.9520  -28.9910 N   0  0  0  0  0  0  0  0  0  0  0  0
   -6.6650   25.0080  -30.1080 C   0  0  0  0  0  0  0  0  0  0  0  0
   -6.7160   23.6710  -30.7930 C   0  0  0  0  0  0  0  0  0  0  0  0
   -7.4160   22.6060  -30.2080 C   0  0  0  0  0  0  0  0  0  0  0  0
   -7.4360   21.3510  -30.8260 C   0  0  0  0  0  0  0  0  0  0  0  0
   -6.7480   21.1390  -32.0340 C   0  0  0  0  0  0  0  0  0  0  0  0
   -6.7680   19.8060  -32.6910 C   0  0  0  0  0  0  0  0  0  0  0  0
   -6.0350   19.5790  -33.8710 C   0  0  0  0  0  0  0  0  0  0  0  0
   -6.0570   18.3240  -34.4870 C   0  0  0  0  0  0  0  0  0  0  0  0
   -6.8070   17.2830  -33.9350 C   0  0  0  0  0  0  0  0  0  0  0  0
   -7.5390   17.4960  -32.7650 C   0  0  0  0  0  0  0  0  0  0  0  0
   -7.5220   18.7500  -32.1440 C   0  0  0  0  0  0  0  0  0  0  0  0
   -6.0350   22.2070  -32.6070 C   0  0  0  0  0  0  0  0  0  0  0  0
   -6.0150   23.4600  -31.9890 C   0  0  0  0  0  0  0  0  0  0  0  0
   -1.9961   23.1698  -29.4173 H   0  0  0  0  0  0  0  0  0  0  0  0
   -2.5993   21.5239  -28.9846 H   0  0  0  0  0  0  0  0  0  0  0  0
   -4.1599   21.8101  -31.9472 H   0  0  0  0  0  0  0  0  0  0  0  0
   -3.3717   20.9255  -34.1435 H   0  0  0  0  0  0  0  0  0  0  0  0
   -0.9540   20.4098  -34.4919 H   0  0  0  0  0  0  0  0  0  0  0  0
    0.6804   20.7744  -32.6388 H   0  0  0  0  0  0  0  0  0  0  0  0
   -0.0974   21.6629  -30.4406 H   0  0  0  0  0  0  0  0  0  0  0  0
   -6.0180   24.1790  -28.3520 H   0  0  0  0  0  0  0  0  0  0  0  0
   -7.6656   25.2636  -29.7292 H   0  0  0  0  0  0  0  0  0  0  0  0
   -6.3362   25.7738  -30.8259 H   0  0  0  0  0  0  0  0  0  0  0  0
   -7.9516   22.7580  -29.2593 H   0  0  0  0  0  0  0  0  0  0  0  0
   -7.9942   20.5237  -30.3634 H   0  0  0  0  0  0  0  0  0  0  0  0
   -5.4413   20.3938  -34.3111 H   0  0  0  0  0  0  0  0  0  0  0  0
   -5.4817   18.1559  -35.4094 H   0  0  0  0  0  0  0  0  0  0  0  0
   -6.8210   16.2965  -34.4214 H   0  0  0  0  0  0  0  0  0  0  0  0
   -8.1302   16.6764  -32.3306 H   0  0  0  0  0  0  0  0  0  0  0  0
   -8.1012   18.9118  -31.2229 H   0  0  0  0  0  0  0  0  0  0  0  0
   -5.4885   22.0548  -33.5494 H   0  0  0  0  0  0  0  0  0  0  0  0
   -5.4465   24.2851  -32.4430 H   0  0  0  0  0  0  0  0  0  0  0  0
  1  2  2  0
  2  3  2  0
  2  4  1  0
  4  5  1  0
  5  6  1  0
  6  7  2  0
  7  8  1  0
  8  9  2  0
  9 10  1  0
 10 11  2  0
  2 12  1  0
 12 13  1  0
 13 14  1  0
 14 15  2  0
 15 16  1  0
 16 17  2  0
 17 18  1  0
 18 19  2  0
 19 20  1  0
 20 21  2  0
 21 22  1  0
 22 23  2  0
 17 24  1  0
 24 25  2  0
 11  6  1  0
 25 14  1  0
 23 18  1  0
  5 26  1  0
  5 27  1  0
  7 28  1  0
  8 29  1  0
  9 30  1  0
 10 31  1  0
 11 32  1  0
 12 33  1  0
 13 34  1  0
 13 35  1  0
 15 36  1  0
 16 37  1  0
 19 38  1  0
 20 39  1  0
 21 40  1  0
 22 41  1  0
 23 42  1  0
 24 43  1  0
 25 44  1  0
M  CHG  1   4  -1
M  END
>  <UniqueID>  (16) 
15

>  <SMILES>  (16) 
O=S(=O)([N-]Cc1ccccc1)NCc1ccc(-c2ccccc2)cc1

>  <Energy>  (16) 
47.099971366539016

>  <Genealogy>  (16) 
O=S(=O)([N-]Cc1ccccc1)NCc1ccc(-c2ccccc2)cc1 (protonated)
O=S(=O)([N-]Cc1ccccc1)NCc1ccc(-c2ccccc2)cc1 (3D coordinates assigned)
O=S(=O)([N-]Cc1ccccc1)NCc1ccc(-c2ccccc2)cc1 (optimized conformer: 47.099971366539016 kcal/mol)

>  <smiles>  (16) 
O=S(=O)(NCc1ccccc1)NCc1ccc(-c2ccccc2)cc1

>  <score_type>  (16) 
oracle

>  <origin>  (16) 
adg

>  <m_score__min__energy>  (16) 
-10.470000000000001

>  <m_primary>  (16) 
energy

$$$$
16:0
     RDKit          3D

 37 40  0  0  0  0  0  0  0  0999 V2000
    2.1200   23.4650  -36.0950 C   0  0  0  0  0  0  0  0  0  0  0  0
    1.2380   22.3180  -35.6080 C   0  0  0  0  0  0  0  0  0  0  0  0
    0.2550   22.2560  -34.9050 N   0  0  0  0  0  0  0  0  0  0  0  0
   -0.4120   21.1880  -34.5640 C   0  0  0  0  0  0  0  0  0  0  0  0
   -1.6100   21.2090  -33.6950 C   0  0  0  0  0  0  0  0  0  0  0  0
   -2.7750   20.5590  -33.8800 N   0  0  0  0  0  0  0  0  0  0  0  0
   -3.6360   20.8090  -32.8960 C   0  0  0  0  0  0  0  0  0  0  0  0
   -4.9940   20.3320  -32.6790 C   0  0  0  0  0  0  0  0  0  0  0  0
   -6.1040   21.1490  -32.7150 C   0  0  0  0  0  0  0  0  0  0  0  0
   -7.3390   20.5850  -32.4960 C   0  0  0  0  0  0  0  0  0  0  0  0
   -7.5130   19.2490  -32.2420 C   0  0  0  0  0  0  0  0  0  0  0  0
   -9.1120   18.5610  -31.9660 Cl  0  0  0  0  0  0  0  0  0  0  0  0
   -6.3930   18.4460  -32.2090 C   0  0  0  0  0  0  0  0  0  0  0  0
   -5.1570   18.9790  -32.4240 C   0  0  0  0  0  0  0  0  0  0  0  0
   -2.9900   21.6660  -32.0290 C   0  0  0  0  0  0  0  0  0  0  0  0
   -3.4770   22.2530  -30.7860 C   0  0  0  0  0  0  0  0  0  0  0  0
   -3.1030   21.7170  -29.5660 C   0  0  0  0  0  0  0  0  0  0  0  0
   -3.5920   22.3110  -28.4380 C   0  0  0  0  0  0  0  0  0  0  0  0
   -4.4100   23.3820  -28.4680 N   0  0  0  0  0  0  0  0  0  0  0  0
   -4.7880   23.9220  -29.6450 C   0  0  0  0  0  0  0  0  0  0  0  0
   -4.3130   23.3470  -30.8240 C   0  0  0  0  0  0  0  0  0  0  0  0
   -1.7680   21.8860  -32.5440 N   0  0  0  0  0  0  0  0  0  0  0  0
    0.0900   20.0090  -35.0830 C   0  0  0  0  0  0  0  0  0  0  0  0
    1.5530   20.5970  -36.0620 S   0  0  0  0  0  0  0  0  0  0  0  0
    2.5335   24.0027  -35.2291 H   0  0  0  0  0  0  0  0  0  0  0  0
    2.9430   23.0619  -36.7034 H   0  0  0  0  0  0  0  0  0  0  0  0
    1.5190   24.1568  -36.7034 H   0  0  0  0  0  0  0  0  0  0  0  0
   -6.0042   22.2262  -32.9141 H   0  0  0  0  0  0  0  0  0  0  0  0
   -8.2263   21.2344  -32.5259 H   0  0  0  0  0  0  0  0  0  0  0  0
   -6.4973   17.3695  -32.0081 H   0  0  0  0  0  0  0  0  0  0  0  0
   -4.2735   18.3243  -32.3947 H   0  0  0  0  0  0  0  0  0  0  0  0
   -2.4361   20.8442  -29.5073 H   0  0  0  0  0  0  0  0  0  0  0  0
   -3.3054   21.8967  -27.4602 H   0  0  0  0  0  0  0  0  0  0  0  0
   -5.4555   24.7958  -29.6745 H   0  0  0  0  0  0  0  0  0  0  0  0
   -4.6093   23.7719  -31.7944 H   0  0  0  0  0  0  0  0  0  0  0  0
   -1.0230   22.5010  -32.1180 H   0  0  0  0  0  0  0  0  0  0  0  0
   -0.2830   18.9828  -34.9496 H   0  0  0  0  0  0  0  0  0  0  0  0
  1  2  1  0
  2  3  2  0
  3  4  1  0
  4  5  1  0
  5  6  2  0
  6  7  1  0
  7  8  1  0
  8  9  2  0
  9 10  1  0
 10 11  2  0
 11 12  1  0
 11 13  1  0
 13 14  2  0
  7 15  2  0
 15 16  1  0
 16 17  2  0
 17 18  1  0
 18 19  2  0
 19 20  1  0
 20 21  2  0
 15 22  1  0
  4 23  2  0
 23 24  1  0
 24  2  1  0
 22  5  1  0
 14  8  1  0
 21 16  1  0
  1 25  1  0
  1 26  1  0
  1 27  1  0
  9 28  1  0
 10 29  1  0
 13 30  1  0
 14 31  1  0
 17 32  1  0
 18 33  1  0
 20 34  1  0
 21 35  1  0
 22 36  1  0
 23 37  1  0
M  END
>  <smiles>  (17) 
Cc1nc(-c2nc(-c3ccc(Cl)cc3)c(-c3ccncc3)[nH]2)cs1

>  <score_type>  (17) 
oracle

>  <origin>  (17) 
adg

>  <m_score__min__energy>  (17) 
-7.6699999999999999

>  <m_primary>  (17) 
energy

$$$$
17:0
     RDKit          3D

 31 33  0  0  0  0  0  0  0  0999 V2000
   -2.1370   23.2630  -29.4650 O   0  0  0  0  0  0  0  0  0  0  0  0
   -3.1950   23.9310  -29.3120 C   0  0  0  0  0  0  0  0  0  0  0  0
   -3.3180   24.8630  -28.2250 N   0  0  0  0  0  0  0  0  0  0  0  0
   -2.2100   25.2990  -27.4170 C   0  0  0  0  0  0  0  0  0  0  0  0
   -2.1120   24.9310  -26.0620 C   0  0  0  0  0  0  0  0  0  0  0  0
   -1.0170   25.3410  -25.2960 C   0  0  0  0  0  0  0  0  0  0  0  0
   -0.0040   26.1070  -25.8750 C   0  0  0  0  0  0  0  0  0  0  0  0
   -0.0810   26.4610  -27.2240 C   0  0  0  0  0  0  0  0  0  0  0  0
   -1.1750   26.0570  -27.9970 C   0  0  0  0  0  0  0  0  0  0  0  0
   -1.2340   26.4190  -29.3380 O   0  0  0  0  0  0  0  0  0  0  0  0
   -4.3170   23.7120  -30.2340 C   0  0  0  0  0  0  0  0  0  0  0  0
   -5.1300   22.6390  -30.1990 N   0  0  0  0  0  0  0  0  0  0  0  0
   -5.9730   22.9080  -31.2200 C   0  0  0  0  0  0  0  0  0  0  0  0
   -7.0870   22.0240  -31.6230 C   0  0  0  0  0  0  0  0  0  0  0  0
   -8.4140   22.3520  -31.2880 C   0  0  0  0  0  0  0  0  0  0  0  0
   -9.4670   21.5150  -31.6690 C   0  0  0  0  0  0  0  0  0  0  0  0
   -9.2070   20.3460  -32.3880 C   0  0  0  0  0  0  0  0  0  0  0  0
   -7.8950   20.0110  -32.7260 C   0  0  0  0  0  0  0  0  0  0  0  0
   -6.8380   20.8450  -32.3470 C   0  0  0  0  0  0  0  0  0  0  0  0
   -5.6820   24.0760  -31.8310 N   0  0  0  0  0  0  0  0  0  0  0  0
   -4.6520   24.5410  -31.1920 O   0  0  0  0  0  0  0  0  0  0  0  0
   -4.2770   25.1850  -27.9610 H   0  0  0  0  0  0  0  0  0  0  0  0
   -2.9014   24.3174  -25.6033 H   0  0  0  0  0  0  0  0  0  0  0  0
   -0.9535   25.0593  -24.2346 H   0  0  0  0  0  0  0  0  0  0  0  0
    0.8547   26.4318  -25.2691 H   0  0  0  0  0  0  0  0  0  0  0  0
    0.7213   27.0595  -27.6802 H   0  0  0  0  0  0  0  0  0  0  0  0
   -8.6239   23.2723  -30.7231 H   0  0  0  0  0  0  0  0  0  0  0  0
  -10.5014   21.7773  -31.4023 H   0  0  0  0  0  0  0  0  0  0  0  0
  -10.0368   19.6891  -32.6880 H   0  0  0  0  0  0  0  0  0  0  0  0
   -7.6918   19.0896  -33.2914 H   0  0  0  0  0  0  0  0  0  0  0  0
   -5.8059   20.5768  -32.6170 H   0  0  0  0  0  0  0  0  0  0  0  0
  1  2  2  0
  2  3  1  0
  3  4  1  0
  4  5  2  0
  5  6  1  0
  6  7  2  0
  7  8  1  0
  8  9  2  0
  9 10  1  0
  2 11  1  0
 11 12  2  0
 12 13  1  0
 13 14  1  0
 14 15  2  0
 15 16  1  0
 16 17  2  0
 17 18  1  0
 18 19  2  0
 13 20  2  0
 20 21  1  0
  9  4  1  0
 21 11  1  0
 19 14  1  0
  3 22  1  0
  5 23  1  0
  6 24  1  0
  7 25  1  0
  8 26  1  0
 15 27  1  0
 16 28  1  0
 17 29  1  0
 18 30  1  0
 19 31  1  0
M  CHG  1  10  -1
M  END
>  <UniqueID>  (18) 
16

>  <SMILES>  (18) 
O=C(Nc1ccccc1[O-])c1nc(-c2ccccc2)no1

>  <Energy>  (18) 
70.32618268123473

>  <Genealogy>  (18) 
O=C(Nc1ccccc1[O-])c1nc(-c2ccccc2)no1 (protonated)
O=C(Nc1ccccc1[O-])c1nc(-c2ccccc2)no1 (3D coordinates assigned)
O=C(Nc1ccccc1[O-])c1nc(-c2ccccc2)no1 (optimized conformer: 70.32618268123473 kcal/mol)

>  <smiles>  (18) 
O=C(Nc1ccccc1O)c1nc(-c2ccccc2)no1

>  <score_type>  (18) 
oracle

>  <origin>  (18) 
adg

>  <m_score__min__energy>  (18) 
-11.4

>  <m_primary>  (18) 
energy

$$$$
18:0
     RDKit          3D

 28 29  0  0  0  0  0  0  0  0999 V2000
   -8.2787   17.8891  -32.8431 H   0  0  0  0  0  0  0  0  0  0  0  0
   -8.1220   18.9340  -32.5370 C   0  0  0  0  0  0  0  0  0  0  0  0
   -9.0060   19.5380  -31.6400 C   0  0  0  0  0  0  0  0  0  0  0  0
   -9.8561   18.9675  -31.2377 H   0  0  0  0  0  0  0  0  0  0  0  0
   -8.8110   20.8680  -31.2530 C   0  0  0  0  0  0  0  0  0  0  0  0
   -9.5037   21.3383  -30.5396 H   0  0  0  0  0  0  0  0  0  0  0  0
   -7.7340   21.6050  -31.7720 C   0  0  0  0  0  0  0  0  0  0  0  0
   -7.5020   23.0210  -31.3270 C   0  0  0  0  0  0  0  0  0  0  0  0
   -7.4470   23.0585  -30.2290 H   0  0  0  0  0  0  0  0  0  0  0  0
   -8.3306   23.6590  -31.6682 H   0  0  0  0  0  0  0  0  0  0  0  0
   -6.2470   23.4960  -31.8960 N   0  0  0  0  0  0  0  0  0  0  0  0
   -5.1720   23.9160  -31.2900 C   0  0  0  0  0  0  0  0  0  0  0  0
   -5.0910   25.1580  -30.7740 N   0  0  0  0  0  0  0  0  0  0  0  0
   -3.8800   25.2140  -30.2440 N   0  0  0  0  0  0  0  0  0  0  0  0
   -3.4870   26.0510  -29.7580 H   0  0  0  0  0  0  0  0  0  0  0  0
   -3.2300   24.0770  -30.4220 N   0  0  0  0  0  0  0  0  0  0  0  0
   -4.0170   23.2320  -31.0670 N   0  0  0  0  0  0  0  0  0  0  0  0
   -3.5390   21.9280  -31.5290 C   0  0  0  0  0  0  0  0  0  0  0  0
   -4.1425   21.1351  -31.0631 H   0  0  0  0  0  0  0  0  0  0  0  0
   -2.4821   21.8150  -31.2458 H   0  0  0  0  0  0  0  0  0  0  0  0
   -3.6580   21.8240  -33.0470 C   0  0  0  0  0  0  0  0  0  0  0  0
   -4.4633   21.1202  -33.3043 H   0  0  0  0  0  0  0  0  0  0  0  0
   -3.8893   22.8147  -33.4654 H   0  0  0  0  0  0  0  0  0  0  0  0
   -2.7072   21.4621  -33.4654 H   0  0  0  0  0  0  0  0  0  0  0  0
   -6.8410   20.9850  -32.6610 C   0  0  0  0  0  0  0  0  0  0  0  0
   -5.9823   21.5476  -33.0562 H   0  0  0  0  0  0  0  0  0  0  0  0
   -7.0390   19.6550  -33.0460 C   0  0  0  0  0  0  0  0  0  0  0  0
   -6.3419   19.1766  -33.7497 H   0  0  0  0  0  0  0  0  0  0  0  0
  1  2  1  0
  2  3  2  0
  3  4  1  0
  3  5  1  0
  5  6  1  0
  5  7  2  0
  7  8  1  0
  8  9  1  0
  8 10  1  0
  8 11  1  0
 11 12  2  0
 12 13  1  0
 13 14  2  0
 14 15  1  0
 14 16  1  0
 16 17  1  0
 17 18  1  0
 18 19  1  0
 18 20  1  0
 18 21  1  0
 21 22  1  0
 21 23  1  0
 21 24  1  0
  7 25  1  0
 25 26  1  0
 25 27  2  0
 27 28  1  0
 27  2  1  0
 17 12  1  0
M  CHG  2  14   1  16  -1
M  END
>  <UniqueID>  (19) 
17

>  <SMILES>  (19) 
CCn1[n-][nH+]n/c1=N/Cc1ccccc1

>  <Energy>  (19) 
70.92356288248601

>  <Genealogy>  (19) 
CCn1[n-][nH+]nc1=NCc1ccccc1 (protonated)
CCn1[n-][nH+]n/c1=N/Cc1ccccc1 (cis-trans isomerization)
CCn1[n-][nH+]n/c1=N/Cc1ccccc1 (3D coordinates assigned)
CCn1[n-][nH+]n/c1=N/Cc1ccccc1 (optimized conformer: 70.92356288248601 kcal/mol)

>  <smiles>  (19) 
CCn1[nH]nnc1=NCc1ccccc1

>  <score_type>  (19) 
oracle

>  <origin>  (19) 
adg

>  <m_score__min__energy>  (19) 
-7.0899999999999999

>  <m_primary>  (19) 
energy

$$$$
19:0
     RDKit          3D

 45 48  0  0  0  0  0  0  0  0999 V2000
   -3.9000   25.3910  -30.5500 N   0  0  0  0  0  0  0  0  0  0  0  0
   -5.3080   25.3540  -30.3250 C   0  0  0  0  0  0  0  0  0  0  0  0
   -5.9060   26.3960  -29.9410 O   0  0  0  0  0  0  0  0  0  0  0  0
   -6.0650   24.0650  -30.5070 C   0  0  0  0  0  0  0  0  0  0  0  0
   -6.2440   23.7600  -32.0160 C   0  0  0  0  0  0  0  0  0  0  0  0
   -6.3620   22.2590  -32.2860 C   0  0  0  0  0  0  0  0  0  0  0  0
   -5.1710   21.5700  -31.7780 N   0  0  0  0  0  0  0  0  0  0  0  0
   -4.6190   20.4720  -32.5160 C   0  0  0  0  0  0  0  0  0  0  0  0
   -3.3270   20.5380  -32.9400 N   0  0  0  0  0  0  0  0  0  0  0  0
   -2.7570   19.5150  -33.6380 C   0  0  0  0  0  0  0  0  0  0  0  0
   -1.3550   19.6010  -34.0990 C   0  0  0  0  0  0  0  0  0  0  0  0
   -0.8870   20.8190  -34.6220 C   0  0  0  0  0  0  0  0  0  0  0  0
    0.4370   20.9420  -35.0540 C   0  0  0  0  0  0  0  0  0  0  0  0
    1.3010   19.8490  -34.9810 C   0  0  0  0  0  0  0  0  0  0  0  0
    0.8430   18.6270  -34.4830 C   0  0  0  0  0  0  0  0  0  0  0  0
   -0.4810   18.4910  -34.0460 C   0  0  0  0  0  0  0  0  0  0  0  0
   -1.0200   16.8990  -33.5220 Cl  0  0  0  0  0  0  0  0  0  0  0  0
   -3.4960   18.4170  -33.9490 N   0  0  0  0  0  0  0  0  0  0  0  0
   -4.7890   18.3010  -33.5550 C   0  0  0  0  0  0  0  0  0  0  0  0
   -5.5190   17.1530  -33.8810 C   0  0  0  0  0  0  0  0  0  0  0  0
   -6.8490   17.0280  -33.4680 C   0  0  0  0  0  0  0  0  0  0  0  0
   -7.4520   18.0510  -32.7280 C   0  0  0  0  0  0  0  0  0  0  0  0
   -6.7310   19.2020  -32.3980 C   0  0  0  0  0  0  0  0  0  0  0  0
   -5.3920   19.3360  -32.8110 C   0  0  0  0  0  0  0  0  0  0  0  0
   -4.4690   22.0530  -30.5850 C   0  0  0  0  0  0  0  0  0  0  0  0
   -5.4010   22.9070  -29.7160 C   0  0  0  0  0  0  0  0  0  0  0  0
   -3.4870   26.0410  -31.2560 H   0  0  0  0  0  0  0  0  0  0  0  0
   -7.0740   24.1729  -30.0825 H   0  0  0  0  0  0  0  0  0  0  0  0
   -7.1573   24.2582  -32.3733 H   0  0  0  0  0  0  0  0  0  0  0  0
   -5.3550   24.1322  -32.5462 H   0  0  0  0  0  0  0  0  0  0  0  0
   -7.2558   21.8656  -31.7797 H   0  0  0  0  0  0  0  0  0  0  0  0
   -6.4464   22.0894  -33.3696 H   0  0  0  0  0  0  0  0  0  0  0  0
   -2.7770   21.4050  -32.7420 H   0  0  0  0  0  0  0  0  0  0  0  0
   -1.5669   21.6809  -34.6918 H   0  0  0  0  0  0  0  0  0  0  0  0
    0.7980   21.9018  -35.4520 H   0  0  0  0  0  0  0  0  0  0  0  0
    2.3439   19.9497  -35.3159 H   0  0  0  0  0  0  0  0  0  0  0  0
    1.5261   17.7662  -34.4337 H   0  0  0  0  0  0  0  0  0  0  0  0
   -5.0463   16.3480  -34.4628 H   0  0  0  0  0  0  0  0  0  0  0  0
   -7.4217   16.1247  -33.7251 H   0  0  0  0  0  0  0  0  0  0  0  0
   -8.4984   17.9489  -32.4044 H   0  0  0  0  0  0  0  0  0  0  0  0
   -7.2098   20.0030  -31.8156 H   0  0  0  0  0  0  0  0  0  0  0  0
   -4.1180   21.1909  -29.9988 H   0  0  0  0  0  0  0  0  0  0  0  0
   -3.6164   22.6713  -30.9024 H   0  0  0  0  0  0  0  0  0  0  0  0
   -6.1922   22.2605  -29.3084 H   0  0  0  0  0  0  0  0  0  0  0  0
   -4.7913   23.3568  -28.9186 H   0  0  0  0  0  0  0  0  0  0  0  0
  1  2  1  0
  2  3  2  0
  2  4  1  0
  4  5  1  0
  5  6  1  0
  6  7  1  0
  7  8  1  0
  8  9  2  0
  9 10  1  0
 10 11  1  0
 11 12  2  0
 12 13  1  0
 13 14  2  0
 14 15  1  0
 15 16  2  0
 16 17  1  0
 10 18  2  0
 18 19  1  0
 19 20  2  0
 20 21  1  0
 21 22  2  0
 22 23  1  0
 23 24  2  0
  7 25  1  0
 25 26  1  0
 26  4  1  0
 24  8  1  0
 16 11  1  0
 24 19  1  0
  1 27  1  0
  4 28  1  0
  5 29  1  0
  5 30  1  0
  6 31  1  0
  6 32  1  0
  9 33  1  0
 12 34  1  0
 13 35  1  0
 14 36  1  0
 15 37  1  0
 20 38  1  0
 21 39  1  0
 22 40  1  0
 23 41  1  0
 25 42  1  0
 25 43  1  0
 26 44  1  0
 26 45  1  0
M  CHG  2   1  -1   9   1
M  END
>  <UniqueID>  (20) 
18

>  <SMILES>  (20) 
[NH-]C(=O)C1CCN(c2[nH+]c(-c3ccccc3Cl)nc3ccccc23)CC1

>  <Energy>  (20) 
65.14161355664865

>  <Genealogy>  (20) 
[NH-]C(=O)C1CCN(c2[nH+]c(-c3ccccc3Cl)nc3ccccc23)CC1 (protonated)
[NH-]C(=O)C1CCN(c2[nH+]c(-c3ccccc3Cl)nc3ccccc23)CC1 (3D coordinates assigned)
[NH-]C(=O)C1CCN(c2[nH+]c(-c3ccccc3Cl)nc3ccccc23)CC1 (nonaromatic ring conformer: 65.14161355664865 kcal/mol)

>  <smiles>  (20) 
NC(=O)C1CCN(c2nc(-c3ccccc3Cl)nc3ccccc23)CC1

>  <score_type>  (20) 
oracle

>  <origin>  (20) 
adg

>  <m_score__min__energy>  (20) 
-11.109999999999999

>  <m_primary>  (20) 
energy

$$$$
20:0
     RDKit          3D

 54 57  0  0  0  0  0  0  0  0999 V2000
   -4.3090   25.6410  -30.8840 O   0  0  0  0  0  0  0  0  0  0  0  0
   -5.3810   24.7910  -31.2070 C   0  0  0  0  0  0  0  0  0  0  0  0
   -5.2700   23.4270  -30.4670 C   0  0  0  0  0  0  0  0  0  0  0  0
   -4.1440   23.5560  -29.4100 C   0  0  0  0  0  0  0  0  0  0  0  0
   -2.8040   23.2680  -29.7650 C   0  0  0  0  0  0  0  0  0  0  0  0
   -1.7630   23.4180  -28.8460 C   0  0  0  0  0  0  0  0  0  0  0  0
   -2.0230   23.8970  -27.5650 C   0  0  0  0  0  0  0  0  0  0  0  0
   -3.3220   24.2500  -27.2070 C   0  0  0  0  0  0  0  0  0  0  0  0
   -4.3700   24.1020  -28.1210 C   0  0  0  0  0  0  0  0  0  0  0  0
   -4.9220   22.3120  -31.5240 C   0  0  0  0  0  0  0  0  0  0  0  0
   -5.6060   20.9710  -31.2170 C   0  0  0  0  0  0  0  0  0  0  0  0
   -7.0880   21.0720  -31.2480 N   0  0  0  0  0  0  0  0  0  0  0  0
   -7.6320   20.6800  -32.5650 C   0  0  0  0  0  0  0  0  0  0  0  0
   -7.0380   19.3730  -33.0260 C   0  0  0  0  0  0  0  0  0  0  0  0
   -6.1110   19.3570  -34.0780 C   0  0  0  0  0  0  0  0  0  0  0  0
   -5.5340   18.1530  -34.4920 C   0  0  0  0  0  0  0  0  0  0  0  0
   -5.8720   16.9440  -33.8570 C   0  0  0  0  0  0  0  0  0  0  0  0
   -5.2590   15.6630  -34.2900 C   0  0  0  0  0  0  0  0  0  0  0  0
   -5.9170   14.4420  -34.0550 C   0  0  0  0  0  0  0  0  0  0  0  0
   -5.3220   13.2480  -34.4620 C   0  0  0  0  0  0  0  0  0  0  0  0
   -4.0830   13.2720  -35.0990 C   0  0  0  0  0  0  0  0  0  0  0  0
   -3.4530   14.4980  -35.3210 C   0  0  0  0  0  0  0  0  0  0  0  0
   -4.0440   15.6560  -34.9180 N   0  0  0  0  0  0  0  0  0  0  0  0
   -6.7970   16.9670  -32.7990 C   0  0  0  0  0  0  0  0  0  0  0  0
   -7.3730   18.1710  -32.3860 C   0  0  0  0  0  0  0  0  0  0  0  0
   -7.6020   22.3990  -30.8200 C   0  0  0  0  0  0  0  0  0  0  0  0
   -6.6580   23.0810  -29.8200 C   0  0  0  0  0  0  0  0  0  0  0  0
   -4.6160   26.5710  -31.0470 H   0  0  0  0  0  0  0  0  0  0  0  0
   -6.3236   25.2788  -30.9180 H   0  0  0  0  0  0  0  0  0  0  0  0
   -5.3553   24.5993  -32.2899 H   0  0  0  0  0  0  0  0  0  0  0  0
   -2.5785   22.9196  -30.7837 H   0  0  0  0  0  0  0  0  0  0  0  0
   -0.7344   23.1568  -29.1353 H   0  0  0  0  0  0  0  0  0  0  0  0
   -1.2043   23.9965  -26.8371 H   0  0  0  0  0  0  0  0  0  0  0  0
   -3.5243   24.6468  -26.2012 H   0  0  0  0  0  0  0  0  0  0  0  0
   -5.3855   24.4140  -27.8356 H   0  0  0  0  0  0  0  0  0  0  0  0
   -5.2481   22.6543  -32.5172 H   0  0  0  0  0  0  0  0  0  0  0  0
   -3.8351   22.1470  -31.4878 H   0  0  0  0  0  0  0  0  0  0  0  0
   -5.2864   20.2316  -31.9661 H   0  0  0  0  0  0  0  0  0  0  0  0
   -5.3112   20.6684  -30.2013 H   0  0  0  0  0  0  0  0  0  0  0  0
   -8.7237   20.5712  -32.4856 H   0  0  0  0  0  0  0  0  0  0  0  0
   -7.3754   21.4599  -33.2971 H   0  0  0  0  0  0  0  0  0  0  0  0
   -5.8365   20.2965  -34.5799 H   0  0  0  0  0  0  0  0  0  0  0  0
   -4.8103   18.1508  -35.3204 H   0  0  0  0  0  0  0  0  0  0  0  0
   -6.8956   14.4290  -33.5529 H   0  0  0  0  0  0  0  0  0  0  0  0
   -5.8299   12.2893  -34.2805 H   0  0  0  0  0  0  0  0  0  0  0  0
   -3.6064   12.3352  -35.4234 H   0  0  0  0  0  0  0  0  0  0  0  0
   -2.4750   14.5282  -35.8236 H   0  0  0  0  0  0  0  0  0  0  0  0
   -3.5510   16.5550  -35.1210 H   0  0  0  0  0  0  0  0  0  0  0  0
   -7.0696   16.0296  -32.2921 H   0  0  0  0  0  0  0  0  0  0  0  0
   -8.0931   18.1761  -31.5544 H   0  0  0  0  0  0  0  0  0  0  0  0
   -7.7074   23.0425  -31.7059 H   0  0  0  0  0  0  0  0  0  0  0  0
   -8.5721   22.2461  -30.3245 H   0  0  0  0  0  0  0  0  0  0  0  0
   -7.1269   24.0109  -29.4658 H   0  0  0  0  0  0  0  0  0  0  0  0
   -6.4817   22.3836  -28.9878 H   0  0  0  0  0  0  0  0  0  0  0  0
  1  2  1  0
  2  3  1  0
  3  4  1  0
  4  5  2  0
  5  6  1  0
  6  7  2  0
  7  8  1  0
  8  9  2  0
  3 10  1  0
 10 11  1  0
 11 12  1  0
 12 13  1  0
 13 14  1  0
 14 15  2  0
 15 16  1  0
 16 17  2  0
 17 18  1  0
 18 19  2  0
 19 20  1  0
 20 21  2  0
 21 22  1  0
 22 23  2  0
 17 24  1  0
 24 25  2  0
 12 26  1  0
 26 27  1  0
 27  3  1  0
  9  4  1  0
 25 14  1  0
 23 18  1  0
  1 28  1  0
  2 29  1  0
  2 30  1  0
  5 31  1  0
  6 32  1  0
  7 33  1  0
  8 34  1  0
  9 35  1  0
 10 36  1  0
 10 37  1  0
 11 38  1  0
 11 39  1  0
 13 40  1  0
 13 41  1  0
 15 42  1  0
 16 43  1  0
 19 44  1  0
 20 45  1  0
 21 46  1  0
 22 47  1  0
 23 48  1  0
 24 49  1  0
 25 50  1  0
 26 51  1  0
 26 52  1  0
 27 53  1  0
 27 54  1  0
M  CHG  1  23   1
M  END
>  <UniqueID>  (21) 
19

>  <SMILES>  (21) 
OCC1(c2ccccc2)CCN(Cc2ccc(-c3cccc[nH+]3)cc2)CC1

>  <Energy>  (21) 
81.32882970372835

>  <Genealogy>  (21) 
OCC1(c2ccccc2)CCN(Cc2ccc(-c3cccc[nH+]3)cc2)CC1 (protonated)
OCC1(c2ccccc2)CCN(Cc2ccc(-c3cccc[nH+]3)cc2)CC1 (3D coordinates assigned)
OCC1(c2ccccc2)CCN(Cc2ccc(-c3cccc[nH+]3)cc2)CC1 (nonaromatic ring conformer: 81.32882970372835 kcal/mol)

>  <smiles>  (21) 
OCC1(c2ccccc2)CCN(Cc2ccc(-c3ccccn3)cc2)CC1

>  <score_type>  (21) 
oracle

>  <origin>  (21) 
adg

>  <m_score__min__energy>  (21) 
-9.2699999999999996

>  <m_primary>  (21) 
energy

$$$$
21:0
     RDKit          3D

 49 52  0  0  0  0  0  0  0  0999 V2000
   -2.5300   25.2460  -26.7490 C   0  0  0  0  0  0  0  0  0  0  0  0
   -1.9160   24.7940  -28.0800 C   0  0  0  0  0  0  0  0  0  0  0  0
   -0.5110   25.3860  -28.2350 C   0  0  0  0  0  0  0  0  0  0  0  0
   -1.8270   23.2760  -28.0910 C   0  0  0  0  0  0  0  0  0  0  0  0
   -2.7200   22.5210  -28.7370 C   0  0  0  0  0  0  0  0  0  0  0  0
   -3.7610   23.1390  -29.5710 C   0  0  0  0  0  0  0  0  0  0  0  0
   -4.7460   22.3630  -30.1980 C   0  0  0  0  0  0  0  0  0  0  0  0
   -5.7130   22.9690  -31.0230 C   0  0  0  0  0  0  0  0  0  0  0  0
   -6.7450   22.1470  -31.7130 C   0  0  0  0  0  0  0  0  0  0  0  0
   -6.3870   21.3190  -32.7090 C   0  0  0  0  0  0  0  0  0  0  0  0
   -7.3650   20.4220  -33.4060 C   0  0  0  0  0  0  0  0  0  0  0  0
   -8.5140   20.0780  -32.5530 N   0  0  0  0  0  0  0  0  0  0  0  0
   -8.3400   18.8990  -31.6740 C   0  0  0  0  0  0  0  0  0  0  0  0
   -7.3220   17.9040  -32.1680 C   0  0  0  0  0  0  0  0  0  0  0  0
   -6.2930   17.4470  -31.3290 C   0  0  0  0  0  0  0  0  0  0  0  0
   -5.3630   16.5300  -31.8210 C   0  0  0  0  0  0  0  0  0  0  0  0
   -5.4610   16.0810  -33.1390 C   0  0  0  0  0  0  0  0  0  0  0  0
   -6.4860   16.5680  -33.9520 C   0  0  0  0  0  0  0  0  0  0  0  0
   -7.3810   17.4640  -33.4560 N   0  0  0  0  0  0  0  0  0  0  0  0
   -9.1550   21.2540  -31.9420 C   0  0  0  0  0  0  0  0  0  0  0  0
   -8.1720   22.1820  -31.2010 C   0  0  0  0  0  0  0  0  0  0  0  0
   -5.6610   24.3650  -31.2150 C   0  0  0  0  0  0  0  0  0  0  0  0
   -4.6730   25.1330  -30.5960 C   0  0  0  0  0  0  0  0  0  0  0  0
   -3.7290   24.5230  -29.7700 C   0  0  0  0  0  0  0  0  0  0  0  0
   -2.7340   25.2880  -29.1520 O   0  0  0  0  0  0  0  0  0  0  0  0
   -1.9521   24.8205  -25.9154 H   0  0  0  0  0  0  0  0  0  0  0  0
   -2.5067   26.3441  -26.6886 H   0  0  0  0  0  0  0  0  0  0  0  0
   -3.5716   24.8975  -26.6886 H   0  0  0  0  0  0  0  0  0  0  0  0
   -0.0782   25.5684  -27.2403 H   0  0  0  0  0  0  0  0  0  0  0  0
    0.1256   24.6796  -28.7880 H   0  0  0  0  0  0  0  0  0  0  0  0
   -0.5719   26.3350  -28.7880 H   0  0  0  0  0  0  0  0  0  0  0  0
   -1.0035   22.7854  -27.5514 H   0  0  0  0  0  0  0  0  0  0  0  0
   -2.6759   21.4258  -28.6439 H   0  0  0  0  0  0  0  0  0  0  0  0
   -4.7636   21.2739  -30.0445 H   0  0  0  0  0  0  0  0  0  0  0  0
   -5.3337   21.2986  -33.0256 H   0  0  0  0  0  0  0  0  0  0  0  0
   -7.7341   20.9336  -34.3071 H   0  0  0  0  0  0  0  0  0  0  0  0
   -6.8428   19.4877  -33.6597 H   0  0  0  0  0  0  0  0  0  0  0  0
   -8.0233   19.2525  -30.6817 H   0  0  0  0  0  0  0  0  0  0  0  0
   -9.3076   18.3762  -31.6519 H   0  0  0  0  0  0  0  0  0  0  0  0
   -6.2205   17.8087  -30.2927 H   0  0  0  0  0  0  0  0  0  0  0  0
   -4.5549   16.1620  -31.1718 H   0  0  0  0  0  0  0  0  0  0  0  0
   -4.7383   15.3512  -33.5328 H   0  0  0  0  0  0  0  0  0  0  0  0
   -6.5699   16.2269  -34.9944 H   0  0  0  0  0  0  0  0  0  0  0  0
   -9.6469   21.8334  -32.7371 H   0  0  0  0  0  0  0  0  0  0  0  0
   -9.8679   20.8782  -31.1933 H   0  0  0  0  0  0  0  0  0  0  0  0
   -8.5420   23.2138  -31.2932 H   0  0  0  0  0  0  0  0  0  0  0  0
   -8.1340   21.8217  -30.1624 H   0  0  0  0  0  0  0  0  0  0  0  0
   -6.4066   24.8540  -31.8592 H   0  0  0  0  0  0  0  0  0  0  0  0
   -4.6390   26.2202  -30.7599 H   0  0  0  0  0  0  0  0  0  0  0  0
  1  2  1  0
  2  3  1  0
  2  4  1  0
  4  5  2  0
  5  6  1  0
  6  7  2  0
  7  8  1  0
  8  9  1  0
  9 10  2  0
 10 11  1  0
 11 12  1  0
 12 13  1  0
 13 14  1  0
 14 15  2  0
 15 16  1  0
 16 17  2  0
 17 18  1  0
 18 19  2  0
 12 20  1  0
 20 21  1  0
  8 22  2  0
 22 23  1  0
 23 24  2  0
 24 25  1  0
 25  2  1  0
 24  6  1  0
 21  9  1  0
 19 14  1  0
  1 26  1  0
  1 27  1  0
  1 28  1  0
  3 29  1  0
  3 30  1  0
  3 31  1  0
  4 32  1  0
  5 33  1  0
  7 34  1  0
 10 35  1  0
 11 36  1  0
 11 37  1  0
 13 38  1  0
 13 39  1  0
 15 40  1  0
 16 41  1  0
 17 42  1  0
 18 43  1  0
 20 44  1  0
 20 45  1  0
 21 46  1  0
 21 47  1  0
 22 48  1  0
 23 49  1  0
M  END
>  <UniqueID>  (22) 
20

>  <SMILES>  (22) 
CC1(C)C=Cc2cc(C3=CCN(Cc4ccccn4)CC3)ccc2O1

>  <Energy>  (22) 
64.073019909123

>  <Genealogy>  (22) 
CC1(C)C=Cc2cc(C3=CCN(Cc4ccccn4)CC3)ccc2O1 (3D coordinates assigned)
CC1(C)C=Cc2cc(C3=CCN(Cc4ccccn4)CC3)ccc2O1 (nonaromatic ring conformer: 64.073019909123 kcal/mol)

>  <smiles>  (22) 
CC1(C)C=Cc2cc(C3=CCN(Cc4ccccn4)CC3)ccc2O1

>  <score_type>  (22) 
oracle

>  <origin>  (22) 
adg

>  <m_score__min__energy>  (22) 
-10.07

>  <m_primary>  (22) 
energy

$$$$
22:0
     RDKit          3D

 34 35  0  0  0  0  0  0  0  0999 V2000
   -9.1140   18.5530  -31.9180 C   0  0  0  0  0  0  0  0  0  0  0  0
   -7.7800   19.1940  -32.1640 C   0  0  0  0  0  0  0  0  0  0  0  0
   -7.6950   20.5670  -32.4420 C   0  0  0  0  0  0  0  0  0  0  0  0
   -6.4500   21.1710  -32.6360 C   0  0  0  0  0  0  0  0  0  0  0  0
   -5.2750   20.4120  -32.5380 C   0  0  0  0  0  0  0  0  0  0  0  0
   -3.6980   21.1540  -32.8040 S   0  0  0  0  0  0  0  0  0  0  0  0
   -2.7470   20.1480  -33.3920 O   0  0  0  0  0  0  0  0  0  0  0  0
   -3.8630   22.2870  -33.7790 O   0  0  0  0  0  0  0  0  0  0  0  0
   -3.0640   21.7550  -31.2910 N   0  0  2  0  0  0  0  0  0  0  0  0
   -2.0050   20.8490  -30.8140 C   0  0  0  0  0  0  0  0  0  0  0  0
   -4.1580   21.8750  -30.3050 C   0  0  0  0  0  0  0  0  0  0  0  0
   -4.7900   23.2360  -30.3420 C   0  0  0  0  0  0  0  0  0  0  0  0
   -6.0460   23.5570  -29.8660 C   0  0  0  0  0  0  0  0  0  0  0  0
   -6.2090   24.8990  -30.1300 C   0  0  0  0  0  0  0  0  0  0  0  0
   -5.0470   25.3130  -30.7500 C   0  0  0  0  0  0  0  0  0  0  0  0
   -4.2200   24.2980  -30.8640 O   0  0  0  0  0  0  0  0  0  0  0  0
   -5.3580   19.0450  -32.2470 C   0  0  0  0  0  0  0  0  0  0  0  0
   -6.6020   18.4390  -32.0530 C   0  0  0  0  0  0  0  0  0  0  0  0
   -9.2867   18.4700  -30.8348 H   0  0  0  0  0  0  0  0  0  0  0  0
   -9.9056   19.1691  -32.3694 H   0  0  0  0  0  0  0  0  0  0  0  0
   -9.1277   17.5500  -32.3694 H   0  0  0  0  0  0  0  0  0  0  0  0
   -8.6125   21.1703  -32.5075 H   0  0  0  0  0  0  0  0  0  0  0  0
   -6.3915   22.2450  -32.8663 H   0  0  0  0  0  0  0  0  0  0  0  0
   -2.6460   22.6980  -31.4760 H   0  0  0  0  0  0  0  0  0  0  0  0
   -1.9966   20.8418  -29.7141 H   0  0  0  0  0  0  0  0  0  0  0  0
   -2.1977   19.8319  -31.1859 H   0  0  0  0  0  0  0  0  0  0  0  0
   -1.0299   21.1968  -31.1859 H   0  0  0  0  0  0  0  0  0  0  0  0
   -4.9251   21.1192  -30.5295 H   0  0  0  0  0  0  0  0  0  0  0  0
   -3.7347   21.7200  -29.3016 H   0  0  0  0  0  0  0  0  0  0  0  0
   -6.7653   22.8825  -29.3784 H   0  0  0  0  0  0  0  0  0  0  0  0
   -7.0882   25.5166  -29.8943 H   0  0  0  0  0  0  0  0  0  0  0  0
   -4.8441   26.3372  -31.0961 H   0  0  0  0  0  0  0  0  0  0  0  0
   -4.4392   18.4450  -32.1707 H   0  0  0  0  0  0  0  0  0  0  0  0
   -6.6583   17.3671  -31.8126 H   0  0  0  0  0  0  0  0  0  0  0  0
  1  2  1  0
  2  3  2  0
  3  4  1  0
  4  5  2  0
  5  6  1  0
  6  7  2  0
  6  8  2  0
  6  9  1  0
  9 10  1  0
  9 11  1  0
 11 12  1  0
 12 13  2  0
 13 14  1  0
 14 15  2  0
 15 16  1  0
  5 17  1  0
 17 18  2  0
 18  2  1  0
 16 12  1  0
  1 19  1  0
  1 20  1  0
  1 21  1  0
  3 22  1  0
  4 23  1  0
  9 24  1  6
 10 25  1  0
 10 26  1  0
 10 27  1  0
 11 28  1  0
 11 29  1  0
 13 30  1  0
 14 31  1  0
 15 32  1  0
 17 33  1  0
 18 34  1  0
M  CHG  1   9   1
M  END
>  <UniqueID>  (23) 
21

>  <SMILES>  (23) 
Cc1ccc(S(=O)(=O)[N@H+](C)Cc2ccco2)cc1

>  <Energy>  (23) 
56.88610549601781

>  <Genealogy>  (23) 
Cc1ccc(S(=O)(=O)[NH+](C)Cc2ccco2)cc1 (protonated)
Cc1ccc(S(=O)(=O)[N@H+](C)Cc2ccco2)cc1 (chirality)
Cc1ccc(S(=O)(=O)[N@H+](C)Cc2ccco2)cc1 (3D coordinates assigned)
Cc1ccc(S(=O)(=O)[N@H+](C)Cc2ccco2)cc1 (optimized conformer: 56.88610549601781 kcal/mol)

>  <smiles>  (23) 
Cc1ccc(S(=O)(=O)N(C)Cc2ccco2)cc1

>  <score_type>  (23) 
oracle

>  <origin>  (23) 
adg

>  <m_score__min__energy>  (23) 
-7.21

>  <m_primary>  (23) 
energy

$$$$
23:0
     RDKit          3D

 40 41  0  0  0  0  0  0  0  0999 V2000
   -5.0730   23.2870  -28.9660 C   0  0  0  0  0  0  0  0  0  0  0  0
   -5.2740   23.3660  -30.5000 C   0  0  2  0  0  0  0  0  0  0  0  0
   -5.5670   24.8490  -30.8800 C   0  0  0  0  0  0  0  0  0  0  0  0
   -4.4210   25.6520  -30.7290 O   0  0  0  0  0  0  0  0  0  0  0  0
   -6.5230   22.4890  -30.8860 C   0  0  0  0  0  0  0  0  0  0  0  0
   -6.3760   21.6730  -32.1860 C   0  0  0  0  0  0  0  0  0  0  0  0
   -5.5860   20.3230  -32.0310 C   0  0  2  0  0  0  0  0  0  0  0  0
   -4.9080   20.0000  -33.3630 C   0  0  0  0  0  0  0  0  0  0  0  0
   -5.3440   19.0590  -34.2190 C   0  0  0  0  0  0  0  0  0  0  0  0
   -6.4450   18.0940  -33.8800 C   0  0  0  0  0  0  0  0  0  0  0  0
   -7.3910   18.6600  -32.8230 C   0  0  0  0  0  0  0  0  0  0  0  0
   -6.5850   19.1890  -31.6310 C   0  0  0  0  0  0  0  0  0  0  0  0
   -4.4920   20.3710  -30.9160 C   0  0  0  0  0  0  0  0  0  0  0  0
   -3.4410   21.4950  -30.9860 C   0  0  0  0  0  0  0  0  0  0  0  0
   -3.9520   22.9340  -31.2480 C   0  0  2  0  0  0  0  0  0  0  0  0
   -2.9100   23.8540  -31.0140 O   0  0  0  0  0  0  0  0  0  0  0  0
   -5.9812   23.6440  -28.4583 H   0  0  0  0  0  0  0  0  0  0  0  0
   -4.8761   22.2446  -28.6752 H   0  0  0  0  0  0  0  0  0  0  0  0
   -4.2190   23.9164  -28.6752 H   0  0  0  0  0  0  0  0  0  0  0  0
   -5.8987   24.8915  -31.9279 H   0  0  0  0  0  0  0  0  0  0  0  0
   -6.3496   25.2313  -30.2081 H   0  0  0  0  0  0  0  0  0  0  0  0
   -3.9590   25.6820  -31.6080 H   0  0  0  0  0  0  0  0  0  0  0  0
   -6.7123   21.7852  -30.0621 H   0  0  0  0  0  0  0  0  0  0  0  0
   -7.3490   23.1943  -31.0602 H   0  0  0  0  0  0  0  0  0  0  0  0
   -7.3840   21.4387  -32.5588 H   0  0  0  0  0  0  0  0  0  0  0  0
   -5.7912   22.2963  -32.8784 H   0  0  0  0  0  0  0  0  0  0  0  0
   -4.0094   20.5719  -33.6376 H   0  0  0  0  0  0  0  0  0  0  0  0
   -4.8739   18.9927  -35.2113 H   0  0  0  0  0  0  0  0  0  0  0  0
   -7.0201   17.8755  -34.7919 H   0  0  0  0  0  0  0  0  0  0  0  0
   -5.9857   17.1809  -33.4734 H   0  0  0  0  0  0  0  0  0  0  0  0
   -7.9770   19.4817  -33.2605 H   0  0  0  0  0  0  0  0  0  0  0  0
   -8.0670   17.8636  -32.4783 H   0  0  0  0  0  0  0  0  0  0  0  0
   -7.2854   19.5859  -30.8814 H   0  0  0  0  0  0  0  0  0  0  0  0
   -5.9933   18.3513  -31.2332 H   0  0  0  0  0  0  0  0  0  0  0  0
   -5.0115   20.4677  -29.9512 H   0  0  0  0  0  0  0  0  0  0  0  0
   -3.9152   19.4447  -31.0551 H   0  0  0  0  0  0  0  0  0  0  0  0
   -2.9044   21.5052  -30.0258 H   0  0  0  0  0  0  0  0  0  0  0  0
   -2.8261   21.2506  -31.8647 H   0  0  0  0  0  0  0  0  0  0  0  0
   -4.2552   22.9373  -32.3054 H   0  0  0  0  0  0  0  0  0  0  0  0
   -3.0560   24.6490  -31.5880 H   0  0  0  0  0  0  0  0  0  0  0  0
  2  1  1  1
  2  3  1  0
  3  4  1  0
  2  5  1  0
  5  6  1  0
  7  6  1  6
  7  8  1  0
  8  9  2  0
  9 10  1  0
 10 11  1  0
 11 12  1  0
  7 13  1  0
 13 14  1  0
 14 15  1  0
 15 16  1  0
 15  2  1  0
 12  7  1  0
  1 17  1  0
  1 18  1  0
  1 19  1  0
  3 20  1  0
  3 21  1  0
  4 22  1  0
  5 23  1  0
  5 24  1  0
  6 25  1  0
  6 26  1  0
  8 27  1  0
  9 28  1  0
 10 29  1  0
 10 30  1  0
 11 31  1  0
 11 32  1  0
 12 33  1  0
 12 34  1  0
 13 35  1  0
 13 36  1  0
 14 37  1  0
 14 38  1  0
 15 39  1  6
 16 40  1  0
M  END
>  <UniqueID>  (24) 
22

>  <SMILES>  (24) 
C[C@]1(CO)CC[C@@]2(C=CCCC2)CCC1O

>  <Energy>  (24) 
57.17124121094734

>  <Genealogy>  (24) 
C[C@]1(CO)CC[C@@]2(C=CCCC2)CCC1O (chirality)
C[C@]1(CO)CC[C@@]2(C=CCCC2)CCC1O (3D coordinates assigned)
C[C@]1(CO)CC[C@@]2(C=CCCC2)CCC1O (nonaromatic ring conformer: 57.17124121094734 kcal/mol)

>  <smiles>  (24) 
CC1(CO)CCC2(C=CCCC2)CCC1O

>  <score_type>  (24) 
oracle

>  <origin>  (24) 
adg

>  <m_score__min__energy>  (24) 
-6.2599999999999998

>  <m_primary>  (24) 
energy

$$$$
24:0
     RDKit          3D

 36 38  0  0  0  0  0  0  0  0999 V2000
   -3.6860   18.8680  -26.3050 C   0  0  0  0  0  0  0  0  0  0  0  0
   -2.2460   19.2100  -26.6770 C   0  0  0  0  0  0  0  0  0  0  0  0
   -2.1430   20.6380  -27.2360 C   0  0  0  0  0  0  0  0  0  0  0  0
   -0.9620   20.8230  -28.2050 C   0  0  0  0  0  0  0  0  0  0  0  0
   -1.1870   21.9250  -29.2530 C   0  0  0  0  0  0  0  0  0  0  0  0
   -2.6020   22.0670  -29.5960 N   0  0  0  0  0  0  0  0  0  0  0  0
   -3.2720   21.1880  -30.3330 N   0  0  0  0  0  0  0  0  0  0  0  0
   -4.4490   21.7490  -30.6960 C   0  0  0  0  0  0  0  0  0  0  0  0
   -5.3990   21.1270  -31.6420 C   0  0  0  0  0  0  0  0  0  0  0  0
   -4.9510   20.2740  -32.6640 C   0  0  0  0  0  0  0  0  0  0  0  0
   -5.8650   19.7080  -33.5550 C   0  0  0  0  0  0  0  0  0  0  0  0
   -7.2220   20.0050  -33.4230 C   0  0  0  0  0  0  0  0  0  0  0  0
   -7.6420   20.8430  -32.4390 N   0  0  0  0  0  0  0  0  0  0  0  0
   -6.7730   21.4080  -31.5600 C   0  0  0  0  0  0  0  0  0  0  0  0
   -4.5110   23.0270  -30.1630 C   0  0  0  0  0  0  0  0  0  0  0  0
   -3.3400   23.1880  -29.4930 C   0  0  0  0  0  0  0  0  0  0  0  0
   -2.9120   24.5720  -29.6680 C   0  0  0  0  0  0  0  0  0  0  0  0
   -1.8400   25.0660  -29.2350 O   0  0  0  0  0  0  0  0  0  0  0  0
   -3.8520   25.3000  -30.4620 N   0  0  0  0  0  0  0  0  0  0  0  0
   -4.8270   24.3080  -30.7920 C   0  0  0  0  0  0  0  0  0  0  0  0
   -5.7860   24.5190  -31.5780 O   0  0  0  0  0  0  0  0  0  0  0  0
   -3.7860   18.8442  -25.2098 H   0  0  0  0  0  0  0  0  0  0  0  0
   -4.3625   19.6305  -26.7185 H   0  0  0  0  0  0  0  0  0  0  0  0
   -3.9474   17.8828  -26.7185 H   0  0  0  0  0  0  0  0  0  0  0  0
   -1.6143   19.1289  -25.7801 H   0  0  0  0  0  0  0  0  0  0  0  0
   -1.9089   18.5062  -27.4523 H   0  0  0  0  0  0  0  0  0  0  0  0
   -3.0750   20.8726  -27.7711 H   0  0  0  0  0  0  0  0  0  0  0  0
   -1.9767   21.3129  -26.3834 H   0  0  0  0  0  0  0  0  0  0  0  0
   -0.0682   21.0801  -27.6176 H   0  0  0  0  0  0  0  0  0  0  0  0
   -0.8466   19.8769  -28.7542 H   0  0  0  0  0  0  0  0  0  0  0  0
   -0.8207   22.8805  -28.8494 H   0  0  0  0  0  0  0  0  0  0  0  0
   -0.6400   21.6460  -30.1657 H   0  0  0  0  0  0  0  0  0  0  0  0
   -3.8783   20.0515  -32.7626 H   0  0  0  0  0  0  0  0  0  0  0  0
   -5.5188   19.0347  -34.3530 H   0  0  0  0  0  0  0  0  0  0  0  0
   -7.9520   19.5607  -34.1156 H   0  0  0  0  0  0  0  0  0  0  0  0
   -7.1472   22.0884  -30.7808 H   0  0  0  0  0  0  0  0  0  0  0  0
  1  2  1  0
  2  3  1  0
  3  4  1  0
  4  5  1  0
  5  6  1  0
  6  7  1  0
  7  8  2  0
  8  9  1  0
  9 10  2  0
 10 11  1  0
 11 12  2  0
 12 13  1  0
 13 14  2  0
  8 15  1  0
 15 16  2  0
 16 17  1  0
 17 18  2  0
 17 19  1  0
 19 20  1  0
 20 21  2  0
 16  6  1  0
 14  9  1  0
 20 15  1  0
  1 22  1  0
  1 23  1  0
  1 24  1  0
  2 25  1  0
  2 26  1  0
  3 27  1  0
  3 28  1  0
  4 29  1  0
  4 30  1  0
  5 31  1  0
  5 32  1  0
 10 33  1  0
 11 34  1  0
 12 35  1  0
 14 36  1  0
M  CHG  1  19  -1
M  END
>  <UniqueID>  (25) 
23

>  <SMILES>  (25) 
CCCCCn1nc(-c2cccnc2)c2c1C(=O)[N-]C2=O

>  <Energy>  (25) 
114.49681587026421

>  <Genealogy>  (25) 
CCCCCn1nc(-c2cccnc2)c2c1C(=O)[N-]C2=O (protonated)
CCCCCn1nc(-c2cccnc2)c2c1C(=O)[N-]C2=O (3D coordinates assigned)
CCCCCn1nc(-c2cccnc2)c2c1C(=O)[N-]C2=O (nonaromatic ring conformer: 114.49681587026421 kcal/mol)

>  <smiles>  (25) 
CCCCCn1nc(-c2cccnc2)c2c1C(=O)NC2=O

>  <score_type>  (25) 
oracle

>  <origin>  (25) 
adg

>  <m_score__min__energy>  (25) 
-9.0399999999999991

>  <m_primary>  (25) 
energy

$$$$
25:0
     RDKit          3D

 39 42  0  0  0  0  0  0  0  0999 V2000
   -6.4810   25.6700  -29.3390 C   0  0  0  0  0  0  0  0  0  0  0  0
   -5.4630   25.4440  -30.4520 C   0  0  0  0  0  0  0  0  0  0  0  0
   -5.4250   23.9930  -30.8510 C   0  0  0  0  0  0  0  0  0  0  0  0
   -4.2020   23.3080  -30.9270 C   0  0  0  0  0  0  0  0  0  0  0  0
   -4.1620   22.0050  -31.3170 N   0  0  0  0  0  0  0  0  0  0  0  0
   -5.2930   21.3300  -31.6540 C   0  0  0  0  0  0  0  0  0  0  0  0
   -5.2260   20.0230  -32.0440 N   0  0  0  0  0  0  0  0  0  0  0  0
   -6.3380   19.3160  -32.3970 C   0  0  0  0  0  0  0  0  0  0  0  0
   -6.2140   17.9530  -32.8250 N   0  0  0  0  0  0  0  0  0  0  0  0
   -6.1180   17.5760  -34.2250 C   0  0  0  0  0  0  0  0  0  0  0  0
   -5.8400   16.0800  -34.2240 C   0  0  0  0  0  0  0  0  0  0  0  0
   -5.3240   15.7530  -32.8260 C   0  0  0  0  0  0  0  0  0  0  0  0
   -5.7920   16.8920  -31.9280 C   0  0  0  0  0  0  0  0  0  0  0  0
   -7.5780   19.9660  -32.3320 C   0  0  0  0  0  0  0  0  0  0  0  0
   -8.8420   19.4580  -32.5670 C   0  0  0  0  0  0  0  0  0  0  0  0
   -9.7170   20.5050  -32.3300 C   0  0  0  0  0  0  0  0  0  0  0  0
   -8.9570   21.5990  -31.9530 C   0  0  0  0  0  0  0  0  0  0  0  0
   -7.6520   21.2550  -31.9500 N   0  0  0  0  0  0  0  0  0  0  0  0
   -6.5480   21.9790  -31.6060 C   0  0  0  0  0  0  0  0  0  0  0  0
   -6.6050   23.3220  -31.2040 C   0  0  0  0  0  0  0  0  0  0  0  0
   -5.9869   25.5603  -28.3624 H   0  0  0  0  0  0  0  0  0  0  0  0
   -6.9005   26.6831  -29.4260 H   0  0  0  0  0  0  0  0  0  0  0  0
   -7.2898   24.9295  -29.4260 H   0  0  0  0  0  0  0  0  0  0  0  0
   -5.7420   26.0516  -31.3255 H   0  0  0  0  0  0  0  0  0  0  0  0
   -4.4678   25.7366  -30.0861 H   0  0  0  0  0  0  0  0  0  0  0  0
   -3.2682   23.8290  -30.6691 H   0  0  0  0  0  0  0  0  0  0  0  0
   -3.2370   21.5190  -31.3600 H   0  0  0  0  0  0  0  0  0  0  0  0
   -7.0620   17.7914  -34.7469 H   0  0  0  0  0  0  0  0  0  0  0  0
   -5.3288   18.1378  -34.7461 H   0  0  0  0  0  0  0  0  0  0  0  0
   -6.7629   15.5189  -34.4324 H   0  0  0  0  0  0  0  0  0  0  0  0
   -5.1103   15.8037  -34.9993 H   0  0  0  0  0  0  0  0  0  0  0  0
   -5.7414   14.7964  -32.4787 H   0  0  0  0  0  0  0  0  0  0  0  0
   -4.2285   15.6546  -32.8138 H   0  0  0  0  0  0  0  0  0  0  0  0
   -6.6332   16.5639  -31.2997 H   0  0  0  0  0  0  0  0  0  0  0  0
   -4.9938   17.2279  -31.2498 H   0  0  0  0  0  0  0  0  0  0  0  0
   -9.0994   18.4347  -32.8777 H   0  0  0  0  0  0  0  0  0  0  0  0
  -10.8125   20.4732  -32.4239 H   0  0  0  0  0  0  0  0  0  0  0  0
   -9.3542   22.5922  -31.6963 H   0  0  0  0  0  0  0  0  0  0  0  0
   -7.5711   23.8465  -31.1658 H   0  0  0  0  0  0  0  0  0  0  0  0
  1  2  1  0
  2  3  1  0
  3  4  2  0
  4  5  1  0
  5  6  2  0
  6  7  1  0
  7  8  2  0
  8  9  1  0
  9 10  1  0
 10 11  1  0
 11 12  1  0
 12 13  1  0
  8 14  1  0
 14 15  2  0
 15 16  1  0
 16 17  2  0
 17 18  1  0
 18 19  1  0
 19 20  2  0
 20  3  1  0
 19  6  1  0
 13  9  1  0
 18 14  1  0
  1 21  1  0
  1 22  1  0
  1 23  1  0
  2 24  1  0
  2 25  1  0
  4 26  1  0
  5 27  1  0
 10 28  1  0
 10 29  1  0
 11 30  1  0
 11 31  1  0
 12 32  1  0
 12 33  1  0
 13 34  1  0
 13 35  1  0
 15 36  1  0
 16 37  1  0
 17 38  1  0
 20 39  1  0
M  CHG  1   5   1
M  END
>  <UniqueID>  (26) 
24

>  <SMILES>  (26) 
CCc1c[nH+]c2nc(N3CCCC3)c3cccn3c2c1

>  <Energy>  (26) 
79.56822805048826

>  <Genealogy>  (26) 
CCc1c[nH+]c2nc(N3CCCC3)c3cccn3c2c1 (protonated)
CCc1c[nH+]c2nc(N3CCCC3)c3cccn3c2c1 (3D coordinates assigned)
CCc1c[nH+]c2nc(N3CCCC3)c3cccn3c2c1 (nonaromatic ring conformer: 79.56822805048826 kcal/mol)

>  <smiles>  (26) 
CCc1cnc2nc(N3CCCC3)c3cccn3c2c1

>  <score_type>  (26) 
oracle

>  <origin>  (26) 
adg

>  <m_score__min__energy>  (26) 
-6.9800000000000004

>  <m_primary>  (26) 
energy

$$$$
26:0
     RDKit          3D

 40 42  0  0  0  0  0  0  0  0999 V2000
   -2.1430   24.9040  -28.7520 C   0  0  0  0  0  0  0  0  0  0  0  0
   -3.1160   25.2790  -29.7220 O   0  0  0  0  0  0  0  0  0  0  0  0
   -4.2950   24.5630  -29.9750 C   0  0  0  0  0  0  0  0  0  0  0  0
   -5.5140   25.2500  -29.9200 C   0  0  0  0  0  0  0  0  0  0  0  0
   -6.7200   24.5730  -30.1210 C   0  0  0  0  0  0  0  0  0  0  0  0
   -6.7240   23.1930  -30.3790 C   0  0  0  0  0  0  0  0  0  0  0  0
   -8.0230   22.4360  -30.4900 C   0  0  0  0  0  0  0  0  0  0  0  0
   -8.4270   22.2710  -31.9070 N   0  0  0  0  0  0  0  0  0  0  0  0
   -9.2720   23.4070  -32.3120 C   0  0  0  0  0  0  0  0  0  0  0  0
   -9.1570   21.0010  -32.1360 C   0  0  0  0  0  0  0  0  0  0  0  0
   -8.2270   19.9450  -32.6510 C   0  0  0  0  0  0  0  0  0  0  0  0
   -8.3510   18.5780  -32.4180 C   0  0  0  0  0  0  0  0  0  0  0  0
   -7.2380   18.0330  -33.0160 C   0  0  0  0  0  0  0  0  0  0  0  0
   -6.7820   16.7190  -33.0680 C   0  0  0  0  0  0  0  0  0  0  0  0
   -5.5650   16.4750  -33.7310 C   0  0  0  0  0  0  0  0  0  0  0  0
   -4.8430   17.5390  -34.3180 C   0  0  0  0  0  0  0  0  0  0  0  0
   -5.3310   18.8570  -34.2440 C   0  0  0  0  0  0  0  0  0  0  0  0
   -6.5360   19.0670  -33.5760 C   0  0  0  0  0  0  0  0  0  0  0  0
   -7.1430   20.2070  -33.3590 O   0  0  0  0  0  0  0  0  0  0  0  0
   -5.5020   22.5110  -30.4780 C   0  0  0  0  0  0  0  0  0  0  0  0
   -4.2950   23.1870  -30.2720 C   0  0  0  0  0  0  0  0  0  0  0  0
   -2.5516   25.0615  -27.7429 H   0  0  0  0  0  0  0  0  0  0  0  0
   -1.8859   23.8424  -28.8819 H   0  0  0  0  0  0  0  0  0  0  0  0
   -1.2399   25.5185  -28.8819 H   0  0  0  0  0  0  0  0  0  0  0  0
   -5.5224   26.3311  -29.7170 H   0  0  0  0  0  0  0  0  0  0  0  0
   -7.6709   25.1242  -30.0768 H   0  0  0  0  0  0  0  0  0  0  0  0
   -7.8997   21.4426  -30.0339 H   0  0  0  0  0  0  0  0  0  0  0  0
   -8.8052   23.0073  -29.9686 H   0  0  0  0  0  0  0  0  0  0  0  0
   -9.6526   23.9187  -31.4157 H   0  0  0  0  0  0  0  0  0  0  0  0
   -8.6766   24.1115  -32.9114 H   0  0  0  0  0  0  0  0  0  0  0  0
  -10.1179   23.0394  -32.9114 H   0  0  0  0  0  0  0  0  0  0  0  0
   -9.5995   20.6621  -31.1877 H   0  0  0  0  0  0  0  0  0  0  0  0
   -9.9458   21.1745  -32.8828 H   0  0  0  0  0  0  0  0  0  0  0  0
   -9.1543   18.0539  -31.8795 H   0  0  0  0  0  0  0  0  0  0  0  0
   -7.3531   15.8997  -32.6069 H   0  0  0  0  0  0  0  0  0  0  0  0
   -5.1728   15.4491  -33.7929 H   0  0  0  0  0  0  0  0  0  0  0  0
   -3.8940   17.3357  -34.8358 H   0  0  0  0  0  0  0  0  0  0  0  0
   -4.7797   19.6935  -34.6983 H   0  0  0  0  0  0  0  0  0  0  0  0
   -5.4931   21.4378  -30.7192 H   0  0  0  0  0  0  0  0  0  0  0  0
   -3.3424   22.6415  -30.3423 H   0  0  0  0  0  0  0  0  0  0  0  0
  1  2  1  0
  2  3  1  0
  3  4  2  0
  4  5  1  0
  5  6  2  0
  6  7  1  0
  7  8  1  0
  8  9  1  0
  8 10  1  0
 10 11  1  0
 11 12  2  0
 12 13  1  0
 13 14  2  0
 14 15  1  0
 15 16  2  0
 16 17  1  0
 17 18  2  0
 18 19  1  0
  6 20  1  0
 20 21  2  0
 21  3  1  0
 19 11  1  0
 18 13  1  0
  1 22  1  0
  1 23  1  0
  1 24  1  0
  4 25  1  0
  5 26  1  0
  7 27  1  0
  7 28  1  0
  9 29  1  0
  9 30  1  0
  9 31  1  0
 10 32  1  0
 10 33  1  0
 12 34  1  0
 14 35  1  0
 15 36  1  0
 16 37  1  0
 17 38  1  0
 20 39  1  0
 21 40  1  0
M  END
>  <UniqueID>  (27) 
25

>  <SMILES>  (27) 
COc1ccc(CN(C)Cc2cc3ccccc3o2)cc1

>  <Energy>  (27) 
71.45707513344735

>  <Genealogy>  (27) 
COc1ccc(CN(C)Cc2cc3ccccc3o2)cc1 (3D coordinates assigned)
COc1ccc(CN(C)Cc2cc3ccccc3o2)cc1 (optimized conformer: 71.45707513344735 kcal/mol)

>  <smiles>  (27) 
COc1ccc(CN(C)Cc2cc3ccccc3o2)cc1

>  <score_type>  (27) 
oracle

>  <origin>  (27) 
adg

>  <m_score__min__energy>  (27) 
-8.4600000000000009

>  <m_primary>  (27) 
energy

$$$$
27:0
     RDKit          3D

 63 66  0  0  1  0  0  0  0  0999 V2000
   -6.1300   25.4630  -30.5330 C   0  0  0  0  0  0  0  0  0  0  0  0
   -5.7820   24.1090  -30.9230 N   0  0  0  0  0  0  0  0  0  0  0  0
   -6.2780   23.1850  -29.9010 C   0  0  0  0  0  0  0  0  0  0  0  0
   -6.7530   21.8880  -30.5480 C   0  0  0  0  0  0  0  0  0  0  0  0
   -7.9590   22.2090  -31.2880 N   0  0  0  0  0  0  0  0  0  0  0  0
   -8.1980   21.1060  -32.2120 C   0  0  0  0  0  0  0  0  0  0  0  0
   -7.6190   19.8670  -31.6080 C   0  0  0  0  0  0  0  0  0  0  0  0
   -8.2640   18.6420  -32.2360 C   0  0  0  0  0  0  0  0  0  0  0  0
   -7.2340   17.8310  -33.0060 C   0  0  0  0  0  0  0  0  0  0  0  0
   -6.4650   18.7490  -33.8280 C   0  0  0  0  0  0  0  0  0  0  0  0
   -5.2010   19.0810  -33.6850 C   0  0  0  0  0  0  0  0  0  0  0  0
   -4.2250   18.2930  -34.2010 C   0  0  0  0  0  0  0  0  0  0  0  0
   -2.8920   18.6070  -34.0770 C   0  0  0  0  0  0  0  0  0  0  0  0
   -2.5050   19.7500  -33.4150 C   0  0  0  0  0  0  0  0  0  0  0  0
   -3.4890   20.5580  -32.8890 C   0  0  0  0  0  0  0  0  0  0  0  0
   -4.8280   20.2430  -33.0120 C   0  0  0  0  0  0  0  0  0  0  0  0
   -2.7870   21.6140  -32.2960 C   0  0  0  0  0  0  0  0  0  0  0  0
   -3.3420   22.6530  -31.6540 C   0  0  0  0  0  0  0  0  0  0  0  0
   -3.0960   22.7120  -30.2120 C   0  0  0  0  0  0  0  0  0  0  0  0
   -2.8720   21.5770  -29.4550 C   0  0  0  0  0  0  0  0  0  0  0  0
   -2.6360   21.6460  -28.0830 C   0  0  0  0  0  0  0  0  0  0  0  0
   -2.3530   20.1920  -27.1320 Cl  0  0  0  0  0  0  0  0  0  0  0  0
   -2.6200   22.8590  -27.4510 C   0  0  0  0  0  0  0  0  0  0  0  0
   -2.8420   23.9960  -28.1990 C   0  0  0  0  0  0  0  0  0  0  0  0
   -3.0770   23.9340  -29.5570 C   0  0  0  0  0  0  0  0  0  0  0  0
   -3.3040   25.0750  -30.3350 O   0  0  0  0  0  0  0  0  0  0  0  0
   -1.4570   21.4070  -32.4840 N   0  0  0  0  0  0  0  0  0  0  0  0
   -1.2910   20.2720  -33.1660 N   0  0  0  0  0  0  0  0  0  0  0  0
   -0.0210   19.7120  -33.5600 C   0  0  0  0  0  0  0  0  0  0  0  0
   -7.8310   23.4690  -31.9980 C   0  0  0  0  0  0  0  0  0  0  0  0
   -6.3590   23.7610  -32.2090 C   0  0  0  0  0  0  0  0  0  0  0  0
   -6.1485   25.5352  -29.4355 H   0  0  0  0  0  0  0  0  0  0  0  0
   -5.3827   26.1636  -30.9339 H   0  0  0  0  0  0  0  0  0  0  0  0
   -7.1225   25.7164  -30.9339 H   0  0  0  0  0  0  0  0  0  0  0  0
   -5.4688   22.9612  -29.1903 H   0  0  0  0  0  0  0  0  0  0  0  0
   -7.1226   23.6530  -29.3741 H   0  0  0  0  0  0  0  0  0  0  0  0
   -5.9819   21.4997  -31.2297 H   0  0  0  0  0  0  0  0  0  0  0  0
   -6.9478   21.1155  -29.7895 H   0  0  0  0  0  0  0  0  0  0  0  0
   -9.2792   20.9761  -32.3672 H   0  0  0  0  0  0  0  0  0  0  0  0
   -7.7292   21.3130  -33.1853 H   0  0  0  0  0  0  0  0  0  0  0  0
   -6.5345   19.8435  -31.7905 H   0  0  0  0  0  0  0  0  0  0  0  0
   -7.8111   19.8653  -30.5249 H   0  0  0  0  0  0  0  0  0  0  0  0
   -8.6983   18.0154  -31.4430 H   0  0  0  0  0  0  0  0  0  0  0  0
   -9.0488   18.9720  -32.9326 H   0  0  0  0  0  0  0  0  0  0  0  0
   -6.5669   17.3106  -32.3030 H   0  0  0  0  0  0  0  0  0  0  0  0
   -7.7320   17.0789  -33.6356 H   0  0  0  0  0  0  0  0  0  0  0  0
   -7.0011   19.2199  -34.6652 H   0  0  0  0  0  0  0  0  0  0  0  0
   -4.5086   17.3742  -34.7352 H   0  0  0  0  0  0  0  0  0  0  0  0
   -2.1307   17.9410  -34.5093 H   0  0  0  0  0  0  0  0  0  0  0  0
   -5.5945   20.9044  -32.5819 H   0  0  0  0  0  0  0  0  0  0  0  0
   -3.9429   23.4114  -32.1771 H   0  0  0  0  0  0  0  0  0  0  0  0
   -2.8802   20.5939  -29.9483 H   0  0  0  0  0  0  0  0  0  0  0  0
   -2.4340   22.9261  -26.3689 H   0  0  0  0  0  0  0  0  0  0  0  0
   -2.8315   24.9766  -27.7006 H   0  0  0  0  0  0  0  0  0  0  0  0
   -3.7930   24.9230  -31.2150 H   0  0  0  0  0  0  0  0  0  0  0  0
   -0.6590   22.0010  -32.1700 H   0  0  0  0  0  0  0  0  0  0  0  0
    0.5609   19.4554  -32.6625 H   0  0  0  0  0  0  0  0  0  0  0  0
   -0.1902   18.8050  -34.1590 H   0  0  0  0  0  0  0  0  0  0  0  0
    0.5346   20.4486  -34.1590 H   0  0  0  0  0  0  0  0  0  0  0  0
   -8.3375   23.3981  -32.9719 H   0  0  0  0  0  0  0  0  0  0  0  0
   -8.2931   24.2775  -31.4125 H   0  0  0  0  0  0  0  0  0  0  0  0
   -5.8563   22.8709  -32.6151 H   0  0  0  0  0  0  0  0  0  0  0  0
   -6.2320   24.5893  -32.9216 H   0  0  0  0  0  0  0  0  0  0  0  0
  1  2  1  0
  2  3  1  0
  3  4  1  0
  4  5  1  0
  5  6  1  0
  6  7  1  0
  7  8  1  0
  8  9  1  0
  9 10  1  0
 10 11  2  0
 11 12  1  0
 12 13  2  0
 13 14  1  0
 14 15  1  0
 15 16  2  0
 15 17  1  0
 17 18  2  0
 18 19  1  0
 19 20  2  0
 20 21  1  0
 21 22  1  0
 21 23  2  0
 23 24  1  0
 24 25  2  0
 25 26  1  0
 17 27  1  0
 27 28  1  0
 28 29  1  0
  5 30  1  0
 30 31  1  0
 31  2  1  0
 16 11  1  0
 25 19  1  0
 28 14  2  0
  1 32  1  0
  1 33  1  0
  1 34  1  0
  3 35  1  0
  3 36  1  0
  4 37  1  0
  4 38  1  0
  6 39  1  0
  6 40  1  0
  7 41  1  0
  7 42  1  0
  8 43  1  0
  8 44  1  0
  9 45  1  0
  9 46  1  0
 10 47  1  0
 12 48  1  0
 13 49  1  0
 16 50  1  0
 18 51  1  0
 20 52  1  0
 23 53  1  0
 24 54  1  0
 26 55  1  0
 27 56  1  0
 29 57  1  0
 29 58  1  0
 29 59  1  0
 30 60  1  0
 30 61  1  0
 31 62  1  0
 31 63  1  0
M  CHG  1  28   1
M  END
>  <smiles>  (28) 
CN1CCN(CCCCC=c2ccc3c(c2)c(=Cc2cc(Cl)ccc2O)[nH][n+]3C)CC1

>  <score_type>  (28) 
oracle

>  <origin>  (28) 
adg

>  <m_score__min__energy>  (28) 
-10.890000000000001

>  <m_primary>  (28) 
energy

$$$$
28:0
     RDKit          3D

 30 32  0  0  0  0  0  0  0  0999 V2000
   -9.5081   19.5591  -32.7007 H   0  0  0  0  0  0  0  0  0  0  0  0
   -8.6120   20.1330  -32.4220 C   0  0  0  0  0  0  0  0  0  0  0  0
   -7.3440   19.5620  -32.5660 C   0  0  0  0  0  0  0  0  0  0  0  0
   -7.2429   18.5391  -32.9578 H   0  0  0  0  0  0  0  0  0  0  0  0
   -6.2040   20.2910  -32.2120 C   0  0  0  0  0  0  0  0  0  0  0  0
   -5.2073   19.8398  -32.3263 H   0  0  0  0  0  0  0  0  0  0  0  0
   -6.3280   21.6000  -31.7100 C   0  0  0  0  0  0  0  0  0  0  0  0
   -5.1830   22.3760  -31.3380 N   0  0  0  0  0  0  0  0  0  0  0  0
   -5.1290   23.0240  -30.2460 N   0  0  0  0  0  0  0  0  0  0  0  0
   -3.8930   23.5030  -29.7070 C   0  0  0  0  0  0  0  0  0  0  0  0
   -3.3210   24.7300  -29.9870 C   0  0  0  0  0  0  0  0  0  0  0  0
   -3.8660   25.6830  -30.8370 O   0  0  0  0  0  0  0  0  0  0  0  0
   -2.1510   24.9050  -29.3310 N   0  0  0  0  0  0  0  0  0  0  0  0
   -1.9930   23.7640  -28.6290 C   0  0  0  0  0  0  0  0  0  0  0  0
   -0.9230   23.4540  -27.7920 C   0  0  0  0  0  0  0  0  0  0  0  0
   -0.0976   24.1655  -27.6423 H   0  0  0  0  0  0  0  0  0  0  0  0
   -0.9280   22.2060  -27.1440 C   0  0  0  0  0  0  0  0  0  0  0  0
   -0.0911   21.9316  -26.4850 H   0  0  0  0  0  0  0  0  0  0  0  0
   -1.9990   21.2990  -27.3310 C   0  0  0  0  0  0  0  0  0  0  0  0
   -1.9710   19.9560  -26.6640 C   0  0  0  0  0  0  0  0  0  0  0  0
   -1.9738   20.0888  -25.5720 H   0  0  0  0  0  0  0  0  0  0  0  0
   -2.8573   19.3784  -26.9654 H   0  0  0  0  0  0  0  0  0  0  0  0
   -1.0614   19.4158  -26.9654 H   0  0  0  0  0  0  0  0  0  0  0  0
   -3.0630   21.6340  -28.1980 C   0  0  0  0  0  0  0  0  0  0  0  0
   -3.8932   20.9337  -28.3721 H   0  0  0  0  0  0  0  0  0  0  0  0
   -3.0300   22.8810  -28.8280 C   0  0  0  0  0  0  0  0  0  0  0  0
   -7.6030   22.1630  -31.5690 C   0  0  0  0  0  0  0  0  0  0  0  0
   -7.7090   23.1852  -31.1768 H   0  0  0  0  0  0  0  0  0  0  0  0
   -8.7420   21.4330  -31.9240 C   0  0  0  0  0  0  0  0  0  0  0  0
   -9.7400   21.8816  -31.8114 H   0  0  0  0  0  0  0  0  0  0  0  0
  1  2  1  0
  2  3  2  0
  3  4  1  0
  3  5  1  0
  5  6  1  0
  5  7  2  0
  7  8  1  0
  8  9  2  0
  9 10  1  0
 10 11  2  0
 11 12  1  0
 11 13  1  0
 13 14  1  0
 14 15  2  0
 15 16  1  0
 15 17  1  0
 17 18  1  0
 17 19  2  0
 19 20  1  0
 20 21  1  0
 20 22  1  0
 20 23  1  0
 19 24  1  0
 24 25  1  0
 24 26  2  0
  7 27  1  0
 27 28  1  0
 27 29  2  0
 29 30  1  0
 29  2  1  0
 26 10  1  0
 26 14  1  0
M  CHG  2  12  -1  13  -1
M  END
>  <UniqueID>  (29) 
26

>  <SMILES>  (29) 
Cc1ccc2[n-]c([O-])c(/N=N/c3ccccc3)c2c1

>  <Energy>  (29) 
66.46823464465825

>  <Genealogy>  (29) 
Cc1ccc2[n-]c([O-])c(N=Nc3ccccc3)c2c1 (protonated)
Cc1ccc2[n-]c([O-])c(/N=N/c3ccccc3)c2c1 (cis-trans isomerization)
Cc1ccc2[n-]c([O-])c(/N=N/c3ccccc3)c2c1 (3D coordinates assigned)
Cc1ccc2[n-]c([O-])c(/N=N/c3ccccc3)c2c1 (optimized conformer: 66.46823464465825 kcal/mol)

>  <smiles>  (29) 
Cc1ccc2[nH]c(O)c(N=Nc3ccccc3)c2c1

>  <score_type>  (29) 
oracle

>  <origin>  (29) 
adg

>  <m_score__min__energy>  (29) 
-12.02

>  <m_primary>  (29) 
energy

$$$$
29:0
     RDKit          3D

 35 37  0  0  1  0  0  0  0  0999 V2000
   -1.9620   25.7190  -25.6950 C   0  0  0  0  0  0  0  0  0  0  0  0
   -2.0710   24.9780  -27.0070 C   0  0  0  0  0  0  0  0  0  0  0  0
   -6.3210   23.1310  -32.3840 N   0  0  0  0  0  0  0  0  0  0  0  0
   -5.0990   22.8590  -32.0620 C   0  0  0  0  0  0  0  0  0  0  0  0
   -2.9450   23.4190  -29.2100 C   0  0  0  0  0  0  0  0  0  0  0  0
   -3.3670   22.9940  -30.4600 C   0  0  0  0  0  0  0  0  0  0  0  0
   -2.5910   22.3370  -31.3200 N   0  0  0  0  0  0  0  0  0  0  0  0
   -5.5370   23.9590  -29.9730 C   0  0  0  0  0  0  0  0  0  0  0  0
   -5.1040   24.3630  -28.7580 N   0  0  0  0  0  0  0  0  0  0  0  0
   -3.8390   24.0970  -28.3910 C   0  0  0  0  0  0  0  0  0  0  0  0
   -3.4140   24.4790  -27.2330 N   0  0  0  0  0  0  0  0  0  0  0  0
   -7.2700   22.0560  -32.3250 C   0  0  0  0  0  0  0  0  0  0  0  0
   -8.5860   22.2670  -31.9640 C   0  0  0  0  0  0  0  0  0  0  0  0
   -9.4350   21.1740  -31.9310 C   0  0  0  0  0  0  0  0  0  0  0  0
   -8.9640   19.9180  -32.2530 C   0  0  0  0  0  0  0  0  0  0  0  0
   -9.7910   18.8530  -32.2220 F   0  0  0  0  0  0  0  0  0  0  0  0
   -7.6440   19.7140  -32.6130 C   0  0  0  0  0  0  0  0  0  0  0  0
   -7.0110   18.1330  -33.0280 Cl  0  0  0  0  0  0  0  0  0  0  0  0
   -6.7810   20.7970  -32.6500 C   0  0  0  0  0  0  0  0  0  0  0  0
   -4.6690   23.2740  -30.8250 C   0  0  0  0  0  0  0  0  0  0  0  0
   -3.0020   21.9260  -32.5340 C   0  0  0  0  0  0  0  0  0  0  0  0
   -4.2750   22.1950  -32.9000 N   0  0  0  0  0  0  0  0  0  0  0  0
   -2.0666   25.0078  -24.8624 H   0  0  0  0  0  0  0  0  0  0  0  0
   -0.9814   26.2137  -25.6336 H   0  0  0  0  0  0  0  0  0  0  0  0
   -2.7586   26.4751  -25.6336 H   0  0  0  0  0  0  0  0  0  0  0  0
   -1.8027   25.6619  -27.8257 H   0  0  0  0  0  0  0  0  0  0  0  0
   -1.3874   24.1169  -26.9715 H   0  0  0  0  0  0  0  0  0  0  0  0
   -1.9171   23.2223  -28.8714 H   0  0  0  0  0  0  0  0  0  0  0  0
   -6.5694   24.1692  -30.2892 H   0  0  0  0  0  0  0  0  0  0  0  0
   -5.7450   24.8760  -28.1160 H   0  0  0  0  0  0  0  0  0  0  0  0
   -8.9490   23.2738  -31.7101 H   0  0  0  0  0  0  0  0  0  0  0  0
  -10.4893   21.3076  -31.6469 H   0  0  0  0  0  0  0  0  0  0  0  0
   -5.7263   20.6623  -32.9320 H   0  0  0  0  0  0  0  0  0  0  0  0
   -2.3213   21.3866  -33.2090 H   0  0  0  0  0  0  0  0  0  0  0  0
   -4.6100   21.8810  -33.8430 H   0  0  0  0  0  0  0  0  0  0  0  0
  1  2  1  0
  2  3  1  0
  3  4  2  0
  4  5  1  0
  5  6  2  0
  6  7  1  0
  7  8  2  0
  8  9  1  0
  9 10  1  0
 10 11  2  0
 11 12  1  0
 12 13  2  0
 13 14  1  0
 14 15  2  0
 15 16  1  0
 15 17  1  0
 17 18  1  0
 17 19  2  0
 10 20  1  0
 20 21  2  0
 21 22  1  0
 22  4  1  0
 20  6  1  0
 19 12  1  0
  1 23  1  0
  1 24  1  0
  1 25  1  0
  2 26  1  0
  2 27  1  0
  5 28  1  0
  8 29  1  0
  9 30  1  0
 13 31  1  0
 14 32  1  0
 19 33  1  0
 21 34  1  0
 22 35  1  0
M  END
>  <smiles>  (30) 
CCN=c1cc2nc[nH]c(=Nc3ccc(F)c(Cl)c3)c2c[nH]1

>  <score_type>  (30) 
oracle

>  <origin>  (30) 
adg

>  <m_score__min__energy>  (30) 
-7.7000000000000002

>  <m_primary>  (30) 
energy

$$$$
30:0
     RDKit          3D

 30 33  0  0  0  0  0  0  0  0999 V2000
   -3.7000   24.8690  -30.7390 O   0  0  0  0  0  0  0  0  0  0  0  0
   -4.8390   24.3380  -30.8380 C   0  0  0  0  0  0  0  0  0  0  0  0
   -6.0080   25.0460  -30.2980 C   0  0  0  0  0  0  0  0  0  0  0  0
   -7.2350   24.5540  -30.4620 C   0  0  0  0  0  0  0  0  0  0  0  0
   -7.4560   23.2960  -31.1960 C   0  0  0  0  0  0  0  0  0  0  0  0
   -8.6270   23.0350  -31.5780 O   0  0  0  0  0  0  0  0  0  0  0  0
   -6.2930   22.4280  -31.5730 C   0  0  0  0  0  0  0  0  0  0  0  0
   -5.0070   23.0090  -31.4780 C   0  0  0  0  0  0  0  0  0  0  0  0
   -3.8950   22.3280  -31.9750 C   0  0  0  0  0  0  0  0  0  0  0  0
   -4.0300   21.0790  -32.5650 C   0  0  0  0  0  0  0  0  0  0  0  0
   -5.2810   20.4290  -32.6250 C   0  0  0  0  0  0  0  0  0  0  0  0
   -6.4180   21.0880  -32.0590 C   0  0  0  0  0  0  0  0  0  0  0  0
   -7.6240   20.3690  -31.9430 C   0  0  0  0  0  0  0  0  0  0  0  0
   -7.7540   19.0870  -32.4560 C   0  0  0  0  0  0  0  0  0  0  0  0
   -6.6850   18.4650  -33.0990 C   0  0  0  0  0  0  0  0  0  0  0  0
   -6.8580   17.1780  -33.6340 C   0  0  0  0  0  0  0  0  0  0  0  0
   -5.8060   16.5360  -34.2820 C   0  0  0  0  0  0  0  0  0  0  0  0
   -4.5740   17.1730  -34.4060 C   0  0  0  0  0  0  0  0  0  0  0  0
   -4.3830   18.4510  -33.8760 C   0  0  0  0  0  0  0  0  0  0  0  0
   -5.4300   19.1250  -33.1980 C   0  0  0  0  0  0  0  0  0  0  0  0
   -5.8685   25.9913  -29.7531 H   0  0  0  0  0  0  0  0  0  0  0  0
   -8.0961   25.0952  -30.0430 H   0  0  0  0  0  0  0  0  0  0  0  0
   -2.8984   22.7871  -31.8982 H   0  0  0  0  0  0  0  0  0  0  0  0
   -3.1449   20.5864  -32.9940 H   0  0  0  0  0  0  0  0  0  0  0  0
   -8.4812   20.8345  -31.4345 H   0  0  0  0  0  0  0  0  0  0  0  0
   -8.7115   18.5551  -32.3543 H   0  0  0  0  0  0  0  0  0  0  0  0
   -7.8311   16.6738  -33.5405 H   0  0  0  0  0  0  0  0  0  0  0  0
   -5.9480   15.5266  -34.6956 H   0  0  0  0  0  0  0  0  0  0  0  0
   -3.7464   16.6667  -34.9244 H   0  0  0  0  0  0  0  0  0  0  0  0
   -3.4050   18.9423  -33.9863 H   0  0  0  0  0  0  0  0  0  0  0  0
  1  2  2  0
  2  3  1  0
  3  4  2  0
  4  5  1  0
  5  6  2  0
  5  7  1  0
  7  8  2  0
  8  9  1  0
  9 10  2  0
 10 11  1  0
 11 12  2  0
 12 13  1  0
 13 14  2  0
 14 15  1  0
 15 16  2  0
 16 17  1  0
 17 18  2  0
 18 19  1  0
 19 20  2  0
  8  2  1  0
 20 11  1  0
 12  7  1  0
 20 15  1  0
  3 21  1  0
  4 22  1  0
  9 23  1  0
 10 24  1  0
 13 25  1  0
 14 26  1  0
 16 27  1  0
 17 28  1  0
 18 29  1  0
 19 30  1  0
M  END
>  <UniqueID>  (31) 
27

>  <SMILES>  (31) 
O=C1C=CC(=O)c2c1ccc1c2ccc2ccccc21

>  <Energy>  (31) 
56.35930255498161

>  <Genealogy>  (31) 
O=C1C=CC(=O)c2c1ccc1c2ccc2ccccc21 (3D coordinates assigned)
O=C1C=CC(=O)c2c1ccc1c2ccc2ccccc21 (nonaromatic ring conformer: 56.35930255498161 kcal/mol)

>  <smiles>  (31) 
O=C1C=CC(=O)c2c1ccc1c2ccc2ccccc21

>  <score_type>  (31) 
oracle

>  <origin>  (31) 
adg

>  <m_score__min__energy>  (31) 
-9.6199999999999992

>  <m_primary>  (31) 
energy

$$$$
31:0
     RDKit          3D

 58 61  0  0  0  0  0  0  0  0999 V2000
    0.6080   17.1810  -30.0530 C   0  0  0  0  0  0  0  0  0  0  0  0
    0.4380   17.1500  -31.4640 O   0  0  0  0  0  0  0  0  0  0  0  0
   -0.3620   18.0480  -32.1850 C   0  0  0  0  0  0  0  0  0  0  0  0
    0.0390   19.3660  -32.4540 C   0  0  0  0  0  0  0  0  0  0  0  0
   -0.7910   20.2130  -33.1860 C   0  0  0  0  0  0  0  0  0  0  0  0
   -2.0390   19.7700  -33.6270 C   0  0  0  0  0  0  0  0  0  0  0  0
   -2.4840   18.4550  -33.3560 C   0  0  0  0  0  0  0  0  0  0  0  0
   -3.8140   18.0050  -33.7660 N   0  0  0  0  0  0  0  0  0  0  0  0
   -4.7470   18.9810  -34.3640 C   0  0  0  0  0  0  0  0  0  0  0  0
   -6.0930   18.3870  -34.7640 C   0  0  0  0  0  0  0  0  0  0  0  0
   -6.5880   17.4140  -33.7850 N   0  0  0  0  0  0  0  0  0  0  0  0
   -6.9630   18.1100  -32.2120 S   0  0  0  0  0  0  0  0  0  0  0  0
   -8.4450   18.3360  -32.0940 O   0  0  0  0  0  0  0  0  0  0  0  0
   -6.5690   17.1220  -31.1490 O   0  0  0  0  0  0  0  0  0  0  0  0
   -6.1230   19.6290  -31.8750 C   0  0  0  0  0  0  0  0  0  0  0  0
   -6.6850   20.8440  -32.2830 C   0  0  0  0  0  0  0  0  0  0  0  0
   -6.0660   22.0520  -31.9570 C   0  0  0  0  0  0  0  0  0  0  0  0
   -4.8630   22.0660  -31.2280 C   0  0  0  0  0  0  0  0  0  0  0  0
   -4.2360   20.8420  -30.9310 C   0  0  0  0  0  0  0  0  0  0  0  0
   -4.8760   19.6310  -31.2330 C   0  0  0  0  0  0  0  0  0  0  0  0
   -2.8890   20.8420  -30.2650 C   0  0  0  0  0  0  0  0  0  0  0  0
   -2.0800   22.0490  -30.7410 C   0  0  0  0  0  0  0  0  0  0  0  0
   -2.8220   23.3530  -30.4220 C   0  0  0  0  0  0  0  0  0  0  0  0
   -4.2350   23.3140  -30.8380 N   0  0  0  0  0  0  0  0  0  0  0  0
   -5.0110   24.5030  -30.5920 C   0  0  0  0  0  0  0  0  0  0  0  0
   -6.3780   24.4270  -29.9830 C   0  0  0  0  0  0  0  0  0  0  0  0
   -4.5190   25.6350  -30.8450 O   0  0  0  0  0  0  0  0  0  0  0  0
   -5.6930   16.2500  -33.7150 C   0  0  0  0  0  0  0  0  0  0  0  0
   -4.1990   16.5970  -33.5200 C   0  0  0  0  0  0  0  0  0  0  0  0
   -1.6040   17.6000  -32.6490 C   0  0  0  0  0  0  0  0  0  0  0  0
   -0.3609   17.0043  -29.5630 H   0  0  0  0  0  0  0  0  0  0  0  0
    1.3193   16.3978  -29.7521 H   0  0  0  0  0  0  0  0  0  0  0  0
    0.9971   18.1649  -29.7521 H   0  0  0  0  0  0  0  0  0  0  0  0
    1.0095   19.7307  -32.0866 H   0  0  0  0  0  0  0  0  0  0  0  0
   -0.4608   21.2364  -33.4175 H   0  0  0  0  0  0  0  0  0  0  0  0
   -2.6868   20.4545  -34.1943 H   0  0  0  0  0  0  0  0  0  0  0  0
   -4.9262   19.7819  -33.6316 H   0  0  0  0  0  0  0  0  0  0  0  0
   -4.2746   19.3490  -35.2867 H   0  0  0  0  0  0  0  0  0  0  0  0
   -6.8262   19.2021  -34.8536 H   0  0  0  0  0  0  0  0  0  0  0  0
   -5.9563   17.8607  -35.7202 H   0  0  0  0  0  0  0  0  0  0  0  0
   -7.5030   17.0640  -34.1550 H   0  0  0  0  0  0  0  0  0  0  0  0
   -7.6193   20.8471  -32.8636 H   0  0  0  0  0  0  0  0  0  0  0  0
   -6.5230   23.0014  -32.2730 H   0  0  0  0  0  0  0  0  0  0  0  0
   -4.3973   18.6776  -30.9649 H   0  0  0  0  0  0  0  0  0  0  0  0
   -3.0202   20.8966  -29.1742 H   0  0  0  0  0  0  0  0  0  0  0  0
   -2.3530   19.9176  -30.5262 H   0  0  0  0  0  0  0  0  0  0  0  0
   -1.1044   22.0540  -30.2328 H   0  0  0  0  0  0  0  0  0  0  0  0
   -1.9402   21.9765  -31.8297 H   0  0  0  0  0  0  0  0  0  0  0  0
   -2.7784   23.5274  -29.3368 H   0  0  0  0  0  0  0  0  0  0  0  0
   -2.3309   24.1627  -30.9816 H   0  0  0  0  0  0  0  0  0  0  0  0
   -6.2917   24.4318  -28.8864 H   0  0  0  0  0  0  0  0  0  0  0  0
   -6.9728   25.2935  -30.3078 H   0  0  0  0  0  0  0  0  0  0  0  0
   -6.8731   23.4999  -30.3078 H   0  0  0  0  0  0  0  0  0  0  0  0
   -6.0124   15.6221  -32.8702 H   0  0  0  0  0  0  0  0  0  0  0  0
   -5.7700   15.7390  -34.6861 H   0  0  0  0  0  0  0  0  0  0  0  0
   -3.9314   16.3532  -32.4813 H   0  0  0  0  0  0  0  0  0  0  0  0
   -3.6606   16.0095  -34.2783 H   0  0  0  0  0  0  0  0  0  0  0  0
   -1.9038   16.5587  -32.4600 H   0  0  0  0  0  0  0  0  0  0  0  0
  1  2  1  0
  2  3  1  0
  3  4  2  0
  4  5  1  0
  5  6  2  0
  6  7  1  0
  7  8  1  0
  8  9  1  0
  9 10  1  0
 10 11  1  0
 11 12  1  0
 12 13  2  0
 12 14  2  0
 12 15  1  0
 15 16  2  0
 16 17  1  0
 17 18  2  0
 18 19  1  0
 19 20  2  0
 19 21  1  0
 21 22  1  0
 22 23  1  0
 23 24  1  0
 24 25  1  0
 25 26  1  0
 25 27  2  0
 11 28  1  0
 28 29  1  0
  7 30  2  0
 30  3  1  0
 29  8  1  0
 20 15  1  0
 24 18  1  0
  1 31  1  0
  1 32  1  0
  1 33  1  0
  4 34  1  0
  5 35  1  0
  6 36  1  0
  9 37  1  0
  9 38  1  0
 10 39  1  0
 10 40  1  0
 11 41  1  0
 16 42  1  0
 17 43  1  0
 20 44  1  0
 21 45  1  0
 21 46  1  0
 22 47  1  0
 22 48  1  0
 23 49  1  0
 23 50  1  0
 26 51  1  0
 26 52  1  0
 26 53  1  0
 28 54  1  0
 28 55  1  0
 29 56  1  0
 29 57  1  0
 30 58  1  0
M  CHG  1  11   1
M  END
>  <UniqueID>  (32) 
28

>  <SMILES>  (32) 
COc1cccc(N2CC[NH+](S(=O)(=O)c3ccc4c(c3)CCCN4C(C)=O)CC2)c1

>  <Energy>  (32) 
71.94318381800028

>  <Genealogy>  (32) 
COc1cccc(N2CC[NH+](S(=O)(=O)c3ccc4c(c3)CCCN4C(C)=O)CC2)c1 (protonated)
COc1cccc(N2CC[NH+](S(=O)(=O)c3ccc4c(c3)CCCN4C(C)=O)CC2)c1 (3D coordinates assigned)
COc1cccc(N2CC[NH+](S(=O)(=O)c3ccc4c(c3)CCCN4C(C)=O)CC2)c1 (nonaromatic ring conformer: 71.94318381800028 kcal/mol)

>  <smiles>  (32) 
COc1cccc(N2CCN(S(=O)(=O)c3ccc4c(c3)CCCN4C(C)=O)CC2)c1

>  <score_type>  (32) 
oracle

>  <origin>  (32) 
adg

>  <m_score__min__energy>  (32) 
-9.5399999999999991

>  <m_primary>  (32) 
energy

$$$$
32:0
     RDKit          3D

 47 50  0  0  0  0  0  0  0  0999 V2000
    0.2020   21.3930  -33.7180 O   0  0  0  0  0  0  0  0  0  0  0  0
   -0.7940   21.3420  -32.9500 C   0  0  0  0  0  0  0  0  0  0  0  0
   -2.0830   21.4950  -33.4630 C   0  0  0  0  0  0  0  0  0  0  0  0
   -3.1690   21.4380  -32.5780 C   0  0  0  0  0  0  0  0  0  0  0  0
   -4.5740   21.6360  -33.0870 C   0  0  0  0  0  0  0  0  0  0  0  0
   -5.3610   20.3410  -33.0370 C   0  0  0  0  0  0  0  0  0  0  0  0
   -4.7050   19.1530  -33.4080 C   0  0  0  0  0  0  0  0  0  0  0  0
   -5.3820   17.9350  -33.4230 C   0  0  0  0  0  0  0  0  0  0  0  0
   -6.7290   17.8750  -33.0780 C   0  0  0  0  0  0  0  0  0  0  0  0
   -7.4170   19.0390  -32.7090 C   0  0  0  0  0  0  0  0  0  0  0  0
   -8.7790   18.9690  -32.3740 C   0  0  0  0  0  0  0  0  0  0  0  0
   -9.4740   20.1220  -32.0090 C   0  0  0  0  0  0  0  0  0  0  0  0
   -8.8190   21.3520  -31.9740 C   0  0  0  0  0  0  0  0  0  0  0  0
   -7.4640   21.4390  -32.3020 C   0  0  0  0  0  0  0  0  0  0  0  0
   -6.7390   20.2890  -32.6820 C   0  0  0  0  0  0  0  0  0  0  0  0
   -2.9410   21.2020  -31.2530 N   0  0  0  0  0  0  0  0  0  0  0  0
   -1.6730   21.0750  -30.7740 C   0  0  0  0  0  0  0  0  0  0  0  0
   -1.3930   20.8280  -29.0210 S   0  0  0  0  0  0  0  0  0  0  0  0
   -2.8760   21.7630  -28.4910 C   0  0  0  0  0  0  0  0  0  0  0  0
   -2.8240   23.2390  -28.9070 C   0  0  0  0  0  0  0  0  0  0  0  0
   -4.1250   23.6980  -29.5140 C   0  0  0  0  0  0  0  0  0  0  0  0
   -4.1750   24.8870  -30.2610 C   0  0  0  0  0  0  0  0  0  0  0  0
   -5.3770   25.3030  -30.8430 C   0  0  0  0  0  0  0  0  0  0  0  0
   -6.5330   24.5340  -30.6890 C   0  0  0  0  0  0  0  0  0  0  0  0
   -6.4890   23.3460  -29.9520 C   0  0  0  0  0  0  0  0  0  0  0  0
   -5.2900   22.9270  -29.3670 C   0  0  0  0  0  0  0  0  0  0  0  0
   -0.6140   21.1410  -31.6210 N   0  0  0  0  0  0  0  0  0  0  0  0
   -2.2435   21.6569  -34.5391 H   0  0  0  0  0  0  0  0  0  0  0  0
   -5.0794   22.3877  -32.4630 H   0  0  0  0  0  0  0  0  0  0  0  0
   -4.5222   21.9728  -34.1329 H   0  0  0  0  0  0  0  0  0  0  0  0
   -3.6424   19.1860  -33.6903 H   0  0  0  0  0  0  0  0  0  0  0  0
   -4.8490   17.0162  -33.7090 H   0  0  0  0  0  0  0  0  0  0  0  0
   -7.2560   16.9096  -33.0950 H   0  0  0  0  0  0  0  0  0  0  0  0
   -9.3001   18.0006  -32.3996 H   0  0  0  0  0  0  0  0  0  0  0  0
  -10.5409   20.0605  -31.7483 H   0  0  0  0  0  0  0  0  0  0  0  0
   -9.3719   22.2585  -31.6867 H   0  0  0  0  0  0  0  0  0  0  0  0
   -6.9565   22.4142  -32.2638 H   0  0  0  0  0  0  0  0  0  0  0  0
   -3.7410   21.1320  -30.5860 H   0  0  0  0  0  0  0  0  0  0  0  0
   -3.7648   21.3003  -28.9449 H   0  0  0  0  0  0  0  0  0  0  0  0
   -2.9162   21.7282  -27.3923 H   0  0  0  0  0  0  0  0  0  0  0  0
   -2.6104   23.8515  -28.0187 H   0  0  0  0  0  0  0  0  0  0  0  0
   -2.0354   23.3518  -29.6655 H   0  0  0  0  0  0  0  0  0  0  0  0
   -3.2657   25.4928  -30.3886 H   0  0  0  0  0  0  0  0  0  0  0  0
   -5.4120   26.2371  -31.4228 H   0  0  0  0  0  0  0  0  0  0  0  0
   -7.4775   24.8626  -31.1472 H   0  0  0  0  0  0  0  0  0  0  0  0
   -7.3993   22.7402  -29.8324 H   0  0  0  0  0  0  0  0  0  0  0  0
   -5.2590   21.9910  -28.7900 H   0  0  0  0  0  0  0  0  0  0  0  0
  1  2  2  0
  2  3  1  0
  3  4  2  0
  4  5  1  0
  5  6  1  0
  6  7  2  0
  7  8  1  0
  8  9  2  0
  9 10  1  0
 10 11  2  0
 11 12  1  0
 12 13  2  0
 13 14  1  0
 14 15  2  0
  4 16  1  0
 16 17  1  0
 17 18  1  0
 18 19  1  0
 19 20  1  0
 20 21  1  0
 21 22  2  0
 22 23  1  0
 23 24  2  0
 24 25  1  0
 25 26  2  0
 17 27  2  0
 27  2  1  0
 15  6  1  0
 26 21  1  0
 15 10  1  0
  3 28  1  0
  5 29  1  0
  5 30  1  0
  7 31  1  0
  8 32  1  0
  9 33  1  0
 11 34  1  0
 12 35  1  0
 13 36  1  0
 14 37  1  0
 16 38  1  0
 19 39  1  0
 19 40  1  0
 20 41  1  0
 20 42  1  0
 22 43  1  0
 23 44  1  0
 24 45  1  0
 25 46  1  0
 26 47  1  0
M  END
>  <UniqueID>  (33) 
29

>  <SMILES>  (33) 
O=c1cc(Cc2cccc3ccccc23)[nH]c(SCCc2ccccc2)n1

>  <Energy>  (33) 
50.156392886808746

>  <Genealogy>  (33) 
O=c1cc(Cc2cccc3ccccc23)[nH]c(SCCc2ccccc2)n1 (3D coordinates assigned)
O=c1cc(Cc2cccc3ccccc23)[nH]c(SCCc2ccccc2)n1 (optimized conformer: 50.156392886808746 kcal/mol)

>  <smiles>  (33) 
O=c1cc(Cc2cccc3ccccc23)[nH]c(SCCc2ccccc2)n1

>  <score_type>  (33) 
oracle

>  <origin>  (33) 
adg

>  <m_score__min__energy>  (33) 
-9.2100000000000009

>  <m_primary>  (33) 
energy

$$$$
33:0
     RDKit          3D

 56 61  0  0  0  0  0  0  0  0999 V2000
   -6.9640   15.4740  -33.8380 O   0  0  0  0  0  0  0  0  0  0  0  0
   -6.7930   16.7000  -33.6060 C   0  0  0  0  0  0  0  0  0  0  0  0
   -7.6210   17.4780  -32.6320 C   0  0  0  0  0  0  0  0  0  0  0  0
   -6.9320   18.7990  -32.7050 C   0  0  0  0  0  0  0  0  0  0  0  0
   -7.2240   19.9510  -31.9770 C   0  0  0  0  0  0  0  0  0  0  0  0
   -6.4380   21.1040  -32.1800 C   0  0  0  0  0  0  0  0  0  0  0  0
   -6.6790   22.3100  -31.4350 N   0  0  0  0  0  0  0  0  0  0  0  0
   -5.6460   23.1400  -30.8770 C   0  0  0  0  0  0  0  0  0  0  0  0
   -5.8150   24.5490  -30.7640 C   0  0  0  0  0  0  0  0  0  0  0  0
   -4.7870   25.3560  -30.2400 C   0  0  0  0  0  0  0  0  0  0  0  0
   -3.6050   24.7300  -29.8550 C   0  0  0  0  0  0  0  0  0  0  0  0
   -2.5000   25.2950  -29.3410 N   0  0  0  0  0  0  0  0  0  0  0  0
   -1.6210   24.3180  -29.1360 N   0  0  0  0  0  0  0  0  0  0  0  0
   -2.1630   23.1380  -29.5190 C   0  0  0  0  0  0  0  0  0  0  0  0
   -3.4320   23.3840  -29.9800 C   0  0  0  0  0  0  0  0  0  0  0  0
   -4.4210   22.5510  -30.4940 C   0  0  0  0  0  0  0  0  0  0  0  0
   -5.3520   21.0530  -33.0820 C   0  0  0  0  0  0  0  0  0  0  0  0
   -5.0720   19.8840  -33.8050 C   0  0  0  0  0  0  0  0  0  0  0  0
   -5.8830   18.7620  -33.6030 C   0  0  0  0  0  0  0  0  0  0  0  0
   -5.7640   17.4850  -34.2240 N   0  0  0  0  0  0  0  0  0  0  0  0
   -4.6000   16.9800  -34.9740 C   0  0  2  0  0  0  0  0  0  0  0  0
   -4.2330   15.5520  -34.5630 C   0  0  0  0  0  0  0  0  0  0  0  0
   -2.8330   15.6440  -33.9670 C   0  0  0  0  0  0  0  0  0  0  0  0
   -2.6020   17.0610  -33.6780 N   0  0  0  0  0  0  0  0  0  0  0  0
   -1.1870   17.4570  -33.5080 C   0  0  0  0  0  0  0  0  0  0  0  0
   -0.9760   18.8760  -33.0190 C   0  0  0  0  0  0  0  0  0  0  0  0
   -0.7580   19.1350  -31.6550 C   0  0  0  0  0  0  0  0  0  0  0  0
   -0.5860   20.4460  -31.2030 C   0  0  0  0  0  0  0  0  0  0  0  0
   -0.6450   21.5110  -32.1040 C   0  0  0  0  0  0  0  0  0  0  0  0
   -0.8840   21.2670  -33.4590 C   0  0  0  0  0  0  0  0  0  0  0  0
   -1.0570   19.9570  -33.9150 C   0  0  0  0  0  0  0  0  0  0  0  0
   -3.3560   17.8140  -34.6800 C   0  0  0  0  0  0  0  0  0  0  0  0
   -8.6711   17.5469  -32.9522 H   0  0  0  0  0  0  0  0  0  0  0  0
   -7.6826   17.0422  -31.6239 H   0  0  0  0  0  0  0  0  0  0  0  0
   -8.0543   19.9607  -31.2556 H   0  0  0  0  0  0  0  0  0  0  0  0
   -7.6720   22.6040  -31.2900 H   0  0  0  0  0  0  0  0  0  0  0  0
   -6.7583   25.0120  -31.0894 H   0  0  0  0  0  0  0  0  0  0  0  0
   -4.9137   26.4439  -30.1384 H   0  0  0  0  0  0  0  0  0  0  0  0
   -1.6724   22.1547  -29.4694 H   0  0  0  0  0  0  0  0  0  0  0  0
   -4.2540   21.4688  -30.5986 H   0  0  0  0  0  0  0  0  0  0  0  0
   -4.7179   21.9413  -33.2191 H   0  0  0  0  0  0  0  0  0  0  0  0
   -4.2329   19.8502  -34.5155 H   0  0  0  0  0  0  0  0  0  0  0  0
   -4.8897   17.0280  -36.0341 H   0  0  0  0  0  0  0  0  0  0  0  0
   -4.9447   15.1729  -33.8148 H   0  0  0  0  0  0  0  0  0  0  0  0
   -4.2667   14.8609  -35.4181 H   0  0  0  0  0  0  0  0  0  0  0  0
   -2.7731   15.0519  -33.0419 H   0  0  0  0  0  0  0  0  0  0  0  0
   -2.0763   15.2487  -34.6606 H   0  0  0  0  0  0  0  0  0  0  0  0
   -0.7256   16.7728  -32.7807 H   0  0  0  0  0  0  0  0  0  0  0  0
   -0.7295   17.4036  -34.5069 H   0  0  0  0  0  0  0  0  0  0  0  0
   -0.7226   18.3007  -30.9389 H   0  0  0  0  0  0  0  0  0  0  0  0
   -0.4038   20.6393  -30.1356 H   0  0  0  0  0  0  0  0  0  0  0  0
   -0.5034   22.5419  -31.7473 H   0  0  0  0  0  0  0  0  0  0  0  0
   -0.9361   22.1068  -34.1676 H   0  0  0  0  0  0  0  0  0  0  0  0
   -1.2576   19.7706  -34.9804 H   0  0  0  0  0  0  0  0  0  0  0  0
   -3.6402   18.8004  -34.2847 H   0  0  0  0  0  0  0  0  0  0  0  0
   -2.7610   17.9894  -35.5884 H   0  0  0  0  0  0  0  0  0  0  0  0
  1  2  2  0
  2  3  1  0
  3  4  1  0
  4  5  2  0
  5  6  1  0
  6  7  1  0
  7  8  1  0
  8  9  2  0
  9 10  1  0
 10 11  2  0
 11 12  1  0
 12 13  1  0
 13 14  2  0
 14 15  1  0
 15 16  2  0
  6 17  2  0
 17 18  1  0
 18 19  2  0
 19 20  1  0
 20 21  1  0
 21 22  1  0
 22 23  1  0
 23 24  1  0
 24 25  1  0
 25 26  1  0
 26 27  2  0
 27 28  1  0
 28 29  2  0
 29 30  1  0
 30 31  2  0
 24 32  1  0
 20  2  1  0
 32 21  1  0
 19  4  1  0
 31 26  1  0
 16  8  1  0
 15 11  1  0
  3 33  1  0
  3 34  1  0
  5 35  1  0
  7 36  1  0
  9 37  1  0
 10 38  1  0
 14 39  1  0
 16 40  1  0
 17 41  1  0
 18 42  1  0
 21 43  1  6
 22 44  1  0
 22 45  1  0
 23 46  1  0
 23 47  1  0
 25 48  1  0
 25 49  1  0
 27 50  1  0
 28 51  1  0
 29 52  1  0
 30 53  1  0
 31 54  1  0
 32 55  1  0
 32 56  1  0
M  CHG  1  12  -1
M  END
>  <UniqueID>  (34) 
30

>  <SMILES>  (34) 
O=C1Cc2cc(Nc3ccc4[n-]ncc4c3)ccc2N1[C@@H]1CCN(Cc2ccccc2)C1

>  <Energy>  (34) 
135.30184938389044

>  <Genealogy>  (34) 
O=C1Cc2cc(Nc3ccc4[n-]ncc4c3)ccc2N1C1CCN(Cc2ccccc2)C1 (protonated)
O=C1Cc2cc(Nc3ccc4[n-]ncc4c3)ccc2N1[C@@H]1CCN(Cc2ccccc2)C1 (chirality)
O=C1Cc2cc(Nc3ccc4[n-]ncc4c3)ccc2N1[C@@H]1CCN(Cc2ccccc2)C1 (3D coordinates assigned)
O=C1Cc2cc(Nc3ccc4[n-]ncc4c3)ccc2N1[C@@H]1CCN(Cc2ccccc2)C1 (nonaromatic ring conformer: 135.30184938389044 kcal/mol)

>  <smiles>  (34) 
O=C1Cc2cc(Nc3ccc4[nH]ncc4c3)ccc2N1C1CCN(Cc2ccccc2)C1

>  <score_type>  (34) 
oracle

>  <origin>  (34) 
adg

>  <m_score__min__energy>  (34) 
-10.92

>  <m_primary>  (34) 
energy

$$$$
34:0
     RDKit          3D

 32 35  0  0  0  0  0  0  0  0999 V2000
   -2.0470   24.6580  -29.4430 N   0  0  0  0  0  0  0  0  0  0  0  0
   -3.2220   24.5410  -29.9720 C   0  0  0  0  0  0  0  0  0  0  0  0
   -4.0890   25.3900  -30.5430 N   0  0  0  0  0  0  0  0  0  0  0  0
   -5.1810   24.8490  -30.9520 N   0  0  0  0  0  0  0  0  0  0  0  0
   -5.5270   23.7100  -30.8950 C   0  0  0  0  0  0  0  0  0  0  0  0
   -6.7160   22.8820  -31.2940 C   0  0  0  0  0  0  0  0  0  0  0  0
   -7.9630   23.4510  -31.2480 C   0  0  0  0  0  0  0  0  0  0  0  0
   -9.0280   22.6330  -31.6310 C   0  0  0  0  0  0  0  0  0  0  0  0
   -8.7890   21.3250  -32.0290 C   0  0  0  0  0  0  0  0  0  0  0  0
   -9.6050   20.3280  -32.4430 N   0  0  0  0  0  0  0  0  0  0  0  0
   -8.8830   19.2240  -32.7230 C   0  0  0  0  0  0  0  0  0  0  0  0
   -7.5390   19.4950  -32.4860 C   0  0  0  0  0  0  0  0  0  0  0  0
   -6.4230   18.5730  -32.6630 C   0  0  0  0  0  0  0  0  0  0  0  0
   -6.4500   17.4300  -31.8610 C   0  0  0  0  0  0  0  0  0  0  0  0
   -5.4050   16.5270  -32.0000 C   0  0  0  0  0  0  0  0  0  0  0  0
   -4.4090   16.7230  -32.8570 N   0  0  0  0  0  0  0  0  0  0  0  0
   -4.3710   17.8270  -33.6410 C   0  0  0  0  0  0  0  0  0  0  0  0
   -5.3960   18.7680  -33.5420 C   0  0  0  0  0  0  0  0  0  0  0  0
   -7.5100   20.8070  -32.0570 C   0  0  0  0  0  0  0  0  0  0  0  0
   -6.4330   21.6120  -31.6760 C   0  0  0  0  0  0  0  0  0  0  0  0
   -4.0950   22.8910  -30.0650 S   0  0  0  0  0  0  0  0  0  0  0  0
   -1.1950   24.4940  -30.0010 H   0  0  0  0  0  0  0  0  0  0  0  0
   -3.8640   26.4170  -30.6350 H   0  0  0  0  0  0  0  0  0  0  0  0
   -8.1155   24.4922  -30.9277 H   0  0  0  0  0  0  0  0  0  0  0  0
  -10.0557   23.0250  -31.6173 H   0  0  0  0  0  0  0  0  0  0  0  0
  -10.6400   20.4310  -32.5250 H   0  0  0  0  0  0  0  0  0  0  0  0
   -9.2898   18.2664  -33.0801 H   0  0  0  0  0  0  0  0  0  0  0  0
   -7.2676   17.2522  -31.1469 H   0  0  0  0  0  0  0  0  0  0  0  0
   -5.4015   15.6186  -31.3797 H   0  0  0  0  0  0  0  0  0  0  0  0
   -3.5417   17.9797  -34.3474 H   0  0  0  0  0  0  0  0  0  0  0  0
   -5.3771   19.6688  -34.1731 H   0  0  0  0  0  0  0  0  0  0  0  0
   -5.4008   21.2320  -31.6856 H   0  0  0  0  0  0  0  0  0  0  0  0
  1  2  2  3
  2  3  1  0
  3  4  1  0
  4  5  2  0
  5  6  1  0
  6  7  2  0
  7  8  1  0
  8  9  2  0
  9 10  1  0
 10 11  1  0
 11 12  2  0
 12 13  1  0
 13 14  2  0
 14 15  1  0
 15 16  2  0
 16 17  1  0
 17 18  2  0
 12 19  1  0
 19 20  2  0
  5 21  1  0
 21  2  1  0
 20  6  1  0
 19  9  1  0
 18 13  1  0
  1 22  1  0
  3 23  1  0
  7 24  1  0
  8 25  1  0
 10 26  1  0
 11 27  1  0
 14 28  1  0
 15 29  1  0
 17 30  1  0
 18 31  1  0
 20 32  1  0
M  END
>  <smiles>  (35) 
N=c1[nH]nc(-c2ccc3[nH]cc(-c4ccncc4)c3c2)s1

>  <score_type>  (35) 
oracle

>  <origin>  (35) 
adg

>  <m_score__min__energy>  (35) 
-8.8100000000000005

>  <m_primary>  (35) 
energy

$$$$
35:0
     RDKit          3D

 31 32  0  0  0  0  0  0  0  0999 V2000
   -3.8590   25.3070  -30.3730 O   0  0  0  0  0  0  0  0  0  0  0  0
   -4.6590   24.4650  -30.8610 C   0  0  0  0  0  0  0  0  0  0  0  0
   -5.9600   24.7350  -31.0780 N   0  0  0  0  0  0  0  0  0  0  0  0
   -6.4460   23.5810  -31.5810 C   0  0  0  0  0  0  0  0  0  0  0  0
   -5.4340   22.6330  -31.6580 C   0  0  0  0  0  0  0  0  0  0  0  0
   -4.2990   23.2120  -31.2120 N   0  0  0  0  0  0  0  0  0  0  0  0
   -2.9790   22.6000  -31.0490 C   0  0  0  0  0  0  0  0  0  0  0  0
   -2.5610   22.6320  -29.5740 C   0  0  0  0  0  0  0  0  0  0  0  0
   -1.2090   23.3190  -29.3750 C   0  0  0  0  0  0  0  0  0  0  0  0
   -1.3990   24.9040  -28.5780 Cl  0  0  0  0  0  0  0  0  0  0  0  0
   -5.5250   21.2050  -32.1540 C   0  0  0  0  0  0  0  0  0  0  0  0
   -6.6680   20.3640  -31.5550 C   0  0  0  0  0  0  0  0  0  0  0  0
   -8.0600   20.8120  -32.0380 C   0  0  0  0  0  0  0  0  0  0  0  0
   -8.5250   22.1520  -31.4290 C   0  0  0  0  0  0  0  0  0  0  0  0
   -7.8670   23.4110  -32.0210 C   0  0  0  0  0  0  0  0  0  0  0  0
   -3.0171   21.5561  -31.3937 H   0  0  0  0  0  0  0  0  0  0  0  0
   -2.2451   23.1642  -31.6432 H   0  0  0  0  0  0  0  0  0  0  0  0
   -3.3244   23.1782  -29.0006 H   0  0  0  0  0  0  0  0  0  0  0  0
   -2.4681   21.5929  -29.2252 H   0  0  0  0  0  0  0  0  0  0  0  0
   -0.5697   22.6780  -28.7502 H   0  0  0  0  0  0  0  0  0  0  0  0
   -0.7520   23.4793  -30.3627 H   0  0  0  0  0  0  0  0  0  0  0  0
   -5.6619   21.2338  -33.2451 H   0  0  0  0  0  0  0  0  0  0  0  0
   -4.5927   20.7158  -31.8355 H   0  0  0  0  0  0  0  0  0  0  0  0
   -6.5183   19.3130  -31.8430 H   0  0  0  0  0  0  0  0  0  0  0  0
   -6.6389   20.4982  -30.4636 H   0  0  0  0  0  0  0  0  0  0  0  0
   -8.0302   20.9193  -33.1323 H   0  0  0  0  0  0  0  0  0  0  0  0
   -8.7767   20.0440  -31.7117 H   0  0  0  0  0  0  0  0  0  0  0  0
   -9.6115   22.2343  -31.5799 H   0  0  0  0  0  0  0  0  0  0  0  0
   -8.2260   22.1234  -30.3708 H   0  0  0  0  0  0  0  0  0  0  0  0
   -7.8893   23.3370  -33.1183 H   0  0  0  0  0  0  0  0  0  0  0  0
   -8.4331   24.2826  -31.6608 H   0  0  0  0  0  0  0  0  0  0  0  0
  1  2  2  0
  2  3  1  0
  3  4  1  0
  4  5  2  0
  5  6  1  0
  6  7  1  0
  7  8  1  0
  8  9  1  0
  9 10  1  0
  5 11  1  0
 11 12  1  0
 12 13  1  0
 13 14  1  0
 14 15  1  0
  6  2  1  0
 15  4  1  0
  7 16  1  0
  7 17  1  0
  8 18  1  0
  8 19  1  0
  9 20  1  0
  9 21  1  0
 11 22  1  0
 11 23  1  0
 12 24  1  0
 12 25  1  0
 13 26  1  0
 13 27  1  0
 14 28  1  0
 14 29  1  0
 15 30  1  0
 15 31  1  0
M  CHG  1   3  -1
M  END
>  <UniqueID>  (36) 
31

>  <SMILES>  (36) 
O=c1[n-]c2c(n1CCCCl)CCCCC2

>  <Energy>  (36) 
59.452553547005124

>  <Genealogy>  (36) 
O=c1[n-]c2c(n1CCCCl)CCCCC2 (protonated)
O=c1[n-]c2c(n1CCCCl)CCCCC2 (3D coordinates assigned)
O=c1[n-]c2c(n1CCCCl)CCCCC2 (nonaromatic ring conformer: 59.452553547005124 kcal/mol)

>  <smiles>  (36) 
O=c1[nH]c2c(n1CCCCl)CCCCC2

>  <score_type>  (36) 
oracle

>  <origin>  (36) 
adg

>  <m_score__min__energy>  (36) 
-5.3200000000000003

>  <m_primary>  (36) 
energy

$$$$
36:0
     RDKit          3D

 39 43  0  0  0  0  0  0  0  0999 V2000
    0.7940   23.7900  -28.5800 O   0  0  0  0  0  0  0  0  0  0  0  0
   -0.3750   23.3770  -28.8090 C   0  0  0  0  0  0  0  0  0  0  0  0
   -1.3520   24.2930  -29.2910 N   0  0  0  0  0  0  0  0  0  0  0  0
   -2.6050   23.9810  -29.4120 C   0  0  0  0  0  0  0  0  0  0  0  0
   -3.4530   24.9220  -29.9170 N   0  0  0  0  0  0  0  0  0  0  0  0
   -4.7700   24.6530  -30.0430 C   0  0  0  0  0  0  0  0  0  0  0  0
   -5.9560   25.6680  -30.6530 S   0  0  0  0  0  0  0  0  0  0  0  0
   -7.2070   24.5430  -30.4580 C   0  0  0  0  0  0  0  0  0  0  0  0
   -6.6890   23.3670  -29.9130 C   0  0  0  0  0  0  0  0  0  0  0  0
   -5.3110   23.4460  -29.6820 C   0  0  0  0  0  0  0  0  0  0  0  0
   -4.4940   22.4500  -29.1560 C   0  0  0  0  0  0  0  0  0  0  0  0
   -3.1010   22.7000  -28.9940 C   0  0  0  0  0  0  0  0  0  0  0  0
   -2.2490   21.7680  -28.4620 C   0  0  0  0  0  0  0  0  0  0  0  0
   -2.7620   20.4430  -27.8970 C   0  0  0  0  0  0  0  0  0  0  0  0
   -1.8890   19.8880  -26.7680 C   0  0  0  0  0  0  0  0  0  0  0  0
   -0.4120   19.8960  -27.1360 C   0  0  0  0  0  0  0  0  0  0  0  0
    0.0310   21.3240  -27.4500 C   0  0  0  0  0  0  0  0  0  0  0  0
   -0.7250   21.9110  -28.6730 C   0  0  2  0  0  0  0  0  0  0  0  0
   -0.3050   21.2030  -29.9650 C   0  0  0  0  0  0  0  0  0  0  0  0
   -0.8580   21.5630  -31.2120 C   0  0  0  0  0  0  0  0  0  0  0  0
   -0.4590   20.8910  -32.3670 C   0  0  0  0  0  0  0  0  0  0  0  0
    0.4790   19.8620  -32.2850 C   0  0  0  0  0  0  0  0  0  0  0  0
    1.0040   19.5170  -31.0400 C   0  0  0  0  0  0  0  0  0  0  0  0
    0.6030   20.1850  -29.9250 N   0  0  0  0  0  0  0  0  0  0  0  0
   -8.2619   24.7125  -30.7197 H   0  0  0  0  0  0  0  0  0  0  0  0
   -7.2962   22.4773  -29.6899 H   0  0  0  0  0  0  0  0  0  0  0  0
   -4.9202   21.4778  -28.8677 H   0  0  0  0  0  0  0  0  0  0  0  0
   -3.7787   20.5997  -27.5074 H   0  0  0  0  0  0  0  0  0  0  0  0
   -2.7408   19.7092  -28.7162 H   0  0  0  0  0  0  0  0  0  0  0  0
   -2.0349   20.5054  -25.8694 H   0  0  0  0  0  0  0  0  0  0  0  0
   -2.1893   18.8455  -26.5861 H   0  0  0  0  0  0  0  0  0  0  0  0
    0.1774   19.5071  -26.2926 H   0  0  0  0  0  0  0  0  0  0  0  0
   -0.2528   19.2617  -28.0205 H   0  0  0  0  0  0  0  0  0  0  0  0
   -0.1657   21.9580  -26.5729 H   0  0  0  0  0  0  0  0  0  0  0  0
    1.1039   21.3019  -27.6918 H   0  0  0  0  0  0  0  0  0  0  0  0
   -1.6016   22.3713  -31.2730 H   0  0  0  0  0  0  0  0  0  0  0  0
   -0.8837   21.1723  -33.3419 H   0  0  0  0  0  0  0  0  0  0  0  0
    0.8009   19.3289  -33.1917 H   0  0  0  0  0  0  0  0  0  0  0  0
    1.7419   18.7052  -30.9597 H   0  0  0  0  0  0  0  0  0  0  0  0
  1  2  2  0
  2  3  1  0
  3  4  2  0
  4  5  1  0
  5  6  2  0
  6  7  1  0
  7  8  1  0
  8  9  2  0
  9 10  1  0
 10 11  2  0
 11 12  1  0
 12 13  2  0
 13 14  1  0
 14 15  1  0
 15 16  1  0
 16 17  1  0
 17 18  1  0
 18 19  1  6
 19 20  2  0
 20 21  1  0
 21 22  2  0
 22 23  1  0
 23 24  2  0
 18  2  1  0
 24 19  1  0
 12  4  1  0
 18 13  1  0
 10  6  1  0
  8 25  1  0
  9 26  1  0
 11 27  1  0
 14 28  1  0
 14 29  1  0
 15 30  1  0
 15 31  1  0
 16 32  1  0
 16 33  1  0
 17 34  1  0
 17 35  1  0
 20 36  1  0
 21 37  1  0
 22 38  1  0
 23 39  1  0
M  END
>  <UniqueID>  (37) 
32

>  <SMILES>  (37) 
O=C1N=c2nc3sccc3cc2=C2CCCC[C@]12c1ccccn1

>  <Energy>  (37) 
90.27458202243898

>  <Genealogy>  (37) 
O=C1N=c2nc3sccc3cc2=C2CCCC[C@]12c1ccccn1 (chirality)
O=C1N=c2nc3sccc3cc2=C2CCCC[C@]12c1ccccn1 (3D coordinates assigned)
O=C1N=c2nc3sccc3cc2=C2CCCC[C@]12c1ccccn1 (nonaromatic ring conformer: 90.27458202243898 kcal/mol)

>  <smiles>  (37) 
O=C1N=c2nc3sccc3cc2=C2CCCCC12c1ccccn1

>  <score_type>  (37) 
oracle

>  <origin>  (37) 
adg

>  <m_score__min__energy>  (37) 
-7.8899999999999997

>  <m_primary>  (37) 
energy

$$$$
37:0
     RDKit          3D

 45 46  0  0  0  0  0  0  0  0999 V2000
   -8.7690   18.5970  -31.8730 C   0  0  0  0  0  0  0  0  0  0  0  0
   -7.4440   18.8830  -32.5150 C   0  0  0  0  0  0  0  0  0  0  0  0
   -6.8420   17.9330  -33.3540 C   0  0  0  0  0  0  0  0  0  0  0  0
   -5.6400   18.2280  -34.0020 C   0  0  0  0  0  0  0  0  0  0  0  0
   -5.0350   19.4740  -33.8230 C   0  0  0  0  0  0  0  0  0  0  0  0
   -5.6220   20.4360  -32.9870 C   0  0  0  0  0  0  0  0  0  0  0  0
   -5.0190   21.7340  -32.8700 N   0  0  0  0  0  0  0  0  0  0  0  0
   -4.5060   22.2620  -31.6390 C   0  0  0  0  0  0  0  0  0  0  0  0
   -3.4730   21.3460  -30.7470 S   0  0  0  0  0  0  0  0  0  0  0  0
   -4.8750   23.5960  -31.2180 N   0  0  0  0  0  0  0  0  0  0  0  0
   -3.9380   24.4480  -30.4660 C   0  0  0  0  0  0  0  0  0  0  0  0
   -3.9770   24.1490  -28.9590 C   0  0  0  0  0  0  0  0  0  0  0  0
   -2.7460   24.6060  -28.2770 N   0  0  0  0  0  0  0  0  0  0  0  0
   -1.6330   23.6870  -28.5670 C   0  0  0  0  0  0  0  0  0  0  0  0
   -2.9430   24.6660  -26.8160 C   0  0  0  0  0  0  0  0  0  0  0  0
   -6.1420   24.1810  -31.6870 C   0  0  0  0  0  0  0  0  0  0  0  0
   -7.3010   23.2810  -31.3680 C   0  0  0  0  0  0  0  0  0  0  0  0
   -7.4650   22.5500  -30.1990 C   0  0  0  0  0  0  0  0  0  0  0  0
   -8.6750   21.8440  -30.1560 C   0  0  0  0  0  0  0  0  0  0  0  0
   -9.4610   22.0160  -31.2880 C   0  0  0  0  0  0  0  0  0  0  0  0
   -8.6520   23.0480  -32.3390 S   0  0  0  0  0  0  0  0  0  0  0  0
   -6.8380   20.1360  -32.3450 C   0  0  0  0  0  0  0  0  0  0  0  0
   -8.6590   18.6207  -30.7788 H   0  0  0  0  0  0  0  0  0  0  0  0
   -9.4994   19.3582  -32.1847 H   0  0  0  0  0  0  0  0  0  0  0  0
   -9.1204   17.6023  -32.1847 H   0  0  0  0  0  0  0  0  0  0  0  0
   -7.3182   16.9525  -33.5020 H   0  0  0  0  0  0  0  0  0  0  0  0
   -5.1693   17.4777  -34.6543 H   0  0  0  0  0  0  0  0  0  0  0  0
   -4.0919   19.7028  -34.3409 H   0  0  0  0  0  0  0  0  0  0  0  0
   -4.9640   22.3410  -33.7190 H   0  0  0  0  0  0  0  0  0  0  0  0
   -2.9182   24.2699  -30.8379 H   0  0  0  0  0  0  0  0  0  0  0  0
   -4.2358   25.4965  -30.6140 H   0  0  0  0  0  0  0  0  0  0  0  0
   -4.8420   24.6642  -28.5159 H   0  0  0  0  0  0  0  0  0  0  0  0
   -4.0566   23.0597  -28.8281 H   0  0  0  0  0  0  0  0  0  0  0  0
   -1.1983   23.3280  -27.6225 H   0  0  0  0  0  0  0  0  0  0  0  0
   -2.0064   22.8306  -29.1476 H   0  0  0  0  0  0  0  0  0  0  0  0
   -0.8627   24.2157  -29.1476 H   0  0  0  0  0  0  0  0  0  0  0  0
   -2.0096   24.3817  -26.3082 H   0  0  0  0  0  0  0  0  0  0  0  0
   -3.2215   25.6897  -26.5253 H   0  0  0  0  0  0  0  0  0  0  0  0
   -3.7448   23.9713  -26.5253 H   0  0  0  0  0  0  0  0  0  0  0  0
   -6.2943   25.1522  -31.1934 H   0  0  0  0  0  0  0  0  0  0  0  0
   -6.0867   24.3077  -32.7783 H   0  0  0  0  0  0  0  0  0  0  0  0
   -6.7210   22.5273  -29.3891 H   0  0  0  0  0  0  0  0  0  0  0  0
   -8.9739   21.2132  -29.3059 H   0  0  0  0  0  0  0  0  0  0  0  0
  -10.4441   21.5558  -31.4660 H   0  0  0  0  0  0  0  0  0  0  0  0
   -7.3171   20.8910  -31.7044 H   0  0  0  0  0  0  0  0  0  0  0  0
  1  2  1  0
  2  3  2  0
  3  4  1  0
  4  5  2  0
  5  6  1  0
  6  7  1  0
  7  8  1  0
  8  9  2  0
  8 10  1  0
 10 11  1  0
 11 12  1  0
 12 13  1  0
 13 14  1  0
 13 15  1  0
 10 16  1  0
 16 17  1  0
 17 18  2  0
 18 19  1  0
 19 20  2  0
 20 21  1  0
  6 22  2  0
 22  2  1  0
 21 17  1  0
  1 23  1  0
  1 24  1  0
  1 25  1  0
  3 26  1  0
  4 27  1  0
  5 28  1  0
  7 29  1  0
 11 30  1  0
 11 31  1  0
 12 32  1  0
 12 33  1  0
 14 34  1  0
 14 35  1  0
 14 36  1  0
 15 37  1  0
 15 38  1  0
 15 39  1  0
 16 40  1  0
 16 41  1  0
 18 42  1  0
 19 43  1  0
 20 44  1  0
 22 45  1  0
M  END
>  <UniqueID>  (38) 
33

>  <SMILES>  (38) 
Cc1cccc(NC(=S)N(CCN(C)C)Cc2cccs2)c1

>  <Energy>  (38) 
70.8514258357965

>  <Genealogy>  (38) 
Cc1cccc(NC(=S)N(CCN(C)C)Cc2cccs2)c1 (3D coordinates assigned)
Cc1cccc(NC(=S)N(CCN(C)C)Cc2cccs2)c1 (optimized conformer: 70.8514258357965 kcal/mol)

>  <smiles>  (38) 
Cc1cccc(NC(=S)N(CCN(C)C)Cc2cccs2)c1

>  <score_type>  (38) 
oracle

>  <origin>  (38) 
adg

>  <m_score__min__energy>  (38) 
-7.3700000000000001

>  <m_primary>  (38) 
energy

$$$$
38:0
     RDKit          3D

 30 33  0  0  0  0  0  0  0  0999 V2000
   -4.7190   14.3060  -34.5530 C   0  0  0  0  0  0  0  0  0  0  0  0
   -3.9470   15.4320  -34.2670 C   0  0  0  0  0  0  0  0  0  0  0  0
   -4.8420   16.3720  -33.8060 C   0  0  0  0  0  0  0  0  0  0  0  0
   -4.6630   17.6800  -33.3740 C   0  0  0  0  0  0  0  0  0  0  0  0
   -5.8090   18.4000  -32.9610 C   0  0  0  0  0  0  0  0  0  0  0  0
   -5.6890   19.8030  -32.4880 C   0  0  0  0  0  0  0  0  0  0  0  0
   -6.8270   20.6240  -32.3910 C   0  0  0  0  0  0  0  0  0  0  0  0
   -6.7150   21.9440  -31.9470 C   0  0  0  0  0  0  0  0  0  0  0  0
   -5.4630   22.4700  -31.5880 C   0  0  0  0  0  0  0  0  0  0  0  0
   -5.3450   23.8670  -31.1180 C   0  0  0  0  0  0  0  0  0  0  0  0
   -6.3900   24.6940  -30.9110 N   0  0  0  0  0  0  0  0  0  0  0  0
   -5.8500   25.8300  -30.5010 N   0  0  0  0  0  0  0  0  0  0  0  0
   -4.5360   25.6950  -30.4610 N   0  0  0  0  0  0  0  0  0  0  0  0
   -4.1780   24.4810  -30.8400 N   0  0  0  0  0  0  0  0  0  0  0  0
   -4.3270   21.6530  -31.6830 C   0  0  0  0  0  0  0  0  0  0  0  0
   -4.4380   20.3320  -32.1280 C   0  0  0  0  0  0  0  0  0  0  0  0
   -7.0770   17.7560  -33.0070 C   0  0  0  0  0  0  0  0  0  0  0  0
   -7.1910   16.4650  -33.4400 N   0  0  0  0  0  0  0  0  0  0  0  0
   -6.0770   15.7990  -33.8320 C   0  0  0  0  0  0  0  0  0  0  0  0
   -6.0260   14.5380  -34.2840 N   0  0  0  0  0  0  0  0  0  0  0  0
   -4.3204   13.3582  -34.9440 H   0  0  0  0  0  0  0  0  0  0  0  0
   -2.8591   15.5448  -34.3842 H   0  0  0  0  0  0  0  0  0  0  0  0
   -3.6642   18.1405  -33.3536 H   0  0  0  0  0  0  0  0  0  0  0  0
   -7.8136   20.2234  -32.6671 H   0  0  0  0  0  0  0  0  0  0  0  0
   -7.6131   22.5754  -31.8781 H   0  0  0  0  0  0  0  0  0  0  0  0
   -3.8710   26.4460  -30.1710 H   0  0  0  0  0  0  0  0  0  0  0  0
   -3.3412   22.0544  -31.4053 H   0  0  0  0  0  0  0  0  0  0  0  0
   -3.5389   19.7020  -32.1968 H   0  0  0  0  0  0  0  0  0  0  0  0
   -7.9765   18.3041  -32.6901 H   0  0  0  0  0  0  0  0  0  0  0  0
   -6.8230   13.8740  -34.4040 H   0  0  0  0  0  0  0  0  0  0  0  0
  1  2  2  0
  2  3  1  0
  3  4  2  0
  4  5  1  0
  5  6  1  0
  6  7  2  0
  7  8  1  0
  8  9  2  0
  9 10  1  0
 10 11  2  0
 11 12  1  0
 12 13  1  0
 13 14  2  0
  9 15  1  0
 15 16  2  0
  5 17  2  0
 17 18  1  0
 18 19  2  0
 19 20  1  0
 20  1  1  0
 19  3  1  0
 16  6  1  0
 14 10  1  0
  1 21  1  0
  2 22  1  0
  4 23  1  0
  7 24  1  0
  8 25  1  0
 13 26  1  0
 15 27  1  0
 16 28  1  0
 17 29  1  0
 20 30  1  0
M  CHG  2  12  -1  13   1
M  END
>  <UniqueID>  (39) 
34

>  <SMILES>  (39) 
c1cc2cc(-c3ccc(-c4n[n-][nH+]n4)cc3)cnc2[nH]1

>  <Energy>  (39) 
113.1963536059521

>  <Genealogy>  (39) 
c1cc2cc(-c3ccc(-c4n[n-][nH+]n4)cc3)cnc2[nH]1 (protonated)
c1cc2cc(-c3ccc(-c4n[n-][nH+]n4)cc3)cnc2[nH]1 (3D coordinates assigned)
c1cc2cc(-c3ccc(-c4n[n-][nH+]n4)cc3)cnc2[nH]1 (optimized conformer: 113.1963536059521 kcal/mol)

>  <smiles>  (39) 
c1cc2cc(-c3ccc(-c4nn[nH]n4)cc3)cnc2[nH]1

>  <score_type>  (39) 
oracle

>  <origin>  (39) 
adg

>  <m_score__min__energy>  (39) 
-8.0999999999999996

>  <m_primary>  (39) 
energy

$$$$
39:0
     RDKit          3D

 41 42  0  0  0  0  0  0  0  0999 V2000
   -4.9200   18.4400  -33.4270 C   0  0  0  0  0  0  0  0  0  0  0  0
   -6.0450   19.1000  -34.2260 C   0  0  0  0  0  0  0  0  0  0  0  0
   -6.8590   20.1090  -33.3750 C   0  0  0  0  0  0  0  0  0  0  0  0
   -8.1610   19.6010  -32.8600 N   0  0  1  0  0  0  0  0  0  0  0  0
   -8.0340   18.2370  -32.3150 C   0  0  0  0  0  0  0  0  0  0  0  0
   -8.8300   20.4890  -31.8770 C   0  0  0  0  0  0  0  0  0  0  0  0
   -8.0230   21.7210  -31.5780 C   0  0  0  0  0  0  0  0  0  0  0  0
   -8.3410   23.0070  -31.9780 C   0  0  0  0  0  0  0  0  0  0  0  0
   -7.2630   23.7980  -31.6330 C   0  0  0  0  0  0  0  0  0  0  0  0
   -6.3420   22.9560  -31.0430 C   0  0  0  0  0  0  0  0  0  0  0  0
   -4.7170   23.4010  -30.5640 S   0  0  0  0  0  0  0  0  0  0  0  0
   -4.5480   23.1970  -29.0840 O   0  0  0  0  0  0  0  0  0  0  0  0
   -4.4790   24.8520  -30.8770 O   0  0  0  0  0  0  0  0  0  0  0  0
   -3.5770   22.3870  -31.4430 C   0  0  0  0  0  0  0  0  0  0  0  0
   -2.3370   22.0500  -30.8810 C   0  0  0  0  0  0  0  0  0  0  0  0
   -1.4280   21.2710  -31.6060 C   0  0  0  0  0  0  0  0  0  0  0  0
   -1.7500   20.8330  -32.8930 C   0  0  0  0  0  0  0  0  0  0  0  0
   -2.9820   21.1720  -33.4590 C   0  0  0  0  0  0  0  0  0  0  0  0
   -3.8950   21.9480  -32.7370 C   0  0  0  0  0  0  0  0  0  0  0  0
   -6.8030   21.6930  -31.0120 N   0  0  0  0  0  0  0  0  0  0  0  0
   -5.1176   18.5559  -32.3511 H   0  0  0  0  0  0  0  0  0  0  0  0
   -4.8712   17.3700  -33.6776 H   0  0  0  0  0  0  0  0  0  0  0  0
   -3.9622   18.9194  -33.6776 H   0  0  0  0  0  0  0  0  0  0  0  0
   -5.6052   19.6332  -35.0817 H   0  0  0  0  0  0  0  0  0  0  0  0
   -6.7325   18.3073  -34.5562 H   0  0  0  0  0  0  0  0  0  0  0  0
   -6.2426   20.4010  -32.5120 H   0  0  0  0  0  0  0  0  0  0  0  0
   -7.1024   20.9463  -34.0455 H   0  0  0  0  0  0  0  0  0  0  0  0
   -8.7990   19.5260  -33.6890 H   0  0  0  0  0  0  0  0  0  0  0  0
   -8.0380   18.2795  -31.2158 H   0  0  0  0  0  0  0  0  0  0  0  0
   -8.8789   17.6236  -32.6613 H   0  0  0  0  0  0  0  0  0  0  0  0
   -7.0904   17.7902  -32.6613 H   0  0  0  0  0  0  0  0  0  0  0  0
   -9.8052   20.7952  -32.2835 H   0  0  0  0  0  0  0  0  0  0  0  0
   -8.9440   19.9261  -30.9388 H   0  0  0  0  0  0  0  0  0  0  0  0
   -9.2677   23.3339  -32.4722 H   0  0  0  0  0  0  0  0  0  0  0  0
   -7.1591   24.8809  -31.7956 H   0  0  0  0  0  0  0  0  0  0  0  0
   -2.0788   22.3981  -29.8700 H   0  0  0  0  0  0  0  0  0  0  0  0
   -0.4581   21.0031  -31.1616 H   0  0  0  0  0  0  0  0  0  0  0  0
   -1.0337   20.2212  -33.4609 H   0  0  0  0  0  0  0  0  0  0  0  0
   -3.2340   20.8284  -34.4731 H   0  0  0  0  0  0  0  0  0  0  0  0
   -4.8639   22.2144  -33.1846 H   0  0  0  0  0  0  0  0  0  0  0  0
   -6.2900   20.8500  -30.6710 H   0  0  0  0  0  0  0  0  0  0  0  0
  1  2  1  0
  2  3  1  0
  3  4  1  0
  4  5  1  0
  4  6  1  0
  6  7  1  0
  7  8  2  0
  8  9  1  0
  9 10  2  0
 10 11  1  0
 11 12  2  0
 11 13  2  0
 11 14  1  0
 14 15  2  0
 15 16  1  0
 16 17  2  0
 17 18  1  0
 18 19  2  0
 10 20  1  0
 20  7  1  0
 19 14  1  0
  1 21  1  0
  1 22  1  0
  1 23  1  0
  2 24  1  0
  2 25  1  0
  3 26  1  0
  3 27  1  0
  4 28  1  6
  5 29  1  0
  5 30  1  0
  5 31  1  0
  6 32  1  0
  6 33  1  0
  8 34  1  0
  9 35  1  0
 15 36  1  0
 16 37  1  0
 17 38  1  0
 18 39  1  0
 19 40  1  0
 20 41  1  0
M  CHG  1   4   1
M  END
>  <UniqueID>  (40) 
35

>  <SMILES>  (40) 
CCC[N@@H+](C)Cc1ccc(S(=O)(=O)c2ccccc2)[nH]1

>  <Energy>  (40) 
69.19541771503918

>  <Genealogy>  (40) 
CCC[NH+](C)Cc1ccc(S(=O)(=O)c2ccccc2)[nH]1 (protonated)
CCC[N@@H+](C)Cc1ccc(S(=O)(=O)c2ccccc2)[nH]1 (chirality)
CCC[N@@H+](C)Cc1ccc(S(=O)(=O)c2ccccc2)[nH]1 (3D coordinates assigned)
CCC[N@@H+](C)Cc1ccc(S(=O)(=O)c2ccccc2)[nH]1 (optimized conformer: 69.19541771503918 kcal/mol)

>  <smiles>  (40) 
CCCN(C)Cc1ccc(S(=O)(=O)c2ccccc2)[nH]1

>  <score_type>  (40) 
oracle

>  <origin>  (40) 
adg

>  <m_score__min__energy>  (40) 
-6.9100000000000001

>  <m_primary>  (40) 
energy

$$$$
40:0
     RDKit          3D

 40 42  0  0  0  0  0  0  0  0999 V2000
   -4.2760   15.5520  -32.9510 C   0  0  0  0  0  0  0  0  0  0  0  0
   -4.8770   16.4190  -34.0320 C   0  0  0  0  0  0  0  0  0  0  0  0
   -3.9650   17.1780  -34.9620 C   0  0  0  0  0  0  0  0  0  0  0  0
   -6.2130   16.5370  -34.2050 C   0  0  0  0  0  0  0  0  0  0  0  0
   -7.2140   16.7240  -33.0890 C   0  0  0  0  0  0  0  0  0  0  0  0
   -7.3220   18.1700  -32.6640 C   0  0  0  0  0  0  0  0  0  0  0  0
   -6.2730   19.0520  -32.9810 C   0  0  0  0  0  0  0  0  0  0  0  0
   -6.3470   20.4130  -32.6460 C   0  0  0  0  0  0  0  0  0  0  0  0
   -5.2540   21.3670  -33.0610 C   0  0  1  0  0  0  0  0  0  0  0  0
   -5.4260   22.6470  -32.4340 O   0  0  0  0  0  0  0  0  0  0  0  0
   -4.3340   22.9350  -31.6230 C   0  0  0  0  0  0  0  0  0  0  0  0
   -4.1440   24.0750  -30.8450 C   0  0  0  0  0  0  0  0  0  0  0  0
   -2.9670   24.1700  -30.0800 C   0  0  0  0  0  0  0  0  0  0  0  0
   -2.7430   25.2910  -29.2900 O   0  0  0  0  0  0  0  0  0  0  0  0
   -2.0110   23.1300  -30.1110 C   0  0  0  0  0  0  0  0  0  0  0  0
   -2.2280   21.9910  -30.9060 C   0  0  0  0  0  0  0  0  0  0  0  0
   -3.4040   21.9310  -31.6520 C   0  0  0  0  0  0  0  0  0  0  0  0
   -3.9180   20.9150  -32.5420 C   0  0  0  0  0  0  0  0  0  0  0  0
   -3.3370   19.8360  -32.8390 O   0  0  0  0  0  0  0  0  0  0  0  0
   -7.4800   20.8940  -31.9790 C   0  0  0  0  0  0  0  0  0  0  0  0
   -8.5170   20.0240  -31.6360 C   0  0  0  0  0  0  0  0  0  0  0  0
   -8.4500   18.6670  -31.9680 C   0  0  0  0  0  0  0  0  0  0  0  0
   -9.5140   17.8460  -31.5880 O   0  0  0  0  0  0  0  0  0  0  0  0
   -4.5530   15.9515  -31.9643 H   0  0  0  0  0  0  0  0  0  0  0  0
   -4.6568   14.5249  -33.0507 H   0  0  0  0  0  0  0  0  0  0  0  0
   -3.1805   15.5482  -33.0507 H   0  0  0  0  0  0  0  0  0  0  0  0
   -3.2514   17.7719  -34.3720 H   0  0  0  0  0  0  0  0  0  0  0  0
   -3.4145   16.4676  -35.5963 H   0  0  0  0  0  0  0  0  0  0  0  0
   -4.5636   17.8483  -35.5963 H   0  0  0  0  0  0  0  0  0  0  0  0
   -6.5993   16.4936  -35.2340 H   0  0  0  0  0  0  0  0  0  0  0  0
   -8.2001   16.3806  -33.4348 H   0  0  0  0  0  0  0  0  0  0  0  0
   -6.8712   16.1392  -32.2227 H   0  0  0  0  0  0  0  0  0  0  0  0
   -5.3814   18.6693  -33.4992 H   0  0  0  0  0  0  0  0  0  0  0  0
   -5.3006   21.4100  -34.1592 H   0  0  0  0  0  0  0  0  0  0  0  0
   -4.8942   24.8794  -30.8292 H   0  0  0  0  0  0  0  0  0  0  0  0
   -1.0930   23.2119  -29.5105 H   0  0  0  0  0  0  0  0  0  0  0  0
   -1.4931   21.1731  -30.9383 H   0  0  0  0  0  0  0  0  0  0  0  0
   -7.5536   21.9615  -31.7241 H   0  0  0  0  0  0  0  0  0  0  0  0
   -9.3960   20.4100  -31.0990 H   0  0  0  0  0  0  0  0  0  0  0  0
   -9.8030   17.7170  -30.6280 H   0  0  0  0  0  0  0  0  0  0  0  0
  1  2  1  0
  2  3  1  0
  2  4  2  3
  4  5  1  0
  5  6  1  0
  6  7  2  0
  7  8  1  0
  8  9  1  0
  9 10  1  0
 10 11  1  0
 11 12  2  0
 12 13  1  0
 13 14  1  0
 13 15  2  0
 15 16  1  0
 16 17  2  0
 17 18  1  0
 18 19  2  0
  8 20  2  0
 20 21  1  0
 21 22  2  0
 22 23  1  0
 22  6  1  0
 18  9  1  0
 17 11  1  0
  1 24  1  0
  1 25  1  0
  1 26  1  0
  3 27  1  0
  3 28  1  0
  3 29  1  0
  4 30  1  0
  5 31  1  0
  5 32  1  0
  7 33  1  0
  9 34  1  6
 12 35  1  0
 15 36  1  0
 16 37  1  0
 20 38  1  0
 21 39  1  0
 23 40  1  0
M  CHG  1  14  -1
M  END
>  <UniqueID>  (41) 
36

>  <SMILES>  (41) 
CC(C)=CCc1cc([C@H]2Oc3cc([O-])ccc3C2=O)ccc1O

>  <Energy>  (41) 
61.98154433884027

>  <Genealogy>  (41) 
CC(C)=CCc1cc(C2Oc3cc([O-])ccc3C2=O)ccc1O (protonated)
CC(C)=CCc1cc([C@H]2Oc3cc([O-])ccc3C2=O)ccc1O (chirality)
CC(C)=CCc1cc([C@H]2Oc3cc([O-])ccc3C2=O)ccc1O (3D coordinates assigned)
CC(C)=CCc1cc([C@H]2Oc3cc([O-])ccc3C2=O)ccc1O (nonaromatic ring conformer: 61.98154433884027 kcal/mol)

>  <smiles>  (41) 
CC(C)=CCc1cc(C2Oc3cc(O)ccc3C2=O)ccc1O

>  <score_type>  (41) 
oracle

>  <origin>  (41) 
adg

>  <m_score__min__energy>  (41) 
-9.6400000000000006

>  <m_primary>  (41) 
energy

$$$$
41:0
     RDKit          3D

 22 23  0  0  0  0  0  0  0  0999 V2000
   -8.9227   19.2291  -33.2825 H   0  0  0  0  0  0  0  0  0  0  0  0
   -8.5370   20.0530  -32.6640 C   0  0  0  0  0  0  0  0  0  0  0  0
   -9.4180   20.8320  -31.9090 C   0  0  0  0  0  0  0  0  0  0  0  0
  -10.4961   20.6143  -31.9252 H   0  0  0  0  0  0  0  0  0  0  0  0
   -8.9300   21.8880  -31.1330 C   0  0  0  0  0  0  0  0  0  0  0  0
   -9.6251   22.4883  -30.5276 H   0  0  0  0  0  0  0  0  0  0  0  0
   -7.5610   22.1860  -31.1220 C   0  0  0  0  0  0  0  0  0  0  0  0
   -7.0910   23.2520  -30.2820 N   0  0  0  0  0  0  0  0  0  0  0  0
   -5.9090   23.7950  -30.3130 C   0  0  0  0  0  0  0  0  0  0  0  0
   -5.4810   25.3190  -30.8480 S   0  0  0  0  0  0  0  0  0  0  0  0
   -3.8600   25.2960  -30.4810 N   0  0  0  0  0  0  0  0  0  0  0  0
   -3.6340   24.0750  -29.9240 C   0  0  0  0  0  0  0  0  0  0  0  0
   -2.2830   23.6910  -29.4130 C   0  0  0  0  0  0  0  0  0  0  0  0
   -2.2926   23.6937  -28.3130 H   0  0  0  0  0  0  0  0  0  0  0  0
   -2.0266   22.6844  -29.7749 H   0  0  0  0  0  0  0  0  0  0  0  0
   -1.5355   24.4122  -29.7749 H   0  0  0  0  0  0  0  0  0  0  0  0
   -4.7570   23.2250  -29.8010 C   0  0  0  0  0  0  0  0  0  0  0  0
   -4.7191   22.2229  -29.3489 H   0  0  0  0  0  0  0  0  0  0  0  0
   -6.6740   21.3770  -31.8580 C   0  0  0  0  0  0  0  0  0  0  0  0
   -5.5926   21.5755  -31.8236 H   0  0  0  0  0  0  0  0  0  0  0  0
   -7.1660   20.3210  -32.6330 C   0  0  0  0  0  0  0  0  0  0  0  0
   -6.4721   19.7005  -33.2191 H   0  0  0  0  0  0  0  0  0  0  0  0
  1  2  1  0
  2  3  2  0
  3  4  1  0
  3  5  1  0
  5  6  1  0
  5  7  2  0
  7  8  1  0
  8  9  2  0
  9 10  1  0
 10 11  1  0
 11 12  1  0
 12 13  1  0
 13 14  1  0
 13 15  1  0
 13 16  1  0
 12 17  2  0
 17 18  1  0
  7 19  1  0
 19 20  1  0
 19 21  2  0
 21 22  1  0
 21  2  1  0
 17  9  1  0
M  CHG  1  11  -1
M  END
>  <UniqueID>  (42) 
37

>  <SMILES>  (42) 
Cc1c/c(=N/c2ccccc2)s[n-]1

>  <Energy>  (42) 
61.38237436119103

>  <Genealogy>  (42) 
Cc1cc(=Nc2ccccc2)s[n-]1 (protonated)
Cc1c/c(=N/c2ccccc2)s[n-]1 (cis-trans isomerization)
Cc1c/c(=N/c2ccccc2)s[n-]1 (3D coordinates assigned)
Cc1c/c(=N/c2ccccc2)s[n-]1 (optimized conformer: 61.38237436119103 kcal/mol)

>  <smiles>  (42) 
Cc1cc(=Nc2ccccc2)s[nH]1

>  <score_type>  (42) 
oracle

>  <origin>  (42) 
adg

>  <m_score__min__energy>  (42) 
-7.9000000000000004

>  <m_primary>  (42) 
energy

$$$$
42:0
     RDKit          3D

 31 33  0  0  0  0  0  0  0  0999 V2000
   -9.1020   18.3530  -31.6240 C   0  0  0  0  0  0  0  0  0  0  0  0
   -8.3330   18.8660  -32.7070 O   0  0  0  0  0  0  0  0  0  0  0  0
   -7.1240   19.5640  -32.5610 C   0  0  0  0  0  0  0  0  0  0  0  0
   -7.0340   20.7560  -31.8040 C   0  0  0  0  0  0  0  0  0  0  0  0
   -5.8010   21.4030  -31.6970 C   0  0  0  0  0  0  0  0  0  0  0  0
   -5.5460   22.5810  -30.9860 C   0  0  0  0  0  0  0  0  0  0  0  0
   -4.2110   22.9840  -31.0760 C   0  0  0  0  0  0  0  0  0  0  0  0
   -3.6330   24.1560  -30.3860 C   0  0  0  0  0  0  0  0  0  0  0  0
   -3.8770   25.3080  -30.8370 O   0  0  0  0  0  0  0  0  0  0  0  0
   -2.7980   24.0250  -29.1710 C   0  0  0  0  0  0  0  0  0  0  0  0
   -3.3020   24.4400  -27.9280 C   0  0  0  0  0  0  0  0  0  0  0  0
   -2.5160   24.3370  -26.7750 C   0  0  0  0  0  0  0  0  0  0  0  0
   -1.2150   23.8310  -26.8570 C   0  0  0  0  0  0  0  0  0  0  0  0
   -0.2290   23.7060  -25.4100 Cl  0  0  0  0  0  0  0  0  0  0  0  0
   -0.6970   23.4350  -28.0930 C   0  0  0  0  0  0  0  0  0  0  0  0
   -1.4800   23.5370  -29.2460 C   0  0  0  0  0  0  0  0  0  0  0  0
   -3.3560   21.8590  -32.0140 S   0  0  0  0  0  0  0  0  0  0  0  0
   -4.6820   20.8810  -32.3250 C   0  0  0  0  0  0  0  0  0  0  0  0
   -4.7350   19.7120  -33.0750 C   0  0  0  0  0  0  0  0  0  0  0  0
   -5.9670   19.0500  -33.1940 C   0  0  0  0  0  0  0  0  0  0  0  0
   -6.0570   17.4400  -34.2230 Br  0  0  0  0  0  0  0  0  0  0  0  0
   -8.6438   18.6586  -30.6718 H   0  0  0  0  0  0  0  0  0  0  0  0
  -10.1266   18.7492  -31.6818 H   0  0  0  0  0  0  0  0  0  0  0  0
   -9.1297   17.2549  -31.6818 H   0  0  0  0  0  0  0  0  0  0  0  0
   -7.9241   21.1679  -31.3060 H   0  0  0  0  0  0  0  0  0  0  0  0
   -6.3123   23.1295  -30.4186 H   0  0  0  0  0  0  0  0  0  0  0  0
   -4.3210   24.8486  -27.8602 H   0  0  0  0  0  0  0  0  0  0  0  0
   -2.9219   24.6544  -25.8031 H   0  0  0  0  0  0  0  0  0  0  0  0
    0.3285   23.0425  -28.1584 H   0  0  0  0  0  0  0  0  0  0  0  0
   -1.0637   23.2341  -30.2181 H   0  0  0  0  0  0  0  0  0  0  0  0
   -3.8330   19.3151  -33.5637 H   0  0  0  0  0  0  0  0  0  0  0  0
  1  2  1  0
  2  3  1  0
  3  4  2  0
  4  5  1  0
  5  6  1  0
  6  7  2  0
  7  8  1  0
  8  9  2  0
  8 10  1  0
 10 11  2  0
 11 12  1  0
 12 13  2  0
 13 14  1  0
 13 15  1  0
 15 16  2  0
  7 17  1  0
 17 18  1  0
 18 19  1  0
 19 20  2  0
 20 21  1  0
 20  3  1  0
 18  5  2  0
 16 10  1  0
  1 22  1  0
  1 23  1  0
  1 24  1  0
  4 25  1  0
  6 26  1  0
 11 27  1  0
 12 28  1  0
 15 29  1  0
 16 30  1  0
 19 31  1  0
M  END
>  <UniqueID>  (43) 
38

>  <SMILES>  (43) 
COc1cc2cc(C(=O)c3ccc(Cl)cc3)sc2cc1Br

>  <Energy>  (43) 
68.4568988888121

>  <Genealogy>  (43) 
COc1cc2cc(C(=O)c3ccc(Cl)cc3)sc2cc1Br (3D coordinates assigned)
COc1cc2cc(C(=O)c3ccc(Cl)cc3)sc2cc1Br (optimized conformer: 68.4568988888121 kcal/mol)

>  <smiles>  (43) 
COc1cc2cc(C(=O)c3ccc(Cl)cc3)sc2cc1Br

>  <score_type>  (43) 
oracle

>  <origin>  (43) 
adg

>  <m_score__min__energy>  (43) 
-8.5

>  <m_primary>  (43) 
energy

$$$$
43:0
     RDKit          3D

 27 27  0  0  0  0  0  0  0  0999 V2000
   -4.0260   24.1540  -28.2540 C   0  0  0  0  0  0  0  0  0  0  0  0
   -3.0800   24.1900  -29.4440 C   0  0  0  0  0  0  0  0  0  0  0  0
   -3.6330   25.0130  -30.4660 O   0  0  0  0  0  0  0  0  0  0  0  0
   -4.9950   25.0090  -30.7860 C   0  0  0  0  0  0  0  0  0  0  0  0
   -5.6840   26.0540  -30.6240 O   0  0  0  0  0  0  0  0  0  0  0  0
   -5.6240   23.7790  -31.3130 C   0  0  0  0  0  0  0  0  0  0  0  0
   -4.8490   22.7780  -31.9190 C   0  0  0  0  0  0  0  0  0  0  0  0
   -5.4670   21.6290  -32.4160 C   0  0  0  0  0  0  0  0  0  0  0  0
   -6.8130   21.4740  -32.3110 N   0  0  0  0  0  0  0  0  0  0  0  0
   -7.5970   22.4190  -31.7150 C   0  0  0  0  0  0  0  0  0  0  0  0
   -9.0880   22.2290  -31.6470 C   0  0  0  0  0  0  0  0  0  0  0  0
   -9.4600   20.7830  -31.9620 C   0  0  0  0  0  0  0  0  0  0  0  0
   -7.0130   23.5930  -31.2170 C   0  0  0  0  0  0  0  0  0  0  0  0
   -3.4431   24.1762  -27.3214 H   0  0  0  0  0  0  0  0  0  0  0  0
   -4.6938   25.0274  -28.2899 H   0  0  0  0  0  0  0  0  0  0  0  0
   -4.6255   23.2324  -28.2899 H   0  0  0  0  0  0  0  0  0  0  0  0
   -2.1093   24.6000  -29.1283 H   0  0  0  0  0  0  0  0  0  0  0  0
   -2.9391   23.1700  -29.8311 H   0  0  0  0  0  0  0  0  0  0  0  0
   -3.7588   22.8983  -32.0021 H   0  0  0  0  0  0  0  0  0  0  0  0
   -4.8615   20.8454  -32.8949 H   0  0  0  0  0  0  0  0  0  0  0  0
   -7.2490   20.6070  -32.7010 H   0  0  0  0  0  0  0  0  0  0  0  0
   -9.4387   22.4803  -30.6351 H   0  0  0  0  0  0  0  0  0  0  0  0
   -9.5636   22.8873  -32.3889 H   0  0  0  0  0  0  0  0  0  0  0  0
   -9.6027   20.2282  -31.0229 H   0  0  0  0  0  0  0  0  0  0  0  0
  -10.3925   20.7630  -32.5451 H   0  0  0  0  0  0  0  0  0  0  0  0
   -8.6529   20.3154  -32.5451 H   0  0  0  0  0  0  0  0  0  0  0  0
   -7.6416   24.3667  -30.7521 H   0  0  0  0  0  0  0  0  0  0  0  0
  1  2  1  0
  2  3  1  0
  3  4  1  0
  4  5  2  0
  4  6  1  0
  6  7  2  0
  7  8  1  0
  8  9  2  0
  9 10  1  0
 10 11  1  0
 11 12  1  0
 10 13  2  0
 13  6  1  0
  1 14  1  0
  1 15  1  0
  1 16  1  0
  2 17  1  0
  2 18  1  0
  7 19  1  0
  8 20  1  0
  9 21  1  0
 11 22  1  0
 11 23  1  0
 12 24  1  0
 12 25  1  0
 12 26  1  0
 13 27  1  0
M  CHG  1   9   1
M  END
>  <UniqueID>  (44) 
39

>  <SMILES>  (44) 
CCOC(=O)c1cc[nH+]c(CC)c1

>  <Energy>  (44) 
16.780826917654466

>  <Genealogy>  (44) 
CCOC(=O)c1cc[nH+]c(CC)c1 (protonated)
CCOC(=O)c1cc[nH+]c(CC)c1 (3D coordinates assigned)
CCOC(=O)c1cc[nH+]c(CC)c1 (optimized conformer: 16.780826917654466 kcal/mol)

>  <smiles>  (44) 
CCOC(=O)c1ccnc(CC)c1

>  <score_type>  (44) 
oracle

>  <origin>  (44) 
adg

>  <m_score__min__energy>  (44) 
-4.9500000000000002

>  <m_primary>  (44) 
energy

$$$$
44:0
     RDKit          3D

 37 40  0  0  0  0  0  0  0  0999 V2000
   -4.4090   24.0630  -31.2010 N   0  0  0  0  0  0  0  0  0  0  0  0
   -4.8260   23.0900  -31.6670 C   0  0  0  0  0  0  0  0  0  0  0  0
   -5.3450   21.8740  -32.2440 C   0  0  0  0  0  0  0  0  0  0  0  0
   -4.6540   21.0910  -33.1750 C   0  0  0  0  0  0  0  0  0  0  0  0
   -3.3450   21.3400  -33.7030 N   0  0  0  0  0  0  0  0  0  0  0  0
   -2.3150   20.3420  -33.7560 C   0  0  0  0  0  0  0  0  0  0  0  0
   -2.6160   19.1240  -33.6330 O   0  0  0  0  0  0  0  0  0  0  0  0
   -0.9090   20.7320  -33.9870 C   0  0  0  0  0  0  0  0  0  0  0  0
   -0.4540   21.9070  -34.5810 C   0  0  0  0  0  0  0  0  0  0  0  0
    0.8980   21.9250  -34.6010 N   0  0  0  0  0  0  0  0  0  0  0  0
    1.3040   20.8000  -34.0370 N   0  0  0  0  0  0  0  0  0  0  0  0
    2.5950   20.4210  -33.8550 C   0  0  0  0  0  0  0  0  0  0  0  0
    2.8440   19.1880  -33.2350 C   0  0  0  0  0  0  0  0  0  0  0  0
    1.7620   18.3870  -32.8240 C   0  0  0  0  0  0  0  0  0  0  0  0
    0.4420   18.8180  -33.0310 C   0  0  0  0  0  0  0  0  0  0  0  0
    0.2530   20.0560  -33.6520 C   0  0  0  0  0  0  0  0  0  0  0  0
   -5.6540   19.8470  -33.7070 S   0  0  0  0  0  0  0  0  0  0  0  0
   -6.9520   20.2470  -32.7170 C   0  0  0  0  0  0  0  0  0  0  0  0
   -6.6470   21.4010  -32.0010 C   0  0  0  0  0  0  0  0  0  0  0  0
   -7.6160   22.0050  -31.0160 C   0  0  0  0  0  0  0  0  0  0  0  0
   -9.0560   21.5270  -31.2740 C   0  0  0  0  0  0  0  0  0  0  0  0
   -9.1120   20.0040  -31.4870 C   0  0  0  0  0  0  0  0  0  0  0  0
   -8.2950   19.5850  -32.7190 C   0  0  0  0  0  0  0  0  0  0  0  0
   -3.1960   22.2390  -34.2130 H   0  0  0  0  0  0  0  0  0  0  0  0
   -1.1005   22.7043  -34.9763 H   0  0  0  0  0  0  0  0  0  0  0  0
    3.4240   21.0643  -34.1852 H   0  0  0  0  0  0  0  0  0  0  0  0
    3.8776   18.8492  -33.0710 H   0  0  0  0  0  0  0  0  0  0  0  0
    1.9516   17.4185  -32.3382 H   0  0  0  0  0  0  0  0  0  0  0  0
   -0.4137   18.2029  -32.7155 H   0  0  0  0  0  0  0  0  0  0  0  0
   -7.3195   21.7123  -29.9980 H   0  0  0  0  0  0  0  0  0  0  0  0
   -7.5897   23.0984  -31.1331 H   0  0  0  0  0  0  0  0  0  0  0  0
   -9.6812   21.7906  -30.4082 H   0  0  0  0  0  0  0  0  0  0  0  0
   -9.4258   22.0181  -32.1862 H   0  0  0  0  0  0  0  0  0  0  0  0
   -8.7032   19.5020  -30.5977 H   0  0  0  0  0  0  0  0  0  0  0  0
  -10.1604   19.7132  -31.6489 H   0  0  0  0  0  0  0  0  0  0  0  0
   -8.1590   18.4935  -32.7073 H   0  0  0  0  0  0  0  0  0  0  0  0
   -8.8387   19.8936  -33.6241 H   0  0  0  0  0  0  0  0  0  0  0  0
  1  2  3  0
  2  3  1  0
  3  4  2  0
  4  5  1  0
  5  6  1  0
  6  7  2  0
  6  8  1  0
  8  9  1  0
  9 10  2  0
 10 11  1  0
 11 12  1  0
 12 13  2  0
 13 14  1  0
 14 15  2  0
 15 16  1  0
  4 17  1  0
 17 18  1  0
 18 19  2  0
 19 20  1  0
 20 21  1  0
 21 22  1  0
 22 23  1  0
 19  3  1  0
 16  8  2  0
 23 18  1  0
 16 11  1  0
  5 24  1  0
  9 25  1  0
 12 26  1  0
 13 27  1  0
 14 28  1  0
 15 29  1  0
 20 30  1  0
 20 31  1  0
 21 32  1  0
 21 33  1  0
 22 34  1  0
 22 35  1  0
 23 36  1  0
 23 37  1  0
M  END
>  <UniqueID>  (45) 
40

>  <SMILES>  (45) 
N#Cc1c(NC(=O)c2cnn3ccccc23)sc2c1CCCC2

>  <Energy>  (45) 
106.14863518632968

>  <Genealogy>  (45) 
N#Cc1c(NC(=O)c2cnn3ccccc23)sc2c1CCCC2 (3D coordinates assigned)
N#Cc1c(NC(=O)c2cnn3ccccc23)sc2c1CCCC2 (nonaromatic ring conformer: 106.14863518632968 kcal/mol)

>  <smiles>  (45) 
N#Cc1c(NC(=O)c2cnn3ccccc23)sc2c1CCCC2

>  <score_type>  (45) 
oracle

>  <origin>  (45) 
adg

>  <m_score__min__energy>  (45) 
-8.1199999999999992

>  <m_primary>  (45) 
energy

$$$$
45:0
     RDKit          3D

 39 42  0  0  0  0  0  0  0  0999 V2000
   -1.1757   28.3230  -25.4979 H   0  0  0  0  0  0  0  0  0  0  0  0
   -1.2060   27.2830  -25.8550 C   0  0  0  0  0  0  0  0  0  0  0  0
   -0.4980   26.7060  -27.2690 S   0  0  0  0  0  0  0  0  0  0  0  0
   -0.9700   25.1050  -27.0660 C   0  0  0  0  0  0  0  0  0  0  0  0
   -0.7260   24.0040  -28.0430 C   0  0  0  0  0  0  0  0  0  0  0  0
   -1.1451   23.0655  -27.6511 H   0  0  0  0  0  0  0  0  0  0  0  0
    0.3561   23.8830  -28.1991 H   0  0  0  0  0  0  0  0  0  0  0  0
   -1.3690   24.3330  -29.3110 N   0  0  0  0  0  0  0  0  0  0  0  0
   -2.5740   23.9700  -29.6330 C   0  0  0  0  0  0  0  0  0  0  0  0
   -2.8920   22.7610  -30.2410 C   0  0  0  0  0  0  0  0  0  0  0  0
   -2.2200   21.9433  -30.5406 H   0  0  0  0  0  0  0  0  0  0  0  0
   -4.2620   22.8450  -30.3740 C   0  0  0  0  0  0  0  0  0  0  0  0
   -5.1010   21.9290  -30.9140 N   0  0  0  0  0  0  0  0  0  0  0  0
   -6.4420   22.1900  -30.9590 C   0  0  0  0  0  0  0  0  0  0  0  0
   -7.3530   21.1810  -31.5570 C   0  0  0  0  0  0  0  0  0  0  0  0
   -6.8770   19.9280  -31.9950 C   0  0  0  0  0  0  0  0  0  0  0  0
   -5.8102   19.6816  -31.8889 H   0  0  0  0  0  0  0  0  0  0  0  0
   -7.7510   18.9970  -32.5630 C   0  0  0  0  0  0  0  0  0  0  0  0
   -7.3707   18.0200  -32.8960 H   0  0  0  0  0  0  0  0  0  0  0  0
   -9.1050   19.3030  -32.7090 C   0  0  0  0  0  0  0  0  0  0  0  0
   -9.7910   18.5666  -33.1529 H   0  0  0  0  0  0  0  0  0  0  0  0
   -9.5880   20.5450  -32.2910 C   0  0  0  0  0  0  0  0  0  0  0  0
  -10.6544   20.7875  -32.4092 H   0  0  0  0  0  0  0  0  0  0  0  0
   -8.7190   21.4800  -31.7230 C   0  0  0  0  0  0  0  0  0  0  0  0
   -9.1055   22.4587  -31.4025 H   0  0  0  0  0  0  0  0  0  0  0  0
   -6.9320   23.4210  -30.4530 C   0  0  0  0  0  0  0  0  0  0  0  0
   -8.0072   23.6498  -30.4930 H   0  0  0  0  0  0  0  0  0  0  0  0
   -6.0280   24.3470  -29.8990 C   0  0  0  0  0  0  0  0  0  0  0  0
   -6.4990   25.6640  -29.3560 C   0  0  0  0  0  0  0  0  0  0  0  0
   -6.4877   25.6324  -28.2565 H   0  0  0  0  0  0  0  0  0  0  0  0
   -5.8316   26.4650  -29.7067 H   0  0  0  0  0  0  0  0  0  0  0  0
   -7.5230   25.8601  -29.7067 H   0  0  0  0  0  0  0  0  0  0  0  0
   -4.7110   24.0080  -29.8840 N   0  0  0  0  0  0  0  0  0  0  0  0
   -3.6900   24.7120  -29.4240 N   0  0  0  0  0  0  0  0  0  0  0  0
   -3.7530   25.6590  -28.9900 H   0  0  0  0  0  0  0  0  0  0  0  0
   -1.7120   25.0040  -25.8960 C   0  0  0  0  0  0  0  0  0  0  0  0
   -2.1575   24.0633  -25.5400 H   0  0  0  0  0  0  0  0  0  0  0  0
   -1.8350   26.2220  -25.2160 C   0  0  0  0  0  0  0  0  0  0  0  0
   -2.3784   26.3285  -24.2656 H   0  0  0  0  0  0  0  0  0  0  0  0
  1  2  1  0
  2  3  1  0
  3  4  1  0
  4  5  1  0
  5  6  1  0
  5  7  1  0
  5  8  1  0
  8  9  2  0
  9 10  1  0
 10 11  1  0
 10 12  2  0
 12 13  1  0
 13 14  2  0
 14 15  1  0
 15 16  2  0
 16 17  1  0
 16 18  1  0
 18 19  1  0
 18 20  2  0
 20 21  1  0
 20 22  1  0
 22 23  1  0
 22 24  2  0
 24 25  1  0
 14 26  1  0
 26 27  1  0
 26 28  2  0
 28 29  1  0
 29 30  1  0
 29 31  1  0
 29 32  1  0
 28 33  1  0
 33 34  1  0
 34 35  1  0
  4 36  2  0
 36 37  1  0
 36 38  1  0
 38 39  1  0
 38  2  2  0
 34  9  1  0
 33 12  1  0
 24 15  1  0
M  END
>  <UniqueID>  (46) 
41

>  <SMILES>  (46) 
Cc1cc(-c2ccccc2)nc2c/c(=N/Cc3cccs3)[nH]n12

>  <Energy>  (46) 
109.33505359717974

>  <Genealogy>  (46) 
Cc1cc(-c2ccccc2)nc2c/c(=N/Cc3cccs3)[nH]n12 (cis-trans isomerization)
Cc1cc(-c2ccccc2)nc2c/c(=N/Cc3cccs3)[nH]n12 (3D coordinates assigned)
Cc1cc(-c2ccccc2)nc2c/c(=N/Cc3cccs3)[nH]n12 (optimized conformer: 109.33505359717974 kcal/mol)

>  <smiles>  (46) 
Cc1cc(-c2ccccc2)nc2cc(=NCc3cccs3)[nH]n12

>  <score_type>  (46) 
oracle

>  <origin>  (46) 
adg

>  <m_score__min__energy>  (46) 
-8.6199999999999992

>  <m_primary>  (46) 
energy

$$$$
46:0
     RDKit          3D

 32 34  0  0  0  0  0  0  0  0999 V2000
   -4.2840   25.5700  -30.8430 O   0  0  0  0  0  0  0  0  0  0  0  0
   -5.4010   24.9170  -30.0770 S   0  0  0  0  0  0  0  0  0  0  0  0
   -6.4820   25.9300  -29.8290 O   0  0  0  0  0  0  0  0  0  0  0  0
   -4.7830   24.3640  -28.5510 N   0  0  0  0  0  0  0  0  0  0  0  0
   -3.5430   23.6520  -28.3910 C   0  0  0  0  0  0  0  0  0  0  0  0
   -2.3410   24.2840  -28.7520 C   0  0  0  0  0  0  0  0  0  0  0  0
   -1.1180   23.6230  -28.6020 C   0  0  0  0  0  0  0  0  0  0  0  0
   -1.0820   22.3240  -28.0900 C   0  0  0  0  0  0  0  0  0  0  0  0
   -2.2690   21.6840  -27.7280 C   0  0  0  0  0  0  0  0  0  0  0  0
   -3.4950   22.3400  -27.8770 C   0  0  0  0  0  0  0  0  0  0  0  0
   -6.0870   23.5690  -30.9950 C   0  0  0  0  0  0  0  0  0  0  0  0
   -7.4810   23.4320  -31.0810 C   0  0  0  0  0  0  0  0  0  0  0  0
   -8.0490   22.3730  -31.7930 C   0  0  0  0  0  0  0  0  0  0  0  0
   -7.2340   21.4420  -32.4390 C   0  0  0  0  0  0  0  0  0  0  0  0
   -5.8400   21.5700  -32.3800 C   0  0  0  0  0  0  0  0  0  0  0  0
   -5.0030   20.6530  -33.0290 C   0  0  0  0  0  0  0  0  0  0  0  0
   -3.6170   20.8090  -32.9600 C   0  0  0  0  0  0  0  0  0  0  0  0
   -3.0810   21.8800  -32.2430 C   0  0  0  0  0  0  0  0  0  0  0  0
   -3.9030   22.7610  -31.6150 N   0  0  0  0  0  0  0  0  0  0  0  0
   -5.2590   22.6400  -31.6570 C   0  0  0  0  0  0  0  0  0  0  0  0
   -5.3660   24.5640  -27.7080 H   0  0  0  0  0  0  0  0  0  0  0  0
   -2.3623   25.3070  -29.1558 H   0  0  0  0  0  0  0  0  0  0  0  0
   -0.1828   24.1268  -28.8877 H   0  0  0  0  0  0  0  0  0  0  0  0
   -0.1191   21.8055  -27.9720 H   0  0  0  0  0  0  0  0  0  0  0  0
   -2.2397   20.6611  -27.3245 H   0  0  0  0  0  0  0  0  0  0  0  0
   -4.4268   21.8297  -27.5917 H   0  0  0  0  0  0  0  0  0  0  0  0
   -8.1324   24.1654  -30.5831 H   0  0  0  0  0  0  0  0  0  0  0  0
   -9.1432   22.2723  -31.8448 H   0  0  0  0  0  0  0  0  0  0  0  0
   -7.6864   20.6074  -32.9947 H   0  0  0  0  0  0  0  0  0  0  0  0
   -5.4363   19.8127  -33.5912 H   0  0  0  0  0  0  0  0  0  0  0  0
   -2.9528   20.0934  -33.4667 H   0  0  0  0  0  0  0  0  0  0  0  0
   -1.9903   22.0111  -32.1862 H   0  0  0  0  0  0  0  0  0  0  0  0
  1  2  2  0
  2  3  2  0
  2  4  1  0
  4  5  1  0
  5  6  2  0
  6  7  1  0
  7  8  2  0
  8  9  1  0
  9 10  2  0
  2 11  1  0
 11 12  2  0
 12 13  1  0
 13 14  2  0
 14 15  1  0
 15 16  2  0
 16 17  1  0
 17 18  2  0
 18 19  1  0
 19 20  2  0
 10  5  1  0
 20 11  1  0
 20 15  1  0
  4 21  1  0
  6 22  1  0
  7 23  1  0
  8 24  1  0
  9 25  1  0
 10 26  1  0
 12 27  1  0
 13 28  1  0
 14 29  1  0
 16 30  1  0
 17 31  1  0
 18 32  1  0
M  END
>  <UniqueID>  (47) 
42

>  <SMILES>  (47) 
O=S(=O)(Nc1ccccc1)c1cccc2cccnc12

>  <Energy>  (47) 
41.91157922358295

>  <Genealogy>  (47) 
O=S(=O)(Nc1ccccc1)c1cccc2cccnc12 (3D coordinates assigned)
O=S(=O)(Nc1ccccc1)c1cccc2cccnc12 (optimized conformer: 41.91157922358295 kcal/mol)

>  <smiles>  (47) 
O=S(=O)(Nc1ccccc1)c1cccc2cccnc12

>  <score_type>  (47) 
oracle

>  <origin>  (47) 
adg

>  <m_score__min__energy>  (47) 
-8.3000000000000007

>  <m_primary>  (47) 
energy

$$$$
47:0
     RDKit          3D

 47 48  0  0  0  0  0  0  0  0999 V2000
   -1.6100   25.3210  -27.5950 C   0  0  0  0  0  0  0  0  0  0  0  0
   -2.0010   25.2920  -28.9650 O   0  0  0  0  0  0  0  0  0  0  0  0
   -2.3610   24.1290  -29.6640 C   0  0  0  0  0  0  0  0  0  0  0  0
   -1.6270   22.9330  -29.5540 C   0  0  0  0  0  0  0  0  0  0  0  0
   -2.0130   21.7970  -30.2680 C   0  0  0  0  0  0  0  0  0  0  0  0
   -3.1290   21.8380  -31.1170 C   0  0  0  0  0  0  0  0  0  0  0  0
   -3.5580   20.6760  -31.8470 N   0  0  0  0  0  0  0  0  0  0  0  0
   -2.9730   20.2390  -33.0840 C   0  0  0  0  0  0  0  0  0  0  0  0
   -2.1680   20.9790  -33.7120 O   0  0  0  0  0  0  0  0  0  0  0  0
   -3.3900   18.9320  -33.6870 C   0  0  0  0  0  0  0  0  0  0  0  0
   -4.4020   18.2210  -32.7820 C   0  0  0  0  0  0  0  0  0  0  0  0
   -5.7770   18.4300  -33.2820 N   0  0  0  0  0  0  0  0  0  0  0  0
   -6.1300   19.8670  -33.2600 C   0  0  0  0  0  0  0  0  0  0  0  0
   -7.6470   20.0690  -33.3850 C   0  0  0  0  0  0  0  0  0  0  0  0
   -8.3960   19.4240  -32.2770 N   0  0  0  0  0  0  0  0  0  0  0  0
   -8.8680   20.4160  -31.3000 C   0  0  0  0  0  0  0  0  0  0  0  0
   -7.6390   18.3520  -31.5930 C   0  0  0  0  0  0  0  0  0  0  0  0
   -6.7690   17.5670  -32.5860 C   0  0  0  0  0  0  0  0  0  0  0  0
   -3.8750   23.0210  -31.2100 C   0  0  0  0  0  0  0  0  0  0  0  0
   -3.4930   24.1720  -30.4930 C   0  0  0  0  0  0  0  0  0  0  0  0
   -4.2110   25.3750  -30.5770 O   0  0  0  0  0  0  0  0  0  0  0  0
   -5.6050   25.5030  -30.3170 C   0  0  0  0  0  0  0  0  0  0  0  0
   -2.5037   25.2547  -26.9571 H   0  0  0  0  0  0  0  0  0  0  0  0
   -0.9458   24.4696  -27.3852 H   0  0  0  0  0  0  0  0  0  0  0  0
   -1.0787   26.2610  -27.3852 H   0  0  0  0  0  0  0  0  0  0  0  0
   -0.7429   22.8931  -28.9008 H   0  0  0  0  0  0  0  0  0  0  0  0
   -1.4388   20.8645  -30.1642 H   0  0  0  0  0  0  0  0  0  0  0  0
   -4.4080   20.1690  -31.5080 H   0  0  0  0  0  0  0  0  0  0  0  0
   -3.8500   19.1169  -34.6689 H   0  0  0  0  0  0  0  0  0  0  0  0
   -2.5019   18.2925  -33.7982 H   0  0  0  0  0  0  0  0  0  0  0  0
   -4.1813   17.1434  -32.7682 H   0  0  0  0  0  0  0  0  0  0  0  0
   -4.3251   18.6359  -31.7662 H   0  0  0  0  0  0  0  0  0  0  0  0
   -5.7866   20.3062  -32.3117 H   0  0  0  0  0  0  0  0  0  0  0  0
   -5.6420   20.3583  -34.1147 H   0  0  0  0  0  0  0  0  0  0  0  0
   -7.8619   21.1478  -33.3759 H   0  0  0  0  0  0  0  0  0  0  0  0
   -7.9716   19.6018  -34.3265 H   0  0  0  0  0  0  0  0  0  0  0  0
   -8.6896   20.0411  -30.2814 H   0  0  0  0  0  0  0  0  0  0  0  0
   -8.3228   21.3605  -31.4438 H   0  0  0  0  0  0  0  0  0  0  0  0
   -9.9448   20.5887  -31.4438 H   0  0  0  0  0  0  0  0  0  0  0  0
   -6.9913   18.8028  -30.8267 H   0  0  0  0  0  0  0  0  0  0  0  0
   -8.3571   17.6569  -31.1334 H   0  0  0  0  0  0  0  0  0  0  0  0
   -6.2291   16.7813  -32.0372 H   0  0  0  0  0  0  0  0  0  0  0  0
   -7.4360   17.1418  -33.3504 H   0  0  0  0  0  0  0  0  0  0  0  0
   -4.7690   23.0511  -31.8502 H   0  0  0  0  0  0  0  0  0  0  0  0
   -5.7754   25.5186  -29.2304 H   0  0  0  0  0  0  0  0  0  0  0  0
   -5.9762   26.4390  -30.7599 H   0  0  0  0  0  0  0  0  0  0  0  0
   -6.1404   24.6502  -30.7599 H   0  0  0  0  0  0  0  0  0  0  0  0
  1  2  1  0
  2  3  1  0
  3  4  2  0
  4  5  1  0
  5  6  2  0
  6  7  1  0
  7  8  1  0
  8  9  2  0
  8 10  1  0
 10 11  1  0
 11 12  1  0
 12 13  1  0
 13 14  1  0
 14 15  1  0
 15 16  1  0
 15 17  1  0
 17 18  1  0
  6 19  1  0
 19 20  2  0
 20 21  1  0
 21 22  1  0
 20  3  1  0
 18 12  1  0
  1 23  1  0
  1 24  1  0
  1 25  1  0
  4 26  1  0
  5 27  1  0
  7 28  1  0
 10 29  1  0
 10 30  1  0
 11 31  1  0
 11 32  1  0
 13 33  1  0
 13 34  1  0
 14 35  1  0
 14 36  1  0
 16 37  1  0
 16 38  1  0
 16 39  1  0
 17 40  1  0
 17 41  1  0
 18 42  1  0
 18 43  1  0
 19 44  1  0
 22 45  1  0
 22 46  1  0
 22 47  1  0
M  END
>  <UniqueID>  (48) 
43

>  <SMILES>  (48) 
COc1ccc(NC(=O)CCN2CCN(C)CC2)cc1OC

>  <Energy>  (48) 
57.185157495335226

>  <Genealogy>  (48) 
COc1ccc(NC(=O)CCN2CCN(C)CC2)cc1OC (3D coordinates assigned)
COc1ccc(NC(=O)CCN2CCN(C)CC2)cc1OC (nonaromatic ring conformer: 57.185157495335226 kcal/mol)

>  <smiles>  (48) 
COc1ccc(NC(=O)CCN2CCN(C)CC2)cc1OC

>  <score_type>  (48) 
oracle

>  <origin>  (48) 
adg

>  <m_score__min__energy>  (48) 
-7.9500000000000002

>  <m_primary>  (48) 
energy

$$$$
48:0
     RDKit          3D

 45 47  0  0  0  0  0  0  0  0999 V2000
   -5.2940   16.0910  -32.5450 C   0  0  0  0  0  0  0  0  0  0  0  0
   -5.6280   17.2280  -33.4120 N   0  0  0  0  0  0  0  0  0  0  0  0
   -4.9620   17.3450  -34.7150 C   0  0  0  0  0  0  0  0  0  0  0  0
   -6.6000   18.2200  -32.9870 C   0  0  0  0  0  0  0  0  0  0  0  0
   -7.5670   17.9150  -32.0070 C   0  0  0  0  0  0  0  0  0  0  0  0
   -8.5010   18.8710  -31.6000 C   0  0  0  0  0  0  0  0  0  0  0  0
   -8.4980   20.1520  -32.1680 C   0  0  0  0  0  0  0  0  0  0  0  0
   -9.4830   21.1910  -31.7010 C   0  0  0  0  0  0  0  0  0  0  0  0
   -8.8100   22.5620  -31.5970 C   0  0  0  0  0  0  0  0  0  0  0  0
   -7.4620   22.4300  -31.0480 N   0  0  0  0  0  0  0  0  0  0  0  0
   -6.3240   23.0830  -31.6360 C   0  0  0  0  0  0  0  0  0  0  0  0
   -6.4600   23.7190  -32.7170 O   0  0  0  0  0  0  0  0  0  0  0  0
   -4.9850   23.0090  -31.0020 C   0  0  0  0  0  0  0  0  0  0  0  0
   -4.3080   21.7820  -30.8650 C   0  0  0  0  0  0  0  0  0  0  0  0
   -3.0500   21.7290  -30.2570 C   0  0  0  0  0  0  0  0  0  0  0  0
   -2.4510   22.8970  -29.7810 C   0  0  0  0  0  0  0  0  0  0  0  0
   -3.1240   24.1210  -29.8930 C   0  0  0  0  0  0  0  0  0  0  0  0
   -4.3840   24.1780  -30.4950 C   0  0  0  0  0  0  0  0  0  0  0  0
   -2.5290   25.2980  -29.3460 N   0  0  0  0  0  0  0  0  0  0  0  0
   -1.2170   25.2440  -28.7850 C   0  0  0  0  0  0  0  0  0  0  0  0
   -0.7360   26.2610  -28.2190 O   0  0  0  0  0  0  0  0  0  0  0  0
   -0.3830   24.0030  -28.9440 C   0  0  0  0  0  0  0  0  0  0  0  0
   -1.1940   22.8440  -29.1660 O   0  0  0  0  0  0  0  0  0  0  0  0
   -7.5330   20.4720  -33.1310 C   0  0  0  0  0  0  0  0  0  0  0  0
   -6.5980   19.5170  -33.5410 C   0  0  0  0  0  0  0  0  0  0  0  0
   -5.3832   16.3946  -31.4915 H   0  0  0  0  0  0  0  0  0  0  0  0
   -5.9860   15.2602  -32.7470 H   0  0  0  0  0  0  0  0  0  0  0  0
   -4.2626   15.7664  -32.7470 H   0  0  0  0  0  0  0  0  0  0  0  0
   -3.8890   17.5335  -34.5627 H   0  0  0  0  0  0  0  0  0  0  0  0
   -5.0936   16.4100  -35.2793 H   0  0  0  0  0  0  0  0  0  0  0  0
   -5.4044   18.1792  -35.2793 H   0  0  0  0  0  0  0  0  0  0  0  0
   -7.5862   16.9114  -31.5572 H   0  0  0  0  0  0  0  0  0  0  0  0
   -9.2432   18.6166  -30.8290 H   0  0  0  0  0  0  0  0  0  0  0  0
  -10.3143   21.2497  -32.4189 H   0  0  0  0  0  0  0  0  0  0  0  0
   -9.8581   20.9034  -30.7077 H   0  0  0  0  0  0  0  0  0  0  0  0
   -8.7504   23.0130  -32.5985 H   0  0  0  0  0  0  0  0  0  0  0  0
   -9.4055   23.2009  -30.9283 H   0  0  0  0  0  0  0  0  0  0  0  0
   -7.3400   21.8190  -30.2100 H   0  0  0  0  0  0  0  0  0  0  0  0
   -4.7725   20.8578  -31.2393 H   0  0  0  0  0  0  0  0  0  0  0  0
   -2.5309   20.7647  -30.1534 H   0  0  0  0  0  0  0  0  0  0  0  0
   -4.9095   25.1412  -30.5734 H   0  0  0  0  0  0  0  0  0  0  0  0
    0.2924   24.1351  -29.8022 H   0  0  0  0  0  0  0  0  0  0  0  0
    0.1852   23.8506  -28.0145 H   0  0  0  0  0  0  0  0  0  0  0  0
   -7.5105   21.4814  -33.5677 H   0  0  0  0  0  0  0  0  0  0  0  0
   -5.8517   19.7803  -34.3050 H   0  0  0  0  0  0  0  0  0  0  0  0
  1  2  1  0
  2  3  1  0
  2  4  1  0
  4  5  2  0
  5  6  1  0
  6  7  2  0
  7  8  1  0
  8  9  1  0
  9 10  1  0
 10 11  1  0
 11 12  2  0
 11 13  1  0
 13 14  2  0
 14 15  1  0
 15 16  2  0
 16 17  1  0
 17 18  2  0
 17 19  1  0
 19 20  1  0
 20 21  2  0
 20 22  1  0
 22 23  1  0
  7 24  1  0
 24 25  2  0
 25  4  1  0
 18 13  1  0
 23 16  1  0
  1 26  1  0
  1 27  1  0
  1 28  1  0
  3 29  1  0
  3 30  1  0
  3 31  1  0
  5 32  1  0
  6 33  1  0
  8 34  1  0
  8 35  1  0
  9 36  1  0
  9 37  1  0
 10 38  1  0
 14 39  1  0
 15 40  1  0
 18 41  1  0
 22 42  1  0
 22 43  1  0
 24 44  1  0
 25 45  1  0
M  CHG  1  19  -1
M  END
>  <UniqueID>  (49) 
44

>  <SMILES>  (49) 
CN(C)c1ccc(CCNC(=O)c2ccc3c(c2)[N-]C(=O)CO3)cc1

>  <Energy>  (49) 
48.02513687428326

>  <Genealogy>  (49) 
CN(C)c1ccc(CCNC(=O)c2ccc3c(c2)[N-]C(=O)CO3)cc1 (protonated)
CN(C)c1ccc(CCNC(=O)c2ccc3c(c2)[N-]C(=O)CO3)cc1 (3D coordinates assigned)
CN(C)c1ccc(CCNC(=O)c2ccc3c(c2)[N-]C(=O)CO3)cc1 (nonaromatic ring conformer: 48.02513687428326 kcal/mol)

>  <smiles>  (49) 
CN(C)c1ccc(CCNC(=O)c2ccc3c(c2)NC(=O)CO3)cc1

>  <score_type>  (49) 
oracle

>  <origin>  (49) 
adg

>  <m_score__min__energy>  (49) 
-9.9399999999999995

>  <m_primary>  (49) 
energy

$$$$
