0:0
     RDKit          3D

 57 59  0  0  0  0  0  0  0  0999 V2000
   -2.6750   20.1120  -27.8500 C   0  0  0  0  0  0  0  0  0  0  0  0
   -3.0980   20.8610  -29.1160 C   0  0  0  0  0  0  0  0  0  0  0  0
   -3.1050   22.3360  -28.9790 N   0  0  0  0  0  0  0  0  0  0  0  0
   -1.9610   22.9340  -28.2510 C   0  0  0  0  0  0  0  0  0  0  0  0
   -1.2260   24.0500  -29.0130 C   0  0  0  0  0  0  0  0  0  0  0  0
   -4.4250   22.9540  -28.7360 C   0  0  0  0  0  0  0  0  0  0  0  0
   -4.3970   24.4380  -29.1180 C   0  0  0  0  0  0  0  0  0  0  0  0
   -4.2010   24.5820  -30.5140 O   0  0  0  0  0  0  0  0  0  0  0  0
   -5.4250   24.8120  -31.1870 C   0  0  0  0  0  0  0  0  0  0  0  0
   -5.7280   23.6630  -32.1500 C   0  0  0  0  0  0  0  0  0  0  0  0
   -5.0640   22.4390  -31.7040 N   0  0  0  0  0  0  0  0  0  0  0  0
   -5.4380   21.1460  -32.2040 C   0  0  0  0  0  0  0  0  0  0  0  0
   -6.7780   20.7790  -32.1950 C   0  0  0  0  0  0  0  0  0  0  0  0
   -8.0870   21.6540  -31.6030 S   0  0  0  0  0  0  0  0  0  0  0  0
   -9.2350   20.4620  -31.9040 C   0  0  0  0  0  0  0  0  0  0  0  0
   -8.5990   19.3580  -32.4630 C   0  0  0  0  0  0  0  0  0  0  0  0
   -7.2080   19.5410  -32.6350 C   0  0  0  0  0  0  0  0  0  0  0  0
   -6.3200   18.6230  -33.1370 N   0  0  0  0  0  0  0  0  0  0  0  0
   -6.8170   17.3690  -33.7390 C   0  0  0  0  0  0  0  0  0  0  0  0
   -4.9590   18.8870  -33.0570 C   0  0  0  0  0  0  0  0  0  0  0  0
   -4.0050   17.8950  -33.3820 C   0  0  0  0  0  0  0  0  0  0  0  0
   -2.6440   18.1620  -33.3370 C   0  0  0  0  0  0  0  0  0  0  0  0
   -2.1850   19.4170  -32.9690 C   0  0  0  0  0  0  0  0  0  0  0  0
   -3.0830   20.4350  -32.6050 C   0  0  0  0  0  0  0  0  0  0  0  0
   -2.6000   21.7020  -32.2390 O   0  0  0  0  0  0  0  0  0  0  0  0
   -1.3700   21.9530  -31.5680 C   0  0  0  0  0  0  0  0  0  0  0  0
   -4.4850   20.1740  -32.6160 C   0  0  0  0  0  0  0  0  0  0  0  0
   -2.9955   20.6795  -26.9639 H   0  0  0  0  0  0  0  0  0  0  0  0
   -3.1448   19.1174  -27.8381 H   0  0  0  0  0  0  0  0  0  0  0  0
   -1.5807   20.0008  -27.8381 H   0  0  0  0  0  0  0  0  0  0  0  0
   -2.4007   20.5935  -29.9236 H   0  0  0  0  0  0  0  0  0  0  0  0
   -4.1344   20.5598  -29.3283 H   0  0  0  0  0  0  0  0  0  0  0  0
   -2.3378   23.3546  -27.3070 H   0  0  0  0  0  0  0  0  0  0  0  0
   -1.2300   22.1254  -28.1036 H   0  0  0  0  0  0  0  0  0  0  0  0
   -0.7682   24.7450  -28.2937 H   0  0  0  0  0  0  0  0  0  0  0  0
   -0.4420   23.6075  -29.6451 H   0  0  0  0  0  0  0  0  0  0  0  0
   -1.9422   24.5955  -29.6451 H   0  0  0  0  0  0  0  0  0  0  0  0
   -5.1842   22.4378  -29.3419 H   0  0  0  0  0  0  0  0  0  0  0  0
   -4.6703   22.8646  -27.6674 H   0  0  0  0  0  0  0  0  0  0  0  0
   -5.3527   24.9036  -28.8356 H   0  0  0  0  0  0  0  0  0  0  0  0
   -3.5679   24.9289  -28.5874 H   0  0  0  0  0  0  0  0  0  0  0  0
   -6.2361   24.8890  -30.4479 H   0  0  0  0  0  0  0  0  0  0  0  0
   -5.3465   25.7472  -31.7608 H   0  0  0  0  0  0  0  0  0  0  0  0
   -6.8145   23.4948  -32.1839 H   0  0  0  0  0  0  0  0  0  0  0  0
   -5.3564   23.9275  -33.1510 H   0  0  0  0  0  0  0  0  0  0  0  0
   -4.2460   22.5190  -31.0590 H   0  0  0  0  0  0  0  0  0  0  0  0
  -10.3117   20.5422  -31.6935 H   0  0  0  0  0  0  0  0  0  0  0  0
   -9.1264   18.4343  -32.7433 H   0  0  0  0  0  0  0  0  0  0  0  0
   -7.0961   16.6648  -32.9414 H   0  0  0  0  0  0  0  0  0  0  0  0
   -7.6975   17.5851  -34.3620 H   0  0  0  0  0  0  0  0  0  0  0  0
   -6.0275   16.9233  -34.3620 H   0  0  0  0  0  0  0  0  0  0  0  0
   -4.3484   16.8923  -33.6762 H   0  0  0  0  0  0  0  0  0  0  0  0
   -1.9239   17.3716  -33.5954 H   0  0  0  0  0  0  0  0  0  0  0  0
   -1.1037   19.6189  -32.9618 H   0  0  0  0  0  0  0  0  0  0  0  0
   -1.5322   21.9199  -30.4805 H   0  0  0  0  0  0  0  0  0  0  0  0
   -0.6341   21.1865  -31.8525 H   0  0  0  0  0  0  0  0  0  0  0  0
   -0.9932   22.9465  -31.8525 H   0  0  0  0  0  0  0  0  0  0  0  0
  1  2  1  0
  2  3  1  0
  3  4  1  0
  4  5  1  0
  3  6  1  0
  6  7  1  0
  7  8  1  0
  8  9  1  0
  9 10  1  0
 10 11  1  0
 11 12  1  0
 12 13  2  0
 13 14  1  0
 14 15  1  0
 15 16  2  0
 16 17  1  0
 17 18  2  0
 18 19  1  0
 18 20  1  0
 20 21  2  0
 21 22  1  0
 22 23  2  0
 23 24  1  0
 24 25  1  0
 25 26  1  0
 24 27  2  0
 27 12  1  0
 17 13  1  0
 27 20  1  0
  1 28  1  0
  1 29  1  0
  1 30  1  0
  2 31  1  0
  2 32  1  0
  4 33  1  0
  4 34  1  0
  5 35  1  0
  5 36  1  0
  5 37  1  0
  6 38  1  0
  6 39  1  0
  7 40  1  0
  7 41  1  0
  9 42  1  0
  9 43  1  0
 10 44  1  0
 10 45  1  0
 11 46  1  0
 15 47  1  0
 16 48  1  0
 19 49  1  0
 19 50  1  0
 19 51  1  0
 21 52  1  0
 22 53  1  0
 23 54  1  0
 26 55  1  0
 26 56  1  0
 26 57  1  0
M  CHG  1  18   1
M  END
>  <UniqueID>  (1) 
1

>  <SMILES>  (1) 
CCN(CC)CCOCCNc1c2sccc2[n+](C)c2cccc(OC)c12

>  <Energy>  (1) 
115.99572047195325

>  <Genealogy>  (1) 
CCN(CC)CCOCCNc1c2sccc2[n+](C)c2cccc(OC)c12 (3D coordinates assigned)
CCN(CC)CCOCCNc1c2sccc2[n+](C)c2cccc(OC)c12 (optimized conformer: 115.99572047195325 kcal/mol)

>  <smiles>  (1) 
CCN(CC)CCOCCNc1c2sccc2[n+](C)c2cccc(OC)c12

>  <score_type>  (1) 
oracle

>  <origin>  (1) 
adg

>  <m_score__min__energy>  (1) 
-7.2400000000000002

>  <m_primary>  (1) 
energy

$$$$
1:0
     RDKit          3D

 41 43  0  0  0  0  0  0  0  0999 V2000
   -4.2600   24.1010  -28.3090 C   0  0  0  0  0  0  0  0  0  0  0  0
   -3.5830   24.5240  -29.6200 C   0  0  0  0  0  0  0  0  0  0  0  0
   -4.3720   24.2100  -30.8340 N   0  0  0  0  0  0  0  0  0  0  0  0
   -5.7020   24.8450  -30.8120 C   0  0  0  0  0  0  0  0  0  0  0  0
   -4.4520   22.7570  -31.1010 C   0  0  0  0  0  0  0  0  0  0  0  0
   -4.8420   22.4990  -32.5620 C   0  0  0  0  0  0  0  0  0  0  0  0
   -5.6680   21.2760  -32.6720 N   0  0  0  0  0  0  0  0  0  0  0  0
   -5.0750   20.1180  -33.1340 C   0  0  0  0  0  0  0  0  0  0  0  0
   -3.8630   20.1080  -33.4840 O   0  0  0  0  0  0  0  0  0  0  0  0
   -5.8140   18.9800  -33.2130 N   0  0  0  0  0  0  0  0  0  0  0  0
   -5.5290   17.7180  -33.6000 C   0  0  0  0  0  0  0  0  0  0  0  0
   -4.1940   17.2230  -34.0830 C   0  0  0  0  0  0  0  0  0  0  0  0
   -4.2420   15.8530  -34.2610 F   0  0  0  0  0  0  0  0  0  0  0  0
   -3.2170   17.5360  -33.1570 F   0  0  0  0  0  0  0  0  0  0  0  0
   -3.8680   17.8160  -35.2900 F   0  0  0  0  0  0  0  0  0  0  0  0
   -6.6320   16.9470  -33.4920 N   0  0  0  0  0  0  0  0  0  0  0  0
   -7.6280   17.6970  -33.0410 N   0  0  0  0  0  0  0  0  0  0  0  0
   -7.1070   18.9310  -32.8770 C   0  0  0  0  0  0  0  0  0  0  0  0
   -7.7750   20.0670  -32.4370 C   0  0  0  0  0  0  0  0  0  0  0  0
   -9.1370   20.0380  -32.1040 C   0  0  0  0  0  0  0  0  0  0  0  0
   -9.7800   21.2050  -31.6950 C   0  0  0  0  0  0  0  0  0  0  0  0
   -9.0710   22.4030  -31.6230 C   0  0  0  0  0  0  0  0  0  0  0  0
   -7.7120   22.4460  -31.9480 C   0  0  0  0  0  0  0  0  0  0  0  0
   -7.0240   21.2740  -32.3510 C   0  0  0  0  0  0  0  0  0  0  0  0
   -3.6705   24.4693  -27.4565 H   0  0  0  0  0  0  0  0  0  0  0  0
   -5.2732   24.5270  -28.2655 H   0  0  0  0  0  0  0  0  0  0  0  0
   -4.3214   23.0036  -28.2655 H   0  0  0  0  0  0  0  0  0  0  0  0
   -3.4154   25.6107  -29.5878 H   0  0  0  0  0  0  0  0  0  0  0  0
   -2.6457   23.9529  -29.6930 H   0  0  0  0  0  0  0  0  0  0  0  0
   -6.0189   24.9963  -29.7696 H   0  0  0  0  0  0  0  0  0  0  0  0
   -5.6529   25.8168  -31.3250 H   0  0  0  0  0  0  0  0  0  0  0  0
   -6.4268   24.1958  -31.3250 H   0  0  0  0  0  0  0  0  0  0  0  0
   -3.4725   22.2980  -30.9015 H   0  0  0  0  0  0  0  0  0  0  0  0
   -5.2180   22.3169  -30.4456 H   0  0  0  0  0  0  0  0  0  0  0  0
   -5.4157   23.3580  -32.9402 H   0  0  0  0  0  0  0  0  0  0  0  0
   -3.9257   22.3628  -33.1551 H   0  0  0  0  0  0  0  0  0  0  0  0
   -6.7180   15.9320  -33.7200 H   0  0  0  0  0  0  0  0  0  0  0  0
   -9.6981   19.0939  -32.1656 H   0  0  0  0  0  0  0  0  0  0  0  0
  -10.8471   21.1806  -31.4290 H   0  0  0  0  0  0  0  0  0  0  0  0
   -9.5854   23.3227  -31.3076 H   0  0  0  0  0  0  0  0  0  0  0  0
   -7.1698   23.4013  -31.8903 H   0  0  0  0  0  0  0  0  0  0  0  0
  1  2  1  0
  2  3  1  0
  3  4  1  0
  3  5  1  0
  5  6  1  0
  6  7  1  0
  7  8  1  0
  8  9  2  0
  8 10  1  0
 10 11  1  0
 11 12  1  0
 12 13  1  0
 12 14  1  0
 12 15  1  0
 11 16  2  0
 16 17  1  0
 17 18  2  0
 18 19  1  0
 19 20  2  0
 20 21  1  0
 21 22  2  0
 22 23  1  0
 23 24  2  0
 24  7  1  0
 18 10  1  0
 24 19  1  0
  1 25  1  0
  1 26  1  0
  1 27  1  0
  2 28  1  0
  2 29  1  0
  4 30  1  0
  4 31  1  0
  4 32  1  0
  5 33  1  0
  5 34  1  0
  6 35  1  0
  6 36  1  0
 16 37  1  0
 20 38  1  0
 21 39  1  0
 22 40  1  0
 23 41  1  0
M  CHG  1  16   1
M  END
>  <UniqueID>  (2) 
2

>  <SMILES>  (2) 
CCN(C)CCn1c(=O)n2c(C(F)(F)F)[nH+]nc2c2ccccc21

>  <Energy>  (2) 
95.48489023982708

>  <Genealogy>  (2) 
CCN(C)CCn1c(=O)n2c(C(F)(F)F)[nH+]nc2c2ccccc21 (protonated)
CCN(C)CCn1c(=O)n2c(C(F)(F)F)[nH+]nc2c2ccccc21 (3D coordinates assigned)
CCN(C)CCn1c(=O)n2c(C(F)(F)F)[nH+]nc2c2ccccc21 (optimized conformer: 95.48489023982708 kcal/mol)

>  <smiles>  (2) 
CCN(C)CCn1c(=O)n2c(C(F)(F)F)nnc2c2ccccc21

>  <score_type>  (2) 
oracle

>  <origin>  (2) 
adg

>  <m_score__min__energy>  (2) 
-7.3600000000000003

>  <m_primary>  (2) 
energy

$$$$
2:0
     RDKit          3D

 42 44  0  0  0  0  0  0  0  0999 V2000
   -6.1440   25.2590  -29.7170 C   0  0  0  0  0  0  0  0  0  0  0  0
   -5.0600   25.2160  -30.8010 C   0  0  0  0  0  0  0  0  0  0  0  0
   -3.9570   24.2620  -30.5400 N   0  0  0  0  0  0  0  0  0  0  0  0
   -3.1510   24.5050  -29.3330 C   0  0  0  0  0  0  0  0  0  0  0  0
   -4.2330   22.8410  -30.8400 C   0  0  0  0  0  0  0  0  0  0  0  0
   -3.5250   22.3000  -32.1030 C   0  0  0  0  0  0  0  0  0  0  0  0
   -4.5010   21.8910  -33.1140 N   0  0  0  0  0  0  0  0  0  0  0  0
   -5.5780   20.9960  -32.7940 C   0  0  0  0  0  0  0  0  0  0  0  0
   -6.8540   21.4700  -32.4220 C   0  0  0  0  0  0  0  0  0  0  0  0
   -7.0860   22.8490  -32.2480 C   0  0  0  0  0  0  0  0  0  0  0  0
   -8.3600   23.3260  -31.9530 C   0  0  0  0  0  0  0  0  0  0  0  0
   -9.4240   22.4400  -31.8260 C   0  0  0  0  0  0  0  0  0  0  0  0
   -9.2160   21.0670  -31.9570 C   0  0  0  0  0  0  0  0  0  0  0  0
   -7.9240   20.5420  -32.2150 C   0  0  0  0  0  0  0  0  0  0  0  0
   -7.6940   19.1760  -32.2800 N   0  0  0  0  0  0  0  0  0  0  0  0
   -8.7530   18.2110  -31.9240 C   0  0  0  0  0  0  0  0  0  0  0  0
   -6.4590   18.7240  -32.6790 C   0  0  0  0  0  0  0  0  0  0  0  0
   -6.1620   17.4130  -32.9010 N   0  0  0  0  0  0  0  0  0  0  0  0
   -4.5790   17.4770  -33.3490 S   0  0  0  0  0  0  0  0  0  0  0  0
   -4.1960   19.0820  -33.3010 N   0  0  0  0  0  0  0  0  0  0  0  0
   -5.3840   19.6240  -32.9120 C   0  0  0  0  0  0  0  0  0  0  0  0
   -5.6707   25.2402  -28.7242 H   0  0  0  0  0  0  0  0  0  0  0  0
   -6.7338   26.1812  -29.8246 H   0  0  0  0  0  0  0  0  0  0  0  0
   -6.8050   24.3864  -29.8246 H   0  0  0  0  0  0  0  0  0  0  0  0
   -5.5375   24.9351  -31.7513 H   0  0  0  0  0  0  0  0  0  0  0  0
   -4.6045   26.2170  -30.8229 H   0  0  0  0  0  0  0  0  0  0  0  0
   -3.7646   24.3200  -28.4390 H   0  0  0  0  0  0  0  0  0  0  0  0
   -2.2837   23.8284  -29.3289 H   0  0  0  0  0  0  0  0  0  0  0  0
   -2.8022   25.5482  -29.3289 H   0  0  0  0  0  0  0  0  0  0  0  0
   -3.9063   22.2390  -29.9793 H   0  0  0  0  0  0  0  0  0  0  0  0
   -5.3134   22.7676  -31.0331 H   0  0  0  0  0  0  0  0  0  0  0  0
   -2.8822   23.0886  -32.5212 H   0  0  0  0  0  0  0  0  0  0  0  0
   -2.9234   21.4235  -31.8204 H   0  0  0  0  0  0  0  0  0  0  0  0
   -4.6190   22.5170  -33.9440 H   0  0  0  0  0  0  0  0  0  0  0  0
   -6.2501   23.5572  -32.3465 H   0  0  0  0  0  0  0  0  0  0  0  0
   -8.5252   24.4054  -31.8202 H   0  0  0  0  0  0  0  0  0  0  0  0
  -10.4344   22.8236  -31.6213 H   0  0  0  0  0  0  0  0  0  0  0  0
  -10.0689   20.3794  -31.8585 H   0  0  0  0  0  0  0  0  0  0  0  0
   -8.8312   18.1398  -30.8291 H   0  0  0  0  0  0  0  0  0  0  0  0
   -9.7134   18.5510  -32.3388 H   0  0  0  0  0  0  0  0  0  0  0  0
   -8.5035   17.2232  -32.3388 H   0  0  0  0  0  0  0  0  0  0  0  0
   -6.7640   16.5610  -32.8630 H   0  0  0  0  0  0  0  0  0  0  0  0
  1  2  1  0
  2  3  1  0
  3  4  1  0
  3  5  1  0
  5  6  1  0
  6  7  1  0
  7  8  1  0
  8  9  2  0
  9 10  1  0
 10 11  2  0
 11 12  1  0
 12 13  2  0
 13 14  1  0
 14 15  2  0
 15 16  1  0
 15 17  1  0
 17 18  2  0
 18 19  1  0
 19 20  1  0
 20 21  2  0
 21  8  1  0
 14  9  1  0
 21 17  1  0
  1 22  1  0
  1 23  1  0
  1 24  1  0
  2 25  1  0
  2 26  1  0
  4 27  1  0
  4 28  1  0
  4 29  1  0
  5 30  1  0
  5 31  1  0
  6 32  1  0
  6 33  1  0
  7 34  1  0
 10 35  1  0
 11 36  1  0
 12 37  1  0
 13 38  1  0
 16 39  1  0
 16 40  1  0
 16 41  1  0
 18 42  1  0
M  CHG  2  15   1  18   1
M  END
>  <UniqueID>  (3) 
3

>  <SMILES>  (3) 
CCN(C)CCNc1c2ccccc2[n+](C)c2[nH+]snc12

>  <Energy>  (3) 
108.08262304511423

>  <Genealogy>  (3) 
CCN(C)CCNc1c2ccccc2[n+](C)c2[nH+]snc12 (protonated)
CCN(C)CCNc1c2ccccc2[n+](C)c2[nH+]snc12 (3D coordinates assigned)
CCN(C)CCNc1c2ccccc2[n+](C)c2[nH+]snc12 (optimized conformer: 108.08262304511423 kcal/mol)

>  <smiles>  (3) 
CCN(C)CCNc1c2ccccc2[n+](C)c2nsnc12

>  <score_type>  (3) 
oracle

>  <origin>  (3) 
adg

>  <m_score__min__energy>  (3) 
-7.2800000000000002

>  <m_primary>  (3) 
energy

$$$$
3:0
     RDKit          3D

 56 58  0  0  0  0  0  0  0  0999 V2000
   -2.9290   20.6820  -33.2000 C   0  0  0  0  0  0  0  0  0  0  0  0
   -1.7730   21.5610  -32.9530 N   0  0  0  0  0  0  0  0  0  0  0  0
   -0.6600   21.1710  -33.8430 C   0  0  0  0  0  0  0  0  0  0  0  0
   -1.3650   21.4930  -31.5300 C   0  0  0  0  0  0  0  0  0  0  0  0
   -2.3440   20.6400  -30.7200 C   0  0  0  0  0  0  0  0  0  0  0  0
   -1.7130   20.2370  -29.5140 O   0  0  0  0  0  0  0  0  0  0  0  0
   -2.4650   20.6280  -28.3810 C   0  0  0  0  0  0  0  0  0  0  0  0
   -2.3340   22.1370  -28.1490 C   0  0  0  0  0  0  0  0  0  0  0  0
   -3.5310   22.6630  -27.6090 O   0  0  0  0  0  0  0  0  0  0  0  0
   -3.4990   24.0780  -27.5520 C   0  0  0  0  0  0  0  0  0  0  0  0
   -2.4640   24.6370  -28.5280 C   0  0  0  0  0  0  0  0  0  0  0  0
   -3.1080   25.0540  -29.7310 O   0  0  0  0  0  0  0  0  0  0  0  0
   -4.2750   24.4700  -30.2480 C   0  0  0  0  0  0  0  0  0  0  0  0
   -5.4700   25.2030  -30.1910 C   0  0  0  0  0  0  0  0  0  0  0  0
   -6.6610   24.6700  -30.6960 C   0  0  0  0  0  0  0  0  0  0  0  0
   -6.6700   23.3850  -31.2650 C   0  0  0  0  0  0  0  0  0  0  0  0
   -7.8350   22.8080  -31.7940 C   0  0  0  0  0  0  0  0  0  0  0  0
   -8.9300   23.4360  -31.7900 O   0  0  0  0  0  0  0  0  0  0  0  0
   -7.7780   21.5270  -32.3430 C   0  0  0  0  0  0  0  0  0  0  0  0
   -6.5510   20.8370  -32.3600 C   0  0  0  0  0  0  0  0  0  0  0  0
   -6.4220   19.4760  -32.9410 C   0  0  0  0  0  0  0  0  0  0  0  0
   -6.8280   18.3220  -32.2370 C   0  0  0  0  0  0  0  0  0  0  0  0
   -6.6910   17.0560  -32.8170 C   0  0  0  0  0  0  0  0  0  0  0  0
   -6.1440   16.9230  -34.0980 C   0  0  0  0  0  0  0  0  0  0  0  0
   -5.7230   18.0550  -34.7970 C   0  0  0  0  0  0  0  0  0  0  0  0
   -5.8570   19.3230  -34.2230 C   0  0  0  0  0  0  0  0  0  0  0  0
   -5.4630   21.4220  -31.8580 O   0  0  0  0  0  0  0  0  0  0  0  0
   -5.4710   22.6400  -31.3230 C   0  0  0  0  0  0  0  0  0  0  0  0
   -4.2820   23.1810  -30.8180 C   0  0  0  0  0  0  0  0  0  0  0  0
   -3.3552   20.3580  -32.2391 H   0  0  0  0  0  0  0  0  0  0  0  0
   -3.6912   21.2308  -33.7727 H   0  0  0  0  0  0  0  0  0  0  0  0
   -2.6039   19.8009  -33.7727 H   0  0  0  0  0  0  0  0  0  0  0  0
    0.2058   20.8676  -33.2360 H   0  0  0  0  0  0  0  0  0  0  0  0
   -0.9756   20.3299  -34.4778 H   0  0  0  0  0  0  0  0  0  0  0  0
   -0.3816   22.0251  -34.4778 H   0  0  0  0  0  0  0  0  0  0  0  0
   -0.3609   21.0487  -31.4643 H   0  0  0  0  0  0  0  0  0  0  0  0
   -1.3626   22.5123  -31.1166 H   0  0  0  0  0  0  0  0  0  0  0  0
   -3.2428   21.2299  -30.4873 H   0  0  0  0  0  0  0  0  0  0  0  0
   -2.6364   19.7537  -31.3022 H   0  0  0  0  0  0  0  0  0  0  0  0
   -3.5234   20.3767  -28.5439 H   0  0  0  0  0  0  0  0  0  0  0  0
   -2.0824   20.0962  -27.4974 H   0  0  0  0  0  0  0  0  0  0  0  0
   -1.5078   22.3246  -27.4475 H   0  0  0  0  0  0  0  0  0  0  0  0
   -2.1336   22.6281  -29.1127 H   0  0  0  0  0  0  0  0  0  0  0  0
   -4.4919   24.4721  -27.8144 H   0  0  0  0  0  0  0  0  0  0  0  0
   -3.2231   24.3837  -26.5320 H   0  0  0  0  0  0  0  0  0  0  0  0
   -1.9566   25.4980  -28.0683 H   0  0  0  0  0  0  0  0  0  0  0  0
   -1.7277   23.8544  -28.7634 H   0  0  0  0  0  0  0  0  0  0  0  0
   -5.4705   26.2082  -29.7442 H   0  0  0  0  0  0  0  0  0  0  0  0
   -7.5902   25.2567  -30.6477 H   0  0  0  0  0  0  0  0  0  0  0  0
   -8.6832   21.0603  -32.7587 H   0  0  0  0  0  0  0  0  0  0  0  0
   -7.2542   18.4183  -31.2275 H   0  0  0  0  0  0  0  0  0  0  0  0
   -7.0145   16.1620  -32.2638 H   0  0  0  0  0  0  0  0  0  0  0  0
   -6.0459   15.9267  -34.5538 H   0  0  0  0  0  0  0  0  0  0  0  0
   -5.2852   17.9497  -35.8006 H   0  0  0  0  0  0  0  0  0  0  0  0
   -5.5179   20.2102  -34.7778 H   0  0  0  0  0  0  0  0  0  0  0  0
   -3.3505   22.5980  -30.8664 H   0  0  0  0  0  0  0  0  0  0  0  0
  1  2  1  0
  2  3  1  0
  2  4  1  0
  4  5  1  0
  5  6  1  0
  6  7  1  0
  7  8  1  0
  8  9  1  0
  9 10  1  0
 10 11  1  0
 11 12  1  0
 12 13  1  0
 13 14  2  0
 14 15  1  0
 15 16  2  0
 16 17  1  0
 17 18  2  0
 17 19  1  0
 19 20  2  0
 20 21  1  0
 21 22  2  0
 22 23  1  0
 23 24  2  0
 24 25  1  0
 25 26  2  0
 20 27  1  0
 27 28  1  0
 28 29  2  0
 29 13  1  0
 28 16  1  0
 26 21  1  0
  1 30  1  0
  1 31  1  0
  1 32  1  0
  3 33  1  0
  3 34  1  0
  3 35  1  0
  4 36  1  0
  4 37  1  0
  5 38  1  0
  5 39  1  0
  7 40  1  0
  7 41  1  0
  8 42  1  0
  8 43  1  0
 10 44  1  0
 10 45  1  0
 11 46  1  0
 11 47  1  0
 14 48  1  0
 15 49  1  0
 19 50  1  0
 22 51  1  0
 23 52  1  0
 24 53  1  0
 25 54  1  0
 26 55  1  0
 29 56  1  0
M  END
>  <UniqueID>  (4) 
4

>  <SMILES>  (4) 
CN(C)CCOCCOCCOc1ccc2c(=O)cc(-c3ccccc3)oc2c1

>  <Energy>  (4) 
67.79337504490181

>  <Genealogy>  (4) 
CN(C)CCOCCOCCOc1ccc2c(=O)cc(-c3ccccc3)oc2c1 (3D coordinates assigned)
CN(C)CCOCCOCCOc1ccc2c(=O)cc(-c3ccccc3)oc2c1 (optimized conformer: 67.79337504490181 kcal/mol)

>  <smiles>  (4) 
CN(C)CCOCCOCCOc1ccc2c(=O)cc(-c3ccccc3)oc2c1

>  <score_type>  (4) 
oracle

>  <origin>  (4) 
adg

>  <m_score__min__energy>  (4) 
-9.2300000000000004

>  <m_primary>  (4) 
energy

$$$$
4:0
     RDKit          3D

 43 44  0  0  0  0  0  0  0  0999 V2000
   -4.8810   15.4020  -32.4430 C   0  0  0  0  0  0  0  0  0  0  0  0
   -5.7040   15.9520  -33.6030 C   0  0  0  0  0  0  0  0  0  0  0  0
   -6.3550   17.2510  -33.2310 C   0  0  0  0  0  0  0  0  0  0  0  0
   -7.6300   17.3350  -32.7780 N   0  0  0  0  0  0  0  0  0  0  0  0
   -7.7730   18.6420  -32.4700 C   0  0  0  0  0  0  0  0  0  0  0  0
   -8.9280   19.2360  -31.9720 C   0  0  0  0  0  0  0  0  0  0  0  0
   -8.8950   20.6150  -31.7120 C   0  0  0  0  0  0  0  0  0  0  0  0
   -7.7190   21.3700  -31.9480 C   0  0  0  0  0  0  0  0  0  0  0  0
   -7.7030   22.8270  -31.6780 C   0  0  0  0  0  0  0  0  0  0  0  0
   -8.7180   23.5190  -31.9650 O   0  0  0  0  0  0  0  0  0  0  0  0
   -6.5570   23.4590  -31.0810 N   0  0  0  0  0  0  0  0  0  0  0  0
   -6.4820   24.9010  -30.8560 C   0  0  0  0  0  0  0  0  0  0  0  0
   -5.0760   25.3010  -30.4160 C   0  0  0  0  0  0  0  0  0  0  0  0
   -4.1490   24.3280  -30.8480 O   0  0  0  0  0  0  0  0  0  0  0  0
   -3.6640   23.6150  -29.7330 C   0  0  0  0  0  0  0  0  0  0  0  0
   -6.5860   20.7060  -32.4640 C   0  0  0  0  0  0  0  0  0  0  0  0
   -6.6640   19.3690  -32.6880 N   0  0  0  0  0  0  0  0  0  0  0  0
   -5.7590   18.5040  -33.1720 C   0  0  0  0  0  0  0  0  0  0  0  0
   -4.3940   18.8350  -33.4820 N   0  0  0  0  0  0  0  0  0  0  0  0
   -3.6330   19.7150  -32.5970 C   0  0  0  0  0  0  0  0  0  0  0  0
   -3.7060   18.1830  -34.5940 C   0  0  0  0  0  0  0  0  0  0  0  0
   -5.3390   15.7081  -31.4909 H   0  0  0  0  0  0  0  0  0  0  0  0
   -4.8542   14.3038  -32.5007 H   0  0  0  0  0  0  0  0  0  0  0  0
   -3.8561   15.7973  -32.5007 H   0  0  0  0  0  0  0  0  0  0  0  0
   -5.0435   16.1151  -34.4674 H   0  0  0  0  0  0  0  0  0  0  0  0
   -6.4904   15.2240  -33.8513 H   0  0  0  0  0  0  0  0  0  0  0  0
   -9.8371   18.6447  -31.7880 H   0  0  0  0  0  0  0  0  0  0  0  0
   -9.7927   21.1157  -31.3204 H   0  0  0  0  0  0  0  0  0  0  0  0
   -5.8120   22.8680  -30.6480 H   0  0  0  0  0  0  0  0  0  0  0  0
   -6.7325   25.4265  -31.7893 H   0  0  0  0  0  0  0  0  0  0  0  0
   -7.1942   25.1750  -30.0637 H   0  0  0  0  0  0  0  0  0  0  0  0
   -4.8173   26.2745  -30.8580 H   0  0  0  0  0  0  0  0  0  0  0  0
   -5.0439   25.3740  -29.3189 H   0  0  0  0  0  0  0  0  0  0  0  0
   -3.9992   24.1078  -28.8085 H   0  0  0  0  0  0  0  0  0  0  0  0
   -4.0498   22.5852  -29.7602 H   0  0  0  0  0  0  0  0  0  0  0  0
   -2.5645   23.5955  -29.7602 H   0  0  0  0  0  0  0  0  0  0  0  0
   -5.6601   21.2592  -32.6800 H   0  0  0  0  0  0  0  0  0  0  0  0
   -3.8528   19.4608  -31.5496 H   0  0  0  0  0  0  0  0  0  0  0  0
   -2.5574   19.5857  -32.7877 H   0  0  0  0  0  0  0  0  0  0  0  0
   -3.9161   20.7607  -32.7877 H   0  0  0  0  0  0  0  0  0  0  0  0
   -2.9605   17.4765  -34.2003 H   0  0  0  0  0  0  0  0  0  0  0  0
   -4.4376   17.6389  -35.2094 H   0  0  0  0  0  0  0  0  0  0  0  0
   -3.2020   18.9428  -35.2094 H   0  0  0  0  0  0  0  0  0  0  0  0
  1  2  1  0
  2  3  1  0
  3  4  1  0
  4  5  2  0
  5  6  1  0
  6  7  2  0
  7  8  1  0
  8  9  1  0
  9 10  2  0
  9 11  1  0
 11 12  1  0
 12 13  1  0
 13 14  1  0
 14 15  1  0
  8 16  2  0
 16 17  1  0
 17 18  1  0
 18 19  1  0
 19 20  1  0
 19 21  1  0
 18  3  2  0
 17  5  1  0
  1 22  1  0
  1 23  1  0
  1 24  1  0
  2 25  1  0
  2 26  1  0
  6 27  1  0
  7 28  1  0
 11 29  1  0
 12 30  1  0
 12 31  1  0
 13 32  1  0
 13 33  1  0
 15 34  1  0
 15 35  1  0
 15 36  1  0
 16 37  1  0
 20 38  1  0
 20 39  1  0
 20 40  1  0
 21 41  1  0
 21 42  1  0
 21 43  1  0
M  END
>  <UniqueID>  (5) 
5

>  <SMILES>  (5) 
CCc1nc2ccc(C(=O)NCCOC)cn2c1N(C)C

>  <Energy>  (5) 
76.46228964973785

>  <Genealogy>  (5) 
CCc1nc2ccc(C(=O)NCCOC)cn2c1N(C)C (3D coordinates assigned)
CCc1nc2ccc(C(=O)NCCOC)cn2c1N(C)C (optimized conformer: 76.46228964973785 kcal/mol)

>  <smiles>  (5) 
CCc1nc2ccc(C(=O)NCCOC)cn2c1N(C)C

>  <score_type>  (5) 
oracle

>  <origin>  (5) 
adg

>  <m_score__min__energy>  (5) 
-7.5199999999999996

>  <m_primary>  (5) 
energy

$$$$
5:0
     RDKit          3D

 46 47  0  0  0  0  0  0  0  0999 V2000
   -1.6480   25.5240  -28.1880 C   0  0  0  0  0  0  0  0  0  0  0  0
   -2.2770   25.1200  -29.3830 O   0  0  0  0  0  0  0  0  0  0  0  0
   -1.9380   23.7760  -29.6650 C   0  0  0  0  0  0  0  0  0  0  0  0
   -3.1660   23.0340  -30.2440 C   0  0  2  0  0  0  0  0  0  0  0  0
   -2.6360   21.8970  -31.1570 C   0  0  0  0  0  0  0  0  0  0  0  0
   -3.9840   24.0500  -30.9710 N   0  0  0  0  0  0  0  0  0  0  0  0
   -5.4320   24.2110  -30.7170 C   0  0  1  0  0  0  0  0  0  0  0  0
   -5.7500   25.5930  -30.1360 C   0  0  0  0  0  0  0  0  0  0  0  0
   -6.2000   24.0020  -32.0370 C   0  0  0  0  0  0  0  0  0  0  0  0
   -6.9870   22.7550  -31.9890 N   0  0  0  0  0  0  0  0  0  0  0  0
   -8.2900   22.8140  -31.5770 C   0  0  0  0  0  0  0  0  0  0  0  0
   -9.0840   21.6700  -31.5620 C   0  0  0  0  0  0  0  0  0  0  0  0
   -8.5500   20.4560  -31.9770 C   0  0  0  0  0  0  0  0  0  0  0  0
   -7.2160   20.3840  -32.4080 C   0  0  0  0  0  0  0  0  0  0  0  0
   -6.6240   19.0770  -32.8890 C   0  0  0  0  0  0  0  0  0  0  0  0
   -5.5090   18.7720  -32.1300 F   0  0  0  0  0  0  0  0  0  0  0  0
   -7.5580   18.0660  -32.7490 F   0  0  0  0  0  0  0  0  0  0  0  0
   -6.2460   19.1420  -34.2190 F   0  0  0  0  0  0  0  0  0  0  0  0
   -6.4420   21.5650  -32.4070 C   0  0  0  0  0  0  0  0  0  0  0  0
   -5.2430   21.5200  -32.7980 O   0  0  0  0  0  0  0  0  0  0  0  0
   -3.9170   22.3360  -29.0580 C   0  0  0  0  0  0  0  0  0  0  0  0
   -3.0760   21.8140  -27.8960 C   0  0  0  0  0  0  0  0  0  0  0  0
   -4.0160   22.9910  -27.6830 C   0  0  0  0  0  0  0  0  0  0  0  0
   -2.2242   25.1539  -27.3271 H   0  0  0  0  0  0  0  0  0  0  0  0
   -0.6291   25.1110  -28.1522 H   0  0  0  0  0  0  0  0  0  0  0  0
   -1.5999   26.6224  -28.1522 H   0  0  0  0  0  0  0  0  0  0  0  0
   -1.1185   23.7526  -30.3984 H   0  0  0  0  0  0  0  0  0  0  0  0
   -1.6198   23.2800  -28.7362 H   0  0  0  0  0  0  0  0  0  0  0  0
   -2.2529   21.0752  -30.5342 H   0  0  0  0  0  0  0  0  0  0  0  0
   -3.4537   21.5254  -31.7920 H   0  0  0  0  0  0  0  0  0  0  0  0
   -1.8256   22.2843  -31.7920 H   0  0  0  0  0  0  0  0  0  0  0  0
   -3.5020   24.9480  -31.1970 H   0  0  0  0  0  0  0  0  0  0  0  0
   -5.7441   23.4604  -29.9759 H   0  0  0  0  0  0  0  0  0  0  0  0
   -5.7379   25.5405  -29.0373 H   0  0  0  0  0  0  0  0  0  0  0  0
   -4.9949   26.3166  -30.4768 H   0  0  0  0  0  0  0  0  0  0  0  0
   -6.7454   25.9138  -30.4768 H   0  0  0  0  0  0  0  0  0  0  0  0
   -6.8793   24.8520  -32.1983 H   0  0  0  0  0  0  0  0  0  0  0  0
   -5.4751   23.9319  -32.8614 H   0  0  0  0  0  0  0  0  0  0  0  0
   -8.7154   23.7756  -31.2540 H   0  0  0  0  0  0  0  0  0  0  0  0
  -10.1290   21.7271  -31.2232 H   0  0  0  0  0  0  0  0  0  0  0  0
   -9.1737   19.5500  -31.9677 H   0  0  0  0  0  0  0  0  0  0  0  0
   -4.6612   21.9255  -29.7563 H   0  0  0  0  0  0  0  0  0  0  0  0
   -3.3070   20.8375  -27.4454 H   0  0  0  0  0  0  0  0  0  0  0  0
   -2.0030   21.6366  -27.7313 H   0  0  0  0  0  0  0  0  0  0  0  0
   -4.9263   22.8651  -27.0784 H   0  0  0  0  0  0  0  0  0  0  0  0
   -3.9033   24.0162  -27.3007 H   0  0  0  0  0  0  0  0  0  0  0  0
  1  2  1  0
  2  3  1  0
  3  4  1  0
  4  5  1  0
  4  6  1  6
  6  7  1  0
  7  8  1  0
  7  9  1  0
  9 10  1  0
 10 11  1  0
 11 12  2  0
 12 13  1  0
 13 14  2  0
 14 15  1  0
 15 16  1  0
 15 17  1  0
 15 18  1  0
 14 19  1  0
 19 20  2  0
  4 21  1  0
 21 22  1  0
 22 23  1  0
 19 10  1  0
 23 21  1  0
  1 24  1  0
  1 25  1  0
  1 26  1  0
  3 27  1  0
  3 28  1  0
  5 29  1  0
  5 30  1  0
  5 31  1  0
  6 32  1  0
  7 33  1  1
  8 34  1  0
  8 35  1  0
  8 36  1  0
  9 37  1  0
  9 38  1  0
 11 39  1  0
 12 40  1  0
 13 41  1  0
 21 42  1  0
 22 43  1  0
 22 44  1  0
 23 45  1  0
 23 46  1  0
M  END
>  <UniqueID>  (6) 
6

>  <SMILES>  (6) 
COC[C@](C)(N[C@@H](C)Cn1cccc(C(F)(F)F)c1=O)C1CC1

>  <Energy>  (6) 
323.2141282160618

>  <Genealogy>  (6) 
COC[C@](C)(N[C@@H](C)Cn1cccc(C(F)(F)F)c1=O)C1CC1 (chirality)
COC[C@](C)(N[C@@H](C)Cn1cccc(C(F)(F)F)c1=O)C1CC1 (3D coordinates assigned)
COC[C@](C)(N[C@@H](C)Cn1cccc(C(F)(F)F)c1=O)C1CC1 (nonaromatic ring conformer: 323.2141282160618 kcal/mol)

>  <smiles>  (6) 
COCC(C)(NC(C)Cn1cccc(C(F)(F)F)c1=O)C1CC1

>  <score_type>  (6) 
oracle

>  <origin>  (6) 
adg

>  <m_score__min__energy>  (6) 
-7.6100000000000003

>  <m_primary>  (6) 
energy

$$$$
6:0
     RDKit          3D

 34 34  0  0  0  0  0  0  0  0999 V2000
   -3.2770   17.7090  -34.1090 C   0  0  0  0  0  0  0  0  0  0  0  0
   -4.6160   16.9890  -34.2530 C   0  0  0  0  0  0  0  0  0  0  0  0
   -5.6550   17.8870  -34.9470 C   0  0  0  0  0  0  0  0  0  0  0  0
   -6.4810   18.6320  -33.9790 N   0  0  0  0  0  0  0  0  0  0  0  0
   -7.1950   17.7330  -33.0540 C   0  0  0  0  0  0  0  0  0  0  0  0
   -8.1350   18.5010  -32.1070 C   0  0  0  0  0  0  0  0  0  0  0  0
   -8.5650   19.8770  -32.6470 C   0  0  0  0  0  0  0  0  0  0  0  0
   -7.4530   20.6960  -33.0190 O   0  0  0  0  0  0  0  0  0  0  0  0
   -6.9660   21.8300  -32.3430 C   0  0  0  0  0  0  0  0  0  0  0  0
   -7.9190   22.6260  -31.6900 C   0  0  0  0  0  0  0  0  0  0  0  0
   -7.5460   23.7950  -31.0270 C   0  0  0  0  0  0  0  0  0  0  0  0
   -6.2070   24.1780  -30.9900 C   0  0  0  0  0  0  0  0  0  0  0  0
   -5.7360   25.6480  -30.1550 Cl  0  0  0  0  0  0  0  0  0  0  0  0
   -5.2380   23.3810  -31.6040 C   0  0  0  0  0  0  0  0  0  0  0  0
   -5.5980   22.2030  -32.2720 C   0  0  0  0  0  0  0  0  0  0  0  0
   -4.1510   21.1390  -32.9390 Br  0  0  0  0  0  0  0  0  0  0  0  0
   -3.0416   17.8356  -33.0420 H   0  0  0  0  0  0  0  0  0  0  0  0
   -2.4871   17.1140  -34.5907 H   0  0  0  0  0  0  0  0  0  0  0  0
   -3.3378   18.6961  -34.5907 H   0  0  0  0  0  0  0  0  0  0  0  0
   -4.4715   16.0776  -34.8518 H   0  0  0  0  0  0  0  0  0  0  0  0
   -4.9871   16.7365  -33.2487 H   0  0  0  0  0  0  0  0  0  0  0  0
   -5.1280   18.6064  -35.5909 H   0  0  0  0  0  0  0  0  0  0  0  0
   -6.3231   17.2397  -35.5341 H   0  0  0  0  0  0  0  0  0  0  0  0
   -5.8860   19.3090  -33.4450 H   0  0  0  0  0  0  0  0  0  0  0  0
   -7.1900   19.1740  -34.5240 H   0  0  0  0  0  0  0  0  0  0  0  0
   -7.7905   17.0194  -33.6424 H   0  0  0  0  0  0  0  0  0  0  0  0
   -6.4442   17.2158  -32.4386 H   0  0  0  0  0  0  0  0  0  0  0  0
   -9.0376   17.8935  -31.9451 H   0  0  0  0  0  0  0  0  0  0  0  0
   -7.5782   18.6800  -31.1754 H   0  0  0  0  0  0  0  0  0  0  0  0
   -9.2014   19.7248  -33.5312 H   0  0  0  0  0  0  0  0  0  0  0  0
   -9.1052   20.3960  -31.8415 H   0  0  0  0  0  0  0  0  0  0  0  0
   -8.9765   22.3235  -31.7011 H   0  0  0  0  0  0  0  0  0  0  0  0
   -8.3091   24.4146  -30.5333 H   0  0  0  0  0  0  0  0  0  0  0  0
   -4.1806   23.6814  -31.5627 H   0  0  0  0  0  0  0  0  0  0  0  0
  1  2  1  0
  2  3  1  0
  3  4  1  0
  4  5  1  0
  5  6  1  0
  6  7  1  0
  7  8  1  0
  8  9  1  0
  9 10  2  0
 10 11  1  0
 11 12  2  0
 12 13  1  0
 12 14  1  0
 14 15  2  0
 15 16  1  0
 15  9  1  0
  1 17  1  0
  1 18  1  0
  1 19  1  0
  2 20  1  0
  2 21  1  0
  3 22  1  0
  3 23  1  0
  4 24  1  0
  4 25  1  0
  5 26  1  0
  5 27  1  0
  6 28  1  0
  6 29  1  0
  7 30  1  0
  7 31  1  0
 10 32  1  0
 11 33  1  0
 14 34  1  0
M  CHG  1   4   1
M  END
>  <UniqueID>  (7) 
7

>  <SMILES>  (7) 
CCC[NH2+]CCCOc1ccc(Cl)cc1Br

>  <Energy>  (7) 
32.84066984974102

>  <Genealogy>  (7) 
CCC[NH2+]CCCOc1ccc(Cl)cc1Br (protonated)
CCC[NH2+]CCCOc1ccc(Cl)cc1Br (3D coordinates assigned)
CCC[NH2+]CCCOc1ccc(Cl)cc1Br (optimized conformer: 32.84066984974102 kcal/mol)

>  <smiles>  (7) 
CCCNCCCOc1ccc(Cl)cc1Br

>  <score_type>  (7) 
oracle

>  <origin>  (7) 
adg

>  <m_score__min__energy>  (7) 
-5.1799999999999997

>  <m_primary>  (7) 
energy

$$$$
7:0
     RDKit          3D

 68 71  0  0  0  0  0  0  0  0999 V2000
   -8.0980   22.1360  -31.0790 C   0  0  0  0  0  0  0  0  0  0  0  0
   -7.2490   23.0280  -30.1670 C   0  0  0  0  0  0  0  0  0  0  0  0
   -6.1210   23.7020  -30.8480 N   0  0  0  0  0  0  0  0  0  0  0  0
   -6.0650   25.1760  -30.7230 C   0  0  0  0  0  0  0  0  0  0  0  0
   -6.4640   25.7180  -29.3390 C   0  0  0  0  0  0  0  0  0  0  0  0
   -5.7460   23.1510  -32.1680 C   0  0  0  0  0  0  0  0  0  0  0  0
   -4.2870   22.6840  -32.1560 C   0  0  0  0  0  0  0  0  0  0  0  0
   -3.5870   23.2000  -30.9800 N   0  0  0  0  0  0  0  0  0  0  0  0
   -2.4870   22.4920  -30.3870 C   0  0  0  0  0  0  0  0  0  0  0  0
   -2.2610   21.1720  -30.7870 C   0  0  0  0  0  0  0  0  0  0  0  0
   -1.3030   20.3940  -30.1620 C   0  0  0  0  0  0  0  0  0  0  0  0
   -0.5310   20.9070  -29.1150 C   0  0  0  0  0  0  0  0  0  0  0  0
    0.3390   20.0060  -28.4100 N   0  0  0  0  0  0  0  0  0  0  0  0
   -0.1380   18.7520  -27.8310 C   0  0  0  0  0  0  0  0  0  0  0  0
    0.3020   17.5680  -28.7050 C   0  0  0  0  0  0  0  0  0  0  0  0
    1.7670   17.3520  -28.7230 N   0  0  0  0  0  0  0  0  0  0  0  0
    2.4540   17.8580  -29.9290 C   0  0  0  0  0  0  0  0  0  0  0  0
    2.9980   19.2980  -29.7610 C   0  0  0  0  0  0  0  0  0  0  0  0
    2.9160   19.7820  -28.4350 O   0  0  0  0  0  0  0  0  0  0  0  0
    3.4260   18.8160  -27.5460 C   0  0  0  0  0  0  0  0  0  0  0  0
    2.4540   17.6340  -27.4420 C   0  0  0  0  0  0  0  0  0  0  0  0
   -0.6800   22.2710  -28.7230 C   0  0  0  0  0  0  0  0  0  0  0  0
    0.1730   22.8620  -27.7500 C   0  0  0  0  0  0  0  0  0  0  0  0
    1.2660   22.1310  -27.2670 O   0  0  0  0  0  0  0  0  0  0  0  0
   -0.0530   24.1900  -27.3160 C   0  0  0  0  0  0  0  0  0  0  0  0
    0.6690   24.7570  -26.2400 C   0  0  0  0  0  0  0  0  0  0  0  0
    0.4630   26.0840  -25.8600 C   0  0  0  0  0  0  0  0  0  0  0  0
   -0.4670   26.8690  -26.5340 C   0  0  0  0  0  0  0  0  0  0  0  0
   -1.2100   26.3250  -27.5800 C   0  0  0  0  0  0  0  0  0  0  0  0
   -1.0240   24.9830  -27.9740 C   0  0  0  0  0  0  0  0  0  0  0  0
   -1.7900   24.4430  -29.0180 C   0  0  0  0  0  0  0  0  0  0  0  0
   -2.6470   25.2890  -29.7180 O   0  0  0  0  0  0  0  0  0  0  0  0
   -1.6730   23.0740  -29.3700 C   0  0  0  0  0  0  0  0  0  0  0  0
   -8.7267   21.4755  -30.4638 H   0  0  0  0  0  0  0  0  0  0  0  0
   -8.7390   22.7653  -31.7139 H   0  0  0  0  0  0  0  0  0  0  0  0
   -7.4378   21.5269  -31.7139 H   0  0  0  0  0  0  0  0  0  0  0  0
   -7.9026   23.8012  -29.7369 H   0  0  0  0  0  0  0  0  0  0  0  0
   -6.8068   22.3680  -29.4061 H   0  0  0  0  0  0  0  0  0  0  0  0
   -5.0349   25.4992  -30.9339 H   0  0  0  0  0  0  0  0  0  0  0  0
   -6.7985   25.5772  -31.4379 H   0  0  0  0  0  0  0  0  0  0  0  0
   -6.0061   25.0960  -28.5557 H   0  0  0  0  0  0  0  0  0  0  0  0
   -6.1122   26.7551  -29.2360 H   0  0  0  0  0  0  0  0  0  0  0  0
   -7.5588   25.6902  -29.2360 H   0  0  0  0  0  0  0  0  0  0  0  0
   -6.3982   22.2969  -32.4029 H   0  0  0  0  0  0  0  0  0  0  0  0
   -5.8634   23.9363  -32.9292 H   0  0  0  0  0  0  0  0  0  0  0  0
   -4.2603   21.5845  -32.1382 H   0  0  0  0  0  0  0  0  0  0  0  0
   -3.7873   23.0642  -33.0592 H   0  0  0  0  0  0  0  0  0  0  0  0
   -3.9220   24.0780  -30.5210 H   0  0  0  0  0  0  0  0  0  0  0  0
   -2.8531   20.7458  -31.6103 H   0  0  0  0  0  0  0  0  0  0  0  0
   -1.1463   19.3569  -30.4934 H   0  0  0  0  0  0  0  0  0  0  0  0
    1.2840   20.3560  -28.1290 H   0  0  0  0  0  0  0  0  0  0  0  0
    0.2813   18.6346  -26.8209 H   0  0  0  0  0  0  0  0  0  0  0  0
   -1.2366   18.7735  -27.7791 H   0  0  0  0  0  0  0  0  0  0  0  0
   -0.1786   16.6560  -28.3214 H   0  0  0  0  0  0  0  0  0  0  0  0
   -0.0008   17.8006  -29.7366 H   0  0  0  0  0  0  0  0  0  0  0  0
    3.2975   17.1899  -30.1573 H   0  0  0  0  0  0  0  0  0  0  0  0
    1.7136   17.8806  -30.7422 H   0  0  0  0  0  0  0  0  0  0  0  0
    4.0534   19.3096  -30.0710 H   0  0  0  0  0  0  0  0  0  0  0  0
    2.3723   19.9543  -30.3837 H   0  0  0  0  0  0  0  0  0  0  0  0
    4.3977   18.4571  -27.9162 H   0  0  0  0  0  0  0  0  0  0  0  0
    3.5502   19.2700  -26.5518 H   0  0  0  0  0  0  0  0  0  0  0  0
    3.0175   16.7392  -27.1392 H   0  0  0  0  0  0  0  0  0  0  0  0
    1.6851   17.8971  -26.7006 H   0  0  0  0  0  0  0  0  0  0  0  0
    1.9220   21.6250  -27.8450 H   0  0  0  0  0  0  0  0  0  0  0  0
    1.4024   24.1441  -25.6956 H   0  0  0  0  0  0  0  0  0  0  0  0
    1.0379   26.5106  -25.0248 H   0  0  0  0  0  0  0  0  0  0  0  0
   -0.6158   27.9189  -26.2414 H   0  0  0  0  0  0  0  0  0  0  0  0
   -1.9494   26.9485  -28.1040 H   0  0  0  0  0  0  0  0  0  0  0  0
  1  2  1  0
  2  3  1  0
  3  4  1  0
  4  5  1  0
  3  6  1  0
  6  7  1  0
  7  8  1  0
  8  9  1  0
  9 10  2  0
 10 11  1  0
 11 12  2  0
 12 13  1  0
 13 14  1  0
 14 15  1  0
 15 16  1  0
 16 17  1  0
 17 18  1  0
 18 19  1  0
 19 20  1  0
 20 21  1  0
 12 22  1  0
 22 23  2  0
 23 24  1  0
 23 25  1  0
 25 26  2  0
 26 27  1  0
 27 28  2  0
 28 29  1  0
 29 30  2  0
 30 31  1  0
 31 32  1  0
 31 33  2  0
 33  9  1  0
 21 16  1  0
 33 22  1  0
 30 25  1  0
  1 34  1  0
  1 35  1  0
  1 36  1  0
  2 37  1  0
  2 38  1  0
  4 39  1  0
  4 40  1  0
  5 41  1  0
  5 42  1  0
  5 43  1  0
  6 44  1  0
  6 45  1  0
  7 46  1  0
  7 47  1  0
  8 48  1  0
 10 49  1  0
 11 50  1  0
 13 51  1  0
 14 52  1  0
 14 53  1  0
 15 54  1  0
 15 55  1  0
 17 56  1  0
 17 57  1  0
 18 58  1  0
 18 59  1  0
 20 60  1  0
 20 61  1  0
 21 62  1  0
 21 63  1  0
 24 64  1  0
 26 65  1  0
 27 66  1  0
 28 67  1  0
 29 68  1  0
M  CHG  1  32  -1
M  END
>  <UniqueID>  (8) 
8

>  <SMILES>  (8) 
CCN(CC)CCNc1ccc(NCCN2CCOCC2)c2c(O)c3ccccc3c([O-])c12

>  <Energy>  (8) 
119.26225497818733

>  <Genealogy>  (8) 
CCN(CC)CCNc1ccc(NCCN2CCOCC2)c2c(O)c3ccccc3c([O-])c12 (protonated)
CCN(CC)CCNc1ccc(NCCN2CCOCC2)c2c(O)c3ccccc3c([O-])c12 (3D coordinates assigned)
CCN(CC)CCNc1ccc(NCCN2CCOCC2)c2c(O)c3ccccc3c([O-])c12 (nonaromatic ring conformer: 119.26225497818733 kcal/mol)

>  <smiles>  (8) 
CCN(CC)CCNc1ccc(NCCN2CCOCC2)c2c(O)c3ccccc3c(O)c12

>  <score_type>  (8) 
oracle

>  <origin>  (8) 
adg

>  <m_score__min__energy>  (8) 
-9.5199999999999996

>  <m_primary>  (8) 
energy

$$$$
8:0
     RDKit          3D

 61 63  0  0  0  0  0  0  0  0999 V2000
   -5.3250   14.7280  -33.5400 C   0  0  0  0  0  0  0  0  0  0  0  0
   -4.1990   15.6280  -32.9950 C   0  0  0  0  0  0  0  0  0  0  0  0
   -4.0380   16.9180  -33.7230 N   0  0  0  0  0  0  0  0  0  0  0  0
   -4.8800   16.9490  -34.9480 C   0  0  0  0  0  0  0  0  0  0  0  0
   -5.8220   18.1590  -34.9880 C   0  0  0  0  0  0  0  0  0  0  0  0
   -2.5960   17.2150  -34.0060 C   0  0  0  0  0  0  0  0  0  0  0  0
   -2.3220   18.7180  -34.2060 C   0  0  0  0  0  0  0  0  0  0  0  0
   -3.5120   19.4500  -33.9800 O   0  0  0  0  0  0  0  0  0  0  0  0
   -3.2390   20.7260  -33.4360 C   0  0  0  0  0  0  0  0  0  0  0  0
   -3.1860   20.6200  -31.9120 C   0  0  0  0  0  0  0  0  0  0  0  0
   -4.4420   20.0810  -31.3730 N   0  0  0  0  0  0  0  0  0  0  0  0
   -5.6490   20.8650  -31.3320 C   0  0  0  0  0  0  0  0  0  0  0  0
   -5.5910   22.1920  -30.8700 C   0  0  0  0  0  0  0  0  0  0  0  0
   -4.4160   22.6960  -30.2690 C   0  0  0  0  0  0  0  0  0  0  0  0
   -4.3680   24.0000  -29.7800 C   0  0  0  0  0  0  0  0  0  0  0  0
   -2.9030   24.6010  -29.0170 Cl  0  0  0  0  0  0  0  0  0  0  0  0
   -5.4940   24.8180  -29.8700 C   0  0  0  0  0  0  0  0  0  0  0  0
   -6.6600   24.3460  -30.4780 C   0  0  0  0  0  0  0  0  0  0  0  0
   -6.7220   23.0370  -31.0240 C   0  0  0  0  0  0  0  0  0  0  0  0
   -7.8430   22.5780  -31.6910 N   0  0  0  0  0  0  0  0  0  0  0  0
   -8.8990   23.5300  -32.1130 C   0  0  0  0  0  0  0  0  0  0  0  0
   -7.9830   21.2260  -31.9580 C   0  0  0  0  0  0  0  0  0  0  0  0
   -9.2230   20.6890  -32.3900 C   0  0  0  0  0  0  0  0  0  0  0  0
   -9.3620   19.3350  -32.6710 C   0  0  0  0  0  0  0  0  0  0  0  0
   -8.2930   18.4690  -32.4930 C   0  0  0  0  0  0  0  0  0  0  0  0
   -7.0540   18.9400  -32.0190 C   0  0  0  0  0  0  0  0  0  0  0  0
   -6.0070   18.0400  -31.7420 O   0  0  0  0  0  0  0  0  0  0  0  0
   -6.0910   16.9410  -30.8450 C   0  0  0  0  0  0  0  0  0  0  0  0
   -6.8810   20.3350  -31.7790 C   0  0  0  0  0  0  0  0  0  0  0  0
   -5.8794   14.2849  -32.6996 H   0  0  0  0  0  0  0  0  0  0  0  0
   -6.0104   15.3299  -34.1547 H   0  0  0  0  0  0  0  0  0  0  0  0
   -4.8889   13.9268  -34.1547 H   0  0  0  0  0  0  0  0  0  0  0  0
   -4.4175   15.8525  -31.9405 H   0  0  0  0  0  0  0  0  0  0  0  0
   -3.2593   15.0720  -33.1281 H   0  0  0  0  0  0  0  0  0  0  0  0
   -4.4260   17.6440  -33.0690 H   0  0  0  0  0  0  0  0  0  0  0  0
   -4.2205   16.9872  -35.8275 H   0  0  0  0  0  0  0  0  0  0  0  0
   -5.5032   16.0425  -34.9460 H   0  0  0  0  0  0  0  0  0  0  0  0
   -6.0638   18.4696  -33.9608 H   0  0  0  0  0  0  0  0  0  0  0  0
   -5.3302   18.9893  -35.5159 H   0  0  0  0  0  0  0  0  0  0  0  0
   -6.7476   17.8858  -35.5159 H   0  0  0  0  0  0  0  0  0  0  0  0
   -1.9912   16.8575  -33.1596 H   0  0  0  0  0  0  0  0  0  0  0  0
   -2.3311   16.7034  -34.9430 H   0  0  0  0  0  0  0  0  0  0  0  0
   -1.5489   19.0472  -33.4961 H   0  0  0  0  0  0  0  0  0  0  0  0
   -1.9744   18.8930  -35.2349 H   0  0  0  0  0  0  0  0  0  0  0  0
   -2.2714   21.0880  -33.8138 H   0  0  0  0  0  0  0  0  0  0  0  0
   -4.0301   21.4312  -33.7308 H   0  0  0  0  0  0  0  0  0  0  0  0
   -2.3582   19.9539  -31.6272 H   0  0  0  0  0  0  0  0  0  0  0  0
   -3.0331   21.6275  -31.4978 H   0  0  0  0  0  0  0  0  0  0  0  0
   -4.4500   19.1190  -30.9640 H   0  0  0  0  0  0  0  0  0  0  0  0
   -3.5285   22.0514  -30.1861 H   0  0  0  0  0  0  0  0  0  0  0  0
   -5.4640   25.8386  -29.4608 H   0  0  0  0  0  0  0  0  0  0  0  0
   -7.5436   24.9987  -30.5345 H   0  0  0  0  0  0  0  0  0  0  0  0
   -9.3793   23.9630  -31.2231 H   0  0  0  0  0  0  0  0  0  0  0  0
   -8.4491   24.3337  -32.7144 H   0  0  0  0  0  0  0  0  0  0  0  0
   -9.6519   22.9995  -32.7144 H   0  0  0  0  0  0  0  0  0  0  0  0
  -10.0900   21.3562  -32.5046 H   0  0  0  0  0  0  0  0  0  0  0  0
  -10.3247   18.9480  -33.0364 H   0  0  0  0  0  0  0  0  0  0  0  0
   -8.4151   17.4007  -32.7252 H   0  0  0  0  0  0  0  0  0  0  0  0
   -6.0628   17.3102  -29.8092 H   0  0  0  0  0  0  0  0  0  0  0  0
   -7.0332   16.3995  -31.0157 H   0  0  0  0  0  0  0  0  0  0  0  0
   -5.2421   16.2626  -31.0157 H   0  0  0  0  0  0  0  0  0  0  0  0
  1  2  1  0
  2  3  1  0
  3  4  1  0
  4  5  1  0
  3  6  1  0
  6  7  1  0
  7  8  1  0
  8  9  1  0
  9 10  1  0
 10 11  1  0
 11 12  1  0
 12 13  2  0
 13 14  1  0
 14 15  2  0
 15 16  1  0
 15 17  1  0
 17 18  2  0
 18 19  1  0
 19 20  2  0
 20 21  1  0
 20 22  1  0
 22 23  2  0
 23 24  1  0
 24 25  2  0
 25 26  1  0
 26 27  1  0
 27 28  1  0
 26 29  2  0
 29 12  1  0
 19 13  1  0
 29 22  1  0
  1 30  1  0
  1 31  1  0
  1 32  1  0
  2 33  1  0
  2 34  1  0
  3 35  1  0
  4 36  1  0
  4 37  1  0
  5 38  1  0
  5 39  1  0
  5 40  1  0
  6 41  1  0
  6 42  1  0
  7 43  1  0
  7 44  1  0
  9 45  1  0
  9 46  1  0
 10 47  1  0
 10 48  1  0
 11 49  1  0
 14 50  1  0
 17 51  1  0
 18 52  1  0
 21 53  1  0
 21 54  1  0
 21 55  1  0
 23 56  1  0
 24 57  1  0
 25 58  1  0
 28 59  1  0
 28 60  1  0
 28 61  1  0
M  CHG  2   3   1  20   1
M  END
>  <UniqueID>  (9) 
9

>  <SMILES>  (9) 
CC[NH+](CC)CCOCCNc1c2cc(Cl)ccc2[n+](C)c2cccc(OC)c12

>  <Energy>  (9) 
91.1460766695532

>  <Genealogy>  (9) 
CC[NH+](CC)CCOCCNc1c2cc(Cl)ccc2[n+](C)c2cccc(OC)c12 (protonated)
CC[NH+](CC)CCOCCNc1c2cc(Cl)ccc2[n+](C)c2cccc(OC)c12 (3D coordinates assigned)
CC[NH+](CC)CCOCCNc1c2cc(Cl)ccc2[n+](C)c2cccc(OC)c12 (optimized conformer: 91.1460766695532 kcal/mol)

>  <smiles>  (9) 
CCN(CC)CCOCCNc1c2cc(Cl)ccc2[n+](C)c2cccc(OC)c12

>  <score_type>  (9) 
oracle

>  <origin>  (9) 
adg

>  <m_score__min__energy>  (9) 
-7.2599999999999998

>  <m_primary>  (9) 
energy

$$$$
9:0
     RDKit          3D

 42 43  0  0  0  0  0  0  0  0999 V2000
   -4.8890   15.2080  -32.4080 C   0  0  0  0  0  0  0  0  0  0  0  0
   -5.7730   15.7920  -33.5200 C   0  0  0  0  0  0  0  0  0  0  0  0
   -5.6260   17.2540  -33.7180 N   0  0  0  0  0  0  0  0  0  0  0  0
   -4.8430   17.6330  -34.9130 C   0  0  0  0  0  0  0  0  0  0  0  0
   -3.3570   17.7880  -34.5930 C   0  0  0  0  0  0  0  0  0  0  0  0
   -6.8590   18.0400  -33.4680 C   0  0  0  0  0  0  0  0  0  0  0  0
   -6.6120   19.3840  -32.8240 C   0  0  0  0  0  0  0  0  0  0  0  0
   -5.3720   19.9300  -32.7470 N   0  0  0  0  0  0  0  0  0  0  0  0
   -5.5690   21.1200  -32.1520 C   0  0  0  0  0  0  0  0  0  0  0  0
   -6.8830   21.2850  -31.8730 C   0  0  0  0  0  0  0  0  0  0  0  0
   -7.3300   22.4750  -31.3070 C   0  0  0  0  0  0  0  0  0  0  0  0
   -8.5580   22.6560  -31.0820 O   0  0  0  0  0  0  0  0  0  0  0  0
   -6.4030   23.4490  -31.0160 N   0  0  0  0  0  0  0  0  0  0  0  0
   -6.8450   24.7300  -30.4410 C   0  0  0  0  0  0  0  0  0  0  0  0
   -5.0670   23.2620  -31.3350 C   0  0  0  0  0  0  0  0  0  0  0  0
   -4.2370   24.1890  -31.1180 O   0  0  0  0  0  0  0  0  0  0  0  0
   -4.6350   22.0770  -31.8930 N   0  0  0  0  0  0  0  0  0  0  0  0
   -3.2290   21.8500  -32.2550 C   0  0  0  0  0  0  0  0  0  0  0  0
   -7.5680   20.1890  -32.2690 N   0  0  0  0  0  0  0  0  0  0  0  0
   -9.0150   19.9780  -32.1820 C   0  0  0  0  0  0  0  0  0  0  0  0
   -5.3045   15.4825  -31.4271 H   0  0  0  0  0  0  0  0  0  0  0  0
   -4.8598   14.1123  -32.5002 H   0  0  0  0  0  0  0  0  0  0  0  0
   -3.8697   15.6110  -32.5002 H   0  0  0  0  0  0  0  0  0  0  0  0
   -5.5145   15.2897  -34.4639 H   0  0  0  0  0  0  0  0  0  0  0  0
   -6.8155   15.6210  -33.2133 H   0  0  0  0  0  0  0  0  0  0  0  0
   -4.9626   16.8527  -35.6791 H   0  0  0  0  0  0  0  0  0  0  0  0
   -5.2177   18.6023  -35.2735 H   0  0  0  0  0  0  0  0  0  0  0  0
   -3.2164   17.8027  -33.5021 H   0  0  0  0  0  0  0  0  0  0  0  0
   -2.7992   16.9432  -35.0233 H   0  0  0  0  0  0  0  0  0  0  0  0
   -2.9856   18.7298  -35.0233 H   0  0  0  0  0  0  0  0  0  0  0  0
   -7.3645   18.2057  -34.4308 H   0  0  0  0  0  0  0  0  0  0  0  0
   -7.4700   17.4572  -32.7630 H   0  0  0  0  0  0  0  0  0  0  0  0
   -4.4750   19.5210  -33.0890 H   0  0  0  0  0  0  0  0  0  0  0  0
   -6.8230   24.6661  -29.3431 H   0  0  0  0  0  0  0  0  0  0  0  0
   -6.1721   25.5335  -30.7751 H   0  0  0  0  0  0  0  0  0  0  0  0
   -7.8702   24.9476  -30.7751 H   0  0  0  0  0  0  0  0  0  0  0  0
   -2.6260   21.7526  -31.3402 H   0  0  0  0  0  0  0  0  0  0  0  0
   -3.1474   20.9271  -32.8479 H   0  0  0  0  0  0  0  0  0  0  0  0
   -2.8611   22.7004  -32.8479 H   0  0  0  0  0  0  0  0  0  0  0  0
   -9.3162   19.9341  -31.1250 H   0  0  0  0  0  0  0  0  0  0  0  0
   -9.5373   20.8095  -32.6779 H   0  0  0  0  0  0  0  0  0  0  0  0
   -9.2781   19.0320  -32.6779 H   0  0  0  0  0  0  0  0  0  0  0  0
  1  2  1  0
  2  3  1  0
  3  4  1  0
  4  5  1  0
  3  6  1  0
  6  7  1  0
  7  8  2  0
  8  9  1  0
  9 10  2  0
 10 11  1  0
 11 12  2  0
 11 13  1  0
 13 14  1  0
 13 15  1  0
 15 16  2  0
 15 17  1  0
 17 18  1  0
 10 19  1  0
 19 20  1  0
 19  7  1  0
 17  9  1  0
  1 21  1  0
  1 22  1  0
  1 23  1  0
  2 24  1  0
  2 25  1  0
  4 26  1  0
  4 27  1  0
  5 28  1  0
  5 29  1  0
  5 30  1  0
  6 31  1  0
  6 32  1  0
  8 33  1  0
 14 34  1  0
 14 35  1  0
 14 36  1  0
 18 37  1  0
 18 38  1  0
 18 39  1  0
 20 40  1  0
 20 41  1  0
 20 42  1  0
M  CHG  1   8   1
M  END
>  <UniqueID>  (10) 
10

>  <SMILES>  (10) 
CCN(CC)Cc1[nH+]c2c(c(=O)n(C)c(=O)n2C)n1C

>  <Energy>  (10) 
93.54351998949856

>  <Genealogy>  (10) 
CCN(CC)Cc1[nH+]c2c(c(=O)n(C)c(=O)n2C)n1C (protonated)
CCN(CC)Cc1[nH+]c2c(c(=O)n(C)c(=O)n2C)n1C (3D coordinates assigned)
CCN(CC)Cc1[nH+]c2c(c(=O)n(C)c(=O)n2C)n1C (optimized conformer: 93.54351998949856 kcal/mol)

>  <smiles>  (10) 
CCN(CC)Cc1nc2c(c(=O)n(C)c(=O)n2C)n1C

>  <score_type>  (10) 
oracle

>  <origin>  (10) 
adg

>  <m_score__min__energy>  (10) 
-6.0999999999999996

>  <m_primary>  (10) 
energy

$$$$
10:0
     RDKit          3D

 39 39  0  0  0  0  0  0  0  0999 V2000
   -3.5450   19.3980  -33.4820 C   0  0  0  0  0  0  0  0  0  0  0  0
   -3.3690   20.7970  -33.5100 O   0  0  0  0  0  0  0  0  0  0  0  0
   -3.5720   21.3480  -32.2220 C   0  0  0  0  0  0  0  0  0  0  0  0
   -4.3550   22.6610  -32.3280 C   0  0  0  0  0  0  0  0  0  0  0  0
   -5.5740   22.6000  -31.4920 N   0  0  0  0  0  0  0  0  0  0  0  0
   -6.8150   22.5660  -32.2980 C   0  0  0  0  0  0  0  0  0  0  0  0
   -7.3670   21.1700  -32.3140 C   0  0  0  0  0  0  0  0  0  0  0  0
   -8.6390   20.8890  -31.7960 C   0  0  0  0  0  0  0  0  0  0  0  0
   -9.0990   19.5710  -31.7910 C   0  0  0  0  0  0  0  0  0  0  0  0
   -8.2920   18.5500  -32.2970 C   0  0  0  0  0  0  0  0  0  0  0  0
   -7.0300   18.8670  -32.8030 C   0  0  0  0  0  0  0  0  0  0  0  0
   -6.5980   20.1560  -32.7990 N   0  0  0  0  0  0  0  0  0  0  0  0
   -5.6360   23.6120  -30.4010 C   0  0  2  0  0  0  0  0  0  0  0  0
   -7.0190   23.7130  -29.7230 C   0  0  0  0  0  0  0  0  0  0  0  0
   -5.1650   24.9870  -30.9150 C   0  0  0  0  0  0  0  0  0  0  0  0
   -3.8470   25.2660  -30.4770 O   0  0  0  0  0  0  0  0  0  0  0  0
   -3.4510   24.3520  -29.4780 C   0  0  0  0  0  0  0  0  0  0  0  0
   -3.5882   19.0547  -32.4378 H   0  0  0  0  0  0  0  0  0  0  0  0
   -4.4832   19.1362  -33.9932 H   0  0  0  0  0  0  0  0  0  0  0  0
   -2.7009   18.9120  -33.9932 H   0  0  0  0  0  0  0  0  0  0  0  0
   -4.1397   20.6346  -31.6065 H   0  0  0  0  0  0  0  0  0  0  0  0
   -2.5949   21.5481  -31.7581 H   0  0  0  0  0  0  0  0  0  0  0  0
   -3.7202   23.4910  -31.9842 H   0  0  0  0  0  0  0  0  0  0  0  0
   -4.6474   22.8199  -33.3764 H   0  0  0  0  0  0  0  0  0  0  0  0
   -7.5568   23.2480  -31.8569 H   0  0  0  0  0  0  0  0  0  0  0  0
   -6.5907   22.8820  -33.3275 H   0  0  0  0  0  0  0  0  0  0  0  0
   -9.2681   21.6987  -31.3976 H   0  0  0  0  0  0  0  0  0  0  0  0
  -10.0958   19.3371  -31.3890 H   0  0  0  0  0  0  0  0  0  0  0  0
   -8.6463   17.5086  -32.2969 H   0  0  0  0  0  0  0  0  0  0  0  0
   -6.3843   18.0726  -33.2055 H   0  0  0  0  0  0  0  0  0  0  0  0
   -4.9485   23.2639  -29.6160 H   0  0  0  0  0  0  0  0  0  0  0  0
   -6.8932   23.7038  -28.6303 H   0  0  0  0  0  0  0  0  0  0  0  0
   -7.5093   24.6493  -30.0278 H   0  0  0  0  0  0  0  0  0  0  0  0
   -7.6401   22.8578  -30.0278 H   0  0  0  0  0  0  0  0  0  0  0  0
   -5.1866   24.9871  -32.0148 H   0  0  0  0  0  0  0  0  0  0  0  0
   -5.8386   25.7604  -30.5174 H   0  0  0  0  0  0  0  0  0  0  0  0
   -3.6400   24.7883  -28.4861 H   0  0  0  0  0  0  0  0  0  0  0  0
   -4.0262   23.4204  -29.5845 H   0  0  0  0  0  0  0  0  0  0  0  0
   -2.3780   24.1346  -29.5845 H   0  0  0  0  0  0  0  0  0  0  0  0
  1  2  1  0
  2  3  1  0
  3  4  1  0
  4  5  1  0
  5  6  1  0
  6  7  1  0
  7  8  2  0
  8  9  1  0
  9 10  2  0
 10 11  1  0
 11 12  2  0
  5 13  1  0
 13 14  1  0
 13 15  1  0
 15 16  1  0
 16 17  1  0
 12  7  1  0
  1 18  1  0
  1 19  1  0
  1 20  1  0
  3 21  1  0
  3 22  1  0
  4 23  1  0
  4 24  1  0
  6 25  1  0
  6 26  1  0
  8 27  1  0
  9 28  1  0
 10 29  1  0
 11 30  1  0
 13 31  1  1
 14 32  1  0
 14 33  1  0
 14 34  1  0
 15 35  1  0
 15 36  1  0
 17 37  1  0
 17 38  1  0
 17 39  1  0
M  END
>  <UniqueID>  (11) 
11

>  <SMILES>  (11) 
COCCN(Cc1ccccn1)[C@H](C)COC

>  <Energy>  (11) 
41.89284369274667

>  <Genealogy>  (11) 
COCCN(Cc1ccccn1)[C@H](C)COC (chirality)
COCCN(Cc1ccccn1)[C@H](C)COC (3D coordinates assigned)
COCCN(Cc1ccccn1)[C@H](C)COC (optimized conformer: 41.89284369274667 kcal/mol)

>  <smiles>  (11) 
COCCN(Cc1ccccn1)C(C)COC

>  <score_type>  (11) 
oracle

>  <origin>  (11) 
adg

>  <m_score__min__energy>  (11) 
-5.6900000000000004

>  <m_primary>  (11) 
energy

$$$$
11:0
     RDKit          3D

 25 25  0  0  0  0  0  0  0  0999 V2000
   -5.7181   24.5091  -32.5762 H   0  0  0  0  0  0  0  0  0  0  0  0
   -6.0440   24.4800  -31.5260 C   0  0  0  0  0  0  0  0  0  0  0  0
   -5.2990   25.3110  -30.5610 C   0  0  0  0  0  0  0  0  0  0  0  0
   -5.9430   26.0630  -29.7790 O   0  0  0  0  0  0  0  0  0  0  0  0
   -3.9070   25.2300  -30.4710 O   0  0  0  0  0  0  0  0  0  0  0  0
   -3.2340   24.1760  -29.7930 C   0  0  0  0  0  0  0  0  0  0  0  0
   -2.2434   24.5241  -29.4652 H   0  0  0  0  0  0  0  0  0  0  0  0
   -3.1142   23.3194  -30.4726 H   0  0  0  0  0  0  0  0  0  0  0  0
   -4.0500   23.7530  -28.5810 C   0  0  0  0  0  0  0  0  0  0  0  0
   -3.5131   24.0313  -27.6622 H   0  0  0  0  0  0  0  0  0  0  0  0
   -5.0269   24.2583  -28.6022 H   0  0  0  0  0  0  0  0  0  0  0  0
   -4.2002   22.6635  -28.6022 H   0  0  0  0  0  0  0  0  0  0  0  0
   -7.0880   23.6910  -31.2250 C   0  0  0  0  0  0  0  0  0  0  0  0
   -7.9332   24.1493  -30.6906 H   0  0  0  0  0  0  0  0  0  0  0  0
   -7.1890   22.2560  -31.5560 C   0  0  0  0  0  0  0  0  0  0  0  0
   -8.3910   21.5750  -31.3100 C   0  0  0  0  0  0  0  0  0  0  0  0
   -9.2398   22.1080  -30.8567 H   0  0  0  0  0  0  0  0  0  0  0  0
   -8.5140   20.2210  -31.6390 C   0  0  0  0  0  0  0  0  0  0  0  0
   -9.4528   19.6881  -31.4277 H   0  0  0  0  0  0  0  0  0  0  0  0
   -7.4460   19.5430  -32.2360 C   0  0  0  0  0  0  0  0  0  0  0  0
   -7.6000   17.8450  -32.6440 Cl  0  0  0  0  0  0  0  0  0  0  0  0
   -6.2560   20.2250  -32.5160 C   0  0  0  0  0  0  0  0  0  0  0  0
   -5.4183   19.6952  -32.9930 H   0  0  0  0  0  0  0  0  0  0  0  0
   -6.1310   21.5790  -32.1900 C   0  0  0  0  0  0  0  0  0  0  0  0
   -5.2020   22.1169  -32.4301 H   0  0  0  0  0  0  0  0  0  0  0  0
  1  2  1  0
  2  3  1  0
  3  4  2  0
  3  5  1  0
  5  6  1  0
  6  7  1  0
  6  8  1  0
  6  9  1  0
  9 10  1  0
  9 11  1  0
  9 12  1  0
  2 13  2  0
 13 14  1  0
 13 15  1  0
 15 16  2  0
 16 17  1  0
 16 18  1  0
 18 19  1  0
 18 20  2  0
 20 21  1  0
 20 22  1  0
 22 23  1  0
 22 24  2  0
 24 25  1  0
 24 15  1  0
M  END
>  <UniqueID>  (12) 
12

>  <SMILES>  (12) 
CCOC(=O)/C=C\c1ccc(Cl)cc1

>  <Energy>  (12) 
23.857787367732648

>  <Genealogy>  (12) 
CCOC(=O)/C=C\c1ccc(Cl)cc1 (cis-trans isomerization)
CCOC(=O)/C=C\c1ccc(Cl)cc1 (3D coordinates assigned)
CCOC(=O)/C=C\c1ccc(Cl)cc1 (optimized conformer: 23.857787367732648 kcal/mol)

>  <smiles>  (12) 
CCOC(=O)C=Cc1ccc(Cl)cc1

>  <score_type>  (12) 
oracle

>  <origin>  (12) 
adg

>  <m_score__min__energy>  (12) 
-6.6200000000000001

>  <m_primary>  (12) 
energy

$$$$
12:0
     RDKit          3D

 52 54  0  0  0  0  0  0  0  0999 V2000
   -0.4702   23.6793  -26.4827 H   0  0  0  0  0  0  0  0  0  0  0  0
   -1.1150   23.9190  -27.3410 C   0  0  0  0  0  0  0  0  0  0  0  0
   -1.0990   25.1960  -27.9110 C   0  0  0  0  0  0  0  0  0  0  0  0
   -0.2210   26.2670  -27.3470 C   0  0  0  0  0  0  0  0  0  0  0  0
   -0.2537   26.2271  -26.2482 H   0  0  0  0  0  0  0  0  0  0  0  0
    0.8129   26.1115  -27.6890 H   0  0  0  0  0  0  0  0  0  0  0  0
   -0.5763   27.2503  -27.6890 H   0  0  0  0  0  0  0  0  0  0  0  0
   -1.9180   25.4740  -28.9610 N   0  0  0  0  0  0  0  0  0  0  0  0
   -2.7370   24.5260  -29.4860 C   0  0  0  0  0  0  0  0  0  0  0  0
   -3.5240   24.8440  -30.4720 N   0  0  0  0  0  0  0  0  0  0  0  0
   -4.8110   24.2650  -30.7540 C   0  0  0  0  0  0  0  0  0  0  0  0
   -5.9840   24.8480  -30.2420 C   0  0  0  0  0  0  0  0  0  0  0  0
   -5.9171   25.7635  -29.6359 H   0  0  0  0  0  0  0  0  0  0  0  0
   -7.2320   24.2770  -30.4950 C   0  0  0  0  0  0  0  0  0  0  0  0
   -8.1420   24.7544  -30.1026 H   0  0  0  0  0  0  0  0  0  0  0  0
   -7.3310   23.1040  -31.2430 C   0  0  0  0  0  0  0  0  0  0  0  0
   -8.3190   22.6657  -31.4475 H   0  0  0  0  0  0  0  0  0  0  0  0
   -6.1750   22.4820  -31.7350 C   0  0  0  0  0  0  0  0  0  0  0  0
   -6.2720   21.2920  -32.4720 C   0  0  0  0  0  0  0  0  0  0  0  0
   -7.2586   20.8460  -32.6661 H   0  0  0  0  0  0  0  0  0  0  0  0
   -5.1190   20.6720  -32.9600 C   0  0  0  0  0  0  0  0  0  0  0  0
   -5.2006   19.7391  -33.5370 H   0  0  0  0  0  0  0  0  0  0  0  0
   -3.8650   21.2320  -32.7180 C   0  0  0  0  0  0  0  0  0  0  0  0
   -2.9612   20.7381  -33.1042 H   0  0  0  0  0  0  0  0  0  0  0  0
   -3.7510   22.4180  -31.9870 C   0  0  0  0  0  0  0  0  0  0  0  0
   -2.7580   22.8538  -31.8028 H   0  0  0  0  0  0  0  0  0  0  0  0
   -4.9010   23.0580  -31.4850 C   0  0  0  0  0  0  0  0  0  0  0  0
   -2.7580   23.2780  -28.9410 N   0  0  0  0  0  0  0  0  0  0  0  0
   -1.9650   22.9560  -27.8830 C   0  0  0  0  0  0  0  0  0  0  0  0
   -1.9960   21.6740  -27.3210 O   0  0  0  0  0  0  0  0  0  0  0  0
   -3.0870   20.7680  -27.4830 C   0  0  0  0  0  0  0  0  0  0  0  0
   -3.3931   20.7568  -28.5395 H   0  0  0  0  0  0  0  0  0  0  0  0
   -3.9205   21.1014  -26.8473 H   0  0  0  0  0  0  0  0  0  0  0  0
   -2.6840   19.3560  -27.0630 C   0  0  0  0  0  0  0  0  0  0  0  0
   -2.8997   18.6556  -27.8833 H   0  0  0  0  0  0  0  0  0  0  0  0
   -3.2549   19.0666  -26.1684 H   0  0  0  0  0  0  0  0  0  0  0  0
   -1.3000   19.3200  -26.7660 O   0  0  0  0  0  0  0  0  0  0  0  0
   -0.6770   18.2290  -27.4080 C   0  0  0  0  0  0  0  0  0  0  0  0
   -1.4366   17.4781  -27.6710 H   0  0  0  0  0  0  0  0  0  0  0  0
    0.0652   17.7843  -26.7287 H   0  0  0  0  0  0  0  0  0  0  0  0
    0.0250   18.7060  -28.6780 C   0  0  0  0  0  0  0  0  0  0  0  0
    0.0764   17.8757  -29.3977 H   0  0  0  0  0  0  0  0  0  0  0  0
    1.0391   19.0450  -28.4199 H   0  0  0  0  0  0  0  0  0  0  0  0
   -0.7150   19.8270  -29.2820 N   0  0  0  0  0  0  0  0  0  0  0  0
   -0.9230   20.5230  -28.5260 H   0  0  0  0  0  0  0  0  0  0  0  0
    0.0820   20.5120  -30.3080 C   0  0  0  0  0  0  0  0  0  0  0  0
    0.3374   19.7999  -31.1066 H   0  0  0  0  0  0  0  0  0  0  0  0
    1.0020   20.9034  -29.8493 H   0  0  0  0  0  0  0  0  0  0  0  0
   -0.7140   21.6690  -30.8990 C   0  0  0  0  0  0  0  0  0  0  0  0
   -1.1336   22.2788  -30.0853 H   0  0  0  0  0  0  0  0  0  0  0  0
   -0.0516   22.2908  -31.5192 H   0  0  0  0  0  0  0  0  0  0  0  0
   -1.5315   21.2727  -31.5192 H   0  0  0  0  0  0  0  0  0  0  0  0
  1  2  1  0
  2  3  1  0
  3  4  1  0
  4  5  1  0
  4  6  1  0
  4  7  1  0
  3  8  2  0
  8  9  1  0
  9 10  2  0
 10 11  1  0
 11 12  2  0
 12 13  1  0
 12 14  1  0
 14 15  1  0
 14 16  2  0
 16 17  1  0
 16 18  1  0
 18 19  2  0
 19 20  1  0
 19 21  1  0
 21 22  1  0
 21 23  2  0
 23 24  1  0
 23 25  1  0
 25 26  1  0
 25 27  2  0
  9 28  1  0
 28 29  1  0
 29 30  1  0
 30 31  1  0
 31 32  1  0
 31 33  1  0
 31 34  1  0
 34 35  1  0
 34 36  1  0
 34 37  1  0
 37 38  1  0
 38 39  1  0
 38 40  1  0
 38 41  1  0
 41 42  1  0
 41 43  1  0
 41 44  1  0
 44 45  1  0
 44 46  1  0
 46 47  1  0
 46 48  1  0
 46 49  1  0
 49 50  1  0
 49 51  1  0
 49 52  1  0
 29  2  2  0
 27 11  1  0
 27 18  1  0
M  CHG  1  28  -1
M  END
>  <UniqueID>  (13) 
13

>  <SMILES>  (13) 
CCNCCOCCOc1cc(C)n/c(=N/c2cccc3ccccc23)[n-]1

>  <Energy>  (13) 
56.915887854223826

>  <Genealogy>  (13) 
CCNCCOCCOc1cc(C)nc(=Nc2cccc3ccccc23)[n-]1 (protonated)
CCNCCOCCOc1cc(C)n/c(=N/c2cccc3ccccc23)[n-]1 (cis-trans isomerization)
CCNCCOCCOc1cc(C)n/c(=N/c2cccc3ccccc23)[n-]1 (3D coordinates assigned)
CCNCCOCCOc1cc(C)n/c(=N/c2cccc3ccccc23)[n-]1 (optimized conformer: 56.915887854223826 kcal/mol)

>  <smiles>  (13) 
CCNCCOCCOc1cc(C)nc(=Nc2cccc3ccccc23)[nH]1

>  <score_type>  (13) 
oracle

>  <origin>  (13) 
adg

>  <m_score__min__energy>  (13) 
-9.0899999999999999

>  <m_primary>  (13) 
energy

$$$$
13:0
     RDKit          3D

 35 37  0  0  0  0  0  0  0  0999 V2000
   -3.8120   22.3820  -29.0160 C   0  0  0  0  0  0  0  0  0  0  0  0
   -4.4190   23.4300  -29.8330 N   0  0  0  0  0  0  0  0  0  0  0  0
   -5.0300   24.5350  -29.3720 C   0  0  0  0  0  0  0  0  0  0  0  0
   -5.5770   25.2020  -30.4430 C   0  0  0  0  0  0  0  0  0  0  0  0
   -5.3270   24.5160  -31.5770 N   0  0  0  0  0  0  0  0  0  0  0  0
   -4.6130   23.4430  -31.1730 C   0  0  0  0  0  0  0  0  0  0  0  0
   -4.1450   22.3640  -32.1250 C   0  0  0  0  0  0  0  0  0  0  0  0
   -4.8390   21.0680  -31.9480 N   0  0  0  0  0  0  0  0  0  0  0  0
   -4.8180   20.2040  -33.1420 C   0  0  0  0  0  0  0  0  0  0  0  0
   -6.2630   19.8930  -33.5400 C   0  0  1  0  0  0  0  0  0  0  0  0
   -6.5340   18.4910  -33.5430 O   0  0  0  0  0  0  0  0  0  0  0  0
   -6.6960   17.9510  -32.2420 C   0  0  0  0  0  0  0  0  0  0  0  0
   -8.1200   18.1750  -31.7440 C   0  0  0  0  0  0  0  0  0  0  0  0
   -8.5900   19.8650  -32.0360 S   0  0  0  0  0  0  0  0  0  0  0  0
   -9.1110   20.4860  -30.7700 O   0  0  0  0  0  0  0  0  0  0  0  0
   -9.6610   19.9110  -33.0900 O   0  0  0  0  0  0  0  0  0  0  0  0
   -7.1470   20.7470  -32.6220 C   0  0  1  0  0  0  0  0  0  0  0  0
   -6.2310   21.1900  -31.4860 C   0  0  0  0  0  0  0  0  0  0  0  0
   -3.9503   22.6208  -27.9512 H   0  0  0  0  0  0  0  0  0  0  0  0
   -4.2915   21.4179  -29.2408 H   0  0  0  0  0  0  0  0  0  0  0  0
   -2.7371   22.3182  -29.2408 H   0  0  0  0  0  0  0  0  0  0  0  0
   -5.0833   24.8511  -28.3198 H   0  0  0  0  0  0  0  0  0  0  0  0
   -6.1329   26.1493  -30.3839 H   0  0  0  0  0  0  0  0  0  0  0  0
   -4.3168   22.7115  -33.1544 H   0  0  0  0  0  0  0  0  0  0  0  0
   -3.0802   22.1887  -31.9117 H   0  0  0  0  0  0  0  0  0  0  0  0
   -4.3091   20.7235  -33.9673 H   0  0  0  0  0  0  0  0  0  0  0  0
   -4.2774   19.2712  -32.9236 H   0  0  0  0  0  0  0  0  0  0  0  0
   -6.4800   20.1636  -34.5839 H   0  0  0  0  0  0  0  0  0  0  0  0
   -6.4879   16.8712  -32.2698 H   0  0  0  0  0  0  0  0  0  0  0  0
   -5.9968   18.4546  -31.5583 H   0  0  0  0  0  0  0  0  0  0  0  0
   -8.8065   17.5051  -32.2824 H   0  0  0  0  0  0  0  0  0  0  0  0
   -8.1698   17.9612  -30.6661 H   0  0  0  0  0  0  0  0  0  0  0  0
   -7.5680   21.6090  -33.1602 H   0  0  0  0  0  0  0  0  0  0  0  0
   -6.4455   22.2356  -31.2201 H   0  0  0  0  0  0  0  0  0  0  0  0
   -6.3944   20.5624  -30.5975 H   0  0  0  0  0  0  0  0  0  0  0  0
  1  2  1  0
  2  3  1  0
  3  4  2  0
  4  5  1  0
  5  6  2  0
  6  7  1  0
  7  8  1  0
  8  9  1  0
  9 10  1  0
 10 11  1  0
 11 12  1  0
 12 13  1  0
 13 14  1  0
 14 15  2  0
 14 16  2  0
 14 17  1  0
 17 18  1  0
  6  2  1  0
 18  8  1  0
 17 10  1  0
  1 19  1  0
  1 20  1  0
  1 21  1  0
  3 22  1  0
  4 23  1  0
  7 24  1  0
  7 25  1  0
  9 26  1  0
  9 27  1  0
 10 28  1  6
 12 29  1  0
 12 30  1  0
 13 31  1  0
 13 32  1  0
 17 33  1  6
 18 34  1  0
 18 35  1  0
M  END
>  <UniqueID>  (14) 
14

>  <SMILES>  (14) 
Cn1ccnc1CN1C[C@H]2OCCS(=O)(=O)[C@H]2C1

>  <Energy>  (14) 
75.78402382697759

>  <Genealogy>  (14) 
Cn1ccnc1CN1C[C@H]2OCCS(=O)(=O)[C@H]2C1 (chirality)
Cn1ccnc1CN1C[C@H]2OCCS(=O)(=O)[C@H]2C1 (3D coordinates assigned)
Cn1ccnc1CN1C[C@H]2OCCS(=O)(=O)[C@H]2C1 (nonaromatic ring conformer: 75.78402382697759 kcal/mol)

>  <smiles>  (14) 
Cn1ccnc1CN1CC2OCCS(=O)(=O)C2C1

>  <score_type>  (14) 
oracle

>  <origin>  (14) 
adg

>  <m_score__min__energy>  (14) 
-7.1200000000000001

>  <m_primary>  (14) 
energy

$$$$
14:0
     RDKit          3D

 40 40  0  0  0  0  0  0  0  0999 V2000
    1.3320   25.0900  -27.0600 C   0  0  0  0  0  0  0  0  0  0  0  0
    1.2220   24.5040  -28.3390 O   0  0  0  0  0  0  0  0  0  0  0  0
   -0.1110   24.0960  -28.5840 C   0  0  0  0  0  0  0  0  0  0  0  0
   -1.0130   24.4150  -27.3850 C   0  0  0  0  0  0  0  0  0  0  0  0
   -2.3910   24.9210  -27.8270 C   0  0  0  0  0  0  0  0  0  0  0  0
   -2.4540   25.0260  -29.2820 N   0  0  0  0  0  0  0  0  0  0  0  0
   -3.5980   24.7520  -30.1010 C   0  0  0  0  0  0  0  0  0  0  0  0
   -4.0430   25.6700  -30.8400 O   0  0  0  0  0  0  0  0  0  0  0  0
   -4.3080   23.4250  -30.1010 C   0  0  0  0  0  0  0  0  0  0  0  0
   -5.1750   23.3340  -31.2290 O   0  0  0  0  0  0  0  0  0  0  0  0
   -6.4780   23.8420  -31.2360 C   0  0  0  0  0  0  0  0  0  0  0  0
   -6.8280   24.7330  -30.4140 O   0  0  0  0  0  0  0  0  0  0  0  0
   -7.4520   23.3580  -32.2640 C   0  0  0  0  0  0  0  0  0  0  0  0
   -8.4630   22.3760  -31.6580 C   0  0  0  0  0  0  0  0  0  0  0  0
   -8.1570   20.9500  -32.0450 C   0  0  0  0  0  0  0  0  0  0  0  0
   -6.9810   20.6450  -32.7510 C   0  0  0  0  0  0  0  0  0  0  0  0
   -6.6780   19.3190  -33.0740 C   0  0  0  0  0  0  0  0  0  0  0  0
   -7.5410   18.2890  -32.6900 C   0  0  0  0  0  0  0  0  0  0  0  0
   -8.7090   18.5830  -31.9800 C   0  0  0  0  0  0  0  0  0  0  0  0
   -9.0160   19.9080  -31.6560 C   0  0  0  0  0  0  0  0  0  0  0  0
    1.1872   24.3184  -26.2895 H   0  0  0  0  0  0  0  0  0  0  0  0
    2.3300   25.5385  -26.9468 H   0  0  0  0  0  0  0  0  0  0  0  0
    0.5646   25.8699  -26.9468 H   0  0  0  0  0  0  0  0  0  0  0  0
   -0.4915   24.6239  -29.4708 H   0  0  0  0  0  0  0  0  0  0  0  0
   -0.1197   23.0085  -28.7494 H   0  0  0  0  0  0  0  0  0  0  0  0
   -1.1445   23.5020  -26.7857 H   0  0  0  0  0  0  0  0  0  0  0  0
   -0.5303   25.2089  -26.7961 H   0  0  0  0  0  0  0  0  0  0  0  0
   -3.1630   24.2180  -27.4809 H   0  0  0  0  0  0  0  0  0  0  0  0
   -2.5617   25.9162  -27.3905 H   0  0  0  0  0  0  0  0  0  0  0  0
   -3.5653   22.6149  -30.1465 H   0  0  0  0  0  0  0  0  0  0  0  0
   -4.9036   23.3350  -29.1806 H   0  0  0  0  0  0  0  0  0  0  0  0
   -7.9947   24.2210  -32.6773 H   0  0  0  0  0  0  0  0  0  0  0  0
   -6.8916   22.8353  -33.0531 H   0  0  0  0  0  0  0  0  0  0  0  0
   -8.4310   22.4626  -30.5619 H   0  0  0  0  0  0  0  0  0  0  0  0
   -9.4612   22.6295  -32.0445 H   0  0  0  0  0  0  0  0  0  0  0  0
   -6.2965   21.4523  -33.0505 H   0  0  0  0  0  0  0  0  0  0  0  0
   -5.7587   19.0860  -33.6314 H   0  0  0  0  0  0  0  0  0  0  0  0
   -7.3012   17.2465  -32.9465 H   0  0  0  0  0  0  0  0  0  0  0  0
   -9.3867   17.7716  -31.6762 H   0  0  0  0  0  0  0  0  0  0  0  0
   -9.9339   20.1358  -31.0942 H   0  0  0  0  0  0  0  0  0  0  0  0
  1  2  1  0
  2  3  1  0
  3  4  1  0
  4  5  1  0
  5  6  1  0
  6  7  1  0
  7  8  2  0
  7  9  1  0
  9 10  1  0
 10 11  1  0
 11 12  2  0
 11 13  1  0
 13 14  1  0
 14 15  1  0
 15 16  2  0
 16 17  1  0
 17 18  2  0
 18 19  1  0
 19 20  2  0
 20 15  1  0
  1 21  1  0
  1 22  1  0
  1 23  1  0
  3 24  1  0
  3 25  1  0
  4 26  1  0
  4 27  1  0
  5 28  1  0
  5 29  1  0
  9 30  1  0
  9 31  1  0
 13 32  1  0
 13 33  1  0
 14 34  1  0
 14 35  1  0
 16 36  1  0
 17 37  1  0
 18 38  1  0
 19 39  1  0
 20 40  1  0
M  CHG  1   6  -1
M  END
>  <UniqueID>  (15) 
15

>  <SMILES>  (15) 
COCCC[N-]C(=O)COC(=O)CCc1ccccc1

>  <Energy>  (15) 
27.964434849742812

>  <Genealogy>  (15) 
COCCC[N-]C(=O)COC(=O)CCc1ccccc1 (protonated)
COCCC[N-]C(=O)COC(=O)CCc1ccccc1 (3D coordinates assigned)
COCCC[N-]C(=O)COC(=O)CCc1ccccc1 (optimized conformer: 27.964434849742812 kcal/mol)

>  <smiles>  (15) 
COCCCNC(=O)COC(=O)CCc1ccccc1

>  <score_type>  (15) 
oracle

>  <origin>  (15) 
adg

>  <m_score__min__energy>  (15) 
-8.5600000000000005

>  <m_primary>  (15) 
energy

$$$$
15:0
     RDKit          3D

 45 48  0  0  0  0  0  0  0  0999 V2000
   -0.3040   21.5500  -33.7730 C   0  0  0  0  0  0  0  0  0  0  0  0
   -1.1340   20.3540  -33.8420 N   0  0  0  0  0  0  0  0  0  0  0  0
   -0.8240   19.1680  -34.4230 C   0  0  0  0  0  0  0  0  0  0  0  0
   -1.8770   18.3100  -34.4410 N   0  0  0  0  0  0  0  0  0  0  0  0
   -2.8760   18.9970  -33.8560 C   0  0  0  0  0  0  0  0  0  0  0  0
   -4.2190   18.6650  -33.6680 C   0  0  0  0  0  0  0  0  0  0  0  0
   -4.7590   17.3740  -34.0000 N   0  0  0  0  0  0  0  0  0  0  0  0
   -4.0150   16.1380  -33.7440 C   0  0  0  0  0  0  0  0  0  0  0  0
   -4.9530   15.1050  -33.1110 C   0  0  0  0  0  0  0  0  0  0  0  0
   -6.1200   14.9370  -33.8970 O   0  0  0  0  0  0  0  0  0  0  0  0
   -6.8670   16.1390  -33.9140 C   0  0  0  0  0  0  0  0  0  0  0  0
   -6.0850   17.2560  -34.6120 C   0  0  0  0  0  0  0  0  0  0  0  0
   -5.0300   19.6340  -33.1440 N   0  0  0  0  0  0  0  0  0  0  0  0
   -4.5630   20.8810  -32.8080 C   0  0  0  0  0  0  0  0  0  0  0  0
   -5.4870   21.8960  -32.2450 C   0  0  0  0  0  0  0  0  0  0  0  0
   -6.8800   21.7000  -32.2950 C   0  0  0  0  0  0  0  0  0  0  0  0
   -7.7500   22.6530  -31.7580 C   0  0  0  0  0  0  0  0  0  0  0  0
   -7.2450   23.8130  -31.1700 C   0  0  0  0  0  0  0  0  0  0  0  0
   -5.8600   24.0360  -31.1240 C   0  0  0  0  0  0  0  0  0  0  0  0
   -5.3140   25.2700  -30.4600 C   0  0  0  0  0  0  0  0  0  0  0  0
   -3.8640   25.3220  -30.6240 N   0  0  0  0  0  0  0  0  0  0  0  0
   -4.9870   23.0710  -31.6500 C   0  0  0  0  0  0  0  0  0  0  0  0
   -3.2420   21.1850  -33.0030 N   0  0  0  0  0  0  0  0  0  0  0  0
   -2.4300   20.2310  -33.5140 C   0  0  0  0  0  0  0  0  0  0  0  0
   -0.1232   21.8106  -32.7197 H   0  0  0  0  0  0  0  0  0  0  0  0
    0.6567   21.3590  -34.2736 H   0  0  0  0  0  0  0  0  0  0  0  0
   -0.8191   22.3831  -34.2736 H   0  0  0  0  0  0  0  0  0  0  0  0
    0.1681   18.9282  -34.8332 H   0  0  0  0  0  0  0  0  0  0  0  0
   -1.9010   17.3610  -34.8720 H   0  0  0  0  0  0  0  0  0  0  0  0
   -3.6200   15.7437  -34.6919 H   0  0  0  0  0  0  0  0  0  0  0  0
   -3.1794   16.3456  -33.0595 H   0  0  0  0  0  0  0  0  0  0  0  0
   -4.4285   14.1412  -33.0335 H   0  0  0  0  0  0  0  0  0  0  0  0
   -5.2482   15.4614  -32.1131 H   0  0  0  0  0  0  0  0  0  0  0  0
   -7.8112   15.9692  -34.4523 H   0  0  0  0  0  0  0  0  0  0  0  0
   -7.0672   16.4443  -32.8763 H   0  0  0  0  0  0  0  0  0  0  0  0
   -5.9767   17.0167  -35.6802 H   0  0  0  0  0  0  0  0  0  0  0  0
   -6.6264   18.2075  -34.5047 H   0  0  0  0  0  0  0  0  0  0  0  0
   -7.2869   20.7900  -32.7602 H   0  0  0  0  0  0  0  0  0  0  0  0
   -8.8368   22.4878  -31.7991 H   0  0  0  0  0  0  0  0  0  0  0  0
   -7.9344   24.5551  -30.7411 H   0  0  0  0  0  0  0  0  0  0  0  0
   -5.7653   26.1616  -30.9197 H   0  0  0  0  0  0  0  0  0  0  0  0
   -5.5565   25.2417  -29.3874 H   0  0  0  0  0  0  0  0  0  0  0  0
   -3.4870   26.0350  -29.9590 H   0  0  0  0  0  0  0  0  0  0  0  0
   -3.6660   25.6790  -31.5870 H   0  0  0  0  0  0  0  0  0  0  0  0
   -3.9004   23.2340  -31.5971 H   0  0  0  0  0  0  0  0  0  0  0  0
  1  2  1  0
  2  3  1  0
  3  4  2  0
  4  5  1  0
  5  6  2  0
  6  7  1  0
  7  8  1  0
  8  9  1  0
  9 10  1  0
 10 11  1  0
 11 12  1  0
  6 13  1  0
 13 14  2  0
 14 15  1  0
 15 16  2  0
 16 17  1  0
 17 18  2  0
 18 19  1  0
 19 20  1  0
 20 21  1  0
 19 22  2  0
 14 23  1  0
 23 24  2  0
 24  2  1  0
 24  5  1  0
 12  7  1  0
 22 15  1  0
  1 25  1  0
  1 26  1  0
  1 27  1  0
  3 28  1  0
  4 29  1  0
  8 30  1  0
  8 31  1  0
  9 32  1  0
  9 33  1  0
 11 34  1  0
 11 35  1  0
 12 36  1  0
 12 37  1  0
 16 38  1  0
 17 39  1  0
 18 40  1  0
 20 41  1  0
 20 42  1  0
 21 43  1  0
 21 44  1  0
 22 45  1  0
M  CHG  1   4   1
M  END
>  <UniqueID>  (16) 
16

>  <SMILES>  (16) 
Cn1c[nH+]c2c(N3CCOCC3)nc(-c3cccc(CN)c3)nc21

>  <Energy>  (16) 
94.05748612819862

>  <Genealogy>  (16) 
Cn1c[nH+]c2c(N3CCOCC3)nc(-c3cccc(CN)c3)nc21 (protonated)
Cn1c[nH+]c2c(N3CCOCC3)nc(-c3cccc(CN)c3)nc21 (3D coordinates assigned)
Cn1c[nH+]c2c(N3CCOCC3)nc(-c3cccc(CN)c3)nc21 (nonaromatic ring conformer: 94.05748612819862 kcal/mol)

>  <smiles>  (16) 
Cn1cnc2c(N3CCOCC3)nc(-c3cccc(CN)c3)nc21

>  <score_type>  (16) 
oracle

>  <origin>  (16) 
adg

>  <m_score__min__energy>  (16) 
-7.9500000000000002

>  <m_primary>  (16) 
energy

$$$$
16:0
     RDKit          3D

 62 65  0  0  0  0  0  0  0  0999 V2000
   -1.6250   20.0690  -26.1720 C   0  0  0  0  0  0  0  0  0  0  0  0
   -2.3470   19.7010  -27.4600 C   0  0  0  0  0  0  0  0  0  0  0  0
   -1.7660   20.4180  -28.6110 N   0  0  0  0  0  0  0  0  0  0  0  0
   -0.5680   19.8390  -29.2440 C   0  0  0  0  0  0  0  0  0  0  0  0
   -0.8500   19.3680  -30.6740 C   0  0  0  0  0  0  0  0  0  0  0  0
   -1.0710   20.4750  -31.5280 O   0  0  0  0  0  0  0  0  0  0  0  0
   -2.2750   20.3100  -32.2630 C   0  0  0  0  0  0  0  0  0  0  0  0
   -2.9250   21.6700  -32.5900 C   0  0  0  0  0  0  0  0  0  0  0  0
   -3.9360   21.5900  -33.6640 N   0  0  0  0  0  0  0  0  0  0  0  0
   -5.0900   20.8010  -33.2750 C   0  0  0  0  0  0  0  0  0  0  0  0
   -6.2140   21.3690  -32.6160 C   0  0  0  0  0  0  0  0  0  0  0  0
   -6.2830   22.7550  -32.3430 C   0  0  0  0  0  0  0  0  0  0  0  0
   -7.4140   23.3130  -31.7540 C   0  0  0  0  0  0  0  0  0  0  0  0
   -8.5030   22.5140  -31.4360 C   0  0  0  0  0  0  0  0  0  0  0  0
   -8.4660   21.1430  -31.6820 C   0  0  0  0  0  0  0  0  0  0  0  0
   -7.3180   20.5280  -32.2440 C   0  0  0  0  0  0  0  0  0  0  0  0
   -7.2650   19.1580  -32.4620 N   0  0  0  0  0  0  0  0  0  0  0  0
   -8.3400   18.2710  -31.9700 C   0  0  0  0  0  0  0  0  0  0  0  0
   -6.2020   18.6350  -33.1600 C   0  0  0  0  0  0  0  0  0  0  0  0
   -6.0380   17.2860  -33.5510 C   0  0  0  0  0  0  0  0  0  0  0  0
   -4.8320   17.0390  -34.1970 C   0  0  0  0  0  0  0  0  0  0  0  0
   -3.9830   18.4840  -34.3240 S   0  0  0  0  0  0  0  0  0  0  0  0
   -5.1360   19.4330  -33.5460 C   0  0  0  0  0  0  0  0  0  0  0  0
   -2.3020   21.6930  -29.0620 C   0  0  0  0  0  0  0  0  0  0  0  0
   -3.6590   21.8200  -29.4250 C   0  0  0  0  0  0  0  0  0  0  0  0
   -4.1640   23.0320  -29.9020 C   0  0  0  0  0  0  0  0  0  0  0  0
   -3.3440   24.1580  -29.9980 C   0  0  0  0  0  0  0  0  0  0  0  0
   -3.9080   25.3550  -30.4640 O   0  0  0  0  0  0  0  0  0  0  0  0
   -5.3040   25.6410  -30.4590 C   0  0  0  0  0  0  0  0  0  0  0  0
   -1.9930   24.0500  -29.6250 C   0  0  0  0  0  0  0  0  0  0  0  0
   -1.4780   22.8320  -29.1710 C   0  0  0  0  0  0  0  0  0  0  0  0
   -2.2331   19.7591  -25.3094 H   0  0  0  0  0  0  0  0  0  0  0  0
   -0.6521   19.5568  -26.1378 H   0  0  0  0  0  0  0  0  0  0  0  0
   -1.4679   21.1572  -26.1378 H   0  0  0  0  0  0  0  0  0  0  0  0
   -2.2562   18.6176  -27.6271 H   0  0  0  0  0  0  0  0  0  0  0  0
   -3.4049   19.9870  -27.3646 H   0  0  0  0  0  0  0  0  0  0  0  0
    0.2243   20.6016  -29.2703 H   0  0  0  0  0  0  0  0  0  0  0  0
   -0.2574   18.9655  -28.6519 H   0  0  0  0  0  0  0  0  0  0  0  0
    0.0128   18.7937  -31.0424 H   0  0  0  0  0  0  0  0  0  0  0  0
   -1.7518   18.7381  -30.6689 H   0  0  0  0  0  0  0  0  0  0  0  0
   -2.0513   19.7848  -33.2033 H   0  0  0  0  0  0  0  0  0  0  0  0
   -2.9786   19.7284  -31.6492 H   0  0  0  0  0  0  0  0  0  0  0  0
   -3.4111   22.0526  -31.6804 H   0  0  0  0  0  0  0  0  0  0  0  0
   -2.1252   22.3372  -32.9438 H   0  0  0  0  0  0  0  0  0  0  0  0
   -4.2210   22.5460  -33.9760 H   0  0  0  0  0  0  0  0  0  0  0  0
   -3.5060   21.1670  -34.5190 H   0  0  0  0  0  0  0  0  0  0  0  0
   -5.4307   23.4012  -32.5998 H   0  0  0  0  0  0  0  0  0  0  0  0
   -7.4446   24.3915  -31.5398 H   0  0  0  0  0  0  0  0  0  0  0  0
   -9.4002   22.9653  -30.9873 H   0  0  0  0  0  0  0  0  0  0  0  0
   -9.3430   20.5264  -31.4359 H   0  0  0  0  0  0  0  0  0  0  0  0
   -8.3404   18.2707  -30.8700 H   0  0  0  0  0  0  0  0  0  0  0  0
   -9.3114   18.6339  -32.3369 H   0  0  0  0  0  0  0  0  0  0  0  0
   -8.1682   17.2483  -32.3369 H   0  0  0  0  0  0  0  0  0  0  0  0
   -6.7917   16.5074  -33.3623 H   0  0  0  0  0  0  0  0  0  0  0  0
   -4.4901   16.0601  -34.5642 H   0  0  0  0  0  0  0  0  0  0  0  0
   -4.3290   20.9526  -29.3312 H   0  0  0  0  0  0  0  0  0  0  0  0
   -5.2192   23.1000  -30.2053 H   0  0  0  0  0  0  0  0  0  0  0  0
   -5.6596   25.7139  -29.4206 H   0  0  0  0  0  0  0  0  0  0  0  0
   -5.4847   26.5948  -30.9763 H   0  0  0  0  0  0  0  0  0  0  0  0
   -5.8452   24.8351  -30.9763 H   0  0  0  0  0  0  0  0  0  0  0  0
   -1.3363   24.9300  -29.6908 H   0  0  0  0  0  0  0  0  0  0  0  0
   -0.4155   22.7613  -28.8951 H   0  0  0  0  0  0  0  0  0  0  0  0
  1  2  1  0
  2  3  1  0
  3  4  1  0
  4  5  1  0
  5  6  1  0
  6  7  1  0
  7  8  1  0
  8  9  1  0
  9 10  1  0
 10 11  1  0
 11 12  2  0
 12 13  1  0
 13 14  2  0
 14 15  1  0
 15 16  2  0
 16 17  1  0
 17 18  1  0
 17 19  2  0
 19 20  1  0
 20 21  2  0
 21 22  1  0
 22 23  1  0
  3 24  1  0
 24 25  2  0
 25 26  1  0
 26 27  2  0
 27 28  1  0
 28 29  1  0
 27 30  1  0
 30 31  2  0
 23 10  2  0
 31 24  1  0
 16 11  1  0
 23 19  1  0
  1 32  1  0
  1 33  1  0
  1 34  1  0
  2 35  1  0
  2 36  1  0
  4 37  1  0
  4 38  1  0
  5 39  1  0
  5 40  1  0
  7 41  1  0
  7 42  1  0
  8 43  1  0
  8 44  1  0
  9 45  1  0
  9 46  1  0
 12 47  1  0
 13 48  1  0
 14 49  1  0
 15 50  1  0
 18 51  1  0
 18 52  1  0
 18 53  1  0
 20 54  1  0
 21 55  1  0
 25 56  1  0
 26 57  1  0
 29 58  1  0
 29 59  1  0
 29 60  1  0
 30 61  1  0
 31 62  1  0
M  CHG  2   9   1  17   1
M  END
>  <UniqueID>  (17) 
17

>  <SMILES>  (17) 
CCN(CCOCC[NH2+]c1c2ccccc2[n+](C)c2ccsc12)c1ccc(OC)cc1

>  <Energy>  (17) 
106.3049379592048

>  <Genealogy>  (17) 
CCN(CCOCC[NH2+]c1c2ccccc2[n+](C)c2ccsc12)c1ccc(OC)cc1 (protonated)
CCN(CCOCC[NH2+]c1c2ccccc2[n+](C)c2ccsc12)c1ccc(OC)cc1 (3D coordinates assigned)
CCN(CCOCC[NH2+]c1c2ccccc2[n+](C)c2ccsc12)c1ccc(OC)cc1 (optimized conformer: 106.3049379592048 kcal/mol)

>  <smiles>  (17) 
CCN(CCOCCNc1c2ccccc2[n+](C)c2ccsc12)c1ccc(OC)cc1

>  <score_type>  (17) 
oracle

>  <origin>  (17) 
adg

>  <m_score__min__energy>  (17) 
-8.7100000000000009

>  <m_primary>  (17) 
energy

$$$$
17:0
     RDKit          3D

 60 62  0  0  0  0  0  0  0  0999 V2000
   -0.4710   21.2250  -29.6440 C   0  0  0  0  0  0  0  0  0  0  0  0
   -1.7850   20.4610  -29.4940 C   0  0  0  0  0  0  0  0  0  0  0  0
   -2.6680   21.1410  -28.5180 N   0  0  0  0  0  0  0  0  0  0  0  0
   -3.0540   20.2280  -27.4180 C   0  0  0  0  0  0  0  0  0  0  0  0
   -1.8980   19.2970  -27.0570 C   0  0  0  0  0  0  0  0  0  0  0  0
   -2.0540   22.3920  -28.0000 C   0  0  0  0  0  0  0  0  0  0  0  0
   -2.7910   23.6200  -28.5510 C   0  0  0  0  0  0  0  0  0  0  0  0
   -2.7100   23.7050  -30.0850 C   0  0  0  0  0  0  0  0  0  0  0  0
   -3.5850   24.7520  -30.6340 N   0  0  0  0  0  0  0  0  0  0  0  0
   -4.8530   24.8690  -29.9020 C   0  0  0  0  0  0  0  0  0  0  0  0
   -5.9590   24.1210  -30.6470 C   0  0  0  0  0  0  0  0  0  0  0  0
   -5.4240   23.4410  -31.8280 N   0  0  0  0  0  0  0  0  0  0  0  0
   -5.7700   22.0770  -32.1240 C   0  0  0  0  0  0  0  0  0  0  0  0
   -7.1120   21.6620  -32.0890 C   0  0  0  0  0  0  0  0  0  0  0  0
   -8.1540   22.5970  -31.9030 C   0  0  0  0  0  0  0  0  0  0  0  0
   -9.4860   22.1900  -31.9170 C   0  0  0  0  0  0  0  0  0  0  0  0
   -9.8040   20.8550  -32.1360 C   0  0  0  0  0  0  0  0  0  0  0  0
   -8.7930   19.9140  -32.3270 C   0  0  0  0  0  0  0  0  0  0  0  0
   -7.4250   20.2890  -32.2810 C   0  0  0  0  0  0  0  0  0  0  0  0
   -6.4110   19.3630  -32.4380 N   0  0  0  0  0  0  0  0  0  0  0  0
   -6.7090   17.9160  -32.3360 C   0  0  0  0  0  0  0  0  0  0  0  0
   -5.1160   19.7890  -32.6710 C   0  0  0  0  0  0  0  0  0  0  0  0
   -4.1010   18.8940  -33.0990 C   0  0  0  0  0  0  0  0  0  0  0  0
   -2.7860   19.3250  -33.2710 C   0  0  0  0  0  0  0  0  0  0  0  0
   -2.4500   20.6560  -33.0480 C   0  0  0  0  0  0  0  0  0  0  0  0
   -0.7910   21.1920  -33.2550 Cl  0  0  0  0  0  0  0  0  0  0  0  0
   -3.4360   21.5700  -32.6790 C   0  0  0  0  0  0  0  0  0  0  0  0
   -4.7730   21.1570  -32.4920 C   0  0  0  0  0  0  0  0  0  0  0  0
   -0.0675   21.4596  -28.6479 H   0  0  0  0  0  0  0  0  0  0  0  0
    0.2519   20.6064  -30.1960 H   0  0  0  0  0  0  0  0  0  0  0  0
   -0.6510   22.1593  -30.1960 H   0  0  0  0  0  0  0  0  0  0  0  0
   -2.2909   20.4145  -30.4697 H   0  0  0  0  0  0  0  0  0  0  0  0
   -1.5683   19.4450  -29.1324 H   0  0  0  0  0  0  0  0  0  0  0  0
   -3.3276   20.8231  -26.5343 H   0  0  0  0  0  0  0  0  0  0  0  0
   -3.9084   19.6188  -27.7479 H   0  0  0  0  0  0  0  0  0  0  0  0
   -1.8114   19.2273  -25.9626 H   0  0  0  0  0  0  0  0  0  0  0  0
   -2.0884   18.2972  -27.4742 H   0  0  0  0  0  0  0  0  0  0  0  0
   -0.9617   19.6962  -27.4742 H   0  0  0  0  0  0  0  0  0  0  0  0
   -2.1135   22.3967  -26.9016 H   0  0  0  0  0  0  0  0  0  0  0  0
   -1.0032   22.4330  -28.3228 H   0  0  0  0  0  0  0  0  0  0  0  0
   -3.8487   23.5612  -28.2546 H   0  0  0  0  0  0  0  0  0  0  0  0
   -2.3091   24.5178  -28.1366 H   0  0  0  0  0  0  0  0  0  0  0  0
   -1.6714   23.9256  -30.3725 H   0  0  0  0  0  0  0  0  0  0  0  0
   -3.0441   22.7397  -30.4932 H   0  0  0  0  0  0  0  0  0  0  0  0
   -3.0870   25.6740  -30.6120 H   0  0  0  0  0  0  0  0  0  0  0  0
   -4.7345   24.4373  -28.8972 H   0  0  0  0  0  0  0  0  0  0  0  0
   -5.1267   25.9314  -29.8222 H   0  0  0  0  0  0  0  0  0  0  0  0
   -6.4065   23.3752  -29.9735 H   0  0  0  0  0  0  0  0  0  0  0  0
   -6.7177   24.8478  -30.9728 H   0  0  0  0  0  0  0  0  0  0  0  0
   -4.6430   23.8940  -32.3540 H   0  0  0  0  0  0  0  0  0  0  0  0
   -7.9110   23.6582  -31.7454 H   0  0  0  0  0  0  0  0  0  0  0  0
  -10.2871   22.9261  -31.7545 H   0  0  0  0  0  0  0  0  0  0  0  0
  -10.8575   20.5394  -32.1588 H   0  0  0  0  0  0  0  0  0  0  0  0
   -9.0601   18.8639  -32.5164 H   0  0  0  0  0  0  0  0  0  0  0  0
   -6.7684   17.6277  -31.2761 H   0  0  0  0  0  0  0  0  0  0  0  0
   -7.6697   17.7039  -32.8281 H   0  0  0  0  0  0  0  0  0  0  0  0
   -5.9103   17.3416  -32.8281 H   0  0  0  0  0  0  0  0  0  0  0  0
   -4.3559   17.8427  -33.2984 H   0  0  0  0  0  0  0  0  0  0  0  0
   -2.0115   18.6095  -33.5843 H   0  0  0  0  0  0  0  0  0  0  0  0
   -3.1687   22.6268  -32.5316 H   0  0  0  0  0  0  0  0  0  0  0  0
  1  2  1  0
  2  3  1  0
  3  4  1  0
  4  5  1  0
  3  6  1  0
  6  7  1  0
  7  8  1  0
  8  9  1  0
  9 10  1  0
 10 11  1  0
 11 12  1  0
 12 13  1  0
 13 14  2  0
 14 15  1  0
 15 16  2  0
 16 17  1  0
 17 18  2  0
 18 19  1  0
 19 20  2  0
 20 21  1  0
 20 22  1  0
 22 23  2  0
 23 24  1  0
 24 25  2  0
 25 26  1  0
 25 27  1  0
 27 28  2  0
 28 13  1  0
 19 14  1  0
 28 22  1  0
  1 29  1  0
  1 30  1  0
  1 31  1  0
  2 32  1  0
  2 33  1  0
  4 34  1  0
  4 35  1  0
  5 36  1  0
  5 37  1  0
  5 38  1  0
  6 39  1  0
  6 40  1  0
  7 41  1  0
  7 42  1  0
  8 43  1  0
  8 44  1  0
  9 45  1  0
 10 46  1  0
 10 47  1  0
 11 48  1  0
 11 49  1  0
 12 50  1  0
 15 51  1  0
 16 52  1  0
 17 53  1  0
 18 54  1  0
 21 55  1  0
 21 56  1  0
 21 57  1  0
 23 58  1  0
 24 59  1  0
 27 60  1  0
M  CHG  1  20   1
M  END
>  <UniqueID>  (18) 
18

>  <SMILES>  (18) 
CCN(CC)CCCNCCNc1c2ccccc2[n+](C)c2ccc(Cl)cc12

>  <Energy>  (18) 
79.79713431315835

>  <Genealogy>  (18) 
CCN(CC)CCCNCCNc1c2ccccc2[n+](C)c2ccc(Cl)cc12 (3D coordinates assigned)
CCN(CC)CCCNCCNc1c2ccccc2[n+](C)c2ccc(Cl)cc12 (optimized conformer: 79.79713431315835 kcal/mol)

>  <smiles>  (18) 
CCN(CC)CCCNCCNc1c2ccccc2[n+](C)c2ccc(Cl)cc12

>  <score_type>  (18) 
oracle

>  <origin>  (18) 
adg

>  <m_score__min__energy>  (18) 
-9.1300000000000008

>  <m_primary>  (18) 
energy

$$$$
18:0
     RDKit          3D

 49 51  0  0  0  0  0  0  0  0999 V2000
   -5.7100   18.2420  -35.0390 C   0  0  0  0  0  0  0  0  0  0  0  0
   -5.7930   18.2940  -33.5730 N   0  0  0  0  0  0  0  0  0  0  0  0
   -4.4580   18.2870  -32.9550 C   0  0  0  0  0  0  0  0  0  0  0  0
   -6.7030   17.2740  -33.0020 C   0  0  0  0  0  0  0  0  0  0  0  0
   -7.9890   17.8390  -32.3400 C   0  0  0  0  0  0  0  0  0  0  0  0
   -8.3540   19.1500  -32.9060 N   0  0  0  0  0  0  0  0  0  0  0  0
   -8.6480   20.1560  -31.8670 C   0  0  0  0  0  0  0  0  0  0  0  0
   -8.3710   21.6060  -32.3100 C   0  0  0  0  0  0  0  0  0  0  0  0
   -6.9540   22.0240  -32.0320 C   0  0  0  0  0  0  0  0  0  0  0  0
   -5.8070   21.3400  -32.4220 C   0  0  0  0  0  0  0  0  0  0  0  0
   -4.7030   21.9690  -31.9530 N   0  0  0  0  0  0  0  0  0  0  0  0
   -3.3460   21.5420  -32.1660 C   0  0  0  0  0  0  0  0  0  0  0  0
   -2.9030   21.1750  -33.4490 C   0  0  0  0  0  0  0  0  0  0  0  0
   -1.5850   20.7520  -33.6440 C   0  0  0  0  0  0  0  0  0  0  0  0
   -0.7020   20.6830  -32.5620 C   0  0  0  0  0  0  0  0  0  0  0  0
   -1.1390   21.0280  -31.2810 C   0  0  0  0  0  0  0  0  0  0  0  0
   -2.4570   21.4500  -31.0800 C   0  0  0  0  0  0  0  0  0  0  0  0
   -5.1420   23.0430  -31.2600 C   0  0  0  0  0  0  0  0  0  0  0  0
   -4.3900   23.9700  -30.5280 C   0  0  0  0  0  0  0  0  0  0  0  0
   -5.0760   24.9980  -29.8580 C   0  0  0  0  0  0  0  0  0  0  0  0
   -6.4840   25.0730  -29.9140 C   0  0  0  0  0  0  0  0  0  0  0  0
   -7.2210   24.1170  -30.6320 C   0  0  0  0  0  0  0  0  0  0  0  0
   -6.5160   23.1080  -31.2920 C   0  0  0  0  0  0  0  0  0  0  0  0
   -4.8124   17.6796  -35.3357 H   0  0  0  0  0  0  0  0  0  0  0  0
   -6.6046   17.7426  -35.4394 H   0  0  0  0  0  0  0  0  0  0  0  0
   -5.6509   19.2648  -35.4394 H   0  0  0  0  0  0  0  0  0  0  0  0
   -4.5609   18.2875  -31.8598 H   0  0  0  0  0  0  0  0  0  0  0  0
   -3.9121   17.3860  -33.2715 H   0  0  0  0  0  0  0  0  0  0  0  0
   -3.9027   19.1822  -33.2715 H   0  0  0  0  0  0  0  0  0  0  0  0
   -7.0065   16.5953  -33.8127 H   0  0  0  0  0  0  0  0  0  0  0  0
   -6.1395   16.7731  -32.2010 H   0  0  0  0  0  0  0  0  0  0  0  0
   -8.8168   17.1341  -32.5071 H   0  0  0  0  0  0  0  0  0  0  0  0
   -7.7968   17.9677  -31.2646 H   0  0  0  0  0  0  0  0  0  0  0  0
   -7.5900   19.4910  -33.5340 H   0  0  0  0  0  0  0  0  0  0  0  0
   -9.2170   19.0450  -33.4890 H   0  0  0  0  0  0  0  0  0  0  0  0
   -9.7106   20.0734  -31.5949 H   0  0  0  0  0  0  0  0  0  0  0  0
   -7.9791   19.9464  -31.0193 H   0  0  0  0  0  0  0  0  0  0  0  0
   -8.5590   21.6883  -33.3907 H   0  0  0  0  0  0  0  0  0  0  0  0
   -9.0369   22.2674  -31.7362 H   0  0  0  0  0  0  0  0  0  0  0  0
   -5.7980   20.4200  -33.0250 H   0  0  0  0  0  0  0  0  0  0  0  0
   -3.5959   21.2209  -34.3021 H   0  0  0  0  0  0  0  0  0  0  0  0
   -1.2417   20.4728  -34.6511 H   0  0  0  0  0  0  0  0  0  0  0  0
    0.3367   20.3570  -32.7196 H   0  0  0  0  0  0  0  0  0  0  0  0
   -0.4456   20.9677  -30.4292 H   0  0  0  0  0  0  0  0  0  0  0  0
   -2.8000   21.7112  -30.0680 H   0  0  0  0  0  0  0  0  0  0  0  0
   -3.2936   23.8960  -30.4786 H   0  0  0  0  0  0  0  0  0  0  0  0
   -4.5113   25.7491  -29.2862 H   0  0  0  0  0  0  0  0  0  0  0  0
   -7.0084   25.8865  -29.3913 H   0  0  0  0  0  0  0  0  0  0  0  0
   -8.3193   24.1616  -30.6732 H   0  0  0  0  0  0  0  0  0  0  0  0
  1  2  1  0
  2  3  1  0
  2  4  1  0
  4  5  1  0
  5  6  1  0
  6  7  1  0
  7  8  1  0
  8  9  1  0
  9 10  2  0
 10 11  1  0
 11 12  1  0
 12 13  2  0
 13 14  1  0
 14 15  2  0
 15 16  1  0
 16 17  2  0
 11 18  1  0
 18 19  2  0
 19 20  1  0
 20 21  2  0
 21 22  1  0
 22 23  2  0
 23  9  1  0
 17 12  1  0
 23 18  1  0
  1 24  1  0
  1 25  1  0
  1 26  1  0
  3 27  1  0
  3 28  1  0
  3 29  1  0
  4 30  1  0
  4 31  1  0
  5 32  1  0
  5 33  1  0
  6 34  1  0
  6 35  1  0
  7 36  1  0
  7 37  1  0
  8 38  1  0
  8 39  1  0
 10 40  1  0
 13 41  1  0
 14 42  1  0
 15 43  1  0
 16 44  1  0
 17 45  1  0
 19 46  1  0
 20 47  1  0
 21 48  1  0
 22 49  1  0
M  CHG  1   6   1
M  END
>  <UniqueID>  (19) 
19

>  <SMILES>  (19) 
CN(C)CC[NH2+]CCc1cn(-c2ccccc2)c2ccccc12

>  <Energy>  (19) 
92.26851673529129

>  <Genealogy>  (19) 
CN(C)CC[NH2+]CCc1cn(-c2ccccc2)c2ccccc12 (protonated)
CN(C)CC[NH2+]CCc1cn(-c2ccccc2)c2ccccc12 (3D coordinates assigned)
CN(C)CC[NH2+]CCc1cn(-c2ccccc2)c2ccccc12 (optimized conformer: 92.26851673529129 kcal/mol)

>  <smiles>  (19) 
CN(C)CCNCCc1cn(-c2ccccc2)c2ccccc12

>  <score_type>  (19) 
oracle

>  <origin>  (19) 
adg

>  <m_score__min__energy>  (19) 
-7.5899999999999999

>  <m_primary>  (19) 
energy

$$$$
19:0
     RDKit          3D

 52 55  0  0  0  0  0  0  0  0999 V2000
   -6.0870   25.5660  -29.6040 C   0  0  0  0  0  0  0  0  0  0  0  0
   -5.2410   25.2960  -30.8390 C   0  0  0  0  0  0  0  0  0  0  0  0
   -3.8790   25.2700  -30.4700 O   0  0  0  0  0  0  0  0  0  0  0  0
   -3.6560   24.2040  -29.5720 C   0  0  0  0  0  0  0  0  0  0  0  0
   -4.1430   22.8980  -30.1910 C   0  0  0  0  0  0  0  0  0  0  0  0
   -3.0790   21.8890  -30.1850 N   0  0  0  0  0  0  0  0  0  0  0  0
   -2.5180   21.2540  -31.2500 C   0  0  0  0  0  0  0  0  0  0  0  0
   -2.9530   21.5870  -32.9640 S   0  0  0  0  0  0  0  0  0  0  0  0
   -2.6080   19.9010  -33.5920 C   0  0  0  0  0  0  0  0  0  0  0  0
   -3.8050   18.9630  -33.4760 C   0  0  0  0  0  0  0  0  0  0  0  0
   -5.0110   19.6770  -33.7330 O   0  0  0  0  0  0  0  0  0  0  0  0
   -6.2300   19.4380  -33.0730 C   0  0  0  0  0  0  0  0  0  0  0  0
   -6.7600   18.1400  -32.9530 C   0  0  0  0  0  0  0  0  0  0  0  0
   -7.9850   17.9300  -32.3170 C   0  0  0  0  0  0  0  0  0  0  0  0
   -8.7000   19.0050  -31.7930 C   0  0  0  0  0  0  0  0  0  0  0  0
   -8.1930   20.3060  -31.8980 C   0  0  0  0  0  0  0  0  0  0  0  0
   -8.9170   21.3920  -31.3810 C   0  0  0  0  0  0  0  0  0  0  0  0
   -8.4160   22.6910  -31.5020 C   0  0  0  0  0  0  0  0  0  0  0  0
   -7.1930   22.9170  -32.1360 C   0  0  0  0  0  0  0  0  0  0  0  0
   -6.4600   21.8450  -32.6520 C   0  0  0  0  0  0  0  0  0  0  0  0
   -6.9460   20.5290  -32.5380 C   0  0  0  0  0  0  0  0  0  0  0  0
   -1.6210   20.2960  -30.8990 N   0  0  0  0  0  0  0  0  0  0  0  0
   -1.6110   20.3690  -29.5560 C   0  0  0  0  0  0  0  0  0  0  0  0
   -0.8550   19.6040  -28.6730 C   0  0  0  0  0  0  0  0  0  0  0  0
   -1.0180   19.8410  -27.2950 C   0  0  0  0  0  0  0  0  0  0  0  0
   -1.9270   20.8240  -26.8400 C   0  0  0  0  0  0  0  0  0  0  0  0
   -2.6780   21.5800  -27.7590 C   0  0  0  0  0  0  0  0  0  0  0  0
   -2.4850   21.3240  -29.1200 C   0  0  0  0  0  0  0  0  0  0  0  0
   -5.4888   25.3751  -28.7009 H   0  0  0  0  0  0  0  0  0  0  0  0
   -6.4189   26.6147  -29.6090 H   0  0  0  0  0  0  0  0  0  0  0  0
   -6.9651   24.9035  -29.6090 H   0  0  0  0  0  0  0  0  0  0  0  0
   -5.5233   24.3258  -31.2738 H   0  0  0  0  0  0  0  0  0  0  0  0
   -5.4080   26.0890  -31.5828 H   0  0  0  0  0  0  0  0  0  0  0  0
   -2.5801   24.1271  -29.3561 H   0  0  0  0  0  0  0  0  0  0  0  0
   -4.2081   24.3925  -28.6395 H   0  0  0  0  0  0  0  0  0  0  0  0
   -4.9995   22.5221  -29.6121 H   0  0  0  0  0  0  0  0  0  0  0  0
   -4.4393   23.0910  -31.2326 H   0  0  0  0  0  0  0  0  0  0  0  0
   -2.3216   19.9738  -34.6516 H   0  0  0  0  0  0  0  0  0  0  0  0
   -1.8003   19.4800  -32.9752 H   0  0  0  0  0  0  0  0  0  0  0  0
   -3.7013   18.1481  -34.2075 H   0  0  0  0  0  0  0  0  0  0  0  0
   -3.8411   18.5483  -32.4578 H   0  0  0  0  0  0  0  0  0  0  0  0
   -6.2047   17.2839  -33.3636 H   0  0  0  0  0  0  0  0  0  0  0  0
   -8.3879   16.9102  -32.2291 H   0  0  0  0  0  0  0  0  0  0  0  0
   -9.6655   18.8311  -31.2954 H   0  0  0  0  0  0  0  0  0  0  0  0
   -9.8808   21.2201  -30.8795 H   0  0  0  0  0  0  0  0  0  0  0  0
   -8.9876   23.5387  -31.0961 H   0  0  0  0  0  0  0  0  0  0  0  0
   -6.8051   23.9421  -32.2297 H   0  0  0  0  0  0  0  0  0  0  0  0
   -5.4972   22.0308  -33.1504 H   0  0  0  0  0  0  0  0  0  0  0  0
   -0.1537   18.8399  -29.0394 H   0  0  0  0  0  0  0  0  0  0  0  0
   -0.4345   19.2578  -26.5674 H   0  0  0  0  0  0  0  0  0  0  0  0
   -2.0478   20.9988  -25.7607 H   0  0  0  0  0  0  0  0  0  0  0  0
   -3.3914   22.3451  -27.4188 H   0  0  0  0  0  0  0  0  0  0  0  0
  1  2  1  0
  2  3  1  0
  3  4  1  0
  4  5  1  0
  5  6  1  0
  6  7  1  0
  7  8  1  0
  8  9  1  0
  9 10  1  0
 10 11  1  0
 11 12  1  0
 12 13  2  0
 13 14  1  0
 14 15  2  0
 15 16  1  0
 16 17  2  0
 17 18  1  0
 18 19  2  0
 19 20  1  0
 20 21  2  0
  7 22  2  0
 22 23  1  0
 23 24  2  0
 24 25  1  0
 25 26  2  0
 26 27  1  0
 27 28  2  0
 28  6  1  0
 21 12  1  0
 28 23  1  0
 21 16  1  0
  1 29  1  0
  1 30  1  0
  1 31  1  0
  2 32  1  0
  2 33  1  0
  4 34  1  0
  4 35  1  0
  5 36  1  0
  5 37  1  0
  9 38  1  0
  9 39  1  0
 10 40  1  0
 10 41  1  0
 13 42  1  0
 14 43  1  0
 15 44  1  0
 17 45  1  0
 18 46  1  0
 19 47  1  0
 20 48  1  0
 24 49  1  0
 25 50  1  0
 26 51  1  0
 27 52  1  0
M  END
>  <UniqueID>  (20) 
20

>  <SMILES>  (20) 
CCOCCn1c(SCCOc2cccc3ccccc23)nc2ccccc21

>  <Energy>  (20) 
84.95425850478641

>  <Genealogy>  (20) 
CCOCCn1c(SCCOc2cccc3ccccc23)nc2ccccc21 (3D coordinates assigned)
CCOCCn1c(SCCOc2cccc3ccccc23)nc2ccccc21 (optimized conformer: 84.95425850478641 kcal/mol)

>  <smiles>  (20) 
CCOCCn1c(SCCOc2cccc3ccccc23)nc2ccccc21

>  <score_type>  (20) 
oracle

>  <origin>  (20) 
adg

>  <m_score__min__energy>  (20) 
-9.2100000000000009

>  <m_primary>  (20) 
energy

$$$$
20:0
     RDKit          3D

 64 66  0  0  0  0  0  0  0  0999 V2000
   -4.1110   14.9700  -32.7160 C   0  0  0  0  0  0  0  0  0  0  0  0
   -3.9370   15.7880  -33.9960 C   0  0  0  0  0  0  0  0  0  0  0  0
   -4.4580   17.1660  -33.8190 N   0  0  0  0  0  0  0  0  0  0  0  0
   -5.7400   17.3210  -34.5560 C   0  0  0  0  0  0  0  0  0  0  0  0
   -6.8640   16.5660  -33.8570 C   0  0  0  0  0  0  0  0  0  0  0  0
   -3.4820   18.1720  -34.3120 C   0  0  0  0  0  0  0  0  0  0  0  0
   -3.5660   19.5270  -33.5800 C   0  0  0  0  0  0  0  0  0  0  0  0
   -4.5110   19.5390  -32.4550 N   0  0  0  0  0  0  0  0  0  0  0  0
   -5.2680   20.6920  -32.0330 C   0  0  0  0  0  0  0  0  0  0  0  0
   -6.6740   20.7040  -32.1000 C   0  0  0  0  0  0  0  0  0  0  0  0
   -7.3860   19.6550  -32.7170 C   0  0  0  0  0  0  0  0  0  0  0  0
   -8.7780   19.6210  -32.6880 C   0  0  0  0  0  0  0  0  0  0  0  0
   -9.4840   20.6350  -32.0520 C   0  0  0  0  0  0  0  0  0  0  0  0
   -8.8040   21.7200  -31.4990 C   0  0  0  0  0  0  0  0  0  0  0  0
   -7.3910   21.8100  -31.5660 C   0  0  0  0  0  0  0  0  0  0  0  0
   -6.7140   22.9330  -31.1300 N   0  0  0  0  0  0  0  0  0  0  0  0
   -7.4570   24.1860  -30.8600 C   0  0  0  0  0  0  0  0  0  0  0  0
   -5.3390   22.9040  -30.9910 C   0  0  0  0  0  0  0  0  0  0  0  0
   -4.6370   23.9340  -30.3130 C   0  0  0  0  0  0  0  0  0  0  0  0
   -3.2480   23.9070  -30.1770 C   0  0  0  0  0  0  0  0  0  0  0  0
   -2.6320   24.9380  -29.4480 O   0  0  0  0  0  0  0  0  0  0  0  0
   -2.2030   24.8480  -28.0880 C   0  0  0  0  0  0  0  0  0  0  0  0
   -0.8480   25.5430  -27.9010 C   0  0  0  0  0  0  0  0  0  0  0  0
    0.2610   24.6190  -28.2220 N   0  0  0  0  0  0  0  0  0  0  0  0
    1.3480   24.7350  -27.2340 C   0  0  0  0  0  0  0  0  0  0  0  0
   -0.2250   23.2300  -28.2520 C   0  0  0  0  0  0  0  0  0  0  0  0
   -2.5240   22.8570  -30.7550 C   0  0  0  0  0  0  0  0  0  0  0  0
   -3.1890   21.8170  -31.3940 C   0  0  0  0  0  0  0  0  0  0  0  0
   -4.5950   21.8030  -31.4890 C   0  0  0  0  0  0  0  0  0  0  0  0
   -3.9721   15.6230  -31.8418 H   0  0  0  0  0  0  0  0  0  0  0  0
   -5.1215   14.5361  -32.6927 H   0  0  0  0  0  0  0  0  0  0  0  0
   -3.3646   14.1624  -32.6927 H   0  0  0  0  0  0  0  0  0  0  0  0
   -2.8677   15.8371  -34.2494 H   0  0  0  0  0  0  0  0  0  0  0  0
   -4.5015   15.3001  -34.8042 H   0  0  0  0  0  0  0  0  0  0  0  0
   -5.9999   18.3887  -34.6058 H   0  0  0  0  0  0  0  0  0  0  0  0
   -5.6157   16.9081  -35.5680 H   0  0  0  0  0  0  0  0  0  0  0  0
   -6.7395   16.6496  -32.7673 H   0  0  0  0  0  0  0  0  0  0  0  0
   -7.8327   16.9973  -34.1496 H   0  0  0  0  0  0  0  0  0  0  0  0
   -6.8311   15.5061  -34.1496 H   0  0  0  0  0  0  0  0  0  0  0  0
   -2.4681   17.7670  -34.1780 H   0  0  0  0  0  0  0  0  0  0  0  0
   -3.7216   18.3618  -35.3687 H   0  0  0  0  0  0  0  0  0  0  0  0
   -2.5659   19.7750  -33.1948 H   0  0  0  0  0  0  0  0  0  0  0  0
   -3.9315   20.2627  -34.3116 H   0  0  0  0  0  0  0  0  0  0  0  0
   -4.7580   18.6160  -32.0340 H   0  0  0  0  0  0  0  0  0  0  0  0
   -6.8344   18.8523  -33.2283 H   0  0  0  0  0  0  0  0  0  0  0  0
   -9.3183   18.7919  -33.1683 H   0  0  0  0  0  0  0  0  0  0  0  0
  -10.5806   20.5819  -31.9846 H   0  0  0  0  0  0  0  0  0  0  0  0
   -9.3738   22.5193  -31.0025 H   0  0  0  0  0  0  0  0  0  0  0  0
   -7.5445   24.3335  -29.7735 H   0  0  0  0  0  0  0  0  0  0  0  0
   -6.9165   25.0355  -31.3030 H   0  0  0  0  0  0  0  0  0  0  0  0
   -8.4616   24.1193  -31.3030 H   0  0  0  0  0  0  0  0  0  0  0  0
   -5.2015   24.7749  -29.8838 H   0  0  0  0  0  0  0  0  0  0  0  0
   -2.9495   25.3317  -27.4409 H   0  0  0  0  0  0  0  0  0  0  0  0
   -2.0967   23.7865  -27.8196 H   0  0  0  0  0  0  0  0  0  0  0  0
   -0.7949   26.4164  -28.5676 H   0  0  0  0  0  0  0  0  0  0  0  0
   -0.7536   25.8583  -26.8514 H   0  0  0  0  0  0  0  0  0  0  0  0
    0.9270   24.6901  -26.2187 H   0  0  0  0  0  0  0  0  0  0  0  0
    2.0595   23.9077  -27.3728 H   0  0  0  0  0  0  0  0  0  0  0  0
    1.8689   25.6938  -27.3728 H   0  0  0  0  0  0  0  0  0  0  0  0
   -0.3530   22.8640  -27.2226 H   0  0  0  0  0  0  0  0  0  0  0  0
   -1.1903   23.1906  -28.7779 H   0  0  0  0  0  0  0  0  0  0  0  0
    0.5052   22.5973  -28.7779 H   0  0  0  0  0  0  0  0  0  0  0  0
   -1.4252   22.8552  -30.7032 H   0  0  0  0  0  0  0  0  0  0  0  0
   -2.6086   20.9918  -31.8325 H   0  0  0  0  0  0  0  0  0  0  0  0
  1  2  1  0
  2  3  1  0
  3  4  1  0
  4  5  1  0
  3  6  1  0
  6  7  1  0
  7  8  1  0
  8  9  1  0
  9 10  2  0
 10 11  1  0
 11 12  2  0
 12 13  1  0
 13 14  2  0
 14 15  1  0
 15 16  2  0
 16 17  1  0
 16 18  1  0
 18 19  2  0
 19 20  1  0
 20 21  1  0
 21 22  1  0
 22 23  1  0
 23 24  1  0
 24 25  1  0
 24 26  1  0
 20 27  2  0
 27 28  1  0
 28 29  2  0
 29  9  1  0
 15 10  1  0
 29 18  1  0
  1 30  1  0
  1 31  1  0
  1 32  1  0
  2 33  1  0
  2 34  1  0
  4 35  1  0
  4 36  1  0
  5 37  1  0
  5 38  1  0
  5 39  1  0
  6 40  1  0
  6 41  1  0
  7 42  1  0
  7 43  1  0
  8 44  1  0
 11 45  1  0
 12 46  1  0
 13 47  1  0
 14 48  1  0
 17 49  1  0
 17 50  1  0
 17 51  1  0
 19 52  1  0
 22 53  1  0
 22 54  1  0
 23 55  1  0
 23 56  1  0
 25 57  1  0
 25 58  1  0
 25 59  1  0
 26 60  1  0
 26 61  1  0
 26 62  1  0
 27 63  1  0
 28 64  1  0
M  CHG  1  16   1
M  END
>  <UniqueID>  (21) 
21

>  <SMILES>  (21) 
CCN(CC)CCNc1c2ccccc2[n+](C)c2cc(OCCN(C)C)ccc12

>  <Energy>  (21) 
86.80682600712477

>  <Genealogy>  (21) 
CCN(CC)CCNc1c2ccccc2[n+](C)c2cc(OCCN(C)C)ccc12 (3D coordinates assigned)
CCN(CC)CCNc1c2ccccc2[n+](C)c2cc(OCCN(C)C)ccc12 (optimized conformer: 86.80682600712477 kcal/mol)

>  <smiles>  (21) 
CCN(CC)CCNc1c2ccccc2[n+](C)c2cc(OCCN(C)C)ccc12

>  <score_type>  (21) 
oracle

>  <origin>  (21) 
adg

>  <m_score__min__energy>  (21) 
-8.6300000000000008

>  <m_primary>  (21) 
energy

$$$$
21:0
     RDKit          3D

 37 39  0  0  0  0  0  0  0  0999 V2000
   -5.4020   25.6650  -30.4650 C   0  0  0  0  0  0  0  0  0  0  0  0
   -6.2940   24.5260  -29.9800 C   0  0  0  0  0  0  0  0  0  0  0  0
   -7.2340   23.9860  -31.0730 C   0  0  0  0  0  0  0  0  0  0  0  0
   -6.7870   22.6740  -31.5900 N   0  0  0  0  0  0  0  0  0  0  0  0
   -5.5270   22.6370  -32.1480 C   0  0  0  0  0  0  0  0  0  0  0  0
   -5.0090   21.4720  -32.7150 C   0  0  0  0  0  0  0  0  0  0  0  0
   -5.8310   20.3630  -32.7450 C   0  0  0  0  0  0  0  0  0  0  0  0
   -5.6140   19.1150  -33.2740 C   0  0  0  0  0  0  0  0  0  0  0  0
   -4.5000   18.5650  -33.9080 C   0  0  0  0  0  0  0  0  0  0  0  0
   -4.5860   17.2330  -34.3460 C   0  0  0  0  0  0  0  0  0  0  0  0
   -5.7690   16.4920  -34.1450 C   0  0  0  0  0  0  0  0  0  0  0  0
   -6.8790   17.0740  -33.5070 C   0  0  0  0  0  0  0  0  0  0  0  0
   -6.7770   18.4050  -33.0800 C   0  0  0  0  0  0  0  0  0  0  0  0
   -7.7180   19.1670  -32.4630 N   0  0  0  0  0  0  0  0  0  0  0  0
   -9.1060   18.7650  -32.2150 C   0  0  0  0  0  0  0  0  0  0  0  0
   -7.1090   20.3710  -32.2250 C   0  0  0  0  0  0  0  0  0  0  0  0
   -7.5860   21.5340  -31.5600 C   0  0  0  0  0  0  0  0  0  0  0  0
   -8.9080   21.5180  -30.8280 C   0  0  0  0  0  0  0  0  0  0  0  0
   -4.9844   26.1982  -29.5982 H   0  0  0  0  0  0  0  0  0  0  0  0
   -4.5822   25.2552  -31.0732 H   0  0  0  0  0  0  0  0  0  0  0  0
   -5.9964   26.3627  -31.0732 H   0  0  0  0  0  0  0  0  0  0  0  0
   -5.6524   23.7029  -29.6324 H   0  0  0  0  0  0  0  0  0  0  0  0
   -6.9257   24.9257  -29.1730 H   0  0  0  0  0  0  0  0  0  0  0  0
   -8.2436   23.8759  -30.6505 H   0  0  0  0  0  0  0  0  0  0  0  0
   -7.2283   24.7005  -31.9093 H   0  0  0  0  0  0  0  0  0  0  0  0
   -4.9136   23.5501  -32.1462 H   0  0  0  0  0  0  0  0  0  0  0  0
   -3.9874   21.4385  -33.1215 H   0  0  0  0  0  0  0  0  0  0  0  0
   -3.5841   19.1549  -34.0601 H   0  0  0  0  0  0  0  0  0  0  0  0
   -3.7262   16.7656  -34.8483 H   0  0  0  0  0  0  0  0  0  0  0  0
   -5.8240   15.4491  -34.4905 H   0  0  0  0  0  0  0  0  0  0  0  0
   -7.8033   16.4994  -33.3473 H   0  0  0  0  0  0  0  0  0  0  0  0
   -9.2846   18.7133  -31.1308 H   0  0  0  0  0  0  0  0  0  0  0  0
   -9.7872   19.5028  -32.6641 H   0  0  0  0  0  0  0  0  0  0  0  0
   -9.2875   17.7774  -32.6641 H   0  0  0  0  0  0  0  0  0  0  0  0
   -8.7264   21.5202  -29.7431 H   0  0  0  0  0  0  0  0  0  0  0  0
   -9.4908   22.4092  -31.1040 H   0  0  0  0  0  0  0  0  0  0  0  0
   -9.4690   20.6130  -31.1040 H   0  0  0  0  0  0  0  0  0  0  0  0
  1  2  1  0
  2  3  1  0
  3  4  1  0
  4  5  2  0
  5  6  1  0
  6  7  2  0
  7  8  1  0
  8  9  2  0
  9 10  1  0
 10 11  2  0
 11 12  1  0
 12 13  2  0
 13 14  1  0
 14 15  1  0
 14 16  1  0
 16 17  2  0
 17 18  1  0
 17  4  1  0
 16  7  1  0
 13  8  1  0
  1 19  1  0
  1 20  1  0
  1 21  1  0
  2 22  1  0
  2 23  1  0
  3 24  1  0
  3 25  1  0
  5 26  1  0
  6 27  1  0
  9 28  1  0
 10 29  1  0
 11 30  1  0
 12 31  1  0
 15 32  1  0
 15 33  1  0
 15 34  1  0
 18 35  1  0
 18 36  1  0
 18 37  1  0
M  CHG  1   4   1
M  END
>  <UniqueID>  (22) 
22

>  <SMILES>  (22) 
CCC[n+]1ccc2c3ccccc3n(C)c2c1C

>  <Energy>  (22) 
87.88352977322918

>  <Genealogy>  (22) 
CCC[n+]1ccc2c3ccccc3n(C)c2c1C (3D coordinates assigned)
CCC[n+]1ccc2c3ccccc3n(C)c2c1C (optimized conformer: 87.88352977322918 kcal/mol)

>  <smiles>  (22) 
CCC[n+]1ccc2c3ccccc3n(C)c2c1C

>  <score_type>  (22) 
oracle

>  <origin>  (22) 
adg

>  <m_score__min__energy>  (22) 
-6.8200000000000003

>  <m_primary>  (22) 
energy

$$$$
22:0
     RDKit          3D

 68 70  0  0  0  0  0  0  0  0999 V2000
   -3.8650   24.4540  -27.3090 C   0  0  0  0  0  0  0  0  0  0  0  0
   -4.6070   23.9480  -28.5530 C   0  0  0  0  0  0  0  0  0  0  0  0
   -4.0060   24.3790  -29.8420 N   0  0  0  0  0  0  0  0  0  0  0  0
   -2.9930   23.4380  -30.3740 C   0  0  0  0  0  0  0  0  0  0  0  0
   -3.0850   22.0690  -29.7010 C   0  0  0  0  0  0  0  0  0  0  0  0
   -5.0360   24.7140  -30.8510 C   0  0  0  0  0  0  0  0  0  0  0  0
   -6.0040   23.5430  -31.0740 C   0  0  0  0  0  0  0  0  0  0  0  0
   -5.8850   22.9800  -32.4230 N   0  0  0  0  0  0  0  0  0  0  0  0
   -5.7940   21.5630  -32.6590 C   0  0  0  0  0  0  0  0  0  0  0  0
   -6.9140   20.7320  -32.4760 C   0  0  0  0  0  0  0  0  0  0  0  0
   -8.0780   21.2130  -31.8400 C   0  0  0  0  0  0  0  0  0  0  0  0
   -9.1740   20.3800  -31.6360 C   0  0  0  0  0  0  0  0  0  0  0  0
   -9.1210   19.0500  -32.0350 C   0  0  0  0  0  0  0  0  0  0  0  0
   -7.9730   18.5450  -32.6440 C   0  0  0  0  0  0  0  0  0  0  0  0
   -6.8500   19.3760  -32.8940 C   0  0  0  0  0  0  0  0  0  0  0  0
   -5.7090   18.8920  -33.5040 N   0  0  0  0  0  0  0  0  0  0  0  0
   -5.7390   17.5910  -34.2070 C   0  0  0  0  0  0  0  0  0  0  0  0
   -4.5410   19.6310  -33.4640 C   0  0  0  0  0  0  0  0  0  0  0  0
   -3.2880   19.0650  -33.8120 C   0  0  0  0  0  0  0  0  0  0  0  0
   -2.1180   19.8280  -33.8230 C   0  0  0  0  0  0  0  0  0  0  0  0
   -0.9190   19.1950  -34.1960 O   0  0  0  0  0  0  0  0  0  0  0  0
   -0.4010   17.9950  -33.6200 C   0  0  0  0  0  0  0  0  0  0  0  0
   -0.5090   18.0510  -32.0790 C   0  0  0  0  0  0  0  0  0  0  0  0
    0.5020   18.9200  -31.4020 N   0  0  0  0  0  0  0  0  0  0  0  0
   -0.2000   20.1200  -30.8830 C   0  0  0  0  0  0  0  0  0  0  0  0
    1.5450   19.3700  -32.3550 C   0  0  0  0  0  0  0  0  0  0  0  0
    1.1370   18.2200  -30.2590 C   0  0  0  0  0  0  0  0  0  0  0  0
   -2.1800   21.1820  -33.4690 C   0  0  0  0  0  0  0  0  0  0  0  0
   -3.3880   21.7500  -33.0780 C   0  0  0  0  0  0  0  0  0  0  0  0
   -4.5740   20.9900  -33.0590 C   0  0  0  0  0  0  0  0  0  0  0  0
   -4.3824   24.1012  -26.4047 H   0  0  0  0  0  0  0  0  0  0  0  0
   -2.8343   24.0698  -27.3152 H   0  0  0  0  0  0  0  0  0  0  0  0
   -3.8463   25.5538  -27.3152 H   0  0  0  0  0  0  0  0  0  0  0  0
   -4.6133   22.8483  -28.5266 H   0  0  0  0  0  0  0  0  0  0  0  0
   -5.6167   24.3828  -28.5157 H   0  0  0  0  0  0  0  0  0  0  0  0
   -3.1535   23.3152  -31.4553 H   0  0  0  0  0  0  0  0  0  0  0  0
   -1.9961   23.8550  -30.1684 H   0  0  0  0  0  0  0  0  0  0  0  0
   -3.0765   22.1962  -28.6084 H   0  0  0  0  0  0  0  0  0  0  0  0
   -4.0185   21.5729  -30.0051 H   0  0  0  0  0  0  0  0  0  0  0  0
   -2.2263   21.4525  -30.0051 H   0  0  0  0  0  0  0  0  0  0  0  0
   -5.6060   25.5884  -30.5038 H   0  0  0  0  0  0  0  0  0  0  0  0
   -4.5299   24.9309  -31.8033 H   0  0  0  0  0  0  0  0  0  0  0  0
   -5.7826   22.7546  -30.3395 H   0  0  0  0  0  0  0  0  0  0  0  0
   -7.0294   23.9227  -30.9539 H   0  0  0  0  0  0  0  0  0  0  0  0
   -5.9760   23.6230  -33.2410 H   0  0  0  0  0  0  0  0  0  0  0  0
   -8.1197   22.2588  -31.5014 H   0  0  0  0  0  0  0  0  0  0  0  0
  -10.0830   20.7747  -31.1585 H   0  0  0  0  0  0  0  0  0  0  0  0
   -9.9878   18.3933  -31.8698 H   0  0  0  0  0  0  0  0  0  0  0  0
   -7.9371   17.4849  -32.9355 H   0  0  0  0  0  0  0  0  0  0  0  0
   -5.7578   16.7757  -33.4688 H   0  0  0  0  0  0  0  0  0  0  0  0
   -6.6387   17.5356  -34.8375 H   0  0  0  0  0  0  0  0  0  0  0  0
   -4.8428   17.4942  -34.8375 H   0  0  0  0  0  0  0  0  0  0  0  0
   -3.2363   17.9993  -34.0797 H   0  0  0  0  0  0  0  0  0  0  0  0
   -0.9766   17.1352  -33.9933 H   0  0  0  0  0  0  0  0  0  0  0  0
    0.6572   17.8902  -33.9015 H   0  0  0  0  0  0  0  0  0  0  0  0
   -1.5096   18.4285  -31.8213 H   0  0  0  0  0  0  0  0  0  0  0  0
   -0.3206   17.0277  -31.7220 H   0  0  0  0  0  0  0  0  0  0  0  0
   -0.1903   20.1034  -29.7832 H   0  0  0  0  0  0  0  0  0  0  0  0
    0.3102   21.0266  -31.2406 H   0  0  0  0  0  0  0  0  0  0  0  0
   -1.2403   20.1195  -31.2406 H   0  0  0  0  0  0  0  0  0  0  0  0
    2.4149   19.7453  -31.7961 H   0  0  0  0  0  0  0  0  0  0  0  0
    1.8527   18.5246  -32.9879 H   0  0  0  0  0  0  0  0  0  0  0  0
    1.1411   20.1739  -32.9879 H   0  0  0  0  0  0  0  0  0  0  0  0
    0.7570   18.6389  -29.3156 H   0  0  0  0  0  0  0  0  0  0  0  0
    0.8973   17.1475  -30.3069 H   0  0  0  0  0  0  0  0  0  0  0  0
    2.2277   18.3544  -30.3069 H   0  0  0  0  0  0  0  0  0  0  0  0
   -1.2696   21.7986  -33.5004 H   0  0  0  0  0  0  0  0  0  0  0  0
   -3.4177   22.8082  -32.7792 H   0  0  0  0  0  0  0  0  0  0  0  0
  1  2  1  0
  2  3  1  0
  3  4  1  0
  4  5  1  0
  3  6  1  0
  6  7  1  0
  7  8  1  0
  8  9  1  0
  9 10  2  0
 10 11  1  0
 11 12  2  0
 12 13  1  0
 13 14  2  0
 14 15  1  0
 15 16  2  0
 16 17  1  0
 16 18  1  0
 18 19  2  0
 19 20  1  0
 20 21  1  0
 21 22  1  0
 22 23  1  0
 23 24  1  0
 24 25  1  0
 24 26  1  0
 24 27  1  0
 20 28  2  0
 28 29  1  0
 29 30  2  0
 30  9  1  0
 15 10  1  0
 30 18  1  0
  1 31  1  0
  1 32  1  0
  1 33  1  0
  2 34  1  0
  2 35  1  0
  4 36  1  0
  4 37  1  0
  5 38  1  0
  5 39  1  0
  5 40  1  0
  6 41  1  0
  6 42  1  0
  7 43  1  0
  7 44  1  0
  8 45  1  0
 11 46  1  0
 12 47  1  0
 13 48  1  0
 14 49  1  0
 17 50  1  0
 17 51  1  0
 17 52  1  0
 19 53  1  0
 22 54  1  0
 22 55  1  0
 23 56  1  0
 23 57  1  0
 25 58  1  0
 25 59  1  0
 25 60  1  0
 26 61  1  0
 26 62  1  0
 26 63  1  0
 27 64  1  0
 27 65  1  0
 27 66  1  0
 28 67  1  0
 29 68  1  0
M  CHG  2  16   1  24   1
M  END
>  <UniqueID>  (23) 
23

>  <SMILES>  (23) 
CCN(CC)CCNc1c2ccccc2[n+](C)c2cc(OCC[N+](C)(C)C)ccc12

>  <Energy>  (23) 
98.18872724558027

>  <Genealogy>  (23) 
CCN(CC)CCNc1c2ccccc2[n+](C)c2cc(OCC[N+](C)(C)C)ccc12 (3D coordinates assigned)
CCN(CC)CCNc1c2ccccc2[n+](C)c2cc(OCC[N+](C)(C)C)ccc12 (optimized conformer: 98.18872724558027 kcal/mol)

>  <smiles>  (23) 
CCN(CC)CCNc1c2ccccc2[n+](C)c2cc(OCC[N+](C)(C)C)ccc12

>  <score_type>  (23) 
oracle

>  <origin>  (23) 
adg

>  <m_score__min__energy>  (23) 
-7.71

>  <m_primary>  (23) 
energy

$$$$
23:0
     RDKit          3D

 53 54  0  0  0  0  0  0  0  0999 V2000
   -5.9380   24.8630  -29.4130 C   0  0  0  0  0  0  0  0  0  0  0  0
   -5.2660   25.7230  -30.4770 C   0  0  0  0  0  0  0  0  0  0  0  0
   -3.8680   25.3350  -30.6520 N   0  0  0  0  0  0  0  0  0  0  0  0
   -3.0720   24.5520  -29.7510 C   0  0  0  0  0  0  0  0  0  0  0  0
   -2.3040   25.1570  -28.9560 O   0  0  0  0  0  0  0  0  0  0  0  0
   -3.1290   23.0350  -29.7090 C   0  0  2  0  0  0  0  0  0  0  0  0
   -2.2090   22.4970  -28.5790 C   0  0  0  0  0  0  0  0  0  0  0  0
   -0.8280   22.0880  -29.1010 C   0  0  0  0  0  0  0  0  0  0  0  0
   -0.9180   20.9790  -30.1690 C   0  0  0  0  0  0  0  0  0  0  0  0
   -2.2590   20.9830  -30.9510 C   0  0  2  0  0  0  0  0  0  0  0  0
   -2.1380   20.2060  -32.2890 C   0  0  0  0  0  0  0  0  0  0  0  0
   -2.9060   20.8560  -33.4520 C   0  0  0  0  0  0  0  0  0  0  0  0
   -4.2050   21.4350  -33.0460 N   0  0  1  0  0  0  0  0  0  0  0  0
   -5.1980   20.4470  -32.5530 C   0  0  0  0  0  0  0  0  0  0  0  0
   -6.6680   20.9040  -32.6690 C   0  0  0  0  0  0  0  0  0  0  0  0
   -7.6240   19.7750  -33.0930 C   0  0  0  0  0  0  0  0  0  0  0  0
   -8.8730   19.8210  -32.3020 N   0  0  0  0  0  0  0  0  0  0  0  0
   -8.8460   20.9300  -31.3310 C   0  0  0  0  0  0  0  0  0  0  0  0
   -9.0630   18.5490  -31.5850 C   0  0  0  0  0  0  0  0  0  0  0  0
   -3.9990   22.4610  -32.0420 C   0  0  0  0  0  0  0  0  0  0  0  0
   -4.7790   23.4030  -31.9840 O   0  0  0  0  0  0  0  0  0  0  0  0
   -2.7940   22.4270  -31.1120 C   0  0  1  0  0  0  0  0  0  0  0  0
   -5.6539   25.2266  -28.4144 H   0  0  0  0  0  0  0  0  0  0  0  0
   -7.0302   24.9239  -29.5283 H   0  0  0  0  0  0  0  0  0  0  0  0
   -5.6148   23.8179  -29.5283 H   0  0  0  0  0  0  0  0  0  0  0  0
   -5.7975   25.5962  -31.4317 H   0  0  0  0  0  0  0  0  0  0  0  0
   -5.3022   26.7742  -30.1549 H   0  0  0  0  0  0  0  0  0  0  0  0
   -4.1538   22.7142  -29.4704 H   0  0  0  0  0  0  0  0  0  0  0  0
   -2.0821   23.2840  -27.8210 H   0  0  0  0  0  0  0  0  0  0  0  0
   -2.6867   21.6027  -28.1524 H   0  0  0  0  0  0  0  0  0  0  0  0
   -0.3409   22.9690  -29.5443 H   0  0  0  0  0  0  0  0  0  0  0  0
   -0.2472   21.6961  -28.2530 H   0  0  0  0  0  0  0  0  0  0  0  0
   -0.0957   21.1182  -30.8863 H   0  0  0  0  0  0  0  0  0  0  0  0
   -0.8521   20.0154  -29.6426 H   0  0  0  0  0  0  0  0  0  0  0  0
   -3.0145   20.4389  -30.3652 H   0  0  0  0  0  0  0  0  0  0  0  0
   -1.0742   20.1501  -32.5633 H   0  0  0  0  0  0  0  0  0  0  0  0
   -2.5816   19.2128  -32.1256 H   0  0  0  0  0  0  0  0  0  0  0  0
   -2.2838   21.6580  -33.8759 H   0  0  0  0  0  0  0  0  0  0  0  0
   -3.1180   20.0635  -34.1848 H   0  0  0  0  0  0  0  0  0  0  0  0
   -4.6020   21.9120  -33.8890 H   0  0  0  0  0  0  0  0  0  0  0  0
   -5.0792   19.5210  -33.1347 H   0  0  0  0  0  0  0  0  0  0  0  0
   -4.9968   20.3100  -31.4803 H   0  0  0  0  0  0  0  0  0  0  0  0
   -6.9928   21.2876  -31.6906 H   0  0  0  0  0  0  0  0  0  0  0  0
   -6.7086   21.6766  -33.4509 H   0  0  0  0  0  0  0  0  0  0  0  0
   -7.8678   19.8901  -34.1594 H   0  0  0  0  0  0  0  0  0  0  0  0
   -7.1294   18.8085  -32.9160 H   0  0  0  0  0  0  0  0  0  0  0  0
   -8.8559   20.5230  -30.3091 H   0  0  0  0  0  0  0  0  0  0  0  0
   -7.9331   21.5254  -31.4797 H   0  0  0  0  0  0  0  0  0  0  0  0
   -9.7289   21.5691  -31.4797 H   0  0  0  0  0  0  0  0  0  0  0  0
   -9.0357   18.7317  -30.5006 H   0  0  0  0  0  0  0  0  0  0  0  0
  -10.0359   18.1152  -31.8594 H   0  0  0  0  0  0  0  0  0  0  0  0
   -8.2593   17.8498  -31.8594 H   0  0  0  0  0  0  0  0  0  0  0  0
   -2.0110   23.0462  -31.5741 H   0  0  0  0  0  0  0  0  0  0  0  0
  1  2  1  0
  2  3  1  0
  3  4  1  0
  4  5  2  0
  4  6  1  0
  6  7  1  0
  7  8  1  0
  8  9  1  0
  9 10  1  0
 10 11  1  0
 11 12  1  0
 12 13  1  0
 13 14  1  0
 14 15  1  0
 15 16  1  0
 16 17  1  0
 17 18  1  0
 17 19  1  0
 13 20  1  0
 20 21  2  0
 20 22  1  0
 22  6  1  0
 22 10  1  0
  1 23  1  0
  1 24  1  0
  1 25  1  0
  2 26  1  0
  2 27  1  0
  6 28  1  1
  7 29  1  0
  7 30  1  0
  8 31  1  0
  8 32  1  0
  9 33  1  0
  9 34  1  0
 10 35  1  1
 11 36  1  0
 11 37  1  0
 12 38  1  0
 12 39  1  0
 13 40  1  6
 14 41  1  0
 14 42  1  0
 15 43  1  0
 15 44  1  0
 16 45  1  0
 16 46  1  0
 18 47  1  0
 18 48  1  0
 18 49  1  0
 19 50  1  0
 19 51  1  0
 19 52  1  0
 22 53  1  6
M  CHG  2   3  -1  13   1
M  END
>  <UniqueID>  (24) 
24

>  <SMILES>  (24) 
CC[N-]C(=O)[C@@H]1CCC[C@@H]2CC[NH+](CCCN(C)C)C(=O)C21

>  <Energy>  (24) 
59.914033745792146

>  <Genealogy>  (24) 
CC[N-]C(=O)C1CCCC2CC[NH+](CCCN(C)C)C(=O)C21 (protonated)
CC[N-]C(=O)[C@@H]1CCC[C@@H]2CC[NH+](CCCN(C)C)C(=O)C21 (chirality)
CC[N-]C(=O)[C@@H]1CCC[C@@H]2CC[NH+](CCCN(C)C)C(=O)C21 (3D coordinates assigned)
CC[N-]C(=O)[C@@H]1CCC[C@@H]2CC[NH+](CCCN(C)C)C(=O)C21 (nonaromatic ring conformer: 59.914033745792146 kcal/mol)

>  <smiles>  (24) 
CCNC(=O)C1CCCC2CCN(CCCN(C)C)C(=O)C21

>  <score_type>  (24) 
oracle

>  <origin>  (24) 
adg

>  <m_score__min__energy>  (24) 
-9.6199999999999992

>  <m_primary>  (24) 
energy

$$$$
24:0
     RDKit          3D

 33 33  0  0  1  0  0  0  0  0999 V2000
   -9.4900   20.5630  -32.3190 C   0  0  0  0  0  0  0  0  0  0  0  0
   -9.5220   21.5270  -31.4000 C   0  0  0  0  0  0  0  0  0  0  0  0
   -8.3010   22.2090  -30.9150 C   0  0  0  0  0  0  0  0  0  0  0  0
   -7.5200   22.8850  -32.0370 C   0  0  0  0  0  0  0  0  0  0  0  0
   -6.0300   22.8200  -31.7050 C   0  0  2  0  0  0  0  0  0  0  0  0
   -5.6360   21.4650  -31.1930 C   0  0  0  0  0  0  0  0  0  0  0  0
   -5.9110   20.3450  -32.0930 C   0  0  0  0  0  0  0  0  0  0  0  0
   -5.4770   20.3880  -33.4090 C   0  0  0  0  0  0  0  0  0  0  0  0
   -5.7780   19.2900  -34.1920 C   0  0  0  0  0  0  0  0  0  0  0  0
   -6.4680   18.1950  -33.7260 C   0  0  0  0  0  0  0  0  0  0  0  0
   -6.9020   18.1570  -32.3990 C   0  0  0  0  0  0  0  0  0  0  0  0
   -6.6040   19.2470  -31.6220 C   0  0  0  0  0  0  0  0  0  0  0  0
   -5.6120   23.9390  -30.8540 C   0  0  0  0  0  0  0  0  0  0  0  0
   -6.3910   24.2840  -29.7490 O   0  0  0  0  0  0  0  0  0  0  0  0
   -4.5480   24.6490  -31.0560 N   0  0  0  0  0  0  0  0  0  0  0  0
   -4.2460   25.6520  -30.1850 O   0  0  0  0  0  0  0  0  0  0  0  0
  -10.4248   20.0855  -32.6480 H   0  0  0  0  0  0  0  0  0  0  0  0
   -8.5288   20.2446  -32.7488 H   0  0  0  0  0  0  0  0  0  0  0  0
  -10.4951   21.8283  -30.9848 H   0  0  0  0  0  0  0  0  0  0  0  0
   -8.5931   22.9731  -30.1796 H   0  0  0  0  0  0  0  0  0  0  0  0
   -7.6479   21.4443  -30.4692 H   0  0  0  0  0  0  0  0  0  0  0  0
   -7.7107   22.3639  -32.9868 H   0  0  0  0  0  0  0  0  0  0  0  0
   -7.8367   23.9339  -32.1349 H   0  0  0  0  0  0  0  0  0  0  0  0
   -5.4628   22.9488  -32.6386 H   0  0  0  0  0  0  0  0  0  0  0  0
   -4.5546   21.4803  -30.9923 H   0  0  0  0  0  0  0  0  0  0  0  0
   -6.2518   21.2905  -30.2984 H   0  0  0  0  0  0  0  0  0  0  0  0
   -4.9227   21.2501  -33.8084 H   0  0  0  0  0  0  0  0  0  0  0  0
   -5.4490   19.2916  -35.2417 H   0  0  0  0  0  0  0  0  0  0  0  0
   -6.6778   17.3498  -34.3981 H   0  0  0  0  0  0  0  0  0  0  0  0
   -7.4554   17.2955  -31.9971 H   0  0  0  0  0  0  0  0  0  0  0  0
   -6.9330   19.2468  -30.5723 H   0  0  0  0  0  0  0  0  0  0  0  0
   -5.9660   24.5760  -28.8740 H   0  0  0  0  0  0  0  0  0  0  0  0
   -4.7810   25.9020  -29.3800 H   0  0  0  0  0  0  0  0  0  0  0  0
  1  2  2  0
  2  3  1  0
  3  4  1  0
  4  5  1  0
  5  6  1  0
  6  7  1  0
  7  8  2  0
  8  9  1  0
  9 10  2  0
 10 11  1  0
 11 12  2  0
  5 13  1  0
 13 14  1  0
 13 15  2  0
 15 16  1  0
 12  7  1  0
  1 17  1  0
  1 18  1  0
  2 19  1  0
  3 20  1  0
  3 21  1  0
  4 22  1  0
  4 23  1  0
  5 24  1  6
  6 25  1  0
  6 26  1  0
  8 27  1  0
  9 28  1  0
 10 29  1  0
 11 30  1  0
 12 31  1  0
 14 32  1  0
 16 33  1  0
M  END
>  <smiles>  (25) 
C=CCCC(Cc1ccccc1)C(O)=NO

>  <score_type>  (25) 
oracle

>  <origin>  (25) 
adg

>  <m_score__min__energy>  (25) 
-7.6200000000000001

>  <m_primary>  (25) 
energy

$$$$
25:0
     RDKit          3D

 52 54  0  0  0  0  0  0  0  0999 V2000
   -3.6390   23.6020  -28.4690 C   0  0  0  0  0  0  0  0  0  0  0  0
   -2.6060   23.2410  -29.5360 C   0  0  0  0  0  0  0  0  0  0  0  0
   -2.2790   21.7970  -29.4740 N   0  0  0  0  0  0  0  0  0  0  0  0
   -1.9260   21.3830  -28.0970 C   0  0  0  0  0  0  0  0  0  0  0  0
   -2.7130   20.1380  -27.6970 C   0  0  0  0  0  0  0  0  0  0  0  0
   -1.2240   21.4250  -30.4520 C   0  0  0  0  0  0  0  0  0  0  0  0
   -1.6160   21.9020  -31.8540 C   0  0  0  0  0  0  0  0  0  0  0  0
   -2.6080   20.9510  -32.5340 C   0  0  0  0  0  0  0  0  0  0  0  0
   -3.5570   20.4140  -31.5610 N   0  0  0  0  0  0  0  0  0  0  0  0
   -4.9470   20.2430  -31.8830 C   0  0  0  0  0  0  0  0  0  0  0  0
   -5.8520   21.3070  -31.7240 C   0  0  0  0  0  0  0  0  0  0  0  0
   -5.3950   22.6000  -31.3890 C   0  0  0  0  0  0  0  0  0  0  0  0
   -6.2900   23.6610  -31.2570 C   0  0  0  0  0  0  0  0  0  0  0  0
   -5.7020   25.2590  -30.8360 Cl  0  0  0  0  0  0  0  0  0  0  0  0
   -7.6470   23.4570  -31.4890 C   0  0  0  0  0  0  0  0  0  0  0  0
   -8.1180   22.1910  -31.8360 C   0  0  0  0  0  0  0  0  0  0  0  0
   -7.2390   21.0840  -31.9370 C   0  0  0  0  0  0  0  0  0  0  0  0
   -7.6960   19.8170  -32.2540 N   0  0  0  0  0  0  0  0  0  0  0  0
   -9.1430   19.5160  -32.1930 C   0  0  0  0  0  0  0  0  0  0  0  0
   -6.7970   18.8280  -32.6080 C   0  0  0  0  0  0  0  0  0  0  0  0
   -7.2210   17.6100  -33.2000 C   0  0  0  0  0  0  0  0  0  0  0  0
   -6.3090   16.5960  -33.4950 C   0  0  0  0  0  0  0  0  0  0  0  0
   -6.8650   15.0970  -34.2190 Cl  0  0  0  0  0  0  0  0  0  0  0  0
   -4.9560   16.7730  -33.2250 C   0  0  0  0  0  0  0  0  0  0  0  0
   -4.5040   17.9740  -32.6830 C   0  0  0  0  0  0  0  0  0  0  0  0
   -5.4070   19.0170  -32.3930 C   0  0  0  0  0  0  0  0  0  0  0  0
   -3.2033   23.4497  -27.4705 H   0  0  0  0  0  0  0  0  0  0  0  0
   -3.9323   24.6559  -28.5843 H   0  0  0  0  0  0  0  0  0  0  0  0
   -4.5249   22.9602  -28.5843 H   0  0  0  0  0  0  0  0  0  0  0  0
   -3.0142   23.4774  -30.5297 H   0  0  0  0  0  0  0  0  0  0  0  0
   -1.6894   23.8215  -29.3547 H   0  0  0  0  0  0  0  0  0  0  0  0
   -0.8495   21.1619  -28.0498 H   0  0  0  0  0  0  0  0  0  0  0  0
   -2.1750   22.2002  -27.4040 H   0  0  0  0  0  0  0  0  0  0  0  0
   -2.7568   20.0687  -26.6001 H   0  0  0  0  0  0  0  0  0  0  0  0
   -3.7339   20.2039  -28.1013 H   0  0  0  0  0  0  0  0  0  0  0  0
   -2.2155   19.2441  -28.1013 H   0  0  0  0  0  0  0  0  0  0  0  0
   -0.2740   21.8961  -30.1595 H   0  0  0  0  0  0  0  0  0  0  0  0
   -1.1110   20.3309  -30.4618 H   0  0  0  0  0  0  0  0  0  0  0  0
   -2.0780   22.8970  -31.7732 H   0  0  0  0  0  0  0  0  0  0  0  0
   -0.7034   21.9325  -32.4674 H   0  0  0  0  0  0  0  0  0  0  0  0
   -3.1595   21.4998  -33.3116 H   0  0  0  0  0  0  0  0  0  0  0  0
   -2.0485   20.1160  -32.9809 H   0  0  0  0  0  0  0  0  0  0  0  0
   -3.2310   20.2090  -30.5890 H   0  0  0  0  0  0  0  0  0  0  0  0
   -4.3203   22.7725  -31.2302 H   0  0  0  0  0  0  0  0  0  0  0  0
   -8.3508   24.2975  -31.3983 H   0  0  0  0  0  0  0  0  0  0  0  0
   -9.1906   22.0492  -32.0348 H   0  0  0  0  0  0  0  0  0  0  0  0
   -9.4598   19.4501  -31.1417 H   0  0  0  0  0  0  0  0  0  0  0  0
   -9.7055   20.3164  -32.6960 H   0  0  0  0  0  0  0  0  0  0  0  0
   -9.3397   18.5577  -32.6960 H   0  0  0  0  0  0  0  0  0  0  0  0
   -8.2865   17.4628  -33.4302 H   0  0  0  0  0  0  0  0  0  0  0  0
   -4.2424   15.9639  -33.4397 H   0  0  0  0  0  0  0  0  0  0  0  0
   -3.4316   18.1099  -32.4792 H   0  0  0  0  0  0  0  0  0  0  0  0
  1  2  1  0
  2  3  1  0
  3  4  1  0
  4  5  1  0
  3  6  1  0
  6  7  1  0
  7  8  1  0
  8  9  1  0
  9 10  1  0
 10 11  2  0
 11 12  1  0
 12 13  2  0
 13 14  1  0
 13 15  1  0
 15 16  2  0
 16 17  1  0
 17 18  2  0
 18 19  1  0
 18 20  1  0
 20 21  2  0
 21 22  1  0
 22 23  1  0
 22 24  2  0
 24 25  1  0
 25 26  2  0
 26 10  1  0
 17 11  1  0
 26 20  1  0
  1 27  1  0
  1 28  1  0
  1 29  1  0
  2 30  1  0
  2 31  1  0
  4 32  1  0
  4 33  1  0
  5 34  1  0
  5 35  1  0
  5 36  1  0
  6 37  1  0
  6 38  1  0
  7 39  1  0
  7 40  1  0
  8 41  1  0
  8 42  1  0
  9 43  1  0
 12 44  1  0
 15 45  1  0
 16 46  1  0
 19 47  1  0
 19 48  1  0
 19 49  1  0
 21 50  1  0
 24 51  1  0
 25 52  1  0
M  CHG  1  18   1
M  END
>  <UniqueID>  (26) 
25

>  <SMILES>  (26) 
CCN(CC)CCCNc1c2cc(Cl)ccc2[n+](C)c2cc(Cl)ccc12

>  <Energy>  (26) 
74.45721697780961

>  <Genealogy>  (26) 
CCN(CC)CCCNc1c2cc(Cl)ccc2[n+](C)c2cc(Cl)ccc12 (3D coordinates assigned)
CCN(CC)CCCNc1c2cc(Cl)ccc2[n+](C)c2cc(Cl)ccc12 (optimized conformer: 74.45721697780961 kcal/mol)

>  <smiles>  (26) 
CCN(CC)CCCNc1c2cc(Cl)ccc2[n+](C)c2cc(Cl)ccc12

>  <score_type>  (26) 
oracle

>  <origin>  (26) 
adg

>  <m_score__min__energy>  (26) 
-8.5299999999999994

>  <m_primary>  (26) 
energy

$$$$
26:0
     RDKit          3D

 36 38  0  0  0  0  0  0  0  0999 V2000
   -6.4820   25.6410  -29.3320 C   0  0  0  0  0  0  0  0  0  0  0  0
   -5.7730   24.3100  -29.5810 C   0  0  0  0  0  0  0  0  0  0  0  0
   -5.3260   24.1380  -31.0430 C   0  0  0  0  0  0  0  0  0  0  0  0
   -6.4880   24.0510  -32.0470 C   0  0  0  0  0  0  0  0  0  0  0  0
   -7.0580   22.6930  -32.1080 N   0  0  0  0  0  0  0  0  0  0  0  0
   -8.3210   22.4760  -31.6110 C   0  0  0  0  0  0  0  0  0  0  0  0
   -8.8730   21.2320  -31.6250 N   0  0  0  0  0  0  0  0  0  0  0  0
   -8.1680   20.2050  -32.1450 C   0  0  0  0  0  0  0  0  0  0  0  0
   -8.6570   18.6020  -32.2330 S   0  0  0  0  0  0  0  0  0  0  0  0
   -7.2180   18.0790  -32.9480 C   0  0  0  0  0  0  0  0  0  0  0  0
   -6.3600   19.1630  -33.1570 C   0  0  0  0  0  0  0  0  0  0  0  0
   -6.9010   20.3690  -32.6680 C   0  0  0  0  0  0  0  0  0  0  0  0
   -6.3330   21.6500  -32.6400 C   0  0  0  0  0  0  0  0  0  0  0  0
   -5.1720   21.8430  -33.0930 O   0  0  0  0  0  0  0  0  0  0  0  0
   -4.9830   18.9830  -33.7480 C   0  0  0  0  0  0  0  0  0  0  0  0
   -4.8380   17.6260  -34.4620 C   0  0  0  0  0  0  0  0  0  0  0  0
   -5.4250   16.4790  -33.6220 C   0  0  0  0  0  0  0  0  0  0  0  0
   -6.9310   16.6790  -33.3950 C   0  0  0  0  0  0  0  0  0  0  0  0
   -6.5727   25.8112  -28.2490 H   0  0  0  0  0  0  0  0  0  0  0  0
   -5.8991   26.4571  -29.7839 H   0  0  0  0  0  0  0  0  0  0  0  0
   -7.4845   25.6126  -29.7839 H   0  0  0  0  0  0  0  0  0  0  0  0
   -4.8853   24.2579  -28.9335 H   0  0  0  0  0  0  0  0  0  0  0  0
   -6.4891   23.5058  -29.3564 H   0  0  0  0  0  0  0  0  0  0  0  0
   -4.6970   24.9982  -31.3158 H   0  0  0  0  0  0  0  0  0  0  0  0
   -4.7846   23.1821  -31.0996 H   0  0  0  0  0  0  0  0  0  0  0  0
   -7.2763   24.7546  -31.7412 H   0  0  0  0  0  0  0  0  0  0  0  0
   -6.0980   24.3033  -33.0441 H   0  0  0  0  0  0  0  0  0  0  0  0
   -8.8933   23.3190  -31.1964 H   0  0  0  0  0  0  0  0  0  0  0  0
   -4.7995   19.7885  -34.4743 H   0  0  0  0  0  0  0  0  0  0  0  0
   -4.2522   19.0161  -32.9265 H   0  0  0  0  0  0  0  0  0  0  0  0
   -5.3679   17.6708  -35.4249 H   0  0  0  0  0  0  0  0  0  0  0  0
   -3.7663   17.4290  -34.6123 H   0  0  0  0  0  0  0  0  0  0  0  0
   -5.2638   15.5274  -34.1498 H   0  0  0  0  0  0  0  0  0  0  0  0
   -4.9214   16.4669  -32.6441 H   0  0  0  0  0  0  0  0  0  0  0  0
   -7.4670   16.4833  -34.3354 H   0  0  0  0  0  0  0  0  0  0  0  0
   -7.2661   15.9824  -32.6124 H   0  0  0  0  0  0  0  0  0  0  0  0
  1  2  1  0
  2  3  1  0
  3  4  1  0
  4  5  1  0
  5  6  1  0
  6  7  2  0
  7  8  1  0
  8  9  1  0
  9 10  1  0
 10 11  2  0
 11 12  1  0
 12 13  1  0
 13 14  2  0
 11 15  1  0
 15 16  1  0
 16 17  1  0
 17 18  1  0
 13  5  1  0
 12  8  2  0
 18 10  1  0
  1 19  1  0
  1 20  1  0
  1 21  1  0
  2 22  1  0
  2 23  1  0
  3 24  1  0
  3 25  1  0
  4 26  1  0
  4 27  1  0
  6 28  1  0
 15 29  1  0
 15 30  1  0
 16 31  1  0
 16 32  1  0
 17 33  1  0
 17 34  1  0
 18 35  1  0
 18 36  1  0
M  END
>  <UniqueID>  (27) 
26

>  <SMILES>  (27) 
CCCCn1cnc2sc3c(c2c1=O)CCCC3

>  <Energy>  (27) 
66.27088103975467

>  <Genealogy>  (27) 
CCCCn1cnc2sc3c(c2c1=O)CCCC3 (3D coordinates assigned)
CCCCn1cnc2sc3c(c2c1=O)CCCC3 (nonaromatic ring conformer: 66.27088103975467 kcal/mol)

>  <smiles>  (27) 
CCCCn1cnc2sc3c(c2c1=O)CCCC3

>  <score_type>  (27) 
oracle

>  <origin>  (27) 
adg

>  <m_score__min__energy>  (27) 
-7.4800000000000004

>  <m_primary>  (27) 
energy

$$$$
27:0
     RDKit          3D

 44 46  0  0  0  0  0  0  0  0999 V2000
   -6.7260   15.9080  -33.9860 C   0  0  0  0  0  0  0  0  0  0  0  0
   -6.0910   17.2380  -33.7070 C   0  0  0  0  0  0  0  0  0  0  0  0
   -4.7310   17.4370  -33.9580 C   0  0  0  0  0  0  0  0  0  0  0  0
   -4.1710   18.6510  -33.7410 N   0  0  0  0  0  0  0  0  0  0  0  0
   -4.8910   19.7110  -33.2860 C   0  0  0  0  0  0  0  0  0  0  0  0
   -4.2430   20.9250  -33.0860 C   0  0  0  0  0  0  0  0  0  0  0  0
   -4.9420   22.0340  -32.6300 C   0  0  0  0  0  0  0  0  0  0  0  0
   -6.3220   21.9620  -32.3530 C   0  0  0  0  0  0  0  0  0  0  0  0
   -7.0370   23.0990  -31.8770 C   0  0  0  0  0  0  0  0  0  0  0  0
   -6.3750   24.4310  -31.5720 C   0  0  0  0  0  0  0  0  0  0  0  0
   -6.6570   24.8970  -30.1370 C   0  0  0  0  0  0  0  0  0  0  0  0
   -5.5890   24.4680  -29.2340 N   0  0  0  0  0  0  0  0  0  0  0  0
   -4.1990   24.5430  -29.6010 C   0  0  0  0  0  0  0  0  0  0  0  0
   -3.8540   25.2740  -30.5700 O   0  0  0  0  0  0  0  0  0  0  0  0
   -3.1970   23.7810  -28.8950 N   0  0  0  0  0  0  0  0  0  0  0  0
   -3.5680   22.8860  -27.7940 C   0  0  0  0  0  0  0  0  0  0  0  0
   -1.7970   23.8780  -29.3240 C   0  0  0  0  0  0  0  0  0  0  0  0
   -8.4070   22.9820  -31.6010 C   0  0  0  0  0  0  0  0  0  0  0  0
   -9.0710   21.7780  -31.7890 C   0  0  0  0  0  0  0  0  0  0  0  0
   -8.3880   20.6610  -32.2550 C   0  0  0  0  0  0  0  0  0  0  0  0
   -7.0050   20.7200  -32.5500 C   0  0  0  0  0  0  0  0  0  0  0  0
   -6.2770   19.5840  -33.0240 C   0  0  0  0  0  0  0  0  0  0  0  0
   -6.8640   18.3160  -33.2570 C   0  0  0  0  0  0  0  0  0  0  0  0
   -6.9643   15.4088  -33.0352 H   0  0  0  0  0  0  0  0  0  0  0  0
   -7.6502   16.0569  -34.5637 H   0  0  0  0  0  0  0  0  0  0  0  0
   -6.0292   15.2830  -34.5637 H   0  0  0  0  0  0  0  0  0  0  0  0
   -4.1143   16.6066  -34.3323 H   0  0  0  0  0  0  0  0  0  0  0  0
   -3.1655   21.0072  -33.2913 H   0  0  0  0  0  0  0  0  0  0  0  0
   -4.4098   22.9853  -32.4823 H   0  0  0  0  0  0  0  0  0  0  0  0
   -5.2880   24.3261  -31.7044 H   0  0  0  0  0  0  0  0  0  0  0  0
   -6.7886   25.1821  -32.2610 H   0  0  0  0  0  0  0  0  0  0  0  0
   -6.7243   25.9948  -30.1206 H   0  0  0  0  0  0  0  0  0  0  0  0
   -7.6046   24.4511  -29.8005 H   0  0  0  0  0  0  0  0  0  0  0  0
   -5.8770   23.9580  -28.3710 H   0  0  0  0  0  0  0  0  0  0  0  0
   -3.3626   23.3815  -26.8336 H   0  0  0  0  0  0  0  0  0  0  0  0
   -4.6395   22.6465  -27.8613 H   0  0  0  0  0  0  0  0  0  0  0  0
   -2.9801   21.9587  -27.8613 H   0  0  0  0  0  0  0  0  0  0  0  0
   -1.1447   23.9232  -28.4394 H   0  0  0  0  0  0  0  0  0  0  0  0
   -1.5363   22.9958  -29.9271 H   0  0  0  0  0  0  0  0  0  0  0  0
   -1.6605   24.7878  -29.9271 H   0  0  0  0  0  0  0  0  0  0  0  0
   -8.9626   23.8561  -31.2306 H   0  0  0  0  0  0  0  0  0  0  0  0
  -10.1461   21.7072  -31.5675 H   0  0  0  0  0  0  0  0  0  0  0  0
   -8.9314   19.7152  -32.3970 H   0  0  0  0  0  0  0  0  0  0  0  0
   -7.9410   18.1761  -33.0823 H   0  0  0  0  0  0  0  0  0  0  0  0
  1  2  1  0
  2  3  2  0
  3  4  1  0
  4  5  2  0
  5  6  1  0
  6  7  2  0
  7  8  1  0
  8  9  2  0
  9 10  1  0
 10 11  1  0
 11 12  1  0
 12 13  1  0
 13 14  2  0
 13 15  1  0
 15 16  1  0
 15 17  1  0
  9 18  1  0
 18 19  2  0
 19 20  1  0
 20 21  2  0
 21 22  1  0
 22 23  2  0
 23  2  1  0
 22  5  1  0
 21  8  1  0
  1 24  1  0
  1 25  1  0
  1 26  1  0
  3 27  1  0
  6 28  1  0
  7 29  1  0
 10 30  1  0
 10 31  1  0
 11 32  1  0
 11 33  1  0
 12 34  1  0
 16 35  1  0
 16 36  1  0
 16 37  1  0
 17 38  1  0
 17 39  1  0
 17 40  1  0
 18 41  1  0
 19 42  1  0
 20 43  1  0
 23 44  1  0
M  END
>  <UniqueID>  (28) 
27

>  <SMILES>  (28) 
Cc1cnc2ccc3c(CCNC(=O)N(C)C)cccc3c2c1

>  <Energy>  (28) 
52.02350894643055

>  <Genealogy>  (28) 
Cc1cnc2ccc3c(CCNC(=O)N(C)C)cccc3c2c1 (3D coordinates assigned)
Cc1cnc2ccc3c(CCNC(=O)N(C)C)cccc3c2c1 (optimized conformer: 52.02350894643055 kcal/mol)

>  <smiles>  (28) 
Cc1cnc2ccc3c(CCNC(=O)N(C)C)cccc3c2c1

>  <score_type>  (28) 
oracle

>  <origin>  (28) 
adg

>  <m_score__min__energy>  (28) 
-9.9000000000000004

>  <m_primary>  (28) 
energy

$$$$
28:0
     RDKit          3D

 64 66  0  0  0  0  0  0  0  0999 V2000
   -4.5150   24.1590  -28.3470 C   0  0  0  0  0  0  0  0  0  0  0  0
   -3.2410   24.5200  -29.1000 C   0  0  0  0  0  0  0  0  0  0  0  0
   -3.5680   24.9350  -30.4680 N   0  0  0  0  0  0  0  0  0  0  0  0
   -5.0070   25.1900  -30.5970 C   0  0  0  0  0  0  0  0  0  0  0  0
   -5.6790   24.0530  -31.3690 C   0  0  0  0  0  0  0  0  0  0  0  0
   -5.0150   22.7740  -31.1140 N   0  0  0  0  0  0  0  0  0  0  0  0
   -5.4000   21.5910  -31.8280 C   0  0  0  0  0  0  0  0  0  0  0  0
   -6.7660   21.2680  -31.9330 C   0  0  0  0  0  0  0  0  0  0  0  0
   -7.7560   22.1380  -31.4210 C   0  0  0  0  0  0  0  0  0  0  0  0
   -9.1080   21.8320  -31.5500 C   0  0  0  0  0  0  0  0  0  0  0  0
   -9.5000   20.6710  -32.2060 C   0  0  0  0  0  0  0  0  0  0  0  0
   -8.5410   19.8020  -32.7240 C   0  0  0  0  0  0  0  0  0  0  0  0
   -7.1550   20.0700  -32.5800 C   0  0  0  0  0  0  0  0  0  0  0  0
   -6.1960   19.2100  -33.0740 N   0  0  0  0  0  0  0  0  0  0  0  0
   -6.5730   17.8350  -33.4730 C   0  0  0  0  0  0  0  0  0  0  0  0
   -4.8820   19.6270  -33.1830 C   0  0  0  0  0  0  0  0  0  0  0  0
   -3.9570   18.9120  -33.9780 C   0  0  0  0  0  0  0  0  0  0  0  0
   -2.6260   19.2970  -34.0520 C   0  0  0  0  0  0  0  0  0  0  0  0
   -2.1730   20.3930  -33.3350 C   0  0  0  0  0  0  0  0  0  0  0  0
   -3.0550   21.1530  -32.5470 C   0  0  0  0  0  0  0  0  0  0  0  0
   -2.5880   22.2550  -31.8030 O   0  0  0  0  0  0  0  0  0  0  0  0
   -1.5460   22.2500  -30.8230 C   0  0  0  0  0  0  0  0  0  0  0  0
   -1.4330   20.8930  -30.1190 C   0  0  0  0  0  0  0  0  0  0  0  0
   -1.3860   21.0520  -28.6420 N   0  0  0  0  0  0  0  0  0  0  0  0
   -0.8570   22.3830  -28.2630 C   0  0  0  0  0  0  0  0  0  0  0  0
   -0.7490   22.5060  -26.7450 C   0  0  0  0  0  0  0  0  0  0  0  0
   -2.7220   20.8190  -28.0440 C   0  0  0  0  0  0  0  0  0  0  0  0
   -2.7150   19.6240  -27.0870 C   0  0  0  0  0  0  0  0  0  0  0  0
   -4.4390   20.8030  -32.5080 C   0  0  0  0  0  0  0  0  0  0  0  0
   -4.3284   24.2119  -27.2642 H   0  0  0  0  0  0  0  0  0  0  0  0
   -5.3131   24.8663  -28.6165 H   0  0  0  0  0  0  0  0  0  0  0  0
   -4.8234   23.1381  -28.6165 H   0  0  0  0  0  0  0  0  0  0  0  0
   -2.7323   25.3455  -28.5806 H   0  0  0  0  0  0  0  0  0  0  0  0
   -2.5817   23.6402  -29.1372 H   0  0  0  0  0  0  0  0  0  0  0  0
   -3.3330   24.1380  -31.1050 H   0  0  0  0  0  0  0  0  0  0  0  0
   -5.4543   25.2624  -29.5947 H   0  0  0  0  0  0  0  0  0  0  0  0
   -5.1564   26.1323  -31.1444 H   0  0  0  0  0  0  0  0  0  0  0  0
   -6.7309   23.9796  -31.0559 H   0  0  0  0  0  0  0  0  0  0  0  0
   -5.6083   24.2733  -32.4444 H   0  0  0  0  0  0  0  0  0  0  0  0
   -4.2330   22.7050  -30.4230 H   0  0  0  0  0  0  0  0  0  0  0  0
   -7.4546   23.0671  -30.9151 H   0  0  0  0  0  0  0  0  0  0  0  0
   -9.8669   22.5099  -31.1323 H   0  0  0  0  0  0  0  0  0  0  0  0
  -10.5692   20.4374  -32.3166 H   0  0  0  0  0  0  0  0  0  0  0  0
   -8.8640   18.8934  -33.2532 H   0  0  0  0  0  0  0  0  0  0  0  0
   -6.7403   17.2249  -32.5731 H   0  0  0  0  0  0  0  0  0  0  0  0
   -7.4956   17.8667  -34.0712 H   0  0  0  0  0  0  0  0  0  0  0  0
   -5.7632   17.3917  -34.0712 H   0  0  0  0  0  0  0  0  0  0  0  0
   -4.2984   18.0352  -34.5478 H   0  0  0  0  0  0  0  0  0  0  0  0
   -1.9266   18.7292  -34.6832 H   0  0  0  0  0  0  0  0  0  0  0  0
   -1.1100   20.6718  -33.3830 H   0  0  0  0  0  0  0  0  0  0  0  0
   -0.5900   22.4747  -31.3186 H   0  0  0  0  0  0  0  0  0  0  0  0
   -1.7863   23.0096  -30.0646 H   0  0  0  0  0  0  0  0  0  0  0  0
   -2.3050   20.2776  -30.3854 H   0  0  0  0  0  0  0  0  0  0  0  0
   -0.5005   20.4095  -30.4456 H   0  0  0  0  0  0  0  0  0  0  0  0
    0.1400   22.5159  -28.7083 H   0  0  0  0  0  0  0  0  0  0  0  0
   -1.5455   23.1568  -28.6334 H   0  0  0  0  0  0  0  0  0  0  0  0
   -1.4034   21.7607  -26.2693 H   0  0  0  0  0  0  0  0  0  0  0  0
    0.2920   22.3304  -26.4360 H   0  0  0  0  0  0  0  0  0  0  0  0
   -1.0578   23.5155  -26.4360 H   0  0  0  0  0  0  0  0  0  0  0  0
   -3.0254   21.7186  -27.4884 H   0  0  0  0  0  0  0  0  0  0  0  0
   -3.4283   20.6010  -28.8586 H   0  0  0  0  0  0  0  0  0  0  0  0
   -2.7171   19.9861  -26.0483 H   0  0  0  0  0  0  0  0  0  0  0  0
   -3.6096   19.0084  -27.2626 H   0  0  0  0  0  0  0  0  0  0  0  0
   -1.8133   19.0189  -27.2626 H   0  0  0  0  0  0  0  0  0  0  0  0
  1  2  1  0
  2  3  1  0
  3  4  1  0
  4  5  1  0
  5  6  1  0
  6  7  1  0
  7  8  2  0
  8  9  1  0
  9 10  2  0
 10 11  1  0
 11 12  2  0
 12 13  1  0
 13 14  2  0
 14 15  1  0
 14 16  1  0
 16 17  2  0
 17 18  1  0
 18 19  2  0
 19 20  1  0
 20 21  1  0
 21 22  1  0
 22 23  1  0
 23 24  1  0
 24 25  1  0
 25 26  1  0
 24 27  1  0
 27 28  1  0
 20 29  2  0
 29  7  1  0
 13  8  1  0
 29 16  1  0
  1 30  1  0
  1 31  1  0
  1 32  1  0
  2 33  1  0
  2 34  1  0
  3 35  1  0
  4 36  1  0
  4 37  1  0
  5 38  1  0
  5 39  1  0
  6 40  1  0
  9 41  1  0
 10 42  1  0
 11 43  1  0
 12 44  1  0
 15 45  1  0
 15 46  1  0
 15 47  1  0
 17 48  1  0
 18 49  1  0
 19 50  1  0
 22 51  1  0
 22 52  1  0
 23 53  1  0
 23 54  1  0
 25 55  1  0
 25 56  1  0
 26 57  1  0
 26 58  1  0
 26 59  1  0
 27 60  1  0
 27 61  1  0
 28 62  1  0
 28 63  1  0
 28 64  1  0
M  CHG  1  14   1
M  END
>  <UniqueID>  (29) 
28

>  <SMILES>  (29) 
CCNCCNc1c2ccccc2[n+](C)c2cccc(OCCN(CC)CC)c12

>  <Energy>  (29) 
84.27654119439882

>  <Genealogy>  (29) 
CCNCCNc1c2ccccc2[n+](C)c2cccc(OCCN(CC)CC)c12 (3D coordinates assigned)
CCNCCNc1c2ccccc2[n+](C)c2cccc(OCCN(CC)CC)c12 (optimized conformer: 84.27654119439882 kcal/mol)

>  <smiles>  (29) 
CCNCCNc1c2ccccc2[n+](C)c2cccc(OCCN(CC)CC)c12

>  <score_type>  (29) 
oracle

>  <origin>  (29) 
adg

>  <m_score__min__energy>  (29) 
-7.5800000000000001

>  <m_primary>  (29) 
energy

$$$$
29:0
     RDKit          3D

 65 66  0  0  0  0  0  0  0  0999 V2000
   -6.2460   14.9230  -34.2070 C   0  0  0  0  0  0  0  0  0  0  0  0
   -6.6460   16.4100  -34.2000 C   0  0  0  0  0  0  0  0  0  0  0  0
   -5.5500   17.3420  -33.8130 N   0  0  2  0  0  0  0  0  0  0  0  0
   -5.2830   17.3040  -32.3460 C   0  0  0  0  0  0  0  0  0  0  0  0
   -6.5620   17.4090  -31.4790 C   0  0  0  0  0  0  0  0  0  0  0  0
   -7.2810   18.7690  -31.5170 C   0  0  0  0  0  0  0  0  0  0  0  0
   -8.6150   18.7130  -32.2820 C   0  0  0  0  0  0  0  0  0  0  0  0
   -8.7760   19.9040  -33.1260 N   0  0  0  0  0  0  0  0  0  0  0  0
   -9.2500   21.0400  -32.3170 C   0  0  0  0  0  0  0  0  0  0  0  0
   -8.1410   22.0780  -32.0760 C   0  0  0  0  0  0  0  0  0  0  0  0
   -7.9080   22.4500  -30.5980 C   0  0  0  0  0  0  0  0  0  0  0  0
   -6.6240   23.2070  -30.3580 C   0  0  0  0  0  0  0  0  0  0  0  0
   -5.5090   22.5590  -29.8040 C   0  0  0  0  0  0  0  0  0  0  0  0
   -4.3230   23.2670  -29.5740 C   0  0  0  0  0  0  0  0  0  0  0  0
   -4.2290   24.6260  -29.9000 C   0  0  0  0  0  0  0  0  0  0  0  0
   -3.0220   25.2950  -29.6370 O   0  0  0  0  0  0  0  0  0  0  0  0
   -2.0960   24.9140  -28.6220 C   0  0  0  0  0  0  0  0  0  0  0  0
   -5.3390   25.2690  -30.4800 C   0  0  0  0  0  0  0  0  0  0  0  0
   -6.5230   24.5630  -30.7070 C   0  0  0  0  0  0  0  0  0  0  0  0
   -5.7990   18.7310  -34.2910 C   0  0  0  0  0  0  0  0  0  0  0  0
   -4.7480   19.7030  -33.7810 C   0  0  0  0  0  0  0  0  0  0  0  0
   -5.1600   20.9260  -33.2170 C   0  0  0  0  0  0  0  0  0  0  0  0
   -4.2270   21.8110  -32.6690 C   0  0  0  0  0  0  0  0  0  0  0  0
   -2.8670   21.4990  -32.7050 C   0  0  0  0  0  0  0  0  0  0  0  0
   -2.4370   20.3130  -33.3030 C   0  0  0  0  0  0  0  0  0  0  0  0
   -3.3680   19.4020  -33.8480 C   0  0  0  0  0  0  0  0  0  0  0  0
   -2.9520   18.2080  -34.4630 O   0  0  0  0  0  0  0  0  0  0  0  0
   -1.6110   17.7310  -34.4900 C   0  0  0  0  0  0  0  0  0  0  0  0
   -6.1495   14.5644  -33.1716 H   0  0  0  0  0  0  0  0  0  0  0  0
   -7.0187   14.3379  -34.7272 H   0  0  0  0  0  0  0  0  0  0  0  0
   -5.2841   14.8045  -34.7272 H   0  0  0  0  0  0  0  0  0  0  0  0
   -6.9853   16.6794  -35.2111 H   0  0  0  0  0  0  0  0  0  0  0  0
   -7.4330   16.5190  -33.4393 H   0  0  0  0  0  0  0  0  0  0  0  0
   -4.6970   16.9750  -34.2980 H   0  0  0  0  0  0  0  0  0  0  0  0
   -4.7793   16.3553  -32.1089 H   0  0  0  0  0  0  0  0  0  0  0  0
   -4.6605   18.1794  -32.1091 H   0  0  0  0  0  0  0  0  0  0  0  0
   -7.2700   16.6420  -31.8260 H   0  0  0  0  0  0  0  0  0  0  0  0
   -6.2324   17.2717  -30.4385 H   0  0  0  0  0  0  0  0  0  0  0  0
   -7.4806   19.0908  -30.4842 H   0  0  0  0  0  0  0  0  0  0  0  0
   -6.6249   19.4777  -32.0436 H   0  0  0  0  0  0  0  0  0  0  0  0
   -8.6304   17.8149  -32.9170 H   0  0  0  0  0  0  0  0  0  0  0  0
   -9.4400   18.6787  -31.5552 H   0  0  0  0  0  0  0  0  0  0  0  0
   -9.5010   19.6880  -33.8430 H   0  0  0  0  0  0  0  0  0  0  0  0
  -10.0842   21.5272  -32.8432 H   0  0  0  0  0  0  0  0  0  0  0  0
   -9.5695   20.6508  -31.3390 H   0  0  0  0  0  0  0  0  0  0  0  0
   -7.2008   21.6728  -32.4784 H   0  0  0  0  0  0  0  0  0  0  0  0
   -8.4685   23.0005  -32.5777 H   0  0  0  0  0  0  0  0  0  0  0  0
   -8.7479   23.0751  -30.2606 H   0  0  0  0  0  0  0  0  0  0  0  0
   -7.8349   21.5068  -30.0367 H   0  0  0  0  0  0  0  0  0  0  0  0
   -5.5671   21.4904  -29.5494 H   0  0  0  0  0  0  0  0  0  0  0  0
   -3.4572   22.7512  -29.1332 H   0  0  0  0  0  0  0  0  0  0  0  0
   -2.5406   25.0969  -27.6326 H   0  0  0  0  0  0  0  0  0  0  0  0
   -1.8582   23.8450  -28.7251 H   0  0  0  0  0  0  0  0  0  0  0  0
   -1.1747   25.5061  -28.7251 H   0  0  0  0  0  0  0  0  0  0  0  0
   -5.2738   26.3319  -30.7556 H   0  0  0  0  0  0  0  0  0  0  0  0
   -7.3836   25.0741  -31.1632 H   0  0  0  0  0  0  0  0  0  0  0  0
   -5.7845   18.7365  -35.3909 H   0  0  0  0  0  0  0  0  0  0  0  0
   -6.7774   19.0538  -33.9056 H   0  0  0  0  0  0  0  0  0  0  0  0
   -6.2283   21.1878  -33.2076 H   0  0  0  0  0  0  0  0  0  0  0  0
   -4.5642   22.7521  -32.2100 H   0  0  0  0  0  0  0  0  0  0  0  0
   -2.1332   22.1883  -32.2617 H   0  0  0  0  0  0  0  0  0  0  0  0
   -1.3617   20.0859  -33.3501 H   0  0  0  0  0  0  0  0  0  0  0  0
   -1.2471   17.6015  -33.4601 H   0  0  0  0  0  0  0  0  0  0  0  0
   -1.5759   16.7652  -35.0154 H   0  0  0  0  0  0  0  0  0  0  0  0
   -0.9739   18.4576  -35.0154 H   0  0  0  0  0  0  0  0  0  0  0  0
  1  2  1  0
  2  3  1  0
  3  4  1  0
  4  5  1  0
  5  6  1  0
  6  7  1  0
  7  8  1  0
  8  9  1  0
  9 10  1  0
 10 11  1  0
 11 12  1  0
 12 13  2  0
 13 14  1  0
 14 15  2  0
 15 16  1  0
 16 17  1  0
 15 18  1  0
 18 19  2  0
  3 20  1  0
 20 21  1  0
 21 22  2  0
 22 23  1  0
 23 24  2  0
 24 25  1  0
 25 26  2  0
 26 27  1  0
 27 28  1  0
 19 12  1  0
 26 21  1  0
  1 29  1  0
  1 30  1  0
  1 31  1  0
  2 32  1  0
  2 33  1  0
  3 34  1  6
  4 35  1  0
  4 36  1  0
  5 37  1  0
  5 38  1  0
  6 39  1  0
  6 40  1  0
  7 41  1  0
  7 42  1  0
  8 43  1  0
  9 44  1  0
  9 45  1  0
 10 46  1  0
 10 47  1  0
 11 48  1  0
 11 49  1  0
 13 50  1  0
 14 51  1  0
 17 52  1  0
 17 53  1  0
 17 54  1  0
 18 55  1  0
 19 56  1  0
 20 57  1  0
 20 58  1  0
 22 59  1  0
 23 60  1  0
 24 61  1  0
 25 62  1  0
 28 63  1  0
 28 64  1  0
 28 65  1  0
M  CHG  1   3   1
M  END
>  <UniqueID>  (30) 
29

>  <SMILES>  (30) 
CC[N@H+](CCCCNCCCc1ccc(OC)cc1)Cc1ccccc1OC

>  <Energy>  (30) 
59.821500374693436

>  <Genealogy>  (30) 
CC[NH+](CCCCNCCCc1ccc(OC)cc1)Cc1ccccc1OC (protonated)
CC[N@H+](CCCCNCCCc1ccc(OC)cc1)Cc1ccccc1OC (chirality)
CC[N@H+](CCCCNCCCc1ccc(OC)cc1)Cc1ccccc1OC (3D coordinates assigned)
CC[N@H+](CCCCNCCCc1ccc(OC)cc1)Cc1ccccc1OC (optimized conformer: 59.821500374693436 kcal/mol)

>  <smiles>  (30) 
CCN(CCCCNCCCc1ccc(OC)cc1)Cc1ccccc1OC

>  <score_type>  (30) 
oracle

>  <origin>  (30) 
adg

>  <m_score__min__energy>  (30) 
-7.5899999999999999

>  <m_primary>  (30) 
energy

$$$$
30:0
     RDKit          3D

 35 36  0  0  0  0  0  0  0  0999 V2000
   -1.6840   25.4520  -28.9970 O   0  0  0  0  0  0  0  0  0  0  0  0
   -2.8260   24.5320  -29.3250 S   0  0  0  0  0  0  0  0  0  0  0  0
   -3.5970   24.2630  -28.0620 O   0  0  0  0  0  0  0  0  0  0  0  0
   -3.8600   25.3020  -30.4900 N   0  0  0  0  0  0  0  0  0  0  0  0
   -5.2570   25.1540  -30.0880 C   0  0  0  0  0  0  0  0  0  0  0  0
   -6.0600   24.5120  -31.2240 C   0  0  0  0  0  0  0  0  0  0  0  0
   -6.2270   23.0540  -31.0290 N   0  0  0  0  0  0  0  0  0  0  0  0
   -7.5500   22.7330  -30.4390 C   0  0  0  0  0  0  0  0  0  0  0  0
   -8.5460   22.2380  -31.5030 C   0  0  0  0  0  0  0  0  0  0  0  0
   -8.1160   21.0710  -32.1900 O   0  0  0  0  0  0  0  0  0  0  0  0
   -6.7020   20.9480  -32.2770 C   0  0  0  0  0  0  0  0  0  0  0  0
   -5.9670   22.2990  -32.2790 C   0  0  0  0  0  0  0  0  0  0  0  0
   -2.1840   23.0250  -29.9750 C   0  0  0  0  0  0  0  0  0  0  0  0
   -1.0450   22.4450  -29.4000 C   0  0  0  0  0  0  0  0  0  0  0  0
   -0.5200   21.2600  -29.9240 C   0  0  0  0  0  0  0  0  0  0  0  0
   -1.1280   20.6510  -31.0250 C   0  0  0  0  0  0  0  0  0  0  0  0
   -2.2620   21.2280  -31.6070 C   0  0  0  0  0  0  0  0  0  0  0  0
   -3.0860   20.4020  -33.1180 Br  0  0  0  0  0  0  0  0  0  0  0  0
   -2.7890   22.4140  -31.0840 C   0  0  0  0  0  0  0  0  0  0  0  0
   -5.3139   24.5150  -29.1944 H   0  0  0  0  0  0  0  0  0  0  0  0
   -5.6766   26.1456  -29.8627 H   0  0  0  0  0  0  0  0  0  0  0  0
   -7.0541   24.9810  -31.2655 H   0  0  0  0  0  0  0  0  0  0  0  0
   -5.5071   24.6685  -32.1620 H   0  0  0  0  0  0  0  0  0  0  0  0
   -7.4202   21.9474  -29.6801 H   0  0  0  0  0  0  0  0  0  0  0  0
   -7.9566   23.6519  -29.9916 H   0  0  0  0  0  0  0  0  0  0  0  0
   -9.5023   22.0161  -31.0067 H   0  0  0  0  0  0  0  0  0  0  0  0
   -8.6375   23.0370  -32.2535 H   0  0  0  0  0  0  0  0  0  0  0  0
   -6.3500   20.3615  -31.4155 H   0  0  0  0  0  0  0  0  0  0  0  0
   -6.4786   20.4570  -33.2357 H   0  0  0  0  0  0  0  0  0  0  0  0
   -4.8857   22.1189  -32.3709 H   0  0  0  0  0  0  0  0  0  0  0  0
   -6.3351   22.8940  -33.1278 H   0  0  0  0  0  0  0  0  0  0  0  0
   -0.5631   22.9232  -28.5345 H   0  0  0  0  0  0  0  0  0  0  0  0
    0.3729   20.8064  -29.4690 H   0  0  0  0  0  0  0  0  0  0  0  0
   -0.7148   19.7174  -31.4344 H   0  0  0  0  0  0  0  0  0  0  0  0
   -3.6794   22.8684  -31.5431 H   0  0  0  0  0  0  0  0  0  0  0  0
  1  2  2  0
  2  3  2  0
  2  4  1  0
  4  5  1  0
  5  6  1  0
  6  7  1  0
  7  8  1  0
  8  9  1  0
  9 10  1  0
 10 11  1  0
 11 12  1  0
  2 13  1  0
 13 14  2  0
 14 15  1  0
 15 16  2  0
 16 17  1  0
 17 18  1  0
 17 19  2  0
 12  7  1  0
 19 13  1  0
  5 20  1  0
  5 21  1  0
  6 22  1  0
  6 23  1  0
  8 24  1  0
  8 25  1  0
  9 26  1  0
  9 27  1  0
 11 28  1  0
 11 29  1  0
 12 30  1  0
 12 31  1  0
 14 32  1  0
 15 33  1  0
 16 34  1  0
 19 35  1  0
M  CHG  1   4  -1
M  END
>  <UniqueID>  (31) 
30

>  <SMILES>  (31) 
O=S(=O)([N-]CCN1CCOCC1)c1cccc(Br)c1

>  <Energy>  (31) 
45.11506679652816

>  <Genealogy>  (31) 
O=S(=O)([N-]CCN1CCOCC1)c1cccc(Br)c1 (protonated)
O=S(=O)([N-]CCN1CCOCC1)c1cccc(Br)c1 (3D coordinates assigned)
O=S(=O)([N-]CCN1CCOCC1)c1cccc(Br)c1 (nonaromatic ring conformer: 45.11506679652816 kcal/mol)

>  <smiles>  (31) 
O=S(=O)(NCCN1CCOCC1)c1cccc(Br)c1

>  <score_type>  (31) 
oracle

>  <origin>  (31) 
adg

>  <m_score__min__energy>  (31) 
-8.8000000000000007

>  <m_primary>  (31) 
energy

$$$$
31:0
     RDKit          3D

 54 57  0  0  0  0  0  0  0  0999 V2000
   -5.7170   11.6420  -32.2960 C   0  0  0  0  0  0  0  0  0  0  0  0
   -5.5090   12.3630  -33.6230 C   0  0  0  0  0  0  0  0  0  0  0  0
   -5.7230   13.8440  -33.4690 C   0  0  0  0  0  0  0  0  0  0  0  0
   -6.6870   14.5040  -34.2460 C   0  0  0  0  0  0  0  0  0  0  0  0
   -6.8800   15.8810  -34.1090 C   0  0  0  0  0  0  0  0  0  0  0  0
   -6.1100   16.6210  -33.1950 C   0  0  0  0  0  0  0  0  0  0  0  0
   -6.2990   18.0470  -33.0710 N   0  0  0  0  0  0  0  0  0  0  0  0
   -5.3120   18.9350  -33.4690 C   0  0  0  0  0  0  0  0  0  0  0  0
   -3.7510   18.3760  -34.1910 S   0  0  0  0  0  0  0  0  0  0  0  0
   -2.9450   20.0210  -34.2180 C   0  0  0  0  0  0  0  0  0  0  0  0
   -2.7480   20.6170  -32.8560 C   0  0  0  0  0  0  0  0  0  0  0  0
   -2.0340   20.0320  -31.9970 O   0  0  0  0  0  0  0  0  0  0  0  0
   -3.4510   21.8200  -32.5070 N   0  0  0  0  0  0  0  0  0  0  0  0
   -3.1360   22.6030  -31.3430 C   0  0  0  0  0  0  0  0  0  0  0  0
   -1.8570   22.5110  -30.7750 C   0  0  0  0  0  0  0  0  0  0  0  0
   -1.5320   23.2650  -29.6430 C   0  0  0  0  0  0  0  0  0  0  0  0
   -2.4870   24.0960  -29.0410 C   0  0  0  0  0  0  0  0  0  0  0  0
   -2.1020   24.8680  -27.8940 N   0  0  0  0  0  0  0  0  0  0  0  0
   -1.3170   26.0630  -27.8990 C   0  0  0  0  0  0  0  0  0  0  0  0
   -0.6620   26.5130  -26.6380 C   0  0  0  0  0  0  0  0  0  0  0  0
   -1.2260   26.7730  -28.9330 O   0  0  0  0  0  0  0  0  0  0  0  0
   -3.7730   24.1860  -29.6060 C   0  0  0  0  0  0  0  0  0  0  0  0
   -4.0960   23.4390  -30.7450 C   0  0  0  0  0  0  0  0  0  0  0  0
   -5.4780   20.2790  -33.2880 N   0  0  0  0  0  0  0  0  0  0  0  0
   -6.6260   20.7550  -32.7530 C   0  0  0  0  0  0  0  0  0  0  0  0
   -6.9130   22.1030  -32.5280 C   0  0  0  0  0  0  0  0  0  0  0  0
   -8.1740   22.2860  -31.9580 C   0  0  0  0  0  0  0  0  0  0  0  0
   -8.9120   20.7730  -31.7410 S   0  0  0  0  0  0  0  0  0  0  0  0
   -7.6270   19.8940  -32.3740 C   0  0  0  0  0  0  0  0  0  0  0  0
   -7.4660   18.5230  -32.5170 C   0  0  0  0  0  0  0  0  0  0  0  0
   -8.3740   17.7370  -32.1210 O   0  0  0  0  0  0  0  0  0  0  0  0
   -5.1810   15.9510  -32.3840 C   0  0  0  0  0  0  0  0  0  0  0  0
   -4.9860   14.5730  -32.5210 C   0  0  0  0  0  0  0  0  0  0  0  0
   -5.5168   12.3360  -31.4663 H   0  0  0  0  0  0  0  0  0  0  0  0
   -6.7551   11.2838  -32.2321 H   0  0  0  0  0  0  0  0  0  0  0  0
   -5.0292   10.7859  -32.2321 H   0  0  0  0  0  0  0  0  0  0  0  0
   -4.4823   12.1821  -33.9740 H   0  0  0  0  0  0  0  0  0  0  0  0
   -6.2377   11.9766  -34.3507 H   0  0  0  0  0  0  0  0  0  0  0  0
   -7.2934   13.9349  -34.9660 H   0  0  0  0  0  0  0  0  0  0  0  0
   -7.6398   16.3895  -34.7206 H   0  0  0  0  0  0  0  0  0  0  0  0
   -1.9606   19.9178  -34.6978 H   0  0  0  0  0  0  0  0  0  0  0  0
   -3.6124   20.6975  -34.7720 H   0  0  0  0  0  0  0  0  0  0  0  0
   -4.3040   22.0700  -33.0660 H   0  0  0  0  0  0  0  0  0  0  0  0
   -1.1062   21.8428  -31.2219 H   0  0  0  0  0  0  0  0  0  0  0  0
   -0.5178   23.2055  -29.2212 H   0  0  0  0  0  0  0  0  0  0  0  0
   -1.2240   26.1269  -25.7749 H   0  0  0  0  0  0  0  0  0  0  0  0
    0.3693   26.1318  -26.6043 H   0  0  0  0  0  0  0  0  0  0  0  0
   -0.6479   27.6124  -26.6043 H   0  0  0  0  0  0  0  0  0  0  0  0
   -4.5267   24.8455  -29.1510 H   0  0  0  0  0  0  0  0  0  0  0  0
   -5.1064   23.5062  -31.1747 H   0  0  0  0  0  0  0  0  0  0  0  0
   -6.2248   22.9257  -32.7718 H   0  0  0  0  0  0  0  0  0  0  0  0
   -8.6186   23.2563  -31.6918 H   0  0  0  0  0  0  0  0  0  0  0  0
   -4.6027   16.5132  -31.6360 H   0  0  0  0  0  0  0  0  0  0  0  0
   -4.2523   14.0577  -31.8837 H   0  0  0  0  0  0  0  0  0  0  0  0
  1  2  1  0
  2  3  1  0
  3  4  2  0
  4  5  1  0
  5  6  2  0
  6  7  1  0
  7  8  1  0
  8  9  1  0
  9 10  1  0
 10 11  1  0
 11 12  2  0
 11 13  1  0
 13 14  1  0
 14 15  2  0
 15 16  1  0
 16 17  2  0
 17 18  1  0
 18 19  1  0
 19 20  1  0
 19 21  2  0
 17 22  1  0
 22 23  2  0
  8 24  2  0
 24 25  1  0
 25 26  1  0
 26 27  2  0
 27 28  1  0
 28 29  1  0
 29 30  1  0
 30 31  2  0
  6 32  1  0
 32 33  2  0
 33  3  1  0
 30  7  1  0
 23 14  1  0
 29 25  2  0
  1 34  1  0
  1 35  1  0
  1 36  1  0
  2 37  1  0
  2 38  1  0
  4 39  1  0
  5 40  1  0
 10 41  1  0
 10 42  1  0
 13 43  1  0
 15 44  1  0
 16 45  1  0
 20 46  1  0
 20 47  1  0
 20 48  1  0
 22 49  1  0
 23 50  1  0
 26 51  1  0
 27 52  1  0
 32 53  1  0
 33 54  1  0
M  CHG  1  18  -1
M  END
>  <UniqueID>  (32) 
31

>  <SMILES>  (32) 
CCc1ccc(-n2c(SCC(=O)Nc3ccc([N-]C(C)=O)cc3)nc3ccsc3c2=O)cc1

>  <Energy>  (32) 
99.92834208113797

>  <Genealogy>  (32) 
CCc1ccc(-n2c(SCC(=O)Nc3ccc([N-]C(C)=O)cc3)nc3ccsc3c2=O)cc1 (protonated)
CCc1ccc(-n2c(SCC(=O)Nc3ccc([N-]C(C)=O)cc3)nc3ccsc3c2=O)cc1 (3D coordinates assigned)
CCc1ccc(-n2c(SCC(=O)Nc3ccc([N-]C(C)=O)cc3)nc3ccsc3c2=O)cc1 (optimized conformer: 99.92834208113797 kcal/mol)

>  <smiles>  (32) 
CCc1ccc(-n2c(SCC(=O)Nc3ccc(NC(C)=O)cc3)nc3ccsc3c2=O)cc1

>  <score_type>  (32) 
oracle

>  <origin>  (32) 
adg

>  <m_score__min__energy>  (32) 
-10.52

>  <m_primary>  (32) 
energy

$$$$
