0:0
     RDKit          3D

 66 68  0  0  0  0  0  0  0  0999 V2000
   -0.3804   21.3172  -32.6745 H   0  0  0  0  0  0  0  0  0  0  0  0
   -0.5390   21.1370  -33.7480 C   0  0  0  0  0  0  0  0  0  0  0  0
   -0.0150   21.9300  -34.6170 N   0  0  0  0  0  0  0  0  0  0  0  0
    0.3050   21.4900  -35.9540 C   0  0  0  0  0  0  0  0  0  0  0  0
    0.9513   20.6014  -35.9027 H   0  0  0  0  0  0  0  0  0  0  0  0
   -0.6226   21.2384  -36.4891 H   0  0  0  0  0  0  0  0  0  0  0  0
    0.8301   22.2949  -36.4891 H   0  0  0  0  0  0  0  0  0  0  0  0
   -1.3660   19.9670  -34.1970 C   0  0  0  0  0  0  0  0  0  0  0  0
   -1.1663   19.1113  -33.5352 H   0  0  0  0  0  0  0  0  0  0  0  0
   -1.0940   19.7259  -35.2352 H   0  0  0  0  0  0  0  0  0  0  0  0
   -2.7980   20.2820  -34.1530 N   0  0  0  0  0  0  0  0  0  0  0  0
   -3.0910   21.1760  -34.6100 H   0  0  0  0  0  0  0  0  0  0  0  0
   -3.8190   19.3480  -33.7470 C   0  0  0  0  0  0  0  0  0  0  0  0
   -3.6280   17.9890  -34.0410 C   0  0  0  0  0  0  0  0  0  0  0  0
   -2.6615   17.6527  -34.4445 H   0  0  0  0  0  0  0  0  0  0  0  0
   -4.6370   17.0660  -33.8310 C   0  0  0  0  0  0  0  0  0  0  0  0
   -4.4676   16.0056  -34.0696 H   0  0  0  0  0  0  0  0  0  0  0  0
   -5.8610   17.4720  -33.3210 C   0  0  0  0  0  0  0  0  0  0  0  0
   -6.6651   16.7316  -33.1980 H   0  0  0  0  0  0  0  0  0  0  0  0
   -6.0980   18.8200  -32.9550 C   0  0  0  0  0  0  0  0  0  0  0  0
   -5.0600   19.7790  -33.1680 C   0  0  0  0  0  0  0  0  0  0  0  0
   -5.3110   21.1250  -32.7940 C   0  0  0  0  0  0  0  0  0  0  0  0
   -4.2480   22.0900  -32.7130 N   0  0  0  0  0  0  0  0  0  0  0  0
   -4.2160   22.8720  -33.4040 H   0  0  0  0  0  0  0  0  0  0  0  0
   -3.3120   22.1030  -31.5910 C   0  0  0  0  0  0  0  0  0  0  0  0
   -2.3876   22.6125  -31.9006 H   0  0  0  0  0  0  0  0  0  0  0  0
   -3.1025   21.0632  -31.2998 H   0  0  0  0  0  0  0  0  0  0  0  0
   -3.9090   22.8390  -30.3770 C   0  0  0  0  0  0  0  0  0  0  0  0
   -3.5727   22.3478  -29.4520 H   0  0  0  0  0  0  0  0  0  0  0  0
   -5.0067   22.8063  -30.4397 H   0  0  0  0  0  0  0  0  0  0  0  0
   -3.4650   24.2520  -30.3710 N   0  0  0  0  0  0  0  0  0  0  0  0
   -4.6200   25.1780  -30.4550 C   0  0  0  0  0  0  0  0  0  0  0  0
   -4.8584   25.3613  -31.5131 H   0  0  0  0  0  0  0  0  0  0  0  0
   -4.3530   26.1194  -29.9526 H   0  0  0  0  0  0  0  0  0  0  0  0
   -5.8500   24.5830  -29.7590 C   0  0  0  0  0  0  0  0  0  0  0  0
   -5.5219   24.0376  -28.8618 H   0  0  0  0  0  0  0  0  0  0  0  0
   -6.3523   23.9107  -30.4701 H   0  0  0  0  0  0  0  0  0  0  0  0
   -6.8480   25.6640  -29.3430 C   0  0  0  0  0  0  0  0  0  0  0  0
   -6.8959   25.7159  -28.2453 H   0  0  0  0  0  0  0  0  0  0  0  0
   -6.5231   26.6362  -29.7422 H   0  0  0  0  0  0  0  0  0  0  0  0
   -7.8430   25.4177  -29.7422 H   0  0  0  0  0  0  0  0  0  0  0  0
   -2.5710   24.5640  -29.2290 C   0  0  0  0  0  0  0  0  0  0  0  0
   -1.5308   24.3424  -29.5100 H   0  0  0  0  0  0  0  0  0  0  0  0
   -2.6706   25.6294  -28.9740 H   0  0  0  0  0  0  0  0  0  0  0  0
   -2.9590   23.7170  -28.0100 C   0  0  0  0  0  0  0  0  0  0  0  0
   -3.5468   22.8530  -28.3536 H   0  0  0  0  0  0  0  0  0  0  0  0
   -2.0297   23.4024  -27.5126 H   0  0  0  0  0  0  0  0  0  0  0  0
   -3.7880   24.5000  -26.9920 C   0  0  0  0  0  0  0  0  0  0  0  0
   -3.4847   24.2136  -25.9742 H   0  0  0  0  0  0  0  0  0  0  0  0
   -3.6212   25.5779  -27.1346 H   0  0  0  0  0  0  0  0  0  0  0  0
   -4.8546   24.2720  -27.1346 H   0  0  0  0  0  0  0  0  0  0  0  0
   -6.6190   21.5260  -32.4670 C   0  0  0  0  0  0  0  0  0  0  0  0
   -6.9370   22.8880  -32.2680 C   0  0  0  0  0  0  0  0  0  0  0  0
   -6.1427   23.6462  -32.3326 H   0  0  0  0  0  0  0  0  0  0  0  0
   -8.2440   23.2830  -31.9910 C   0  0  0  0  0  0  0  0  0  0  0  0
   -8.4756   24.3469  -31.8348 H   0  0  0  0  0  0  0  0  0  0  0  0
   -9.2550   22.3330  -31.9120 C   0  0  0  0  0  0  0  0  0  0  0  0
  -10.2903   22.6488  -31.7162 H   0  0  0  0  0  0  0  0  0  0  0  0
   -8.9610   20.9820  -32.0800 C   0  0  0  0  0  0  0  0  0  0  0  0
   -9.7720   20.2410  -32.0235 H   0  0  0  0  0  0  0  0  0  0  0  0
   -7.6320   20.5450  -32.3230 C   0  0  0  0  0  0  0  0  0  0  0  0
   -7.3120   19.2060  -32.4190 N   0  0  0  0  0  0  0  0  0  0  0  0
   -8.2720   18.1830  -31.9410 C   0  0  0  0  0  0  0  0  0  0  0  0
   -8.2806   18.1738  -30.8411 H   0  0  0  0  0  0  0  0  0  0  0  0
   -9.2789   18.4226  -32.3136 H   0  0  0  0  0  0  0  0  0  0  0  0
   -7.9690   17.1934  -32.3136 H   0  0  0  0  0  0  0  0  0  0  0  0
  1  2  1  0
  2  3  2  0
  3  4  1  0
  4  5  1  0
  4  6  1  0
  4  7  1  0
  2  8  1  0
  8  9  1  0
  8 10  1  0
  8 11  1  0
 11 12  1  0
 11 13  1  0
 13 14  2  0
 14 15  1  0
 14 16  1  0
 16 17  1  0
 16 18  2  0
 18 19  1  0
 18 20  1  0
 20 21  2  0
 21 22  1  0
 22 23  1  0
 23 24  1  0
 23 25  1  0
 25 26  1  0
 25 27  1  0
 25 28  1  0
 28 29  1  0
 28 30  1  0
 28 31  1  0
 31 32  1  0
 32 33  1  0
 32 34  1  0
 32 35  1  0
 35 36  1  0
 35 37  1  0
 35 38  1  0
 38 39  1  0
 38 40  1  0
 38 41  1  0
 31 42  1  0
 42 43  1  0
 42 44  1  0
 42 45  1  0
 45 46  1  0
 45 47  1  0
 45 48  1  0
 48 49  1  0
 48 50  1  0
 48 51  1  0
 22 52  2  0
 52 53  1  0
 53 54  1  0
 53 55  2  0
 55 56  1  0
 55 57  1  0
 57 58  1  0
 57 59  2  0
 59 60  1  0
 59 61  1  0
 61 62  2  0
 62 63  1  0
 63 64  1  0
 63 65  1  0
 63 66  1  0
 21 13  1  0
 61 52  1  0
 62 20  1  0
M  CHG  1  62   1
M  END
>  <UniqueID>  (1) 
1

>  <SMILES>  (1) 
CCCN(CCC)CCNc1c2ccccc2[n+](C)c2cccc(NC/C=N/C)c12

>  <Energy>  (1) 
93.17282837349791

>  <Genealogy>  (1) 
CCCN(CCC)CCNc1c2ccccc2[n+](C)c2cccc(NC/C=N/C)c12 (cis-trans isomerization)
CCCN(CCC)CCNc1c2ccccc2[n+](C)c2cccc(NC/C=N/C)c12 (3D coordinates assigned)
CCCN(CCC)CCNc1c2ccccc2[n+](C)c2cccc(NC/C=N/C)c12 (optimized conformer: 93.17282837349791 kcal/mol)

>  <smiles>  (1) 
CCCN(CCC)CCNc1c2ccccc2[n+](C)c2cccc(NCC=NC)c12

>  <score_type>  (1) 
oracle

>  <origin>  (1) 
adg

>  <m_score__min__energy>  (1) 
-9.2100000000000009

>  <m_primary>  (1) 
energy

$$$$
1:0
     RDKit          3D

 41 43  0  0  0  0  0  0  0  0999 V2000
   -0.4560   20.9650  -34.0880 C   0  0  0  0  0  0  0  0  0  0  0  0
   -1.7550   20.1750  -34.2120 C   0  0  0  0  0  0  0  0  0  0  0  0
   -2.8900   20.9800  -33.7660 N   0  0  0  0  0  0  0  0  0  0  0  0
   -3.7630   20.5630  -32.7050 C   0  0  0  0  0  0  0  0  0  0  0  0
   -3.6220   19.4280  -32.1750 O   0  0  0  0  0  0  0  0  0  0  0  0
   -4.8720   21.4340  -32.2620 C   0  0  0  0  0  0  0  0  0  0  0  0
   -4.5590   22.7220  -31.8050 C   0  0  0  0  0  0  0  0  0  0  0  0
   -5.5650   23.5510  -31.3090 C   0  0  0  0  0  0  0  0  0  0  0  0
   -5.1640   25.1690  -30.6500 S   0  0  0  0  0  0  0  0  0  0  0  0
   -5.0290   24.6020  -28.9160 C   0  0  0  0  0  0  0  0  0  0  0  0
   -3.8950   23.6230  -28.7490 C   0  0  0  0  0  0  0  0  0  0  0  0
   -4.1560   22.3070  -28.3270 C   0  0  0  0  0  0  0  0  0  0  0  0
   -3.1030   21.4110  -28.1240 C   0  0  0  0  0  0  0  0  0  0  0  0
   -1.7850   21.8170  -28.3420 C   0  0  0  0  0  0  0  0  0  0  0  0
   -1.5160   23.1220  -28.7630 C   0  0  0  0  0  0  0  0  0  0  0  0
   -2.5640   24.0260  -28.9650 C   0  0  0  0  0  0  0  0  0  0  0  0
   -2.2830   25.2930  -29.3630 F   0  0  0  0  0  0  0  0  0  0  0  0
   -6.8530   23.1230  -31.2910 N   0  0  0  0  0  0  0  0  0  0  0  0
   -7.2090   21.8940  -31.7430 C   0  0  0  0  0  0  0  0  0  0  0  0
   -8.5530   21.5070  -31.7040 C   0  0  0  0  0  0  0  0  0  0  0  0
   -8.9380   20.2570  -32.1900 C   0  0  0  0  0  0  0  0  0  0  0  0
   -7.9850   19.3900  -32.7270 C   0  0  0  0  0  0  0  0  0  0  0  0
   -6.6380   19.7630  -32.7680 C   0  0  0  0  0  0  0  0  0  0  0  0
   -6.2250   21.0100  -32.2560 C   0  0  0  0  0  0  0  0  0  0  0  0
   -0.2158   21.1111  -33.0245 H   0  0  0  0  0  0  0  0  0  0  0  0
    0.3589   20.4094  -34.5750 H   0  0  0  0  0  0  0  0  0  0  0  0
   -0.5744   21.9442  -34.5750 H   0  0  0  0  0  0  0  0  0  0  0  0
   -1.9054   19.8890  -35.2635 H   0  0  0  0  0  0  0  0  0  0  0  0
   -1.6863   19.2773  -33.5800 H   0  0  0  0  0  0  0  0  0  0  0  0
   -3.0530   21.9030  -34.2260 H   0  0  0  0  0  0  0  0  0  0  0  0
   -3.5191   23.0790  -31.8377 H   0  0  0  0  0  0  0  0  0  0  0  0
   -4.8504   25.4720  -28.2670 H   0  0  0  0  0  0  0  0  0  0  0  0
   -5.9673   24.0983  -28.6403 H   0  0  0  0  0  0  0  0  0  0  0  0
   -5.1928   21.9818  -28.1561 H   0  0  0  0  0  0  0  0  0  0  0  0
   -3.3129   20.3836  -27.7917 H   0  0  0  0  0  0  0  0  0  0  0  0
   -0.9581   21.1093  -28.1823 H   0  0  0  0  0  0  0  0  0  0  0  0
   -0.4771   23.4393  -28.9360 H   0  0  0  0  0  0  0  0  0  0  0  0
   -9.3085   22.1903  -31.2889 H   0  0  0  0  0  0  0  0  0  0  0  0
   -9.9947   19.9542  -32.1499 H   0  0  0  0  0  0  0  0  0  0  0  0
   -8.2946   18.4101  -33.1192 H   0  0  0  0  0  0  0  0  0  0  0  0
   -5.8950   19.0784  -33.2030 H   0  0  0  0  0  0  0  0  0  0  0  0
  1  2  1  0
  2  3  1  0
  3  4  1  0
  4  5  2  0
  4  6  1  0
  6  7  2  0
  7  8  1  0
  8  9  1  0
  9 10  1  0
 10 11  1  0
 11 12  2  0
 12 13  1  0
 13 14  2  0
 14 15  1  0
 15 16  2  0
 16 17  1  0
  8 18  2  0
 18 19  1  0
 19 20  2  0
 20 21  1  0
 21 22  2  0
 22 23  1  0
 23 24  2  0
 24  6  1  0
 16 11  1  0
 24 19  1  0
  1 25  1  0
  1 26  1  0
  1 27  1  0
  2 28  1  0
  2 29  1  0
  3 30  1  0
  7 31  1  0
 10 32  1  0
 10 33  1  0
 12 34  1  0
 13 35  1  0
 14 36  1  0
 15 37  1  0
 20 38  1  0
 21 39  1  0
 22 40  1  0
 23 41  1  0
M  END
>  <UniqueID>  (2) 
2

>  <SMILES>  (2) 
CCNC(=O)c1cc(SCc2ccccc2F)nc2ccccc12

>  <Energy>  (2) 
43.52130743001892

>  <Genealogy>  (2) 
CCNC(=O)c1cc(SCc2ccccc2F)nc2ccccc12 (3D coordinates assigned)
CCNC(=O)c1cc(SCc2ccccc2F)nc2ccccc12 (optimized conformer: 43.52130743001892 kcal/mol)

>  <smiles>  (2) 
CCNC(=O)c1cc(SCc2ccccc2F)nc2ccccc12

>  <score_type>  (2) 
oracle

>  <origin>  (2) 
adg

>  <m_score__min__energy>  (2) 
-8.5899999999999999

>  <m_primary>  (2) 
energy

$$$$
2:0
     RDKit          3D

 53 55  0  0  0  0  0  0  0  0999 V2000
    0.2270   25.9070  -36.5540 C   0  0  0  0  0  0  0  0  0  0  0  0
    0.9190   24.5410  -36.5880 C   0  0  0  0  0  0  0  0  0  0  0  0
    0.0830   23.4810  -35.9750 N   0  0  0  0  0  0  0  0  0  0  0  0
    0.6500   22.1300  -36.1320 C   0  0  0  0  0  0  0  0  0  0  0  0
    0.0580   21.1200  -35.1360 C   0  0  0  0  0  0  0  0  0  0  0  0
   -0.7470   21.7930  -34.1880 O   0  0  0  0  0  0  0  0  0  0  0  0
   -0.5760   21.2540  -32.8880 C   0  0  0  0  0  0  0  0  0  0  0  0
   -1.9390   20.8970  -32.2980 C   0  0  0  0  0  0  0  0  0  0  0  0
   -3.0130   21.1900  -33.2450 N   0  0  0  0  0  0  0  0  0  0  0  0
   -4.3830   21.1070  -32.8180 C   0  0  0  0  0  0  0  0  0  0  0  0
   -5.1680   19.9950  -33.1680 C   0  0  0  0  0  0  0  0  0  0  0  0
   -4.6210   18.9250  -33.9090 C   0  0  0  0  0  0  0  0  0  0  0  0
   -5.3900   17.8060  -34.2150 C   0  0  0  0  0  0  0  0  0  0  0  0
   -6.7080   17.7250  -33.7800 C   0  0  0  0  0  0  0  0  0  0  0  0
   -7.2760   18.7790  -33.0650 C   0  0  0  0  0  0  0  0  0  0  0  0
   -6.5340   19.9520  -32.7750 C   0  0  0  0  0  0  0  0  0  0  0  0
   -7.1030   21.0320  -32.1240 N   0  0  0  0  0  0  0  0  0  0  0  0
   -8.5740   21.1150  -31.9810 C   0  0  0  0  0  0  0  0  0  0  0  0
   -6.3010   22.0450  -31.6340 C   0  0  0  0  0  0  0  0  0  0  0  0
   -6.8000   23.0270  -30.7390 C   0  0  0  0  0  0  0  0  0  0  0  0
   -5.9940   24.0720  -30.2910 C   0  0  0  0  0  0  0  0  0  0  0  0
   -4.6620   24.1600  -30.6960 C   0  0  0  0  0  0  0  0  0  0  0  0
   -3.8380   25.2350  -30.2350 N   0  0  0  0  0  0  0  0  0  0  0  0
   -4.1330   23.1790  -31.5390 C   0  0  0  0  0  0  0  0  0  0  0  0
   -4.9320   22.1150  -32.0060 C   0  0  0  0  0  0  0  0  0  0  0  0
    0.0717   26.2135  -35.5090 H   0  0  0  0  0  0  0  0  0  0  0  0
    0.8573   26.6502  -37.0643 H   0  0  0  0  0  0  0  0  0  0  0  0
   -0.7451   25.8384  -37.0643 H   0  0  0  0  0  0  0  0  0  0  0  0
    1.1229   24.2719  -37.6349 H   0  0  0  0  0  0  0  0  0  0  0  0
    1.8510   24.6171  -36.0087 H   0  0  0  0  0  0  0  0  0  0  0  0
   -0.1040   23.6680  -34.9620 H   0  0  0  0  0  0  0  0  0  0  0  0
   -0.8460   23.4820  -36.4580 H   0  0  0  0  0  0  0  0  0  0  0  0
    0.4446   21.7785  -37.1539 H   0  0  0  0  0  0  0  0  0  0  0  0
    1.7301   22.1975  -35.9350 H   0  0  0  0  0  0  0  0  0  0  0  0
   -0.5556   20.3875  -35.6809 H   0  0  0  0  0  0  0  0  0  0  0  0
    0.8773   20.6042  -34.6138 H   0  0  0  0  0  0  0  0  0  0  0  0
    0.0463   20.3488  -32.9459 H   0  0  0  0  0  0  0  0  0  0  0  0
   -0.0836   21.9988  -32.2456 H   0  0  0  0  0  0  0  0  0  0  0  0
   -1.9561   19.8242  -32.0555 H   0  0  0  0  0  0  0  0  0  0  0  0
   -2.0971   21.4998  -31.3915 H   0  0  0  0  0  0  0  0  0  0  0  0
   -2.7940   21.7880  -34.0770 H   0  0  0  0  0  0  0  0  0  0  0  0
   -3.5758   18.9762  -34.2481 H   0  0  0  0  0  0  0  0  0  0  0  0
   -4.9542   16.9842  -34.8021 H   0  0  0  0  0  0  0  0  0  0  0  0
   -7.3043   16.8273  -34.0004 H   0  0  0  0  0  0  0  0  0  0  0  0
   -8.3175   18.6990  -32.7201 H   0  0  0  0  0  0  0  0  0  0  0  0
   -8.8383   21.1299  -30.9133 H   0  0  0  0  0  0  0  0  0  0  0  0
   -8.9378   22.0351  -32.4617 H   0  0  0  0  0  0  0  0  0  0  0  0
   -9.0390   20.2417  -32.4617 H   0  0  0  0  0  0  0  0  0  0  0  0
   -7.8420   22.9621  -30.3926 H   0  0  0  0  0  0  0  0  0  0  0  0
   -6.4108   24.8321  -29.6138 H   0  0  0  0  0  0  0  0  0  0  0  0
   -3.1160   25.6600  -30.8600 H   0  0  0  0  0  0  0  0  0  0  0  0
   -3.9430   25.6140  -29.2670 H   0  0  0  0  0  0  0  0  0  0  0  0
   -3.0774   23.2377  -31.8429 H   0  0  0  0  0  0  0  0  0  0  0  0
  1  2  1  0
  2  3  1  0
  3  4  1  0
  4  5  1  0
  5  6  1  0
  6  7  1  0
  7  8  1  0
  8  9  1  0
  9 10  1  0
 10 11  2  0
 11 12  1  0
 12 13  2  0
 13 14  1  0
 14 15  2  0
 15 16  1  0
 16 17  2  0
 17 18  1  0
 17 19  1  0
 19 20  2  0
 20 21  1  0
 21 22  2  0
 22 23  1  0
 22 24  1  0
 24 25  2  0
 25 10  1  0
 16 11  1  0
 25 19  1  0
  1 26  1  0
  1 27  1  0
  1 28  1  0
  2 29  1  0
  2 30  1  0
  3 31  1  0
  3 32  1  0
  4 33  1  0
  4 34  1  0
  5 35  1  0
  5 36  1  0
  7 37  1  0
  7 38  1  0
  8 39  1  0
  8 40  1  0
  9 41  1  0
 12 42  1  0
 13 43  1  0
 14 44  1  0
 15 45  1  0
 18 46  1  0
 18 47  1  0
 18 48  1  0
 20 49  1  0
 21 50  1  0
 23 51  1  0
 23 52  1  0
 24 53  1  0
M  CHG  2   3   1  17   1
M  END
>  <UniqueID>  (3) 
3

>  <SMILES>  (3) 
CC[NH2+]CCOCCNc1c2ccccc2[n+](C)c2ccc(N)cc12

>  <Energy>  (3) 
79.11945559786211

>  <Genealogy>  (3) 
CC[NH2+]CCOCCNc1c2ccccc2[n+](C)c2ccc(N)cc12 (protonated)
CC[NH2+]CCOCCNc1c2ccccc2[n+](C)c2ccc(N)cc12 (3D coordinates assigned)
CC[NH2+]CCOCCNc1c2ccccc2[n+](C)c2ccc(N)cc12 (optimized conformer: 79.11945559786211 kcal/mol)

>  <smiles>  (3) 
CCNCCOCCNc1c2ccccc2[n+](C)c2ccc(N)cc12

>  <score_type>  (3) 
oracle

>  <origin>  (3) 
adg

>  <m_score__min__energy>  (3) 
-7.9500000000000002

>  <m_primary>  (3) 
energy

$$$$
3:0
     RDKit          3D

 49 51  0  0  0  0  0  0  0  0999 V2000
   -6.0780   24.9670  -29.3910 C   0  0  0  0  0  0  0  0  0  0  0  0
   -5.3080   25.3980  -30.6430 C   0  0  0  0  0  0  0  0  0  0  0  0
   -3.8500   25.2760  -30.4710 N   0  0  0  0  0  0  0  0  0  0  0  0
   -3.4320   23.9080  -30.1230 C   0  0  0  0  0  0  0  0  0  0  0  0
   -3.8750   22.9100  -31.1990 C   0  0  0  0  0  0  0  0  0  0  0  0
   -2.6870   22.1220  -31.7740 C   0  0  0  0  0  0  0  0  0  0  0  0
   -3.1430   20.9990  -32.7150 C   0  0  0  0  0  0  0  0  0  0  0  0
   -4.4460   21.3040  -33.3120 N   0  0  0  0  0  0  0  0  0  0  0  0
   -5.6300   20.5450  -33.0050 C   0  0  0  0  0  0  0  0  0  0  0  0
   -6.7730   21.1930  -32.5010 C   0  0  0  0  0  0  0  0  0  0  0  0
   -6.7780   22.5880  -32.2820 C   0  0  0  0  0  0  0  0  0  0  0  0
   -7.9340   23.2410  -31.8640 C   0  0  0  0  0  0  0  0  0  0  0  0
   -9.1060   22.5230  -31.6680 C   0  0  0  0  0  0  0  0  0  0  0  0
   -9.1230   21.1420  -31.8600 C   0  0  0  0  0  0  0  0  0  0  0  0
   -7.9500   20.4400  -32.2440 C   0  0  0  0  0  0  0  0  0  0  0  0
   -7.9430   19.0650  -32.3890 N   0  0  0  0  0  0  0  0  0  0  0  0
   -9.0690   18.2590  -31.8630 C   0  0  0  0  0  0  0  0  0  0  0  0
   -6.8670   18.4360  -32.9880 C   0  0  0  0  0  0  0  0  0  0  0  0
   -6.9170   17.0690  -33.3670 C   0  0  0  0  0  0  0  0  0  0  0  0
   -5.7930   16.4210  -33.8790 C   0  0  0  0  0  0  0  0  0  0  0  0
   -4.5970   17.1130  -34.0310 C   0  0  0  0  0  0  0  0  0  0  0  0
   -3.1760   16.2820  -34.6420 Cl  0  0  0  0  0  0  0  0  0  0  0  0
   -4.5320   18.4690  -33.7180 C   0  0  0  0  0  0  0  0  0  0  0  0
   -5.6700   19.1580  -33.2450 C   0  0  0  0  0  0  0  0  0  0  0  0
   -5.5226   25.2779  -28.4938 H   0  0  0  0  0  0  0  0  0  0  0  0
   -7.0709   25.4405  -29.3900 H   0  0  0  0  0  0  0  0  0  0  0  0
   -6.1935   23.8731  -29.3900 H   0  0  0  0  0  0  0  0  0  0  0  0
   -5.6193   24.7635  -31.4859 H   0  0  0  0  0  0  0  0  0  0  0  0
   -5.5376   26.4571  -30.8319 H   0  0  0  0  0  0  0  0  0  0  0  0
   -3.5260   25.9350  -29.7240 H   0  0  0  0  0  0  0  0  0  0  0  0
   -2.3361   23.8781  -30.0335 H   0  0  0  0  0  0  0  0  0  0  0  0
   -3.9033   23.6285  -29.1692 H   0  0  0  0  0  0  0  0  0  0  0  0
   -4.5897   22.2018  -30.7545 H   0  0  0  0  0  0  0  0  0  0  0  0
   -4.3374   23.4772  -32.0203 H   0  0  0  0  0  0  0  0  0  0  0  0
   -2.0399   22.8134  -32.3337 H   0  0  0  0  0  0  0  0  0  0  0  0
   -2.1459   21.6623  -30.9338 H   0  0  0  0  0  0  0  0  0  0  0  0
   -2.4000   20.8793  -33.5172 H   0  0  0  0  0  0  0  0  0  0  0  0
   -3.2361   20.0716  -32.1309 H   0  0  0  0  0  0  0  0  0  0  0  0
   -4.4660   21.9490  -34.1350 H   0  0  0  0  0  0  0  0  0  0  0  0
   -5.8563   23.1662  -32.4439 H   0  0  0  0  0  0  0  0  0  0  0  0
   -7.9190   24.3269  -31.6888 H   0  0  0  0  0  0  0  0  0  0  0  0
  -10.0240   23.0452  -31.3603 H   0  0  0  0  0  0  0  0  0  0  0  0
  -10.0610   20.5870  -31.7115 H   0  0  0  0  0  0  0  0  0  0  0  0
   -9.0483   18.2738  -30.7633 H   0  0  0  0  0  0  0  0  0  0  0  0
  -10.0202   18.6826  -32.2175 H   0  0  0  0  0  0  0  0  0  0  0  0
   -8.9747   17.2220  -32.2175 H   0  0  0  0  0  0  0  0  0  0  0  0
   -7.8584   16.5111  -33.2550 H   0  0  0  0  0  0  0  0  0  0  0  0
   -5.8531   15.3600  -34.1631 H   0  0  0  0  0  0  0  0  0  0  0  0
   -3.5820   19.0097  -33.8409 H   0  0  0  0  0  0  0  0  0  0  0  0
  1  2  1  0
  2  3  1  0
  3  4  1  0
  4  5  1  0
  5  6  1  0
  6  7  1  0
  7  8  1  0
  8  9  1  0
  9 10  2  0
 10 11  1  0
 11 12  2  0
 12 13  1  0
 13 14  2  0
 14 15  1  0
 15 16  2  0
 16 17  1  0
 16 18  1  0
 18 19  2  0
 19 20  1  0
 20 21  2  0
 21 22  1  0
 21 23  1  0
 23 24  2  0
 24  9  1  0
 15 10  1  0
 24 18  1  0
  1 25  1  0
  1 26  1  0
  1 27  1  0
  2 28  1  0
  2 29  1  0
  3 30  1  0
  4 31  1  0
  4 32  1  0
  5 33  1  0
  5 34  1  0
  6 35  1  0
  6 36  1  0
  7 37  1  0
  7 38  1  0
  8 39  1  0
 11 40  1  0
 12 41  1  0
 13 42  1  0
 14 43  1  0
 17 44  1  0
 17 45  1  0
 17 46  1  0
 19 47  1  0
 20 48  1  0
 23 49  1  0
M  CHG  1  16   1
M  END
>  <UniqueID>  (4) 
4

>  <SMILES>  (4) 
CCNCCCCNc1c2ccccc2[n+](C)c2ccc(Cl)cc12

>  <Energy>  (4) 
70.4896286346582

>  <Genealogy>  (4) 
CCNCCCCNc1c2ccccc2[n+](C)c2ccc(Cl)cc12 (3D coordinates assigned)
CCNCCCCNc1c2ccccc2[n+](C)c2ccc(Cl)cc12 (optimized conformer: 70.4896286346582 kcal/mol)

>  <smiles>  (4) 
CCNCCCCNc1c2ccccc2[n+](C)c2ccc(Cl)cc12

>  <score_type>  (4) 
oracle

>  <origin>  (4) 
adg

>  <m_score__min__energy>  (4) 
-9.5700000000000003

>  <m_primary>  (4) 
energy

$$$$
4:0
     RDKit          3D

 60 62  0  0  0  0  0  0  0  0999 V2000
   -6.1120   17.3040  -31.3310 C   0  0  0  0  0  0  0  0  0  0  0  0
   -5.8120   16.9100  -32.7730 C   0  0  0  0  0  0  0  0  0  0  0  0
   -6.1570   18.0290  -33.7160 C   0  0  0  0  0  0  0  0  0  0  0  0
   -5.9270   17.8740  -34.9450 O   0  0  0  0  0  0  0  0  0  0  0  0
   -6.7290   19.3070  -33.2260 C   0  0  0  0  0  0  0  0  0  0  0  0
   -8.0370   19.5120  -32.8200 C   0  0  0  0  0  0  0  0  0  0  0  0
   -8.2120   20.7970  -32.4500 N   0  0  0  0  0  0  0  0  0  0  0  0
   -9.4690   21.3610  -31.9560 C   0  0  0  0  0  0  0  0  0  0  0  0
   -9.4050   21.5580  -30.4460 C   0  0  0  0  0  0  0  0  0  0  0  0
   -7.0270   21.4290  -32.6100 C   0  0  0  0  0  0  0  0  0  0  0  0
   -6.7980   22.8610  -32.3180 C   0  0  0  0  0  0  0  0  0  0  0  0
   -7.3330   23.7220  -33.0680 O   0  0  0  0  0  0  0  0  0  0  0  0
   -5.9530   23.3040  -31.1820 C   0  0  0  0  0  0  0  0  0  0  0  0
   -6.2130   24.5150  -30.5150 C   0  0  0  0  0  0  0  0  0  0  0  0
   -5.4090   24.9190  -29.4480 C   0  0  0  0  0  0  0  0  0  0  0  0
   -4.3440   24.1220  -29.0250 C   0  0  0  0  0  0  0  0  0  0  0  0
   -4.0770   22.8980  -29.6690 C   0  0  0  0  0  0  0  0  0  0  0  0
   -3.0220   22.0530  -29.2890 O   0  0  0  0  0  0  0  0  0  0  0  0
   -3.0180   21.1850  -28.1550 C   0  0  0  0  0  0  0  0  0  0  0  0
   -1.9930   21.6750  -27.1090 C   0  0  0  0  0  0  0  0  0  0  0  0
   -1.1880   22.8540  -27.5190 N   0  0  0  0  0  0  0  0  0  0  0  0
   -1.7150   24.1250  -26.9690 C   0  0  0  0  0  0  0  0  0  0  0  0
   -0.7070   25.2790  -27.1620 C   0  0  0  0  0  0  0  0  0  0  0  0
    0.2030   24.9830  -28.2010 O   0  0  0  0  0  0  0  0  0  0  0  0
    1.0410   23.9020  -27.8220 C   0  0  0  0  0  0  0  0  0  0  0  0
    0.2530   22.7110  -27.2290 C   0  0  0  0  0  0  0  0  0  0  0  0
   -4.8840   22.5010  -30.7420 C   0  0  0  0  0  0  0  0  0  0  0  0
   -6.0760   20.5270  -33.0790 C   0  0  0  0  0  0  0  0  0  0  0  0
   -4.6240   20.8040  -33.3430 C   0  0  0  0  0  0  0  0  0  0  0  0
   -5.5899   16.6184  -30.6474 H   0  0  0  0  0  0  0  0  0  0  0  0
   -5.7667   18.3330  -31.1526 H   0  0  0  0  0  0  0  0  0  0  0  0
   -7.1958   17.2449  -31.1526 H   0  0  0  0  0  0  0  0  0  0  0  0
   -4.7413   16.6762  -32.8675 H   0  0  0  0  0  0  0  0  0  0  0  0
   -6.4206   16.0310  -33.0318 H   0  0  0  0  0  0  0  0  0  0  0  0
   -8.8195   18.7391  -32.8019 H   0  0  0  0  0  0  0  0  0  0  0  0
   -9.6461   22.3322  -32.4412 H   0  0  0  0  0  0  0  0  0  0  0  0
  -10.2889   20.6664  -32.1911 H   0  0  0  0  0  0  0  0  0  0  0  0
   -9.7071   20.6282  -29.9418 H   0  0  0  0  0  0  0  0  0  0  0  0
   -8.3767   21.8165  -30.1532 H   0  0  0  0  0  0  0  0  0  0  0  0
  -10.0851   22.3715  -30.1532 H   0  0  0  0  0  0  0  0  0  0  0  0
   -7.0543   25.1468  -30.8360 H   0  0  0  0  0  0  0  0  0  0  0  0
   -5.6159   25.8711  -28.9374 H   0  0  0  0  0  0  0  0  0  0  0  0
   -3.7118   24.4505  -28.1869 H   0  0  0  0  0  0  0  0  0  0  0  0
   -4.0208   21.1738  -27.7030 H   0  0  0  0  0  0  0  0  0  0  0  0
   -2.7404   20.1717  -28.4808 H   0  0  0  0  0  0  0  0  0  0  0  0
   -2.5412   21.9388  -26.1925 H   0  0  0  0  0  0  0  0  0  0  0  0
   -1.2788   20.8499  -26.9705 H   0  0  0  0  0  0  0  0  0  0  0  0
   -1.2860   22.9120  -28.5620 H   0  0  0  0  0  0  0  0  0  0  0  0
   -2.6527   24.3778  -27.4856 H   0  0  0  0  0  0  0  0  0  0  0  0
   -1.8890   23.9919  -25.8910 H   0  0  0  0  0  0  0  0  0  0  0  0
   -1.2557   26.1984  -27.4145 H   0  0  0  0  0  0  0  0  0  0  0  0
   -0.1427   25.4136  -26.2274 H   0  0  0  0  0  0  0  0  0  0  0  0
    1.5883   23.5536  -28.7103 H   0  0  0  0  0  0  0  0  0  0  0  0
    1.7222   24.2698  -27.0406 H   0  0  0  0  0  0  0  0  0  0  0  0
    0.6214   21.7748  -27.6737 H   0  0  0  0  0  0  0  0  0  0  0  0
    0.3984   22.6933  -26.1388 H   0  0  0  0  0  0  0  0  0  0  0  0
   -4.6794   21.5466  -31.2491 H   0  0  0  0  0  0  0  0  0  0  0  0
   -4.0903   20.9058  -32.3865 H   0  0  0  0  0  0  0  0  0  0  0  0
   -4.1907   19.9723  -33.9179 H   0  0  0  0  0  0  0  0  0  0  0  0
   -4.5273   21.7368  -33.9179 H   0  0  0  0  0  0  0  0  0  0  0  0
  1  2  1  0
  2  3  1  0
  3  4  2  0
  3  5  1  0
  5  6  2  0
  6  7  1  0
  7  8  1  0
  8  9  1  0
  7 10  1  0
 10 11  1  0
 11 12  2  0
 11 13  1  0
 13 14  2  0
 14 15  1  0
 15 16  2  0
 16 17  1  0
 17 18  1  0
 18 19  1  0
 19 20  1  0
 20 21  1  0
 21 22  1  0
 22 23  1  0
 23 24  1  0
 24 25  1  0
 25 26  1  0
 17 27  2  0
 10 28  2  0
 28 29  1  0
 28  5  1  0
 27 13  1  0
 26 21  1  0
  1 30  1  0
  1 31  1  0
  1 32  1  0
  2 33  1  0
  2 34  1  0
  6 35  1  0
  8 36  1  0
  8 37  1  0
  9 38  1  0
  9 39  1  0
  9 40  1  0
 14 41  1  0
 15 42  1  0
 16 43  1  0
 19 44  1  0
 19 45  1  0
 20 46  1  0
 20 47  1  0
 21 48  1  0
 22 49  1  0
 22 50  1  0
 23 51  1  0
 23 52  1  0
 25 53  1  0
 25 54  1  0
 26 55  1  0
 26 56  1  0
 27 57  1  0
 29 58  1  0
 29 59  1  0
 29 60  1  0
M  CHG  1  21   1
M  END
>  <UniqueID>  (5) 
5

>  <SMILES>  (5) 
CCC(=O)c1cn(CC)c(C(=O)c2cccc(OCC[NH+]3CCOCC3)c2)c1C

>  <Energy>  (5) 
99.42640463969059

>  <Genealogy>  (5) 
CCC(=O)c1cn(CC)c(C(=O)c2cccc(OCC[NH+]3CCOCC3)c2)c1C (protonated)
CCC(=O)c1cn(CC)c(C(=O)c2cccc(OCC[NH+]3CCOCC3)c2)c1C (3D coordinates assigned)
CCC(=O)c1cn(CC)c(C(=O)c2cccc(OCC[NH+]3CCOCC3)c2)c1C (nonaromatic ring conformer: 99.42640463969059 kcal/mol)

>  <smiles>  (5) 
CCC(=O)c1cn(CC)c(C(=O)c2cccc(OCCN3CCOCC3)c2)c1C

>  <score_type>  (5) 
oracle

>  <origin>  (5) 
adg

>  <m_score__min__energy>  (5) 
-8.3399999999999999

>  <m_primary>  (5) 
energy

$$$$
5:0
     RDKit          3D

 46 48  0  0  0  0  0  0  0  0999 V2000
   -1.8630   20.5860  -33.3000 C   0  0  0  0  0  0  0  0  0  0  0  0
   -3.0540   21.5310  -33.4150 C   0  0  0  0  0  0  0  0  0  0  0  0
   -3.8040   21.5690  -32.1400 N   0  0  0  0  0  0  0  0  0  0  0  0
   -3.5850   20.3560  -31.3320 C   0  0  0  0  0  0  0  0  0  0  0  0
   -3.5750   22.8130  -31.3690 C   0  0  0  0  0  0  0  0  0  0  0  0
   -4.8320   23.3570  -30.6460 C   0  0  0  0  0  0  0  0  0  0  0  0
   -5.7950   24.0760  -31.6110 C   0  0  0  0  0  0  0  0  0  0  0  0
   -6.2330   23.2080  -32.7170 N   0  0  0  0  0  0  0  0  0  0  0  0
   -7.2720   22.2910  -32.3010 C   0  0  0  0  0  0  0  0  0  0  0  0
   -8.3990   22.7710  -31.6090 C   0  0  0  0  0  0  0  0  0  0  0  0
   -9.3910   21.8950  -31.1680 C   0  0  0  0  0  0  0  0  0  0  0  0
   -9.2780   20.5240  -31.4090 C   0  0  0  0  0  0  0  0  0  0  0  0
   -8.1660   20.0180  -32.1020 C   0  0  0  0  0  0  0  0  0  0  0  0
   -8.0160   18.6420  -32.3590 C   0  0  0  0  0  0  0  0  0  0  0  0
   -8.8910   17.8200  -31.9670 O   0  0  0  0  0  0  0  0  0  0  0  0
   -6.8810   18.1940  -33.0560 C   0  0  0  0  0  0  0  0  0  0  0  0
   -6.6690   16.8320  -33.3450 C   0  0  0  0  0  0  0  0  0  0  0  0
   -5.5250   16.4330  -34.0430 C   0  0  0  0  0  0  0  0  0  0  0  0
   -4.5870   17.3830  -34.4570 C   0  0  0  0  0  0  0  0  0  0  0  0
   -4.7890   18.7370  -34.1760 C   0  0  0  0  0  0  0  0  0  0  0  0
   -5.9290   19.1490  -33.4780 C   0  0  0  0  0  0  0  0  0  0  0  0
   -6.1060   20.4380  -33.2170 O   0  0  0  0  0  0  0  0  0  0  0  0
   -7.1610   20.9060  -32.5540 C   0  0  0  0  0  0  0  0  0  0  0  0
   -1.6379   20.4074  -32.2382 H   0  0  0  0  0  0  0  0  0  0  0  0
   -2.1042   19.6309  -33.7894 H   0  0  0  0  0  0  0  0  0  0  0  0
   -0.9877   21.0380  -33.7894 H   0  0  0  0  0  0  0  0  0  0  0  0
   -2.6932   22.5423  -33.6541 H   0  0  0  0  0  0  0  0  0  0  0  0
   -3.7211   21.1708  -34.2121 H   0  0  0  0  0  0  0  0  0  0  0  0
   -3.6315   20.6137  -30.2636 H   0  0  0  0  0  0  0  0  0  0  0  0
   -4.3639   19.6149  -31.5647 H   0  0  0  0  0  0  0  0  0  0  0  0
   -2.5962   19.9340  -31.5647 H   0  0  0  0  0  0  0  0  0  0  0  0
   -2.8027   22.6116  -30.6121 H   0  0  0  0  0  0  0  0  0  0  0  0
   -3.2727   23.5818  -32.0953 H   0  0  0  0  0  0  0  0  0  0  0  0
   -5.3632   22.5152  -30.1778 H   0  0  0  0  0  0  0  0  0  0  0  0
   -4.4988   24.0885  -29.8951 H   0  0  0  0  0  0  0  0  0  0  0  0
   -6.6808   24.4038  -31.0471 H   0  0  0  0  0  0  0  0  0  0  0  0
   -5.2566   24.9300  -32.0478 H   0  0  0  0  0  0  0  0  0  0  0  0
   -5.4110   22.6550  -33.0570 H   0  0  0  0  0  0  0  0  0  0  0  0
   -6.5560   23.7980  -33.5200 H   0  0  0  0  0  0  0  0  0  0  0  0
   -8.4990   23.8489  -31.4136 H   0  0  0  0  0  0  0  0  0  0  0  0
  -10.2661   22.2858  -30.6281 H   0  0  0  0  0  0  0  0  0  0  0  0
  -10.0621   19.8385  -31.0551 H   0  0  0  0  0  0  0  0  0  0  0  0
   -7.4045   16.0809  -33.0211 H   0  0  0  0  0  0  0  0  0  0  0  0
   -5.3627   15.3683  -34.2670 H   0  0  0  0  0  0  0  0  0  0  0  0
   -3.6881   17.0643  -35.0050 H   0  0  0  0  0  0  0  0  0  0  0  0
   -4.0489   19.4814  -34.5049 H   0  0  0  0  0  0  0  0  0  0  0  0
  1  2  1  0
  2  3  1  0
  3  4  1  0
  3  5  1  0
  5  6  1  0
  6  7  1  0
  7  8  1  0
  8  9  1  0
  9 10  2  0
 10 11  1  0
 11 12  2  0
 12 13  1  0
 13 14  1  0
 14 15  2  0
 14 16  1  0
 16 17  2  0
 17 18  1  0
 18 19  2  0
 19 20  1  0
 20 21  2  0
 21 22  1  0
 22 23  1  0
 23  9  1  0
 23 13  2  0
 21 16  1  0
  1 24  1  0
  1 25  1  0
  1 26  1  0
  2 27  1  0
  2 28  1  0
  4 29  1  0
  4 30  1  0
  4 31  1  0
  5 32  1  0
  5 33  1  0
  6 34  1  0
  6 35  1  0
  7 36  1  0
  7 37  1  0
  8 38  1  0
  8 39  1  0
 10 40  1  0
 11 41  1  0
 12 42  1  0
 17 43  1  0
 18 44  1  0
 19 45  1  0
 20 46  1  0
M  CHG  1   8   1
M  END
>  <UniqueID>  (6) 
6

>  <SMILES>  (6) 
CCN(C)CCC[NH2+]c1cccc2c(=O)c3ccccc3oc12

>  <Energy>  (6) 
58.20254644254031

>  <Genealogy>  (6) 
CCN(C)CCC[NH2+]c1cccc2c(=O)c3ccccc3oc12 (protonated)
CCN(C)CCC[NH2+]c1cccc2c(=O)c3ccccc3oc12 (3D coordinates assigned)
CCN(C)CCC[NH2+]c1cccc2c(=O)c3ccccc3oc12 (optimized conformer: 58.20254644254031 kcal/mol)

>  <smiles>  (6) 
CCN(C)CCCNc1cccc2c(=O)c3ccccc3oc12

>  <score_type>  (6) 
oracle

>  <origin>  (6) 
adg

>  <m_score__min__energy>  (6) 
-7.8700000000000001

>  <m_primary>  (6) 
energy

$$$$
6:0
     RDKit          3D

 71 75  0  0  0  0  0  0  0  0999 V2000
   -1.4770   24.8690  -28.4810 C   0  0  0  0  0  0  0  0  0  0  0  0
   -1.1970   23.6110  -29.3130 C   0  0  0  0  0  0  0  0  0  0  0  0
   -2.1700   22.5090  -29.1020 N   0  0  0  0  0  0  0  0  0  0  0  0
   -2.2330   21.9790  -27.7230 C   0  0  0  0  0  0  0  0  0  0  0  0
   -2.7210   20.5300  -27.6890 C   0  0  0  0  0  0  0  0  0  0  0  0
   -2.0590   21.4380  -30.1200 C   0  0  0  0  0  0  0  0  0  0  0  0
   -2.5570   21.9320  -31.4840 C   0  0  0  0  0  0  0  0  0  0  0  0
   -1.7760   21.2950  -32.6500 C   0  0  0  0  0  0  0  0  0  0  0  0
   -2.6110   21.1300  -33.8570 N   0  0  0  0  0  0  0  0  0  0  0  0
   -3.4360   19.9360  -33.7900 C   0  0  0  0  0  0  0  0  0  0  0  0
   -4.7790   20.0250  -33.3990 C   0  0  0  0  0  0  0  0  0  0  0  0
   -5.5790   18.9000  -33.3310 C   0  0  0  0  0  0  0  0  0  0  0  0
   -5.1450   17.6730  -33.7650 N   0  0  0  0  0  0  0  0  0  0  0  0
   -6.1130   16.5880  -34.0030 C   0  0  0  0  0  0  0  0  0  0  0  0
   -3.7950   17.5040  -34.0230 C   0  0  0  0  0  0  0  0  0  0  0  0
   -3.2400   16.2160  -34.2310 C   0  0  0  0  0  0  0  0  0  0  0  0
   -1.8840   16.0510  -34.5050 C   0  0  0  0  0  0  0  0  0  0  0  0
   -1.0450   17.1550  -34.5720 C   0  0  0  0  0  0  0  0  0  0  0  0
   -1.5480   18.4350  -34.3470 C   0  0  0  0  0  0  0  0  0  0  0  0
   -2.9160   18.6370  -34.0590 C   0  0  0  0  0  0  0  0  0  0  0  0
   -6.8830   19.3060  -32.7870 C   0  0  0  0  0  0  0  0  0  0  0  0
   -7.9630   18.5440  -32.3190 C   0  0  0  0  0  0  0  0  0  0  0  0
   -9.0790   19.2040  -31.7900 C   0  0  0  0  0  0  0  0  0  0  0  0
   -9.0970   20.6050  -31.6940 C   0  0  0  0  0  0  0  0  0  0  0  0
   -7.9790   21.3650  -32.0960 C   0  0  0  0  0  0  0  0  0  0  0  0
   -7.9880   22.8680  -31.9600 C   0  0  0  0  0  0  0  0  0  0  0  0
   -6.8390   23.3380  -31.1720 N   0  0  0  0  0  0  0  0  0  0  0  0
   -6.4760   22.6640  -30.0390 C   0  0  0  0  0  0  0  0  0  0  0  0
   -5.3900   23.0980  -29.2730 C   0  0  0  0  0  0  0  0  0  0  0  0
   -4.6820   24.2320  -29.6670 C   0  0  0  0  0  0  0  0  0  0  0  0
   -5.0690   24.9220  -30.8110 C   0  0  0  0  0  0  0  0  0  0  0  0
   -6.1600   24.4620  -31.5550 C   0  0  0  0  0  0  0  0  0  0  0  0
   -6.8650   20.6820  -32.6170 C   0  0  0  0  0  0  0  0  0  0  0  0
   -5.5270   21.2550  -32.9690 C   0  0  0  0  0  0  0  0  0  0  0  0
   -1.4217   24.6206  -27.4108 H   0  0  0  0  0  0  0  0  0  0  0  0
   -0.7283   25.6393  -28.7178 H   0  0  0  0  0  0  0  0  0  0  0  0
   -2.4817   25.2491  -28.7178 H   0  0  0  0  0  0  0  0  0  0  0  0
   -1.2180   23.8900  -30.3768 H   0  0  0  0  0  0  0  0  0  0  0  0
   -0.2165   23.2315  -28.9895 H   0  0  0  0  0  0  0  0  0  0  0  0
   -1.2281   22.0261  -27.2780 H   0  0  0  0  0  0  0  0  0  0  0  0
   -2.9482   22.5923  -27.1552 H   0  0  0  0  0  0  0  0  0  0  0  0
   -2.8306   20.2045  -26.6440 H   0  0  0  0  0  0  0  0  0  0  0  0
   -3.6928   20.4583  -28.1993 H   0  0  0  0  0  0  0  0  0  0  0  0
   -1.9905   19.8850  -28.1993 H   0  0  0  0  0  0  0  0  0  0  0  0
   -1.0061   21.1324  -30.2092 H   0  0  0  0  0  0  0  0  0  0  0  0
   -2.6787   20.5855  -29.8051 H   0  0  0  0  0  0  0  0  0  0  0  0
   -3.6216   21.6751  -31.5875 H   0  0  0  0  0  0  0  0  0  0  0  0
   -2.4038   23.0204  -31.5274 H   0  0  0  0  0  0  0  0  0  0  0  0
   -0.9199   21.9400  -32.8971 H   0  0  0  0  0  0  0  0  0  0  0  0
   -1.4455   20.2961  -32.3291 H   0  0  0  0  0  0  0  0  0  0  0  0
   -1.9970   21.1220  -34.7040 H   0  0  0  0  0  0  0  0  0  0  0  0
   -3.2230   21.9690  -33.9840 H   0  0  0  0  0  0  0  0  0  0  0  0
   -6.4654   16.1930  -33.0388 H   0  0  0  0  0  0  0  0  0  0  0  0
   -6.9683   16.9784  -34.5740 H   0  0  0  0  0  0  0  0  0  0  0  0
   -5.6279   15.7826  -34.5740 H   0  0  0  0  0  0  0  0  0  0  0  0
   -3.8915   15.3314  -34.1751 H   0  0  0  0  0  0  0  0  0  0  0  0
   -1.4767   15.0424  -34.6688 H   0  0  0  0  0  0  0  0  0  0  0  0
    0.0217   17.0188  -34.8037 H   0  0  0  0  0  0  0  0  0  0  0  0
   -0.8702   19.3001  -34.3943 H   0  0  0  0  0  0  0  0  0  0  0  0
   -7.9341   17.4454  -32.3666 H   0  0  0  0  0  0  0  0  0  0  0  0
   -9.9470   18.6215  -31.4475 H   0  0  0  0  0  0  0  0  0  0  0  0
   -9.9902   21.1136  -31.3022 H   0  0  0  0  0  0  0  0  0  0  0  0
   -7.9442   23.3191  -32.9623 H   0  0  0  0  0  0  0  0  0  0  0  0
   -8.9111   23.1650  -31.4407 H   0  0  0  0  0  0  0  0  0  0  0  0
   -7.0426   21.7739  -29.7280 H   0  0  0  0  0  0  0  0  0  0  0  0
   -5.0966   22.5487  -28.3663 H   0  0  0  0  0  0  0  0  0  0  0  0
   -3.8216   24.5795  -29.0763 H   0  0  0  0  0  0  0  0  0  0  0  0
   -4.5215   25.8219  -31.1278 H   0  0  0  0  0  0  0  0  0  0  0  0
   -6.4749   25.0088  -32.4560 H   0  0  0  0  0  0  0  0  0  0  0  0
   -5.6052   21.9848  -33.7883 H   0  0  0  0  0  0  0  0  0  0  0  0
   -5.0463   21.8089  -32.1492 H   0  0  0  0  0  0  0  0  0  0  0  0
  1  2  1  0
  2  3  1  0
  3  4  1  0
  4  5  1  0
  3  6  1  0
  6  7  1  0
  7  8  1  0
  8  9  1  0
  9 10  1  0
 10 11  2  0
 11 12  1  0
 12 13  2  0
 13 14  1  0
 13 15  1  0
 15 16  2  0
 16 17  1  0
 17 18  2  0
 18 19  1  0
 19 20  2  0
 12 21  1  0
 21 22  2  0
 22 23  1  0
 23 24  2  0
 24 25  1  0
 25 26  1  0
 26 27  1  0
 27 28  2  0
 28 29  1  0
 29 30  2  0
 30 31  1  0
 31 32  2  0
 25 33  2  0
 33 34  1  0
 20 10  1  0
 33 21  1  0
 34 11  1  0
 20 15  1  0
 32 27  1  0
  1 35  1  0
  1 36  1  0
  1 37  1  0
  2 38  1  0
  2 39  1  0
  4 40  1  0
  4 41  1  0
  5 42  1  0
  5 43  1  0
  5 44  1  0
  6 45  1  0
  6 46  1  0
  7 47  1  0
  7 48  1  0
  8 49  1  0
  8 50  1  0
  9 51  1  0
  9 52  1  0
 14 53  1  0
 14 54  1  0
 14 55  1  0
 16 56  1  0
 17 57  1  0
 18 58  1  0
 19 59  1  0
 22 60  1  0
 23 61  1  0
 24 62  1  0
 26 63  1  0
 26 64  1  0
 28 65  1  0
 29 66  1  0
 30 67  1  0
 31 68  1  0
 32 69  1  0
 34 70  1  0
 34 71  1  0
M  CHG  3   9   1  13   1  27   1
M  END
>  <UniqueID>  (7) 
7

>  <SMILES>  (7) 
CCN(CC)CCC[NH2+]c1c2c([n+](C)c3ccccc13)-c1cccc(C[n+]3ccccc3)c1C2

>  <Energy>  (7) 
117.57470340499387

>  <Genealogy>  (7) 
CCN(CC)CCC[NH2+]c1c2c([n+](C)c3ccccc13)-c1cccc(C[n+]3ccccc3)c1C2 (protonated)
CCN(CC)CCC[NH2+]c1c2c([n+](C)c3ccccc13)-c1cccc(C[n+]3ccccc3)c1C2 (3D coordinates assigned)
CCN(CC)CCC[NH2+]c1c2c([n+](C)c3ccccc13)-c1cccc(C[n+]3ccccc3)c1C2 (nonaromatic ring conformer: 117.57470340499387 kcal/mol)

>  <smiles>  (7) 
CCN(CC)CCCNc1c2c([n+](C)c3ccccc13)-c1cccc(C[n+]3ccccc3)c1C2

>  <score_type>  (7) 
oracle

>  <origin>  (7) 
adg

>  <m_score__min__energy>  (7) 
-9.1400000000000006

>  <m_primary>  (7) 
energy

$$$$
7:0
     RDKit          3D

 82 84  0  0  0  0  0  0  0  0999 V2000
   -4.4870   23.0580  -28.3920 C   0  0  0  0  0  0  0  0  0  0  0  0
   -5.3130   22.8840  -29.6790 C   0  0  0  0  0  0  0  0  0  0  0  0
   -4.9090   23.7650  -30.8040 N   0  0  0  0  0  0  0  0  0  0  0  0
   -4.8840   25.2120  -30.4820 C   0  0  0  0  0  0  0  0  0  0  0  0
   -6.0970   25.7000  -29.6840 C   0  0  0  0  0  0  0  0  0  0  0  0
   -5.4670   23.4180  -32.1310 C   0  0  0  0  0  0  0  0  0  0  0  0
   -4.6060   22.3530  -32.8440 C   0  0  0  0  0  0  0  0  0  0  0  0
   -4.1880   21.2450  -31.9510 N   0  0  0  0  0  0  0  0  0  0  0  0
   -4.8010   19.9740  -32.3250 C   0  0  0  0  0  0  0  0  0  0  0  0
   -6.2120   19.8160  -32.1780 C   0  0  0  0  0  0  0  0  0  0  0  0
   -7.0010   20.7870  -31.5120 C   0  0  0  0  0  0  0  0  0  0  0  0
   -8.3830   20.6530  -31.4120 C   0  0  0  0  0  0  0  0  0  0  0  0
   -9.0190   19.5610  -31.9810 C   0  0  0  0  0  0  0  0  0  0  0  0
   -8.2750   18.5840  -32.6320 C   0  0  0  0  0  0  0  0  0  0  0  0
   -6.8600   18.6710  -32.7180 C   0  0  0  0  0  0  0  0  0  0  0  0
   -6.1270   17.6950  -33.3530 N   0  0  0  0  0  0  0  0  0  0  0  0
   -6.7540   16.3920  -33.6720 C   0  0  0  0  0  0  0  0  0  0  0  0
   -4.8020   17.9120  -33.6600 C   0  0  0  0  0  0  0  0  0  0  0  0
   -4.1510   17.1130  -34.6310 C   0  0  0  0  0  0  0  0  0  0  0  0
   -2.7970   17.2510  -34.8840 C   0  0  0  0  0  0  0  0  0  0  0  0
   -2.0420   18.1340  -34.1340 C   0  0  0  0  0  0  0  0  0  0  0  0
   -2.6430   18.9650  -33.1760 C   0  0  0  0  0  0  0  0  0  0  0  0
   -1.7810   19.6330  -32.2390 N   0  0  0  0  0  0  0  0  0  0  0  0
   -0.4900   20.1960  -32.6470 C   0  0  0  0  0  0  0  0  0  0  0  0
    0.5810   20.0090  -31.5670 C   0  0  0  0  0  0  0  0  0  0  0  0
    0.3110   18.7970  -30.6560 C   0  0  0  0  0  0  0  0  0  0  0  0
   -0.6260   19.1560  -29.5820 N   0  0  0  0  0  0  0  0  0  0  0  0
   -0.2590   18.5280  -28.3060 C   0  0  0  0  0  0  0  0  0  0  0  0
   -0.9220   19.2830  -27.1530 C   0  0  0  0  0  0  0  0  0  0  0  0
   -1.6180   20.4770  -27.6520 N   0  0  0  0  0  0  0  0  0  0  0  0
   -0.7290   21.6560  -27.6870 C   0  0  0  0  0  0  0  0  0  0  0  0
   -1.2250   22.7600  -28.6450 C   0  0  0  0  0  0  0  0  0  0  0  0
   -1.5580   22.2460  -30.0520 C   0  0  0  0  0  0  0  0  0  0  0  0
   -2.4650   21.1040  -29.9890 N   0  0  0  0  0  0  0  0  0  0  0  0
   -4.0690   18.9610  -33.0260 C   0  0  0  0  0  0  0  0  0  0  0  0
   -5.1388   22.9207  -27.5166 H   0  0  0  0  0  0  0  0  0  0  0  0
   -3.6808   22.3100  -28.3698 H   0  0  0  0  0  0  0  0  0  0  0  0
   -4.0511   24.0677  -28.3698 H   0  0  0  0  0  0  0  0  0  0  0  0
   -5.2142   21.8397  -30.0101 H   0  0  0  0  0  0  0  0  0  0  0  0
   -6.3458   23.1633  -29.4234 H   0  0  0  0  0  0  0  0  0  0  0  0
   -3.9782   25.4185  -29.8931 H   0  0  0  0  0  0  0  0  0  0  0  0
   -4.9008   25.7492  -31.4418 H   0  0  0  0  0  0  0  0  0  0  0  0
   -5.8861   25.6152  -28.6077 H   0  0  0  0  0  0  0  0  0  0  0  0
   -6.3028   26.7509  -29.9356 H   0  0  0  0  0  0  0  0  0  0  0  0
   -6.9732   25.0844  -29.9356 H   0  0  0  0  0  0  0  0  0  0  0  0
   -6.4858   23.0247  -31.9990 H   0  0  0  0  0  0  0  0  0  0  0  0
   -5.4763   24.3268  -32.7507 H   0  0  0  0  0  0  0  0  0  0  0  0
   -5.1899   21.9307  -33.6751 H   0  0  0  0  0  0  0  0  0  0  0  0
   -3.6910   22.8534  -33.1938 H   0  0  0  0  0  0  0  0  0  0  0  0
   -4.3830   21.4910  -30.9580 H   0  0  0  0  0  0  0  0  0  0  0  0
   -3.1500   21.1240  -31.9590 H   0  0  0  0  0  0  0  0  0  0  0  0
   -6.5112   21.6646  -31.0649 H   0  0  0  0  0  0  0  0  0  0  0  0
   -8.9714   21.4153  -30.8803 H   0  0  0  0  0  0  0  0  0  0  0  0
  -10.1132   19.4674  -31.9174 H   0  0  0  0  0  0  0  0  0  0  0  0
   -8.7918   17.7273  -33.0892 H   0  0  0  0  0  0  0  0  0  0  0  0
   -7.0061   15.8680  -32.7382 H   0  0  0  0  0  0  0  0  0  0  0  0
   -7.6701   16.5595  -34.2574 H   0  0  0  0  0  0  0  0  0  0  0  0
   -6.0515   15.7806  -34.2574 H   0  0  0  0  0  0  0  0  0  0  0  0
   -4.7322   16.3686  -35.1950 H   0  0  0  0  0  0  0  0  0  0  0  0
   -2.3224   16.6591  -35.6805 H   0  0  0  0  0  0  0  0  0  0  0  0
   -0.9544   18.1858  -34.2906 H   0  0  0  0  0  0  0  0  0  0  0  0
   -1.9180   19.3900  -31.2340 H   0  0  0  0  0  0  0  0  0  0  0  0
   -0.1581   19.6942  -33.5679 H   0  0  0  0  0  0  0  0  0  0  0  0
   -0.6248   21.2754  -32.8106 H   0  0  0  0  0  0  0  0  0  0  0  0
    1.5545   19.8676  -32.0593 H   0  0  0  0  0  0  0  0  0  0  0  0
    0.5688   20.9073  -30.9322 H   0  0  0  0  0  0  0  0  0  0  0  0
   -0.1216   17.9829  -31.2561 H   0  0  0  0  0  0  0  0  0  0  0  0
    1.2607   18.4738  -30.2049 H   0  0  0  0  0  0  0  0  0  0  0  0
   -0.5760   20.1940  -29.4490 H   0  0  0  0  0  0  0  0  0  0  0  0
   -0.5987   17.4818  -28.3018 H   0  0  0  0  0  0  0  0  0  0  0  0
    0.8337   18.5609  -28.1837 H   0  0  0  0  0  0  0  0  0  0  0  0
   -1.6479   18.6217  -26.6573 H   0  0  0  0  0  0  0  0  0  0  0  0
   -0.1453   19.5962  -26.4398 H   0  0  0  0  0  0  0  0  0  0  0  0
   -2.0090   20.2790  -28.6020 H   0  0  0  0  0  0  0  0  0  0  0  0
   -0.6644   22.0760  -26.6724 H   0  0  0  0  0  0  0  0  0  0  0  0
    0.2505   21.3174  -28.0557 H   0  0  0  0  0  0  0  0  0  0  0  0
   -2.1315   23.2118  -28.2159 H   0  0  0  0  0  0  0  0  0  0  0  0
   -0.4066   23.4872  -28.7517 H   0  0  0  0  0  0  0  0  0  0  0  0
   -2.0352   23.0535  -30.6267 H   0  0  0  0  0  0  0  0  0  0  0  0
   -0.6249   21.9268  -30.5392 H   0  0  0  0  0  0  0  0  0  0  0  0
   -3.0440   21.1930  -29.1200 H   0  0  0  0  0  0  0  0  0  0  0  0
   -1.8850   20.2400  -29.8760 H   0  0  0  0  0  0  0  0  0  0  0  0
  1  2  1  0
  2  3  1  0
  3  4  1  0
  4  5  1  0
  3  6  1  0
  6  7  1  0
  7  8  1  0
  8  9  1  0
  9 10  2  0
 10 11  1  0
 11 12  2  0
 12 13  1  0
 13 14  2  0
 14 15  1  0
 15 16  2  0
 16 17  1  0
 16 18  1  0
 18 19  2  0
 19 20  1  0
 20 21  2  0
 21 22  1  0
 22 23  1  0
 23 24  1  0
 24 25  1  0
 25 26  1  0
 26 27  1  0
 27 28  1  0
 28 29  1  0
 29 30  1  0
 30 31  1  0
 31 32  1  0
 32 33  1  0
 33 34  1  0
 22 35  2  0
 35  9  1  0
 15 10  1  0
 35 18  1  0
  1 36  1  0
  1 37  1  0
  1 38  1  0
  2 39  1  0
  2 40  1  0
  4 41  1  0
  4 42  1  0
  5 43  1  0
  5 44  1  0
  5 45  1  0
  6 46  1  0
  6 47  1  0
  7 48  1  0
  7 49  1  0
  8 50  1  0
  8 51  1  0
 11 52  1  0
 12 53  1  0
 13 54  1  0
 14 55  1  0
 17 56  1  0
 17 57  1  0
 17 58  1  0
 19 59  1  0
 20 60  1  0
 21 61  1  0
 23 62  1  0
 24 63  1  0
 24 64  1  0
 25 65  1  0
 25 66  1  0
 26 67  1  0
 26 68  1  0
 27 69  1  0
 28 70  1  0
 28 71  1  0
 29 72  1  0
 29 73  1  0
 30 74  1  0
 31 75  1  0
 31 76  1  0
 32 77  1  0
 32 78  1  0
 33 79  1  0
 33 80  1  0
 34 81  1  0
 34 82  1  0
M  CHG  2   8   1  16   1
M  END
>  <UniqueID>  (8) 
8

>  <SMILES>  (8) 
CCN(CC)CC[NH2+]c1c2ccccc2[n+](C)c2cccc(NCCCNCCNCCCN)c12

>  <Energy>  (8) 
121.50680716140846

>  <Genealogy>  (8) 
CCN(CC)CC[NH2+]c1c2ccccc2[n+](C)c2cccc(NCCCNCCNCCCN)c12 (protonated)
CCN(CC)CC[NH2+]c1c2ccccc2[n+](C)c2cccc(NCCCNCCNCCCN)c12 (3D coordinates assigned)
CCN(CC)CC[NH2+]c1c2ccccc2[n+](C)c2cccc(NCCCNCCNCCCN)c12 (optimized conformer: 121.50680716140846 kcal/mol)

>  <smiles>  (8) 
CCN(CC)CCNc1c2ccccc2[n+](C)c2cccc(NCCCNCCNCCCN)c12

>  <score_type>  (8) 
oracle

>  <origin>  (8) 
adg

>  <m_score__min__energy>  (8) 
-7.3899999999999997

>  <m_primary>  (8) 
energy

$$$$
8:0
     RDKit          3D

 53 57  0  0  0  0  0  0  0  0999 V2000
   -1.2030   23.7840  -29.3450 C   0  0  0  0  0  0  0  0  0  0  0  0
   -2.0760   24.9040  -28.9650 N   0  0  0  0  0  0  0  0  0  0  0  0
   -1.5170   25.6590  -27.8310 C   0  0  0  0  0  0  0  0  0  0  0  0
   -3.4910   24.5140  -28.7690 C   0  0  0  0  0  0  0  0  0  0  0  0
   -4.4500   24.9220  -29.9100 C   0  0  0  0  0  0  0  0  0  0  0  0
   -4.0590   24.3300  -31.1830 N   0  0  0  0  0  0  0  0  0  0  0  0
   -4.1570   22.9310  -31.4750 C   0  0  0  0  0  0  0  0  0  0  0  0
   -3.1570   22.1800  -31.3220 O   0  0  0  0  0  0  0  0  0  0  0  0
   -5.4540   22.3640  -31.8770 C   0  0  0  0  0  0  0  0  0  0  0  0
   -6.6440   22.9980  -31.5750 C   0  0  0  0  0  0  0  0  0  0  0  0
   -7.6470   22.1010  -31.8280 C   0  0  0  0  0  0  0  0  0  0  0  0
   -9.0120   22.2820  -31.6300 C   0  0  0  0  0  0  0  0  0  0  0  0
   -9.8670   21.2170  -31.9190 C   0  0  0  0  0  0  0  0  0  0  0  0
   -9.3450   19.9970  -32.3820 C   0  0  0  0  0  0  0  0  0  0  0  0
   -7.9520   19.8140  -32.5760 C   0  0  0  0  0  0  0  0  0  0  0  0
   -7.5200   18.5480  -32.9920 C   0  0  0  0  0  0  0  0  0  0  0  0
   -6.2300   18.1070  -33.2840 C   0  0  0  0  0  0  0  0  0  0  0  0
   -5.0350   18.8360  -33.2850 C   0  0  0  0  0  0  0  0  0  0  0  0
   -3.8250   18.3250  -33.7640 C   0  0  0  0  0  0  0  0  0  0  0  0
   -3.5310   16.9440  -34.2070 C   0  0  0  0  0  0  0  0  0  0  0  0
   -3.6310   15.8750  -33.3050 C   0  0  0  0  0  0  0  0  0  0  0  0
   -3.3830   14.5720  -33.7360 C   0  0  0  0  0  0  0  0  0  0  0  0
   -3.0490   14.3450  -35.0730 C   0  0  0  0  0  0  0  0  0  0  0  0
   -2.9750   15.3870  -35.9450 N   0  0  0  0  0  0  0  0  0  0  0  0
   -3.2130   16.6670  -35.5470 C   0  0  0  0  0  0  0  0  0  0  0  0
   -2.9030   19.3470  -33.7900 C   0  0  0  0  0  0  0  0  0  0  0  0
   -3.5060   20.4750  -33.2960 C   0  0  0  0  0  0  0  0  0  0  0  0
   -4.8160   20.1690  -32.9370 C   0  0  0  0  0  0  0  0  0  0  0  0
   -5.7330   21.0760  -32.3810 C   0  0  0  0  0  0  0  0  0  0  0  0
   -7.1130   20.9120  -32.2960 C   0  0  0  0  0  0  0  0  0  0  0  0
   -0.8204   23.2932  -28.4379 H   0  0  0  0  0  0  0  0  0  0  0  0
   -1.7760   23.0582  -29.9407 H   0  0  0  0  0  0  0  0  0  0  0  0
   -0.3593   24.1625  -29.9407 H   0  0  0  0  0  0  0  0  0  0  0  0
   -1.8530   25.2051  -26.8870 H   0  0  0  0  0  0  0  0  0  0  0  0
   -0.4184   25.6335  -27.8794 H   0  0  0  0  0  0  0  0  0  0  0  0
   -1.8620   26.7024  -27.8794 H   0  0  0  0  0  0  0  0  0  0  0  0
   -3.5312   23.4196  -28.6657 H   0  0  0  0  0  0  0  0  0  0  0  0
   -3.8350   25.0528  -27.8738 H   0  0  0  0  0  0  0  0  0  0  0  0
   -5.4666   24.5856  -29.6581 H   0  0  0  0  0  0  0  0  0  0  0  0
   -4.4104   26.0162  -30.0152 H   0  0  0  0  0  0  0  0  0  0  0  0
   -6.7628   24.0262  -31.2027 H   0  0  0  0  0  0  0  0  0  0  0  0
   -9.4068   23.2381  -31.2559 H   0  0  0  0  0  0  0  0  0  0  0  0
  -10.9525   21.3330  -31.7839 H   0  0  0  0  0  0  0  0  0  0  0  0
  -10.0320   19.1657  -32.5987 H   0  0  0  0  0  0  0  0  0  0  0  0
   -8.3124   17.7934  -33.1044 H   0  0  0  0  0  0  0  0  0  0  0  0
   -6.1391   17.0433  -33.5492 H   0  0  0  0  0  0  0  0  0  0  0  0
   -3.9053   16.0643  -32.2567 H   0  0  0  0  0  0  0  0  0  0  0  0
   -3.4498   13.7313  -33.0298 H   0  0  0  0  0  0  0  0  0  0  0  0
   -2.8454   13.3218  -35.4218 H   0  0  0  0  0  0  0  0  0  0  0  0
   -2.7340   15.1990  -36.9440 H   0  0  0  0  0  0  0  0  0  0  0  0
   -3.1561   17.4875  -36.2775 H   0  0  0  0  0  0  0  0  0  0  0  0
   -1.8645   19.2718  -34.1449 H   0  0  0  0  0  0  0  0  0  0  0  0
   -3.0313   21.4625  -33.1990 H   0  0  0  0  0  0  0  0  0  0  0  0
  1  2  1  0
  2  3  1  0
  2  4  1  0
  4  5  1  0
  5  6  1  0
  6  7  1  0
  7  8  2  0
  7  9  1  0
  9 10  2  0
 10 11  1  0
 11 12  1  0
 12 13  2  0
 13 14  1  0
 14 15  2  0
 15 16  1  0
 16 17  2  0
 17 18  1  0
 18 19  2  0
 19 20  1  0
 20 21  2  0
 21 22  1  0
 22 23  2  0
 23 24  1  0
 24 25  2  0
 19 26  1  0
 26 27  2  0
 27 28  1  0
 28 29  2  0
 29 30  1  0
 29  9  1  0
 30 11  2  0
 30 15  1  0
 28 18  1  0
 25 20  1  0
  1 31  1  0
  1 32  1  0
  1 33  1  0
  3 34  1  0
  3 35  1  0
  3 36  1  0
  4 37  1  0
  4 38  1  0
  5 39  1  0
  5 40  1  0
 10 41  1  0
 12 42  1  0
 13 43  1  0
 14 44  1  0
 16 45  1  0
 17 46  1  0
 21 47  1  0
 22 48  1  0
 23 49  1  0
 24 50  1  0
 25 51  1  0
 26 52  1  0
 27 53  1  0
M  CHG  2   6  -1  24   1
M  END
>  <UniqueID>  (9) 
9

>  <SMILES>  (9) 
CN(C)CC[N-]C(=O)c1cc2cccc3ccc4c(-c5ccc[nH+]c5)ccc4c1c32

>  <Energy>  (9) 
139.25353052255505

>  <Genealogy>  (9) 
CN(C)CC[N-]C(=O)c1cc2cccc3ccc4c(-c5ccc[nH+]c5)ccc4c1c32 (protonated)
CN(C)CC[N-]C(=O)c1cc2cccc3ccc4c(-c5ccc[nH+]c5)ccc4c1c32 (3D coordinates assigned)
CN(C)CC[N-]C(=O)c1cc2cccc3ccc4c(-c5ccc[nH+]c5)ccc4c1c32 (optimized conformer: 139.25353052255505 kcal/mol)

>  <smiles>  (9) 
CN(C)CCNC(=O)c1cc2cccc3ccc4c(-c5cccnc5)ccc4c1c32

>  <score_type>  (9) 
oracle

>  <origin>  (9) 
adg

>  <m_score__min__energy>  (9) 
-10.789999999999999

>  <m_primary>  (9) 
energy

$$$$
9:0
     RDKit          3D

 53 54  0  0  0  0  0  0  0  0999 V2000
    0.7893   18.4414  -28.7657 H   0  0  0  0  0  0  0  0  0  0  0  0
   -0.1130   18.9240  -28.3620 C   0  0  0  0  0  0  0  0  0  0  0  0
   -0.5980   20.0980  -28.9480 C   0  0  0  0  0  0  0  0  0  0  0  0
   -0.0743   20.5352  -29.8109 H   0  0  0  0  0  0  0  0  0  0  0  0
   -1.7520   20.7230  -28.4400 C   0  0  0  0  0  0  0  0  0  0  0  0
   -2.2730   21.9660  -29.0640 C   0  0  0  0  0  0  0  0  0  0  0  0
   -1.9090   23.2230  -28.5570 C   0  0  0  0  0  0  0  0  0  0  0  0
   -1.2400   23.2854  -27.6861 H   0  0  0  0  0  0  0  0  0  0  0  0
   -2.3900   24.4030  -29.1500 C   0  0  0  0  0  0  0  0  0  0  0  0
   -2.0420   25.6760  -28.6680 O   0  0  0  0  0  0  0  0  0  0  0  0
   -1.2400   25.9130  -27.5150 C   0  0  0  0  0  0  0  0  0  0  0  0
   -1.8386   25.7361  -26.6093 H   0  0  0  0  0  0  0  0  0  0  0  0
   -0.3765   25.2316  -27.5226 H   0  0  0  0  0  0  0  0  0  0  0  0
   -0.8855   26.9543  -27.5226 H   0  0  0  0  0  0  0  0  0  0  0  0
   -3.2440   24.3220  -30.2570 C   0  0  0  0  0  0  0  0  0  0  0  0
   -3.7270   25.4990  -30.8220 O   0  0  0  0  0  0  0  0  0  0  0  0
   -3.6210   23.0680  -30.7820 C   0  0  0  0  0  0  0  0  0  0  0  0
   -4.5150   22.9700  -31.9670 C   0  0  0  0  0  0  0  0  0  0  0  0
   -5.5120   23.7970  -32.0780 N   0  0  0  0  0  0  0  0  0  0  0  0
   -6.8190   23.3680  -32.1450 O   0  0  0  0  0  0  0  0  0  0  0  0
   -7.6340   23.3670  -30.9850 C   0  0  0  0  0  0  0  0  0  0  0  0
   -8.5675   23.9108  -31.1922 H   0  0  0  0  0  0  0  0  0  0  0  0
   -7.0984   23.8594  -30.1600 H   0  0  0  0  0  0  0  0  0  0  0  0
   -7.9600   21.9260  -30.5930 C   0  0  0  0  0  0  0  0  0  0  0  0
   -8.9618   21.8939  -30.1398 H   0  0  0  0  0  0  0  0  0  0  0  0
   -7.2025   21.5769  -29.8758 H   0  0  0  0  0  0  0  0  0  0  0  0
   -7.9350   21.0380  -31.7770 N   0  0  0  0  0  0  0  0  0  0  0  0
   -9.1970   20.3020  -32.0070 C   0  0  0  0  0  0  0  0  0  0  0  0
   -9.4832   20.4245  -33.0620 H   0  0  0  0  0  0  0  0  0  0  0  0
   -9.9445   20.7222  -31.3180 H   0  0  0  0  0  0  0  0  0  0  0  0
   -9.1000   18.8040  -31.7030 C   0  0  0  0  0  0  0  0  0  0  0  0
   -9.0901   18.6508  -30.6138 H   0  0  0  0  0  0  0  0  0  0  0  0
   -9.9664   18.2846  -32.1384 H   0  0  0  0  0  0  0  0  0  0  0  0
   -8.1739   18.4007  -32.1384 H   0  0  0  0  0  0  0  0  0  0  0  0
   -6.7010   20.2390  -31.9940 C   0  0  0  0  0  0  0  0  0  0  0  0
   -5.8366   20.8754  -31.7536 H   0  0  0  0  0  0  0  0  0  0  0  0
   -6.7900   19.3561  -31.3439 H   0  0  0  0  0  0  0  0  0  0  0  0
   -6.5140   19.7020  -33.4200 C   0  0  0  0  0  0  0  0  0  0  0  0
   -6.1525   18.6640  -33.3764 H   0  0  0  0  0  0  0  0  0  0  0  0
   -7.4759   19.7332  -33.9527 H   0  0  0  0  0  0  0  0  0  0  0  0
   -5.7795   20.3240  -33.9527 H   0  0  0  0  0  0  0  0  0  0  0  0
   -4.2140   21.9920  -33.0730 C   0  0  0  0  0  0  0  0  0  0  0  0
   -3.9168   21.0264  -32.6378 H   0  0  0  0  0  0  0  0  0  0  0  0
   -5.1111   21.8536  -33.6943 H   0  0  0  0  0  0  0  0  0  0  0  0
   -3.3943   22.3820  -33.6943 H   0  0  0  0  0  0  0  0  0  0  0  0
   -3.1290   21.8990  -30.1750 C   0  0  0  0  0  0  0  0  0  0  0  0
   -3.4192   20.9169  -30.5767 H   0  0  0  0  0  0  0  0  0  0  0  0
   -2.4080   20.1490  -27.3330 C   0  0  0  0  0  0  0  0  0  0  0  0
   -3.3105   20.6267  -26.9241 H   0  0  0  0  0  0  0  0  0  0  0  0
   -1.9180   18.9750  -26.7510 C   0  0  0  0  0  0  0  0  0  0  0  0
   -2.4359   18.5329  -25.8871 H   0  0  0  0  0  0  0  0  0  0  0  0
   -0.7720   18.3630  -27.2650 C   0  0  0  0  0  0  0  0  0  0  0  0
   -0.3010   17.2240  -26.6990 F   0  0  0  0  0  0  0  0  0  0  0  0
  1  2  1  0
  2  3  2  0
  3  4  1  0
  3  5  1  0
  5  6  1  0
  6  7  2  0
  7  8  1  0
  7  9  1  0
  9 10  1  0
 10 11  1  0
 11 12  1  0
 11 13  1  0
 11 14  1  0
  9 15  2  0
 15 16  1  0
 15 17  1  0
 17 18  1  0
 18 19  2  0
 19 20  1  0
 20 21  1  0
 21 22  1  0
 21 23  1  0
 21 24  1  0
 24 25  1  0
 24 26  1  0
 24 27  1  0
 27 28  1  0
 28 29  1  0
 28 30  1  0
 28 31  1  0
 31 32  1  0
 31 33  1  0
 31 34  1  0
 27 35  1  0
 35 36  1  0
 35 37  1  0
 35 38  1  0
 38 39  1  0
 38 40  1  0
 38 41  1  0
 18 42  1  0
 42 43  1  0
 42 44  1  0
 42 45  1  0
 17 46  2  0
 46 47  1  0
  5 48  2  0
 48 49  1  0
 48 50  1  0
 50 51  1  0
 50 52  2  0
 52 53  1  0
 52  2  1  0
 46  6  1  0
M  CHG  1  16  -1
M  END
>  <UniqueID>  (10) 
10

>  <SMILES>  (10) 
CCN(CC)CCO/N=C(\C)c1cc(-c2ccc(F)cc2)cc(OC)c1[O-]

>  <Energy>  (10) 
62.02981234257273

>  <Genealogy>  (10) 
CCN(CC)CCON=C(C)c1cc(-c2ccc(F)cc2)cc(OC)c1[O-] (protonated)
CCN(CC)CCO/N=C(\C)c1cc(-c2ccc(F)cc2)cc(OC)c1[O-] (cis-trans isomerization)
CCN(CC)CCO/N=C(\C)c1cc(-c2ccc(F)cc2)cc(OC)c1[O-] (3D coordinates assigned)
CCN(CC)CCO/N=C(\C)c1cc(-c2ccc(F)cc2)cc(OC)c1[O-] (optimized conformer: 62.02981234257273 kcal/mol)

>  <smiles>  (10) 
CCN(CC)CCON=C(C)c1cc(-c2ccc(F)cc2)cc(OC)c1O

>  <score_type>  (10) 
oracle

>  <origin>  (10) 
adg

>  <m_score__min__energy>  (10) 
-11.869999999999999

>  <m_primary>  (10) 
energy

$$$$
10:0
     RDKit          3D

 55 58  0  0  0  0  0  0  0  0999 V2000
   -4.2260   22.6520  -27.9930 C   0  0  0  0  0  0  0  0  0  0  0  0
   -4.0470   24.1720  -27.9550 C   0  0  0  0  0  0  0  0  0  0  0  0
   -5.2390   24.8890  -28.4450 N   0  0  0  0  0  0  0  0  0  0  0  0
   -5.1660   25.2220  -29.8880 C   0  0  0  0  0  0  0  0  0  0  0  0
   -5.9350   24.2160  -30.7660 C   0  0  0  0  0  0  0  0  0  0  0  0
   -5.0260   23.1040  -31.3060 C   0  0  0  0  0  0  0  0  0  0  0  0
   -5.5770   22.5380  -32.5370 N   0  0  0  0  0  0  0  0  0  0  0  0
   -5.6030   21.1170  -32.7290 C   0  0  0  0  0  0  0  0  0  0  0  0
   -4.4190   20.4380  -33.0500 C   0  0  0  0  0  0  0  0  0  0  0  0
   -4.4390   19.0380  -33.1990 C   0  0  0  0  0  0  0  0  0  0  0  0
   -5.6470   18.3720  -33.2770 N   0  0  0  0  0  0  0  0  0  0  0  0
   -5.7250   17.0370  -33.9050 C   0  0  0  0  0  0  0  0  0  0  0  0
   -6.8060   19.0010  -32.8660 C   0  0  0  0  0  0  0  0  0  0  0  0
   -8.0220   18.2900  -32.7110 C   0  0  0  0  0  0  0  0  0  0  0  0
   -9.1820   18.9380  -32.2850 C   0  0  0  0  0  0  0  0  0  0  0  0
   -9.1600   20.2980  -31.9940 C   0  0  0  0  0  0  0  0  0  0  0  0
   -7.9770   21.0210  -32.1300 C   0  0  0  0  0  0  0  0  0  0  0  0
   -6.7960   20.3910  -32.5720 C   0  0  0  0  0  0  0  0  0  0  0  0
   -3.1100   18.3530  -33.3000 C   0  0  0  0  0  0  0  0  0  0  0  0
   -2.9060   17.0710  -32.7540 C   0  0  0  0  0  0  0  0  0  0  0  0
   -1.6520   16.4720  -32.8420 C   0  0  0  0  0  0  0  0  0  0  0  0
   -0.5970   17.1590  -33.4360 C   0  0  0  0  0  0  0  0  0  0  0  0
   -0.8020   18.4590  -33.8970 C   0  0  0  0  0  0  0  0  0  0  0  0
   -2.0290   19.0510  -33.7860 N   0  0  0  0  0  0  0  0  0  0  0  0
   -2.1960   20.4510  -34.1980 C   0  0  0  0  0  0  0  0  0  0  0  0
   -3.1110   21.1850  -33.2110 C   0  0  0  0  0  0  0  0  0  0  0  0
   -4.2719   22.2624  -26.9653 H   0  0  0  0  0  0  0  0  0  0  0  0
   -5.1593   22.4058  -28.5205 H   0  0  0  0  0  0  0  0  0  0  0  0
   -3.3754   22.1957  -28.5205 H   0  0  0  0  0  0  0  0  0  0  0  0
   -3.8514   24.4792  -26.9170 H   0  0  0  0  0  0  0  0  0  0  0  0
   -3.2055   24.4281  -28.6155 H   0  0  0  0  0  0  0  0  0  0  0  0
   -5.3960   25.7360  -27.8520 H   0  0  0  0  0  0  0  0  0  0  0  0
   -6.0630   24.2610  -28.2950 H   0  0  0  0  0  0  0  0  0  0  0  0
   -5.5948   26.2234  -30.0410 H   0  0  0  0  0  0  0  0  0  0  0  0
   -4.1078   25.1849  -30.1862 H   0  0  0  0  0  0  0  0  0  0  0  0
   -6.7342   23.7590  -30.1640 H   0  0  0  0  0  0  0  0  0  0  0  0
   -6.3455   24.7641  -31.6268 H   0  0  0  0  0  0  0  0  0  0  0  0
   -4.0299   23.5214  -31.5147 H   0  0  0  0  0  0  0  0  0  0  0  0
   -4.9554   22.3071  -30.5510 H   0  0  0  0  0  0  0  0  0  0  0  0
   -6.1570   23.1300  -33.1750 H   0  0  0  0  0  0  0  0  0  0  0  0
   -5.7701   16.2656  -33.1221 H   0  0  0  0  0  0  0  0  0  0  0  0
   -6.6281   16.9781  -34.5302 H   0  0  0  0  0  0  0  0  0  0  0  0
   -4.8349   16.8733  -34.5302 H   0  0  0  0  0  0  0  0  0  0  0  0
   -8.0518   17.2123  -32.9295 H   0  0  0  0  0  0  0  0  0  0  0  0
  -10.1184   18.3706  -32.1788 H   0  0  0  0  0  0  0  0  0  0  0  0
  -10.0771   20.8029  -31.6563 H   0  0  0  0  0  0  0  0  0  0  0  0
   -7.9644   22.0944  -31.8900 H   0  0  0  0  0  0  0  0  0  0  0  0
   -3.7352   16.5441  -32.2592 H   0  0  0  0  0  0  0  0  0  0  0  0
   -1.4955   15.4588  -32.4433 H   0  0  0  0  0  0  0  0  0  0  0  0
    0.3883   16.6813  -33.5407 H   0  0  0  0  0  0  0  0  0  0  0  0
    0.0312   19.0130  -34.3541 H   0  0  0  0  0  0  0  0  0  0  0  0
   -1.2129   20.9440  -34.2183 H   0  0  0  0  0  0  0  0  0  0  0  0
   -2.6500   20.4799  -35.1995 H   0  0  0  0  0  0  0  0  0  0  0  0
   -2.6099   21.2537  -32.2342 H   0  0  0  0  0  0  0  0  0  0  0  0
   -3.3203   22.1927  -33.5993 H   0  0  0  0  0  0  0  0  0  0  0  0
  1  2  1  0
  2  3  1  0
  3  4  1  0
  4  5  1  0
  5  6  1  0
  6  7  1  0
  7  8  1  0
  8  9  2  0
  9 10  1  0
 10 11  2  0
 11 12  1  0
 11 13  1  0
 13 14  2  0
 14 15  1  0
 15 16  2  0
 16 17  1  0
 17 18  2  0
 10 19  1  0
 19 20  2  0
 20 21  1  0
 21 22  2  0
 22 23  1  0
 23 24  2  0
 24 25  1  0
 25 26  1  0
 18  8  1  0
 24 19  1  0
 26  9  1  0
 18 13  1  0
  1 27  1  0
  1 28  1  0
  1 29  1  0
  2 30  1  0
  2 31  1  0
  3 32  1  0
  3 33  1  0
  4 34  1  0
  4 35  1  0
  5 36  1  0
  5 37  1  0
  6 38  1  0
  6 39  1  0
  7 40  1  0
 12 41  1  0
 12 42  1  0
 12 43  1  0
 14 44  1  0
 15 45  1  0
 16 46  1  0
 17 47  1  0
 20 48  1  0
 21 49  1  0
 22 50  1  0
 23 51  1  0
 25 52  1  0
 25 53  1  0
 26 54  1  0
 26 55  1  0
M  CHG  3   3   1  11   1  24   1
M  END
>  <UniqueID>  (11) 
11

>  <SMILES>  (11) 
CC[NH2+]CCCNc1c2c([n+](C)c3ccccc13)-c1cccc[n+]1CC2

>  <Energy>  (11) 
85.79169967037132

>  <Genealogy>  (11) 
CC[NH2+]CCCNc1c2c([n+](C)c3ccccc13)-c1cccc[n+]1CC2 (protonated)
CC[NH2+]CCCNc1c2c([n+](C)c3ccccc13)-c1cccc[n+]1CC2 (3D coordinates assigned)
CC[NH2+]CCCNc1c2c([n+](C)c3ccccc13)-c1cccc[n+]1CC2 (nonaromatic ring conformer: 85.79169967037132 kcal/mol)

>  <smiles>  (11) 
CCNCCCNc1c2c([n+](C)c3ccccc13)-c1cccc[n+]1CC2

>  <score_type>  (11) 
oracle

>  <origin>  (11) 
adg

>  <m_score__min__energy>  (11) 
-7.2599999999999998

>  <m_primary>  (11) 
energy

$$$$
11:0
     RDKit          3D

 59 63  0  0  0  0  0  0  0  0999 V2000
   -2.8460   24.9520  -26.5770 C   0  0  0  0  0  0  0  0  0  0  0  0
   -1.9000   25.1210  -27.7650 C   0  0  0  0  0  0  0  0  0  0  0  0
   -2.4320   24.4970  -28.9880 N   0  0  0  0  0  0  0  0  0  0  0  0
   -2.1230   23.0620  -29.1430 C   0  0  0  0  0  0  0  0  0  0  0  0
   -1.4600   22.6840  -30.4820 C   0  0  0  0  0  0  0  0  0  0  0  0
   -1.6360   21.2030  -30.8460 C   0  0  0  0  0  0  0  0  0  0  0  0
   -2.1920   21.0600  -32.1910 N   0  0  0  0  0  0  0  0  0  0  0  0
   -3.5700   20.7260  -32.4300 C   0  0  0  0  0  0  0  0  0  0  0  0
   -3.9150   19.5110  -33.0230 C   0  0  0  0  0  0  0  0  0  0  0  0
   -5.2420   19.1580  -33.1820 C   0  0  0  0  0  0  0  0  0  0  0  0
   -6.2660   20.0300  -32.9180 N   0  0  0  0  0  0  0  0  0  0  0  0
   -7.6190   19.7590  -33.4290 C   0  0  0  0  0  0  0  0  0  0  0  0
   -5.9740   21.2010  -32.2370 C   0  0  0  0  0  0  0  0  0  0  0  0
   -6.9960   22.0460  -31.7470 C   0  0  0  0  0  0  0  0  0  0  0  0
   -6.6910   23.2410  -31.0950 C   0  0  0  0  0  0  0  0  0  0  0  0
   -5.3620   23.6350  -30.9030 C   0  0  0  0  0  0  0  0  0  0  0  0
   -5.0540   24.8790  -30.2440 N   0  0  0  0  0  0  0  0  0  0  0  0
   -4.2490   25.6870  -30.7520 O   0  0  0  0  0  0  0  0  0  0  0  0
   -5.6380   25.1960  -29.0390 O   0  0  0  0  0  0  0  0  0  0  0  0
   -4.3310   22.7970  -31.3530 C   0  0  0  0  0  0  0  0  0  0  0  0
   -4.6150   21.5750  -31.9960 C   0  0  0  0  0  0  0  0  0  0  0  0
   -5.2740   17.7730  -33.6660 C   0  0  0  0  0  0  0  0  0  0  0  0
   -6.3170   16.8970  -33.7320 N   0  0  0  0  0  0  0  0  0  0  0  0
   -6.0940   15.6020  -34.1190 C   0  0  0  0  0  0  0  0  0  0  0  0
   -7.1640   14.7000  -34.2340 C   0  0  0  0  0  0  0  0  0  0  0  0
   -6.9290   13.3780  -34.6230 C   0  0  0  0  0  0  0  0  0  0  0  0
   -5.6290   12.9410  -34.8910 C   0  0  0  0  0  0  0  0  0  0  0  0
   -4.5500   13.8210  -34.7710 C   0  0  0  0  0  0  0  0  0  0  0  0
   -4.7700   15.1520  -34.3860 C   0  0  0  0  0  0  0  0  0  0  0  0
   -3.6960   16.0420  -34.2270 C   0  0  0  0  0  0  0  0  0  0  0  0
   -3.9730   17.3530  -33.8490 C   0  0  0  0  0  0  0  0  0  0  0  0
   -2.9920   18.4190  -33.4900 C   0  0  0  0  0  0  0  0  0  0  0  0
   -2.2793   25.0532  -25.6397 H   0  0  0  0  0  0  0  0  0  0  0  0
   -3.6278   25.7247  -26.6180 H   0  0  0  0  0  0  0  0  0  0  0  0
   -3.3119   23.9564  -26.6180 H   0  0  0  0  0  0  0  0  0  0  0  0
   -1.7513   26.1950  -27.9503 H   0  0  0  0  0  0  0  0  0  0  0  0
   -0.9505   24.6245  -27.5161 H   0  0  0  0  0  0  0  0  0  0  0  0
   -3.4680   24.6350  -29.0140 H   0  0  0  0  0  0  0  0  0  0  0  0
   -1.4429   22.7687  -28.3297 H   0  0  0  0  0  0  0  0  0  0  0  0
   -3.0871   22.5331  -29.1149 H   0  0  0  0  0  0  0  0  0  0  0  0
   -1.9078   23.2957  -31.2790 H   0  0  0  0  0  0  0  0  0  0  0  0
   -0.3808   22.8692  -30.3767 H   0  0  0  0  0  0  0  0  0  0  0  0
   -0.6569   20.7032  -30.8057 H   0  0  0  0  0  0  0  0  0  0  0  0
   -2.3308   20.7440  -30.1273 H   0  0  0  0  0  0  0  0  0  0  0  0
   -1.5300   21.0510  -33.0000 H   0  0  0  0  0  0  0  0  0  0  0  0
   -8.3093   19.6207  -32.5838 H   0  0  0  0  0  0  0  0  0  0  0  0
   -7.9560   20.6075  -34.0426 H   0  0  0  0  0  0  0  0  0  0  0  0
   -7.6032   18.8462  -34.0426 H   0  0  0  0  0  0  0  0  0  0  0  0
   -8.0486   21.7566  -31.8820 H   0  0  0  0  0  0  0  0  0  0  0  0
   -7.5058   23.8819  -30.7270 H   0  0  0  0  0  0  0  0  0  0  0  0
   -3.2839   23.0983  -31.2017 H   0  0  0  0  0  0  0  0  0  0  0  0
   -7.2780   17.1830  -33.4520 H   0  0  0  0  0  0  0  0  0  0  0  0
   -8.1893   15.0344  -34.0175 H   0  0  0  0  0  0  0  0  0  0  0  0
   -7.7720   12.6779  -34.7187 H   0  0  0  0  0  0  0  0  0  0  0  0
   -5.4541   11.8993  -35.1979 H   0  0  0  0  0  0  0  0  0  0  0  0
   -3.5283   13.4701  -34.9784 H   0  0  0  0  0  0  0  0  0  0  0  0
   -2.6607   15.7115  -34.3970 H   0  0  0  0  0  0  0  0  0  0  0  0
   -2.3148   18.0914  -32.6875 H   0  0  0  0  0  0  0  0  0  0  0  0
   -2.3200   18.7123  -34.3100 H   0  0  0  0  0  0  0  0  0  0  0  0
  1  2  1  0
  2  3  1  0
  3  4  1  0
  4  5  1  0
  5  6  1  0
  6  7  1  0
  7  8  1  0
  8  9  2  0
  9 10  1  0
 10 11  2  0
 11 12  1  0
 11 13  1  0
 13 14  2  0
 14 15  1  0
 15 16  2  0
 16 17  1  0
 17 18  2  0
 17 19  1  0
 16 20  1  0
 20 21  2  0
 10 22  1  0
 22 23  2  0
 23 24  1  0
 24 25  2  0
 25 26  1  0
 26 27  2  0
 27 28  1  0
 28 29  2  0
 29 30  1  0
 30 31  2  0
 31 32  1  0
 21  8  1  0
 31 22  1  0
 32  9  1  0
 21 13  1  0
 29 24  1  0
  1 33  1  0
  1 34  1  0
  1 35  1  0
  2 36  1  0
  2 37  1  0
  3 38  1  0
  4 39  1  0
  4 40  1  0
  5 41  1  0
  5 42  1  0
  6 43  1  0
  6 44  1  0
  7 45  1  0
 12 46  1  0
 12 47  1  0
 12 48  1  0
 14 49  1  0
 15 50  1  0
 20 51  1  0
 23 52  1  0
 25 53  1  0
 26 54  1  0
 27 55  1  0
 28 56  1  0
 30 57  1  0
 32 58  1  0
 32 59  1  0
M  CHG  4  11   1  17   1  19  -1  23   1
M  END
>  <UniqueID>  (12) 
12

>  <SMILES>  (12) 
CCNCCCNc1c2c([n+](C)c3ccc([N+](=O)[O-])cc13)-c1[nH+]c3ccccc3cc1C2

>  <Energy>  (12) 
108.61540515513867

>  <Genealogy>  (12) 
CCNCCCNc1c2c([n+](C)c3ccc([N+](=O)[O-])cc13)-c1[nH+]c3ccccc3cc1C2 (protonated)
CCNCCCNc1c2c([n+](C)c3ccc([N+](=O)[O-])cc13)-c1[nH+]c3ccccc3cc1C2 (3D coordinates assigned)
CCNCCCNc1c2c([n+](C)c3ccc([N+](=O)[O-])cc13)-c1[nH+]c3ccccc3cc1C2 (nonaromatic ring conformer: 108.61540515513867 kcal/mol)

>  <smiles>  (12) 
CCNCCCNc1c2c([n+](C)c3ccc([N+](=O)[O-])cc13)-c1nc3ccccc3cc1C2

>  <score_type>  (12) 
oracle

>  <origin>  (12) 
adg

>  <m_score__min__energy>  (12) 
-9.0299999999999994

>  <m_primary>  (12) 
energy

$$$$
12:0
     RDKit          3D

 37 38  0  0  0  0  0  0  0  0999 V2000
   -5.5971   15.7684  -33.8915 H   0  0  0  0  0  0  0  0  0  0  0  0
   -5.9550   16.7730  -33.6220 C   0  0  0  0  0  0  0  0  0  0  0  0
   -5.1230   17.8930  -33.8280 C   0  0  0  0  0  0  0  0  0  0  0  0
   -3.3800   17.6570  -34.5710 Br  0  0  0  0  0  0  0  0  0  0  0  0
   -5.5670   19.1840  -33.4890 C   0  0  0  0  0  0  0  0  0  0  0  0
   -4.9186   20.0580  -33.6494 H   0  0  0  0  0  0  0  0  0  0  0  0
   -6.8500   19.3390  -32.9430 C   0  0  0  0  0  0  0  0  0  0  0  0
   -7.4610   20.5480  -32.5300 C   0  0  0  0  0  0  0  0  0  0  0  0
   -6.8120   21.6780  -32.6400 N   0  0  0  0  0  0  0  0  0  0  0  0
   -6.0840   22.4810  -31.6580 C   0  0  2  0  0  0  0  0  0  0  0  0
   -6.0403   21.9513  -30.6949 H   0  0  0  0  0  0  0  0  0  0  0  0
   -6.8310   23.8000  -31.4420 C   0  0  0  0  0  0  0  0  0  0  0  0
   -6.9378   23.9886  -30.3636 H   0  0  0  0  0  0  0  0  0  0  0  0
   -6.2644   24.6221  -31.9036 H   0  0  0  0  0  0  0  0  0  0  0  0
   -7.8275   23.7369  -31.9036 H   0  0  0  0  0  0  0  0  0  0  0  0
   -4.6100   22.6930  -32.1020 C   0  0  0  0  0  0  0  0  0  0  0  0
   -3.9597   22.1975  -31.3661 H   0  0  0  0  0  0  0  0  0  0  0  0
   -4.4653   23.7819  -32.1592 H   0  0  0  0  0  0  0  0  0  0  0  0
   -4.2670   22.1670  -33.4400 N   0  0  0  0  0  0  0  0  0  0  0  0
   -5.0320   21.5570  -33.8070 H   0  0  0  0  0  0  0  0  0  0  0  0
   -4.1970   22.9910  -34.0820 H   0  0  0  0  0  0  0  0  0  0  0  0
   -2.9830   21.4450  -33.4650 C   0  0  0  0  0  0  0  0  0  0  0  0
   -2.1795   22.1488  -33.7277 H   0  0  0  0  0  0  0  0  0  0  0  0
   -3.0481   20.6392  -34.2109 H   0  0  0  0  0  0  0  0  0  0  0  0
   -2.6780   20.8240  -32.1020 C   0  0  0  0  0  0  0  0  0  0  0  0
   -3.0125   21.5051  -31.3056 H   0  0  0  0  0  0  0  0  0  0  0  0
   -3.2072   19.8641  -32.0098 H   0  0  0  0  0  0  0  0  0  0  0  0
   -1.5948   20.6559  -32.0098 H   0  0  0  0  0  0  0  0  0  0  0  0
   -8.7310   20.3900  -32.0180 N   0  0  0  0  0  0  0  0  0  0  0  0
   -9.7510   21.3750  -31.6660 C   0  0  0  0  0  0  0  0  0  0  0  0
   -9.8272   21.4486  -30.5711 H   0  0  0  0  0  0  0  0  0  0  0  0
   -9.4730   22.3551  -32.0809 H   0  0  0  0  0  0  0  0  0  0  0  0
  -10.7208   21.0629  -32.0809 H   0  0  0  0  0  0  0  0  0  0  0  0
   -9.0740   18.7580  -32.0910 S   0  0  0  0  0  0  0  0  0  0  0  0
   -7.6460   18.2210  -32.7460 C   0  0  0  0  0  0  0  0  0  0  0  0
   -7.2370   16.9340  -33.0750 C   0  0  0  0  0  0  0  0  0  0  0  0
   -7.8972   16.0694  -32.9118 H   0  0  0  0  0  0  0  0  0  0  0  0
  1  2  1  0
  2  3  2  0
  3  4  1  0
  3  5  1  0
  5  6  1  0
  5  7  2  0
  7  8  1  0
  8  9  2  0
  9 10  1  0
 10 11  1  1
 10 12  1  0
 12 13  1  0
 12 14  1  0
 12 15  1  0
 10 16  1  0
 16 17  1  0
 16 18  1  0
 16 19  1  0
 19 20  1  0
 19 21  1  0
 19 22  1  0
 22 23  1  0
 22 24  1  0
 22 25  1  0
 25 26  1  0
 25 27  1  0
 25 28  1  0
  8 29  1  0
 29 30  1  0
 30 31  1  0
 30 32  1  0
 30 33  1  0
 29 34  1  0
 34 35  1  0
 35 36  2  0
 36 37  1  0
 36  2  1  0
 35  7  1  0
M  CHG  1  19   1
M  END
>  <UniqueID>  (13) 
13

>  <SMILES>  (13) 
CC[NH2+]C[C@@H](C)/N=c1/c2cc(Br)ccc2sn1C

>  <Energy>  (13) 
80.27143803364763

>  <Genealogy>  (13) 
CC[NH2+]CC(C)N=c1c2cc(Br)ccc2sn1C (protonated)
CC[NH2+]C[C@@H](C)N=c1c2cc(Br)ccc2sn1C (chirality)
CC[NH2+]C[C@@H](C)/N=c1/c2cc(Br)ccc2sn1C (cis-trans isomerization)
CC[NH2+]C[C@@H](C)/N=c1/c2cc(Br)ccc2sn1C (3D coordinates assigned)
CC[NH2+]C[C@@H](C)/N=c1/c2cc(Br)ccc2sn1C (optimized conformer: 80.27143803364763 kcal/mol)

>  <smiles>  (13) 
CCNCC(C)N=c1c2cc(Br)ccc2sn1C

>  <score_type>  (13) 
oracle

>  <origin>  (13) 
adg

>  <m_score__min__energy>  (13) 
-6.3499999999999996

>  <m_primary>  (13) 
energy

$$$$
13:0
     RDKit          3D

 47 49  0  0  1  0  0  0  0  0999 V2000
   -2.6870   24.8480  -27.0730 C   0  0  0  0  0  0  0  0  0  0  0  0
   -2.1820   24.8390  -28.5110 C   0  0  0  0  0  0  0  0  0  0  0  0
   -2.6690   23.6340  -29.1130 N   0  0  0  0  0  0  0  0  0  0  0  0
   -1.6890   22.8860  -29.8560 C   0  0  0  0  0  0  0  0  0  0  0  0
   -2.2820   22.1730  -31.0730 C   0  0  0  0  0  0  0  0  0  0  0  0
   -3.5700   22.2590  -31.2350 O   0  0  0  0  0  0  0  0  0  0  0  0
   -4.8380   22.3430  -31.3700 C   0  0  0  0  0  0  0  0  0  0  0  0
   -5.6460   21.1920  -31.5410 C   0  0  0  0  0  0  0  0  0  0  0  0
   -6.9980   21.3080  -31.6820 C   0  0  0  0  0  0  0  0  0  0  0  0
   -7.7760   20.2030  -31.8470 C   0  0  0  0  0  0  0  0  0  0  0  0
   -7.3150   19.0690  -31.8520 N   0  0  0  0  0  0  0  0  0  0  0  0
   -6.5100   18.3560  -32.6940 C   0  0  0  0  0  0  0  0  0  0  0  0
   -6.1260   17.0500  -32.2890 C   0  0  0  0  0  0  0  0  0  0  0  0
   -5.4090   16.2340  -33.1240 C   0  0  0  0  0  0  0  0  0  0  0  0
   -5.0360   16.6570  -34.3900 C   0  0  0  0  0  0  0  0  0  0  0  0
   -5.4050   17.9370  -34.8080 C   0  0  0  0  0  0  0  0  0  0  0  0
   -6.1270   18.7870  -33.9940 C   0  0  0  0  0  0  0  0  0  0  0  0
   -6.4970   20.0400  -34.3750 F   0  0  0  0  0  0  0  0  0  0  0  0
   -9.1200   20.3680  -31.9890 N   0  0  0  0  0  0  0  0  0  0  0  0
   -9.7210   21.5640  -31.9730 C   0  0  0  0  0  0  0  0  0  0  0  0
   -8.9410   22.6430  -31.8080 N   0  0  0  0  0  0  0  0  0  0  0  0
   -7.6130   22.5190  -31.6670 C   0  0  0  0  0  0  0  0  0  0  0  0
   -6.8820   23.6590  -31.5050 C   0  0  0  0  0  0  0  0  0  0  0  0
   -5.5280   23.5290  -31.3640 C   0  0  0  0  0  0  0  0  0  0  0  0
   -4.7570   24.6710  -31.1960 O   0  0  0  0  0  0  0  0  0  0  0  0
   -5.3650   25.7050  -30.4460 C   0  0  0  0  0  0  0  0  0  0  0  0
   -1.8302   24.8327  -26.3834 H   0  0  0  0  0  0  0  0  0  0  0  0
   -3.2817   25.7569  -26.8989 H   0  0  0  0  0  0  0  0  0  0  0  0
   -3.3137   23.9609  -26.8989 H   0  0  0  0  0  0  0  0  0  0  0  0
   -2.5668   25.7154  -29.0530 H   0  0  0  0  0  0  0  0  0  0  0  0
   -1.0833   24.8805  -28.5438 H   0  0  0  0  0  0  0  0  0  0  0  0
   -3.5560   23.7740  -29.6440 H   0  0  0  0  0  0  0  0  0  0  0  0
   -0.9068   23.5781  -30.2012 H   0  0  0  0  0  0  0  0  0  0  0  0
   -1.2848   22.1136  -29.1852 H   0  0  0  0  0  0  0  0  0  0  0  0
   -1.8052   22.5945  -31.9702 H   0  0  0  0  0  0  0  0  0  0  0  0
   -2.0846   21.1041  -30.9039 H   0  0  0  0  0  0  0  0  0  0  0  0
   -5.1792   20.1961  -31.5603 H   0  0  0  0  0  0  0  0  0  0  0  0
   -6.4086   16.6880  -31.2895 H   0  0  0  0  0  0  0  0  0  0  0  0
   -5.1249   15.2271  -32.7842 H   0  0  0  0  0  0  0  0  0  0  0  0
   -4.4594   15.9959  -35.0537 H   0  0  0  0  0  0  0  0  0  0  0  0
   -5.1128   18.2773  -35.8124 H   0  0  0  0  0  0  0  0  0  0  0  0
  -10.8106   21.6583  -32.0904 H   0  0  0  0  0  0  0  0  0  0  0  0
   -9.4110   23.5750  -31.7960 H   0  0  0  0  0  0  0  0  0  0  0  0
   -7.3643   24.6475  -31.4884 H   0  0  0  0  0  0  0  0  0  0  0  0
   -5.2439   25.4990  -29.3723 H   0  0  0  0  0  0  0  0  0  0  0  0
   -4.8877   26.6652  -30.6913 H   0  0  0  0  0  0  0  0  0  0  0  0
   -6.4361   25.7547  -30.6913 H   0  0  0  0  0  0  0  0  0  0  0  0
  1  2  1  0
  2  3  1  0
  3  4  1  0
  4  5  1  0
  5  6  1  0
  6  7  1  0
  7  8  2  0
  8  9  1  0
  9 10  1  0
 10 11  2  0
 11 12  1  0
 12 13  2  0
 13 14  1  0
 14 15  2  0
 15 16  1  0
 16 17  2  0
 17 18  1  0
 10 19  1  0
 19 20  2  0
 20 21  1  0
 21 22  1  0
 22 23  1  0
 23 24  2  0
 24 25  1  0
 25 26  1  0
 24  7  1  0
 22  9  2  0
 17 12  1  0
  1 27  1  0
  1 28  1  0
  1 29  1  0
  2 30  1  0
  2 31  1  0
  3 32  1  0
  4 33  1  0
  4 34  1  0
  5 35  1  0
  5 36  1  0
  8 37  1  0
 13 38  1  0
 14 39  1  0
 15 40  1  0
 16 41  1  0
 20 42  1  0
 21 43  1  0
 23 44  1  0
 26 45  1  0
 26 46  1  0
 26 47  1  0
M  END
>  <smiles>  (14) 
CCNCCOc1cc2c(=Nc3ccccc3F)nc[nH]c2cc1OC

>  <score_type>  (14) 
oracle

>  <origin>  (14) 
adg

>  <m_score__min__energy>  (14) 
-7.1900000000000004

>  <m_primary>  (14) 
energy

$$$$
14:0
     RDKit          3D

 36 37  0  0  0  0  0  0  0  0999 V2000
  -10.2294   21.8484  -31.2893 H   0  0  0  0  0  0  0  0  0  0  0  0
   -9.2260   21.5640  -31.6390 C   0  0  0  0  0  0  0  0  0  0  0  0
   -9.0200   20.2920  -32.2130 C   0  0  0  0  0  0  0  0  0  0  0  0
   -9.8663   19.5975  -32.3199 H   0  0  0  0  0  0  0  0  0  0  0  0
   -7.7420   19.9060  -32.6490 C   0  0  0  0  0  0  0  0  0  0  0  0
   -7.5650   18.9089  -33.0784 H   0  0  0  0  0  0  0  0  0  0  0  0
   -6.7030   20.8310  -32.5190 C   0  0  0  0  0  0  0  0  0  0  0  0
   -6.9040   22.0850  -31.9950 C   0  0  0  0  0  0  0  0  0  0  0  0
   -8.1590   22.4720  -31.5100 C   0  0  0  0  0  0  0  0  0  0  0  0
   -8.3065   23.4565  -31.0421 H   0  0  0  0  0  0  0  0  0  0  0  0
   -5.6290   22.6580  -31.9890 C   0  0  0  0  0  0  0  0  0  0  0  0
   -5.2670   23.8430  -31.5910 N   0  0  0  0  0  0  0  0  0  0  0  0
   -4.3750   24.1670  -30.5200 C   0  0  0  0  0  0  0  0  0  0  0  0
   -3.8310   25.3030  -30.4690 O   0  0  0  0  0  0  0  0  0  0  0  0
   -3.9360   23.0940  -29.5620 C   0  0  0  0  0  0  0  0  0  0  0  0
   -4.8222   22.7033  -29.0404 H   0  0  0  0  0  0  0  0  0  0  0  0
   -3.2192   23.5463  -28.8609 H   0  0  0  0  0  0  0  0  0  0  0  0
   -3.2500   21.9680  -30.2420 N   0  0  1  0  0  0  0  0  0  0  0  0
   -3.8290   21.6990  -31.0730 H   0  0  0  0  0  0  0  0  0  0  0  0
   -1.9490   22.4160  -30.7740 C   0  0  0  0  0  0  0  0  0  0  0  0
   -1.2720   22.6491  -29.9389 H   0  0  0  0  0  0  0  0  0  0  0  0
   -1.5100   21.6173  -31.3899 H   0  0  0  0  0  0  0  0  0  0  0  0
   -2.0949   23.3157  -31.3899 H   0  0  0  0  0  0  0  0  0  0  0  0
   -3.1050   20.7470  -29.4060 C   0  0  0  0  0  0  0  0  0  0  0  0
   -2.2610   20.1613  -29.7992 H   0  0  0  0  0  0  0  0  0  0  0  0
   -4.0664   20.2158  -29.4643 H   0  0  0  0  0  0  0  0  0  0  0  0
   -2.8480   21.0140  -27.9150 C   0  0  0  0  0  0  0  0  0  0  0  0
   -3.4846   20.3526  -27.3090 H   0  0  0  0  0  0  0  0  0  0  0  0
   -1.7906   20.8174  -27.6842 H   0  0  0  0  0  0  0  0  0  0  0  0
   -3.0848   22.0631  -27.6842 H   0  0  0  0  0  0  0  0  0  0  0  0
   -4.7340   21.7590  -32.4610 N   0  0  0  0  0  0  0  0  0  0  0  0
   -5.3970   20.6590  -32.7950 N   0  0  0  0  0  0  0  0  0  0  0  0
   -4.7600   19.4530  -33.3110 C   0  0  0  0  0  0  0  0  0  0  0  0
   -4.4284   18.8253  -32.4708 H   0  0  0  0  0  0  0  0  0  0  0  0
   -5.4797   18.8925  -33.9257 H   0  0  0  0  0  0  0  0  0  0  0  0
   -3.8914   19.7315  -33.9257 H   0  0  0  0  0  0  0  0  0  0  0  0
  1  2  1  0
  2  3  2  0
  3  4  1  0
  3  5  1  0
  5  6  1  0
  5  7  2  0
  7  8  1  0
  8  9  2  0
  9 10  1  0
  8 11  1  0
 11 12  2  0
 12 13  1  0
 13 14  2  0
 13 15  1  0
 15 16  1  0
 15 17  1  0
 15 18  1  0
 18 19  1  6
 18 20  1  0
 20 21  1  0
 20 22  1  0
 20 23  1  0
 18 24  1  0
 24 25  1  0
 24 26  1  0
 24 27  1  0
 27 28  1  0
 27 29  1  0
 27 30  1  0
 11 31  1  0
 31 32  1  0
 32 33  1  0
 33 34  1  0
 33 35  1  0
 33 36  1  0
  9  2  1  0
 32  7  1  0
M  CHG  2  18   1  31  -1
M  END
>  <UniqueID>  (15) 
14

>  <SMILES>  (15) 
CC[N@H+](C)CC(=O)/N=c1/[n-]n(C)c2ccccc12

>  <Energy>  (15) 
85.95434921146632

>  <Genealogy>  (15) 
CC[NH+](C)CC(=O)N=c1[n-]n(C)c2ccccc12 (protonated)
CC[N@H+](C)CC(=O)N=c1[n-]n(C)c2ccccc12 (chirality)
CC[N@H+](C)CC(=O)/N=c1/[n-]n(C)c2ccccc12 (cis-trans isomerization)
CC[N@H+](C)CC(=O)/N=c1/[n-]n(C)c2ccccc12 (3D coordinates assigned)
CC[N@H+](C)CC(=O)/N=c1/[n-]n(C)c2ccccc12 (optimized conformer: 85.95434921146632 kcal/mol)

>  <smiles>  (15) 
CCN(C)CC(=O)N=c1[nH]n(C)c2ccccc12

>  <score_type>  (15) 
oracle

>  <origin>  (15) 
adg

>  <m_score__min__energy>  (15) 
-6.5700000000000003

>  <m_primary>  (15) 
energy

$$$$
15:0
     RDKit          3D

 54 56  0  0  0  0  0  0  0  0999 V2000
   -3.1060   22.9810  -29.9590 C   0  0  0  0  0  0  0  0  0  0  0  0
   -3.5100   24.4560  -30.0420 C   0  0  0  0  0  0  0  0  0  0  0  0
   -4.4060   24.7320  -31.1760 N   0  0  0  0  0  0  0  0  0  0  0  0
   -5.8200   24.7290  -30.7830 C   0  0  0  0  0  0  0  0  0  0  0  0
   -6.4480   23.3680  -31.0830 C   0  0  0  0  0  0  0  0  0  0  0  0
   -5.9130   22.8110  -32.3260 N   0  0  0  0  0  0  0  0  0  0  0  0
   -5.8980   21.3910  -32.5550 C   0  0  0  0  0  0  0  0  0  0  0  0
   -7.0840   20.6460  -32.4470 C   0  0  0  0  0  0  0  0  0  0  0  0
   -8.3220   21.2870  -32.2270 C   0  0  0  0  0  0  0  0  0  0  0  0
   -9.5030   20.5510  -32.1650 C   0  0  0  0  0  0  0  0  0  0  0  0
   -9.4750   19.1730  -32.3400 C   0  0  0  0  0  0  0  0  0  0  0  0
   -8.2640   18.5190  -32.5630 C   0  0  0  0  0  0  0  0  0  0  0  0
   -7.0390   19.2330  -32.5950 C   0  0  0  0  0  0  0  0  0  0  0  0
   -5.8290   18.5950  -32.7860 N   0  0  0  0  0  0  0  0  0  0  0  0
   -5.7390   17.1240  -32.6480 C   0  0  0  0  0  0  0  0  0  0  0  0
   -4.6980   19.3320  -33.0870 C   0  0  0  0  0  0  0  0  0  0  0  0
   -3.5110   18.7170  -33.5550 C   0  0  0  0  0  0  0  0  0  0  0  0
   -2.3590   19.4610  -33.7980 C   0  0  0  0  0  0  0  0  0  0  0  0
   -2.3500   20.8450  -33.5970 C   0  0  0  0  0  0  0  0  0  0  0  0
   -1.1570   21.6180  -33.8530 N   0  0  0  0  0  0  0  0  0  0  0  0
   -0.0690   20.7790  -34.3850 C   0  0  0  0  0  0  0  0  0  0  0  0
    0.7920   21.5290  -35.4140 C   0  0  0  0  0  0  0  0  0  0  0  0
    0.3860   22.9290  -35.4800 N   0  0  0  0  0  0  0  0  0  0  0  0
   -3.5280   21.4790  -33.1800 C   0  0  0  0  0  0  0  0  0  0  0  0
   -4.7090   20.7450  -32.9420 C   0  0  0  0  0  0  0  0  0  0  0  0
   -3.0241   22.6821  -28.9036 H   0  0  0  0  0  0  0  0  0  0  0  0
   -3.8681   22.3635  -30.4569 H   0  0  0  0  0  0  0  0  0  0  0  0
   -2.1356   22.8380  -30.4569 H   0  0  0  0  0  0  0  0  0  0  0  0
   -4.0244   24.7338  -29.1102 H   0  0  0  0  0  0  0  0  0  0  0  0
   -2.5932   25.0458  -30.1892 H   0  0  0  0  0  0  0  0  0  0  0  0
   -4.1660   25.6640  -31.5900 H   0  0  0  0  0  0  0  0  0  0  0  0
   -5.8981   24.9357  -29.7054 H   0  0  0  0  0  0  0  0  0  0  0  0
   -6.3529   25.5040  -31.3535 H   0  0  0  0  0  0  0  0  0  0  0  0
   -6.2274   22.6787  -30.2547 H   0  0  0  0  0  0  0  0  0  0  0  0
   -7.5346   23.4981  -31.1941 H   0  0  0  0  0  0  0  0  0  0  0  0
   -5.3230   23.4270  -32.9300 H   0  0  0  0  0  0  0  0  0  0  0  0
   -8.3546   22.3795  -32.1032 H   0  0  0  0  0  0  0  0  0  0  0  0
  -10.4591   21.0615  -31.9772 H   0  0  0  0  0  0  0  0  0  0  0  0
  -10.4110   18.5963  -32.3025 H   0  0  0  0  0  0  0  0  0  0  0  0
   -8.2586   17.4298  -32.7169 H   0  0  0  0  0  0  0  0  0  0  0  0
   -5.7226   16.8561  -31.5812 H   0  0  0  0  0  0  0  0  0  0  0  0
   -6.6102   16.6565  -33.1301 H   0  0  0  0  0  0  0  0  0  0  0  0
   -4.8173   16.7662  -33.1301 H   0  0  0  0  0  0  0  0  0  0  0  0
   -3.4988   17.6311  -33.7299 H   0  0  0  0  0  0  0  0  0  0  0  0
   -1.4481   18.9556  -34.1512 H   0  0  0  0  0  0  0  0  0  0  0  0
   -1.3800   22.3600  -34.5570 H   0  0  0  0  0  0  0  0  0  0  0  0
   -0.8380   22.1080  -32.9840 H   0  0  0  0  0  0  0  0  0  0  0  0
    0.5731   20.4605  -33.5506 H   0  0  0  0  0  0  0  0  0  0  0  0
   -0.5250   19.9154  -34.8913 H   0  0  0  0  0  0  0  0  0  0  0  0
    1.8493   21.4701  -35.1162 H   0  0  0  0  0  0  0  0  0  0  0  0
    0.6563   21.0671  -36.4030 H   0  0  0  0  0  0  0  0  0  0  0  0
    1.1030   23.4430  -36.0420 H   0  0  0  0  0  0  0  0  0  0  0  0
   -0.5090   22.9840  -36.0200 H   0  0  0  0  0  0  0  0  0  0  0  0
   -3.5319   22.5695  -33.0355 H   0  0  0  0  0  0  0  0  0  0  0  0
  1  2  1  0
  2  3  1  0
  3  4  1  0
  4  5  1  0
  5  6  1  0
  6  7  1  0
  7  8  2  0
  8  9  1  0
  9 10  2  0
 10 11  1  0
 11 12  2  0
 12 13  1  0
 13 14  2  0
 14 15  1  0
 14 16  1  0
 16 17  2  0
 17 18  1  0
 18 19  2  0
 19 20  1  0
 20 21  1  0
 21 22  1  0
 22 23  1  0
 19 24  1  0
 24 25  2  0
 25  7  1  0
 13  8  1  0
 25 16  1  0
  1 26  1  0
  1 27  1  0
  1 28  1  0
  2 29  1  0
  2 30  1  0
  3 31  1  0
  4 32  1  0
  4 33  1  0
  5 34  1  0
  5 35  1  0
  6 36  1  0
  9 37  1  0
 10 38  1  0
 11 39  1  0
 12 40  1  0
 15 41  1  0
 15 42  1  0
 15 43  1  0
 17 44  1  0
 18 45  1  0
 20 46  1  0
 20 47  1  0
 21 48  1  0
 21 49  1  0
 22 50  1  0
 22 51  1  0
 23 52  1  0
 23 53  1  0
 24 54  1  0
M  CHG  2  14   1  20   1
M  END
>  <UniqueID>  (16) 
15

>  <SMILES>  (16) 
CCNCCNc1c2ccccc2[n+](C)c2ccc([NH2+]CCN)cc12

>  <Energy>  (16) 
73.44942106620604

>  <Genealogy>  (16) 
CCNCCNc1c2ccccc2[n+](C)c2ccc([NH2+]CCN)cc12 (protonated)
CCNCCNc1c2ccccc2[n+](C)c2ccc([NH2+]CCN)cc12 (3D coordinates assigned)
CCNCCNc1c2ccccc2[n+](C)c2ccc([NH2+]CCN)cc12 (optimized conformer: 73.44942106620604 kcal/mol)

>  <smiles>  (16) 
CCNCCNc1c2ccccc2[n+](C)c2ccc(NCCN)cc12

>  <score_type>  (16) 
oracle

>  <origin>  (16) 
adg

>  <m_score__min__energy>  (16) 
-8.7200000000000006

>  <m_primary>  (16) 
energy

$$$$
16:0
     RDKit          3D

 58 61  0  0  0  0  0  0  0  0999 V2000
   -6.1030   25.9770  -29.7100 C   0  0  0  0  0  0  0  0  0  0  0  0
   -4.8420   25.6730  -30.5160 C   0  0  0  0  0  0  0  0  0  0  0  0
   -4.7470   24.2320  -30.8490 N   0  0  0  0  0  0  0  0  0  0  0  0
   -3.4640   23.6450  -30.3700 C   0  0  0  0  0  0  0  0  0  0  0  0
   -3.7110   22.7680  -29.1490 C   0  0  0  0  0  0  0  0  0  0  0  0
   -5.9160   23.4980  -30.3070 C   0  0  0  0  0  0  0  0  0  0  0  0
   -6.9180   23.1280  -31.4200 C   0  0  0  0  0  0  0  0  0  0  0  0
   -6.2680   22.7560  -32.6940 N   0  0  0  0  0  0  0  0  0  0  0  0
   -6.0280   21.3220  -32.8060 C   0  0  0  0  0  0  0  0  0  0  0  0
   -7.1040   20.4010  -32.6520 C   0  0  0  0  0  0  0  0  0  0  0  0
   -8.4480   20.8280  -32.4990 C   0  0  0  0  0  0  0  0  0  0  0  0
   -9.4730   19.9120  -32.2770 C   0  0  0  0  0  0  0  0  0  0  0  0
   -9.1920   18.5550  -32.2010 C   0  0  0  0  0  0  0  0  0  0  0  0
   -7.8850   18.1050  -32.3470 C   0  0  0  0  0  0  0  0  0  0  0  0
   -6.8210   19.0110  -32.5800 C   0  0  0  0  0  0  0  0  0  0  0  0
   -5.5300   18.5610  -32.7170 N   0  0  0  0  0  0  0  0  0  0  0  0
   -5.1480   17.2780  -32.0840 C   0  0  0  0  0  0  0  0  0  0  0  0
   -4.5630   19.3970  -33.2290 C   0  0  0  0  0  0  0  0  0  0  0  0
   -4.7300   20.8020  -33.0890 C   0  0  0  0  0  0  0  0  0  0  0  0
   -3.5820   21.6230  -33.1980 C   0  0  0  0  0  0  0  0  0  0  0  0
   -2.3310   21.0800  -33.4630 C   0  0  0  0  0  0  0  0  0  0  0  0
   -2.2030   19.7320  -33.7880 C   0  0  0  0  0  0  0  0  0  0  0  0
   -0.9470   19.2180  -34.1430 C   0  0  0  0  0  0  0  0  0  0  0  0
   -0.8290   17.9060  -34.5900 C   0  0  0  0  0  0  0  0  0  0  0  0
   -1.9680   17.1260  -34.7680 C   0  0  0  0  0  0  0  0  0  0  0  0
   -3.2410   17.6270  -34.4410 C   0  0  0  0  0  0  0  0  0  0  0  0
   -4.4010   16.9200  -34.9170 N   0  0  0  0  0  0  0  0  0  0  0  0
   -4.4010   15.6720  -34.9670 O   0  0  0  0  0  0  0  0  0  0  0  0
   -5.4320   17.6070  -35.5150 O   0  0  0  0  0  0  0  0  0  0  0  0
   -3.3490   18.8980  -33.8020 C   0  0  0  0  0  0  0  0  0  0  0  0
   -5.8736   25.9217  -28.6356 H   0  0  0  0  0  0  0  0  0  0  0  0
   -6.4613   26.9873  -29.9569 H   0  0  0  0  0  0  0  0  0  0  0  0
   -6.8823   25.2410  -29.9569 H   0  0  0  0  0  0  0  0  0  0  0  0
   -4.8647   26.2551  -31.4491 H   0  0  0  0  0  0  0  0  0  0  0  0
   -3.9677   25.9457  -29.9067 H   0  0  0  0  0  0  0  0  0  0  0  0
   -3.0214   23.0356  -31.1717 H   0  0  0  0  0  0  0  0  0  0  0  0
   -2.7772   24.4589  -30.0947 H   0  0  0  0  0  0  0  0  0  0  0  0
   -3.5451   23.3570  -28.2349 H   0  0  0  0  0  0  0  0  0  0  0  0
   -4.7476   22.4004  -29.1652 H   0  0  0  0  0  0  0  0  0  0  0  0
   -3.0186   21.9134  -29.1652 H   0  0  0  0  0  0  0  0  0  0  0  0
   -5.5649   22.5756  -29.8213 H   0  0  0  0  0  0  0  0  0  0  0  0
   -6.4284   24.1507  -29.5849 H   0  0  0  0  0  0  0  0  0  0  0  0
   -7.5232   22.2765  -31.0755 H   0  0  0  0  0  0  0  0  0  0  0  0
   -7.5303   24.0206  -31.6160 H   0  0  0  0  0  0  0  0  0  0  0  0
   -5.4150   23.3350  -32.8380 H   0  0  0  0  0  0  0  0  0  0  0  0
   -6.8700   23.0680  -33.4870 H   0  0  0  0  0  0  0  0  0  0  0  0
   -8.6845   21.9007  -32.5567 H   0  0  0  0  0  0  0  0  0  0  0  0
  -10.5084   20.2649  -32.1615 H   0  0  0  0  0  0  0  0  0  0  0  0
  -10.0046   17.8347  -32.0250 H   0  0  0  0  0  0  0  0  0  0  0  0
   -7.6733   17.0276  -32.2805 H   0  0  0  0  0  0  0  0  0  0  0  0
   -5.1799   17.3852  -30.9897 H   0  0  0  0  0  0  0  0  0  0  0  0
   -5.8510   16.4916  -32.3960 H   0  0  0  0  0  0  0  0  0  0  0  0
   -4.1294   17.0041  -32.3960 H   0  0  0  0  0  0  0  0  0  0  0  0
   -3.6823   22.7110  -33.0705 H   0  0  0  0  0  0  0  0  0  0  0  0
   -1.4365   21.7185  -33.4158 H   0  0  0  0  0  0  0  0  0  0  0  0
   -0.0528   19.8542  -34.0677 H   0  0  0  0  0  0  0  0  0  0  0  0
    0.1646   17.4849  -34.8028 H   0  0  0  0  0  0  0  0  0  0  0  0
   -1.8715   16.1062  -35.1689 H   0  0  0  0  0  0  0  0  0  0  0  0
  1  2  1  0
  2  3  1  0
  3  4  1  0
  4  5  1  0
  3  6  1  0
  6  7  1  0
  7  8  1  0
  8  9  1  0
  9 10  2  0
 10 11  1  0
 11 12  2  0
 12 13  1  0
 13 14  2  0
 14 15  1  0
 15 16  2  0
 16 17  1  0
 16 18  1  0
 18 19  2  0
 19 20  1  0
 20 21  2  0
 21 22  1  0
 22 23  2  0
 23 24  1  0
 24 25  2  0
 25 26  1  0
 26 27  1  0
 27 28  2  0
 27 29  1  0
 26 30  2  0
 19  9  1  0
 30 22  1  0
 15 10  1  0
 30 18  1  0
  1 31  1  0
  1 32  1  0
  1 33  1  0
  2 34  1  0
  2 35  1  0
  4 36  1  0
  4 37  1  0
  5 38  1  0
  5 39  1  0
  5 40  1  0
  6 41  1  0
  6 42  1  0
  7 43  1  0
  7 44  1  0
  8 45  1  0
  8 46  1  0
 11 47  1  0
 12 48  1  0
 13 49  1  0
 14 50  1  0
 17 51  1  0
 17 52  1  0
 17 53  1  0
 20 54  1  0
 21 55  1  0
 23 56  1  0
 24 57  1  0
 25 58  1  0
M  CHG  4   8   1  16   1  27   1  29  -1
M  END
>  <UniqueID>  (17) 
16

>  <SMILES>  (17) 
CCN(CC)CC[NH2+]c1c2ccccc2[n+](C)c2c1ccc1cccc([N+](=O)[O-])c12

>  <Energy>  (17) 
110.44062636531257

>  <Genealogy>  (17) 
CCN(CC)CC[NH2+]c1c2ccccc2[n+](C)c2c1ccc1cccc([N+](=O)[O-])c12 (protonated)
CCN(CC)CC[NH2+]c1c2ccccc2[n+](C)c2c1ccc1cccc([N+](=O)[O-])c12 (3D coordinates assigned)
CCN(CC)CC[NH2+]c1c2ccccc2[n+](C)c2c1ccc1cccc([N+](=O)[O-])c12 (optimized conformer: 110.44062636531257 kcal/mol)

>  <smiles>  (17) 
CCN(CC)CCNc1c2ccccc2[n+](C)c2c1ccc1cccc([N+](=O)[O-])c12

>  <score_type>  (17) 
oracle

>  <origin>  (17) 
adg

>  <m_score__min__energy>  (17) 
-8.4800000000000004

>  <m_primary>  (17) 
energy

$$$$
17:0
     RDKit          3D

 35 36  0  0  0  0  0  0  0  0999 V2000
   -3.2660   23.3500  -28.4050 C   0  0  0  0  0  0  0  0  0  0  0  0
   -2.5620   24.1790  -29.4830 C   0  0  0  0  0  0  0  0  0  0  0  0
   -3.5100   24.7740  -30.4400 N   0  0  0  0  0  0  0  0  0  0  0  0
   -4.8170   25.0680  -29.8340 C   0  0  0  0  0  0  0  0  0  0  0  0
   -5.9230   24.9820  -30.8900 C   0  0  0  0  0  0  0  0  0  0  0  0
   -5.5590   24.0680  -31.9250 O   0  0  0  0  0  0  0  0  0  0  0  0
   -6.0770   22.7730  -32.0880 C   0  0  0  0  0  0  0  0  0  0  0  0
   -7.3640   22.5130  -31.6040 C   0  0  0  0  0  0  0  0  0  0  0  0
   -7.9360   21.2450  -31.7340 C   0  0  0  0  0  0  0  0  0  0  0  0
   -7.2230   20.2040  -32.3600 C   0  0  0  0  0  0  0  0  0  0  0  0
   -7.7510   18.9030  -32.5190 C   0  0  0  0  0  0  0  0  0  0  0  0
   -9.1260   18.5320  -32.0240 C   0  0  0  0  0  0  0  0  0  0  0  0
   -6.9670   17.9320  -33.1580 C   0  0  0  0  0  0  0  0  0  0  0  0
   -5.6930   18.2730  -33.6170 C   0  0  0  0  0  0  0  0  0  0  0  0
   -4.9810   17.4090  -34.1920 O   0  0  0  0  0  0  0  0  0  0  0  0
   -5.2250   19.5050  -33.4530 O   0  0  0  0  0  0  0  0  0  0  0  0
   -5.9240   20.4660  -32.8560 C   0  0  0  0  0  0  0  0  0  0  0  0
   -5.3600   21.7390  -32.7210 C   0  0  0  0  0  0  0  0  0  0  0  0
   -2.9620   23.7080  -27.4103 H   0  0  0  0  0  0  0  0  0  0  0  0
   -4.3555   23.4546  -28.5152 H   0  0  0  0  0  0  0  0  0  0  0  0
   -2.9863   22.2919  -28.5152 H   0  0  0  0  0  0  0  0  0  0  0  0
   -1.9980   24.9875  -28.9950 H   0  0  0  0  0  0  0  0  0  0  0  0
   -1.8967   23.5058  -30.0435 H   0  0  0  0  0  0  0  0  0  0  0  0
   -3.1070   25.6570  -30.8330 H   0  0  0  0  0  0  0  0  0  0  0  0
   -5.0195   24.3385  -29.0360 H   0  0  0  0  0  0  0  0  0  0  0  0
   -4.7978   26.0859  -29.4175 H   0  0  0  0  0  0  0  0  0  0  0  0
   -6.8522   24.6369  -30.4131 H   0  0  0  0  0  0  0  0  0  0  0  0
   -6.0698   25.9785  -31.3320 H   0  0  0  0  0  0  0  0  0  0  0  0
   -7.9327   23.3175  -31.1148 H   0  0  0  0  0  0  0  0  0  0  0  0
   -8.9481   21.0587  -31.3456 H   0  0  0  0  0  0  0  0  0  0  0  0
   -9.1317   18.5305  -30.9240 H   0  0  0  0  0  0  0  0  0  0  0  0
   -9.8587   19.2646  -32.3934 H   0  0  0  0  0  0  0  0  0  0  0  0
   -9.3908   17.5303  -32.3934 H   0  0  0  0  0  0  0  0  0  0  0  0
   -7.3520   16.9109  -33.2965 H   0  0  0  0  0  0  0  0  0  0  0  0
   -4.3503   21.9337  -33.1116 H   0  0  0  0  0  0  0  0  0  0  0  0
  1  2  1  0
  2  3  1  0
  3  4  1  0
  4  5  1  0
  5  6  1  0
  6  7  1  0
  7  8  2  0
  8  9  1  0
  9 10  2  0
 10 11  1  0
 11 12  1  0
 11 13  2  0
 13 14  1  0
 14 15  2  0
 14 16  1  0
 16 17  1  0
 17 18  2  0
 18  7  1  0
 17 10  1  0
  1 19  1  0
  1 20  1  0
  1 21  1  0
  2 22  1  0
  2 23  1  0
  3 24  1  0
  4 25  1  0
  4 26  1  0
  5 27  1  0
  5 28  1  0
  8 29  1  0
  9 30  1  0
 12 31  1  0
 12 32  1  0
 12 33  1  0
 13 34  1  0
 18 35  1  0
M  END
>  <UniqueID>  (18) 
17

>  <SMILES>  (18) 
CCNCCOc1ccc2c(C)cc(=O)oc2c1

>  <Energy>  (18) 
37.508271932291954

>  <Genealogy>  (18) 
CCNCCOc1ccc2c(C)cc(=O)oc2c1 (3D coordinates assigned)
CCNCCOc1ccc2c(C)cc(=O)oc2c1 (optimized conformer: 37.508271932291954 kcal/mol)

>  <smiles>  (18) 
CCNCCOc1ccc2c(C)cc(=O)oc2c1

>  <score_type>  (18) 
oracle

>  <origin>  (18) 
adg

>  <m_score__min__energy>  (18) 
-7.0899999999999999

>  <m_primary>  (18) 
energy

$$$$
18:0
     RDKit          3D

 56 59  0  0  0  0  0  0  0  0999 V2000
   -3.4510   18.8550  -26.3020 C   0  0  0  0  0  0  0  0  0  0  0  0
   -2.0760   19.4040  -26.6630 C   0  0  0  0  0  0  0  0  0  0  0  0
   -2.2000   20.4750  -27.6510 N   0  0  0  0  0  0  0  0  0  0  0  0
   -2.9520   21.5940  -27.5150 C   0  0  0  0  0  0  0  0  0  0  0  0
   -2.7860   22.4200  -28.6210 C   0  0  0  0  0  0  0  0  0  0  0  0
   -3.4540   23.7420  -28.8630 C   0  0  0  0  0  0  0  0  0  0  0  0
   -4.1210   23.7460  -30.1790 N   0  0  0  0  0  0  0  0  0  0  0  0
   -5.1240   24.8320  -30.2520 C   0  0  0  0  0  0  0  0  0  0  0  0
   -6.1450   24.5640  -31.3620 C   0  0  0  0  0  0  0  0  0  0  0  0
   -6.9460   23.3400  -31.0850 N   0  0  0  0  0  0  0  0  0  0  0  0
   -7.4820   22.7500  -32.3380 C   0  0  0  0  0  0  0  0  0  0  0  0
   -7.6760   21.2460  -32.2270 C   0  0  0  0  0  0  0  0  0  0  0  0
   -8.8920   20.7580  -31.7110 C   0  0  0  0  0  0  0  0  0  0  0  0
   -9.1050   19.3870  -31.5650 C   0  0  0  0  0  0  0  0  0  0  0  0
   -8.1130   18.4810  -31.9370 C   0  0  0  0  0  0  0  0  0  0  0  0
   -6.9050   18.9430  -32.4600 C   0  0  0  0  0  0  0  0  0  0  0  0
   -6.6670   20.3220  -32.6060 C   0  0  0  0  0  0  0  0  0  0  0  0
   -5.3680   20.7710  -33.2290 C   0  0  0  0  0  0  0  0  0  0  0  0
   -6.1890   22.3240  -30.2980 C   0  0  0  0  0  0  0  0  0  0  0  0
   -4.6730   22.4110  -30.5350 C   0  0  0  0  0  0  0  0  0  0  0  0
   -1.8900   21.7720  -29.4480 C   0  0  0  0  0  0  0  0  0  0  0  0
   -1.3540   22.1380  -30.6830 C   0  0  0  0  0  0  0  0  0  0  0  0
   -0.4370   21.2590  -31.2860 C   0  0  0  0  0  0  0  0  0  0  0  0
   -0.0790   20.0510  -30.6500 C   0  0  0  0  0  0  0  0  0  0  0  0
   -0.6360   19.7080  -29.4050 C   0  0  0  0  0  0  0  0  0  0  0  0
   -1.5480   20.5960  -28.8280 C   0  0  0  0  0  0  0  0  0  0  0  0
   -3.5537   18.8140  -25.2076 H   0  0  0  0  0  0  0  0  0  0  0  0
   -4.2290   19.5115  -26.7189 H   0  0  0  0  0  0  0  0  0  0  0  0
   -3.5629   17.8432  -26.7189 H   0  0  0  0  0  0  0  0  0  0  0  0
   -1.5943   19.8002  -25.7570 H   0  0  0  0  0  0  0  0  0  0  0  0
   -1.4677   18.5927  -27.0894 H   0  0  0  0  0  0  0  0  0  0  0  0
   -3.5999   21.8166  -26.6543 H   0  0  0  0  0  0  0  0  0  0  0  0
   -4.2022   23.9197  -28.0765 H   0  0  0  0  0  0  0  0  0  0  0  0
   -2.6927   24.5358  -28.8456 H   0  0  0  0  0  0  0  0  0  0  0  0
   -5.6502   24.9008  -29.2885 H   0  0  0  0  0  0  0  0  0  0  0  0
   -4.6034   25.7748  -30.4755 H   0  0  0  0  0  0  0  0  0  0  0  0
   -6.8244   25.4258  -31.4380 H   0  0  0  0  0  0  0  0  0  0  0  0
   -5.5976   24.4115  -32.3039 H   0  0  0  0  0  0  0  0  0  0  0  0
   -7.7600   23.6310  -30.4930 H   0  0  0  0  0  0  0  0  0  0  0  0
   -8.4524   23.2168  -32.5627 H   0  0  0  0  0  0  0  0  0  0  0  0
   -6.7523   22.9383  -33.1393 H   0  0  0  0  0  0  0  0  0  0  0  0
   -9.6824   21.4654  -31.4199 H   0  0  0  0  0  0  0  0  0  0  0  0
  -10.0577   19.0201  -31.1555 H   0  0  0  0  0  0  0  0  0  0  0  0
   -8.2829   17.4007  -31.8180 H   0  0  0  0  0  0  0  0  0  0  0  0
   -6.1308   18.2219  -32.7612 H   0  0  0  0  0  0  0  0  0  0  0  0
   -4.6477   21.0200  -32.4358 H   0  0  0  0  0  0  0  0  0  0  0  0
   -4.9613   19.9613  -33.8527 H   0  0  0  0  0  0  0  0  0  0  0  0
   -5.5481   21.6590  -33.8527 H   0  0  0  0  0  0  0  0  0  0  0  0
   -6.3893   22.4845  -29.2284 H   0  0  0  0  0  0  0  0  0  0  0  0
   -6.5234   21.3285  -30.6253 H   0  0  0  0  0  0  0  0  0  0  0  0
   -4.1746   21.6469  -29.9204 H   0  0  0  0  0  0  0  0  0  0  0  0
   -4.4903   22.2466  -31.6072 H   0  0  0  0  0  0  0  0  0  0  0  0
   -1.6393   23.0828  -31.1688 H   0  0  0  0  0  0  0  0  0  0  0  0
    0.0046   21.5147  -32.2605 H   0  0  0  0  0  0  0  0  0  0  0  0
    0.6409   19.3729  -31.1316 H   0  0  0  0  0  0  0  0  0  0  0  0
   -0.3622   18.7695  -28.9008 H   0  0  0  0  0  0  0  0  0  0  0  0
  1  2  1  0
  2  3  1  0
  3  4  1  0
  4  5  2  0
  5  6  1  0
  6  7  1  0
  7  8  1  0
  8  9  1  0
  9 10  1  0
 10 11  1  0
 11 12  1  0
 12 13  2  0
 13 14  1  0
 14 15  2  0
 15 16  1  0
 16 17  2  0
 17 18  1  0
 10 19  1  0
 19 20  1  0
  5 21  1  0
 21 22  2  0
 22 23  1  0
 23 24  2  0
 24 25  1  0
 25 26  2  0
 26  3  1  0
 20  7  1  0
 26 21  1  0
 17 12  1  0
  1 27  1  0
  1 28  1  0
  1 29  1  0
  2 30  1  0
  2 31  1  0
  4 32  1  0
  6 33  1  0
  6 34  1  0
  8 35  1  0
  8 36  1  0
  9 37  1  0
  9 38  1  0
 10 39  1  0
 11 40  1  0
 11 41  1  0
 13 42  1  0
 14 43  1  0
 15 44  1  0
 16 45  1  0
 18 46  1  0
 18 47  1  0
 18 48  1  0
 19 49  1  0
 19 50  1  0
 20 51  1  0
 20 52  1  0
 22 53  1  0
 23 54  1  0
 24 55  1  0
 25 56  1  0
M  CHG  1  10   1
M  END
>  <UniqueID>  (19) 
18

>  <SMILES>  (19) 
CCn1cc(CN2CC[NH+](Cc3ccccc3C)CC2)c2ccccc21

>  <Energy>  (19) 
103.3916152270719

>  <Genealogy>  (19) 
CCn1cc(CN2CC[NH+](Cc3ccccc3C)CC2)c2ccccc21 (protonated)
CCn1cc(CN2CC[NH+](Cc3ccccc3C)CC2)c2ccccc21 (3D coordinates assigned)
CCn1cc(CN2CC[NH+](Cc3ccccc3C)CC2)c2ccccc21 (nonaromatic ring conformer: 103.3916152270719 kcal/mol)

>  <smiles>  (19) 
CCn1cc(CN2CCN(Cc3ccccc3C)CC2)c2ccccc21

>  <score_type>  (19) 
oracle

>  <origin>  (19) 
adg

>  <m_score__min__energy>  (19) 
-8.0299999999999994

>  <m_primary>  (19) 
energy

$$$$
19:0
     RDKit          3D

 43 45  0  0  0  0  0  0  0  0999 V2000
   -8.7260   19.7790  -31.2780 C   0  0  0  0  0  0  0  0  0  0  0  0
   -8.4450   20.8390  -32.3370 C   0  0  0  0  0  0  0  0  0  0  0  0
   -7.0160   21.1540  -32.3810 N   0  0  0  0  0  0  0  0  0  0  0  0
   -6.4380   22.3360  -32.0660 C   0  0  0  0  0  0  0  0  0  0  0  0
   -7.3270   23.8080  -31.5450 S   0  0  0  0  0  0  0  0  0  0  0  0
   -6.0980   24.3200  -30.2890 C   0  0  0  0  0  0  0  0  0  0  0  0
   -5.2450   25.4970  -30.7670 C   0  0  0  0  0  0  0  0  0  0  0  0
   -3.8620   25.2880  -30.4680 O   0  0  0  0  0  0  0  0  0  0  0  0
   -3.3080   24.1910  -29.7890 C   0  0  0  0  0  0  0  0  0  0  0  0
   -3.3500   24.2010  -28.3900 C   0  0  0  0  0  0  0  0  0  0  0  0
   -2.8420   23.1280  -27.6540 C   0  0  0  0  0  0  0  0  0  0  0  0
   -2.2740   22.0360  -28.3120 C   0  0  0  0  0  0  0  0  0  0  0  0
   -2.1910   22.0200  -29.7110 C   0  0  0  0  0  0  0  0  0  0  0  0
   -1.6140   20.8310  -30.4210 C   0  0  0  0  0  0  0  0  0  0  0  0
   -2.7160   23.0940  -30.4490 C   0  0  0  0  0  0  0  0  0  0  0  0
   -5.1000   22.2930  -32.1980 N   0  0  0  0  0  0  0  0  0  0  0  0
   -4.8110   21.0660  -32.6010 N   0  0  0  0  0  0  0  0  0  0  0  0
   -5.9610   20.3760  -32.7250 C   0  0  0  0  0  0  0  0  0  0  0  0
   -6.0080   18.9660  -33.1760 C   0  0  0  0  0  0  0  0  0  0  0  0
   -5.7430   18.5330  -34.4730 C   0  0  0  0  0  0  0  0  0  0  0  0
   -5.9160   17.1550  -34.6520 C   0  0  0  0  0  0  0  0  0  0  0  0
   -6.3320   16.4920  -33.5070 C   0  0  0  0  0  0  0  0  0  0  0  0
   -6.4820   17.6230  -32.2760 S   0  0  0  0  0  0  0  0  0  0  0  0
   -8.6090   20.2204  -30.2773 H   0  0  0  0  0  0  0  0  0  0  0  0
   -9.7540   19.4060  -31.3963 H   0  0  0  0  0  0  0  0  0  0  0  0
   -8.0177   18.9457  -31.3963 H   0  0  0  0  0  0  0  0  0  0  0  0
   -8.7629   20.4616  -33.3201 H   0  0  0  0  0  0  0  0  0  0  0  0
   -9.0028   21.7523  -32.0828 H   0  0  0  0  0  0  0  0  0  0  0  0
   -6.6293   24.6158  -29.3724 H   0  0  0  0  0  0  0  0  0  0  0  0
   -5.4273   23.4681  -30.1033 H   0  0  0  0  0  0  0  0  0  0  0  0
   -5.3642   25.6081  -31.8549 H   0  0  0  0  0  0  0  0  0  0  0  0
   -5.5809   26.4054  -30.2454 H   0  0  0  0  0  0  0  0  0  0  0  0
   -3.7876   25.0627  -27.8647 H   0  0  0  0  0  0  0  0  0  0  0  0
   -2.8896   23.1436  -26.5551 H   0  0  0  0  0  0  0  0  0  0  0  0
   -1.8901   21.1848  -27.7305 H   0  0  0  0  0  0  0  0  0  0  0  0
   -1.2587   20.0988  -29.6809 H   0  0  0  0  0  0  0  0  0  0  0  0
   -2.3881   20.3691  -31.0513 H   0  0  0  0  0  0  0  0  0  0  0  0
   -0.7721   21.1533  -31.0513 H   0  0  0  0  0  0  0  0  0  0  0  0
   -2.6651   23.0793  -31.5477 H   0  0  0  0  0  0  0  0  0  0  0  0
   -3.8440   20.7300  -32.8020 H   0  0  0  0  0  0  0  0  0  0  0  0
   -5.4275   19.2098  -35.2807 H   0  0  0  0  0  0  0  0  0  0  0  0
   -5.7386   16.6460  -35.6109 H   0  0  0  0  0  0  0  0  0  0  0  0
   -6.5292   15.4133  -33.4207 H   0  0  0  0  0  0  0  0  0  0  0  0
  1  2  1  0
  2  3  1  0
  3  4  1  0
  4  5  1  0
  5  6  1  0
  6  7  1  0
  7  8  1  0
  8  9  1  0
  9 10  2  0
 10 11  1  0
 11 12  2  0
 12 13  1  0
 13 14  1  0
 13 15  2  0
  4 16  2  0
 16 17  1  0
 17 18  2  0
 18 19  1  0
 19 20  2  0
 20 21  1  0
 21 22  2  0
 22 23  1  0
 18  3  1  0
 23 19  1  0
 15  9  1  0
  1 24  1  0
  1 25  1  0
  1 26  1  0
  2 27  1  0
  2 28  1  0
  6 29  1  0
  6 30  1  0
  7 31  1  0
  7 32  1  0
 10 33  1  0
 11 34  1  0
 12 35  1  0
 14 36  1  0
 14 37  1  0
 14 38  1  0
 15 39  1  0
 17 40  1  0
 20 41  1  0
 21 42  1  0
 22 43  1  0
M  CHG  1  17   1
M  END
>  <UniqueID>  (20) 
19

>  <SMILES>  (20) 
CCn1c(SCCOc2cccc(C)c2)n[nH+]c1-c1cccs1

>  <Energy>  (20) 
102.010804759688

>  <Genealogy>  (20) 
CCn1c(SCCOc2cccc(C)c2)n[nH+]c1-c1cccs1 (protonated)
CCn1c(SCCOc2cccc(C)c2)n[nH+]c1-c1cccs1 (3D coordinates assigned)
CCn1c(SCCOc2cccc(C)c2)n[nH+]c1-c1cccs1 (optimized conformer: 102.010804759688 kcal/mol)

>  <smiles>  (20) 
CCn1c(SCCOc2cccc(C)c2)nnc1-c1cccs1

>  <score_type>  (20) 
oracle

>  <origin>  (20) 
adg

>  <m_score__min__energy>  (20) 
-8.1400000000000006

>  <m_primary>  (20) 
energy

$$$$
20:0
     RDKit          3D

 49 51  0  0  0  0  0  0  0  0999 V2000
   -6.2140   25.3780  -29.7510 C   0  0  0  0  0  0  0  0  0  0  0  0
   -4.9830   24.9190  -30.5470 C   0  0  0  0  0  0  0  0  0  0  0  0
   -3.9310   24.2720  -29.7250 N   0  0  0  0  0  0  0  0  0  0  0  0
   -4.4470   23.5840  -28.5180 C   0  0  0  0  0  0  0  0  0  0  0  0
   -3.8560   24.1820  -27.2430 C   0  0  0  0  0  0  0  0  0  0  0  0
   -3.0380   23.4010  -30.5230 C   0  0  0  0  0  0  0  0  0  0  0  0
   -3.7990   22.1510  -30.9770 C   0  0  0  0  0  0  0  0  0  0  0  0
   -3.3150   21.6700  -32.3490 C   0  0  0  0  0  0  0  0  0  0  0  0
   -4.4380   21.5460  -33.2780 N   0  0  0  0  0  0  0  0  0  0  0  0
   -5.6080   20.7720  -32.9620 C   0  0  0  0  0  0  0  0  0  0  0  0
   -6.7800   21.3910  -32.4820 C   0  0  0  0  0  0  0  0  0  0  0  0
   -6.8220   22.7870  -32.2830 C   0  0  0  0  0  0  0  0  0  0  0  0
   -7.9940   23.4110  -31.8680 C   0  0  0  0  0  0  0  0  0  0  0  0
   -9.1470   22.6610  -31.6540 C   0  0  0  0  0  0  0  0  0  0  0  0
   -9.1300   21.2780  -31.8280 C   0  0  0  0  0  0  0  0  0  0  0  0
   -7.9440   20.6030  -32.2180 C   0  0  0  0  0  0  0  0  0  0  0  0
   -7.9050   19.2240  -32.3600 N   0  0  0  0  0  0  0  0  0  0  0  0
   -9.0570   18.3910  -31.9560 C   0  0  0  0  0  0  0  0  0  0  0  0
   -6.7730   18.6370  -32.8810 C   0  0  0  0  0  0  0  0  0  0  0  0
   -6.6180   17.2770  -33.1810 C   0  0  0  0  0  0  0  0  0  0  0  0
   -5.0490   17.0420  -33.7300 S   0  0  0  0  0  0  0  0  0  0  0  0
   -4.5420   18.6370  -33.6190 C   0  0  0  0  0  0  0  0  0  0  0  0
   -5.6190   19.3910  -33.1590 C   0  0  0  0  0  0  0  0  0  0  0  0
   -6.0043   25.2998  -28.6740 H   0  0  0  0  0  0  0  0  0  0  0  0
   -6.4458   26.4230  -30.0045 H   0  0  0  0  0  0  0  0  0  0  0  0
   -7.0734   24.7399  -30.0045 H   0  0  0  0  0  0  0  0  0  0  0  0
   -5.3148   24.1997  -31.3103 H   0  0  0  0  0  0  0  0  0  0  0  0
   -4.5323   25.8242  -30.9799 H   0  0  0  0  0  0  0  0  0  0  0  0
   -5.5418   23.6864  -28.4877 H   0  0  0  0  0  0  0  0  0  0  0  0
   -4.1565   22.5244  -28.5715 H   0  0  0  0  0  0  0  0  0  0  0  0
   -4.3227   23.7098  -26.3660 H   0  0  0  0  0  0  0  0  0  0  0  0
   -2.7710   24.0021  -27.2224 H   0  0  0  0  0  0  0  0  0  0  0  0
   -4.0486   25.2648  -27.2224 H   0  0  0  0  0  0  0  0  0  0  0  0
   -2.6835   23.9531  -31.4059 H   0  0  0  0  0  0  0  0  0  0  0  0
   -2.1799   23.0983  -29.9049 H   0  0  0  0  0  0  0  0  0  0  0  0
   -3.6419   21.3491  -30.2406 H   0  0  0  0  0  0  0  0  0  0  0  0
   -4.8664   22.4048  -31.0556 H   0  0  0  0  0  0  0  0  0  0  0  0
   -2.5916   22.3945  -32.7513 H   0  0  0  0  0  0  0  0  0  0  0  0
   -2.8418   20.6839  -32.2318 H   0  0  0  0  0  0  0  0  0  0  0  0
   -4.3390   21.9320  -34.2430 H   0  0  0  0  0  0  0  0  0  0  0  0
   -5.9180   23.3888  -32.4579 H   0  0  0  0  0  0  0  0  0  0  0  0
   -8.0096   24.4993  -31.7086 H   0  0  0  0  0  0  0  0  0  0  0  0
  -10.0764   23.1623  -31.3460 H   0  0  0  0  0  0  0  0  0  0  0  0
  -10.0510   20.7003  -31.6603 H   0  0  0  0  0  0  0  0  0  0  0  0
   -9.1131   18.3505  -30.8582 H   0  0  0  0  0  0  0  0  0  0  0  0
   -9.9839   18.8291  -32.3546 H   0  0  0  0  0  0  0  0  0  0  0  0
   -8.9314   17.3735  -32.3546 H   0  0  0  0  0  0  0  0  0  0  0  0
   -7.3891   16.4997  -33.0753 H   0  0  0  0  0  0  0  0  0  0  0  0
   -3.5401   19.0186  -33.8650 H   0  0  0  0  0  0  0  0  0  0  0  0
  1  2  1  0
  2  3  1  0
  3  4  1  0
  4  5  1  0
  3  6  1  0
  6  7  1  0
  7  8  1  0
  8  9  1  0
  9 10  1  0
 10 11  2  0
 11 12  1  0
 12 13  2  0
 13 14  1  0
 14 15  2  0
 15 16  1  0
 16 17  2  0
 17 18  1  0
 17 19  1  0
 19 20  2  0
 20 21  1  0
 21 22  1  0
 22 23  2  0
 23 10  1  0
 16 11  1  0
 23 19  1  0
  1 24  1  0
  1 25  1  0
  1 26  1  0
  2 27  1  0
  2 28  1  0
  4 29  1  0
  4 30  1  0
  5 31  1  0
  5 32  1  0
  5 33  1  0
  6 34  1  0
  6 35  1  0
  7 36  1  0
  7 37  1  0
  8 38  1  0
  8 39  1  0
  9 40  1  0
 12 41  1  0
 13 42  1  0
 14 43  1  0
 15 44  1  0
 18 45  1  0
 18 46  1  0
 18 47  1  0
 20 48  1  0
 22 49  1  0
M  CHG  1  17   1
M  END
>  <UniqueID>  (21) 
20

>  <SMILES>  (21) 
CCN(CC)CCCNc1c2ccccc2[n+](C)c2cscc12

>  <Energy>  (21) 
95.28998670571711

>  <Genealogy>  (21) 
CCN(CC)CCCNc1c2ccccc2[n+](C)c2cscc12 (3D coordinates assigned)
CCN(CC)CCCNc1c2ccccc2[n+](C)c2cscc12 (optimized conformer: 95.28998670571711 kcal/mol)

>  <smiles>  (21) 
CCN(CC)CCCNc1c2ccccc2[n+](C)c2cscc12

>  <score_type>  (21) 
oracle

>  <origin>  (21) 
adg

>  <m_score__min__energy>  (21) 
-8.3000000000000007

>  <m_primary>  (21) 
energy

$$$$
21:0
     RDKit          3D

 41 42  0  0  0  0  0  0  0  0999 V2000
   -0.8630   26.7420  -23.6110 C   0  0  0  0  0  0  0  0  0  0  0  0
   -0.9730   26.0360  -24.8880 C   0  0  0  0  0  0  0  0  0  0  0  0
   -1.0620   25.4540  -25.9400 C   0  0  0  0  0  0  0  0  0  0  0  0
   -1.1720   24.7490  -27.2220 C   0  0  0  0  0  0  0  0  0  0  0  0
   -2.3440   25.1540  -27.9030 O   0  0  0  0  0  0  0  0  0  0  0  0
   -3.5000   24.5620  -27.3340 C   0  0  0  0  0  0  0  0  0  0  0  0
   -4.0030   23.4000  -28.1970 C   0  0  0  0  0  0  0  0  0  0  0  0
   -3.7980   23.6830  -29.6260 N   0  0  0  0  0  0  0  0  0  0  0  0
   -2.7400   22.9600  -30.3430 C   0  0  0  0  0  0  0  0  0  0  0  0
   -4.6720   24.6040  -30.3190 C   0  0  0  0  0  0  0  0  0  0  0  0
   -4.1960   25.6520  -30.8350 O   0  0  0  0  0  0  0  0  0  0  0  0
   -6.1480   24.3430  -30.4850 C   0  0  0  0  0  0  0  0  0  0  0  0
   -6.3920   23.0110  -31.1480 C   0  0  0  0  0  0  0  0  0  0  0  0
   -5.4770   22.5150  -32.0940 C   0  0  0  0  0  0  0  0  0  0  0  0
   -5.6980   21.2840  -32.7200 C   0  0  0  0  0  0  0  0  0  0  0  0
   -6.8420   20.5420  -32.4120 C   0  0  0  0  0  0  0  0  0  0  0  0
   -7.0740   19.3440  -33.0100 N   0  0  0  0  0  0  0  0  0  0  0  0
   -8.1850   18.6170  -32.7190 C   0  0  0  0  0  0  0  0  0  0  0  0
   -9.1070   19.1070  -31.7890 C   0  0  0  0  0  0  0  0  0  0  0  0
   -8.8820   20.3060  -31.1880 N   0  0  0  0  0  0  0  0  0  0  0  0
   -7.7720   21.0370  -31.4750 C   0  0  0  0  0  0  0  0  0  0  0  0
   -7.5480   22.2690  -30.8500 C   0  0  0  0  0  0  0  0  0  0  0  0
   -0.9748   26.0246  -22.7846 H   0  0  0  0  0  0  0  0  0  0  0  0
    0.1217   27.2278  -23.5442 H   0  0  0  0  0  0  0  0  0  0  0  0
   -1.6532   27.5043  -23.5442 H   0  0  0  0  0  0  0  0  0  0  0  0
   -0.2931   24.9817  -27.8412 H   0  0  0  0  0  0  0  0  0  0  0  0
   -1.2223   23.6665  -27.0333 H   0  0  0  0  0  0  0  0  0  0  0  0
   -3.2541   24.1846  -26.3305 H   0  0  0  0  0  0  0  0  0  0  0  0
   -4.2915   25.3237  -27.2759 H   0  0  0  0  0  0  0  0  0  0  0  0
   -3.4526   22.4864  -27.9278 H   0  0  0  0  0  0  0  0  0  0  0  0
   -5.0796   23.2663  -28.0152 H   0  0  0  0  0  0  0  0  0  0  0  0
   -2.0577   22.4937  -29.6170 H   0  0  0  0  0  0  0  0  0  0  0  0
   -3.1916   22.1808  -30.9746 H   0  0  0  0  0  0  0  0  0  0  0  0
   -2.1781   23.6639  -30.9746 H   0  0  0  0  0  0  0  0  0  0  0  0
   -6.6268   24.3445  -29.4947 H   0  0  0  0  0  0  0  0  0  0  0  0
   -6.5734   25.1332  -31.1211 H   0  0  0  0  0  0  0  0  0  0  0  0
   -4.5798   23.1003  -32.3437 H   0  0  0  0  0  0  0  0  0  0  0  0
   -4.9732   20.9005  -33.4532 H   0  0  0  0  0  0  0  0  0  0  0  0
   -8.3577   17.6490  -33.2122 H   0  0  0  0  0  0  0  0  0  0  0  0
  -10.0088   18.5262  -31.5450 H   0  0  0  0  0  0  0  0  0  0  0  0
   -8.2778   22.6573  -30.1243 H   0  0  0  0  0  0  0  0  0  0  0  0
  1  2  1  0
  2  3  3  0
  3  4  1  0
  4  5  1  0
  5  6  1  0
  6  7  1  0
  7  8  1  0
  8  9  1  0
  8 10  1  0
 10 11  2  0
 10 12  1  0
 12 13  1  0
 13 14  2  0
 14 15  1  0
 15 16  2  0
 16 17  1  0
 17 18  2  0
 18 19  1  0
 19 20  2  0
 20 21  1  0
 21 22  2  0
 22 13  1  0
 21 16  1  0
  1 23  1  0
  1 24  1  0
  1 25  1  0
  4 26  1  0
  4 27  1  0
  6 28  1  0
  6 29  1  0
  7 30  1  0
  7 31  1  0
  9 32  1  0
  9 33  1  0
  9 34  1  0
 12 35  1  0
 12 36  1  0
 14 37  1  0
 15 38  1  0
 18 39  1  0
 19 40  1  0
 22 41  1  0
M  END
>  <UniqueID>  (22) 
21

>  <SMILES>  (22) 
CC#CCOCCN(C)C(=O)Cc1ccc2nccnc2c1

>  <Energy>  (22) 
37.78423383402079

>  <Genealogy>  (22) 
CC#CCOCCN(C)C(=O)Cc1ccc2nccnc2c1 (3D coordinates assigned)
CC#CCOCCN(C)C(=O)Cc1ccc2nccnc2c1 (optimized conformer: 37.78423383402079 kcal/mol)

>  <smiles>  (22) 
CC#CCOCCN(C)C(=O)Cc1ccc2nccnc2c1

>  <score_type>  (22) 
oracle

>  <origin>  (22) 
adg

>  <m_score__min__energy>  (22) 
-7.54

>  <m_primary>  (22) 
energy

$$$$
22:0
     RDKit          3D

 52 54  0  0  0  0  0  0  0  0999 V2000
   -0.7410   21.8960  -30.5040 C   0  0  0  0  0  0  0  0  0  0  0  0
   -1.7550   22.9520  -30.0290 C   0  0  0  0  0  0  0  0  0  0  0  0
   -3.1140   22.4430  -29.6830 N   0  0  0  0  0  0  0  0  0  0  0  0
   -3.1610   20.9690  -29.4900 C   0  0  0  0  0  0  0  0  0  0  0  0
   -2.7340   20.4840  -28.1010 C   0  0  0  0  0  0  0  0  0  0  0  0
   -3.8170   23.1800  -28.5980 C   0  0  0  0  0  0  0  0  0  0  0  0
   -4.6020   24.4020  -29.1150 C   0  0  0  0  0  0  0  0  0  0  0  0
   -4.2690   24.6810  -30.4620 O   0  0  0  0  0  0  0  0  0  0  0  0
   -5.4090   25.0200  -31.2260 C   0  0  0  0  0  0  0  0  0  0  0  0
   -5.9580   23.7930  -31.9620 C   0  0  0  0  0  0  0  0  0  0  0  0
   -5.4030   22.5770  -31.4480 O   0  0  0  0  0  0  0  0  0  0  0  0
   -5.5190   21.3450  -32.1110 C   0  0  0  0  0  0  0  0  0  0  0  0
   -6.7380   20.6320  -32.1240 C   0  0  0  0  0  0  0  0  0  0  0  0
   -7.9320   21.1770  -31.6170 C   0  0  0  0  0  0  0  0  0  0  0  0
   -9.1140   20.4300  -31.6340 C   0  0  0  0  0  0  0  0  0  0  0  0
   -9.1240   19.1400  -32.1740 C   0  0  0  0  0  0  0  0  0  0  0  0
   -7.9550   18.5980  -32.7110 C   0  0  0  0  0  0  0  0  0  0  0  0
   -6.7660   19.3380  -32.7020 C   0  0  0  0  0  0  0  0  0  0  0  0
   -5.6490   18.8170  -33.2700 N   0  0  0  0  0  0  0  0  0  0  0  0
   -4.4810   19.5080  -33.3280 C   0  0  0  0  0  0  0  0  0  0  0  0
   -3.3640   18.9360  -33.9500 C   0  0  0  0  0  0  0  0  0  0  0  0
   -2.1650   19.6470  -34.0320 C   0  0  0  0  0  0  0  0  0  0  0  0
   -2.0770   20.9380  -33.4990 C   0  0  0  0  0  0  0  0  0  0  0  0
   -3.1860   21.5170  -32.8750 C   0  0  0  0  0  0  0  0  0  0  0  0
   -4.3940   20.8050  -32.7680 C   0  0  0  0  0  0  0  0  0  0  0  0
   -0.2778   21.4136  -29.6307 H   0  0  0  0  0  0  0  0  0  0  0  0
   -1.2581   21.1378  -31.1104 H   0  0  0  0  0  0  0  0  0  0  0  0
    0.0376   22.3819  -31.1104 H   0  0  0  0  0  0  0  0  0  0  0  0
   -1.3399   23.4390  -29.1343 H   0  0  0  0  0  0  0  0  0  0  0  0
   -1.9002   23.6298  -30.8831 H   0  0  0  0  0  0  0  0  0  0  0  0
   -3.6880   22.5860  -30.5480 H   0  0  0  0  0  0  0  0  0  0  0  0
   -4.1942   20.6346  -29.6655 H   0  0  0  0  0  0  0  0  0  0  0  0
   -2.4374   20.5427  -30.2004 H   0  0  0  0  0  0  0  0  0  0  0  0
   -3.2532   21.0737  -27.3311 H   0  0  0  0  0  0  0  0  0  0  0  0
   -2.9952   19.4215  -27.9873 H   0  0  0  0  0  0  0  0  0  0  0  0
   -1.6470   20.6085  -27.9873 H   0  0  0  0  0  0  0  0  0  0  0  0
   -4.5211   22.4929  -28.1059 H   0  0  0  0  0  0  0  0  0  0  0  0
   -3.0515   23.5501  -27.9001 H   0  0  0  0  0  0  0  0  0  0  0  0
   -5.6799   24.1936  -29.0458 H   0  0  0  0  0  0  0  0  0  0  0  0
   -4.3401   25.2751  -28.4993 H   0  0  0  0  0  0  0  0  0  0  0  0
   -6.1866   25.4162  -30.5564 H   0  0  0  0  0  0  0  0  0  0  0  0
   -5.1211   25.7770  -31.9704 H   0  0  0  0  0  0  0  0  0  0  0  0
   -7.0511   23.7648  -31.8426 H   0  0  0  0  0  0  0  0  0  0  0  0
   -5.6803   23.8760  -33.0231 H   0  0  0  0  0  0  0  0  0  0  0  0
   -7.9357   22.1968  -31.2048 H   0  0  0  0  0  0  0  0  0  0  0  0
  -10.0392   20.8585  -31.2212 H   0  0  0  0  0  0  0  0  0  0  0  0
  -10.0537   18.5520  -32.1756 H   0  0  0  0  0  0  0  0  0  0  0  0
   -7.9678   17.5863  -33.1427 H   0  0  0  0  0  0  0  0  0  0  0  0
   -3.4315   17.9237  -34.3751 H   0  0  0  0  0  0  0  0  0  0  0  0
   -1.2885   19.1917  -34.5162 H   0  0  0  0  0  0  0  0  0  0  0  0
   -1.1332   21.4984  -33.5712 H   0  0  0  0  0  0  0  0  0  0  0  0
   -3.1133   22.5353  -32.4654 H   0  0  0  0  0  0  0  0  0  0  0  0
  1  2  1  0
  2  3  1  0
  3  4  1  0
  4  5  1  0
  3  6  1  0
  6  7  1  0
  7  8  1  0
  8  9  1  0
  9 10  1  0
 10 11  1  0
 11 12  1  0
 12 13  2  0
 13 14  1  0
 14 15  2  0
 15 16  1  0
 16 17  2  0
 17 18  1  0
 18 19  2  0
 19 20  1  0
 20 21  2  0
 21 22  1  0
 22 23  2  0
 23 24  1  0
 24 25  2  0
 25 12  1  0
 18 13  1  0
 25 20  1  0
  1 26  1  0
  1 27  1  0
  1 28  1  0
  2 29  1  0
  2 30  1  0
  3 31  1  0
  4 32  1  0
  4 33  1  0
  5 34  1  0
  5 35  1  0
  5 36  1  0
  6 37  1  0
  6 38  1  0
  7 39  1  0
  7 40  1  0
  9 41  1  0
  9 42  1  0
 10 43  1  0
 10 44  1  0
 14 45  1  0
 15 46  1  0
 16 47  1  0
 17 48  1  0
 21 49  1  0
 22 50  1  0
 23 51  1  0
 24 52  1  0
M  CHG  1   3   1
M  END
>  <UniqueID>  (23) 
22

>  <SMILES>  (23) 
CC[NH+](CC)CCOCCOc1c2ccccc2nc2ccccc12

>  <Energy>  (23) 
75.29784388862436

>  <Genealogy>  (23) 
CC[NH+](CC)CCOCCOc1c2ccccc2nc2ccccc12 (protonated)
CC[NH+](CC)CCOCCOc1c2ccccc2nc2ccccc12 (3D coordinates assigned)
CC[NH+](CC)CCOCCOc1c2ccccc2nc2ccccc12 (optimized conformer: 75.29784388862436 kcal/mol)

>  <smiles>  (23) 
CCN(CC)CCOCCOc1c2ccccc2nc2ccccc12

>  <score_type>  (23) 
oracle

>  <origin>  (23) 
adg

>  <m_score__min__energy>  (23) 
-6.4299999999999997

>  <m_primary>  (23) 
energy

$$$$
23:0
     RDKit          3D

 31 33  0  0  0  0  0  0  0  0999 V2000
   -1.1130   24.4230  -29.1180 C   0  0  0  0  0  0  0  0  0  0  0  0
   -2.5800   24.7250  -28.8290 C   0  0  0  0  0  0  0  0  0  0  0  0
   -3.3210   24.9290  -30.0750 N   0  0  0  0  0  0  0  0  0  0  0  0
   -4.4970   24.1920  -30.4620 C   0  0  0  0  0  0  0  0  0  0  0  0
   -5.8020   24.7380  -30.3300 C   0  0  0  0  0  0  0  0  0  0  0  0
   -6.9310   24.0000  -30.7200 C   0  0  0  0  0  0  0  0  0  0  0  0
   -6.7380   22.7230  -31.2410 C   0  0  0  0  0  0  0  0  0  0  0  0
   -5.4760   22.1800  -31.3820 C   0  0  0  0  0  0  0  0  0  0  0  0
   -4.3430   22.8970  -31.0010 C   0  0  0  0  0  0  0  0  0  0  0  0
   -5.5320   20.7980  -31.9690 C   0  0  0  0  0  0  0  0  0  0  0  0
   -7.0150   20.6340  -32.1420 C   0  0  0  0  0  0  0  0  0  0  0  0
   -7.6980   19.5310  -32.6560 C   0  0  0  0  0  0  0  0  0  0  0  0
   -9.1000   19.5840  -32.7310 C   0  0  0  0  0  0  0  0  0  0  0  0
   -9.7950   20.7290  -32.2970 C   0  0  0  0  0  0  0  0  0  0  0  0
   -9.0940   21.8330  -31.7820 C   0  0  0  0  0  0  0  0  0  0  0  0
   -7.7030   21.7550  -31.7170 C   0  0  0  0  0  0  0  0  0  0  0  0
   -0.5679   24.3108  -28.1692 H   0  0  0  0  0  0  0  0  0  0  0  0
   -1.0377   23.4905  -29.6966 H   0  0  0  0  0  0  0  0  0  0  0  0
   -0.6755   25.2499  -29.6966 H   0  0  0  0  0  0  0  0  0  0  0  0
   -3.0215   23.8799  -28.2804 H   0  0  0  0  0  0  0  0  0  0  0  0
   -2.6402   25.6437  -28.2270 H   0  0  0  0  0  0  0  0  0  0  0  0
   -2.9690   25.6740  -30.7180 H   0  0  0  0  0  0  0  0  0  0  0  0
   -5.9292   25.7499  -29.9178 H   0  0  0  0  0  0  0  0  0  0  0  0
   -7.9424   24.4199  -30.6166 H   0  0  0  0  0  0  0  0  0  0  0  0
   -3.3410   22.4587  -31.1191 H   0  0  0  0  0  0  0  0  0  0  0  0
   -5.0024   20.7439  -32.9316 H   0  0  0  0  0  0  0  0  0  0  0  0
   -5.0532   20.0200  -31.3563 H   0  0  0  0  0  0  0  0  0  0  0  0
   -7.1505   18.6392  -32.9952 H   0  0  0  0  0  0  0  0  0  0  0  0
   -9.6585   18.7251  -33.1315 H   0  0  0  0  0  0  0  0  0  0  0  0
  -10.8927   20.7597  -32.3614 H   0  0  0  0  0  0  0  0  0  0  0  0
   -9.6270   22.7325  -31.4401 H   0  0  0  0  0  0  0  0  0  0  0  0
  1  2  1  0
  2  3  1  0
  3  4  1  0
  4  5  2  0
  5  6  1  0
  6  7  2  0
  7  8  1  0
  8  9  2  0
  8 10  1  0
 10 11  1  0
 11 12  2  0
 12 13  1  0
 13 14  2  0
 14 15  1  0
 15 16  2  0
  9  4  1  0
 16 11  1  0
 16  7  1  0
  1 17  1  0
  1 18  1  0
  1 19  1  0
  2 20  1  0
  2 21  1  0
  3 22  1  0
  5 23  1  0
  6 24  1  0
  9 25  1  0
 10 26  1  0
 10 27  1  0
 12 28  1  0
 13 29  1  0
 14 30  1  0
 15 31  1  0
M  END
>  <UniqueID>  (24) 
23

>  <SMILES>  (24) 
CCNc1ccc2c(c1)Cc1ccccc1-2

>  <Energy>  (24) 
52.36406601151733

>  <Genealogy>  (24) 
CCNc1ccc2c(c1)Cc1ccccc1-2 (3D coordinates assigned)
CCNc1ccc2c(c1)Cc1ccccc1-2 (nonaromatic ring conformer: 52.36406601151733 kcal/mol)

>  <smiles>  (24) 
CCNc1ccc2c(c1)Cc1ccccc1-2

>  <score_type>  (24) 
oracle

>  <origin>  (24) 
adg

>  <m_score__min__energy>  (24) 
-7.8300000000000001

>  <m_primary>  (24) 
energy

$$$$
24:0
     RDKit          3D

 85 88  0  0  0  0  0  0  0  0999 V2000
    0.1940   17.6190  -31.3890 C   0  0  0  0  0  0  0  0  0  0  0  0
   -0.6640   17.0250  -32.5110 C   0  0  0  0  0  0  0  0  0  0  0  0
   -1.1450   18.0550  -33.4770 N   0  0  0  0  0  0  0  0  0  0  0  0
   -1.9190   17.4170  -34.5810 C   0  0  0  0  0  0  0  0  0  0  0  0
   -2.8090   16.2570  -34.1040 C   0  0  0  0  0  0  0  0  0  0  0  0
    0.0250   18.8010  -34.0200 C   0  0  0  0  0  0  0  0  0  0  0  0
   -0.0260   20.3270  -33.8210 C   0  0  0  0  0  0  0  0  0  0  0  0
   -1.1790   20.7030  -33.0810 O   0  0  0  0  0  0  0  0  0  0  0  0
   -0.8930   20.8040  -31.6980 C   0  0  0  0  0  0  0  0  0  0  0  0
   -1.9740   21.6090  -30.9650 C   0  0  0  0  0  0  0  0  0  0  0  0
   -2.8370   22.3100  -31.9170 N   0  0  0  0  0  0  0  0  0  0  0  0
   -4.2680   22.1800  -31.8080 C   0  0  0  0  0  0  0  0  0  0  0  0
   -4.8950   21.1110  -32.4910 C   0  0  0  0  0  0  0  0  0  0  0  0
   -4.1280   20.1300  -33.1620 C   0  0  0  0  0  0  0  0  0  0  0  0
   -4.7400   19.0860  -33.8400 C   0  0  0  0  0  0  0  0  0  0  0  0
   -6.1240   19.0100  -33.8910 C   0  0  0  0  0  0  0  0  0  0  0  0
   -6.9030   19.9580  -33.2360 C   0  0  0  0  0  0  0  0  0  0  0  0
   -6.3080   21.0020  -32.4800 C   0  0  0  0  0  0  0  0  0  0  0  0
   -7.0650   21.8920  -31.7410 N   0  0  0  0  0  0  0  0  0  0  0  0
   -8.5070   21.6300  -31.5250 C   0  0  0  0  0  0  0  0  0  0  0  0
   -6.4830   23.0230  -31.1970 C   0  0  0  0  0  0  0  0  0  0  0  0
   -7.2760   24.0810  -30.6970 C   0  0  0  0  0  0  0  0  0  0  0  0
   -6.7080   25.1790  -30.0750 C   0  0  0  0  0  0  0  0  0  0  0  0
   -5.3380   25.2500  -29.9050 C   0  0  0  0  0  0  0  0  0  0  0  0
   -4.4960   24.2500  -30.4060 C   0  0  0  0  0  0  0  0  0  0  0  0
   -3.1110   24.3360  -30.1890 O   0  0  0  0  0  0  0  0  0  0  0  0
   -2.4560   24.0390  -28.9560 C   0  0  0  0  0  0  0  0  0  0  0  0
   -1.0870   24.7290  -28.9060 C   0  0  0  0  0  0  0  0  0  0  0  0
   -0.9140   25.4820  -27.6470 N   0  0  0  0  0  0  0  0  0  0  0  0
   -2.1380   25.4160  -26.8120 C   0  0  0  0  0  0  0  0  0  0  0  0
   -1.8470   25.6110  -25.3050 C   0  0  0  0  0  0  0  0  0  0  0  0
   -0.6390   26.4480  -25.0500 N   0  0  0  0  0  0  0  0  0  0  0  0
   -0.8780   27.8440  -25.5120 C   0  0  0  0  0  0  0  0  0  0  0  0
   -0.4100   26.4900  -23.5840 C   0  0  0  0  0  0  0  0  0  0  0  0
    0.5780   25.8780  -25.7260 C   0  0  0  0  0  0  0  0  0  0  0  0
    0.2540   24.9630  -26.9160 C   0  0  0  0  0  0  0  0  0  0  0  0
   -5.0620   23.1560  -31.1450 C   0  0  0  0  0  0  0  0  0  0  0  0
   -0.2251   17.3289  -30.4142 H   0  0  0  0  0  0  0  0  0  0  0  0
    1.2227   17.2388  -31.4737 H   0  0  0  0  0  0  0  0  0  0  0  0
    0.2003   18.7157  -31.4737 H   0  0  0  0  0  0  0  0  0  0  0  0
   -0.0633   16.2834  -33.0579 H   0  0  0  0  0  0  0  0  0  0  0  0
   -1.5496   16.5685  -32.0448 H   0  0  0  0  0  0  0  0  0  0  0  0
   -1.7720   18.7320  -32.9770 H   0  0  0  0  0  0  0  0  0  0  0  0
   -2.5595   18.1809  -35.0460 H   0  0  0  0  0  0  0  0  0  0  0  0
   -1.1911   16.9999  -35.2925 H   0  0  0  0  0  0  0  0  0  0  0  0
   -2.8254   16.2356  -33.0043 H   0  0  0  0  0  0  0  0  0  0  0  0
   -3.8317   16.3996  -34.4832 H   0  0  0  0  0  0  0  0  0  0  0  0
   -2.4065   15.3061  -34.4832 H   0  0  0  0  0  0  0  0  0  0  0  0
    0.9309   18.4224  -33.5241 H   0  0  0  0  0  0  0  0  0  0  0  0
    0.0189   18.6327  -35.1070 H   0  0  0  0  0  0  0  0  0  0  0  0
    0.8731   20.6494  -33.2755 H   0  0  0  0  0  0  0  0  0  0  0  0
   -0.0693   20.8092  -34.8087 H   0  0  0  0  0  0  0  0  0  0  0  0
   -0.8443   19.7931  -31.2670 H   0  0  0  0  0  0  0  0  0  0  0  0
    0.0692   21.3235  -31.5784 H   0  0  0  0  0  0  0  0  0  0  0  0
   -2.5862   20.9235  -30.3607 H   0  0  0  0  0  0  0  0  0  0  0  0
   -1.4827   22.3533  -30.3211 H   0  0  0  0  0  0  0  0  0  0  0  0
   -2.4510   22.3910  -32.8890 H   0  0  0  0  0  0  0  0  0  0  0  0
   -3.0301   20.1960  -33.1459 H   0  0  0  0  0  0  0  0  0  0  0  0
   -4.1281   18.3188  -34.3369 H   0  0  0  0  0  0  0  0  0  0  0  0
   -6.6076   18.1966  -34.4518 H   0  0  0  0  0  0  0  0  0  0  0  0
   -7.9992   19.8978  -33.3050 H   0  0  0  0  0  0  0  0  0  0  0  0
   -8.7151   21.5922  -30.4455 H   0  0  0  0  0  0  0  0  0  0  0  0
   -9.0989   22.4353  -31.9845 H   0  0  0  0  0  0  0  0  0  0  0  0
   -8.7777   20.6680  -31.9845 H   0  0  0  0  0  0  0  0  0  0  0  0
   -8.3695   24.0304  -30.8048 H   0  0  0  0  0  0  0  0  0  0  0  0
   -7.3485   25.9976  -29.7149 H   0  0  0  0  0  0  0  0  0  0  0  0
   -4.9026   26.1055  -29.3678 H   0  0  0  0  0  0  0  0  0  0  0  0
   -3.0746   24.3973  -28.1200 H   0  0  0  0  0  0  0  0  0  0  0  0
   -2.3136   22.9511  -28.8772 H   0  0  0  0  0  0  0  0  0  0  0  0
   -0.2978   23.9662  -28.9792 H   0  0  0  0  0  0  0  0  0  0  0  0
   -1.0223   25.4359  -29.7463 H   0  0  0  0  0  0  0  0  0  0  0  0
   -2.8308   26.2045  -27.1411 H   0  0  0  0  0  0  0  0  0  0  0  0
   -2.5715   24.4130  -26.9385 H   0  0  0  0  0  0  0  0  0  0  0  0
   -2.7164   26.0988  -24.8400 H   0  0  0  0  0  0  0  0  0  0  0  0
   -1.6563   24.6168  -24.8746 H   0  0  0  0  0  0  0  0  0  0  0  0
   -0.9911   28.5046  -24.6397 H   0  0  0  0  0  0  0  0  0  0  0  0
   -0.0244   28.1806  -26.1187 H   0  0  0  0  0  0  0  0  0  0  0  0
   -1.7950   27.8775  -26.1187 H   0  0  0  0  0  0  0  0  0  0  0  0
   -1.3609   26.3156  -23.0592 H   0  0  0  0  0  0  0  0  0  0  0  0
    0.3123   25.7094  -23.3032 H   0  0  0  0  0  0  0  0  0  0  0  0
   -0.0117   27.4762  -23.3032 H   0  0  0  0  0  0  0  0  0  0  0  0
    1.1964   26.7125  -26.0883 H   0  0  0  0  0  0  0  0  0  0  0  0
    1.0997   25.2608  -24.9798 H   0  0  0  0  0  0  0  0  0  0  0  0
    1.1202   24.9254  -27.5930 H   0  0  0  0  0  0  0  0  0  0  0  0
    0.0273   23.9531  -26.5437 H   0  0  0  0  0  0  0  0  0  0  0  0
  1  2  1  0
  2  3  1  0
  3  4  1  0
  4  5  1  0
  3  6  1  0
  6  7  1  0
  7  8  1  0
  8  9  1  0
  9 10  1  0
 10 11  1  0
 11 12  1  0
 12 13  2  0
 13 14  1  0
 14 15  2  0
 15 16  1  0
 16 17  2  0
 17 18  1  0
 18 19  2  0
 19 20  1  0
 19 21  1  0
 21 22  2  0
 22 23  1  0
 23 24  2  0
 24 25  1  0
 25 26  1  0
 26 27  1  0
 27 28  1  0
 28 29  1  0
 29 30  1  0
 30 31  1  0
 31 32  1  0
 32 33  1  0
 32 34  1  0
 32 35  1  0
 35 36  1  0
 25 37  2  0
 37 12  1  0
 18 13  1  0
 37 21  1  0
 36 29  1  0
  1 38  1  0
  1 39  1  0
  1 40  1  0
  2 41  1  0
  2 42  1  0
  3 43  1  0
  4 44  1  0
  4 45  1  0
  5 46  1  0
  5 47  1  0
  5 48  1  0
  6 49  1  0
  6 50  1  0
  7 51  1  0
  7 52  1  0
  9 53  1  0
  9 54  1  0
 10 55  1  0
 10 56  1  0
 11 57  1  0
 14 58  1  0
 15 59  1  0
 16 60  1  0
 17 61  1  0
 20 62  1  0
 20 63  1  0
 20 64  1  0
 22 65  1  0
 23 66  1  0
 24 67  1  0
 27 68  1  0
 27 69  1  0
 28 70  1  0
 28 71  1  0
 30 72  1  0
 30 73  1  0
 31 74  1  0
 31 75  1  0
 33 76  1  0
 33 77  1  0
 33 78  1  0
 34 79  1  0
 34 80  1  0
 34 81  1  0
 35 82  1  0
 35 83  1  0
 36 84  1  0
 36 85  1  0
M  CHG  3   3   1  19   1  32   1
M  END
>  <UniqueID>  (25) 
24

>  <SMILES>  (25) 
CC[NH+](CC)CCOCCNc1c2ccccc2[n+](C)c2cccc(OCCN3CC[N+](C)(C)CC3)c12

>  <Energy>  (25) 
138.1742472066953

>  <Genealogy>  (25) 
CC[NH+](CC)CCOCCNc1c2ccccc2[n+](C)c2cccc(OCCN3CC[N+](C)(C)CC3)c12 (protonated)
CC[NH+](CC)CCOCCNc1c2ccccc2[n+](C)c2cccc(OCCN3CC[N+](C)(C)CC3)c12 (3D coordinates assigned)
CC[NH+](CC)CCOCCNc1c2ccccc2[n+](C)c2cccc(OCCN3CC[N+](C)(C)CC3)c12 (nonaromatic ring conformer: 138.1742472066953 kcal/mol)

>  <smiles>  (25) 
CCN(CC)CCOCCNc1c2ccccc2[n+](C)c2cccc(OCC[N+]3CC[N+](C)(C)CC3)c12

>  <score_type>  (25) 
oracle

>  <origin>  (25) 
adg

>  <m_score__min__energy>  (25) 
-7.6900000000000004

>  <m_primary>  (25) 
energy

$$$$
25:0
     RDKit          3D

 61 63  0  0  0  0  0  0  0  0999 V2000
   -2.3750   25.7350  -25.7030 C   0  0  0  0  0  0  0  0  0  0  0  0
   -2.7320   24.6140  -26.6830 C   0  0  0  0  0  0  0  0  0  0  0  0
   -4.1420   24.6990  -27.0980 N   0  0  0  0  0  0  0  0  0  0  0  0
   -4.3450   24.1820  -28.4700 C   0  0  0  0  0  0  0  0  0  0  0  0
   -4.6100   22.6660  -28.4920 C   0  0  0  0  0  0  0  0  0  0  0  0
   -3.3530   21.8680  -28.8760 C   0  0  0  0  0  0  0  0  0  0  0  0
   -2.9980   22.1190  -30.2940 N   0  0  0  0  0  0  0  0  0  0  0  0
   -1.7520   22.9210  -30.3800 C   0  0  0  0  0  0  0  0  0  0  0  0
   -0.9450   22.7890  -29.0980 C   0  0  0  0  0  0  0  0  0  0  0  0
   -2.8790   20.8520  -31.0520 C   0  0  0  0  0  0  0  0  0  0  0  0
   -2.4710   21.1040  -32.5050 C   0  0  0  0  0  0  0  0  0  0  0  0
   -3.6220   21.4630  -33.3370 N   0  0  0  0  0  0  0  0  0  0  0  0
   -4.9570   21.0830  -32.9530 C   0  0  0  0  0  0  0  0  0  0  0  0
   -5.7950   22.0070  -32.2920 C   0  0  0  0  0  0  0  0  0  0  0  0
   -5.3250   23.2890  -31.9450 C   0  0  0  0  0  0  0  0  0  0  0  0
   -6.1320   24.1790  -31.2410 C   0  0  0  0  0  0  0  0  0  0  0  0
   -7.4230   23.8140  -30.8830 C   0  0  0  0  0  0  0  0  0  0  0  0
   -7.9280   22.5690  -31.2530 C   0  0  0  0  0  0  0  0  0  0  0  0
   -7.1390   21.6510  -32.0000 C   0  0  0  0  0  0  0  0  0  0  0  0
   -7.6470   20.4370  -32.4240 N   0  0  0  0  0  0  0  0  0  0  0  0
   -9.1060   20.1940  -32.3840 C   0  0  0  0  0  0  0  0  0  0  0  0
   -6.7880   19.4600  -32.8930 C   0  0  0  0  0  0  0  0  0  0  0  0
   -7.2210   18.1190  -33.0850 C   0  0  0  0  0  0  0  0  0  0  0  0
   -6.3520   17.1450  -33.5810 C   0  0  0  0  0  0  0  0  0  0  0  0
   -5.0330   17.4680  -33.8770 C   0  0  0  0  0  0  0  0  0  0  0  0
   -4.5710   18.7670  -33.6790 C   0  0  0  0  0  0  0  0  0  0  0  0
   -5.4310   19.7770  -33.1830 C   0  0  0  0  0  0  0  0  0  0  0  0
   -2.4909   25.3710  -24.6715 H   0  0  0  0  0  0  0  0  0  0  0  0
   -1.3330   26.0471  -25.8667 H   0  0  0  0  0  0  0  0  0  0  0  0
   -3.0446   26.5922  -25.8667 H   0  0  0  0  0  0  0  0  0  0  0  0
   -2.0904   24.6973  -27.5726 H   0  0  0  0  0  0  0  0  0  0  0  0
   -2.5743   23.6484  -26.1803 H   0  0  0  0  0  0  0  0  0  0  0  0
   -4.7440   24.1760  -26.4190 H   0  0  0  0  0  0  0  0  0  0  0  0
   -4.4370   25.7050  -27.0710 H   0  0  0  0  0  0  0  0  0  0  0  0
   -5.2070   24.6979  -28.9181 H   0  0  0  0  0  0  0  0  0  0  0  0
   -3.4227   24.3698  -29.0393 H   0  0  0  0  0  0  0  0  0  0  0  0
   -4.9407   22.3486  -27.4921 H   0  0  0  0  0  0  0  0  0  0  0  0
   -5.3836   22.4668  -29.2482 H   0  0  0  0  0  0  0  0  0  0  0  0
   -2.5163   22.1768  -28.2322 H   0  0  0  0  0  0  0  0  0  0  0  0
   -3.5551   20.7951  -28.7420 H   0  0  0  0  0  0  0  0  0  0  0  0
   -1.1482   22.5623  -31.2266 H   0  0  0  0  0  0  0  0  0  0  0  0
   -2.0184   23.9782  -30.5258 H   0  0  0  0  0  0  0  0  0  0  0  0
   -1.6133   22.8983  -28.2312 H   0  0  0  0  0  0  0  0  0  0  0  0
   -0.4639   21.8002  -29.0677 H   0  0  0  0  0  0  0  0  0  0  0  0
   -0.1740   23.5730  -29.0677 H   0  0  0  0  0  0  0  0  0  0  0  0
   -2.1187   20.2184  -30.5720 H   0  0  0  0  0  0  0  0  0  0  0  0
   -3.8605   20.3553  -31.0503 H   0  0  0  0  0  0  0  0  0  0  0  0
   -1.7409   21.9263  -32.5327 H   0  0  0  0  0  0  0  0  0  0  0  0
   -2.0355   20.1762  -32.9045 H   0  0  0  0  0  0  0  0  0  0  0  0
   -3.4490   21.8320  -34.2990 H   0  0  0  0  0  0  0  0  0  0  0  0
   -4.3074   23.5908  -32.2339 H   0  0  0  0  0  0  0  0  0  0  0  0
   -5.7463   25.1724  -30.9681 H   0  0  0  0  0  0  0  0  0  0  0  0
   -8.0492   24.5099  -30.3054 H   0  0  0  0  0  0  0  0  0  0  0  0
   -8.9523   22.2920  -30.9630 H   0  0  0  0  0  0  0  0  0  0  0  0
   -9.4399   20.1384  -31.3374 H   0  0  0  0  0  0  0  0  0  0  0  0
   -9.6289   21.0174  -32.8924 H   0  0  0  0  0  0  0  0  0  0  0  0
   -9.3338   19.2455  -32.8924 H   0  0  0  0  0  0  0  0  0  0  0  0
   -8.2574   17.8446  -32.8388 H   0  0  0  0  0  0  0  0  0  0  0  0
   -6.7129   16.1178  -33.7381 H   0  0  0  0  0  0  0  0  0  0  0  0
   -4.3531   16.6968  -34.2681 H   0  0  0  0  0  0  0  0  0  0  0  0
   -3.5240   19.0117  -33.9110 H   0  0  0  0  0  0  0  0  0  0  0  0
  1  2  1  0
  2  3  1  0
  3  4  1  0
  4  5  1  0
  5  6  1  0
  6  7  1  0
  7  8  1  0
  8  9  1  0
  7 10  1  0
 10 11  1  0
 11 12  1  0
 12 13  1  0
 13 14  2  0
 14 15  1  0
 15 16  2  0
 16 17  1  0
 17 18  2  0
 18 19  1  0
 19 20  2  0
 20 21  1  0
 20 22  1  0
 22 23  2  0
 23 24  1  0
 24 25  2  0
 25 26  1  0
 26 27  2  0
 27 13  1  0
 19 14  1  0
 27 22  1  0
  1 28  1  0
  1 29  1  0
  1 30  1  0
  2 31  1  0
  2 32  1  0
  3 33  1  0
  3 34  1  0
  4 35  1  0
  4 36  1  0
  5 37  1  0
  5 38  1  0
  6 39  1  0
  6 40  1  0
  8 41  1  0
  8 42  1  0
  9 43  1  0
  9 44  1  0
  9 45  1  0
 10 46  1  0
 10 47  1  0
 11 48  1  0
 11 49  1  0
 12 50  1  0
 15 51  1  0
 16 52  1  0
 17 53  1  0
 18 54  1  0
 21 55  1  0
 21 56  1  0
 21 57  1  0
 23 58  1  0
 24 59  1  0
 25 60  1  0
 26 61  1  0
M  CHG  2   3   1  20   1
M  END
>  <UniqueID>  (26) 
25

>  <SMILES>  (26) 
CC[NH2+]CCCN(CC)CCNc1c2ccccc2[n+](C)c2ccccc12

>  <Energy>  (26) 
85.84507361228064

>  <Genealogy>  (26) 
CC[NH2+]CCCN(CC)CCNc1c2ccccc2[n+](C)c2ccccc12 (protonated)
CC[NH2+]CCCN(CC)CCNc1c2ccccc2[n+](C)c2ccccc12 (3D coordinates assigned)
CC[NH2+]CCCN(CC)CCNc1c2ccccc2[n+](C)c2ccccc12 (optimized conformer: 85.84507361228064 kcal/mol)

>  <smiles>  (26) 
CCNCCCN(CC)CCNc1c2ccccc2[n+](C)c2ccccc12

>  <score_type>  (26) 
oracle

>  <origin>  (26) 
adg

>  <m_score__min__energy>  (26) 
-7.5800000000000001

>  <m_primary>  (26) 
energy

$$$$
26:0
     RDKit          3D

 51 51  0  0  0  0  0  0  0  0999 V2000
   -6.4690   25.6640  -29.3860 C   0  0  0  0  0  0  0  0  0  0  0  0
   -5.4990   25.4210  -30.5380 C   0  0  0  0  0  0  0  0  0  0  0  0
   -5.5140   23.9920  -30.9260 N   0  0  0  0  0  0  0  0  0  0  0  0
   -4.1670   23.3890  -30.8110 C   0  0  0  0  0  0  0  0  0  0  0  0
   -3.9200   22.9210  -29.3790 C   0  0  0  0  0  0  0  0  0  0  0  0
   -6.0750   23.8050  -32.2850 C   0  0  0  0  0  0  0  0  0  0  0  0
   -7.4070   23.0430  -32.1920 C   0  0  0  0  0  0  0  0  0  0  0  0
   -7.8640   22.8760  -30.8050 N   0  0  0  0  0  0  0  0  0  0  0  0
   -8.7680   21.7270  -30.6300 C   0  0  0  0  0  0  0  0  0  0  0  0
   -8.9750   21.0120  -31.9700 C   0  0  0  0  0  0  0  0  0  0  0  0
   -8.0210   19.8250  -32.1690 C   0  0  0  0  0  0  0  0  0  0  0  0
   -7.2860   19.9370  -33.4330 N   0  0  0  0  0  0  0  0  0  0  0  0
   -5.8590   19.7580  -33.5140 C   0  0  0  0  0  0  0  0  0  0  0  0
   -5.0400   20.8030  -33.0930 C   0  0  0  0  0  0  0  0  0  0  0  0
   -3.6660   20.7010  -33.2590 C   0  0  0  0  0  0  0  0  0  0  0  0
   -2.9360   21.6660  -32.9030 O   0  0  0  0  0  0  0  0  0  0  0  0
   -3.1210   19.5750  -33.8110 N   0  0  0  0  0  0  0  0  0  0  0  0
   -1.6710   19.5060  -34.0730 C   0  0  0  0  0  0  0  0  0  0  0  0
   -3.9360   18.5340  -34.1870 C   0  0  0  0  0  0  0  0  0  0  0  0
   -3.4300   17.5060  -34.7210 O   0  0  0  0  0  0  0  0  0  0  0  0
   -5.2940   18.6000  -33.9890 N   0  0  0  0  0  0  0  0  0  0  0  0
   -6.1130   17.4130  -34.2800 C   0  0  0  0  0  0  0  0  0  0  0  0
   -5.9424   25.5321  -28.4293 H   0  0  0  0  0  0  0  0  0  0  0  0
   -6.8638   26.6888  -29.4490 H   0  0  0  0  0  0  0  0  0  0  0  0
   -7.3003   24.9463  -29.4490 H   0  0  0  0  0  0  0  0  0  0  0  0
   -5.7979   26.0349  -31.4004 H   0  0  0  0  0  0  0  0  0  0  0  0
   -4.4835   25.6950  -30.2162 H   0  0  0  0  0  0  0  0  0  0  0  0
   -4.0947   22.5284  -31.4922 H   0  0  0  0  0  0  0  0  0  0  0  0
   -3.4119   24.1431  -31.0777 H   0  0  0  0  0  0  0  0  0  0  0  0
   -4.3147   23.6689  -28.6756 H   0  0  0  0  0  0  0  0  0  0  0  0
   -4.4280   21.9592  -29.2148 H   0  0  0  0  0  0  0  0  0  0  0  0
   -2.8393   22.7976  -29.2148 H   0  0  0  0  0  0  0  0  0  0  0  0
   -6.2468   24.7876  -32.7486 H   0  0  0  0  0  0  0  0  0  0  0  0
   -5.3659   23.2283  -32.8971 H   0  0  0  0  0  0  0  0  0  0  0  0
   -8.1725   23.6012  -32.7509 H   0  0  0  0  0  0  0  0  0  0  0  0
   -7.2486   22.0400  -32.6149 H   0  0  0  0  0  0  0  0  0  0  0  0
   -7.0360   22.7730  -30.1720 H   0  0  0  0  0  0  0  0  0  0  0  0
   -8.3281   21.0246  -29.9068 H   0  0  0  0  0  0  0  0  0  0  0  0
   -9.7394   22.0859  -30.2591 H   0  0  0  0  0  0  0  0  0  0  0  0
  -10.0098   20.6415  -32.0137 H   0  0  0  0  0  0  0  0  0  0  0  0
   -8.7662   21.7400  -32.7677 H   0  0  0  0  0  0  0  0  0  0  0  0
   -7.3015   19.8005  -31.3373 H   0  0  0  0  0  0  0  0  0  0  0  0
   -8.6176   18.9013  -32.1955 H   0  0  0  0  0  0  0  0  0  0  0  0
   -7.8390   19.8120  -34.3090 H   0  0  0  0  0  0  0  0  0  0  0  0
   -5.4783   21.7010  -32.6331 H   0  0  0  0  0  0  0  0  0  0  0  0
   -1.1266   19.4801  -33.1175 H   0  0  0  0  0  0  0  0  0  0  0  0
   -1.4453   18.5961  -34.6484 H   0  0  0  0  0  0  0  0  0  0  0  0
   -1.3599   20.3904  -34.6484 H   0  0  0  0  0  0  0  0  0  0  0  0
   -6.4336   16.9483  -33.3359 H   0  0  0  0  0  0  0  0  0  0  0  0
   -6.9981   17.7117  -34.8608 H   0  0  0  0  0  0  0  0  0  0  0  0
   -5.5196   16.6915  -34.8608 H   0  0  0  0  0  0  0  0  0  0  0  0
  1  2  1  0
  2  3  1  0
  3  4  1  0
  4  5  1  0
  3  6  1  0
  6  7  1  0
  7  8  1  0
  8  9  1  0
  9 10  1  0
 10 11  1  0
 11 12  1  0
 12 13  1  0
 13 14  2  0
 14 15  1  0
 15 16  2  0
 15 17  1  0
 17 18  1  0
 17 19  1  0
 19 20  2  0
 19 21  1  0
 21 22  1  0
 21 13  1  0
  1 23  1  0
  1 24  1  0
  1 25  1  0
  2 26  1  0
  2 27  1  0
  4 28  1  0
  4 29  1  0
  5 30  1  0
  5 31  1  0
  5 32  1  0
  6 33  1  0
  6 34  1  0
  7 35  1  0
  7 36  1  0
  8 37  1  0
  9 38  1  0
  9 39  1  0
 10 40  1  0
 10 41  1  0
 11 42  1  0
 11 43  1  0
 12 44  1  0
 14 45  1  0
 18 46  1  0
 18 47  1  0
 18 48  1  0
 22 49  1  0
 22 50  1  0
 22 51  1  0
M  END
>  <UniqueID>  (27) 
26

>  <SMILES>  (27) 
CCN(CC)CCNCCCNc1cc(=O)n(C)c(=O)n1C

>  <Energy>  (27) 
50.979793495973446

>  <Genealogy>  (27) 
CCN(CC)CCNCCCNc1cc(=O)n(C)c(=O)n1C (3D coordinates assigned)
CCN(CC)CCNCCCNc1cc(=O)n(C)c(=O)n1C (optimized conformer: 50.979793495973446 kcal/mol)

>  <smiles>  (27) 
CCN(CC)CCNCCCNc1cc(=O)n(C)c(=O)n1C

>  <score_type>  (27) 
oracle

>  <origin>  (27) 
adg

>  <m_score__min__energy>  (27) 
-7.1399999999999997

>  <m_primary>  (27) 
energy

$$$$
27:0
     RDKit          3D

 56 58  0  0  0  0  0  0  0  0999 V2000
   -2.6470   23.5640  -27.1640 C   0  0  0  0  0  0  0  0  0  0  0  0
   -3.7680   24.6040  -27.1030 C   0  0  0  0  0  0  0  0  0  0  0  0
   -4.6300   24.5120  -28.2960 N   0  0  0  0  0  0  0  0  0  0  0  0
   -4.2380   23.3920  -29.1740 C   0  0  0  0  0  0  0  0  0  0  0  0
   -3.8260   23.8670  -30.5770 C   0  0  0  0  0  0  0  0  0  0  0  0
   -4.3330   25.2280  -30.8220 N   0  0  0  0  0  0  0  0  0  0  0  0
   -5.7550   25.2300  -31.2070 C   0  0  0  0  0  0  0  0  0  0  0  0
   -6.3380   23.8100  -31.2780 C   0  0  0  0  0  0  0  0  0  0  0  0
   -6.0090   23.1770  -32.5560 N   0  0  0  0  0  0  0  0  0  0  0  0
   -5.9540   21.7470  -32.6940 C   0  0  0  0  0  0  0  0  0  0  0  0
   -4.7330   21.1160  -32.9880 C   0  0  0  0  0  0  0  0  0  0  0  0
   -4.7210   19.7360  -33.2710 C   0  0  0  0  0  0  0  0  0  0  0  0
   -5.9030   19.0270  -33.3500 N   0  0  0  0  0  0  0  0  0  0  0  0
   -5.9090   17.6690  -33.9340 C   0  0  0  0  0  0  0  0  0  0  0  0
   -7.0750   19.5890  -32.8800 C   0  0  0  0  0  0  0  0  0  0  0  0
   -8.2520   18.8180  -32.6970 C   0  0  0  0  0  0  0  0  0  0  0  0
   -9.4290   19.4050  -32.2310 C   0  0  0  0  0  0  0  0  0  0  0  0
   -9.4600   20.7600  -31.9170 C   0  0  0  0  0  0  0  0  0  0  0  0
   -8.3140   21.5360  -32.0640 C   0  0  0  0  0  0  0  0  0  0  0  0
   -7.1170   20.9690  -32.5490 C   0  0  0  0  0  0  0  0  0  0  0  0
   -3.3730   19.0790  -33.5040 C   0  0  0  0  0  0  0  0  0  0  0  0
   -2.3300   19.6740  -32.5580 C   0  0  0  0  0  0  0  0  0  0  0  0
   -2.1660   21.1860  -32.7620 C   0  0  0  0  0  0  0  0  0  0  0  0
   -3.4590   21.9250  -33.1720 C   0  0  0  0  0  0  0  0  0  0  0  0
   -2.3481   23.2867  -26.1423 H   0  0  0  0  0  0  0  0  0  0  0  0
   -3.0044   22.6704  -27.6967 H   0  0  0  0  0  0  0  0  0  0  0  0
   -1.7827   23.9873  -27.6967 H   0  0  0  0  0  0  0  0  0  0  0  0
   -4.3761   24.4271  -26.2036 H   0  0  0  0  0  0  0  0  0  0  0  0
   -3.3181   25.6072  -27.0683 H   0  0  0  0  0  0  0  0  0  0  0  0
   -4.6060   25.4130  -28.8280 H   0  0  0  0  0  0  0  0  0  0  0  0
   -5.6150   24.3460  -27.9840 H   0  0  0  0  0  0  0  0  0  0  0  0
   -3.3888   22.8638  -28.7158 H   0  0  0  0  0  0  0  0  0  0  0  0
   -5.1098   22.7305  -29.2852 H   0  0  0  0  0  0  0  0  0  0  0  0
   -2.7286   23.8689  -30.6523 H   0  0  0  0  0  0  0  0  0  0  0  0
   -4.2525   23.1845  -31.3269 H   0  0  0  0  0  0  0  0  0  0  0  0
   -3.7630   25.6760  -31.5780 H   0  0  0  0  0  0  0  0  0  0  0  0
   -6.3226   25.8094  -30.4640 H   0  0  0  0  0  0  0  0  0  0  0  0
   -5.8336   25.6783  -32.2084 H   0  0  0  0  0  0  0  0  0  0  0  0
   -5.9199   23.2070  -30.4585 H   0  0  0  0  0  0  0  0  0  0  0  0
   -7.4324   23.8729  -31.1868 H   0  0  0  0  0  0  0  0  0  0  0  0
   -5.8730   23.7760  -33.4000 H   0  0  0  0  0  0  0  0  0  0  0  0
   -5.9123   16.9225  -33.1261 H   0  0  0  0  0  0  0  0  0  0  0  0
   -6.8077   17.5410  -34.5552 H   0  0  0  0  0  0  0  0  0  0  0  0
   -5.0114   17.5330  -34.5552 H   0  0  0  0  0  0  0  0  0  0  0  0
   -8.2364   17.7422  -32.9258 H   0  0  0  0  0  0  0  0  0  0  0  0
  -10.3359   18.7940  -32.1114 H   0  0  0  0  0  0  0  0  0  0  0  0
  -10.3910   21.2184  -31.5522 H   0  0  0  0  0  0  0  0  0  0  0  0
   -8.3421   22.6032  -31.7990 H   0  0  0  0  0  0  0  0  0  0  0  0
   -3.4579   17.9980  -33.3189 H   0  0  0  0  0  0  0  0  0  0  0  0
   -3.0601   19.2564  -34.5435 H   0  0  0  0  0  0  0  0  0  0  0  0
   -2.6440   19.4875  -31.5204 H   0  0  0  0  0  0  0  0  0  0  0  0
   -1.3634   19.1950  -32.7730 H   0  0  0  0  0  0  0  0  0  0  0  0
   -1.8063   21.6222  -31.8184 H   0  0  0  0  0  0  0  0  0  0  0  0
   -1.4580   21.3126  -33.5943 H   0  0  0  0  0  0  0  0  0  0  0  0
   -3.5407   22.8377  -32.5635 H   0  0  0  0  0  0  0  0  0  0  0  0
   -3.3728   22.1322  -34.2489 H   0  0  0  0  0  0  0  0  0  0  0  0
  1  2  1  0
  2  3  1  0
  3  4  1  0
  4  5  1  0
  5  6  1  0
  6  7  1  0
  7  8  1  0
  8  9  1  0
  9 10  1  0
 10 11  2  0
 11 12  1  0
 12 13  2  0
 13 14  1  0
 13 15  1  0
 15 16  2  0
 16 17  1  0
 17 18  2  0
 18 19  1  0
 19 20  2  0
 12 21  1  0
 21 22  1  0
 22 23  1  0
 23 24  1  0
 20 10  1  0
 24 11  1  0
 20 15  1  0
  1 25  1  0
  1 26  1  0
  1 27  1  0
  2 28  1  0
  2 29  1  0
  3 30  1  0
  3 31  1  0
  4 32  1  0
  4 33  1  0
  5 34  1  0
  5 35  1  0
  6 36  1  0
  7 37  1  0
  7 38  1  0
  8 39  1  0
  8 40  1  0
  9 41  1  0
 14 42  1  0
 14 43  1  0
 14 44  1  0
 16 45  1  0
 17 46  1  0
 18 47  1  0
 19 48  1  0
 21 49  1  0
 21 50  1  0
 22 51  1  0
 22 52  1  0
 23 53  1  0
 23 54  1  0
 24 55  1  0
 24 56  1  0
M  CHG  2   3   1  13   1
M  END
>  <UniqueID>  (28) 
27

>  <SMILES>  (28) 
CC[NH2+]CCNCCNc1c2c([n+](C)c3ccccc13)CCCC2

>  <Energy>  (28) 
75.58638586095798

>  <Genealogy>  (28) 
CC[NH2+]CCNCCNc1c2c([n+](C)c3ccccc13)CCCC2 (protonated)
CC[NH2+]CCNCCNc1c2c([n+](C)c3ccccc13)CCCC2 (3D coordinates assigned)
CC[NH2+]CCNCCNc1c2c([n+](C)c3ccccc13)CCCC2 (nonaromatic ring conformer: 75.58638586095798 kcal/mol)

>  <smiles>  (28) 
CCNCCNCCNc1c2c([n+](C)c3ccccc13)CCCC2

>  <score_type>  (28) 
oracle

>  <origin>  (28) 
adg

>  <m_score__min__energy>  (28) 
-8.8200000000000003

>  <m_primary>  (28) 
energy

$$$$
