0:0
     RDKit          3D

 41 43  0  0  0  0  0  0  0  0999 V2000
   -7.8160   23.0170  -31.5860 C   0  0  0  0  0  0  0  0  0  0  0  0
   -7.5990   22.0170  -32.5760 O   0  0  0  0  0  0  0  0  0  0  0  0
   -7.8370   20.6440  -32.3910 C   0  0  0  0  0  0  0  0  0  0  0  0
   -9.1380   20.1410  -32.1820 C   0  0  0  0  0  0  0  0  0  0  0  0
   -9.3430   18.7770  -31.9680 C   0  0  0  0  0  0  0  0  0  0  0  0
   -8.2600   17.8980  -31.9600 C   0  0  0  0  0  0  0  0  0  0  0  0
   -6.9670   18.3790  -32.1720 C   0  0  0  0  0  0  0  0  0  0  0  0
   -6.7420   19.7490  -32.3960 C   0  0  0  0  0  0  0  0  0  0  0  0
   -5.3600   20.2310  -32.6360 C   0  0  0  0  0  0  0  0  0  0  0  0
   -4.5050   19.5270  -33.5010 C   0  0  0  0  0  0  0  0  0  0  0  0
   -3.2040   19.9800  -33.7300 C   0  0  0  0  0  0  0  0  0  0  0  0
   -2.7440   21.1390  -33.1010 C   0  0  0  0  0  0  0  0  0  0  0  0
   -3.5800   21.8580  -32.2400 C   0  0  0  0  0  0  0  0  0  0  0  0
   -3.0660   23.0390  -31.6120 N   0  0  0  0  0  0  0  0  0  0  0  0
   -3.7460   23.8050  -30.2120 S   0  0  0  0  0  0  0  0  0  0  0  0
   -5.0670   23.1650  -29.8860 O   0  0  0  0  0  0  0  0  0  0  0  0
   -3.9380   25.2700  -30.4930 O   0  0  0  0  0  0  0  0  0  0  0  0
   -2.6650   23.6210  -28.8310 C   0  0  0  0  0  0  0  0  0  0  0  0
   -2.7500   22.4860  -28.0110 C   0  0  0  0  0  0  0  0  0  0  0  0
   -1.8930   22.3400  -26.9160 C   0  0  0  0  0  0  0  0  0  0  0  0
   -0.9440   23.3290  -26.6290 C   0  0  0  0  0  0  0  0  0  0  0  0
   -0.0850   23.1940  -25.5400 O   0  0  0  0  0  0  0  0  0  0  0  0
   -0.8560   24.4640  -27.4420 C   0  0  0  0  0  0  0  0  0  0  0  0
   -1.7120   24.6140  -28.5390 C   0  0  0  0  0  0  0  0  0  0  0  0
   -1.6080   25.7510  -29.3330 O   0  0  0  0  0  0  0  0  0  0  0  0
   -4.8930   21.4040  -32.0160 C   0  0  0  0  0  0  0  0  0  0  0  0
   -7.7190   22.5698  -30.5857 H   0  0  0  0  0  0  0  0  0  0  0  0
   -7.0706   23.8174  -31.7037 H   0  0  0  0  0  0  0  0  0  0  0  0
   -8.8261   23.4364  -31.7037 H   0  0  0  0  0  0  0  0  0  0  0  0
   -9.9969   20.8282  -32.1877 H   0  0  0  0  0  0  0  0  0  0  0  0
  -10.3613   18.3943  -31.8052 H   0  0  0  0  0  0  0  0  0  0  0  0
   -8.4251   16.8244  -31.7864 H   0  0  0  0  0  0  0  0  0  0  0  0
   -6.1170   17.6808  -32.1638 H   0  0  0  0  0  0  0  0  0  0  0  0
   -4.8624   18.6143  -34.0003 H   0  0  0  0  0  0  0  0  0  0  0  0
   -2.5401   19.4227  -34.4073 H   0  0  0  0  0  0  0  0  0  0  0  0
   -1.7173   21.4889  -33.2838 H   0  0  0  0  0  0  0  0  0  0  0  0
   -3.4948   21.7068  -28.2306 H   0  0  0  0  0  0  0  0  0  0  0  0
   -1.9643   21.4464  -26.2786 H   0  0  0  0  0  0  0  0  0  0  0  0
   -0.2340   23.7090  -24.6810 H   0  0  0  0  0  0  0  0  0  0  0  0
   -0.1110   25.2417  -27.2182 H   0  0  0  0  0  0  0  0  0  0  0  0
   -5.5599   21.9714  -31.3502 H   0  0  0  0  0  0  0  0  0  0  0  0
  1  2  1  0
  2  3  1  0
  3  4  2  0
  4  5  1  0
  5  6  2  0
  6  7  1  0
  7  8  2  0
  8  9  1  0
  9 10  2  0
 10 11  1  0
 11 12  2  0
 12 13  1  0
 13 14  1  0
 14 15  1  0
 15 16  2  0
 15 17  2  0
 15 18  1  0
 18 19  2  0
 19 20  1  0
 20 21  2  0
 21 22  1  0
 21 23  1  0
 23 24  2  0
 24 25  1  0
 13 26  2  0
  8  3  1  0
 26  9  1  0
 24 18  1  0
  1 27  1  0
  1 28  1  0
  1 29  1  0
  4 30  1  0
  5 31  1  0
  6 32  1  0
  7 33  1  0
 10 34  1  0
 11 35  1  0
 12 36  1  0
 19 37  1  0
 20 38  1  0
 22 39  1  0
 23 40  1  0
 26 41  1  0
M  CHG  2  14  -1  25  -1
M  END
>  <UniqueID>  (1) 
1

>  <SMILES>  (1) 
COc1ccccc1-c1cccc([N-]S(=O)(=O)c2ccc(O)cc2[O-])c1

>  <Energy>  (1) 
53.88946265286467

>  <Genealogy>  (1) 
COc1ccccc1-c1cccc([N-]S(=O)(=O)c2ccc(O)cc2[O-])c1 (protonated)
COc1ccccc1-c1cccc([N-]S(=O)(=O)c2ccc(O)cc2[O-])c1 (3D coordinates assigned)
COc1ccccc1-c1cccc([N-]S(=O)(=O)c2ccc(O)cc2[O-])c1 (optimized conformer: 53.88946265286467 kcal/mol)

>  <smiles>  (1) 
COc1ccccc1-c1cccc(NS(=O)(=O)c2ccc(O)cc2O)c1

>  <score_type>  (1) 
oracle

>  <origin>  (1) 
adg

>  <m_score__min__energy>  (1) 
-12.550000000000001

>  <m_primary>  (1) 
energy

$$$$
1:0
     RDKit          3D

 64 66  0  0  0  0  0  0  0  0999 V2000
    2.2060   24.6630  -24.1300 C   0  0  0  0  0  0  0  0  0  0  0  0
    2.2490   26.1950  -24.0940 C   0  0  0  0  0  0  0  0  0  0  0  0
    1.1120   26.8000  -23.3500 N   0  0  0  0  0  0  0  0  0  0  0  0
    1.2020   28.2760  -23.1680 C   0  0  0  0  0  0  0  0  0  0  0  0
    1.9280   28.7350  -21.9010 C   0  0  0  0  0  0  0  0  0  0  0  0
   -0.2450   26.3430  -23.7950 C   0  0  0  0  0  0  0  0  0  0  0  0
   -0.6070   26.5410  -25.2900 C   0  0  0  0  0  0  0  0  0  0  0  0
   -0.4660   25.2840  -26.0570 N   0  0  0  0  0  0  0  0  0  0  0  0
    0.6620   25.3580  -27.0210 C   0  0  0  0  0  0  0  0  0  0  0  0
    0.6440   24.1720  -27.9860 C   0  0  0  0  0  0  0  0  0  0  0  0
   -0.6390   24.1620  -28.8370 C   0  0  0  0  0  0  0  0  0  0  0  0
   -1.7990   24.9510  -28.1820 C   0  0  1  0  0  0  0  0  0  0  0  0
   -3.1720   24.5140  -28.7300 C   0  0  0  0  0  0  0  0  0  0  0  0
   -3.4950   25.2380  -29.9570 N   0  0  0  0  0  0  0  0  0  0  0  0
   -4.7050   25.0660  -30.7040 C   0  0  0  0  0  0  0  0  0  0  0  0
   -5.4480   26.0590  -30.9330 O   0  0  0  0  0  0  0  0  0  0  0  0
   -5.0810   23.7260  -31.2130 C   0  0  0  0  0  0  0  0  0  0  0  0
   -4.1010   22.7450  -31.4400 C   0  0  0  0  0  0  0  0  0  0  0  0
   -4.4580   21.4810  -31.9160 C   0  0  0  0  0  0  0  0  0  0  0  0
   -5.8030   21.1670  -32.1760 C   0  0  0  0  0  0  0  0  0  0  0  0
   -6.1830   19.8230  -32.6810 C   0  0  0  0  0  0  0  0  0  0  0  0
   -7.1940   19.0780  -32.0450 C   0  0  0  0  0  0  0  0  0  0  0  0
   -7.5490   17.8130  -32.5240 C   0  0  0  0  0  0  0  0  0  0  0  0
   -6.8990   17.2770  -33.6370 C   0  0  0  0  0  0  0  0  0  0  0  0
   -5.8930   18.0060  -34.2770 C   0  0  0  0  0  0  0  0  0  0  0  0
   -5.5350   19.2720  -33.8040 C   0  0  0  0  0  0  0  0  0  0  0  0
   -6.7840   22.1490  -31.9500 C   0  0  0  0  0  0  0  0  0  0  0  0
   -6.4270   23.4140  -31.4730 C   0  0  0  0  0  0  0  0  0  0  0  0
   -1.7430   24.7940  -26.6480 C   0  0  0  0  0  0  0  0  0  0  0  0
    2.1950   24.2722  -23.1018 H   0  0  0  0  0  0  0  0  0  0  0  0
    1.2983   24.3339  -24.6570 H   0  0  0  0  0  0  0  0  0  0  0  0
    3.0938   24.2835  -24.6570 H   0  0  0  0  0  0  0  0  0  0  0  0
    3.1870   26.5063  -23.6110 H   0  0  0  0  0  0  0  0  0  0  0  0
    2.1806   26.5465  -25.1341 H   0  0  0  0  0  0  0  0  0  0  0  0
    1.2050   26.4270  -22.3740 H   0  0  0  0  0  0  0  0  0  0  0  0
    1.7345   28.6936  -24.0352 H   0  0  0  0  0  0  0  0  0  0  0  0
    0.1665   28.6348  -23.0725 H   0  0  0  0  0  0  0  0  0  0  0  0
    1.3763   28.3862  -21.0156 H   0  0  0  0  0  0  0  0  0  0  0  0
    2.9447   28.3152  -21.8885 H   0  0  0  0  0  0  0  0  0  0  0  0
    1.9847   29.8335  -21.8885 H   0  0  0  0  0  0  0  0  0  0  0  0
   -0.3196   25.2675  -23.5765 H   0  0  0  0  0  0  0  0  0  0  0  0
   -0.9524   26.9819  -23.2460 H   0  0  0  0  0  0  0  0  0  0  0  0
   -1.6484   26.8879  -25.3619 H   0  0  0  0  0  0  0  0  0  0  0  0
    0.0851   27.2825  -25.7156 H   0  0  0  0  0  0  0  0  0  0  0  0
    0.5803   26.2911  -27.5978 H   0  0  0  0  0  0  0  0  0  0  0  0
    1.6053   25.3325  -26.4557 H   0  0  0  0  0  0  0  0  0  0  0  0
    1.5159   24.2398  -28.6532 H   0  0  0  0  0  0  0  0  0  0  0  0
    0.6763   23.2441  -27.3961 H   0  0  0  0  0  0  0  0  0  0  0  0
   -0.4155   24.6128  -29.8152 H   0  0  0  0  0  0  0  0  0  0  0  0
   -0.9637   23.1156  -28.9348 H   0  0  0  0  0  0  0  0  0  0  0  0
   -1.6742   26.0135  -28.4380 H   0  0  0  0  0  0  0  0  0  0  0  0
   -3.1484   23.4352  -28.9434 H   0  0  0  0  0  0  0  0  0  0  0  0
   -3.9404   24.7383  -27.9755 H   0  0  0  0  0  0  0  0  0  0  0  0
   -3.0437   22.9742  -31.2412 H   0  0  0  0  0  0  0  0  0  0  0  0
   -3.6788   20.7241  -32.0890 H   0  0  0  0  0  0  0  0  0  0  0  0
   -7.7080   19.4935  -31.1657 H   0  0  0  0  0  0  0  0  0  0  0  0
   -8.3422   17.2391  -32.0226 H   0  0  0  0  0  0  0  0  0  0  0  0
   -7.1786   16.2808  -34.0103 H   0  0  0  0  0  0  0  0  0  0  0  0
   -5.3819   17.5830  -35.1544 H   0  0  0  0  0  0  0  0  0  0  0  0
   -4.7425   19.8413  -34.3118 H   0  0  0  0  0  0  0  0  0  0  0  0
   -7.8411   21.9200  -32.1502 H   0  0  0  0  0  0  0  0  0  0  0  0
   -7.2057   24.1713  -31.2997 H   0  0  0  0  0  0  0  0  0  0  0  0
   -2.5743   25.3638  -26.2071 H   0  0  0  0  0  0  0  0  0  0  0  0
   -1.8167   23.7193  -26.4252 H   0  0  0  0  0  0  0  0  0  0  0  0
  1  2  1  0
  2  3  1  0
  3  4  1  0
  4  5  1  0
  3  6  1  0
  6  7  1  0
  7  8  1  0
  8  9  1  0
  9 10  1  0
 10 11  1  0
 11 12  1  0
 12 13  1  0
 13 14  1  0
 14 15  1  0
 15 16  2  0
 15 17  1  0
 17 18  2  0
 18 19  1  0
 19 20  2  0
 20 21  1  0
 21 22  2  0
 22 23  1  0
 23 24  2  0
 24 25  1  0
 25 26  2  0
 20 27  1  0
 27 28  2  0
 12 29  1  0
 29  8  1  0
 28 17  1  0
 26 21  1  0
  1 30  1  0
  1 31  1  0
  1 32  1  0
  2 33  1  0
  2 34  1  0
  3 35  1  0
  4 36  1  0
  4 37  1  0
  5 38  1  0
  5 39  1  0
  5 40  1  0
  6 41  1  0
  6 42  1  0
  7 43  1  0
  7 44  1  0
  9 45  1  0
  9 46  1  0
 10 47  1  0
 10 48  1  0
 11 49  1  0
 11 50  1  0
 12 51  1  1
 13 52  1  0
 13 53  1  0
 18 54  1  0
 19 55  1  0
 22 56  1  0
 23 57  1  0
 24 58  1  0
 25 59  1  0
 26 60  1  0
 27 61  1  0
 28 62  1  0
 29 63  1  0
 29 64  1  0
M  CHG  2   3   1  14  -1
M  END
>  <UniqueID>  (2) 
2

>  <SMILES>  (2) 
CC[NH+](CC)CCN1CCC[C@@H](C[N-]C(=O)c2ccc(-c3ccccc3)cc2)C1

>  <Energy>  (2) 
89.16250073929437

>  <Genealogy>  (2) 
CC[NH+](CC)CCN1CCCC(C[N-]C(=O)c2ccc(-c3ccccc3)cc2)C1 (protonated)
CC[NH+](CC)CCN1CCC[C@@H](C[N-]C(=O)c2ccc(-c3ccccc3)cc2)C1 (chirality)
CC[NH+](CC)CCN1CCC[C@@H](C[N-]C(=O)c2ccc(-c3ccccc3)cc2)C1 (3D coordinates assigned)
CC[NH+](CC)CCN1CCC[C@@H](C[N-]C(=O)c2ccc(-c3ccccc3)cc2)C1 (nonaromatic ring conformer: 89.16250073929437 kcal/mol)

>  <smiles>  (2) 
CCN(CC)CCN1CCCC(CNC(=O)c2ccc(-c3ccccc3)cc2)C1

>  <score_type>  (2) 
oracle

>  <origin>  (2) 
adg

>  <m_score__min__energy>  (2) 
-11.08

>  <m_primary>  (2) 
energy

$$$$
2:0
     RDKit          3D

 50 51  0  0  1  0  0  0  0  0999 V2000
   -6.5760   25.2530  -29.7680 C   0  0  0  0  0  0  0  0  0  0  0  0
   -5.3700   25.6810  -30.5260 C   0  0  0  0  0  0  0  0  0  0  0  0
   -4.4000   24.6650  -30.8440 N   0  0  0  0  0  0  0  0  0  0  0  0
   -3.6030   24.5480  -29.5630 C   0  0  0  0  0  0  0  0  0  0  0  0
   -2.6100   23.4200  -29.6720 C   0  0  0  0  0  0  0  0  0  0  0  0
   -4.9940   23.3400  -30.9150 C   0  0  0  0  0  0  0  0  0  0  0  0
   -4.9980   22.6070  -32.1810 C   0  0  0  0  0  0  0  0  0  0  0  0
   -6.2070   22.0760  -32.6640 N   0  0  0  0  0  0  0  0  0  0  0  0
   -6.5150   20.8510  -32.6720 C   0  0  0  0  0  0  0  0  0  0  0  0
   -5.6480   19.9790  -33.1930 N   0  0  0  0  0  0  0  0  0  0  0  0
   -5.9440   18.6730  -33.2180 C   0  0  0  0  0  0  0  0  0  0  0  0
   -4.9380   17.7830  -33.8110 C   0  0  0  0  0  0  0  0  0  0  0  0
   -5.1940   16.4220  -33.9800 C   0  0  0  0  0  0  0  0  0  0  0  0
   -4.2370   15.5760  -34.5350 C   0  0  0  0  0  0  0  0  0  0  0  0
   -3.0150   16.0570  -34.9320 C   0  0  0  0  0  0  0  0  0  0  0  0
   -2.0170   15.2710  -35.4890 O   0  0  0  0  0  0  0  0  0  0  0  0
   -1.9840   14.7890  -36.7970 C   0  0  0  0  0  0  0  0  0  0  0  0
   -2.7510   17.3960  -34.7720 C   0  0  0  0  0  0  0  0  0  0  0  0
   -3.6920   18.2670  -34.2170 C   0  0  0  0  0  0  0  0  0  0  0  0
   -7.0980   18.1770  -32.7340 N   0  0  0  0  0  0  0  0  0  0  0  0
   -7.9620   19.0600  -32.2130 C   0  0  0  0  0  0  0  0  0  0  0  0
   -9.2400   18.5110  -31.6660 C   0  0  0  0  0  0  0  0  0  0  0  0
   -7.7010   20.4140  -32.1640 C   0  0  0  0  0  0  0  0  0  0  0  0
   -8.7050   21.2400  -31.5690 C   0  0  0  0  0  0  0  0  0  0  0  0
   -9.5250   21.9270  -31.0990 N   0  0  0  0  0  0  0  0  0  0  0  0
   -6.3752   25.3243  -28.6888 H   0  0  0  0  0  0  0  0  0  0  0  0
   -7.4227   25.9055  -30.0273 H   0  0  0  0  0  0  0  0  0  0  0  0
   -6.8220   24.2127  -30.0273 H   0  0  0  0  0  0  0  0  0  0  0  0
   -5.7132   26.1198  -31.4745 H   0  0  0  0  0  0  0  0  0  0  0  0
   -4.8442   26.3763  -29.8551 H   0  0  0  0  0  0  0  0  0  0  0  0
   -3.0649   25.4902  -29.3820 H   0  0  0  0  0  0  0  0  0  0  0  0
   -4.2903   24.3432  -28.7289 H   0  0  0  0  0  0  0  0  0  0  0  0
   -2.3188   23.0892  -28.6642 H   0  0  0  0  0  0  0  0  0  0  0  0
   -3.0673   22.5802  -30.2157 H   0  0  0  0  0  0  0  0  0  0  0  0
   -1.7190   23.7671  -30.2157 H   0  0  0  0  0  0  0  0  0  0  0  0
   -4.4591   22.7128  -30.1866 H   0  0  0  0  0  0  0  0  0  0  0  0
   -6.0614   23.5312  -30.7302 H   0  0  0  0  0  0  0  0  0  0  0  0
   -4.6189   23.2946  -32.9513 H   0  0  0  0  0  0  0  0  0  0  0  0
   -4.3883   21.7164  -31.9687 H   0  0  0  0  0  0  0  0  0  0  0  0
   -6.1662   16.0110  -33.6703 H   0  0  0  0  0  0  0  0  0  0  0  0
   -4.4642   14.5066  -34.6568 H   0  0  0  0  0  0  0  0  0  0  0  0
   -1.9089   13.6917  -36.7816 H   0  0  0  0  0  0  0  0  0  0  0  0
   -2.9046   15.0862  -37.3206 H   0  0  0  0  0  0  0  0  0  0  0  0
   -1.1125   15.2089  -37.3206 H   0  0  0  0  0  0  0  0  0  0  0  0
   -1.7748   17.7919  -35.0887 H   0  0  0  0  0  0  0  0  0  0  0  0
   -3.4517   19.3340  -34.0997 H   0  0  0  0  0  0  0  0  0  0  0  0
   -7.3380   17.1820  -32.7430 H   0  0  0  0  0  0  0  0  0  0  0  0
   -9.2048   18.5261  -30.5667 H   0  0  0  0  0  0  0  0  0  0  0  0
  -10.0824   19.1266  -32.0144 H   0  0  0  0  0  0  0  0  0  0  0  0
   -9.3734   17.4762  -32.0144 H   0  0  0  0  0  0  0  0  0  0  0  0
  1  2  1  0
  2  3  1  0
  3  4  1  0
  4  5  1  0
  3  6  1  0
  6  7  1  0
  7  8  1  0
  8  9  2  0
  9 10  1  0
 10 11  2  0
 11 12  1  0
 12 13  2  0
 13 14  1  0
 14 15  2  0
 15 16  1  0
 16 17  1  0
 15 18  1  0
 18 19  2  0
 11 20  1  0
 20 21  1  0
 21 22  1  0
 21 23  2  0
 23 24  1  0
 24 25  3  0
 23  9  1  0
 19 12  1  0
  1 26  1  0
  1 27  1  0
  1 28  1  0
  2 29  1  0
  2 30  1  0
  4 31  1  0
  4 32  1  0
  5 33  1  0
  5 34  1  0
  5 35  1  0
  6 36  1  0
  6 37  1  0
  7 38  1  0
  7 39  1  0
 13 40  1  0
 14 41  1  0
 17 42  1  0
 17 43  1  0
 17 44  1  0
 18 45  1  0
 19 46  1  0
 20 47  1  0
 22 48  1  0
 22 49  1  0
 22 50  1  0
M  END
>  <smiles>  (3) 
CCN(CC)CCN=c1nc(-c2ccc(OC)cc2)[nH]c(C)c1C#N

>  <score_type>  (3) 
oracle

>  <origin>  (3) 
adg

>  <m_score__min__energy>  (3) 
-7.2000000000000002

>  <m_primary>  (3) 
energy

$$$$
3:0
     RDKit          3D

 36 38  0  0  0  0  0  0  0  0999 V2000
   -5.6160   25.6680  -30.1150 C   0  0  0  0  0  0  0  0  0  0  0  0
   -4.9580   24.6790  -30.9020 O   0  0  0  0  0  0  0  0  0  0  0  0
   -5.5670   23.5110  -31.3870 C   0  0  0  0  0  0  0  0  0  0  0  0
   -6.9620   23.3310  -31.3600 C   0  0  0  0  0  0  0  0  0  0  0  0
   -7.5380   22.1500  -31.8480 C   0  0  0  0  0  0  0  0  0  0  0  0
   -8.9280   21.9920  -31.8410 C   0  0  0  0  0  0  0  0  0  0  0  0
   -9.4890   20.8230  -32.3450 C   0  0  0  0  0  0  0  0  0  0  0  0
   -8.6950   19.8310  -32.8270 N   0  0  0  0  0  0  0  0  0  0  0  0
   -7.3340   19.9310  -32.8350 C   0  0  0  0  0  0  0  0  0  0  0  0
   -6.5490   18.7780  -33.3360 C   0  0  0  0  0  0  0  0  0  0  0  0
   -6.4990   17.5880  -32.5940 C   0  0  0  0  0  0  0  0  0  0  0  0
   -5.7390   16.5060  -33.0490 C   0  0  0  0  0  0  0  0  0  0  0  0
   -5.0150   16.6110  -34.2400 C   0  0  0  0  0  0  0  0  0  0  0  0
   -5.0460   17.7990  -34.9750 C   0  0  0  0  0  0  0  0  0  0  0  0
   -5.8050   18.8840  -34.5230 C   0  0  0  0  0  0  0  0  0  0  0  0
   -6.7170   21.1170  -32.3590 C   0  0  0  0  0  0  0  0  0  0  0  0
   -5.3230   21.3170  -32.4040 C   0  0  0  0  0  0  0  0  0  0  0  0
   -4.7470   22.5050  -31.9130 C   0  0  0  0  0  0  0  0  0  0  0  0
   -3.3590   22.7230  -31.9350 O   0  0  0  0  0  0  0  0  0  0  0  0
   -2.3780   21.6920  -31.9600 C   0  0  0  0  0  0  0  0  0  0  0  0
   -5.4680   25.4456  -29.0479 H   0  0  0  0  0  0  0  0  0  0  0  0
   -5.1962   26.6584  -30.3448 H   0  0  0  0  0  0  0  0  0  0  0  0
   -6.6917   25.6634  -30.3448 H   0  0  0  0  0  0  0  0  0  0  0  0
   -7.6063   24.1239  -30.9524 H   0  0  0  0  0  0  0  0  0  0  0  0
   -9.5734   22.7872  -31.4395 H   0  0  0  0  0  0  0  0  0  0  0  0
  -10.5822   20.7008  -32.3534 H   0  0  0  0  0  0  0  0  0  0  0  0
   -9.1550   18.9620  -33.1820 H   0  0  0  0  0  0  0  0  0  0  0  0
   -7.0596   17.5060  -31.6511 H   0  0  0  0  0  0  0  0  0  0  0  0
   -5.7109   15.5716  -32.4692 H   0  0  0  0  0  0  0  0  0  0  0  0
   -4.4205   15.7579  -34.5989 H   0  0  0  0  0  0  0  0  0  0  0  0
   -4.4729   17.8813  -35.9103 H   0  0  0  0  0  0  0  0  0  0  0  0
   -5.8192   19.8216  -35.0980 H   0  0  0  0  0  0  0  0  0  0  0  0
   -4.6759   20.5351  -32.8282 H   0  0  0  0  0  0  0  0  0  0  0  0
   -2.1127   21.4132  -30.9295 H   0  0  0  0  0  0  0  0  0  0  0  0
   -2.7822   20.8139  -32.4849 H   0  0  0  0  0  0  0  0  0  0  0  0
   -1.4809   22.0521  -32.4849 H   0  0  0  0  0  0  0  0  0  0  0  0
  1  2  1  0
  2  3  1  0
  3  4  2  0
  4  5  1  0
  5  6  2  0
  6  7  1  0
  7  8  2  0
  8  9  1  0
  9 10  1  0
 10 11  2  0
 11 12  1  0
 12 13  2  0
 13 14  1  0
 14 15  2  0
  9 16  2  0
 16 17  1  0
 17 18  2  0
 18 19  1  0
 19 20  1  0
 18  3  1  0
 16  5  1  0
 15 10  1  0
  1 21  1  0
  1 22  1  0
  1 23  1  0
  4 24  1  0
  6 25  1  0
  7 26  1  0
  8 27  1  0
 11 28  1  0
 12 29  1  0
 13 30  1  0
 14 31  1  0
 15 32  1  0
 17 33  1  0
 20 34  1  0
 20 35  1  0
 20 36  1  0
M  CHG  1   8   1
M  END
>  <UniqueID>  (4) 
3

>  <SMILES>  (4) 
COc1cc2cc[nH+]c(-c3ccccc3)c2cc1OC

>  <Energy>  (4) 
49.260209970190296

>  <Genealogy>  (4) 
COc1cc2cc[nH+]c(-c3ccccc3)c2cc1OC (protonated)
COc1cc2cc[nH+]c(-c3ccccc3)c2cc1OC (3D coordinates assigned)
COc1cc2cc[nH+]c(-c3ccccc3)c2cc1OC (optimized conformer: 49.260209970190296 kcal/mol)

>  <smiles>  (4) 
COc1cc2ccnc(-c3ccccc3)c2cc1OC

>  <score_type>  (4) 
oracle

>  <origin>  (4) 
adg

>  <m_score__min__energy>  (4) 
-7.6799999999999997

>  <m_primary>  (4) 
energy

$$$$
4:0
     RDKit          3D

 38 40  0  0  0  0  0  0  0  0999 V2000
   -2.5250   23.8580  -28.8060 C   0  0  0  0  0  0  0  0  0  0  0  0
   -3.6660   24.0070  -29.7530 C   0  0  0  0  0  0  0  0  0  0  0  0
   -4.6670   23.1140  -29.8710 N   0  0  0  0  0  0  0  0  0  0  0  0
   -5.4350   23.7020  -30.8110 C   0  0  0  0  0  0  0  0  0  0  0  0
   -6.7500   23.1220  -31.2770 C   0  0  2  0  0  0  0  0  0  0  0  0
   -7.6870   22.6870  -30.1570 C   0  0  0  0  0  0  0  0  0  0  0  0
   -8.6070   21.6810  -30.8250 C   0  0  0  0  0  0  0  0  0  0  0  0
   -7.9750   21.3840  -32.1860 C   0  0  0  0  0  0  0  0  0  0  0  0
   -6.6250   21.9800  -32.2040 N   0  0  0  0  0  0  0  0  0  0  0  0
   -5.6110   20.9800  -31.7850 C   0  0  0  0  0  0  0  0  0  0  0  0
   -5.5980   19.8190  -32.7360 C   0  0  0  0  0  0  0  0  0  0  0  0
   -4.7850   19.6590  -33.8420 C   0  0  0  0  0  0  0  0  0  0  0  0
   -5.0410   18.4660  -34.4150 N   0  0  0  0  0  0  0  0  0  0  0  0
   -5.9890   17.8710  -33.7050 N   0  0  0  0  0  0  0  0  0  0  0  0
   -6.5200   16.5500  -34.0200 C   0  0  0  0  0  0  0  0  0  0  0  0
   -6.3640   18.6690  -32.6850 C   0  0  0  0  0  0  0  0  0  0  0  0
   -7.3570   18.3050  -31.6210 C   0  0  0  0  0  0  0  0  0  0  0  0
   -4.9360   24.8870  -31.2180 N   0  0  0  0  0  0  0  0  0  0  0  0
   -3.8400   25.0370  -30.5410 O   0  0  0  0  0  0  0  0  0  0  0  0
   -2.8977   23.9067  -27.7722 H   0  0  0  0  0  0  0  0  0  0  0  0
   -2.0338   22.8881  -28.9734 H   0  0  0  0  0  0  0  0  0  0  0  0
   -1.8012   24.6693  -28.9734 H   0  0  0  0  0  0  0  0  0  0  0  0
   -7.1836   23.9830  -31.8068 H   0  0  0  0  0  0  0  0  0  0  0  0
   -7.1249   22.2189  -29.3354 H   0  0  0  0  0  0  0  0  0  0  0  0
   -8.2328   23.5297  -29.7075 H   0  0  0  0  0  0  0  0  0  0  0  0
   -8.6724   20.7623  -30.2236 H   0  0  0  0  0  0  0  0  0  0  0  0
   -9.6300   22.0718  -30.9285 H   0  0  0  0  0  0  0  0  0  0  0  0
   -7.9045   20.2964  -32.3351 H   0  0  0  0  0  0  0  0  0  0  0  0
   -8.5901   21.8089  -32.9929 H   0  0  0  0  0  0  0  0  0  0  0  0
   -4.6177   21.4526  -31.7762 H   0  0  0  0  0  0  0  0  0  0  0  0
   -5.8643   20.6146  -30.7788 H   0  0  0  0  0  0  0  0  0  0  0  0
   -4.0450   20.3905  -34.1988 H   0  0  0  0  0  0  0  0  0  0  0  0
   -6.7371   16.0100  -33.0866 H   0  0  0  0  0  0  0  0  0  0  0  0
   -7.4451   16.6567  -34.6055 H   0  0  0  0  0  0  0  0  0  0  0  0
   -5.7784   15.9868  -34.6055 H   0  0  0  0  0  0  0  0  0  0  0  0
   -6.9091   18.4692  -30.6298 H   0  0  0  0  0  0  0  0  0  0  0  0
   -8.2541   18.9327  -31.7265 H   0  0  0  0  0  0  0  0  0  0  0  0
   -7.6359   17.2462  -31.7265 H   0  0  0  0  0  0  0  0  0  0  0  0
  1  2  1  0
  2  3  2  0
  3  4  1  0
  4  5  1  0
  5  6  1  0
  6  7  1  0
  7  8  1  0
  8  9  1  0
  9 10  1  0
 10 11  1  0
 11 12  1  0
 12 13  2  0
 13 14  1  0
 14 15  1  0
 14 16  1  0
 16 17  1  0
  4 18  2  0
 18 19  1  0
 19  2  1  0
  9  5  1  0
 16 11  2  0
  1 20  1  0
  1 21  1  0
  1 22  1  0
  5 23  1  6
  6 24  1  0
  6 25  1  0
  7 26  1  0
  7 27  1  0
  8 28  1  0
  8 29  1  0
 10 30  1  0
 10 31  1  0
 12 32  1  0
 15 33  1  0
 15 34  1  0
 15 35  1  0
 17 36  1  0
 17 37  1  0
 17 38  1  0
M  END
>  <UniqueID>  (5) 
4

>  <SMILES>  (5) 
Cc1nc([C@@H]2CCCN2Cc2cnn(C)c2C)no1

>  <Energy>  (5) 
105.4230919676517

>  <Genealogy>  (5) 
Cc1nc([C@@H]2CCCN2Cc2cnn(C)c2C)no1 (chirality)
Cc1nc([C@@H]2CCCN2Cc2cnn(C)c2C)no1 (3D coordinates assigned)
Cc1nc([C@@H]2CCCN2Cc2cnn(C)c2C)no1 (nonaromatic ring conformer: 105.4230919676517 kcal/mol)

>  <smiles>  (5) 
Cc1nc(C2CCCN2Cc2cnn(C)c2C)no1

>  <score_type>  (5) 
oracle

>  <origin>  (5) 
adg

>  <m_score__min__energy>  (5) 
-8.1400000000000006

>  <m_primary>  (5) 
energy

$$$$
5:0
     RDKit          3D

 51 54  0  0  0  0  0  0  0  0999 V2000
   -2.7810   24.5470  -29.2640 C   0  0  0  0  0  0  0  0  0  0  0  0
   -3.5360   24.7660  -30.4510 O   0  0  0  0  0  0  0  0  0  0  0  0
   -4.8080   24.2290  -30.7030 C   0  0  0  0  0  0  0  0  0  0  0  0
   -5.9790   24.8930  -30.2850 C   0  0  0  0  0  0  0  0  0  0  0  0
   -7.2370   24.3650  -30.5730 C   0  0  0  0  0  0  0  0  0  0  0  0
   -7.3550   23.1610  -31.2750 C   0  0  0  0  0  0  0  0  0  0  0  0
   -8.7190   22.6130  -31.6040 C   0  0  0  0  0  0  0  0  0  0  0  0
   -8.7520   21.1590  -31.3970 N   0  0  0  0  0  0  0  0  0  0  0  0
   -8.6450   20.4370  -32.6710 C   0  0  0  0  0  0  0  0  0  0  0  0
   -7.3660   19.6560  -32.7030 C   0  0  0  0  0  0  0  0  0  0  0  0
   -6.5790   19.6080  -33.8620 C   0  0  0  0  0  0  0  0  0  0  0  0
   -5.4050   18.9190  -33.8470 N   0  0  0  0  0  0  0  0  0  0  0  0
   -4.9790   18.2860  -32.7220 C   0  0  0  0  0  0  0  0  0  0  0  0
   -5.7550   18.3440  -31.5630 C   0  0  0  0  0  0  0  0  0  0  0  0
   -6.9270   19.0320  -31.5780 N   0  0  0  0  0  0  0  0  0  0  0  0
   -6.1970   22.4910  -31.6930 C   0  0  0  0  0  0  0  0  0  0  0  0
   -4.9200   23.0090  -31.4090 C   0  0  0  0  0  0  0  0  0  0  0  0
   -3.7180   22.2640  -31.8610 C   0  0  0  0  0  0  0  0  0  0  0  0
   -2.6080   21.9490  -31.0800 C   0  0  0  0  0  0  0  0  0  0  0  0
   -1.6020   21.2680  -31.7770 C   0  0  0  0  0  0  0  0  0  0  0  0
   -1.9000   21.0420  -33.1220 C   0  0  0  0  0  0  0  0  0  0  0  0
   -1.0480   20.3510  -34.1220 C   0  0  0  0  0  0  0  0  0  0  0  0
   -0.2020   21.0920  -34.9690 C   0  0  0  0  0  0  0  0  0  0  0  0
    0.6030   20.4480  -35.9140 C   0  0  0  0  0  0  0  0  0  0  0  0
    0.5780   19.0550  -36.0270 C   0  0  0  0  0  0  0  0  0  0  0  0
    1.4080   18.3940  -36.9990 C   0  0  0  0  0  0  0  0  0  0  0  0
    2.0750   17.8610  -37.7810 N   0  0  0  0  0  0  0  0  0  0  0  0
   -0.2550   18.3060  -35.1890 C   0  0  0  0  0  0  0  0  0  0  0  0
   -1.0620   18.9470  -34.2440 C   0  0  0  0  0  0  0  0  0  0  0  0
   -3.4250   21.6980  -33.4190 S   0  0  0  0  0  0  0  0  0  0  0  0
   -3.4170   24.7315  -28.3857 H   0  0  0  0  0  0  0  0  0  0  0  0
   -2.4215   23.5076  -29.2446 H   0  0  0  0  0  0  0  0  0  0  0  0
   -1.9211   25.2327  -29.2446 H   0  0  0  0  0  0  0  0  0  0  0  0
   -5.8996   25.8371  -29.7261 H   0  0  0  0  0  0  0  0  0  0  0  0
   -8.1418   24.8984  -30.2462 H   0  0  0  0  0  0  0  0  0  0  0  0
   -9.4671   23.0886  -30.9527 H   0  0  0  0  0  0  0  0  0  0  0  0
   -8.9441   22.8277  -32.6591 H   0  0  0  0  0  0  0  0  0  0  0  0
   -7.9170   20.9050  -30.8190 H   0  0  0  0  0  0  0  0  0  0  0  0
   -9.4966   19.7484  -32.7737 H   0  0  0  0  0  0  0  0  0  0  0  0
   -8.6518   21.1591  -33.5007 H   0  0  0  0  0  0  0  0  0  0  0  0
   -6.9076   20.1232  -34.7767 H   0  0  0  0  0  0  0  0  0  0  0  0
   -4.8210   18.8810  -34.7120 H   0  0  0  0  0  0  0  0  0  0  0  0
   -4.0289   17.7316  -32.7249 H   0  0  0  0  0  0  0  0  0  0  0  0
   -5.4208   17.8373  -30.6456 H   0  0  0  0  0  0  0  0  0  0  0  0
   -6.2878   21.5472  -32.2507 H   0  0  0  0  0  0  0  0  0  0  0  0
   -2.5291   22.2109  -30.0146 H   0  0  0  0  0  0  0  0  0  0  0  0
   -0.6626   20.9410  -31.3074 H   0  0  0  0  0  0  0  0  0  0  0  0
   -0.1739   22.1886  -34.8866 H   0  0  0  0  0  0  0  0  0  0  0  0
    1.2580   21.0396  -36.5705 H   0  0  0  0  0  0  0  0  0  0  0  0
   -0.2752   17.2095  -35.2738 H   0  0  0  0  0  0  0  0  0  0  0  0
   -1.7140   18.3498  -33.5896 H   0  0  0  0  0  0  0  0  0  0  0  0
  1  2  1  0
  2  3  1  0
  3  4  2  0
  4  5  1  0
  5  6  2  0
  6  7  1  0
  7  8  1  0
  8  9  1  0
  9 10  1  0
 10 11  2  0
 11 12  1  0
 12 13  2  0
 13 14  1  0
 14 15  2  0
  6 16  1  0
 16 17  2  0
 17 18  1  0
 18 19  2  0
 19 20  1  0
 20 21  2  0
 21 22  1  0
 22 23  2  0
 23 24  1  0
 24 25  2  0
 25 26  1  0
 26 27  3  0
 25 28  1  0
 28 29  2  0
 21 30  1  0
 17  3  1  0
 30 18  1  0
 15 10  1  0
 29 22  1  0
  1 31  1  0
  1 32  1  0
  1 33  1  0
  4 34  1  0
  5 35  1  0
  7 36  1  0
  7 37  1  0
  8 38  1  0
  9 39  1  0
  9 40  1  0
 11 41  1  0
 12 42  1  0
 13 43  1  0
 14 44  1  0
 16 45  1  0
 19 46  1  0
 20 47  1  0
 23 48  1  0
 24 49  1  0
 28 50  1  0
 29 51  1  0
M  CHG  1  12   1
M  END
>  <UniqueID>  (6) 
5

>  <SMILES>  (6) 
COc1ccc(CNCc2c[nH+]ccn2)cc1-c1ccc(-c2ccc(C#N)cc2)s1

>  <Energy>  (6) 
85.97740665632413

>  <Genealogy>  (6) 
COc1ccc(CNCc2c[nH+]ccn2)cc1-c1ccc(-c2ccc(C#N)cc2)s1 (protonated)
COc1ccc(CNCc2c[nH+]ccn2)cc1-c1ccc(-c2ccc(C#N)cc2)s1 (3D coordinates assigned)
COc1ccc(CNCc2c[nH+]ccn2)cc1-c1ccc(-c2ccc(C#N)cc2)s1 (optimized conformer: 85.97740665632413 kcal/mol)

>  <smiles>  (6) 
COc1ccc(CNCc2cnccn2)cc1-c1ccc(-c2ccc(C#N)cc2)s1

>  <score_type>  (6) 
oracle

>  <origin>  (6) 
adg

>  <m_score__min__energy>  (6) 
-8.7899999999999991

>  <m_primary>  (6) 
energy

$$$$
6:0
     RDKit          3D

 32 33  0  0  0  0  0  0  0  0999 V2000
   -8.7130   18.9930  -31.5870 C   0  0  0  0  0  0  0  0  0  0  0  0
   -9.2250   20.1930  -32.3820 C   0  0  0  0  0  0  0  0  0  0  0  0
   -9.4780   21.4330  -31.5080 C   0  0  0  0  0  0  0  0  0  0  0  0
   -8.1950   22.0150  -30.8790 C   0  0  0  0  0  0  0  0  0  0  0  0
   -7.3460   22.7930  -31.8970 C   0  0  1  0  0  0  0  0  0  0  0  0
   -6.7680   23.9540  -31.2820 O   0  0  0  0  0  0  0  0  0  0  0  0
   -5.3820   23.8800  -31.3230 C   0  0  0  0  0  0  0  0  0  0  0  0
   -4.6100   24.7580  -30.8570 O   0  0  0  0  0  0  0  0  0  0  0  0
   -4.9830   22.6600  -31.9750 C   0  0  0  0  0  0  0  0  0  0  0  0
   -3.7210   22.1540  -32.2700 C   0  0  0  0  0  0  0  0  0  0  0  0
   -3.6450   20.9290  -32.9520 C   0  0  0  0  0  0  0  0  0  0  0  0
   -4.8190   20.2390  -33.3310 C   0  0  0  0  0  0  0  0  0  0  0  0
   -4.6820   19.0230  -34.0150 O   0  0  0  0  0  0  0  0  0  0  0  0
   -5.7670   18.2910  -34.5770 C   0  0  0  0  0  0  0  0  0  0  0  0
   -6.0850   20.7900  -33.0160 C   0  0  0  0  0  0  0  0  0  0  0  0
   -6.1370   22.0030  -32.3260 C   0  0  0  0  0  0  0  0  0  0  0  0
   -8.8019   19.2014  -30.5106 H   0  0  0  0  0  0  0  0  0  0  0  0
   -9.3103   18.1044  -31.8390 H   0  0  0  0  0  0  0  0  0  0  0  0
   -7.6581   18.8093  -31.8390 H   0  0  0  0  0  0  0  0  0  0  0  0
   -8.4777   20.4506  -33.1470 H   0  0  0  0  0  0  0  0  0  0  0  0
  -10.1883   19.9040  -32.8276 H   0  0  0  0  0  0  0  0  0  0  0  0
   -9.9430   22.2101  -32.1324 H   0  0  0  0  0  0  0  0  0  0  0  0
  -10.1299   21.1176  -30.6800 H   0  0  0  0  0  0  0  0  0  0  0  0
   -8.4787   22.6950  -30.0622 H   0  0  0  0  0  0  0  0  0  0  0  0
   -7.5900   21.1736  -30.5102 H   0  0  0  0  0  0  0  0  0  0  0  0
   -8.0230   23.0229  -32.7329 H   0  0  0  0  0  0  0  0  0  0  0  0
   -2.8102   22.6972  -31.9778 H   0  0  0  0  0  0  0  0  0  0  0  0
   -2.6608   20.5015  -33.1941 H   0  0  0  0  0  0  0  0  0  0  0  0
   -6.3855   17.8737  -33.7687 H   0  0  0  0  0  0  0  0  0  0  0  0
   -6.3790   18.9615  -35.1981 H   0  0  0  0  0  0  0  0  0  0  0  0
   -5.3744   17.4724  -35.1981 H   0  0  0  0  0  0  0  0  0  0  0  0
   -7.0101   20.2722  -33.3094 H   0  0  0  0  0  0  0  0  0  0  0  0
  1  2  1  0
  2  3  1  0
  3  4  1  0
  4  5  1  0
  5  6  1  0
  6  7  1  0
  7  8  2  0
  7  9  1  0
  9 10  2  0
 10 11  1  0
 11 12  2  0
 12 13  1  0
 13 14  1  0
 12 15  1  0
 15 16  2  0
 16  5  1  0
 16  9  1  0
  1 17  1  0
  1 18  1  0
  1 19  1  0
  2 20  1  0
  2 21  1  0
  3 22  1  0
  3 23  1  0
  4 24  1  0
  4 25  1  0
  5 26  1  6
 10 27  1  0
 11 28  1  0
 14 29  1  0
 14 30  1  0
 14 31  1  0
 15 32  1  0
M  END
>  <UniqueID>  (7) 
6

>  <SMILES>  (7) 
CCCC[C@H]1OC(=O)c2ccc(OC)cc21

>  <Energy>  (7) 
49.35663288697762

>  <Genealogy>  (7) 
CCCC[C@H]1OC(=O)c2ccc(OC)cc21 (chirality)
CCCC[C@H]1OC(=O)c2ccc(OC)cc21 (3D coordinates assigned)
CCCC[C@H]1OC(=O)c2ccc(OC)cc21 (nonaromatic ring conformer: 49.35663288697762 kcal/mol)

>  <smiles>  (7) 
CCCCC1OC(=O)c2ccc(OC)cc21

>  <score_type>  (7) 
oracle

>  <origin>  (7) 
adg

>  <m_score__min__energy>  (7) 
-6.6399999999999997

>  <m_primary>  (7) 
energy

$$$$
7:0
     RDKit          3D

 38 39  0  0  0  0  0  0  0  0999 V2000
   -5.8480   17.0990  -31.6150 C   0  0  0  0  0  0  0  0  0  0  0  0
   -6.2160   18.0010  -32.7240 N   0  0  1  0  0  0  0  0  0  0  0  0
   -7.6320   17.7520  -33.0960 C   0  0  0  0  0  0  0  0  0  0  0  0
   -8.6590   18.2080  -32.0440 C   0  0  0  0  0  0  0  0  0  0  0  0
   -9.2110   19.6170  -32.3060 C   0  0  0  0  0  0  0  0  0  0  0  0
   -8.1680   20.6590  -32.3350 N   0  0  0  0  0  0  0  0  0  0  0  0
   -8.4300   21.8840  -31.6240 C   0  0  0  0  0  0  0  0  0  0  0  0
   -9.1240   21.8540  -30.5700 O   0  0  0  0  0  0  0  0  0  0  0  0
   -7.9070   23.2060  -32.1230 C   0  0  0  0  0  0  0  0  0  0  0  0
   -6.7100   23.6530  -31.3270 C   0  0  0  0  0  0  0  0  0  0  0  0
   -6.8410   24.6720  -30.3680 C   0  0  0  0  0  0  0  0  0  0  0  0
   -5.7240   25.1100  -29.6480 C   0  0  0  0  0  0  0  0  0  0  0  0
   -4.4700   24.5410  -29.8870 C   0  0  0  0  0  0  0  0  0  0  0  0
   -4.3300   23.5360  -30.8490 C   0  0  0  0  0  0  0  0  0  0  0  0
   -5.4440   23.0950  -31.5700 C   0  0  0  0  0  0  0  0  0  0  0  0
   -6.8770   20.4510  -33.0180 C   0  0  0  0  0  0  0  0  0  0  0  0
   -5.9680   19.4060  -32.3190 C   0  0  0  0  0  0  0  0  0  0  0  0
   -6.0509   17.5964  -30.6551 H   0  0  0  0  0  0  0  0  0  0  0  0
   -6.4410   16.1749  -31.6817 H   0  0  0  0  0  0  0  0  0  0  0  0
   -4.7778   16.8535  -31.6817 H   0  0  0  0  0  0  0  0  0  0  0  0
   -5.5890   17.7420  -33.5210 H   0  0  0  0  0  0  0  0  0  0  0  0
   -7.8400   18.2879  -34.0338 H   0  0  0  0  0  0  0  0  0  0  0  0
   -7.7434   16.6616  -33.1893 H   0  0  0  0  0  0  0  0  0  0  0  0
   -9.4991   17.4979  -32.0453 H   0  0  0  0  0  0  0  0  0  0  0  0
   -8.1416   18.2356  -31.0737 H   0  0  0  0  0  0  0  0  0  0  0  0
   -9.7278   19.6139  -33.2770 H   0  0  0  0  0  0  0  0  0  0  0  0
   -9.8891   19.8597  -31.4746 H   0  0  0  0  0  0  0  0  0  0  0  0
   -7.6172   23.1017  -33.1790 H   0  0  0  0  0  0  0  0  0  0  0  0
   -8.7008   23.9593  -32.0114 H   0  0  0  0  0  0  0  0  0  0  0  0
   -7.8252   25.1269  -30.1827 H   0  0  0  0  0  0  0  0  0  0  0  0
   -5.8329   25.9028  -28.8933 H   0  0  0  0  0  0  0  0  0  0  0  0
   -3.5931   24.8838  -29.3182 H   0  0  0  0  0  0  0  0  0  0  0  0
   -3.3419   23.0915  -31.0389 H   0  0  0  0  0  0  0  0  0  0  0  0
   -5.3285   22.3083  -32.3302 H   0  0  0  0  0  0  0  0  0  0  0  0
   -7.0772   20.1076  -34.0437 H   0  0  0  0  0  0  0  0  0  0  0  0
   -6.3413   21.4115  -32.9965 H   0  0  0  0  0  0  0  0  0  0  0  0
   -4.9214   19.6507  -32.5532 H   0  0  0  0  0  0  0  0  0  0  0  0
   -6.1955   19.4649  -31.2444 H   0  0  0  0  0  0  0  0  0  0  0  0
  1  2  1  0
  2  3  1  0
  3  4  1  0
  4  5  1  0
  5  6  1  0
  6  7  1  0
  7  8  2  0
  7  9  1  0
  9 10  1  0
 10 11  2  0
 11 12  1  0
 12 13  2  0
 13 14  1  0
 14 15  2  0
  6 16  1  0
 16 17  1  0
 17  2  1  0
 15 10  1  0
  1 18  1  0
  1 19  1  0
  1 20  1  0
  2 21  1  6
  3 22  1  0
  3 23  1  0
  4 24  1  0
  4 25  1  0
  5 26  1  0
  5 27  1  0
  9 28  1  0
  9 29  1  0
 11 30  1  0
 12 31  1  0
 13 32  1  0
 14 33  1  0
 15 34  1  0
 16 35  1  0
 16 36  1  0
 17 37  1  0
 17 38  1  0
M  CHG  1   2   1
M  END
>  <UniqueID>  (8) 
7

>  <SMILES>  (8) 
C[N@H+]1CCCN(C(=O)Cc2ccccc2)CC1

>  <Energy>  (8) 
49.122490966967575

>  <Genealogy>  (8) 
C[NH+]1CCCN(C(=O)Cc2ccccc2)CC1 (protonated)
C[N@H+]1CCCN(C(=O)Cc2ccccc2)CC1 (chirality)
C[N@H+]1CCCN(C(=O)Cc2ccccc2)CC1 (3D coordinates assigned)
C[N@H+]1CCCN(C(=O)Cc2ccccc2)CC1 (nonaromatic ring conformer: 49.122490966967575 kcal/mol)

>  <smiles>  (8) 
CN1CCCN(C(=O)Cc2ccccc2)CC1

>  <score_type>  (8) 
oracle

>  <origin>  (8) 
adg

>  <m_score__min__energy>  (8) 
-4.1399999999999997

>  <m_primary>  (8) 
energy

$$$$
8:0
     RDKit          3D

 63 67  0  0  0  0  0  0  0  0999 V2000
   -2.7960   20.0090  -27.9120 C   0  0  0  0  0  0  0  0  0  0  0  0
   -3.1100   21.2940  -28.6710 C   0  0  0  0  0  0  0  0  0  0  0  0
   -2.5290   22.4960  -27.9630 C   0  0  0  0  0  0  0  0  0  0  0  0
   -1.5860   22.2960  -26.9420 C   0  0  0  0  0  0  0  0  0  0  0  0
   -1.0600   23.3800  -26.2380 C   0  0  0  0  0  0  0  0  0  0  0  0
   -1.4780   24.6880  -26.5260 C   0  0  0  0  0  0  0  0  0  0  0  0
   -0.9250   25.8030  -25.8020 N   0  0  0  0  0  0  0  0  0  0  0  0
   -0.6390   27.0670  -26.4940 C   0  0  0  0  0  0  0  0  0  0  0  0
   -0.8700   28.2850  -25.5690 C   0  0  0  0  0  0  0  0  0  0  0  0
   -1.1430   27.9360  -24.2210 O   0  0  0  0  0  0  0  0  0  0  0  0
   -0.2020   26.9860  -23.7680 C   0  0  0  0  0  0  0  0  0  0  0  0
   -0.5040   25.6310  -24.4050 C   0  0  0  0  0  0  0  0  0  0  0  0
   -2.4260   24.8930  -27.5400 C   0  0  0  0  0  0  0  0  0  0  0  0
   -2.9560   23.8100  -28.2560 C   0  0  0  0  0  0  0  0  0  0  0  0
   -3.9270   24.0580  -29.2840 N   0  0  0  0  0  0  0  0  0  0  0  0
   -3.5620   23.8040  -30.6820 C   0  0  0  0  0  0  0  0  0  0  0  0
   -4.7920   23.3920  -31.5200 C   0  0  0  0  0  0  0  0  0  0  0  0
   -6.0390   23.4500  -30.7310 N   0  0  0  0  0  0  0  0  0  0  0  0
   -7.2400   23.0640  -31.5080 C   0  0  0  0  0  0  0  0  0  0  0  0
   -7.3150   21.5830  -31.8380 C   0  0  0  0  0  0  0  0  0  0  0  0
   -6.3610   21.0070  -32.6900 C   0  0  0  0  0  0  0  0  0  0  0  0
   -6.4400   19.6480  -33.0050 C   0  0  0  0  0  0  0  0  0  0  0  0
   -5.5160   19.0400  -33.8670 C   0  0  0  0  0  0  0  0  0  0  0  0
   -5.6310   17.6780  -34.1600 C   0  0  0  0  0  0  0  0  0  0  0  0
   -6.6640   16.9210  -33.5970 C   0  0  0  0  0  0  0  0  0  0  0  0
   -7.5880   17.5230  -32.7360 C   0  0  0  0  0  0  0  0  0  0  0  0
   -7.4810   18.8840  -32.4350 C   0  0  0  0  0  0  0  0  0  0  0  0
   -8.3580   19.4550  -31.6150 O   0  0  0  0  0  0  0  0  0  0  0  0
   -8.3140   20.7460  -31.2970 C   0  0  0  0  0  0  0  0  0  0  0  0
   -9.1720   21.2040  -30.4960 O   0  0  0  0  0  0  0  0  0  0  0  0
   -6.1750   24.7520  -30.0570 C   0  0  0  0  0  0  0  0  0  0  0  0
   -5.1030   24.8770  -28.9670 C   0  0  0  0  0  0  0  0  0  0  0  0
   -2.8430   20.2014  -26.8300 H   0  0  0  0  0  0  0  0  0  0  0  0
   -3.5317   19.2362  -28.1793 H   0  0  0  0  0  0  0  0  0  0  0  0
   -1.7868   19.6626  -28.1793 H   0  0  0  0  0  0  0  0  0  0  0  0
   -2.6804   21.2292  -29.6816 H   0  0  0  0  0  0  0  0  0  0  0  0
   -4.2024   21.4122  -28.7239 H   0  0  0  0  0  0  0  0  0  0  0  0
   -1.2588   21.2753  -26.6948 H   0  0  0  0  0  0  0  0  0  0  0  0
   -0.3114   23.2075  -25.4507 H   0  0  0  0  0  0  0  0  0  0  0  0
    0.4099   27.0637  -26.8252 H   0  0  0  0  0  0  0  0  0  0  0  0
   -1.3209   27.1520  -27.3530 H   0  0  0  0  0  0  0  0  0  0  0  0
    0.0336   28.9120  -25.5889 H   0  0  0  0  0  0  0  0  0  0  0  0
   -1.7569   28.8130  -25.9495 H   0  0  0  0  0  0  0  0  0  0  0  0
    0.8107   27.3079  -24.0523 H   0  0  0  0  0  0  0  0  0  0  0  0
   -0.2640   26.8999  -22.6731 H   0  0  0  0  0  0  0  0  0  0  0  0
    0.4008   25.0063  -24.3737 H   0  0  0  0  0  0  0  0  0  0  0  0
   -1.3176   25.1472  -23.8446 H   0  0  0  0  0  0  0  0  0  0  0  0
   -2.7572   25.9150  -27.7760 H   0  0  0  0  0  0  0  0  0  0  0  0
   -3.1275   24.7193  -31.1103 H   0  0  0  0  0  0  0  0  0  0  0  0
   -2.8352   22.9787  -30.7054 H   0  0  0  0  0  0  0  0  0  0  0  0
   -4.8821   24.0737  -32.3786 H   0  0  0  0  0  0  0  0  0  0  0  0
   -4.6463   22.3536  -31.8524 H   0  0  0  0  0  0  0  0  0  0  0  0
   -8.1315   23.3332  -30.9226 H   0  0  0  0  0  0  0  0  0  0  0  0
   -7.1838   23.6004  -32.4667 H   0  0  0  0  0  0  0  0  0  0  0  0
   -5.5525   21.6239  -33.1092 H   0  0  0  0  0  0  0  0  0  0  0  0
   -4.7031   19.6331  -34.3113 H   0  0  0  0  0  0  0  0  0  0  0  0
   -4.9066   17.1997  -34.8357 H   0  0  0  0  0  0  0  0  0  0  0  0
   -6.7500   15.8498  -33.8318 H   0  0  0  0  0  0  0  0  0  0  0  0
   -8.3993   16.9249  -32.2955 H   0  0  0  0  0  0  0  0  0  0  0  0
   -6.0471   25.5606  -30.7918 H   0  0  0  0  0  0  0  0  0  0  0  0
   -7.1730   24.8265  -29.6005 H   0  0  0  0  0  0  0  0  0  0  0  0
   -4.7956   25.9300  -28.8849 H   0  0  0  0  0  0  0  0  0  0  0  0
   -5.5289   24.5226  -28.0167 H   0  0  0  0  0  0  0  0  0  0  0  0
  1  2  1  0
  2  3  1  0
  3  4  2  0
  4  5  1  0
  5  6  2  0
  6  7  1  0
  7  8  1  0
  8  9  1  0
  9 10  1  0
 10 11  1  0
 11 12  1  0
  6 13  1  0
 13 14  2  0
 14 15  1  0
 15 16  1  0
 16 17  1  0
 17 18  1  0
 18 19  1  0
 19 20  1  0
 20 21  2  0
 21 22  1  0
 22 23  2  0
 23 24  1  0
 24 25  2  0
 25 26  1  0
 26 27  2  0
 27 28  1  0
 28 29  1  0
 29 30  2  0
 18 31  1  0
 31 32  1  0
 14  3  1  0
 32 15  1  0
 12  7  1  0
 29 20  1  0
 27 22  1  0
  1 33  1  0
  1 34  1  0
  1 35  1  0
  2 36  1  0
  2 37  1  0
  4 38  1  0
  5 39  1  0
  8 40  1  0
  8 41  1  0
  9 42  1  0
  9 43  1  0
 11 44  1  0
 11 45  1  0
 12 46  1  0
 12 47  1  0
 13 48  1  0
 16 49  1  0
 16 50  1  0
 17 51  1  0
 17 52  1  0
 19 53  1  0
 19 54  1  0
 21 55  1  0
 23 56  1  0
 24 57  1  0
 25 58  1  0
 26 59  1  0
 31 60  1  0
 31 61  1  0
 32 62  1  0
 32 63  1  0
M  END
>  <UniqueID>  (9) 
8

>  <SMILES>  (9) 
CCc1ccc(N2CCOCC2)cc1N1CCN(Cc2cc3ccccc3oc2=O)CC1

>  <Energy>  (9) 
93.09218370026034

>  <Genealogy>  (9) 
CCc1ccc(N2CCOCC2)cc1N1CCN(Cc2cc3ccccc3oc2=O)CC1 (3D coordinates assigned)
CCc1ccc(N2CCOCC2)cc1N1CCN(Cc2cc3ccccc3oc2=O)CC1 (nonaromatic ring conformer: 93.09218370026034 kcal/mol)

>  <smiles>  (9) 
CCc1ccc(N2CCOCC2)cc1N1CCN(Cc2cc3ccccc3oc2=O)CC1

>  <score_type>  (9) 
oracle

>  <origin>  (9) 
adg

>  <m_score__min__energy>  (9) 
-10.08

>  <m_primary>  (9) 
energy

$$$$
9:0
     RDKit          3D

 55 57  0  0  0  0  0  0  0  0999 V2000
   -3.7470   23.6960  -28.0920 C   0  0  0  0  0  0  0  0  0  0  0  0
   -3.1950   24.5430  -29.2380 C   0  0  0  0  0  0  0  0  0  0  0  0
   -4.0120   24.4070  -30.4640 N   0  0  0  0  0  0  0  0  0  0  0  0
   -5.1560   25.3460  -30.5670 C   0  0  0  0  0  0  0  0  0  0  0  0
   -6.4180   24.8790  -29.8270 C   0  0  0  0  0  0  0  0  0  0  0  0
   -4.3930   23.0040  -30.7440 C   0  0  0  0  0  0  0  0  0  0  0  0
   -3.6460   22.5030  -31.9810 C   0  0  0  0  0  0  0  0  0  0  0  0
   -4.5800   22.2080  -33.0670 N   0  0  0  0  0  0  0  0  0  0  0  0
   -5.5180   21.1270  -32.9370 C   0  0  0  0  0  0  0  0  0  0  0  0
   -6.8420   21.3850  -32.5430 C   0  0  0  0  0  0  0  0  0  0  0  0
   -7.2950   22.7050  -32.3260 C   0  0  0  0  0  0  0  0  0  0  0  0
   -8.6080   22.9490  -31.9300 C   0  0  0  0  0  0  0  0  0  0  0  0
   -9.4900   21.8890  -31.7460 C   0  0  0  0  0  0  0  0  0  0  0  0
   -9.0640   20.5790  -31.9540 C   0  0  0  0  0  0  0  0  0  0  0  0
   -7.7330   20.2980  -32.3480 C   0  0  0  0  0  0  0  0  0  0  0  0
   -7.2950   19.0030  -32.5370 N   0  0  0  0  0  0  0  0  0  0  0  0
   -8.0160   17.9050  -31.8580 C   0  0  0  0  0  0  0  0  0  0  0  0
   -6.0920   18.7640  -33.1760 C   0  0  0  0  0  0  0  0  0  0  0  0
   -5.7600   17.5020  -33.7680 C   0  0  0  0  0  0  0  0  0  0  0  0
   -6.8340   16.5320  -34.2180 C   0  0  0  0  0  0  0  0  0  0  0  0
   -4.4080   17.2150  -34.0860 C   0  0  0  0  0  0  0  0  0  0  0  0
   -3.9770   15.8640  -34.5970 C   0  0  0  0  0  0  0  0  0  0  0  0
   -3.4500   18.2300  -34.0010 C   0  0  0  0  0  0  0  0  0  0  0  0
   -3.8140   19.5170  -33.6300 C   0  0  0  0  0  0  0  0  0  0  0  0
   -5.1350   19.8090  -33.2530 C   0  0  0  0  0  0  0  0  0  0  0  0
   -3.4548   24.1443  -27.1309 H   0  0  0  0  0  0  0  0  0  0  0  0
   -4.8442   23.6574  -28.1601 H   0  0  0  0  0  0  0  0  0  0  0  0
   -3.3393   22.6766  -28.1601 H   0  0  0  0  0  0  0  0  0  0  0  0
   -3.1887   25.5988  -28.9295 H   0  0  0  0  0  0  0  0  0  0  0  0
   -2.1775   24.1913  -29.4641 H   0  0  0  0  0  0  0  0  0  0  0  0
   -4.8472   26.3144  -30.1464 H   0  0  0  0  0  0  0  0  0  0  0  0
   -5.4187   25.4107  -31.6332 H   0  0  0  0  0  0  0  0  0  0  0  0
   -6.2506   24.9409  -28.7416 H   0  0  0  0  0  0  0  0  0  0  0  0
   -7.2654   25.5231  -30.1047 H   0  0  0  0  0  0  0  0  0  0  0  0
   -6.6420   23.8385  -30.1047 H   0  0  0  0  0  0  0  0  0  0  0  0
   -4.1323   22.3751  -29.8800 H   0  0  0  0  0  0  0  0  0  0  0  0
   -5.4764   22.9507  -30.9268 H   0  0  0  0  0  0  0  0  0  0  0  0
   -2.9390   23.2772  -32.3136 H   0  0  0  0  0  0  0  0  0  0  0  0
   -3.1075   21.5805  -31.7184 H   0  0  0  0  0  0  0  0  0  0  0  0
   -4.3140   22.5020  -34.0340 H   0  0  0  0  0  0  0  0  0  0  0  0
   -6.6042   23.5486  -32.4711 H   0  0  0  0  0  0  0  0  0  0  0  0
   -8.9481   23.9816  -31.7625 H   0  0  0  0  0  0  0  0  0  0  0  0
  -10.5267   22.0858  -31.4354 H   0  0  0  0  0  0  0  0  0  0  0  0
   -9.7725   19.7500  -31.8100 H   0  0  0  0  0  0  0  0  0  0  0  0
   -7.9334   18.0308  -30.7683 H   0  0  0  0  0  0  0  0  0  0  0  0
   -9.0762   17.9267  -32.1503 H   0  0  0  0  0  0  0  0  0  0  0  0
   -7.5747   16.9407  -32.1503 H   0  0  0  0  0  0  0  0  0  0  0  0
   -7.3224   16.0909  -33.3365 H   0  0  0  0  0  0  0  0  0  0  0  0
   -7.5816   17.0671  -34.8220 H   0  0  0  0  0  0  0  0  0  0  0  0
   -6.3776   15.7340  -34.8220 H   0  0  0  0  0  0  0  0  0  0  0  0
   -3.7653   15.2004  -33.7456 H   0  0  0  0  0  0  0  0  0  0  0  0
   -4.7812   15.4299  -35.2091 H   0  0  0  0  0  0  0  0  0  0  0  0
   -3.0699   15.9758  -35.2091 H   0  0  0  0  0  0  0  0  0  0  0  0
   -2.3977   18.0063  -34.2304 H   0  0  0  0  0  0  0  0  0  0  0  0
   -3.0593   20.3173  -33.6313 H   0  0  0  0  0  0  0  0  0  0  0  0
  1  2  1  0
  2  3  1  0
  3  4  1  0
  4  5  1  0
  3  6  1  0
  6  7  1  0
  7  8  1  0
  8  9  1  0
  9 10  2  0
 10 11  1  0
 11 12  2  0
 12 13  1  0
 13 14  2  0
 14 15  1  0
 15 16  2  0
 16 17  1  0
 16 18  1  0
 18 19  2  0
 19 20  1  0
 19 21  1  0
 21 22  1  0
 21 23  2  0
 23 24  1  0
 24 25  2  0
 25  9  1  0
 15 10  1  0
 25 18  1  0
  1 26  1  0
  1 27  1  0
  1 28  1  0
  2 29  1  0
  2 30  1  0
  4 31  1  0
  4 32  1  0
  5 33  1  0
  5 34  1  0
  5 35  1  0
  6 36  1  0
  6 37  1  0
  7 38  1  0
  7 39  1  0
  8 40  1  0
 11 41  1  0
 12 42  1  0
 13 43  1  0
 14 44  1  0
 17 45  1  0
 17 46  1  0
 17 47  1  0
 20 48  1  0
 20 49  1  0
 20 50  1  0
 22 51  1  0
 22 52  1  0
 22 53  1  0
 23 54  1  0
 24 55  1  0
M  CHG  1  16   1
M  END
>  <UniqueID>  (10) 
9

>  <SMILES>  (10) 
CCN(CC)CCNc1c2ccccc2[n+](C)c2c(C)c(C)ccc12

>  <Energy>  (10) 
93.76936425892646

>  <Genealogy>  (10) 
CCN(CC)CCNc1c2ccccc2[n+](C)c2c(C)c(C)ccc12 (3D coordinates assigned)
CCN(CC)CCNc1c2ccccc2[n+](C)c2c(C)c(C)ccc12 (optimized conformer: 93.76936425892646 kcal/mol)

>  <smiles>  (10) 
CCN(CC)CCNc1c2ccccc2[n+](C)c2c(C)c(C)ccc12

>  <score_type>  (10) 
oracle

>  <origin>  (10) 
adg

>  <m_score__min__energy>  (10) 
-9.1899999999999995

>  <m_primary>  (10) 
energy

$$$$
10:0
     RDKit          3D

 50 54  0  0  0  0  0  0  0  0999 V2000
    1.3680   19.5500  -31.9710 C   0  0  0  0  0  0  0  0  0  0  0  0
    0.6760   20.7030  -32.4410 O   0  0  0  0  0  0  0  0  0  0  0  0
   -0.7130   20.8800  -32.3510 C   0  0  0  0  0  0  0  0  0  0  0  0
   -1.3470   20.5750  -31.1390 C   0  0  0  0  0  0  0  0  0  0  0  0
   -2.7230   20.7650  -30.9900 C   0  0  0  0  0  0  0  0  0  0  0  0
   -3.4810   21.2820  -32.0490 C   0  0  0  0  0  0  0  0  0  0  0  0
   -4.8960   21.5000  -31.8980 N   0  0  0  0  0  0  0  0  0  0  0  0
   -5.3980   22.6780  -31.3780 C   0  0  0  0  0  0  0  0  0  0  0  0
   -4.5270   23.8100  -30.8560 C   0  0  1  0  0  0  0  0  0  0  0  0
   -5.5230   25.2850  -30.6530 Cl  0  0  0  0  0  0  0  0  0  0  0  0
   -3.6870   23.4200  -29.6520 C   0  0  0  0  0  0  0  0  0  0  0  0
   -4.2080   22.6760  -28.5730 C   0  0  0  0  0  0  0  0  0  0  0  0
   -3.3900   22.2960  -27.5070 C   0  0  0  0  0  0  0  0  0  0  0  0
   -2.0360   22.6540  -27.4920 C   0  0  0  0  0  0  0  0  0  0  0  0
   -1.2010   22.2560  -26.4360 C   0  0  0  0  0  0  0  0  0  0  0  0
    0.1480   22.6180  -26.4350 C   0  0  0  0  0  0  0  0  0  0  0  0
    0.6730   23.3780  -27.4840 C   0  0  0  0  0  0  0  0  0  0  0  0
   -0.1480   23.7800  -28.5410 C   0  0  0  0  0  0  0  0  0  0  0  0
   -1.5040   23.4210  -28.5560 C   0  0  0  0  0  0  0  0  0  0  0  0
   -2.3350   23.8060  -29.6190 C   0  0  0  0  0  0  0  0  0  0  0  0
   -6.7420   22.8460  -31.2740 N   0  0  0  0  0  0  0  0  0  0  0  0
   -7.6200   21.8980  -31.6800 C   0  0  0  0  0  0  0  0  0  0  0  0
   -8.9960   22.1200  -31.5590 C   0  0  0  0  0  0  0  0  0  0  0  0
   -9.9020   21.1420  -31.9770 C   0  0  0  0  0  0  0  0  0  0  0  0
   -9.4360   19.9410  -32.5170 C   0  0  0  0  0  0  0  0  0  0  0  0
   -8.0620   19.7120  -32.6410 C   0  0  0  0  0  0  0  0  0  0  0  0
   -7.1430   20.6930  -32.2210 C   0  0  0  0  0  0  0  0  0  0  0  0
   -5.7540   20.5150  -32.3220 C   0  0  0  0  0  0  0  0  0  0  0  0
   -5.2950   19.4390  -32.8020 O   0  0  0  0  0  0  0  0  0  0  0  0
   -2.8600   21.5430  -33.2790 C   0  0  0  0  0  0  0  0  0  0  0  0
   -1.4840   21.3550  -33.4290 C   0  0  0  0  0  0  0  0  0  0  0  0
    1.3700   19.5466  -30.8710 H   0  0  0  0  0  0  0  0  0  0  0  0
    0.8641   18.6443  -32.3395 H   0  0  0  0  0  0  0  0  0  0  0  0
    2.4043   19.5687  -32.3395 H   0  0  0  0  0  0  0  0  0  0  0  0
   -0.7563   20.1828  -30.2980 H   0  0  0  0  0  0  0  0  0  0  0  0
   -3.2126   20.5081  -30.0390 H   0  0  0  0  0  0  0  0  0  0  0  0
   -3.7588   24.0471  -31.6068 H   0  0  0  0  0  0  0  0  0  0  0  0
   -5.2707   22.3919  -28.5712 H   0  0  0  0  0  0  0  0  0  0  0  0
   -3.8111   21.7126  -26.6749 H   0  0  0  0  0  0  0  0  0  0  0  0
   -1.6098   21.6581  -25.6081 H   0  0  0  0  0  0  0  0  0  0  0  0
    0.7993   22.3040  -25.6060 H   0  0  0  0  0  0  0  0  0  0  0  0
    1.7360   23.6607  -27.4775 H   0  0  0  0  0  0  0  0  0  0  0  0
    0.2700   24.3794  -29.3632 H   0  0  0  0  0  0  0  0  0  0  0  0
   -1.9242   24.4170  -30.4362 H   0  0  0  0  0  0  0  0  0  0  0  0
   -9.3649   23.0653  -31.1344 H   0  0  0  0  0  0  0  0  0  0  0  0
  -10.9836   21.3180  -31.8807 H   0  0  0  0  0  0  0  0  0  0  0  0
  -10.1518   19.1732  -32.8456 H   0  0  0  0  0  0  0  0  0  0  0  0
   -7.6988   18.7650  -33.0669 H   0  0  0  0  0  0  0  0  0  0  0  0
   -3.4597   21.8977  -34.1302 H   0  0  0  0  0  0  0  0  0  0  0  0
   -1.0015   21.5787  -34.3919 H   0  0  0  0  0  0  0  0  0  0  0  0
  1  2  1  0
  2  3  1  0
  3  4  2  0
  4  5  1  0
  5  6  2  0
  6  7  1  0
  7  8  1  0
  8  9  1  0
  9 10  1  0
  9 11  1  0
 11 12  2  0
 12 13  1  0
 13 14  2  0
 14 15  1  0
 15 16  2  0
 16 17  1  0
 17 18  2  0
 18 19  1  0
 19 20  2  0
  8 21  2  0
 21 22  1  0
 22 23  2  0
 23 24  1  0
 24 25  2  0
 25 26  1  0
 26 27  2  0
 27 28  1  0
 28 29  2  0
  6 30  1  0
 30 31  2  0
 31  3  1  0
 28  7  1  0
 20 11  1  0
 27 22  1  0
 19 14  1  0
  1 32  1  0
  1 33  1  0
  1 34  1  0
  4 35  1  0
  5 36  1  0
  9 37  1  6
 12 38  1  0
 13 39  1  0
 15 40  1  0
 16 41  1  0
 17 42  1  0
 18 43  1  0
 20 44  1  0
 23 45  1  0
 24 46  1  0
 25 47  1  0
 26 48  1  0
 30 49  1  0
 31 50  1  0
M  END
>  <UniqueID>  (11) 
10

>  <SMILES>  (11) 
COc1ccc(-n2c([C@@H](Cl)c3ccc4ccccc4c3)nc3ccccc3c2=O)cc1

>  <Energy>  (11) 
75.31106389400937

>  <Genealogy>  (11) 
COc1ccc(-n2c([C@@H](Cl)c3ccc4ccccc4c3)nc3ccccc3c2=O)cc1 (chirality)
COc1ccc(-n2c([C@@H](Cl)c3ccc4ccccc4c3)nc3ccccc3c2=O)cc1 (3D coordinates assigned)
COc1ccc(-n2c([C@@H](Cl)c3ccc4ccccc4c3)nc3ccccc3c2=O)cc1 (optimized conformer: 75.31106389400937 kcal/mol)

>  <smiles>  (11) 
COc1ccc(-n2c(C(Cl)c3ccc4ccccc4c3)nc3ccccc3c2=O)cc1

>  <score_type>  (11) 
oracle

>  <origin>  (11) 
adg

>  <m_score__min__energy>  (11) 
-10.19

>  <m_primary>  (11) 
energy

$$$$
11:0
     RDKit          3D

 50 53  0  0  0  0  0  0  0  0999 V2000
   -2.7680   19.2330  -26.7260 C   0  0  0  0  0  0  0  0  0  0  0  0
   -2.2270   20.4290  -27.2820 O   0  0  0  0  0  0  0  0  0  0  0  0
   -2.9550   21.3330  -28.0710 C   0  0  0  0  0  0  0  0  0  0  0  0
   -3.1030   21.0550  -29.4360 C   0  0  0  0  0  0  0  0  0  0  0  0
   -3.8220   21.9230  -30.2620 C   0  0  0  0  0  0  0  0  0  0  0  0
   -4.4030   23.0820  -29.7330 C   0  0  0  0  0  0  0  0  0  0  0  0
   -5.3140   24.1630  -30.7800 S   0  0  0  0  0  0  0  0  0  0  0  0
   -4.4270   25.2940  -31.2180 O   0  0  0  0  0  0  0  0  0  0  0  0
   -6.4980   24.7330  -30.0480 O   0  0  0  0  0  0  0  0  0  0  0  0
   -5.8730   23.3000  -32.1760 N   0  0  0  0  0  0  0  0  0  0  0  0
   -7.0790   22.5170  -32.1770 C   0  0  0  0  0  0  0  0  0  0  0  0
   -8.3030   23.1170  -31.8280 C   0  0  0  0  0  0  0  0  0  0  0  0
   -9.4680   22.3550  -31.7320 C   0  0  0  0  0  0  0  0  0  0  0  0
   -9.4290   20.9840  -31.9760 C   0  0  0  0  0  0  0  0  0  0  0  0
   -8.2260   20.3720  -32.3280 C   0  0  0  0  0  0  0  0  0  0  0  0
   -7.0420   21.1240  -32.4450 C   0  0  0  0  0  0  0  0  0  0  0  0
   -5.8050   20.4470  -32.8980 C   0  0  0  0  0  0  0  0  0  0  0  0
   -4.6160   21.0730  -33.0480 N   0  0  0  0  0  0  0  0  0  0  0  0
   -3.6410   20.2470  -33.5180 C   0  0  0  0  0  0  0  0  0  0  0  0
   -2.2620   20.7650  -33.7780 C   0  0  0  0  0  0  0  0  0  0  0  0
   -4.0540   18.9260  -33.7440 C   0  0  0  0  0  0  0  0  0  0  0  0
   -3.2500   17.7930  -34.2510 C   0  0  0  0  0  0  0  0  0  0  0  0
   -3.7660   16.9120  -35.2170 C   0  0  0  0  0  0  0  0  0  0  0  0
   -2.9860   15.8540  -35.6950 C   0  0  0  0  0  0  0  0  0  0  0  0
   -1.6850   15.6710  -35.2220 C   0  0  0  0  0  0  0  0  0  0  0  0
   -1.1570   16.5510  -34.2740 C   0  0  0  0  0  0  0  0  0  0  0  0
   -1.9320   17.6110  -33.7930 C   0  0  0  0  0  0  0  0  0  0  0  0
   -5.6930   18.8330  -33.3670 S   0  0  0  0  0  0  0  0  0  0  0  0
   -4.2540   23.3700  -28.3700 C   0  0  0  0  0  0  0  0  0  0  0  0
   -3.5370   22.5010  -27.5410 C   0  0  0  0  0  0  0  0  0  0  0  0
   -2.7404   19.2939  -25.6280 H   0  0  0  0  0  0  0  0  0  0  0  0
   -3.8088   19.1113  -27.0605 H   0  0  0  0  0  0  0  0  0  0  0  0
   -2.1722   18.3709  -27.0605 H   0  0  0  0  0  0  0  0  0  0  0  0
   -2.6500   20.1470  -29.8606 H   0  0  0  0  0  0  0  0  0  0  0  0
   -3.9320   21.6948  -31.3324 H   0  0  0  0  0  0  0  0  0  0  0  0
   -5.3040   23.3780  -33.0480 H   0  0  0  0  0  0  0  0  0  0  0  0
   -8.3419   24.1981  -31.6288 H   0  0  0  0  0  0  0  0  0  0  0  0
  -10.4191   22.8378  -31.4631 H   0  0  0  0  0  0  0  0  0  0  0  0
  -10.3470   20.3840  -31.8911 H   0  0  0  0  0  0  0  0  0  0  0  0
   -8.2024   19.2885  -32.5164 H   0  0  0  0  0  0  0  0  0  0  0  0
   -1.7552   20.9554  -32.8204 H   0  0  0  0  0  0  0  0  0  0  0  0
   -1.6925   20.0195  -34.3524 H   0  0  0  0  0  0  0  0  0  0  0  0
   -2.3242   21.7011  -34.3524 H   0  0  0  0  0  0  0  0  0  0  0  0
   -4.7877   17.0552  -35.5987 H   0  0  0  0  0  0  0  0  0  0  0  0
   -3.3987   15.1640  -36.4458 H   0  0  0  0  0  0  0  0  0  0  0  0
   -1.0762   14.8345  -35.5956 H   0  0  0  0  0  0  0  0  0  0  0  0
   -0.1302   16.4099  -33.9054 H   0  0  0  0  0  0  0  0  0  0  0  0
   -1.5091   18.3061  -33.0528 H   0  0  0  0  0  0  0  0  0  0  0  0
   -4.7024   24.2826  -27.9504 H   0  0  0  0  0  0  0  0  0  0  0  0
   -3.4272   22.7307  -26.4709 H   0  0  0  0  0  0  0  0  0  0  0  0
  1  2  1  0
  2  3  1  0
  3  4  2  0
  4  5  1  0
  5  6  2  0
  6  7  1  0
  7  8  2  0
  7  9  2  0
  7 10  1  0
 10 11  1  0
 11 12  2  0
 12 13  1  0
 13 14  2  0
 14 15  1  0
 15 16  2  0
 16 17  1  0
 17 18  2  0
 18 19  1  0
 19 20  1  0
 19 21  2  0
 21 22  1  0
 22 23  2  0
 23 24  1  0
 24 25  2  0
 25 26  1  0
 26 27  2  0
 21 28  1  0
  6 29  1  0
 29 30  2  0
 30  3  1  0
 16 11  1  0
 28 17  1  0
 27 22  1  0
  1 31  1  0
  1 32  1  0
  1 33  1  0
  4 34  1  0
  5 35  1  0
 10 36  1  0
 12 37  1  0
 13 38  1  0
 14 39  1  0
 15 40  1  0
 20 41  1  0
 20 42  1  0
 20 43  1  0
 23 44  1  0
 24 45  1  0
 25 46  1  0
 26 47  1  0
 27 48  1  0
 29 49  1  0
 30 50  1  0
M  END
>  <UniqueID>  (12) 
11

>  <SMILES>  (12) 
COc1ccc(S(=O)(=O)Nc2ccccc2-c2nc(C)c(-c3ccccc3)s2)cc1

>  <Energy>  (12) 
95.99882974223638

>  <Genealogy>  (12) 
COc1ccc(S(=O)(=O)Nc2ccccc2-c2nc(C)c(-c3ccccc3)s2)cc1 (3D coordinates assigned)
COc1ccc(S(=O)(=O)Nc2ccccc2-c2nc(C)c(-c3ccccc3)s2)cc1 (optimized conformer: 95.99882974223638 kcal/mol)

>  <smiles>  (12) 
COc1ccc(S(=O)(=O)Nc2ccccc2-c2nc(C)c(-c3ccccc3)s2)cc1

>  <score_type>  (12) 
oracle

>  <origin>  (12) 
adg

>  <m_score__min__energy>  (12) 
-10.210000000000001

>  <m_primary>  (12) 
energy

$$$$
12:0
     RDKit          3D

 36 38  0  0  0  0  0  0  0  0999 V2000
   -2.3480   24.7590  -28.4900 C   0  0  0  0  0  0  0  0  0  0  0  0
   -3.1130   25.2770  -29.5740 O   0  0  0  0  0  0  0  0  0  0  0  0
   -4.1260   24.5690  -30.2360 C   0  0  0  0  0  0  0  0  0  0  0  0
   -5.4520   25.0380  -30.3100 C   0  0  0  0  0  0  0  0  0  0  0  0
   -6.4260   24.2960  -30.9840 C   0  0  0  0  0  0  0  0  0  0  0  0
   -6.0960   23.0710  -31.5840 C   0  0  0  0  0  0  0  0  0  0  0  0
   -7.1430   22.2880  -32.3390 C   0  0  0  0  0  0  0  0  0  0  0  0
   -6.7920   20.8460  -32.3900 N   0  0  1  0  0  0  0  0  0  0  0  0
   -7.1460   20.0420  -31.2190 C   0  0  2  0  0  0  0  0  0  0  0  0
   -6.6670   18.6310  -31.6320 C   0  0  0  0  0  0  0  0  0  0  0  0
   -6.9820   18.6340  -33.1420 C   0  0  0  0  0  0  0  0  0  0  0  0
   -7.5850   20.0460  -33.3230 C   0  0  1  0  0  0  0  0  0  0  0  0
   -9.0050   20.0090  -32.7120 C   0  0  0  0  0  0  0  0  0  0  0  0
   -8.6910   20.0060  -31.2100 C   0  0  0  0  0  0  0  0  0  0  0  0
   -4.7730   22.6080  -31.5180 C   0  0  0  0  0  0  0  0  0  0  0  0
   -3.7990   23.3520  -30.8450 C   0  0  0  0  0  0  0  0  0  0  0  0
   -2.8046   25.0682  -27.5382 H   0  0  0  0  0  0  0  0  0  0  0  0
   -2.3278   23.6607  -28.5473 H   0  0  0  0  0  0  0  0  0  0  0  0
   -1.3207   25.1481  -28.5473 H   0  0  0  0  0  0  0  0  0  0  0  0
   -5.7223   25.9927  -29.8351 H   0  0  0  0  0  0  0  0  0  0  0  0
   -7.4571   24.6744  -31.0445 H   0  0  0  0  0  0  0  0  0  0  0  0
   -8.1135   22.4048  -31.8345 H   0  0  0  0  0  0  0  0  0  0  0  0
   -7.1960   22.6734  -33.3679 H   0  0  0  0  0  0  0  0  0  0  0  0
   -5.7670   20.7710  -32.6150 H   0  0  0  0  0  0  0  0  0  0  0  0
   -6.7403   20.3920  -30.2583 H   0  0  0  0  0  0  0  0  0  0  0  0
   -5.5908   18.5006  -31.4455 H   0  0  0  0  0  0  0  0  0  0  0  0
   -7.1447   17.8122  -31.0741 H   0  0  0  0  0  0  0  0  0  0  0  0
   -6.0702   18.5054  -33.7438 H   0  0  0  0  0  0  0  0  0  0  0  0
   -7.6434   17.8169  -33.4658 H   0  0  0  0  0  0  0  0  0  0  0  0
   -7.5976   20.3995  -34.3646 H   0  0  0  0  0  0  0  0  0  0  0  0
   -9.5892   20.8959  -32.9987 H   0  0  0  0  0  0  0  0  0  0  0  0
   -9.6146   19.1560  -33.0447 H   0  0  0  0  0  0  0  0  0  0  0  0
   -9.1108   20.8912  -30.7098 H   0  0  0  0  0  0  0  0  0  0  0  0
   -9.1168   19.1512  -30.6642 H   0  0  0  0  0  0  0  0  0  0  0  0
   -4.5011   21.6561  -31.9975 H   0  0  0  0  0  0  0  0  0  0  0  0
   -2.7661   22.9773  -30.7937 H   0  0  0  0  0  0  0  0  0  0  0  0
  1  2  1  0
  2  3  1  0
  3  4  2  0
  4  5  1  0
  5  6  2  0
  6  7  1  0
  7  8  1  0
  8  9  1  0
  9 10  1  0
 10 11  1  0
 11 12  1  0
 12 13  1  0
 13 14  1  0
  6 15  1  0
 15 16  2  0
 16  3  1  0
 12  8  1  0
 14  9  1  0
  1 17  1  0
  1 18  1  0
  1 19  1  0
  4 20  1  0
  5 21  1  0
  7 22  1  0
  7 23  1  0
  8 24  1  6
  9 25  1  1
 10 26  1  0
 10 27  1  0
 11 28  1  0
 11 29  1  0
 12 30  1  6
 13 31  1  0
 13 32  1  0
 14 33  1  0
 14 34  1  0
 15 35  1  0
 16 36  1  0
M  CHG  1   8   1
M  END
>  <UniqueID>  (13) 
12

>  <SMILES>  (13) 
COc1ccc(C[NH+]2C3CCC2CC3)cc1

>  <Energy>  (13) 
70.06678968851837

>  <Genealogy>  (13) 
COc1ccc(C[NH+]2C3CCC2CC3)cc1 (protonated)
COc1ccc(C[NH+]2C3CCC2CC3)cc1 (3D coordinates assigned)
COc1ccc(C[NH+]2C3CCC2CC3)cc1 (nonaromatic ring conformer: 70.06678968851837 kcal/mol)

>  <smiles>  (13) 
COc1ccc(CN2C3CCC2CC3)cc1

>  <score_type>  (13) 
oracle

>  <origin>  (13) 
adg

>  <m_score__min__energy>  (13) 
-6.4299999999999997

>  <m_primary>  (13) 
energy

$$$$
13:0
     RDKit          3D

 60 62  0  0  0  0  0  0  0  0999 V2000
   -5.8920   25.6210  -29.7980 C   0  0  0  0  0  0  0  0  0  0  0  0
   -4.8820   24.9450  -30.6620 C   0  0  0  0  0  0  0  0  0  0  0  0
   -5.2530   24.3450  -31.7070 O   0  0  0  0  0  0  0  0  0  0  0  0
   -3.4950   25.0210  -30.3190 N   0  0  0  0  0  0  0  0  0  0  0  0
   -2.9760   24.8530  -28.9620 C   0  0  2  0  0  0  0  0  0  0  0  0
   -1.4370   24.6700  -29.0100 C   0  0  0  0  0  0  0  0  0  0  0  0
   -0.9710   23.2350  -28.7070 C   0  0  0  0  0  0  0  0  0  0  0  0
   -1.8640   22.1670  -29.3780 C   0  0  2  0  0  0  0  0  0  0  0  0
   -1.7230   22.1360  -30.9230 C   0  0  0  0  0  0  0  0  0  0  0  0
   -3.0480   22.3870  -31.6640 C   0  0  0  0  0  0  0  0  0  0  0  0
   -3.5680   21.1180  -32.2170 N   0  0  0  0  0  0  0  0  0  0  0  0
   -2.8870   20.7530  -33.4710 C   0  0  0  0  0  0  0  0  0  0  0  0
   -3.1860   19.2860  -33.7680 C   0  0  0  0  0  0  0  0  0  0  0  0
   -4.6030   18.9760  -33.5280 N   0  0  0  0  0  0  0  0  0  0  0  0
   -5.0700   17.6310  -33.7540 C   0  0  0  0  0  0  0  0  0  0  0  0
   -6.4440   17.3430  -33.7440 C   0  0  0  0  0  0  0  0  0  0  0  0
   -6.8980   16.0440  -33.9710 C   0  0  0  0  0  0  0  0  0  0  0  0
   -5.9890   15.0010  -34.2120 C   0  0  0  0  0  0  0  0  0  0  0  0
   -6.5110   13.6080  -34.4480 C   0  0  0  0  0  0  0  0  0  0  0  0
   -4.6020   15.2760  -34.2100 C   0  0  0  0  0  0  0  0  0  0  0  0
   -3.5900   14.1860  -34.4560 C   0  0  0  0  0  0  0  0  0  0  0  0
   -4.1570   16.5910  -33.9870 C   0  0  0  0  0  0  0  0  0  0  0  0
   -5.5760   20.0640  -33.3370 C   0  0  0  0  0  0  0  0  0  0  0  0
   -5.0310   21.1870  -32.4240 C   0  0  0  0  0  0  0  0  0  0  0  0
   -3.3550   22.3280  -28.9550 C   0  0  0  0  0  0  0  0  0  0  0  0
   -3.6720   23.6690  -28.2670 C   0  0  0  0  0  0  0  0  0  0  0  0
   -5.6410   25.4530  -28.7403 H   0  0  0  0  0  0  0  0  0  0  0  0
   -5.8905   26.7007  -30.0082 H   0  0  0  0  0  0  0  0  0  0  0  0
   -6.8896   25.2080  -30.0082 H   0  0  0  0  0  0  0  0  0  0  0  0
   -3.1925   25.7544  -28.3699 H   0  0  0  0  0  0  0  0  0  0  0  0
   -1.0868   24.9428  -30.0164 H   0  0  0  0  0  0  0  0  0  0  0  0
   -1.0136   25.3158  -28.2266 H   0  0  0  0  0  0  0  0  0  0  0  0
    0.0590   23.1141  -29.0736 H   0  0  0  0  0  0  0  0  0  0  0  0
   -1.0339   23.0866  -27.6189 H   0  0  0  0  0  0  0  0  0  0  0  0
   -1.5020   21.1942  -29.0137 H   0  0  0  0  0  0  0  0  0  0  0  0
   -1.0036   22.9122  -31.2229 H   0  0  0  0  0  0  0  0  0  0  0  0
   -1.3844   21.1260  -31.1974 H   0  0  0  0  0  0  0  0  0  0  0  0
   -3.7837   22.8068  -30.9622 H   0  0  0  0  0  0  0  0  0  0  0  0
   -2.8718   23.0940  -32.4881 H   0  0  0  0  0  0  0  0  0  0  0  0
   -3.2586   21.3824  -34.2931 H   0  0  0  0  0  0  0  0  0  0  0  0
   -1.8023   20.9067  -33.3724 H   0  0  0  0  0  0  0  0  0  0  0  0
   -2.9456   19.0762  -34.8207 H   0  0  0  0  0  0  0  0  0  0  0  0
   -2.5737   18.6623  -33.1001 H   0  0  0  0  0  0  0  0  0  0  0  0
   -7.1687   18.1488  -33.5555 H   0  0  0  0  0  0  0  0  0  0  0  0
   -7.9778   15.8345  -33.9612 H   0  0  0  0  0  0  0  0  0  0  0  0
   -6.6951   13.1167  -33.4812 H   0  0  0  0  0  0  0  0  0  0  0  0
   -7.4506   13.6601  -35.0176 H   0  0  0  0  0  0  0  0  0  0  0  0
   -5.7685   13.0298  -35.0176 H   0  0  0  0  0  0  0  0  0  0  0  0
   -3.2287   13.7969  -33.4926 H   0  0  0  0  0  0  0  0  0  0  0  0
   -4.0596   13.3718  -35.0274 H   0  0  0  0  0  0  0  0  0  0  0  0
   -2.7432   14.5940  -35.0274 H   0  0  0  0  0  0  0  0  0  0  0  0
   -3.0786   16.8075  -33.9953 H   0  0  0  0  0  0  0  0  0  0  0  0
   -5.8219   20.4947  -34.3188 H   0  0  0  0  0  0  0  0  0  0  0  0
   -6.4656   19.6375  -32.8505 H   0  0  0  0  0  0  0  0  0  0  0  0
   -5.2729   22.1572  -32.8825 H   0  0  0  0  0  0  0  0  0  0  0  0
   -5.5045   21.0629  -31.4389 H   0  0  0  0  0  0  0  0  0  0  0  0
   -3.9806   22.2456  -29.8560 H   0  0  0  0  0  0  0  0  0  0  0  0
   -3.5633   21.5370  -28.2195 H   0  0  0  0  0  0  0  0  0  0  0  0
   -4.7595   23.8323  -28.2916 H   0  0  0  0  0  0  0  0  0  0  0  0
   -3.3006   23.6162  -27.2330 H   0  0  0  0  0  0  0  0  0  0  0  0
  1  2  1  0
  2  3  2  0
  2  4  1  0
  4  5  1  0
  5  6  1  0
  6  7  1  0
  7  8  1  0
  8  9  1  0
  9 10  1  0
 10 11  1  0
 11 12  1  0
 12 13  1  0
 13 14  1  0
 14 15  1  0
 15 16  2  0
 16 17  1  0
 17 18  2  0
 18 19  1  0
 18 20  1  0
 20 21  1  0
 20 22  2  0
 14 23  1  0
 23 24  1  0
  8 25  1  0
 25 26  1  0
 26  5  1  0
 24 11  1  0
 22 15  1  0
  1 27  1  0
  1 28  1  0
  1 29  1  0
  5 30  1  1
  6 31  1  0
  6 32  1  0
  7 33  1  0
  7 34  1  0
  8 35  1  1
  9 36  1  0
  9 37  1  0
 10 38  1  0
 10 39  1  0
 12 40  1  0
 12 41  1  0
 13 42  1  0
 13 43  1  0
 16 44  1  0
 17 45  1  0
 19 46  1  0
 19 47  1  0
 19 48  1  0
 21 49  1  0
 21 50  1  0
 21 51  1  0
 22 52  1  0
 23 53  1  0
 23 54  1  0
 24 55  1  0
 24 56  1  0
 25 57  1  0
 25 58  1  0
 26 59  1  0
 26 60  1  0
M  CHG  1   4  -1
M  END
>  <UniqueID>  (14) 
13

>  <SMILES>  (14) 
CC(=O)[N-]C1CCC(CCN2CCN(c3ccc(C)c(C)c3)CC2)CC1

>  <Energy>  (14) 
69.52177021590573

>  <Genealogy>  (14) 
CC(=O)[N-]C1CCC(CCN2CCN(c3ccc(C)c(C)c3)CC2)CC1 (protonated)
CC(=O)[N-]C1CCC(CCN2CCN(c3ccc(C)c(C)c3)CC2)CC1 (3D coordinates assigned)
CC(=O)[N-]C1CCC(CCN2CCN(c3ccc(C)c(C)c3)CC2)CC1 (nonaromatic ring conformer: 69.52177021590573 kcal/mol)

>  <smiles>  (14) 
CC(=O)NC1CCC(CCN2CCN(c3ccc(C)c(C)c3)CC2)CC1

>  <score_type>  (14) 
oracle

>  <origin>  (14) 
adg

>  <m_score__min__energy>  (14) 
-10.67

>  <m_primary>  (14) 
energy

$$$$
14:0
     RDKit          3D

 60 63  0  0  0  0  0  0  0  0999 V2000
   -2.2970   22.7720  -30.2190 C   0  0  0  0  0  0  0  0  0  0  0  0
   -3.0620   23.8180  -30.8100 O   0  0  0  0  0  0  0  0  0  0  0  0
   -4.4580   23.9250  -30.7230 C   0  0  0  0  0  0  0  0  0  0  0  0
   -4.9990   25.0910  -30.1690 C   0  0  0  0  0  0  0  0  0  0  0  0
   -6.3820   25.2460  -30.0600 C   0  0  0  0  0  0  0  0  0  0  0  0
   -7.2390   24.2370  -30.5010 C   0  0  0  0  0  0  0  0  0  0  0  0
   -6.7200   23.0570  -31.0610 C   0  0  0  0  0  0  0  0  0  0  0  0
   -7.6320   21.9830  -31.5330 C   0  0  0  0  0  0  0  0  0  0  0  0
   -9.0190   22.2040  -31.6040 C   0  0  0  0  0  0  0  0  0  0  0  0
   -9.8760   21.1920  -32.0410 C   0  0  0  0  0  0  0  0  0  0  0  0
   -9.3610   19.9510  -32.4200 C   0  0  0  0  0  0  0  0  0  0  0  0
   -7.9780   19.7170  -32.3770 C   0  0  0  0  0  0  0  0  0  0  0  0
   -7.4260   18.3690  -32.7780 C   0  0  0  0  0  0  0  0  0  0  0  0
   -6.0650   18.4810  -33.3760 N   0  0  0  0  0  0  0  0  0  0  0  0
   -5.0300   18.6090  -32.3010 C   0  0  0  0  0  0  0  0  0  0  0  0
   -3.8400   19.4790  -32.6640 C   0  0  0  0  0  0  0  0  0  0  0  0
   -4.0310   20.7950  -33.1170 C   0  0  0  0  0  0  0  0  0  0  0  0
   -2.9340   21.5930  -33.4560 C   0  0  0  0  0  0  0  0  0  0  0  0
   -1.6380   21.0800  -33.3620 C   0  0  0  0  0  0  0  0  0  0  0  0
   -0.5750   21.8540  -33.6930 F   0  0  0  0  0  0  0  0  0  0  0  0
   -1.4390   19.7640  -32.9390 C   0  0  0  0  0  0  0  0  0  0  0  0
   -2.5340   18.9620  -32.5990 C   0  0  0  0  0  0  0  0  0  0  0  0
   -5.7630   17.4140  -34.3900 C   0  0  0  0  0  0  0  0  0  0  0  0
   -6.0320   15.9750  -33.8300 C   0  0  0  0  0  0  0  0  0  0  0  0
   -4.7580   15.2740  -33.3440 C   0  0  0  0  0  0  0  0  0  0  0  0
   -3.7560   15.0710  -34.4950 C   0  0  0  0  0  0  0  0  0  0  0  0
   -3.8330   16.1810  -35.5580 C   0  0  0  0  0  0  0  0  0  0  0  0
   -4.3060   17.5040  -34.9480 C   0  0  0  0  0  0  0  0  0  0  0  0
   -7.1210   20.7290  -31.9160 C   0  0  0  0  0  0  0  0  0  0  0  0
   -5.3240   22.9080  -31.1670 C   0  0  0  0  0  0  0  0  0  0  0  0
   -2.3541   22.8501  -29.1233 H   0  0  0  0  0  0  0  0  0  0  0  0
   -2.6980   21.7988  -30.5387 H   0  0  0  0  0  0  0  0  0  0  0  0
   -1.2481   22.8592  -30.5387 H   0  0  0  0  0  0  0  0  0  0  0  0
   -4.3301   25.8903  -29.8173 H   0  0  0  0  0  0  0  0  0  0  0  0
   -6.7977   26.1668  -29.6249 H   0  0  0  0  0  0  0  0  0  0  0  0
   -8.3276   24.3659  -30.4098 H   0  0  0  0  0  0  0  0  0  0  0  0
   -9.4318   23.1813  -31.3131 H   0  0  0  0  0  0  0  0  0  0  0  0
  -10.9600   21.3731  -32.0868 H   0  0  0  0  0  0  0  0  0  0  0  0
  -10.0417   19.1538  -32.7535 H   0  0  0  0  0  0  0  0  0  0  0  0
   -7.3708   17.7277  -31.8860 H   0  0  0  0  0  0  0  0  0  0  0  0
   -8.0968   17.9377  -33.5357 H   0  0  0  0  0  0  0  0  0  0  0  0
   -5.5118   19.0417  -31.4118 H   0  0  0  0  0  0  0  0  0  0  0  0
   -4.6336   17.5972  -32.1305 H   0  0  0  0  0  0  0  0  0  0  0  0
   -5.0498   21.2002  -33.2056 H   0  0  0  0  0  0  0  0  0  0  0  0
   -3.0918   22.6267  -33.7974 H   0  0  0  0  0  0  0  0  0  0  0  0
   -0.4192   19.3571  -32.8730 H   0  0  0  0  0  0  0  0  0  0  0  0
   -2.3724   17.9220  -32.2793 H   0  0  0  0  0  0  0  0  0  0  0  0
   -6.4550   17.6000  -35.2246 H   0  0  0  0  0  0  0  0  0  0  0  0
   -6.7332   16.0526  -32.9860 H   0  0  0  0  0  0  0  0  0  0  0  0
   -6.4453   15.3734  -34.6529 H   0  0  0  0  0  0  0  0  0  0  0  0
   -4.2866   15.8888  -32.5631 H   0  0  0  0  0  0  0  0  0  0  0  0
   -5.0355   14.2861  -32.9477 H   0  0  0  0  0  0  0  0  0  0  0  0
   -2.7389   15.0557  -34.0764 H   0  0  0  0  0  0  0  0  0  0  0  0
   -4.0091   14.1217  -34.9897 H   0  0  0  0  0  0  0  0  0  0  0  0
   -2.8352   16.3257  -35.9979 H   0  0  0  0  0  0  0  0  0  0  0  0
   -4.5570   15.8751  -36.3276 H   0  0  0  0  0  0  0  0  0  0  0  0
   -3.6285   17.7761  -34.1252 H   0  0  0  0  0  0  0  0  0  0  0  0
   -4.2974   18.2631  -35.7441 H   0  0  0  0  0  0  0  0  0  0  0  0
   -6.0392   20.5398  -31.8536 H   0  0  0  0  0  0  0  0  0  0  0  0
   -4.9059   21.9878  -31.6011 H   0  0  0  0  0  0  0  0  0  0  0  0
  1  2  1  0
  2  3  1  0
  3  4  2  0
  4  5  1  0
  5  6  2  0
  6  7  1  0
  7  8  1  0
  8  9  2  0
  9 10  1  0
 10 11  2  0
 11 12  1  0
 12 13  1  0
 13 14  1  0
 14 15  1  0
 15 16  1  0
 16 17  2  0
 17 18  1  0
 18 19  2  0
 19 20  1  0
 19 21  1  0
 21 22  2  0
 14 23  1  0
 23 24  1  0
 24 25  1  0
 25 26  1  0
 26 27  1  0
 27 28  1  0
 12 29  2  0
  7 30  2  0
 30  3  1  0
 29  8  1  0
 22 16  1  0
 28 23  1  0
  1 31  1  0
  1 32  1  0
  1 33  1  0
  4 34  1  0
  5 35  1  0
  6 36  1  0
  9 37  1  0
 10 38  1  0
 11 39  1  0
 13 40  1  0
 13 41  1  0
 15 42  1  0
 15 43  1  0
 17 44  1  0
 18 45  1  0
 21 46  1  0
 22 47  1  0
 23 48  1  0
 24 49  1  0
 24 50  1  0
 25 51  1  0
 25 52  1  0
 26 53  1  0
 26 54  1  0
 27 55  1  0
 27 56  1  0
 28 57  1  0
 28 58  1  0
 29 59  1  0
 30 60  1  0
M  END
>  <UniqueID>  (15) 
14

>  <SMILES>  (15) 
COc1cccc(-c2cccc(CN(Cc3ccc(F)cc3)C3CCCCC3)c2)c1

>  <Energy>  (15) 
83.75255067029396

>  <Genealogy>  (15) 
COc1cccc(-c2cccc(CN(Cc3ccc(F)cc3)C3CCCCC3)c2)c1 (3D coordinates assigned)
COc1cccc(-c2cccc(CN(Cc3ccc(F)cc3)C3CCCCC3)c2)c1 (nonaromatic ring conformer: 83.75255067029396 kcal/mol)

>  <smiles>  (15) 
COc1cccc(-c2cccc(CN(Cc3ccc(F)cc3)C3CCCCC3)c2)c1

>  <score_type>  (15) 
oracle

>  <origin>  (15) 
adg

>  <m_score__min__energy>  (15) 
-9.9399999999999995

>  <m_primary>  (15) 
energy

$$$$
15:0
     RDKit          3D

 52 54  0  0  0  0  0  0  0  0999 V2000
   -8.4880   23.3530  -31.9810 O   0  0  0  0  0  0  0  0  0  0  0  0
   -7.4990   22.6180  -31.7160 C   0  0  0  0  0  0  0  0  0  0  0  0
   -6.3330   23.2070  -30.9550 C   0  0  0  0  0  0  0  0  0  0  0  0
   -4.9720   22.8800  -31.5920 C   0  0  0  0  0  0  0  0  0  0  0  0
   -3.8550   23.5900  -30.8160 C   0  0  0  0  0  0  0  0  0  0  0  0
   -4.0660   24.9910  -30.8020 O   0  0  0  0  0  0  0  0  0  0  0  0
   -5.2460   25.2960  -30.0820 C   0  0  0  0  0  0  0  0  0  0  0  0
   -6.4850   24.7260  -30.7860 C   0  0  0  0  0  0  0  0  0  0  0  0
   -7.5250   21.2400  -32.1140 N   0  0  0  0  0  0  0  0  0  0  0  0
   -6.7200   20.7830  -33.2500 C   0  0  0  0  0  0  0  0  0  0  0  0
   -6.1980   19.3490  -33.0200 C   0  0  0  0  0  0  0  0  0  0  0  0
   -7.0090   18.5640  -32.0500 N   0  0  0  0  0  0  0  0  0  0  0  0
   -6.8600   17.1070  -32.2700 C   0  0  0  0  0  0  0  0  0  0  0  0
   -5.3920   16.6640  -32.1010 C   0  0  0  0  0  0  0  0  0  0  0  0
   -4.9330   15.7350  -33.1570 N   0  0  0  0  0  0  0  0  0  0  0  0
   -3.9030   14.7580  -32.7430 C   0  0  0  0  0  0  0  0  0  0  0  0
   -4.4810   13.3670  -32.3880 C   0  0  0  0  0  0  0  0  0  0  0  0
   -5.5960   12.9230  -33.2470 N   0  0  0  0  0  0  0  0  0  0  0  0
   -5.7850   13.7610  -34.4340 C   0  0  0  0  0  0  0  0  0  0  0  0
   -6.0160   15.2170  -34.0210 C   0  0  0  0  0  0  0  0  0  0  0  0
   -8.4330   18.9470  -32.1040 C   0  0  0  0  0  0  0  0  0  0  0  0
   -8.5890   20.3810  -31.5920 C   0  0  0  0  0  0  0  0  0  0  0  0
   -6.3511   22.7319  -29.9630 H   0  0  0  0  0  0  0  0  0  0  0  0
   -4.8052   21.7932  -31.5609 H   0  0  0  0  0  0  0  0  0  0  0  0
   -4.9661   23.2244  -32.6367 H   0  0  0  0  0  0  0  0  0  0  0  0
   -3.8409   23.2168  -29.7813 H   0  0  0  0  0  0  0  0  0  0  0  0
   -2.8945   23.3824  -31.3103 H   0  0  0  0  0  0  0  0  0  0  0  0
   -5.1741   24.8621  -29.0738 H   0  0  0  0  0  0  0  0  0  0  0  0
   -5.3482   26.3898  -30.0254 H   0  0  0  0  0  0  0  0  0  0  0  0
   -7.3790   24.9388  -30.1815 H   0  0  0  0  0  0  0  0  0  0  0  0
   -6.5881   25.1937  -31.7763 H   0  0  0  0  0  0  0  0  0  0  0  0
   -7.3397   20.7983  -34.1587 H   0  0  0  0  0  0  0  0  0  0  0  0
   -5.8566   21.4557  -33.3594 H   0  0  0  0  0  0  0  0  0  0  0  0
   -6.2019   18.8195  -33.9842 H   0  0  0  0  0  0  0  0  0  0  0  0
   -5.1878   19.4397  -32.5942 H   0  0  0  0  0  0  0  0  0  0  0  0
   -7.4834   16.5685  -31.5410 H   0  0  0  0  0  0  0  0  0  0  0  0
   -7.1772   16.8759  -33.2976 H   0  0  0  0  0  0  0  0  0  0  0  0
   -4.7531   17.5592  -32.1224 H   0  0  0  0  0  0  0  0  0  0  0  0
   -5.3233   16.1266  -31.1436 H   0  0  0  0  0  0  0  0  0  0  0  0
   -3.1858   14.6370  -33.5682 H   0  0  0  0  0  0  0  0  0  0  0  0
   -3.4280   15.1536  -31.8331 H   0  0  0  0  0  0  0  0  0  0  0  0
   -3.6702   12.6282  -32.4705 H   0  0  0  0  0  0  0  0  0  0  0  0
   -4.8889   13.4516  -31.3699 H   0  0  0  0  0  0  0  0  0  0  0  0
   -6.4820   12.9420  -32.6880 H   0  0  0  0  0  0  0  0  0  0  0  0
   -4.8880   13.7009  -35.0679 H   0  0  0  0  0  0  0  0  0  0  0  0
   -6.6629   13.4020  -34.9911 H   0  0  0  0  0  0  0  0  0  0  0  0
   -6.0720   15.8371  -34.9278 H   0  0  0  0  0  0  0  0  0  0  0  0
   -6.9532   15.2588  -33.4466 H   0  0  0  0  0  0  0  0  0  0  0  0
   -8.7911   18.8862  -33.1423 H   0  0  0  0  0  0  0  0  0  0  0  0
   -9.0231   18.2641  -31.4752 H   0  0  0  0  0  0  0  0  0  0  0  0
   -9.5629   20.7757  -31.9173 H   0  0  0  0  0  0  0  0  0  0  0  0
   -8.5261   20.3712  -30.4938 H   0  0  0  0  0  0  0  0  0  0  0  0
  1  2  2  0
  2  3  1  0
  3  4  1  0
  4  5  1  0
  5  6  1  0
  6  7  1  0
  7  8  1  0
  2  9  1  0
  9 10  1  0
 10 11  1  0
 11 12  1  0
 12 13  1  0
 13 14  1  0
 14 15  1  0
 15 16  1  0
 16 17  1  0
 17 18  1  0
 18 19  1  0
 19 20  1  0
 12 21  1  0
 21 22  1  0
  8  3  1  0
 22  9  1  0
 20 15  1  0
  3 23  1  0
  4 24  1  0
  4 25  1  0
  5 26  1  0
  5 27  1  0
  7 28  1  0
  7 29  1  0
  8 30  1  0
  8 31  1  0
 10 32  1  0
 10 33  1  0
 11 34  1  0
 11 35  1  0
 13 36  1  0
 13 37  1  0
 14 38  1  0
 14 39  1  0
 16 40  1  0
 16 41  1  0
 17 42  1  0
 17 43  1  0
 18 44  1  0
 19 45  1  0
 19 46  1  0
 20 47  1  0
 20 48  1  0
 21 49  1  0
 21 50  1  0
 22 51  1  0
 22 52  1  0
M  END
>  <UniqueID>  (16) 
15

>  <SMILES>  (16) 
O=C(C1CCOCC1)N1CCN(CCN2CCNCC2)CC1

>  <Energy>  (16) 
74.06779692066469

>  <Genealogy>  (16) 
O=C(C1CCOCC1)N1CCN(CCN2CCNCC2)CC1 (3D coordinates assigned)
O=C(C1CCOCC1)N1CCN(CCN2CCNCC2)CC1 (nonaromatic ring conformer: 74.06779692066469 kcal/mol)

>  <smiles>  (16) 
O=C(C1CCOCC1)N1CCN(CCN2CCNCC2)CC1

>  <score_type>  (16) 
oracle

>  <origin>  (16) 
adg

>  <m_score__min__energy>  (16) 
-8.1500000000000004

>  <m_primary>  (16) 
energy

$$$$
16:0
     RDKit          3D

 62 65  0  0  0  0  0  0  0  0999 V2000
    0.5890   20.7520  -34.2700 C   0  0  0  0  0  0  0  0  0  0  0  0
   -0.8810   20.5540  -34.6390 C   0  0  0  0  0  0  0  0  0  0  0  0
   -1.4300   19.1960  -34.1790 C   0  0  0  0  0  0  0  0  0  0  0  0
   -2.2340   19.2960  -32.9330 N   0  0  1  0  0  0  0  0  0  0  0  0
   -1.3870   19.4700  -31.7780 C   0  0  0  0  0  0  0  0  0  0  0  0
   -0.5720   18.5920  -31.3770 O   0  0  0  0  0  0  0  0  0  0  0  0
   -1.6090   20.7420  -31.1070 C   0  0  0  0  0  0  0  0  0  0  0  0
   -1.0600   21.2630  -29.9380 C   0  0  0  0  0  0  0  0  0  0  0  0
   -1.5270   22.5120  -29.4910 C   0  0  0  0  0  0  0  0  0  0  0  0
   -2.5210   23.2110  -30.2190 C   0  0  0  0  0  0  0  0  0  0  0  0
   -3.0240   24.5000  -29.7180 C   0  0  0  0  0  0  0  0  0  0  0  0
   -2.6750   24.8930  -28.5750 O   0  0  0  0  0  0  0  0  0  0  0  0
   -3.8670   25.3440  -30.5110 N   0  0  0  0  0  0  0  0  0  0  0  0
   -5.3250   25.2720  -30.5310 C   0  0  0  0  0  0  0  0  0  0  0  0
   -5.7900   23.8560  -30.1480 C   0  0  0  0  0  0  0  0  0  0  0  0
   -7.0430   23.4430  -30.8110 N   0  0  0  0  0  0  0  0  0  0  0  0
   -6.9650   23.2570  -32.2770 C   0  0  0  0  0  0  0  0  0  0  0  0
   -6.7910   21.7810  -32.7110 C   0  0  0  0  0  0  0  0  0  0  0  0
   -7.4090   20.7990  -31.7810 N   0  0  0  0  0  0  0  0  0  0  0  0
   -7.9050   19.6030  -32.4940 C   0  0  0  0  0  0  0  0  0  0  0  0
   -6.7570   18.7100  -32.8910 C   0  0  0  0  0  0  0  0  0  0  0  0
   -6.1370   18.8730  -34.1430 C   0  0  0  0  0  0  0  0  0  0  0  0
   -5.0790   18.0400  -34.5180 C   0  0  0  0  0  0  0  0  0  0  0  0
   -4.6520   17.0250  -33.6610 C   0  0  0  0  0  0  0  0  0  0  0  0
   -5.2720   16.8430  -32.4230 C   0  0  0  0  0  0  0  0  0  0  0  0
   -6.3200   17.6840  -32.0340 C   0  0  0  0  0  0  0  0  0  0  0  0
   -8.4770   21.4010  -30.9680 C   0  0  0  0  0  0  0  0  0  0  0  0
   -7.8530   22.4610  -30.0570 C   0  0  0  0  0  0  0  0  0  0  0  0
   -3.0780   22.6310  -31.3810 C   0  0  0  0  0  0  0  0  0  0  0  0
   -2.5940   21.3900  -31.7920 C   0  0  0  0  0  0  0  0  0  0  0  0
   -2.9970   20.5250  -32.8920 C   0  0  0  0  0  0  0  0  0  0  0  0
   -3.9350   20.7860  -33.6950 O   0  0  0  0  0  0  0  0  0  0  0  0
    0.6935   20.7661  -33.1751 H   0  0  0  0  0  0  0  0  0  0  0  0
    1.1856   19.9261  -34.6847 H   0  0  0  0  0  0  0  0  0  0  0  0
    0.9458   21.7063  -34.6847 H   0  0  0  0  0  0  0  0  0  0  0  0
   -1.4730   21.3513  -34.1659 H   0  0  0  0  0  0  0  0  0  0  0  0
   -0.9555   20.5880  -35.7359 H   0  0  0  0  0  0  0  0  0  0  0  0
   -2.0663   18.7849  -34.9766 H   0  0  0  0  0  0  0  0  0  0  0  0
   -0.5699   18.5433  -33.9686 H   0  0  0  0  0  0  0  0  0  0  0  0
   -2.8710   18.4810  -32.7760 H   0  0  0  0  0  0  0  0  0  0  0  0
   -0.2854   20.7148  -29.3817 H   0  0  0  0  0  0  0  0  0  0  0  0
   -1.1171   22.9496  -28.5688 H   0  0  0  0  0  0  0  0  0  0  0  0
   -5.7349   25.9965  -29.8119 H   0  0  0  0  0  0  0  0  0  0  0  0
   -5.6831   25.5067  -31.5442 H   0  0  0  0  0  0  0  0  0  0  0  0
   -4.9991   23.1438  -30.4258 H   0  0  0  0  0  0  0  0  0  0  0  0
   -5.9865   23.8640  -29.0657 H   0  0  0  0  0  0  0  0  0  0  0  0
   -7.8921   23.6434  -32.7255 H   0  0  0  0  0  0  0  0  0  0  0  0
   -6.0726   23.7998  -32.6219 H   0  0  0  0  0  0  0  0  0  0  0  0
   -7.2514   21.6556  -33.7021 H   0  0  0  0  0  0  0  0  0  0  0  0
   -5.7101   21.5767  -32.7164 H   0  0  0  0  0  0  0  0  0  0  0  0
   -8.5861   19.0451  -31.8345 H   0  0  0  0  0  0  0  0  0  0  0  0
   -8.4352   19.9252  -33.4023 H   0  0  0  0  0  0  0  0  0  0  0  0
   -6.4859   19.6586  -34.8293 H   0  0  0  0  0  0  0  0  0  0  0  0
   -4.5829   18.1847  -35.4890 H   0  0  0  0  0  0  0  0  0  0  0  0
   -3.8242   16.3659  -33.9616 H   0  0  0  0  0  0  0  0  0  0  0  0
   -4.9360   16.0377  -31.7532 H   0  0  0  0  0  0  0  0  0  0  0  0
   -6.8032   17.5426  -31.0560 H   0  0  0  0  0  0  0  0  0  0  0  0
   -9.2245   21.8696  -31.6250 H   0  0  0  0  0  0  0  0  0  0  0  0
   -8.9723   20.6274  -30.3629 H   0  0  0  0  0  0  0  0  0  0  0  0
   -8.6588   22.9954  -29.5325 H   0  0  0  0  0  0  0  0  0  0  0  0
   -7.1857   21.9464  -29.3500 H   0  0  0  0  0  0  0  0  0  0  0  0
   -3.8708   23.1441  -31.9451 H   0  0  0  0  0  0  0  0  0  0  0  0
  1  2  1  0
  2  3  1  0
  3  4  1  0
  4  5  1  0
  5  6  2  0
  5  7  1  0
  7  8  2  0
  8  9  1  0
  9 10  2  0
 10 11  1  0
 11 12  2  0
 11 13  1  0
 13 14  1  0
 14 15  1  0
 15 16  1  0
 16 17  1  0
 17 18  1  0
 18 19  1  0
 19 20  1  0
 20 21  1  0
 21 22  2  0
 22 23  1  0
 23 24  2  0
 24 25  1  0
 25 26  2  0
 19 27  1  0
 27 28  1  0
 10 29  1  0
 29 30  2  0
 30 31  1  0
 31 32  2  0
 31  4  1  0
 30  7  1  0
 28 16  1  0
 26 21  1  0
  1 33  1  0
  1 34  1  0
  1 35  1  0
  2 36  1  0
  2 37  1  0
  3 38  1  0
  3 39  1  0
  4 40  1  1
  8 41  1  0
  9 42  1  0
 14 43  1  0
 14 44  1  0
 15 45  1  0
 15 46  1  0
 17 47  1  0
 17 48  1  0
 18 49  1  0
 18 50  1  0
 20 51  1  0
 20 52  1  0
 22 53  1  0
 23 54  1  0
 24 55  1  0
 25 56  1  0
 26 57  1  0
 27 58  1  0
 27 59  1  0
 28 60  1  0
 28 61  1  0
 29 62  1  0
M  CHG  2   4   1  13  -1
M  END
>  <UniqueID>  (17) 
16

>  <SMILES>  (17) 
CCC[N@H+]1C(=O)c2ccc(C(=O)[N-]CCN3CCN(Cc4ccccc4)CC3)cc2C1=O

>  <Energy>  (17) 
105.76788991721365

>  <Genealogy>  (17) 
CCC[NH+]1C(=O)c2ccc(C(=O)[N-]CCN3CCN(Cc4ccccc4)CC3)cc2C1=O (protonated)
CCC[N@H+]1C(=O)c2ccc(C(=O)[N-]CCN3CCN(Cc4ccccc4)CC3)cc2C1=O (chirality)
CCC[N@H+]1C(=O)c2ccc(C(=O)[N-]CCN3CCN(Cc4ccccc4)CC3)cc2C1=O (3D coordinates assigned)
CCC[N@H+]1C(=O)c2ccc(C(=O)[N-]CCN3CCN(Cc4ccccc4)CC3)cc2C1=O (nonaromatic ring conformer: 105.76788991721365 kcal/mol)

>  <smiles>  (17) 
CCCN1C(=O)c2ccc(C(=O)NCCN3CCN(Cc4ccccc4)CC3)cc2C1=O

>  <score_type>  (17) 
oracle

>  <origin>  (17) 
adg

>  <m_score__min__energy>  (17) 
-12.130000000000001

>  <m_primary>  (17) 
energy

$$$$
17:0
     RDKit          3D

 34 35  0  0  0  0  0  0  0  0999 V2000
   -2.7640   19.7680  -27.1240 C   0  0  0  0  0  0  0  0  0  0  0  0
   -2.3000   21.1110  -27.0390 O   0  0  0  0  0  0  0  0  0  0  0  0
   -2.5970   22.1130  -27.9750 C   0  0  0  0  0  0  0  0  0  0  0  0
   -2.3450   23.4400  -27.6260 C   0  0  0  0  0  0  0  0  0  0  0  0
   -2.6400   24.4740  -28.5140 C   0  0  0  0  0  0  0  0  0  0  0  0
   -3.1990   24.2030  -29.7680 C   0  0  0  0  0  0  0  0  0  0  0  0
   -3.5090   25.2960  -30.5810 O   0  0  0  0  0  0  0  0  0  0  0  0
   -3.4450   22.8580  -30.1490 C   0  0  0  0  0  0  0  0  0  0  0  0
   -4.0600   22.4650  -31.4750 C   0  0  0  0  0  0  0  0  0  0  0  0
   -5.0110   23.4860  -31.9430 N   0  0  0  0  0  0  0  0  0  0  0  0
   -6.3070   23.4190  -31.2470 C   0  0  0  0  0  0  0  0  0  0  0  0
   -7.1060   22.2290  -31.7140 C   0  0  0  0  0  0  0  0  0  0  0  0
   -6.5800   21.3380  -32.6620 C   0  0  0  0  0  0  0  0  0  0  0  0
   -7.3450   20.2570  -33.1020 C   0  0  0  0  0  0  0  0  0  0  0  0
   -8.6230   20.0640  -32.5790 C   0  0  0  0  0  0  0  0  0  0  0  0
   -9.1130   20.9210  -31.6430 N   0  0  0  0  0  0  0  0  0  0  0  0
   -8.3890   21.9820  -31.1990 C   0  0  0  0  0  0  0  0  0  0  0  0
   -3.1400   21.8260  -29.2410 C   0  0  0  0  0  0  0  0  0  0  0  0
   -2.9037   19.3635  -26.1107 H   0  0  0  0  0  0  0  0  0  0  0  0
   -3.7223   19.7446  -27.6635 H   0  0  0  0  0  0  0  0  0  0  0  0
   -2.0245   19.1580  -27.6635 H   0  0  0  0  0  0  0  0  0  0  0  0
   -1.9102   23.6725  -26.6427 H   0  0  0  0  0  0  0  0  0  0  0  0
   -2.4309   25.5147  -28.2254 H   0  0  0  0  0  0  0  0  0  0  0  0
   -3.5030   25.2800  -31.5900 H   0  0  0  0  0  0  0  0  0  0  0  0
   -3.2604   22.3502  -32.2216 H   0  0  0  0  0  0  0  0  0  0  0  0
   -4.6033   21.5180  -31.3404 H   0  0  0  0  0  0  0  0  0  0  0  0
   -4.5880   24.4200  -31.7290 H   0  0  0  0  0  0  0  0  0  0  0  0
   -6.1308   23.3325  -30.1647 H   0  0  0  0  0  0  0  0  0  0  0  0
   -6.8747   24.3341  -31.4712 H   0  0  0  0  0  0  0  0  0  0  0  0
   -5.5653   21.4916  -33.0580 H   0  0  0  0  0  0  0  0  0  0  0  0
   -6.9432   19.5631  -33.8550 H   0  0  0  0  0  0  0  0  0  0  0  0
   -9.2357   19.2179  -32.9236 H   0  0  0  0  0  0  0  0  0  0  0  0
   -8.8097   22.6501  -30.4330 H   0  0  0  0  0  0  0  0  0  0  0  0
   -3.3289   20.7803  -29.5254 H   0  0  0  0  0  0  0  0  0  0  0  0
  1  2  1  0
  2  3  1  0
  3  4  2  0
  4  5  1  0
  5  6  2  0
  6  7  1  0
  6  8  1  0
  8  9  1  0
  9 10  1  0
 10 11  1  0
 11 12  1  0
 12 13  2  0
 13 14  1  0
 14 15  2  0
 15 16  1  0
 16 17  2  0
  8 18  2  0
 18  3  1  0
 17 12  1  0
  1 19  1  0
  1 20  1  0
  1 21  1  0
  4 22  1  0
  5 23  1  0
  7 24  1  0
  9 25  1  0
  9 26  1  0
 10 27  1  0
 11 28  1  0
 11 29  1  0
 13 30  1  0
 14 31  1  0
 15 32  1  0
 17 33  1  0
 18 34  1  0
M  END
>  <UniqueID>  (18) 
17

>  <SMILES>  (18) 
COc1ccc(O)c(CNCc2cccnc2)c1

>  <Energy>  (18) 
34.81806609220616

>  <Genealogy>  (18) 
COc1ccc(O)c(CNCc2cccnc2)c1 (3D coordinates assigned)
COc1ccc(O)c(CNCc2cccnc2)c1 (optimized conformer: 34.81806609220616 kcal/mol)

>  <smiles>  (18) 
COc1ccc(O)c(CNCc2cccnc2)c1

>  <score_type>  (18) 
oracle

>  <origin>  (18) 
adg

>  <m_score__min__energy>  (18) 
-7.04

>  <m_primary>  (18) 
energy

$$$$
18:0
     RDKit          3D

 49 51  0  0  0  0  0  0  0  0999 V2000
   -1.5200   24.7390  -26.5980 C   0  0  0  0  0  0  0  0  0  0  0  0
   -0.7570   25.3900  -27.7480 C   0  0  0  0  0  0  0  0  0  0  0  0
   -0.9500   24.6610  -28.9600 O   0  0  0  0  0  0  0  0  0  0  0  0
   -2.1630   24.0990  -29.3930 C   0  0  0  0  0  0  0  0  0  0  0  0
   -2.2690   22.7730  -29.8470 C   0  0  0  0  0  0  0  0  0  0  0  0
   -3.4980   22.2710  -30.2760 C   0  0  0  0  0  0  0  0  0  0  0  0
   -4.6450   23.0800  -30.2680 C   0  0  0  0  0  0  0  0  0  0  0  0
   -5.9130   22.5050  -30.7680 C   0  0  0  0  0  0  0  0  0  0  0  0
   -6.9980   22.3210  -29.9000 C   0  0  0  0  0  0  0  0  0  0  0  0
   -8.2080   21.8430  -30.4020 C   0  0  0  0  0  0  0  0  0  0  0  0
   -8.3380   21.5640  -31.7680 C   0  0  0  0  0  0  0  0  0  0  0  0
   -9.6650   21.1510  -32.3490 C   0  0  0  0  0  0  0  0  0  0  0  0
   -9.6380   19.7410  -32.7760 N   0  0  0  0  0  0  0  0  0  0  0  0
   -8.9570   18.8660  -31.8060 C   0  0  0  0  0  0  0  0  0  0  0  0
   -7.6060   18.4450  -32.3130 C   0  0  0  0  0  0  0  0  0  0  0  0
   -6.8250   17.5250  -31.5960 C   0  0  0  0  0  0  0  0  0  0  0  0
   -5.5510   17.1960  -32.0670 C   0  0  0  0  0  0  0  0  0  0  0  0
   -5.0760   17.7710  -33.2460 C   0  0  0  0  0  0  0  0  0  0  0  0
   -5.8880   18.6660  -33.9450 C   0  0  0  0  0  0  0  0  0  0  0  0
   -7.1220   18.9820  -33.4690 N   0  0  0  0  0  0  0  0  0  0  0  0
   -7.2250   21.7440  -32.6010 C   0  0  0  0  0  0  0  0  0  0  0  0
   -6.0530   22.2130  -32.0940 N   0  0  0  0  0  0  0  0  0  0  0  0
   -4.5540   24.4070  -29.7820 C   0  0  0  0  0  0  0  0  0  0  0  0
   -5.7570   25.3130  -29.7080 C   0  0  0  0  0  0  0  0  0  0  0  0
   -3.3060   24.9050  -29.3700 C   0  0  0  0  0  0  0  0  0  0  0  0
   -1.1088   25.0899  -25.6400 H   0  0  0  0  0  0  0  0  0  0  0  0
   -2.5836   25.0122  -26.6625 H   0  0  0  0  0  0  0  0  0  0  0  0
   -1.4177   23.6457  -26.6625 H   0  0  0  0  0  0  0  0  0  0  0  0
   -1.1196   26.4195  -27.8845 H   0  0  0  0  0  0  0  0  0  0  0  0
    0.3156   25.3916  -27.5039 H   0  0  0  0  0  0  0  0  0  0  0  0
   -1.3783   22.1277  -29.8642 H   0  0  0  0  0  0  0  0  0  0  0  0
   -3.5689   21.2300  -30.6243 H   0  0  0  0  0  0  0  0  0  0  0  0
   -6.8957   22.5522  -28.8295 H   0  0  0  0  0  0  0  0  0  0  0  0
   -9.0604   21.6851  -29.7249 H   0  0  0  0  0  0  0  0  0  0  0  0
  -10.4476   21.2813  -31.5871 H   0  0  0  0  0  0  0  0  0  0  0  0
   -9.8742   21.7794  -33.2272 H   0  0  0  0  0  0  0  0  0  0  0  0
   -9.0900   19.7010  -33.6670 H   0  0  0  0  0  0  0  0  0  0  0  0
   -8.8316   19.4096  -30.8579 H   0  0  0  0  0  0  0  0  0  0  0  0
   -9.5706   17.9653  -31.6568 H   0  0  0  0  0  0  0  0  0  0  0  0
   -7.2116   17.0679  -30.6732 H   0  0  0  0  0  0  0  0  0  0  0  0
   -4.9239   16.4850  -31.5091 H   0  0  0  0  0  0  0  0  0  0  0  0
   -4.0723   17.5218  -33.6209 H   0  0  0  0  0  0  0  0  0  0  0  0
   -5.5291   19.1163  -34.8822 H   0  0  0  0  0  0  0  0  0  0  0  0
   -7.2998   21.5044  -33.6720 H   0  0  0  0  0  0  0  0  0  0  0  0
   -5.2500   22.3550  -32.7460 H   0  0  0  0  0  0  0  0  0  0  0  0
   -6.0089   25.5027  -28.6542 H   0  0  0  0  0  0  0  0  0  0  0  0
   -5.5296   26.2661  -30.2079 H   0  0  0  0  0  0  0  0  0  0  0  0
   -6.6102   24.8312  -30.2079 H   0  0  0  0  0  0  0  0  0  0  0  0
   -3.2267   25.9460  -29.0237 H   0  0  0  0  0  0  0  0  0  0  0  0
  1  2  1  0
  2  3  1  0
  3  4  1  0
  4  5  2  0
  5  6  1  0
  6  7  2  0
  7  8  1  0
  8  9  2  0
  9 10  1  0
 10 11  2  0
 11 12  1  0
 12 13  1  0
 13 14  1  0
 14 15  1  0
 15 16  2  0
 16 17  1  0
 17 18  2  0
 18 19  1  0
 19 20  2  0
 11 21  1  0
 21 22  2  0
  7 23  1  0
 23 24  1  0
 23 25  2  0
 25  4  1  0
 22  8  1  0
 20 15  1  0
  1 26  1  0
  1 27  1  0
  1 28  1  0
  2 29  1  0
  2 30  1  0
  5 31  1  0
  6 32  1  0
  9 33  1  0
 10 34  1  0
 12 35  1  0
 12 36  1  0
 13 37  1  0
 14 38  1  0
 14 39  1  0
 16 40  1  0
 17 41  1  0
 18 42  1  0
 19 43  1  0
 21 44  1  0
 22 45  1  0
 24 46  1  0
 24 47  1  0
 24 48  1  0
 25 49  1  0
M  CHG  1  22   1
M  END
>  <UniqueID>  (19) 
18

>  <SMILES>  (19) 
CCOc1ccc(-c2ccc(CNCc3ccccn3)c[nH+]2)c(C)c1

>  <Energy>  (19) 
52.61030128831817

>  <Genealogy>  (19) 
CCOc1ccc(-c2ccc(CNCc3ccccn3)c[nH+]2)c(C)c1 (protonated)
CCOc1ccc(-c2ccc(CNCc3ccccn3)c[nH+]2)c(C)c1 (3D coordinates assigned)
CCOc1ccc(-c2ccc(CNCc3ccccn3)c[nH+]2)c(C)c1 (optimized conformer: 52.61030128831817 kcal/mol)

>  <smiles>  (19) 
CCOc1ccc(-c2ccc(CNCc3ccccn3)cn2)c(C)c1

>  <score_type>  (19) 
oracle

>  <origin>  (19) 
adg

>  <m_score__min__energy>  (19) 
-8.5899999999999999

>  <m_primary>  (19) 
energy

$$$$
19:0
     RDKit          3D

 62 65  0  0  0  0  0  0  0  0999 V2000
   -7.7010   22.9330  -31.8910 C   0  0  0  0  0  0  0  0  0  0  0  0
   -6.4350   23.7820  -31.8760 C   0  0  0  0  0  0  0  0  0  0  0  0
   -6.0090   24.1150  -30.4420 C   0  0  0  0  0  0  0  0  0  0  0  0
   -5.2740   25.4600  -30.3680 C   0  0  0  0  0  0  0  0  0  0  0  0
   -3.8640   25.2880  -30.5200 O   0  0  0  0  0  0  0  0  0  0  0  0
   -3.0510   24.4700  -29.7200 C   0  0  0  0  0  0  0  0  0  0  0  0
   -2.4480   25.0450  -28.5790 C   0  0  0  0  0  0  0  0  0  0  0  0
   -1.6140   24.2870  -27.7390 C   0  0  0  0  0  0  0  0  0  0  0  0
   -1.4140   22.9400  -28.0520 C   0  0  0  0  0  0  0  0  0  0  0  0
   -1.9970   22.3780  -29.1600 C   0  0  0  0  0  0  0  0  0  0  0  0
   -2.8200   23.1040  -30.0160 C   0  0  0  0  0  0  0  0  0  0  0  0
   -1.5600   21.0760  -29.2500 C   0  0  0  0  0  0  0  0  0  0  0  0
   -0.7160   20.8990  -28.1580 C   0  0  0  0  0  0  0  0  0  0  0  0
    0.0960   19.6890  -27.9330 C   0  0  0  0  0  0  0  0  0  0  0  0
   -0.5300   18.4770  -27.6090 C   0  0  0  0  0  0  0  0  0  0  0  0
    0.2280   17.3150  -27.4390 C   0  0  0  0  0  0  0  0  0  0  0  0
    1.6290   17.3550  -27.5790 C   0  0  0  0  0  0  0  0  0  0  0  0
    2.4320   16.2160  -27.4250 O   0  0  0  0  0  0  0  0  0  0  0  0
    1.9770   14.9790  -26.8850 C   0  0  0  0  0  0  0  0  0  0  0  0
    2.2500   18.5720  -27.8810 C   0  0  0  0  0  0  0  0  0  0  0  0
    1.4920   19.7330  -28.0530 C   0  0  0  0  0  0  0  0  0  0  0  0
   -0.6340   22.0380  -27.4170 N   0  0  0  0  0  0  0  0  0  0  0  0
    0.3020   22.2990  -26.3170 C   0  0  0  0  0  0  0  0  0  0  0  0
   -0.4610   22.8150  -25.0850 C   0  0  0  0  0  0  0  0  0  0  0  0
    0.2950   23.8710  -24.3660 N   0  0  0  0  0  0  0  0  0  0  0  0
   -0.5530   25.0430  -24.0960 C   0  0  0  0  0  0  0  0  0  0  0  0
   -0.4280   25.9750  -25.2900 C   0  0  0  0  0  0  0  0  0  0  0  0
    0.8980   25.6180  -25.9340 C   0  0  0  0  0  0  0  0  0  0  0  0
    1.4080   24.3970  -25.1760 C   0  0  0  0  0  0  0  0  0  0  0  0
   -8.0140   22.7231  -30.8576 H   0  0  0  0  0  0  0  0  0  0  0  0
   -8.5015   23.4776  -32.4131 H   0  0  0  0  0  0  0  0  0  0  0  0
   -7.5010   21.9857  -32.4131 H   0  0  0  0  0  0  0  0  0  0  0  0
   -5.6247   23.2270  -32.3715 H   0  0  0  0  0  0  0  0  0  0  0  0
   -6.6403   24.7236  -32.4063 H   0  0  0  0  0  0  0  0  0  0  0  0
   -6.9049   24.1625  -29.8055 H   0  0  0  0  0  0  0  0  0  0  0  0
   -5.3221   23.3285  -30.0961 H   0  0  0  0  0  0  0  0  0  0  0  0
   -5.6439   26.1155  -31.1702 H   0  0  0  0  0  0  0  0  0  0  0  0
   -5.4657   25.9075  -29.3816 H   0  0  0  0  0  0  0  0  0  0  0  0
   -2.6343   26.1034  -28.3441 H   0  0  0  0  0  0  0  0  0  0  0  0
   -1.1326   24.7412  -26.8604 H   0  0  0  0  0  0  0  0  0  0  0  0
   -3.2779   22.6307  -30.8971 H   0  0  0  0  0  0  0  0  0  0  0  0
   -1.8216   20.3348  -30.0196 H   0  0  0  0  0  0  0  0  0  0  0  0
   -1.6227   18.4404  -27.4880 H   0  0  0  0  0  0  0  0  0  0  0  0
   -0.2714   16.3658  -27.1950 H   0  0  0  0  0  0  0  0  0  0  0  0
    1.9956   15.0296  -25.7863 H   0  0  0  0  0  0  0  0  0  0  0  0
    0.9491   14.7861  -27.2258 H   0  0  0  0  0  0  0  0  0  0  0  0
    2.6349   14.1660  -27.2258 H   0  0  0  0  0  0  0  0  0  0  0  0
    3.3443   18.6150  -27.9839 H   0  0  0  0  0  0  0  0  0  0  0  0
    1.9925   20.6851  -28.2834 H   0  0  0  0  0  0  0  0  0  0  0  0
    0.8262   21.3676  -26.0566 H   0  0  0  0  0  0  0  0  0  0  0  0
    1.0286   23.0609  -26.6356 H   0  0  0  0  0  0  0  0  0  0  0  0
   -1.4260   23.2293  -25.4125 H   0  0  0  0  0  0  0  0  0  0  0  0
   -0.6048   21.9701  -24.3954 H   0  0  0  0  0  0  0  0  0  0  0  0
    0.6510   23.4910  -23.4560 H   0  0  0  0  0  0  0  0  0  0  0  0
   -1.5999   24.7295  -23.9710 H   0  0  0  0  0  0  0  0  0  0  0  0
   -0.2362   25.5487  -23.1720 H   0  0  0  0  0  0  0  0  0  0  0  0
   -1.2561   25.8118  -25.9954 H   0  0  0  0  0  0  0  0  0  0  0  0
   -0.4696   27.0332  -24.9925 H   0  0  0  0  0  0  0  0  0  0  0  0
    0.7555   25.3773  -26.9978 H   0  0  0  0  0  0  0  0  0  0  0  0
    1.6115   26.4538  -25.8855 H   0  0  0  0  0  0  0  0  0  0  0  0
    1.7478   23.6301  -25.8876 H   0  0  0  0  0  0  0  0  0  0  0  0
    2.2555   24.6721  -24.5310 H   0  0  0  0  0  0  0  0  0  0  0  0
  1  2  1  0
  2  3  1  0
  3  4  1  0
  4  5  1  0
  5  6  1  0
  6  7  2  0
  7  8  1  0
  8  9  2  0
  9 10  1  0
 10 11  2  0
 10 12  1  0
 12 13  2  0
 13 14  1  0
 14 15  2  0
 15 16  1  0
 16 17  2  0
 17 18  1  0
 18 19  1  0
 17 20  1  0
 20 21  2  0
 13 22  1  0
 22 23  1  0
 23 24  1  0
 24 25  1  0
 25 26  1  0
 26 27  1  0
 27 28  1  0
 28 29  1  0
 11  6  1  0
 21 14  1  0
 29 25  1  0
 22  9  1  0
  1 30  1  0
  1 31  1  0
  1 32  1  0
  2 33  1  0
  2 34  1  0
  3 35  1  0
  3 36  1  0
  4 37  1  0
  4 38  1  0
  7 39  1  0
  8 40  1  0
 11 41  1  0
 12 42  1  0
 15 43  1  0
 16 44  1  0
 19 45  1  0
 19 46  1  0
 19 47  1  0
 20 48  1  0
 21 49  1  0
 23 50  1  0
 23 51  1  0
 24 52  1  0
 24 53  1  0
 25 54  1  0
 26 55  1  0
 26 56  1  0
 27 57  1  0
 27 58  1  0
 28 59  1  0
 28 60  1  0
 29 61  1  0
 29 62  1  0
M  CHG  1  25   1
M  END
>  <UniqueID>  (20) 
19

>  <SMILES>  (20) 
CCCCOc1ccc2c(c1)cc(-c1ccc(OC)cc1)n2CC[NH+]1CCCC1

>  <Energy>  (20) 
97.63021119067325

>  <Genealogy>  (20) 
CCCCOc1ccc2c(c1)cc(-c1ccc(OC)cc1)n2CC[NH+]1CCCC1 (protonated)
CCCCOc1ccc2c(c1)cc(-c1ccc(OC)cc1)n2CC[NH+]1CCCC1 (3D coordinates assigned)
CCCCOc1ccc2c(c1)cc(-c1ccc(OC)cc1)n2CC[NH+]1CCCC1 (nonaromatic ring conformer: 97.63021119067325 kcal/mol)

>  <smiles>  (20) 
CCCCOc1ccc2c(c1)cc(-c1ccc(OC)cc1)n2CCN1CCCC1

>  <score_type>  (20) 
oracle

>  <origin>  (20) 
adg

>  <m_score__min__energy>  (20) 
-7.54

>  <m_primary>  (20) 
energy

$$$$
20:0
     RDKit          3D

 42 44  0  0  0  0  0  0  0  0999 V2000
   -3.4620   22.2990  -31.8470 C   0  0  0  0  0  0  0  0  0  0  0  0
   -3.3560   22.4280  -30.3580 C   0  0  0  0  0  0  0  0  0  0  0  0
   -2.9690   21.3450  -29.6330 N   0  0  0  0  0  0  0  0  0  0  0  0
   -2.8320   21.4050  -28.2830 C   0  0  0  0  0  0  0  0  0  0  0  0
   -2.4280   20.2430  -27.5470 N   0  0  0  0  0  0  0  0  0  0  0  0
   -1.2850   19.5450  -27.6950 C   0  0  0  0  0  0  0  0  0  0  0  0
   -1.2950   18.5030  -26.7900 C   0  0  0  0  0  0  0  0  0  0  0  0
   -2.4420   18.5590  -26.0850 N   0  0  0  0  0  0  0  0  0  0  0  0
   -3.1130   19.6230  -26.5640 C   0  0  0  0  0  0  0  0  0  0  0  0
   -3.0830   22.5730  -27.6350 N   0  0  0  0  0  0  0  0  0  0  0  0
   -3.4600   23.6870  -28.3110 C   0  0  0  0  0  0  0  0  0  0  0  0
   -3.5980   23.6500  -29.7100 C   0  0  0  0  0  0  0  0  0  0  0  0
   -3.9740   24.7740  -30.4670 O   0  0  0  0  0  0  0  0  0  0  0  0
   -5.2990   25.3010  -30.5680 C   0  0  0  0  0  0  0  0  0  0  0  0
   -6.1330   24.5380  -31.6050 C   0  0  0  0  0  0  0  0  0  0  0  0
   -6.7380   23.2370  -31.0650 C   0  0  0  0  0  0  0  0  0  0  0  0
   -7.3890   22.4970  -32.1000 O   0  0  0  0  0  0  0  0  0  0  0  0
   -7.6170   21.1110  -32.1230 C   0  0  0  0  0  0  0  0  0  0  0  0
   -8.7470   20.5040  -31.5350 C   0  0  0  0  0  0  0  0  0  0  0  0
   -8.9110   19.1170  -31.5940 C   0  0  0  0  0  0  0  0  0  0  0  0
   -7.9630   18.3230  -32.2410 C   0  0  0  0  0  0  0  0  0  0  0  0
   -6.8440   18.9150  -32.8290 C   0  0  0  0  0  0  0  0  0  0  0  0
   -6.6690   20.3020  -32.7670 C   0  0  0  0  0  0  0  0  0  0  0  0
   -5.5740   20.8630  -33.3360 F   0  0  0  0  0  0  0  0  0  0  0  0
   -4.1423   21.4711  -32.0958 H   0  0  0  0  0  0  0  0  0  0  0  0
   -3.8547   23.2358  -32.2692 H   0  0  0  0  0  0  0  0  0  0  0  0
   -2.4669   22.0954  -32.2692 H   0  0  0  0  0  0  0  0  0  0  0  0
   -0.4822   19.7673  -28.4134 H   0  0  0  0  0  0  0  0  0  0  0  0
   -0.5002   17.7529  -26.6652 H   0  0  0  0  0  0  0  0  0  0  0  0
   -2.7460   17.9100  -25.3270 H   0  0  0  0  0  0  0  0  0  0  0  0
   -4.0987   19.9471  -26.1988 H   0  0  0  0  0  0  0  0  0  0  0  0
   -3.6581   24.6206  -27.7641 H   0  0  0  0  0  0  0  0  0  0  0  0
   -5.7902   25.2221  -29.5869 H   0  0  0  0  0  0  0  0  0  0  0  0
   -5.2281   26.3508  -30.8887 H   0  0  0  0  0  0  0  0  0  0  0  0
   -6.9527   25.1902  -31.9408 H   0  0  0  0  0  0  0  0  0  0  0  0
   -5.4554   24.2633  -32.4268 H   0  0  0  0  0  0  0  0  0  0  0  0
   -5.9352   22.6204  -30.6345 H   0  0  0  0  0  0  0  0  0  0  0  0
   -7.4853   23.4936  -30.2997 H   0  0  0  0  0  0  0  0  0  0  0  0
   -9.5012   21.1242  -31.0286 H   0  0  0  0  0  0  0  0  0  0  0  0
   -9.7911   18.6494  -31.1284 H   0  0  0  0  0  0  0  0  0  0  0  0
   -8.0974   17.2322  -32.2875 H   0  0  0  0  0  0  0  0  0  0  0  0
   -6.0983   18.2900  -33.3421 H   0  0  0  0  0  0  0  0  0  0  0  0
  1  2  1  0
  2  3  2  0
  3  4  1  0
  4  5  1  0
  5  6  1  0
  6  7  2  0
  7  8  1  0
  8  9  2  0
  4 10  2  0
 10 11  1  0
 11 12  2  0
 12 13  1  0
 13 14  1  0
 14 15  1  0
 15 16  1  0
 16 17  1  0
 17 18  1  0
 18 19  2  0
 19 20  1  0
 20 21  2  0
 21 22  1  0
 22 23  2  0
 23 24  1  0
 12  2  1  0
 23 18  1  0
  9  5  1  0
  1 25  1  0
  1 26  1  0
  1 27  1  0
  6 28  1  0
  7 29  1  0
  8 30  1  0
  9 31  1  0
 11 32  1  0
 14 33  1  0
 14 34  1  0
 15 35  1  0
 15 36  1  0
 16 37  1  0
 16 38  1  0
 19 39  1  0
 20 40  1  0
 21 41  1  0
 22 42  1  0
M  CHG  1   8   1
M  END
>  <UniqueID>  (21) 
20

>  <SMILES>  (21) 
Cc1nc(-n2cc[nH+]c2)ncc1OCCCOc1ccccc1F

>  <Energy>  (21) 
72.92800426019167

>  <Genealogy>  (21) 
Cc1nc(-n2cc[nH+]c2)ncc1OCCCOc1ccccc1F (protonated)
Cc1nc(-n2cc[nH+]c2)ncc1OCCCOc1ccccc1F (3D coordinates assigned)
Cc1nc(-n2cc[nH+]c2)ncc1OCCCOc1ccccc1F (optimized conformer: 72.92800426019167 kcal/mol)

>  <smiles>  (21) 
Cc1nc(-n2ccnc2)ncc1OCCCOc1ccccc1F

>  <score_type>  (21) 
oracle

>  <origin>  (21) 
adg

>  <m_score__min__energy>  (21) 
-7.2400000000000002

>  <m_primary>  (21) 
energy

$$$$
21:0
     RDKit          3D

 61 64  0  0  0  0  0  0  0  0999 V2000
   -8.9280   19.1390  -31.4330 C   0  0  0  0  0  0  0  0  0  0  0  0
   -7.5210   18.9810  -31.5950 O   0  0  0  0  0  0  0  0  0  0  0  0
   -6.9110   18.3810  -32.7090 C   0  0  0  0  0  0  0  0  0  0  0  0
   -7.1760   17.0480  -33.0820 C   0  0  0  0  0  0  0  0  0  0  0  0
   -6.5400   16.4880  -34.1950 C   0  0  0  0  0  0  0  0  0  0  0  0
   -5.6360   17.2480  -34.9430 C   0  0  0  0  0  0  0  0  0  0  0  0
   -5.3700   18.5710  -34.5840 C   0  0  0  0  0  0  0  0  0  0  0  0
   -6.0050   19.1400  -33.4720 C   0  0  0  0  0  0  0  0  0  0  0  0
   -5.7180   20.4950  -33.1050 N   0  0  0  0  0  0  0  0  0  0  0  0
   -6.8220   21.3830  -32.7220 C   0  0  0  0  0  0  0  0  0  0  0  0
   -6.2980   22.7500  -32.2660 C   0  0  0  0  0  0  0  0  0  0  0  0
   -5.1630   22.5740  -31.3480 N   0  0  0  0  0  0  0  0  0  0  0  0
   -5.2030   23.2010  -30.0520 C   0  0  0  0  0  0  0  0  0  0  0  0
   -6.2420   23.0840  -29.3450 O   0  0  0  0  0  0  0  0  0  0  0  0
   -4.0470   24.0150  -29.5150 C   0  0  0  0  0  0  0  0  0  0  0  0
   -2.7010   23.2950  -29.7190 C   0  0  0  0  0  0  0  0  0  0  0  0
   -1.5530   24.1510  -29.1730 C   0  0  0  0  0  0  0  0  0  0  0  0
   -1.8200   24.6230  -27.8050 N   0  0  0  0  0  0  0  0  0  0  0  0
   -0.7950   25.3560  -27.1040 C   0  0  0  0  0  0  0  0  0  0  0  0
    0.4880   25.3440  -27.5620 N   0  0  0  0  0  0  0  0  0  0  0  0
    1.4760   26.0290  -26.9250 C   0  0  0  0  0  0  0  0  0  0  0  0
    2.8750   25.9780  -27.4490 C   0  0  0  0  0  0  0  0  0  0  0  0
    1.1780   26.7480  -25.7650 C   0  0  0  0  0  0  0  0  0  0  0  0
   -0.1410   26.7540  -25.3010 C   0  0  0  0  0  0  0  0  0  0  0  0
   -0.5070   27.5110  -24.0640 C   0  0  0  0  0  0  0  0  0  0  0  0
   -1.0940   26.0610  -25.9780 N   0  0  0  0  0  0  0  0  0  0  0  0
   -3.0730   24.2440  -27.1310 C   0  0  0  0  0  0  0  0  0  0  0  0
   -4.2820   24.4760  -28.0510 C   0  0  0  0  0  0  0  0  0  0  0  0
   -4.0810   21.6330  -31.6840 C   0  0  0  0  0  0  0  0  0  0  0  0
   -4.3280   20.9520  -33.0350 C   0  0  0  0  0  0  0  0  0  0  0  0
   -9.1729   19.1665  -30.3610 H   0  0  0  0  0  0  0  0  0  0  0  0
   -9.2484   20.0788  -31.9065 H   0  0  0  0  0  0  0  0  0  0  0  0
   -9.4488   18.2937  -31.9065 H   0  0  0  0  0  0  0  0  0  0  0  0
   -7.8856   16.4457  -32.4957 H   0  0  0  0  0  0  0  0  0  0  0  0
   -6.7516   15.4475  -34.4822 H   0  0  0  0  0  0  0  0  0  0  0  0
   -5.1339   16.8035  -35.8150 H   0  0  0  0  0  0  0  0  0  0  0  0
   -4.6603   19.1679  -35.1756 H   0  0  0  0  0  0  0  0  0  0  0  0
   -7.4868   21.5234  -33.5871 H   0  0  0  0  0  0  0  0  0  0  0  0
   -7.3678   20.9214  -31.8859 H   0  0  0  0  0  0  0  0  0  0  0  0
   -5.9701   23.3256  -33.1442 H   0  0  0  0  0  0  0  0  0  0  0  0
   -7.1029   23.2892  -31.7450 H   0  0  0  0  0  0  0  0  0  0  0  0
   -3.9926   24.9394  -30.1088 H   0  0  0  0  0  0  0  0  0  0  0  0
   -2.7202   22.3320  -29.1878 H   0  0  0  0  0  0  0  0  0  0  0  0
   -2.5433   23.1283  -30.7948 H   0  0  0  0  0  0  0  0  0  0  0  0
   -0.6324   23.5489  -29.1677 H   0  0  0  0  0  0  0  0  0  0  0  0
   -1.4479   25.0327  -29.8223 H   0  0  0  0  0  0  0  0  0  0  0  0
    3.5815   25.9522  -26.6063 H   0  0  0  0  0  0  0  0  0  0  0  0
    3.0038   25.0746  -28.0632 H   0  0  0  0  0  0  0  0  0  0  0  0
    3.0692   26.8697  -28.0632 H   0  0  0  0  0  0  0  0  0  0  0  0
    1.9647   27.2980  -25.2277 H   0  0  0  0  0  0  0  0  0  0  0  0
   -0.2234   26.9244  -23.1777 H   0  0  0  0  0  0  0  0  0  0  0  0
    0.0252   28.4736  -24.0523 H   0  0  0  0  0  0  0  0  0  0  0  0
   -1.5920   27.6917  -24.0523 H   0  0  0  0  0  0  0  0  0  0  0  0
   -3.0273   23.1795  -26.8577 H   0  0  0  0  0  0  0  0  0  0  0  0
   -3.1908   24.8666  -26.2318 H   0  0  0  0  0  0  0  0  0  0  0  0
   -5.1398   23.9199  -27.6448 H   0  0  0  0  0  0  0  0  0  0  0  0
   -4.4620   25.5608  -28.0795 H   0  0  0  0  0  0  0  0  0  0  0  0
   -3.1298   22.1836  -31.7299 H   0  0  0  0  0  0  0  0  0  0  0  0
   -4.0462   20.8554  -30.9068 H   0  0  0  0  0  0  0  0  0  0  0  0
   -4.1364   21.6686  -33.8472 H   0  0  0  0  0  0  0  0  0  0  0  0
   -3.6530   20.0898  -33.1396 H   0  0  0  0  0  0  0  0  0  0  0  0
  1  2  1  0
  2  3  1  0
  3  4  2  0
  4  5  1  0
  5  6  2  0
  6  7  1  0
  7  8  2  0
  8  9  1  0
  9 10  1  0
 10 11  1  0
 11 12  1  0
 12 13  1  0
 13 14  2  0
 13 15  1  0
 15 16  1  0
 16 17  1  0
 17 18  1  0
 18 19  1  0
 19 20  2  0
 20 21  1  0
 21 22  1  0
 21 23  2  0
 23 24  1  0
 24 25  1  0
 24 26  2  0
 18 27  1  0
 27 28  1  0
 12 29  1  0
 29 30  1  0
  8  3  1  0
 30  9  1  0
 28 15  1  0
 26 19  1  0
  1 31  1  0
  1 32  1  0
  1 33  1  0
  4 34  1  0
  5 35  1  0
  6 36  1  0
  7 37  1  0
 10 38  1  0
 10 39  1  0
 11 40  1  0
 11 41  1  0
 15 42  1  0
 16 43  1  0
 16 44  1  0
 17 45  1  0
 17 46  1  0
 22 47  1  0
 22 48  1  0
 22 49  1  0
 23 50  1  0
 25 51  1  0
 25 52  1  0
 25 53  1  0
 27 54  1  0
 27 55  1  0
 28 56  1  0
 28 57  1  0
 29 58  1  0
 29 59  1  0
 30 60  1  0
 30 61  1  0
M  END
>  <UniqueID>  (22) 
21

>  <SMILES>  (22) 
COc1ccccc1N1CCN(C(=O)C2CCN(c3nc(C)cc(C)n3)CC2)CC1

>  <Energy>  (22) 
72.20911201629441

>  <Genealogy>  (22) 
COc1ccccc1N1CCN(C(=O)C2CCN(c3nc(C)cc(C)n3)CC2)CC1 (3D coordinates assigned)
COc1ccccc1N1CCN(C(=O)C2CCN(c3nc(C)cc(C)n3)CC2)CC1 (nonaromatic ring conformer: 72.20911201629441 kcal/mol)

>  <smiles>  (22) 
COc1ccccc1N1CCN(C(=O)C2CCN(c3nc(C)cc(C)n3)CC2)CC1

>  <score_type>  (22) 
oracle

>  <origin>  (22) 
adg

>  <m_score__min__energy>  (22) 
-8.4000000000000004

>  <m_primary>  (22) 
energy

$$$$
22:0
     RDKit          3D

 69 73  0  0  0  0  0  0  0  0999 V2000
   -2.1050   24.9360  -28.7150 C   0  0  0  0  0  0  0  0  0  0  0  0
   -3.0960   25.1930  -29.7060 O   0  0  0  0  0  0  0  0  0  0  0  0
   -4.3090   24.4980  -29.8110 C   0  0  0  0  0  0  0  0  0  0  0  0
   -5.5580   25.1440  -29.7410 C   0  0  0  0  0  0  0  0  0  0  0  0
   -6.7390   24.4080  -29.8750 C   0  0  0  0  0  0  0  0  0  0  0  0
   -6.6930   23.0210  -30.0900 C   0  0  0  0  0  0  0  0  0  0  0  0
   -7.9770   22.2330  -30.2390 C   0  0  0  0  0  0  0  0  0  0  0  0
   -8.2120   21.6820  -31.5990 N   0  0  2  0  0  0  0  0  0  0  0  0
   -9.6360   21.6800  -31.9810 C   0  0  0  0  0  0  0  0  0  0  0  0
   -7.5000   20.4020  -31.8800 C   0  0  0  0  0  0  0  0  0  0  0  0
   -7.1360   20.1490  -33.3610 C   0  0  0  0  0  0  0  0  0  0  0  0
   -5.8280   19.4120  -33.4570 C   0  0  0  0  0  0  0  0  0  0  0  0
   -5.6230   18.0250  -33.5350 C   0  0  0  0  0  0  0  0  0  0  0  0
   -6.6980   16.9840  -33.5880 C   0  0  0  0  0  0  0  0  0  0  0  0
   -4.2920   17.7560  -33.5270 N   0  0  0  0  0  0  0  0  0  0  0  0
   -3.6750   18.9420  -33.4840 C   0  0  0  0  0  0  0  0  0  0  0  0
   -2.3000   19.1200  -33.4980 C   0  0  0  0  0  0  0  0  0  0  0  0
   -1.8070   20.4430  -33.4690 C   0  0  0  0  0  0  0  0  0  0  0  0
   -0.4180   20.6420  -33.5230 O   0  0  0  0  0  0  0  0  0  0  0  0
    0.4850   20.4410  -32.4350 C   0  0  0  0  0  0  0  0  0  0  0  0
   -0.2290   20.6140  -31.1200 C   0  0  0  0  0  0  0  0  0  0  0  0
   -0.4660   19.5110  -30.2820 C   0  0  0  0  0  0  0  0  0  0  0  0
   -1.1370   19.6810  -29.0660 C   0  0  0  0  0  0  0  0  0  0  0  0
   -1.5660   20.9530  -28.6760 C   0  0  0  0  0  0  0  0  0  0  0  0
   -1.3250   22.0570  -29.5000 C   0  0  0  0  0  0  0  0  0  0  0  0
   -0.6570   21.8900  -30.7170 C   0  0  0  0  0  0  0  0  0  0  0  0
   -2.7300   21.5290  -33.3860 C   0  0  0  0  0  0  0  0  0  0  0  0
   -4.1200   21.2960  -33.3610 C   0  0  0  0  0  0  0  0  0  0  0  0
   -4.5600   19.9740  -33.4220 C   0  0  0  0  0  0  0  0  0  0  0  0
   -1.4300   17.8990  -33.6750 C   0  0  0  0  0  0  0  0  0  0  0  0
   -2.1290   16.6220  -33.1460 C   0  0  0  0  0  0  0  0  0  0  0  0
   -3.5830   16.4810  -33.6580 C   0  0  0  0  0  0  0  0  0  0  0  0
   -5.4480   22.3740  -30.1150 C   0  0  0  0  0  0  0  0  0  0  0  0
   -4.2680   23.1110  -29.9870 C   0  0  0  0  0  0  0  0  0  0  0  0
   -2.5482   25.0509  -27.7148 H   0  0  0  0  0  0  0  0  0  0  0  0
   -1.7263   23.9099  -28.8326 H   0  0  0  0  0  0  0  0  0  0  0  0
   -1.2754   25.6487  -28.8326 H   0  0  0  0  0  0  0  0  0  0  0  0
   -5.6047   26.2312  -29.5804 H   0  0  0  0  0  0  0  0  0  0  0  0
   -7.7111   24.9189  -29.8116 H   0  0  0  0  0  0  0  0  0  0  0  0
   -7.9482   21.3932  -29.5291 H   0  0  0  0  0  0  0  0  0  0  0  0
   -8.7988   22.9372  -30.0423 H   0  0  0  0  0  0  0  0  0  0  0  0
   -7.7690   22.3830  -32.2400 H   0  0  0  0  0  0  0  0  0  0  0  0
  -10.2588   21.6791  -31.0743 H   0  0  0  0  0  0  0  0  0  0  0  0
   -9.8571   22.5778  -32.5768 H   0  0  0  0  0  0  0  0  0  0  0  0
   -9.8545   20.7815  -32.5768 H   0  0  0  0  0  0  0  0  0  0  0  0
   -6.5670   20.3992  -31.2973 H   0  0  0  0  0  0  0  0  0  0  0  0
   -8.2014   19.6014  -31.6024 H   0  0  0  0  0  0  0  0  0  0  0  0
   -7.9273   19.5472  -33.8318 H   0  0  0  0  0  0  0  0  0  0  0  0
   -7.0415   21.1158  -33.8771 H   0  0  0  0  0  0  0  0  0  0  0  0
   -6.9876   16.7036  -32.5645 H   0  0  0  0  0  0  0  0  0  0  0  0
   -7.5729   17.3871  -34.1192 H   0  0  0  0  0  0  0  0  0  0  0  0
   -6.3233   16.0966  -34.1192 H   0  0  0  0  0  0  0  0  0  0  0  0
    0.8992   19.4235  -32.4912 H   0  0  0  0  0  0  0  0  0  0  0  0
    1.2941   21.1832  -32.5016 H   0  0  0  0  0  0  0  0  0  0  0  0
   -0.1227   18.5103  -30.5832 H   0  0  0  0  0  0  0  0  0  0  0  0
   -1.3270   18.8136  -28.4168 H   0  0  0  0  0  0  0  0  0  0  0  0
   -2.0937   21.0857  -27.7200 H   0  0  0  0  0  0  0  0  0  0  0  0
   -1.6612   23.0576  -29.1905 H   0  0  0  0  0  0  0  0  0  0  0  0
   -0.4659   22.7609  -31.3612 H   0  0  0  0  0  0  0  0  0  0  0  0
   -2.3516   22.5609  -33.3410 H   0  0  0  0  0  0  0  0  0  0  0  0
   -4.8345   22.1298  -33.2955 H   0  0  0  0  0  0  0  0  0  0  0  0
   -1.2101   17.7689  -34.7449 H   0  0  0  0  0  0  0  0  0  0  0  0
   -0.5042   18.0488  -33.1002 H   0  0  0  0  0  0  0  0  0  0  0  0
   -1.5535   15.7440  -33.4746 H   0  0  0  0  0  0  0  0  0  0  0  0
   -2.1687   16.6952  -32.0492 H   0  0  0  0  0  0  0  0  0  0  0  0
   -3.5680   16.1808  -34.7161 H   0  0  0  0  0  0  0  0  0  0  0  0
   -4.1020   15.7188  -33.0584 H   0  0  0  0  0  0  0  0  0  0  0  0
   -5.4009   21.2817  -30.2359 H   0  0  0  0  0  0  0  0  0  0  0  0
   -3.2971   22.5954  -30.0250 H   0  0  0  0  0  0  0  0  0  0  0  0
  1  2  1  0
  2  3  1  0
  3  4  2  0
  4  5  1  0
  5  6  2  0
  6  7  1  0
  7  8  1  0
  8  9  1  0
  8 10  1  0
 10 11  1  0
 11 12  1  0
 12 13  2  0
 13 14  1  0
 13 15  1  0
 15 16  1  0
 16 17  2  0
 17 18  1  0
 18 19  1  0
 19 20  1  0
 20 21  1  0
 21 22  2  0
 22 23  1  0
 23 24  2  0
 24 25  1  0
 25 26  2  0
 18 27  2  0
 27 28  1  0
 28 29  2  0
 17 30  1  0
 30 31  1  0
 31 32  1  0
  6 33  1  0
 33 34  2  0
 34  3  1  0
 29 12  1  0
 32 15  1  0
 29 16  1  0
 26 21  1  0
  1 35  1  0
  1 36  1  0
  1 37  1  0
  4 38  1  0
  5 39  1  0
  7 40  1  0
  7 41  1  0
  8 42  1  6
  9 43  1  0
  9 44  1  0
  9 45  1  0
 10 46  1  0
 10 47  1  0
 11 48  1  0
 11 49  1  0
 14 50  1  0
 14 51  1  0
 14 52  1  0
 20 53  1  0
 20 54  1  0
 22 55  1  0
 23 56  1  0
 24 57  1  0
 25 58  1  0
 26 59  1  0
 27 60  1  0
 28 61  1  0
 30 62  1  0
 30 63  1  0
 31 64  1  0
 31 65  1  0
 32 66  1  0
 32 67  1  0
 33 68  1  0
 34 69  1  0
M  CHG  1   8   1
M  END
>  <UniqueID>  (23) 
22

>  <SMILES>  (23) 
COc1ccc(C[N@H+](C)CCc2c(C)n3c4c(c(OCc5ccccc5)ccc24)CCC3)cc1

>  <Energy>  (23) 
113.71560184391905

>  <Genealogy>  (23) 
COc1ccc(C[NH+](C)CCc2c(C)n3c4c(c(OCc5ccccc5)ccc24)CCC3)cc1 (protonated)
COc1ccc(C[N@H+](C)CCc2c(C)n3c4c(c(OCc5ccccc5)ccc24)CCC3)cc1 (chirality)
COc1ccc(C[N@H+](C)CCc2c(C)n3c4c(c(OCc5ccccc5)ccc24)CCC3)cc1 (3D coordinates assigned)
COc1ccc(C[N@H+](C)CCc2c(C)n3c4c(c(OCc5ccccc5)ccc24)CCC3)cc1 (nonaromatic ring conformer: 113.71560184391905 kcal/mol)

>  <smiles>  (23) 
COc1ccc(CN(C)CCc2c(C)n3c4c(c(OCc5ccccc5)ccc24)CCC3)cc1

>  <score_type>  (23) 
oracle

>  <origin>  (23) 
adg

>  <m_score__min__energy>  (23) 
-9.4299999999999997

>  <m_primary>  (23) 
energy

$$$$
23:0
     RDKit          3D

 47 49  0  0  0  0  0  0  0  0999 V2000
   -9.7634   20.0829  -32.0709 H   0  0  0  0  0  0  0  0  0  0  0  0
   -8.6760   20.1900  -31.9440 C   0  0  0  0  0  0  0  0  0  0  0  0
   -7.8810   19.0590  -31.7540 C   0  0  0  0  0  0  0  0  0  0  0  0
   -8.3437   18.0613  -31.7293 H   0  0  0  0  0  0  0  0  0  0  0  0
   -6.4990   19.1900  -31.5950 C   0  0  0  0  0  0  0  0  0  0  0  0
   -5.8799   18.2938  -31.4413 H   0  0  0  0  0  0  0  0  0  0  0  0
   -5.8920   20.4620  -31.6300 C   0  0  0  0  0  0  0  0  0  0  0  0
   -4.4230   20.6140  -31.4570 C   0  0  0  0  0  0  0  0  0  0  0  0
   -3.6400   19.6550  -31.8530 N   0  0  0  0  0  0  0  0  0  0  0  0
   -2.6770   19.8330  -32.8220 O   0  0  0  0  0  0  0  0  0  0  0  0
   -2.8750   19.3330  -34.1370 C   0  0  0  0  0  0  0  0  0  0  0  0
   -3.2485   20.1421  -34.7819 H   0  0  0  0  0  0  0  0  0  0  0  0
   -1.9183   18.9558  -34.5275 H   0  0  0  0  0  0  0  0  0  0  0  0
   -3.8750   18.2120  -34.1160 C   0  0  0  0  0  0  0  0  0  0  0  0
   -3.4810   16.9150  -33.7480 C   0  0  0  0  0  0  0  0  0  0  0  0
   -2.4434   16.7256  -33.4357 H   0  0  0  0  0  0  0  0  0  0  0  0
   -4.4020   15.8640  -33.7770 C   0  0  0  0  0  0  0  0  0  0  0  0
   -4.0898   14.8516  -33.4809 H   0  0  0  0  0  0  0  0  0  0  0  0
   -5.7200   16.0980  -34.1820 C   0  0  0  0  0  0  0  0  0  0  0  0
   -6.8740   14.7770  -34.2200 Cl  0  0  0  0  0  0  0  0  0  0  0  0
   -6.1150   17.3840  -34.5650 C   0  0  0  0  0  0  0  0  0  0  0  0
   -7.1507   17.5674  -34.8871 H   0  0  0  0  0  0  0  0  0  0  0  0
   -5.1950   18.4370  -34.5390 C   0  0  0  0  0  0  0  0  0  0  0  0
   -5.5064   19.4448  -34.8509 H   0  0  0  0  0  0  0  0  0  0  0  0
   -3.8580   21.8280  -30.8150 C   0  0  0  0  0  0  0  0  0  0  0  0
   -2.8120   21.7100  -29.8910 C   0  0  0  0  0  0  0  0  0  0  0  0
   -2.4084   20.7166  -29.6456 H   0  0  0  0  0  0  0  0  0  0  0  0
   -2.2790   22.8460  -29.2800 C   0  0  0  0  0  0  0  0  0  0  0  0
   -1.4581   22.7427  -28.5551 H   0  0  0  0  0  0  0  0  0  0  0  0
   -2.7860   24.1240  -29.5860 C   0  0  0  0  0  0  0  0  0  0  0  0
   -2.2750   25.2890  -28.9910 O   0  0  0  0  0  0  0  0  0  0  0  0
   -1.5990   25.3270  -27.7390 C   0  0  0  0  0  0  0  0  0  0  0  0
   -2.3357   25.2856  -26.9231 H   0  0  0  0  0  0  0  0  0  0  0  0
   -0.9190   24.4657  -27.6631 H   0  0  0  0  0  0  0  0  0  0  0  0
   -1.0199   26.2591  -27.6631 H   0  0  0  0  0  0  0  0  0  0  0  0
   -3.8340   24.2500  -30.5090 C   0  0  0  0  0  0  0  0  0  0  0  0
   -4.3200   25.5370  -30.7940 O   0  0  0  0  0  0  0  0  0  0  0  0
   -5.6170   26.0060  -30.4400 C   0  0  0  0  0  0  0  0  0  0  0  0
   -5.7085   26.0391  -29.3443 H   0  0  0  0  0  0  0  0  0  0  0  0
   -5.7668   27.0152  -30.8511 H   0  0  0  0  0  0  0  0  0  0  0  0
   -6.3776   25.3260  -30.8511 H   0  0  0  0  0  0  0  0  0  0  0  0
   -4.3680   23.0980  -31.1210 C   0  0  0  0  0  0  0  0  0  0  0  0
   -5.1911   23.1959  -31.8442 H   0  0  0  0  0  0  0  0  0  0  0  0
   -6.7080   21.5960  -31.8140 C   0  0  0  0  0  0  0  0  0  0  0  0
   -6.2539   22.5977  -31.8328 H   0  0  0  0  0  0  0  0  0  0  0  0
   -8.0910   21.4580  -31.9730 C   0  0  0  0  0  0  0  0  0  0  0  0
   -8.7185   22.3492  -32.1210 H   0  0  0  0  0  0  0  0  0  0  0  0
  1  2  1  0
  2  3  2  0
  3  4  1  0
  3  5  1  0
  5  6  1  0
  5  7  2  0
  7  8  1  0
  8  9  2  0
  9 10  1  0
 10 11  1  0
 11 12  1  0
 11 13  1  0
 11 14  1  0
 14 15  2  0
 15 16  1  0
 15 17  1  0
 17 18  1  0
 17 19  2  0
 19 20  1  0
 19 21  1  0
 21 22  1  0
 21 23  2  0
 23 24  1  0
  8 25  1  0
 25 26  2  0
 26 27  1  0
 26 28  1  0
 28 29  1  0
 28 30  2  0
 30 31  1  0
 31 32  1  0
 32 33  1  0
 32 34  1  0
 32 35  1  0
 30 36  1  0
 36 37  1  0
 37 38  1  0
 38 39  1  0
 38 40  1  0
 38 41  1  0
 36 42  2  0
 42 43  1  0
  7 44  1  0
 44 45  1  0
 44 46  2  0
 46 47  1  0
 46  2  1  0
 23 14  1  0
 42 25  1  0
M  END
>  <UniqueID>  (24) 
23

>  <SMILES>  (24) 
COc1ccc(/C(=N\OCc2ccc(Cl)cc2)c2ccccc2)cc1OC

>  <Energy>  (24) 
52.133073100710575

>  <Genealogy>  (24) 
COc1ccc(/C(=N\OCc2ccc(Cl)cc2)c2ccccc2)cc1OC (cis-trans isomerization)
COc1ccc(/C(=N\OCc2ccc(Cl)cc2)c2ccccc2)cc1OC (3D coordinates assigned)
COc1ccc(/C(=N\OCc2ccc(Cl)cc2)c2ccccc2)cc1OC (optimized conformer: 52.133073100710575 kcal/mol)

>  <smiles>  (24) 
COc1ccc(C(=NOCc2ccc(Cl)cc2)c2ccccc2)cc1OC

>  <score_type>  (24) 
oracle

>  <origin>  (24) 
adg

>  <m_score__min__energy>  (24) 
-9.1300000000000008

>  <m_primary>  (24) 
energy

$$$$
24:0
     RDKit          3D

 47 49  0  0  0  0  0  0  0  0999 V2000
   -4.3220   23.7350  -27.4500 F   0  0  0  0  0  0  0  0  0  0  0  0
   -3.2520   24.5570  -27.3110 C   0  0  0  0  0  0  0  0  0  0  0  0
   -3.0560   25.2260  -26.0970 C   0  0  0  0  0  0  0  0  0  0  0  0
   -1.9490   26.0620  -25.9270 C   0  0  0  0  0  0  0  0  0  0  0  0
   -1.0320   26.2280  -26.9670 C   0  0  0  0  0  0  0  0  0  0  0  0
   -1.2220   25.5630  -28.1820 C   0  0  0  0  0  0  0  0  0  0  0  0
   -2.3420   24.7350  -28.3690 C   0  0  0  0  0  0  0  0  0  0  0  0
   -2.5160   23.9880  -29.6600 C   0  0  0  0  0  0  0  0  0  0  0  0
   -3.4880   24.6590  -30.4550 O   0  0  0  0  0  0  0  0  0  0  0  0
   -4.7790   24.1740  -30.7210 C   0  0  0  0  0  0  0  0  0  0  0  0
   -5.9300   24.8120  -30.2200 C   0  0  0  0  0  0  0  0  0  0  0  0
   -7.2010   24.3080  -30.5070 C   0  0  0  0  0  0  0  0  0  0  0  0
   -7.3390   23.1650  -31.2960 C   0  0  0  0  0  0  0  0  0  0  0  0
   -8.9370   22.5400  -31.6630 Cl  0  0  0  0  0  0  0  0  0  0  0  0
   -6.2060   22.5210  -31.7980 C   0  0  0  0  0  0  0  0  0  0  0  0
   -4.9210   23.0150  -31.5130 C   0  0  0  0  0  0  0  0  0  0  0  0
   -3.7060   22.3190  -32.0890 C   0  0  0  0  0  0  0  0  0  0  0  0
   -3.9660   21.7750  -33.4340 N   0  0  0  0  0  0  0  0  0  0  0  0
   -3.5260   20.3760  -33.5580 C   0  0  0  0  0  0  0  0  0  0  0  0
   -4.0250   19.5420  -32.3710 C   0  0  0  0  0  0  0  0  0  0  0  0
   -5.5150   19.3820  -32.4280 C   0  0  0  0  0  0  0  0  0  0  0  0
   -6.1680   18.4570  -31.5980 C   0  0  0  0  0  0  0  0  0  0  0  0
   -7.5520   18.3050  -31.6990 C   0  0  0  0  0  0  0  0  0  0  0  0
   -8.2700   19.0640  -32.6250 C   0  0  0  0  0  0  0  0  0  0  0  0
   -7.5870   19.9660  -33.4430 C   0  0  0  0  0  0  0  0  0  0  0  0
   -6.2370   20.1010  -33.3310 N   0  0  0  0  0  0  0  0  0  0  0  0
   -3.7749   25.0934  -25.2750 H   0  0  0  0  0  0  0  0  0  0  0  0
   -1.8000   26.5896  -24.9733 H   0  0  0  0  0  0  0  0  0  0  0  0
   -0.1589   26.8829  -26.8301 H   0  0  0  0  0  0  0  0  0  0  0  0
   -0.4918   25.6884  -28.9950 H   0  0  0  0  0  0  0  0  0  0  0  0
   -1.5577   23.9545  -30.1990 H   0  0  0  0  0  0  0  0  0  0  0  0
   -2.8493   22.9603  -29.4533 H   0  0  0  0  0  0  0  0  0  0  0  0
   -5.8277   25.7136  -29.5982 H   0  0  0  0  0  0  0  0  0  0  0  0
   -8.0943   24.8128  -30.1105 H   0  0  0  0  0  0  0  0  0  0  0  0
   -6.3198   21.6213  -32.4205 H   0  0  0  0  0  0  0  0  0  0  0  0
   -2.8795   23.0421  -32.1522 H   0  0  0  0  0  0  0  0  0  0  0  0
   -3.4505   21.4788  -31.4267 H   0  0  0  0  0  0  0  0  0  0  0  0
   -3.4380   22.3600  -34.1230 H   0  0  0  0  0  0  0  0  0  0  0  0
   -4.9870   21.8470  -33.6570 H   0  0  0  0  0  0  0  0  0  0  0  0
   -3.9275   19.9527  -34.4905 H   0  0  0  0  0  0  0  0  0  0  0  0
   -2.4263   20.3514  -33.5694 H   0  0  0  0  0  0  0  0  0  0  0  0
   -3.5532   18.5488  -32.4032 H   0  0  0  0  0  0  0  0  0  0  0  0
   -3.7592   20.0593  -31.4373 H   0  0  0  0  0  0  0  0  0  0  0  0
   -5.5947   17.8579  -30.8752 H   0  0  0  0  0  0  0  0  0  0  0  0
   -8.0761   17.5882  -31.0498 H   0  0  0  0  0  0  0  0  0  0  0  0
   -9.3611   18.9527  -32.7091 H   0  0  0  0  0  0  0  0  0  0  0  0
   -8.1403   20.5682  -34.1787 H   0  0  0  0  0  0  0  0  0  0  0  0
  1  2  1  0
  2  3  2  0
  3  4  1  0
  4  5  2  0
  5  6  1  0
  6  7  2  0
  7  8  1  0
  8  9  1  0
  9 10  1  0
 10 11  2  0
 11 12  1  0
 12 13  2  0
 13 14  1  0
 13 15  1  0
 15 16  2  0
 16 17  1  0
 17 18  1  0
 18 19  1  0
 19 20  1  0
 20 21  1  0
 21 22  2  0
 22 23  1  0
 23 24  2  0
 24 25  1  0
 25 26  2  0
  7  2  1  0
 16 10  1  0
 26 21  1  0
  3 27  1  0
  4 28  1  0
  5 29  1  0
  6 30  1  0
  8 31  1  0
  8 32  1  0
 11 33  1  0
 12 34  1  0
 15 35  1  0
 17 36  1  0
 17 37  1  0
 18 38  1  0
 18 39  1  0
 19 40  1  0
 19 41  1  0
 20 42  1  0
 20 43  1  0
 22 44  1  0
 23 45  1  0
 24 46  1  0
 25 47  1  0
M  CHG  1  18   1
M  END
>  <UniqueID>  (25) 
24

>  <SMILES>  (25) 
Fc1ccccc1COc1ccc(Cl)cc1C[NH2+]CCc1ccccn1

>  <Energy>  (25) 
45.91659162464173

>  <Genealogy>  (25) 
Fc1ccccc1COc1ccc(Cl)cc1C[NH2+]CCc1ccccn1 (protonated)
Fc1ccccc1COc1ccc(Cl)cc1C[NH2+]CCc1ccccn1 (3D coordinates assigned)
Fc1ccccc1COc1ccc(Cl)cc1C[NH2+]CCc1ccccn1 (optimized conformer: 45.91659162464173 kcal/mol)

>  <smiles>  (25) 
Fc1ccccc1COc1ccc(Cl)cc1CNCCc1ccccn1

>  <score_type>  (25) 
oracle

>  <origin>  (25) 
adg

>  <m_score__min__energy>  (25) 
-8.3399999999999999

>  <m_primary>  (25) 
energy

$$$$
25:0
     RDKit          3D

 31 33  0  0  0  0  0  0  0  0999 V2000
   -5.4410   16.3830  -32.1650 C   0  0  0  0  0  0  0  0  0  0  0  0
   -6.5600   17.2330  -33.2560 S   0  0  0  0  0  0  0  0  0  0  0  0
   -5.7640   18.6620  -33.9580 C   0  0  0  0  0  0  0  0  0  0  0  0
   -6.6820   19.8770  -33.8380 C   0  0  0  0  0  0  0  0  0  0  0  0
   -7.0220   20.1320  -32.4250 N   0  0  0  0  0  0  0  0  0  0  0  0
   -6.7440   21.4070  -31.8080 C   0  0  0  0  0  0  0  0  0  0  0  0
   -5.5130   21.7440  -31.3430 N   0  0  0  0  0  0  0  0  0  0  0  0
   -5.5110   22.9890  -30.8020 C   0  0  0  0  0  0  0  0  0  0  0  0
   -4.3890   23.6120  -30.2440 C   0  0  0  0  0  0  0  0  0  0  0  0
   -2.6930   22.7320  -30.1880 Br  0  0  0  0  0  0  0  0  0  0  0  0
   -4.5310   24.9090  -29.7160 C   0  0  0  0  0  0  0  0  0  0  0  0
   -5.7790   25.5630  -29.7530 C   0  0  0  0  0  0  0  0  0  0  0  0
   -6.8970   24.9290  -30.3160 C   0  0  0  0  0  0  0  0  0  0  0  0
   -6.7320   23.6450  -30.8310 C   0  0  0  0  0  0  0  0  0  0  0  0
   -7.8730   22.6530  -31.5560 S   0  0  0  0  0  0  0  0  0  0  0  0
   -7.6520   19.0890  -31.5890 C   0  0  0  0  0  0  0  0  0  0  0  0
   -7.9870   17.8040  -32.3550 C   0  0  0  0  0  0  0  0  0  0  0  0
   -5.7168   16.5925  -31.1210 H   0  0  0  0  0  0  0  0  0  0  0  0
   -5.5004   15.3003  -32.3497 H   0  0  0  0  0  0  0  0  0  0  0  0
   -4.4139   16.7307  -32.3497 H   0  0  0  0  0  0  0  0  0  0  0  0
   -4.8255   18.8588  -33.4191 H   0  0  0  0  0  0  0  0  0  0  0  0
   -5.5490   18.4728  -35.0201 H   0  0  0  0  0  0  0  0  0  0  0  0
   -6.1710   20.7588  -34.2519 H   0  0  0  0  0  0  0  0  0  0  0  0
   -7.6089   19.6783  -34.3960 H   0  0  0  0  0  0  0  0  0  0  0  0
   -3.6618   25.4158  -29.2713 H   0  0  0  0  0  0  0  0  0  0  0  0
   -5.8772   26.5769  -29.3379 H   0  0  0  0  0  0  0  0  0  0  0  0
   -7.8752   25.4311  -30.3498 H   0  0  0  0  0  0  0  0  0  0  0  0
   -6.9616   18.8357  -30.7710 H   0  0  0  0  0  0  0  0  0  0  0  0
   -8.6034   19.5020  -31.2226 H   0  0  0  0  0  0  0  0  0  0  0  0
   -8.3007   17.0275  -31.6418 H   0  0  0  0  0  0  0  0  0  0  0  0
   -8.8000   18.0124  -33.0661 H   0  0  0  0  0  0  0  0  0  0  0  0
  1  2  1  0
  2  3  1  0
  3  4  1  0
  4  5  1  0
  5  6  1  0
  6  7  2  0
  7  8  1  0
  8  9  2  0
  9 10  1  0
  9 11  1  0
 11 12  2  0
 12 13  1  0
 13 14  2  0
 14 15  1  0
  5 16  1  0
 16 17  1  0
 17  2  1  0
 15  6  1  0
 14  8  1  0
  1 18  1  0
  1 19  1  0
  1 20  1  0
  3 21  1  0
  3 22  1  0
  4 23  1  0
  4 24  1  0
 11 25  1  0
 12 26  1  0
 13 27  1  0
 16 28  1  0
 16 29  1  0
 17 30  1  0
 17 31  1  0
M  CHG  1   2   1
M  END
>  <UniqueID>  (26) 
25

>  <SMILES>  (26) 
C[S+]1CCN(c2nc3c(Br)cccc3s2)CC1

>  <Energy>  (26) 
60.259666654880746

>  <Genealogy>  (26) 
C[S+]1CCN(c2nc3c(Br)cccc3s2)CC1 (3D coordinates assigned)
C[S+]1CCN(c2nc3c(Br)cccc3s2)CC1 (nonaromatic ring conformer: 60.259666654880746 kcal/mol)

>  <smiles>  (26) 
C[S+]1CCN(c2nc3c(Br)cccc3s2)CC1

>  <score_type>  (26) 
oracle

>  <origin>  (26) 
adg

>  <m_score__min__energy>  (26) 
-6.6900000000000004

>  <m_primary>  (26) 
energy

$$$$
26:0
     RDKit          3D

 45 45  0  0  0  0  0  0  0  0999 V2000
   -5.6660   17.9450  -34.7910 C   0  0  0  0  0  0  0  0  0  0  0  0
   -6.0810   19.2630  -34.1340 C   0  0  0  0  0  0  0  0  0  0  0  0
   -6.6360   19.0980  -32.7740 N   0  0  0  0  0  0  0  0  0  0  0  0
   -8.1010   19.3160  -32.6660 C   0  0  0  0  0  0  0  0  0  0  0  0
   -8.7760   18.6080  -31.4830 C   0  0  0  0  0  0  0  0  0  0  0  0
   -5.7850   19.6610  -31.7000 C   0  0  0  0  0  0  0  0  0  0  0  0
   -4.7780   20.6890  -32.2470 C   0  0  0  0  0  0  0  0  0  0  0  0
   -3.6330   20.9880  -31.2690 C   0  0  0  0  0  0  0  0  0  0  0  0
   -3.3910   22.4270  -31.1710 N   0  0  0  0  0  0  0  0  0  0  0  0
   -3.0580   23.0800  -29.9360 C   0  0  0  0  0  0  0  0  0  0  0  0
   -2.7600   22.3980  -28.9180 O   0  0  0  0  0  0  0  0  0  0  0  0
   -3.0780   24.5470  -29.8360 C   0  0  0  0  0  0  0  0  0  0  0  0
   -2.3730   25.1320  -28.9700 O   0  0  0  0  0  0  0  0  0  0  0  0
   -3.8890   25.3070  -30.7380 N   0  0  0  0  0  0  0  0  0  0  0  0
   -5.2810   25.6540  -30.4760 C   0  0  0  0  0  0  0  0  0  0  0  0
   -6.1740   24.4760  -30.7540 C   0  0  0  0  0  0  0  0  0  0  0  0
   -6.4390   24.0920  -32.0790 C   0  0  0  0  0  0  0  0  0  0  0  0
   -7.2510   22.9850  -32.3430 C   0  0  0  0  0  0  0  0  0  0  0  0
   -7.8010   22.2520  -31.2890 C   0  0  0  0  0  0  0  0  0  0  0  0
   -7.5370   22.6240  -29.9660 C   0  0  0  0  0  0  0  0  0  0  0  0
   -6.7250   23.7300  -29.6980 C   0  0  0  0  0  0  0  0  0  0  0  0
   -5.4328   17.2044  -34.0118 H   0  0  0  0  0  0  0  0  0  0  0  0
   -6.4901   17.5718  -35.4168 H   0  0  0  0  0  0  0  0  0  0  0  0
   -4.7767   18.1113  -35.4168 H   0  0  0  0  0  0  0  0  0  0  0  0
   -5.1966   19.9141  -34.0719 H   0  0  0  0  0  0  0  0  0  0  0  0
   -6.8774   19.6968  -34.7566 H   0  0  0  0  0  0  0  0  0  0  0  0
   -8.2787   20.3967  -32.5636 H   0  0  0  0  0  0  0  0  0  0  0  0
   -8.5442   18.8853  -33.5760 H   0  0  0  0  0  0  0  0  0  0  0  0
   -8.3857   19.0174  -30.5395 H   0  0  0  0  0  0  0  0  0  0  0  0
   -9.8630   18.7694  -31.5309 H   0  0  0  0  0  0  0  0  0  0  0  0
   -8.5629   17.5299  -31.5309 H   0  0  0  0  0  0  0  0  0  0  0  0
   -6.4292   20.1543  -30.9572 H   0  0  0  0  0  0  0  0  0  0  0  0
   -5.2176   18.8354  -31.2457 H   0  0  0  0  0  0  0  0  0  0  0  0
   -4.3480   20.2959  -33.1801 H   0  0  0  0  0  0  0  0  0  0  0  0
   -5.3246   21.6295  -32.4102 H   0  0  0  0  0  0  0  0  0  0  0  0
   -3.8981   20.5991  -30.2748 H   0  0  0  0  0  0  0  0  0  0  0  0
   -2.7184   20.5029  -31.6407 H   0  0  0  0  0  0  0  0  0  0  0  0
   -3.5580   23.0050  -32.0260 H   0  0  0  0  0  0  0  0  0  0  0  0
   -5.3889   25.9504  -29.4222 H   0  0  0  0  0  0  0  0  0  0  0  0
   -5.5720   26.4866  -31.1334 H   0  0  0  0  0  0  0  0  0  0  0  0
   -6.0058   24.6647  -32.9123 H   0  0  0  0  0  0  0  0  0  0  0  0
   -7.4571   22.6908  -33.3827 H   0  0  0  0  0  0  0  0  0  0  0  0
   -8.4415   21.3826  -31.4987 H   0  0  0  0  0  0  0  0  0  0  0  0
   -7.9689   22.0455  -29.1360 H   0  0  0  0  0  0  0  0  0  0  0  0
   -6.5166   24.0174  -28.6569 H   0  0  0  0  0  0  0  0  0  0  0  0
  1  2  1  0
  2  3  1  0
  3  4  1  0
  4  5  1  0
  3  6  1  0
  6  7  1  0
  7  8  1  0
  8  9  1  0
  9 10  1  0
 10 11  2  0
 10 12  1  0
 12 13  2  0
 12 14  1  0
 14 15  1  0
 15 16  1  0
 16 17  2  0
 17 18  1  0
 18 19  2  0
 19 20  1  0
 20 21  2  0
 21 16  1  0
  1 22  1  0
  1 23  1  0
  1 24  1  0
  2 25  1  0
  2 26  1  0
  4 27  1  0
  4 28  1  0
  5 29  1  0
  5 30  1  0
  5 31  1  0
  6 32  1  0
  6 33  1  0
  7 34  1  0
  7 35  1  0
  8 36  1  0
  8 37  1  0
  9 38  1  0
 15 39  1  0
 15 40  1  0
 17 41  1  0
 18 42  1  0
 19 43  1  0
 20 44  1  0
 21 45  1  0
M  CHG  1  14  -1
M  END
>  <UniqueID>  (27) 
26

>  <SMILES>  (27) 
CCN(CC)CCCNC(=O)C(=O)[N-]Cc1ccccc1

>  <Energy>  (27) 
39.113857274322946

>  <Genealogy>  (27) 
CCN(CC)CCCNC(=O)C(=O)[N-]Cc1ccccc1 (protonated)
CCN(CC)CCCNC(=O)C(=O)[N-]Cc1ccccc1 (3D coordinates assigned)
CCN(CC)CCCNC(=O)C(=O)[N-]Cc1ccccc1 (optimized conformer: 39.113857274322946 kcal/mol)

>  <smiles>  (27) 
CCN(CC)CCCNC(=O)C(=O)NCc1ccccc1

>  <score_type>  (27) 
oracle

>  <origin>  (27) 
adg

>  <m_score__min__energy>  (27) 
-8.8499999999999996

>  <m_primary>  (27) 
energy

$$$$
27:0
     RDKit          3D

 37 39  0  0  0  0  0  0  0  0999 V2000
   -9.0540   18.1830  -31.5890 C   0  0  0  0  0  0  0  0  0  0  0  0
   -9.1230   19.6870  -31.8470 C   0  0  0  0  0  0  0  0  0  0  0  0
   -8.3240   20.1050  -33.0890 C   0  0  0  0  0  0  0  0  0  0  0  0
   -7.0190   20.6720  -32.7190 N   0  0  0  0  0  0  0  0  0  0  0  0
   -5.7980   20.0640  -32.7030 C   0  0  0  0  0  0  0  0  0  0  0  0
   -5.5220   18.7090  -33.2150 C   0  0  0  0  0  0  0  0  0  0  0  0
   -5.7160   17.5810  -32.4020 C   0  0  0  0  0  0  0  0  0  0  0  0
   -5.4660   16.3010  -32.9070 C   0  0  0  0  0  0  0  0  0  0  0  0
   -5.0380   16.1380  -34.2270 C   0  0  0  0  0  0  0  0  0  0  0  0
   -4.8670   17.2550  -35.0480 C   0  0  0  0  0  0  0  0  0  0  0  0
   -5.1160   18.5380  -34.5480 C   0  0  0  0  0  0  0  0  0  0  0  0
   -4.8270   20.8210  -32.1260 N   0  0  0  0  0  0  0  0  0  0  0  0
   -5.4800   21.9440  -31.7830 C   0  0  0  0  0  0  0  0  0  0  0  0
   -4.9590   23.0590  -31.1300 C   0  0  0  0  0  0  0  0  0  0  0  0
   -5.8370   24.1270  -30.8400 C   0  0  0  0  0  0  0  0  0  0  0  0
   -5.3330   25.3320  -30.1020 C   0  0  0  0  0  0  0  0  0  0  0  0
   -7.2090   24.0250  -31.1830 C   0  0  0  0  0  0  0  0  0  0  0  0
   -7.7010   22.8820  -31.8390 C   0  0  0  0  0  0  0  0  0  0  0  0
   -6.7960   21.8600  -32.1300 C   0  0  0  0  0  0  0  0  0  0  0  0
   -9.0455   17.9970  -30.5049 H   0  0  0  0  0  0  0  0  0  0  0  0
   -9.9306   17.6933  -32.0382 H   0  0  0  0  0  0  0  0  0  0  0  0
   -8.1362   17.7757  -32.0382 H   0  0  0  0  0  0  0  0  0  0  0  0
  -10.1754   19.9727  -31.9914 H   0  0  0  0  0  0  0  0  0  0  0  0
   -8.6824   20.1969  -30.9776 H   0  0  0  0  0  0  0  0  0  0  0  0
   -8.1637   19.2224  -33.7256 H   0  0  0  0  0  0  0  0  0  0  0  0
   -8.8967   20.8745  -33.6274 H   0  0  0  0  0  0  0  0  0  0  0  0
   -6.0652   17.7041  -31.3662 H   0  0  0  0  0  0  0  0  0  0  0  0
   -5.6067   15.4202  -32.2633 H   0  0  0  0  0  0  0  0  0  0  0  0
   -4.8358   15.1305  -34.6195 H   0  0  0  0  0  0  0  0  0  0  0  0
   -4.5361   17.1259  -36.0891 H   0  0  0  0  0  0  0  0  0  0  0  0
   -4.9933   19.4147  -35.2010 H   0  0  0  0  0  0  0  0  0  0  0  0
   -3.8966   23.1063  -30.8489 H   0  0  0  0  0  0  0  0  0  0  0  0
   -5.4067   25.1558  -29.0187 H   0  0  0  0  0  0  0  0  0  0  0  0
   -4.2828   25.5153  -30.3731 H   0  0  0  0  0  0  0  0  0  0  0  0
   -5.9400   26.2084  -30.3731 H   0  0  0  0  0  0  0  0  0  0  0  0
   -7.8953   24.8477  -30.9337 H   0  0  0  0  0  0  0  0  0  0  0  0
   -8.7628   22.7966  -32.1133 H   0  0  0  0  0  0  0  0  0  0  0  0
  1  2  1  0
  2  3  1  0
  3  4  1  0
  4  5  1  0
  5  6  1  0
  6  7  2  0
  7  8  1  0
  8  9  2  0
  9 10  1  0
 10 11  2  0
  5 12  2  0
 12 13  1  0
 13 14  2  0
 14 15  1  0
 15 16  1  0
 15 17  2  0
 17 18  1  0
 18 19  2  0
 19  4  1  0
 11  6  1  0
 19 13  1  0
  1 20  1  0
  1 21  1  0
  1 22  1  0
  2 23  1  0
  2 24  1  0
  3 25  1  0
  3 26  1  0
  7 27  1  0
  8 28  1  0
  9 29  1  0
 10 30  1  0
 11 31  1  0
 14 32  1  0
 16 33  1  0
 16 34  1  0
 16 35  1  0
 17 36  1  0
 18 37  1  0
M  END
>  <UniqueID>  (28) 
27

>  <SMILES>  (28) 
CCCn1c(-c2ccccc2)nc2cc(C)ccc21

>  <Energy>  (28) 
75.62435823578758

>  <Genealogy>  (28) 
CCCn1c(-c2ccccc2)nc2cc(C)ccc21 (3D coordinates assigned)
CCCn1c(-c2ccccc2)nc2cc(C)ccc21 (optimized conformer: 75.62435823578758 kcal/mol)

>  <smiles>  (28) 
CCCn1c(-c2ccccc2)nc2cc(C)ccc21

>  <score_type>  (28) 
oracle

>  <origin>  (28) 
adg

>  <m_score__min__energy>  (28) 
-7.2300000000000004

>  <m_primary>  (28) 
energy

$$$$
28:0
     RDKit          3D

 33 34  0  0  0  0  0  0  0  0999 V2000
   -3.1860   23.8600  -30.0310 C   0  0  0  0  0  0  0  0  0  0  0  0
   -4.2380   24.3560  -30.8520 O   0  0  0  0  0  0  0  0  0  0  0  0
   -5.4890   23.7380  -30.9960 C   0  0  0  0  0  0  0  0  0  0  0  0
   -6.1380   23.0880  -29.9280 C   0  0  0  0  0  0  0  0  0  0  0  0
   -7.3850   22.4880  -30.1210 C   0  0  0  0  0  0  0  0  0  0  0  0
   -8.0080   22.5360  -31.3790 C   0  0  0  0  0  0  0  0  0  0  0  0
   -9.3340   21.8580  -31.5930 C   0  0  0  0  0  0  0  0  0  0  0  0
   -9.1510   20.3430  -31.7260 C   0  0  0  0  0  0  0  0  0  0  0  0
   -8.4700   20.0170  -32.9770 N   0  0  0  0  0  0  0  0  0  0  0  0
   -7.0680   19.7350  -33.0430 C   0  0  0  0  0  0  0  0  0  0  0  0
   -6.2940   19.7660  -32.0130 N   0  0  0  0  0  0  0  0  0  0  0  0
   -4.9330   19.4380  -32.4200 C   0  0  0  0  0  0  0  0  0  0  0  0
   -5.0130   19.1980  -33.9380 C   0  0  0  0  0  0  0  0  0  0  0  0
   -6.4120   19.4090  -34.2490 N   0  0  0  0  0  0  0  0  0  0  0  0
   -7.3550   23.1710  -32.4450 C   0  0  0  0  0  0  0  0  0  0  0  0
   -6.1080   23.7720  -32.2510 C   0  0  0  0  0  0  0  0  0  0  0  0
   -3.4560   23.9873  -28.9723 H   0  0  0  0  0  0  0  0  0  0  0  0
   -3.0276   22.7923  -30.2432 H   0  0  0  0  0  0  0  0  0  0  0  0
   -2.2615   24.4171  -30.2432 H   0  0  0  0  0  0  0  0  0  0  0  0
   -5.6609   23.0526  -28.9375 H   0  0  0  0  0  0  0  0  0  0  0  0
   -7.8813   21.9755  -29.2837 H   0  0  0  0  0  0  0  0  0  0  0  0
   -9.9901   22.0688  -30.7356 H   0  0  0  0  0  0  0  0  0  0  0  0
   -9.7831   22.2432  -32.5203 H   0  0  0  0  0  0  0  0  0  0  0  0
   -8.5506   19.9754  -30.8807 H   0  0  0  0  0  0  0  0  0  0  0  0
  -10.1412   19.8639  -31.7250 H   0  0  0  0  0  0  0  0  0  0  0  0
   -9.0170   20.0450  -33.8670 H   0  0  0  0  0  0  0  0  0  0  0  0
   -4.2519   20.2724  -32.1967 H   0  0  0  0  0  0  0  0  0  0  0  0
   -4.5441   18.5593  -31.8846 H   0  0  0  0  0  0  0  0  0  0  0  0
   -4.3786   19.9136  -34.4817 H   0  0  0  0  0  0  0  0  0  0  0  0
   -4.6590   18.1981  -34.2294 H   0  0  0  0  0  0  0  0  0  0  0  0
   -6.8540   19.3330  -35.1920 H   0  0  0  0  0  0  0  0  0  0  0  0
   -7.8262   23.1963  -33.4386 H   0  0  0  0  0  0  0  0  0  0  0  0
   -5.6088   24.2760  -33.0917 H   0  0  0  0  0  0  0  0  0  0  0  0
  1  2  1  0
  2  3  1  0
  3  4  2  0
  4  5  1  0
  5  6  2  0
  6  7  1  0
  7  8  1  0
  8  9  1  0
  9 10  1  0
 10 11  2  0
 11 12  1  0
 12 13  1  0
 13 14  1  0
  6 15  1  0
 15 16  2  0
 16  3  1  0
 14 10  1  0
  1 17  1  0
  1 18  1  0
  1 19  1  0
  4 20  1  0
  5 21  1  0
  7 22  1  0
  7 23  1  0
  8 24  1  0
  8 25  1  0
  9 26  1  0
 12 27  1  0
 12 28  1  0
 13 29  1  0
 13 30  1  0
 14 31  1  0
 15 32  1  0
 16 33  1  0
M  END
>  <UniqueID>  (29) 
28

>  <SMILES>  (29) 
COc1ccc(CCNC2=NCCN2)cc1

>  <Energy>  (29) 
38.084433365722525

>  <Genealogy>  (29) 
COc1ccc(CCNC2=NCCN2)cc1 (3D coordinates assigned)
COc1ccc(CCNC2=NCCN2)cc1 (nonaromatic ring conformer: 38.084433365722525 kcal/mol)

>  <smiles>  (29) 
COc1ccc(CCNC2=NCCN2)cc1

>  <score_type>  (29) 
oracle

>  <origin>  (29) 
adg

>  <m_score__min__energy>  (29) 
-6.9199999999999999

>  <m_primary>  (29) 
energy

$$$$
29:0
     RDKit          3D

 48 49  0  0  0  0  0  0  0  0999 V2000
   -3.1500   20.9810  -33.3620 C   0  0  0  0  0  0  0  0  0  0  0  0
   -3.1250   20.1730  -32.2990 C   0  0  0  0  0  0  0  0  0  0  0  0
   -4.2750   20.1240  -31.3270 C   0  0  0  0  0  0  0  0  0  0  0  0
   -5.5680   19.6580  -31.9740 C   0  0  0  0  0  0  0  0  0  0  0  0
   -5.6000   18.3270  -32.4350 C   0  0  0  0  0  0  0  0  0  0  0  0
   -6.7950   17.7350  -32.8340 C   0  0  0  0  0  0  0  0  0  0  0  0
   -7.9910   18.4340  -32.7170 C   0  0  0  0  0  0  0  0  0  0  0  0
   -7.9860   19.7640  -32.2820 C   0  0  0  0  0  0  0  0  0  0  0  0
   -6.7640   20.4390  -32.0550 C   0  0  0  0  0  0  0  0  0  0  0  0
   -6.8160   21.8770  -31.8280 N   0  0  0  0  0  0  0  0  0  0  0  0
   -5.8190   22.8110  -32.3920 C   0  0  0  0  0  0  0  0  0  0  0  0
   -5.7830   24.1960  -31.6940 C   0  0  0  0  0  0  0  0  0  0  0  0
   -4.6050   24.4470  -30.8290 N   0  0  0  0  0  0  0  0  0  0  0  0
   -3.6000   23.3630  -30.8620 C   0  0  0  0  0  0  0  0  0  0  0  0
   -2.7750   23.3860  -29.5810 C   0  0  0  0  0  0  0  0  0  0  0  0
   -4.9460   24.9150  -29.4680 C   0  0  0  0  0  0  0  0  0  0  0  0
   -6.2750   25.6620  -29.4620 C   0  0  0  0  0  0  0  0  0  0  0  0
   -8.0130   22.4880  -31.2150 C   0  0  0  0  0  0  0  0  0  0  0  0
   -9.0970   21.4610  -30.8650 C   0  0  0  0  0  0  0  0  0  0  0  0
   -9.2870   20.4710  -32.0150 C   0  0  0  0  0  0  0  0  0  0  0  0
   -2.2988   21.0001  -34.0585 H   0  0  0  0  0  0  0  0  0  0  0  0
   -4.0218   21.6274  -33.5411 H   0  0  0  0  0  0  0  0  0  0  0  0
   -2.2480   19.5310  -32.1299 H   0  0  0  0  0  0  0  0  0  0  0  0
   -4.0186   19.4303  -30.5128 H   0  0  0  0  0  0  0  0  0  0  0  0
   -4.4390   21.1456  -30.9535 H   0  0  0  0  0  0  0  0  0  0  0  0
   -4.6665   17.7469  -32.4803 H   0  0  0  0  0  0  0  0  0  0  0  0
   -6.7930   16.7135  -33.2421 H   0  0  0  0  0  0  0  0  0  0  0  0
   -8.9422   17.9411  -32.9666 H   0  0  0  0  0  0  0  0  0  0  0  0
   -4.8239   22.3514  -32.2993 H   0  0  0  0  0  0  0  0  0  0  0  0
   -6.1083   22.9903  -33.4380 H   0  0  0  0  0  0  0  0  0  0  0  0
   -5.7997   24.9696  -32.4759 H   0  0  0  0  0  0  0  0  0  0  0  0
   -6.6570   24.2194  -31.0265 H   0  0  0  0  0  0  0  0  0  0  0  0
   -4.1115   22.3931  -30.9498 H   0  0  0  0  0  0  0  0  0  0  0  0
   -2.9347   23.5102  -31.7256 H   0  0  0  0  0  0  0  0  0  0  0  0
   -3.4480   23.3672  -28.7111 H   0  0  0  0  0  0  0  0  0  0  0  0
   -2.1157   22.5059  -29.5536 H   0  0  0  0  0  0  0  0  0  0  0  0
   -2.1658   24.3015  -29.5536 H   0  0  0  0  0  0  0  0  0  0  0  0
   -5.0190   24.0464  -28.7971 H   0  0  0  0  0  0  0  0  0  0  0  0
   -4.1574   25.6017  -29.1266 H   0  0  0  0  0  0  0  0  0  0  0  0
   -6.5911   25.8397  -28.4235 H   0  0  0  0  0  0  0  0  0  0  0  0
   -6.1563   26.6256  -29.9791 H   0  0  0  0  0  0  0  0  0  0  0  0
   -7.0365   25.0597  -29.9791 H   0  0  0  0  0  0  0  0  0  0  0  0
   -7.7094   23.0054  -30.2930 H   0  0  0  0  0  0  0  0  0  0  0  0
   -8.4427   23.1819  -31.9525 H   0  0  0  0  0  0  0  0  0  0  0  0
   -8.7970   20.9119  -29.9603 H   0  0  0  0  0  0  0  0  0  0  0  0
  -10.0455   21.9899  -30.6901 H   0  0  0  0  0  0  0  0  0  0  0  0
  -10.0566   19.7339  -31.7421 H   0  0  0  0  0  0  0  0  0  0  0  0
   -9.6048   21.0120  -32.9185 H   0  0  0  0  0  0  0  0  0  0  0  0
  1  2  2  0
  2  3  1  0
  3  4  1  0
  4  5  2  0
  5  6  1  0
  6  7  2  0
  7  8  1  0
  8  9  2  0
  9 10  1  0
 10 11  1  0
 11 12  1  0
 12 13  1  0
 13 14  1  0
 14 15  1  0
 13 16  1  0
 16 17  1  0
 10 18  1  0
 18 19  1  0
 19 20  1  0
  9  4  1  0
 20  8  1  0
  1 21  1  0
  1 22  1  0
  2 23  1  0
  3 24  1  0
  3 25  1  0
  5 26  1  0
  6 27  1  0
  7 28  1  0
 11 29  1  0
 11 30  1  0
 12 31  1  0
 12 32  1  0
 14 33  1  0
 14 34  1  0
 15 35  1  0
 15 36  1  0
 15 37  1  0
 16 38  1  0
 16 39  1  0
 17 40  1  0
 17 41  1  0
 17 42  1  0
 18 43  1  0
 18 44  1  0
 19 45  1  0
 19 46  1  0
 20 47  1  0
 20 48  1  0
M  END
>  <UniqueID>  (30) 
29

>  <SMILES>  (30) 
C=CCc1cccc2c1N(CCN(CC)CC)CCC2

>  <Energy>  (30) 
59.171198518313005

>  <Genealogy>  (30) 
C=CCc1cccc2c1N(CCN(CC)CC)CCC2 (3D coordinates assigned)
C=CCc1cccc2c1N(CCN(CC)CC)CCC2 (nonaromatic ring conformer: 59.171198518313005 kcal/mol)

>  <smiles>  (30) 
C=CCc1cccc2c1N(CCN(CC)CC)CCC2

>  <score_type>  (30) 
oracle

>  <origin>  (30) 
adg

>  <m_score__min__energy>  (30) 
-7.3700000000000001

>  <m_primary>  (30) 
energy

$$$$
30:0
     RDKit          3D

 41 44  0  0  1  0  0  0  0  0999 V2000
   -6.3480   15.3440  -34.1780 C   0  0  0  0  0  0  0  0  0  0  0  0
   -7.2380   16.3800  -33.8390 O   0  0  0  0  0  0  0  0  0  0  0  0
   -6.8130   17.6190  -33.3760 C   0  0  0  0  0  0  0  0  0  0  0  0
   -7.4240   18.1220  -32.2260 C   0  0  0  0  0  0  0  0  0  0  0  0
   -7.0140   19.3650  -31.7420 C   0  0  0  0  0  0  0  0  0  0  0  0
   -6.0230   20.0430  -32.4210 C   0  0  0  0  0  0  0  0  0  0  0  0
   -5.6160   21.3430  -31.8890 C   0  0  0  0  0  0  0  0  0  0  0  0
   -4.3970   21.6670  -31.3720 N   0  0  0  0  0  0  0  0  0  0  0  0
   -4.4340   22.9580  -30.9950 C   0  0  0  0  0  0  0  0  0  0  0  0
   -3.4780   23.7710  -30.4220 C   0  0  0  0  0  0  0  0  0  0  0  0
   -2.2870   23.3790  -30.1310 N   0  0  0  0  0  0  0  0  0  0  0  0
   -2.0330   22.9570  -28.7670 C   0  0  0  0  0  0  0  0  0  0  0  0
   -1.7270   24.2300  -28.0200 C   0  0  0  0  0  0  0  0  0  0  0  0
   -1.9580   24.3200  -26.6470 C   0  0  0  0  0  0  0  0  0  0  0  0
   -1.6490   25.5310  -26.0280 C   0  0  0  0  0  0  0  0  0  0  0  0
   -1.1340   26.5990  -26.7370 C   0  0  0  0  0  0  0  0  0  0  0  0
   -0.9180   26.4650  -28.1030 C   0  0  0  0  0  0  0  0  0  0  0  0
   -1.2230   25.3000  -28.6630 N   0  0  0  0  0  0  0  0  0  0  0  0
   -3.8040   25.0310  -30.1530 N   0  0  0  0  0  0  0  0  0  0  0  0
   -5.0340   25.5070  -30.4310 C   0  0  0  0  0  0  0  0  0  0  0  0
   -5.9770   24.7210  -30.9930 N   0  0  0  0  0  0  0  0  0  0  0  0
   -5.6820   23.4370  -31.2790 C   0  0  0  0  0  0  0  0  0  0  0  0
   -6.4000   22.4410  -31.8270 N   0  0  0  0  0  0  0  0  0  0  0  0
   -5.4130   19.5550  -33.5580 C   0  0  0  0  0  0  0  0  0  0  0  0
   -5.8200   18.3200  -34.0390 C   0  0  0  0  0  0  0  0  0  0  0  0
   -5.9533   14.8846  -33.2598 H   0  0  0  0  0  0  0  0  0  0  0  0
   -6.8788   14.5836  -34.7696 H   0  0  0  0  0  0  0  0  0  0  0  0
   -5.5162   15.7541  -34.7696 H   0  0  0  0  0  0  0  0  0  0  0  0
   -8.2115   17.5509  -31.7125 H   0  0  0  0  0  0  0  0  0  0  0  0
   -7.4712   19.7948  -30.8386 H   0  0  0  0  0  0  0  0  0  0  0  0
   -2.9195   22.4626  -28.3430 H   0  0  0  0  0  0  0  0  0  0  0  0
   -1.2093   22.2307  -28.7039 H   0  0  0  0  0  0  0  0  0  0  0  0
   -2.3663   23.4723  -26.0772 H   0  0  0  0  0  0  0  0  0  0  0  0
   -1.8199   25.6386  -24.9467 H   0  0  0  0  0  0  0  0  0  0  0  0
   -0.8978   27.5441  -26.2262 H   0  0  0  0  0  0  0  0  0  0  0  0
   -0.5091   27.2940  -28.6992 H   0  0  0  0  0  0  0  0  0  0  0  0
   -3.1120   25.6820  -29.7180 H   0  0  0  0  0  0  0  0  0  0  0  0
   -5.2738   26.5545  -30.1958 H   0  0  0  0  0  0  0  0  0  0  0  0
   -7.3890   22.5660  -32.1280 H   0  0  0  0  0  0  0  0  0  0  0  0
   -4.6260   20.1294  -34.0685 H   0  0  0  0  0  0  0  0  0  0  0  0
   -5.3561   17.8990  -34.9432 H   0  0  0  0  0  0  0  0  0  0  0  0
  1  2  1  0
  2  3  1  0
  3  4  2  0
  4  5  1  0
  5  6  2  0
  6  7  1  0
  7  8  2  0
  8  9  1  0
  9 10  1  0
 10 11  2  0
 11 12  1  0
 12 13  1  0
 13 14  2  0
 14 15  1  0
 15 16  2  0
 16 17  1  0
 17 18  2  0
 10 19  1  0
 19 20  1  0
 20 21  2  0
 21 22  1  0
 22 23  1  0
  6 24  1  0
 24 25  2  0
 25  3  1  0
 23  7  1  0
 22  9  2  0
 18 13  1  0
  1 26  1  0
  1 27  1  0
  1 28  1  0
  4 29  1  0
  5 30  1  0
 12 31  1  0
 12 32  1  0
 14 33  1  0
 15 34  1  0
 16 35  1  0
 17 36  1  0
 19 37  1  0
 20 38  1  0
 23 39  1  0
 24 40  1  0
 25 41  1  0
M  END
>  <smiles>  (31) 
COc1ccc(-c2nc3c(=NCc4ccccn4)[nH]cnc3[nH]2)cc1

>  <score_type>  (31) 
oracle

>  <origin>  (31) 
adg

>  <m_score__min__energy>  (31) 
-8.1699999999999999

>  <m_primary>  (31) 
energy

$$$$
31:0
     RDKit          3D

 53 55  0  0  0  0  0  0  0  0999 V2000
   -3.4160   24.1290  -29.7240 C   0  0  0  0  0  0  0  0  0  0  0  0
   -4.2520   24.3630  -30.8510 O   0  0  0  0  0  0  0  0  0  0  0  0
   -5.3330   23.5460  -31.2190 C   0  0  0  0  0  0  0  0  0  0  0  0
   -6.2670   23.9260  -32.2020 C   0  0  0  0  0  0  0  0  0  0  0  0
   -7.3250   23.0760  -32.5330 C   0  0  0  0  0  0  0  0  0  0  0  0
   -7.4670   21.8330  -31.8940 C   0  0  0  0  0  0  0  0  0  0  0  0
   -8.6070   20.9060  -32.2540 C   0  0  0  0  0  0  0  0  0  0  0  0
   -8.1530   19.7460  -33.0590 N   0  0  0  0  0  0  0  0  0  0  0  0
   -6.8980   20.0970  -33.7740 C   0  0  0  0  0  0  0  0  0  0  0  0
   -6.1420   18.8410  -34.2360 C   0  0  0  0  0  0  0  0  0  0  0  0
   -5.7610   17.9580  -33.1020 N   0  0  0  0  0  0  0  0  0  0  0  0
   -4.3140   18.0210  -32.8000 C   0  0  0  0  0  0  0  0  0  0  0  0
   -3.6460   19.2020  -33.5360 C   0  0  0  0  0  0  0  0  0  0  0  0
   -3.8130   20.5050  -32.7110 C   0  0  0  0  0  0  0  0  0  0  0  0
   -2.7490   21.5420  -33.0800 C   0  0  0  0  0  0  0  0  0  0  0  0
   -1.3270   21.0310  -32.7690 C   0  0  0  0  0  0  0  0  0  0  0  0
   -1.1960   19.4980  -32.8450 C   0  0  0  0  0  0  0  0  0  0  0  0
   -2.1600   18.8980  -33.8770 C   0  0  0  0  0  0  0  0  0  0  0  0
   -6.5630   18.1910  -31.8800 C   0  0  0  0  0  0  0  0  0  0  0  0
   -8.0220   18.5100  -32.2330 C   0  0  0  0  0  0  0  0  0  0  0  0
   -6.5370   21.4590  -30.9120 C   0  0  0  0  0  0  0  0  0  0  0  0
   -5.4780   22.3090  -30.5800 C   0  0  0  0  0  0  0  0  0  0  0  0
   -3.9917   24.2901  -28.8006 H   0  0  0  0  0  0  0  0  0  0  0  0
   -3.0470   23.0931  -29.7500 H   0  0  0  0  0  0  0  0  0  0  0  0
   -2.5628   24.8229  -29.7500 H   0  0  0  0  0  0  0  0  0  0  0  0
   -6.1631   24.8956  -32.7110 H   0  0  0  0  0  0  0  0  0  0  0  0
   -8.0521   23.3822  -33.2995 H   0  0  0  0  0  0  0  0  0  0  0  0
   -9.0682   20.5350  -31.3268 H   0  0  0  0  0  0  0  0  0  0  0  0
   -9.3274   21.4759  -32.8593 H   0  0  0  0  0  0  0  0  0  0  0  0
   -8.8740   19.5590  -33.7960 H   0  0  0  0  0  0  0  0  0  0  0  0
   -7.1471   20.7081  -34.6541 H   0  0  0  0  0  0  0  0  0  0  0  0
   -6.2504   20.6539  -33.0808 H   0  0  0  0  0  0  0  0  0  0  0  0
   -6.7866   18.2740  -34.9238 H   0  0  0  0  0  0  0  0  0  0  0  0
   -5.2158   19.1703  -34.7297 H   0  0  0  0  0  0  0  0  0  0  0  0
   -4.1781   18.1495  -31.7160 H   0  0  0  0  0  0  0  0  0  0  0  0
   -3.8443   17.0860  -33.1392 H   0  0  0  0  0  0  0  0  0  0  0  0
   -4.1537   19.3495  -34.5006 H   0  0  0  0  0  0  0  0  0  0  0  0
   -4.8088   20.9284  -32.9089 H   0  0  0  0  0  0  0  0  0  0  0  0
   -3.6983   20.2564  -31.6456 H   0  0  0  0  0  0  0  0  0  0  0  0
   -2.8223   21.7617  -34.1553 H   0  0  0  0  0  0  0  0  0  0  0  0
   -2.9282   22.4472  -32.4813 H   0  0  0  0  0  0  0  0  0  0  0  0
   -0.6303   21.4766  -33.4943 H   0  0  0  0  0  0  0  0  0  0  0  0
   -1.0959   21.3251  -31.7346 H   0  0  0  0  0  0  0  0  0  0  0  0
   -0.1647   19.2417  -33.1290 H   0  0  0  0  0  0  0  0  0  0  0  0
   -1.4472   19.0824  -31.8580 H   0  0  0  0  0  0  0  0  0  0  0  0
   -1.9293   19.3213  -34.8658 H   0  0  0  0  0  0  0  0  0  0  0  0
   -2.0275   17.8060  -33.8692 H   0  0  0  0  0  0  0  0  0  0  0  0
   -6.5337   17.2878  -31.2528 H   0  0  0  0  0  0  0  0  0  0  0  0
   -6.1373   19.0492  -31.3394 H   0  0  0  0  0  0  0  0  0  0  0  0
   -8.4420   17.6634  -32.7959 H   0  0  0  0  0  0  0  0  0  0  0  0
   -8.5646   18.6784  -31.2911 H   0  0  0  0  0  0  0  0  0  0  0  0
   -6.6419   20.4909  -30.4003 H   0  0  0  0  0  0  0  0  0  0  0  0
   -4.7533   22.0035  -29.8109 H   0  0  0  0  0  0  0  0  0  0  0  0
  1  2  1  0
  2  3  1  0
  3  4  2  0
  4  5  1  0
  5  6  2  0
  6  7  1  0
  7  8  1  0
  8  9  1  0
  9 10  1  0
 10 11  1  0
 11 12  1  0
 12 13  1  0
 13 14  1  0
 14 15  1  0
 15 16  1  0
 16 17  1  0
 17 18  1  0
 11 19  1  0
 19 20  1  0
  6 21  1  0
 21 22  2  0
 22  3  1  0
 20  8  1  0
 18 13  1  0
  1 23  1  0
  1 24  1  0
  1 25  1  0
  4 26  1  0
  5 27  1  0
  7 28  1  0
  7 29  1  0
  8 30  1  0
  9 31  1  0
  9 32  1  0
 10 33  1  0
 10 34  1  0
 12 35  1  0
 12 36  1  0
 13 37  1  0
 14 38  1  0
 14 39  1  0
 15 40  1  0
 15 41  1  0
 16 42  1  0
 16 43  1  0
 17 44  1  0
 17 45  1  0
 18 46  1  0
 18 47  1  0
 19 48  1  0
 19 49  1  0
 20 50  1  0
 20 51  1  0
 21 52  1  0
 22 53  1  0
M  CHG  1   8   1
M  END
>  <UniqueID>  (32) 
30

>  <SMILES>  (32) 
COc1ccc(C[NH+]2CCN(CC3CCCCC3)CC2)cc1

>  <Energy>  (32) 
67.37952779624686

>  <Genealogy>  (32) 
COc1ccc(C[NH+]2CCN(CC3CCCCC3)CC2)cc1 (protonated)
COc1ccc(C[NH+]2CCN(CC3CCCCC3)CC2)cc1 (3D coordinates assigned)
COc1ccc(C[NH+]2CCN(CC3CCCCC3)CC2)cc1 (nonaromatic ring conformer: 67.37952779624686 kcal/mol)

>  <smiles>  (32) 
COc1ccc(CN2CCN(CC3CCCCC3)CC2)cc1

>  <score_type>  (32) 
oracle

>  <origin>  (32) 
adg

>  <m_score__min__energy>  (32) 
-7.6699999999999999

>  <m_primary>  (32) 
energy

$$$$
32:0
     RDKit          3D

 24 25  0  0  0  0  0  0  0  0999 V2000
   -1.8730   25.6590  -28.9710 O   0  0  0  0  0  0  0  0  0  0  0  0
   -2.5240   24.6830  -29.4280 C   0  0  0  0  0  0  0  0  0  0  0  0
   -3.4950   24.9260  -30.4540 N   0  0  0  0  0  0  0  0  0  0  0  0
   -4.7800   24.2980  -30.5700 C   0  0  0  0  0  0  0  0  0  0  0  0
   -5.0970   23.4430  -31.6380 C   0  0  0  0  0  0  0  0  0  0  0  0
   -6.3660   22.8700  -31.7170 C   0  0  0  0  0  0  0  0  0  0  0  0
   -7.3150   23.1690  -30.7380 C   0  0  0  0  0  0  0  0  0  0  0  0
   -7.0020   24.0160  -29.7200 N   0  0  0  0  0  0  0  0  0  0  0  0
   -5.7690   24.5860  -29.6230 C   0  0  0  0  0  0  0  0  0  0  0  0
   -2.3080   23.3330  -28.8530 C   0  0  0  0  0  0  0  0  0  0  0  0
   -1.1380   22.6040  -29.1250 C   0  0  0  0  0  0  0  0  0  0  0  0
   -0.9610   21.3340  -28.5770 C   0  0  0  0  0  0  0  0  0  0  0  0
   -1.9600   20.7920  -27.7680 C   0  0  0  0  0  0  0  0  0  0  0  0
   -3.0940   21.4980  -27.5240 N   0  0  0  0  0  0  0  0  0  0  0  0
   -3.2920   22.7390  -28.0450 C   0  0  0  0  0  0  0  0  0  0  0  0
   -4.3454   23.2255  -32.4112 H   0  0  0  0  0  0  0  0  0  0  0  0
   -6.6168   22.1886  -32.5433 H   0  0  0  0  0  0  0  0  0  0  0  0
   -8.3175   22.7192  -30.7895 H   0  0  0  0  0  0  0  0  0  0  0  0
   -7.7250   24.2360  -28.9980 H   0  0  0  0  0  0  0  0  0  0  0  0
   -5.5493   25.2767  -28.7955 H   0  0  0  0  0  0  0  0  0  0  0  0
   -0.3600   23.0360  -29.7716 H   0  0  0  0  0  0  0  0  0  0  0  0
   -0.0421   20.7647  -28.7807 H   0  0  0  0  0  0  0  0  0  0  0  0
   -1.8291   19.7925  -27.3277 H   0  0  0  0  0  0  0  0  0  0  0  0
   -4.2262   23.2795  -27.8328 H   0  0  0  0  0  0  0  0  0  0  0  0
  1  2  2  0
  2  3  1  0
  3  4  1  0
  4  5  2  0
  5  6  1  0
  6  7  2  0
  7  8  1  0
  8  9  2  0
  2 10  1  0
 10 11  2  0
 11 12  1  0
 12 13  2  0
 13 14  1  0
 14 15  2  0
  9  4  1  0
 15 10  1  0
  5 16  1  0
  6 17  1  0
  7 18  1  0
  8 19  1  0
  9 20  1  0
 11 21  1  0
 12 22  1  0
 13 23  1  0
 15 24  1  0
M  CHG  2   3  -1   8   1
M  END
>  <UniqueID>  (33) 
31

>  <SMILES>  (33) 
O=C([N-]c1ccc[nH+]c1)c1cccnc1

>  <Energy>  (33) 
32.51841424580753

>  <Genealogy>  (33) 
O=C([N-]c1ccc[nH+]c1)c1cccnc1 (protonated)
O=C([N-]c1ccc[nH+]c1)c1cccnc1 (3D coordinates assigned)
O=C([N-]c1ccc[nH+]c1)c1cccnc1 (optimized conformer: 32.51841424580753 kcal/mol)

>  <smiles>  (33) 
O=C(Nc1cccnc1)c1cccnc1

>  <score_type>  (33) 
oracle

>  <origin>  (33) 
adg

>  <m_score__min__energy>  (33) 
-6.2800000000000002

>  <m_primary>  (33) 
energy

$$$$
33:0
     RDKit          3D

 57 58  0  0  0  0  0  0  0  0999 V2000
   -3.1460   12.9360  -31.4040 C   0  0  0  0  0  0  0  0  0  0  0  0
   -4.6300   13.2900  -31.3470 C   0  0  0  0  0  0  0  0  0  0  0  0
   -5.4530   12.4300  -32.3220 C   0  0  0  0  0  0  0  0  0  0  0  0
   -5.8020   13.1600  -33.5540 N   0  0  0  0  0  0  0  0  0  0  0  0
   -7.1400   13.0110  -34.1510 C   0  0  0  0  0  0  0  0  0  0  0  0
   -7.0530   12.6010  -35.6290 C   0  0  0  0  0  0  0  0  0  0  0  0
   -8.3440   12.9000  -36.3910 C   0  0  0  0  0  0  0  0  0  0  0  0
   -4.9530   14.2220  -34.0200 C   0  0  0  0  0  0  0  0  0  0  0  0
   -3.9240   13.9560  -34.8660 N   0  0  0  0  0  0  0  0  0  0  0  0
   -3.1310   14.9500  -35.3410 C   0  0  0  0  0  0  0  0  0  0  0  0
   -3.3670   16.2700  -34.9630 C   0  0  0  0  0  0  0  0  0  0  0  0
   -4.4300   16.5300  -34.0980 C   0  0  0  0  0  0  0  0  0  0  0  0
   -4.7030   17.8750  -33.6730 C   0  0  0  0  0  0  0  0  0  0  0  0
   -4.9440   19.0000  -33.3140 C   0  0  0  0  0  0  0  0  0  0  0  0
   -5.2390   20.3390  -32.8740 C   0  0  0  0  0  0  0  0  0  0  0  0
   -4.3260   21.3760  -33.1030 C   0  0  0  0  0  0  0  0  0  0  0  0
   -4.6260   22.6800  -32.6940 C   0  0  0  0  0  0  0  0  0  0  0  0
   -5.8400   22.9570  -32.0430 C   0  0  0  0  0  0  0  0  0  0  0  0
   -6.1800   24.3690  -31.6340 C   0  0  0  0  0  0  0  0  0  0  0  0
   -5.2220   24.8960  -30.5440 C   0  0  1  0  0  0  0  0  0  0  0  0
   -5.6580   24.4950  -29.1280 C   0  0  0  0  0  0  0  0  0  0  0  0
   -3.8480   24.4550  -30.8060 N   0  0  0  0  0  0  0  0  0  0  0  0
   -2.8370   24.2110  -29.8180 C   0  0  0  0  0  0  0  0  0  0  0  0
   -2.5170   22.8070  -29.4240 C   0  0  0  0  0  0  0  0  0  0  0  0
   -2.1800   25.1640  -29.3190 O   0  0  0  0  0  0  0  0  0  0  0  0
   -6.7520   21.9130  -31.8140 C   0  0  0  0  0  0  0  0  0  0  0  0
   -6.4520   20.6100  -32.2290 C   0  0  0  0  0  0  0  0  0  0  0  0
   -5.2030   15.5080  -33.6500 N   0  0  0  0  0  0  0  0  0  0  0  0
   -2.7519   12.8420  -30.3813 H   0  0  0  0  0  0  0  0  0  0  0  0
   -3.0168   11.9818  -31.9359 H   0  0  0  0  0  0  0  0  0  0  0  0
   -2.6000   13.7291  -31.9359 H   0  0  0  0  0  0  0  0  0  0  0  0
   -4.9984   13.1223  -30.3242 H   0  0  0  0  0  0  0  0  0  0  0  0
   -4.7444   14.3450  -31.6365 H   0  0  0  0  0  0  0  0  0  0  0  0
   -4.8648   11.5407  -32.5924 H   0  0  0  0  0  0  0  0  0  0  0  0
   -6.3906   12.1534  -31.8177 H   0  0  0  0  0  0  0  0  0  0  0  0
   -7.6946   12.2389  -33.5977 H   0  0  0  0  0  0  0  0  0  0  0  0
   -7.6553   13.9810  -34.0910 H   0  0  0  0  0  0  0  0  0  0  0  0
   -6.2274   13.1535  -36.1014 H   0  0  0  0  0  0  0  0  0  0  0  0
   -6.8834   11.5148  -35.6675 H   0  0  0  0  0  0  0  0  0  0  0  0
   -9.1573   13.0884  -35.6747 H   0  0  0  0  0  0  0  0  0  0  0  0
   -8.1992   13.7884  -37.0233 H   0  0  0  0  0  0  0  0  0  0  0  0
   -8.6045   12.0384  -37.0233 H   0  0  0  0  0  0  0  0  0  0  0  0
   -2.3021   14.7133  -36.0243 H   0  0  0  0  0  0  0  0  0  0  0  0
   -2.7314   17.0862  -35.3370 H   0  0  0  0  0  0  0  0  0  0  0  0
   -3.3706   21.1648  -33.6057 H   0  0  0  0  0  0  0  0  0  0  0  0
   -3.9083   23.4919  -32.8829 H   0  0  0  0  0  0  0  0  0  0  0  0
   -6.1094   25.0221  -32.5163 H   0  0  0  0  0  0  0  0  0  0  0  0
   -7.2001   24.3698  -31.2224 H   0  0  0  0  0  0  0  0  0  0  0  0
   -5.2612   25.9943  -30.5901 H   0  0  0  0  0  0  0  0  0  0  0  0
   -5.0580   25.0469  -28.3895 H   0  0  0  0  0  0  0  0  0  0  0  0
   -6.7222   24.7364  -28.9899 H   0  0  0  0  0  0  0  0  0  0  0  0
   -5.5063   23.4143  -28.9899 H   0  0  0  0  0  0  0  0  0  0  0  0
   -2.4992   22.7290  -28.3269 H   0  0  0  0  0  0  0  0  0  0  0  0
   -3.2837   22.1292  -29.8274 H   0  0  0  0  0  0  0  0  0  0  0  0
   -1.5323   22.5283  -29.8274 H   0  0  0  0  0  0  0  0  0  0  0  0
   -7.7057   22.1203  -31.3065 H   0  0  0  0  0  0  0  0  0  0  0  0
   -7.1708   19.7973  -32.0480 H   0  0  0  0  0  0  0  0  0  0  0  0
  1  2  1  0
  2  3  1  0
  3  4  1  0
  4  5  1  0
  5  6  1  0
  6  7  1  0
  4  8  1  0
  8  9  2  0
  9 10  1  0
 10 11  2  0
 11 12  1  0
 12 13  1  0
 13 14  3  0
 14 15  1  0
 15 16  2  0
 16 17  1  0
 17 18  2  0
 18 19  1  0
 19 20  1  0
 20 21  1  0
 20 22  1  0
 22 23  1  0
 23 24  1  0
 23 25  2  0
 18 26  1  0
 26 27  2  0
 12 28  2  0
 28  8  1  0
 27 15  1  0
  1 29  1  0
  1 30  1  0
  1 31  1  0
  2 32  1  0
  2 33  1  0
  3 34  1  0
  3 35  1  0
  5 36  1  0
  5 37  1  0
  6 38  1  0
  6 39  1  0
  7 40  1  0
  7 41  1  0
  7 42  1  0
 10 43  1  0
 11 44  1  0
 16 45  1  0
 17 46  1  0
 19 47  1  0
 19 48  1  0
 20 49  1  1
 21 50  1  0
 21 51  1  0
 21 52  1  0
 24 53  1  0
 24 54  1  0
 24 55  1  0
 26 56  1  0
 27 57  1  0
M  CHG  1  22  -1
M  END
>  <UniqueID>  (34) 
32

>  <SMILES>  (34) 
CCCN(CCC)c1nccc(C#Cc2ccc(C[C@@H](C)[N-]C(C)=O)cc2)n1

>  <Energy>  (34) 
41.46491525385592

>  <Genealogy>  (34) 
CCCN(CCC)c1nccc(C#Cc2ccc(CC(C)[N-]C(C)=O)cc2)n1 (protonated)
CCCN(CCC)c1nccc(C#Cc2ccc(C[C@@H](C)[N-]C(C)=O)cc2)n1 (chirality)
CCCN(CCC)c1nccc(C#Cc2ccc(C[C@@H](C)[N-]C(C)=O)cc2)n1 (3D coordinates assigned)
CCCN(CCC)c1nccc(C#Cc2ccc(C[C@@H](C)[N-]C(C)=O)cc2)n1 (optimized conformer: 41.46491525385592 kcal/mol)

>  <smiles>  (34) 
CCCN(CCC)c1nccc(C#Cc2ccc(CC(C)NC(C)=O)cc2)n1

>  <score_type>  (34) 
oracle

>  <origin>  (34) 
adg

>  <m_score__min__energy>  (34) 
-8.5099999999999998

>  <m_primary>  (34) 
energy

$$$$
34:0
     RDKit          3D

 35 37  0  0  0  0  0  0  0  0999 V2000
   -2.2320   24.0810  -29.2410 C   0  0  0  0  0  0  0  0  0  0  0  0
   -3.1120   24.8100  -30.0910 O   0  0  0  0  0  0  0  0  0  0  0  0
   -4.4370   24.4390  -30.3620 C   0  0  0  0  0  0  0  0  0  0  0  0
   -5.5140   25.3370  -30.2310 C   0  0  0  0  0  0  0  0  0  0  0  0
   -6.8170   24.9190  -30.5170 C   0  0  0  0  0  0  0  0  0  0  0  0
   -7.0610   23.6070  -30.9320 C   0  0  0  0  0  0  0  0  0  0  0  0
   -5.9950   22.7020  -31.0630 C   0  0  0  0  0  0  0  0  0  0  0  0
   -4.6880   23.1270  -30.7820 C   0  0  0  0  0  0  0  0  0  0  0  0
   -6.2390   21.2950  -31.5430 C   0  0  0  0  0  0  0  0  0  0  0  0
   -7.6670   20.9730  -31.6590 N   0  0  0  0  0  0  0  0  0  0  0  0
   -8.1270   19.3700  -32.1350 S   0  0  0  0  0  0  0  0  0  0  0  0
   -9.2850   19.4410  -33.0900 O   0  0  0  0  0  0  0  0  0  0  0  0
   -8.5580   18.5780  -30.9320 O   0  0  0  0  0  0  0  0  0  0  0  0
   -6.7540   18.5780  -32.8970 C   0  0  0  0  0  0  0  0  0  0  0  0
   -6.2770   17.3610  -32.3910 C   0  0  0  0  0  0  0  0  0  0  0  0
   -5.1710   16.7390  -32.9810 C   0  0  0  0  0  0  0  0  0  0  0  0
   -4.5370   17.3320  -34.0770 C   0  0  0  0  0  0  0  0  0  0  0  0
   -3.4660   16.7290  -34.6490 F   0  0  0  0  0  0  0  0  0  0  0  0
   -5.0050   18.5500  -34.5810 C   0  0  0  0  0  0  0  0  0  0  0  0
   -6.1080   19.1750  -33.9920 C   0  0  0  0  0  0  0  0  0  0  0  0
   -8.6890   21.9770  -31.5580 C   0  0  0  0  0  0  0  0  0  0  0  0
   -8.4000   23.1930  -31.2170 N   0  0  0  0  0  0  0  0  0  0  0  0
   -2.4821   24.2882  -28.1900 H   0  0  0  0  0  0  0  0  0  0  0  0
   -2.3401   23.0042  -29.4382 H   0  0  0  0  0  0  0  0  0  0  0  0
   -1.1941   24.3875  -29.4382 H   0  0  0  0  0  0  0  0  0  0  0  0
   -5.3293   26.3705  -29.9026 H   0  0  0  0  0  0  0  0  0  0  0  0
   -7.6537   25.6257  -30.4150 H   0  0  0  0  0  0  0  0  0  0  0  0
   -3.8511   22.4218  -30.8928 H   0  0  0  0  0  0  0  0  0  0  0  0
   -5.7701   21.1743  -32.5307 H   0  0  0  0  0  0  0  0  0  0  0  0
   -5.8047   20.6112  -30.7989 H   0  0  0  0  0  0  0  0  0  0  0  0
   -6.7734   16.8936  -31.5278 H   0  0  0  0  0  0  0  0  0  0  0  0
   -4.8003   15.7832  -32.5823 H   0  0  0  0  0  0  0  0  0  0  0  0
   -4.5044   19.0167  -35.4421 H   0  0  0  0  0  0  0  0  0  0  0  0
   -6.4705   20.1357  -34.3866 H   0  0  0  0  0  0  0  0  0  0  0  0
   -9.7339   21.7092  -31.7736 H   0  0  0  0  0  0  0  0  0  0  0  0
  1  2  1  0
  2  3  1  0
  3  4  2  0
  4  5  1  0
  5  6  2  0
  6  7  1  0
  7  8  2  0
  7  9  1  0
  9 10  1  0
 10 11  1  0
 11 12  2  0
 11 13  2  0
 11 14  1  0
 14 15  2  0
 15 16  1  0
 16 17  2  0
 17 18  1  0
 17 19  1  0
 19 20  2  0
 10 21  1  0
 21 22  2  0
  8  3  1  0
 20 14  1  0
 22  6  1  0
  1 23  1  0
  1 24  1  0
  1 25  1  0
  4 26  1  0
  5 27  1  0
  8 28  1  0
  9 29  1  0
  9 30  1  0
 15 31  1  0
 16 32  1  0
 19 33  1  0
 20 34  1  0
 21 35  1  0
M  END
>  <UniqueID>  (35) 
33

>  <SMILES>  (35) 
COc1ccc2c(c1)CN(S(=O)(=O)c1ccc(F)cc1)C=N2

>  <Energy>  (35) 
39.29279842570185

>  <Genealogy>  (35) 
COc1ccc2c(c1)CN(S(=O)(=O)c1ccc(F)cc1)C=N2 (3D coordinates assigned)
COc1ccc2c(c1)CN(S(=O)(=O)c1ccc(F)cc1)C=N2 (nonaromatic ring conformer: 39.29279842570185 kcal/mol)

>  <smiles>  (35) 
COc1ccc2c(c1)CN(S(=O)(=O)c1ccc(F)cc1)C=N2

>  <score_type>  (35) 
oracle

>  <origin>  (35) 
adg

>  <m_score__min__energy>  (35) 
-8.6400000000000006

>  <m_primary>  (35) 
energy

$$$$
35:0
     RDKit          3D

 52 54  0  0  0  0  0  0  0  0999 V2000
    1.3710   24.4080  -24.4760 C   0  0  0  0  0  0  0  0  0  0  0  0
    0.0140   24.7010  -25.0650 C   0  0  0  0  0  0  0  0  0  0  0  0
   -0.7470   25.7500  -24.5220 C   0  0  0  0  0  0  0  0  0  0  0  0
   -2.0070   26.0530  -25.0350 C   0  0  0  0  0  0  0  0  0  0  0  0
   -2.5200   25.3250  -26.1070 C   0  0  0  0  0  0  0  0  0  0  0  0
   -1.7780   24.2850  -26.6820 C   0  0  0  0  0  0  0  0  0  0  0  0
   -2.3420   23.5880  -27.8030 N   0  0  0  0  0  0  0  0  0  0  0  0
   -2.3460   24.1350  -29.1310 C   0  0  0  0  0  0  0  0  0  0  0  0
   -1.8660   25.2800  -29.3470 O   0  0  0  0  0  0  0  0  0  0  0  0
   -2.8850   23.3150  -30.2720 C   0  0  0  0  0  0  0  0  0  0  0  0
   -4.3150   23.6010  -30.5090 N   0  0  0  0  0  0  0  0  0  0  0  0
   -4.6750   24.9600  -30.0680 C   0  0  0  0  0  0  0  0  0  0  0  0
   -6.1000   25.3060  -30.5440 C   0  0  0  0  0  0  0  0  0  0  0  0
   -6.9690   24.1120  -30.7220 N   0  0  0  0  0  0  0  0  0  0  0  0
   -6.9820   23.6200  -32.1210 C   0  0  0  0  0  0  0  0  0  0  0  0
   -7.5840   22.2380  -32.2020 C   0  0  0  0  0  0  0  0  0  0  0  0
   -8.9320   22.0470  -31.8580 C   0  0  0  0  0  0  0  0  0  0  0  0
   -9.5050   20.7720  -31.9170 C   0  0  0  0  0  0  0  0  0  0  0  0
   -8.7350   19.6780  -32.3140 C   0  0  0  0  0  0  0  0  0  0  0  0
   -7.3910   19.8550  -32.6490 C   0  0  0  0  0  0  0  0  0  0  0  0
   -6.8120   21.1280  -32.5960 C   0  0  0  0  0  0  0  0  0  0  0  0
   -5.5040   21.2730  -32.9240 F   0  0  0  0  0  0  0  0  0  0  0  0
   -6.6430   23.0550  -29.7410 C   0  0  0  0  0  0  0  0  0  0  0  0
   -5.1640   22.6040  -29.8230 C   0  0  0  0  0  0  0  0  0  0  0  0
   -0.5180   23.9270  -26.1310 C   0  0  0  0  0  0  0  0  0  0  0  0
    0.2550   22.7450  -26.6780 C   0  0  0  0  0  0  0  0  0  0  0  0
    1.3050   24.4223  -23.3781 H   0  0  0  0  0  0  0  0  0  0  0  0
    1.7094   23.4161  -24.8101 H   0  0  0  0  0  0  0  0  0  0  0  0
    2.0885   25.1719  -24.8101 H   0  0  0  0  0  0  0  0  0  0  0  0
   -0.3444   26.3378  -23.6839 H   0  0  0  0  0  0  0  0  0  0  0  0
   -2.5979   26.8686  -24.5927 H   0  0  0  0  0  0  0  0  0  0  0  0
   -3.5160   25.5691  -26.5050 H   0  0  0  0  0  0  0  0  0  0  0  0
   -2.9040   22.7270  -27.6160 H   0  0  0  0  0  0  0  0  0  0  0  0
   -2.3163   23.5515  -31.1834 H   0  0  0  0  0  0  0  0  0  0  0  0
   -2.7815   22.2506  -30.0144 H   0  0  0  0  0  0  0  0  0  0  0  0
   -4.6352   25.0096  -28.9698 H   0  0  0  0  0  0  0  0  0  0  0  0
   -3.9643   25.6807  -30.4988 H   0  0  0  0  0  0  0  0  0  0  0  0
   -6.5654   25.9682  -29.7991 H   0  0  0  0  0  0  0  0  0  0  0  0
   -6.0057   25.7889  -31.5278 H   0  0  0  0  0  0  0  0  0  0  0  0
   -7.5769   24.3085  -32.7391 H   0  0  0  0  0  0  0  0  0  0  0  0
   -5.9454   23.5730  -32.4860 H   0  0  0  0  0  0  0  0  0  0  0  0
   -9.5416   22.9057  -31.5400 H   0  0  0  0  0  0  0  0  0  0  0  0
  -10.5629   20.6319  -31.6503 H   0  0  0  0  0  0  0  0  0  0  0  0
   -9.1868   18.6762  -32.3630 H   0  0  0  0  0  0  0  0  0  0  0  0
   -6.7847   18.9900  -32.9559 H   0  0  0  0  0  0  0  0  0  0  0  0
   -6.8385   23.4404  -28.7294 H   0  0  0  0  0  0  0  0  0  0  0  0
   -7.2714   22.1817  -29.9702 H   0  0  0  0  0  0  0  0  0  0  0  0
   -4.7817   22.4550  -28.8024 H   0  0  0  0  0  0  0  0  0  0  0  0
   -5.1266   21.6707  -30.4039 H   0  0  0  0  0  0  0  0  0  0  0  0
    0.6471   22.1454  -25.8433 H   0  0  0  0  0  0  0  0  0  0  0  0
   -0.4120   22.1240  -27.2940 H   0  0  0  0  0  0  0  0  0  0  0  0
    1.0913   23.1072  -27.2940 H   0  0  0  0  0  0  0  0  0  0  0  0
  1  2  1  0
  2  3  2  0
  3  4  1  0
  4  5  2  0
  5  6  1  0
  6  7  1  0
  7  8  1  0
  8  9  2  0
  8 10  1  0
 10 11  1  0
 11 12  1  0
 12 13  1  0
 13 14  1  0
 14 15  1  0
 15 16  1  0
 16 17  2  0
 17 18  1  0
 18 19  2  0
 19 20  1  0
 20 21  2  0
 21 22  1  0
 14 23  1  0
 23 24  1  0
  6 25  2  0
 25 26  1  0
 25  2  1  0
 24 11  1  0
 21 16  1  0
  1 27  1  0
  1 28  1  0
  1 29  1  0
  3 30  1  0
  4 31  1  0
  5 32  1  0
  7 33  1  0
 10 34  1  0
 10 35  1  0
 12 36  1  0
 12 37  1  0
 13 38  1  0
 13 39  1  0
 15 40  1  0
 15 41  1  0
 17 42  1  0
 18 43  1  0
 19 44  1  0
 20 45  1  0
 23 46  1  0
 23 47  1  0
 24 48  1  0
 24 49  1  0
 26 50  1  0
 26 51  1  0
 26 52  1  0
M  END
>  <UniqueID>  (36) 
34

>  <SMILES>  (36) 
Cc1cccc(NC(=O)CN2CCN(Cc3ccccc3F)CC2)c1C

>  <Energy>  (36) 
72.30512742614442

>  <Genealogy>  (36) 
Cc1cccc(NC(=O)CN2CCN(Cc3ccccc3F)CC2)c1C (3D coordinates assigned)
Cc1cccc(NC(=O)CN2CCN(Cc3ccccc3F)CC2)c1C (nonaromatic ring conformer: 72.30512742614442 kcal/mol)

>  <smiles>  (36) 
Cc1cccc(NC(=O)CN2CCN(Cc3ccccc3F)CC2)c1C

>  <score_type>  (36) 
oracle

>  <origin>  (36) 
adg

>  <m_score__min__energy>  (36) 
-9.0099999999999998

>  <m_primary>  (36) 
energy

$$$$
36:0
     RDKit          3D

 46 49  0  0  0  0  0  0  0  0999 V2000
    2.2560   26.7300  -23.7990 C   0  0  0  0  0  0  0  0  0  0  0  0
    2.3870   26.7400  -25.2160 O   0  0  0  0  0  0  0  0  0  0  0  0
    1.3320   26.5030  -26.1110 C   0  0  0  0  0  0  0  0  0  0  0  0
    0.5190   27.5380  -26.6070 C   0  0  0  0  0  0  0  0  0  0  0  0
   -0.5210   27.2540  -27.4970 C   0  0  0  0  0  0  0  0  0  0  0  0
   -0.7630   25.9370  -27.9000 C   0  0  0  0  0  0  0  0  0  0  0  0
   -1.7760   25.6740  -28.7650 N   0  0  0  0  0  0  0  0  0  0  0  0
   -2.0570   24.4130  -29.1900 C   0  0  0  0  0  0  0  0  0  0  0  0
   -3.1130   24.2030  -30.0910 C   0  0  0  0  0  0  0  0  0  0  0  0
   -3.8690   25.3080  -30.5150 O   0  0  0  0  0  0  0  0  0  0  0  0
   -5.2410   25.2950  -30.8000 C   0  0  0  0  0  0  0  0  0  0  0  0
   -6.0600   25.9250  -30.0810 O   0  0  0  0  0  0  0  0  0  0  0  0
   -5.7320   24.5070  -31.8840 N   0  0  0  0  0  0  0  0  0  0  0  0
   -6.6630   23.4040  -31.6850 C   0  0  0  0  0  0  0  0  0  0  0  0
   -6.1050   22.1200  -32.3020 C   0  0  0  0  0  0  0  0  0  0  0  0
   -7.1190   21.0070  -32.2670 C   0  0  0  0  0  0  0  0  0  0  0  0
   -6.7600   19.6990  -32.6260 C   0  0  0  0  0  0  0  0  0  0  0  0
   -7.7180   18.6850  -32.6180 C   0  0  0  0  0  0  0  0  0  0  0  0
   -9.0330   18.9890  -32.2570 C   0  0  0  0  0  0  0  0  0  0  0  0
   -9.3700   20.2630  -31.9230 N   0  0  0  0  0  0  0  0  0  0  0  0
   -8.4530   21.2680  -31.9230 C   0  0  0  0  0  0  0  0  0  0  0  0
   -3.4120   22.8940  -30.5080 C   0  0  0  0  0  0  0  0  0  0  0  0
   -2.6480   21.8170  -30.0560 C   0  0  0  0  0  0  0  0  0  0  0  0
   -1.5850   22.0260  -29.1770 C   0  0  0  0  0  0  0  0  0  0  0  0
   -1.2790   23.3240  -28.7290 C   0  0  0  0  0  0  0  0  0  0  0  0
   -0.2220   23.5690  -27.8320 C   0  0  0  0  0  0  0  0  0  0  0  0
    0.4870   22.6120  -27.4080 O   0  0  0  0  0  0  0  0  0  0  0  0
    0.0440   24.8870  -27.4090 C   0  0  0  0  0  0  0  0  0  0  0  0
    1.0900   25.1840  -26.5140 C   0  0  0  0  0  0  0  0  0  0  0  0
    3.2519   26.8060  -23.3382 H   0  0  0  0  0  0  0  0  0  0  0  0
    1.6391   27.5837  -23.4818 H   0  0  0  0  0  0  0  0  0  0  0  0
    1.7758   25.7926  -23.4818 H   0  0  0  0  0  0  0  0  0  0  0  0
    0.7024   28.5762  -26.2930 H   0  0  0  0  0  0  0  0  0  0  0  0
   -1.1512   28.0694  -27.8816 H   0  0  0  0  0  0  0  0  0  0  0  0
   -6.8187   23.2506  -30.6069 H   0  0  0  0  0  0  0  0  0  0  0  0
   -7.6180   23.6495  -32.1726 H   0  0  0  0  0  0  0  0  0  0  0  0
   -5.8263   22.3173  -33.3476 H   0  0  0  0  0  0  0  0  0  0  0  0
   -5.2280   21.8075  -31.7162 H   0  0  0  0  0  0  0  0  0  0  0  0
   -5.7227   19.4730  -32.9139 H   0  0  0  0  0  0  0  0  0  0  0  0
   -7.4409   17.6566  -32.8931 H   0  0  0  0  0  0  0  0  0  0  0  0
   -9.7962   18.1970  -32.2430 H   0  0  0  0  0  0  0  0  0  0  0  0
   -8.7593   22.2892  -31.6521 H   0  0  0  0  0  0  0  0  0  0  0  0
   -4.2531   22.7176  -31.1946 H   0  0  0  0  0  0  0  0  0  0  0  0
   -2.8853   20.7977  -30.3947 H   0  0  0  0  0  0  0  0  0  0  0  0
   -0.9833   21.1719  -28.8326 H   0  0  0  0  0  0  0  0  0  0  0  0
    1.7232   24.3717  -26.1277 H   0  0  0  0  0  0  0  0  0  0  0  0
  1  2  1  0
  2  3  1  0
  3  4  2  0
  4  5  1  0
  5  6  2  0
  6  7  1  0
  7  8  1  0
  8  9  2  0
  9 10  1  0
 10 11  1  0
 11 12  2  0
 11 13  1  0
 13 14  1  0
 14 15  1  0
 15 16  1  0
 16 17  2  0
 17 18  1  0
 18 19  2  0
 19 20  1  0
 20 21  2  0
  9 22  1  0
 22 23  2  0
 23 24  1  0
 24 25  2  0
 25 26  1  0
 26 27  2  0
 26 28  1  0
 28 29  2  0
 29  3  1  0
 28  6  1  0
 25  8  1  0
 21 16  1  0
  1 30  1  0
  1 31  1  0
  1 32  1  0
  4 33  1  0
  5 34  1  0
 14 35  1  0
 14 36  1  0
 15 37  1  0
 15 38  1  0
 17 39  1  0
 18 40  1  0
 19 41  1  0
 21 42  1  0
 22 43  1  0
 23 44  1  0
 24 45  1  0
 29 46  1  0
M  CHG  2   7  -1  13  -1
M  END
>  <UniqueID>  (37) 
35

>  <SMILES>  (37) 
COc1ccc2[n-]c3c(OC(=O)[N-]CCc4cccnc4)cccc3c(=O)c2c1

>  <Energy>  (37) 
58.46073005412566

>  <Genealogy>  (37) 
COc1ccc2[n-]c3c(OC(=O)[N-]CCc4cccnc4)cccc3c(=O)c2c1 (protonated)
COc1ccc2[n-]c3c(OC(=O)[N-]CCc4cccnc4)cccc3c(=O)c2c1 (3D coordinates assigned)
COc1ccc2[n-]c3c(OC(=O)[N-]CCc4cccnc4)cccc3c(=O)c2c1 (optimized conformer: 58.46073005412566 kcal/mol)

>  <smiles>  (37) 
COc1ccc2[nH]c3c(OC(=O)NCCc4cccnc4)cccc3c(=O)c2c1

>  <score_type>  (37) 
oracle

>  <origin>  (37) 
adg

>  <m_score__min__energy>  (37) 
-10.84

>  <m_primary>  (37) 
energy

$$$$
37:0
     RDKit          3D

 41 44  0  0  0  0  0  0  0  0999 V2000
   -0.2972   26.8196  -27.2890 H   0  0  0  0  0  0  0  0  0  0  0  0
   -1.0850   26.0630  -27.4190 C   0  0  0  0  0  0  0  0  0  0  0  0
   -2.0340   25.8650  -26.4110 C   0  0  0  0  0  0  0  0  0  0  0  0
   -1.9896   26.4659  -25.4907 H   0  0  0  0  0  0  0  0  0  0  0  0
   -3.0400   24.9050  -26.5690 C   0  0  0  0  0  0  0  0  0  0  0  0
   -3.7848   24.7516  -25.7742 H   0  0  0  0  0  0  0  0  0  0  0  0
   -3.0970   24.1390  -27.7420 C   0  0  0  0  0  0  0  0  0  0  0  0
   -4.0900   23.1710  -27.9340 C   0  0  0  0  0  0  0  0  0  0  0  0
   -4.8468   22.9960  -27.1551 H   0  0  0  0  0  0  0  0  0  0  0  0
   -4.1180   22.4280  -29.1160 C   0  0  0  0  0  0  0  0  0  0  0  0
   -4.8959   21.6659  -29.2709 H   0  0  0  0  0  0  0  0  0  0  0  0
   -3.1520   22.6570  -30.1030 C   0  0  0  0  0  0  0  0  0  0  0  0
   -3.1880   21.9680  -31.2060 N   0  0  0  0  0  0  0  0  0  0  0  0
   -3.9720   22.3150  -32.3920 C   0  0  0  0  0  0  0  0  0  0  0  0
   -3.7837   21.5707  -33.1797 H   0  0  0  0  0  0  0  0  0  0  0  0
   -3.6719   23.3167  -32.7334 H   0  0  0  0  0  0  0  0  0  0  0  0
   -5.4590   22.3340  -32.0680 C   0  0  0  0  0  0  0  0  0  0  0  0
   -5.9900   23.5360  -31.5400 C   0  0  0  0  0  0  0  0  0  0  0  0
   -5.1260   24.6280  -31.3400 O   0  0  0  0  0  0  0  0  0  0  0  0
   -5.3690   25.7030  -30.4390 C   0  0  0  0  0  0  0  0  0  0  0  0
   -5.2869   25.3396  -29.4040 H   0  0  0  0  0  0  0  0  0  0  0  0
   -4.6279   26.4980  -30.6084 H   0  0  0  0  0  0  0  0  0  0  0  0
   -6.3800   26.1020  -30.6084 H   0  0  0  0  0  0  0  0  0  0  0  0
   -7.3550   23.6240  -31.2280 C   0  0  0  0  0  0  0  0  0  0  0  0
   -7.7590   24.5599  -30.8147 H   0  0  0  0  0  0  0  0  0  0  0  0
   -8.2020   22.5430  -31.4350 C   0  0  0  0  0  0  0  0  0  0  0  0
   -9.2689   22.6293  -31.1816 H   0  0  0  0  0  0  0  0  0  0  0  0
   -7.7090   21.3460  -31.9630 C   0  0  0  0  0  0  0  0  0  0  0  0
   -8.5900   20.2720  -32.1710 C   0  0  0  0  0  0  0  0  0  0  0  0
   -9.6538   20.3786  -31.9124 H   0  0  0  0  0  0  0  0  0  0  0  0
   -8.1230   19.0730  -32.7030 C   0  0  0  0  0  0  0  0  0  0  0  0
   -8.8179   18.2355  -32.8634 H   0  0  0  0  0  0  0  0  0  0  0  0
   -6.7780   18.9330  -33.0320 C   0  0  0  0  0  0  0  0  0  0  0  0
   -6.4139   17.9838  -33.4522 H   0  0  0  0  0  0  0  0  0  0  0  0
   -5.8880   19.9900  -32.8320 C   0  0  0  0  0  0  0  0  0  0  0  0
   -4.8282   19.8641  -33.0985 H   0  0  0  0  0  0  0  0  0  0  0  0
   -6.3300   21.2220  -32.2910 C   0  0  0  0  0  0  0  0  0  0  0  0
   -2.1900   23.6000  -29.8980 N   0  0  0  0  0  0  0  0  0  0  0  0
   -2.1360   24.3410  -28.7580 C   0  0  0  0  0  0  0  0  0  0  0  0
   -1.1340   25.3030  -28.5910 C   0  0  0  0  0  0  0  0  0  0  0  0
   -0.3854   25.4611  -29.3813 H   0  0  0  0  0  0  0  0  0  0  0  0
  1  2  1  0
  2  3  2  0
  3  4  1  0
  3  5  1  0
  5  6  1  0
  5  7  2  0
  7  8  1  0
  8  9  1  0
  8 10  2  0
 10 11  1  0
 10 12  1  0
 12 13  2  0
 13 14  1  0
 14 15  1  0
 14 16  1  0
 14 17  1  0
 17 18  2  0
 18 19  1  0
 19 20  1  0
 20 21  1  0
 20 22  1  0
 20 23  1  0
 18 24  1  0
 24 25  1  0
 24 26  2  0
 26 27  1  0
 26 28  1  0
 28 29  2  0
 29 30  1  0
 29 31  1  0
 31 32  1  0
 31 33  2  0
 33 34  1  0
 33 35  1  0
 35 36  1  0
 35 37  2  0
 12 38  1  0
 38 39  1  0
 39 40  2  0
 40 41  1  0
 40  2  1  0
 39  7  1  0
 37 17  1  0
 37 28  1  0
M  CHG  1  38  -1
M  END
>  <UniqueID>  (38) 
36

>  <SMILES>  (38) 
COc1ccc2ccccc2c1C/N=c1/ccc2ccccc2[n-]1

>  <Energy>  (38) 
55.20726649132194

>  <Genealogy>  (38) 
COc1ccc2ccccc2c1CN=c1ccc2ccccc2[n-]1 (protonated)
COc1ccc2ccccc2c1C/N=c1/ccc2ccccc2[n-]1 (cis-trans isomerization)
COc1ccc2ccccc2c1C/N=c1/ccc2ccccc2[n-]1 (3D coordinates assigned)
COc1ccc2ccccc2c1C/N=c1/ccc2ccccc2[n-]1 (optimized conformer: 55.20726649132194 kcal/mol)

>  <smiles>  (38) 
COc1ccc2ccccc2c1CN=c1ccc2ccccc2[nH]1

>  <score_type>  (38) 
oracle

>  <origin>  (38) 
adg

>  <m_score__min__energy>  (38) 
-10.539999999999999

>  <m_primary>  (38) 
energy

$$$$
38:0
     RDKit          3D

 36 38  0  0  0  0  0  0  0  0999 V2000
   -2.8520   18.8520  -26.0690 C   0  0  0  0  0  0  0  0  0  0  0  0
   -1.8850   19.6480  -26.7460 O   0  0  0  0  0  0  0  0  0  0  0  0
   -2.1860   20.8010  -27.4850 C   0  0  0  0  0  0  0  0  0  0  0  0
   -2.6820   20.7460  -28.8010 C   0  0  0  0  0  0  0  0  0  0  0  0
   -2.9630   21.9250  -29.4980 C   0  0  0  0  0  0  0  0  0  0  0  0
   -2.7420   23.1780  -28.8990 C   0  0  0  0  0  0  0  0  0  0  0  0
   -3.0430   24.4030  -29.5830 N   0  0  0  0  0  0  0  0  0  0  0  0
   -4.1650   24.6530  -30.4390 C   0  0  0  0  0  0  0  0  0  0  0  0
   -4.1890   25.6670  -31.1870 O   0  0  0  0  0  0  0  0  0  0  0  0
   -5.3200   23.7480  -30.4030 C   0  0  0  0  0  0  0  0  0  0  0  0
   -5.7260   22.8940  -31.4110 C   0  0  0  0  0  0  0  0  0  0  0  0
   -6.8380   22.2590  -30.8820 C   0  0  0  0  0  0  0  0  0  0  0  0
   -7.6630   21.2060  -31.5140 C   0  0  0  0  0  0  0  0  0  0  0  0
   -9.0280   21.4690  -31.7240 C   0  0  0  0  0  0  0  0  0  0  0  0
   -9.8590   20.5050  -32.2980 C   0  0  0  0  0  0  0  0  0  0  0  0
   -9.3360   19.2700  -32.6810 C   0  0  0  0  0  0  0  0  0  0  0  0
   -7.9780   19.0010  -32.5020 C   0  0  0  0  0  0  0  0  0  0  0  0
   -7.1330   19.9590  -31.9270 C   0  0  0  0  0  0  0  0  0  0  0  0
   -5.4150   19.5820  -31.8390 Cl  0  0  0  0  0  0  0  0  0  0  0  0
   -7.0390   22.7110  -29.6630 O   0  0  0  0  0  0  0  0  0  0  0  0
   -6.1500   23.6070  -29.3540 N   0  0  0  0  0  0  0  0  0  0  0  0
   -2.2700   23.2300  -27.5770 C   0  0  0  0  0  0  0  0  0  0  0  0
   -1.9840   24.9090  -26.7000 Br  0  0  0  0  0  0  0  0  0  0  0  0
   -1.9870   22.0480  -26.8830 C   0  0  0  0  0  0  0  0  0  0  0  0
   -2.7203   18.9604  -24.9823 H   0  0  0  0  0  0  0  0  0  0  0  0
   -3.8622   19.1837  -26.3508 H   0  0  0  0  0  0  0  0  0  0  0  0
   -2.7206   17.7969  -26.3508 H   0  0  0  0  0  0  0  0  0  0  0  0
   -2.8492   19.7715  -29.2831 H   0  0  0  0  0  0  0  0  0  0  0  0
   -3.3599   21.8721  -30.5225 H   0  0  0  0  0  0  0  0  0  0  0  0
   -5.2719   22.7516  -32.4027 H   0  0  0  0  0  0  0  0  0  0  0  0
   -9.4456   22.4442  -31.4331 H   0  0  0  0  0  0  0  0  0  0  0  0
  -10.9273   20.7197  -32.4483 H   0  0  0  0  0  0  0  0  0  0  0  0
   -9.9938   18.5078  -33.1242 H   0  0  0  0  0  0  0  0  0  0  0  0
   -7.5682   18.0293  -32.8149 H   0  0  0  0  0  0  0  0  0  0  0  0
   -6.1020   24.1070  -28.4390 H   0  0  0  0  0  0  0  0  0  0  0  0
   -1.6040   22.1001  -25.8531 H   0  0  0  0  0  0  0  0  0  0  0  0
  1  2  1  0
  2  3  1  0
  3  4  2  0
  4  5  1  0
  5  6  2  0
  6  7  1  0
  7  8  1  0
  8  9  2  0
  8 10  1  0
 10 11  1  0
 11 12  2  0
 12 13  1  0
 13 14  2  0
 14 15  1  0
 15 16  2  0
 16 17  1  0
 17 18  2  0
 18 19  1  0
 12 20  1  0
 20 21  1  0
  6 22  1  0
 22 23  1  0
 22 24  2  0
 24  3  1  0
 21 10  2  0
 18 13  1  0
  1 25  1  0
  1 26  1  0
  1 27  1  0
  4 28  1  0
  5 29  1  0
 11 30  1  0
 14 31  1  0
 15 32  1  0
 16 33  1  0
 17 34  1  0
 21 35  1  0
 24 36  1  0
M  CHG  2   7  -1  21   1
M  END
>  <UniqueID>  (39) 
37

>  <SMILES>  (39) 
COc1ccc([N-]C(=O)c2cc(-c3ccccc3Cl)o[nH+]2)c(Br)c1

>  <Energy>  (39) 
77.64416249203279

>  <Genealogy>  (39) 
COc1ccc([N-]C(=O)c2cc(-c3ccccc3Cl)o[nH+]2)c(Br)c1 (protonated)
COc1ccc([N-]C(=O)c2cc(-c3ccccc3Cl)o[nH+]2)c(Br)c1 (3D coordinates assigned)
COc1ccc([N-]C(=O)c2cc(-c3ccccc3Cl)o[nH+]2)c(Br)c1 (optimized conformer: 77.64416249203279 kcal/mol)

>  <smiles>  (39) 
COc1ccc(NC(=O)c2cc(-c3ccccc3Cl)on2)c(Br)c1

>  <score_type>  (39) 
oracle

>  <origin>  (39) 
adg

>  <m_score__min__energy>  (39) 
-9.8699999999999992

>  <m_primary>  (39) 
energy

$$$$
39:0
     RDKit          3D

 28 29  0  0  0  0  0  0  0  0999 V2000
   -6.0070   25.7840  -29.7120 O   0  0  0  0  0  0  0  0  0  0  0  0
   -5.0030   24.7070  -30.0110 S   0  0  0  0  0  0  0  0  0  0  0  0
   -3.8900   25.3060  -30.8260 O   0  0  0  0  0  0  0  0  0  0  0  0
   -4.3490   24.0650  -28.4790 C   0  0  0  0  0  0  0  0  0  0  0  0
   -2.9780   23.4770  -28.6920 C   0  0  0  0  0  0  0  0  0  0  0  0
   -1.8640   24.3180  -28.8950 C   0  0  0  0  0  0  0  0  0  0  0  0
   -2.0130   25.6650  -28.9430 F   0  0  0  0  0  0  0  0  0  0  0  0
   -0.5870   23.7680  -29.0370 C   0  0  0  0  0  0  0  0  0  0  0  0
   -0.4060   22.3850  -28.9750 C   0  0  0  0  0  0  0  0  0  0  0  0
   -1.5020   21.5450  -28.7690 C   0  0  0  0  0  0  0  0  0  0  0  0
   -2.7830   22.0850  -28.6240 C   0  0  0  0  0  0  0  0  0  0  0  0
   -3.8320   21.2490  -28.4110 F   0  0  0  0  0  0  0  0  0  0  0  0
   -5.7780   23.4150  -30.9250 C   0  0  0  0  0  0  0  0  0  0  0  0
   -5.0020   22.5070  -31.6610 C   0  0  0  0  0  0  0  0  0  0  0  0
   -5.6150   21.4590  -32.3520 C   0  0  0  0  0  0  0  0  0  0  0  0
   -7.0050   21.3110  -32.3110 C   0  0  0  0  0  0  0  0  0  0  0  0
   -7.5990   20.2920  -32.9800 F   0  0  0  0  0  0  0  0  0  0  0  0
   -7.7820   22.2110  -31.5740 C   0  0  0  0  0  0  0  0  0  0  0  0
   -7.1700   23.2580  -30.8800 C   0  0  0  0  0  0  0  0  0  0  0  0
   -4.2821   24.8811  -27.7444 H   0  0  0  0  0  0  0  0  0  0  0  0
   -5.0201   23.2751  -28.1106 H   0  0  0  0  0  0  0  0  0  0  0  0
    0.2787   24.4272  -29.1982 H   0  0  0  0  0  0  0  0  0  0  0  0
    0.6009   21.9569  -29.0885 H   0  0  0  0  0  0  0  0  0  0  0  0
   -1.3570   20.4557  -28.7207 H   0  0  0  0  0  0  0  0  0  0  0  0
   -3.9084   22.6206  -31.6940 H   0  0  0  0  0  0  0  0  0  0  0  0
   -5.0037   20.7495  -32.9290 H   0  0  0  0  0  0  0  0  0  0  0  0
   -8.8753   22.0944  -31.5408 H   0  0  0  0  0  0  0  0  0  0  0  0
   -7.7826   23.9611  -30.2966 H   0  0  0  0  0  0  0  0  0  0  0  0
  1  2  2  0
  2  3  2  0
  2  4  1  0
  4  5  1  0
  5  6  2  0
  6  7  1  0
  6  8  1  0
  8  9  2  0
  9 10  1  0
 10 11  2  0
 11 12  1  0
  2 13  1  0
 13 14  2  0
 14 15  1  0
 15 16  2  0
 16 17  1  0
 16 18  1  0
 18 19  2  0
 11  5  1  0
 19 13  1  0
  4 20  1  0
  4 21  1  0
  8 22  1  0
  9 23  1  0
 10 24  1  0
 14 25  1  0
 15 26  1  0
 18 27  1  0
 19 28  1  0
M  END
>  <UniqueID>  (40) 
38

>  <SMILES>  (40) 
O=S(=O)(Cc1c(F)cccc1F)c1ccc(F)cc1

>  <Energy>  (40) 
24.99545279837647

>  <Genealogy>  (40) 
O=S(=O)(Cc1c(F)cccc1F)c1ccc(F)cc1 (3D coordinates assigned)
O=S(=O)(Cc1c(F)cccc1F)c1ccc(F)cc1 (optimized conformer: 24.99545279837647 kcal/mol)

>  <smiles>  (40) 
O=S(=O)(Cc1c(F)cccc1F)c1ccc(F)cc1

>  <score_type>  (40) 
oracle

>  <origin>  (40) 
adg

>  <m_score__min__energy>  (40) 
-7.1299999999999999

>  <m_primary>  (40) 
energy

$$$$
40:0
     RDKit          3D

 49 52  0  0  0  0  0  0  0  0999 V2000
   -4.6820   26.7279  -30.2430 H   0  0  0  0  0  0  0  0  0  0  0  0
   -4.6310   25.6600  -30.5020 C   0  0  0  0  0  0  0  0  0  0  0  0
   -3.5400   24.9330  -30.1600 N   0  0  0  0  0  0  0  0  0  0  0  0
   -3.4560   23.6010  -30.4110 C   0  0  0  0  0  0  0  0  0  0  0  0
   -2.3280   22.8990  -29.9720 C   0  0  0  0  0  0  0  0  0  0  0  0
   -1.4904   23.4461  -29.5146 H   0  0  0  0  0  0  0  0  0  0  0  0
   -2.2540   21.5050  -30.1090 C   0  0  0  0  0  0  0  0  0  0  0  0
   -1.0570   20.7590  -29.6410 C   0  0  0  0  0  0  0  0  0  0  0  0
   -0.0900   20.3150  -30.5620 C   0  0  0  0  0  0  0  0  0  0  0  0
   -0.2215   20.5220  -31.6343 H   0  0  0  0  0  0  0  0  0  0  0  0
    1.0360   19.6130  -30.1240 C   0  0  0  0  0  0  0  0  0  0  0  0
    1.7845   19.2707  -30.8537 H   0  0  0  0  0  0  0  0  0  0  0  0
    1.2180   19.3420  -28.7600 C   0  0  0  0  0  0  0  0  0  0  0  0
    2.4240   18.5660  -28.3000 C   0  0  0  0  0  0  0  0  0  0  0  0
    3.0976   19.2387  -27.7489 H   0  0  0  0  0  0  0  0  0  0  0  0
    2.9356   18.1520  -29.1814 H   0  0  0  0  0  0  0  0  0  0  0  0
    2.0220   17.4520  -27.4170 N   0  0  0  0  0  0  0  0  0  0  0  0
    1.0490   16.5900  -28.1070 C   0  0  0  0  0  0  0  0  0  0  0  0
    0.4426   16.0528  -27.3629 H   0  0  0  0  0  0  0  0  0  0  0  0
    0.3930   17.2087  -28.7369 H   0  0  0  0  0  0  0  0  0  0  0  0
    1.5841   15.8642  -28.7369 H   0  0  0  0  0  0  0  0  0  0  0  0
    3.1920   16.6510  -27.0170 C   0  0  0  0  0  0  0  0  0  0  0  0
    3.2508   16.6107  -25.9193 H   0  0  0  0  0  0  0  0  0  0  0  0
    3.0920   15.6310  -27.4165 H   0  0  0  0  0  0  0  0  0  0  0  0
    4.1067   17.1132  -27.4165 H   0  0  0  0  0  0  0  0  0  0  0  0
    0.2530   19.7770  -27.8390 C   0  0  0  0  0  0  0  0  0  0  0  0
    0.3833   19.5628  -26.7680 H   0  0  0  0  0  0  0  0  0  0  0  0
   -0.8730   20.4810  -28.2750 C   0  0  0  0  0  0  0  0  0  0  0  0
   -1.6213   20.8203  -27.5436 H   0  0  0  0  0  0  0  0  0  0  0  0
   -3.3480   20.8210  -30.6580 C   0  0  0  0  0  0  0  0  0  0  0  0
   -3.3192   19.7242  -30.7366 H   0  0  0  0  0  0  0  0  0  0  0  0
   -4.4730   21.5150  -31.1060 C   0  0  0  0  0  0  0  0  0  0  0  0
   -5.3361   20.9545  -31.4945 H   0  0  0  0  0  0  0  0  0  0  0  0
   -4.5200   22.9260  -31.0680 C   0  0  0  0  0  0  0  0  0  0  0  0
   -5.6180   23.7080  -31.5470 C   0  0  0  0  0  0  0  0  0  0  0  0
   -6.5600   23.2790  -32.3490 N   0  0  0  0  0  0  0  0  0  0  0  0
   -7.4450   22.1580  -32.2170 C   0  0  0  0  0  0  0  0  0  0  0  0
   -7.0550   20.9110  -32.7200 C   0  0  0  0  0  0  0  0  0  0  0  0
   -6.0969   20.8095  -33.2509 H   0  0  0  0  0  0  0  0  0  0  0  0
   -7.8790   19.7940  -32.5500 C   0  0  0  0  0  0  0  0  0  0  0  0
   -7.5783   18.8209  -32.9656 H   0  0  0  0  0  0  0  0  0  0  0  0
   -9.0850   19.9130  -31.8520 C   0  0  0  0  0  0  0  0  0  0  0  0
   -9.7368   19.0359  -31.7261 H   0  0  0  0  0  0  0  0  0  0  0  0
   -9.4620   21.1480  -31.3140 C   0  0  0  0  0  0  0  0  0  0  0  0
  -10.4065   21.2401  -30.7577 H   0  0  0  0  0  0  0  0  0  0  0  0
   -8.6390   22.2650  -31.4830 C   0  0  0  0  0  0  0  0  0  0  0  0
   -8.9264   23.2302  -31.0405 H   0  0  0  0  0  0  0  0  0  0  0  0
   -5.6870   25.0590  -31.1800 C   0  0  0  0  0  0  0  0  0  0  0  0
   -6.5819   25.6480  -31.4296 H   0  0  0  0  0  0  0  0  0  0  0  0
  1  2  1  0
  2  3  1  0
  3  4  1  0
  4  5  2  0
  5  6  1  0
  5  7  1  0
  7  8  1  0
  8  9  2  0
  9 10  1  0
  9 11  1  0
 11 12  1  0
 11 13  2  0
 13 14  1  0
 14 15  1  0
 14 16  1  0
 14 17  1  0
 17 18  1  0
 18 19  1  0
 18 20  1  0
 18 21  1  0
 17 22  1  0
 22 23  1  0
 22 24  1  0
 22 25  1  0
 13 26  1  0
 26 27  1  0
 26 28  2  0
 28 29  1  0
  7 30  2  0
 30 31  1  0
 30 32  1  0
 32 33  1  0
 32 34  2  0
 34 35  1  0
 35 36  2  0
 36 37  1  0
 37 38  2  0
 38 39  1  0
 38 40  1  0
 40 41  1  0
 40 42  2  0
 42 43  1  0
 42 44  1  0
 44 45  1  0
 44 46  2  0
 46 47  1  0
 35 48  1  0
 48 49  1  0
 48  2  2  0
 34  4  1  0
 46 37  1  0
 28  8  1  0
M  CHG  1   3  -1
M  END
>  <UniqueID>  (41) 
39

>  <SMILES>  (41) 
CN(C)Cc1ccc(-c2ccc3/c(=N\c4ccccc4)cc[n-]c3c2)cc1

>  <Energy>  (41) 
81.77718684100162

>  <Genealogy>  (41) 
CN(C)Cc1ccc(-c2ccc3c(=Nc4ccccc4)cc[n-]c3c2)cc1 (protonated)
CN(C)Cc1ccc(-c2ccc3/c(=N\c4ccccc4)cc[n-]c3c2)cc1 (cis-trans isomerization)
CN(C)Cc1ccc(-c2ccc3/c(=N\c4ccccc4)cc[n-]c3c2)cc1 (3D coordinates assigned)
CN(C)Cc1ccc(-c2ccc3/c(=N\c4ccccc4)cc[n-]c3c2)cc1 (optimized conformer: 81.77718684100162 kcal/mol)

>  <smiles>  (41) 
CN(C)Cc1ccc(-c2ccc3c(=Nc4ccccc4)cc[nH]c3c2)cc1

>  <score_type>  (41) 
oracle

>  <origin>  (41) 
adg

>  <m_score__min__energy>  (41) 
-9.7699999999999996

>  <m_primary>  (41) 
energy

$$$$
41:0
     RDKit          3D

 51 54  0  0  0  0  0  0  0  0999 V2000
   -1.9580   24.6900  -28.6230 C   0  0  0  0  0  0  0  0  0  0  0  0
   -3.0900   24.4140  -29.5580 C   0  0  0  0  0  0  0  0  0  0  0  0
   -3.5310   25.2980  -30.4730 N   0  0  0  0  0  0  0  0  0  0  0  0
   -4.5720   24.7690  -31.0970 N   0  0  0  0  0  0  0  0  0  0  0  0
   -4.8080   23.5430  -30.5870 C   0  0  0  0  0  0  0  0  0  0  0  0
   -5.9190   22.6790  -31.0370 C   0  0  0  0  0  0  0  0  0  0  0  0
   -5.6580   21.4230  -31.6070 C   0  0  0  0  0  0  0  0  0  0  0  0
   -6.7230   20.6180  -32.0470 C   0  0  0  0  0  0  0  0  0  0  0  0
   -6.4630   19.2970  -32.6760 C   0  0  0  0  0  0  0  0  0  0  0  0
   -6.2560   19.1930  -34.0650 C   0  0  0  0  0  0  0  0  0  0  0  0
   -5.9920   17.9520  -34.6510 C   0  0  0  0  0  0  0  0  0  0  0  0
   -5.9340   16.8010  -33.8620 C   0  0  0  0  0  0  0  0  0  0  0  0
   -6.1430   16.8900  -32.4840 C   0  0  0  0  0  0  0  0  0  0  0  0
   -6.4060   18.1290  -31.8910 C   0  0  0  0  0  0  0  0  0  0  0  0
   -8.0360   21.0920  -31.8930 C   0  0  0  0  0  0  0  0  0  0  0  0
   -8.2560   22.3410  -31.3130 C   0  0  0  0  0  0  0  0  0  0  0  0
   -7.2060   23.0980  -30.9020 N   0  0  0  0  0  0  0  0  0  0  0  0
   -3.8760   23.2750  -29.5930 C   0  0  0  0  0  0  0  0  0  0  0  0
   -3.8280   22.1100  -28.6340 C   0  0  0  0  0  0  0  0  0  0  0  0
   -3.1420   20.8850  -29.2580 C   0  0  0  0  0  0  0  0  0  0  0  0
   -1.7140   20.8280  -28.9180 N   0  0  0  0  0  0  0  0  0  0  0  0
   -0.7670   21.1510  -30.3390 S   0  0  0  0  0  0  0  0  0  0  0  0
    0.6180   20.6010  -30.1460 O   0  0  0  0  0  0  0  0  0  0  0  0
   -0.6650   22.6350  -30.5550 O   0  0  0  0  0  0  0  0  0  0  0  0
   -1.5120   20.3540  -31.7310 C   0  0  0  0  0  0  0  0  0  0  0  0
   -1.2180   19.0060  -31.9790 C   0  0  0  0  0  0  0  0  0  0  0  0
   -1.8130   18.3370  -33.0530 C   0  0  0  0  0  0  0  0  0  0  0  0
   -2.7060   19.0120  -33.8880 C   0  0  0  0  0  0  0  0  0  0  0  0
   -3.2750   18.3660  -34.9350 F   0  0  0  0  0  0  0  0  0  0  0  0
   -3.0160   20.3520  -33.6410 C   0  0  0  0  0  0  0  0  0  0  0  0
   -2.4280   21.0250  -32.5640 C   0  0  0  0  0  0  0  0  0  0  0  0
   -2.7650   22.3180  -32.3350 F   0  0  0  0  0  0  0  0  0  0  0  0
   -2.3108   24.6040  -27.5847 H   0  0  0  0  0  0  0  0  0  0  0  0
   -1.1521   23.9620  -28.7979 H   0  0  0  0  0  0  0  0  0  0  0  0
   -1.5776   25.7072  -28.7979 H   0  0  0  0  0  0  0  0  0  0  0  0
   -4.6215   21.0692  -31.7092 H   0  0  0  0  0  0  0  0  0  0  0  0
   -6.3024   20.0948  -34.6932 H   0  0  0  0  0  0  0  0  0  0  0  0
   -5.8294   17.8815  -35.7366 H   0  0  0  0  0  0  0  0  0  0  0  0
   -5.7240   15.8257  -34.3253 H   0  0  0  0  0  0  0  0  0  0  0  0
   -6.1006   15.9829  -31.8632 H   0  0  0  0  0  0  0  0  0  0  0  0
   -6.5693   18.1917  -30.8050 H   0  0  0  0  0  0  0  0  0  0  0  0
   -8.8869   20.4809  -32.2283 H   0  0  0  0  0  0  0  0  0  0  0  0
   -9.2832   22.7142  -31.1880 H   0  0  0  0  0  0  0  0  0  0  0  0
   -3.2698   22.4114  -27.7354 H   0  0  0  0  0  0  0  0  0  0  0  0
   -4.8620   21.8315  -28.3824 H   0  0  0  0  0  0  0  0  0  0  0  0
   -3.6333   19.9738  -28.8862 H   0  0  0  0  0  0  0  0  0  0  0  0
   -3.2305   20.9634  -30.3516 H   0  0  0  0  0  0  0  0  0  0  0  0
   -1.4600   19.8560  -28.6310 H   0  0  0  0  0  0  0  0  0  0  0  0
   -0.5144   18.4709  -31.3243 H   0  0  0  0  0  0  0  0  0  0  0  0
   -1.5777   17.2789  -33.2402 H   0  0  0  0  0  0  0  0  0  0  0  0
   -3.7250   20.8799  -34.2957 H   0  0  0  0  0  0  0  0  0  0  0  0
  1  2  1  0
  2  3  1  0
  3  4  1  0
  4  5  2  0
  5  6  1  0
  6  7  2  0
  7  8  1  0
  8  9  1  0
  9 10  2  0
 10 11  1  0
 11 12  2  0
 12 13  1  0
 13 14  2  0
  8 15  2  0
 15 16  1  0
 16 17  2  0
  5 18  1  0
 18 19  1  0
 19 20  1  0
 20 21  1  0
 21 22  1  0
 22 23  2  0
 22 24  2  0
 22 25  1  0
 25 26  2  0
 26 27  1  0
 27 28  2  0
 28 29  1  0
 28 30  1  0
 30 31  2  0
 31 32  1  0
 18  2  2  0
 31 25  1  0
 17  6  1  0
 14  9  1  0
  1 33  1  0
  1 34  1  0
  1 35  1  0
  7 36  1  0
 10 37  1  0
 11 38  1  0
 12 39  1  0
 13 40  1  0
 14 41  1  0
 15 42  1  0
 16 43  1  0
 19 44  1  0
 19 45  1  0
 20 46  1  0
 20 47  1  0
 21 48  1  0
 26 49  1  0
 27 50  1  0
 30 51  1  0
M  CHG  1   3  -1
M  END
>  <UniqueID>  (42) 
40

>  <SMILES>  (42) 
Cc1[n-]nc(-c2cc(-c3ccccc3)ccn2)c1CCNS(=O)(=O)c1ccc(F)cc1F

>  <Energy>  (42) 
82.9980814253128

>  <Genealogy>  (42) 
Cc1[n-]nc(-c2cc(-c3ccccc3)ccn2)c1CCNS(=O)(=O)c1ccc(F)cc1F (protonated)
Cc1[n-]nc(-c2cc(-c3ccccc3)ccn2)c1CCNS(=O)(=O)c1ccc(F)cc1F (3D coordinates assigned)
Cc1[n-]nc(-c2cc(-c3ccccc3)ccn2)c1CCNS(=O)(=O)c1ccc(F)cc1F (optimized conformer: 82.9980814253128 kcal/mol)

>  <smiles>  (42) 
Cc1[nH]nc(-c2cc(-c3ccccc3)ccn2)c1CCNS(=O)(=O)c1ccc(F)cc1F

>  <score_type>  (42) 
oracle

>  <origin>  (42) 
adg

>  <m_score__min__energy>  (42) 
-11.9

>  <m_primary>  (42) 
energy

$$$$
42:0
     RDKit          3D

 46 48  0  0  0  0  0  0  0  0999 V2000
   -5.7370   24.4670  -31.4150 C   0  0  0  0  0  0  0  0  0  0  0  0
   -4.4070   24.4300  -30.7810 N   0  0  0  0  0  0  0  0  0  0  0  0
   -4.5630   24.5010  -29.3190 C   0  0  0  0  0  0  0  0  0  0  0  0
   -3.6730   23.2000  -31.1490 C   0  0  0  0  0  0  0  0  0  0  0  0
   -4.5480   21.9530  -30.9630 C   0  0  0  0  0  0  0  0  0  0  0  0
   -4.7320   21.2580  -32.2430 N   0  0  0  0  0  0  0  0  0  0  0  0
   -3.8880   21.5530  -33.4020 C   0  0  0  0  0  0  0  0  0  0  0  0
   -5.7630   20.2680  -32.3730 C   0  0  0  0  0  0  0  0  0  0  0  0
   -5.4030   18.9420  -32.6440 C   0  0  0  0  0  0  0  0  0  0  0  0
   -6.3940   17.9520  -32.7580 C   0  0  0  0  0  0  0  0  0  0  0  0
   -6.0500   16.5340  -33.0360 C   0  0  0  0  0  0  0  0  0  0  0  0
   -6.7460   15.7850  -34.0030 C   0  0  0  0  0  0  0  0  0  0  0  0
   -6.3910   14.4540  -34.2360 C   0  0  0  0  0  0  0  0  0  0  0  0
   -5.3660   13.8870  -33.5450 N   0  0  0  0  0  0  0  0  0  0  0  0
   -4.6630   14.5910  -32.6180 C   0  0  0  0  0  0  0  0  0  0  0  0
   -4.9890   15.9220  -32.3490 C   0  0  0  0  0  0  0  0  0  0  0  0
   -7.7020   18.3040  -32.6230 N   0  0  0  0  0  0  0  0  0  0  0  0
   -8.0910   19.5820  -32.3700 C   0  0  0  0  0  0  0  0  0  0  0  0
   -9.4530   19.8810  -32.2400 C   0  0  0  0  0  0  0  0  0  0  0  0
   -9.8620   21.1920  -31.9860 C   0  0  0  0  0  0  0  0  0  0  0  0
   -8.9130   22.2110  -31.8630 C   0  0  0  0  0  0  0  0  0  0  0  0
   -7.5490   21.9240  -31.9920 C   0  0  0  0  0  0  0  0  0  0  0  0
   -7.1240   20.6050  -32.2390 C   0  0  0  0  0  0  0  0  0  0  0  0
   -6.5138   24.4886  -30.6365 H   0  0  0  0  0  0  0  0  0  0  0  0
   -5.8199   25.3678  -32.0408 H   0  0  0  0  0  0  0  0  0  0  0  0
   -5.8699   23.5722  -32.0408 H   0  0  0  0  0  0  0  0  0  0  0  0
   -3.6644   24.0920  -28.8341 H   0  0  0  0  0  0  0  0  0  0  0  0
   -4.6986   25.5495  -29.0152 H   0  0  0  0  0  0  0  0  0  0  0  0
   -5.4427   23.9146  -29.0152 H   0  0  0  0  0  0  0  0  0  0  0  0
   -3.3651   23.2680  -32.2028 H   0  0  0  0  0  0  0  0  0  0  0  0
   -2.7949   23.1096  -30.4926 H   0  0  0  0  0  0  0  0  0  0  0  0
   -4.0615   21.2728  -30.2485 H   0  0  0  0  0  0  0  0  0  0  0  0
   -5.5323   22.2628  -30.5819 H   0  0  0  0  0  0  0  0  0  0  0  0
   -2.9014   21.8978  -33.0589 H   0  0  0  0  0  0  0  0  0  0  0  0
   -3.7678   20.6436  -34.0091 H   0  0  0  0  0  0  0  0  0  0  0  0
   -4.3605   22.3393  -34.0091 H   0  0  0  0  0  0  0  0  0  0  0  0
   -4.3431   18.6750  -32.7678 H   0  0  0  0  0  0  0  0  0  0  0  0
   -7.5662   16.2457  -34.5731 H   0  0  0  0  0  0  0  0  0  0  0  0
   -6.9427   13.8623  -34.9813 H   0  0  0  0  0  0  0  0  0  0  0  0
   -5.1140   12.8890  -33.7300 H   0  0  0  0  0  0  0  0  0  0  0  0
   -3.8342   14.1101  -32.0778 H   0  0  0  0  0  0  0  0  0  0  0  0
   -4.4162   16.4896  -31.6009 H   0  0  0  0  0  0  0  0  0  0  0  0
  -10.2022   19.0816  -32.3382 H   0  0  0  0  0  0  0  0  0  0  0  0
  -10.9325   21.4231  -31.8826 H   0  0  0  0  0  0  0  0  0  0  0  0
   -9.2394   23.2425  -31.6641 H   0  0  0  0  0  0  0  0  0  0  0  0
   -6.8074   22.7312  -31.9001 H   0  0  0  0  0  0  0  0  0  0  0  0
  1  2  1  0
  2  3  1  0
  2  4  1  0
  4  5  1  0
  5  6  1  0
  6  7  1  0
  6  8  1  0
  8  9  2  0
  9 10  1  0
 10 11  1  0
 11 12  2  0
 12 13  1  0
 13 14  2  0
 14 15  1  0
 15 16  2  0
 10 17  2  0
 17 18  1  0
 18 19  2  0
 19 20  1  0
 20 21  2  0
 21 22  1  0
 22 23  2  0
 23  8  1  0
 16 11  1  0
 23 18  1  0
  1 24  1  0
  1 25  1  0
  1 26  1  0
  3 27  1  0
  3 28  1  0
  3 29  1  0
  4 30  1  0
  4 31  1  0
  5 32  1  0
  5 33  1  0
  7 34  1  0
  7 35  1  0
  7 36  1  0
  9 37  1  0
 12 38  1  0
 13 39  1  0
 14 40  1  0
 15 41  1  0
 16 42  1  0
 19 43  1  0
 20 44  1  0
 21 45  1  0
 22 46  1  0
M  CHG  1  14   1
M  END
>  <UniqueID>  (43) 
41

>  <SMILES>  (43) 
CN(C)CCN(C)c1cc(-c2cc[nH+]cc2)nc2ccccc12

>  <Energy>  (43) 
57.54589494468432

>  <Genealogy>  (43) 
CN(C)CCN(C)c1cc(-c2cc[nH+]cc2)nc2ccccc12 (protonated)
CN(C)CCN(C)c1cc(-c2cc[nH+]cc2)nc2ccccc12 (3D coordinates assigned)
CN(C)CCN(C)c1cc(-c2cc[nH+]cc2)nc2ccccc12 (optimized conformer: 57.54589494468432 kcal/mol)

>  <smiles>  (43) 
CN(C)CCN(C)c1cc(-c2ccncc2)nc2ccccc12

>  <score_type>  (43) 
oracle

>  <origin>  (43) 
adg

>  <m_score__min__energy>  (43) 
-7.7000000000000002

>  <m_primary>  (43) 
energy

$$$$
43:0
     RDKit          3D

 42 44  0  0  0  0  0  0  0  0999 V2000
   -2.6260   25.0520  -26.6590 C   0  0  0  0  0  0  0  0  0  0  0  0
   -1.5880   25.6230  -27.6180 C   0  0  0  0  0  0  0  0  0  0  0  0
   -1.9770   25.4010  -28.9740 O   0  0  0  0  0  0  0  0  0  0  0  0
   -2.4110   24.1850  -29.5290 C   0  0  0  0  0  0  0  0  0  0  0  0
   -1.7660   22.9730  -29.2130 C   0  0  0  0  0  0  0  0  0  0  0  0
   -2.1880   21.7730  -29.7780 C   0  0  0  0  0  0  0  0  0  0  0  0
   -3.2620   21.7550  -30.6600 C   0  0  0  0  0  0  0  0  0  0  0  0
   -3.9400   22.9410  -30.9850 C   0  0  0  0  0  0  0  0  0  0  0  0
   -5.1220   22.8730  -31.9400 C   0  0  0  0  0  0  0  0  0  0  0  0
   -5.7810   21.5480  -31.9920 N   0  0  0  0  0  0  0  0  0  0  0  0
   -5.2970   20.6970  -33.1050 C   0  0  0  0  0  0  0  0  0  0  0  0
   -5.7610   19.2410  -32.9040 C   0  0  0  0  0  0  0  0  0  0  0  0
   -7.1590   19.2160  -32.4880 N   0  0  0  0  0  0  0  0  0  0  0  0
   -7.9560   18.1640  -32.4430 N   0  0  0  0  0  0  0  0  0  0  0  0
   -9.1450   18.4940  -31.9570 N   0  0  0  0  0  0  0  0  0  0  0  0
   -9.0960   19.8160  -31.6700 C   0  0  0  0  0  0  0  0  0  0  0  0
   -7.8290   20.2570  -31.9880 C   0  0  0  0  0  0  0  0  0  0  0  0
   -7.2580   21.6360  -31.9580 C   0  0  0  0  0  0  0  0  0  0  0  0
   -3.5060   24.1700  -30.4350 C   0  0  0  0  0  0  0  0  0  0  0  0
   -4.1930   25.3360  -30.8320 O   0  0  0  0  0  0  0  0  0  0  0  0
   -5.5160   25.7130  -30.4730 C   0  0  0  0  0  0  0  0  0  0  0  0
   -2.3040   25.2291  -25.6222 H   0  0  0  0  0  0  0  0  0  0  0  0
   -3.5945   25.5443  -26.8313 H   0  0  0  0  0  0  0  0  0  0  0  0
   -2.7287   23.9704  -26.8313 H   0  0  0  0  0  0  0  0  0  0  0  0
   -1.4909   26.7046  -27.4427 H   0  0  0  0  0  0  0  0  0  0  0  0
   -0.6266   25.1194  -27.4391 H   0  0  0  0  0  0  0  0  0  0  0  0
   -0.9188   22.9751  -28.5114 H   0  0  0  0  0  0  0  0  0  0  0  0
   -1.6699   20.8360  -29.5257 H   0  0  0  0  0  0  0  0  0  0  0  0
   -3.5838   20.8031  -31.1075 H   0  0  0  0  0  0  0  0  0  0  0  0
   -5.8669   23.6171  -31.6215 H   0  0  0  0  0  0  0  0  0  0  0  0
   -4.7278   23.0713  -32.9476 H   0  0  0  0  0  0  0  0  0  0  0  0
   -5.6992   21.0784  -34.0551 H   0  0  0  0  0  0  0  0  0  0  0  0
   -4.1975   20.7234  -33.1244 H   0  0  0  0  0  0  0  0  0  0  0  0
   -5.6525   18.6902  -33.8499 H   0  0  0  0  0  0  0  0  0  0  0  0
   -5.1439   18.7695  -32.1250 H   0  0  0  0  0  0  0  0  0  0  0  0
   -7.6890   17.2010  -32.7460 H   0  0  0  0  0  0  0  0  0  0  0  0
   -9.9148   20.4251  -31.2594 H   0  0  0  0  0  0  0  0  0  0  0  0
   -7.6138   22.2013  -32.8320 H   0  0  0  0  0  0  0  0  0  0  0  0
   -7.5781   22.1504  -31.0399 H   0  0  0  0  0  0  0  0  0  0  0  0
   -5.6053   25.7385  -29.3769 H   0  0  0  0  0  0  0  0  0  0  0  0
   -5.7370   26.7099  -30.8822 H   0  0  0  0  0  0  0  0  0  0  0  0
   -6.2293   24.9824  -30.8822 H   0  0  0  0  0  0  0  0  0  0  0  0
  1  2  1  0
  2  3  1  0
  3  4  1  0
  4  5  2  0
  5  6  1  0
  6  7  2  0
  7  8  1  0
  8  9  1  0
  9 10  1  0
 10 11  1  0
 11 12  1  0
 12 13  1  0
 13 14  1  0
 14 15  2  0
 15 16  1  0
 16 17  2  0
 17 18  1  0
  8 19  2  0
 19 20  1  0
 20 21  1  0
 19  4  1  0
 18 10  1  0
 17 13  1  0
  1 22  1  0
  1 23  1  0
  1 24  1  0
  2 25  1  0
  2 26  1  0
  5 27  1  0
  6 28  1  0
  7 29  1  0
  9 30  1  0
  9 31  1  0
 11 32  1  0
 11 33  1  0
 12 34  1  0
 12 35  1  0
 14 36  1  0
 16 37  1  0
 18 38  1  0
 18 39  1  0
 21 40  1  0
 21 41  1  0
 21 42  1  0
M  CHG  1  14   1
M  END
>  <UniqueID>  (44) 
42

>  <SMILES>  (44) 
CCOc1cccc(CN2CCn3[nH+]ncc3C2)c1OC

>  <Energy>  (44) 
85.94294378147788

>  <Genealogy>  (44) 
CCOc1cccc(CN2CCn3[nH+]ncc3C2)c1OC (protonated)
CCOc1cccc(CN2CCn3[nH+]ncc3C2)c1OC (3D coordinates assigned)
CCOc1cccc(CN2CCn3[nH+]ncc3C2)c1OC (nonaromatic ring conformer: 85.94294378147788 kcal/mol)

>  <smiles>  (44) 
CCOc1cccc(CN2CCn3nncc3C2)c1OC

>  <score_type>  (44) 
oracle

>  <origin>  (44) 
adg

>  <m_score__min__energy>  (44) 
-8.0899999999999999

>  <m_primary>  (44) 
energy

$$$$
44:0
     RDKit          3D

 39 40  0  0  0  0  0  0  0  0999 V2000
   -2.3270   24.8380  -28.5910 C   0  0  0  0  0  0  0  0  0  0  0  0
   -3.1150   25.2980  -29.6850 O   0  0  0  0  0  0  0  0  0  0  0  0
   -4.0610   24.5170  -30.3650 C   0  0  0  0  0  0  0  0  0  0  0  0
   -5.3920   24.9480  -30.3740 C   0  0  0  0  0  0  0  0  0  0  0  0
   -6.3720   24.2070  -31.0370 C   0  0  0  0  0  0  0  0  0  0  0  0
   -6.0290   23.0270  -31.6990 C   0  0  0  0  0  0  0  0  0  0  0  0
   -4.7040   22.5760  -31.7080 C   0  0  0  0  0  0  0  0  0  0  0  0
   -4.4200   21.3810  -32.3920 O   0  0  0  0  0  0  0  0  0  0  0  0
   -3.2490   21.1270  -33.1690 C   0  0  0  0  0  0  0  0  0  0  0  0
   -3.2110   19.6640  -33.6290 C   0  0  0  0  0  0  0  0  0  0  0  0
   -4.2820   18.8860  -32.9860 N   0  0  0  0  0  0  0  0  0  0  0  0
   -5.4710   18.7660  -33.8480 C   0  0  0  0  0  0  0  0  0  0  0  0
   -6.7480   19.0600  -33.0970 C   0  0  0  0  0  0  0  0  0  0  0  0
   -7.3790   18.0490  -32.3550 C   0  0  0  0  0  0  0  0  0  0  0  0
   -8.5500   18.3250  -31.6410 C   0  0  0  0  0  0  0  0  0  0  0  0
   -9.0930   19.6120  -31.6590 C   0  0  0  0  0  0  0  0  0  0  0  0
   -8.4670   20.6260  -32.3900 C   0  0  0  0  0  0  0  0  0  0  0  0
   -7.2970   20.3540  -33.1060 C   0  0  0  0  0  0  0  0  0  0  0  0
   -3.7180   23.3240  -31.0320 C   0  0  0  0  0  0  0  0  0  0  0  0
   -2.8120   25.1211  -27.6452 H   0  0  0  0  0  0  0  0  0  0  0  0
   -2.2331   23.7432  -28.6415 H   0  0  0  0  0  0  0  0  0  0  0  0
   -1.3275   25.2945  -28.6415 H   0  0  0  0  0  0  0  0  0  0  0  0
   -5.6684   25.8776  -29.8549 H   0  0  0  0  0  0  0  0  0  0  0  0
   -7.4160   24.5536  -31.0377 H   0  0  0  0  0  0  0  0  0  0  0  0
   -6.8063   22.4468  -32.2178 H   0  0  0  0  0  0  0  0  0  0  0  0
   -3.2519   21.7832  -34.0518 H   0  0  0  0  0  0  0  0  0  0  0  0
   -2.3626   21.3261  -32.5487 H   0  0  0  0  0  0  0  0  0  0  0  0
   -3.3428   19.6256  -34.7204 H   0  0  0  0  0  0  0  0  0  0  0  0
   -2.2409   19.2302  -33.3450 H   0  0  0  0  0  0  0  0  0  0  0  0
   -3.9300   17.9200  -32.7890 H   0  0  0  0  0  0  0  0  0  0  0  0
   -4.5480   19.3300  -32.0750 H   0  0  0  0  0  0  0  0  0  0  0  0
   -5.3780   19.4772  -34.6820 H   0  0  0  0  0  0  0  0  0  0  0  0
   -5.5227   17.7293  -34.2121 H   0  0  0  0  0  0  0  0  0  0  0  0
   -6.9510   17.0359  -32.3349 H   0  0  0  0  0  0  0  0  0  0  0  0
   -9.0434   17.5282  -31.0651 H   0  0  0  0  0  0  0  0  0  0  0  0
  -10.0140   19.8277  -31.0975 H   0  0  0  0  0  0  0  0  0  0  0  0
   -8.8953   21.6391  -32.4020 H   0  0  0  0  0  0  0  0  0  0  0  0
   -6.8050   21.1547  -33.6777 H   0  0  0  0  0  0  0  0  0  0  0  0
   -2.6751   22.9742  -31.0253 H   0  0  0  0  0  0  0  0  0  0  0  0
  1  2  1  0
  2  3  1  0
  3  4  2  0
  4  5  1  0
  5  6  2  0
  6  7  1  0
  7  8  1  0
  8  9  1  0
  9 10  1  0
 10 11  1  0
 11 12  1  0
 12 13  1  0
 13 14  2  0
 14 15  1  0
 15 16  2  0
 16 17  1  0
 17 18  2  0
  7 19  2  0
 19  3  1  0
 18 13  1  0
  1 20  1  0
  1 21  1  0
  1 22  1  0
  4 23  1  0
  5 24  1  0
  6 25  1  0
  9 26  1  0
  9 27  1  0
 10 28  1  0
 10 29  1  0
 11 30  1  0
 11 31  1  0
 12 32  1  0
 12 33  1  0
 14 34  1  0
 15 35  1  0
 16 36  1  0
 17 37  1  0
 18 38  1  0
 19 39  1  0
M  CHG  1  11   1
M  END
>  <UniqueID>  (45) 
43

>  <SMILES>  (45) 
COc1cccc(OCC[NH2+]Cc2ccccc2)c1

>  <Energy>  (45) 
36.35817097546372

>  <Genealogy>  (45) 
COc1cccc(OCC[NH2+]Cc2ccccc2)c1 (protonated)
COc1cccc(OCC[NH2+]Cc2ccccc2)c1 (3D coordinates assigned)
COc1cccc(OCC[NH2+]Cc2ccccc2)c1 (optimized conformer: 36.35817097546372 kcal/mol)

>  <smiles>  (45) 
COc1cccc(OCCNCc2ccccc2)c1

>  <score_type>  (45) 
oracle

>  <origin>  (45) 
adg

>  <m_score__min__energy>  (45) 
-6.0599999999999996

>  <m_primary>  (45) 
energy

$$$$
45:0
     RDKit          3D

 26 27  0  0  0  0  0  0  0  0999 V2000
   -1.2480   25.6330  -29.2700 O   0  0  0  0  0  0  0  0  0  0  0  0
   -2.3150   24.5750  -29.2420 S   0  0  0  0  0  0  0  0  0  0  0  0
   -2.9880   24.5920  -27.8990 O   0  0  0  0  0  0  0  0  0  0  0  0
   -3.4890   24.9240  -30.4700 N   0  0  0  0  0  0  0  0  0  0  0  0
   -4.7900   24.3240  -30.5610 C   0  0  0  0  0  0  0  0  0  0  0  0
   -5.0680   23.4780  -31.6380 C   0  0  0  0  0  0  0  0  0  0  0  0
   -6.3210   22.8750  -31.7510 C   0  0  0  0  0  0  0  0  0  0  0  0
   -7.2900   23.1270  -30.7790 C   0  0  0  0  0  0  0  0  0  0  0  0
   -7.0120   23.9540  -29.7360 N   0  0  0  0  0  0  0  0  0  0  0  0
   -5.7950   24.5530  -29.6060 C   0  0  0  0  0  0  0  0  0  0  0  0
   -1.5710   23.0090  -29.5450 C   0  0  0  0  0  0  0  0  0  0  0  0
   -0.7180   22.4390  -28.5880 C   0  0  0  0  0  0  0  0  0  0  0  0
   -0.1200   21.1980  -28.8300 C   0  0  0  0  0  0  0  0  0  0  0  0
   -0.3730   20.5200  -30.0250 C   0  0  0  0  0  0  0  0  0  0  0  0
    0.2080   19.3170  -30.2580 F   0  0  0  0  0  0  0  0  0  0  0  0
   -1.2260   21.0810  -30.9810 C   0  0  0  0  0  0  0  0  0  0  0  0
   -1.8250   22.3220  -30.7410 C   0  0  0  0  0  0  0  0  0  0  0  0
   -4.2968   23.2870  -32.3987 H   0  0  0  0  0  0  0  0  0  0  0  0
   -6.5427   22.2081  -32.5972 H   0  0  0  0  0  0  0  0  0  0  0  0
   -8.2809   22.6556  -30.8567 H   0  0  0  0  0  0  0  0  0  0  0  0
   -7.7480   24.1340  -29.0170 H   0  0  0  0  0  0  0  0  0  0  0  0
   -5.5989   25.2173  -28.7515 H   0  0  0  0  0  0  0  0  0  0  0  0
   -0.5190   22.9694  -27.6451 H   0  0  0  0  0  0  0  0  0  0  0  0
    0.5503   20.7553  -28.0785 H   0  0  0  0  0  0  0  0  0  0  0  0
   -1.4257   20.5464  -31.9214 H   0  0  0  0  0  0  0  0  0  0  0  0
   -2.4976   22.7606  -31.4929 H   0  0  0  0  0  0  0  0  0  0  0  0
  1  2  2  0
  2  3  2  0
  2  4  1  0
  4  5  1  0
  5  6  2  0
  6  7  1  0
  7  8  2  0
  8  9  1  0
  9 10  2  0
  2 11  1  0
 11 12  2  0
 12 13  1  0
 13 14  2  0
 14 15  1  0
 14 16  1  0
 16 17  2  0
 10  5  1  0
 17 11  1  0
  6 18  1  0
  7 19  1  0
  8 20  1  0
  9 21  1  0
 10 22  1  0
 12 23  1  0
 13 24  1  0
 16 25  1  0
 17 26  1  0
M  CHG  2   4  -1   9   1
M  END
>  <UniqueID>  (46) 
44

>  <SMILES>  (46) 
O=S(=O)([N-]c1ccc[nH+]c1)c1ccc(F)cc1

>  <Energy>  (46) 
29.807446228797424

>  <Genealogy>  (46) 
O=S(=O)([N-]c1ccc[nH+]c1)c1ccc(F)cc1 (protonated)
O=S(=O)([N-]c1ccc[nH+]c1)c1ccc(F)cc1 (3D coordinates assigned)
O=S(=O)([N-]c1ccc[nH+]c1)c1ccc(F)cc1 (optimized conformer: 29.807446228797424 kcal/mol)

>  <smiles>  (46) 
O=S(=O)(Nc1cccnc1)c1ccc(F)cc1

>  <score_type>  (46) 
oracle

>  <origin>  (46) 
adg

>  <m_score__min__energy>  (46) 
-6.7599999999999998

>  <m_primary>  (46) 
energy

$$$$
46:0
     RDKit          3D

 42 44  0  0  0  0  0  0  0  0999 V2000
   -9.0630   23.4210  -32.3290 C   0  0  0  0  0  0  0  0  0  0  0  0
   -7.9800   22.6880  -31.6500 N   0  0  0  0  0  0  0  0  0  0  0  0
   -7.2700   23.5790  -30.7040 C   0  0  0  0  0  0  0  0  0  0  0  0
   -5.9550   24.0710  -31.3190 C   0  0  0  0  0  0  0  0  0  0  0  0
   -5.0120   22.9220  -31.5660 C   0  0  0  0  0  0  0  0  0  0  0  0
   -4.5510   22.1390  -30.4960 C   0  0  0  0  0  0  0  0  0  0  0  0
   -3.7100   21.0560  -30.7510 C   0  0  0  0  0  0  0  0  0  0  0  0
   -3.3390   20.7580  -32.0610 C   0  0  0  0  0  0  0  0  0  0  0  0
   -3.8200   21.5520  -33.1050 C   0  0  0  0  0  0  0  0  0  0  0  0
   -4.6410   22.6050  -32.8420 N   0  0  0  0  0  0  0  0  0  0  0  0
   -8.5110   21.4940  -30.9550 C   0  0  0  0  0  0  0  0  0  0  0  0
   -8.0710   20.2320  -31.6520 C   0  0  0  0  0  0  0  0  0  0  0  0
   -8.6500   19.0020  -31.3040 C   0  0  0  0  0  0  0  0  0  0  0  0
   -8.2330   17.8210  -31.9240 C   0  0  0  0  0  0  0  0  0  0  0  0
   -7.2270   17.8540  -32.9010 C   0  0  0  0  0  0  0  0  0  0  0  0
   -6.7990   16.6730  -33.5270 C   0  0  0  0  0  0  0  0  0  0  0  0
   -5.7940   16.7200  -34.4980 C   0  0  0  0  0  0  0  0  0  0  0  0
   -5.2120   17.9410  -34.8500 C   0  0  0  0  0  0  0  0  0  0  0  0
   -5.6300   19.1230  -34.2340 C   0  0  0  0  0  0  0  0  0  0  0  0
   -6.6380   19.0910  -33.2570 C   0  0  0  0  0  0  0  0  0  0  0  0
   -7.0650   20.2710  -32.6310 C   0  0  0  0  0  0  0  0  0  0  0  0
   -9.7283   23.8713  -31.5775 H   0  0  0  0  0  0  0  0  0  0  0  0
   -8.6312   24.2133  -32.9582 H   0  0  0  0  0  0  0  0  0  0  0  0
   -9.6380   22.7257  -32.9582 H   0  0  0  0  0  0  0  0  0  0  0  0
   -7.9082   24.4445  -30.4726 H   0  0  0  0  0  0  0  0  0  0  0  0
   -7.0464   23.0181  -29.7845 H   0  0  0  0  0  0  0  0  0  0  0  0
   -6.1698   24.5720  -32.2744 H   0  0  0  0  0  0  0  0  0  0  0  0
   -5.4791   24.7705  -30.6160 H   0  0  0  0  0  0  0  0  0  0  0  0
   -4.8506   22.3776  -29.4648 H   0  0  0  0  0  0  0  0  0  0  0  0
   -3.3401   20.4380  -29.9196 H   0  0  0  0  0  0  0  0  0  0  0  0
   -2.6746   19.9068  -32.2706 H   0  0  0  0  0  0  0  0  0  0  0  0
   -3.5342   21.3254  -34.1428 H   0  0  0  0  0  0  0  0  0  0  0  0
   -4.9930   23.1770  -33.6430 H   0  0  0  0  0  0  0  0  0  0  0  0
   -8.1388   21.4834  -29.9199 H   0  0  0  0  0  0  0  0  0  0  0  0
   -9.6100   21.5387  -30.9650 H   0  0  0  0  0  0  0  0  0  0  0  0
   -9.4381   18.9672  -30.5374 H   0  0  0  0  0  0  0  0  0  0  0  0
   -8.6951   16.8626  -31.6450 H   0  0  0  0  0  0  0  0  0  0  0  0
   -7.2545   15.7098  -33.2536 H   0  0  0  0  0  0  0  0  0  0  0  0
   -5.4602   15.7927  -34.9866 H   0  0  0  0  0  0  0  0  0  0  0  0
   -4.4220   17.9713  -35.6148 H   0  0  0  0  0  0  0  0  0  0  0  0
   -5.1684   20.0811  -34.5150 H   0  0  0  0  0  0  0  0  0  0  0  0
   -6.6092   21.2329  -32.9085 H   0  0  0  0  0  0  0  0  0  0  0  0
  1  2  1  0
  2  3  1  0
  3  4  1  0
  4  5  1  0
  5  6  2  0
  6  7  1  0
  7  8  2  0
  8  9  1  0
  9 10  2  0
  2 11  1  0
 11 12  1  0
 12 13  2  0
 13 14  1  0
 14 15  2  0
 15 16  1  0
 16 17  2  0
 17 18  1  0
 18 19  2  0
 19 20  1  0
 20 21  2  0
 10  5  1  0
 21 12  1  0
 20 15  1  0
  1 22  1  0
  1 23  1  0
  1 24  1  0
  3 25  1  0
  3 26  1  0
  4 27  1  0
  4 28  1  0
  6 29  1  0
  7 30  1  0
  8 31  1  0
  9 32  1  0
 10 33  1  0
 11 34  1  0
 11 35  1  0
 13 36  1  0
 14 37  1  0
 16 38  1  0
 17 39  1  0
 18 40  1  0
 19 41  1  0
 21 42  1  0
M  CHG  1  10   1
M  END
>  <UniqueID>  (47) 
45

>  <SMILES>  (47) 
CN(CCc1cccc[nH+]1)Cc1ccc2ccccc2c1

>  <Energy>  (47) 
45.559968630328406

>  <Genealogy>  (47) 
CN(CCc1cccc[nH+]1)Cc1ccc2ccccc2c1 (protonated)
CN(CCc1cccc[nH+]1)Cc1ccc2ccccc2c1 (3D coordinates assigned)
CN(CCc1cccc[nH+]1)Cc1ccc2ccccc2c1 (optimized conformer: 45.559968630328406 kcal/mol)

>  <smiles>  (47) 
CN(CCc1ccccn1)Cc1ccc2ccccc2c1

>  <score_type>  (47) 
oracle

>  <origin>  (47) 
adg

>  <m_score__min__energy>  (47) 
-7.3700000000000001

>  <m_primary>  (47) 
energy

$$$$
47:0
     RDKit          3D

 34 36  0  0  0  0  0  0  0  0999 V2000
   -4.5820   25.6730  -30.8400 O   0  0  0  0  0  0  0  0  0  0  0  0
   -5.4370   25.0150  -30.2140 N   0  0  0  0  0  0  0  0  0  0  0  0
   -6.1960   25.6570  -29.2630 O   0  0  0  0  0  0  0  0  0  0  0  0
   -5.9230   23.7990  -30.7870 C   0  0  0  0  0  0  0  0  0  0  0  0
   -7.2540   23.7930  -31.2320 C   0  0  0  0  0  0  0  0  0  0  0  0
   -7.7340   22.7650  -32.0350 C   0  0  0  0  0  0  0  0  0  0  0  0
   -6.8870   21.7400  -32.4350 C   0  0  0  0  0  0  0  0  0  0  0  0
   -5.5620   21.6960  -31.9780 C   0  0  0  0  0  0  0  0  0  0  0  0
   -4.7330   20.6530  -32.4100 C   0  0  0  0  0  0  0  0  0  0  0  0
   -3.4290   20.5550  -31.9460 C   0  0  0  0  0  0  0  0  0  0  0  0
   -2.9560   21.4570  -31.0000 C   0  0  0  0  0  0  0  0  0  0  0  0
   -3.7590   22.5080  -30.5260 C   0  0  0  0  0  0  0  0  0  0  0  0
   -3.1300   23.3840  -29.1090 S   0  0  0  0  0  0  0  0  0  0  0  0
   -2.0570   22.5620  -28.4480 O   0  0  0  0  0  0  0  0  0  0  0  0
   -4.2260   23.5750  -28.0980 O   0  0  0  0  0  0  0  0  0  0  0  0
   -2.4580   24.9280  -29.5460 N   0  0  0  0  0  0  0  0  0  0  0  0
   -1.1340   25.1250  -28.9530 C   0  0  0  0  0  0  0  0  0  0  0  0
   -1.2680   25.7260  -27.5900 C   0  0  0  0  0  0  0  0  0  0  0  0
   -2.0840   25.2500  -26.5720 C   0  0  0  0  0  0  0  0  0  0  0  0
   -2.0350   26.0350  -25.4140 C   0  0  0  0  0  0  0  0  0  0  0  0
   -1.1840   27.1270  -25.5160 C   0  0  0  0  0  0  0  0  0  0  0  0
   -0.4940   27.1160  -27.0490 S   0  0  0  0  0  0  0  0  0  0  0  0
   -5.0670   22.6940  -31.0820 C   0  0  0  0  0  0  0  0  0  0  0  0
   -7.9267   24.6133  -30.9412 H   0  0  0  0  0  0  0  0  0  0  0  0
   -8.7867   22.7635  -32.3542 H   0  0  0  0  0  0  0  0  0  0  0  0
   -7.2575   20.9581  -33.1142 H   0  0  0  0  0  0  0  0  0  0  0  0
   -5.1179   19.9073  -33.1212 H   0  0  0  0  0  0  0  0  0  0  0  0
   -2.7685   19.7623  -32.3273 H   0  0  0  0  0  0  0  0  0  0  0  0
   -1.9318   21.3456  -30.6145 H   0  0  0  0  0  0  0  0  0  0  0  0
   -0.6220   24.1546  -28.8744 H   0  0  0  0  0  0  0  0  0  0  0  0
   -0.5501   25.8044  -29.5913 H   0  0  0  0  0  0  0  0  0  0  0  0
   -2.7058   24.3475  -26.6661 H   0  0  0  0  0  0  0  0  0  0  0  0
   -2.6163   25.8079  -24.5082 H   0  0  0  0  0  0  0  0  0  0  0  0
   -0.9938   27.8716  -24.7290 H   0  0  0  0  0  0  0  0  0  0  0  0
  1  2  2  0
  2  3  1  0
  2  4  1  0
  4  5  2  0
  5  6  1  0
  6  7  2  0
  7  8  1  0
  8  9  2  0
  9 10  1  0
 10 11  2  0
 11 12  1  0
 12 13  1  0
 13 14  2  0
 13 15  2  0
 13 16  1  0
 16 17  1  0
 17 18  1  0
 18 19  2  0
 19 20  1  0
 20 21  2  0
 21 22  1  0
 12 23  2  0
 23  4  1  0
 23  8  1  0
 22 18  1  0
  5 24  1  0
  6 25  1  0
  7 26  1  0
  9 27  1  0
 10 28  1  0
 11 29  1  0
 17 30  1  0
 17 31  1  0
 19 32  1  0
 20 33  1  0
 21 34  1  0
M  CHG  3   2   1   3  -1  16  -1
M  END
>  <UniqueID>  (48) 
46

>  <SMILES>  (48) 
O=[N+]([O-])c1cccc2cccc(S(=O)(=O)[N-]Cc3cccs3)c12

>  <Energy>  (48) 
81.40097734078465

>  <Genealogy>  (48) 
O=[N+]([O-])c1cccc2cccc(S(=O)(=O)[N-]Cc3cccs3)c12 (protonated)
O=[N+]([O-])c1cccc2cccc(S(=O)(=O)[N-]Cc3cccs3)c12 (3D coordinates assigned)
O=[N+]([O-])c1cccc2cccc(S(=O)(=O)[N-]Cc3cccs3)c12 (optimized conformer: 81.40097734078465 kcal/mol)

>  <smiles>  (48) 
O=[N+]([O-])c1cccc2cccc(S(=O)(=O)NCc3cccs3)c12

>  <score_type>  (48) 
oracle

>  <origin>  (48) 
adg

>  <m_score__min__energy>  (48) 
-9.6699999999999999

>  <m_primary>  (48) 
energy

$$$$
