0:0
     RDKit          3D

 61 63  0  0  0  0  0  0  0  0999 V2000
   -5.5340   24.7920  -29.8690 C   0  0  0  0  0  0  0  0  0  0  0  0
   -4.1180   24.7090  -30.4230 C   0  0  0  0  0  0  0  0  0  0  0  0
   -3.7540   23.3060  -30.6530 N   0  0  0  0  0  0  0  0  0  0  0  0
   -3.6070   22.5520  -29.3980 C   0  0  0  0  0  0  0  0  0  0  0  0
   -2.1320   22.3490  -29.0030 C   0  0  0  0  0  0  0  0  0  0  0  0
   -1.4410   21.3300  -29.9120 C   0  0  0  0  0  0  0  0  0  0  0  0
   -2.1520   21.2210  -31.1270 O   0  0  0  0  0  0  0  0  0  0  0  0
   -1.2420   21.1750  -32.2070 C   0  0  0  0  0  0  0  0  0  0  0  0
   -1.9740   21.5180  -33.5080 C   0  0  0  0  0  0  0  0  0  0  0  0
   -3.4090   20.9550  -33.5670 C   0  0  0  0  0  0  0  0  0  0  0  0
   -4.2480   21.3660  -32.4220 N   0  0  0  0  0  0  0  0  0  0  0  0
   -5.5250   20.6640  -32.3970 C   0  0  0  0  0  0  0  0  0  0  0  0
   -5.5640   19.2570  -32.5850 C   0  0  0  0  0  0  0  0  0  0  0  0
   -6.7980   18.5790  -32.5900 C   0  0  0  0  0  0  0  0  0  0  0  0
   -7.9570   19.2330  -32.2460 N   0  0  0  0  0  0  0  0  0  0  0  0
   -9.1700   18.4500  -31.9260 C   0  0  0  0  0  0  0  0  0  0  0  0
   -7.9800   20.6100  -32.1860 C   0  0  0  0  0  0  0  0  0  0  0  0
   -9.2080   21.3170  -32.0980 C   0  0  0  0  0  0  0  0  0  0  0  0
   -9.2380   22.7020  -31.9870 C   0  0  0  0  0  0  0  0  0  0  0  0
   -8.0550   23.4220  -31.9670 C   0  0  0  0  0  0  0  0  0  0  0  0
   -6.8330   22.7670  -32.0890 C   0  0  0  0  0  0  0  0  0  0  0  0
   -6.7630   21.3560  -32.2270 C   0  0  0  0  0  0  0  0  0  0  0  0
   -6.7840   17.1020  -32.9610 C   0  0  0  0  0  0  0  0  0  0  0  0
   -5.8180   16.8430  -34.1250 C   0  0  0  0  0  0  0  0  0  0  0  0
   -4.4100   17.4350  -33.9040 C   0  0  0  0  0  0  0  0  0  0  0  0
   -4.3200   18.3870  -32.7040 C   0  0  0  0  0  0  0  0  0  0  0  0
   -5.4983   24.7899  -28.7696 H   0  0  0  0  0  0  0  0  0  0  0  0
   -6.0107   25.7196  -30.2186 H   0  0  0  0  0  0  0  0  0  0  0  0
   -6.1158   23.9264  -30.2186 H   0  0  0  0  0  0  0  0  0  0  0  0
   -4.0651   25.2602  -31.3735 H   0  0  0  0  0  0  0  0  0  0  0  0
   -3.4186   25.1508  -29.6980 H   0  0  0  0  0  0  0  0  0  0  0  0
   -2.8540   23.2690  -31.1880 H   0  0  0  0  0  0  0  0  0  0  0  0
   -4.1153   23.1033  -28.5933 H   0  0  0  0  0  0  0  0  0  0  0  0
   -4.0528   21.5580  -29.5503 H   0  0  0  0  0  0  0  0  0  0  0  0
   -1.6057   23.3118  -29.0810 H   0  0  0  0  0  0  0  0  0  0  0  0
   -2.1011   21.9672  -27.9719 H   0  0  0  0  0  0  0  0  0  0  0  0
   -0.4125   21.6613  -30.1180 H   0  0  0  0  0  0  0  0  0  0  0  0
   -1.4189   20.3503  -29.4123 H   0  0  0  0  0  0  0  0  0  0  0  0
   -0.4351   21.9032  -32.0376 H   0  0  0  0  0  0  0  0  0  0  0  0
   -0.8146   20.1643  -32.2829 H   0  0  0  0  0  0  0  0  0  0  0  0
   -2.0243   22.6128  -33.6022 H   0  0  0  0  0  0  0  0  0  0  0  0
   -1.4088   21.0568  -34.3313 H   0  0  0  0  0  0  0  0  0  0  0  0
   -3.8849   21.3097  -34.4931 H   0  0  0  0  0  0  0  0  0  0  0  0
   -3.3293   19.8584  -33.5342 H   0  0  0  0  0  0  0  0  0  0  0  0
   -3.7200   21.2980  -31.5320 H   0  0  0  0  0  0  0  0  0  0  0  0
   -4.4250   22.3930  -32.4780 H   0  0  0  0  0  0  0  0  0  0  0  0
   -9.2822   18.3776  -30.8341 H   0  0  0  0  0  0  0  0  0  0  0  0
  -10.0521   18.9496  -32.3529 H   0  0  0  0  0  0  0  0  0  0  0  0
   -9.0779   17.4404  -32.3529 H   0  0  0  0  0  0  0  0  0  0  0  0
  -10.1548   20.7573  -32.1181 H   0  0  0  0  0  0  0  0  0  0  0  0
  -10.2020   23.2268  -31.9150 H   0  0  0  0  0  0  0  0  0  0  0  0
   -8.0813   24.5159  -31.8542 H   0  0  0  0  0  0  0  0  0  0  0  0
   -5.9030   23.3544  -32.0783 H   0  0  0  0  0  0  0  0  0  0  0  0
   -6.4636   16.5138  -32.0884 H   0  0  0  0  0  0  0  0  0  0  0  0
   -7.7972   16.8060  -33.2704 H   0  0  0  0  0  0  0  0  0  0  0  0
   -5.7206   15.7557  -34.2605 H   0  0  0  0  0  0  0  0  0  0  0  0
   -6.2407   17.3393  -35.0110 H   0  0  0  0  0  0  0  0  0  0  0  0
   -3.7064   16.6052  -33.7419 H   0  0  0  0  0  0  0  0  0  0  0  0
   -4.1661   18.0248  -34.7999 H   0  0  0  0  0  0  0  0  0  0  0  0
   -4.2102   17.7932  -31.7846 H   0  0  0  0  0  0  0  0  0  0  0  0
   -3.4517   19.0460  -32.8517 H   0  0  0  0  0  0  0  0  0  0  0  0
  1  2  1  0
  2  3  1  0
  3  4  1  0
  4  5  1  0
  5  6  1  0
  6  7  1  0
  7  8  1  0
  8  9  1  0
  9 10  1  0
 10 11  1  0
 11 12  1  0
 12 13  2  0
 13 14  1  0
 14 15  2  0
 15 16  1  0
 15 17  1  0
 17 18  2  0
 18 19  1  0
 19 20  2  0
 20 21  1  0
 21 22  2  0
 14 23  1  0
 23 24  1  0
 24 25  1  0
 25 26  1  0
 22 12  1  0
 26 13  1  0
 22 17  1  0
  1 27  1  0
  1 28  1  0
  1 29  1  0
  2 30  1  0
  2 31  1  0
  3 32  1  0
  4 33  1  0
  4 34  1  0
  5 35  1  0
  5 36  1  0
  6 37  1  0
  6 38  1  0
  8 39  1  0
  8 40  1  0
  9 41  1  0
  9 42  1  0
 10 43  1  0
 10 44  1  0
 11 45  1  0
 11 46  1  0
 16 47  1  0
 16 48  1  0
 16 49  1  0
 18 50  1  0
 19 51  1  0
 20 52  1  0
 21 53  1  0
 23 54  1  0
 23 55  1  0
 24 56  1  0
 24 57  1  0
 25 58  1  0
 25 59  1  0
 26 60  1  0
 26 61  1  0
M  CHG  2  11   1  15   1
M  END
>  <UniqueID>  (1) 
1

>  <SMILES>  (1) 
CCNCCCOCCC[NH2+]c1c2c([n+](C)c3ccccc13)CCCC2

>  <Energy>  (1) 
82.71316132191788

>  <Genealogy>  (1) 
CCNCCCOCCC[NH2+]c1c2c([n+](C)c3ccccc13)CCCC2 (protonated)
CCNCCCOCCC[NH2+]c1c2c([n+](C)c3ccccc13)CCCC2 (3D coordinates assigned)
CCNCCCOCCC[NH2+]c1c2c([n+](C)c3ccccc13)CCCC2 (nonaromatic ring conformer: 82.71316132191788 kcal/mol)

>  <smiles>  (1) 
CCNCCCOCCCNc1c2c([n+](C)c3ccccc13)CCCC2

>  <score_type>  (1) 
oracle

>  <origin>  (1) 
adg

>  <m_score__min__energy>  (1) 
-8.5700000000000003

>  <m_primary>  (1) 
energy

$$$$
1:0
     RDKit          3D

 34 35  0  0  0  0  0  0  0  0999 V2000
   -4.3960   23.9250  -28.7620 C   0  0  0  0  0  0  0  0  0  0  0  0
   -3.6790   24.1630  -30.0940 C   0  0  0  0  0  0  0  0  0  0  0  0
   -4.6200   24.2880  -31.2190 N   0  0  0  0  0  0  0  0  0  0  0  0
   -5.9700   24.6920  -30.7960 C   0  0  0  0  0  0  0  0  0  0  0  0
   -7.0490   23.7970  -31.4320 C   0  0  0  0  0  0  0  0  0  0  0  0
   -6.6220   23.1810  -32.7030 N   0  0  0  0  0  0  0  0  0  0  0  0
   -6.4750   21.7410  -32.6010 C   0  0  0  0  0  0  0  0  0  0  0  0
   -7.5750   20.9140  -32.2650 C   0  0  0  0  0  0  0  0  0  0  0  0
   -9.3440   21.6000  -31.9610 Br  0  0  0  0  0  0  0  0  0  0  0  0
   -7.4030   19.5340  -32.1330 C   0  0  0  0  0  0  0  0  0  0  0  0
   -6.1580   18.9380  -32.3370 C   0  0  0  0  0  0  0  0  0  0  0  0
   -6.0390   17.0330  -32.1220 Br  0  0  0  0  0  0  0  0  0  0  0  0
   -5.0540   19.7350  -32.6970 C   0  0  0  0  0  0  0  0  0  0  0  0
   -3.7810   19.1820  -32.9280 C   0  0  0  0  0  0  0  0  0  0  0  0
   -2.7140   20.0030  -33.2910 C   0  0  0  0  0  0  0  0  0  0  0  0
   -2.9190   21.3740  -33.4230 C   0  0  0  0  0  0  0  0  0  0  0  0
   -4.1490   21.9020  -33.1950 N   0  0  0  0  0  0  0  0  0  0  0  0
   -5.2170   21.1360  -32.8330 C   0  0  0  0  0  0  0  0  0  0  0  0
   -3.7115   24.1522  -27.9314 H   0  0  0  0  0  0  0  0  0  0  0  0
   -5.2787   24.5783  -28.6989 H   0  0  0  0  0  0  0  0  0  0  0  0
   -4.7128   22.8735  -28.6989 H   0  0  0  0  0  0  0  0  0  0  0  0
   -3.0916   25.0900  -30.0191 H   0  0  0  0  0  0  0  0  0  0  0  0
   -3.0336   23.2939  -30.2894 H   0  0  0  0  0  0  0  0  0  0  0  0
   -4.6800   23.3790  -31.7350 H   0  0  0  0  0  0  0  0  0  0  0  0
   -6.0403   24.6142  -29.7010 H   0  0  0  0  0  0  0  0  0  0  0  0
   -6.1407   25.7275  -31.1254 H   0  0  0  0  0  0  0  0  0  0  0  0
   -7.3000   22.9949  -30.7223 H   0  0  0  0  0  0  0  0  0  0  0  0
   -7.9141   24.4386  -31.6555 H   0  0  0  0  0  0  0  0  0  0  0  0
   -7.2790   23.4560  -33.4660 H   0  0  0  0  0  0  0  0  0  0  0  0
   -5.6970   23.5900  -32.9720 H   0  0  0  0  0  0  0  0  0  0  0  0
   -8.2647   18.9058  -31.8633 H   0  0  0  0  0  0  0  0  0  0  0  0
   -3.6269   18.0980  -32.8218 H   0  0  0  0  0  0  0  0  0  0  0  0
   -1.7185   19.5712  -33.4716 H   0  0  0  0  0  0  0  0  0  0  0  0
   -2.0842   22.0295  -33.7121 H   0  0  0  0  0  0  0  0  0  0  0  0
  1  2  1  0
  2  3  1  0
  3  4  1  0
  4  5  1  0
  5  6  1  0
  6  7  1  0
  7  8  2  0
  8  9  1  0
  8 10  1  0
 10 11  2  0
 11 12  1  0
 11 13  1  0
 13 14  2  0
 14 15  1  0
 15 16  2  0
 16 17  1  0
 17 18  2  0
 18  7  1  0
 18 13  1  0
  1 19  1  0
  1 20  1  0
  1 21  1  0
  2 22  1  0
  2 23  1  0
  3 24  1  0
  4 25  1  0
  4 26  1  0
  5 27  1  0
  5 28  1  0
  6 29  1  0
  6 30  1  0
 10 31  1  0
 14 32  1  0
 15 33  1  0
 16 34  1  0
M  CHG  1   6   1
M  END
>  <UniqueID>  (2) 
2

>  <SMILES>  (2) 
CCNCC[NH2+]c1c(Br)cc(Br)c2cccnc12

>  <Energy>  (2) 
40.98309057604454

>  <Genealogy>  (2) 
CCNCC[NH2+]c1c(Br)cc(Br)c2cccnc12 (protonated)
CCNCC[NH2+]c1c(Br)cc(Br)c2cccnc12 (3D coordinates assigned)
CCNCC[NH2+]c1c(Br)cc(Br)c2cccnc12 (optimized conformer: 40.98309057604454 kcal/mol)

>  <smiles>  (2) 
CCNCCNc1c(Br)cc(Br)c2cccnc12

>  <score_type>  (2) 
oracle

>  <origin>  (2) 
adg

>  <m_score__min__energy>  (2) 
-7.5899999999999999

>  <m_primary>  (2) 
energy

$$$$
2:0
     RDKit          3D

 56 59  0  0  0  0  0  0  0  0999 V2000
   -2.6540   22.6480  -30.5130 C   0  0  0  0  0  0  0  0  0  0  0  0
   -3.0960   24.0460  -30.0970 C   0  0  0  0  0  0  0  0  0  0  0  0
   -4.2360   24.4630  -30.8500 O   0  0  0  0  0  0  0  0  0  0  0  0
   -5.4860   23.8230  -30.8620 C   0  0  0  0  0  0  0  0  0  0  0  0
   -6.2480   23.8860  -32.0340 C   0  0  0  0  0  0  0  0  0  0  0  0
   -7.4980   23.2650  -32.1070 C   0  0  0  0  0  0  0  0  0  0  0  0
   -8.0020   22.5600  -31.0030 C   0  0  0  0  0  0  0  0  0  0  0  0
   -9.3640   21.9190  -31.0650 C   0  0  0  0  0  0  0  0  0  0  0  0
   -9.5250   21.0580  -32.3210 C   0  0  0  0  0  0  0  0  0  0  0  0
   -9.1280   19.6670  -32.0400 N   0  0  0  0  0  0  0  0  0  0  0  0
   -7.9520   19.2060  -32.8040 C   0  0  1  0  0  0  0  0  0  0  0  0
   -6.8180   20.2760  -32.8100 C   0  0  0  0  0  0  0  0  0  0  0  0
   -5.4420   19.7430  -32.3740 C   0  0  0  0  0  0  0  0  0  0  0  0
   -5.1420   18.4060  -33.0210 C   0  0  0  0  0  0  0  0  0  0  0  0
   -6.1820   17.4560  -33.0600 C   0  0  0  0  0  0  0  0  0  0  0  0
   -5.9820   16.2160  -33.6780 C   0  0  0  0  0  0  0  0  0  0  0  0
   -4.7540   15.9190  -34.2690 C   0  0  0  0  0  0  0  0  0  0  0  0
   -3.7090   16.8410  -34.2170 C   0  0  0  0  0  0  0  0  0  0  0  0
   -3.8760   18.0780  -33.5720 C   0  0  0  0  0  0  0  0  0  0  0  0
   -2.7100   18.9830  -33.4860 C   0  0  0  0  0  0  0  0  0  0  0  0
   -1.4440   18.4970  -33.1200 C   0  0  0  0  0  0  0  0  0  0  0  0
   -0.3590   19.3740  -33.0810 C   0  0  0  0  0  0  0  0  0  0  0  0
   -0.5370   20.7160  -33.4180 C   0  0  0  0  0  0  0  0  0  0  0  0
   -1.8050   21.1620  -33.7960 C   0  0  0  0  0  0  0  0  0  0  0  0
   -2.8510   20.2940  -33.8270 N   0  0  0  0  0  0  0  0  0  0  0  0
   -7.4880   17.7860  -32.3920 C   0  0  0  0  0  0  0  0  0  0  0  0
   -7.2460   22.4990  -29.8240 C   0  0  0  0  0  0  0  0  0  0  0  0
   -5.9950   23.1200  -29.7520 C   0  0  0  0  0  0  0  0  0  0  0  0
   -2.4623   22.0418  -29.6154 H   0  0  0  0  0  0  0  0  0  0  0  0
   -3.4467   22.1759  -31.1119 H   0  0  0  0  0  0  0  0  0  0  0  0
   -1.7340   22.7174  -31.1119 H   0  0  0  0  0  0  0  0  0  0  0  0
   -3.3530   24.0396  -29.0275 H   0  0  0  0  0  0  0  0  0  0  0  0
   -2.2711   24.7480  -30.2885 H   0  0  0  0  0  0  0  0  0  0  0  0
   -5.8590   24.4301  -32.9073 H   0  0  0  0  0  0  0  0  0  0  0  0
   -8.0887   23.3290  -33.0327 H   0  0  0  0  0  0  0  0  0  0  0  0
   -9.5006   21.2842  -30.1771 H   0  0  0  0  0  0  0  0  0  0  0  0
  -10.1193   22.7181  -31.0965 H   0  0  0  0  0  0  0  0  0  0  0  0
  -10.5768   21.0776  -32.6424 H   0  0  0  0  0  0  0  0  0  0  0  0
   -8.8811   21.4608  -33.1167 H   0  0  0  0  0  0  0  0  0  0  0  0
   -8.9120   19.5860  -31.0190 H   0  0  0  0  0  0  0  0  0  0  0  0
   -8.2618   19.0953  -33.8536 H   0  0  0  0  0  0  0  0  0  0  0  0
   -6.7254   20.6741  -33.8313 H   0  0  0  0  0  0  0  0  0  0  0  0
   -7.1053   21.0435  -32.0763 H   0  0  0  0  0  0  0  0  0  0  0  0
   -4.6673   20.4661  -32.6688 H   0  0  0  0  0  0  0  0  0  0  0  0
   -5.4509   19.6075  -31.2824 H   0  0  0  0  0  0  0  0  0  0  0  0
   -6.7945   15.4747  -33.6976 H   0  0  0  0  0  0  0  0  0  0  0  0
   -4.6094   14.9545  -34.7777 H   0  0  0  0  0  0  0  0  0  0  0  0
   -2.7442   16.5973  -34.6857 H   0  0  0  0  0  0  0  0  0  0  0  0
   -1.3090   17.4352  -32.8665 H   0  0  0  0  0  0  0  0  0  0  0  0
    0.6350   19.0076  -32.7850 H   0  0  0  0  0  0  0  0  0  0  0  0
    0.3119   21.4148  -33.3863 H   0  0  0  0  0  0  0  0  0  0  0  0
   -1.9578   22.2166  -34.0690 H   0  0  0  0  0  0  0  0  0  0  0  0
   -8.2484   17.0519  -32.6967 H   0  0  0  0  0  0  0  0  0  0  0  0
   -7.3530   17.7534  -31.3008 H   0  0  0  0  0  0  0  0  0  0  0  0
   -7.6393   21.9592  -28.9499 H   0  0  0  0  0  0  0  0  0  0  0  0
   -5.4060   23.0594  -28.8250 H   0  0  0  0  0  0  0  0  0  0  0  0
  1  2  1  0
  2  3  1  0
  3  4  1  0
  4  5  2  0
  5  6  1  0
  6  7  2  0
  7  8  1  0
  8  9  1  0
  9 10  1  0
 10 11  1  0
 11 12  1  0
 12 13  1  0
 13 14  1  0
 14 15  2  0
 15 16  1  0
 16 17  2  0
 17 18  1  0
 18 19  2  0
 19 20  1  0
 20 21  2  0
 21 22  1  0
 22 23  2  0
 23 24  1  0
 24 25  2  0
 15 26  1  0
  7 27  1  0
 27 28  2  0
 28  4  1  0
 26 11  1  0
 19 14  1  0
 25 20  1  0
  1 29  1  0
  1 30  1  0
  1 31  1  0
  2 32  1  0
  2 33  1  0
  5 34  1  0
  6 35  1  0
  8 36  1  0
  8 37  1  0
  9 38  1  0
  9 39  1  0
 10 40  1  0
 11 41  1  6
 12 42  1  0
 12 43  1  0
 13 44  1  0
 13 45  1  0
 16 46  1  0
 17 47  1  0
 18 48  1  0
 21 49  1  0
 22 50  1  0
 23 51  1  0
 24 52  1  0
 26 53  1  0
 26 54  1  0
 27 55  1  0
 28 56  1  0
M  END
>  <UniqueID>  (3) 
3

>  <SMILES>  (3) 
CCOc1ccc(CCN[C@H]2CCc3c(cccc3-c3ccccn3)C2)cc1

>  <Energy>  (3) 
71.42174819490764

>  <Genealogy>  (3) 
CCOc1ccc(CCN[C@H]2CCc3c(cccc3-c3ccccn3)C2)cc1 (chirality)
CCOc1ccc(CCN[C@H]2CCc3c(cccc3-c3ccccn3)C2)cc1 (3D coordinates assigned)
CCOc1ccc(CCN[C@H]2CCc3c(cccc3-c3ccccn3)C2)cc1 (nonaromatic ring conformer: 71.42174819490764 kcal/mol)

>  <smiles>  (3) 
CCOc1ccc(CCNC2CCc3c(cccc3-c3ccccn3)C2)cc1

>  <score_type>  (3) 
oracle

>  <origin>  (3) 
adg

>  <m_score__min__energy>  (3) 
-10.720000000000001

>  <m_primary>  (3) 
energy

$$$$
3:0
     RDKit          3D

 78 81  0  0  0  0  0  0  0  0999 V2000
   -9.1590   21.9270  -31.2440 C   0  0  0  0  0  0  0  0  0  0  0  0
   -7.9340   22.3170  -30.3990 C   0  0  0  0  0  0  0  0  0  0  0  0
   -7.3310   23.6040  -30.8380 N   0  0  0  0  0  0  0  0  0  0  0  0
   -6.5620   24.2450  -29.7350 C   0  0  0  0  0  0  0  0  0  0  0  0
   -5.7750   25.4990  -30.1450 C   0  0  0  0  0  0  0  0  0  0  0  0
   -6.5210   23.4020  -32.0740 C   0  0  0  0  0  0  0  0  0  0  0  0
   -5.2580   22.5640  -31.8590 C   0  0  0  0  0  0  0  0  0  0  0  0
   -4.7700   21.9580  -33.0970 N   0  0  0  0  0  0  0  0  0  0  0  0
   -4.5380   20.5420  -33.1270 C   0  0  0  0  0  0  0  0  0  0  0  0
   -5.5990   19.6410  -33.0300 C   0  0  0  0  0  0  0  0  0  0  0  0
   -6.7920   19.9920  -32.3620 C   0  0  0  0  0  0  0  0  0  0  0  0
   -7.7470   19.0150  -32.0980 C   0  0  0  0  0  0  0  0  0  0  0  0
   -7.5730   17.7140  -32.5540 C   0  0  0  0  0  0  0  0  0  0  0  0
   -6.4420   17.3760  -33.2970 C   0  0  0  0  0  0  0  0  0  0  0  0
   -5.4230   18.3270  -33.5260 C   0  0  0  0  0  0  0  0  0  0  0  0
   -4.2400   17.9720  -34.1640 N   0  0  0  0  0  0  0  0  0  0  0  0
   -4.1980   16.7380  -34.9640 C   0  0  0  0  0  0  0  0  0  0  0  0
   -3.1190   18.7690  -33.9950 C   0  0  0  0  0  0  0  0  0  0  0  0
   -1.8180   18.3450  -34.3690 C   0  0  0  0  0  0  0  0  0  0  0  0
   -0.7050   19.1610  -34.1590 C   0  0  0  0  0  0  0  0  0  0  0  0
   -0.8390   20.3710  -33.4760 C   0  0  0  0  0  0  0  0  0  0  0  0
   -2.0990   20.7950  -33.0320 C   0  0  0  0  0  0  0  0  0  0  0  0
   -2.1690   21.8520  -32.1150 O   0  0  0  0  0  0  0  0  0  0  0  0
   -1.7460   21.6620  -30.7700 C   0  0  0  0  0  0  0  0  0  0  0  0
   -2.8740   21.9700  -29.7690 C   0  0  0  0  0  0  0  0  0  0  0  0
   -2.4420   22.3640  -28.3760 N   0  0  0  0  0  0  0  0  0  0  0  0
   -2.6010   21.2100  -27.4520 C   0  0  0  0  0  0  0  0  0  0  0  0
   -3.3480   23.4760  -27.9030 C   0  0  0  0  0  0  0  0  0  0  0  0
   -2.5950   24.6840  -27.3410 C   0  0  0  0  0  0  0  0  0  0  0  0
   -1.6600   25.2090  -28.3520 N   0  0  0  0  0  0  0  0  0  0  0  0
   -0.8760   26.3180  -27.7840 C   0  0  0  0  0  0  0  0  0  0  0  0
   -0.7790   24.1750  -28.9510 C   0  0  0  0  0  0  0  0  0  0  0  0
   -1.0020   22.7790  -28.3370 C   0  0  0  0  0  0  0  0  0  0  0  0
   -3.2500   20.0440  -33.3910 C   0  0  0  0  0  0  0  0  0  0  0  0
   -9.9938   21.6612  -30.5787 H   0  0  0  0  0  0  0  0  0  0  0  0
   -9.4520   22.7763  -31.8787 H   0  0  0  0  0  0  0  0  0  0  0  0
   -8.9071   21.0646  -31.8787 H   0  0  0  0  0  0  0  0  0  0  0  0
   -8.2451   22.4125  -29.3483 H   0  0  0  0  0  0  0  0  0  0  0  0
   -7.1753   21.5304  -30.5238 H   0  0  0  0  0  0  0  0  0  0  0  0
   -8.1070   24.2720  -31.0540 H   0  0  0  0  0  0  0  0  0  0  0  0
   -7.2708   24.5291  -28.9433 H   0  0  0  0  0  0  0  0  0  0  0  0
   -5.8177   23.5054  -29.4048 H   0  0  0  0  0  0  0  0  0  0  0  0
   -5.4400   26.0327  -29.2434 H   0  0  0  0  0  0  0  0  0  0  0  0
   -4.9000   25.2037  -30.7426 H   0  0  0  0  0  0  0  0  0  0  0  0
   -6.4215   26.1585  -30.7426 H   0  0  0  0  0  0  0  0  0  0  0  0
   -7.1497   22.8952  -32.8209 H   0  0  0  0  0  0  0  0  0  0  0  0
   -6.1906   24.3976  -32.4050 H   0  0  0  0  0  0  0  0  0  0  0  0
   -4.4698   23.2128  -31.4494 H   0  0  0  0  0  0  0  0  0  0  0  0
   -5.5121   21.7487  -31.1656 H   0  0  0  0  0  0  0  0  0  0  0  0
   -4.3570   22.5570  -33.8420 H   0  0  0  0  0  0  0  0  0  0  0  0
   -6.9659   21.0329  -32.0516 H   0  0  0  0  0  0  0  0  0  0  0  0
   -8.6480   19.2750  -31.5230 H   0  0  0  0  0  0  0  0  0  0  0  0
   -8.3297   16.9482  -32.3283 H   0  0  0  0  0  0  0  0  0  0  0  0
   -6.3428   16.3605  -33.7080 H   0  0  0  0  0  0  0  0  0  0  0  0
   -4.1684   15.8669  -34.2930 H   0  0  0  0  0  0  0  0  0  0  0  0
   -5.0947   16.6817  -35.5986 H   0  0  0  0  0  0  0  0  0  0  0  0
   -3.2995   16.7428  -35.5986 H   0  0  0  0  0  0  0  0  0  0  0  0
   -1.6839   17.3564  -34.8324 H   0  0  0  0  0  0  0  0  0  0  0  0
    0.2813   18.8493  -34.5332 H   0  0  0  0  0  0  0  0  0  0  0  0
    0.0474   20.9939  -33.2856 H   0  0  0  0  0  0  0  0  0  0  0  0
   -1.4299   20.6164  -30.6401 H   0  0  0  0  0  0  0  0  0  0  0  0
   -0.9136   22.3532  -30.5717 H   0  0  0  0  0  0  0  0  0  0  0  0
   -3.4717   22.7964  -30.1811 H   0  0  0  0  0  0  0  0  0  0  0  0
   -3.4265   21.0264  -29.6494 H   0  0  0  0  0  0  0  0  0  0  0  0
   -2.5522   21.5639  -26.4116 H   0  0  0  0  0  0  0  0  0  0  0  0
   -3.5739   20.7288  -27.6304 H   0  0  0  0  0  0  0  0  0  0  0  0
   -1.7945   20.4836  -27.6304 H   0  0  0  0  0  0  0  0  0  0  0  0
   -3.9588   23.8123  -28.7538 H   0  0  0  0  0  0  0  0  0  0  0  0
   -3.9587   23.0677  -27.0843 H   0  0  0  0  0  0  0  0  0  0  0  0
   -3.3162   25.4688  -27.0692 H   0  0  0  0  0  0  0  0  0  0  0  0
   -2.0281   24.3743  -26.4506 H   0  0  0  0  0  0  0  0  0  0  0  0
   -0.9117   26.2675  -26.6857 H   0  0  0  0  0  0  0  0  0  0  0  0
    0.1682   26.2391  -28.1209 H   0  0  0  0  0  0  0  0  0  0  0  0
   -1.2986   27.2761  -28.1209 H   0  0  0  0  0  0  0  0  0  0  0  0
   -0.9820   24.1216  -30.0308 H   0  0  0  0  0  0  0  0  0  0  0  0
    0.2622   24.4660  -28.7481 H   0  0  0  0  0  0  0  0  0  0  0  0
   -0.4070   22.0454  -28.9007 H   0  0  0  0  0  0  0  0  0  0  0  0
   -0.6925   22.8218  -27.2823 H   0  0  0  0  0  0  0  0  0  0  0  0
  1  2  1  0
  2  3  1  0
  3  4  1  0
  4  5  1  0
  3  6  1  0
  6  7  1  0
  7  8  1  0
  8  9  1  0
  9 10  2  0
 10 11  1  0
 11 12  2  0
 12 13  1  0
 13 14  2  0
 14 15  1  0
 15 16  2  0
 16 17  1  0
 16 18  1  0
 18 19  2  0
 19 20  1  0
 20 21  2  0
 21 22  1  0
 22 23  1  0
 23 24  1  0
 24 25  1  0
 25 26  1  0
 26 27  1  0
 26 28  1  0
 28 29  1  0
 29 30  1  0
 30 31  1  0
 30 32  1  0
 32 33  1  0
 22 34  2  0
 34  9  1  0
 15 10  1  0
 34 18  1  0
 33 26  1  0
  1 35  1  0
  1 36  1  0
  1 37  1  0
  2 38  1  0
  2 39  1  0
  3 40  1  0
  4 41  1  0
  4 42  1  0
  5 43  1  0
  5 44  1  0
  5 45  1  0
  6 46  1  0
  6 47  1  0
  7 48  1  0
  7 49  1  0
  8 50  1  0
 11 51  1  0
 12 52  1  0
 13 53  1  0
 14 54  1  0
 17 55  1  0
 17 56  1  0
 17 57  1  0
 19 58  1  0
 20 59  1  0
 21 60  1  0
 24 61  1  0
 24 62  1  0
 25 63  1  0
 25 64  1  0
 27 65  1  0
 27 66  1  0
 27 67  1  0
 28 68  1  0
 28 69  1  0
 29 70  1  0
 29 71  1  0
 31 72  1  0
 31 73  1  0
 31 74  1  0
 32 75  1  0
 32 76  1  0
 33 77  1  0
 33 78  1  0
M  CHG  3   3   1  16   1  26   1
M  END
>  <UniqueID>  (4) 
4

>  <SMILES>  (4) 
CC[NH+](CC)CCNc1c2ccccc2[n+](C)c2cccc(OCC[N+]3(C)CCN(C)CC3)c12

>  <Energy>  (4) 
152.25017435724564

>  <Genealogy>  (4) 
CC[NH+](CC)CCNc1c2ccccc2[n+](C)c2cccc(OCC[N+]3(C)CCN(C)CC3)c12 (protonated)
CC[NH+](CC)CCNc1c2ccccc2[n+](C)c2cccc(OCC[N+]3(C)CCN(C)CC3)c12 (3D coordinates assigned)
CC[NH+](CC)CCNc1c2ccccc2[n+](C)c2cccc(OCC[N+]3(C)CCN(C)CC3)c12 (nonaromatic ring conformer: 152.25017435724564 kcal/mol)

>  <smiles>  (4) 
CCN(CC)CCNc1c2ccccc2[n+](C)c2cccc(OCC[N+]3(C)CCN(C)CC3)c12

>  <score_type>  (4) 
oracle

>  <origin>  (4) 
adg

>  <m_score__min__energy>  (4) 
-7.4699999999999998

>  <m_primary>  (4) 
energy

$$$$
4:0
     RDKit          3D

 60 62  0  0  0  0  0  0  0  0999 V2000
   -6.0760   25.8780  -29.8190 C   0  0  0  0  0  0  0  0  0  0  0  0
   -5.2110   25.1570  -30.8430 C   0  0  0  0  0  0  0  0  0  0  0  0
   -3.8530   25.2970  -30.4820 O   0  0  0  0  0  0  0  0  0  0  0  0
   -3.5600   24.5210  -29.3340 C   0  0  0  0  0  0  0  0  0  0  0  0
   -4.5020   23.3110  -29.2650 C   0  0  0  0  0  0  0  0  0  0  0  0
   -3.7410   21.9810  -29.3250 C   0  0  0  0  0  0  0  0  0  0  0  0
   -3.8670   21.3710  -30.6550 N   0  0  0  0  0  0  0  0  0  0  0  0
   -3.3910   22.2960  -31.6880 C   0  0  0  0  0  0  0  0  0  0  0  0
   -3.1910   21.5480  -33.0050 C   0  0  0  0  0  0  0  0  0  0  0  0
   -4.4790   21.1320  -33.5580 N   0  0  0  0  0  0  0  0  0  0  0  0
   -4.9350   19.7760  -33.4080 C   0  0  0  0  0  0  0  0  0  0  0  0
   -4.0920   18.7130  -33.7850 C   0  0  0  0  0  0  0  0  0  0  0  0
   -2.7480   18.9460  -34.1560 C   0  0  0  0  0  0  0  0  0  0  0  0
   -1.9060   17.8860  -34.4820 C   0  0  0  0  0  0  0  0  0  0  0  0
   -2.3800   16.5800  -34.4390 C   0  0  0  0  0  0  0  0  0  0  0  0
   -3.7100   16.3290  -34.1020 C   0  0  0  0  0  0  0  0  0  0  0  0
   -4.6040   17.3900  -33.8060 C   0  0  0  0  0  0  0  0  0  0  0  0
   -5.9410   17.1620  -33.5500 N   0  0  0  0  0  0  0  0  0  0  0  0
   -6.5480   15.8580  -33.9050 C   0  0  0  0  0  0  0  0  0  0  0  0
   -6.7160   18.1570  -32.9830 C   0  0  0  0  0  0  0  0  0  0  0  0
   -7.9980   17.8740  -32.4560 C   0  0  0  0  0  0  0  0  0  0  0  0
   -8.7940   18.8770  -31.9190 C   0  0  0  0  0  0  0  0  0  0  0  0
   -8.3260   20.1810  -31.8470 C   0  0  0  0  0  0  0  0  0  0  0  0
   -7.0370   20.5080  -32.3030 C   0  0  0  0  0  0  0  0  0  0  0  0
   -6.5250   21.8080  -32.1310 O   0  0  0  0  0  0  0  0  0  0  0  0
   -7.2500   22.9560  -31.6830 C   0  0  0  0  0  0  0  0  0  0  0  0
   -7.6070   22.8250  -30.2040 C   0  0  0  0  0  0  0  0  0  0  0  0
   -6.2290   19.4960  -32.9030 C   0  0  0  0  0  0  0  0  0  0  0  0
   -5.7484   25.6050  -28.8050 H   0  0  0  0  0  0  0  0  0  0  0  0
   -5.9773   26.9650  -29.9560 H   0  0  0  0  0  0  0  0  0  0  0  0
   -7.1274   25.5852  -29.9560 H   0  0  0  0  0  0  0  0  0  0  0  0
   -5.4781   24.0902  -30.8648 H   0  0  0  0  0  0  0  0  0  0  0  0
   -5.3761   25.5925  -31.8396 H   0  0  0  0  0  0  0  0  0  0  0  0
   -2.5189   24.1698  -29.3875 H   0  0  0  0  0  0  0  0  0  0  0  0
   -3.6990   25.1391  -28.4347 H   0  0  0  0  0  0  0  0  0  0  0  0
   -5.0660   23.3543  -28.3216 H   0  0  0  0  0  0  0  0  0  0  0  0
   -5.1737   23.3556  -30.1350 H   0  0  0  0  0  0  0  0  0  0  0  0
   -2.6776   22.1633  -29.1105 H   0  0  0  0  0  0  0  0  0  0  0  0
   -4.1683   21.2948  -28.5790 H   0  0  0  0  0  0  0  0  0  0  0  0
   -4.8840   21.1920  -30.8300 H   0  0  0  0  0  0  0  0  0  0  0  0
   -4.1331   23.0952  -31.8317 H   0  0  0  0  0  0  0  0  0  0  0  0
   -2.4321   22.7311  -31.3699 H   0  0  0  0  0  0  0  0  0  0  0  0
   -2.6850   22.2093  -33.7238 H   0  0  0  0  0  0  0  0  0  0  0  0
   -2.5789   20.6536  -32.8169 H   0  0  0  0  0  0  0  0  0  0  0  0
   -5.1650   21.8730  -33.8230 H   0  0  0  0  0  0  0  0  0  0  0  0
   -2.3631   19.9760  -34.1875 H   0  0  0  0  0  0  0  0  0  0  0  0
   -0.8638   18.0825  -34.7741 H   0  0  0  0  0  0  0  0  0  0  0  0
   -1.7051   15.7430  -34.6711 H   0  0  0  0  0  0  0  0  0  0  0  0
   -4.0718   15.2909  -34.0651 H   0  0  0  0  0  0  0  0  0  0  0  0
   -6.8031   15.3100  -32.9860 H   0  0  0  0  0  0  0  0  0  0  0  0
   -7.4600   16.0269  -34.4963 H   0  0  0  0  0  0  0  0  0  0  0  0
   -5.8315   15.2689  -34.4963 H   0  0  0  0  0  0  0  0  0  0  0  0
   -8.3714   16.8394  -32.4720 H   0  0  0  0  0  0  0  0  0  0  0  0
   -9.8014   18.6363  -31.5486 H   0  0  0  0  0  0  0  0  0  0  0  0
   -8.9707   20.9679  -31.4284 H   0  0  0  0  0  0  0  0  0  0  0  0
   -6.6303   23.8534  -31.8269 H   0  0  0  0  0  0  0  0  0  0  0  0
   -8.1795   23.0370  -32.2656 H   0  0  0  0  0  0  0  0  0  0  0  0
   -6.7498   23.1396  -29.5906 H   0  0  0  0  0  0  0  0  0  0  0  0
   -8.4736   23.4637  -29.9780 H   0  0  0  0  0  0  0  0  0  0  0  0
   -7.8548   21.7774  -29.9780 H   0  0  0  0  0  0  0  0  0  0  0  0
  1  2  1  0
  2  3  1  0
  3  4  1  0
  4  5  1  0
  5  6  1  0
  6  7  1  0
  7  8  1  0
  8  9  1  0
  9 10  1  0
 10 11  1  0
 11 12  2  0
 12 13  1  0
 13 14  2  0
 14 15  1  0
 15 16  2  0
 16 17  1  0
 17 18  2  0
 18 19  1  0
 18 20  1  0
 20 21  2  0
 21 22  1  0
 22 23  2  0
 23 24  1  0
 24 25  1  0
 25 26  1  0
 26 27  1  0
 24 28  2  0
 28 11  1  0
 17 12  1  0
 28 20  1  0
  1 29  1  0
  1 30  1  0
  1 31  1  0
  2 32  1  0
  2 33  1  0
  4 34  1  0
  4 35  1  0
  5 36  1  0
  5 37  1  0
  6 38  1  0
  6 39  1  0
  7 40  1  0
  8 41  1  0
  8 42  1  0
  9 43  1  0
  9 44  1  0
 10 45  1  0
 13 46  1  0
 14 47  1  0
 15 48  1  0
 16 49  1  0
 19 50  1  0
 19 51  1  0
 19 52  1  0
 21 53  1  0
 22 54  1  0
 23 55  1  0
 26 56  1  0
 26 57  1  0
 27 58  1  0
 27 59  1  0
 27 60  1  0
M  CHG  1  18   1
M  END
>  <UniqueID>  (5) 
5

>  <SMILES>  (5) 
CCOCCCNCCNc1c2ccccc2[n+](C)c2cccc(OCC)c12

>  <Energy>  (5) 
79.83631167947932

>  <Genealogy>  (5) 
CCOCCCNCCNc1c2ccccc2[n+](C)c2cccc(OCC)c12 (3D coordinates assigned)
CCOCCCNCCNc1c2ccccc2[n+](C)c2cccc(OCC)c12 (optimized conformer: 79.83631167947932 kcal/mol)

>  <smiles>  (5) 
CCOCCCNCCNc1c2ccccc2[n+](C)c2cccc(OCC)c12

>  <score_type>  (5) 
oracle

>  <origin>  (5) 
adg

>  <m_score__min__energy>  (5) 
-8.9299999999999997

>  <m_primary>  (5) 
energy

$$$$
5:0
     RDKit          3D

 29 28  0  0  0  0  0  0  0  0999 V2000
   -5.5100   20.2990  -32.5260 H   0  0  0  0  0  0  0  0  0  0  0  0
   -5.2470   21.1240  -31.9470 N   0  0  0  0  0  0  0  0  0  0  0  0
   -4.3500   21.0580  -31.4150 H   0  0  0  0  0  0  0  0  0  0  0  0
   -6.0610   22.2990  -31.8280 C   0  0  0  0  0  0  0  0  0  0  0  0
   -5.5990   23.3500  -30.9530 N   0  0  0  0  0  0  0  0  0  0  0  0
   -4.6320   23.2710  -30.5670 H   0  0  0  0  0  0  0  0  0  0  0  0
   -6.3840   24.5170  -30.5390 C   0  0  0  0  0  0  0  0  0  0  0  0
   -7.1297   24.7408  -31.3160 H   0  0  0  0  0  0  0  0  0  0  0  0
   -6.8752   24.2828  -29.5830 H   0  0  0  0  0  0  0  0  0  0  0  0
   -5.4920   25.7460  -30.3350 C   0  0  0  0  0  0  0  0  0  0  0  0
   -5.8084   26.5414  -31.0258 H   0  0  0  0  0  0  0  0  0  0  0  0
   -5.5891   26.0867  -29.2936 H   0  0  0  0  0  0  0  0  0  0  0  0
   -4.0940   25.4130  -30.5940 N   0  0  0  0  0  0  0  0  0  0  0  0
   -3.4940   26.0250  -29.9940 H   0  0  0  0  0  0  0  0  0  0  0  0
   -3.8830   25.6750  -31.5840 H   0  0  0  0  0  0  0  0  0  0  0  0
   -7.1810   22.4250  -32.4990 N   0  0  0  0  0  0  0  0  0  0  0  0
   -7.1880   22.2840  -33.5320 H   0  0  0  0  0  0  0  0  0  0  0  0
   -8.4840   22.7570  -31.9120 C   0  0  0  0  0  0  0  0  0  0  0  0
   -8.9266   23.5934  -32.4727 H   0  0  0  0  0  0  0  0  0  0  0  0
   -8.3294   23.0324  -30.8583 H   0  0  0  0  0  0  0  0  0  0  0  0
   -9.4410   21.5600  -31.9630 C   0  0  0  0  0  0  0  0  0  0  0  0
  -10.1262   21.6831  -32.8147 H   0  0  0  0  0  0  0  0  0  0  0  0
  -10.0038   21.5204  -31.0187 H   0  0  0  0  0  0  0  0  0  0  0  0
   -8.7010   20.3020  -32.1200 C   0  0  0  0  0  0  0  0  0  0  0  0
   -8.0930   19.2700  -32.2540 C   0  0  0  0  0  0  0  0  0  0  0  0
   -7.3540   18.0180  -32.4190 C   0  0  0  0  0  0  0  0  0  0  0  0
   -7.1094   17.6035  -31.4299 H   0  0  0  0  0  0  0  0  0  0  0  0
   -7.9720   17.2981  -32.9756 H   0  0  0  0  0  0  0  0  0  0  0  0
   -6.4251   18.2111  -32.9756 H   0  0  0  0  0  0  0  0  0  0  0  0
  1  2  1  0
  2  3  1  0
  2  4  1  0
  4  5  1  0
  5  6  1  0
  5  7  1  0
  7  8  1  0
  7  9  1  0
  7 10  1  0
 10 11  1  0
 10 12  1  0
 10 13  1  0
 13 14  1  0
 13 15  1  0
  4 16  2  0
 16 17  1  0
 16 18  1  0
 18 19  1  0
 18 20  1  0
 18 21  1  0
 21 22  1  0
 21 23  1  0
 21 24  1  0
 24 25  3  0
 25 26  1  0
 26 27  1  0
 26 28  1  0
 26 29  1  0
M  CHG  1  16   1
M  END
>  <UniqueID>  (6) 
6

>  <SMILES>  (6) 
CC#CCC/[NH+]=C(\N)NCCN

>  <Energy>  (6) 
12.89828087735677

>  <Genealogy>  (6) 
CC#CCC[NH+]=C(N)NCCN (protonated)
CC#CCC/[NH+]=C(\N)NCCN (cis-trans isomerization)
CC#CCC/[NH+]=C(\N)NCCN (3D coordinates assigned)
CC#CCC/[NH+]=C(\N)NCCN (optimized conformer: 12.89828087735677 kcal/mol)

>  <smiles>  (6) 
CC#CCCN=C(N)NCCN

>  <score_type>  (6) 
oracle

>  <origin>  (6) 
adg

>  <m_score__min__energy>  (6) 
-4.7199999999999998

>  <m_primary>  (6) 
energy

$$$$
6:0
     RDKit          3D

 80 83  0  0  0  0  0  0  0  0999 V2000
   -5.5150   25.4540  -30.2600 C   0  0  0  0  0  0  0  0  0  0  0  0
   -4.1160   25.2740  -30.4730 O   0  0  0  0  0  0  0  0  0  0  0  0
   -3.4720   24.0290  -30.5480 C   0  0  0  0  0  0  0  0  0  0  0  0
   -3.8350   23.0540  -31.4910 C   0  0  0  0  0  0  0  0  0  0  0  0
   -3.1580   21.8140  -31.5710 C   0  0  0  0  0  0  0  0  0  0  0  0
   -3.4940   20.8410  -32.5490 C   0  0  0  0  0  0  0  0  0  0  0  0
   -4.6930   20.9770  -33.3630 N   0  0  0  0  0  0  0  0  0  0  0  0
   -5.9120   20.9150  -32.5330 C   0  0  0  0  0  0  0  0  0  0  0  0
   -6.5860   19.5220  -32.5510 C   0  0  0  0  0  0  0  0  0  0  0  0
   -5.8280   18.4360  -33.2180 N   0  0  0  0  0  0  0  0  0  0  0  0
   -6.0890   18.3090  -34.6590 C   0  0  0  0  0  0  0  0  0  0  0  0
   -5.8940   17.1360  -32.5300 C   0  0  0  0  0  0  0  0  0  0  0  0
   -2.6120   19.7460  -32.7430 C   0  0  0  0  0  0  0  0  0  0  0  0
   -2.7490   18.8700  -33.8460 C   0  0  0  0  0  0  0  0  0  0  0  0
   -1.8570   17.8170  -34.0430 C   0  0  0  0  0  0  0  0  0  0  0  0
   -0.8000   17.6270  -33.1650 C   0  0  0  0  0  0  0  0  0  0  0  0
   -0.6390   18.4750  -32.0720 C   0  0  0  0  0  0  0  0  0  0  0  0
   -1.5510   19.5310  -31.8210 C   0  0  0  0  0  0  0  0  0  0  0  0
   -1.4130   20.3520  -30.7200 N   0  0  0  0  0  0  0  0  0  0  0  0
   -0.5300   19.9510  -29.6020 C   0  0  0  0  0  0  0  0  0  0  0  0
   -2.0960   21.5510  -30.6640 C   0  0  0  0  0  0  0  0  0  0  0  0
   -1.7430   22.5530  -29.7280 C   0  0  0  0  0  0  0  0  0  0  0  0
   -2.4360   23.7690  -29.6550 C   0  0  0  0  0  0  0  0  0  0  0  0
   -2.0790   24.7610  -28.7320 O   0  0  0  0  0  0  0  0  0  0  0  0
   -2.5950   24.8500  -27.4030 C   0  0  0  0  0  0  0  0  0  0  0  0
   -1.5640   24.3310  -26.3730 C   0  0  0  0  0  0  0  0  0  0  0  0
   -0.2600   25.0740  -26.2820 N   0  0  0  0  0  0  0  0  0  0  0  0
    0.6680   24.6120  -27.3510 C   0  0  0  0  0  0  0  0  0  0  0  0
   -0.4560   26.5550  -26.4190 C   0  0  0  0  0  0  0  0  0  0  0  0
   -0.7500   27.2350  -25.0700 C   0  0  0  0  0  0  0  0  0  0  0  0
    0.4080   27.1210  -24.1250 N   0  0  0  0  0  0  0  0  0  0  0  0
    1.2890   28.3080  -24.2760 C   0  0  0  0  0  0  0  0  0  0  0  0
   -0.1040   27.1110  -22.7330 C   0  0  0  0  0  0  0  0  0  0  0  0
    1.2130   25.8830  -24.3760 C   0  0  0  0  0  0  0  0  0  0  0  0
    0.3540   24.7370  -24.9500 C   0  0  0  0  0  0  0  0  0  0  0  0
   -5.7210   25.4805  -29.1798 H   0  0  0  0  0  0  0  0  0  0  0  0
   -5.8368   26.4009  -30.7180 H   0  0  0  0  0  0  0  0  0  0  0  0
   -6.0660   24.6193  -30.7180 H   0  0  0  0  0  0  0  0  0  0  0  0
   -4.6648   23.2588  -32.1835 H   0  0  0  0  0  0  0  0  0  0  0  0
   -4.6560   21.8650  -33.9120 H   0  0  0  0  0  0  0  0  0  0  0  0
   -4.7130   20.2310  -34.0910 H   0  0  0  0  0  0  0  0  0  0  0  0
   -5.6422   21.1604  -31.4952 H   0  0  0  0  0  0  0  0  0  0  0  0
   -6.6317   21.6340  -32.9514 H   0  0  0  0  0  0  0  0  0  0  0  0
   -6.7582   19.2191  -31.5076 H   0  0  0  0  0  0  0  0  0  0  0  0
   -7.5040   19.6470  -33.1439 H   0  0  0  0  0  0  0  0  0  0  0  0
   -7.0683   17.8325  -34.8137 H   0  0  0  0  0  0  0  0  0  0  0  0
   -6.0900   19.3073  -35.1208 H   0  0  0  0  0  0  0  0  0  0  0  0
   -5.3040   17.6921  -35.1208 H   0  0  0  0  0  0  0  0  0  0  0  0
   -5.8859   17.2963  -31.4418 H   0  0  0  0  0  0  0  0  0  0  0  0
   -6.8197   16.6158  -32.8171 H   0  0  0  0  0  0  0  0  0  0  0  0
   -5.0257   16.5247  -32.8171 H   0  0  0  0  0  0  0  0  0  0  0  0
   -3.5724   19.0224  -34.5592 H   0  0  0  0  0  0  0  0  0  0  0  0
   -1.9915   17.1357  -34.8960 H   0  0  0  0  0  0  0  0  0  0  0  0
   -0.0880   16.8054  -33.3323 H   0  0  0  0  0  0  0  0  0  0  0  0
    0.2113   18.3226  -31.3910 H   0  0  0  0  0  0  0  0  0  0  0  0
   -1.0246   20.1756  -28.6455 H   0  0  0  0  0  0  0  0  0  0  0  0
   -0.3260   18.8719  -29.6648 H   0  0  0  0  0  0  0  0  0  0  0  0
    0.4168   20.5075  -29.6648 H   0  0  0  0  0  0  0  0  0  0  0  0
   -0.9034   22.3725  -29.0406 H   0  0  0  0  0  0  0  0  0  0  0  0
   -2.8308   25.9006  -27.1781 H   0  0  0  0  0  0  0  0  0  0  0  0
   -3.5007   24.2294  -27.3360 H   0  0  0  0  0  0  0  0  0  0  0  0
   -2.0377   24.3684  -25.3809 H   0  0  0  0  0  0  0  0  0  0  0  0
   -1.2955   23.3221  -26.7195 H   0  0  0  0  0  0  0  0  0  0  0  0
    1.5630   24.1664  -26.8922 H   0  0  0  0  0  0  0  0  0  0  0  0
    0.1630   23.8601  -27.9752 H   0  0  0  0  0  0  0  0  0  0  0  0
    0.9635   25.4682  -27.9752 H   0  0  0  0  0  0  0  0  0  0  0  0
    0.4583   26.9945  -26.8444 H   0  0  0  0  0  0  0  0  0  0  0  0
   -1.3245   26.7193  -27.0738 H   0  0  0  0  0  0  0  0  0  0  0  0
   -0.9618   28.2998  -25.2467 H   0  0  0  0  0  0  0  0  0  0  0  0
   -1.6144   26.7303  -24.6139 H   0  0  0  0  0  0  0  0  0  0  0  0
    1.5692   28.6855  -23.2815 H   0  0  0  0  0  0  0  0  0  0  0  0
    2.1962   28.0233  -24.8291 H   0  0  0  0  0  0  0  0  0  0  0  0
    0.7538   29.0939  -24.8291 H   0  0  0  0  0  0  0  0  0  0  0  0
    0.7426   27.1275  -22.0308 H   0  0  0  0  0  0  0  0  0  0  0  0
   -0.7347   27.9970  -22.5679 H   0  0  0  0  0  0  0  0  0  0  0  0
   -0.6996   26.2011  -22.5679 H   0  0  0  0  0  0  0  0  0  0  0  0
    2.0130   26.1197  -25.0929 H   0  0  0  0  0  0  0  0  0  0  0  0
    1.6255   25.5469  -23.4133 H   0  0  0  0  0  0  0  0  0  0  0  0
    0.9910   23.8485  -25.0722 H   0  0  0  0  0  0  0  0  0  0  0  0
   -0.4698   24.5571  -24.2436 H   0  0  0  0  0  0  0  0  0  0  0  0
  1  2  1  0
  2  3  1  0
  3  4  2  0
  4  5  1  0
  5  6  2  0
  6  7  1  0
  7  8  1  0
  8  9  1  0
  9 10  1  0
 10 11  1  0
 10 12  1  0
  6 13  1  0
 13 14  2  0
 14 15  1  0
 15 16  2  0
 16 17  1  0
 17 18  2  0
 18 19  1  0
 19 20  1  0
 19 21  2  0
 21 22  1  0
 22 23  2  0
 23 24  1  0
 24 25  1  0
 25 26  1  0
 26 27  1  0
 27 28  1  0
 27 29  1  0
 29 30  1  0
 30 31  1  0
 31 32  1  0
 31 33  1  0
 31 34  1  0
 34 35  1  0
 23  3  1  0
 35 27  1  0
 21  5  1  0
 18 13  1  0
  1 36  1  0
  1 37  1  0
  1 38  1  0
  4 39  1  0
  7 40  1  0
  7 41  1  0
  8 42  1  0
  8 43  1  0
  9 44  1  0
  9 45  1  0
 11 46  1  0
 11 47  1  0
 11 48  1  0
 12 49  1  0
 12 50  1  0
 12 51  1  0
 14 52  1  0
 15 53  1  0
 16 54  1  0
 17 55  1  0
 20 56  1  0
 20 57  1  0
 20 58  1  0
 22 59  1  0
 25 60  1  0
 25 61  1  0
 26 62  1  0
 26 63  1  0
 28 64  1  0
 28 65  1  0
 28 66  1  0
 29 67  1  0
 29 68  1  0
 30 69  1  0
 30 70  1  0
 32 71  1  0
 32 72  1  0
 32 73  1  0
 33 74  1  0
 33 75  1  0
 33 76  1  0
 34 77  1  0
 34 78  1  0
 35 79  1  0
 35 80  1  0
M  CHG  4   7   1  19   1  27   1  31   1
M  END
>  <UniqueID>  (7) 
7

>  <SMILES>  (7) 
COc1cc2c([NH2+]CCN(C)C)c3ccccc3[n+](C)c2cc1OCC[N+]1(C)CC[N+](C)(C)CC1

>  <Energy>  (7) 
145.43457944125475

>  <Genealogy>  (7) 
COc1cc2c([NH2+]CCN(C)C)c3ccccc3[n+](C)c2cc1OCC[N+]1(C)CC[N+](C)(C)CC1 (protonated)
COc1cc2c([NH2+]CCN(C)C)c3ccccc3[n+](C)c2cc1OCC[N+]1(C)CC[N+](C)(C)CC1 (3D coordinates assigned)
COc1cc2c([NH2+]CCN(C)C)c3ccccc3[n+](C)c2cc1OCC[N+]1(C)CC[N+](C)(C)CC1 (nonaromatic ring conformer: 145.43457944125475 kcal/mol)

>  <smiles>  (7) 
COc1cc2c(NCCN(C)C)c3ccccc3[n+](C)c2cc1OCC[N+]1(C)CC[N+](C)(C)CC1

>  <score_type>  (7) 
oracle

>  <origin>  (7) 
adg

>  <m_score__min__energy>  (7) 
-7.5

>  <m_primary>  (7) 
energy

$$$$
7:0
     RDKit          3D

 37 39  0  0  0  0  0  0  0  0999 V2000
   -4.4230   14.9000  -32.7740 C   0  0  0  0  0  0  0  0  0  0  0  0
   -4.3630   15.6500  -34.1120 C   0  0  0  0  0  0  0  0  0  0  0  0
   -5.4920   16.5810  -34.3280 N   0  0  0  0  0  0  0  0  0  0  0  0
   -5.0770   17.8930  -34.8770 C   0  0  0  0  0  0  0  0  0  0  0  0
   -6.0990   18.9940  -34.5890 C   0  0  0  0  0  0  0  0  0  0  0  0
   -6.3220   19.0710  -33.1450 N   0  0  0  0  0  0  0  0  0  0  0  0
   -6.5780   20.3390  -32.5280 C   0  0  0  0  0  0  0  0  0  0  0  0
   -7.8320   20.6820  -32.1740 C   0  0  0  0  0  0  0  0  0  0  0  0
   -9.1750   19.5740  -32.4540 Cl  0  0  0  0  0  0  0  0  0  0  0  0
   -8.1070   21.9890  -31.5360 C   0  0  0  0  0  0  0  0  0  0  0  0
   -9.2860   22.2940  -31.2130 O   0  0  0  0  0  0  0  0  0  0  0  0
   -6.9950   22.9310  -31.2790 C   0  0  0  0  0  0  0  0  0  0  0  0
   -7.2060   24.1820  -30.6770 C   0  0  0  0  0  0  0  0  0  0  0  0
   -6.1260   25.0380  -30.4550 C   0  0  0  0  0  0  0  0  0  0  0  0
   -4.8440   24.6380  -30.8360 C   0  0  0  0  0  0  0  0  0  0  0  0
   -4.6530   23.4250  -31.4180 N   0  0  0  0  0  0  0  0  0  0  0  0
   -5.6880   22.5690  -31.6470 C   0  0  0  0  0  0  0  0  0  0  0  0
   -5.4470   21.2610  -32.2810 C   0  0  0  0  0  0  0  0  0  0  0  0
   -4.2780   20.9280  -32.6150 O   0  0  0  0  0  0  0  0  0  0  0  0
   -6.3800   17.8490  -32.3390 C   0  0  0  0  0  0  0  0  0  0  0  0
   -6.4940   16.6040  -33.2340 C   0  0  0  0  0  0  0  0  0  0  0  0
   -4.3652   15.6219  -31.9461 H   0  0  0  0  0  0  0  0  0  0  0  0
   -5.3687   14.3419  -32.7086 H   0  0  0  0  0  0  0  0  0  0  0  0
   -3.5781   14.1987  -32.7086 H   0  0  0  0  0  0  0  0  0  0  0  0
   -3.4271   16.2271  -34.1440 H   0  0  0  0  0  0  0  0  0  0  0  0
   -4.4183   14.8911  -34.9064 H   0  0  0  0  0  0  0  0  0  0  0  0
   -4.1150   18.1768  -34.4254 H   0  0  0  0  0  0  0  0  0  0  0  0
   -4.9940   17.7891  -35.9689 H   0  0  0  0  0  0  0  0  0  0  0  0
   -5.7156   19.9579  -34.9549 H   0  0  0  0  0  0  0  0  0  0  0  0
   -7.0460   18.7649  -35.0996 H   0  0  0  0  0  0  0  0  0  0  0  0
   -8.2206   24.4868  -30.3809 H   0  0  0  0  0  0  0  0  0  0  0  0
   -6.2838   26.0194  -29.9838 H   0  0  0  0  0  0  0  0  0  0  0  0
   -3.9869   25.3059  -30.6648 H   0  0  0  0  0  0  0  0  0  0  0  0
   -5.4650   17.7739  -31.7330 H   0  0  0  0  0  0  0  0  0  0  0  0
   -7.2679   17.8979  -31.6915 H   0  0  0  0  0  0  0  0  0  0  0  0
   -6.3515   15.7096  -32.6097 H   0  0  0  0  0  0  0  0  0  0  0  0
   -7.4897   16.6254  -33.7010 H   0  0  0  0  0  0  0  0  0  0  0  0
  1  2  1  0
  2  3  1  0
  3  4  1  0
  4  5  1  0
  5  6  1  0
  6  7  1  0
  7  8  2  0
  8  9  1  0
  8 10  1  0
 10 11  2  0
 10 12  1  0
 12 13  2  0
 13 14  1  0
 14 15  2  0
 15 16  1  0
 16 17  2  0
 17 18  1  0
 18 19  2  0
  6 20  1  0
 20 21  1  0
 21  3  1  0
 18  7  1  0
 17 12  1  0
  1 22  1  0
  1 23  1  0
  1 24  1  0
  2 25  1  0
  2 26  1  0
  4 27  1  0
  4 28  1  0
  5 29  1  0
  5 30  1  0
 13 31  1  0
 14 32  1  0
 15 33  1  0
 20 34  1  0
 20 35  1  0
 21 36  1  0
 21 37  1  0
M  END
>  <UniqueID>  (8) 
8

>  <SMILES>  (8) 
CCN1CCN(C2=C(Cl)C(=O)c3cccnc3C2=O)CC1

>  <Energy>  (8) 
53.6883386048076

>  <Genealogy>  (8) 
CCN1CCN(C2=C(Cl)C(=O)c3cccnc3C2=O)CC1 (3D coordinates assigned)
CCN1CCN(C2=C(Cl)C(=O)c3cccnc3C2=O)CC1 (nonaromatic ring conformer: 53.6883386048076 kcal/mol)

>  <smiles>  (8) 
CCN1CCN(C2=C(Cl)C(=O)c3cccnc3C2=O)CC1

>  <score_type>  (8) 
oracle

>  <origin>  (8) 
adg

>  <m_score__min__energy>  (8) 
-8.1699999999999999

>  <m_primary>  (8) 
energy

$$$$
8:0
     RDKit          3D

 61 63  0  0  0  0  0  0  0  0999 V2000
   -0.8070   18.5280  -27.4570 C   0  0  0  0  0  0  0  0  0  0  0  0
   -1.6040   19.5630  -26.6510 C   0  0  0  0  0  0  0  0  0  0  0  0
   -1.6190   20.9160  -27.2520 N   0  0  0  0  0  0  0  0  0  0  0  0
   -1.1260   21.9430  -26.3170 C   0  0  0  0  0  0  0  0  0  0  0  0
   -2.9370   21.2680  -27.8250 C   0  0  0  0  0  0  0  0  0  0  0  0
   -2.8640   21.3400  -29.3530 C   0  0  0  0  0  0  0  0  0  0  0  0
   -3.0830   22.6700  -29.7810 O   0  0  0  0  0  0  0  0  0  0  0  0
   -3.4170   23.5000  -28.6880 C   0  0  0  0  0  0  0  0  0  0  0  0
   -4.4290   24.5510  -29.1370 C   0  0  0  0  0  0  0  0  0  0  0  0
   -4.1900   24.9130  -30.4850 O   0  0  0  0  0  0  0  0  0  0  0  0
   -5.4060   25.1510  -31.1640 C   0  0  0  0  0  0  0  0  0  0  0  0
   -6.0160   23.8060  -31.5680 C   0  0  0  0  0  0  0  0  0  0  0  0
   -5.1940   22.6530  -31.1450 N   0  0  0  0  0  0  0  0  0  0  0  0
   -5.5090   21.4380  -31.8880 C   0  0  0  0  0  0  0  0  0  0  0  0
   -6.8360   20.9210  -31.9370 C   0  0  0  0  0  0  0  0  0  0  0  0
   -7.9340   21.5950  -31.3420 C   0  0  0  0  0  0  0  0  0  0  0  0
   -9.2310   21.1020  -31.4510 C   0  0  0  0  0  0  0  0  0  0  0  0
   -9.4760   19.9360  -32.1570 C   0  0  0  0  0  0  0  0  0  0  0  0
   -8.4220   19.2380  -32.7350 C   0  0  0  0  0  0  0  0  0  0  0  0
   -7.0820   19.6880  -32.6080 C   0  0  0  0  0  0  0  0  0  0  0  0
   -6.0360   18.9570  -33.1320 N   0  0  0  0  0  0  0  0  0  0  0  0
   -6.2440   17.5440  -33.5210 C   0  0  0  0  0  0  0  0  0  0  0  0
   -4.7910   19.5310  -33.2680 C   0  0  0  0  0  0  0  0  0  0  0  0
   -3.7880   18.9270  -34.0700 C   0  0  0  0  0  0  0  0  0  0  0  0
   -2.5100   19.4670  -34.1570 C   0  0  0  0  0  0  0  0  0  0  0  0
   -2.1970   20.6270  -33.4630 C   0  0  0  0  0  0  0  0  0  0  0  0
   -0.9480   21.1470  -33.5460 F   0  0  0  0  0  0  0  0  0  0  0  0
   -3.1700   21.2690  -32.7030 C   0  0  0  0  0  0  0  0  0  0  0  0
   -4.4900   20.7570  -32.6120 C   0  0  0  0  0  0  0  0  0  0  0  0
   -0.2844   17.8493  -26.7669 H   0  0  0  0  0  0  0  0  0  0  0  0
   -1.4944   17.9485  -28.0908 H   0  0  0  0  0  0  0  0  0  0  0  0
   -0.0711   19.0445  -28.0908 H   0  0  0  0  0  0  0  0  0  0  0  0
   -2.6427   19.2105  -26.5676 H   0  0  0  0  0  0  0  0  0  0  0  0
   -1.1069   19.6554  -25.6741 H   0  0  0  0  0  0  0  0  0  0  0  0
   -1.2881   21.6054  -25.2827 H   0  0  0  0  0  0  0  0  0  0  0  0
   -0.0513   22.1064  -26.4852 H   0  0  0  0  0  0  0  0  0  0  0  0
   -1.6707   22.8838  -26.4852 H   0  0  0  0  0  0  0  0  0  0  0  0
   -3.6723   20.5031  -27.5347 H   0  0  0  0  0  0  0  0  0  0  0  0
   -3.2372   22.2535  -27.4395 H   0  0  0  0  0  0  0  0  0  0  0  0
   -1.8700   21.0079  -29.6871 H   0  0  0  0  0  0  0  0  0  0  0  0
   -3.6373   20.6876  -29.7847 H   0  0  0  0  0  0  0  0  0  0  0  0
   -3.8546   22.8895  -27.8844 H   0  0  0  0  0  0  0  0  0  0  0  0
   -2.5101   23.9997  -28.3168 H   0  0  0  0  0  0  0  0  0  0  0  0
   -5.4452   24.1399  -29.0455 H   0  0  0  0  0  0  0  0  0  0  0  0
   -4.3272   25.4431  -28.5015 H   0  0  0  0  0  0  0  0  0  0  0  0
   -6.1006   25.6880  -30.5014 H   0  0  0  0  0  0  0  0  0  0  0  0
   -5.2209   25.7620  -32.0598 H   0  0  0  0  0  0  0  0  0  0  0  0
   -7.0098   23.7177  -31.1047 H   0  0  0  0  0  0  0  0  0  0  0  0
   -6.0739   23.7857  -32.6663 H   0  0  0  0  0  0  0  0  0  0  0  0
   -5.2430   22.5240  -30.1130 H   0  0  0  0  0  0  0  0  0  0  0  0
   -4.1840   22.8850  -31.2850 H   0  0  0  0  0  0  0  0  0  0  0  0
   -7.7564   22.5258  -30.7834 H   0  0  0  0  0  0  0  0  0  0  0  0
  -10.0640   21.6401  -30.9750 H   0  0  0  0  0  0  0  0  0  0  0  0
  -10.5053   19.5620  -32.2604 H   0  0  0  0  0  0  0  0  0  0  0  0
   -8.6306   18.3188  -33.3020 H   0  0  0  0  0  0  0  0  0  0  0  0
   -6.3352   16.9244  -32.6167 H   0  0  0  0  0  0  0  0  0  0  0  0
   -7.1642   17.4596  -34.1177 H   0  0  0  0  0  0  0  0  0  0  0  0
   -5.3871   17.1980  -34.1177 H   0  0  0  0  0  0  0  0  0  0  0  0
   -4.0266   18.0133  -34.6341 H   0  0  0  0  0  0  0  0  0  0  0  0
   -1.7462   18.9743  -34.7766 H   0  0  0  0  0  0  0  0  0  0  0  0
   -2.9107   22.1912  -32.1624 H   0  0  0  0  0  0  0  0  0  0  0  0
  1  2  1  0
  2  3  1  0
  3  4  1  0
  3  5  1  0
  5  6  1  0
  6  7  1  0
  7  8  1  0
  8  9  1  0
  9 10  1  0
 10 11  1  0
 11 12  1  0
 12 13  1  0
 13 14  1  0
 14 15  2  0
 15 16  1  0
 16 17  2  0
 17 18  1  0
 18 19  2  0
 19 20  1  0
 20 21  2  0
 21 22  1  0
 21 23  1  0
 23 24  2  0
 24 25  1  0
 25 26  2  0
 26 27  1  0
 26 28  1  0
 28 29  2  0
 29 14  1  0
 20 15  1  0
 29 23  1  0
  1 30  1  0
  1 31  1  0
  1 32  1  0
  2 33  1  0
  2 34  1  0
  4 35  1  0
  4 36  1  0
  4 37  1  0
  5 38  1  0
  5 39  1  0
  6 40  1  0
  6 41  1  0
  8 42  1  0
  8 43  1  0
  9 44  1  0
  9 45  1  0
 11 46  1  0
 11 47  1  0
 12 48  1  0
 12 49  1  0
 13 50  1  0
 13 51  1  0
 16 52  1  0
 17 53  1  0
 18 54  1  0
 19 55  1  0
 22 56  1  0
 22 57  1  0
 22 58  1  0
 24 59  1  0
 25 60  1  0
 28 61  1  0
M  CHG  2  13   1  21   1
M  END
>  <UniqueID>  (9) 
9

>  <SMILES>  (9) 
CCN(C)CCOCCOCC[NH2+]c1c2ccccc2[n+](C)c2ccc(F)cc12

>  <Energy>  (9) 
92.6884007147648

>  <Genealogy>  (9) 
CCN(C)CCOCCOCC[NH2+]c1c2ccccc2[n+](C)c2ccc(F)cc12 (protonated)
CCN(C)CCOCCOCC[NH2+]c1c2ccccc2[n+](C)c2ccc(F)cc12 (3D coordinates assigned)
CCN(C)CCOCCOCC[NH2+]c1c2ccccc2[n+](C)c2ccc(F)cc12 (optimized conformer: 92.6884007147648 kcal/mol)

>  <smiles>  (9) 
CCN(C)CCOCCOCCNc1c2ccccc2[n+](C)c2ccc(F)cc12

>  <score_type>  (9) 
oracle

>  <origin>  (9) 
adg

>  <m_score__min__energy>  (9) 
-8.4700000000000006

>  <m_primary>  (9) 
energy

$$$$
9:0
     RDKit          3D

 49 51  0  0  0  0  0  0  0  0999 V2000
   -9.4910   21.9370  -31.6050 C   0  0  0  0  0  0  0  0  0  0  0  0
   -9.6570   20.5990  -32.3170 C   0  0  0  0  0  0  0  0  0  0  0  0
   -9.0600   19.5630  -31.5580 O   0  0  0  0  0  0  0  0  0  0  0  0
   -8.2030   18.7790  -32.3690 C   0  0  0  0  0  0  0  0  0  0  0  0
   -6.8860   19.4820  -32.6450 C   0  0  0  0  0  0  0  0  0  0  0  0
   -6.5870   20.7090  -32.0110 C   0  0  0  0  0  0  0  0  0  0  0  0
   -5.3660   21.3680  -32.2310 C   0  0  0  0  0  0  0  0  0  0  0  0
   -5.0820   22.6270  -31.5790 N   0  0  0  0  0  0  0  0  0  0  0  0
   -4.1420   22.6940  -30.4530 C   0  0  0  0  0  0  0  0  0  0  0  0
   -3.4550   24.0670  -30.4220 C   0  0  0  0  0  0  0  0  0  0  0  0
   -4.3980   25.2060  -30.4180 N   0  0  0  0  0  0  0  0  0  0  0  0
   -5.7690   24.8790  -30.8490 C   0  0  0  0  0  0  0  0  0  0  0  0
   -5.7890   23.8500  -31.9830 C   0  0  0  0  0  0  0  0  0  0  0  0
   -4.4250   20.7830  -33.0890 C   0  0  0  0  0  0  0  0  0  0  0  0
   -4.7010   19.5740  -33.7230 C   0  0  0  0  0  0  0  0  0  0  0  0
   -5.9250   18.9140  -33.5260 C   0  0  0  0  0  0  0  0  0  0  0  0
   -6.1600   17.6230  -34.2870 C   0  0  0  0  0  0  0  0  0  0  0  0
   -5.1560   16.5740  -33.8790 C   0  0  0  0  0  0  0  0  0  0  0  0
   -5.3710   15.7910  -32.7310 C   0  0  0  0  0  0  0  0  0  0  0  0
   -4.4230   14.8420  -32.3370 C   0  0  0  0  0  0  0  0  0  0  0  0
   -3.2520   14.6700  -33.0820 C   0  0  0  0  0  0  0  0  0  0  0  0
   -3.0290   15.4460  -34.2220 C   0  0  0  0  0  0  0  0  0  0  0  0
   -3.9760   16.3960  -34.6200 C   0  0  0  0  0  0  0  0  0  0  0  0
   -9.5107   21.7782  -30.5167 H   0  0  0  0  0  0  0  0  0  0  0  0
   -8.5300   22.3885  -31.8923 H   0  0  0  0  0  0  0  0  0  0  0  0
  -10.3126   22.6097  -31.8923 H   0  0  0  0  0  0  0  0  0  0  0  0
  -10.7286   20.3854  -32.4435 H   0  0  0  0  0  0  0  0  0  0  0  0
   -9.1658   20.6523  -33.2998 H   0  0  0  0  0  0  0  0  0  0  0  0
   -7.9979   17.8285  -31.8547 H   0  0  0  0  0  0  0  0  0  0  0  0
   -8.7067   18.6080  -33.3318 H   0  0  0  0  0  0  0  0  0  0  0  0
   -7.3260   21.1576  -31.3308 H   0  0  0  0  0  0  0  0  0  0  0  0
   -4.6898   22.5397  -29.5117 H   0  0  0  0  0  0  0  0  0  0  0  0
   -3.3785   21.9113  -30.5735 H   0  0  0  0  0  0  0  0  0  0  0  0
   -2.8370   24.1252  -29.5139 H   0  0  0  0  0  0  0  0  0  0  0  0
   -2.8587   24.1479  -31.3428 H   0  0  0  0  0  0  0  0  0  0  0  0
   -4.4510   25.5970  -29.4490 H   0  0  0  0  0  0  0  0  0  0  0  0
   -6.3224   24.4708  -29.9904 H   0  0  0  0  0  0  0  0  0  0  0  0
   -6.2348   25.8027  -31.2229 H   0  0  0  0  0  0  0  0  0  0  0  0
   -6.8321   23.6012  -32.2280 H   0  0  0  0  0  0  0  0  0  0  0  0
   -5.2855   24.2787  -32.8620 H   0  0  0  0  0  0  0  0  0  0  0  0
   -3.4606   21.2827  -33.2632 H   0  0  0  0  0  0  0  0  0  0  0  0
   -3.9476   19.1285  -34.3893 H   0  0  0  0  0  0  0  0  0  0  0  0
   -7.1741   17.2558  -34.0708 H   0  0  0  0  0  0  0  0  0  0  0  0
   -6.0474   17.8210  -35.3632 H   0  0  0  0  0  0  0  0  0  0  0  0
   -6.2891   15.9257  -32.1403 H   0  0  0  0  0  0  0  0  0  0  0  0
   -4.5983   14.2299  -31.4400 H   0  0  0  0  0  0  0  0  0  0  0  0
   -2.5065   13.9236  -32.7703 H   0  0  0  0  0  0  0  0  0  0  0  0
   -2.1078   15.3100  -34.8075 H   0  0  0  0  0  0  0  0  0  0  0  0
   -3.7956   17.0063  -35.5172 H   0  0  0  0  0  0  0  0  0  0  0  0
  1  2  1  0
  2  3  1  0
  3  4  1  0
  4  5  1  0
  5  6  2  0
  6  7  1  0
  7  8  1  0
  8  9  1  0
  9 10  1  0
 10 11  1  0
 11 12  1  0
 12 13  1  0
  7 14  2  0
 14 15  1  0
 15 16  2  0
 16 17  1  0
 17 18  1  0
 18 19  2  0
 19 20  1  0
 20 21  2  0
 21 22  1  0
 22 23  2  0
 16  5  1  0
 23 18  1  0
 13  8  1  0
  1 24  1  0
  1 25  1  0
  1 26  1  0
  2 27  1  0
  2 28  1  0
  4 29  1  0
  4 30  1  0
  6 31  1  0
  9 32  1  0
  9 33  1  0
 10 34  1  0
 10 35  1  0
 11 36  1  0
 12 37  1  0
 12 38  1  0
 13 39  1  0
 13 40  1  0
 14 41  1  0
 15 42  1  0
 17 43  1  0
 17 44  1  0
 19 45  1  0
 20 46  1  0
 21 47  1  0
 22 48  1  0
 23 49  1  0
M  END
>  <UniqueID>  (10) 
10

>  <SMILES>  (10) 
CCOCc1cc(N2CCNCC2)ccc1Cc1ccccc1

>  <Energy>  (10) 
60.38717391620845

>  <Genealogy>  (10) 
CCOCc1cc(N2CCNCC2)ccc1Cc1ccccc1 (3D coordinates assigned)
CCOCc1cc(N2CCNCC2)ccc1Cc1ccccc1 (nonaromatic ring conformer: 60.38717391620845 kcal/mol)

>  <smiles>  (10) 
CCOCc1cc(N2CCNCC2)ccc1Cc1ccccc1

>  <score_type>  (10) 
oracle

>  <origin>  (10) 
adg

>  <m_score__min__energy>  (10) 
-8.1199999999999992

>  <m_primary>  (10) 
energy

$$$$
10:0
     RDKit          3D

 54 56  0  0  0  0  0  0  0  0999 V2000
   -6.3440   16.7410  -34.5930 C   0  0  0  0  0  0  0  0  0  0  0  0
   -5.1300   17.5900  -34.9680 C   0  0  0  0  0  0  0  0  0  0  0  0
   -4.1760   17.7390  -33.8410 N   0  0  0  0  0  0  0  0  0  0  0  0
   -4.1730   16.4980  -33.0280 C   0  0  0  0  0  0  0  0  0  0  0  0
   -2.9010   15.6840  -33.2670 C   0  0  0  0  0  0  0  0  0  0  0  0
   -2.8020   18.0680  -34.3100 C   0  0  0  0  0  0  0  0  0  0  0  0
   -2.3810   19.4840  -33.8830 C   0  0  0  0  0  0  0  0  0  0  0  0
   -2.5780   19.6930  -32.4510 N   0  0  0  0  0  0  0  0  0  0  0  0
   -3.1600   20.9020  -31.9340 C   0  0  0  0  0  0  0  0  0  0  0  0
   -4.4380   21.3270  -32.3700 C   0  0  0  0  0  0  0  0  0  0  0  0
   -5.2010   20.5760  -33.3420 N   0  0  0  0  0  0  0  0  0  0  0  0
   -6.4070   20.0600  -32.7410 C   0  0  0  0  0  0  0  0  0  0  0  0
   -7.5990   20.8090  -32.7710 C   0  0  0  0  0  0  0  0  0  0  0  0
   -8.7690   20.3000  -32.2030 C   0  0  0  0  0  0  0  0  0  0  0  0
   -8.7660   19.0380  -31.6020 C   0  0  0  0  0  0  0  0  0  0  0  0
   -7.5900   18.2840  -31.5700 C   0  0  0  0  0  0  0  0  0  0  0  0
   -6.4170   18.7890  -32.1370 C   0  0  0  0  0  0  0  0  0  0  0  0
   -4.9580   22.5410  -31.8880 C   0  0  0  0  0  0  0  0  0  0  0  0
   -4.2530   23.3300  -30.9710 C   0  0  0  0  0  0  0  0  0  0  0  0
   -4.8190   24.5860  -30.5630 N   0  0  0  0  0  0  0  0  0  0  0  0
   -4.2290   25.6540  -30.8240 O   0  0  0  0  0  0  0  0  0  0  0  0
   -6.1250   24.6390  -30.1330 O   0  0  0  0  0  0  0  0  0  0  0  0
   -3.0040   22.8780  -30.4870 C   0  0  0  0  0  0  0  0  0  0  0  0
   -2.2890   23.5720  -29.4890 C   0  0  0  0  0  0  0  0  0  0  0  0
   -1.0620   23.0890  -29.0380 C   0  0  0  0  0  0  0  0  0  0  0  0
   -0.5540   21.9060  -29.5690 C   0  0  0  0  0  0  0  0  0  0  0  0
   -1.2590   21.2270  -30.5090 N   0  0  0  0  0  0  0  0  0  0  0  0
   -2.4580   21.6680  -30.9810 C   0  0  0  0  0  0  0  0  0  0  0  0
   -6.4267   16.6831  -33.4976 H   0  0  0  0  0  0  0  0  0  0  0  0
   -7.2543   17.2004  -35.0057 H   0  0  0  0  0  0  0  0  0  0  0  0
   -6.2248   15.7283  -35.0057 H   0  0  0  0  0  0  0  0  0  0  0  0
   -4.6099   17.1106  -35.8105 H   0  0  0  0  0  0  0  0  0  0  0  0
   -5.4917   18.5934  -35.2371 H   0  0  0  0  0  0  0  0  0  0  0  0
   -4.2324   16.7666  -31.9629 H   0  0  0  0  0  0  0  0  0  0  0  0
   -5.0386   15.8864  -33.3224 H   0  0  0  0  0  0  0  0  0  0  0  0
   -2.4594   15.4014  -32.3000 H   0  0  0  0  0  0  0  0  0  0  0  0
   -3.1483   14.7760  -33.8365 H   0  0  0  0  0  0  0  0  0  0  0  0
   -2.1801   16.2890  -33.8365 H   0  0  0  0  0  0  0  0  0  0  0  0
   -2.0955   17.3415  -33.8823 H   0  0  0  0  0  0  0  0  0  0  0  0
   -2.7943   18.0239  -35.4091 H   0  0  0  0  0  0  0  0  0  0  0  0
   -1.3169   19.6277  -34.1220 H   0  0  0  0  0  0  0  0  0  0  0  0
   -3.0061   20.2080  -34.4262 H   0  0  0  0  0  0  0  0  0  0  0  0
   -2.2080   18.9840  -31.7800 H   0  0  0  0  0  0  0  0  0  0  0  0
   -5.4320   21.2030  -34.1470 H   0  0  0  0  0  0  0  0  0  0  0  0
   -4.6530   19.7850  -33.7440 H   0  0  0  0  0  0  0  0  0  0  0  0
   -7.6087   21.8016  -33.2449 H   0  0  0  0  0  0  0  0  0  0  0  0
   -9.6948   20.8935  -32.2287 H   0  0  0  0  0  0  0  0  0  0  0  0
   -9.6883   18.6389  -31.1548 H   0  0  0  0  0  0  0  0  0  0  0  0
   -7.5877   17.2907  -31.0974 H   0  0  0  0  0  0  0  0  0  0  0  0
   -5.4953   18.1891  -32.1111 H   0  0  0  0  0  0  0  0  0  0  0  0
   -5.9436   22.8795  -32.2402 H   0  0  0  0  0  0  0  0  0  0  0  0
   -2.7018   24.4990  -29.0645 H   0  0  0  0  0  0  0  0  0  0  0  0
   -0.4992   23.6379  -28.2686 H   0  0  0  0  0  0  0  0  0  0  0  0
    0.4183   21.5221  -29.2266 H   0  0  0  0  0  0  0  0  0  0  0  0
  1  2  1  0
  2  3  1  0
  3  4  1  0
  4  5  1  0
  3  6  1  0
  6  7  1  0
  7  8  1  0
  8  9  1  0
  9 10  2  0
 10 11  1  0
 11 12  1  0
 12 13  2  0
 13 14  1  0
 14 15  2  0
 15 16  1  0
 16 17  2  0
 10 18  1  0
 18 19  2  0
 19 20  1  0
 20 21  2  0
 20 22  1  0
 19 23  1  0
 23 24  2  0
 24 25  1  0
 25 26  2  0
 26 27  1  0
 27 28  2  0
 28  9  1  0
 17 12  1  0
 28 23  1  0
  1 29  1  0
  1 30  1  0
  1 31  1  0
  2 32  1  0
  2 33  1  0
  4 34  1  0
  4 35  1  0
  5 36  1  0
  5 37  1  0
  5 38  1  0
  6 39  1  0
  6 40  1  0
  7 41  1  0
  7 42  1  0
  8 43  1  0
 11 44  1  0
 11 45  1  0
 13 46  1  0
 14 47  1  0
 15 48  1  0
 16 49  1  0
 17 50  1  0
 18 51  1  0
 24 52  1  0
 25 53  1  0
 26 54  1  0
M  CHG  3  11   1  20   1  22  -1
M  END
>  <UniqueID>  (11) 
11

>  <SMILES>  (11) 
CCN(CC)CCNc1c([NH2+]c2ccccc2)cc([N+](=O)[O-])c2cccnc12

>  <Energy>  (11) 
71.78874110710149

>  <Genealogy>  (11) 
CCN(CC)CCNc1c([NH2+]c2ccccc2)cc([N+](=O)[O-])c2cccnc12 (protonated)
CCN(CC)CCNc1c([NH2+]c2ccccc2)cc([N+](=O)[O-])c2cccnc12 (3D coordinates assigned)
CCN(CC)CCNc1c([NH2+]c2ccccc2)cc([N+](=O)[O-])c2cccnc12 (optimized conformer: 71.78874110710149 kcal/mol)

>  <smiles>  (11) 
CCN(CC)CCNc1c(Nc2ccccc2)cc([N+](=O)[O-])c2cccnc12

>  <score_type>  (11) 
oracle

>  <origin>  (11) 
adg

>  <m_score__min__energy>  (11) 
-8.2799999999999994

>  <m_primary>  (11) 
energy

$$$$
11:0
     RDKit          3D

 66 68  0  0  0  0  0  0  0  0999 V2000
   -2.7090   20.5110  -28.0760 C   0  0  0  0  0  0  0  0  0  0  0  0
   -3.1140   20.7640  -29.5360 C   0  0  0  0  0  0  0  0  0  0  0  0
   -3.1170   22.1940  -29.9180 N   0  0  0  0  0  0  0  0  0  0  0  0
   -1.7580   22.7020  -30.1820 C   0  0  0  0  0  0  0  0  0  0  0  0
   -3.8580   23.0390  -28.9540 C   0  0  0  0  0  0  0  0  0  0  0  0
   -3.6880   24.5230  -29.2950 C   0  0  0  0  0  0  0  0  0  0  0  0
   -4.1850   24.7800  -30.5900 O   0  0  0  0  0  0  0  0  0  0  0  0
   -5.3750   25.5460  -30.5290 C   0  0  0  0  0  0  0  0  0  0  0  0
   -6.4270   24.7980  -29.7070 C   0  0  0  0  0  0  0  0  0  0  0  0
   -6.8310   23.5980  -30.3460 O   0  0  0  0  0  0  0  0  0  0  0  0
   -7.0800   23.7900  -31.7260 C   0  0  0  0  0  0  0  0  0  0  0  0
   -5.9000   23.2970  -32.5830 C   0  0  0  0  0  0  0  0  0  0  0  0
   -4.9740   22.4550  -31.7960 N   0  0  0  0  0  0  0  0  0  0  0  0
   -4.8900   21.1170  -32.3490 C   0  0  0  0  0  0  0  0  0  0  0  0
   -6.0280   20.2690  -32.4430 C   0  0  0  0  0  0  0  0  0  0  0  0
   -5.9040   18.9860  -33.0390 C   0  0  0  0  0  0  0  0  0  0  0  0
   -4.6970   18.5810  -33.5820 N   0  0  0  0  0  0  0  0  0  0  0  0
   -4.5800   17.2750  -34.2550 C   0  0  0  0  0  0  0  0  0  0  0  0
   -3.6100   19.4150  -33.4910 C   0  0  0  0  0  0  0  0  0  0  0  0
   -3.6870   20.6480  -32.8940 C   0  0  0  0  0  0  0  0  0  0  0  0
   -2.3930   21.3810  -32.9670 C   0  0  0  0  0  0  0  0  0  0  0  0
   -1.4350   20.4090  -33.6740 C   0  0  0  0  0  0  0  0  0  0  0  0
   -2.2470   19.1580  -34.0390 C   0  0  0  0  0  0  0  0  0  0  0  0
   -7.1710   18.1580  -33.2010 C   0  0  0  0  0  0  0  0  0  0  0  0
   -8.1350   18.2550  -32.0000 C   0  0  0  0  0  0  0  0  0  0  0  0
   -8.0780   19.5830  -31.2190 C   0  0  0  0  0  0  0  0  0  0  0  0
   -7.4120   20.7050  -32.0070 C   0  0  0  0  0  0  0  0  0  0  0  0
   -3.4483   20.9728  -27.4051 H   0  0  0  0  0  0  0  0  0  0  0  0
   -2.6702   19.4278  -27.8887 H   0  0  0  0  0  0  0  0  0  0  0  0
   -1.7185   20.9512  -27.8887 H   0  0  0  0  0  0  0  0  0  0  0  0
   -2.4061   20.2325  -30.1890 H   0  0  0  0  0  0  0  0  0  0  0  0
   -4.1463   20.4011  -29.6486 H   0  0  0  0  0  0  0  0  0  0  0  0
   -1.2462   22.8933  -29.2273 H   0  0  0  0  0  0  0  0  0  0  0  0
   -1.1926   21.9545  -30.7578 H   0  0  0  0  0  0  0  0  0  0  0  0
   -1.8215   23.6371  -30.7578 H   0  0  0  0  0  0  0  0  0  0  0  0
   -4.9262   22.7794  -28.9925 H   0  0  0  0  0  0  0  0  0  0  0  0
   -3.4585   22.8592  -27.9450 H   0  0  0  0  0  0  0  0  0  0  0  0
   -4.2426   25.1305  -28.5647 H   0  0  0  0  0  0  0  0  0  0  0  0
   -2.6194   24.7816  -29.2602 H   0  0  0  0  0  0  0  0  0  0  0  0
   -5.1621   26.5156  -30.0552 H   0  0  0  0  0  0  0  0  0  0  0  0
   -5.7564   25.7091  -31.5478 H   0  0  0  0  0  0  0  0  0  0  0  0
   -6.0028   24.5529  -28.7221 H   0  0  0  0  0  0  0  0  0  0  0  0
   -7.3090   25.4471  -29.6037 H   0  0  0  0  0  0  0  0  0  0  0  0
   -7.9849   23.2315  -32.0076 H   0  0  0  0  0  0  0  0  0  0  0  0
   -7.2139   24.8667  -31.9074 H   0  0  0  0  0  0  0  0  0  0  0  0
   -6.2915   22.7073  -33.4250 H   0  0  0  0  0  0  0  0  0  0  0  0
   -5.3453   24.1753  -32.9448 H   0  0  0  0  0  0  0  0  0  0  0  0
   -5.2230   22.4060  -30.7850 H   0  0  0  0  0  0  0  0  0  0  0  0
   -4.0330   22.9100  -31.7980 H   0  0  0  0  0  0  0  0  0  0  0  0
   -4.5086   16.4784  -33.4998 H   0  0  0  0  0  0  0  0  0  0  0  0
   -5.4666   17.1058  -34.8838 H   0  0  0  0  0  0  0  0  0  0  0  0
   -3.6775   17.2661  -34.8838 H   0  0  0  0  0  0  0  0  0  0  0  0
   -2.5043   22.3081  -33.5485 H   0  0  0  0  0  0  0  0  0  0  0  0
   -2.0262   21.6790  -31.9737 H   0  0  0  0  0  0  0  0  0  0  0  0
   -1.0298   20.8745  -34.5846 H   0  0  0  0  0  0  0  0  0  0  0  0
   -0.5892   20.1491  -33.0205 H   0  0  0  0  0  0  0  0  0  0  0  0
   -2.2866   19.0266  -35.1304 H   0  0  0  0  0  0  0  0  0  0  0  0
   -1.8012   18.2396  -33.6293 H   0  0  0  0  0  0  0  0  0  0  0  0
   -7.7006   18.5063  -34.1000 H   0  0  0  0  0  0  0  0  0  0  0  0
   -6.8591   17.1060  -33.2778 H   0  0  0  0  0  0  0  0  0  0  0  0
   -9.1607   18.1246  -32.3754 H   0  0  0  0  0  0  0  0  0  0  0  0
   -7.8230   17.4715  -31.2937 H   0  0  0  0  0  0  0  0  0  0  0  0
   -9.1051   19.8893  -30.9716 H   0  0  0  0  0  0  0  0  0  0  0  0
   -7.4744   19.4098  -30.3159 H   0  0  0  0  0  0  0  0  0  0  0  0
   -8.0185   20.9389  -32.8944 H   0  0  0  0  0  0  0  0  0  0  0  0
   -7.3296   21.5986  -31.3709 H   0  0  0  0  0  0  0  0  0  0  0  0
  1  2  1  0
  2  3  1  0
  3  4  1  0
  3  5  1  0
  5  6  1  0
  6  7  1  0
  7  8  1  0
  8  9  1  0
  9 10  1  0
 10 11  1  0
 11 12  1  0
 12 13  1  0
 13 14  1  0
 14 15  2  0
 15 16  1  0
 16 17  2  0
 17 18  1  0
 17 19  1  0
 19 20  2  0
 20 21  1  0
 21 22  1  0
 22 23  1  0
 16 24  1  0
 24 25  1  0
 25 26  1  0
 26 27  1  0
 20 14  1  0
 27 15  1  0
 23 19  1  0
  1 28  1  0
  1 29  1  0
  1 30  1  0
  2 31  1  0
  2 32  1  0
  4 33  1  0
  4 34  1  0
  4 35  1  0
  5 36  1  0
  5 37  1  0
  6 38  1  0
  6 39  1  0
  8 40  1  0
  8 41  1  0
  9 42  1  0
  9 43  1  0
 11 44  1  0
 11 45  1  0
 12 46  1  0
 12 47  1  0
 13 48  1  0
 13 49  1  0
 18 50  1  0
 18 51  1  0
 18 52  1  0
 21 53  1  0
 21 54  1  0
 22 55  1  0
 22 56  1  0
 23 57  1  0
 23 58  1  0
 24 59  1  0
 24 60  1  0
 25 61  1  0
 25 62  1  0
 26 63  1  0
 26 64  1  0
 27 65  1  0
 27 66  1  0
M  CHG  2  13   1  17   1
M  END
>  <UniqueID>  (12) 
12

>  <SMILES>  (12) 
CCN(C)CCOCCOCC[NH2+]c1c2c([n+](C)c3c1CCC3)CCCC2

>  <Energy>  (12) 
90.97238295271012

>  <Genealogy>  (12) 
CCN(C)CCOCCOCC[NH2+]c1c2c([n+](C)c3c1CCC3)CCCC2 (protonated)
CCN(C)CCOCCOCC[NH2+]c1c2c([n+](C)c3c1CCC3)CCCC2 (3D coordinates assigned)
CCN(C)CCOCCOCC[NH2+]c1c2c([n+](C)c3c1CCC3)CCCC2 (nonaromatic ring conformer: 90.97238295271012 kcal/mol)

>  <smiles>  (12) 
CCN(C)CCOCCOCCNc1c2c([n+](C)c3c1CCC3)CCCC2

>  <score_type>  (12) 
oracle

>  <origin>  (12) 
adg

>  <m_score__min__energy>  (12) 
-8.5500000000000007

>  <m_primary>  (12) 
energy

$$$$
12:0
     RDKit          3D

 54 53  0  0  0  0  0  0  0  0999 V2000
   -6.6580   19.5340  -33.2630 C   0  0  0  0  0  0  0  0  0  0  0  0
   -7.3300   18.6240  -32.2390 C   0  0  0  0  0  0  0  0  0  0  0  0
   -8.6860   19.1930  -31.7940 C   0  0  0  0  0  0  0  0  0  0  0  0
   -8.9130   20.6310  -32.3010 C   0  0  0  0  0  0  0  0  0  0  0  0
   -8.8600   21.7050  -31.1960 C   0  0  0  0  0  0  0  0  0  0  0  0
   -8.1860   23.0240  -31.6280 C   0  0  0  0  0  0  0  0  0  0  0  0
   -6.8190   23.2340  -30.9530 C   0  0  0  0  0  0  0  0  0  0  0  0
   -5.6440   22.8850  -31.8810 C   0  0  0  0  0  0  0  0  0  0  0  0
   -4.4030   22.4260  -31.1030 C   0  0  0  0  0  0  0  0  0  0  0  0
   -4.2470   23.2110  -29.7960 C   0  0  0  0  0  0  0  0  0  0  0  0
   -3.6450   24.5560  -30.0610 C   0  0  0  0  0  0  0  0  0  0  0  0
   -4.2150   25.3600  -30.8480 O   0  0  0  0  0  0  0  0  0  0  0  0
   -2.4440   24.8980  -29.4340 O   0  0  0  0  0  0  0  0  0  0  0  0
   -1.4800   23.9380  -29.0190 C   0  0  0  0  0  0  0  0  0  0  0  0
   -0.2620   24.6020  -28.7310 O   0  0  0  0  0  0  0  0  0  0  0  0
   -0.2430   25.6460  -27.8310 N   0  0  0  0  0  0  0  0  0  0  0  0
   -0.3970   25.4670  -26.5770 N   0  0  0  0  0  0  0  0  0  0  0  0
    0.5940   24.6580  -25.8620 C   0  0  0  0  0  0  0  0  0  0  0  0
   -0.0770   23.4690  -25.1780 C   0  0  0  0  0  0  0  0  0  0  0  0
   -1.5440   26.0480  -25.8610 C   0  0  0  0  0  0  0  0  0  0  0  0
   -1.0840   26.7290  -24.5770 C   0  0  0  0  0  0  0  0  0  0  0  0
   -6.0831   20.3125  -32.7402 H   0  0  0  0  0  0  0  0  0  0  0  0
   -5.9807   18.9392  -33.8935 H   0  0  0  0  0  0  0  0  0  0  0  0
   -7.4257   20.0063  -33.8935 H   0  0  0  0  0  0  0  0  0  0  0  0
   -7.4873   17.6326  -32.6888 H   0  0  0  0  0  0  0  0  0  0  0  0
   -6.6769   18.5510  -31.3569 H   0  0  0  0  0  0  0  0  0  0  0  0
   -9.4861   18.5489  -32.1877 H   0  0  0  0  0  0  0  0  0  0  0  0
   -8.6950   19.2190  -30.6943 H   0  0  0  0  0  0  0  0  0  0  0  0
   -8.1356   20.8618  -33.0443 H   0  0  0  0  0  0  0  0  0  0  0  0
   -9.9281   20.6613  -32.7236 H   0  0  0  0  0  0  0  0  0  0  0  0
   -9.8905   21.9302  -30.8841 H   0  0  0  0  0  0  0  0  0  0  0  0
   -8.2491   21.2900  -30.3808 H   0  0  0  0  0  0  0  0  0  0  0  0
   -8.0424   23.0065  -32.7184 H   0  0  0  0  0  0  0  0  0  0  0  0
   -8.8420   23.8517  -31.3206 H   0  0  0  0  0  0  0  0  0  0  0  0
   -6.7314   24.2891  -30.6545 H   0  0  0  0  0  0  0  0  0  0  0  0
   -6.7690   22.5621  -30.0835 H   0  0  0  0  0  0  0  0  0  0  0  0
   -5.9562   22.0761  -32.5580 H   0  0  0  0  0  0  0  0  0  0  0  0
   -5.3742   23.7941  -32.4384 H   0  0  0  0  0  0  0  0  0  0  0  0
   -4.5016   21.3557  -30.8692 H   0  0  0  0  0  0  0  0  0  0  0  0
   -3.5146   22.6065  -31.7261 H   0  0  0  0  0  0  0  0  0  0  0  0
   -5.2358   23.3420  -29.3321 H   0  0  0  0  0  0  0  0  0  0  0  0
   -3.5830   22.6506  -29.1214 H   0  0  0  0  0  0  0  0  0  0  0  0
   -1.8397   23.4200  -28.1177 H   0  0  0  0  0  0  0  0  0  0  0  0
   -1.3210   23.2009  -29.8199 H   0  0  0  0  0  0  0  0  0  0  0  0
    1.3432   24.2882  -26.5775 H   0  0  0  0  0  0  0  0  0  0  0  0
    1.0763   25.2827  -25.0957 H   0  0  0  0  0  0  0  0  0  0  0  0
   -0.0098   23.5881  -24.0865 H   0  0  0  0  0  0  0  0  0  0  0  0
   -1.1345   23.4226  -25.4774 H   0  0  0  0  0  0  0  0  0  0  0  0
    0.4299   22.5398  -25.4774 H   0  0  0  0  0  0  0  0  0  0  0  0
   -2.0362   26.7895  -26.5075 H   0  0  0  0  0  0  0  0  0  0  0  0
   -2.2473   25.2423  -25.6036 H   0  0  0  0  0  0  0  0  0  0  0  0
   -1.4623   26.1690  -23.7091 H   0  0  0  0  0  0  0  0  0  0  0  0
    0.0154   26.7520  -24.5477 H   0  0  0  0  0  0  0  0  0  0  0  0
   -1.4732   27.7574  -24.5477 H   0  0  0  0  0  0  0  0  0  0  0  0
  1  2  1  0
  2  3  1  0
  3  4  1  0
  4  5  1  0
  5  6  1  0
  6  7  1  0
  7  8  1  0
  8  9  1  0
  9 10  1  0
 10 11  1  0
 11 12  2  0
 11 13  1  0
 13 14  1  0
 14 15  1  0
 15 16  1  0
 16 17  2  3
 17 18  1  0
 18 19  1  0
 17 20  1  0
 20 21  1  0
  1 22  1  0
  1 23  1  0
  1 24  1  0
  2 25  1  0
  2 26  1  0
  3 27  1  0
  3 28  1  0
  4 29  1  0
  4 30  1  0
  5 31  1  0
  5 32  1  0
  6 33  1  0
  6 34  1  0
  7 35  1  0
  7 36  1  0
  8 37  1  0
  8 38  1  0
  9 39  1  0
  9 40  1  0
 10 41  1  0
 10 42  1  0
 14 43  1  0
 14 44  1  0
 18 45  1  0
 18 46  1  0
 19 47  1  0
 19 48  1  0
 19 49  1  0
 20 50  1  0
 20 51  1  0
 21 52  1  0
 21 53  1  0
 21 54  1  0
M  CHG  1  17   1
M  END
>  <UniqueID>  (13) 
13

>  <SMILES>  (13) 
CCCCCCCCCCC(=O)OCON=[N+](CC)CC

>  <Energy>  (13) 
19.50031073160991

>  <Genealogy>  (13) 
CCCCCCCCCCC(=O)OCON=[N+](CC)CC (3D coordinates assigned)
CCCCCCCCCCC(=O)OCON=[N+](CC)CC (optimized conformer: 19.50031073160991 kcal/mol)

>  <smiles>  (13) 
CCCCCCCCCCC(=O)OCON=[N+](CC)CC

>  <score_type>  (13) 
oracle

>  <origin>  (13) 
adg

>  <m_score__min__energy>  (13) 
-6.2400000000000002

>  <m_primary>  (13) 
energy

$$$$
13:0
     RDKit          3D

 62 64  0  0  0  0  0  0  0  0999 V2000
   -2.7020   20.3820  -27.8160 C   0  0  0  0  0  0  0  0  0  0  0  0
   -2.6730   20.7910  -29.2850 C   0  0  0  0  0  0  0  0  0  0  0  0
   -2.8390   22.3160  -29.4430 C   0  0  0  0  0  0  0  0  0  0  0  0
   -4.2030   22.7710  -29.0620 N   0  0  0  0  0  0  0  0  0  0  0  0
   -4.3440   24.1910  -28.5950 C   0  0  0  0  0  0  0  0  0  0  0  0
   -4.1840   24.4910  -27.0780 C   0  0  0  0  0  0  0  0  0  0  0  0
   -2.7760   24.9020  -26.6600 C   0  0  0  0  0  0  0  0  0  0  0  0
   -5.2300   22.3790  -30.0650 C   0  0  0  0  0  0  0  0  0  0  0  0
   -5.6320   23.4960  -31.0370 C   0  0  0  0  0  0  0  0  0  0  0  0
   -5.5890   23.0050  -32.4140 N   0  0  0  0  0  0  0  0  0  0  0  0
   -5.6910   21.5990  -32.7090 C   0  0  0  0  0  0  0  0  0  0  0  0
   -6.9120   20.9240  -32.5330 C   0  0  0  0  0  0  0  0  0  0  0  0
   -8.0560   21.5970  -32.0500 C   0  0  0  0  0  0  0  0  0  0  0  0
   -9.2640   20.9210  -31.8890 C   0  0  0  0  0  0  0  0  0  0  0  0
   -9.3550   19.5690  -32.2030 C   0  0  0  0  0  0  0  0  0  0  0  0
   -8.2410   18.8860  -32.6870 C   0  0  0  0  0  0  0  0  0  0  0  0
   -6.9990   19.5480  -32.8670 C   0  0  0  0  0  0  0  0  0  0  0  0
   -5.8970   18.8820  -33.3620 N   0  0  0  0  0  0  0  0  0  0  0  0
   -6.1160   17.6650  -34.1740 C   0  0  0  0  0  0  0  0  0  0  0  0
   -4.6470   19.4710  -33.3010 C   0  0  0  0  0  0  0  0  0  0  0  0
   -3.4250   18.7330  -33.4350 C   0  0  0  0  0  0  0  0  0  0  0  0
   -3.3090   17.2550  -33.0910 C   0  0  0  0  0  0  0  0  0  0  0  0
   -2.8600   16.4070  -34.2850 C   0  0  0  0  0  0  0  0  0  0  0  0
   -2.2460   19.4240  -33.7670 C   0  0  0  0  0  0  0  0  0  0  0  0
   -2.2160   20.8130  -33.7800 C   0  0  0  0  0  0  0  0  0  0  0  0
   -3.3450   21.5360  -33.4160 C   0  0  0  0  0  0  0  0  0  0  0  0
   -4.5570   20.8780  -33.1310 C   0  0  0  0  0  0  0  0  0  0  0  0
   -2.6383   21.2801  -27.1840 H   0  0  0  0  0  0  0  0  0  0  0  0
   -3.6402   19.8490  -27.6022 H   0  0  0  0  0  0  0  0  0  0  0  0
   -1.8484   19.7219  -27.6022 H   0  0  0  0  0  0  0  0  0  0  0  0
   -1.7106   20.4876  -29.7229 H   0  0  0  0  0  0  0  0  0  0  0  0
   -3.5079   20.2945  -29.8012 H   0  0  0  0  0  0  0  0  0  0  0  0
   -2.1035   22.8217  -28.8001 H   0  0  0  0  0  0  0  0  0  0  0  0
   -2.6809   22.5668  -30.5023 H   0  0  0  0  0  0  0  0  0  0  0  0
   -4.4660   22.1850  -28.2330 H   0  0  0  0  0  0  0  0  0  0  0  0
   -3.5848   24.7845  -29.1255 H   0  0  0  0  0  0  0  0  0  0  0  0
   -5.3927   24.4432  -28.8108 H   0  0  0  0  0  0  0  0  0  0  0  0
   -4.8727   25.3073  -26.8146 H   0  0  0  0  0  0  0  0  0  0  0  0
   -4.4065   23.5530  -26.5483 H   0  0  0  0  0  0  0  0  0  0  0  0
   -2.7104   24.9212  -25.5621 H   0  0  0  0  0  0  0  0  0  0  0  0
   -2.0494   24.1785  -27.0582 H   0  0  0  0  0  0  0  0  0  0  0  0
   -2.5527   25.9028  -27.0582 H   0  0  0  0  0  0  0  0  0  0  0  0
   -4.8321   21.5390  -30.6532 H   0  0  0  0  0  0  0  0  0  0  0  0
   -6.1358   22.1178  -29.4982 H   0  0  0  0  0  0  0  0  0  0  0  0
   -6.6528   23.8321  -30.8025 H   0  0  0  0  0  0  0  0  0  0  0  0
   -4.9279   24.3346  -30.9321 H   0  0  0  0  0  0  0  0  0  0  0  0
   -5.7520   23.6920  -33.1840 H   0  0  0  0  0  0  0  0  0  0  0  0
   -7.9928   22.6659  -31.7983 H   0  0  0  0  0  0  0  0  0  0  0  0
  -10.1474   21.4577  -31.5128 H   0  0  0  0  0  0  0  0  0  0  0  0
  -10.3088   19.0376  -32.0689 H   0  0  0  0  0  0  0  0  0  0  0  0
   -8.3258   17.8173  -32.9333 H   0  0  0  0  0  0  0  0  0  0  0  0
   -6.2711   16.8031  -33.5084 H   0  0  0  0  0  0  0  0  0  0  0  0
   -7.0038   17.8025  -34.8087 H   0  0  0  0  0  0  0  0  0  0  0  0
   -5.2359   17.4844  -34.8087 H   0  0  0  0  0  0  0  0  0  0  0  0
   -2.5751   17.1384  -32.2799 H   0  0  0  0  0  0  0  0  0  0  0  0
   -4.3065   16.9035  -32.7884 H   0  0  0  0  0  0  0  0  0  0  0  0
   -2.3742   15.4896  -33.9212 H   0  0  0  0  0  0  0  0  0  0  0  0
   -3.7354   16.1410  -34.8956 H   0  0  0  0  0  0  0  0  0  0  0  0
   -2.1479   16.9815  -34.8956 H   0  0  0  0  0  0  0  0  0  0  0  0
   -1.3370   18.8582  -34.0193 H   0  0  0  0  0  0  0  0  0  0  0  0
   -1.2980   21.3404  -34.0786 H   0  0  0  0  0  0  0  0  0  0  0  0
   -3.2918   22.6327  -33.3498 H   0  0  0  0  0  0  0  0  0  0  0  0
  1  2  1  0
  2  3  1  0
  3  4  1  0
  4  5  1  0
  5  6  1  0
  6  7  1  0
  4  8  1  0
  8  9  1  0
  9 10  1  0
 10 11  1  0
 11 12  2  0
 12 13  1  0
 13 14  2  0
 14 15  1  0
 15 16  2  0
 16 17  1  0
 17 18  2  0
 18 19  1  0
 18 20  1  0
 20 21  2  0
 21 22  1  0
 22 23  1  0
 21 24  1  0
 24 25  2  0
 25 26  1  0
 26 27  2  0
 27 11  1  0
 17 12  1  0
 27 20  1  0
  1 28  1  0
  1 29  1  0
  1 30  1  0
  2 31  1  0
  2 32  1  0
  3 33  1  0
  3 34  1  0
  4 35  1  0
  5 36  1  0
  5 37  1  0
  6 38  1  0
  6 39  1  0
  7 40  1  0
  7 41  1  0
  7 42  1  0
  8 43  1  0
  8 44  1  0
  9 45  1  0
  9 46  1  0
 10 47  1  0
 13 48  1  0
 14 49  1  0
 15 50  1  0
 16 51  1  0
 19 52  1  0
 19 53  1  0
 19 54  1  0
 22 55  1  0
 22 56  1  0
 23 57  1  0
 23 58  1  0
 23 59  1  0
 24 60  1  0
 25 61  1  0
 26 62  1  0
M  CHG  2   4   1  18   1
M  END
>  <UniqueID>  (14) 
14

>  <SMILES>  (14) 
CCC[NH+](CCC)CCNc1c2ccccc2[n+](C)c2c(CC)cccc12

>  <Energy>  (14) 
107.08764384640173

>  <Genealogy>  (14) 
CCC[NH+](CCC)CCNc1c2ccccc2[n+](C)c2c(CC)cccc12 (protonated)
CCC[NH+](CCC)CCNc1c2ccccc2[n+](C)c2c(CC)cccc12 (3D coordinates assigned)
CCC[NH+](CCC)CCNc1c2ccccc2[n+](C)c2c(CC)cccc12 (optimized conformer: 107.08764384640173 kcal/mol)

>  <smiles>  (14) 
CCCN(CCC)CCNc1c2ccccc2[n+](C)c2c(CC)cccc12

>  <score_type>  (14) 
oracle

>  <origin>  (14) 
adg

>  <m_score__min__energy>  (14) 
-7.2400000000000002

>  <m_primary>  (14) 
energy

$$$$
14:0
     RDKit          3D

 48 51  0  0  0  0  0  0  0  0999 V2000
   -2.9710   22.2670  -28.9240 C   0  0  0  0  0  0  0  0  0  0  0  0
   -2.9290   23.7750  -29.1420 C   0  0  0  0  0  0  0  0  0  0  0  0
   -4.1980   24.3790  -28.7140 N   0  0  0  0  0  0  0  0  0  0  0  0
   -5.3680   23.7220  -29.3240 C   0  0  0  0  0  0  0  0  0  0  0  0
   -6.3370   24.7270  -29.9930 C   0  0  1  0  0  0  0  0  0  0  0  0
   -5.9830   26.0510  -29.6790 O   0  0  0  0  0  0  0  0  0  0  0  0
   -6.3890   24.5520  -31.5250 C   0  0  0  0  0  0  0  0  0  0  0  0
   -6.4620   23.1360  -31.8990 N   0  0  0  0  0  0  0  0  0  0  0  0
   -7.5940   22.3960  -31.9340 C   0  0  0  0  0  0  0  0  0  0  0  0
   -7.2950   21.0800  -32.2550 C   0  0  0  0  0  0  0  0  0  0  0  0
   -5.9240   21.0210  -32.4370 C   0  0  0  0  0  0  0  0  0  0  0  0
   -5.0690   19.9460  -32.7530 C   0  0  0  0  0  0  0  0  0  0  0  0
   -3.6780   20.2240  -32.7360 C   0  0  0  0  0  0  0  0  0  0  0  0
   -3.1940   21.5180  -32.4640 C   0  0  0  0  0  0  0  0  0  0  0  0
   -4.0800   22.5700  -32.2000 C   0  0  0  0  0  0  0  0  0  0  0  0
   -5.4480   22.2910  -32.1900 C   0  0  0  0  0  0  0  0  0  0  0  0
   -5.5670   18.5960  -33.1730 C   0  0  0  0  0  0  0  0  0  0  0  0
   -4.8560   17.8940  -34.1720 C   0  0  0  0  0  0  0  0  0  0  0  0
   -5.2710   16.6340  -34.6030 C   0  0  0  0  0  0  0  0  0  0  0  0
   -6.4090   16.0490  -34.0580 C   0  0  0  0  0  0  0  0  0  0  0  0
   -7.1430   16.7270  -33.0870 C   0  0  0  0  0  0  0  0  0  0  0  0
   -6.7410   17.9980  -32.6350 C   0  0  0  0  0  0  0  0  0  0  0  0
   -7.6030   18.6980  -31.6140 C   0  0  0  0  0  0  0  0  0  0  0  0
   -8.2590   19.9370  -32.2260 C   0  0  0  0  0  0  0  0  0  0  0  0
   -2.9770   22.0525  -27.8451 H   0  0  0  0  0  0  0  0  0  0  0  0
   -3.8810   21.8551  -29.3848 H   0  0  0  0  0  0  0  0  0  0  0  0
   -2.0854   21.8051  -29.3848 H   0  0  0  0  0  0  0  0  0  0  0  0
   -2.1042   24.2053  -28.5550 H   0  0  0  0  0  0  0  0  0  0  0  0
   -2.7727   23.9816  -30.2111 H   0  0  0  0  0  0  0  0  0  0  0  0
   -4.1900   25.4000  -28.9450 H   0  0  0  0  0  0  0  0  0  0  0  0
   -5.0150   23.0126  -30.0870 H   0  0  0  0  0  0  0  0  0  0  0  0
   -5.9201   23.2137  -28.5198 H   0  0  0  0  0  0  0  0  0  0  0  0
   -7.3391   24.5144  -29.5923 H   0  0  0  0  0  0  0  0  0  0  0  0
   -5.5680   26.0420  -28.7780 H   0  0  0  0  0  0  0  0  0  0  0  0
   -7.2768   25.0715  -31.9147 H   0  0  0  0  0  0  0  0  0  0  0  0
   -5.4692   24.9766  -31.9536 H   0  0  0  0  0  0  0  0  0  0  0  0
   -8.6050   22.7819  -31.7365 H   0  0  0  0  0  0  0  0  0  0  0  0
   -2.9635   19.4127  -32.9393 H   0  0  0  0  0  0  0  0  0  0  0  0
   -2.1099   21.7043  -32.4588 H   0  0  0  0  0  0  0  0  0  0  0  0
   -3.7087   23.5871  -32.0061 H   0  0  0  0  0  0  0  0  0  0  0  0
   -3.9593   18.3492  -34.6178 H   0  0  0  0  0  0  0  0  0  0  0  0
   -4.6969   16.1018  -35.3757 H   0  0  0  0  0  0  0  0  0  0  0  0
   -6.7294   15.0516  -34.3934 H   0  0  0  0  0  0  0  0  0  0  0  0
   -8.0482   16.2631  -32.6683 H   0  0  0  0  0  0  0  0  0  0  0  0
   -8.3861   18.0078  -31.2671 H   0  0  0  0  0  0  0  0  0  0  0  0
   -6.9715   19.0103  -30.7692 H   0  0  0  0  0  0  0  0  0  0  0  0
   -8.5789   19.7072  -33.2531 H   0  0  0  0  0  0  0  0  0  0  0  0
   -9.1272   20.2195  -31.6125 H   0  0  0  0  0  0  0  0  0  0  0  0
  1  2  1  0
  2  3  1  0
  3  4  1  0
  4  5  1  0
  5  6  1  0
  5  7  1  0
  7  8  1  0
  8  9  1  0
  9 10  2  0
 10 11  1  0
 11 12  2  0
 12 13  1  0
 13 14  2  0
 14 15  1  0
 15 16  2  0
 12 17  1  0
 17 18  2  0
 18 19  1  0
 19 20  2  0
 20 21  1  0
 21 22  2  0
 22 23  1  0
 23 24  1  0
 16  8  1  0
 22 17  1  0
 24 10  1  0
 16 11  1  0
  1 25  1  0
  1 26  1  0
  1 27  1  0
  2 28  1  0
  2 29  1  0
  3 30  1  0
  4 31  1  0
  4 32  1  0
  5 33  1  1
  6 34  1  0
  7 35  1  0
  7 36  1  0
  9 37  1  0
 13 38  1  0
 14 39  1  0
 15 40  1  0
 18 41  1  0
 19 42  1  0
 20 43  1  0
 21 44  1  0
 23 45  1  0
 23 46  1  0
 24 47  1  0
 24 48  1  0
M  END
>  <UniqueID>  (15) 
15

>  <SMILES>  (15) 
CCNC[C@@H](O)Cn1cc2c3c(cccc31)-c1ccccc1CC2

>  <Energy>  (15) 
91.29825942750463

>  <Genealogy>  (15) 
CCNC[C@@H](O)Cn1cc2c3c(cccc31)-c1ccccc1CC2 (chirality)
CCNC[C@@H](O)Cn1cc2c3c(cccc31)-c1ccccc1CC2 (3D coordinates assigned)
CCNC[C@@H](O)Cn1cc2c3c(cccc31)-c1ccccc1CC2 (nonaromatic ring conformer: 91.29825942750463 kcal/mol)

>  <smiles>  (15) 
CCNCC(O)Cn1cc2c3c(cccc31)-c1ccccc1CC2

>  <score_type>  (15) 
oracle

>  <origin>  (15) 
adg

>  <m_score__min__energy>  (15) 
-8.2599999999999998

>  <m_primary>  (15) 
energy

$$$$
15:0
     RDKit          3D

 52 54  0  0  0  0  0  0  0  0999 V2000
   -6.0700   25.3750  -29.9740 C   0  0  0  0  0  0  0  0  0  0  0  0
   -5.8980   24.5020  -31.2120 C   0  0  0  0  0  0  0  0  0  0  0  0
   -6.5570   23.2050  -31.0160 N   0  0  0  0  0  0  0  0  0  0  0  0
   -7.9450   23.2200  -31.5040 C   0  0  0  0  0  0  0  0  0  0  0  0
   -8.5340   21.8110  -31.5650 C   0  0  0  0  0  0  0  0  0  0  0  0
   -7.4890   20.8620  -31.6010 O   0  0  0  0  0  0  0  0  0  0  0  0
   -7.5960   20.0510  -32.7530 C   0  0  0  0  0  0  0  0  0  0  0  0
   -6.2770   20.0640  -33.5550 C   0  0  0  0  0  0  0  0  0  0  0  0
   -5.3230   21.0770  -33.0670 N   0  0  0  0  0  0  0  0  0  0  0  0
   -3.9450   20.5570  -32.9530 C   0  0  0  0  0  0  0  0  0  0  0  0
   -3.2960   20.9100  -31.6030 C   0  0  0  0  0  0  0  0  0  0  0  0
   -4.0780   21.8830  -30.9110 O   0  0  0  0  0  0  0  0  0  0  0  0
   -3.6300   22.6550  -29.8240 C   0  0  0  0  0  0  0  0  0  0  0  0
   -3.9730   22.3500  -28.4750 C   0  0  0  0  0  0  0  0  0  0  0  0
   -3.5040   23.1450  -27.4150 C   0  0  0  0  0  0  0  0  0  0  0  0
   -2.6990   24.2330  -27.7330 C   0  0  0  0  0  0  0  0  0  0  0  0
   -2.3570   24.5370  -29.0310 C   0  0  0  0  0  0  0  0  0  0  0  0
   -2.8070   23.7650  -30.0980 C   0  0  0  0  0  0  0  0  0  0  0  0
   -1.5860   25.6060  -29.0820 O   0  0  0  0  0  0  0  0  0  0  0  0
   -1.4200   26.0080  -27.8380 C   0  0  0  0  0  0  0  0  0  0  0  0
   -0.6820   27.1010  -27.3910 C   0  0  0  0  0  0  0  0  0  0  0  0
   -0.6450   27.3470  -26.0050 C   0  0  0  0  0  0  0  0  0  0  0  0
   -1.3360   26.5040  -25.1060 C   0  0  0  0  0  0  0  0  0  0  0  0
   -2.0720   25.4040  -25.5820 C   0  0  0  0  0  0  0  0  0  0  0  0
   -2.0920   25.1880  -26.9560 C   0  0  0  0  0  0  0  0  0  0  0  0
   -5.9486   24.7587  -29.0710 H   0  0  0  0  0  0  0  0  0  0  0  0
   -5.3116   26.1717  -29.9789 H   0  0  0  0  0  0  0  0  0  0  0  0
   -7.0740   25.8245  -29.9789 H   0  0  0  0  0  0  0  0  0  0  0  0
   -6.3461   25.0094  -32.0790 H   0  0  0  0  0  0  0  0  0  0  0  0
   -4.8247   24.3355  -31.3863 H   0  0  0  0  0  0  0  0  0  0  0  0
   -6.0410   22.4980  -31.5900 H   0  0  0  0  0  0  0  0  0  0  0  0
   -8.5557   23.8333  -30.8251 H   0  0  0  0  0  0  0  0  0  0  0  0
   -7.9481   23.6391  -32.5210 H   0  0  0  0  0  0  0  0  0  0  0  0
   -9.1571   21.6359  -30.6756 H   0  0  0  0  0  0  0  0  0  0  0  0
   -9.1495   21.7112  -32.4712 H   0  0  0  0  0  0  0  0  0  0  0  0
   -7.8227   19.0188  -32.4479 H   0  0  0  0  0  0  0  0  0  0  0  0
   -8.4007   20.4467  -33.3901 H   0  0  0  0  0  0  0  0  0  0  0  0
   -5.8078   19.0722  -33.4763 H   0  0  0  0  0  0  0  0  0  0  0  0
   -6.5246   20.3160  -34.5967 H   0  0  0  0  0  0  0  0  0  0  0  0
   -5.6380   21.4250  -32.1310 H   0  0  0  0  0  0  0  0  0  0  0  0
   -5.3340   21.8960  -33.7180 H   0  0  0  0  0  0  0  0  0  0  0  0
   -3.9705   19.4623  -33.0575 H   0  0  0  0  0  0  0  0  0  0  0  0
   -3.3433   21.0231  -33.7471 H   0  0  0  0  0  0  0  0  0  0  0  0
   -3.2225   20.0009  -30.9881 H   0  0  0  0  0  0  0  0  0  0  0  0
   -2.2943   21.3251  -31.7879 H   0  0  0  0  0  0  0  0  0  0  0  0
   -4.6129   21.4814  -28.2605 H   0  0  0  0  0  0  0  0  0  0  0  0
   -3.7645   22.9146  -26.3714 H   0  0  0  0  0  0  0  0  0  0  0  0
   -2.5264   24.0158  -31.1316 H   0  0  0  0  0  0  0  0  0  0  0  0
   -0.1454   27.7511  -28.0977 H   0  0  0  0  0  0  0  0  0  0  0  0
   -0.0729   28.2034  -25.6186 H   0  0  0  0  0  0  0  0  0  0  0  0
   -1.2981   26.7095  -24.0260 H   0  0  0  0  0  0  0  0  0  0  0  0
   -2.6123   24.7385  -24.8926 H   0  0  0  0  0  0  0  0  0  0  0  0
  1  2  1  0
  2  3  1  0
  3  4  1  0
  4  5  1  0
  5  6  1  0
  6  7  1  0
  7  8  1  0
  8  9  1  0
  9 10  1  0
 10 11  1  0
 11 12  1  0
 12 13  1  0
 13 14  2  0
 14 15  1  0
 15 16  2  0
 16 17  1  0
 17 18  2  0
 17 19  1  0
 19 20  1  0
 20 21  2  0
 21 22  1  0
 22 23  2  0
 23 24  1  0
 24 25  2  0
 18 13  1  0
 25 20  1  0
 25 16  1  0
  1 26  1  0
  1 27  1  0
  1 28  1  0
  2 29  1  0
  2 30  1  0
  3 31  1  0
  4 32  1  0
  4 33  1  0
  5 34  1  0
  5 35  1  0
  7 36  1  0
  7 37  1  0
  8 38  1  0
  8 39  1  0
  9 40  1  0
  9 41  1  0
 10 42  1  0
 10 43  1  0
 11 44  1  0
 11 45  1  0
 14 46  1  0
 15 47  1  0
 18 48  1  0
 21 49  1  0
 22 50  1  0
 23 51  1  0
 24 52  1  0
M  CHG  1   9   1
M  END
>  <UniqueID>  (16) 
16

>  <SMILES>  (16) 
CCNCCOCC[NH2+]CCOc1ccc2c(c1)oc1ccccc12

>  <Energy>  (16) 
90.63924777490767

>  <Genealogy>  (16) 
CCNCCOCC[NH2+]CCOc1ccc2c(c1)oc1ccccc12 (protonated)
CCNCCOCC[NH2+]CCOc1ccc2c(c1)oc1ccccc12 (3D coordinates assigned)
CCNCCOCC[NH2+]CCOc1ccc2c(c1)oc1ccccc12 (optimized conformer: 90.63924777490767 kcal/mol)

>  <smiles>  (16) 
CCNCCOCCNCCOc1ccc2c(c1)oc1ccccc12

>  <score_type>  (16) 
oracle

>  <origin>  (16) 
adg

>  <m_score__min__energy>  (16) 
-6.0099999999999998

>  <m_primary>  (16) 
energy

$$$$
16:0
     RDKit          3D

 68 70  0  0  0  0  0  0  0  0999 V2000
   -3.4860   18.9230  -26.3250 C   0  0  0  0  0  0  0  0  0  0  0  0
   -2.0260   18.9110  -26.7800 C   0  0  0  0  0  0  0  0  0  0  0  0
   -1.6980   20.0800  -27.6300 N   0  0  0  0  0  0  0  0  0  0  0  0
   -0.3890   19.9150  -28.3040 C   0  0  0  0  0  0  0  0  0  0  0  0
   -0.5840   19.7920  -29.8110 C   0  0  0  0  0  0  0  0  0  0  0  0
   -1.8360   21.3970  -26.9540 C   0  0  0  0  0  0  0  0  0  0  0  0
   -2.5730   22.4760  -27.7690 C   0  0  0  0  0  0  0  0  0  0  0  0
   -3.4730   21.8740  -28.6770 O   0  0  0  0  0  0  0  0  0  0  0  0
   -3.0890   22.1250  -30.0170 C   0  0  0  0  0  0  0  0  0  0  0  0
   -3.1420   23.6180  -30.3420 C   0  0  0  0  0  0  0  0  0  0  0  0
   -4.2270   23.8780  -31.2090 O   0  0  0  0  0  0  0  0  0  0  0  0
   -5.4450   23.8970  -30.4870 C   0  0  0  0  0  0  0  0  0  0  0  0
   -6.6260   23.7140  -31.4470 C   0  0  0  0  0  0  0  0  0  0  0  0
   -6.1880   23.0960  -32.7080 N   0  0  0  0  0  0  0  0  0  0  0  0
   -6.0370   21.6590  -32.5440 C   0  0  0  0  0  0  0  0  0  0  0  0
   -7.1330   20.8620  -32.1320 C   0  0  0  0  0  0  0  0  0  0  0  0
   -7.0160   19.4590  -32.1190 C   0  0  0  0  0  0  0  0  0  0  0  0
   -5.7890   18.8570  -32.2860 N   0  0  0  0  0  0  0  0  0  0  0  0
   -5.6260   17.4250  -31.9540 C   0  0  0  0  0  0  0  0  0  0  0  0
   -4.7090   19.5960  -32.7280 C   0  0  0  0  0  0  0  0  0  0  0  0
   -3.4950   18.9690  -33.1120 C   0  0  0  0  0  0  0  0  0  0  0  0
   -2.3850   19.7180  -33.4920 C   0  0  0  0  0  0  0  0  0  0  0  0
   -2.4520   21.1040  -33.5020 C   0  0  0  0  0  0  0  0  0  0  0  0
   -3.6390   21.7500  -33.1730 C   0  0  0  0  0  0  0  0  0  0  0  0
   -4.8000   21.0160  -32.8220 C   0  0  0  0  0  0  0  0  0  0  0  0
   -8.2900   18.6560  -31.8800 C   0  0  0  0  0  0  0  0  0  0  0  0
   -9.4870   19.2940  -32.6050 C   0  0  0  0  0  0  0  0  0  0  0  0
   -9.6390   20.8110  -32.3470 C   0  0  0  0  0  0  0  0  0  0  0  0
   -8.4440   21.4310  -31.6130 C   0  0  0  0  0  0  0  0  0  0  0  0
   -3.5275   18.9233  -25.2258 H   0  0  0  0  0  0  0  0  0  0  0  0
   -3.9829   19.8253  -26.7110 H   0  0  0  0  0  0  0  0  0  0  0  0
   -3.9977   18.0290  -26.7110 H   0  0  0  0  0  0  0  0  0  0  0  0
   -1.3774   18.9251  -25.8917 H   0  0  0  0  0  0  0  0  0  0  0  0
   -1.8645   18.0015  -27.3773 H   0  0  0  0  0  0  0  0  0  0  0  0
    0.2428   20.7896  -28.0896 H   0  0  0  0  0  0  0  0  0  0  0  0
    0.0948   19.0010  -27.9291 H   0  0  0  0  0  0  0  0  0  0  0  0
   -1.4980   19.2155  -30.0166 H   0  0  0  0  0  0  0  0  0  0  0  0
   -0.6765   20.7955  -30.2519 H   0  0  0  0  0  0  0  0  0  0  0  0
    0.2818   19.2762  -30.2519 H   0  0  0  0  0  0  0  0  0  0  0  0
   -2.3887   21.2420  -26.0156 H   0  0  0  0  0  0  0  0  0  0  0  0
   -0.8131   21.7725  -26.8033 H   0  0  0  0  0  0  0  0  0  0  0  0
   -3.1319   23.1301  -27.0836 H   0  0  0  0  0  0  0  0  0  0  0  0
   -1.8351   23.0651  -28.3334 H   0  0  0  0  0  0  0  0  0  0  0  0
   -2.0619   21.7619  -30.1690 H   0  0  0  0  0  0  0  0  0  0  0  0
   -3.7908   21.6007  -30.6823 H   0  0  0  0  0  0  0  0  0  0  0  0
   -3.2719   24.1904  -29.4117 H   0  0  0  0  0  0  0  0  0  0  0  0
   -2.2039   23.9179  -30.8320 H   0  0  0  0  0  0  0  0  0  0  0  0
   -5.4445   23.0803  -29.7501 H   0  0  0  0  0  0  0  0  0  0  0  0
   -5.5446   24.8639  -29.9720 H   0  0  0  0  0  0  0  0  0  0  0  0
   -7.3791   23.0680  -30.9721 H   0  0  0  0  0  0  0  0  0  0  0  0
   -7.0531   24.7028  -31.6705 H   0  0  0  0  0  0  0  0  0  0  0  0
   -5.2970   23.5280  -33.0390 H   0  0  0  0  0  0  0  0  0  0  0  0
   -6.8560   23.3170  -33.4770 H   0  0  0  0  0  0  0  0  0  0  0  0
   -5.6119   17.3013  -30.8611 H   0  0  0  0  0  0  0  0  0  0  0  0
   -6.4648   16.8527  -32.3770 H   0  0  0  0  0  0  0  0  0  0  0  0
   -4.6800   17.0559  -32.3770 H   0  0  0  0  0  0  0  0  0  0  0  0
   -3.4301   17.8709  -33.1093 H   0  0  0  0  0  0  0  0  0  0  0  0
   -1.4538   19.2108  -33.7846 H   0  0  0  0  0  0  0  0  0  0  0  0
   -1.5633   21.6938  -33.7710 H   0  0  0  0  0  0  0  0  0  0  0  0
   -3.6776   22.8493  -33.1854 H   0  0  0  0  0  0  0  0  0  0  0  0
   -8.1458   17.6322  -32.2556 H   0  0  0  0  0  0  0  0  0  0  0  0
   -8.4997   18.6441  -30.8002 H   0  0  0  0  0  0  0  0  0  0  0  0
   -9.3606   19.1375  -33.6864 H   0  0  0  0  0  0  0  0  0  0  0  0
  -10.3934   18.8106  -32.2117 H   0  0  0  0  0  0  0  0  0  0  0  0
   -9.7537   21.3189  -33.3160 H   0  0  0  0  0  0  0  0  0  0  0  0
  -10.5187   20.9418  -31.6997 H   0  0  0  0  0  0  0  0  0  0  0  0
   -8.4509   22.5198  -31.7694 H   0  0  0  0  0  0  0  0  0  0  0  0
   -8.5293   21.1958  -30.5418 H   0  0  0  0  0  0  0  0  0  0  0  0
  1  2  1  0
  2  3  1  0
  3  4  1  0
  4  5  1  0
  3  6  1  0
  6  7  1  0
  7  8  1  0
  8  9  1  0
  9 10  1  0
 10 11  1  0
 11 12  1  0
 12 13  1  0
 13 14  1  0
 14 15  1  0
 15 16  2  0
 16 17  1  0
 17 18  2  0
 18 19  1  0
 18 20  1  0
 20 21  2  0
 21 22  1  0
 22 23  2  0
 23 24  1  0
 24 25  2  0
 17 26  1  0
 26 27  1  0
 27 28  1  0
 28 29  1  0
 25 15  1  0
 29 16  1  0
 25 20  1  0
  1 30  1  0
  1 31  1  0
  1 32  1  0
  2 33  1  0
  2 34  1  0
  4 35  1  0
  4 36  1  0
  5 37  1  0
  5 38  1  0
  5 39  1  0
  6 40  1  0
  6 41  1  0
  7 42  1  0
  7 43  1  0
  9 44  1  0
  9 45  1  0
 10 46  1  0
 10 47  1  0
 12 48  1  0
 12 49  1  0
 13 50  1  0
 13 51  1  0
 14 52  1  0
 14 53  1  0
 19 54  1  0
 19 55  1  0
 19 56  1  0
 21 57  1  0
 22 58  1  0
 23 59  1  0
 24 60  1  0
 26 61  1  0
 26 62  1  0
 27 63  1  0
 27 64  1  0
 28 65  1  0
 28 66  1  0
 29 67  1  0
 29 68  1  0
M  CHG  2  14   1  18   1
M  END
>  <UniqueID>  (17) 
17

>  <SMILES>  (17) 
CCN(CC)CCOCCOCC[NH2+]c1c2c([n+](C)c3ccccc13)CCCC2

>  <Energy>  (17) 
97.17276791721856

>  <Genealogy>  (17) 
CCN(CC)CCOCCOCC[NH2+]c1c2c([n+](C)c3ccccc13)CCCC2 (protonated)
CCN(CC)CCOCCOCC[NH2+]c1c2c([n+](C)c3ccccc13)CCCC2 (3D coordinates assigned)
CCN(CC)CCOCCOCC[NH2+]c1c2c([n+](C)c3ccccc13)CCCC2 (nonaromatic ring conformer: 97.17276791721856 kcal/mol)

>  <smiles>  (17) 
CCN(CC)CCOCCOCCNc1c2c([n+](C)c3ccccc13)CCCC2

>  <score_type>  (17) 
oracle

>  <origin>  (17) 
adg

>  <m_score__min__energy>  (17) 
-8.6500000000000004

>  <m_primary>  (17) 
energy

$$$$
17:0
     RDKit          3D

 37 38  0  0  0  0  0  0  0  0999 V2000
   -3.4750   22.2890  -31.9970 C   0  0  0  0  0  0  0  0  0  0  0  0
   -4.9330   21.9480  -31.9370 C   0  0  0  0  0  0  0  0  0  0  0  0
   -5.4430   20.6810  -32.1990 C   0  0  0  0  0  0  0  0  0  0  0  0
   -6.8110   20.8080  -32.0920 C   0  0  0  0  0  0  0  0  0  0  0  0
   -7.8250   19.8620  -32.2590 C   0  0  0  0  0  0  0  0  0  0  0  0
   -7.4400   18.0410  -32.6960 Br  0  0  0  0  0  0  0  0  0  0  0  0
   -9.1550   20.2910  -32.0990 C   0  0  0  0  0  0  0  0  0  0  0  0
   -9.4390   21.6350  -31.7800 C   0  0  0  0  0  0  0  0  0  0  0  0
   -8.3990   22.5660  -31.6190 C   0  0  0  0  0  0  0  0  0  0  0  0
   -7.0820   22.1200  -31.7840 C   0  0  0  0  0  0  0  0  0  0  0  0
   -5.9370   22.8340  -31.6920 N   0  0  0  0  0  0  0  0  0  0  0  0
   -5.8040   24.2740  -31.4260 C   0  0  0  0  0  0  0  0  0  0  0  0
   -6.3790   24.6610  -30.0480 C   0  0  0  0  0  0  0  0  0  0  0  0
   -5.3560   24.7600  -28.9860 N   0  0  0  0  0  0  0  0  0  0  0  0
   -4.2140   23.8310  -29.1700 C   0  0  0  0  0  0  0  0  0  0  0  0
   -2.8630   24.5610  -29.0480 C   0  0  0  0  0  0  0  0  0  0  0  0
   -4.2750   22.7010  -28.1310 C   0  0  0  0  0  0  0  0  0  0  0  0
   -3.0778   22.3819  -30.9754 H   0  0  0  0  0  0  0  0  0  0  0  0
   -2.9339   21.4932  -32.5298 H   0  0  0  0  0  0  0  0  0  0  0  0
   -3.3430   23.2423  -32.5298 H   0  0  0  0  0  0  0  0  0  0  0  0
   -4.8749   19.7705  -32.4404 H   0  0  0  0  0  0  0  0  0  0  0  0
   -9.9792   19.5732  -32.2236 H   0  0  0  0  0  0  0  0  0  0  0  0
  -10.4834   21.9572  -31.6562 H   0  0  0  0  0  0  0  0  0  0  0  0
   -8.6134   23.6158  -31.3703 H   0  0  0  0  0  0  0  0  0  0  0  0
   -4.7380   24.5438  -31.4548 H   0  0  0  0  0  0  0  0  0  0  0  0
   -6.3718   24.8164  -32.1963 H   0  0  0  0  0  0  0  0  0  0  0  0
   -6.8787   25.6365  -30.1413 H   0  0  0  0  0  0  0  0  0  0  0  0
   -7.0739   23.8611  -29.7526 H   0  0  0  0  0  0  0  0  0  0  0  0
   -4.9990   25.7440  -28.9660 H   0  0  0  0  0  0  0  0  0  0  0  0
   -5.8120   24.6000  -28.0590 H   0  0  0  0  0  0  0  0  0  0  0  0
   -4.2919   23.4109  -30.1836 H   0  0  0  0  0  0  0  0  0  0  0  0
   -2.6137   24.6957  -27.9851 H   0  0  0  0  0  0  0  0  0  0  0  0
   -2.0783   23.9641  -29.5359 H   0  0  0  0  0  0  0  0  0  0  0  0
   -2.9323   25.5445  -29.5359 H   0  0  0  0  0  0  0  0  0  0  0  0
   -4.2518   23.1317  -27.1191 H   0  0  0  0  0  0  0  0  0  0  0  0
   -5.2053   22.1295  -28.2650 H   0  0  0  0  0  0  0  0  0  0  0  0
   -3.4116   22.0327  -28.2650 H   0  0  0  0  0  0  0  0  0  0  0  0
  1  2  1  0
  2  3  2  0
  3  4  1  0
  4  5  2  0
  5  6  1  0
  5  7  1  0
  7  8  2  0
  8  9  1  0
  9 10  2  0
 10 11  1  0
 11 12  1  0
 12 13  1  0
 13 14  1  0
 14 15  1  0
 15 16  1  0
 15 17  1  0
 11  2  1  0
 10  4  1  0
  1 18  1  0
  1 19  1  0
  1 20  1  0
  3 21  1  0
  7 22  1  0
  8 23  1  0
  9 24  1  0
 12 25  1  0
 12 26  1  0
 13 27  1  0
 13 28  1  0
 14 29  1  0
 14 30  1  0
 15 31  1  0
 16 32  1  0
 16 33  1  0
 16 34  1  0
 17 35  1  0
 17 36  1  0
 17 37  1  0
M  CHG  1  14   1
M  END
>  <UniqueID>  (18) 
18

>  <SMILES>  (18) 
Cc1cc2c(Br)cccc2n1CC[NH2+]C(C)C

>  <Energy>  (18) 
66.09089189040756

>  <Genealogy>  (18) 
Cc1cc2c(Br)cccc2n1CC[NH2+]C(C)C (protonated)
Cc1cc2c(Br)cccc2n1CC[NH2+]C(C)C (3D coordinates assigned)
Cc1cc2c(Br)cccc2n1CC[NH2+]C(C)C (optimized conformer: 66.09089189040756 kcal/mol)

>  <smiles>  (18) 
Cc1cc2c(Br)cccc2n1CCNC(C)C

>  <score_type>  (18) 
oracle

>  <origin>  (18) 
adg

>  <m_score__min__energy>  (18) 
-6.8499999999999996

>  <m_primary>  (18) 
energy

$$$$
18:0
     RDKit          3D

 47 48  0  0  0  0  0  0  0  0999 V2000
   -1.1180   25.7560  -27.6730 C   0  0  0  0  0  0  0  0  0  0  0  0
   -0.9560   24.6880  -28.7570 C   0  0  0  0  0  0  0  0  0  0  0  0
   -2.1920   23.9240  -29.0540 N   0  0  0  0  0  0  0  0  0  0  0  0
   -3.3060   24.0980  -28.0960 C   0  0  0  0  0  0  0  0  0  0  0  0
   -4.0570   22.7890  -27.8590 C   0  0  0  0  0  0  0  0  0  0  0  0
   -1.9650   22.5310  -29.5120 C   0  0  0  0  0  0  0  0  0  0  0  0
   -2.6220   22.1840  -30.8660 C   0  0  0  0  0  0  0  0  0  0  0  0
   -3.5260   23.2530  -31.2860 N   0  0  0  0  0  0  0  0  0  0  0  0
   -4.9390   23.0330  -31.4230 C   0  0  0  0  0  0  0  0  0  0  0  0
   -5.8450   23.9300  -30.8260 C   0  0  0  0  0  0  0  0  0  0  0  0
   -5.3920   25.1220  -30.1550 N   0  0  0  0  0  0  0  0  0  0  0  0
   -6.1360   25.7060  -29.3410 O   0  0  0  0  0  0  0  0  0  0  0  0
   -4.1940   25.7080  -30.4900 O   0  0  0  0  0  0  0  0  0  0  0  0
   -7.2170   23.6740  -30.9150 C   0  0  0  0  0  0  0  0  0  0  0  0
   -7.7130   22.5450  -31.5760 C   0  0  0  0  0  0  0  0  0  0  0  0
   -9.1210   22.5030  -31.8390 N   0  0  0  0  0  0  0  0  0  0  0  0
   -9.8760   21.8680  -31.0750 O   0  0  0  0  0  0  0  0  0  0  0  0
   -9.6670   23.4230  -32.7040 O   0  0  0  0  0  0  0  0  0  0  0  0
   -6.8110   21.5800  -32.1140 C   0  0  0  0  0  0  0  0  0  0  0  0
   -5.4200   21.8900  -32.1040 C   0  0  0  0  0  0  0  0  0  0  0  0
   -4.5340   21.0470  -32.7930 C   0  0  0  0  0  0  0  0  0  0  0  0
   -5.0040   19.9090  -33.4280 C   0  0  0  0  0  0  0  0  0  0  0  0
   -6.3450   19.5710  -33.3230 C   0  0  0  0  0  0  0  0  0  0  0  0
   -7.2230   20.3590  -32.6280 N   0  0  0  0  0  0  0  0  0  0  0  0
   -8.5610   19.7920  -32.3930 C   0  0  0  0  0  0  0  0  0  0  0  0
   -1.0466   25.2856  -26.6812 H   0  0  0  0  0  0  0  0  0  0  0  0
   -0.3239   26.5097  -27.7793 H   0  0  0  0  0  0  0  0  0  0  0  0
   -2.0999   26.2404  -27.7793 H   0  0  0  0  0  0  0  0  0  0  0  0
   -0.6274   25.1840  -29.6822 H   0  0  0  0  0  0  0  0  0  0  0  0
   -0.2225   23.9624  -28.3756 H   0  0  0  0  0  0  0  0  0  0  0  0
   -2.8998   24.4545  -27.1379 H   0  0  0  0  0  0  0  0  0  0  0  0
   -4.0124   24.8267  -28.5202 H   0  0  0  0  0  0  0  0  0  0  0  0
   -4.1572   22.6144  -26.7776 H   0  0  0  0  0  0  0  0  0  0  0  0
   -5.0563   22.8520  -28.3144 H   0  0  0  0  0  0  0  0  0  0  0  0
   -3.4983   21.9581  -28.3144 H   0  0  0  0  0  0  0  0  0  0  0  0
   -0.8805   22.3734  -29.6065 H   0  0  0  0  0  0  0  0  0  0  0  0
   -2.4325   21.8762  -28.7619 H   0  0  0  0  0  0  0  0  0  0  0  0
   -1.8375   22.0540  -31.6261 H   0  0  0  0  0  0  0  0  0  0  0  0
   -3.1990   21.2543  -30.7532 H   0  0  0  0  0  0  0  0  0  0  0  0
   -3.1280   24.1720  -31.5860 H   0  0  0  0  0  0  0  0  0  0  0  0
   -7.9245   24.3785  -30.4534 H   0  0  0  0  0  0  0  0  0  0  0  0
   -3.4620   21.2910  -32.8289 H   0  0  0  0  0  0  0  0  0  0  0  0
   -4.3180   19.2775  -34.0117 H   0  0  0  0  0  0  0  0  0  0  0  0
   -6.7099   18.6530  -33.8069 H   0  0  0  0  0  0  0  0  0  0  0  0
   -8.7418   19.7154  -31.3107 H   0  0  0  0  0  0  0  0  0  0  0  0
   -9.3209   20.4454  -32.8464 H   0  0  0  0  0  0  0  0  0  0  0  0
   -8.6201   18.7915  -32.8464 H   0  0  0  0  0  0  0  0  0  0  0  0
  1  2  1  0
  2  3  1  0
  3  4  1  0
  4  5  1  0
  3  6  1  0
  6  7  1  0
  7  8  1  0
  8  9  1  0
  9 10  2  0
 10 11  1  0
 11 12  2  0
 11 13  1  0
 10 14  1  0
 14 15  2  0
 15 16  1  0
 16 17  2  0
 16 18  1  0
 15 19  1  0
 19 20  2  0
 20 21  1  0
 21 22  2  0
 22 23  1  0
 23 24  2  0
 24 25  1  0
 20  9  1  0
 24 19  1  0
  1 26  1  0
  1 27  1  0
  1 28  1  0
  2 29  1  0
  2 30  1  0
  4 31  1  0
  4 32  1  0
  5 33  1  0
  5 34  1  0
  5 35  1  0
  6 36  1  0
  6 37  1  0
  7 38  1  0
  7 39  1  0
  8 40  1  0
 14 41  1  0
 21 42  1  0
 22 43  1  0
 23 44  1  0
 25 45  1  0
 25 46  1  0
 25 47  1  0
M  CHG  5  11   1  13  -1  16   1  18  -1  24   1
M  END
>  <UniqueID>  (19) 
19

>  <SMILES>  (19) 
CCN(CC)CCNc1c([N+](=O)[O-])cc([N+](=O)[O-])c2c1ccc[n+]2C

>  <Energy>  (19) 
83.11765984743522

>  <Genealogy>  (19) 
CCN(CC)CCNc1c([N+](=O)[O-])cc([N+](=O)[O-])c2c1ccc[n+]2C (3D coordinates assigned)
CCN(CC)CCNc1c([N+](=O)[O-])cc([N+](=O)[O-])c2c1ccc[n+]2C (optimized conformer: 83.11765984743522 kcal/mol)

>  <smiles>  (19) 
CCN(CC)CCNc1c([N+](=O)[O-])cc([N+](=O)[O-])c2c1ccc[n+]2C

>  <score_type>  (19) 
oracle

>  <origin>  (19) 
adg

>  <m_score__min__energy>  (19) 
-7.8499999999999996

>  <m_primary>  (19) 
energy

$$$$
19:0
     RDKit          3D

 46 49  0  0  0  0  0  0  0  0999 V2000
   -6.3770   16.7230  -34.4620 C   0  0  0  0  0  0  0  0  0  0  0  0
   -5.4300   17.6750  -33.8940 N   0  0  0  0  0  0  0  0  0  0  0  0
   -4.1100   17.5540  -33.9870 N   0  0  0  0  0  0  0  0  0  0  0  0
   -3.5550   18.6290  -33.3760 C   0  0  0  0  0  0  0  0  0  0  0  0
   -2.1390   18.8570  -33.2950 N   0  0  0  0  0  0  0  0  0  0  0  0
   -1.5080   19.0970  -31.9840 C   0  0  0  0  0  0  0  0  0  0  0  0
   -0.3390   20.1080  -32.0420 C   0  0  0  0  0  0  0  0  0  0  0  0
   -0.6740   21.4630  -32.6900 C   0  0  0  0  0  0  0  0  0  0  0  0
   -1.2650   21.3370  -34.0350 N   0  0  0  0  0  0  0  0  0  0  0  0
   -0.7260   20.2380  -34.8590 C   0  0  0  0  0  0  0  0  0  0  0  0
   -1.3790   18.8770  -34.5580 C   0  0  0  0  0  0  0  0  0  0  0  0
   -4.5610   19.4590  -32.9110 C   0  0  0  0  0  0  0  0  0  0  0  0
   -4.5560   20.7120  -32.3000 C   0  0  0  0  0  0  0  0  0  0  0  0
   -5.8020   21.3090  -31.9940 C   0  0  0  0  0  0  0  0  0  0  0  0
   -5.8510   22.6380  -31.3320 C   0  0  0  0  0  0  0  0  0  0  0  0
   -4.6650   23.3360  -31.0350 C   0  0  0  0  0  0  0  0  0  0  0  0
   -4.7160   24.5850  -30.4100 C   0  0  0  0  0  0  0  0  0  0  0  0
   -5.9480   25.1510  -30.0740 C   0  0  0  0  0  0  0  0  0  0  0  0
   -7.1320   24.4680  -30.3620 C   0  0  0  0  0  0  0  0  0  0  0  0
   -7.0870   23.2180  -30.9860 C   0  0  0  0  0  0  0  0  0  0  0  0
   -7.0040   20.6300  -32.3350 C   0  0  0  0  0  0  0  0  0  0  0  0
   -6.9700   19.3790  -32.9790 C   0  0  0  0  0  0  0  0  0  0  0  0
   -5.7220   18.8240  -33.2530 C   0  0  0  0  0  0  0  0  0  0  0  0
   -6.9001   16.1971  -33.6497 H   0  0  0  0  0  0  0  0  0  0  0  0
   -7.1094   17.2602  -35.0824 H   0  0  0  0  0  0  0  0  0  0  0  0
   -5.8359   15.9934  -35.0824 H   0  0  0  0  0  0  0  0  0  0  0  0
   -2.2721   19.4863  -31.2951 H   0  0  0  0  0  0  0  0  0  0  0  0
   -1.0916   18.1376  -31.6430 H   0  0  0  0  0  0  0  0  0  0  0  0
   -0.0021   20.2977  -31.0122 H   0  0  0  0  0  0  0  0  0  0  0  0
    0.4304   19.6476  -32.6792 H   0  0  0  0  0  0  0  0  0  0  0  0
   -1.3890   21.9921  -32.0428 H   0  0  0  0  0  0  0  0  0  0  0  0
    0.2718   22.0136  -32.8004 H   0  0  0  0  0  0  0  0  0  0  0  0
   -1.1140   22.2410  -34.5410 H   0  0  0  0  0  0  0  0  0  0  0  0
   -2.2980   21.2000  -33.9390 H   0  0  0  0  0  0  0  0  0  0  0  0
   -0.8953   20.4802  -35.9186 H   0  0  0  0  0  0  0  0  0  0  0  0
    0.3442   20.1464  -34.6216 H   0  0  0  0  0  0  0  0  0  0  0  0
   -2.0653   18.6302  -35.3815 H   0  0  0  0  0  0  0  0  0  0  0  0
   -0.5662   18.1426  -34.4587 H   0  0  0  0  0  0  0  0  0  0  0  0
   -3.6107   21.2220  -32.0626 H   0  0  0  0  0  0  0  0  0  0  0  0
   -3.6917   22.8954  -31.2966 H   0  0  0  0  0  0  0  0  0  0  0  0
   -3.7842   25.1233  -30.1822 H   0  0  0  0  0  0  0  0  0  0  0  0
   -5.9858   26.1344  -29.5827 H   0  0  0  0  0  0  0  0  0  0  0  0
   -8.1017   24.9147  -30.0972 H   0  0  0  0  0  0  0  0  0  0  0  0
   -8.0227   22.6840  -31.2082 H   0  0  0  0  0  0  0  0  0  0  0  0
   -7.9738   21.0888  -32.0921 H   0  0  0  0  0  0  0  0  0  0  0  0
   -7.8977   18.8571  -33.2566 H   0  0  0  0  0  0  0  0  0  0  0  0
  1  2  1  0
  2  3  1  0
  3  4  2  0
  4  5  1  0
  5  6  1  0
  6  7  1  0
  7  8  1  0
  8  9  1  0
  9 10  1  0
 10 11  1  0
  4 12  1  0
 12 13  2  0
 13 14  1  0
 14 15  1  0
 15 16  2  0
 16 17  1  0
 17 18  2  0
 18 19  1  0
 19 20  2  0
 14 21  2  0
 21 22  1  0
 22 23  2  0
 23  2  1  0
 11  5  1  0
 23 12  1  0
 20 15  1  0
  1 24  1  0
  1 25  1  0
  1 26  1  0
  6 27  1  0
  6 28  1  0
  7 29  1  0
  7 30  1  0
  8 31  1  0
  8 32  1  0
  9 33  1  0
  9 34  1  0
 10 35  1  0
 10 36  1  0
 11 37  1  0
 11 38  1  0
 13 39  1  0
 16 40  1  0
 17 41  1  0
 18 42  1  0
 19 43  1  0
 20 44  1  0
 21 45  1  0
 22 46  1  0
M  CHG  1   9   1
M  END
>  <UniqueID>  (20) 
20

>  <SMILES>  (20) 
Cn1nc(N2CCC[NH2+]CC2)c2cc(-c3ccccc3)ccc21

>  <Energy>  (20) 
105.83658522366028

>  <Genealogy>  (20) 
Cn1nc(N2CCC[NH2+]CC2)c2cc(-c3ccccc3)ccc21 (protonated)
Cn1nc(N2CCC[NH2+]CC2)c2cc(-c3ccccc3)ccc21 (3D coordinates assigned)
Cn1nc(N2CCC[NH2+]CC2)c2cc(-c3ccccc3)ccc21 (nonaromatic ring conformer: 105.83658522366028 kcal/mol)

>  <smiles>  (20) 
Cn1nc(N2CCCNCC2)c2cc(-c3ccccc3)ccc21

>  <score_type>  (20) 
oracle

>  <origin>  (20) 
adg

>  <m_score__min__energy>  (20) 
-5.7599999999999998

>  <m_primary>  (20) 
energy

$$$$
20:0
     RDKit          3D

 67 69  0  0  0  0  0  0  0  0999 V2000
   -1.2200   26.8280  -25.9730 C   0  0  0  0  0  0  0  0  0  0  0  0
   -2.2960   25.8090  -25.5640 C   0  0  0  0  0  0  0  0  0  0  0  0
   -3.0570   25.2350  -26.7030 N   0  0  2  0  0  0  0  0  0  0  0  0
   -4.4510   24.9200  -26.3220 C   0  0  0  0  0  0  0  0  0  0  0  0
   -2.3590   24.0680  -27.3000 C   0  0  0  0  0  0  0  0  0  0  0  0
   -1.8810   24.3240  -28.7400 C   0  0  0  0  0  0  0  0  0  0  0  0
   -2.7630   25.2180  -29.3850 O   0  0  0  0  0  0  0  0  0  0  0  0
   -3.9900   24.5710  -29.6460 C   0  0  0  0  0  0  0  0  0  0  0  0
   -3.8040   23.5440  -30.7670 C   0  0  0  0  0  0  0  0  0  0  0  0
   -4.0560   22.0900  -30.3260 C   0  0  0  0  0  0  0  0  0  0  0  0
   -3.4210   21.0030  -31.2200 C   0  0  0  0  0  0  0  0  0  0  0  0
   -3.2270   21.3910  -32.6970 C   0  0  0  0  0  0  0  0  0  0  0  0
   -4.4920   21.4200  -33.4390 N   0  0  0  0  0  0  0  0  0  0  0  0
   -5.6580   20.6830  -33.0350 C   0  0  0  0  0  0  0  0  0  0  0  0
   -5.6740   19.2850  -33.1590 C   0  0  0  0  0  0  0  0  0  0  0  0
   -6.8520   18.5720  -32.8730 C   0  0  0  0  0  0  0  0  0  0  0  0
   -7.9410   19.2110  -32.3170 N   0  0  0  0  0  0  0  0  0  0  0  0
   -9.0580   18.4140  -31.7670 C   0  0  0  0  0  0  0  0  0  0  0  0
   -7.9700   20.5910  -32.2470 C   0  0  0  0  0  0  0  0  0  0  0  0
   -9.1440   21.2950  -31.8750 C   0  0  0  0  0  0  0  0  0  0  0  0
   -9.1340   22.6810  -31.7270 C   0  0  0  0  0  0  0  0  0  0  0  0
   -7.9620   23.3980  -31.9360 C   0  0  0  0  0  0  0  0  0  0  0  0
   -6.8030   22.7410  -32.3420 C   0  0  0  0  0  0  0  0  0  0  0  0
   -6.8040   21.3460  -32.5570 C   0  0  0  0  0  0  0  0  0  0  0  0
   -6.8620   17.0920  -33.2210 C   0  0  0  0  0  0  0  0  0  0  0  0
   -6.1750   16.8600  -34.5740 C   0  0  0  0  0  0  0  0  0  0  0  0
   -4.7520   17.4540  -34.6510 C   0  0  0  0  0  0  0  0  0  0  0  0
   -4.4430   18.4990  -33.5650 C   0  0  0  0  0  0  0  0  0  0  0  0
   -0.7630   27.2608  -25.0708 H   0  0  0  0  0  0  0  0  0  0  0  0
   -0.4460   26.3241  -26.5704 H   0  0  0  0  0  0  0  0  0  0  0  0
   -1.6811   27.6283  -26.5704 H   0  0  0  0  0  0  0  0  0  0  0  0
   -1.8037   24.9843  -25.0278 H   0  0  0  0  0  0  0  0  0  0  0  0
   -3.0224   26.3504  -24.9401 H   0  0  0  0  0  0  0  0  0  0  0  0
   -3.1010   25.9930  -27.4260 H   0  0  0  0  0  0  0  0  0  0  0  0
   -4.5360   24.9008  -25.2255 H   0  0  0  0  0  0  0  0  0  0  0  0
   -5.1248   25.6885  -26.7286 H   0  0  0  0  0  0  0  0  0  0  0  0
   -4.7289   23.9364  -26.7286 H   0  0  0  0  0  0  0  0  0  0  0  0
   -1.4842   23.8273  -26.6781 H   0  0  0  0  0  0  0  0  0  0  0  0
   -3.0793   23.2374  -27.3357 H   0  0  0  0  0  0  0  0  0  0  0  0
   -0.8712   24.7598  -28.7175 H   0  0  0  0  0  0  0  0  0  0  0  0
   -1.8618   23.3721  -29.2909 H   0  0  0  0  0  0  0  0  0  0  0  0
   -4.3347   24.0596  -28.7351 H   0  0  0  0  0  0  0  0  0  0  0  0
   -4.7365   25.3171  -29.9558 H   0  0  0  0  0  0  0  0  0  0  0  0
   -4.5050   23.7865  -31.5793 H   0  0  0  0  0  0  0  0  0  0  0  0
   -2.7530   23.6045  -31.0858 H   0  0  0  0  0  0  0  0  0  0  0  0
   -3.6535   21.9699  -29.3094 H   0  0  0  0  0  0  0  0  0  0  0  0
   -5.1434   21.9387  -30.3941 H   0  0  0  0  0  0  0  0  0  0  0  0
   -2.4342   20.7543  -30.8023 H   0  0  0  0  0  0  0  0  0  0  0  0
   -4.1276   20.1600  -31.2191 H   0  0  0  0  0  0  0  0  0  0  0  0
   -2.7680   22.3896  -32.7424 H   0  0  0  0  0  0  0  0  0  0  0  0
   -2.5833   20.6296  -33.1617 H   0  0  0  0  0  0  0  0  0  0  0  0
   -4.5720   22.0620  -34.2590 H   0  0  0  0  0  0  0  0  0  0  0  0
   -9.0210   18.4404  -30.6679 H   0  0  0  0  0  0  0  0  0  0  0  0
  -10.0138   18.8354  -32.1119 H   0  0  0  0  0  0  0  0  0  0  0  0
   -8.9704   17.3731  -32.1119 H   0  0  0  0  0  0  0  0  0  0  0  0
  -10.0767   20.7385  -31.7006 H   0  0  0  0  0  0  0  0  0  0  0  0
  -10.0566   23.2089  -31.4439 H   0  0  0  0  0  0  0  0  0  0  0  0
   -7.9497   24.4869  -31.7804 H   0  0  0  0  0  0  0  0  0  0  0  0
   -5.8775   23.3151  -32.4967 H   0  0  0  0  0  0  0  0  0  0  0  0
   -6.3260   16.5318  -32.4407 H   0  0  0  0  0  0  0  0  0  0  0  0
   -7.9041   16.7455  -33.2839 H   0  0  0  0  0  0  0  0  0  0  0  0
   -6.1101   15.7762  -34.7504 H   0  0  0  0  0  0  0  0  0  0  0  0
   -6.7810   17.3708  -35.3368 H   0  0  0  0  0  0  0  0  0  0  0  0
   -4.0292   16.6307  -34.5526 H   0  0  0  0  0  0  0  0  0  0  0  0
   -4.6791   17.9733  -35.6180 H   0  0  0  0  0  0  0  0  0  0  0  0
   -4.0448   17.9822  -32.6794 H   0  0  0  0  0  0  0  0  0  0  0  0
   -3.7107   19.2084  -33.9780 H   0  0  0  0  0  0  0  0  0  0  0  0
  1  2  1  0
  2  3  1  0
  3  4  1  0
  3  5  1  0
  5  6  1  0
  6  7  1  0
  7  8  1  0
  8  9  1  0
  9 10  1  0
 10 11  1  0
 11 12  1  0
 12 13  1  0
 13 14  1  0
 14 15  2  0
 15 16  1  0
 16 17  2  0
 17 18  1  0
 17 19  1  0
 19 20  2  0
 20 21  1  0
 21 22  2  0
 22 23  1  0
 23 24  2  0
 16 25  1  0
 25 26  1  0
 26 27  1  0
 27 28  1  0
 24 14  1  0
 28 15  1  0
 24 19  1  0
  1 29  1  0
  1 30  1  0
  1 31  1  0
  2 32  1  0
  2 33  1  0
  3 34  1  6
  4 35  1  0
  4 36  1  0
  4 37  1  0
  5 38  1  0
  5 39  1  0
  6 40  1  0
  6 41  1  0
  8 42  1  0
  8 43  1  0
  9 44  1  0
  9 45  1  0
 10 46  1  0
 10 47  1  0
 11 48  1  0
 11 49  1  0
 12 50  1  0
 12 51  1  0
 13 52  1  0
 18 53  1  0
 18 54  1  0
 18 55  1  0
 20 56  1  0
 21 57  1  0
 22 58  1  0
 23 59  1  0
 25 60  1  0
 25 61  1  0
 26 62  1  0
 26 63  1  0
 27 64  1  0
 27 65  1  0
 28 66  1  0
 28 67  1  0
M  CHG  2   3   1  17   1
M  END
>  <UniqueID>  (21) 
21

>  <SMILES>  (21) 
CC[N@H+](C)CCOCCCCCNc1c2c([n+](C)c3ccccc13)CCCC2

>  <Energy>  (21) 
88.13339269632776

>  <Genealogy>  (21) 
CC[NH+](C)CCOCCCCCNc1c2c([n+](C)c3ccccc13)CCCC2 (protonated)
CC[N@H+](C)CCOCCCCCNc1c2c([n+](C)c3ccccc13)CCCC2 (chirality)
CC[N@H+](C)CCOCCCCCNc1c2c([n+](C)c3ccccc13)CCCC2 (3D coordinates assigned)
CC[N@H+](C)CCOCCCCCNc1c2c([n+](C)c3ccccc13)CCCC2 (nonaromatic ring conformer: 88.13339269632776 kcal/mol)

>  <smiles>  (21) 
CCN(C)CCOCCCCCNc1c2c([n+](C)c3ccccc13)CCCC2

>  <score_type>  (21) 
oracle

>  <origin>  (21) 
adg

>  <m_score__min__energy>  (21) 
-8.7799999999999994

>  <m_primary>  (21) 
energy

$$$$
