0:0
     RDKit          3D

 41 43  0  0  0  0  0  0  0  0999 V2000
   -4.1960   24.9120  -26.4320 C   0  0  0  0  0  0  0  0  0  0  0  0
   -2.7940   25.2520  -26.6510 N   0  0  0  0  0  0  0  0  0  0  0  0
   -2.0240   25.9960  -25.8320 C   0  0  0  0  0  0  0  0  0  0  0  0
   -0.7580   26.1230  -26.3680 C   0  0  0  0  0  0  0  0  0  0  0  0
   -0.7600   25.4340  -27.5650 C   0  0  0  0  0  0  0  0  0  0  0  0
   -2.0340   24.9220  -27.7170 C   0  0  0  0  0  0  0  0  0  0  0  0
   -2.4830   24.0580  -28.8560 C   0  0  0  0  0  0  0  0  0  0  0  0
   -3.0360   24.8990  -29.9080 N   0  0  0  0  0  0  0  0  0  0  0  0
   -4.4310   24.9930  -30.2180 C   0  0  0  0  0  0  0  0  0  0  0  0
   -4.7790   25.6720  -31.2210 O   0  0  0  0  0  0  0  0  0  0  0  0
   -5.4660   24.2550  -29.3990 C   0  0  0  0  0  0  0  0  0  0  0  0
   -6.8900   24.4300  -29.9170 C   0  0  0  0  0  0  0  0  0  0  0  0
   -7.0300   23.0070  -30.2480 N   0  0  0  0  0  0  0  0  0  0  0  0
   -7.2510   22.7260  -31.6930 C   0  0  0  0  0  0  0  0  0  0  0  0
   -7.5570   21.2840  -32.0780 C   0  0  0  0  0  0  0  0  0  0  0  0
   -8.7660   20.6810  -31.6800 C   0  0  0  0  0  0  0  0  0  0  0  0
   -9.0460   19.3560  -32.0210 C   0  0  0  0  0  0  0  0  0  0  0  0
   -8.1110   18.6030  -32.7330 C   0  0  0  0  0  0  0  0  0  0  0  0
   -6.8840   19.1690  -33.0870 C   0  0  0  0  0  0  0  0  0  0  0  0
   -6.5980   20.4970  -32.7510 C   0  0  0  0  0  0  0  0  0  0  0  0
   -5.3830   21.0080  -33.0740 F   0  0  0  0  0  0  0  0  0  0  0  0
   -5.6680   22.7810  -29.7450 C   0  0  0  0  0  0  0  0  0  0  0  0
   -4.3970   24.8632  -25.3516 H   0  0  0  0  0  0  0  0  0  0  0  0
   -4.8356   25.6811  -26.8896 H   0  0  0  0  0  0  0  0  0  0  0  0
   -4.4123   23.9354  -26.8896 H   0  0  0  0  0  0  0  0  0  0  0  0
   -2.3547   26.4359  -24.8796 H   0  0  0  0  0  0  0  0  0  0  0  0
    0.0893   26.6681  -25.9266 H   0  0  0  0  0  0  0  0  0  0  0  0
    0.0850   25.3163  -28.2594 H   0  0  0  0  0  0  0  0  0  0  0  0
   -1.6249   23.4935  -29.2496 H   0  0  0  0  0  0  0  0  0  0  0  0
   -3.2516   23.3541  -28.5043 H   0  0  0  0  0  0  0  0  0  0  0  0
   -5.1239   24.5799  -28.4053 H   0  0  0  0  0  0  0  0  0  0  0  0
   -7.5965   24.7705  -29.1457 H   0  0  0  0  0  0  0  0  0  0  0  0
   -7.0787   25.1765  -30.7026 H   0  0  0  0  0  0  0  0  0  0  0  0
   -8.0971   23.3451  -32.0259 H   0  0  0  0  0  0  0  0  0  0  0  0
   -6.2906   22.9538  -32.1786 H   0  0  0  0  0  0  0  0  0  0  0  0
   -9.4965   21.2591  -31.0951 H   0  0  0  0  0  0  0  0  0  0  0  0
  -10.0054   18.9048  -31.7279 H   0  0  0  0  0  0  0  0  0  0  0  0
   -8.3402   17.5648  -33.0151 H   0  0  0  0  0  0  0  0  0  0  0  0
   -6.1402   18.5689  -33.6316 H   0  0  0  0  0  0  0  0  0  0  0  0
   -5.6300   22.1169  -28.8689 H   0  0  0  0  0  0  0  0  0  0  0  0
   -4.9365   22.2853  -30.4001 H   0  0  0  0  0  0  0  0  0  0  0  0
  1  2  1  0
  2  3  1  0
  3  4  2  0
  4  5  1  0
  5  6  2  0
  6  7  1  0
  7  8  1  0
  8  9  1  0
  9 10  2  0
  9 11  1  0
 11 12  1  0
 12 13  1  0
 13 14  1  0
 14 15  1  0
 15 16  2  0
 16 17  1  0
 17 18  2  0
 18 19  1  0
 19 20  2  0
 20 21  1  0
 13 22  1  0
  6  2  1  0
 22 11  1  0
 20 15  1  0
  1 23  1  0
  1 24  1  0
  1 25  1  0
  3 26  1  0
  4 27  1  0
  5 28  1  0
  7 29  1  0
  7 30  1  0
 11 31  1  0
 12 32  1  0
 12 33  1  0
 14 34  1  0
 14 35  1  0
 16 36  1  0
 17 37  1  0
 18 38  1  0
 19 39  1  0
 22 40  1  0
 22 41  1  0
M  CHG  1   8  -1
M  END
>  <UniqueID>  (1) 
1

>  <SMILES>  (1) 
Cn1cccc1C[N-]C(=O)C1CN(Cc2ccccc2F)C1

>  <Energy>  (1) 
141.5945356437314

>  <Genealogy>  (1) 
Cn1cccc1C[N-]C(=O)C1CN(Cc2ccccc2F)C1 (protonated)
Cn1cccc1C[N-]C(=O)C1CN(Cc2ccccc2F)C1 (3D coordinates assigned)
Cn1cccc1C[N-]C(=O)C1CN(Cc2ccccc2F)C1 (nonaromatic ring conformer: 141.5945356437314 kcal/mol)

>  <smiles>  (1) 
Cn1cccc1CNC(=O)C1CN(Cc2ccccc2F)C1

>  <score_type>  (1) 
oracle

>  <origin>  (1) 
adg

>  <m_score__min__energy>  (1) 
-9.8000000000000007

>  <m_primary>  (1) 
energy

$$$$
1:0
     RDKit          3D

 76 79  0  0  0  0  0  0  0  0999 V2000
    3.2550   25.1010  -23.5900 C   0  0  0  0  0  0  0  0  0  0  0  0
    2.1580   25.9730  -24.2160 C   0  0  0  0  0  0  0  0  0  0  0  0
    1.5960   27.0380  -23.3380 N   0  0  0  0  0  0  0  0  0  0  0  0
    2.5680   28.0600  -22.8520 C   0  0  0  0  0  0  0  0  0  0  0  0
    2.0210   29.0750  -21.8380 C   0  0  0  0  0  0  0  0  0  0  0  0
    0.2510   27.5530  -23.7230 C   0  0  0  0  0  0  0  0  0  0  0  0
   -0.8470   26.4870  -23.9080 C   0  0  0  0  0  0  0  0  0  0  0  0
   -0.5720   25.7060  -25.0570 O   0  0  0  0  0  0  0  0  0  0  0  0
   -1.5380   25.9310  -26.0640 C   0  0  0  0  0  0  0  0  0  0  0  0
   -0.8370   26.3840  -27.3380 C   0  0  0  0  0  0  0  0  0  0  0  0
   -0.0640   25.3180  -27.8480 O   0  0  0  0  0  0  0  0  0  0  0  0
   -0.6100   24.0910  -27.4160 C   0  0  0  0  0  0  0  0  0  0  0  0
   -0.0530   22.9630  -28.2740 C   0  0  0  0  0  0  0  0  0  0  0  0
   -0.7710   22.9190  -29.4880 O   0  0  0  0  0  0  0  0  0  0  0  0
   -1.9860   22.2230  -29.3060 C   0  0  0  0  0  0  0  0  0  0  0  0
   -3.1470   23.1200  -29.7330 C   0  0  0  0  0  0  0  0  0  0  0  0
   -3.2210   23.2180  -31.1950 N   0  0  0  0  0  0  0  0  0  0  0  0
   -3.7170   22.1250  -31.9860 C   0  0  0  0  0  0  0  0  0  0  0  0
   -5.0910   21.9450  -32.1200 C   0  0  0  0  0  0  0  0  0  0  0  0
   -5.6010   20.8120  -32.7240 C   0  0  0  0  0  0  0  0  0  0  0  0
   -4.7980   19.9000  -33.3610 N   0  0  0  0  0  0  0  0  0  0  0  0
   -5.3950   18.8840  -34.2440 C   0  0  0  0  0  0  0  0  0  0  0  0
   -3.4230   20.0190  -33.2210 C   0  0  0  0  0  0  0  0  0  0  0  0
   -2.5380   19.0250  -33.7060 C   0  0  0  0  0  0  0  0  0  0  0  0
   -1.1550   19.1920  -33.6220 C   0  0  0  0  0  0  0  0  0  0  0  0
   -0.6200   20.3440  -33.0540 C   0  0  0  0  0  0  0  0  0  0  0  0
   -1.4620   21.3220  -32.5280 C   0  0  0  0  0  0  0  0  0  0  0  0
   -2.8600   21.1600  -32.5620 C   0  0  0  0  0  0  0  0  0  0  0  0
   -7.0580   20.8270  -32.5370 C   0  0  0  0  0  0  0  0  0  0  0  0
   -8.0240   19.8220  -32.7040 C   0  0  0  0  0  0  0  0  0  0  0  0
   -9.3490   20.0890  -32.3220 C   0  0  0  0  0  0  0  0  0  0  0  0
   -9.6870   21.3230  -31.7390 C   0  0  0  0  0  0  0  0  0  0  0  0
   -8.6990   22.2900  -31.5090 C   0  0  0  0  0  0  0  0  0  0  0  0
   -7.3880   22.0180  -31.9070 C   0  0  0  0  0  0  0  0  0  0  0  0
   -6.1810   22.8440  -31.6100 C   0  0  0  0  0  0  0  0  0  0  0  0
    3.1859   25.1559  -22.4935 H   0  0  0  0  0  0  0  0  0  0  0  0
    3.1238   24.0580  -23.9139 H   0  0  0  0  0  0  0  0  0  0  0  0
    4.2415   25.4642  -23.9139 H   0  0  0  0  0  0  0  0  0  0  0  0
    2.5809   26.4590  -25.1076 H   0  0  0  0  0  0  0  0  0  0  0  0
    1.3218   25.2918  -24.4319 H   0  0  0  0  0  0  0  0  0  0  0  0
    1.3840   26.5060  -22.4570 H   0  0  0  0  0  0  0  0  0  0  0  0
    3.4072   27.5292  -22.3787 H   0  0  0  0  0  0  0  0  0  0  0  0
    2.8517   28.6469  -23.7380 H   0  0  0  0  0  0  0  0  0  0  0  0
    2.2153   28.7145  -20.8171 H   0  0  0  0  0  0  0  0  0  0  0  0
    2.5186   30.0449  -21.9852 H   0  0  0  0  0  0  0  0  0  0  0  0
    0.9373   29.1927  -21.9852 H   0  0  0  0  0  0  0  0  0  0  0  0
   -0.0819   28.2479  -22.9379 H   0  0  0  0  0  0  0  0  0  0  0  0
    0.3815   28.0222  -24.7093 H   0  0  0  0  0  0  0  0  0  0  0  0
   -0.8755   25.8353  -23.0223 H   0  0  0  0  0  0  0  0  0  0  0  0
   -1.8190   26.9864  -24.0337 H   0  0  0  0  0  0  0  0  0  0  0  0
   -2.0900   24.9997  -26.2590 H   0  0  0  0  0  0  0  0  0  0  0  0
   -2.2425   26.7084  -25.7333 H   0  0  0  0  0  0  0  0  0  0  0  0
   -1.5877   26.6837  -28.0841 H   0  0  0  0  0  0  0  0  0  0  0  0
   -0.1834   27.2403  -27.1152 H   0  0  0  0  0  0  0  0  0  0  0  0
   -0.3409   23.9193  -26.3633 H   0  0  0  0  0  0  0  0  0  0  0  0
   -1.7054   24.1208  -27.5119 H   0  0  0  0  0  0  0  0  0  0  0  0
    1.0117   23.1465  -28.4805 H   0  0  0  0  0  0  0  0  0  0  0  0
   -0.1551   22.0045  -27.7441 H   0  0  0  0  0  0  0  0  0  0  0  0
   -1.9821   21.3094  -29.9187 H   0  0  0  0  0  0  0  0  0  0  0  0
   -2.1003   21.9493  -28.2467 H   0  0  0  0  0  0  0  0  0  0  0  0
   -4.0882   22.6970  -29.3521 H   0  0  0  0  0  0  0  0  0  0  0  0
   -2.9842   24.1267  -29.3205 H   0  0  0  0  0  0  0  0  0  0  0  0
   -3.3090   24.1800  -31.5910 H   0  0  0  0  0  0  0  0  0  0  0  0
   -5.8587   18.0948  -33.6339 H   0  0  0  0  0  0  0  0  0  0  0  0
   -6.1605   19.3541  -34.8788 H   0  0  0  0  0  0  0  0  0  0  0  0
   -4.6118   18.4441  -34.8788 H   0  0  0  0  0  0  0  0  0  0  0  0
   -2.9468   18.1080  -34.1554 H   0  0  0  0  0  0  0  0  0  0  0  0
   -0.4847   18.4092  -34.0067 H   0  0  0  0  0  0  0  0  0  0  0  0
    0.4706   20.4832  -33.0200 H   0  0  0  0  0  0  0  0  0  0  0  0
   -1.0298   22.2298  -32.0817 H   0  0  0  0  0  0  0  0  0  0  0  0
   -7.7485   18.8442  -33.1259 H   0  0  0  0  0  0  0  0  0  0  0  0
  -10.1272   19.3278  -32.4800 H   0  0  0  0  0  0  0  0  0  0  0  0
  -10.7312   21.5303  -31.4623 H   0  0  0  0  0  0  0  0  0  0  0  0
   -8.9511   23.2448  -31.0244 H   0  0  0  0  0  0  0  0  0  0  0  0
   -6.2025   23.8012  -32.1515 H   0  0  0  0  0  0  0  0  0  0  0  0
   -6.0758   23.1327  -30.5538 H   0  0  0  0  0  0  0  0  0  0  0  0
  1  2  1  0
  2  3  1  0
  3  4  1  0
  4  5  1  0
  3  6  1  0
  6  7  1  0
  7  8  1  0
  8  9  1  0
  9 10  1  0
 10 11  1  0
 11 12  1  0
 12 13  1  0
 13 14  1  0
 14 15  1  0
 15 16  1  0
 16 17  1  0
 17 18  1  0
 18 19  2  0
 19 20  1  0
 20 21  2  0
 21 22  1  0
 21 23  1  0
 23 24  2  0
 24 25  1  0
 25 26  2  0
 26 27  1  0
 27 28  2  0
 20 29  1  0
 29 30  2  0
 30 31  1  0
 31 32  2  0
 32 33  1  0
 33 34  2  0
 34 35  1  0
 28 18  1  0
 34 29  1  0
 35 19  1  0
 28 23  1  0
  1 36  1  0
  1 37  1  0
  1 38  1  0
  2 39  1  0
  2 40  1  0
  3 41  1  0
  4 42  1  0
  4 43  1  0
  5 44  1  0
  5 45  1  0
  5 46  1  0
  6 47  1  0
  6 48  1  0
  7 49  1  0
  7 50  1  0
  9 51  1  0
  9 52  1  0
 10 53  1  0
 10 54  1  0
 12 55  1  0
 12 56  1  0
 13 57  1  0
 13 58  1  0
 15 59  1  0
 15 60  1  0
 16 61  1  0
 16 62  1  0
 17 63  1  0
 22 64  1  0
 22 65  1  0
 22 66  1  0
 24 67  1  0
 25 68  1  0
 26 69  1  0
 27 70  1  0
 30 71  1  0
 31 72  1  0
 32 73  1  0
 33 74  1  0
 35 75  1  0
 35 76  1  0
M  CHG  2   3   1  21   1
M  END
>  <UniqueID>  (2) 
2

>  <SMILES>  (2) 
CC[NH+](CC)CCOCCOCCOCCNc1c2c([n+](C)c3ccccc13)-c1ccccc1C2

>  <Energy>  (2) 
128.2310493276826

>  <Genealogy>  (2) 
CC[NH+](CC)CCOCCOCCOCCNc1c2c([n+](C)c3ccccc13)-c1ccccc1C2 (protonated)
CC[NH+](CC)CCOCCOCCOCCNc1c2c([n+](C)c3ccccc13)-c1ccccc1C2 (3D coordinates assigned)
CC[NH+](CC)CCOCCOCCOCCNc1c2c([n+](C)c3ccccc13)-c1ccccc1C2 (nonaromatic ring conformer: 128.2310493276826 kcal/mol)

>  <smiles>  (2) 
CCN(CC)CCOCCOCCOCCNc1c2c([n+](C)c3ccccc13)-c1ccccc1C2

>  <score_type>  (2) 
oracle

>  <origin>  (2) 
adg

>  <m_score__min__energy>  (2) 
-10.33

>  <m_primary>  (2) 
energy

$$$$
2:0
     RDKit          3D

 87 90  0  0  0  0  0  0  0  0999 V2000
   -5.5740   23.8805  -32.8101 H   0  0  0  0  0  0  0  0  0  0  0  0
   -5.8230   23.3930  -31.8560 C   0  0  0  0  0  0  0  0  0  0  0  0
   -5.9460   24.1460  -30.7600 C   0  0  0  0  0  0  0  0  0  0  0  0
   -6.5368   23.7735  -29.9101 H   0  0  0  0  0  0  0  0  0  0  0  0
   -5.2920   25.4890  -30.6710 C   0  0  0  0  0  0  0  0  0  0  0  0
   -5.7083   26.0457  -29.8185 H   0  0  0  0  0  0  0  0  0  0  0  0
   -5.4767   26.0533  -31.5970 H   0  0  0  0  0  0  0  0  0  0  0  0
   -3.9030   25.3150  -30.4890 O   0  0  0  0  0  0  0  0  0  0  0  0
   -3.6240   24.0770  -29.8610 C   0  0  0  0  0  0  0  0  0  0  0  0
   -2.8284   23.5609  -30.4184 H   0  0  0  0  0  0  0  0  0  0  0  0
   -4.5414   23.4701  -29.8539 H   0  0  0  0  0  0  0  0  0  0  0  0
   -3.1650   24.2930  -28.4120 C   0  0  0  0  0  0  0  0  0  0  0  0
   -4.0064   24.6916  -27.8263 H   0  0  0  0  0  0  0  0  0  0  0  0
   -2.3225   25.0002  -28.4189 H   0  0  0  0  0  0  0  0  0  0  0  0
   -2.7050   23.0290  -27.7940 N   0  0  0  0  0  0  0  0  0  0  0  0
   -3.4920   21.8050  -28.0940 C   0  0  0  0  0  0  0  0  0  0  0  0
   -3.9566   21.9326  -29.0828 H   0  0  0  0  0  0  0  0  0  0  0  0
   -4.2212   21.7021  -27.2769 H   0  0  0  0  0  0  0  0  0  0  0  0
   -2.6840   20.4980  -28.1130 C   0  0  0  0  0  0  0  0  0  0  0  0
   -2.4845   20.1752  -27.0805 H   0  0  0  0  0  0  0  0  0  0  0  0
   -3.2585   19.7193  -28.6360 H   0  0  0  0  0  0  0  0  0  0  0  0
   -1.7306   20.6639  -28.6360 H   0  0  0  0  0  0  0  0  0  0  0  0
   -1.2370   22.8410  -27.8300 C   0  0  0  0  0  0  0  0  0  0  0  0
   -0.7772   23.5607  -27.1368 H   0  0  0  0  0  0  0  0  0  0  0  0
   -1.0384   21.7979  -27.5429 H   0  0  0  0  0  0  0  0  0  0  0  0
   -0.6270   23.0480  -29.2160 C   0  0  0  0  0  0  0  0  0  0  0  0
    0.4099   23.3999  -29.1114 H   0  0  0  0  0  0  0  0  0  0  0  0
   -0.6373   22.0960  -29.7671 H   0  0  0  0  0  0  0  0  0  0  0  0
   -1.2146   23.7971  -29.7671 H   0  0  0  0  0  0  0  0  0  0  0  0
   -6.0110   21.9190  -31.8310 C   0  0  0  0  0  0  0  0  0  0  0  0
   -4.8800   21.0670  -31.8010 C   0  0  0  0  0  0  0  0  0  0  0  0
   -3.5930   21.6420  -31.7920 O   0  0  0  0  0  0  0  0  0  0  0  0
   -2.7730   21.8850  -32.9370 C   0  0  0  0  0  0  0  0  0  0  0  0
   -3.3032   21.5393  -33.8367 H   0  0  0  0  0  0  0  0  0  0  0  0
   -2.5696   22.9645  -32.9942 H   0  0  0  0  0  0  0  0  0  0  0  0
   -1.4340   21.1470  -32.8330 C   0  0  0  0  0  0  0  0  0  0  0  0
   -1.3458   20.4475  -33.6773 H   0  0  0  0  0  0  0  0  0  0  0  0
   -0.6274   21.8946  -32.8551 H   0  0  0  0  0  0  0  0  0  0  0  0
   -1.3210   20.3580  -31.5180 C   0  0  0  0  0  0  0  0  0  0  0  0
   -0.8788   21.0123  -30.7523 H   0  0  0  0  0  0  0  0  0  0  0  0
   -2.3337   20.0311  -31.2396 H   0  0  0  0  0  0  0  0  0  0  0  0
   -0.4490   19.1000  -31.6520 C   0  0  0  0  0  0  0  0  0  0  0  0
    0.4158   19.3390  -32.2884 H   0  0  0  0  0  0  0  0  0  0  0  0
   -0.1428   18.8022  -30.6383 H   0  0  0  0  0  0  0  0  0  0  0  0
   -1.1970   17.9180  -32.2700 C   0  0  0  0  0  0  0  0  0  0  0  0
   -0.4737   17.1827  -32.6523 H   0  0  0  0  0  0  0  0  0  0  0  0
   -1.8297   17.4387  -31.5084 H   0  0  0  0  0  0  0  0  0  0  0  0
   -2.0000   18.3880  -33.3310 O   0  0  0  0  0  0  0  0  0  0  0  0
   -2.2860   17.3230  -34.1350 N   0  0  0  0  0  0  0  0  0  0  0  0
   -1.3760   16.9860  -35.2030 C   0  0  0  0  0  0  0  0  0  0  0  0
   -0.2090   17.7830  -35.4390 N   0  0  0  0  0  0  0  0  0  0  0  0
   -0.0230   18.6460  -34.8820 H   0  0  0  0  0  0  0  0  0  0  0  0
    0.4750   17.5230  -36.1850 H   0  0  0  0  0  0  0  0  0  0  0  0
   -1.6080   15.9430  -35.9430 N   0  0  0  0  0  0  0  0  0  0  0  0
   -0.9360   15.6760  -36.6980 H   0  0  0  0  0  0  0  0  0  0  0  0
   -2.7560   15.1170  -35.7080 C   0  0  0  0  0  0  0  0  0  0  0  0
   -2.8710   13.8540  -36.3610 N   0  0  0  0  0  0  0  0  0  0  0  0
   -3.7040   13.2460  -36.1950 H   0  0  0  0  0  0  0  0  0  0  0  0
   -2.1350   13.5330  -37.0270 H   0  0  0  0  0  0  0  0  0  0  0  0
   -3.6800   15.4990  -34.8790 N   0  0  0  0  0  0  0  0  0  0  0  0
   -3.6710   16.8040  -34.2010 C   0  0  0  0  0  0  0  0  0  0  0  0
   -4.5310   17.8120  -35.0190 C   0  0  0  0  0  0  0  0  0  0  0  0
   -4.0804   18.8101  -34.9152 H   0  0  0  0  0  0  0  0  0  0  0  0
   -4.5366   17.4455  -36.0562 H   0  0  0  0  0  0  0  0  0  0  0  0
   -6.0010   17.9030  -34.5830 C   0  0  0  0  0  0  0  0  0  0  0  0
   -6.0693   18.5273  -33.6799 H   0  0  0  0  0  0  0  0  0  0  0  0
   -6.5813   18.3459  -35.4059 H   0  0  0  0  0  0  0  0  0  0  0  0
   -6.6830   16.2570  -34.2190 S   0  0  0  0  0  0  0  0  0  0  0  0
   -5.6320   15.9370  -32.7490 C   0  0  0  0  0  0  0  0  0  0  0  0
   -6.1684   16.3021  -31.8607 H   0  0  0  0  0  0  0  0  0  0  0  0
   -5.4475   14.8527  -32.7349 H   0  0  0  0  0  0  0  0  0  0  0  0
   -4.2420   16.6090  -32.7780 C   0  0  0  0  0  0  0  0  0  0  0  0
   -4.3243   17.5960  -32.2994 H   0  0  0  0  0  0  0  0  0  0  0  0
   -3.5515   15.9382  -32.2457 H   0  0  0  0  0  0  0  0  0  0  0  0
   -5.0640   19.6730  -31.8140 C   0  0  0  0  0  0  0  0  0  0  0  0
   -4.1869   19.0099  -31.7810 H   0  0  0  0  0  0  0  0  0  0  0  0
   -6.3390   19.1210  -31.8680 C   0  0  0  0  0  0  0  0  0  0  0  0
   -6.4599   18.0277  -31.8771 H   0  0  0  0  0  0  0  0  0  0  0  0
   -7.4720   19.9460  -31.9110 C   0  0  0  0  0  0  0  0  0  0  0  0
   -8.7710   19.3970  -31.9670 C   0  0  0  0  0  0  0  0  0  0  0  0
   -8.9460   18.1480  -31.9890 O   0  0  0  0  0  0  0  0  0  0  0  0
   -9.8540   20.2150  -31.9950 N   0  0  0  0  0  0  0  0  0  0  0  0
   -9.7340   21.5650  -31.9670 C   0  0  0  0  0  0  0  0  0  0  0  0
  -10.6354   22.1950  -31.9902 H   0  0  0  0  0  0  0  0  0  0  0  0
   -8.4740   22.1590  -31.9090 C   0  0  0  0  0  0  0  0  0  0  0  0
   -8.3839   23.2548  -31.8773 H   0  0  0  0  0  0  0  0  0  0  0  0
   -7.3150   21.3560  -31.8910 C   0  0  0  0  0  0  0  0  0  0  0  0
  1  2  1  0
  2  3  2  0
  3  4  1  0
  3  5  1  0
  5  6  1  0
  5  7  1  0
  5  8  1  0
  8  9  1  0
  9 10  1  0
  9 11  1  0
  9 12  1  0
 12 13  1  0
 12 14  1  0
 12 15  1  0
 15 16  1  0
 16 17  1  0
 16 18  1  0
 16 19  1  0
 19 20  1  0
 19 21  1  0
 19 22  1  0
 15 23  1  0
 23 24  1  0
 23 25  1  0
 23 26  1  0
 26 27  1  0
 26 28  1  0
 26 29  1  0
  2 30  1  0
 30 31  2  0
 31 32  1  0
 32 33  1  0
 33 34  1  0
 33 35  1  0
 33 36  1  0
 36 37  1  0
 36 38  1  0
 36 39  1  0
 39 40  1  0
 39 41  1  0
 39 42  1  0
 42 43  1  0
 42 44  1  0
 42 45  1  0
 45 46  1  0
 45 47  1  0
 45 48  1  0
 48 49  1  0
 49 50  1  0
 50 51  1  0
 51 52  1  0
 51 53  1  0
 50 54  2  0
 54 55  1  0
 54 56  1  0
 56 57  1  0
 57 58  1  0
 57 59  1  0
 56 60  2  0
 60 61  1  0
 61 62  1  0
 62 63  1  0
 62 64  1  0
 62 65  1  0
 65 66  1  0
 65 67  1  0
 65 68  1  0
 68 69  1  0
 69 70  1  0
 69 71  1  0
 69 72  1  0
 72 73  1  0
 72 74  1  0
 31 75  1  0
 75 76  1  0
 75 77  2  0
 77 78  1  0
 77 79  1  0
 79 80  1  0
 80 81  2  0
 80 82  1  0
 82 83  1  0
 83 84  1  0
 83 85  2  0
 85 86  1  0
 85 87  1  0
 87 30  1  0
 61 49  1  0
 87 79  2  0
 72 61  1  0
M  CHG  2  54   1  82  -1
M  END
>  <UniqueID>  (3) 
3

>  <SMILES>  (3) 
CCN(CC)CCOC/C=C/c1c(OCCCCCON2C(N)=[NH+]C(N)=NC23CCSCC3)ccc2c(=O)[n-]ccc12

>  <Energy>  (3) 
101.4168656521586

>  <Genealogy>  (3) 
CCN(CC)CCOCC=Cc1c(OCCCCCON2C(N)=[NH+]C(N)=NC23CCSCC3)ccc2c(=O)[n-]ccc12 (protonated)
CCN(CC)CCOC/C=C/c1c(OCCCCCON2C(N)=[NH+]C(N)=NC23CCSCC3)ccc2c(=O)[n-]ccc12 (cis-trans isomerization)
CCN(CC)CCOC/C=C/c1c(OCCCCCON2C(N)=[NH+]C(N)=NC23CCSCC3)ccc2c(=O)[n-]ccc12 (3D coordinates assigned)
CCN(CC)CCOC/C=C/c1c(OCCCCCON2C(N)=[NH+]C(N)=NC23CCSCC3)ccc2c(=O)[n-]ccc12 (nonaromatic ring conformer: 101.4168656521586 kcal/mol)

>  <smiles>  (3) 
CCN(CC)CCOCC=Cc1c(OCCCCCON2C(N)=NC(N)=NC23CCSCC3)ccc2c(=O)[nH]ccc12

>  <score_type>  (3) 
oracle

>  <origin>  (3) 
adg

>  <m_score__min__energy>  (3) 
-9.9600000000000009

>  <m_primary>  (3) 
energy

$$$$
3:0
     RDKit          3D

 50 52  0  0  0  0  0  0  0  0999 V2000
   -3.2870   16.9740  -34.7700 C   0  0  0  0  0  0  0  0  0  0  0  0
   -4.5100   17.5500  -34.1180 C   0  0  0  0  0  0  0  0  0  0  0  0
   -5.6380   16.7550  -33.9130 C   0  0  0  0  0  0  0  0  0  0  0  0
   -6.7920   17.2960  -33.3520 C   0  0  0  0  0  0  0  0  0  0  0  0
   -6.8510   18.6590  -32.9670 C   0  0  0  0  0  0  0  0  0  0  0  0
   -5.7180   19.4770  -33.2180 C   0  0  0  0  0  0  0  0  0  0  0  0
   -4.5630   18.9110  -33.8000 C   0  0  0  0  0  0  0  0  0  0  0  0
   -5.7760   20.8510  -32.9220 C   0  0  0  0  0  0  0  0  0  0  0  0
   -4.6130   21.6810  -33.0870 N   0  0  0  0  0  0  0  0  0  0  0  0
   -3.6140   21.8300  -32.0280 C   0  0  0  0  0  0  0  0  0  0  0  0
   -3.9450   23.0250  -31.1230 C   0  0  0  0  0  0  0  0  0  0  0  0
   -4.9010   22.6340  -29.9770 C   0  0  0  0  0  0  0  0  0  0  0  0
   -5.2870   23.8020  -29.1460 N   0  0  0  0  0  0  0  0  0  0  0  0
   -5.6100   24.9520  -30.0090 C   0  0  0  0  0  0  0  0  0  0  0  0
   -4.2060   24.1790  -28.2140 C   0  0  0  0  0  0  0  0  0  0  0  0
   -7.0010   21.4180  -32.5210 C   0  0  0  0  0  0  0  0  0  0  0  0
   -7.1290   22.8120  -32.3290 C   0  0  0  0  0  0  0  0  0  0  0  0
   -8.3490   23.3700  -31.9590 C   0  0  0  0  0  0  0  0  0  0  0  0
   -9.4630   22.5590  -31.7880 C   0  0  0  0  0  0  0  0  0  0  0  0
   -9.3570   21.1780  -31.9530 C   0  0  0  0  0  0  0  0  0  0  0  0
   -8.1180   20.5730  -32.2850 C   0  0  0  0  0  0  0  0  0  0  0  0
   -7.9840   19.2010  -32.3870 N   0  0  0  0  0  0  0  0  0  0  0  0
   -9.0420   18.3120  -31.8570 C   0  0  0  0  0  0  0  0  0  0  0  0
   -2.5806   16.6413  -33.9952 H   0  0  0  0  0  0  0  0  0  0  0  0
   -3.5747   16.1167  -35.3963 H   0  0  0  0  0  0  0  0  0  0  0  0
   -2.8093   17.7418  -35.3963 H   0  0  0  0  0  0  0  0  0  0  0  0
   -5.6156   15.6925  -34.1967 H   0  0  0  0  0  0  0  0  0  0  0  0
   -7.6733   16.6544  -33.2050 H   0  0  0  0  0  0  0  0  0  0  0  0
   -3.6917   19.5499  -34.0065 H   0  0  0  0  0  0  0  0  0  0  0  0
   -4.5820   22.3520  -33.8870 H   0  0  0  0  0  0  0  0  0  0  0  0
   -3.5945   20.9132  -31.4204 H   0  0  0  0  0  0  0  0  0  0  0  0
   -2.6330   22.0047  -32.4940 H   0  0  0  0  0  0  0  0  0  0  0  0
   -3.0109   23.4121  -30.6899 H   0  0  0  0  0  0  0  0  0  0  0  0
   -4.4448   23.7885  -31.7372 H   0  0  0  0  0  0  0  0  0  0  0  0
   -5.8102   22.1910  -30.4096 H   0  0  0  0  0  0  0  0  0  0  0  0
   -4.3759   21.9170  -29.3288 H   0  0  0  0  0  0  0  0  0  0  0  0
   -6.1430   23.5720  -28.5880 H   0  0  0  0  0  0  0  0  0  0  0  0
   -5.8546   25.8229  -29.3831 H   0  0  0  0  0  0  0  0  0  0  0  0
   -4.7436   25.1886  -30.6441 H   0  0  0  0  0  0  0  0  0  0  0  0
   -6.4729   24.7029  -30.6441 H   0  0  0  0  0  0  0  0  0  0  0  0
   -4.5557   24.0570  -27.1782 H   0  0  0  0  0  0  0  0  0  0  0  0
   -3.3326   23.5324  -28.3847 H   0  0  0  0  0  0  0  0  0  0  0  0
   -3.9241   25.2285  -28.3847 H   0  0  0  0  0  0  0  0  0  0  0  0
   -6.2545   23.4635  -32.4736 H   0  0  0  0  0  0  0  0  0  0  0  0
   -8.4310   24.4556  -31.8017 H   0  0  0  0  0  0  0  0  0  0  0  0
  -10.4318   23.0068  -31.5217 H   0  0  0  0  0  0  0  0  0  0  0  0
  -10.2492   20.5477  -31.8235 H   0  0  0  0  0  0  0  0  0  0  0  0
   -9.0198   18.3307  -30.7574 H   0  0  0  0  0  0  0  0  0  0  0  0
  -10.0241   18.6599  -32.2099 H   0  0  0  0  0  0  0  0  0  0  0  0
   -8.8685   17.2847  -32.2099 H   0  0  0  0  0  0  0  0  0  0  0  0
  1  2  1  0
  2  3  2  0
  3  4  1  0
  4  5  2  0
  5  6  1  0
  6  7  2  0
  6  8  1  0
  8  9  1  0
  9 10  1  0
 10 11  1  0
 11 12  1  0
 12 13  1  0
 13 14  1  0
 13 15  1  0
  8 16  2  0
 16 17  1  0
 17 18  2  0
 18 19  1  0
 19 20  2  0
 20 21  1  0
 21 22  2  0
 22 23  1  0
  7  2  1  0
 21 16  1  0
 22  5  1  0
  1 24  1  0
  1 25  1  0
  1 26  1  0
  3 27  1  0
  4 28  1  0
  7 29  1  0
  9 30  1  0
 10 31  1  0
 10 32  1  0
 11 33  1  0
 11 34  1  0
 12 35  1  0
 12 36  1  0
 13 37  1  0
 14 38  1  0
 14 39  1  0
 14 40  1  0
 15 41  1  0
 15 42  1  0
 15 43  1  0
 17 44  1  0
 18 45  1  0
 19 46  1  0
 20 47  1  0
 23 48  1  0
 23 49  1  0
 23 50  1  0
M  CHG  2  13   1  22   1
M  END
>  <UniqueID>  (4) 
4

>  <SMILES>  (4) 
Cc1ccc2c(c1)c(NCCC[NH+](C)C)c1ccccc1[n+]2C

>  <Energy>  (4) 
73.26534476345424

>  <Genealogy>  (4) 
Cc1ccc2c(c1)c(NCCC[NH+](C)C)c1ccccc1[n+]2C (protonated)
Cc1ccc2c(c1)c(NCCC[NH+](C)C)c1ccccc1[n+]2C (3D coordinates assigned)
Cc1ccc2c(c1)c(NCCC[NH+](C)C)c1ccccc1[n+]2C (optimized conformer: 73.26534476345424 kcal/mol)

>  <smiles>  (4) 
Cc1ccc2c(c1)c(NCCCN(C)C)c1ccccc1[n+]2C

>  <score_type>  (4) 
oracle

>  <origin>  (4) 
adg

>  <m_score__min__energy>  (4) 
-7.3799999999999999

>  <m_primary>  (4) 
energy

$$$$
4:0
     RDKit          3D

 57 59  0  0  0  0  0  0  0  0999 V2000
   -5.7350   25.5610  -30.2280 C   0  0  0  0  0  0  0  0  0  0  0  0
   -4.8640   24.9230  -31.2190 N   0  0  0  0  0  0  0  0  0  0  0  0
   -4.0090   23.8920  -30.6090 C   0  0  0  0  0  0  0  0  0  0  0  0
   -3.7440   22.7320  -31.5810 C   0  0  0  0  0  0  0  0  0  0  0  0
   -4.8150   22.5510  -32.5860 N   0  0  0  0  0  0  0  0  0  0  0  0
   -5.1390   21.1470  -32.8070 C   0  0  0  0  0  0  0  0  0  0  0  0
   -6.4440   20.6620  -32.5090 C   0  0  0  0  0  0  0  0  0  0  0  0
   -7.4330   21.4880  -31.9160 C   0  0  0  0  0  0  0  0  0  0  0  0
   -8.7100   21.0010  -31.6420 C   0  0  0  0  0  0  0  0  0  0  0  0
   -9.0350   19.6870  -31.9470 C   0  0  0  0  0  0  0  0  0  0  0  0
   -8.0890   18.8540  -32.5360 C   0  0  0  0  0  0  0  0  0  0  0  0
   -6.7850   19.3230  -32.8390 C   0  0  0  0  0  0  0  0  0  0  0  0
   -5.8640   18.5010  -33.4450 N   0  0  0  0  0  0  0  0  0  0  0  0
   -6.3440   17.3330  -34.2180 C   0  0  0  0  0  0  0  0  0  0  0  0
   -4.5290   18.8530  -33.4660 C   0  0  0  0  0  0  0  0  0  0  0  0
   -3.4990   17.8890  -33.6960 C   0  0  0  0  0  0  0  0  0  0  0  0
   -3.7340   16.4860  -33.4760 N   0  0  0  0  0  0  0  0  0  0  0  0
   -2.6700   15.4850  -33.5910 C   0  0  0  0  0  0  0  0  0  0  0  0
   -3.1630   14.1010  -33.1480 C   0  0  0  0  0  0  0  0  0  0  0  0
   -4.5170   14.1820  -32.5570 N   0  0  0  0  0  0  0  0  0  0  0  0
   -5.5230   13.6900  -33.5110 C   0  0  0  0  0  0  0  0  0  0  0  0
   -4.6000   13.4010  -31.3100 C   0  0  0  0  0  0  0  0  0  0  0  0
   -2.1960   18.3170  -33.9730 C   0  0  0  0  0  0  0  0  0  0  0  0
   -1.8750   19.6640  -33.9390 C   0  0  0  0  0  0  0  0  0  0  0  0
   -2.8300   20.6010  -33.5660 C   0  0  0  0  0  0  0  0  0  0  0  0
   -4.1630   20.2180  -33.2770 C   0  0  0  0  0  0  0  0  0  0  0  0
   -5.3872   25.3062  -29.2160 H   0  0  0  0  0  0  0  0  0  0  0  0
   -5.7051   26.6524  -30.3621 H   0  0  0  0  0  0  0  0  0  0  0  0
   -6.7665   25.2033  -30.3621 H   0  0  0  0  0  0  0  0  0  0  0  0
   -4.2380   25.6700  -31.6030 H   0  0  0  0  0  0  0  0  0  0  0  0
   -3.0485   24.3466  -30.3248 H   0  0  0  0  0  0  0  0  0  0  0  0
   -4.5289   23.4906  -29.7266 H   0  0  0  0  0  0  0  0  0  0  0  0
   -2.7996   22.9288  -32.1095 H   0  0  0  0  0  0  0  0  0  0  0  0
   -3.7012   21.8101  -30.9824 H   0  0  0  0  0  0  0  0  0  0  0  0
   -4.5940   23.0660  -33.4630 H   0  0  0  0  0  0  0  0  0  0  0  0
   -5.6720   23.0510  -32.2600 H   0  0  0  0  0  0  0  0  0  0  0  0
   -7.1879   22.5313  -31.6680 H   0  0  0  0  0  0  0  0  0  0  0  0
   -9.4618   21.6599  -31.1829 H   0  0  0  0  0  0  0  0  0  0  0  0
  -10.0414   19.3036  -31.7229 H   0  0  0  0  0  0  0  0  0  0  0  0
   -8.3570   17.8133  -32.7709 H   0  0  0  0  0  0  0  0  0  0  0  0
   -6.6687   16.5429  -33.5249 H   0  0  0  0  0  0  0  0  0  0  0  0
   -7.1907   17.6355  -34.8517 H   0  0  0  0  0  0  0  0  0  0  0  0
   -5.5292   16.9528  -34.8517 H   0  0  0  0  0  0  0  0  0  0  0  0
   -4.7080   16.1790  -33.2600 H   0  0  0  0  0  0  0  0  0  0  0  0
   -2.3400   15.4303  -34.6389 H   0  0  0  0  0  0  0  0  0  0  0  0
   -1.8368   15.7844  -32.9383 H   0  0  0  0  0  0  0  0  0  0  0  0
   -3.1917   13.4332  -34.0216 H   0  0  0  0  0  0  0  0  0  0  0  0
   -2.4719   13.7113  -32.3861 H   0  0  0  0  0  0  0  0  0  0  0  0
   -6.3779   13.2719  -32.9593 H   0  0  0  0  0  0  0  0  0  0  0  0
   -5.8663   14.5219  -34.1435 H   0  0  0  0  0  0  0  0  0  0  0  0
   -5.0771   12.9083  -34.1435 H   0  0  0  0  0  0  0  0  0  0  0  0
   -4.5279   14.0793  -30.4470 H   0  0  0  0  0  0  0  0  0  0  0  0
   -5.5601   12.8653  -31.2761 H   0  0  0  0  0  0  0  0  0  0  0  0
   -3.7739   12.6755  -31.2761 H   0  0  0  0  0  0  0  0  0  0  0  0
   -1.4200   17.5775  -34.2199 H   0  0  0  0  0  0  0  0  0  0  0  0
   -0.8604   19.9927  -34.2083 H   0  0  0  0  0  0  0  0  0  0  0  0
   -2.5458   21.6612  -33.4936 H   0  0  0  0  0  0  0  0  0  0  0  0
  1  2  1  0
  2  3  1  0
  3  4  1  0
  4  5  1  0
  5  6  1  0
  6  7  2  0
  7  8  1  0
  8  9  2  0
  9 10  1  0
 10 11  2  0
 11 12  1  0
 12 13  2  0
 13 14  1  0
 13 15  1  0
 15 16  2  0
 16 17  1  0
 17 18  1  0
 18 19  1  0
 19 20  1  0
 20 21  1  0
 20 22  1  0
 16 23  1  0
 23 24  2  0
 24 25  1  0
 25 26  2  0
 26  6  1  0
 12  7  1  0
 26 15  1  0
  1 27  1  0
  1 28  1  0
  1 29  1  0
  2 30  1  0
  3 31  1  0
  3 32  1  0
  4 33  1  0
  4 34  1  0
  5 35  1  0
  5 36  1  0
  8 37  1  0
  9 38  1  0
 10 39  1  0
 11 40  1  0
 14 41  1  0
 14 42  1  0
 14 43  1  0
 17 44  1  0
 18 45  1  0
 18 46  1  0
 19 47  1  0
 19 48  1  0
 21 49  1  0
 21 50  1  0
 21 51  1  0
 22 52  1  0
 22 53  1  0
 22 54  1  0
 23 55  1  0
 24 56  1  0
 25 57  1  0
M  CHG  2   5   1  13   1
M  END
>  <UniqueID>  (5) 
5

>  <SMILES>  (5) 
CNCC[NH2+]c1c2ccccc2[n+](C)c2c(NCCN(C)C)cccc12

>  <Energy>  (5) 
93.31308178972768

>  <Genealogy>  (5) 
CNCC[NH2+]c1c2ccccc2[n+](C)c2c(NCCN(C)C)cccc12 (protonated)
CNCC[NH2+]c1c2ccccc2[n+](C)c2c(NCCN(C)C)cccc12 (3D coordinates assigned)
CNCC[NH2+]c1c2ccccc2[n+](C)c2c(NCCN(C)C)cccc12 (optimized conformer: 93.31308178972768 kcal/mol)

>  <smiles>  (5) 
CNCCNc1c2ccccc2[n+](C)c2c(NCCN(C)C)cccc12

>  <score_type>  (5) 
oracle

>  <origin>  (5) 
adg

>  <m_score__min__energy>  (5) 
-7.4400000000000004

>  <m_primary>  (5) 
energy

$$$$
5:0
     RDKit          3D

 82 85  0  0  0  0  0  0  0  0999 V2000
   -6.7970   17.2280  -33.0690 C   0  0  0  0  0  0  0  0  0  0  0  0
   -7.1150   18.3570  -32.0810 C   0  0  0  0  0  0  0  0  0  0  0  0
   -7.9780   19.4220  -32.6640 N   0  0  0  0  0  0  0  0  0  0  0  0
   -9.1060   19.7540  -31.7560 C   0  0  0  0  0  0  0  0  0  0  0  0
   -9.6200   21.1850  -31.9450 C   0  0  0  0  0  0  0  0  0  0  0  0
   -7.2410   20.6480  -33.0860 C   0  0  0  0  0  0  0  0  0  0  0  0
   -6.3610   21.3190  -32.0030 C   0  0  0  0  0  0  0  0  0  0  0  0
   -5.2140   22.0270  -32.5680 N   0  0  0  0  0  0  0  0  0  0  0  0
   -3.8850   21.5980  -32.2310 C   0  0  0  0  0  0  0  0  0  0  0  0
   -3.3480   20.4360  -32.8070 C   0  0  0  0  0  0  0  0  0  0  0  0
   -4.1340   19.6200  -33.6450 C   0  0  0  0  0  0  0  0  0  0  0  0
   -3.6200   18.4360  -34.1690 C   0  0  0  0  0  0  0  0  0  0  0  0
   -2.3230   18.0430  -33.8610 C   0  0  0  0  0  0  0  0  0  0  0  0
   -1.5230   18.8420  -33.0430 C   0  0  0  0  0  0  0  0  0  0  0  0
   -2.0060   20.0700  -32.5190 C   0  0  0  0  0  0  0  0  0  0  0  0
   -1.2170   20.8940  -31.7390 N   0  0  0  0  0  0  0  0  0  0  0  0
    0.2480   20.6820  -31.6890 C   0  0  0  0  0  0  0  0  0  0  0  0
   -1.7900   21.9350  -31.0300 C   0  0  0  0  0  0  0  0  0  0  0  0
   -1.0780   22.6370  -30.0210 C   0  0  0  0  0  0  0  0  0  0  0  0
   -1.6550   23.7270  -29.3450 C   0  0  0  0  0  0  0  0  0  0  0  0
   -0.9880   24.4530  -28.3440 O   0  0  0  0  0  0  0  0  0  0  0  0
   -0.0630   23.9320  -27.3890 C   0  0  0  0  0  0  0  0  0  0  0  0
   -0.5270   24.1560  -25.9240 C   0  0  0  0  0  0  0  0  0  0  0  0
   -1.0320   25.5270  -25.5700 N   0  0  0  0  0  0  0  0  0  0  0  0
   -2.4810   25.6400  -25.8890 C   0  0  0  0  0  0  0  0  0  0  0  0
   -0.2780   26.5940  -26.3180 C   0  0  0  0  0  0  0  0  0  0  0  0
    0.9240   27.1480  -25.5260 C   0  0  0  0  0  0  0  0  0  0  0  0
    0.5090   27.8060  -24.2460 N   0  0  0  0  0  0  0  0  0  0  0  0
    1.6300   27.7120  -23.2760 C   0  0  0  0  0  0  0  0  0  0  0  0
    0.2350   29.2450  -24.4890 C   0  0  0  0  0  0  0  0  0  0  0  0
   -0.7160   27.1680  -23.6630 C   0  0  0  0  0  0  0  0  0  0  0  0
   -0.8660   25.6930  -24.0860 C   0  0  0  0  0  0  0  0  0  0  0  0
   -2.9490   24.1230  -29.6710 C   0  0  0  0  0  0  0  0  0  0  0  0
   -3.6820   23.4310  -30.6290 C   0  0  0  0  0  0  0  0  0  0  0  0
   -3.1280   22.3220  -31.2970 C   0  0  0  0  0  0  0  0  0  0  0  0
   -6.5398   16.3150  -32.5120 H   0  0  0  0  0  0  0  0  0  0  0  0
   -7.6760   17.0361  -33.7018 H   0  0  0  0  0  0  0  0  0  0  0  0
   -5.9470   17.5231  -33.7018 H   0  0  0  0  0  0  0  0  0  0  0  0
   -7.6321   17.9251  -31.2115 H   0  0  0  0  0  0  0  0  0  0  0  0
   -6.1598   18.8264  -31.8030 H   0  0  0  0  0  0  0  0  0  0  0  0
   -8.3910   19.0310  -33.5450 H   0  0  0  0  0  0  0  0  0  0  0  0
   -9.9324   19.0551  -31.9523 H   0  0  0  0  0  0  0  0  0  0  0  0
   -8.7357   19.6691  -30.7237 H   0  0  0  0  0  0  0  0  0  0  0  0
   -9.7862   21.6478  -30.9611 H   0  0  0  0  0  0  0  0  0  0  0  0
   -8.8761   21.7709  -32.5048 H   0  0  0  0  0  0  0  0  0  0  0  0
  -10.5667   21.1636  -32.5048 H   0  0  0  0  0  0  0  0  0  0  0  0
   -6.5881   20.3748  -33.9281 H   0  0  0  0  0  0  0  0  0  0  0  0
   -8.0158   21.3872  -33.3376 H   0  0  0  0  0  0  0  0  0  0  0  0
   -6.9779   22.0379  -31.4439 H   0  0  0  0  0  0  0  0  0  0  0  0
   -5.9721   20.5233  -31.3506 H   0  0  0  0  0  0  0  0  0  0  0  0
   -5.3270   22.6460  -33.3990 H   0  0  0  0  0  0  0  0  0  0  0  0
   -5.1638   19.9210  -33.8878 H   0  0  0  0  0  0  0  0  0  0  0  0
   -4.2415   17.8113  -34.8274 H   0  0  0  0  0  0  0  0  0  0  0  0
   -1.9258   17.0993  -34.2632 H   0  0  0  0  0  0  0  0  0  0  0  0
   -0.5012   18.5149  -32.8002 H   0  0  0  0  0  0  0  0  0  0  0  0
    0.5760   20.6345  -30.6401 H   0  0  0  0  0  0  0  0  0  0  0  0
    0.4994   19.7381  -32.1949 H   0  0  0  0  0  0  0  0  0  0  0  0
    0.7566   21.5159  -32.1949 H   0  0  0  0  0  0  0  0  0  0  0  0
   -0.0560   22.3221  -29.7635 H   0  0  0  0  0  0  0  0  0  0  0  0
    0.0501   22.8515  -27.5614 H   0  0  0  0  0  0  0  0  0  0  0  0
    0.8894   24.4661  -27.5221 H   0  0  0  0  0  0  0  0  0  0  0  0
   -1.3374   23.4409  -25.7196 H   0  0  0  0  0  0  0  0  0  0  0  0
    0.3778   24.0185  -25.3137 H   0  0  0  0  0  0  0  0  0  0  0  0
   -3.0597   25.6851  -24.9546 H   0  0  0  0  0  0  0  0  0  0  0  0
   -2.6574   26.5546  -26.4741 H   0  0  0  0  0  0  0  0  0  0  0  0
   -2.7971   24.7638  -26.4741 H   0  0  0  0  0  0  0  0  0  0  0  0
    0.0909   26.1665  -27.2620 H   0  0  0  0  0  0  0  0  0  0  0  0
   -0.9726   27.4294  -26.4902 H   0  0  0  0  0  0  0  0  0  0  0  0
    1.6058   26.3173  -25.2915 H   0  0  0  0  0  0  0  0  0  0  0  0
    1.4157   27.9085  -26.1504 H   0  0  0  0  0  0  0  0  0  0  0  0
    1.2318   27.7454  -22.2511 H   0  0  0  0  0  0  0  0  0  0  0  0
    2.1691   26.7655  -23.4293 H   0  0  0  0  0  0  0  0  0  0  0  0
    2.3192   28.5555  -23.4293 H   0  0  0  0  0  0  0  0  0  0  0  0
    0.1356   29.7671  -23.5259 H   0  0  0  0  0  0  0  0  0  0  0  0
    1.0655   29.6850  -25.0606 H   0  0  0  0  0  0  0  0  0  0  0  0
   -0.6991   29.3490  -25.0606 H   0  0  0  0  0  0  0  0  0  0  0  0
   -0.6519   27.2165  -22.5659 H   0  0  0  0  0  0  0  0  0  0  0  0
   -1.5922   27.7164  -24.0392 H   0  0  0  0  0  0  0  0  0  0  0  0
    0.0326   25.1434  -23.7692 H   0  0  0  0  0  0  0  0  0  0  0  0
   -1.7745   25.3013  -23.6052 H   0  0  0  0  0  0  0  0  0  0  0  0
   -3.3962   24.9918  -29.1659 H   0  0  0  0  0  0  0  0  0  0  0  0
   -4.7062   23.7536  -30.8677 H   0  0  0  0  0  0  0  0  0  0  0  0
  1  2  1  0
  2  3  1  0
  3  4  1  0
  4  5  1  0
  3  6  1  0
  6  7  1  0
  7  8  1  0
  8  9  1  0
  9 10  2  0
 10 11  1  0
 11 12  2  0
 12 13  1  0
 13 14  2  0
 14 15  1  0
 15 16  2  0
 16 17  1  0
 16 18  1  0
 18 19  2  0
 19 20  1  0
 20 21  1  0
 21 22  1  0
 22 23  1  0
 23 24  1  0
 24 25  1  0
 24 26  1  0
 26 27  1  0
 27 28  1  0
 28 29  1  0
 28 30  1  0
 28 31  1  0
 31 32  1  0
 20 33  2  0
 33 34  1  0
 34 35  2  0
 35  9  1  0
 15 10  1  0
 35 18  1  0
 32 24  1  0
  1 36  1  0
  1 37  1  0
  1 38  1  0
  2 39  1  0
  2 40  1  0
  3 41  1  0
  4 42  1  0
  4 43  1  0
  5 44  1  0
  5 45  1  0
  5 46  1  0
  6 47  1  0
  6 48  1  0
  7 49  1  0
  7 50  1  0
  8 51  1  0
 11 52  1  0
 12 53  1  0
 13 54  1  0
 14 55  1  0
 17 56  1  0
 17 57  1  0
 17 58  1  0
 19 59  1  0
 22 60  1  0
 22 61  1  0
 23 62  1  0
 23 63  1  0
 25 64  1  0
 25 65  1  0
 25 66  1  0
 26 67  1  0
 26 68  1  0
 27 69  1  0
 27 70  1  0
 29 71  1  0
 29 72  1  0
 29 73  1  0
 30 74  1  0
 30 75  1  0
 30 76  1  0
 31 77  1  0
 31 78  1  0
 32 79  1  0
 32 80  1  0
 33 81  1  0
 34 82  1  0
M  CHG  4   3   1  16   1  24   1  28   1
M  END
>  <UniqueID>  (6) 
6

>  <SMILES>  (6) 
CC[NH+](CC)CCNc1c2ccccc2[n+](C)c2cc(OCC[N+]3(C)CC[N+](C)(C)CC3)ccc12

>  <Energy>  (6) 
141.78471457198796

>  <Genealogy>  (6) 
CC[NH+](CC)CCNc1c2ccccc2[n+](C)c2cc(OCC[N+]3(C)CC[N+](C)(C)CC3)ccc12 (protonated)
CC[NH+](CC)CCNc1c2ccccc2[n+](C)c2cc(OCC[N+]3(C)CC[N+](C)(C)CC3)ccc12 (3D coordinates assigned)
CC[NH+](CC)CCNc1c2ccccc2[n+](C)c2cc(OCC[N+]3(C)CC[N+](C)(C)CC3)ccc12 (nonaromatic ring conformer: 141.78471457198796 kcal/mol)

>  <smiles>  (6) 
CCN(CC)CCNc1c2ccccc2[n+](C)c2cc(OCC[N+]3(C)CC[N+](C)(C)CC3)ccc12

>  <score_type>  (6) 
oracle

>  <origin>  (6) 
adg

>  <m_score__min__energy>  (6) 
-7.1600000000000001

>  <m_primary>  (6) 
energy

$$$$
6:0
     RDKit          3D

 61 62  0  0  0  0  0  0  0  0999 V2000
   -2.2320   24.5530  -28.9320 C   0  0  0  0  0  0  0  0  0  0  0  0
   -3.7410   24.3780  -29.0870 C   0  0  0  0  0  0  0  0  0  0  0  0
   -4.1560   24.6460  -30.4840 N   0  0  0  0  0  0  0  0  0  0  0  0
   -5.2920   25.6010  -30.5320 C   0  0  0  0  0  0  0  0  0  0  0  0
   -6.4780   25.0710  -29.7270 C   0  0  0  0  0  0  0  0  0  0  0  0
   -4.4560   23.3900  -31.2260 C   0  0  0  0  0  0  0  0  0  0  0  0
   -4.2600   22.1750  -30.3090 C   0  0  0  0  0  0  0  0  0  0  0  0
   -3.3600   21.2360  -30.8650 O   0  0  0  0  0  0  0  0  0  0  0  0
   -2.0500   21.4430  -30.3810 C   0  0  0  0  0  0  0  0  0  0  0  0
   -1.0910   21.5280  -31.5580 C   0  0  0  0  0  0  0  0  0  0  0  0
   -1.8380   21.5530  -32.7580 O   0  0  0  0  0  0  0  0  0  0  0  0
   -1.2090   20.7720  -33.7560 C   0  0  0  0  0  0  0  0  0  0  0  0
   -1.5020   19.2760  -33.5720 C   0  0  0  0  0  0  0  0  0  0  0  0
   -2.7720   19.0870  -32.8430 N   0  0  0  0  0  0  0  0  0  0  0  0
   -3.8940   18.8130  -33.7570 C   0  0  0  0  0  0  0  0  0  0  0  0
   -4.8960   19.9820  -33.7870 C   0  0  2  0  0  0  0  0  0  0  0  0
   -4.3240   21.1560  -33.2630 O   0  0  0  0  0  0  0  0  0  0  0  0
   -6.2160   19.6110  -33.1030 C   0  0  0  0  0  0  0  0  0  0  0  0
   -6.4950   18.2350  -32.9940 C   0  0  0  0  0  0  0  0  0  0  0  0
   -7.6350   17.7740  -32.3430 C   0  0  0  0  0  0  0  0  0  0  0  0
   -8.5190   18.6720  -31.7550 C   0  0  0  0  0  0  0  0  0  0  0  0
   -8.2810   20.0500  -31.8290 C   0  0  0  0  0  0  0  0  0  0  0  0
   -9.1820   20.9410  -31.2200 C   0  0  0  0  0  0  0  0  0  0  0  0
   -8.9660   22.3170  -31.2840 C   0  0  0  0  0  0  0  0  0  0  0  0
   -7.8580   22.8170  -31.9620 C   0  0  0  0  0  0  0  0  0  0  0  0
   -6.9460   21.9480  -32.5650 C   0  0  0  0  0  0  0  0  0  0  0  0
   -7.1290   20.5450  -32.5090 C   0  0  0  0  0  0  0  0  0  0  0  0
   -1.9742   24.5829  -27.8630 H   0  0  0  0  0  0  0  0  0  0  0  0
   -1.7139   23.7089  -29.4106 H   0  0  0  0  0  0  0  0  0  0  0  0
   -1.9208   25.4933  -29.4106 H   0  0  0  0  0  0  0  0  0  0  0  0
   -4.0147   23.3466  -28.8201 H   0  0  0  0  0  0  0  0  0  0  0  0
   -4.2509   25.0910  -28.4224 H   0  0  0  0  0  0  0  0  0  0  0  0
   -4.9713   26.5650  -30.1103 H   0  0  0  0  0  0  0  0  0  0  0  0
   -5.6037   25.7272  -31.5793 H   0  0  0  0  0  0  0  0  0  0  0  0
   -6.2638   25.1667  -28.6523 H   0  0  0  0  0  0  0  0  0  0  0  0
   -7.3784   25.6524  -29.9746 H   0  0  0  0  0  0  0  0  0  0  0  0
   -6.6455   24.0124  -29.9746 H   0  0  0  0  0  0  0  0  0  0  0  0
   -5.4978   23.4156  -31.5780 H   0  0  0  0  0  0  0  0  0  0  0  0
   -3.7725   23.3071  -32.0839 H   0  0  0  0  0  0  0  0  0  0  0  0
   -3.8633   22.5190  -29.3424 H   0  0  0  0  0  0  0  0  0  0  0  0
   -5.2348   21.6810  -30.1836 H   0  0  0  0  0  0  0  0  0  0  0  0
   -2.0133   22.3811  -29.8078 H   0  0  0  0  0  0  0  0  0  0  0  0
   -1.7605   20.6069  -29.7274 H   0  0  0  0  0  0  0  0  0  0  0  0
   -0.4896   22.4456  -31.4785 H   0  0  0  0  0  0  0  0  0  0  0  0
   -0.4203   20.6561  -31.5553 H   0  0  0  0  0  0  0  0  0  0  0  0
   -1.5778   21.0892  -34.7426 H   0  0  0  0  0  0  0  0  0  0  0  0
   -0.1222   20.9219  -33.6758 H   0  0  0  0  0  0  0  0  0  0  0  0
   -1.5759   18.7968  -34.5594 H   0  0  0  0  0  0  0  0  0  0  0  0
   -0.6859   18.8209  -32.9916 H   0  0  0  0  0  0  0  0  0  0  0  0
   -2.9970   19.9750  -32.3250 H   0  0  0  0  0  0  0  0  0  0  0  0
   -3.4985   18.6552  -34.7712 H   0  0  0  0  0  0  0  0  0  0  0  0
   -4.4205   17.9164  -33.3980 H   0  0  0  0  0  0  0  0  0  0  0  0
   -5.1415   20.1914  -34.8386 H   0  0  0  0  0  0  0  0  0  0  0  0
   -3.3840   20.9370  -33.0270 H   0  0  0  0  0  0  0  0  0  0  0  0
   -5.7959   17.5082  -33.4334 H   0  0  0  0  0  0  0  0  0  0  0  0
   -7.8379   16.6940  -32.2932 H   0  0  0  0  0  0  0  0  0  0  0  0
   -9.4098   18.2980  -31.2290 H   0  0  0  0  0  0  0  0  0  0  0  0
  -10.0629   20.5501  -30.6897 H   0  0  0  0  0  0  0  0  0  0  0  0
   -9.6714   23.0075  -30.7986 H   0  0  0  0  0  0  0  0  0  0  0  0
   -7.6996   23.9038  -32.0233 H   0  0  0  0  0  0  0  0  0  0  0  0
   -6.0723   22.3597  -33.0914 H   0  0  0  0  0  0  0  0  0  0  0  0
  1  2  1  0
  2  3  1  0
  3  4  1  0
  4  5  1  0
  3  6  1  0
  6  7  1  0
  7  8  1  0
  8  9  1  0
  9 10  1  0
 10 11  1  0
 11 12  1  0
 12 13  1  0
 13 14  1  0
 14 15  1  0
 15 16  1  0
 16 17  1  0
 16 18  1  0
 18 19  2  0
 19 20  1  0
 20 21  2  0
 21 22  1  0
 22 23  2  0
 23 24  1  0
 24 25  2  0
 25 26  1  0
 26 27  2  0
 27 18  1  0
 27 22  1  0
  1 28  1  0
  1 29  1  0
  1 30  1  0
  2 31  1  0
  2 32  1  0
  4 33  1  0
  4 34  1  0
  5 35  1  0
  5 36  1  0
  5 37  1  0
  6 38  1  0
  6 39  1  0
  7 40  1  0
  7 41  1  0
  9 42  1  0
  9 43  1  0
 10 44  1  0
 10 45  1  0
 12 46  1  0
 12 47  1  0
 13 48  1  0
 13 49  1  0
 14 50  1  0
 15 51  1  0
 15 52  1  0
 16 53  1  6
 17 54  1  0
 19 55  1  0
 20 56  1  0
 21 57  1  0
 23 58  1  0
 24 59  1  0
 25 60  1  0
 26 61  1  0
M  END
>  <UniqueID>  (7) 
7

>  <SMILES>  (7) 
CCN(CC)CCOCCOCCNC[C@H](O)c1cccc2ccccc12

>  <Energy>  (7) 
64.55828150841774

>  <Genealogy>  (7) 
CCN(CC)CCOCCOCCNC[C@H](O)c1cccc2ccccc12 (chirality)
CCN(CC)CCOCCOCCNC[C@H](O)c1cccc2ccccc12 (3D coordinates assigned)
CCN(CC)CCOCCOCCNC[C@H](O)c1cccc2ccccc12 (optimized conformer: 64.55828150841774 kcal/mol)

>  <smiles>  (7) 
CCN(CC)CCOCCOCCNCC(O)c1cccc2ccccc12

>  <score_type>  (7) 
oracle

>  <origin>  (7) 
adg

>  <m_score__min__energy>  (7) 
-8.0700000000000003

>  <m_primary>  (7) 
energy

$$$$
7:0
     RDKit          3D

 85 88  0  0  0  0  0  0  0  0999 V2000
   -2.5650   22.8170  -30.1600 C   0  0  0  0  0  0  0  0  0  0  0  0
   -3.1590   24.1300  -29.6480 C   0  0  0  0  0  0  0  0  0  0  0  0
   -4.6380   24.0480  -29.6050 N   0  0  0  0  0  0  0  0  0  0  0  0
   -5.2540   25.2600  -30.1890 C   0  0  0  0  0  0  0  0  0  0  0  0
   -6.4750   25.6880  -29.3770 C   0  0  0  0  0  0  0  0  0  0  0  0
   -5.1430   22.8080  -30.2530 C   0  0  0  0  0  0  0  0  0  0  0  0
   -6.1660   23.1550  -31.3390 C   0  0  0  0  0  0  0  0  0  0  0  0
   -5.8010   22.5780  -32.6330 N   0  0  0  0  0  0  0  0  0  0  0  0
   -5.7190   21.1550  -32.7960 C   0  0  0  0  0  0  0  0  0  0  0  0
   -6.8590   20.3600  -32.6010 C   0  0  0  0  0  0  0  0  0  0  0  0
   -8.0850   20.9400  -32.2110 C   0  0  0  0  0  0  0  0  0  0  0  0
   -9.2020   20.1470  -31.9690 C   0  0  0  0  0  0  0  0  0  0  0  0
   -9.1120   18.7660  -32.0940 C   0  0  0  0  0  0  0  0  0  0  0  0
   -7.9130   18.1700  -32.4930 C   0  0  0  0  0  0  0  0  0  0  0  0
   -6.7720   18.9550  -32.7930 C   0  0  0  0  0  0  0  0  0  0  0  0
   -5.5980   18.3890  -33.2580 N   0  0  0  0  0  0  0  0  0  0  0  0
   -5.5930   16.9920  -33.7500 C   0  0  0  0  0  0  0  0  0  0  0  0
   -4.4370   19.1400  -33.2950 C   0  0  0  0  0  0  0  0  0  0  0  0
   -3.1680   18.5470  -33.5260 C   0  0  0  0  0  0  0  0  0  0  0  0
   -2.0060   19.3290  -33.6590 C   0  0  0  0  0  0  0  0  0  0  0  0
   -0.7560   18.7760  -33.9880 O   0  0  0  0  0  0  0  0  0  0  0  0
   -0.4730   17.9050  -35.0840 C   0  0  0  0  0  0  0  0  0  0  0  0
    0.2280   16.6120  -34.5960 C   0  0  0  0  0  0  0  0  0  0  0  0
    1.1030   16.7520  -33.3830 N   0  0  0  0  0  0  0  0  0  0  0  0
    2.1590   15.7090  -33.5120 C   0  0  0  0  0  0  0  0  0  0  0  0
    0.3560   16.4890  -32.1060 C   0  0  0  0  0  0  0  0  0  0  0  0
   -0.0960   17.7770  -31.3840 C   0  0  0  0  0  0  0  0  0  0  0  0
    1.0470   18.6880  -31.0440 N   0  0  0  0  0  0  0  0  0  0  0  0
    1.5020   18.4150  -29.6570 C   0  0  0  0  0  0  0  0  0  0  0  0
    0.5740   20.0960  -31.0980 C   0  0  0  0  0  0  0  0  0  0  0  0
    2.2100   18.5220  -31.9720 C   0  0  0  0  0  0  0  0  0  0  0  0
    1.7690   18.0950  -33.3830 C   0  0  0  0  0  0  0  0  0  0  0  0
   -2.0740   20.7090  -33.4530 C   0  0  0  0  0  0  0  0  0  0  0  0
   -0.8880   21.4540  -33.5520 O   0  0  0  0  0  0  0  0  0  0  0  0
   -0.0810   21.5420  -34.7200 C   0  0  0  0  0  0  0  0  0  0  0  0
   -3.3050   21.3080  -33.1470 C   0  0  0  0  0  0  0  0  0  0  0  0
   -4.4890   20.5430  -33.0870 C   0  0  0  0  0  0  0  0  0  0  0  0
   -2.2795   22.1859  -29.3055 H   0  0  0  0  0  0  0  0  0  0  0  0
   -3.3124   22.2902  -30.7714 H   0  0  0  0  0  0  0  0  0  0  0  0
   -1.6758   23.0306  -30.7714 H   0  0  0  0  0  0  0  0  0  0  0  0
   -2.7778   24.3294  -28.6356 H   0  0  0  0  0  0  0  0  0  0  0  0
   -2.8672   24.9425  -30.3297 H   0  0  0  0  0  0  0  0  0  0  0  0
   -4.5162   26.0759  -30.1895 H   0  0  0  0  0  0  0  0  0  0  0  0
   -5.5735   25.0347  -31.2172 H   0  0  0  0  0  0  0  0  0  0  0  0
   -6.2478   25.6084  -28.3037 H   0  0  0  0  0  0  0  0  0  0  0  0
   -6.7311   26.7295  -29.6213 H   0  0  0  0  0  0  0  0  0  0  0  0
   -7.3253   25.0343  -29.6213 H   0  0  0  0  0  0  0  0  0  0  0  0
   -4.3001   22.2671  -30.7079 H   0  0  0  0  0  0  0  0  0  0  0  0
   -5.6280   22.1785  -29.4923 H   0  0  0  0  0  0  0  0  0  0  0  0
   -7.1497   22.7642  -31.0396 H   0  0  0  0  0  0  0  0  0  0  0  0
   -6.1919   24.2493  -31.4475 H   0  0  0  0  0  0  0  0  0  0  0  0
   -5.5340   23.1810  -33.4430 H   0  0  0  0  0  0  0  0  0  0  0  0
   -8.1582   22.0316  -32.0971 H   0  0  0  0  0  0  0  0  0  0  0  0
  -10.1555   20.6126  -31.6790 H   0  0  0  0  0  0  0  0  0  0  0  0
   -9.9894   18.1387  -31.8777 H   0  0  0  0  0  0  0  0  0  0  0  0
   -7.8538   17.0747  -32.5755 H   0  0  0  0  0  0  0  0  0  0  0  0
   -5.5905   16.3017  -32.8936 H   0  0  0  0  0  0  0  0  0  0  0  0
   -6.4905   16.8152  -34.3609 H   0  0  0  0  0  0  0  0  0  0  0  0
   -4.6942   16.8216  -34.3609 H   0  0  0  0  0  0  0  0  0  0  0  0
   -3.0916   17.4523  -33.6027 H   0  0  0  0  0  0  0  0  0  0  0  0
   -1.4156   17.6370  -35.5837 H   0  0  0  0  0  0  0  0  0  0  0  0
    0.1978   18.4261  -35.7829 H   0  0  0  0  0  0  0  0  0  0  0  0
   -0.5533   15.8735  -34.3633 H   0  0  0  0  0  0  0  0  0  0  0  0
    0.9015   16.3146  -35.4133 H   0  0  0  0  0  0  0  0  0  0  0  0
    2.4828   15.3892  -32.5106 H   0  0  0  0  0  0  0  0  0  0  0  0
    1.7558   14.8449  -34.0603 H   0  0  0  0  0  0  0  0  0  0  0  0
    3.0181   16.1229  -34.0603 H   0  0  0  0  0  0  0  0  0  0  0  0
   -0.5359   15.8895  -32.3408 H   0  0  0  0  0  0  0  0  0  0  0  0
    1.0447   15.9619  -31.4294 H   0  0  0  0  0  0  0  0  0  0  0  0
   -0.7944   18.3194  -32.0383 H   0  0  0  0  0  0  0  0  0  0  0  0
   -0.5706   17.4760  -30.4384 H   0  0  0  0  0  0  0  0  0  0  0  0
    0.7837   18.8460  -28.9440 H   0  0  0  0  0  0  0  0  0  0  0  0
    1.5676   17.3283  -29.4998 H   0  0  0  0  0  0  0  0  0  0  0  0
    2.4917   18.8686  -29.4998 H   0  0  0  0  0  0  0  0  0  0  0  0
    0.4453   20.4791  -30.0749 H   0  0  0  0  0  0  0  0  0  0  0  0
    1.3147   20.7115  -31.6295 H   0  0  0  0  0  0  0  0  0  0  0  0
   -0.3881   20.1395  -31.6295 H   0  0  0  0  0  0  0  0  0  0  0  0
    2.7466   19.4796  -32.0428 H   0  0  0  0  0  0  0  0  0  0  0  0
    2.8570   17.7307  -31.5656 H   0  0  0  0  0  0  0  0  0  0  0  0
    1.0624   18.8414  -33.7749 H   0  0  0  0  0  0  0  0  0  0  0  0
    2.6681   18.0274  -34.0131 H   0  0  0  0  0  0  0  0  0  0  0  0
    0.9736   21.6570  -34.4292 H   0  0  0  0  0  0  0  0  0  0  0  0
   -0.1989   20.6257  -35.3170 H   0  0  0  0  0  0  0  0  0  0  0  0
   -0.3936   22.4114  -35.3170 H   0  0  0  0  0  0  0  0  0  0  0  0
   -3.3478   22.3896  -32.9510 H   0  0  0  0  0  0  0  0  0  0  0  0
  1  2  1  0
  2  3  1  0
  3  4  1  0
  4  5  1  0
  3  6  1  0
  6  7  1  0
  7  8  1  0
  8  9  1  0
  9 10  2  0
 10 11  1  0
 11 12  2  0
 12 13  1  0
 13 14  2  0
 14 15  1  0
 15 16  2  0
 16 17  1  0
 16 18  1  0
 18 19  2  0
 19 20  1  0
 20 21  1  0
 21 22  1  0
 22 23  1  0
 23 24  1  0
 24 25  1  0
 24 26  1  0
 26 27  1  0
 27 28  1  0
 28 29  1  0
 28 30  1  0
 28 31  1  0
 31 32  1  0
 20 33  2  0
 33 34  1  0
 34 35  1  0
 33 36  1  0
 36 37  2  0
 37  9  1  0
 15 10  1  0
 37 18  1  0
 32 24  1  0
  1 38  1  0
  1 39  1  0
  1 40  1  0
  2 41  1  0
  2 42  1  0
  4 43  1  0
  4 44  1  0
  5 45  1  0
  5 46  1  0
  5 47  1  0
  6 48  1  0
  6 49  1  0
  7 50  1  0
  7 51  1  0
  8 52  1  0
 11 53  1  0
 12 54  1  0
 13 55  1  0
 14 56  1  0
 17 57  1  0
 17 58  1  0
 17 59  1  0
 19 60  1  0
 22 61  1  0
 22 62  1  0
 23 63  1  0
 23 64  1  0
 25 65  1  0
 25 66  1  0
 25 67  1  0
 26 68  1  0
 26 69  1  0
 27 70  1  0
 27 71  1  0
 29 72  1  0
 29 73  1  0
 29 74  1  0
 30 75  1  0
 30 76  1  0
 30 77  1  0
 31 78  1  0
 31 79  1  0
 32 80  1  0
 32 81  1  0
 35 82  1  0
 35 83  1  0
 35 84  1  0
 36 85  1  0
M  CHG  3  16   1  24   1  28   1
M  END
>  <UniqueID>  (8) 
8

>  <SMILES>  (8) 
CCN(CC)CCNc1c2ccccc2[n+](C)c2cc(OCC[N+]3(C)CC[N+](C)(C)CC3)c(OC)cc12

>  <Energy>  (8) 
139.1778204701854

>  <Genealogy>  (8) 
CCN(CC)CCNc1c2ccccc2[n+](C)c2cc(OCC[N+]3(C)CC[N+](C)(C)CC3)c(OC)cc12 (3D coordinates assigned)
CCN(CC)CCNc1c2ccccc2[n+](C)c2cc(OCC[N+]3(C)CC[N+](C)(C)CC3)c(OC)cc12 (nonaromatic ring conformer: 139.1778204701854 kcal/mol)

>  <smiles>  (8) 
CCN(CC)CCNc1c2ccccc2[n+](C)c2cc(OCC[N+]3(C)CC[N+](C)(C)CC3)c(OC)cc12

>  <score_type>  (8) 
oracle

>  <origin>  (8) 
adg

>  <m_score__min__energy>  (8) 
-8.4000000000000004

>  <m_primary>  (8) 
energy

$$$$
8:0
     RDKit          3D

 58 60  0  0  0  0  0  0  0  0999 V2000
   -0.9880   25.6010  -26.5440 C   0  0  0  0  0  0  0  0  0  0  0  0
   -0.9360   26.4580  -27.8060 C   0  0  0  0  0  0  0  0  0  0  0  0
   -1.0110   25.6130  -29.0090 N   0  0  0  0  0  0  0  0  0  0  0  0
   -1.5420   24.2690  -28.7220 C   0  0  0  0  0  0  0  0  0  0  0  0
   -3.0780   24.2350  -28.7000 C   0  0  0  0  0  0  0  0  0  0  0  0
   -3.5760   25.1190  -29.6910 O   0  0  0  0  0  0  0  0  0  0  0  0
   -4.9900   25.0870  -29.7690 C   0  0  0  0  0  0  0  0  0  0  0  0
   -5.4860   24.9270  -31.2170 C   0  0  0  0  0  0  0  0  0  0  0  0
   -5.6460   23.5110  -31.5780 N   0  0  0  0  0  0  0  0  0  0  0  0
   -4.5760   22.7150  -30.9630 C   0  0  0  0  0  0  0  0  0  0  0  0
   -3.5900   22.2270  -32.0300 C   0  0  0  0  0  0  0  0  0  0  0  0
   -4.2950   21.5880  -33.1450 N   0  0  0  0  0  0  0  0  0  0  0  0
   -4.6660   20.1970  -33.1140 C   0  0  0  0  0  0  0  0  0  0  0  0
   -3.7450   19.2180  -33.5240 C   0  0  0  0  0  0  0  0  0  0  0  0
   -2.4310   19.5760  -33.8940 C   0  0  0  0  0  0  0  0  0  0  0  0
   -1.5420   18.6220  -34.3780 C   0  0  0  0  0  0  0  0  0  0  0  0
   -1.9470   17.3010  -34.5160 C   0  0  0  0  0  0  0  0  0  0  0  0
   -3.2340   16.9190  -34.1400 C   0  0  0  0  0  0  0  0  0  0  0  0
   -4.1510   17.8590  -33.6010 C   0  0  0  0  0  0  0  0  0  0  0  0
   -5.4170   17.4870  -33.1880 N   0  0  0  0  0  0  0  0  0  0  0  0
   -5.7510   16.0540  -33.0270 C   0  0  0  0  0  0  0  0  0  0  0  0
   -6.3620   18.4530  -32.8950 C   0  0  0  0  0  0  0  0  0  0  0  0
   -7.7300   18.1270  -32.7070 C   0  0  0  0  0  0  0  0  0  0  0  0
   -8.6570   19.0970  -32.3280 C   0  0  0  0  0  0  0  0  0  0  0  0
   -8.2500   20.4120  -32.1280 C   0  0  0  0  0  0  0  0  0  0  0  0
   -9.4140   21.6200  -31.6140 Cl  0  0  0  0  0  0  0  0  0  0  0  0
   -6.9240   20.7720  -32.3560 C   0  0  0  0  0  0  0  0  0  0  0  0
   -5.9810   19.8180  -32.7910 C   0  0  0  0  0  0  0  0  0  0  0  0
   -0.9486   26.2510  -25.6575 H   0  0  0  0  0  0  0  0  0  0  0  0
   -1.9230   25.0216  -26.5325 H   0  0  0  0  0  0  0  0  0  0  0  0
   -0.1300   24.9128  -26.5325 H   0  0  0  0  0  0  0  0  0  0  0  0
   -1.7842   27.1584  -27.8026 H   0  0  0  0  0  0  0  0  0  0  0  0
    0.0144   27.0117  -27.8200 H   0  0  0  0  0  0  0  0  0  0  0  0
   -1.6170   26.0850  -29.7210 H   0  0  0  0  0  0  0  0  0  0  0  0
   -1.1850   23.5757  -29.4978 H   0  0  0  0  0  0  0  0  0  0  0  0
   -1.1871   23.9759  -27.7229 H   0  0  0  0  0  0  0  0  0  0  0  0
   -3.4269   23.2130  -28.9092 H   0  0  0  0  0  0  0  0  0  0  0  0
   -3.4414   24.5461  -27.7095 H   0  0  0  0  0  0  0  0  0  0  0  0
   -5.3592   24.2401  -29.1719 H   0  0  0  0  0  0  0  0  0  0  0  0
   -5.3724   26.0436  -29.3835 H   0  0  0  0  0  0  0  0  0  0  0  0
   -6.4566   25.4342  -31.3205 H   0  0  0  0  0  0  0  0  0  0  0  0
   -4.7379   25.3723  -31.8894 H   0  0  0  0  0  0  0  0  0  0  0  0
   -5.5500   23.4100  -32.6150 H   0  0  0  0  0  0  0  0  0  0  0  0
   -4.0389   23.3351  -30.2302 H   0  0  0  0  0  0  0  0  0  0  0  0
   -5.0230   21.8418  -30.4653 H   0  0  0  0  0  0  0  0  0  0  0  0
   -3.0184   23.0861  -32.4111 H   0  0  0  0  0  0  0  0  0  0  0  0
   -2.9163   21.4878  -31.5721 H   0  0  0  0  0  0  0  0  0  0  0  0
   -4.6450   22.1840  -33.9280 H   0  0  0  0  0  0  0  0  0  0  0  0
   -2.1058   20.6225  -33.7984 H   0  0  0  0  0  0  0  0  0  0  0  0
   -0.5174   18.9142  -34.6516 H   0  0  0  0  0  0  0  0  0  0  0  0
   -1.2502   16.5536  -34.9233 H   0  0  0  0  0  0  0  0  0  0  0  0
   -3.5443   15.8709  -34.2632 H   0  0  0  0  0  0  0  0  0  0  0  0
   -5.8081   15.8089  -31.9562 H   0  0  0  0  0  0  0  0  0  0  0  0
   -6.7212   15.8480  -33.5026 H   0  0  0  0  0  0  0  0  0  0  0  0
   -4.9718   15.4402  -33.5026 H   0  0  0  0  0  0  0  0  0  0  0  0
   -8.0651   17.0909  -32.8630 H   0  0  0  0  0  0  0  0  0  0  0  0
   -9.7126   18.8218  -32.1868 H   0  0  0  0  0  0  0  0  0  0  0  0
   -6.6084   21.8134  -32.1948 H   0  0  0  0  0  0  0  0  0  0  0  0
  1  2  1  0
  2  3  1  0
  3  4  1  0
  4  5  1  0
  5  6  1  0
  6  7  1  0
  7  8  1  0
  8  9  1  0
  9 10  1  0
 10 11  1  0
 11 12  1  0
 12 13  1  0
 13 14  2  0
 14 15  1  0
 15 16  2  0
 16 17  1  0
 17 18  2  0
 18 19  1  0
 19 20  2  0
 20 21  1  0
 20 22  1  0
 22 23  2  0
 23 24  1  0
 24 25  2  0
 25 26  1  0
 25 27  1  0
 27 28  2  0
 28 13  1  0
 19 14  1  0
 28 22  1  0
  1 29  1  0
  1 30  1  0
  1 31  1  0
  2 32  1  0
  2 33  1  0
  3 34  1  0
  4 35  1  0
  4 36  1  0
  5 37  1  0
  5 38  1  0
  7 39  1  0
  7 40  1  0
  8 41  1  0
  8 42  1  0
  9 43  1  0
 10 44  1  0
 10 45  1  0
 11 46  1  0
 11 47  1  0
 12 48  1  0
 15 49  1  0
 16 50  1  0
 17 51  1  0
 18 52  1  0
 21 53  1  0
 21 54  1  0
 21 55  1  0
 23 56  1  0
 24 57  1  0
 27 58  1  0
M  CHG  1  20   1
M  END
>  <UniqueID>  (9) 
9

>  <SMILES>  (9) 
CCNCCOCCNCCNc1c2ccccc2[n+](C)c2ccc(Cl)cc12

>  <Energy>  (9) 
77.58121800827819

>  <Genealogy>  (9) 
CCNCCOCCNCCNc1c2ccccc2[n+](C)c2ccc(Cl)cc12 (3D coordinates assigned)
CCNCCOCCNCCNc1c2ccccc2[n+](C)c2ccc(Cl)cc12 (optimized conformer: 77.58121800827819 kcal/mol)

>  <smiles>  (9) 
CCNCCOCCNCCNc1c2ccccc2[n+](C)c2ccc(Cl)cc12

>  <score_type>  (9) 
oracle

>  <origin>  (9) 
adg

>  <m_score__min__energy>  (9) 
-8.8100000000000005

>  <m_primary>  (9) 
energy

$$$$
9:0
     RDKit          3D

 50 52  0  0  0  0  0  0  0  0999 V2000
   -1.8850   22.8280  -29.5200 C   0  0  0  0  0  0  0  0  0  0  0  0
   -2.7930   24.0550  -29.6870 C   0  0  0  0  0  0  0  0  0  0  0  0
   -4.1610   23.8720  -29.1470 N   0  0  0  0  0  0  0  0  0  0  0  0
   -4.2360   24.1940  -27.7100 C   0  0  0  0  0  0  0  0  0  0  0  0
   -5.1800   24.5980  -29.9340 C   0  0  0  0  0  0  0  0  0  0  0  0
   -5.7390   23.7060  -31.0600 C   0  0  0  0  0  0  0  0  0  0  0  0
   -5.7010   22.2720  -30.7050 N   0  0  0  0  0  0  0  0  0  0  0  0
   -5.7680   21.4090  -31.8820 C   0  0  0  0  0  0  0  0  0  0  0  0
   -4.5740   21.0370  -32.5480 C   0  0  0  0  0  0  0  0  0  0  0  0
   -3.4060   21.8290  -32.4520 C   0  0  0  0  0  0  0  0  0  0  0  0
   -2.2100   21.4190  -33.0360 C   0  0  0  0  0  0  0  0  0  0  0  0
   -2.1470   20.2110  -33.7140 C   0  0  0  0  0  0  0  0  0  0  0  0
   -3.2870   19.4210  -33.8440 C   0  0  0  0  0  0  0  0  0  0  0  0
   -4.5350   19.8340  -33.3070 C   0  0  0  0  0  0  0  0  0  0  0  0
   -5.6770   19.0710  -33.4630 N   0  0  0  0  0  0  0  0  0  0  0  0
   -5.6740   17.9170  -34.3920 C   0  0  0  0  0  0  0  0  0  0  0  0
   -6.8420   19.4260  -32.8120 C   0  0  0  0  0  0  0  0  0  0  0  0
   -7.9460   18.5400  -32.7350 C   0  0  0  0  0  0  0  0  0  0  0  0
   -9.1680   18.9610  -32.2220 C   0  0  0  0  0  0  0  0  0  0  0  0
   -9.3430   20.2840  -31.8440 C   0  0  0  0  0  0  0  0  0  0  0  0
   -8.2660   21.1790  -31.8710 C   0  0  0  0  0  0  0  0  0  0  0  0
   -8.6040   22.6460  -31.7630 C   0  0  0  0  0  0  0  0  0  0  0  0
   -6.9590   20.6970  -32.1840 C   0  0  0  0  0  0  0  0  0  0  0  0
   -1.7353   22.6257  -28.4492 H   0  0  0  0  0  0  0  0  0  0  0  0
   -2.3566   21.9554  -29.9956 H   0  0  0  0  0  0  0  0  0  0  0  0
   -0.9127   23.0239  -29.9956 H   0  0  0  0  0  0  0  0  0  0  0  0
   -2.3263   24.9039  -29.1658 H   0  0  0  0  0  0  0  0  0  0  0  0
   -2.8987   24.2273  -30.7683 H   0  0  0  0  0  0  0  0  0  0  0  0
   -4.0254   23.2897  -27.1201 H   0  0  0  0  0  0  0  0  0  0  0  0
   -3.4946   24.9700  -27.4689 H   0  0  0  0  0  0  0  0  0  0  0  0
   -5.2440   24.5625  -27.4689 H   0  0  0  0  0  0  0  0  0  0  0  0
   -6.0033   24.8978  -29.2690 H   0  0  0  0  0  0  0  0  0  0  0  0
   -4.7111   25.4845  -30.3860 H   0  0  0  0  0  0  0  0  0  0  0  0
   -6.7820   23.9951  -31.2565 H   0  0  0  0  0  0  0  0  0  0  0  0
   -5.1096   23.8509  -31.9505 H   0  0  0  0  0  0  0  0  0  0  0  0
   -4.8250   22.1470  -30.1610 H   0  0  0  0  0  0  0  0  0  0  0  0
   -6.4770   22.0460  -30.0440 H   0  0  0  0  0  0  0  0  0  0  0  0
   -3.4429   22.7840  -31.9074 H   0  0  0  0  0  0  0  0  0  0  0  0
   -1.3149   22.0537  -32.9594 H   0  0  0  0  0  0  0  0  0  0  0  0
   -1.1945   19.8757  -34.1503 H   0  0  0  0  0  0  0  0  0  0  0  0
   -3.2191   18.4588  -34.3728 H   0  0  0  0  0  0  0  0  0  0  0  0
   -5.6716   16.9811  -33.8141 H   0  0  0  0  0  0  0  0  0  0  0  0
   -6.5722   17.9542  -35.0259 H   0  0  0  0  0  0  0  0  0  0  0  0
   -4.7760   17.9589  -35.0259 H   0  0  0  0  0  0  0  0  0  0  0  0
   -7.8343   17.5037  -33.0864 H   0  0  0  0  0  0  0  0  0  0  0  0
   -9.9960   18.2447  -32.1160 H   0  0  0  0  0  0  0  0  0  0  0  0
  -10.3348   20.6328  -31.5207 H   0  0  0  0  0  0  0  0  0  0  0  0
   -8.6695   22.9301  -30.7023 H   0  0  0  0  0  0  0  0  0  0  0  0
   -7.8192   23.2402  -32.2540 H   0  0  0  0  0  0  0  0  0  0  0  0
   -9.5697   22.8369  -32.2540 H   0  0  0  0  0  0  0  0  0  0  0  0
  1  2  1  0
  2  3  1  0
  3  4  1  0
  3  5  1  0
  5  6  1  0
  6  7  1  0
  7  8  1  0
  8  9  2  0
  9 10  1  0
 10 11  2  0
 11 12  1  0
 12 13  2  0
 13 14  1  0
 14 15  2  0
 15 16  1  0
 15 17  1  0
 17 18  2  0
 18 19  1  0
 19 20  2  0
 20 21  1  0
 21 22  1  0
 21 23  2  0
 23  8  1  0
 14  9  1  0
 23 17  1  0
  1 24  1  0
  1 25  1  0
  1 26  1  0
  2 27  1  0
  2 28  1  0
  4 29  1  0
  4 30  1  0
  4 31  1  0
  5 32  1  0
  5 33  1  0
  6 34  1  0
  6 35  1  0
  7 36  1  0
  7 37  1  0
 10 38  1  0
 11 39  1  0
 12 40  1  0
 13 41  1  0
 16 42  1  0
 16 43  1  0
 16 44  1  0
 18 45  1  0
 19 46  1  0
 20 47  1  0
 22 48  1  0
 22 49  1  0
 22 50  1  0
M  CHG  2   7   1  15   1
M  END
>  <UniqueID>  (10) 
10

>  <SMILES>  (10) 
CCN(C)CC[NH2+]c1c2ccccc2[n+](C)c2cccc(C)c12

>  <Energy>  (10) 
94.94177011425879

>  <Genealogy>  (10) 
CCN(C)CC[NH2+]c1c2ccccc2[n+](C)c2cccc(C)c12 (protonated)
CCN(C)CC[NH2+]c1c2ccccc2[n+](C)c2cccc(C)c12 (3D coordinates assigned)
CCN(C)CC[NH2+]c1c2ccccc2[n+](C)c2cccc(C)c12 (optimized conformer: 94.94177011425879 kcal/mol)

>  <smiles>  (10) 
CCN(C)CCNc1c2ccccc2[n+](C)c2cccc(C)c12

>  <score_type>  (10) 
oracle

>  <origin>  (10) 
adg

>  <m_score__min__energy>  (10) 
-7.9100000000000001

>  <m_primary>  (10) 
energy

$$$$
10:0
     RDKit          3D

 62 64  0  0  0  0  0  0  0  0999 V2000
  -10.2128   22.0510  -31.6938 H   0  0  0  0  0  0  0  0  0  0  0  0
   -9.1400   22.0710  -31.9360 C   0  0  0  0  0  0  0  0  0  0  0  0
   -8.5290   23.2650  -31.9600 C   0  0  0  0  0  0  0  0  0  0  0  0
   -8.9072   24.0427  -32.6398 H   0  0  0  0  0  0  0  0  0  0  0  0
   -7.3470   23.5740  -31.0900 C   0  0  0  0  0  0  0  0  0  0  0  0
   -7.5569   24.4903  -30.5187 H   0  0  0  0  0  0  0  0  0  0  0  0
   -7.1845   22.7156  -30.4216 H   0  0  0  0  0  0  0  0  0  0  0  0
   -6.0550   23.7860  -31.9170 C   0  0  0  0  0  0  0  0  0  0  0  0
   -5.6693   22.7962  -32.2024 H   0  0  0  0  0  0  0  0  0  0  0  0
   -6.3443   24.4133  -32.7730 H   0  0  0  0  0  0  0  0  0  0  0  0
   -4.9640   24.5200  -31.2240 N   0  0  0  0  0  0  0  0  0  0  0  0
   -5.4180   25.6870  -30.4500 C   0  0  0  0  0  0  0  0  0  0  0  0
   -5.3334   25.4695  -29.3750 H   0  0  0  0  0  0  0  0  0  0  0  0
   -4.7929   26.5574  -30.6983 H   0  0  0  0  0  0  0  0  0  0  0  0
   -6.4670   25.9061  -30.6983 H   0  0  0  0  0  0  0  0  0  0  0  0
   -4.0290   23.6580  -30.4790 C   0  0  0  0  0  0  0  0  0  0  0  0
   -4.1818   23.7989  -29.3988 H   0  0  0  0  0  0  0  0  0  0  0  0
   -4.2125   22.6055  -30.7411 H   0  0  0  0  0  0  0  0  0  0  0  0
   -2.9949   23.9262  -30.7411 H   0  0  0  0  0  0  0  0  0  0  0  0
   -8.4690   20.7700  -32.2140 C   0  0  0  0  0  0  0  0  0  0  0  0
   -9.0960   19.5850  -31.7780 C   0  0  0  0  0  0  0  0  0  0  0  0
  -10.0777   19.6395  -31.2847 H   0  0  0  0  0  0  0  0  0  0  0  0
   -8.4850   18.3410  -31.9650 C   0  0  0  0  0  0  0  0  0  0  0  0
   -8.9842   17.4269  -31.6112 H   0  0  0  0  0  0  0  0  0  0  0  0
   -7.2380   18.2540  -32.6020 C   0  0  0  0  0  0  0  0  0  0  0  0
   -6.5880   17.0250  -32.7750 C   0  0  0  0  0  0  0  0  0  0  0  0
   -7.0590   16.0970  -32.4185 H   0  0  0  0  0  0  0  0  0  0  0  0
   -5.3330   16.9810  -33.4050 C   0  0  0  0  0  0  0  0  0  0  0  0
   -4.6420   15.7670  -33.5780 C   0  0  0  0  0  0  0  0  0  0  0  0
   -5.0786   14.8274  -33.2086 H   0  0  0  0  0  0  0  0  0  0  0  0
   -3.4000   15.7570  -34.2200 C   0  0  0  0  0  0  0  0  0  0  0  0
   -2.8564   14.8089  -34.3449 H   0  0  0  0  0  0  0  0  0  0  0  0
   -2.8430   16.9500  -34.7060 C   0  0  0  0  0  0  0  0  0  0  0  0
   -1.6150   16.9610  -35.3600 O   0  0  0  0  0  0  0  0  0  0  0  0
   -0.3940   17.2170  -34.6770 C   0  0  0  0  0  0  0  0  0  0  0  0
    0.4334   16.7055  -35.1906 H   0  0  0  0  0  0  0  0  0  0  0  0
   -0.4533   16.8442  -33.6438 H   0  0  0  0  0  0  0  0  0  0  0  0
   -0.1480   18.7280  -34.6780 C   0  0  0  0  0  0  0  0  0  0  0  0
   -0.4306   19.1454  -35.6557 H   0  0  0  0  0  0  0  0  0  0  0  0
    0.9173   18.9276  -34.4899 H   0  0  0  0  0  0  0  0  0  0  0  0
   -0.9670   19.3600  -33.6140 N   0  0  0  0  0  0  0  0  0  0  0  0
   -0.4740   19.0330  -32.2520 C   0  0  0  0  0  0  0  0  0  0  0  0
   -0.3279   17.9456  -32.1730 H   0  0  0  0  0  0  0  0  0  0  0  0
   -1.2178   19.3745  -31.5170 H   0  0  0  0  0  0  0  0  0  0  0  0
    0.8500   19.7370  -31.9700 C   0  0  0  0  0  0  0  0  0  0  0  0
    0.9989   19.8162  -30.8830 H   0  0  0  0  0  0  0  0  0  0  0  0
    1.6744   19.1582  -32.4118 H   0  0  0  0  0  0  0  0  0  0  0  0
    0.8311   20.7442  -32.4118 H   0  0  0  0  0  0  0  0  0  0  0  0
   -1.1960   20.8120  -33.8180 C   0  0  0  0  0  0  0  0  0  0  0  0
   -0.4996   21.3823  -33.1858 H   0  0  0  0  0  0  0  0  0  0  0  0
   -1.0275   21.0574  -34.8770 H   0  0  0  0  0  0  0  0  0  0  0  0
   -2.6330   21.1760  -33.4430 C   0  0  0  0  0  0  0  0  0  0  0  0
   -2.7310   21.2008  -32.3477 H   0  0  0  0  0  0  0  0  0  0  0  0
   -2.8803   22.1652  -33.8558 H   0  0  0  0  0  0  0  0  0  0  0  0
   -3.3214   20.4239  -33.8558 H   0  0  0  0  0  0  0  0  0  0  0  0
   -3.5320   18.1570  -34.5430 C   0  0  0  0  0  0  0  0  0  0  0  0
   -3.1023   19.0902  -34.9359 H   0  0  0  0  0  0  0  0  0  0  0  0
   -4.7640   18.1820  -33.8830 C   0  0  0  0  0  0  0  0  0  0  0  0
   -5.4130   19.3600  -33.7020 N   0  0  0  0  0  0  0  0  0  0  0  0
   -6.6170   19.4300  -33.0710 C   0  0  0  0  0  0  0  0  0  0  0  0
   -7.2280   20.6730  -32.8800 C   0  0  0  0  0  0  0  0  0  0  0  0
   -6.7370   21.5842  -33.2523 H   0  0  0  0  0  0  0  0  0  0  0  0
  1  2  1  0
  2  3  2  0
  3  4  1  0
  3  5  1  0
  5  6  1  0
  5  7  1  0
  5  8  1  0
  8  9  1  0
  8 10  1  0
  8 11  1  0
 11 12  1  0
 12 13  1  0
 12 14  1  0
 12 15  1  0
 11 16  1  0
 16 17  1  0
 16 18  1  0
 16 19  1  0
  2 20  1  0
 20 21  2  0
 21 22  1  0
 21 23  1  0
 23 24  1  0
 23 25  2  0
 25 26  1  0
 26 27  1  0
 26 28  2  0
 28 29  1  0
 29 30  1  0
 29 31  2  0
 31 32  1  0
 31 33  1  0
 33 34  1  0
 34 35  1  0
 35 36  1  0
 35 37  1  0
 35 38  1  0
 38 39  1  0
 38 40  1  0
 38 41  1  0
 41 42  1  0
 42 43  1  0
 42 44  1  0
 42 45  1  0
 45 46  1  0
 45 47  1  0
 45 48  1  0
 41 49  1  0
 49 50  1  0
 49 51  1  0
 49 52  1  0
 52 53  1  0
 52 54  1  0
 52 55  1  0
 33 56  2  0
 56 57  1  0
 56 58  1  0
 58 59  2  0
 59 60  1  0
 60 61  2  0
 61 62  1  0
 61 20  1  0
 60 25  1  0
 58 28  1  0
M  END
>  <UniqueID>  (11) 
11

>  <SMILES>  (11) 
CCN(CC)CCOc1ccc2cc3ccc(/C=C/CCN(C)C)cc3nc2c1

>  <Energy>  (11) 
82.78614716980178

>  <Genealogy>  (11) 
CCN(CC)CCOc1ccc2cc3ccc(/C=C/CCN(C)C)cc3nc2c1 (cis-trans isomerization)
CCN(CC)CCOc1ccc2cc3ccc(/C=C/CCN(C)C)cc3nc2c1 (3D coordinates assigned)
CCN(CC)CCOc1ccc2cc3ccc(/C=C/CCN(C)C)cc3nc2c1 (optimized conformer: 82.78614716980178 kcal/mol)

>  <smiles>  (11) 
CCN(CC)CCOc1ccc2cc3ccc(C=CCCN(C)C)cc3nc2c1

>  <score_type>  (11) 
oracle

>  <origin>  (11) 
adg

>  <m_score__min__energy>  (11) 
-9.2699999999999996

>  <m_primary>  (11) 
energy

$$$$
11:0
     RDKit          3D

 64 66  0  0  0  0  0  0  0  0999 V2000
   -6.0400   24.5650  -29.8390 C   0  0  0  0  0  0  0  0  0  0  0  0
   -4.6680   24.9930  -30.3450 C   0  0  0  0  0  0  0  0  0  0  0  0
   -3.6590   23.9750  -29.9700 N   0  0  0  0  0  0  0  0  0  0  0  0
   -2.4930   24.5520  -29.2620 C   0  0  0  0  0  0  0  0  0  0  0  0
   -2.5770   24.4520  -27.7290 C   0  0  0  0  0  0  0  0  0  0  0  0
   -4.2380   22.8040  -29.2790 C   0  0  0  0  0  0  0  0  0  0  0  0
   -3.7940   21.5030  -29.9630 C   0  0  0  0  0  0  0  0  0  0  0  0
   -3.5680   21.7180  -31.4030 N   0  0  0  0  0  0  0  0  0  0  0  0
   -4.2310   20.7040  -32.2090 C   0  0  0  0  0  0  0  0  0  0  0  0
   -5.6560   20.6670  -32.2710 C   0  0  0  0  0  0  0  0  0  0  0  0
   -6.4650   21.6530  -31.6510 C   0  0  0  0  0  0  0  0  0  0  0  0
   -7.8530   21.6200  -31.7630 C   0  0  0  0  0  0  0  0  0  0  0  0
   -8.4720   20.6060  -32.4770 C   0  0  0  0  0  0  0  0  0  0  0  0
   -7.7070   19.6130  -33.0820 C   0  0  0  0  0  0  0  0  0  0  0  0
   -6.2930   19.6240  -32.9940 C   0  0  0  0  0  0  0  0  0  0  0  0
   -5.5460   18.6270  -33.5700 N   0  0  0  0  0  0  0  0  0  0  0  0
   -6.1090   17.8650  -34.7000 C   0  0  0  0  0  0  0  0  0  0  0  0
   -4.2180   18.4830  -33.2410 C   0  0  0  0  0  0  0  0  0  0  0  0
   -3.4960   19.6260  -32.7960 C   0  0  0  0  0  0  0  0  0  0  0  0
   -2.0760   19.5890  -32.9250 C   0  0  0  0  0  0  0  0  0  0  0  0
   -1.2730   20.7800  -32.9920 N   0  0  0  0  0  0  0  0  0  0  0  0
   -0.8410   21.2200  -34.3190 C   0  0  0  0  0  0  0  0  0  0  0  0
   -0.4000   21.1030  -31.8620 C   0  0  0  0  0  0  0  0  0  0  0  0
   -1.4520   18.3800  -33.2270 C   0  0  0  0  0  0  0  0  0  0  0  0
   -2.1990   17.2250  -33.3660 C   0  0  0  0  0  0  0  0  0  0  0  0
   -3.5640   17.2630  -33.3380 N   0  0  0  0  0  0  0  0  0  0  0  0
   -4.2610   15.9590  -33.2070 C   0  0  0  0  0  0  0  0  0  0  0  0
   -5.2560   15.9640  -32.0460 C   0  0  0  0  0  0  0  0  0  0  0  0
   -6.0414   24.5646  -28.7390 H   0  0  0  0  0  0  0  0  0  0  0  0
   -6.8020   25.2681  -30.2064 H   0  0  0  0  0  0  0  0  0  0  0  0
   -6.2671   23.5533  -30.2064 H   0  0  0  0  0  0  0  0  0  0  0  0
   -4.6969   25.0935  -31.4400 H   0  0  0  0  0  0  0  0  0  0  0  0
   -4.3974   25.9587  -29.8931 H   0  0  0  0  0  0  0  0  0  0  0  0
   -1.5892   24.0200  -29.5940 H   0  0  0  0  0  0  0  0  0  0  0  0
   -2.4699   25.6236  -29.5094 H   0  0  0  0  0  0  0  0  0  0  0  0
   -1.9324   25.2194  -27.2756 H   0  0  0  0  0  0  0  0  0  0  0  0
   -3.6171   24.6102  -27.4077 H   0  0  0  0  0  0  0  0  0  0  0  0
   -2.2416   23.4549  -27.4077 H   0  0  0  0  0  0  0  0  0  0  0  0
   -3.8990   22.7969  -28.2326 H   0  0  0  0  0  0  0  0  0  0  0  0
   -5.3351   22.8721  -29.3214 H   0  0  0  0  0  0  0  0  0  0  0  0
   -2.8596   21.1531  -29.4999 H   0  0  0  0  0  0  0  0  0  0  0  0
   -4.5880   20.7518  -29.8397 H   0  0  0  0  0  0  0  0  0  0  0  0
   -2.5440   21.7220  -31.6070 H   0  0  0  0  0  0  0  0  0  0  0  0
   -3.8670   22.6730  -31.6860 H   0  0  0  0  0  0  0  0  0  0  0  0
   -5.9883   22.4575  -31.0718 H   0  0  0  0  0  0  0  0  0  0  0  0
   -8.4602   22.4016  -31.2830 H   0  0  0  0  0  0  0  0  0  0  0  0
   -9.5682   20.5860  -32.5655 H   0  0  0  0  0  0  0  0  0  0  0  0
   -8.2083   18.8067  -33.6374 H   0  0  0  0  0  0  0  0  0  0  0  0
   -6.7212   17.0363  -34.3147 H   0  0  0  0  0  0  0  0  0  0  0  0
   -6.7352   18.5288  -35.3141 H   0  0  0  0  0  0  0  0  0  0  0  0
   -5.2905   17.4614  -35.3141 H   0  0  0  0  0  0  0  0  0  0  0  0
   -0.0738   22.0014  -34.2145 H   0  0  0  0  0  0  0  0  0  0  0  0
   -0.4213   20.3655  -34.8700 H   0  0  0  0  0  0  0  0  0  0  0  0
   -1.7031   21.6239  -34.8700 H   0  0  0  0  0  0  0  0  0  0  0  0
   -0.9321   20.9061  -30.9196 H   0  0  0  0  0  0  0  0  0  0  0  0
    0.5057   20.4804  -31.9087 H   0  0  0  0  0  0  0  0  0  0  0  0
   -0.1176   22.1651  -31.9087 H   0  0  0  0  0  0  0  0  0  0  0  0
   -0.3601   18.3446  -33.3554 H   0  0  0  0  0  0  0  0  0  0  0  0
   -1.6864   16.2612  -33.5011 H   0  0  0  0  0  0  0  0  0  0  0  0
   -4.8036   15.7494  -34.1406 H   0  0  0  0  0  0  0  0  0  0  0  0
   -3.5055   15.1847  -33.0079 H   0  0  0  0  0  0  0  0  0  0  0  0
   -4.7071   15.9612  -31.0927 H   0  0  0  0  0  0  0  0  0  0  0  0
   -5.8838   16.8653  -32.1050 H   0  0  0  0  0  0  0  0  0  0  0  0
   -5.8928   15.0690  -32.1050 H   0  0  0  0  0  0  0  0  0  0  0  0
  1  2  1  0
  2  3  1  0
  3  4  1  0
  4  5  1  0
  3  6  1  0
  6  7  1  0
  7  8  1  0
  8  9  1  0
  9 10  2  0
 10 11  1  0
 11 12  2  0
 12 13  1  0
 13 14  2  0
 14 15  1  0
 15 16  2  0
 16 17  1  0
 16 18  1  0
 18 19  2  0
 19 20  1  0
 20 21  1  0
 21 22  1  0
 21 23  1  0
 20 24  2  0
 24 25  1  0
 25 26  2  0
 26 27  1  0
 27 28  1  0
 19  9  1  0
 15 10  1  0
 26 18  1  0
  1 29  1  0
  1 30  1  0
  1 31  1  0
  2 32  1  0
  2 33  1  0
  4 34  1  0
  4 35  1  0
  5 36  1  0
  5 37  1  0
  5 38  1  0
  6 39  1  0
  6 40  1  0
  7 41  1  0
  7 42  1  0
  8 43  1  0
  8 44  1  0
 11 45  1  0
 12 46  1  0
 13 47  1  0
 14 48  1  0
 17 49  1  0
 17 50  1  0
 17 51  1  0
 22 52  1  0
 22 53  1  0
 22 54  1  0
 23 55  1  0
 23 56  1  0
 23 57  1  0
 24 58  1  0
 25 59  1  0
 27 60  1  0
 27 61  1  0
 28 62  1  0
 28 63  1  0
 28 64  1  0
M  CHG  3   8   1  16   1  26   1
M  END
>  <UniqueID>  (12) 
12

>  <SMILES>  (12) 
CCN(CC)CC[NH2+]c1c2ccccc2[n+](C)c2c1c(N(C)C)cc[n+]2CC

>  <Energy>  (12) 
117.18437147452808

>  <Genealogy>  (12) 
CCN(CC)CC[NH2+]c1c2ccccc2[n+](C)c2c1c(N(C)C)cc[n+]2CC (protonated)
CCN(CC)CC[NH2+]c1c2ccccc2[n+](C)c2c1c(N(C)C)cc[n+]2CC (3D coordinates assigned)
CCN(CC)CC[NH2+]c1c2ccccc2[n+](C)c2c1c(N(C)C)cc[n+]2CC (optimized conformer: 117.18437147452808 kcal/mol)

>  <smiles>  (12) 
CCN(CC)CCNc1c2ccccc2[n+](C)c2c1c(N(C)C)cc[n+]2CC

>  <score_type>  (12) 
oracle

>  <origin>  (12) 
adg

>  <m_score__min__energy>  (12) 
-6.2999999999999998

>  <m_primary>  (12) 
energy

$$$$
12:0
     RDKit          3D

 79 82  0  0  0  0  0  0  0  0999 V2000
   -0.8840   21.2860  -26.7150 C   0  0  0  0  0  0  0  0  0  0  0  0
   -0.4130   21.2120  -28.1750 C   0  0  0  0  0  0  0  0  0  0  0  0
   -1.5070   21.0090  -29.1580 N   0  0  0  0  0  0  0  0  0  0  0  0
   -2.7190   20.4460  -28.5320 C   0  0  0  0  0  0  0  0  0  0  0  0
   -1.0750   20.2290  -30.3410 C   0  0  0  0  0  0  0  0  0  0  0  0
   -1.6020   20.8760  -31.6380 C   0  0  0  0  0  0  0  0  0  0  0  0
   -2.5300   21.9770  -31.3390 N   0  0  0  0  0  0  0  0  0  0  0  0
   -3.9810   21.9270  -31.5810 C   0  0  0  0  0  0  0  0  0  0  0  0
   -4.6900   20.9010  -32.3290 C   0  0  0  0  0  0  0  0  0  0  0  0
   -4.0700   19.8620  -33.0920 C   0  0  0  0  0  0  0  0  0  0  0  0
   -4.8000   18.9130  -33.8000 C   0  0  0  0  0  0  0  0  0  0  0  0
   -6.1760   18.9710  -33.8200 C   0  0  0  0  0  0  0  0  0  0  0  0
   -6.8330   19.9620  -33.1150 C   0  0  0  0  0  0  0  0  0  0  0  0
   -6.1220   20.9160  -32.3350 C   0  0  0  0  0  0  0  0  0  0  0  0
   -6.8180   21.8750  -31.6440 N   0  0  0  0  0  0  0  0  0  0  0  0
   -8.2620   21.6910  -31.3600 C   0  0  0  0  0  0  0  0  0  0  0  0
   -6.1770   22.9990  -31.2010 C   0  0  0  0  0  0  0  0  0  0  0  0
   -6.9120   24.1710  -30.9280 C   0  0  0  0  0  0  0  0  0  0  0  0
   -6.3050   25.2970  -30.3970 C   0  0  0  0  0  0  0  0  0  0  0  0
   -4.9690   25.2580  -30.0540 C   0  0  0  0  0  0  0  0  0  0  0  0
   -4.2040   24.1010  -30.2700 C   0  0  0  0  0  0  0  0  0  0  0  0
   -2.9220   24.0270  -29.7040 O   0  0  0  0  0  0  0  0  0  0  0  0
   -2.6120   23.7790  -28.3280 C   0  0  0  0  0  0  0  0  0  0  0  0
   -1.4330   24.6360  -27.7890 C   0  0  0  0  0  0  0  0  0  0  0  0
   -1.6170   25.3220  -26.4630 N   0  0  0  0  0  0  0  0  0  0  0  0
   -3.0840   25.2790  -26.1850 C   0  0  0  0  0  0  0  0  0  0  0  0
   -0.9060   24.5950  -25.3550 C   0  0  0  0  0  0  0  0  0  0  0  0
    0.3300   25.3530  -24.8100 C   0  0  0  0  0  0  0  0  0  0  0  0
   -0.0040   26.7190  -24.3070 N   0  0  0  0  0  0  0  0  0  0  0  0
   -0.4930   26.6390  -22.9060 C   0  0  0  0  0  0  0  0  0  0  0  0
    1.2500   27.5160  -24.3080 C   0  0  0  0  0  0  0  0  0  0  0  0
   -1.0440   27.4070  -25.1540 C   0  0  0  0  0  0  0  0  0  0  0  0
   -1.2080   26.7580  -26.5430 C   0  0  0  0  0  0  0  0  0  0  0  0
   -4.7650   23.0010  -31.0140 C   0  0  0  0  0  0  0  0  0  0  0  0
   -0.0225   21.1507  -26.0445 H   0  0  0  0  0  0  0  0  0  0  0  0
   -1.3440   22.2674  -26.5274 H   0  0  0  0  0  0  0  0  0  0  0  0
   -1.6228   20.4929  -26.5274 H   0  0  0  0  0  0  0  0  0  0  0  0
    0.1005   22.1534  -28.4199 H   0  0  0  0  0  0  0  0  0  0  0  0
    0.2463   20.3347  -28.2503 H   0  0  0  0  0  0  0  0  0  0  0  0
   -2.6212   20.4915  -27.4373 H   0  0  0  0  0  0  0  0  0  0  0  0
   -3.5980   21.0280  -28.8460 H   0  0  0  0  0  0  0  0  0  0  0  0
   -2.8413   19.3989  -28.8460 H   0  0  0  0  0  0  0  0  0  0  0  0
    0.0241   20.1986  -30.3726 H   0  0  0  0  0  0  0  0  0  0  0  0
   -1.4811   19.2097  -30.2621 H   0  0  0  0  0  0  0  0  0  0  0  0
   -0.7519   21.2689  -32.2151 H   0  0  0  0  0  0  0  0  0  0  0  0
   -2.1407   20.1114  -32.2170 H   0  0  0  0  0  0  0  0  0  0  0  0
   -2.4120   22.1950  -30.3260 H   0  0  0  0  0  0  0  0  0  0  0  0
   -2.1670   22.7570  -31.9330 H   0  0  0  0  0  0  0  0  0  0  0  0
   -2.9715   19.8114  -33.1200 H   0  0  0  0  0  0  0  0  0  0  0  0
   -4.2768   18.1138  -34.3455 H   0  0  0  0  0  0  0  0  0  0  0  0
   -6.7507   18.2305  -34.3956 H   0  0  0  0  0  0  0  0  0  0  0  0
   -7.9309   20.0142  -33.1581 H   0  0  0  0  0  0  0  0  0  0  0  0
   -8.4220   21.6706  -30.2719 H   0  0  0  0  0  0  0  0  0  0  0  0
   -8.8310   22.5239  -31.7987 H   0  0  0  0  0  0  0  0  0  0  0  0
   -8.6040   20.7420  -31.7987 H   0  0  0  0  0  0  0  0  0  0  0  0
   -7.9909   24.1914  -31.1414 H   0  0  0  0  0  0  0  0  0  0  0  0
   -6.8860   26.2193  -30.2492 H   0  0  0  0  0  0  0  0  0  0  0  0
   -4.4974   26.1449  -29.6056 H   0  0  0  0  0  0  0  0  0  0  0  0
   -3.5055   23.9996  -27.7255 H   0  0  0  0  0  0  0  0  0  0  0  0
   -2.3045   22.7256  -28.2526 H   0  0  0  0  0  0  0  0  0  0  0  0
   -0.5598   23.9733  -27.6978 H   0  0  0  0  0  0  0  0  0  0  0  0
   -1.3306   25.4562  -28.5148 H   0  0  0  0  0  0  0  0  0  0  0  0
   -3.2512   25.2741  -25.0978 H   0  0  0  0  0  0  0  0  0  0  0  0
   -3.5669   26.1634  -26.6262 H   0  0  0  0  0  0  0  0  0  0  0  0
   -3.5143   24.3679  -26.6262 H   0  0  0  0  0  0  0  0  0  0  0  0
   -1.6145   24.4442  -24.5272 H   0  0  0  0  0  0  0  0  0  0  0  0
   -0.5433   23.6445  -25.7732 H   0  0  0  0  0  0  0  0  0  0  0  0
    0.7633   24.7704  -23.9836 H   0  0  0  0  0  0  0  0  0  0  0  0
    1.0396   25.4709  -25.6422 H   0  0  0  0  0  0  0  0  0  0  0  0
    0.3513   26.7771  -22.2145 H   0  0  0  0  0  0  0  0  0  0  0  0
   -1.2411   27.4267  -22.7332 H   0  0  0  0  0  0  0  0  0  0  0  0
   -0.9511   25.6540  -22.7332 H   0  0  0  0  0  0  0  0  0  0  0  0
    1.5600   27.7131  -23.2712 H   0  0  0  0  0  0  0  0  0  0  0  0
    2.0409   26.9545  -24.8268 H   0  0  0  0  0  0  0  0  0  0  0  0
    1.0774   28.4705  -24.8268 H   0  0  0  0  0  0  0  0  0  0  0  0
   -2.0098   27.3631  -24.6293 H   0  0  0  0  0  0  0  0  0  0  0  0
   -0.7112   28.4438  -25.3100 H   0  0  0  0  0  0  0  0  0  0  0  0
   -1.9762   27.3123  -27.1022 H   0  0  0  0  0  0  0  0  0  0  0  0
   -0.2308   26.7981  -27.0465 H   0  0  0  0  0  0  0  0  0  0  0  0
  1  2  1  0
  2  3  1  0
  3  4  1  0
  3  5  1  0
  5  6  1  0
  6  7  1  0
  7  8  1  0
  8  9  2  0
  9 10  1  0
 10 11  2  0
 11 12  1  0
 12 13  2  0
 13 14  1  0
 14 15  2  0
 15 16  1  0
 15 17  1  0
 17 18  2  0
 18 19  1  0
 19 20  2  0
 20 21  1  0
 21 22  1  0
 22 23  1  0
 23 24  1  0
 24 25  1  0
 25 26  1  0
 25 27  1  0
 27 28  1  0
 28 29  1  0
 29 30  1  0
 29 31  1  0
 29 32  1  0
 32 33  1  0
 21 34  2  0
 34  8  1  0
 14  9  1  0
 34 17  1  0
 33 25  1  0
  1 35  1  0
  1 36  1  0
  1 37  1  0
  2 38  1  0
  2 39  1  0
  4 40  1  0
  4 41  1  0
  4 42  1  0
  5 43  1  0
  5 44  1  0
  6 45  1  0
  6 46  1  0
  7 47  1  0
  7 48  1  0
 10 49  1  0
 11 50  1  0
 12 51  1  0
 13 52  1  0
 16 53  1  0
 16 54  1  0
 16 55  1  0
 18 56  1  0
 19 57  1  0
 20 58  1  0
 23 59  1  0
 23 60  1  0
 24 61  1  0
 24 62  1  0
 26 63  1  0
 26 64  1  0
 26 65  1  0
 27 66  1  0
 27 67  1  0
 28 68  1  0
 28 69  1  0
 30 70  1  0
 30 71  1  0
 30 72  1  0
 31 73  1  0
 31 74  1  0
 31 75  1  0
 32 76  1  0
 32 77  1  0
 33 78  1  0
 33 79  1  0
M  CHG  4   7   1  15   1  25   1  29   1
M  END
>  <UniqueID>  (13) 
13

>  <SMILES>  (13) 
CCN(C)CC[NH2+]c1c2ccccc2[n+](C)c2cccc(OCC[N+]3(C)CC[N+](C)(C)CC3)c12

>  <Energy>  (13) 
175.28227110434568

>  <Genealogy>  (13) 
CCN(C)CC[NH2+]c1c2ccccc2[n+](C)c2cccc(OCC[N+]3(C)CC[N+](C)(C)CC3)c12 (protonated)
CCN(C)CC[NH2+]c1c2ccccc2[n+](C)c2cccc(OCC[N+]3(C)CC[N+](C)(C)CC3)c12 (3D coordinates assigned)
CCN(C)CC[NH2+]c1c2ccccc2[n+](C)c2cccc(OCC[N+]3(C)CC[N+](C)(C)CC3)c12 (nonaromatic ring conformer: 175.28227110434568 kcal/mol)

>  <smiles>  (13) 
CCN(C)CCNc1c2ccccc2[n+](C)c2cccc(OCC[N+]3(C)CC[N+](C)(C)CC3)c12

>  <score_type>  (13) 
oracle

>  <origin>  (13) 
adg

>  <m_score__min__energy>  (13) 
-6.7699999999999996

>  <m_primary>  (13) 
energy

$$$$
13:0
     RDKit          3D

 57 60  0  0  0  0  0  0  0  0999 V2000
   -5.3910   26.0050  -30.4670 C   0  0  0  0  0  0  0  0  0  0  0  0
   -6.3650   25.3890  -29.4720 C   0  0  0  0  0  0  0  0  0  0  0  0
   -6.5190   23.9490  -29.7510 N   0  0  0  0  0  0  0  0  0  0  0  0
   -5.2220   23.2800  -29.9850 C   0  0  0  0  0  0  0  0  0  0  0  0
   -5.0390   22.8870  -31.4640 C   0  0  0  0  0  0  0  0  0  0  0  0
   -6.2490   23.1950  -32.2420 N   0  0  0  0  0  0  0  0  0  0  0  0
   -7.1940   22.1040  -32.1460 C   0  0  0  0  0  0  0  0  0  0  0  0
   -8.4900   22.3770  -31.6620 C   0  0  0  0  0  0  0  0  0  0  0  0
   -9.4400   21.3670  -31.5450 C   0  0  0  0  0  0  0  0  0  0  0  0
   -9.1230   20.0620  -31.9060 C   0  0  0  0  0  0  0  0  0  0  0  0
   -7.8500   19.7560  -32.4110 C   0  0  0  0  0  0  0  0  0  0  0  0
   -7.5440   18.4420  -32.7740 C   0  0  0  0  0  0  0  0  0  0  0  0
   -6.2760   18.1290  -33.2910 C   0  0  0  0  0  0  0  0  0  0  0  0
   -5.3310   19.1210  -33.4090 N   0  0  0  0  0  0  0  0  0  0  0  0
   -5.6250   20.4180  -33.0940 C   0  0  0  0  0  0  0  0  0  0  0  0
   -6.8780   20.7740  -32.5530 C   0  0  0  0  0  0  0  0  0  0  0  0
   -3.9980   18.8090  -33.9530 C   0  0  0  0  0  0  0  0  0  0  0  0
   -3.5060   17.4520  -33.4450 C   0  0  0  0  0  0  0  0  0  0  0  0
   -4.5400   16.3940  -33.7160 C   0  0  0  0  0  0  0  0  0  0  0  0
   -4.1470   15.0760  -33.9870 C   0  0  0  0  0  0  0  0  0  0  0  0
   -5.1070   14.0810  -34.2440 C   0  0  0  0  0  0  0  0  0  0  0  0
   -4.7470   12.7510  -34.5230 O   0  0  0  0  0  0  0  0  0  0  0  0
   -4.7880   11.6850  -33.5770 C   0  0  0  0  0  0  0  0  0  0  0  0
   -6.4690   14.4140  -34.2310 C   0  0  0  0  0  0  0  0  0  0  0  0
   -7.4010   13.4030  -34.5230 O   0  0  0  0  0  0  0  0  0  0  0  0
   -7.6770   12.9110  -35.8300 C   0  0  0  0  0  0  0  0  0  0  0  0
   -6.8640   15.7340  -33.9330 C   0  0  0  0  0  0  0  0  0  0  0  0
   -5.9060   16.7240  -33.6420 C   0  0  0  0  0  0  0  0  0  0  0  0
   -4.5836   26.5156  -29.9216 H   0  0  0  0  0  0  0  0  0  0  0  0
   -4.9628   25.2131  -31.0991 H   0  0  0  0  0  0  0  0  0  0  0  0
   -5.9229   26.7313  -31.0991 H   0  0  0  0  0  0  0  0  0  0  0  0
   -5.9785   25.5240  -28.4510 H   0  0  0  0  0  0  0  0  0  0  0  0
   -7.3427   25.8842  -29.5662 H   0  0  0  0  0  0  0  0  0  0  0  0
   -7.0150   23.4900  -28.9500 H   0  0  0  0  0  0  0  0  0  0  0  0
   -4.4110   23.9645  -29.6956 H   0  0  0  0  0  0  0  0  0  0  0  0
   -5.1978   22.3606  -29.3815 H   0  0  0  0  0  0  0  0  0  0  0  0
   -4.1893   23.4461  -31.8829 H   0  0  0  0  0  0  0  0  0  0  0  0
   -4.8511   21.8046  -31.5196 H   0  0  0  0  0  0  0  0  0  0  0  0
   -6.6750   24.0990  -31.9390 H   0  0  0  0  0  0  0  0  0  0  0  0
   -5.9780   23.3310  -33.2450 H   0  0  0  0  0  0  0  0  0  0  0  0
   -8.7542   23.4048  -31.3723 H   0  0  0  0  0  0  0  0  0  0  0  0
  -10.4454   21.6017  -31.1656 H   0  0  0  0  0  0  0  0  0  0  0  0
   -9.8738   19.2657  -31.7952 H   0  0  0  0  0  0  0  0  0  0  0  0
   -8.2983   17.6503  -32.6546 H   0  0  0  0  0  0  0  0  0  0  0  0
   -4.8699   21.1993  -33.2657 H   0  0  0  0  0  0  0  0  0  0  0  0
   -4.0539   18.7839  -35.0513 H   0  0  0  0  0  0  0  0  0  0  0  0
   -3.2924   19.5854  -33.6223 H   0  0  0  0  0  0  0  0  0  0  0  0
   -2.5709   17.1876  -33.9604 H   0  0  0  0  0  0  0  0  0  0  0  0
   -3.3303   17.5150  -32.3610 H   0  0  0  0  0  0  0  0  0  0  0  0
   -3.0778   14.8177  -33.9987 H   0  0  0  0  0  0  0  0  0  0  0  0
   -4.7721   12.0984  -32.5578 H   0  0  0  0  0  0  0  0  0  0  0  0
   -5.7092   11.1016  -33.7217 H   0  0  0  0  0  0  0  0  0  0  0  0
   -3.9143   11.0326  -33.7217 H   0  0  0  0  0  0  0  0  0  0  0  0
   -8.2139   11.9538  -35.7557 H   0  0  0  0  0  0  0  0  0  0  0  0
   -8.2985   13.6389  -36.3721 H   0  0  0  0  0  0  0  0  0  0  0  0
   -6.7319   12.7601  -36.3721 H   0  0  0  0  0  0  0  0  0  0  0  0
   -7.9329   15.9936  -33.9277 H   0  0  0  0  0  0  0  0  0  0  0  0
  1  2  1  0
  2  3  1  0
  3  4  1  0
  4  5  1  0
  5  6  1  0
  6  7  1  0
  7  8  2  0
  8  9  1  0
  9 10  2  0
 10 11  1  0
 11 12  2  0
 12 13  1  0
 13 14  2  0
 14 15  1  0
 15 16  2  0
 14 17  1  0
 17 18  1  0
 18 19  1  0
 19 20  2  0
 20 21  1  0
 21 22  1  0
 22 23  1  0
 21 24  2  0
 24 25  1  0
 25 26  1  0
 24 27  1  0
 27 28  2  0
 16  7  1  0
 28 19  1  0
 16 11  1  0
 28 13  1  0
  1 29  1  0
  1 30  1  0
  1 31  1  0
  2 32  1  0
  2 33  1  0
  3 34  1  0
  4 35  1  0
  4 36  1  0
  5 37  1  0
  5 38  1  0
  6 39  1  0
  6 40  1  0
  8 41  1  0
  9 42  1  0
 10 43  1  0
 12 44  1  0
 15 45  1  0
 17 46  1  0
 17 47  1  0
 18 48  1  0
 18 49  1  0
 20 50  1  0
 23 51  1  0
 23 52  1  0
 23 53  1  0
 26 54  1  0
 26 55  1  0
 26 56  1  0
 27 57  1  0
M  CHG  2   6   1  14   1
M  END
>  <UniqueID>  (14) 
14

>  <SMILES>  (14) 
CCNCC[NH2+]c1cccc2cc3[n+](cc12)CCc1cc(OC)c(OC)cc1-3

>  <Energy>  (14) 
70.87226582408431

>  <Genealogy>  (14) 
CCNCC[NH2+]c1cccc2cc3[n+](cc12)CCc1cc(OC)c(OC)cc1-3 (protonated)
CCNCC[NH2+]c1cccc2cc3[n+](cc12)CCc1cc(OC)c(OC)cc1-3 (3D coordinates assigned)
CCNCC[NH2+]c1cccc2cc3[n+](cc12)CCc1cc(OC)c(OC)cc1-3 (nonaromatic ring conformer: 70.87226582408431 kcal/mol)

>  <smiles>  (14) 
CCNCCNc1cccc2cc3[n+](cc12)CCc1cc(OC)c(OC)cc1-3

>  <score_type>  (14) 
oracle

>  <origin>  (14) 
adg

>  <m_score__min__energy>  (14) 
-8.0199999999999996

>  <m_primary>  (14) 
energy

$$$$
14:0
     RDKit          3D

 48 49  0  0  0  0  0  0  0  0999 V2000
   -8.7410   18.6050  -31.2300 C   0  0  0  0  0  0  0  0  0  0  0  0
   -9.1430   18.9000  -32.6660 C   0  0  0  0  0  0  0  0  0  0  0  0
   -9.1210   20.3080  -32.8850 O   0  0  0  0  0  0  0  0  0  0  0  0
   -8.2540   21.2050  -32.2410 C   0  0  0  0  0  0  0  0  0  0  0  0
   -8.7290   22.1550  -31.3160 C   0  0  0  0  0  0  0  0  0  0  0  0
   -7.8490   23.0420  -30.6960 C   0  0  0  0  0  0  0  0  0  0  0  0
   -6.4830   22.9950  -30.9840 C   0  0  0  0  0  0  0  0  0  0  0  0
   -5.3570   24.0960  -30.1900 S   0  0  0  0  0  0  0  0  0  0  0  0
   -6.1040   25.2930  -29.6700 O   0  0  0  0  0  0  0  0  0  0  0  0
   -4.3560   24.5640  -31.2090 O   0  0  0  0  0  0  0  0  0  0  0  0
   -4.5460   23.2550  -28.8850 N   0  0  0  0  0  0  0  0  0  0  0  0
   -3.3720   22.5050  -29.3730 C   0  0  0  0  0  0  0  0  0  0  0  0
   -2.1880   23.4350  -29.7300 C   0  0  0  0  0  0  0  0  0  0  0  0
   -2.2910   24.7290  -29.1600 O   0  0  0  0  0  0  0  0  0  0  0  0
   -2.7310   24.6420  -27.8250 C   0  0  0  0  0  0  0  0  0  0  0  0
   -4.1970   24.1730  -27.7720 C   0  0  0  0  0  0  0  0  0  0  0  0
   -5.9980   22.0480  -31.8930 C   0  0  0  0  0  0  0  0  0  0  0  0
   -6.8750   21.1510  -32.5360 C   0  0  0  0  0  0  0  0  0  0  0  0
   -6.3850   20.1700  -33.4760 N   0  0  0  0  0  0  0  0  0  0  0  0
   -4.9790   19.7850  -33.6230 C   0  0  0  0  0  0  0  0  0  0  0  0
   -4.8510   18.4050  -34.2690 C   0  0  0  0  0  0  0  0  0  0  0  0
   -6.1330   17.9410  -34.6400 O   0  0  0  0  0  0  0  0  0  0  0  0
   -6.4870   16.8470  -33.8250 C   0  0  0  0  0  0  0  0  0  0  0  0
   -9.4339   19.1135  -30.5434 H   0  0  0  0  0  0  0  0  0  0  0  0
   -8.7805   17.5199  -31.0537 H   0  0  0  0  0  0  0  0  0  0  0  0
   -7.7177   18.9681  -31.0537 H   0  0  0  0  0  0  0  0  0  0  0  0
   -8.4363   18.4109  -33.3526 H   0  0  0  0  0  0  0  0  0  0  0  0
  -10.1573   18.5159  -32.8495 H   0  0  0  0  0  0  0  0  0  0  0  0
   -9.8027   22.1978  -31.0806 H   0  0  0  0  0  0  0  0  0  0  0  0
   -8.2323   23.7814  -29.9774 H   0  0  0  0  0  0  0  0  0  0  0  0
   -5.2340   22.5540  -28.5210 H   0  0  0  0  0  0  0  0  0  0  0  0
   -3.0481   21.8053  -28.5885 H   0  0  0  0  0  0  0  0  0  0  0  0
   -3.6695   21.9725  -30.2884 H   0  0  0  0  0  0  0  0  0  0  0  0
   -1.2589   22.9692  -29.3696 H   0  0  0  0  0  0  0  0  0  0  0  0
   -2.1957   23.5622  -30.8226 H   0  0  0  0  0  0  0  0  0  0  0  0
   -2.1005   23.9227  -27.2818 H   0  0  0  0  0  0  0  0  0  0  0  0
   -2.6575   25.6360  -27.3597 H   0  0  0  0  0  0  0  0  0  0  0  0
   -4.3648   23.6501  -26.8189 H   0  0  0  0  0  0  0  0  0  0  0  0
   -4.8344   25.0647  -27.8649 H   0  0  0  0  0  0  0  0  0  0  0  0
   -4.9202   22.0030  -32.1082 H   0  0  0  0  0  0  0  0  0  0  0  0
   -7.0650   19.7010  -34.1160 H   0  0  0  0  0  0  0  0  0  0  0  0
   -4.4677   20.5263  -34.2547 H   0  0  0  0  0  0  0  0  0  0  0  0
   -4.5208   19.7469  -32.6237 H   0  0  0  0  0  0  0  0  0  0  0  0
   -4.2132   18.4755  -35.1625 H   0  0  0  0  0  0  0  0  0  0  0  0
   -4.3991   17.7037  -33.5521 H   0  0  0  0  0  0  0  0  0  0  0  0
   -6.3945   17.1330  -32.7669 H   0  0  0  0  0  0  0  0  0  0  0  0
   -7.5259   16.5536  -34.0360 H   0  0  0  0  0  0  0  0  0  0  0  0
   -5.8169   16.0006  -34.0360 H   0  0  0  0  0  0  0  0  0  0  0  0
  1  2  1  0
  2  3  1  0
  3  4  1  0
  4  5  2  0
  5  6  1  0
  6  7  2  0
  7  8  1  0
  8  9  2  0
  8 10  2  0
  8 11  1  0
 11 12  1  0
 12 13  1  0
 13 14  1  0
 14 15  1  0
 15 16  1  0
  7 17  1  0
 17 18  2  0
 18 19  1  0
 19 20  1  0
 20 21  1  0
 21 22  1  0
 22 23  1  0
 18  4  1  0
 16 11  1  0
  1 24  1  0
  1 25  1  0
  1 26  1  0
  2 27  1  0
  2 28  1  0
  5 29  1  0
  6 30  1  0
 11 31  1  0
 12 32  1  0
 12 33  1  0
 13 34  1  0
 13 35  1  0
 15 36  1  0
 15 37  1  0
 16 38  1  0
 16 39  1  0
 17 40  1  0
 19 41  1  0
 20 42  1  0
 20 43  1  0
 21 44  1  0
 21 45  1  0
 23 46  1  0
 23 47  1  0
 23 48  1  0
M  CHG  1  11   1
M  END
>  <UniqueID>  (15) 
15

>  <SMILES>  (15) 
CCOc1ccc(S(=O)(=O)[NH+]2CCOCC2)cc1NCCOC

>  <Energy>  (15) 
52.21460610768262

>  <Genealogy>  (15) 
CCOc1ccc(S(=O)(=O)[NH+]2CCOCC2)cc1NCCOC (protonated)
CCOc1ccc(S(=O)(=O)[NH+]2CCOCC2)cc1NCCOC (3D coordinates assigned)
CCOc1ccc(S(=O)(=O)[NH+]2CCOCC2)cc1NCCOC (nonaromatic ring conformer: 52.21460610768262 kcal/mol)

>  <smiles>  (15) 
CCOc1ccc(S(=O)(=O)N2CCOCC2)cc1NCCOC

>  <score_type>  (15) 
oracle

>  <origin>  (15) 
adg

>  <m_score__min__energy>  (15) 
-7.0599999999999996

>  <m_primary>  (15) 
energy

$$$$
15:0
     RDKit          3D

 47 49  0  0  0  0  0  0  0  0999 V2000
   -4.1890   24.5680  -26.8660 C   0  0  0  0  0  0  0  0  0  0  0  0
   -3.2770   23.5340  -27.5200 C   0  0  0  0  0  0  0  0  0  0  0  0
   -3.8000   23.1460  -28.8380 N   0  0  0  0  0  0  0  0  0  0  0  0
   -4.6860   24.1780  -29.3890 C   0  0  0  0  0  0  0  0  0  0  0  0
   -5.5980   23.5630  -30.4130 C   0  0  0  0  0  0  0  0  0  0  0  0
   -6.4190   24.3800  -31.2030 C   0  0  0  0  0  0  0  0  0  0  0  0
   -7.2310   23.8000  -32.1760 C   0  0  0  0  0  0  0  0  0  0  0  0
   -7.2170   22.4190  -32.3600 C   0  0  0  0  0  0  0  0  0  0  0  0
   -6.3840   21.6230  -31.5580 C   0  0  0  0  0  0  0  0  0  0  0  0
   -6.3450   20.1530  -31.7470 C   0  0  0  0  0  0  0  0  0  0  0  0
   -7.5440   19.4280  -31.6310 C   0  0  0  0  0  0  0  0  0  0  0  0
   -7.5490   18.0380  -31.7570 C   0  0  0  0  0  0  0  0  0  0  0  0
   -6.3600   17.3540  -32.0070 C   0  0  0  0  0  0  0  0  0  0  0  0
   -5.1620   18.0590  -32.1420 C   0  0  0  0  0  0  0  0  0  0  0  0
   -5.1380   19.4590  -32.0210 C   0  0  0  0  0  0  0  0  0  0  0  0
   -3.8580   20.1720  -32.2450 C   0  0  0  0  0  0  0  0  0  0  0  0
   -3.3600   20.3070  -33.5520 C   0  0  0  0  0  0  0  0  0  0  0  0
   -2.1580   20.9780  -33.7840 C   0  0  0  0  0  0  0  0  0  0  0  0
   -1.4400   21.5140  -32.7160 C   0  0  0  0  0  0  0  0  0  0  0  0
   -1.9210   21.3840  -31.4110 C   0  0  0  0  0  0  0  0  0  0  0  0
   -3.1360   20.7140  -31.1610 C   0  0  0  0  0  0  0  0  0  0  0  0
   -3.6560   20.5840  -29.8630 O   0  0  0  0  0  0  0  0  0  0  0  0
   -2.8690   20.3930  -28.6920 C   0  0  0  0  0  0  0  0  0  0  0  0
   -5.5860   22.2140  -30.6200 N   0  0  0  0  0  0  0  0  0  0  0  0
   -4.1141   24.4831  -25.7718 H   0  0  0  0  0  0  0  0  0  0  0  0
   -3.8816   25.5772  -27.1774 H   0  0  0  0  0  0  0  0  0  0  0  0
   -5.2287   24.3890  -27.1774 H   0  0  0  0  0  0  0  0  0  0  0  0
   -2.2717   23.9635  -27.6417 H   0  0  0  0  0  0  0  0  0  0  0  0
   -3.2332   22.6418  -26.8781 H   0  0  0  0  0  0  0  0  0  0  0  0
   -4.3720   22.2760  -28.7090 H   0  0  0  0  0  0  0  0  0  0  0  0
   -5.2874   24.6155  -28.5784 H   0  0  0  0  0  0  0  0  0  0  0  0
   -4.0809   24.9647  -29.8633 H   0  0  0  0  0  0  0  0  0  0  0  0
   -6.4222   25.4701  -31.0560 H   0  0  0  0  0  0  0  0  0  0  0  0
   -7.8822   24.4318  -32.7979 H   0  0  0  0  0  0  0  0  0  0  0  0
   -7.8539   21.9559  -33.1280 H   0  0  0  0  0  0  0  0  0  0  0  0
   -8.4868   19.9612  -31.4392 H   0  0  0  0  0  0  0  0  0  0  0  0
   -8.4926   17.4812  -31.6589 H   0  0  0  0  0  0  0  0  0  0  0  0
   -6.3656   16.2578  -32.0980 H   0  0  0  0  0  0  0  0  0  0  0  0
   -4.2286   17.5135  -32.3449 H   0  0  0  0  0  0  0  0  0  0  0  0
   -3.9206   19.8814  -34.3974 H   0  0  0  0  0  0  0  0  0  0  0  0
   -1.7771   21.0839  -34.8105 H   0  0  0  0  0  0  0  0  0  0  0  0
   -0.4922   22.0407  -32.9014 H   0  0  0  0  0  0  0  0  0  0  0  0
   -1.3480   21.8072  -30.5728 H   0  0  0  0  0  0  0  0  0  0  0  0
   -3.4952   20.5450  -27.8005 H   0  0  0  0  0  0  0  0  0  0  0  0
   -2.4637   19.3704  -28.6854 H   0  0  0  0  0  0  0  0  0  0  0  0
   -2.0400   21.1160  -28.6854 H   0  0  0  0  0  0  0  0  0  0  0  0
   -4.9610   21.6150  -30.0340 H   0  0  0  0  0  0  0  0  0  0  0  0
  1  2  1  0
  2  3  1  0
  3  4  1  0
  4  5  1  0
  5  6  2  0
  6  7  1  0
  7  8  2  0
  8  9  1  0
  9 10  1  0
 10 11  2  0
 11 12  1  0
 12 13  2  0
 13 14  1  0
 14 15  2  0
 15 16  1  0
 16 17  2  0
 17 18  1  0
 18 19  2  0
 19 20  1  0
 20 21  2  0
 21 22  1  0
 22 23  1  0
  9 24  2  0
 24  5  1  0
 15 10  1  0
 21 16  1  0
  1 25  1  0
  1 26  1  0
  1 27  1  0
  2 28  1  0
  2 29  1  0
  3 30  1  0
  4 31  1  0
  4 32  1  0
  6 33  1  0
  7 34  1  0
  8 35  1  0
 11 36  1  0
 12 37  1  0
 13 38  1  0
 14 39  1  0
 17 40  1  0
 18 41  1  0
 19 42  1  0
 20 43  1  0
 23 44  1  0
 23 45  1  0
 23 46  1  0
 24 47  1  0
M  CHG  1  24   1
M  END
>  <UniqueID>  (16) 
16

>  <SMILES>  (16) 
CCNCc1cccc(-c2ccccc2-c2ccccc2OC)[nH+]1

>  <Energy>  (16) 
57.71720539632848

>  <Genealogy>  (16) 
CCNCc1cccc(-c2ccccc2-c2ccccc2OC)[nH+]1 (protonated)
CCNCc1cccc(-c2ccccc2-c2ccccc2OC)[nH+]1 (3D coordinates assigned)
CCNCc1cccc(-c2ccccc2-c2ccccc2OC)[nH+]1 (optimized conformer: 57.71720539632848 kcal/mol)

>  <smiles>  (16) 
CCNCc1cccc(-c2ccccc2-c2ccccc2OC)n1

>  <score_type>  (16) 
oracle

>  <origin>  (16) 
adg

>  <m_score__min__energy>  (16) 
-7.6699999999999999

>  <m_primary>  (16) 
energy

$$$$
16:0
     RDKit          3D

 31 33  0  0  0  0  0  0  0  0999 V2000
   -7.2280   16.9350  -33.0910 C   0  0  0  0  0  0  0  0  0  0  0  0
   -6.7010   18.3350  -33.0370 C   0  0  0  0  0  0  0  0  0  0  0  0
   -7.1440   19.3200  -32.1760 C   0  0  0  0  0  0  0  0  0  0  0  0
   -6.3860   20.4470  -32.4510 C   0  0  0  0  0  0  0  0  0  0  0  0
   -6.5150   21.7560  -31.7790 C   0  0  0  0  0  0  0  0  0  0  0  0
   -5.5770   22.1950  -30.8180 C   0  0  0  0  0  0  0  0  0  0  0  0
   -5.7830   23.4120  -30.2570 N   0  0  0  0  0  0  0  0  0  0  0  0
   -5.1030   24.1140  -29.3350 C   0  0  0  0  0  0  0  0  0  0  0  0
   -3.8470   23.6640  -28.6600 C   0  0  0  0  0  0  0  0  0  0  0  0
   -5.7230   25.2920  -29.1070 N   0  0  0  0  0  0  0  0  0  0  0  0
   -6.8050   25.3580  -29.8770 N   0  0  0  0  0  0  0  0  0  0  0  0
   -6.8180   24.2020  -30.5680 C   0  0  0  0  0  0  0  0  0  0  0  0
   -7.7530   23.7920  -31.5090 C   0  0  0  0  0  0  0  0  0  0  0  0
   -7.5730   22.5710  -32.0920 N   0  0  0  0  0  0  0  0  0  0  0  0
   -5.5080   20.0990  -33.4680 C   0  0  0  0  0  0  0  0  0  0  0  0
   -5.6990   18.8100  -33.8090 N   0  0  0  0  0  0  0  0  0  0  0  0
   -4.9920   18.0910  -34.8650 C   0  0  0  0  0  0  0  0  0  0  0  0
   -7.3703   16.5571  -32.0678 H   0  0  0  0  0  0  0  0  0  0  0  0
   -8.1911   16.9260  -33.6224 H   0  0  0  0  0  0  0  0  0  0  0  0
   -6.5099   16.2932  -33.6224 H   0  0  0  0  0  0  0  0  0  0  0  0
   -7.9399   19.2281  -31.4222 H   0  0  0  0  0  0  0  0  0  0  0  0
   -4.7139   21.5741  -30.5361 H   0  0  0  0  0  0  0  0  0  0  0  0
   -3.9797   23.7116  -27.5691 H   0  0  0  0  0  0  0  0  0  0  0  0
   -3.6215   22.6292  -28.9572 H   0  0  0  0  0  0  0  0  0  0  0  0
   -3.0157   24.3202  -28.9572 H   0  0  0  0  0  0  0  0  0  0  0  0
   -5.4230   26.0400  -28.4420 H   0  0  0  0  0  0  0  0  0  0  0  0
   -8.6092   24.4291  -31.7755 H   0  0  0  0  0  0  0  0  0  0  0  0
   -4.7689   20.7730  -33.9257 H   0  0  0  0  0  0  0  0  0  0  0  0
   -4.2886   17.3756  -34.4140 H   0  0  0  0  0  0  0  0  0  0  0  0
   -5.7178   17.5481  -35.4883 H   0  0  0  0  0  0  0  0  0  0  0  0
   -4.4370   18.8076  -35.4883 H   0  0  0  0  0  0  0  0  0  0  0  0
  1  2  1  0
  2  3  2  0
  3  4  1  0
  4  5  1  0
  5  6  2  0
  6  7  1  0
  7  8  1  0
  8  9  1  0
  8 10  2  0
 10 11  1  0
 11 12  2  0
 12 13  1  0
 13 14  2  0
  4 15  2  0
 15 16  1  0
 16 17  1  0
 16  2  1  0
 14  5  1  0
 12  7  1  0
  1 18  1  0
  1 19  1  0
  1 20  1  0
  3 21  1  0
  6 22  1  0
  9 23  1  0
  9 24  1  0
  9 25  1  0
 10 26  1  0
 13 27  1  0
 15 28  1  0
 17 29  1  0
 17 30  1  0
 17 31  1  0
M  CHG  1  10   1
M  END
>  <UniqueID>  (17) 
17

>  <SMILES>  (17) 
Cc1cc(-c2cn3c(C)[nH+]nc3cn2)cn1C

>  <Energy>  (17) 
100.18398202475828

>  <Genealogy>  (17) 
Cc1cc(-c2cn3c(C)[nH+]nc3cn2)cn1C (protonated)
Cc1cc(-c2cn3c(C)[nH+]nc3cn2)cn1C (3D coordinates assigned)
Cc1cc(-c2cn3c(C)[nH+]nc3cn2)cn1C (optimized conformer: 100.18398202475828 kcal/mol)

>  <smiles>  (17) 
Cc1cc(-c2cn3c(C)nnc3cn2)cn1C

>  <score_type>  (17) 
oracle

>  <origin>  (17) 
adg

>  <m_score__min__energy>  (17) 
-6.0999999999999996

>  <m_primary>  (17) 
energy

$$$$
17:0
     RDKit          3D

 64 66  0  0  0  0  0  0  0  0999 V2000
   -5.5510   25.6910  -30.4820 C   0  0  0  0  0  0  0  0  0  0  0  0
   -4.8540   24.3500  -30.6450 C   0  0  0  0  0  0  0  0  0  0  0  0
   -3.4720   24.5130  -30.4020 O   0  0  0  0  0  0  0  0  0  0  0  0
   -3.2080   24.5510  -29.0110 C   0  0  0  0  0  0  0  0  0  0  0  0
   -4.2890   23.7870  -28.2520 C   0  0  0  0  0  0  0  0  0  0  0  0
   -4.2240   22.4180  -28.5900 O   0  0  0  0  0  0  0  0  0  0  0  0
   -3.0530   21.8260  -28.0590 C   0  0  0  0  0  0  0  0  0  0  0  0
   -2.1360   21.3640  -29.1970 C   0  0  0  0  0  0  0  0  0  0  0  0
   -2.4040   22.1270  -30.4270 N   0  0  0  0  0  0  0  0  0  0  0  0
   -2.1100   21.3460  -31.6430 C   0  0  0  0  0  0  0  0  0  0  0  0
   -3.1940   20.2920  -31.9360 C   0  0  0  0  0  0  0  0  0  0  0  0
   -4.2390   20.8390  -32.8050 N   0  0  0  0  0  0  0  0  0  0  0  0
   -5.5350   20.2240  -32.8770 C   0  0  0  0  0  0  0  0  0  0  0  0
   -6.6640   20.9630  -32.4850 C   0  0  0  0  0  0  0  0  0  0  0  0
   -6.5970   22.3660  -32.3490 C   0  0  0  0  0  0  0  0  0  0  0  0
   -7.7290   23.1010  -32.0040 C   0  0  0  0  0  0  0  0  0  0  0  0
   -8.9440   22.4540  -31.8050 C   0  0  0  0  0  0  0  0  0  0  0  0
   -9.0270   21.0670  -31.9210 C   0  0  0  0  0  0  0  0  0  0  0  0
   -7.8820   20.2890  -32.2300 C   0  0  0  0  0  0  0  0  0  0  0  0
   -7.9270   18.9120  -32.2770 N   0  0  0  0  0  0  0  0  0  0  0  0
   -9.0640   18.1930  -31.6600 C   0  0  0  0  0  0  0  0  0  0  0  0
   -6.9030   18.2070  -32.8860 C   0  0  0  0  0  0  0  0  0  0  0  0
   -7.0450   16.8300  -33.1870 C   0  0  0  0  0  0  0  0  0  0  0  0
   -6.0040   16.0970  -33.7550 C   0  0  0  0  0  0  0  0  0  0  0  0
   -6.1900   14.6400  -34.0670 C   0  0  0  0  0  0  0  0  0  0  0  0
   -4.8350   16.7480  -34.1370 C   0  0  0  0  0  0  0  0  0  0  0  0
   -4.6700   18.1240  -33.9300 C   0  0  0  0  0  0  0  0  0  0  0  0
   -3.4630   18.7680  -34.5710 C   0  0  0  0  0  0  0  0  0  0  0  0
   -5.6820   18.8600  -33.2350 C   0  0  0  0  0  0  0  0  0  0  0  0
   -5.6678   25.9158  -29.4116 H   0  0  0  0  0  0  0  0  0  0  0  0
   -4.9478   26.4780  -30.9582 H   0  0  0  0  0  0  0  0  0  0  0  0
   -6.5417   25.6496  -30.9582 H   0  0  0  0  0  0  0  0  0  0  0  0
   -5.2713   23.6286  -29.9271 H   0  0  0  0  0  0  0  0  0  0  0  0
   -5.0080   23.9750  -31.6676 H   0  0  0  0  0  0  0  0  0  0  0  0
   -2.2293   24.0894  -28.8135 H   0  0  0  0  0  0  0  0  0  0  0  0
   -3.2024   25.5980  -28.6737 H   0  0  0  0  0  0  0  0  0  0  0  0
   -4.1303   23.9053  -27.1700 H   0  0  0  0  0  0  0  0  0  0  0  0
   -5.2779   24.1848  -28.5236 H   0  0  0  0  0  0  0  0  0  0  0  0
   -2.5213   22.5630  -27.4393 H   0  0  0  0  0  0  0  0  0  0  0  0
   -3.3341   20.9565  -27.4466 H   0  0  0  0  0  0  0  0  0  0  0  0
   -1.0879   21.5157  -28.8997 H   0  0  0  0  0  0  0  0  0  0  0  0
   -2.3279   20.2989  -29.3940 H   0  0  0  0  0  0  0  0  0  0  0  0
   -3.4200   22.3810  -30.4510 H   0  0  0  0  0  0  0  0  0  0  0  0
   -1.8480   23.0140  -30.4270 H   0  0  0  0  0  0  0  0  0  0  0  0
   -2.0452   22.0343  -32.4986 H   0  0  0  0  0  0  0  0  0  0  0  0
   -1.1597   20.8160  -31.4814 H   0  0  0  0  0  0  0  0  0  0  0  0
   -2.7297   19.4273  -32.4327 H   0  0  0  0  0  0  0  0  0  0  0  0
   -3.6540   19.9892  -30.9838 H   0  0  0  0  0  0  0  0  0  0  0  0
   -4.1310   21.8200  -33.1500 H   0  0  0  0  0  0  0  0  0  0  0  0
   -5.6415   22.8844  -32.5171 H   0  0  0  0  0  0  0  0  0  0  0  0
   -7.6619   24.1929  -31.8890 H   0  0  0  0  0  0  0  0  0  0  0  0
   -9.8420   23.0382  -31.5554 H   0  0  0  0  0  0  0  0  0  0  0  0
   -9.9958   20.5682  -31.7705 H   0  0  0  0  0  0  0  0  0  0  0  0
   -8.9803   18.2460  -30.5645 H   0  0  0  0  0  0  0  0  0  0  0  0
  -10.0084   18.6584  -31.9785 H   0  0  0  0  0  0  0  0  0  0  0  0
   -9.0484   17.1402  -31.9785 H   0  0  0  0  0  0  0  0  0  0  0  0
   -7.9986   16.3276  -32.9675 H   0  0  0  0  0  0  0  0  0  0  0  0
   -6.2627   14.0705  -33.1287 H   0  0  0  0  0  0  0  0  0  0  0  0
   -7.1127   14.5048  -34.6504 H   0  0  0  0  0  0  0  0  0  0  0  0
   -5.3309   14.2774  -34.6504 H   0  0  0  0  0  0  0  0  0  0  0  0
   -4.0259   16.1721  -34.6100 H   0  0  0  0  0  0  0  0  0  0  0  0
   -2.7818   19.1314  -33.7875 H   0  0  0  0  0  0  0  0  0  0  0  0
   -2.9414   18.0283  -35.1961 H   0  0  0  0  0  0  0  0  0  0  0  0
   -3.7870   19.6131  -35.1961 H   0  0  0  0  0  0  0  0  0  0  0  0
  1  2  1  0
  2  3  1  0
  3  4  1  0
  4  5  1  0
  5  6  1  0
  6  7  1  0
  7  8  1  0
  8  9  1  0
  9 10  1  0
 10 11  1  0
 11 12  1  0
 12 13  1  0
 13 14  2  0
 14 15  1  0
 15 16  2  0
 16 17  1  0
 17 18  2  0
 18 19  1  0
 19 20  2  0
 20 21  1  0
 20 22  1  0
 22 23  2  0
 23 24  1  0
 24 25  1  0
 24 26  2  0
 26 27  1  0
 27 28  1  0
 27 29  2  0
 29 13  1  0
 19 14  1  0
 29 22  1  0
  1 30  1  0
  1 31  1  0
  1 32  1  0
  2 33  1  0
  2 34  1  0
  4 35  1  0
  4 36  1  0
  5 37  1  0
  5 38  1  0
  7 39  1  0
  7 40  1  0
  8 41  1  0
  8 42  1  0
  9 43  1  0
  9 44  1  0
 10 45  1  0
 10 46  1  0
 11 47  1  0
 11 48  1  0
 12 49  1  0
 15 50  1  0
 16 51  1  0
 17 52  1  0
 18 53  1  0
 21 54  1  0
 21 55  1  0
 21 56  1  0
 23 57  1  0
 25 58  1  0
 25 59  1  0
 25 60  1  0
 26 61  1  0
 28 62  1  0
 28 63  1  0
 28 64  1  0
M  CHG  2   9   1  20   1
M  END
>  <UniqueID>  (18) 
18

>  <SMILES>  (18) 
CCOCCOCC[NH2+]CCNc1c2ccccc2[n+](C)c2cc(C)cc(C)c12

>  <Energy>  (18) 
94.89581150941291

>  <Genealogy>  (18) 
CCOCCOCC[NH2+]CCNc1c2ccccc2[n+](C)c2cc(C)cc(C)c12 (protonated)
CCOCCOCC[NH2+]CCNc1c2ccccc2[n+](C)c2cc(C)cc(C)c12 (3D coordinates assigned)
CCOCCOCC[NH2+]CCNc1c2ccccc2[n+](C)c2cc(C)cc(C)c12 (optimized conformer: 94.89581150941291 kcal/mol)

>  <smiles>  (18) 
CCOCCOCCNCCNc1c2ccccc2[n+](C)c2cc(C)cc(C)c12

>  <score_type>  (18) 
oracle

>  <origin>  (18) 
adg

>  <m_score__min__energy>  (18) 
-7.5800000000000001

>  <m_primary>  (18) 
energy

$$$$
18:0
     RDKit          3D

 48 51  0  0  0  0  0  0  0  0999 V2000
   -0.8820   21.1610  -33.2970 C   0  0  0  0  0  0  0  0  0  0  0  0
   -1.6840   20.2390  -34.2090 C   0  0  0  0  0  0  0  0  0  0  0  0
   -2.2950   19.1920  -33.4580 O   0  0  0  0  0  0  0  0  0  0  0  0
   -3.5860   18.7280  -33.7380 C   0  0  0  0  0  0  0  0  0  0  0  0
   -3.7290   17.5500  -34.4880 C   0  0  0  0  0  0  0  0  0  0  0  0
   -2.5700   16.9050  -34.9460 O   0  0  0  0  0  0  0  0  0  0  0  0
   -1.6930   16.1410  -34.1250 C   0  0  0  0  0  0  0  0  0  0  0  0
   -5.0150   17.0480  -34.7490 C   0  0  0  0  0  0  0  0  0  0  0  0
   -6.1440   17.7170  -34.2780 C   0  0  0  0  0  0  0  0  0  0  0  0
   -6.0110   18.9090  -33.5520 C   0  0  0  0  0  0  0  0  0  0  0  0
   -7.1480   19.5860  -33.1020 C   0  0  0  0  0  0  0  0  0  0  0  0
   -7.0480   20.8010  -32.3850 C   0  0  0  0  0  0  0  0  0  0  0  0
   -5.7540   21.3450  -32.1230 C   0  0  0  0  0  0  0  0  0  0  0  0
   -4.6150   20.6480  -32.5980 C   0  0  0  0  0  0  0  0  0  0  0  0
   -4.7310   19.4300  -33.2870 C   0  0  0  0  0  0  0  0  0  0  0  0
   -5.6530   22.5690  -31.3990 C   0  0  0  0  0  0  0  0  0  0  0  0
   -4.4180   23.1830  -31.0630 C   0  0  0  0  0  0  0  0  0  0  0  0
   -4.3700   24.3890  -30.3550 C   0  0  0  0  0  0  0  0  0  0  0  0
   -3.1120   24.9370  -30.0600 O   0  0  0  0  0  0  0  0  0  0  0  0
   -2.2630   24.4880  -29.0080 C   0  0  0  0  0  0  0  0  0  0  0  0
   -5.5650   25.0080  -29.9640 C   0  0  0  0  0  0  0  0  0  0  0  0
   -6.7890   24.4220  -30.2740 C   0  0  0  0  0  0  0  0  0  0  0  0
   -6.8420   23.2120  -30.9820 C   0  0  0  0  0  0  0  0  0  0  0  0
   -8.0800   22.6400  -31.2710 C   0  0  0  0  0  0  0  0  0  0  0  0
   -8.1800   21.4620  -31.9500 N   0  0  0  0  0  0  0  0  0  0  0  0
   -9.5320   20.9320  -32.2010 C   0  0  0  0  0  0  0  0  0  0  0  0
   -1.0962   20.9147  -32.2466 H   0  0  0  0  0  0  0  0  0  0  0  0
    0.1921   21.0273  -33.4933 H   0  0  0  0  0  0  0  0  0  0  0  0
   -1.1632   22.2062  -33.4933 H   0  0  0  0  0  0  0  0  0  0  0  0
   -2.4661   20.8236  -34.7155 H   0  0  0  0  0  0  0  0  0  0  0  0
   -1.0020   19.7922  -34.9474 H   0  0  0  0  0  0  0  0  0  0  0  0
   -1.9181   16.3371  -33.0663 H   0  0  0  0  0  0  0  0  0  0  0  0
   -1.8316   15.0706  -34.3372 H   0  0  0  0  0  0  0  0  0  0  0  0
   -0.6517   16.4250  -34.3372 H   0  0  0  0  0  0  0  0  0  0  0  0
   -5.1320   16.1207  -35.3290 H   0  0  0  0  0  0  0  0  0  0  0  0
   -7.1451   17.3071  -34.4772 H   0  0  0  0  0  0  0  0  0  0  0  0
   -8.1425   19.1645  -33.3101 H   0  0  0  0  0  0  0  0  0  0  0  0
   -3.6152   21.0718  -32.4225 H   0  0  0  0  0  0  0  0  0  0  0  0
   -3.4774   22.6998  -31.3661 H   0  0  0  0  0  0  0  0  0  0  0  0
   -2.7215   24.7305  -28.0380 H   0  0  0  0  0  0  0  0  0  0  0  0
   -2.1258   23.3994  -29.0868 H   0  0  0  0  0  0  0  0  0  0  0  0
   -1.2860   24.9873  -29.0868 H   0  0  0  0  0  0  0  0  0  0  0  0
   -5.5357   25.9585  -29.4112 H   0  0  0  0  0  0  0  0  0  0  0  0
   -7.7228   24.9119  -29.9611 H   0  0  0  0  0  0  0  0  0  0  0  0
   -8.9975   23.1510  -30.9436 H   0  0  0  0  0  0  0  0  0  0  0  0
  -10.0328   20.7357  -31.2415 H   0  0  0  0  0  0  0  0  0  0  0  0
  -10.1140   21.6686  -32.7744 H   0  0  0  0  0  0  0  0  0  0  0  0
   -9.4584   19.9962  -32.7744 H   0  0  0  0  0  0  0  0  0  0  0  0
  1  2  1  0
  2  3  1  0
  3  4  1  0
  4  5  2  0
  5  6  1  0
  6  7  1  0
  5  8  1  0
  8  9  2  0
  9 10  1  0
 10 11  2  0
 11 12  1  0
 12 13  2  0
 13 14  1  0
 14 15  2  0
 13 16  1  0
 16 17  2  0
 17 18  1  0
 18 19  1  0
 19 20  1  0
 18 21  2  0
 21 22  1  0
 22 23  2  0
 23 24  1  0
 24 25  2  0
 25 26  1  0
 15  4  1  0
 23 16  1  0
 15 10  1  0
 25 12  1  0
  1 27  1  0
  1 28  1  0
  1 29  1  0
  2 30  1  0
  2 31  1  0
  7 32  1  0
  7 33  1  0
  7 34  1  0
  8 35  1  0
  9 36  1  0
 11 37  1  0
 14 38  1  0
 17 39  1  0
 20 40  1  0
 20 41  1  0
 20 42  1  0
 21 43  1  0
 22 44  1  0
 24 45  1  0
 26 46  1  0
 26 47  1  0
 26 48  1  0
M  CHG  1  25   1
M  END
>  <UniqueID>  (19) 
19

>  <SMILES>  (19) 
CCOc1c(OC)ccc2cc3c(cc12)c1cc(OC)ccc1c[n+]3C

>  <Energy>  (19) 
74.6516568919566

>  <Genealogy>  (19) 
CCOc1c(OC)ccc2cc3c(cc12)c1cc(OC)ccc1c[n+]3C (3D coordinates assigned)
CCOc1c(OC)ccc2cc3c(cc12)c1cc(OC)ccc1c[n+]3C (optimized conformer: 74.6516568919566 kcal/mol)

>  <smiles>  (19) 
CCOc1c(OC)ccc2cc3c(cc12)c1cc(OC)ccc1c[n+]3C

>  <score_type>  (19) 
oracle

>  <origin>  (19) 
adg

>  <m_score__min__energy>  (19) 
-8.6099999999999994

>  <m_primary>  (19) 
energy

$$$$
19:0
     RDKit          3D

 42 44  0  0  0  0  0  0  0  0999 V2000
   -8.7140   21.3610  -31.5960 C   0  0  0  0  0  0  0  0  0  0  0  0
   -8.6200   22.8790  -31.7140 C   0  0  0  0  0  0  0  0  0  0  0  0
   -7.2370   23.3560  -31.3620 C   0  0  0  0  0  0  0  0  0  0  0  0
   -7.0640   24.4320  -30.4790 C   0  0  0  0  0  0  0  0  0  0  0  0
   -5.7790   24.8560  -30.1280 C   0  0  0  0  0  0  0  0  0  0  0  0
   -4.6460   24.2080  -30.6440 C   0  0  0  0  0  0  0  0  0  0  0  0
   -3.3360   24.6680  -30.2620 N   0  0  0  0  0  0  0  0  0  0  0  0
   -2.3210   23.8010  -29.6640 C   0  0  0  0  0  0  0  0  0  0  0  0
   -1.8090   24.4020  -28.4330 N   0  0  0  0  0  0  0  0  0  0  0  0
   -1.3590   25.6660  -28.2780 C   0  0  0  0  0  0  0  0  0  0  0  0
   -1.2360   26.5840  -29.3140 O   0  0  0  0  0  0  0  0  0  0  0  0
   -1.0560   25.9090  -26.9540 C   0  0  0  0  0  0  0  0  0  0  0  0
   -1.3100   24.7390  -26.2720 C   0  0  0  0  0  0  0  0  0  0  0  0
   -1.8040   23.8420  -27.2030 C   0  0  0  0  0  0  0  0  0  0  0  0
   -2.2570   22.5530  -26.9350 O   0  0  0  0  0  0  0  0  0  0  0  0
   -1.1970   24.5990  -24.7840 C   0  0  0  0  0  0  0  0  0  0  0  0
   -0.3130   25.7230  -24.2050 C   0  0  0  0  0  0  0  0  0  0  0  0
   -0.6760   27.1020  -24.7970 C   0  0  0  0  0  0  0  0  0  0  0  0
   -0.4770   27.1390  -26.3250 C   0  0  0  0  0  0  0  0  0  0  0  0
   -4.8240   23.1190  -31.5190 C   0  0  0  0  0  0  0  0  0  0  0  0
   -6.1090   22.6950  -31.8700 C   0  0  0  0  0  0  0  0  0  0  0  0
   -8.7316   21.0762  -30.5337 H   0  0  0  0  0  0  0  0  0  0  0  0
   -9.6355   21.0116  -32.0846 H   0  0  0  0  0  0  0  0  0  0  0  0
   -7.8426   20.9006  -32.0846 H   0  0  0  0  0  0  0  0  0  0  0  0
   -8.8520   23.1757  -32.7475 H   0  0  0  0  0  0  0  0  0  0  0  0
   -9.3386   23.3328  -31.0157 H   0  0  0  0  0  0  0  0  0  0  0  0
   -7.9431   24.9443  -30.0610 H   0  0  0  0  0  0  0  0  0  0  0  0
   -5.6546   25.7058  -29.4407 H   0  0  0  0  0  0  0  0  0  0  0  0
   -3.0980   25.6740  -30.4200 H   0  0  0  0  0  0  0  0  0  0  0  0
   -2.7683   22.8230  -29.4328 H   0  0  0  0  0  0  0  0  0  0  0  0
   -1.4913   23.6743  -30.3751 H   0  0  0  0  0  0  0  0  0  0  0  0
   -3.2460   22.3500  -26.8520 H   0  0  0  0  0  0  0  0  0  0  0  0
   -2.2001   24.6598  -24.3368 H   0  0  0  0  0  0  0  0  0  0  0  0
   -0.7379   23.6271  -24.5503 H   0  0  0  0  0  0  0  0  0  0  0  0
   -0.4497   25.7569  -23.1141 H   0  0  0  0  0  0  0  0  0  0  0  0
    0.7328   25.5038  -24.4664 H   0  0  0  0  0  0  0  0  0  0  0  0
   -1.7298   27.3209  -24.5697 H   0  0  0  0  0  0  0  0  0  0  0  0
   -0.0103   27.8533  -24.3471 H   0  0  0  0  0  0  0  0  0  0  0  0
   -0.9796   28.0274  -26.7351 H   0  0  0  0  0  0  0  0  0  0  0  0
    0.6000   27.1806  -26.5449 H   0  0  0  0  0  0  0  0  0  0  0  0
   -3.9460   22.5985  -31.9290 H   0  0  0  0  0  0  0  0  0  0  0  0
   -6.2362   21.8384  -32.5482 H   0  0  0  0  0  0  0  0  0  0  0  0
  1  2  1  0
  2  3  1  0
  3  4  2  0
  4  5  1  0
  5  6  2  0
  6  7  1  0
  7  8  1  0
  8  9  1  0
  9 10  1  0
 10 11  1  0
 10 12  2  0
 12 13  1  0
 13 14  2  0
 14 15  1  0
 13 16  1  0
 16 17  1  0
 17 18  1  0
 18 19  1  0
  6 20  1  0
 20 21  2  0
 21  3  1  0
 14  9  1  0
 19 12  1  0
  1 22  1  0
  1 23  1  0
  1 24  1  0
  2 25  1  0
  2 26  1  0
  4 27  1  0
  5 28  1  0
  7 29  1  0
  8 30  1  0
  8 31  1  0
 15 32  1  0
 16 33  1  0
 16 34  1  0
 17 35  1  0
 17 36  1  0
 18 37  1  0
 18 38  1  0
 19 39  1  0
 19 40  1  0
 20 41  1  0
 21 42  1  0
M  CHG  1  11  -1
M  END
>  <UniqueID>  (20) 
20

>  <SMILES>  (20) 
CCc1ccc(NCn2c([O-])c3c(c2O)CCCC3)cc1

>  <Energy>  (20) 
66.63501905541398

>  <Genealogy>  (20) 
CCc1ccc(NCn2c([O-])c3c(c2O)CCCC3)cc1 (protonated)
CCc1ccc(NCn2c([O-])c3c(c2O)CCCC3)cc1 (3D coordinates assigned)
CCc1ccc(NCn2c([O-])c3c(c2O)CCCC3)cc1 (nonaromatic ring conformer: 66.63501905541398 kcal/mol)

>  <smiles>  (20) 
CCc1ccc(NCn2c(O)c3c(c2O)CCCC3)cc1

>  <score_type>  (20) 
oracle

>  <origin>  (20) 
adg

>  <m_score__min__energy>  (20) 
-10.31

>  <m_primary>  (20) 
energy

$$$$
20:0
     RDKit          3D

 53 56  0  0  0  0  0  0  0  0999 V2000
   -3.4980   24.1380  -27.9730 C   0  0  0  0  0  0  0  0  0  0  0  0
   -2.9680   24.5470  -29.3550 C   0  0  0  0  0  0  0  0  0  0  0  0
   -3.9200   24.3260  -30.4730 N   0  0  0  0  0  0  0  0  0  0  0  0
   -4.9550   25.3720  -30.5300 C   0  0  0  0  0  0  0  0  0  0  0  0
   -4.5350   22.9800  -30.5100 C   0  0  0  0  0  0  0  0  0  0  0  0
   -3.5400   21.8810  -30.9290 C   0  0  0  0  0  0  0  0  0  0  0  0
   -3.2100   21.8960  -32.4280 C   0  0  0  0  0  0  0  0  0  0  0  0
   -4.4280   21.9230  -33.2390 N   0  0  0  0  0  0  0  0  0  0  0  0
   -5.5310   21.0450  -32.9620 C   0  0  0  0  0  0  0  0  0  0  0  0
   -5.4010   19.6760  -33.1650 C   0  0  0  0  0  0  0  0  0  0  0  0
   -6.4660   18.8130  -32.9700 C   0  0  0  0  0  0  0  0  0  0  0  0
   -7.6560   19.2440  -32.4430 N   0  0  0  0  0  0  0  0  0  0  0  0
   -8.6440   18.2660  -31.9590 C   0  0  0  0  0  0  0  0  0  0  0  0
   -7.8630   20.6090  -32.3060 C   0  0  0  0  0  0  0  0  0  0  0  0
   -9.1310   21.1370  -31.9590 C   0  0  0  0  0  0  0  0  0  0  0  0
   -9.3080   22.5070  -31.7570 C   0  0  0  0  0  0  0  0  0  0  0  0
   -8.2370   23.3820  -31.8980 C   0  0  0  0  0  0  0  0  0  0  0  0
   -6.9850   22.9020  -32.2790 C   0  0  0  0  0  0  0  0  0  0  0  0
   -6.7850   21.5300  -32.5260 C   0  0  0  0  0  0  0  0  0  0  0  0
   -6.0360   17.4530  -33.3850 C   0  0  0  0  0  0  0  0  0  0  0  0
   -6.7580   16.2670  -33.5900 C   0  0  0  0  0  0  0  0  0  0  0  0
   -6.0780   15.1380  -34.0790 C   0  0  0  0  0  0  0  0  0  0  0  0
   -4.7080   15.2110  -34.3990 C   0  0  0  0  0  0  0  0  0  0  0  0
   -4.0120   16.4200  -34.2560 C   0  0  0  0  0  0  0  0  0  0  0  0
   -4.7020   17.5230  -33.7550 C   0  0  0  0  0  0  0  0  0  0  0  0
   -4.2540   18.9000  -33.6320 C   0  0  0  0  0  0  0  0  0  0  0  0
   -3.1020   19.3330  -33.8920 O   0  0  0  0  0  0  0  0  0  0  0  0
   -2.8856   24.6106  -27.1909 H   0  0  0  0  0  0  0  0  0  0  0  0
   -4.5427   24.4663  -27.8691 H   0  0  0  0  0  0  0  0  0  0  0  0
   -3.4453   23.0442  -27.8691 H   0  0  0  0  0  0  0  0  0  0  0  0
   -2.7186   25.6179  -29.3235 H   0  0  0  0  0  0  0  0  0  0  0  0
   -2.0967   23.9065  -29.5565 H   0  0  0  0  0  0  0  0  0  0  0  0
   -5.2409   25.6610  -29.5079 H   0  0  0  0  0  0  0  0  0  0  0  0
   -4.5602   26.2499  -31.0624 H   0  0  0  0  0  0  0  0  0  0  0  0
   -5.8370   24.9865  -31.0624 H   0  0  0  0  0  0  0  0  0  0  0  0
   -4.9203   22.7418  -29.5076 H   0  0  0  0  0  0  0  0  0  0  0  0
   -5.3386   23.0033  -31.2608 H   0  0  0  0  0  0  0  0  0  0  0  0
   -2.6062   22.0228  -30.3651 H   0  0  0  0  0  0  0  0  0  0  0  0
   -4.0149   20.9130  -30.7109 H   0  0  0  0  0  0  0  0  0  0  0  0
   -2.6089   22.7891  -32.6539 H   0  0  0  0  0  0  0  0  0  0  0  0
   -2.6511   20.9801  -32.6703 H   0  0  0  0  0  0  0  0  0  0  0  0
   -4.5890   22.7370  -33.8750 H   0  0  0  0  0  0  0  0  0  0  0  0
   -8.6478   18.2623  -30.8590 H   0  0  0  0  0  0  0  0  0  0  0  0
   -9.6431   18.5408  -32.3282 H   0  0  0  0  0  0  0  0  0  0  0  0
   -8.3794   17.2641  -32.3282 H   0  0  0  0  0  0  0  0  0  0  0  0
   -9.9887   20.4575  -31.8471 H   0  0  0  0  0  0  0  0  0  0  0  0
  -10.3002   22.8962  -31.4848 H   0  0  0  0  0  0  0  0  0  0  0  0
   -8.3780   24.4563  -31.7084 H   0  0  0  0  0  0  0  0  0  0  0  0
   -6.1440   23.6026  -32.3879 H   0  0  0  0  0  0  0  0  0  0  0  0
   -7.8353   16.2218  -33.3722 H   0  0  0  0  0  0  0  0  0  0  0  0
   -6.6199   14.1901  -34.2128 H   0  0  0  0  0  0  0  0  0  0  0  0
   -4.1820   14.3159  -34.7625 H   0  0  0  0  0  0  0  0  0  0  0  0
   -2.9499   16.4961  -34.5318 H   0  0  0  0  0  0  0  0  0  0  0  0
  1  2  1  0
  2  3  1  0
  3  4  1  0
  3  5  1  0
  5  6  1  0
  6  7  1  0
  7  8  1  0
  8  9  1  0
  9 10  2  0
 10 11  1  0
 11 12  2  0
 12 13  1  0
 12 14  1  0
 14 15  2  0
 15 16  1  0
 16 17  2  0
 17 18  1  0
 18 19  2  0
 11 20  1  0
 20 21  2  0
 21 22  1  0
 22 23  2  0
 23 24  1  0
 24 25  2  0
 25 26  1  0
 26 27  2  0
 19  9  1  0
 25 20  1  0
 26 10  1  0
 19 14  1  0
  1 28  1  0
  1 29  1  0
  1 30  1  0
  2 31  1  0
  2 32  1  0
  4 33  1  0
  4 34  1  0
  4 35  1  0
  5 36  1  0
  5 37  1  0
  6 38  1  0
  6 39  1  0
  7 40  1  0
  7 41  1  0
  8 42  1  0
 13 43  1  0
 13 44  1  0
 13 45  1  0
 15 46  1  0
 16 47  1  0
 17 48  1  0
 18 49  1  0
 21 50  1  0
 22 51  1  0
 23 52  1  0
 24 53  1  0
M  CHG  1  12   1
M  END
>  <UniqueID>  (21) 
21

>  <SMILES>  (21) 
CCN(C)CCCNc1c2c([n+](C)c3ccccc13)-c1ccccc1C2=O

>  <Energy>  (21) 
110.53546370066708

>  <Genealogy>  (21) 
CCN(C)CCCNc1c2c([n+](C)c3ccccc13)-c1ccccc1C2=O (3D coordinates assigned)
CCN(C)CCCNc1c2c([n+](C)c3ccccc13)-c1ccccc1C2=O (nonaromatic ring conformer: 110.53546370066708 kcal/mol)

>  <smiles>  (21) 
CCN(C)CCCNc1c2c([n+](C)c3ccccc13)-c1ccccc1C2=O

>  <score_type>  (21) 
oracle

>  <origin>  (21) 
adg

>  <m_score__min__energy>  (21) 
-9.4199999999999999

>  <m_primary>  (21) 
energy

$$$$
21:0
     RDKit          3D

 76 79  0  0  0  0  0  0  0  0999 V2000
   -4.1510   24.6430  -26.7230 C   0  0  0  0  0  0  0  0  0  0  0  0
   -3.8970   23.5860  -27.8020 C   0  0  0  0  0  0  0  0  0  0  0  0
   -3.3240   24.1900  -29.1010 C   0  0  0  0  0  0  0  0  0  0  0  0
   -4.1000   23.8650  -30.3180 N   0  0  0  0  0  0  0  0  0  0  0  0
   -4.9740   24.9520  -30.8300 C   0  0  0  0  0  0  0  0  0  0  0  0
   -6.1010   25.3730  -29.8800 C   0  0  0  0  0  0  0  0  0  0  0  0
   -3.3790   23.0370  -31.3130 C   0  0  0  0  0  0  0  0  0  0  0  0
   -3.8240   21.5640  -31.2790 C   0  0  0  0  0  0  0  0  0  0  0  0
   -4.2710   21.0910  -32.5930 N   0  0  0  0  0  0  0  0  0  0  0  0
   -5.5410   20.4440  -32.7730 C   0  0  0  0  0  0  0  0  0  0  0  0
   -6.7160   21.1150  -32.4030 C   0  0  0  0  0  0  0  0  0  0  0  0
   -6.7040   22.5020  -32.1390 C   0  0  0  0  0  0  0  0  0  0  0  0
   -7.8760   23.1690  -31.7910 C   0  0  0  0  0  0  0  0  0  0  0  0
   -9.0760   22.4730  -31.7200 C   0  0  0  0  0  0  0  0  0  0  0  0
   -9.1090   21.0990  -31.9640 C   0  0  0  0  0  0  0  0  0  0  0  0
   -7.9250   20.3860  -32.2820 C   0  0  0  0  0  0  0  0  0  0  0  0
   -7.9240   19.0150  -32.4520 N   0  0  0  0  0  0  0  0  0  0  0  0
   -9.0630   18.2120  -31.9570 C   0  0  0  0  0  0  0  0  0  0  0  0
   -6.8350   18.3960  -33.0360 C   0  0  0  0  0  0  0  0  0  0  0  0
   -6.8970   17.0470  -33.4570 C   0  0  0  0  0  0  0  0  0  0  0  0
   -5.7800   16.4050  -33.9800 C   0  0  0  0  0  0  0  0  0  0  0  0
   -4.5880   17.0950  -34.1470 C   0  0  0  0  0  0  0  0  0  0  0  0
   -4.4960   18.4570  -33.8150 C   0  0  0  0  0  0  0  0  0  0  0  0
   -3.3330   19.1890  -34.1100 O   0  0  0  0  0  0  0  0  0  0  0  0
   -2.0590   19.0190  -33.4910 C   0  0  0  0  0  0  0  0  0  0  0  0
   -0.9300   19.1830  -34.5340 C   0  0  0  0  0  0  0  0  0  0  0  0
   -0.2110   20.5000  -34.5160 N   0  0  0  0  0  0  0  0  0  0  0  0
   -0.9330   21.4500  -33.6220 C   0  0  0  0  0  0  0  0  0  0  0  0
    1.2040   20.3210  -34.0700 C   0  0  0  0  0  0  0  0  0  0  0  0
    2.1640   21.4050  -34.6040 C   0  0  0  0  0  0  0  0  0  0  0  0
    1.4720   22.5720  -34.9780 O   0  0  0  0  0  0  0  0  0  0  0  0
    0.6470   22.3010  -36.0930 C   0  0  0  0  0  0  0  0  0  0  0  0
   -0.2260   21.0310  -35.9130 C   0  0  0  0  0  0  0  0  0  0  0  0
   -5.6150   19.1080  -33.2230 C   0  0  0  0  0  0  0  0  0  0  0  0
   -4.0411   24.1857  -25.7286 H   0  0  0  0  0  0  0  0  0  0  0  0
   -3.4239   25.4611  -26.8327 H   0  0  0  0  0  0  0  0  0  0  0  0
   -5.1704   25.0414  -26.8327 H   0  0  0  0  0  0  0  0  0  0  0  0
   -3.1810   22.8482  -27.4108 H   0  0  0  0  0  0  0  0  0  0  0  0
   -4.8636   23.1223  -28.0483 H   0  0  0  0  0  0  0  0  0  0  0  0
   -3.2991   25.2841  -28.9904 H   0  0  0  0  0  0  0  0  0  0  0  0
   -2.3247   23.7511  -29.2382 H   0  0  0  0  0  0  0  0  0  0  0  0
   -4.3450   25.8329  -31.0262 H   0  0  0  0  0  0  0  0  0  0  0  0
   -5.4621   24.5569  -31.7331 H   0  0  0  0  0  0  0  0  0  0  0  0
   -5.7685   25.2488  -28.8388 H   0  0  0  0  0  0  0  0  0  0  0  0
   -6.3573   26.4275  -30.0597 H   0  0  0  0  0  0  0  0  0  0  0  0
   -6.9859   24.7448  -30.0597 H   0  0  0  0  0  0  0  0  0  0  0  0
   -3.5726   23.4420  -32.3172 H   0  0  0  0  0  0  0  0  0  0  0  0
   -2.3076   23.0708  -31.0661 H   0  0  0  0  0  0  0  0  0  0  0  0
   -2.9765   20.9452  -30.9490 H   0  0  0  0  0  0  0  0  0  0  0  0
   -4.6726   21.4831  -30.5838 H   0  0  0  0  0  0  0  0  0  0  0  0
   -3.7400   21.3940  -33.4380 H   0  0  0  0  0  0  0  0  0  0  0  0
   -5.7594   23.0614  -32.2089 H   0  0  0  0  0  0  0  0  0  0  0  0
   -7.8514   24.2468  -31.5724 H   0  0  0  0  0  0  0  0  0  0  0  0
  -10.0047   23.0071  -31.4703 H   0  0  0  0  0  0  0  0  0  0  0  0
  -10.0672   20.5615  -31.9088 H   0  0  0  0  0  0  0  0  0  0  0  0
   -9.0617   18.2129  -30.8570 H   0  0  0  0  0  0  0  0  0  0  0  0
  -10.0048   18.6470  -32.3229 H   0  0  0  0  0  0  0  0  0  0  0  0
   -8.9697   17.1788  -32.3229 H   0  0  0  0  0  0  0  0  0  0  0  0
   -7.8452   16.4964  -33.3691 H   0  0  0  0  0  0  0  0  0  0  0  0
   -5.8418   15.3438  -34.2630 H   0  0  0  0  0  0  0  0  0  0  0  0
   -3.7061   16.5704  -34.5433 H   0  0  0  0  0  0  0  0  0  0  0  0
   -1.9357   19.7743  -32.7009 H   0  0  0  0  0  0  0  0  0  0  0  0
   -2.0030   18.0091  -33.0587 H   0  0  0  0  0  0  0  0  0  0  0  0
   -0.1879   18.3908  -34.3556 H   0  0  0  0  0  0  0  0  0  0  0  0
   -1.4202   19.1235  -35.5169 H   0  0  0  0  0  0  0  0  0  0  0  0
   -0.7343   21.1885  -32.5722 H   0  0  0  0  0  0  0  0  0  0  0  0
   -0.5836   22.4746  -33.8171 H   0  0  0  0  0  0  0  0  0  0  0  0
   -2.0138   21.3877  -33.8171 H   0  0  0  0  0  0  0  0  0  0  0  0
    1.2276   20.3471  -32.9706 H   0  0  0  0  0  0  0  0  0  0  0  0
    1.5493   19.3580  -34.4742 H   0  0  0  0  0  0  0  0  0  0  0  0
    2.8903   21.6574  -33.8173 H   0  0  0  0  0  0  0  0  0  0  0  0
    2.6717   21.0061  -35.4945 H   0  0  0  0  0  0  0  0  0  0  0  0
   -0.0179   23.1625  -36.2535 H   0  0  0  0  0  0  0  0  0  0  0  0
    1.3086   22.1237  -36.9538 H   0  0  0  0  0  0  0  0  0  0  0  0
   -1.2635   21.2788  -36.1818 H   0  0  0  0  0  0  0  0  0  0  0  0
    0.1941   20.2503  -36.5642 H   0  0  0  0  0  0  0  0  0  0  0  0
  1  2  1  0
  2  3  1  0
  3  4  1  0
  4  5  1  0
  5  6  1  0
  4  7  1  0
  7  8  1  0
  8  9  1  0
  9 10  1  0
 10 11  2  0
 11 12  1  0
 12 13  2  0
 13 14  1  0
 14 15  2  0
 15 16  1  0
 16 17  2  0
 17 18  1  0
 17 19  1  0
 19 20  2  0
 20 21  1  0
 21 22  2  0
 22 23  1  0
 23 24  1  0
 24 25  1  0
 25 26  1  0
 26 27  1  0
 27 28  1  0
 27 29  1  0
 29 30  1  0
 30 31  1  0
 31 32  1  0
 32 33  1  0
 23 34  2  0
 34 10  1  0
 16 11  1  0
 34 19  1  0
 33 27  1  0
  1 35  1  0
  1 36  1  0
  1 37  1  0
  2 38  1  0
  2 39  1  0
  3 40  1  0
  3 41  1  0
  5 42  1  0
  5 43  1  0
  6 44  1  0
  6 45  1  0
  6 46  1  0
  7 47  1  0
  7 48  1  0
  8 49  1  0
  8 50  1  0
  9 51  1  0
 12 52  1  0
 13 53  1  0
 14 54  1  0
 15 55  1  0
 18 56  1  0
 18 57  1  0
 18 58  1  0
 20 59  1  0
 21 60  1  0
 22 61  1  0
 25 62  1  0
 25 63  1  0
 26 64  1  0
 26 65  1  0
 28 66  1  0
 28 67  1  0
 28 68  1  0
 29 69  1  0
 29 70  1  0
 30 71  1  0
 30 72  1  0
 32 73  1  0
 32 74  1  0
 33 75  1  0
 33 76  1  0
M  CHG  2  17   1  27   1
M  END
>  <UniqueID>  (22) 
22

>  <SMILES>  (22) 
CCCN(CC)CCNc1c2ccccc2[n+](C)c2cccc(OCC[N+]3(C)CCOCC3)c12

>  <Energy>  (22) 
129.8266476958996

>  <Genealogy>  (22) 
CCCN(CC)CCNc1c2ccccc2[n+](C)c2cccc(OCC[N+]3(C)CCOCC3)c12 (3D coordinates assigned)
CCCN(CC)CCNc1c2ccccc2[n+](C)c2cccc(OCC[N+]3(C)CCOCC3)c12 (nonaromatic ring conformer: 129.8266476958996 kcal/mol)

>  <smiles>  (22) 
CCCN(CC)CCNc1c2ccccc2[n+](C)c2cccc(OCC[N+]3(C)CCOCC3)c12

>  <score_type>  (22) 
oracle

>  <origin>  (22) 
adg

>  <m_score__min__energy>  (22) 
-8.5700000000000003

>  <m_primary>  (22) 
energy

$$$$
22:0
     RDKit          3D

 50 53  0  0  0  0  0  0  0  0999 V2000
   -6.0960   25.1900  -30.1190 C   0  0  0  0  0  0  0  0  0  0  0  0
   -6.4730   24.1810  -31.1970 C   0  0  0  0  0  0  0  0  0  0  0  0
   -5.2890   23.8120  -31.9890 N   0  0  0  0  0  0  0  0  0  0  0  0
   -4.3430   22.9580  -31.2440 C   0  0  0  0  0  0  0  0  0  0  0  0
   -3.4730   22.0800  -32.1630 C   0  0  0  0  0  0  0  0  0  0  0  0
   -4.1920   21.6800  -33.3840 N   0  0  0  0  0  0  0  0  0  0  0  0
   -4.7280   20.3340  -33.2480 C   0  0  0  0  0  0  0  0  0  0  0  0
   -6.0540   20.1280  -32.7840 C   0  0  0  0  0  0  0  0  0  0  0  0
   -6.9750   21.1930  -32.6400 C   0  0  0  0  0  0  0  0  0  0  0  0
   -8.2520   20.9730  -32.1230 C   0  0  0  0  0  0  0  0  0  0  0  0
   -9.3750   22.3120  -31.9590 Cl  0  0  0  0  0  0  0  0  0  0  0  0
   -8.6390   19.6930  -31.7440 C   0  0  0  0  0  0  0  0  0  0  0  0
   -7.7580   18.6250  -31.8900 C   0  0  0  0  0  0  0  0  0  0  0  0
   -6.4590   18.8180  -32.4190 C   0  0  0  0  0  0  0  0  0  0  0  0
   -5.5910   17.7590  -32.5680 N   0  0  0  0  0  0  0  0  0  0  0  0
   -5.7480   16.5860  -31.6800 C   0  0  0  0  0  0  0  0  0  0  0  0
   -4.4760   17.8940  -33.3700 C   0  0  0  0  0  0  0  0  0  0  0  0
   -3.9510   19.1960  -33.6030 C   0  0  0  0  0  0  0  0  0  0  0  0
   -2.6710   19.3240  -34.1870 C   0  0  0  0  0  0  0  0  0  0  0  0
   -1.9390   18.2070  -34.5680 C   0  0  0  0  0  0  0  0  0  0  0  0
   -2.5040   16.9360  -34.4960 C   0  0  0  0  0  0  0  0  0  0  0  0
   -1.8020   15.8370  -35.0160 C   0  0  0  0  0  0  0  0  0  0  0  0
   -2.4100   14.5840  -35.0830 C   0  0  0  0  0  0  0  0  0  0  0  0
   -3.7310   14.4300  -34.6680 C   0  0  0  0  0  0  0  0  0  0  0  0
   -4.4310   15.5140  -34.1340 C   0  0  0  0  0  0  0  0  0  0  0  0
   -3.8070   16.7700  -33.9590 C   0  0  0  0  0  0  0  0  0  0  0  0
   -6.2621   24.7455  -29.1266 H   0  0  0  0  0  0  0  0  0  0  0  0
   -5.0356   25.4620  -30.2261 H   0  0  0  0  0  0  0  0  0  0  0  0
   -6.7182   26.0907  -30.2261 H   0  0  0  0  0  0  0  0  0  0  0  0
   -6.8865   23.2795  -30.7213 H   0  0  0  0  0  0  0  0  0  0  0  0
   -7.2221   24.6333  -31.8636 H   0  0  0  0  0  0  0  0  0  0  0  0
   -5.6000   23.3420  -32.8720 H   0  0  0  0  0  0  0  0  0  0  0  0
   -3.6819   23.6043  -30.6480 H   0  0  0  0  0  0  0  0  0  0  0  0
   -4.9375   22.2832  -30.6105 H   0  0  0  0  0  0  0  0  0  0  0  0
   -2.5745   22.6464  -32.4491 H   0  0  0  0  0  0  0  0  0  0  0  0
   -3.2076   21.1670  -31.6098 H   0  0  0  0  0  0  0  0  0  0  0  0
   -3.5640   21.7380  -34.2150 H   0  0  0  0  0  0  0  0  0  0  0  0
   -4.9540   22.3590  -33.6040 H   0  0  0  0  0  0  0  0  0  0  0  0
   -6.6796   22.2092  -32.9401 H   0  0  0  0  0  0  0  0  0  0  0  0
   -9.6431   19.5236  -31.3280 H   0  0  0  0  0  0  0  0  0  0  0  0
   -8.0760   17.6157  -31.5897 H   0  0  0  0  0  0  0  0  0  0  0  0
   -5.7043   16.9122  -30.6304 H   0  0  0  0  0  0  0  0  0  0  0  0
   -6.7184   16.1060  -31.8747 H   0  0  0  0  0  0  0  0  0  0  0  0
   -4.9380   15.8677  -31.8747 H   0  0  0  0  0  0  0  0  0  0  0  0
   -2.2464   20.3267  -34.3428 H   0  0  0  0  0  0  0  0  0  0  0  0
   -0.9068   18.3268  -34.9288 H   0  0  0  0  0  0  0  0  0  0  0  0
   -0.7690   15.9648  -35.3717 H   0  0  0  0  0  0  0  0  0  0  0  0
   -1.8475   13.7184  -35.4629 H   0  0  0  0  0  0  0  0  0  0  0  0
   -4.2243   13.4512  -34.7613 H   0  0  0  0  0  0  0  0  0  0  0  0
   -5.4849   15.3883  -33.8450 H   0  0  0  0  0  0  0  0  0  0  0  0
  1  2  1  0
  2  3  1  0
  3  4  1  0
  4  5  1  0
  5  6  1  0
  6  7  1  0
  7  8  2  0
  8  9  1  0
  9 10  2  0
 10 11  1  0
 10 12  1  0
 12 13  2  0
 13 14  1  0
 14 15  2  0
 15 16  1  0
 15 17  1  0
 17 18  2  0
 18 19  1  0
 19 20  2  0
 20 21  1  0
 21 22  2  0
 22 23  1  0
 23 24  2  0
 24 25  1  0
 25 26  2  0
 18  7  1  0
 26 21  1  0
 14  8  1  0
 26 17  1  0
  1 27  1  0
  1 28  1  0
  1 29  1  0
  2 30  1  0
  2 31  1  0
  3 32  1  0
  4 33  1  0
  4 34  1  0
  5 35  1  0
  5 36  1  0
  6 37  1  0
  6 38  1  0
  9 39  1  0
 12 40  1  0
 13 41  1  0
 16 42  1  0
 16 43  1  0
 16 44  1  0
 19 45  1  0
 20 46  1  0
 22 47  1  0
 23 48  1  0
 24 49  1  0
 25 50  1  0
M  CHG  2   6   1  15   1
M  END
>  <UniqueID>  (23) 
23

>  <SMILES>  (23) 
CCNCC[NH2+]c1c2cc(Cl)ccc2[n+](C)c2c1ccc1ccccc12

>  <Energy>  (23) 
94.68674404722533

>  <Genealogy>  (23) 
CCNCC[NH2+]c1c2cc(Cl)ccc2[n+](C)c2c1ccc1ccccc12 (protonated)
CCNCC[NH2+]c1c2cc(Cl)ccc2[n+](C)c2c1ccc1ccccc12 (3D coordinates assigned)
CCNCC[NH2+]c1c2cc(Cl)ccc2[n+](C)c2c1ccc1ccccc12 (optimized conformer: 94.68674404722533 kcal/mol)

>  <smiles>  (23) 
CCNCCNc1c2cc(Cl)ccc2[n+](C)c2c1ccc1ccccc12

>  <score_type>  (23) 
oracle

>  <origin>  (23) 
adg

>  <m_score__min__energy>  (23) 
-8.6099999999999994

>  <m_primary>  (23) 
energy

$$$$
23:0
     RDKit          3D

 57 59  0  0  0  0  0  0  0  0999 V2000
   -5.9380   25.6110  -30.0320 C   0  0  0  0  0  0  0  0  0  0  0  0
   -4.9490   24.6070  -30.6140 C   0  0  0  0  0  0  0  0  0  0  0  0
   -3.5810   25.0930  -30.4700 N   0  0  0  0  0  0  0  0  0  0  0  0
   -2.6420   24.5550  -29.5320 C   0  0  0  0  0  0  0  0  0  0  0  0
   -2.2700   25.2410  -28.5400 O   0  0  0  0  0  0  0  0  0  0  0  0
   -2.0740   23.1760  -29.7390 C   0  0  2  0  0  0  0  0  0  0  0  0
   -3.1890   22.1050  -29.6930 C   0  0  0  0  0  0  0  0  0  0  0  0
   -2.7250   20.7960  -29.0250 C   0  0  0  0  0  0  0  0  0  0  0  0
   -1.3290   20.4360  -29.3730 N   0  0  1  0  0  0  0  0  0  0  0  0
   -1.1400   20.1010  -30.8120 C   0  0  0  0  0  0  0  0  0  0  0  0
   -0.1230   20.9890  -31.5610 C   0  0  0  0  0  0  0  0  0  0  0  0
   -0.4700   21.1890  -33.0430 C   0  0  0  0  0  0  0  0  0  0  0  0
   -1.5250   20.3120  -33.4350 O   0  0  0  0  0  0  0  0  0  0  0  0
   -2.8920   20.5120  -33.1780 C   0  0  0  0  0  0  0  0  0  0  0  0
   -3.4430   21.7830  -32.9280 C   0  0  0  0  0  0  0  0  0  0  0  0
   -4.8110   21.9230  -32.6790 C   0  0  0  0  0  0  0  0  0  0  0  0
   -5.6570   20.7990  -32.6760 C   0  0  0  0  0  0  0  0  0  0  0  0
   -7.1110   20.9480  -32.4110 C   0  0  0  0  0  0  0  0  0  0  0  0
   -7.9910   19.8680  -32.6190 C   0  0  0  0  0  0  0  0  0  0  0  0
   -9.3590   20.0110  -32.3690 C   0  0  0  0  0  0  0  0  0  0  0  0
   -9.8640   21.2290  -31.9080 C   0  0  0  0  0  0  0  0  0  0  0  0
   -9.0020   22.3080  -31.6980 C   0  0  0  0  0  0  0  0  0  0  0  0
   -7.6320   22.1710  -31.9460 C   0  0  0  0  0  0  0  0  0  0  0  0
   -5.1020   19.5330  -32.9290 C   0  0  0  0  0  0  0  0  0  0  0  0
   -3.7330   19.3950  -33.1780 C   0  0  0  0  0  0  0  0  0  0  0  0
   -0.3560   21.4840  -28.9340 C   0  0  0  0  0  0  0  0  0  0  0  0
   -0.9740   22.8830  -28.7100 C   0  0  0  0  0  0  0  0  0  0  0  0
   -5.8980   25.5704  -28.9335 H   0  0  0  0  0  0  0  0  0  0  0  0
   -5.6749   26.6237  -30.3713 H   0  0  0  0  0  0  0  0  0  0  0  0
   -6.9546   25.3632  -30.3713 H   0  0  0  0  0  0  0  0  0  0  0  0
   -5.0505   23.6494  -30.0823 H   0  0  0  0  0  0  0  0  0  0  0  0
   -5.1674   24.4726  -31.6837 H   0  0  0  0  0  0  0  0  0  0  0  0
   -1.6187   23.1372  -30.7396 H   0  0  0  0  0  0  0  0  0  0  0  0
   -4.0411   22.5075  -29.1256 H   0  0  0  0  0  0  0  0  0  0  0  0
   -3.4681   21.8693  -30.7306 H   0  0  0  0  0  0  0  0  0  0  0  0
   -2.7957   20.9142  -27.9337 H   0  0  0  0  0  0  0  0  0  0  0  0
   -3.3761   19.9886  -29.3913 H   0  0  0  0  0  0  0  0  0  0  0  0
   -1.0950   19.5750  -28.8250 H   0  0  0  0  0  0  0  0  0  0  0  0
   -0.7955   19.0584  -30.8772 H   0  0  0  0  0  0  0  0  0  0  0  0
   -2.1124   20.2711  -31.2973 H   0  0  0  0  0  0  0  0  0  0  0  0
   -0.0934   21.9744  -31.0729 H   0  0  0  0  0  0  0  0  0  0  0  0
    0.8500   20.4775  -31.5195 H   0  0  0  0  0  0  0  0  0  0  0  0
   -0.7873   22.2301  -33.2026 H   0  0  0  0  0  0  0  0  0  0  0  0
    0.4205   20.9652  -33.6488 H   0  0  0  0  0  0  0  0  0  0  0  0
   -2.7934   22.6707  -32.9286 H   0  0  0  0  0  0  0  0  0  0  0  0
   -5.2301   22.9211  -32.4836 H   0  0  0  0  0  0  0  0  0  0  0  0
   -7.5993   18.9058  -32.9805 H   0  0  0  0  0  0  0  0  0  0  0  0
  -10.0391   19.1626  -32.5357 H   0  0  0  0  0  0  0  0  0  0  0  0
  -10.9405   21.3385  -31.7103 H   0  0  0  0  0  0  0  0  0  0  0  0
   -9.4012   23.2673  -31.3369 H   0  0  0  0  0  0  0  0  0  0  0  0
   -6.9578   23.0235  -31.7768 H   0  0  0  0  0  0  0  0  0  0  0  0
   -5.7495   18.6438  -32.9312 H   0  0  0  0  0  0  0  0  0  0  0  0
   -3.3134   18.3976  -33.3759 H   0  0  0  0  0  0  0  0  0  0  0  0
    0.0994   21.1547  -27.9884 H   0  0  0  0  0  0  0  0  0  0  0  0
    0.3739   21.5928  -29.7497 H   0  0  0  0  0  0  0  0  0  0  0  0
   -1.4072   22.9261  -27.6998 H   0  0  0  0  0  0  0  0  0  0  0  0
   -0.1806   23.6363  -28.8248 H   0  0  0  0  0  0  0  0  0  0  0  0
  1  2  1  0
  2  3  1  0
  3  4  1  0
  4  5  2  0
  4  6  1  0
  6  7  1  0
  7  8  1  0
  8  9  1  0
  9 10  1  0
 10 11  1  0
 11 12  1  0
 12 13  1  0
 13 14  1  0
 14 15  2  0
 15 16  1  0
 16 17  2  0
 17 18  1  0
 18 19  2  0
 19 20  1  0
 20 21  2  0
 21 22  1  0
 22 23  2  0
 17 24  1  0
 24 25  2  0
  9 26  1  0
 26 27  1  0
 27  6  1  0
 25 14  1  0
 23 18  1  0
  1 28  1  0
  1 29  1  0
  1 30  1  0
  2 31  1  0
  2 32  1  0
  6 33  1  6
  7 34  1  0
  7 35  1  0
  8 36  1  0
  8 37  1  0
  9 38  1  1
 10 39  1  0
 10 40  1  0
 11 41  1  0
 11 42  1  0
 12 43  1  0
 12 44  1  0
 15 45  1  0
 16 46  1  0
 19 47  1  0
 20 48  1  0
 21 49  1  0
 22 50  1  0
 23 51  1  0
 24 52  1  0
 25 53  1  0
 26 54  1  0
 26 55  1  0
 27 56  1  0
 27 57  1  0
M  CHG  2   3  -1   9   1
M  END
>  <UniqueID>  (24) 
24

>  <SMILES>  (24) 
CC[N-]C(=O)C1CC[NH+](CCCOc2ccc(-c3ccccc3)cc2)CC1

>  <Energy>  (24) 
67.94248112479222

>  <Genealogy>  (24) 
CC[N-]C(=O)C1CC[NH+](CCCOc2ccc(-c3ccccc3)cc2)CC1 (protonated)
CC[N-]C(=O)C1CC[NH+](CCCOc2ccc(-c3ccccc3)cc2)CC1 (3D coordinates assigned)
CC[N-]C(=O)C1CC[NH+](CCCOc2ccc(-c3ccccc3)cc2)CC1 (nonaromatic ring conformer: 67.94248112479222 kcal/mol)

>  <smiles>  (24) 
CCNC(=O)C1CCN(CCCOc2ccc(-c3ccccc3)cc2)CC1

>  <score_type>  (24) 
oracle

>  <origin>  (24) 
adg

>  <m_score__min__energy>  (24) 
-9.4000000000000004

>  <m_primary>  (24) 
energy

$$$$
24:0
     RDKit          3D

 37 37  0  0  0  0  0  0  0  0999 V2000
   -2.1070   25.3110  -26.6110 C   0  0  0  0  0  0  0  0  0  0  0  0
   -1.2200   26.0090  -27.6320 C   0  0  0  0  0  0  0  0  0  0  0  0
   -1.6580   25.6730  -28.9310 O   0  0  0  0  0  0  0  0  0  0  0  0
   -1.5600   24.2770  -29.1130 C   0  0  0  0  0  0  0  0  0  0  0  0
   -2.7110   23.7940  -29.9880 C   0  0  0  0  0  0  0  0  0  0  0  0
   -3.4890   24.9010  -30.3950 O   0  0  0  0  0  0  0  0  0  0  0  0
   -4.7720   24.8610  -29.8000 C   0  0  0  0  0  0  0  0  0  0  0  0
   -5.8490   25.2380  -30.8200 C   0  0  0  0  0  0  0  0  0  0  0  0
   -5.8650   24.3130  -31.9100 O   0  0  0  0  0  0  0  0  0  0  0  0
   -6.6460   23.1470  -31.9880 C   0  0  0  0  0  0  0  0  0  0  0  0
   -8.0320   23.1480  -31.7360 C   0  0  0  0  0  0  0  0  0  0  0  0
   -8.7730   21.9690  -31.8570 C   0  0  0  0  0  0  0  0  0  0  0  0
   -8.1410   20.7760  -32.2180 C   0  0  0  0  0  0  0  0  0  0  0  0
   -9.0960   19.2660  -32.3810 S   0  0  0  0  0  0  0  0  0  0  0  0
   -7.6810   18.1870  -31.9950 C   0  0  0  0  0  0  0  0  0  0  0  0
   -6.7610   20.7600  -32.4410 C   0  0  0  0  0  0  0  0  0  0  0  0
   -6.0150   21.9380  -32.3240 C   0  0  0  0  0  0  0  0  0  0  0  0
   -4.1310   21.8840  -32.6580 Br  0  0  0  0  0  0  0  0  0  0  0  0
   -1.7740   25.5731  -25.5959 H   0  0  0  0  0  0  0  0  0  0  0  0
   -3.1495   25.6335  -26.7496 H   0  0  0  0  0  0  0  0  0  0  0  0
   -2.0386   24.2219  -26.7496 H   0  0  0  0  0  0  0  0  0  0  0  0
   -1.2840   27.0982  -27.4920 H   0  0  0  0  0  0  0  0  0  0  0  0
   -0.1767   25.6871  -27.4980 H   0  0  0  0  0  0  0  0  0  0  0  0
   -0.6036   24.0376  -29.6009 H   0  0  0  0  0  0  0  0  0  0  0  0
   -1.6094   23.7764  -28.1347 H   0  0  0  0  0  0  0  0  0  0  0  0
   -2.3081   23.2829  -30.8748 H   0  0  0  0  0  0  0  0  0  0  0  0
   -3.3386   23.0949  -29.4158 H   0  0  0  0  0  0  0  0  0  0  0  0
   -4.9665   23.8445  -29.4274 H   0  0  0  0  0  0  0  0  0  0  0  0
   -4.8012   25.5818  -28.9696 H   0  0  0  0  0  0  0  0  0  0  0  0
   -6.8318   25.2295  -30.3259 H   0  0  0  0  0  0  0  0  0  0  0  0
   -5.6254   26.2407  -31.2131 H   0  0  0  0  0  0  0  0  0  0  0  0
   -8.5339   24.0818  -31.4424 H   0  0  0  0  0  0  0  0  0  0  0  0
   -9.8565   21.9802  -31.6676 H   0  0  0  0  0  0  0  0  0  0  0  0
   -7.5709   18.1030  -30.9038 H   0  0  0  0  0  0  0  0  0  0  0  0
   -7.8532   17.1889  -32.4240 H   0  0  0  0  0  0  0  0  0  0  0  0
   -6.7640   18.6173  -32.4240 H   0  0  0  0  0  0  0  0  0  0  0  0
   -6.2600   19.8182  -32.7093 H   0  0  0  0  0  0  0  0  0  0  0  0
  1  2  1  0
  2  3  1  0
  3  4  1  0
  4  5  1  0
  5  6  1  0
  6  7  1  0
  7  8  1  0
  8  9  1  0
  9 10  1  0
 10 11  2  0
 11 12  1  0
 12 13  2  0
 13 14  1  0
 14 15  1  0
 13 16  1  0
 16 17  2  0
 17 18  1  0
 17 10  1  0
  1 19  1  0
  1 20  1  0
  1 21  1  0
  2 22  1  0
  2 23  1  0
  4 24  1  0
  4 25  1  0
  5 26  1  0
  5 27  1  0
  7 28  1  0
  7 29  1  0
  8 30  1  0
  8 31  1  0
 11 32  1  0
 12 33  1  0
 15 34  1  0
 15 35  1  0
 15 36  1  0
 16 37  1  0
M  END
>  <UniqueID>  (25) 
25

>  <SMILES>  (25) 
CCOCCOCCOc1ccc(SC)cc1Br

>  <Energy>  (25) 
25.61391941291498

>  <Genealogy>  (25) 
CCOCCOCCOc1ccc(SC)cc1Br (3D coordinates assigned)
CCOCCOCCOc1ccc(SC)cc1Br (optimized conformer: 25.61391941291498 kcal/mol)

>  <smiles>  (25) 
CCOCCOCCOc1ccc(SC)cc1Br

>  <score_type>  (25) 
oracle

>  <origin>  (25) 
adg

>  <m_score__min__energy>  (25) 
-7.5099999999999998

>  <m_primary>  (25) 
energy

$$$$
25:0
     RDKit          3D

 51 53  0  0  0  0  0  0  0  0999 V2000
   -5.7360   17.5370  -34.5300 C   0  0  0  0  0  0  0  0  0  0  0  0
   -5.6680   17.8460  -33.0380 C   0  0  0  0  0  0  0  0  0  0  0  0
   -5.9040   19.2770  -32.7950 N   0  0  0  0  0  0  0  0  0  0  0  0
   -4.8640   20.1530  -32.9170 C   0  0  0  0  0  0  0  0  0  0  0  0
   -5.0570   21.5200  -32.7180 C   0  0  0  0  0  0  0  0  0  0  0  0
   -6.3200   21.9870  -32.3270 C   0  0  0  0  0  0  0  0  0  0  0  0
   -6.5330   23.4760  -32.1130 C   0  0  0  0  0  0  0  0  0  0  0  0
   -6.4970   23.9230  -30.6350 C   0  0  0  0  0  0  0  0  0  0  0  0
   -5.8050   22.9340  -29.6750 C   0  0  0  0  0  0  0  0  0  0  0  0
   -4.3710   23.3050  -29.3830 C   0  0  0  0  0  0  0  0  0  0  0  0
   -3.3330   22.8430  -30.2060 C   0  0  0  0  0  0  0  0  0  0  0  0
   -2.0180   23.2640  -29.9930 C   0  0  0  0  0  0  0  0  0  0  0  0
   -1.7160   24.1390  -28.9330 C   0  0  0  0  0  0  0  0  0  0  0  0
   -0.4180   24.6130  -28.6960 O   0  0  0  0  0  0  0  0  0  0  0  0
    0.3630   24.2750  -27.5550 C   0  0  0  0  0  0  0  0  0  0  0  0
   -2.7450   24.5600  -28.0820 C   0  0  0  0  0  0  0  0  0  0  0  0
   -4.0620   24.1440  -28.3000 C   0  0  0  0  0  0  0  0  0  0  0  0
   -7.3470   21.0790  -32.2480 N   0  0  0  0  0  0  0  0  0  0  0  0
   -7.1500   19.7690  -32.5060 C   0  0  0  0  0  0  0  0  0  0  0  0
   -8.4100   18.9780  -32.5040 C   0  0  0  0  0  0  0  0  0  0  0  0
   -9.4850   20.0660  -32.4890 C   0  0  0  0  0  0  0  0  0  0  0  0
   -8.7670   21.3440  -32.0090 C   0  0  1  0  0  0  0  0  0  0  0  0
   -9.0460   21.5710  -30.5170 C   0  0  0  0  0  0  0  0  0  0  0  0
   -5.9704   16.4719  -34.6735 H   0  0  0  0  0  0  0  0  0  0  0  0
   -6.5205   18.1512  -34.9963 H   0  0  0  0  0  0  0  0  0  0  0  0
   -4.7662   17.7651  -34.9963 H   0  0  0  0  0  0  0  0  0  0  0  0
   -6.4348   17.2586  -32.5118 H   0  0  0  0  0  0  0  0  0  0  0  0
   -4.6665   17.5835  -32.6665 H   0  0  0  0  0  0  0  0  0  0  0  0
   -3.8631   19.7767  -33.1750 H   0  0  0  0  0  0  0  0  0  0  0  0
   -4.2260   22.2253  -32.8664 H   0  0  0  0  0  0  0  0  0  0  0  0
   -5.7434   24.0172  -32.6548 H   0  0  0  0  0  0  0  0  0  0  0  0
   -7.5433   23.7037  -32.4838 H   0  0  0  0  0  0  0  0  0  0  0  0
   -5.9622   24.8827  -30.5810 H   0  0  0  0  0  0  0  0  0  0  0  0
   -7.5448   23.9899  -30.3070 H   0  0  0  0  0  0  0  0  0  0  0  0
   -6.3630   22.9162  -28.7272 H   0  0  0  0  0  0  0  0  0  0  0  0
   -5.7981   21.9489  -30.1644 H   0  0  0  0  0  0  0  0  0  0  0  0
   -3.5562   22.1439  -31.0254 H   0  0  0  0  0  0  0  0  0  0  0  0
   -1.2153   22.9100  -30.6566 H   0  0  0  0  0  0  0  0  0  0  0  0
   -0.1988   24.5181  -26.6410 H   0  0  0  0  0  0  0  0  0  0  0  0
    0.5889   23.1986  -27.5711 H   0  0  0  0  0  0  0  0  0  0  0  0
    1.3024   24.8471  -27.5711 H   0  0  0  0  0  0  0  0  0  0  0  0
   -2.5155   25.2234  -27.2351 H   0  0  0  0  0  0  0  0  0  0  0  0
   -4.8602   24.4756  -27.6197 H   0  0  0  0  0  0  0  0  0  0  0  0
   -8.4888   18.3539  -33.4064 H   0  0  0  0  0  0  0  0  0  0  0  0
   -8.4853   18.2760  -31.6605 H   0  0  0  0  0  0  0  0  0  0  0  0
   -9.8985   20.2126  -33.4977 H   0  0  0  0  0  0  0  0  0  0  0  0
  -10.3278   19.7996  -31.8342 H   0  0  0  0  0  0  0  0  0  0  0  0
   -9.1062   22.2501  -32.5324 H   0  0  0  0  0  0  0  0  0  0  0  0
   -8.3306   20.9889  -29.9175 H   0  0  0  0  0  0  0  0  0  0  0  0
   -8.9369   22.6401  -30.2821 H   0  0  0  0  0  0  0  0  0  0  0  0
  -10.0705   21.2467  -30.2821 H   0  0  0  0  0  0  0  0  0  0  0  0
  1  2  1  0
  2  3  1  0
  3  4  2  0
  4  5  1  0
  5  6  2  0
  6  7  1  0
  7  8  1  0
  8  9  1  0
  9 10  1  0
 10 11  2  0
 11 12  1  0
 12 13  2  0
 13 14  1  0
 14 15  1  0
 13 16  1  0
 16 17  2  0
  6 18  1  0
 18 19  2  0
 19 20  1  0
 20 21  1  0
 21 22  1  0
 22 23  1  0
 19  3  1  0
 17 10  1  0
 22 18  1  0
  1 24  1  0
  1 25  1  0
  1 26  1  0
  2 27  1  0
  2 28  1  0
  4 29  1  0
  5 30  1  0
  7 31  1  0
  7 32  1  0
  8 33  1  0
  8 34  1  0
  9 35  1  0
  9 36  1  0
 11 37  1  0
 12 38  1  0
 15 39  1  0
 15 40  1  0
 15 41  1  0
 16 42  1  0
 17 43  1  0
 20 44  1  0
 20 45  1  0
 21 46  1  0
 21 47  1  0
 22 48  1  6
 23 49  1  0
 23 50  1  0
 23 51  1  0
M  CHG  2   3   1  18   1
M  END
>  <UniqueID>  (26) 
26

>  <SMILES>  (26) 
CC[n+]1ccc(CCCc2ccc(OC)cc2)[n+]2c1CC[C@H]2C

>  <Energy>  (26) 
52.14381890702196

>  <Genealogy>  (26) 
CC[n+]1ccc(CCCc2ccc(OC)cc2)[n+]2c1CC[C@H]2C (chirality)
CC[n+]1ccc(CCCc2ccc(OC)cc2)[n+]2c1CC[C@H]2C (3D coordinates assigned)
CC[n+]1ccc(CCCc2ccc(OC)cc2)[n+]2c1CC[C@H]2C (nonaromatic ring conformer: 52.14381890702196 kcal/mol)

>  <smiles>  (26) 
CC[n+]1ccc(CCCc2ccc(OC)cc2)[n+]2c1CCC2C

>  <score_type>  (26) 
oracle

>  <origin>  (26) 
adg

>  <m_score__min__energy>  (26) 
-7.6900000000000004

>  <m_primary>  (26) 
energy

$$$$
26:0
     RDKit          3D

 83 85  0  0  0  0  0  0  0  0999 V2000
   -0.3630   19.8510  -30.3880 C   0  0  0  0  0  0  0  0  0  0  0  0
   -1.2950   21.0540  -30.2600 C   0  0  0  0  0  0  0  0  0  0  0  0
   -2.5100   20.7080  -29.4850 N   0  0  0  0  0  0  0  0  0  0  0  0
   -2.3740   20.9400  -28.0250 C   0  0  0  0  0  0  0  0  0  0  0  0
   -2.5910   19.6850  -27.1620 C   0  0  0  0  0  0  0  0  0  0  0  0
   -3.7310   21.3280  -30.0500 C   0  0  0  0  0  0  0  0  0  0  0  0
   -3.4770   21.7600  -31.5130 C   0  0  0  0  0  0  0  0  0  0  0  0
   -4.6710   21.7900  -32.3990 N   0  0  0  0  0  0  0  0  0  0  0  0
   -5.1700   20.5000  -32.8570 C   0  0  0  0  0  0  0  0  0  0  0  0
   -4.2650   19.5500  -33.4030 C   0  0  0  0  0  0  0  0  0  0  0  0
   -2.9370   19.9120  -33.7420 C   0  0  0  0  0  0  0  0  0  0  0  0
   -2.0360   18.9710  -34.2260 C   0  0  0  0  0  0  0  0  0  0  0  0
   -2.4250   17.6470  -34.3750 C   0  0  0  0  0  0  0  0  0  0  0  0
   -3.7300   17.2660  -34.0750 C   0  0  0  0  0  0  0  0  0  0  0  0
   -4.6910   18.2120  -33.6250 C   0  0  0  0  0  0  0  0  0  0  0  0
   -6.0000   17.8470  -33.3820 N   0  0  0  0  0  0  0  0  0  0  0  0
   -6.4880   16.5200  -33.8350 C   0  0  0  0  0  0  0  0  0  0  0  0
   -6.8690   18.7310  -32.7720 C   0  0  0  0  0  0  0  0  0  0  0  0
   -8.1210   18.2940  -32.2720 C   0  0  0  0  0  0  0  0  0  0  0  0
   -9.0570   19.1950  -31.7880 C   0  0  0  0  0  0  0  0  0  0  0  0
   -8.7960   20.5540  -31.8180 C   0  0  0  0  0  0  0  0  0  0  0  0
   -7.5490   21.0360  -32.2520 C   0  0  0  0  0  0  0  0  0  0  0  0
   -7.3330   22.4210  -32.3820 O   0  0  0  0  0  0  0  0  0  0  0  0
   -7.8510   23.4460  -31.5350 C   0  0  0  0  0  0  0  0  0  0  0  0
   -7.1440   23.4650  -30.1750 C   0  0  0  0  0  0  0  0  0  0  0  0
   -6.2940   24.7320  -29.9860 C   0  0  0  0  0  0  0  0  0  0  0  0
   -5.0850   24.7250  -30.8740 C   0  0  0  0  0  0  0  0  0  0  0  0
   -5.1330   24.1620  -32.0040 O   0  0  0  0  0  0  0  0  0  0  0  0
   -3.8610   25.2990  -30.4080 N   0  0  0  0  0  0  0  0  0  0  0  0
   -2.8660   24.5260  -29.6740 C   0  0  0  0  0  0  0  0  0  0  0  0
   -3.3100   24.3290  -28.2220 C   0  0  0  0  0  0  0  0  0  0  0  0
   -2.1650   24.4820  -27.2050 C   0  0  0  0  0  0  0  0  0  0  0  0
   -1.0960   25.4980  -27.6730 C   0  0  0  0  0  0  0  0  0  0  0  0
    0.2040   24.8920  -28.0380 N   0  0  0  0  0  0  0  0  0  0  0  0
    0.1350   23.4300  -28.2050 C   0  0  0  0  0  0  0  0  0  0  0  0
    1.2940   25.2730  -27.1220 C   0  0  0  0  0  0  0  0  0  0  0  0
   -6.5220   20.1070  -32.6200 C   0  0  0  0  0  0  0  0  0  0  0  0
   -0.0860   19.4935  -29.3853 H   0  0  0  0  0  0  0  0  0  0  0  0
   -0.8758   19.0465  -30.9355 H   0  0  0  0  0  0  0  0  0  0  0  0
    0.5442   20.1466  -30.9355 H   0  0  0  0  0  0  0  0  0  0  0  0
   -0.7619   21.8684  -29.7476 H   0  0  0  0  0  0  0  0  0  0  0  0
   -1.6017   21.3671  -31.2689 H   0  0  0  0  0  0  0  0  0  0  0  0
   -1.3610   21.3216  -27.8296 H   0  0  0  0  0  0  0  0  0  0  0  0
   -3.1614   21.6552  -27.7448 H   0  0  0  0  0  0  0  0  0  0  0  0
   -2.5436   19.9591  -26.0978 H   0  0  0  0  0  0  0  0  0  0  0  0
   -3.5773   19.2523  -27.3856 H   0  0  0  0  0  0  0  0  0  0  0  0
   -1.8073   18.9462  -27.3856 H   0  0  0  0  0  0  0  0  0  0  0  0
   -4.5550   20.5998  -30.0231 H   0  0  0  0  0  0  0  0  0  0  0  0
   -3.9955   22.2133  -29.4531 H   0  0  0  0  0  0  0  0  0  0  0  0
   -3.0451   22.7715  -31.4954 H   0  0  0  0  0  0  0  0  0  0  0  0
   -2.8110   20.9944  -31.9376 H   0  0  0  0  0  0  0  0  0  0  0  0
   -5.4420   22.3020  -31.9110 H   0  0  0  0  0  0  0  0  0  0  0  0
   -4.5070   22.4290  -33.2090 H   0  0  0  0  0  0  0  0  0  0  0  0
   -2.6139   20.9563  -33.6198 H   0  0  0  0  0  0  0  0  0  0  0  0
   -1.0130   19.2760  -34.4914 H   0  0  0  0  0  0  0  0  0  0  0  0
   -1.7017   16.8983  -34.7303 H   0  0  0  0  0  0  0  0  0  0  0  0
   -4.0234   16.2119  -34.1884 H   0  0  0  0  0  0  0  0  0  0  0  0
   -6.7177   15.8953  -32.9592 H   0  0  0  0  0  0  0  0  0  0  0  0
   -7.3969   16.6508  -34.4407 H   0  0  0  0  0  0  0  0  0  0  0  0
   -5.7110   16.0308  -34.4407 H   0  0  0  0  0  0  0  0  0  0  0  0
   -8.3547   17.2191  -32.2678 H   0  0  0  0  0  0  0  0  0  0  0  0
  -10.0101   18.8287  -31.3788 H   0  0  0  0  0  0  0  0  0  0  0  0
   -9.5728   21.2644  -31.4988 H   0  0  0  0  0  0  0  0  0  0  0  0
   -7.7081   24.4203  -32.0252 H   0  0  0  0  0  0  0  0  0  0  0  0
   -8.9190   23.2447  -31.3648 H   0  0  0  0  0  0  0  0  0  0  0  0
   -7.9027   23.4243  -29.3796 H   0  0  0  0  0  0  0  0  0  0  0  0
   -6.4724   22.5950  -30.1288 H   0  0  0  0  0  0  0  0  0  0  0  0
   -6.9079   25.6126  -30.2262 H   0  0  0  0  0  0  0  0  0  0  0  0
   -5.9524   24.7637  -28.9409 H   0  0  0  0  0  0  0  0  0  0  0  0
   -2.7449   23.5431  -30.1528 H   0  0  0  0  0  0  0  0  0  0  0  0
   -1.9107   25.0712  -29.6848 H   0  0  0  0  0  0  0  0  0  0  0  0
   -4.0840   25.0754  -27.9901 H   0  0  0  0  0  0  0  0  0  0  0  0
   -3.6853   23.2987  -28.1348 H   0  0  0  0  0  0  0  0  0  0  0  0
   -2.5851   24.8260  -26.2484 H   0  0  0  0  0  0  0  0  0  0  0  0
   -1.6753   23.5027  -27.0997 H   0  0  0  0  0  0  0  0  0  0  0  0
   -1.4876   26.0287  -28.5533 H   0  0  0  0  0  0  0  0  0  0  0  0
   -0.9030   26.1662  -26.8207 H   0  0  0  0  0  0  0  0  0  0  0  0
    0.1123   22.9487  -27.2162 H   0  0  0  0  0  0  0  0  0  0  0  0
   -0.7765   23.1672  -28.7618 H   0  0  0  0  0  0  0  0  0  0  0  0
    1.0177   23.0825  -28.7618 H   0  0  0  0  0  0  0  0  0  0  0  0
    0.9567   25.1551  -26.0816 H   0  0  0  0  0  0  0  0  0  0  0  0
    2.1657   24.6263  -27.3004 H   0  0  0  0  0  0  0  0  0  0  0  0
    1.5730   26.3220  -27.3004 H   0  0  0  0  0  0  0  0  0  0  0  0
  1  2  1  0
  2  3  1  0
  3  4  1  0
  4  5  1  0
  3  6  1  0
  6  7  1  0
  7  8  1  0
  8  9  1  0
  9 10  2  0
 10 11  1  0
 11 12  2  0
 12 13  1  0
 13 14  2  0
 14 15  1  0
 15 16  2  0
 16 17  1  0
 16 18  1  0
 18 19  2  0
 19 20  1  0
 20 21  2  0
 21 22  1  0
 22 23  1  0
 23 24  1  0
 24 25  1  0
 25 26  1  0
 26 27  1  0
 27 28  2  0
 27 29  1  0
 29 30  1  0
 30 31  1  0
 31 32  1  0
 32 33  1  0
 33 34  1  0
 34 35  1  0
 34 36  1  0
 22 37  2  0
 37  9  1  0
 15 10  1  0
 37 18  1  0
  1 38  1  0
  1 39  1  0
  1 40  1  0
  2 41  1  0
  2 42  1  0
  4 43  1  0
  4 44  1  0
  5 45  1  0
  5 46  1  0
  5 47  1  0
  6 48  1  0
  6 49  1  0
  7 50  1  0
  7 51  1  0
  8 52  1  0
  8 53  1  0
 11 54  1  0
 12 55  1  0
 13 56  1  0
 14 57  1  0
 17 58  1  0
 17 59  1  0
 17 60  1  0
 19 61  1  0
 20 62  1  0
 21 63  1  0
 24 64  1  0
 24 65  1  0
 25 66  1  0
 25 67  1  0
 26 68  1  0
 26 69  1  0
 30 70  1  0
 30 71  1  0
 31 72  1  0
 31 73  1  0
 32 74  1  0
 32 75  1  0
 33 76  1  0
 33 77  1  0
 35 78  1  0
 35 79  1  0
 35 80  1  0
 36 81  1  0
 36 82  1  0
 36 83  1  0
M  CHG  3   8   1  16   1  29  -1
M  END
>  <UniqueID>  (27) 
27

>  <SMILES>  (27) 
CCN(CC)CC[NH2+]c1c2ccccc2[n+](C)c2cccc(OCCCC(=O)[N-]CCCCN(C)C)c12

>  <Energy>  (27) 
116.64128060196424

>  <Genealogy>  (27) 
CCN(CC)CC[NH2+]c1c2ccccc2[n+](C)c2cccc(OCCCC(=O)[N-]CCCCN(C)C)c12 (protonated)
CCN(CC)CC[NH2+]c1c2ccccc2[n+](C)c2cccc(OCCCC(=O)[N-]CCCCN(C)C)c12 (3D coordinates assigned)
CCN(CC)CC[NH2+]c1c2ccccc2[n+](C)c2cccc(OCCCC(=O)[N-]CCCCN(C)C)c12 (optimized conformer: 116.64128060196424 kcal/mol)

>  <smiles>  (27) 
CCN(CC)CCNc1c2ccccc2[n+](C)c2cccc(OCCCC(=O)NCCCCN(C)C)c12

>  <score_type>  (27) 
oracle

>  <origin>  (27) 
adg

>  <m_score__min__energy>  (27) 
-10.32

>  <m_primary>  (27) 
energy

$$$$
27:0
     RDKit          3D

 76 79  0  0  0  0  0  0  0  0999 V2000
    1.0570   18.9540  -30.9580 C   0  0  0  0  0  0  0  0  0  0  0  0
   -0.4650   18.8370  -30.9900 C   0  0  0  0  0  0  0  0  0  0  0  0
   -1.0500   19.9450  -31.7740 N   0  0  0  0  0  0  0  0  0  0  0  0
   -0.1760   21.1300  -31.7120 C   0  0  0  0  0  0  0  0  0  0  0  0
   -1.2910   19.5500  -33.1800 C   0  0  0  0  0  0  0  0  0  0  0  0
   -1.7790   20.7580  -33.9900 C   0  0  0  0  0  0  0  0  0  0  0  0
   -3.1160   21.2940  -33.4290 C   0  0  0  0  0  0  0  0  0  0  0  0
   -3.4900   20.8110  -32.0730 N   0  0  0  0  0  0  0  0  0  0  0  0
   -4.8760   21.0310  -31.6740 C   0  0  0  0  0  0  0  0  0  0  0  0
   -5.8600   20.0520  -31.9810 C   0  0  0  0  0  0  0  0  0  0  0  0
   -5.5000   18.7740  -32.4790 C   0  0  0  0  0  0  0  0  0  0  0  0
   -6.4660   17.8350  -32.8230 C   0  0  0  0  0  0  0  0  0  0  0  0
   -7.8120   18.1430  -32.6930 C   0  0  0  0  0  0  0  0  0  0  0  0
   -8.1980   19.3820  -32.1900 C   0  0  0  0  0  0  0  0  0  0  0  0
   -7.2370   20.3460  -31.7850 C   0  0  0  0  0  0  0  0  0  0  0  0
   -7.6210   21.5540  -31.2440 N   0  0  0  0  0  0  0  0  0  0  0  0
   -9.0230   21.7530  -30.8060 C   0  0  0  0  0  0  0  0  0  0  0  0
   -6.6930   22.5590  -31.0560 C   0  0  0  0  0  0  0  0  0  0  0  0
   -7.1060   23.8900  -30.8040 C   0  0  0  0  0  0  0  0  0  0  0  0
   -6.1870   24.8810  -30.4920 C   0  0  0  0  0  0  0  0  0  0  0  0
   -4.8440   24.5680  -30.3700 C   0  0  0  0  0  0  0  0  0  0  0  0
   -4.3830   23.2680  -30.6400 C   0  0  0  0  0  0  0  0  0  0  0  0
   -3.0460   22.9320  -30.3690 O   0  0  0  0  0  0  0  0  0  0  0  0
   -2.2980   23.3670  -29.2350 C   0  0  0  0  0  0  0  0  0  0  0  0
   -1.1310   22.3880  -28.9980 C   0  0  0  0  0  0  0  0  0  0  0  0
   -1.3090   21.4510  -27.8410 N   0  0  0  0  0  0  0  0  0  0  0  0
   -0.7220   22.0700  -26.6200 C   0  0  0  0  0  0  0  0  0  0  0  0
   -0.5410   20.2100  -28.1720 C   0  0  0  0  0  0  0  0  0  0  0  0
   -0.6700   19.0910  -27.1150 C   0  0  0  0  0  0  0  0  0  0  0  0
   -2.0700   19.0070  -26.4900 C   0  0  0  0  0  0  0  0  0  0  0  0
   -3.1130   19.6690  -27.3810 C   0  0  0  0  0  0  0  0  0  0  0  0
   -2.7730   21.1530  -27.6360 C   0  0  0  0  0  0  0  0  0  0  0  0
   -5.2970   22.2800  -31.1250 C   0  0  0  0  0  0  0  0  0  0  0  0
    1.4008   18.9804  -29.9135 H   0  0  0  0  0  0  0  0  0  0  0  0
    1.5022   18.0874  -31.4687 H   0  0  0  0  0  0  0  0  0  0  0  0
    1.3645   19.8784  -31.4687 H   0  0  0  0  0  0  0  0  0  0  0  0
   -0.7453   17.8787  -31.4516 H   0  0  0  0  0  0  0  0  0  0  0  0
   -0.8487   18.8867  -29.9603 H   0  0  0  0  0  0  0  0  0  0  0  0
    0.0155   21.3897  -30.6604 H   0  0  0  0  0  0  0  0  0  0  0  0
    0.7772   20.9093  -32.2147 H   0  0  0  0  0  0  0  0  0  0  0  0
   -0.6684   21.9755  -32.2147 H   0  0  0  0  0  0  0  0  0  0  0  0
   -0.3550   19.1725  -33.6175 H   0  0  0  0  0  0  0  0  0  0  0  0
   -2.0600   18.7639  -33.2067 H   0  0  0  0  0  0  0  0  0  0  0  0
   -1.0222   21.5547  -33.9401 H   0  0  0  0  0  0  0  0  0  0  0  0
   -1.9362   20.4424  -35.0320 H   0  0  0  0  0  0  0  0  0  0  0  0
   -3.0497   22.3913  -33.3898 H   0  0  0  0  0  0  0  0  0  0  0  0
   -3.8964   20.9163  -34.1060 H   0  0  0  0  0  0  0  0  0  0  0  0
   -2.8580   21.2610  -31.3720 H   0  0  0  0  0  0  0  0  0  0  0  0
   -3.2200   19.8110  -31.9570 H   0  0  0  0  0  0  0  0  0  0  0  0
   -4.4359   18.5206  -32.5954 H   0  0  0  0  0  0  0  0  0  0  0  0
   -6.1623   16.8467  -33.1987 H   0  0  0  0  0  0  0  0  0  0  0  0
   -8.5751   17.4075  -32.9877 H   0  0  0  0  0  0  0  0  0  0  0  0
   -9.2687   19.6193  -32.1045 H   0  0  0  0  0  0  0  0  0  0  0  0
   -9.0664   21.7592  -29.7069 H   0  0  0  0  0  0  0  0  0  0  0  0
   -9.3953   22.7130  -31.1930 H   0  0  0  0  0  0  0  0  0  0  0  0
   -9.6477   20.9345  -31.1930 H   0  0  0  0  0  0  0  0  0  0  0  0
   -8.1753   24.1426  -30.8567 H   0  0  0  0  0  0  0  0  0  0  0  0
   -6.5257   25.9167  -30.3414 H   0  0  0  0  0  0  0  0  0  0  0  0
   -4.1302   25.3448  -30.0585 H   0  0  0  0  0  0  0  0  0  0  0  0
   -1.9011   24.3761  -29.4200 H   0  0  0  0  0  0  0  0  0  0  0  0
   -2.9482   23.3918  -28.3481 H   0  0  0  0  0  0  0  0  0  0  0  0
   -1.0031   21.7841  -29.9085 H   0  0  0  0  0  0  0  0  0  0  0  0
   -0.2558   23.0090  -28.7562 H   0  0  0  0  0  0  0  0  0  0  0  0
   -1.1625   21.6055  -25.7255 H   0  0  0  0  0  0  0  0  0  0  0  0
    0.3667   21.9128  -26.6164 H   0  0  0  0  0  0  0  0  0  0  0  0
   -0.9367   23.1488  -26.6164 H   0  0  0  0  0  0  0  0  0  0  0  0
   -0.9085   19.8218  -29.1334 H   0  0  0  0  0  0  0  0  0  0  0  0
    0.5213   20.4931  -28.2079 H   0  0  0  0  0  0  0  0  0  0  0  0
   -0.4437   18.1280  -27.5961 H   0  0  0  0  0  0  0  0  0  0  0  0
    0.0361   19.3243  -26.3045 H   0  0  0  0  0  0  0  0  0  0  0  0
   -2.3373   17.9492  -26.3501 H   0  0  0  0  0  0  0  0  0  0  0  0
   -2.0521   19.5342  -25.5247 H   0  0  0  0  0  0  0  0  0  0  0  0
   -3.1495   19.1392  -28.3443 H   0  0  0  0  0  0  0  0  0  0  0  0
   -4.0867   19.6186  -26.8718 H   0  0  0  0  0  0  0  0  0  0  0  0
   -3.3153   21.4763  -28.5368 H   0  0  0  0  0  0  0  0  0  0  0  0
   -3.0699   21.6946  -26.7258 H   0  0  0  0  0  0  0  0  0  0  0  0
  1  2  1  0
  2  3  1  0
  3  4  1  0
  3  5  1  0
  5  6  1  0
  6  7  1  0
  7  8  1  0
  8  9  1  0
  9 10  2  0
 10 11  1  0
 11 12  2  0
 12 13  1  0
 13 14  2  0
 14 15  1  0
 15 16  2  0
 16 17  1  0
 16 18  1  0
 18 19  2  0
 19 20  1  0
 20 21  2  0
 21 22  1  0
 22 23  1  0
 23 24  1  0
 24 25  1  0
 25 26  1  0
 26 27  1  0
 26 28  1  0
 28 29  1  0
 29 30  1  0
 30 31  1  0
 31 32  1  0
 22 33  2  0
 33  9  1  0
 15 10  1  0
 33 18  1  0
 32 26  1  0
  1 34  1  0
  1 35  1  0
  1 36  1  0
  2 37  1  0
  2 38  1  0
  4 39  1  0
  4 40  1  0
  4 41  1  0
  5 42  1  0
  5 43  1  0
  6 44  1  0
  6 45  1  0
  7 46  1  0
  7 47  1  0
  8 48  1  0
  8 49  1  0
 11 50  1  0
 12 51  1  0
 13 52  1  0
 14 53  1  0
 17 54  1  0
 17 55  1  0
 17 56  1  0
 19 57  1  0
 20 58  1  0
 21 59  1  0
 24 60  1  0
 24 61  1  0
 25 62  1  0
 25 63  1  0
 27 64  1  0
 27 65  1  0
 27 66  1  0
 28 67  1  0
 28 68  1  0
 29 69  1  0
 29 70  1  0
 30 71  1  0
 30 72  1  0
 31 73  1  0
 31 74  1  0
 32 75  1  0
 32 76  1  0
M  CHG  3   8   1  16   1  26   1
M  END
>  <UniqueID>  (28) 
28

>  <SMILES>  (28) 
CCN(C)CCC[NH2+]c1c2ccccc2[n+](C)c2cccc(OCC[N+]3(C)CCCCC3)c12

>  <Energy>  (28) 
127.35511229075364

>  <Genealogy>  (28) 
CCN(C)CCC[NH2+]c1c2ccccc2[n+](C)c2cccc(OCC[N+]3(C)CCCCC3)c12 (protonated)
CCN(C)CCC[NH2+]c1c2ccccc2[n+](C)c2cccc(OCC[N+]3(C)CCCCC3)c12 (3D coordinates assigned)
CCN(C)CCC[NH2+]c1c2ccccc2[n+](C)c2cccc(OCC[N+]3(C)CCCCC3)c12 (nonaromatic ring conformer: 127.35511229075364 kcal/mol)

>  <smiles>  (28) 
CCN(C)CCCNc1c2ccccc2[n+](C)c2cccc(OCC[N+]3(C)CCCCC3)c12

>  <score_type>  (28) 
oracle

>  <origin>  (28) 
adg

>  <m_score__min__energy>  (28) 
-7.9299999999999997

>  <m_primary>  (28) 
energy

$$$$
28:0
     RDKit          3D

 68 71  0  0  0  0  0  0  0  0999 V2000
   -4.8400   20.8360  -32.9010 C   0  0  0  0  0  0  0  0  0  0  0  0
   -6.0080   20.3980  -32.0290 C   0  0  0  0  0  0  0  0  0  0  0  0
   -7.2460   21.0980  -32.4660 N   0  0  0  0  0  0  0  0  0  0  0  0
   -8.4280   20.6640  -31.6880 C   0  0  0  0  0  0  0  0  0  0  0  0
   -8.7320   19.1830  -31.9200 C   0  0  0  0  0  0  0  0  0  0  0  0
   -7.0950   22.5710  -32.4010 C   0  0  0  0  0  0  0  0  0  0  0  0
   -7.8220   23.1560  -31.1860 C   0  0  0  0  0  0  0  0  0  0  0  0
   -6.6710   23.6780  -29.9270 S   0  0  0  0  0  0  0  0  0  0  0  0
   -7.0820   25.2120  -29.3820 O   0  0  0  0  0  0  0  0  0  0  0  0
   -4.9800   23.6770  -30.5060 C   0  0  0  0  0  0  0  0  0  0  0  0
   -4.0920   22.6640  -29.7480 C   0  0  1  0  0  0  0  0  0  0  0  0
   -2.6700   22.7220  -30.2590 C   0  0  0  0  0  0  0  0  0  0  0  0
   -2.4420   22.4740  -31.4350 O   0  0  0  0  0  0  0  0  0  0  0  0
   -1.5280   23.1050  -29.3520 C   0  0  0  0  0  0  0  0  0  0  0  0
   -1.6340   22.5140  -27.8920 C   0  0  2  0  0  0  0  0  0  0  0  0
   -0.5030   21.4320  -27.7130 C   0  0  0  0  0  0  0  0  0  0  0  0
   -0.8600   20.3720  -26.6630 C   0  0  0  0  0  0  0  0  0  0  0  0
   -2.0960   19.5550  -27.1030 C   0  0  0  0  0  0  0  0  0  0  0  0
   -3.0820   20.3650  -27.9750 C   0  0  0  0  0  0  0  0  0  0  0  0
   -3.0280   21.8580  -27.5890 C   0  0  2  0  0  0  0  0  0  0  0  0
   -4.1340   22.7470  -28.1890 C   0  0  1  0  0  0  0  0  0  0  0  0
   -4.0230   24.1970  -27.5950 C   0  0  0  0  0  0  0  0  0  0  0  0
   -2.7480   24.5120  -26.8170 C   0  0  0  0  0  0  0  0  0  0  0  0
   -2.7340   25.6490  -25.9970 C   0  0  0  0  0  0  0  0  0  0  0  0
   -1.5900   25.9980  -25.2820 C   0  0  0  0  0  0  0  0  0  0  0  0
   -0.4250   25.2220  -25.3860 C   0  0  0  0  0  0  0  0  0  0  0  0
    0.7510   25.5390  -24.6900 O   0  0  0  0  0  0  0  0  0  0  0  0
    0.8560   26.5710  -23.7140 C   0  0  0  0  0  0  0  0  0  0  0  0
   -0.4230   24.0920  -26.2120 C   0  0  0  0  0  0  0  0  0  0  0  0
   -1.5780   23.7090  -26.9290 C   0  0  0  0  0  0  0  0  0  0  0  0
   -4.0023   21.1502  -32.2611 H   0  0  0  0  0  0  0  0  0  0  0  0
   -4.5214   19.9962  -33.5361 H   0  0  0  0  0  0  0  0  0  0  0  0
   -5.1521   21.6782  -33.5361 H   0  0  0  0  0  0  0  0  0  0  0  0
   -6.1488   19.3112  -32.1242 H   0  0  0  0  0  0  0  0  0  0  0  0
   -5.7959   20.6509  -30.9797 H   0  0  0  0  0  0  0  0  0  0  0  0
   -8.2321   20.8263  -30.6178 H   0  0  0  0  0  0  0  0  0  0  0  0
   -9.2965   21.2529  -32.0180 H   0  0  0  0  0  0  0  0  0  0  0  0
   -8.8365   18.6739  -30.9505 H   0  0  0  0  0  0  0  0  0  0  0  0
   -9.6689   19.0856  -32.4882 H   0  0  0  0  0  0  0  0  0  0  0  0
   -7.9093   18.7244  -32.4882 H   0  0  0  0  0  0  0  0  0  0  0  0
   -6.0254   22.8181  -32.3308 H   0  0  0  0  0  0  0  0  0  0  0  0
   -7.5377   23.0041  -33.3101 H   0  0  0  0  0  0  0  0  0  0  0  0
   -8.4171   24.0231  -31.5085 H   0  0  0  0  0  0  0  0  0  0  0  0
   -8.4690   22.3746  -30.7607 H   0  0  0  0  0  0  0  0  0  0  0  0
   -6.7770   25.2280  -28.4400 H   0  0  0  0  0  0  0  0  0  0  0  0
   -4.9741   23.4194  -31.5754 H   0  0  0  0  0  0  0  0  0  0  0  0
   -4.5666   24.6807  -30.3278 H   0  0  0  0  0  0  0  0  0  0  0  0
   -4.5372   21.6832  -29.9711 H   0  0  0  0  0  0  0  0  0  0  0  0
   -0.5926   22.7428  -29.8035 H   0  0  0  0  0  0  0  0  0  0  0  0
   -1.5575   24.2001  -29.2523 H   0  0  0  0  0  0  0  0  0  0  0  0
   -0.3396   20.9304  -28.6783 H   0  0  0  0  0  0  0  0  0  0  0  0
    0.4026   21.9515  -27.3667 H   0  0  0  0  0  0  0  0  0  0  0  0
   -0.0057   19.6913  -26.5334 H   0  0  0  0  0  0  0  0  0  0  0  0
   -1.0933   20.8800  -25.7156 H   0  0  0  0  0  0  0  0  0  0  0  0
   -1.7521   18.6844  -27.6808 H   0  0  0  0  0  0  0  0  0  0  0  0
   -2.6339   19.2587  -26.1904 H   0  0  0  0  0  0  0  0  0  0  0  0
   -2.8075   20.2529  -29.0343 H   0  0  0  0  0  0  0  0  0  0  0  0
   -4.1020   19.9873  -27.8107 H   0  0  0  0  0  0  0  0  0  0  0  0
   -3.2039   21.8225  -26.5037 H   0  0  0  0  0  0  0  0  0  0  0  0
   -5.1344   22.3877  -27.9060 H   0  0  0  0  0  0  0  0  0  0  0  0
   -4.0898   24.9082  -28.4315 H   0  0  0  0  0  0  0  0  0  0  0  0
   -4.8410   24.2786  -26.8641 H   0  0  0  0  0  0  0  0  0  0  0  0
   -3.6365   26.2728  -25.9171 H   0  0  0  0  0  0  0  0  0  0  0  0
   -1.6000   26.8860  -24.6329 H   0  0  0  0  0  0  0  0  0  0  0  0
    0.8111   26.1297  -22.7074 H   0  0  0  0  0  0  0  0  0  0  0  0
    1.8125   27.0993  -23.8404 H   0  0  0  0  0  0  0  0  0  0  0  0
    0.0255   27.2811  -23.8404 H   0  0  0  0  0  0  0  0  0  0  0  0
    0.4942   23.4918  -26.3043 H   0  0  0  0  0  0  0  0  0  0  0  0
  1  2  1  0
  2  3  1  0
  3  4  1  0
  4  5  1  0
  3  6  1  0
  6  7  1  0
  7  8  1  0
  8  9  1  6
  8 10  1  0
 10 11  1  0
 11 12  1  0
 12 13  2  0
 12 14  1  0
 15 14  1  6
 15 16  1  0
 16 17  1  0
 17 18  1  0
 18 19  1  0
 19 20  1  0
 20 21  1  0
 21 22  1  0
 22 23  1  0
 23 24  2  0
 24 25  1  0
 25 26  2  0
 26 27  1  0
 27 28  1  0
 26 29  1  0
 29 30  2  0
 21 11  1  0
 30 23  1  0
 20 15  1  0
 30 15  1  0
  1 31  1  0
  1 32  1  0
  1 33  1  0
  2 34  1  0
  2 35  1  0
  4 36  1  0
  4 37  1  0
  5 38  1  0
  5 39  1  0
  5 40  1  0
  6 41  1  0
  6 42  1  0
  7 43  1  0
  7 44  1  0
  9 45  1  0
 10 46  1  0
 10 47  1  0
 11 48  1  1
 14 49  1  0
 14 50  1  0
 16 51  1  0
 16 52  1  0
 17 53  1  0
 17 54  1  0
 18 55  1  0
 18 56  1  0
 19 57  1  0
 19 58  1  0
 20 59  1  1
 21 60  1  1
 22 61  1  0
 22 62  1  0
 24 63  1  0
 25 64  1  0
 28 65  1  0
 28 66  1  0
 28 67  1  0
 29 68  1  0
M  CHG  1   8   1
M  END
>  <UniqueID>  (29) 
29

>  <SMILES>  (29) 
CCN(CC)CC[S@+](O)C[C@H]1C(=O)CC23CCCCC2C1Cc1ccc(OC)cc13

>  <Energy>  (29) 
90.79550100478988

>  <Genealogy>  (29) 
CCN(CC)CC[S+](O)CC1C(=O)CC23CCCCC2C1Cc1ccc(OC)cc13 (protonated)
CCN(CC)CC[S@+](O)C[C@H]1C(=O)CC23CCCCC2C1Cc1ccc(OC)cc13 (chirality)
CCN(CC)CC[S@+](O)C[C@H]1C(=O)CC23CCCCC2C1Cc1ccc(OC)cc13 (3D coordinates assigned)
CCN(CC)CC[S@+](O)C[C@H]1C(=O)CC23CCCCC2C1Cc1ccc(OC)cc13 (nonaromatic ring conformer: 90.79550100478988 kcal/mol)

>  <smiles>  (29) 
CCN(CC)CC[S+]([O-])CC1C(=O)CC23CCCCC2C1Cc1ccc(OC)cc13

>  <score_type>  (29) 
oracle

>  <origin>  (29) 
adg

>  <m_score__min__energy>  (29) 
-8.5700000000000003

>  <m_primary>  (29) 
energy

$$$$
29:0
     RDKit          3D

 65 68  0  0  0  0  0  0  0  0999 V2000
   -6.8640   24.5960  -29.9100 C   0  0  0  0  0  0  0  0  0  0  0  0
   -5.6830   25.5130  -30.2190 C   0  0  0  0  0  0  0  0  0  0  0  0
   -4.7870   24.9060  -31.2130 N   0  0  0  0  0  0  0  0  0  0  0  0
   -3.8990   23.8790  -30.6410 C   0  0  0  0  0  0  0  0  0  0  0  0
   -3.7770   22.6650  -31.5870 C   0  0  0  0  0  0  0  0  0  0  0  0
   -4.8450   22.5040  -32.6090 N   0  0  0  0  0  0  0  0  0  0  0  0
   -5.4500   21.1880  -32.6990 C   0  0  0  0  0  0  0  0  0  0  0  0
   -6.8390   20.9910  -32.4460 C   0  0  0  0  0  0  0  0  0  0  0  0
   -7.6530   22.0420  -31.9650 C   0  0  0  0  0  0  0  0  0  0  0  0
   -9.0200   21.8600  -31.7670 C   0  0  0  0  0  0  0  0  0  0  0  0
   -9.6110   20.6380  -32.0520 C   0  0  0  0  0  0  0  0  0  0  0  0
   -8.8380   19.5740  -32.5100 C   0  0  0  0  0  0  0  0  0  0  0  0
   -7.4370   19.7070  -32.6890 C   0  0  0  0  0  0  0  0  0  0  0  0
   -6.6620   18.6380  -33.1050 N   0  0  0  0  0  0  0  0  0  0  0  0
   -7.2360   17.2840  -33.2460 C   0  0  0  0  0  0  0  0  0  0  0  0
   -5.3390   18.8560  -33.3800 C   0  0  0  0  0  0  0  0  0  0  0  0
   -4.4740   17.9450  -33.8900 N   0  0  0  0  0  0  0  0  0  0  0  0
   -3.2840   18.5700  -33.9430 C   0  0  0  0  0  0  0  0  0  0  0  0
   -2.0770   18.0060  -34.3640 C   0  0  0  0  0  0  0  0  0  0  0  0
   -2.0630   16.6850  -34.8340 O   0  0  0  0  0  0  0  0  0  0  0  0
   -1.5090   15.5820  -34.1210 C   0  0  0  0  0  0  0  0  0  0  0  0
   -2.4470   15.1640  -32.9730 C   0  0  0  0  0  0  0  0  0  0  0  0
   -3.7130   14.5010  -33.4010 N   0  0  0  0  0  0  0  0  0  0  0  0
   -4.6010   14.1890  -32.2510 C   0  0  0  0  0  0  0  0  0  0  0  0
   -3.3760   13.2350  -34.0820 C   0  0  0  0  0  0  0  0  0  0  0  0
   -4.3670   15.2720  -34.3240 O   0  0  0  0  0  0  0  0  0  0  0  0
   -0.9170   18.8050  -34.2850 C   0  0  0  0  0  0  0  0  0  0  0  0
   -0.9890   20.1160  -33.7790 C   0  0  0  0  0  0  0  0  0  0  0  0
   -2.2170   20.6580  -33.3640 C   0  0  0  0  0  0  0  0  0  0  0  0
   -3.3710   19.8700  -33.4820 C   0  0  0  0  0  0  0  0  0  0  0  0
   -4.7170   20.0710  -33.1490 C   0  0  0  0  0  0  0  0  0  0  0  0
   -6.9818   24.5045  -28.8202 H   0  0  0  0  0  0  0  0  0  0  0  0
   -7.7813   25.0208  -30.3436 H   0  0  0  0  0  0  0  0  0  0  0  0
   -6.6797   23.6020  -30.3436 H   0  0  0  0  0  0  0  0  0  0  0  0
   -6.0627   26.4672  -30.6131 H   0  0  0  0  0  0  0  0  0  0  0  0
   -5.1155   25.6760  -29.2909 H   0  0  0  0  0  0  0  0  0  0  0  0
   -4.1860   25.6750  -31.5950 H   0  0  0  0  0  0  0  0  0  0  0  0
   -2.9010   24.3138  -30.4829 H   0  0  0  0  0  0  0  0  0  0  0  0
   -4.3261   23.5382  -29.6863 H   0  0  0  0  0  0  0  0  0  0  0  0
   -2.8177   22.7517  -32.1183 H   0  0  0  0  0  0  0  0  0  0  0  0
   -3.8642   21.7822  -30.9366 H   0  0  0  0  0  0  0  0  0  0  0  0
   -5.5950   23.2090  -32.4240 H   0  0  0  0  0  0  0  0  0  0  0  0
   -4.5040   22.8110  -33.5410 H   0  0  0  0  0  0  0  0  0  0  0  0
   -7.1997   23.0194  -31.7434 H   0  0  0  0  0  0  0  0  0  0  0  0
   -9.6330   22.6887  -31.3831 H   0  0  0  0  0  0  0  0  0  0  0  0
  -10.6948   20.5088  -31.9157 H   0  0  0  0  0  0  0  0  0  0  0  0
   -9.3226   18.6129  -32.7371 H   0  0  0  0  0  0  0  0  0  0  0  0
   -7.4171   16.8568  -32.2486 H   0  0  0  0  0  0  0  0  0  0  0  0
   -8.1861   17.3441  -33.7972 H   0  0  0  0  0  0  0  0  0  0  0  0
   -6.5322   16.6430  -33.7972 H   0  0  0  0  0  0  0  0  0  0  0  0
   -4.6570   16.9680  -34.2020 H   0  0  0  0  0  0  0  0  0  0  0  0
   -1.3771   14.7341  -34.8092 H   0  0  0  0  0  0  0  0  0  0  0  0
   -0.5373   15.8792  -33.6997 H   0  0  0  0  0  0  0  0  0  0  0  0
   -1.8996   14.4660  -32.3225 H   0  0  0  0  0  0  0  0  0  0  0  0
   -2.7440   16.0937  -32.4655 H   0  0  0  0  0  0  0  0  0  0  0  0
   -4.0629   14.3781  -31.3104 H   0  0  0  0  0  0  0  0  0  0  0  0
   -5.4964   14.8264  -32.2957 H   0  0  0  0  0  0  0  0  0  0  0  0
   -4.9010   13.1316  -32.2957 H   0  0  0  0  0  0  0  0  0  0  0  0
   -3.1693   12.4584  -33.3309 H   0  0  0  0  0  0  0  0  0  0  0  0
   -4.2218   12.9207  -34.7112 H   0  0  0  0  0  0  0  0  0  0  0  0
   -2.4859   13.3828  -34.7112 H   0  0  0  0  0  0  0  0  0  0  0  0
   -3.7710   15.4120  -35.1080 H   0  0  0  0  0  0  0  0  0  0  0  0
    0.0493   18.4008  -34.6209 H   0  0  0  0  0  0  0  0  0  0  0  0
   -0.0743   20.7228  -33.7076 H   0  0  0  0  0  0  0  0  0  0  0  0
   -2.2720   21.6779  -32.9556 H   0  0  0  0  0  0  0  0  0  0  0  0
  1  2  1  0
  2  3  1  0
  3  4  1  0
  4  5  1  0
  5  6  1  0
  6  7  1  0
  7  8  2  0
  8  9  1  0
  9 10  2  0
 10 11  1  0
 11 12  2  0
 12 13  1  0
 13 14  2  0
 14 15  1  0
 14 16  1  0
 16 17  1  0
 17 18  1  0
 18 19  2  0
 19 20  1  0
 20 21  1  0
 21 22  1  0
 22 23  1  0
 23 24  1  0
 23 25  1  0
 23 26  1  0
 19 27  1  0
 27 28  2  0
 28 29  1  0
 29 30  2  0
 30 31  1  0
 31  7  1  0
 13  8  1  0
 31 16  2  0
 30 18  1  0
  1 32  1  0
  1 33  1  0
  1 34  1  0
  2 35  1  0
  2 36  1  0
  3 37  1  0
  4 38  1  0
  4 39  1  0
  5 40  1  0
  5 41  1  0
  6 42  1  0
  6 43  1  0
  9 44  1  0
 10 45  1  0
 11 46  1  0
 12 47  1  0
 15 48  1  0
 15 49  1  0
 15 50  1  0
 17 51  1  0
 21 52  1  0
 21 53  1  0
 22 54  1  0
 22 55  1  0
 24 56  1  0
 24 57  1  0
 24 58  1  0
 25 59  1  0
 25 60  1  0
 25 61  1  0
 26 62  1  0
 27 63  1  0
 28 64  1  0
 29 65  1  0
M  CHG  3   6   1  14   1  23   1
M  END
>  <UniqueID>  (30) 
30

>  <SMILES>  (30) 
CCNCC[NH2+]c1c2ccccc2[n+](C)c2[nH]c3c(OCC[N+](C)(C)O)cccc3c12

>  <Energy>  (30) 
135.91500371004398

>  <Genealogy>  (30) 
CCNCC[NH2+]c1c2ccccc2[n+](C)c2[nH]c3c(OCC[N+](C)(C)O)cccc3c12 (protonated)
CCNCC[NH2+]c1c2ccccc2[n+](C)c2[nH]c3c(OCC[N+](C)(C)O)cccc3c12 (3D coordinates assigned)
CCNCC[NH2+]c1c2ccccc2[n+](C)c2[nH]c3c(OCC[N+](C)(C)O)cccc3c12 (optimized conformer: 135.91500371004398 kcal/mol)

>  <smiles>  (30) 
CCNCCNc1c2ccccc2[n+](C)c2[nH]c3c(OCC[N+](C)(C)[O-])cccc3c12

>  <score_type>  (30) 
oracle

>  <origin>  (30) 
adg

>  <m_score__min__energy>  (30) 
-7.3899999999999997

>  <m_primary>  (30) 
energy

$$$$
