0:0
     RDKit          3D

 36 38  0  0  0  0  0  0  0  0999 V2000
   -5.2350   25.6700  -30.5740 C   0  0  0  0  0  0  0  0  0  0  0  0
   -3.8640   25.2980  -30.4830 O   0  0  0  0  0  0  0  0  0  0  0  0
   -3.3800   24.2110  -29.7370 C   0  0  0  0  0  0  0  0  0  0  0  0
   -2.6880   24.3920  -28.5230 C   0  0  0  0  0  0  0  0  0  0  0  0
   -2.2400   23.2880  -27.7930 C   0  0  0  0  0  0  0  0  0  0  0  0
   -2.4710   21.9970  -28.2660 C   0  0  0  0  0  0  0  0  0  0  0  0
   -3.1520   21.8030  -29.4690 C   0  0  0  0  0  0  0  0  0  0  0  0
   -3.6140   22.9040  -30.2120 C   0  0  0  0  0  0  0  0  0  0  0  0
   -4.3310   22.7060  -31.4430 N   0  0  0  0  0  0  0  0  0  0  0  0
   -4.1720   21.2600  -32.3870 S   0  0  0  0  0  0  0  0  0  0  0  0
   -3.8420   21.6250  -33.8080 O   0  0  0  0  0  0  0  0  0  0  0  0
   -3.0550   20.4270  -31.8240 O   0  0  0  0  0  0  0  0  0  0  0  0
   -5.6960   20.3640  -32.3740 C   0  0  0  0  0  0  0  0  0  0  0  0
   -5.6820   18.9650  -32.4830 C   0  0  0  0  0  0  0  0  0  0  0  0
   -6.8750   18.2390  -32.4410 C   0  0  0  0  0  0  0  0  0  0  0  0
   -8.0980   18.8980  -32.2870 C   0  0  0  0  0  0  0  0  0  0  0  0
   -8.1310   20.2950  -32.1800 C   0  0  0  0  0  0  0  0  0  0  0  0
   -9.3440   20.9780  -32.0180 C   0  0  0  0  0  0  0  0  0  0  0  0
   -9.3480   22.3690  -31.9100 C   0  0  0  0  0  0  0  0  0  0  0  0
   -8.1400   23.0660  -31.9680 C   0  0  0  0  0  0  0  0  0  0  0  0
   -6.9700   22.3920  -32.1260 N   0  0  0  0  0  0  0  0  0  0  0  0
   -6.9270   21.0350  -32.2290 C   0  0  0  0  0  0  0  0  0  0  0  0
   -5.6521   25.7832  -29.5625 H   0  0  0  0  0  0  0  0  0  0  0  0
   -5.3210   26.6239  -31.1149 H   0  0  0  0  0  0  0  0  0  0  0  0
   -5.7914   24.8903  -31.1149 H   0  0  0  0  0  0  0  0  0  0  0  0
   -2.4993   25.4086  -28.1477 H   0  0  0  0  0  0  0  0  0  0  0  0
   -1.7044   23.4377  -26.8439 H   0  0  0  0  0  0  0  0  0  0  0  0
   -2.1159   21.1296  -27.6901 H   0  0  0  0  0  0  0  0  0  0  0  0
   -3.3285   20.7820  -29.8383 H   0  0  0  0  0  0  0  0  0  0  0  0
   -5.1170   23.3470  -31.6890 H   0  0  0  0  0  0  0  0  0  0  0  0
   -4.7249   18.4362  -32.6024 H   0  0  0  0  0  0  0  0  0  0  0  0
   -6.8517   17.1428  -32.5296 H   0  0  0  0  0  0  0  0  0  0  0  0
   -9.0336   18.3207  -32.2498 H   0  0  0  0  0  0  0  0  0  0  0  0
  -10.2904   20.4189  -31.9761 H   0  0  0  0  0  0  0  0  0  0  0  0
  -10.2957   22.9122  -31.7802 H   0  0  0  0  0  0  0  0  0  0  0  0
   -8.1347   24.1629  -31.8857 H   0  0  0  0  0  0  0  0  0  0  0  0
  1  2  1  0
  2  3  1  0
  3  4  2  0
  4  5  1  0
  5  6  2  0
  6  7  1  0
  7  8  2  0
  8  9  1  0
  9 10  1  0
 10 11  2  0
 10 12  2  0
 10 13  1  0
 13 14  2  0
 14 15  1  0
 15 16  2  0
 16 17  1  0
 17 18  2  0
 18 19  1  0
 19 20  2  0
 20 21  1  0
 21 22  2  0
  8  3  1  0
 22 13  1  0
 22 17  1  0
  1 23  1  0
  1 24  1  0
  1 25  1  0
  4 26  1  0
  5 27  1  0
  6 28  1  0
  7 29  1  0
  9 30  1  0
 14 31  1  0
 15 32  1  0
 16 33  1  0
 18 34  1  0
 19 35  1  0
 20 36  1  0
M  END
>  <UniqueID>  (1) 
1

>  <SMILES>  (1) 
COc1ccccc1NS(=O)(=O)c1cccc2cccnc12

>  <Energy>  (1) 
44.7626652075934

>  <Genealogy>  (1) 
COc1ccccc1NS(=O)(=O)c1cccc2cccnc12 (3D coordinates assigned)
COc1ccccc1NS(=O)(=O)c1cccc2cccnc12 (optimized conformer: 44.7626652075934 kcal/mol)

>  <smiles>  (1) 
COc1ccccc1NS(=O)(=O)c1cccc2cccnc12

>  <score_type>  (1) 
oracle

>  <origin>  (1) 
adg

>  <m_score__min__energy>  (1) 
-9.0899999999999999

>  <m_primary>  (1) 
energy

$$$$
1:0
     RDKit          3D

 54 57  0  0  0  0  0  0  0  0999 V2000
   -6.3130   24.8480  -30.1140 C   0  0  0  0  0  0  0  0  0  0  0  0
   -4.9040   25.3220  -30.4670 C   0  0  0  0  0  0  0  0  0  0  0  0
   -3.9980   24.1610  -30.6420 N   0  0  0  0  0  0  0  0  0  0  0  0
   -3.4380   23.7090  -29.3460 C   0  0  0  0  0  0  0  0  0  0  0  0
   -2.2050   24.5310  -28.9760 C   0  0  0  0  0  0  0  0  0  0  0  0
   -4.6680   23.0480  -31.3580 C   0  0  0  0  0  0  0  0  0  0  0  0
   -3.6260   22.2620  -32.1580 C   0  0  0  0  0  0  0  0  0  0  0  0
   -4.1800   21.8210  -33.4490 N   0  0  0  0  0  0  0  0  0  0  0  0
   -4.5760   20.4300  -33.3800 C   0  0  0  0  0  0  0  0  0  0  0  0
   -3.6610   19.3760  -33.6820 C   0  0  0  0  0  0  0  0  0  0  0  0
   -2.2880   19.6360  -33.9100 C   0  0  0  0  0  0  0  0  0  0  0  0
   -1.4100   18.6120  -34.2570 C   0  0  0  0  0  0  0  0  0  0  0  0
   -1.8740   17.3110  -34.3910 C   0  0  0  0  0  0  0  0  0  0  0  0
   -3.2140   17.0130  -34.1550 C   0  0  0  0  0  0  0  0  0  0  0  0
   -4.1330   18.0190  -33.7600 C   0  0  0  0  0  0  0  0  0  0  0  0
   -5.4520   17.7150  -33.4620 N   0  0  0  0  0  0  0  0  0  0  0  0
   -5.9340   16.3190  -33.4430 C   0  0  0  0  0  0  0  0  0  0  0  0
   -6.3130   18.7410  -33.1750 C   0  0  0  0  0  0  0  0  0  0  0  0
   -7.6420   18.6210  -32.9330 N   0  0  0  0  0  0  0  0  0  0  0  0
   -8.0660   19.8620  -32.6400 C   0  0  0  0  0  0  0  0  0  0  0  0
   -9.3610   20.2260  -32.2800 C   0  0  0  0  0  0  0  0  0  0  0  0
   -9.6070   21.5680  -31.9520 C   0  0  0  0  0  0  0  0  0  0  0  0
   -8.5600   22.5110  -31.9820 C   0  0  0  0  0  0  0  0  0  0  0  0
   -7.2610   22.1250  -32.3520 C   0  0  0  0  0  0  0  0  0  0  0  0
   -7.0360   20.7830  -32.7020 C   0  0  0  0  0  0  0  0  0  0  0  0
   -5.9010   20.0610  -33.0820 C   0  0  0  0  0  0  0  0  0  0  0  0
   -6.4240   24.8106  -29.0203 H   0  0  0  0  0  0  0  0  0  0  0  0
   -7.0510   25.5473  -30.5338 H   0  0  0  0  0  0  0  0  0  0  0  0
   -6.4783   23.8448  -30.5338 H   0  0  0  0  0  0  0  0  0  0  0  0
   -4.9393   25.8988  -31.4030 H   0  0  0  0  0  0  0  0  0  0  0  0
   -4.5236   25.9521  -29.6495 H   0  0  0  0  0  0  0  0  0  0  0  0
   -4.2002   23.8280  -28.5619 H   0  0  0  0  0  0  0  0  0  0  0  0
   -3.1454   22.6524  -29.4358 H   0  0  0  0  0  0  0  0  0  0  0  0
   -2.1180   24.5890  -27.8810 H   0  0  0  0  0  0  0  0  0  0  0  0
   -1.3063   24.0507  -29.3903 H   0  0  0  0  0  0  0  0  0  0  0  0
   -2.3027   25.5453  -29.3903 H   0  0  0  0  0  0  0  0  0  0  0  0
   -5.1520   22.3808  -30.6295 H   0  0  0  0  0  0  0  0  0  0  0  0
   -5.4283   23.4539  -32.0415 H   0  0  0  0  0  0  0  0  0  0  0  0
   -2.7524   22.9048  -32.3414 H   0  0  0  0  0  0  0  0  0  0  0  0
   -3.3337   21.3739  -31.5785 H   0  0  0  0  0  0  0  0  0  0  0  0
   -3.4860   21.9680  -34.2170 H   0  0  0  0  0  0  0  0  0  0  0  0
   -4.9900   22.4150  -33.7290 H   0  0  0  0  0  0  0  0  0  0  0  0
   -1.9085   20.6637  -33.8114 H   0  0  0  0  0  0  0  0  0  0  0  0
   -0.3461   18.8351  -34.4253 H   0  0  0  0  0  0  0  0  0  0  0  0
   -1.1795   16.5104  -34.6853 H   0  0  0  0  0  0  0  0  0  0  0  0
   -3.5663   15.9781  -34.2772 H   0  0  0  0  0  0  0  0  0  0  0  0
   -6.0493   15.9851  -32.4013 H   0  0  0  0  0  0  0  0  0  0  0  0
   -6.9048   16.2593  -33.9568 H   0  0  0  0  0  0  0  0  0  0  0  0
   -5.2069   15.6730  -33.9568 H   0  0  0  0  0  0  0  0  0  0  0  0
   -8.2470   17.7720  -32.9750 H   0  0  0  0  0  0  0  0  0  0  0  0
  -10.1699   19.4811  -32.2534 H   0  0  0  0  0  0  0  0  0  0  0  0
  -10.6218   21.8855  -31.6701 H   0  0  0  0  0  0  0  0  0  0  0  0
   -8.7618   23.5584  -31.7133 H   0  0  0  0  0  0  0  0  0  0  0  0
   -6.4393   22.8562  -32.3674 H   0  0  0  0  0  0  0  0  0  0  0  0
  1  2  1  0
  2  3  1  0
  3  4  1  0
  4  5  1  0
  3  6  1  0
  6  7  1  0
  7  8  1  0
  8  9  1  0
  9 10  2  0
 10 11  1  0
 11 12  2  0
 12 13  1  0
 13 14  2  0
 14 15  1  0
 15 16  2  0
 16 17  1  0
 16 18  1  0
 18 19  1  0
 19 20  1  0
 20 21  2  0
 21 22  1  0
 22 23  2  0
 23 24  1  0
 24 25  2  0
 25 26  1  0
 26  9  1  0
 15 10  1  0
 26 18  2  0
 25 20  1  0
  1 27  1  0
  1 28  1  0
  1 29  1  0
  2 30  1  0
  2 31  1  0
  4 32  1  0
  4 33  1  0
  5 34  1  0
  5 35  1  0
  5 36  1  0
  6 37  1  0
  6 38  1  0
  7 39  1  0
  7 40  1  0
  8 41  1  0
  8 42  1  0
 11 43  1  0
 12 44  1  0
 13 45  1  0
 14 46  1  0
 17 47  1  0
 17 48  1  0
 17 49  1  0
 19 50  1  0
 21 51  1  0
 22 52  1  0
 23 53  1  0
 24 54  1  0
M  CHG  2   8   1  16   1
M  END
>  <UniqueID>  (2) 
2

>  <SMILES>  (2) 
CCN(CC)CC[NH2+]c1c2ccccc2[n+](C)c2[nH]c3ccccc3c12

>  <Energy>  (2) 
113.99247447507474

>  <Genealogy>  (2) 
CCN(CC)CC[NH2+]c1c2ccccc2[n+](C)c2[nH]c3ccccc3c12 (protonated)
CCN(CC)CC[NH2+]c1c2ccccc2[n+](C)c2[nH]c3ccccc3c12 (3D coordinates assigned)
CCN(CC)CC[NH2+]c1c2ccccc2[n+](C)c2[nH]c3ccccc3c12 (optimized conformer: 113.99247447507474 kcal/mol)

>  <smiles>  (2) 
CCN(CC)CCNc1c2ccccc2[n+](C)c2[nH]c3ccccc3c12

>  <score_type>  (2) 
oracle

>  <origin>  (2) 
adg

>  <m_score__min__energy>  (2) 
-8.7200000000000006

>  <m_primary>  (2) 
energy

$$$$
2:0
     RDKit          3D

 30 30  0  0  0  0  0  0  0  0999 V2000
   -4.2410   24.1590  -28.8330 C   0  0  0  0  0  0  0  0  0  0  0  0
   -3.7430   23.9990  -30.2720 C   0  0  0  0  0  0  0  0  0  0  0  0
   -4.8200   24.1480  -31.2630 N   0  0  0  0  0  0  0  0  0  0  0  0
   -6.0900   24.5570  -30.6470 C   0  0  0  0  0  0  0  0  0  0  0  0
   -7.2560   23.7980  -31.2810 C   0  0  0  0  0  0  0  0  0  0  0  0
   -6.7880   22.9640  -32.3910 N   0  0  0  0  0  0  0  0  0  0  0  0
   -6.9550   21.5330  -32.4120 C   0  0  0  0  0  0  0  0  0  0  0  0
   -8.2500   21.0540  -32.1630 C   0  0  0  0  0  0  0  0  0  0  0  0
   -8.7270   19.7520  -32.1070 C   0  0  0  0  0  0  0  0  0  0  0  0
   -8.0380   18.5670  -32.2990 C   0  0  0  0  0  0  0  0  0  0  0  0
   -6.7030   18.3990  -32.6190 C   0  0  0  0  0  0  0  0  0  0  0  0
   -5.7290   19.3690  -32.8120 C   0  0  0  0  0  0  0  0  0  0  0  0
   -5.8170   20.7600  -32.7180 C   0  0  0  0  0  0  0  0  0  0  0  0
   -4.7380   21.3830  -32.9260 O   0  0  0  0  0  0  0  0  0  0  0  0
   -3.4323   23.8992  -28.1341 H   0  0  0  0  0  0  0  0  0  0  0  0
   -4.5495   25.2015  -28.6655 H   0  0  0  0  0  0  0  0  0  0  0  0
   -5.0990   23.4913  -28.6655 H   0  0  0  0  0  0  0  0  0  0  0  0
   -2.9767   24.7638  -30.4667 H   0  0  0  0  0  0  0  0  0  0  0  0
   -3.3359   22.9821  -30.3726 H   0  0  0  0  0  0  0  0  0  0  0  0
   -4.9580   23.2370  -31.7600 H   0  0  0  0  0  0  0  0  0  0  0  0
   -6.0577   24.3382  -29.5695 H   0  0  0  0  0  0  0  0  0  0  0  0
   -6.2350   25.6354  -30.8084 H   0  0  0  0  0  0  0  0  0  0  0  0
   -7.7257   23.1568  -30.5206 H   0  0  0  0  0  0  0  0  0  0  0  0
   -7.9837   24.5264  -31.6680 H   0  0  0  0  0  0  0  0  0  0  0  0
   -6.1270   23.4070  -33.0700 H   0  0  0  0  0  0  0  0  0  0  0  0
   -9.0059   21.8328  -31.9841 H   0  0  0  0  0  0  0  0  0  0  0  0
   -9.7980   19.6475  -31.8791 H   0  0  0  0  0  0  0  0  0  0  0  0
   -8.6252   17.6442  -32.1826 H   0  0  0  0  0  0  0  0  0  0  0  0
   -6.3684   17.3577  -32.7362 H   0  0  0  0  0  0  0  0  0  0  0  0
   -4.7346   18.9828  -33.0803 H   0  0  0  0  0  0  0  0  0  0  0  0
  1  2  1  0
  2  3  1  0
  3  4  1  0
  4  5  1  0
  5  6  1  0
  6  7  1  0
  7  8  2  0
  8  9  1  0
  9 10  2  0
 10 11  1  0
 11 12  2  0
 12 13  1  0
 13 14  2  0
 13  7  1  0
  1 15  1  0
  1 16  1  0
  1 17  1  0
  2 18  1  0
  2 19  1  0
  3 20  1  0
  4 21  1  0
  4 22  1  0
  5 23  1  0
  5 24  1  0
  6 25  1  0
  8 26  1  0
  9 27  1  0
 10 28  1  0
 11 29  1  0
 12 30  1  0
M  END
>  <UniqueID>  (3) 
3

>  <SMILES>  (3) 
CCNCCNc1cccccc1=O

>  <Energy>  (3) 
45.90909802967974

>  <Genealogy>  (3) 
CCNCCNc1cccccc1=O (3D coordinates assigned)
CCNCCNc1cccccc1=O (optimized conformer: 45.90909802967974 kcal/mol)

>  <smiles>  (3) 
CCNCCNc1cccccc1=O

>  <score_type>  (3) 
oracle

>  <origin>  (3) 
adg

>  <m_score__min__energy>  (3) 
-5.9900000000000002

>  <m_primary>  (3) 
energy

$$$$
3:0
     RDKit          3D

 49 52  0  0  0  0  0  0  0  0999 V2000
   -5.6800   25.6800  -30.1540 C   0  0  0  0  0  0  0  0  0  0  0  0
   -4.4950   25.1610  -30.7510 O   0  0  0  0  0  0  0  0  0  0  0  0
   -3.9230   23.9170  -30.4360 C   0  0  0  0  0  0  0  0  0  0  0  0
   -2.5610   23.7850  -30.0920 C   0  0  0  0  0  0  0  0  0  0  0  0
   -2.0330   22.5320  -29.7730 C   0  0  0  0  0  0  0  0  0  0  0  0
   -2.8510   21.4000  -29.7920 C   0  0  0  0  0  0  0  0  0  0  0  0
   -4.2010   21.5190  -30.1320 C   0  0  0  0  0  0  0  0  0  0  0  0
   -4.7420   22.7710  -30.4570 C   0  0  0  0  0  0  0  0  0  0  0  0
   -6.1320   22.8770  -30.7980 N   0  0  0  0  0  0  0  0  0  0  0  0
   -6.5290   22.9820  -32.2070 C   0  0  0  0  0  0  0  0  0  0  0  0
   -8.0070   23.3820  -32.3240 C   0  0  0  0  0  0  0  0  0  0  0  0
   -8.9160   22.5120  -31.5300 N   0  0  0  0  0  0  0  0  0  0  0  0
   -9.5000   21.4250  -32.3430 C   0  0  0  0  0  0  0  0  0  0  0  0
   -8.6060   20.2240  -32.3300 C   0  0  0  0  0  0  0  0  0  0  0  0
   -8.7700   19.1000  -31.5550 C   0  0  0  0  0  0  0  0  0  0  0  0
   -7.8110   18.2660  -31.8740 O   0  0  0  0  0  0  0  0  0  0  0  0
   -7.0840   18.8350  -32.8140 C   0  0  0  0  0  0  0  0  0  0  0  0
   -5.9010   18.1820  -33.4310 C   0  0  0  0  0  0  0  0  0  0  0  0
   -6.0080   16.8270  -33.8010 C   0  0  0  0  0  0  0  0  0  0  0  0
   -4.9280   16.1570  -34.3820 C   0  0  0  0  0  0  0  0  0  0  0  0
   -3.7280   16.8260  -34.6080 C   0  0  0  0  0  0  0  0  0  0  0  0
   -3.6020   18.1680  -34.2520 C   0  0  0  0  0  0  0  0  0  0  0  0
   -4.6740   18.8560  -33.6670 C   0  0  0  0  0  0  0  0  0  0  0  0
   -4.4140   20.5550  -33.2810 Cl  0  0  0  0  0  0  0  0  0  0  0  0
   -7.5410   20.0660  -33.1370 N   0  0  0  0  0  0  0  0  0  0  0  0
   -8.3320   21.9790  -30.2720 C   0  0  0  0  0  0  0  0  0  0  0  0
   -7.1630   22.8240  -29.7600 C   0  0  0  0  0  0  0  0  0  0  0  0
   -5.5869   25.6392  -29.0587 H   0  0  0  0  0  0  0  0  0  0  0  0
   -5.8237   26.7234  -30.4712 H   0  0  0  0  0  0  0  0  0  0  0  0
   -6.5443   25.0780  -30.4712 H   0  0  0  0  0  0  0  0  0  0  0  0
   -1.9121   24.6730  -30.0750 H   0  0  0  0  0  0  0  0  0  0  0  0
   -0.9702   22.4364  -29.5061 H   0  0  0  0  0  0  0  0  0  0  0  0
   -2.4323   20.4147  -29.5393 H   0  0  0  0  0  0  0  0  0  0  0  0
   -4.8428   20.6257  -30.1448 H   0  0  0  0  0  0  0  0  0  0  0  0
   -5.9082   23.7435  -32.7017 H   0  0  0  0  0  0  0  0  0  0  0  0
   -6.3873   22.0035  -32.6891 H   0  0  0  0  0  0  0  0  0  0  0  0
   -8.1176   24.4177  -31.9703 H   0  0  0  0  0  0  0  0  0  0  0  0
   -8.2918   23.2727  -33.3809 H   0  0  0  0  0  0  0  0  0  0  0  0
  -10.4815   21.1504  -31.9293 H   0  0  0  0  0  0  0  0  0  0  0  0
   -9.6109   21.7755  -33.3797 H   0  0  0  0  0  0  0  0  0  0  0  0
   -9.5589   18.9323  -30.8070 H   0  0  0  0  0  0  0  0  0  0  0  0
   -6.9528   16.2900  -33.6306 H   0  0  0  0  0  0  0  0  0  0  0  0
   -5.0262   15.0977  -34.6617 H   0  0  0  0  0  0  0  0  0  0  0  0
   -2.8803   16.2962  -35.0670 H   0  0  0  0  0  0  0  0  0  0  0  0
   -2.6518   18.6922  -34.4320 H   0  0  0  0  0  0  0  0  0  0  0  0
   -9.1161   21.9587  -29.5008 H   0  0  0  0  0  0  0  0  0  0  0  0
   -7.9457   20.9714  -30.4854 H   0  0  0  0  0  0  0  0  0  0  0  0
   -7.5132   23.8419  -29.5339 H   0  0  0  0  0  0  0  0  0  0  0  0
   -6.7499   22.3763  -28.8440 H   0  0  0  0  0  0  0  0  0  0  0  0
  1  2  1  0
  2  3  1  0
  3  4  2  0
  4  5  1  0
  5  6  2  0
  6  7  1  0
  7  8  2  0
  8  9  1  0
  9 10  1  0
 10 11  1  0
 11 12  1  0
 12 13  1  0
 13 14  1  0
 14 15  2  0
 15 16  1  0
 16 17  1  0
 17 18  1  0
 18 19  2  0
 19 20  1  0
 20 21  2  0
 21 22  1  0
 22 23  2  0
 23 24  1  0
 17 25  2  0
 12 26  1  0
 26 27  1  0
  8  3  1  0
 27  9  1  0
 25 14  1  0
 23 18  1  0
  1 28  1  0
  1 29  1  0
  1 30  1  0
  4 31  1  0
  5 32  1  0
  6 33  1  0
  7 34  1  0
 10 35  1  0
 10 36  1  0
 11 37  1  0
 11 38  1  0
 13 39  1  0
 13 40  1  0
 15 41  1  0
 19 42  1  0
 20 43  1  0
 21 44  1  0
 22 45  1  0
 26 46  1  0
 26 47  1  0
 27 48  1  0
 27 49  1  0
M  END
>  <UniqueID>  (4) 
4

>  <SMILES>  (4) 
COc1ccccc1N1CCN(Cc2coc(-c3ccccc3Cl)n2)CC1

>  <Energy>  (4) 
97.17936587757019

>  <Genealogy>  (4) 
COc1ccccc1N1CCN(Cc2coc(-c3ccccc3Cl)n2)CC1 (3D coordinates assigned)
COc1ccccc1N1CCN(Cc2coc(-c3ccccc3Cl)n2)CC1 (nonaromatic ring conformer: 97.17936587757019 kcal/mol)

>  <smiles>  (4) 
COc1ccccc1N1CCN(Cc2coc(-c3ccccc3Cl)n2)CC1

>  <score_type>  (4) 
oracle

>  <origin>  (4) 
adg

>  <m_score__min__energy>  (4) 
-8.8499999999999996

>  <m_primary>  (4) 
energy

$$$$
4:0
     RDKit          3D

 47 48  0  0  0  0  0  0  0  0999 V2000
   -3.2530   22.6630  -29.5100 C   0  0  0  0  0  0  0  0  0  0  0  0
   -3.3540   24.1230  -29.3460 N   0  0  0  0  0  0  0  0  0  0  0  0
   -2.3850   24.5660  -28.3260 C   0  0  0  0  0  0  0  0  0  0  0  0
   -4.7340   24.5010  -28.9710 C   0  0  0  0  0  0  0  0  0  0  0  0
   -5.7540   23.6560  -29.7420 C   0  0  0  0  0  0  0  0  0  0  0  0
   -5.7230   23.9840  -31.2150 C   0  0  0  0  0  0  0  0  0  0  0  0
   -5.0820   24.9580  -31.5880 O   0  0  0  0  0  0  0  0  0  0  0  0
   -6.4210   23.1540  -32.1840 N   0  0  2  0  0  0  0  0  0  0  0  0
   -7.8670   23.4370  -32.0450 C   0  0  0  0  0  0  0  0  0  0  0  0
   -6.1120   21.6970  -31.9970 C   0  0  0  0  0  0  0  0  0  0  0  0
   -4.8030   21.2200  -32.7020 C   0  0  0  0  0  0  0  0  0  0  0  0
   -4.3270   19.7620  -32.4560 C   0  0  0  0  0  0  0  0  0  0  0  0
   -5.1500   18.6340  -33.0550 C   0  0  0  0  0  0  0  0  0  0  0  0
   -4.5100   17.7350  -33.9300 C   0  0  0  0  0  0  0  0  0  0  0  0
   -5.2130   16.6800  -34.5120 C   0  0  0  0  0  0  0  0  0  0  0  0
   -6.5620   16.4930  -34.2170 C   0  0  0  0  0  0  0  0  0  0  0  0
   -7.2070   17.3530  -33.3270 C   0  0  0  0  0  0  0  0  0  0  0  0
   -6.5080   18.4130  -32.7240 C   0  0  0  0  0  0  0  0  0  0  0  0
   -7.2360   19.3310  -31.7850 C   0  0  0  0  0  0  0  0  0  0  0  0
   -7.3140   20.7570  -32.3480 C   0  0  0  0  0  0  0  0  0  0  0  0
   -3.2199   22.1843  -28.5202 H   0  0  0  0  0  0  0  0  0  0  0  0
   -4.1278   22.2951  -30.0662 H   0  0  0  0  0  0  0  0  0  0  0  0
   -2.3358   22.4191  -30.0662 H   0  0  0  0  0  0  0  0  0  0  0  0
   -2.7964   24.3779  -27.3233 H   0  0  0  0  0  0  0  0  0  0  0  0
   -1.4446   24.0084  -28.4470 H   0  0  0  0  0  0  0  0  0  0  0  0
   -2.1914   25.6421  -28.4470 H   0  0  0  0  0  0  0  0  0  0  0  0
   -4.8725   24.3389  -27.8919 H   0  0  0  0  0  0  0  0  0  0  0  0
   -4.8912   25.5608  -29.2203 H   0  0  0  0  0  0  0  0  0  0  0  0
   -5.5158   22.5908  -29.6053 H   0  0  0  0  0  0  0  0  0  0  0  0
   -6.7590   23.8783  -29.3539 H   0  0  0  0  0  0  0  0  0  0  0  0
   -6.1550   23.4470  -33.1510 H   0  0  0  0  0  0  0  0  0  0  0  0
   -8.1297   23.4884  -30.9781 H   0  0  0  0  0  0  0  0  0  0  0  0
   -8.1005   24.3979  -32.5268 H   0  0  0  0  0  0  0  0  0  0  0  0
   -8.4456   22.6350  -32.5268 H   0  0  0  0  0  0  0  0  0  0  0  0
   -5.9294   21.6095  -30.9158 H   0  0  0  0  0  0  0  0  0  0  0  0
   -4.9553   21.3351  -33.7853 H   0  0  0  0  0  0  0  0  0  0  0  0
   -4.0121   21.8435  -32.2596 H   0  0  0  0  0  0  0  0  0  0  0  0
   -3.3089   19.6767  -32.8638 H   0  0  0  0  0  0  0  0  0  0  0  0
   -4.4182   19.6222  -31.3687 H   0  0  0  0  0  0  0  0  0  0  0  0
   -3.4418   17.8665  -34.1575 H   0  0  0  0  0  0  0  0  0  0  0  0
   -4.7019   15.9950  -35.2045 H   0  0  0  0  0  0  0  0  0  0  0  0
   -7.1183   15.6678  -34.6855 H   0  0  0  0  0  0  0  0  0  0  0  0
   -8.2714   17.2000  -33.0954 H   0  0  0  0  0  0  0  0  0  0  0  0
   -8.2564   18.9503  -31.6309 H   0  0  0  0  0  0  0  0  0  0  0  0
   -6.6848   19.3629  -30.8336 H   0  0  0  0  0  0  0  0  0  0  0  0
   -7.3760   20.6839  -33.4438 H   0  0  0  0  0  0  0  0  0  0  0  0
   -8.1971   21.2148  -31.8784 H   0  0  0  0  0  0  0  0  0  0  0  0
  1  2  1  0
  2  3  1  0
  2  4  1  0
  4  5  1  0
  5  6  1  0
  6  7  2  0
  6  8  1  0
  8  9  1  0
  8 10  1  0
 10 11  1  0
 11 12  1  0
 12 13  1  0
 13 14  2  0
 14 15  1  0
 15 16  2  0
 16 17  1  0
 17 18  2  0
 18 19  1  0
 19 20  1  0
 20 10  1  0
 18 13  1  0
  1 21  1  0
  1 22  1  0
  1 23  1  0
  3 24  1  0
  3 25  1  0
  3 26  1  0
  4 27  1  0
  4 28  1  0
  5 29  1  0
  5 30  1  0
  8 31  1  6
  9 32  1  0
  9 33  1  0
  9 34  1  0
 10 35  1  0
 11 36  1  0
 11 37  1  0
 12 38  1  0
 12 39  1  0
 14 40  1  0
 15 41  1  0
 16 42  1  0
 17 43  1  0
 19 44  1  0
 19 45  1  0
 20 46  1  0
 20 47  1  0
M  CHG  1   8   1
M  END
>  <UniqueID>  (5) 
5

>  <SMILES>  (5) 
CN(C)CCC(=O)[N@H+](C)C1CCc2ccccc2CC1

>  <Energy>  (5) 
60.238260532095005

>  <Genealogy>  (5) 
CN(C)CCC(=O)[NH+](C)C1CCc2ccccc2CC1 (protonated)
CN(C)CCC(=O)[N@H+](C)C1CCc2ccccc2CC1 (chirality)
CN(C)CCC(=O)[N@H+](C)C1CCc2ccccc2CC1 (3D coordinates assigned)
CN(C)CCC(=O)[N@H+](C)C1CCc2ccccc2CC1 (nonaromatic ring conformer: 60.238260532095005 kcal/mol)

>  <smiles>  (5) 
CN(C)CCC(=O)N(C)C1CCc2ccccc2CC1

>  <score_type>  (5) 
oracle

>  <origin>  (5) 
adg

>  <m_score__min__energy>  (5) 
-5.4400000000000004

>  <m_primary>  (5) 
energy

$$$$
5:0
     RDKit          3D

 64 67  0  0  0  0  0  0  0  0999 V2000
    0.9630   23.9590  -28.1360 C   0  0  0  0  0  0  0  0  0  0  0  0
    0.1070   25.0940  -28.2160 O   0  0  0  0  0  0  0  0  0  0  0  0
   -0.3400   25.8340  -27.1110 C   0  0  0  0  0  0  0  0  0  0  0  0
    0.2960   27.0260  -26.7110 C   0  0  0  0  0  0  0  0  0  0  0  0
   -0.1590   27.7290  -25.5930 C   0  0  0  0  0  0  0  0  0  0  0  0
   -1.2450   27.2490  -24.8570 C   0  0  0  0  0  0  0  0  0  0  0  0
   -1.8860   26.0730  -25.2450 C   0  0  0  0  0  0  0  0  0  0  0  0
   -1.4480   25.3610  -26.3740 C   0  0  0  0  0  0  0  0  0  0  0  0
   -2.1430   24.1650  -26.7740 N   0  0  0  0  0  0  0  0  0  0  0  0
   -3.5250   24.2660  -27.2550 C   0  0  0  0  0  0  0  0  0  0  0  0
   -3.9890   22.9360  -27.8590 C   0  0  0  0  0  0  0  0  0  0  0  0
   -2.9000   22.2560  -28.5960 N   0  0  0  0  0  0  0  0  0  0  0  0
   -2.3930   23.0020  -29.7770 C   0  0  0  0  0  0  0  0  0  0  0  0
   -3.2800   22.8570  -31.0330 C   0  0  2  0  0  0  0  0  0  0  0  0
   -4.5580   22.3940  -30.6740 O   0  0  0  0  0  0  0  0  0  0  0  0
   -2.6450   21.9290  -32.0830 C   0  0  0  0  0  0  0  0  0  0  0  0
   -3.6020   20.9140  -32.5170 N   0  0  0  0  0  0  0  0  0  0  0  0
   -3.2440   19.8430  -33.4060 C   0  0  0  0  0  0  0  0  0  0  0  0
   -2.1000   19.8230  -33.9370 O   0  0  0  0  0  0  0  0  0  0  0  0
   -4.2150   18.7730  -33.7360 C   0  0  0  0  0  0  0  0  0  0  0  0
   -3.7640   17.4510  -33.8930 C   0  0  0  0  0  0  0  0  0  0  0  0
   -4.6640   16.4350  -34.2180 C   0  0  0  0  0  0  0  0  0  0  0  0
   -6.0160   16.7450  -34.3730 C   0  0  0  0  0  0  0  0  0  0  0  0
   -6.4450   18.0220  -34.1980 N   0  0  0  0  0  0  0  0  0  0  0  0
   -5.5960   19.0370  -33.8710 C   0  0  0  0  0  0  0  0  0  0  0  0
   -6.0840   20.3390  -33.6880 O   0  0  0  0  0  0  0  0  0  0  0  0
   -7.1140   20.7100  -32.8110 C   0  0  0  0  0  0  0  0  0  0  0  0
   -8.1070   19.8020  -32.3900 C   0  0  0  0  0  0  0  0  0  0  0  0
   -9.1040   20.2100  -31.4990 C   0  0  0  0  0  0  0  0  0  0  0  0
   -9.1150   21.5190  -31.0120 C   0  0  0  0  0  0  0  0  0  0  0  0
   -8.1230   22.4200  -31.4120 C   0  0  0  0  0  0  0  0  0  0  0  0
   -7.1220   22.0160  -32.3030 C   0  0  0  0  0  0  0  0  0  0  0  0
   -6.1620   22.8980  -32.6800 F   0  0  0  0  0  0  0  0  0  0  0  0
   -1.8000   21.8590  -27.6790 C   0  0  0  0  0  0  0  0  0  0  0  0
   -1.5580   22.8450  -26.5120 C   0  0  0  0  0  0  0  0  0  0  0  0
    1.1483   23.7132  -27.0799 H   0  0  0  0  0  0  0  0  0  0  0  0
    0.4839   23.1026  -28.6331 H   0  0  0  0  0  0  0  0  0  0  0  0
    1.9181   24.1843  -28.6331 H   0  0  0  0  0  0  0  0  0  0  0  0
    1.1560   27.4052  -27.2826 H   0  0  0  0  0  0  0  0  0  0  0  0
    0.3388   28.6624  -25.2915 H   0  0  0  0  0  0  0  0  0  0  0  0
   -1.5947   27.7990  -23.9709 H   0  0  0  0  0  0  0  0  0  0  0  0
   -2.7413   25.6999  -24.6625 H   0  0  0  0  0  0  0  0  0  0  0  0
   -4.1819   24.5283  -26.4126 H   0  0  0  0  0  0  0  0  0  0  0  0
   -3.5720   25.0423  -28.0329 H   0  0  0  0  0  0  0  0  0  0  0  0
   -4.3346   22.2782  -27.0479 H   0  0  0  0  0  0  0  0  0  0  0  0
   -4.8013   23.1487  -28.5696 H   0  0  0  0  0  0  0  0  0  0  0  0
   -2.3347   24.0687  -29.5147 H   0  0  0  0  0  0  0  0  0  0  0  0
   -1.4103   22.5761  -30.0276 H   0  0  0  0  0  0  0  0  0  0  0  0
   -3.3726   23.8526  -31.4914 H   0  0  0  0  0  0  0  0  0  0  0  0
   -4.4330   21.6820  -29.9950 H   0  0  0  0  0  0  0  0  0  0  0  0
   -2.3326   22.5266  -32.9521 H   0  0  0  0  0  0  0  0  0  0  0  0
   -1.7750   21.4276  -31.6338 H   0  0  0  0  0  0  0  0  0  0  0  0
   -4.6100   21.0760  -32.3000 H   0  0  0  0  0  0  0  0  0  0  0  0
   -2.6977   17.2163  -33.7592 H   0  0  0  0  0  0  0  0  0  0  0  0
   -4.3117   15.4014  -34.3505 H   0  0  0  0  0  0  0  0  0  0  0  0
   -6.7344   15.9550  -34.6370 H   0  0  0  0  0  0  0  0  0  0  0  0
   -8.0972   18.7677  -32.7644 H   0  0  0  0  0  0  0  0  0  0  0  0
   -9.8809   19.4991  -31.1810 H   0  0  0  0  0  0  0  0  0  0  0  0
   -9.9027   21.8408  -30.3149 H   0  0  0  0  0  0  0  0  0  0  0  0
   -8.1295   23.4497  -31.0251 H   0  0  0  0  0  0  0  0  0  0  0  0
   -2.0445   20.8746  -27.2534 H   0  0  0  0  0  0  0  0  0  0  0  0
   -0.8780   21.8479  -28.2788 H   0  0  0  0  0  0  0  0  0  0  0  0
   -2.0106   22.4315  -25.5987 H   0  0  0  0  0  0  0  0  0  0  0  0
   -0.4716   22.9730  -26.3966 H   0  0  0  0  0  0  0  0  0  0  0  0
  1  2  1  0
  2  3  1  0
  3  4  2  0
  4  5  1  0
  5  6  2  0
  6  7  1  0
  7  8  2  0
  8  9  1  0
  9 10  1  0
 10 11  1  0
 11 12  1  0
 12 13  1  0
 13 14  1  0
 14 15  1  0
 14 16  1  0
 16 17  1  0
 17 18  1  0
 18 19  2  0
 18 20  1  0
 20 21  2  0
 21 22  1  0
 22 23  2  0
 23 24  1  0
 24 25  2  0
 25 26  1  0
 26 27  1  0
 27 28  2  0
 28 29  1  0
 29 30  2  0
 30 31  1  0
 31 32  2  0
 32 33  1  0
 12 34  1  0
 34 35  1  0
  8  3  1  0
 35  9  1  0
 25 20  1  0
 32 27  1  0
  1 36  1  0
  1 37  1  0
  1 38  1  0
  4 39  1  0
  5 40  1  0
  6 41  1  0
  7 42  1  0
 10 43  1  0
 10 44  1  0
 11 45  1  0
 11 46  1  0
 13 47  1  0
 13 48  1  0
 14 49  1  6
 15 50  1  0
 16 51  1  0
 16 52  1  0
 17 53  1  0
 21 54  1  0
 22 55  1  0
 23 56  1  0
 28 57  1  0
 29 58  1  0
 30 59  1  0
 31 60  1  0
 34 61  1  0
 34 62  1  0
 35 63  1  0
 35 64  1  0
M  END
>  <UniqueID>  (6) 
6

>  <SMILES>  (6) 
COc1ccccc1N1CCN(C[C@H](O)CNC(=O)c2cccnc2Oc2ccccc2F)CC1

>  <Energy>  (6) 
88.55599873202318

>  <Genealogy>  (6) 
COc1ccccc1N1CCN(C[C@H](O)CNC(=O)c2cccnc2Oc2ccccc2F)CC1 (chirality)
COc1ccccc1N1CCN(C[C@H](O)CNC(=O)c2cccnc2Oc2ccccc2F)CC1 (3D coordinates assigned)
COc1ccccc1N1CCN(C[C@H](O)CNC(=O)c2cccnc2Oc2ccccc2F)CC1 (nonaromatic ring conformer: 88.55599873202318 kcal/mol)

>  <smiles>  (6) 
COc1ccccc1N1CCN(CC(O)CNC(=O)c2cccnc2Oc2ccccc2F)CC1

>  <score_type>  (6) 
oracle

>  <origin>  (6) 
adg

>  <m_score__min__energy>  (6) 
-9.4900000000000002

>  <m_primary>  (6) 
energy

$$$$
6:0
     RDKit          3D

 30 31  0  0  0  0  0  0  0  0999 V2000
   -8.7890   18.8510  -31.5730 C   0  0  0  0  0  0  0  0  0  0  0  0
   -7.8870   18.3940  -32.2300 C   0  0  0  0  0  0  0  0  0  0  0  0
   -6.7860   17.8460  -33.0300 C   0  0  0  0  0  0  0  0  0  0  0  0
   -5.4500   18.5220  -32.7100 C   0  0  0  0  0  0  0  0  0  0  0  0
   -5.3680   19.8170  -33.3110 O   0  0  0  0  0  0  0  0  0  0  0  0
   -5.6860   21.0420  -32.7000 C   0  0  0  0  0  0  0  0  0  0  0  0
   -6.9990   21.5450  -32.6240 C   0  0  0  0  0  0  0  0  0  0  0  0
   -7.2500   22.7660  -31.9960 C   0  0  0  0  0  0  0  0  0  0  0  0
   -6.2040   23.5010  -31.4220 C   0  0  0  0  0  0  0  0  0  0  0  0
   -4.8830   23.0140  -31.5110 C   0  0  0  0  0  0  0  0  0  0  0  0
   -4.6410   21.7780  -32.1300 C   0  0  0  0  0  0  0  0  0  0  0  0
   -3.7410   23.7560  -30.8570 C   0  0  0  0  0  0  0  0  0  0  0  0
   -4.0480   25.1770  -30.6430 N   0  0  0  0  0  0  0  0  0  0  0  0
   -5.3250   25.3330  -29.9370 C   0  0  0  0  0  0  0  0  0  0  0  0
   -6.4930   24.8430  -30.8010 C   0  0  0  0  0  0  0  0  0  0  0  0
   -9.6118   19.2679  -30.9737 H   0  0  0  0  0  0  0  0  0  0  0  0
   -6.6978   16.7695  -32.8217 H   0  0  0  0  0  0  0  0  0  0  0  0
   -7.0134   18.0299  -34.0904 H   0  0  0  0  0  0  0  0  0  0  0  0
   -5.3528   18.6260  -31.6192 H   0  0  0  0  0  0  0  0  0  0  0  0
   -4.6389   17.8986  -33.1143 H   0  0  0  0  0  0  0  0  0  0  0  0
   -7.8306   20.9731  -33.0615 H   0  0  0  0  0  0  0  0  0  0  0  0
   -8.2780   23.1548  -31.9512 H   0  0  0  0  0  0  0  0  0  0  0  0
   -3.6154   21.3821  -32.1677 H   0  0  0  0  0  0  0  0  0  0  0  0
   -3.5277   23.2899  -29.8837 H   0  0  0  0  0  0  0  0  0  0  0  0
   -2.8728   23.6973  -31.5299 H   0  0  0  0  0  0  0  0  0  0  0  0
   -4.1100   25.6560  -31.5730 H   0  0  0  0  0  0  0  0  0  0  0  0
   -5.2955   24.7475  -29.0062 H   0  0  0  0  0  0  0  0  0  0  0  0
   -5.4756   26.4000  -29.7160 H   0  0  0  0  0  0  0  0  0  0  0  0
   -7.3909   24.7582  -30.1712 H   0  0  0  0  0  0  0  0  0  0  0  0
   -6.6469   25.5696  -31.6124 H   0  0  0  0  0  0  0  0  0  0  0  0
  1  2  3  0
  2  3  1  0
  3  4  1  0
  4  5  1  0
  5  6  1  0
  6  7  2  0
  7  8  1  0
  8  9  2  0
  9 10  1  0
 10 11  2  0
 10 12  1  0
 12 13  1  0
 13 14  1  0
 14 15  1  0
 11  6  1  0
 15  9  1  0
  1 16  1  0
  3 17  1  0
  3 18  1  0
  4 19  1  0
  4 20  1  0
  7 21  1  0
  8 22  1  0
 11 23  1  0
 12 24  1  0
 12 25  1  0
 13 26  1  0
 14 27  1  0
 14 28  1  0
 15 29  1  0
 15 30  1  0
M  END
>  <UniqueID>  (7) 
7

>  <SMILES>  (7) 
C#CCCOc1ccc2c(c1)CNCC2

>  <Energy>  (7) 
28.610024158016778

>  <Genealogy>  (7) 
C#CCCOc1ccc2c(c1)CNCC2 (3D coordinates assigned)
C#CCCOc1ccc2c(c1)CNCC2 (nonaromatic ring conformer: 28.610024158016778 kcal/mol)

>  <smiles>  (7) 
C#CCCOc1ccc2c(c1)CNCC2

>  <score_type>  (7) 
oracle

>  <origin>  (7) 
adg

>  <m_score__min__energy>  (7) 
-6.8600000000000003

>  <m_primary>  (7) 
energy

$$$$
7:0
     RDKit          3D

 37 39  0  0  0  0  0  0  0  0999 V2000
   -6.4870   17.3180  -31.8230 C   0  0  0  0  0  0  0  0  0  0  0  0
   -5.3350   16.4570  -32.3340 C   0  0  0  0  0  0  0  0  0  0  0  0
   -4.9060   16.9120  -33.6760 N   0  0  0  0  0  0  0  0  0  0  0  0
   -6.0100   17.5540  -34.4420 C   0  0  0  0  0  0  0  0  0  0  0  0
   -5.8910   19.0860  -34.5690 C   0  0  0  0  0  0  0  0  0  0  0  0
   -5.2210   19.6550  -33.3990 N   0  0  0  0  0  0  0  0  0  0  0  0
   -5.7420   20.8340  -32.7720 C   0  0  0  0  0  0  0  0  0  0  0  0
   -4.8760   21.8890  -32.4760 C   0  0  0  0  0  0  0  0  0  0  0  0
   -5.3830   23.0350  -31.8550 C   0  0  0  0  0  0  0  0  0  0  0  0
   -4.6130   23.9930  -31.5820 O   0  0  0  0  0  0  0  0  0  0  0  0
   -6.6730   23.1190  -31.5490 O   0  0  0  0  0  0  0  0  0  0  0  0
   -7.5380   22.1440  -31.8110 C   0  0  0  0  0  0  0  0  0  0  0  0
   -8.8850   22.3000  -31.4630 C   0  0  0  0  0  0  0  0  0  0  0  0
   -9.8030   21.2830  -31.7380 C   0  0  0  0  0  0  0  0  0  0  0  0
   -9.3830   20.1060  -32.3620 C   0  0  0  0  0  0  0  0  0  0  0  0
   -8.0390   19.9370  -32.7140 C   0  0  0  0  0  0  0  0  0  0  0  0
   -7.1040   20.9520  -32.4400 C   0  0  0  0  0  0  0  0  0  0  0  0
   -3.9610   19.0860  -32.9230 C   0  0  0  0  0  0  0  0  0  0  0  0
   -3.6850   17.7440  -33.6140 C   0  0  0  0  0  0  0  0  0  0  0  0
   -6.4856   17.3170  -30.7230 H   0  0  0  0  0  0  0  0  0  0  0  0
   -6.3651   18.3482  -32.1889 H   0  0  0  0  0  0  0  0  0  0  0  0
   -7.4405   16.9094  -32.1889 H   0  0  0  0  0  0  0  0  0  0  0  0
   -4.4876   16.5347  -31.6370 H   0  0  0  0  0  0  0  0  0  0  0  0
   -5.6735   15.4126  -32.4028 H   0  0  0  0  0  0  0  0  0  0  0  0
   -6.0208   17.1248  -35.4547 H   0  0  0  0  0  0  0  0  0  0  0  0
   -6.9362   17.3567  -33.8823 H   0  0  0  0  0  0  0  0  0  0  0  0
   -5.3098   19.3288  -35.4708 H   0  0  0  0  0  0  0  0  0  0  0  0
   -6.9023   19.5132  -34.6381 H   0  0  0  0  0  0  0  0  0  0  0  0
   -3.8076   21.8194  -32.7284 H   0  0  0  0  0  0  0  0  0  0  0  0
   -9.2215   23.2251  -30.9721 H   0  0  0  0  0  0  0  0  0  0  0  0
  -10.8603   21.4098  -31.4621 H   0  0  0  0  0  0  0  0  0  0  0  0
  -10.1106   19.3097  -32.5774 H   0  0  0  0  0  0  0  0  0  0  0  0
   -7.7130   19.0087  -33.2059 H   0  0  0  0  0  0  0  0  0  0  0  0
   -3.1408   19.7841  -33.1464 H   0  0  0  0  0  0  0  0  0  0  0  0
   -4.0317   18.9206  -31.8378 H   0  0  0  0  0  0  0  0  0  0  0  0
   -3.3283   17.9341  -34.6370 H   0  0  0  0  0  0  0  0  0  0  0  0
   -2.9246   17.2029  -33.0317 H   0  0  0  0  0  0  0  0  0  0  0  0
  1  2  1  0
  2  3  1  0
  3  4  1  0
  4  5  1  0
  5  6  1  0
  6  7  1  0
  7  8  2  0
  8  9  1  0
  9 10  2  0
  9 11  1  0
 11 12  1  0
 12 13  2  0
 13 14  1  0
 14 15  2  0
 15 16  1  0
 16 17  2  0
  6 18  1  0
 18 19  1  0
 19  3  1  0
 17  7  1  0
 17 12  1  0
  1 20  1  0
  1 21  1  0
  1 22  1  0
  2 23  1  0
  2 24  1  0
  4 25  1  0
  4 26  1  0
  5 27  1  0
  5 28  1  0
  8 29  1  0
 13 30  1  0
 14 31  1  0
 15 32  1  0
 16 33  1  0
 18 34  1  0
 18 35  1  0
 19 36  1  0
 19 37  1  0
M  END
>  <UniqueID>  (8) 
8

>  <SMILES>  (8) 
CCN1CCN(c2cc(=O)oc3ccccc23)CC1

>  <Energy>  (8) 
54.42145323058647

>  <Genealogy>  (8) 
CCN1CCN(c2cc(=O)oc3ccccc23)CC1 (3D coordinates assigned)
CCN1CCN(c2cc(=O)oc3ccccc23)CC1 (nonaromatic ring conformer: 54.42145323058647 kcal/mol)

>  <smiles>  (8) 
CCN1CCN(c2cc(=O)oc3ccccc23)CC1

>  <score_type>  (8) 
oracle

>  <origin>  (8) 
adg

>  <m_score__min__energy>  (8) 
-7.2699999999999996

>  <m_primary>  (8) 
energy

$$$$
8:0
     RDKit          3D

 47 50  0  0  0  0  0  0  0  0999 V2000
   -2.5310   20.6390  -30.7810 Cl  0  0  0  0  0  0  0  0  0  0  0  0
   -1.7560   20.3830  -32.3420 C   0  0  0  0  0  0  0  0  0  0  0  0
   -0.7880   21.3050  -32.7610 C   0  0  0  0  0  0  0  0  0  0  0  0
   -0.1600   21.1540  -33.9990 C   0  0  0  0  0  0  0  0  0  0  0  0
   -0.4950   20.0830  -34.8270 C   0  0  0  0  0  0  0  0  0  0  0  0
   -1.4590   19.1570  -34.4190 C   0  0  0  0  0  0  0  0  0  0  0  0
   -2.0890   19.2880  -33.1690 C   0  0  0  0  0  0  0  0  0  0  0  0
   -3.1440   18.2910  -32.7680 C   0  0  0  0  0  0  0  0  0  0  0  0
   -4.3370   18.0840  -34.1300 S   0  0  0  0  0  0  0  0  0  0  0  0
   -5.6610   18.9110  -33.2500 C   0  0  0  0  0  0  0  0  0  0  0  0
   -6.7600   18.2150  -32.8360 N   0  0  0  0  0  0  0  0  0  0  0  0
   -7.7850   18.8310  -32.1640 C   0  0  0  0  0  0  0  0  0  0  0  0
   -7.7300   20.1700  -31.8900 N   0  0  0  0  0  0  0  0  0  0  0  0
   -6.6350   20.8600  -32.2980 C   0  0  0  0  0  0  0  0  0  0  0  0
   -5.6150   20.2690  -32.9680 C   0  0  0  0  0  0  0  0  0  0  0  0
   -4.7090   21.2760  -33.2280 C   0  0  0  0  0  0  0  0  0  0  0  0
   -5.2040   22.4330  -32.7190 N   0  0  0  0  0  0  0  0  0  0  0  0
   -6.3750   22.1700  -32.1440 N   0  0  0  0  0  0  0  0  0  0  0  0
   -7.2300   23.1870  -31.5340 C   0  0  0  0  0  0  0  0  0  0  0  0
   -7.2450   23.0200  -30.0100 C   0  0  0  0  0  0  0  0  0  0  0  0
   -6.1140   23.7350  -29.3760 N   0  0  0  0  0  0  0  0  0  0  0  0
   -6.1770   25.1930  -29.6430 C   0  0  0  0  0  0  0  0  0  0  0  0
   -5.2210   25.6100  -30.7750 C   0  0  0  0  0  0  0  0  0  0  0  0
   -3.8580   25.3070  -30.5130 O   0  0  0  0  0  0  0  0  0  0  0  0
   -3.6770   24.1840  -29.6600 C   0  0  0  0  0  0  0  0  0  0  0  0
   -4.8090   23.1470  -29.7610 C   0  0  0  0  0  0  0  0  0  0  0  0
   -0.5214   22.1519  -32.1117 H   0  0  0  0  0  0  0  0  0  0  0  0
    0.6000   21.8808  -34.3216 H   0  0  0  0  0  0  0  0  0  0  0  0
    0.0001   19.9669  -35.8024 H   0  0  0  0  0  0  0  0  0  0  0  0
   -1.7267   18.3199  -35.0805 H   0  0  0  0  0  0  0  0  0  0  0  0
   -2.6688   17.3238  -32.5471 H   0  0  0  0  0  0  0  0  0  0  0  0
   -3.6701   18.6551  -31.8732 H   0  0  0  0  0  0  0  0  0  0  0  0
   -8.6579   18.2436  -31.8430 H   0  0  0  0  0  0  0  0  0  0  0  0
   -8.5140   20.6370  -31.3820 H   0  0  0  0  0  0  0  0  0  0  0  0
   -3.7511   21.1614  -33.7564 H   0  0  0  0  0  0  0  0  0  0  0  0
   -6.8439   24.1856  -31.7865 H   0  0  0  0  0  0  0  0  0  0  0  0
   -8.2544   23.0728  -31.9181 H   0  0  0  0  0  0  0  0  0  0  0  0
   -8.1893   23.4230  -29.6153 H   0  0  0  0  0  0  0  0  0  0  0  0
   -7.1501   21.9488  -29.7786 H   0  0  0  0  0  0  0  0  0  0  0  0
   -7.2053   25.4581  -29.9300 H   0  0  0  0  0  0  0  0  0  0  0  0
   -5.8727   25.7212  -28.7273 H   0  0  0  0  0  0  0  0  0  0  0  0
   -5.5224   25.0867  -31.6944 H   0  0  0  0  0  0  0  0  0  0  0  0
   -5.2942   26.7034  -30.8707 H   0  0  0  0  0  0  0  0  0  0  0  0
   -2.7300   23.6926  -29.9277 H   0  0  0  0  0  0  0  0  0  0  0  0
   -3.6746   24.5603  -28.6264 H   0  0  0  0  0  0  0  0  0  0  0  0
   -4.8713   22.7843  -30.7976 H   0  0  0  0  0  0  0  0  0  0  0  0
   -4.5843   22.3195  -29.0720 H   0  0  0  0  0  0  0  0  0  0  0  0
  1  2  1  0
  2  3  2  0
  3  4  1  0
  4  5  2  0
  5  6  1  0
  6  7  2  0
  7  8  1  0
  8  9  1  0
  9 10  1  0
 10 11  2  0
 11 12  1  0
 12 13  2  0
 13 14  1  0
 14 15  2  0
 15 16  1  0
 16 17  2  0
 17 18  1  0
 18 19  1  0
 19 20  1  0
 20 21  1  0
 21 22  1  0
 22 23  1  0
 23 24  1  0
 24 25  1  0
 25 26  1  0
  7  2  1  0
 15 10  1  0
 26 21  1  0
 18 14  1  0
  3 27  1  0
  4 28  1  0
  5 29  1  0
  6 30  1  0
  8 31  1  0
  8 32  1  0
 12 33  1  0
 13 34  1  0
 16 35  1  0
 19 36  1  0
 19 37  1  0
 20 38  1  0
 20 39  1  0
 22 40  1  0
 22 41  1  0
 23 42  1  0
 23 43  1  0
 25 44  1  0
 25 45  1  0
 26 46  1  0
 26 47  1  0
M  CHG  1  13   1
M  END
>  <UniqueID>  (9) 
9

>  <SMILES>  (9) 
Clc1ccccc1CSc1nc[nH+]c2c1cnn2CCN1CCOCC1

>  <Energy>  (9) 
100.56859046525923

>  <Genealogy>  (9) 
Clc1ccccc1CSc1nc[nH+]c2c1cnn2CCN1CCOCC1 (protonated)
Clc1ccccc1CSc1nc[nH+]c2c1cnn2CCN1CCOCC1 (3D coordinates assigned)
Clc1ccccc1CSc1nc[nH+]c2c1cnn2CCN1CCOCC1 (nonaromatic ring conformer: 100.56859046525923 kcal/mol)

>  <smiles>  (9) 
Clc1ccccc1CSc1ncnc2c1cnn2CCN1CCOCC1

>  <score_type>  (9) 
oracle

>  <origin>  (9) 
adg

>  <m_score__min__energy>  (9) 
-8.5299999999999994

>  <m_primary>  (9) 
energy

$$$$
9:0
     RDKit          3D

 61 65  0  0  0  0  0  0  0  0999 V2000
    1.1840   19.8240  -29.4060 N   0  0  0  0  0  0  0  0  0  0  0  0
    1.0560   18.9170  -30.5490 C   0  0  0  0  0  0  0  0  0  0  0  0
   -0.4260   18.5500  -30.7590 C   0  0  0  0  0  0  0  0  0  0  0  0
   -0.5920   17.6650  -31.9970 C   0  0  0  0  0  0  0  0  0  0  0  0
    0.0040   18.3410  -33.1590 N   0  0  0  0  0  0  0  0  0  0  0  0
   -0.7860   18.9060  -34.2370 C   0  0  0  0  0  0  0  0  0  0  0  0
   -0.2090   19.4840  -35.1960 O   0  0  0  0  0  0  0  0  0  0  0  0
   -2.2890   18.8240  -34.2750 C   0  0  0  0  0  0  0  0  0  0  0  0
   -2.8850   19.8630  -33.4400 N   0  0  0  0  0  0  0  0  0  0  0  0
   -2.2490   20.5730  -32.4880 C   0  0  0  0  0  0  0  0  0  0  0  0
   -3.1680   21.4160  -31.9110 C   0  0  0  0  0  0  0  0  0  0  0  0
   -2.8980   22.3360  -30.8440 N   0  0  0  0  0  0  0  0  0  0  0  0
   -1.5770   22.6030  -30.3470 C   0  0  0  0  0  0  0  0  0  0  0  0
   -0.5840   21.9910  -30.8260 O   0  0  0  0  0  0  0  0  0  0  0  0
   -1.3470   23.5800  -29.2690 C   0  0  0  0  0  0  0  0  0  0  0  0
   -0.1230   24.1430  -28.9060 C   0  0  0  0  0  0  0  0  0  0  0  0
   -0.2810   24.9500  -27.8290 N   0  0  0  0  0  0  0  0  0  0  0  0
   -1.5620   24.9010  -27.5030 N   0  0  0  0  0  0  0  0  0  0  0  0
   -2.1600   25.5190  -26.4550 C   0  0  0  0  0  0  0  0  0  0  0  0
   -3.5290   25.2890  -26.2510 C   0  0  0  0  0  0  0  0  0  0  0  0
   -4.2090   24.4270  -27.1340 C   0  0  0  0  0  0  0  0  0  0  0  0
   -3.5490   23.8330  -28.1700 N   0  0  0  0  0  0  0  0  0  0  0  0
   -2.2270   24.0930  -28.3370 C   0  0  0  0  0  0  0  0  0  0  0  0
   -4.3770   21.1390  -32.5380 C   0  0  0  0  0  0  0  0  0  0  0  0
   -5.7200   21.6060  -32.1420 C   0  0  0  0  0  0  0  0  0  0  0  0
   -6.8180   20.7480  -32.3280 C   0  0  0  0  0  0  0  0  0  0  0  0
   -8.1160   21.1850  -32.0560 C   0  0  0  0  0  0  0  0  0  0  0  0
   -9.4690   20.0960  -32.2790 Cl  0  0  0  0  0  0  0  0  0  0  0  0
   -8.3340   22.4890  -31.6110 C   0  0  0  0  0  0  0  0  0  0  0  0
   -7.2540   23.3530  -31.4270 C   0  0  0  0  0  0  0  0  0  0  0  0
   -5.9450   22.9210  -31.6650 C   0  0  0  0  0  0  0  0  0  0  0  0
   -4.9090   23.8260  -31.4090 O   0  0  0  0  0  0  0  0  0  0  0  0
   -5.1020   25.0840  -30.7640 C   0  0  0  0  0  0  0  0  0  0  0  0
   -5.7800   24.8820  -29.5820 F   0  0  0  0  0  0  0  0  0  0  0  0
   -3.8800   25.6670  -30.4830 F   0  0  0  0  0  0  0  0  0  0  0  0
   -4.1710   20.1820  -33.4680 N   0  0  0  0  0  0  0  0  0  0  0  0
    1.4380   18.6420  -33.0410 C   0  0  0  0  0  0  0  0  0  0  0  0
    1.6650   19.5440  -31.8260 C   0  0  0  0  0  0  0  0  0  0  0  0
    0.7180   20.7350  -29.6300 H   0  0  0  0  0  0  0  0  0  0  0  0
    2.2000   20.0250  -29.2510 H   0  0  0  0  0  0  0  0  0  0  0  0
    1.6190   17.9961  -30.3369 H   0  0  0  0  0  0  0  0  0  0  0  0
   -0.7928   18.0076  -29.8751 H   0  0  0  0  0  0  0  0  0  0  0  0
   -1.0031   19.4751  -30.9046 H   0  0  0  0  0  0  0  0  0  0  0  0
   -0.0855   16.7026  -31.8317 H   0  0  0  0  0  0  0  0  0  0  0  0
   -1.6614   17.4861  -32.1823 H   0  0  0  0  0  0  0  0  0  0  0  0
   -2.6314   18.9540  -35.3122 H   0  0  0  0  0  0  0  0  0  0  0  0
   -2.5989   17.8410  -33.8906 H   0  0  0  0  0  0  0  0  0  0  0  0
   -1.1850   20.4924  -32.2206 H   0  0  0  0  0  0  0  0  0  0  0  0
   -3.7220   22.7380  -30.3480 H   0  0  0  0  0  0  0  0  0  0  0  0
    0.8320   23.9584  -29.4198 H   0  0  0  0  0  0  0  0  0  0  0  0
   -1.5899   26.1800  -25.7856 H   0  0  0  0  0  0  0  0  0  0  0  0
   -4.0609   25.7721  -25.4181 H   0  0  0  0  0  0  0  0  0  0  0  0
   -5.2814   24.2312  -26.9869 H   0  0  0  0  0  0  0  0  0  0  0  0
   -6.6531   19.7229  -32.6912 H   0  0  0  0  0  0  0  0  0  0  0  0
   -9.3573   22.8361  -31.4052 H   0  0  0  0  0  0  0  0  0  0  0  0
   -7.4338   24.3849  -31.0912 H   0  0  0  0  0  0  0  0  0  0  0  0
   -5.6767   25.7459  -31.4286 H   0  0  0  0  0  0  0  0  0  0  0  0
    2.0012   17.7056  -32.9143 H   0  0  0  0  0  0  0  0  0  0  0  0
    1.7840   19.1541  -33.9510 H   0  0  0  0  0  0  0  0  0  0  0  0
    2.7461   19.6831  -31.6781 H   0  0  0  0  0  0  0  0  0  0  0  0
    1.1739   20.5109  -32.0104 H   0  0  0  0  0  0  0  0  0  0  0  0
  1  2  1  0
  2  3  1  0
  3  4  1  0
  4  5  1  0
  5  6  1  0
  6  7  2  0
  6  8  1  0
  8  9  1  0
  9 10  1  0
 10 11  2  0
 11 12  1  0
 12 13  1  0
 13 14  2  0
 13 15  1  0
 15 16  1  0
 16 17  2  0
 17 18  1  0
 18 19  1  0
 19 20  2  0
 20 21  1  0
 21 22  2  0
 22 23  1  0
 11 24  1  0
 24 25  1  0
 25 26  2  0
 26 27  1  0
 27 28  1  0
 27 29  2  0
 29 30  1  0
 30 31  2  0
 31 32  1  0
 32 33  1  0
 33 34  1  0
 33 35  1  0
 24 36  2  0
  5 37  1  0
 37 38  1  0
 38  2  1  0
 36  9  1  0
 23 15  2  0
 31 25  1  0
 23 18  1  0
  1 39  1  0
  1 40  1  0
  2 41  1  0
  3 42  1  0
  3 43  1  0
  4 44  1  0
  4 45  1  0
  8 46  1  0
  8 47  1  0
 10 48  1  0
 12 49  1  0
 16 50  1  0
 19 51  1  0
 20 52  1  0
 21 53  1  0
 26 54  1  0
 29 55  1  0
 30 56  1  0
 33 57  1  0
 37 58  1  0
 37 59  1  0
 38 60  1  0
 38 61  1  0
M  END
>  <UniqueID>  (10) 
10

>  <SMILES>  (10) 
NC1CCN(C(=O)Cn2cc(NC(=O)c3cnn4cccnc34)c(-c3cc(Cl)ccc3OC(F)F)n2)CC1

>  <Energy>  (10) 
143.8184403918594

>  <Genealogy>  (10) 
NC1CCN(C(=O)Cn2cc(NC(=O)c3cnn4cccnc34)c(-c3cc(Cl)ccc3OC(F)F)n2)CC1 (3D coordinates assigned)
NC1CCN(C(=O)Cn2cc(NC(=O)c3cnn4cccnc34)c(-c3cc(Cl)ccc3OC(F)F)n2)CC1 (nonaromatic ring conformer: 143.8184403918594 kcal/mol)

>  <smiles>  (10) 
NC1CCN(C(=O)Cn2cc(NC(=O)c3cnn4cccnc34)c(-c3cc(Cl)ccc3OC(F)F)n2)CC1

>  <score_type>  (10) 
oracle

>  <origin>  (10) 
adg

>  <m_score__min__energy>  (10) 
-10.199999999999999

>  <m_primary>  (10) 
energy

$$$$
10:0
     RDKit          3D

 30 32  0  0  0  0  0  0  0  0999 V2000
   -6.1700   15.8460  -34.2160 C   0  0  0  0  0  0  0  0  0  0  0  0
   -6.3940   17.2220  -33.6630 C   0  0  0  0  0  0  0  0  0  0  0  0
   -5.7240   18.3230  -34.2140 C   0  0  0  0  0  0  0  0  0  0  0  0
   -5.9020   19.6010  -33.6760 C   0  0  0  0  0  0  0  0  0  0  0  0
   -6.7410   19.7970  -32.5630 C   0  0  0  0  0  0  0  0  0  0  0  0
   -6.9480   21.1480  -31.9830 C   0  0  0  0  0  0  0  0  0  0  0  0
   -5.8980   21.8520  -31.6530 N   0  0  0  0  0  0  0  0  0  0  0  0
   -6.0100   23.1320  -31.0880 N   0  0  0  0  0  0  0  0  0  0  0  0
   -7.1220   23.8680  -31.0450 C   0  0  0  0  0  0  0  0  0  0  0  0
   -6.9960   24.9130  -30.2030 N   0  0  0  0  0  0  0  0  0  0  0  0
   -5.7630   24.8340  -29.7180 N   0  0  0  0  0  0  0  0  0  0  0  0
   -5.1620   23.7530  -30.2570 C   0  0  0  0  0  0  0  0  0  0  0  0
   -3.8320   23.2220  -29.8330 C   0  0  0  0  0  0  0  0  0  0  0  0
   -8.5830   23.4240  -31.9610 S   0  0  0  0  0  0  0  0  0  0  0  0
   -8.3470   21.6370  -31.6290 C   0  0  0  0  0  0  0  0  0  0  0  0
   -7.4040   18.6860  -32.0100 C   0  0  0  0  0  0  0  0  0  0  0  0
   -7.2240   17.4090  -32.5490 C   0  0  0  0  0  0  0  0  0  0  0  0
   -6.0538   15.1322  -33.3872 H   0  0  0  0  0  0  0  0  0  0  0  0
   -7.0324   15.5540  -34.8332 H   0  0  0  0  0  0  0  0  0  0  0  0
   -5.2595   15.8426  -34.8332 H   0  0  0  0  0  0  0  0  0  0  0  0
   -5.0542   18.1806  -35.0748 H   0  0  0  0  0  0  0  0  0  0  0  0
   -5.3824   20.4599  -34.1259 H   0  0  0  0  0  0  0  0  0  0  0  0
   -5.3620   25.4860  -29.0060 H   0  0  0  0  0  0  0  0  0  0  0  0
   -3.7789   23.2008  -28.7345 H   0  0  0  0  0  0  0  0  0  0  0  0
   -3.7018   22.2029  -30.2261 H   0  0  0  0  0  0  0  0  0  0  0  0
   -3.0357   23.8712  -30.2261 H   0  0  0  0  0  0  0  0  0  0  0  0
   -8.5230   21.4525  -30.5590 H   0  0  0  0  0  0  0  0  0  0  0  0
   -9.0590   21.0868  -32.2617 H   0  0  0  0  0  0  0  0  0  0  0  0
   -8.0701   18.8237  -31.1455 H   0  0  0  0  0  0  0  0  0  0  0  0
   -7.7360   16.5468  -32.0969 H   0  0  0  0  0  0  0  0  0  0  0  0
  1  2  1  0
  2  3  2  0
  3  4  1  0
  4  5  2  0
  5  6  1  0
  6  7  2  0
  7  8  1  0
  8  9  1  0
  9 10  2  0
 10 11  1  0
 11 12  2  0
 12 13  1  0
  9 14  1  0
 14 15  1  0
  5 16  1  0
 16 17  2  0
 17  2  1  0
 15  6  1  0
 12  8  1  0
  1 18  1  0
  1 19  1  0
  1 20  1  0
  3 21  1  0
  4 22  1  0
 11 23  1  0
 13 24  1  0
 13 25  1  0
 13 26  1  0
 15 27  1  0
 15 28  1  0
 16 29  1  0
 17 30  1  0
M  CHG  1  11   1
M  END
>  <UniqueID>  (11) 
11

>  <SMILES>  (11) 
Cc1ccc(C2=Nn3c(n[nH+]c3C)SC2)cc1

>  <Energy>  (11) 
77.19641007579625

>  <Genealogy>  (11) 
Cc1ccc(C2=Nn3c(n[nH+]c3C)SC2)cc1 (protonated)
Cc1ccc(C2=Nn3c(n[nH+]c3C)SC2)cc1 (3D coordinates assigned)
Cc1ccc(C2=Nn3c(n[nH+]c3C)SC2)cc1 (nonaromatic ring conformer: 77.19641007579625 kcal/mol)

>  <smiles>  (11) 
Cc1ccc(C2=Nn3c(C)nnc3SC2)cc1

>  <score_type>  (11) 
oracle

>  <origin>  (11) 
adg

>  <m_score__min__energy>  (11) 
-7.2000000000000002

>  <m_primary>  (11) 
energy

$$$$
11:0
     RDKit          3D

 35 37  0  0  0  0  0  0  0  0999 V2000
   -8.8827   20.2983  -32.6185 H   0  0  0  0  0  0  0  0  0  0  0  0
   -8.1010   20.9740  -32.2410 C   0  0  0  0  0  0  0  0  0  0  0  0
   -6.8320   20.8770  -32.7170 N   0  0  0  0  0  0  0  0  0  0  0  0
   -5.8500   21.6940  -32.2560 C   0  0  0  0  0  0  0  0  0  0  0  0
   -4.8307   21.6086  -32.6606 H   0  0  0  0  0  0  0  0  0  0  0  0
   -6.1310   22.6440  -31.2680 C   0  0  0  0  0  0  0  0  0  0  0  0
   -5.0680   23.5450  -30.7750 C   0  0  0  0  0  0  0  0  0  0  0  0
   -4.8950   24.8130  -31.2210 N   0  0  0  0  0  0  0  0  0  0  0  0
   -3.8660   25.3650  -30.5860 N   0  0  0  0  0  0  0  0  0  0  0  0
   -3.3780   24.4420  -29.7390 C   0  0  0  0  0  0  0  0  0  0  0  0
   -2.2880   24.5680  -28.8850 C   0  0  0  0  0  0  0  0  0  0  0  0
   -1.7245   25.5098  -28.8102 H   0  0  0  0  0  0  0  0  0  0  0  0
   -1.9320   23.4280  -28.1120 C   0  0  0  0  0  0  0  0  0  0  0  0
   -0.9380   23.4250  -27.2660 N   0  0  0  0  0  0  0  0  0  0  0  0
    0.3840   23.9640  -27.4100 C   0  0  0  0  0  0  0  0  0  0  0  0
    0.7940   24.3990  -28.5200 O   0  0  0  0  0  0  0  0  0  0  0  0
    1.2690   23.9270  -26.2860 N   0  0  0  0  0  0  0  0  0  0  0  0
    0.8170   23.8770  -24.9000 C   0  0  0  0  0  0  0  0  0  0  0  0
    1.6797   23.6842  -24.2453 H   0  0  0  0  0  0  0  0  0  0  0  0
    0.0743   23.0720  -24.7984 H   0  0  0  0  0  0  0  0  0  0  0  0
    0.1680   25.1980  -24.4980 C   0  0  0  0  0  0  0  0  0  0  0  0
    0.6231   26.0212  -25.0683 H   0  0  0  0  0  0  0  0  0  0  0  0
    0.3213   25.3756  -23.4233 H   0  0  0  0  0  0  0  0  0  0  0  0
   -1.2150   25.1350  -24.7790 O   0  0  0  0  0  0  0  0  0  0  0  0
   -1.6380   26.3670  -25.3190 C   0  0  0  0  0  0  0  0  0  0  0  0
   -1.8770   27.0630  -24.5014 H   0  0  0  0  0  0  0  0  0  0  0  0
   -0.8340   26.7912  -25.9384 H   0  0  0  0  0  0  0  0  0  0  0  0
   -2.5330   26.2079  -25.9384 H   0  0  0  0  0  0  0  0  0  0  0  0
   -2.6720   22.2790  -28.2380 N   0  0  0  0  0  0  0  0  0  0  0  0
   -3.7410   22.1710  -29.0800 C   0  0  0  0  0  0  0  0  0  0  0  0
   -4.3037   21.2296  -29.1649 H   0  0  0  0  0  0  0  0  0  0  0  0
   -4.0960   23.2890  -29.8270 C   0  0  0  0  0  0  0  0  0  0  0  0
   -7.4530   22.7390  -30.8090 C   0  0  0  0  0  0  0  0  0  0  0  0
   -7.7189   23.4903  -30.0508 H   0  0  0  0  0  0  0  0  0  0  0  0
   -8.4050   21.9040  -31.3000 N   0  0  0  0  0  0  0  0  0  0  0  0
  1  2  1  0
  2  3  2  0
  3  4  1  0
  4  5  1  0
  4  6  2  0
  6  7  1  0
  7  8  2  0
  8  9  1  0
  9 10  1  0
 10 11  2  0
 11 12  1  0
 11 13  1  0
 13 14  2  0
 14 15  1  0
 15 16  2  0
 15 17  1  0
 17 18  1  0
 18 19  1  0
 18 20  1  0
 18 21  1  0
 21 22  1  0
 21 23  1  0
 21 24  1  0
 24 25  1  0
 25 26  1  0
 25 27  1  0
 25 28  1  0
 13 29  1  0
 29 30  1  0
 30 31  1  0
 30 32  2  0
  6 33  1  0
 33 34  1  0
 33 35  2  0
 35  2  1  0
 32  7  1  0
 32 10  1  0
M  CHG  3   9  -1  17  -1  29  -1
M  END
>  <UniqueID>  (12) 
12

>  <SMILES>  (12) 
COCC[N-]C(=O)/N=c1\cc2[n-]nc(-c3cncnc3)c2c[n-]1

>  <Energy>  (12) 
86.4898356449782

>  <Genealogy>  (12) 
COCC[N-]C(=O)N=c1cc2[n-]nc(-c3cncnc3)c2c[n-]1 (protonated)
COCC[N-]C(=O)/N=c1\cc2[n-]nc(-c3cncnc3)c2c[n-]1 (cis-trans isomerization)
COCC[N-]C(=O)/N=c1\cc2[n-]nc(-c3cncnc3)c2c[n-]1 (3D coordinates assigned)
COCC[N-]C(=O)/N=c1\cc2[n-]nc(-c3cncnc3)c2c[n-]1 (optimized conformer: 86.4898356449782 kcal/mol)

>  <smiles>  (12) 
COCCNC(=O)N=c1cc2[nH]nc(-c3cncnc3)c2c[nH]1

>  <score_type>  (12) 
oracle

>  <origin>  (12) 
adg

>  <m_score__min__energy>  (12) 
-8.6099999999999994

>  <m_primary>  (12) 
energy

$$$$
12:0
     RDKit          3D

 71 74  0  0  0  0  0  0  0  0999 V2000
   -4.1730   21.9880  -30.2100 C   0  0  0  0  0  0  0  0  0  0  0  0
   -4.0590   22.9900  -31.3570 C   0  0  0  0  0  0  0  0  0  0  0  0
   -5.0150   24.1040  -31.1830 N   0  0  0  0  0  0  0  0  0  0  0  0
   -5.1390   24.5870  -29.7900 C   0  0  0  0  0  0  0  0  0  0  0  0
   -6.1120   25.7570  -29.6260 C   0  0  0  0  0  0  0  0  0  0  0  0
   -6.2970   24.0170  -31.9290 C   0  0  0  0  0  0  0  0  0  0  0  0
   -7.4720   23.4040  -31.1320 C   0  0  0  0  0  0  0  0  0  0  0  0
   -8.7320   23.2650  -31.9990 C   0  0  0  0  0  0  0  0  0  0  0  0
   -9.2950   21.9150  -31.9150 N   0  0  0  0  0  0  0  0  0  0  0  0
   -8.5270   20.7200  -32.1500 C   0  0  0  0  0  0  0  0  0  0  0  0
   -9.1010   19.4250  -32.0190 C   0  0  0  0  0  0  0  0  0  0  0  0
   -8.3280   18.2700  -32.2290 C   0  0  0  0  0  0  0  0  0  0  0  0
   -6.9880   18.4290  -32.5720 C   0  0  0  0  0  0  0  0  0  0  0  0
   -6.4230   19.6830  -32.7120 C   0  0  0  0  0  0  0  0  0  0  0  0
   -7.1670   20.8430  -32.5090 C   0  0  0  0  0  0  0  0  0  0  0  0
   -5.0110   19.5180  -33.0630 C   0  0  0  0  0  0  0  0  0  0  0  0
   -4.0320   20.4740  -33.3290 C   0  0  0  0  0  0  0  0  0  0  0  0
   -2.7400   20.0270  -33.6550 C   0  0  0  0  0  0  0  0  0  0  0  0
   -2.4370   18.6440  -33.6890 C   0  0  0  0  0  0  0  0  0  0  0  0
   -1.1060   18.2280  -34.0330 N   0  0  0  0  0  0  0  0  0  0  0  0
   -0.8110   17.3340  -35.1200 C   0  0  0  0  0  0  0  0  0  0  0  0
   -1.7410   16.7500  -35.7390 O   0  0  0  0  0  0  0  0  0  0  0  0
    0.6110   17.0620  -35.5140 C   0  0  0  0  0  0  0  0  0  0  0  0
    1.5460   18.1380  -34.9470 C   0  0  0  0  0  0  0  0  0  0  0  0
    0.8960   19.4680  -34.9610 N   0  0  0  0  0  0  0  0  0  0  0  0
    1.2110   20.2090  -33.7250 C   0  0  0  0  0  0  0  0  0  0  0  0
    0.3890   21.5110  -33.6550 C   0  0  0  0  0  0  0  0  0  0  0  0
   -0.0660   21.9720  -34.9770 N   0  0  0  0  0  0  0  0  0  0  0  0
    0.9680   21.7570  -35.9950 C   0  0  0  0  0  0  0  0  0  0  0  0
    1.2970   20.2570  -36.1510 C   0  0  0  0  0  0  0  0  0  0  0  0
   -3.4540   17.6970  -33.4330 C   0  0  0  0  0  0  0  0  0  0  0  0
   -4.7300   18.1640  -33.1220 C   0  0  0  0  0  0  0  0  0  0  0  0
   -5.9550   17.4280  -32.8210 C   0  0  0  0  0  0  0  0  0  0  0  0
   -6.0890   16.1760  -32.7760 O   0  0  0  0  0  0  0  0  0  0  0  0
   -4.1123   22.5213  -29.2498 H   0  0  0  0  0  0  0  0  0  0  0  0
   -5.1368   21.4620  -30.2770 H   0  0  0  0  0  0  0  0  0  0  0  0
   -3.3520   21.2590  -30.2770 H   0  0  0  0  0  0  0  0  0  0  0  0
   -3.0362   23.3940  -31.3816 H   0  0  0  0  0  0  0  0  0  0  0  0
   -4.2912   22.4724  -32.2994 H   0  0  0  0  0  0  0  0  0  0  0  0
   -5.4902   23.7535  -29.1639 H   0  0  0  0  0  0  0  0  0  0  0  0
   -4.1461   24.9514  -29.4878 H   0  0  0  0  0  0  0  0  0  0  0  0
   -6.2740   25.9518  -28.5556 H   0  0  0  0  0  0  0  0  0  0  0  0
   -5.6901   26.6543  -30.1023 H   0  0  0  0  0  0  0  0  0  0  0  0
   -7.0712   25.5057  -30.1023 H   0  0  0  0  0  0  0  0  0  0  0  0
   -6.5846   25.0338  -32.2345 H   0  0  0  0  0  0  0  0  0  0  0  0
   -6.1150   23.3430  -32.7790 H   0  0  0  0  0  0  0  0  0  0  0  0
   -7.1765   22.4083  -30.7696 H   0  0  0  0  0  0  0  0  0  0  0  0
   -7.7048   24.0749  -30.2919 H   0  0  0  0  0  0  0  0  0  0  0  0
   -9.4852   23.9885  -31.6537 H   0  0  0  0  0  0  0  0  0  0  0  0
   -8.4541   23.4587  -33.0455 H   0  0  0  0  0  0  0  0  0  0  0  0
  -10.3130   21.8040  -31.7000 H   0  0  0  0  0  0  0  0  0  0  0  0
  -10.1630   19.3263  -31.7500 H   0  0  0  0  0  0  0  0  0  0  0  0
   -8.7696   17.2679  -32.1252 H   0  0  0  0  0  0  0  0  0  0  0  0
   -6.7046   21.8342  -32.6259 H   0  0  0  0  0  0  0  0  0  0  0  0
   -4.2642   21.5483  -33.2850 H   0  0  0  0  0  0  0  0  0  0  0  0
   -1.9540   20.7608  -33.8867 H   0  0  0  0  0  0  0  0  0  0  0  0
   -0.3240   18.5350  -33.4150 H   0  0  0  0  0  0  0  0  0  0  0  0
    0.9124   16.0791  -35.1228 H   0  0  0  0  0  0  0  0  0  0  0  0
    0.6824   17.0741  -36.6116 H   0  0  0  0  0  0  0  0  0  0  0  0
    1.8082   17.8769  -33.9111 H   0  0  0  0  0  0  0  0  0  0  0  0
    2.4487   18.1830  -35.5739 H   0  0  0  0  0  0  0  0  0  0  0  0
    0.9702   19.5810  -32.8546 H   0  0  0  0  0  0  0  0  0  0  0  0
    2.2814   20.4623  -33.7237 H   0  0  0  0  0  0  0  0  0  0  0  0
   -0.4930   21.3358  -33.0215 H   0  0  0  0  0  0  0  0  0  0  0  0
    1.0423   22.2923  -33.2394 H   0  0  0  0  0  0  0  0  0  0  0  0
   -0.9220   21.4300  -35.2490 H   0  0  0  0  0  0  0  0  0  0  0  0
    0.6089   22.1473  -36.9587 H   0  0  0  0  0  0  0  0  0  0  0  0
    1.8814   22.2821  -35.6789 H   0  0  0  0  0  0  0  0  0  0  0  0
    0.7637   19.8671  -37.0305 H   0  0  0  0  0  0  0  0  0  0  0  0
    2.3865   20.1610  -36.2679 H   0  0  0  0  0  0  0  0  0  0  0  0
   -3.2440   16.6182  -33.4780 H   0  0  0  0  0  0  0  0  0  0  0  0
  1  2  1  0
  2  3  1  0
  3  4  1  0
  4  5  1  0
  3  6  1  0
  6  7  1  0
  7  8  1  0
  8  9  1  0
  9 10  1  0
 10 11  2  0
 11 12  1  0
 12 13  2  0
 13 14  1  0
 14 15  2  0
 14 16  1  0
 16 17  2  0
 17 18  1  0
 18 19  2  0
 19 20  1  0
 20 21  1  0
 21 22  2  0
 21 23  1  0
 23 24  1  0
 24 25  1  0
 25 26  1  0
 26 27  1  0
 27 28  1  0
 28 29  1  0
 29 30  1  0
 19 31  1  0
 31 32  2  0
 32 33  1  0
 33 34  2  0
 15 10  1  0
 32 16  1  0
 33 13  1  0
 30 25  1  0
  1 35  1  0
  1 36  1  0
  1 37  1  0
  2 38  1  0
  2 39  1  0
  4 40  1  0
  4 41  1  0
  5 42  1  0
  5 43  1  0
  5 44  1  0
  6 45  1  0
  6 46  1  0
  7 47  1  0
  7 48  1  0
  8 49  1  0
  8 50  1  0
  9 51  1  0
 11 52  1  0
 12 53  1  0
 15 54  1  0
 17 55  1  0
 18 56  1  0
 20 57  1  0
 23 58  1  0
 23 59  1  0
 24 60  1  0
 24 61  1  0
 26 62  1  0
 26 63  1  0
 27 64  1  0
 27 65  1  0
 28 66  1  0
 29 67  1  0
 29 68  1  0
 30 69  1  0
 30 70  1  0
 31 71  1  0
M  END
>  <UniqueID>  (13) 
13

>  <SMILES>  (13) 
CCN(CC)CCCNc1ccc2c(c1)-c1ccc(NC(=O)CCN3CCNCC3)cc1C2=O

>  <Energy>  (13) 
117.30069243773163

>  <Genealogy>  (13) 
CCN(CC)CCCNc1ccc2c(c1)-c1ccc(NC(=O)CCN3CCNCC3)cc1C2=O (3D coordinates assigned)
CCN(CC)CCCNc1ccc2c(c1)-c1ccc(NC(=O)CCN3CCNCC3)cc1C2=O (nonaromatic ring conformer: 117.30069243773163 kcal/mol)

>  <smiles>  (13) 
CCN(CC)CCCNc1ccc2c(c1)-c1ccc(NC(=O)CCN3CCNCC3)cc1C2=O

>  <score_type>  (13) 
oracle

>  <origin>  (13) 
adg

>  <m_score__min__energy>  (13) 
-9.7699999999999996

>  <m_primary>  (13) 
energy

$$$$
13:0
     RDKit          3D

 33 35  0  0  0  0  0  0  0  0999 V2000
   -9.2855   21.8664  -30.7150 H   0  0  0  0  0  0  0  0  0  0  0  0
   -8.4270   21.5180  -31.3080 C   0  0  0  0  0  0  0  0  0  0  0  0
   -8.3890   20.1980  -31.7660 C   0  0  0  0  0  0  0  0  0  0  0  0
   -9.2185   19.5138  -31.5340 H   0  0  0  0  0  0  0  0  0  0  0  0
   -7.2980   19.7420  -32.5200 C   0  0  0  0  0  0  0  0  0  0  0  0
   -7.2420   18.3160  -32.9810 C   0  0  0  0  0  0  0  0  0  0  0  0
   -7.2158   17.6488  -32.1068 H   0  0  0  0  0  0  0  0  0  0  0  0
   -8.1320   18.0914  -33.5871 H   0  0  0  0  0  0  0  0  0  0  0  0
   -6.3371   18.1619  -33.5871 H   0  0  0  0  0  0  0  0  0  0  0  0
   -6.2270   20.6110  -32.7760 C   0  0  0  0  0  0  0  0  0  0  0  0
   -5.3533   20.2520  -33.3397 H   0  0  0  0  0  0  0  0  0  0  0  0
   -6.2650   21.9310  -32.3180 C   0  0  0  0  0  0  0  0  0  0  0  0
   -5.4198   22.6052  -32.5209 H   0  0  0  0  0  0  0  0  0  0  0  0
   -7.3770   22.4010  -31.6000 C   0  0  0  0  0  0  0  0  0  0  0  0
   -7.4470   23.7600  -31.1320 N   0  0  0  0  0  0  0  0  0  0  0  0
   -8.3840   24.2200  -31.0960 H   0  0  0  0  0  0  0  0  0  0  0  0
   -6.3040   24.5330  -30.7260 C   0  0  0  0  0  0  0  0  0  0  0  0
   -6.4830   25.6710  -29.5680 S   0  0  0  0  0  0  0  0  0  0  0  0
   -4.9850   24.2490  -31.2130 N   0  0  0  0  0  0  0  0  0  0  0  0
   -3.9300   24.0340  -30.4830 C   0  0  0  0  0  0  0  0  0  0  0  0
   -2.9080   22.7070  -30.7110 S   0  0  0  0  0  0  0  0  0  0  0  0
   -1.9030   23.1770  -29.4490 C   0  0  0  0  0  0  0  0  0  0  0  0
   -0.7480   22.5560  -28.9800 C   0  0  0  0  0  0  0  0  0  0  0  0
   -0.3747   21.6315  -29.4448 H   0  0  0  0  0  0  0  0  0  0  0  0
   -0.0730   23.1430  -27.8970 C   0  0  0  0  0  0  0  0  0  0  0  0
    0.8437   22.6772  -27.5061 H   0  0  0  0  0  0  0  0  0  0  0  0
   -0.5640   24.3250  -27.3090 C   0  0  0  0  0  0  0  0  0  0  0  0
   -0.0283   24.7762  -26.4608 H   0  0  0  0  0  0  0  0  0  0  0  0
   -1.7330   24.9320  -27.7980 C   0  0  0  0  0  0  0  0  0  0  0  0
   -2.1204   25.8538  -27.3395 H   0  0  0  0  0  0  0  0  0  0  0  0
   -2.3940   24.3410  -28.8790 C   0  0  0  0  0  0  0  0  0  0  0  0
   -3.5310   24.8190  -29.4460 N   0  0  0  0  0  0  0  0  0  0  0  0
   -4.0370   25.6620  -29.0950 H   0  0  0  0  0  0  0  0  0  0  0  0
  1  2  1  0
  2  3  2  0
  3  4  1  0
  3  5  1  0
  5  6  1  0
  6  7  1  0
  6  8  1  0
  6  9  1  0
  5 10  2  0
 10 11  1  0
 10 12  1  0
 12 13  1  0
 12 14  2  0
 14 15  1  0
 15 16  1  0
 15 17  1  0
 17 18  2  0
 17 19  1  0
 19 20  2  0
 20 21  1  0
 21 22  1  0
 22 23  2  0
 23 24  1  0
 23 25  1  0
 25 26  1  0
 25 27  2  0
 27 28  1  0
 27 29  1  0
 29 30  1  0
 29 31  2  0
 31 32  1  0
 32 33  1  0
 14  2  1  0
 32 20  1  0
 31 22  1  0
M  END
>  <UniqueID>  (14) 
14

>  <SMILES>  (14) 
Cc1ccc(NC(=S)/N=c2\[nH]c3ccccc3s2)cc1

>  <Energy>  (14) 
77.28742575521777

>  <Genealogy>  (14) 
Cc1ccc(NC(=S)/N=c2\[nH]c3ccccc3s2)cc1 (cis-trans isomerization)
Cc1ccc(NC(=S)/N=c2\[nH]c3ccccc3s2)cc1 (3D coordinates assigned)
Cc1ccc(NC(=S)/N=c2\[nH]c3ccccc3s2)cc1 (optimized conformer: 77.28742575521777 kcal/mol)

>  <smiles>  (14) 
Cc1ccc(NC(=S)N=c2[nH]c3ccccc3s2)cc1

>  <score_type>  (14) 
oracle

>  <origin>  (14) 
adg

>  <m_score__min__energy>  (14) 
-8.4499999999999993

>  <m_primary>  (14) 
energy

$$$$
14:0
     RDKit          3D

 54 57  0  0  0  0  0  0  0  0999 V2000
   -3.0600   25.2700  -26.0600 C   0  0  0  0  0  0  0  0  0  0  0  0
   -4.1690   24.5940  -26.6440 O   0  0  0  0  0  0  0  0  0  0  0  0
   -4.1210   23.8980  -27.8610 C   0  0  0  0  0  0  0  0  0  0  0  0
   -3.5620   22.6160  -27.8740 C   0  0  0  0  0  0  0  0  0  0  0  0
   -3.4990   21.8800  -29.0610 C   0  0  0  0  0  0  0  0  0  0  0  0
   -4.0090   22.4140  -30.2540 C   0  0  0  0  0  0  0  0  0  0  0  0
   -3.9740   21.6610  -31.4780 N   0  0  0  0  0  0  0  0  0  0  0  0
   -2.8440   21.2370  -32.0240 N   0  0  0  0  0  0  0  0  0  0  0  0
   -3.1630   20.5270  -33.1240 C   0  0  0  0  0  0  0  0  0  0  0  0
   -2.1490   19.9450  -34.0690 C   0  0  0  0  0  0  0  0  0  0  0  0
   -0.7710   20.3890  -33.7440 N   0  0  0  0  0  0  0  0  0  0  0  0
    0.1920   19.2580  -33.8460 C   0  0  0  0  0  0  0  0  0  0  0  0
    1.6430   19.7290  -33.9660 C   0  0  0  0  0  0  0  0  0  0  0  0
    1.9670   20.4970  -35.5970 S   0  0  0  0  0  0  0  0  0  0  0  0
    0.2950   21.1860  -35.8860 C   0  0  0  0  0  0  0  0  0  0  0  0
   -0.3920   21.5690  -34.5700 C   0  0  0  0  0  0  0  0  0  0  0  0
   -4.5330   20.5060  -33.2960 C   0  0  0  0  0  0  0  0  0  0  0  0
   -5.0190   21.2450  -32.2360 C   0  0  0  0  0  0  0  0  0  0  0  0
   -6.4410   21.5990  -32.0370 C   0  0  0  0  0  0  0  0  0  0  0  0
   -6.8560   22.9180  -32.2840 C   0  0  0  0  0  0  0  0  0  0  0  0
   -8.1950   23.2790  -32.1280 C   0  0  0  0  0  0  0  0  0  0  0  0
   -9.1310   22.3310  -31.7170 C   0  0  0  0  0  0  0  0  0  0  0  0
   -8.7310   21.0210  -31.4470 C   0  0  0  0  0  0  0  0  0  0  0  0
   -7.3790   20.6430  -31.5900 C   0  0  0  0  0  0  0  0  0  0  0  0
   -6.9330   19.3450  -31.2840 O   0  0  0  0  0  0  0  0  0  0  0  0
   -7.2040   18.1720  -32.0460 C   0  0  0  0  0  0  0  0  0  0  0  0
   -6.8740   18.3790  -33.3730 F   0  0  0  0  0  0  0  0  0  0  0  0
   -6.4890   17.1010  -31.5420 F   0  0  0  0  0  0  0  0  0  0  0  0
   -8.5520   17.8860  -31.9620 F   0  0  0  0  0  0  0  0  0  0  0  0
   -4.5480   23.7100  -30.2490 C   0  0  0  0  0  0  0  0  0  0  0  0
   -4.6120   24.4450  -29.0620 C   0  0  0  0  0  0  0  0  0  0  0  0
   -3.1376   25.2227  -24.9638 H   0  0  0  0  0  0  0  0  0  0  0  0
   -2.1254   24.7878  -26.3826 H   0  0  0  0  0  0  0  0  0  0  0  0
   -3.0603   26.3216  -26.3826 H   0  0  0  0  0  0  0  0  0  0  0  0
   -3.1686   22.1831  -26.9424 H   0  0  0  0  0  0  0  0  0  0  0  0
   -3.0472   20.8770  -29.0596 H   0  0  0  0  0  0  0  0  0  0  0  0
   -2.1932   18.8477  -34.0063 H   0  0  0  0  0  0  0  0  0  0  0  0
   -2.3892   20.2942  -35.0841 H   0  0  0  0  0  0  0  0  0  0  0  0
   -0.7740   20.7120  -32.7460 H   0  0  0  0  0  0  0  0  0  0  0  0
    0.0979   18.6330  -32.9457 H   0  0  0  0  0  0  0  0  0  0  0  0
   -0.0517   18.6945  -34.7587 H   0  0  0  0  0  0  0  0  0  0  0  0
    1.8454   20.4678  -33.1765 H   0  0  0  0  0  0  0  0  0  0  0  0
    2.2999   18.8531  -33.8605 H   0  0  0  0  0  0  0  0  0  0  0  0
    0.3824   22.0825  -36.5173 H   0  0  0  0  0  0  0  0  0  0  0  0
   -0.3142   20.4153  -36.3809 H   0  0  0  0  0  0  0  0  0  0  0  0
    0.2957   22.1986  -33.9863 H   0  0  0  0  0  0  0  0  0  0  0  0
   -1.3198   22.1012  -34.8270 H   0  0  0  0  0  0  0  0  0  0  0  0
   -5.1061   20.0131  -34.0951 H   0  0  0  0  0  0  0  0  0  0  0  0
   -6.1206   23.6715  -32.6025 H   0  0  0  0  0  0  0  0  0  0  0  0
   -8.5123   24.3128  -32.3296 H   0  0  0  0  0  0  0  0  0  0  0  0
  -10.1875   22.6160  -31.6052 H   0  0  0  0  0  0  0  0  0  0  0  0
   -9.4744   20.2788  -31.1207 H   0  0  0  0  0  0  0  0  0  0  0  0
   -4.9224   24.1499  -31.1851 H   0  0  0  0  0  0  0  0  0  0  0  0
   -5.0478   25.4550  -29.0660 H   0  0  0  0  0  0  0  0  0  0  0  0
  1  2  1  0
  2  3  1  0
  3  4  2  0
  4  5  1  0
  5  6  2  0
  6  7  1  0
  7  8  1  0
  8  9  2  0
  9 10  1  0
 10 11  1  0
 11 12  1  0
 12 13  1  0
 13 14  1  0
 14 15  1  0
 15 16  1  0
  9 17  1  0
 17 18  2  0
 18 19  1  0
 19 20  2  0
 20 21  1  0
 21 22  2  0
 22 23  1  0
 23 24  2  0
 24 25  1  0
 25 26  1  0
 26 27  1  0
 26 28  1  0
 26 29  1  0
  6 30  1  0
 30 31  2  0
 31  3  1  0
 18  7  1  0
 24 19  1  0
 16 11  1  0
  1 32  1  0
  1 33  1  0
  1 34  1  0
  4 35  1  0
  5 36  1  0
 10 37  1  0
 10 38  1  0
 11 39  1  0
 12 40  1  0
 12 41  1  0
 13 42  1  0
 13 43  1  0
 15 44  1  0
 15 45  1  0
 16 46  1  0
 16 47  1  0
 17 48  1  0
 20 49  1  0
 21 50  1  0
 22 51  1  0
 23 52  1  0
 30 53  1  0
 31 54  1  0
M  CHG  1  11   1
M  END
>  <UniqueID>  (15) 
15

>  <SMILES>  (15) 
COc1ccc(-n2nc(C[NH+]3CCSCC3)cc2-c2ccccc2OC(F)(F)F)cc1

>  <Energy>  (15) 
101.54843900259439

>  <Genealogy>  (15) 
COc1ccc(-n2nc(C[NH+]3CCSCC3)cc2-c2ccccc2OC(F)(F)F)cc1 (protonated)
COc1ccc(-n2nc(C[NH+]3CCSCC3)cc2-c2ccccc2OC(F)(F)F)cc1 (3D coordinates assigned)
COc1ccc(-n2nc(C[NH+]3CCSCC3)cc2-c2ccccc2OC(F)(F)F)cc1 (nonaromatic ring conformer: 101.54843900259439 kcal/mol)

>  <smiles>  (15) 
COc1ccc(-n2nc(CN3CCSCC3)cc2-c2ccccc2OC(F)(F)F)cc1

>  <score_type>  (15) 
oracle

>  <origin>  (15) 
adg

>  <m_score__min__energy>  (15) 
-7.7300000000000004

>  <m_primary>  (15) 
energy

$$$$
15:0
     RDKit          3D

 46 48  0  0  0  0  0  0  0  0999 V2000
   -5.0140   15.8400  -32.2970 C   0  0  0  0  0  0  0  0  0  0  0  0
   -5.2890   15.8230  -33.8120 C   0  0  0  0  0  0  0  0  0  0  0  0
   -4.6280   16.9030  -34.5810 N   0  0  0  0  0  0  0  0  0  0  0  0
   -3.5230   16.4430  -35.4340 C   0  0  0  0  0  0  0  0  0  0  0  0
   -2.2420   17.0020  -34.8480 C   0  0  0  0  0  0  0  0  0  0  0  0
   -2.6800   18.2820  -34.1780 C   0  0  0  0  0  0  0  0  0  0  0  0
   -4.1290   18.0200  -33.7520 C   0  0  1  0  0  0  0  0  0  0  0  0
   -5.0460   19.2480  -33.9480 C   0  0  0  0  0  0  0  0  0  0  0  0
   -6.4500   18.9080  -34.2520 N   0  0  0  0  0  0  0  0  0  0  0  0
   -7.2440   18.6170  -33.0460 C   0  0  0  0  0  0  0  0  0  0  0  0
   -7.7930   19.8930  -32.4610 C   0  0  0  0  0  0  0  0  0  0  0  0
   -9.1770   20.1180  -32.4220 C   0  0  0  0  0  0  0  0  0  0  0  0
   -9.6790   21.3210  -31.9220 C   0  0  0  0  0  0  0  0  0  0  0  0
   -8.8060   22.3120  -31.4700 C   0  0  0  0  0  0  0  0  0  0  0  0
   -7.4140   22.1130  -31.5120 C   0  0  0  0  0  0  0  0  0  0  0  0
   -6.4820   23.1710  -31.0460 C   0  0  0  0  0  0  0  0  0  0  0  0
   -5.0800   23.0500  -31.0890 C   0  0  0  0  0  0  0  0  0  0  0  0
   -4.4060   24.1590  -30.5970 C   0  0  0  0  0  0  0  0  0  0  0  0
   -5.5450   25.2920  -30.1120 S   0  0  0  0  0  0  0  0  0  0  0  0
   -6.9040   24.3910  -30.5160 C   0  0  0  0  0  0  0  0  0  0  0  0
   -6.9170   20.8950  -32.0150 C   0  0  0  0  0  0  0  0  0  0  0  0
   -5.9669   15.7811  -31.7507 H   0  0  0  0  0  0  0  0  0  0  0  0
   -4.3839   14.9791  -32.0290 H   0  0  0  0  0  0  0  0  0  0  0  0
   -4.4947   16.7720  -32.0290 H   0  0  0  0  0  0  0  0  0  0  0  0
   -4.9418   14.8585  -34.2109 H   0  0  0  0  0  0  0  0  0  0  0  0
   -6.3713   15.9804  -33.9295 H   0  0  0  0  0  0  0  0  0  0  0  0
   -3.4855   15.3437  -35.4420 H   0  0  0  0  0  0  0  0  0  0  0  0
   -3.6607   16.7858  -36.4701 H   0  0  0  0  0  0  0  0  0  0  0  0
   -1.8093   16.3047  -34.1155 H   0  0  0  0  0  0  0  0  0  0  0  0
   -1.4628   17.1647  -35.6072 H   0  0  0  0  0  0  0  0  0  0  0  0
   -2.0505   18.4967  -33.3018 H   0  0  0  0  0  0  0  0  0  0  0  0
   -2.5924   19.1526  -34.8446 H   0  0  0  0  0  0  0  0  0  0  0  0
   -4.1447   17.7864  -32.6772 H   0  0  0  0  0  0  0  0  0  0  0  0
   -5.0271   19.8445  -33.0240 H   0  0  0  0  0  0  0  0  0  0  0  0
   -4.6573   19.7993  -34.8169 H   0  0  0  0  0  0  0  0  0  0  0  0
   -6.9030   19.6770  -34.7980 H   0  0  0  0  0  0  0  0  0  0  0  0
   -6.4400   18.0540  -34.8570 H   0  0  0  0  0  0  0  0  0  0  0  0
   -8.0783   17.9516  -33.3126 H   0  0  0  0  0  0  0  0  0  0  0  0
   -6.5976   18.1306  -32.3006 H   0  0  0  0  0  0  0  0  0  0  0  0
   -9.8688   19.3443  -32.7864 H   0  0  0  0  0  0  0  0  0  0  0  0
  -10.7655   21.4884  -31.8841 H   0  0  0  0  0  0  0  0  0  0  0  0
   -9.2100   23.2568  -31.0775 H   0  0  0  0  0  0  0  0  0  0  0  0
   -4.5659   22.1583  -31.4770 H   0  0  0  0  0  0  0  0  0  0  0  0
   -3.3139   24.2752  -30.5356 H   0  0  0  0  0  0  0  0  0  0  0  0
   -7.9490   24.7087  -30.3850 H   0  0  0  0  0  0  0  0  0  0  0  0
   -5.8308   20.7271  -32.0588 H   0  0  0  0  0  0  0  0  0  0  0  0
  1  2  1  0
  2  3  1  0
  3  4  1  0
  4  5  1  0
  5  6  1  0
  6  7  1  0
  7  8  1  0
  8  9  1  0
  9 10  1  0
 10 11  1  0
 11 12  2  0
 12 13  1  0
 13 14  2  0
 14 15  1  0
 15 16  1  0
 16 17  1  0
 17 18  2  0
 18 19  1  0
 19 20  1  0
 15 21  2  0
  7  3  1  0
 21 11  1  0
 20 16  2  0
  1 22  1  0
  1 23  1  0
  1 24  1  0
  2 25  1  0
  2 26  1  0
  4 27  1  0
  4 28  1  0
  5 29  1  0
  5 30  1  0
  6 31  1  0
  6 32  1  0
  7 33  1  1
  8 34  1  0
  8 35  1  0
  9 36  1  0
  9 37  1  0
 10 38  1  0
 10 39  1  0
 12 40  1  0
 13 41  1  0
 14 42  1  0
 17 43  1  0
 18 44  1  0
 20 45  1  0
 21 46  1  0
M  CHG  1   9   1
M  END
>  <UniqueID>  (16) 
16

>  <SMILES>  (16) 
CCN1CCC[C@H]1C[NH2+]Cc1cccc(-c2ccsc2)c1

>  <Energy>  (16) 
79.64780095564329

>  <Genealogy>  (16) 
CCN1CCCC1C[NH2+]Cc1cccc(-c2ccsc2)c1 (protonated)
CCN1CCC[C@H]1C[NH2+]Cc1cccc(-c2ccsc2)c1 (chirality)
CCN1CCC[C@H]1C[NH2+]Cc1cccc(-c2ccsc2)c1 (3D coordinates assigned)
CCN1CCC[C@H]1C[NH2+]Cc1cccc(-c2ccsc2)c1 (nonaromatic ring conformer: 79.64780095564329 kcal/mol)

>  <smiles>  (16) 
CCN1CCCC1CNCc1cccc(-c2ccsc2)c1

>  <score_type>  (16) 
oracle

>  <origin>  (16) 
adg

>  <m_score__min__energy>  (16) 
-7.2300000000000004

>  <m_primary>  (16) 
energy

$$$$
16:0
     RDKit          3D

 40 43  0  0  0  0  0  0  0  0999 V2000
   -8.2760   22.0000  -30.5390 C   0  0  0  0  0  0  0  0  0  0  0  0
   -8.3650   22.1530  -31.9170 C   0  0  0  0  0  0  0  0  0  0  0  0
   -7.3630   23.4270  -32.3720 S   0  0  0  0  0  0  0  0  0  0  0  0
   -6.8240   23.7960  -30.8230 C   0  0  0  0  0  0  0  0  0  0  0  0
   -5.8510   24.8830  -30.4830 C   0  0  0  0  0  0  0  0  0  0  0  0
   -4.5850   24.7150  -31.2160 N   0  0  0  0  0  0  0  0  0  0  0  0
   -3.5480   24.0510  -30.4100 C   0  0  0  0  0  0  0  0  0  0  0  0
   -3.4230   22.6090  -30.7960 C   0  0  0  0  0  0  0  0  0  0  0  0
   -2.5060   21.7070  -30.3020 C   0  0  0  0  0  0  0  0  0  0  0  0
   -2.6840   20.5710  -30.9380 O   0  0  0  0  0  0  0  0  0  0  0  0
   -3.6710   20.7450  -31.7930 C   0  0  0  0  0  0  0  0  0  0  0  0
   -4.1510   19.7040  -32.7340 C   0  0  0  0  0  0  0  0  0  0  0  0
   -3.2690   19.2690  -33.7400 C   0  0  0  0  0  0  0  0  0  0  0  0
   -3.6210   18.2340  -34.6030 C   0  0  0  0  0  0  0  0  0  0  0  0
   -4.8600   17.6100  -34.4850 C   0  0  0  0  0  0  0  0  0  0  0  0
   -5.7740   18.0350  -33.5110 C   0  0  0  0  0  0  0  0  0  0  0  0
   -7.0300   17.4150  -33.4170 C   0  0  0  0  0  0  0  0  0  0  0  0
   -7.9610   17.8510  -32.4750 C   0  0  0  0  0  0  0  0  0  0  0  0
   -7.6540   18.9150  -31.6290 C   0  0  0  0  0  0  0  0  0  0  0  0
   -6.4080   19.5410  -31.7070 C   0  0  0  0  0  0  0  0  0  0  0  0
   -5.4350   19.0990  -32.6300 C   0  0  0  0  0  0  0  0  0  0  0  0
   -4.1600   22.0010  -31.7410 N   0  0  0  0  0  0  0  0  0  0  0  0
   -7.4080   22.9100  -29.9260 C   0  0  0  0  0  0  0  0  0  0  0  0
   -8.8359   21.2345  -29.9817 H   0  0  0  0  0  0  0  0  0  0  0  0
   -8.9838   21.5461  -32.5943 H   0  0  0  0  0  0  0  0  0  0  0  0
   -6.2924   25.8551  -30.7480 H   0  0  0  0  0  0  0  0  0  0  0  0
   -5.6377   24.8339  -29.4050 H   0  0  0  0  0  0  0  0  0  0  0  0
   -4.2340   25.6740  -31.4440 H   0  0  0  0  0  0  0  0  0  0  0  0
   -2.5840   24.5544  -30.5755 H   0  0  0  0  0  0  0  0  0  0  0  0
   -3.8313   24.1108  -29.3488 H   0  0  0  0  0  0  0  0  0  0  0  0
   -1.7601   21.9024  -29.5175 H   0  0  0  0  0  0  0  0  0  0  0  0
   -2.2871   19.7533  -33.8466 H   0  0  0  0  0  0  0  0  0  0  0  0
   -2.9163   17.9078  -35.3821 H   0  0  0  0  0  0  0  0  0  0  0  0
   -5.1225   16.7807  -35.1584 H   0  0  0  0  0  0  0  0  0  0  0  0
   -7.2808   16.5815  -34.0895 H   0  0  0  0  0  0  0  0  0  0  0  0
   -8.9395   17.3542  -32.3995 H   0  0  0  0  0  0  0  0  0  0  0  0
   -8.3967   19.2635  -30.8962 H   0  0  0  0  0  0  0  0  0  0  0  0
   -6.1821   20.3877  -31.0421 H   0  0  0  0  0  0  0  0  0  0  0  0
   -4.9310   22.4170  -32.3090 H   0  0  0  0  0  0  0  0  0  0  0  0
   -7.2083   22.9228  -28.8444 H   0  0  0  0  0  0  0  0  0  0  0  0
  1  2  2  0
  2  3  1  0
  3  4  1  0
  4  5  1  0
  5  6  1  0
  6  7  1  0
  7  8  1  0
  8  9  2  0
  9 10  1  0
 10 11  1  0
 11 12  1  0
 12 13  2  0
 13 14  1  0
 14 15  2  0
 15 16  1  0
 16 17  2  0
 17 18  1  0
 18 19  2  0
 19 20  1  0
 20 21  2  0
 11 22  2  0
  4 23  2  0
 23  1  1  0
 22  8  1  0
 21 12  1  0
 21 16  1  0
  1 24  1  0
  2 25  1  0
  5 26  1  0
  5 27  1  0
  6 28  1  0
  7 29  1  0
  7 30  1  0
  9 31  1  0
 13 32  1  0
 14 33  1  0
 15 34  1  0
 17 35  1  0
 18 36  1  0
 19 37  1  0
 20 38  1  0
 22 39  1  0
 23 40  1  0
M  CHG  1  22   1
M  END
>  <UniqueID>  (17) 
17

>  <SMILES>  (17) 
c1csc(CNCc2coc(-c3cccc4ccccc34)[nH+]2)c1

>  <Energy>  (17) 
105.88534661806023

>  <Genealogy>  (17) 
c1csc(CNCc2coc(-c3cccc4ccccc34)[nH+]2)c1 (protonated)
c1csc(CNCc2coc(-c3cccc4ccccc34)[nH+]2)c1 (3D coordinates assigned)
c1csc(CNCc2coc(-c3cccc4ccccc34)[nH+]2)c1 (optimized conformer: 105.88534661806023 kcal/mol)

>  <smiles>  (17) 
c1csc(CNCc2coc(-c3cccc4ccccc34)n2)c1

>  <score_type>  (17) 
oracle

>  <origin>  (17) 
adg

>  <m_score__min__energy>  (17) 
-7.6100000000000003

>  <m_primary>  (17) 
energy

$$$$
17:0
     RDKit          3D

 51 53  0  0  0  0  0  0  0  0999 V2000
   -3.8080   18.5690  -25.9880 C   0  0  0  0  0  0  0  0  0  0  0  0
   -2.4820   18.6970  -26.0860 C   0  0  0  0  0  0  0  0  0  0  0  0
   -1.8260   19.1720  -27.3530 C   0  0  0  0  0  0  0  0  0  0  0  0
   -1.9610   20.6640  -27.4960 C   0  0  0  0  0  0  0  0  0  0  0  0
   -3.2320   21.2580  -27.5220 C   0  0  0  0  0  0  0  0  0  0  0  0
   -3.3630   22.6390  -27.6940 C   0  0  0  0  0  0  0  0  0  0  0  0
   -2.2240   23.4450  -27.8570 C   0  0  0  0  0  0  0  0  0  0  0  0
   -2.3590   24.9270  -28.0860 C   0  0  0  0  0  0  0  0  0  0  0  0
   -2.7120   25.1970  -29.4440 O   0  0  0  0  0  0  0  0  0  0  0  0
   -3.8040   24.6260  -30.1180 C   0  0  0  0  0  0  0  0  0  0  0  0
   -3.5980   23.4400  -30.8310 C   0  0  0  0  0  0  0  0  0  0  0  0
   -4.6660   22.7980  -31.4630 C   0  0  0  0  0  0  0  0  0  0  0  0
   -5.9630   23.3330  -31.3880 C   0  0  0  0  0  0  0  0  0  0  0  0
   -7.1300   22.6010  -32.0200 C   0  0  0  0  0  0  0  0  0  0  0  0
   -7.2650   21.1960  -31.5720 N   0  0  0  0  0  0  0  0  0  0  0  0
   -8.6640   20.7070  -31.5700 C   0  0  0  0  0  0  0  0  0  0  0  0
   -8.7200   19.1870  -31.3780 C   0  0  0  0  0  0  0  0  0  0  0  0
   -8.0080   18.4590  -32.5340 C   0  0  0  0  0  0  0  0  0  0  0  0
   -6.8870   19.3010  -33.1730 C   0  0  0  0  0  0  0  0  0  0  0  0
   -6.2660   20.2640  -32.1530 C   0  0  0  0  0  0  0  0  0  0  0  0
   -6.1570   24.5580  -30.7290 C   0  0  0  0  0  0  0  0  0  0  0  0
   -5.0890   25.1970  -30.0940 C   0  0  0  0  0  0  0  0  0  0  0  0
   -0.9520   22.8510  -27.8230 C   0  0  0  0  0  0  0  0  0  0  0  0
   -0.8220   21.4700  -27.6510 C   0  0  0  0  0  0  0  0  0  0  0  0
   -4.2588   18.2190  -25.0476 H   0  0  0  0  0  0  0  0  0  0  0  0
   -4.4492   18.8136  -26.8477 H   0  0  0  0  0  0  0  0  0  0  0  0
   -1.8539   18.4486  -25.2178 H   0  0  0  0  0  0  0  0  0  0  0  0
   -0.7587   18.9069  -27.3281 H   0  0  0  0  0  0  0  0  0  0  0  0
   -2.3199   18.6890  -28.2090 H   0  0  0  0  0  0  0  0  0  0  0  0
   -4.1301   20.6335  -27.4064 H   0  0  0  0  0  0  0  0  0  0  0  0
   -4.3631   23.0970  -27.7018 H   0  0  0  0  0  0  0  0  0  0  0  0
   -3.1415   25.3252  -27.4233 H   0  0  0  0  0  0  0  0  0  0  0  0
   -1.3941   25.4083  -27.8685 H   0  0  0  0  0  0  0  0  0  0  0  0
   -2.5876   23.0097  -30.8945 H   0  0  0  0  0  0  0  0  0  0  0  0
   -4.4902   21.8676  -32.0229 H   0  0  0  0  0  0  0  0  0  0  0  0
   -8.0557   23.1374  -31.7645 H   0  0  0  0  0  0  0  0  0  0  0  0
   -6.9446   22.5762  -33.1040 H   0  0  0  0  0  0  0  0  0  0  0  0
   -9.2126   21.1927  -30.7496 H   0  0  0  0  0  0  0  0  0  0  0  0
   -9.1200   20.9524  -32.5405 H   0  0  0  0  0  0  0  0  0  0  0  0
   -8.2270   18.9256  -30.4301 H   0  0  0  0  0  0  0  0  0  0  0  0
   -9.7744   18.8739  -31.3626 H   0  0  0  0  0  0  0  0  0  0  0  0
   -7.5696   17.5280  -32.1454 H   0  0  0  0  0  0  0  0  0  0  0  0
   -8.7592   18.2636  -33.3135 H   0  0  0  0  0  0  0  0  0  0  0  0
   -6.1047   18.6275  -33.5530 H   0  0  0  0  0  0  0  0  0  0  0  0
   -7.3204   19.8935  -33.9922 H   0  0  0  0  0  0  0  0  0  0  0  0
   -5.8173   19.6753  -31.3393 H   0  0  0  0  0  0  0  0  0  0  0  0
   -5.5110   20.8673  -32.6784 H   0  0  0  0  0  0  0  0  0  0  0  0
   -7.1564   25.0174  -30.7127 H   0  0  0  0  0  0  0  0  0  0  0  0
   -5.2541   26.1515  -29.5727 H   0  0  0  0  0  0  0  0  0  0  0  0
   -0.0533   23.4758  -27.9323 H   0  0  0  0  0  0  0  0  0  0  0  0
    0.1781   21.0122  -27.6370 H   0  0  0  0  0  0  0  0  0  0  0  0
  1  2  2  0
  2  3  1  0
  3  4  1  0
  4  5  2  0
  5  6  1  0
  6  7  2  0
  7  8  1  0
  8  9  1  0
  9 10  1  0
 10 11  2  0
 11 12  1  0
 12 13  2  0
 13 14  1  0
 14 15  1  0
 15 16  1  0
 16 17  1  0
 17 18  1  0
 18 19  1  0
 19 20  1  0
 13 21  1  0
 21 22  2  0
  7 23  1  0
 23 24  2  0
 24  4  1  0
 22 10  1  0
 20 15  1  0
  1 25  1  0
  1 26  1  0
  2 27  1  0
  3 28  1  0
  3 29  1  0
  5 30  1  0
  6 31  1  0
  8 32  1  0
  8 33  1  0
 11 34  1  0
 12 35  1  0
 14 36  1  0
 14 37  1  0
 16 38  1  0
 16 39  1  0
 17 40  1  0
 17 41  1  0
 18 42  1  0
 18 43  1  0
 19 44  1  0
 19 45  1  0
 20 46  1  0
 20 47  1  0
 21 48  1  0
 22 49  1  0
 23 50  1  0
 24 51  1  0
M  END
>  <UniqueID>  (18) 
18

>  <SMILES>  (18) 
C=CCc1ccc(COc2ccc(CN3CCCCC3)cc2)cc1

>  <Energy>  (18) 
55.460749158004106

>  <Genealogy>  (18) 
C=CCc1ccc(COc2ccc(CN3CCCCC3)cc2)cc1 (3D coordinates assigned)
C=CCc1ccc(COc2ccc(CN3CCCCC3)cc2)cc1 (nonaromatic ring conformer: 55.460749158004106 kcal/mol)

>  <smiles>  (18) 
C=CCc1ccc(COc2ccc(CN3CCCCC3)cc2)cc1

>  <score_type>  (18) 
oracle

>  <origin>  (18) 
adg

>  <m_score__min__energy>  (18) 
-9.2200000000000006

>  <m_primary>  (18) 
energy

$$$$
18:0
     RDKit          3D

 31 32  0  0  0  0  0  0  0  0999 V2000
   -5.1950   17.7590  -34.9410 C   0  0  0  0  0  0  0  0  0  0  0  0
   -5.4440   17.8880  -33.5700 O   0  0  0  0  0  0  0  0  0  0  0  0
   -6.3330   18.7400  -32.9710 C   0  0  0  0  0  0  0  0  0  0  0  0
   -7.3710   18.2140  -32.2180 C   0  0  0  0  0  0  0  0  0  0  0  0
   -8.2970   19.0260  -31.5920 C   0  0  0  0  0  0  0  0  0  0  0  0
   -8.2290   20.4030  -31.6890 C   0  0  0  0  0  0  0  0  0  0  0  0
   -9.4910   21.5500  -30.8360 Br  0  0  0  0  0  0  0  0  0  0  0  0
   -7.1970   20.9270  -32.4390 C   0  0  0  0  0  0  0  0  0  0  0  0
   -7.0300   22.3870  -32.6110 C   0  0  0  0  0  0  0  0  0  0  0  0
   -6.1610   22.9620  -31.5840 C   0  0  0  0  0  0  0  0  0  0  0  0
   -6.6160   23.4970  -30.3950 C   0  0  0  0  0  0  0  0  0  0  0  0
   -5.7870   24.0160  -29.4810 N   0  0  0  0  0  0  0  0  0  0  0  0
   -4.4470   24.0360  -29.6920 C   0  0  0  0  0  0  0  0  0  0  0  0
   -3.6520   24.5400  -28.8000 N   0  0  0  0  0  0  0  0  0  0  0  0
   -3.9850   23.5140  -30.8540 N   0  0  0  0  0  0  0  0  0  0  0  0
   -4.7880   22.9900  -31.7850 C   0  0  0  0  0  0  0  0  0  0  0  0
   -4.2630   22.5160  -32.8600 N   0  0  0  0  0  0  0  0  0  0  0  0
   -6.2550   20.1150  -33.0750 C   0  0  0  0  0  0  0  0  0  0  0  0
   -4.2276   17.2578  -35.0924 H   0  0  0  0  0  0  0  0  0  0  0  0
   -5.9940   17.1614  -35.4041 H   0  0  0  0  0  0  0  0  0  0  0  0
   -5.1677   18.7564  -35.4041 H   0  0  0  0  0  0  0  0  0  0  0  0
   -7.4597   17.1223  -32.1162 H   0  0  0  0  0  0  0  0  0  0  0  0
   -9.1054   18.5669  -31.0040 H   0  0  0  0  0  0  0  0  0  0  0  0
   -6.5881   22.5803  -33.5996 H   0  0  0  0  0  0  0  0  0  0  0  0
   -8.0208   22.8562  -32.5206 H   0  0  0  0  0  0  0  0  0  0  0  0
   -7.6971   23.4967  -30.1919 H   0  0  0  0  0  0  0  0  0  0  0  0
   -6.2180   24.3970  -28.6130 H   0  0  0  0  0  0  0  0  0  0  0  0
   -3.9990   25.2900  -28.1830 H   0  0  0  0  0  0  0  0  0  0  0  0
   -2.9640   23.5220  -31.0300 H   0  0  0  0  0  0  0  0  0  0  0  0
   -4.5250   22.7380  -33.8250 H   0  0  0  0  0  0  0  0  0  0  0  0
   -5.4459   20.5736  -33.6624 H   0  0  0  0  0  0  0  0  0  0  0  0
  1  2  1  0
  2  3  1  0
  3  4  2  0
  4  5  1  0
  5  6  2  0
  6  7  1  0
  6  8  1  0
  8  9  1  0
  9 10  1  0
 10 11  2  0
 11 12  1  0
 12 13  1  0
 13 14  2  3
 13 15  1  0
 15 16  1  0
 16 17  2  3
  8 18  2  0
 18  3  1  0
 16 10  1  0
  1 19  1  0
  1 20  1  0
  1 21  1  0
  4 22  1  0
  5 23  1  0
  9 24  1  0
  9 25  1  0
 11 26  1  0
 12 27  1  0
 14 28  1  0
 15 29  1  0
 17 30  1  0
 18 31  1  0
M  END
>  <smiles>  (19) 
COc1ccc(Br)c(Cc2c[nH]c(=N)[nH]c2=N)c1

>  <score_type>  (19) 
oracle

>  <origin>  (19) 
adg

>  <m_score__min__energy>  (19) 
-6.9199999999999999

>  <m_primary>  (19) 
energy

$$$$
19:0
     RDKit          3D

 35 37  0  0  0  0  0  0  0  0999 V2000
   -9.3480   18.2270  -31.6970 C   0  0  0  0  0  0  0  0  0  0  0  0
   -8.5050   18.6240  -32.7750 O   0  0  0  0  0  0  0  0  0  0  0  0
   -7.2340   19.1960  -32.6170 C   0  0  0  0  0  0  0  0  0  0  0  0
   -6.0650   18.4190  -32.5000 C   0  0  0  0  0  0  0  0  0  0  0  0
   -4.8210   19.0380  -32.3420 C   0  0  0  0  0  0  0  0  0  0  0  0
   -4.7290   20.4350  -32.3000 C   0  0  0  0  0  0  0  0  0  0  0  0
   -3.1720   21.2310  -32.0860 S   0  0  0  0  0  0  0  0  0  0  0  0
   -2.0990   20.2240  -31.7800 O   0  0  0  0  0  0  0  0  0  0  0  0
   -2.8380   21.9270  -33.3770 O   0  0  0  0  0  0  0  0  0  0  0  0
   -3.2600   22.3830  -30.7800 N   0  0  0  0  0  0  0  0  0  0  0  0
   -4.4090   23.2930  -30.6910 C   0  0  0  0  0  0  0  0  0  0  0  0
   -3.9370   24.6990  -30.4590 C   0  0  0  0  0  0  0  0  0  0  0  0
   -4.6220   25.6760  -30.8570 O   0  0  0  0  0  0  0  0  0  0  0  0
   -2.7380   24.9250  -29.7130 N   0  0  0  0  0  0  0  0  0  0  0  0
   -1.9090   23.8230  -29.3280 C   0  0  0  0  0  0  0  0  0  0  0  0
   -0.8410   24.0220  -28.4460 C   0  0  0  0  0  0  0  0  0  0  0  0
   -0.0500   22.9390  -28.0540 C   0  0  0  0  0  0  0  0  0  0  0  0
   -0.3280   21.6560  -28.5360 C   0  0  0  0  0  0  0  0  0  0  0  0
   -1.3880   21.4540  -29.4260 C   0  0  0  0  0  0  0  0  0  0  0  0
   -2.1750   22.5420  -29.8430 C   0  0  0  0  0  0  0  0  0  0  0  0
   -5.8900   21.2080  -32.4170 C   0  0  0  0  0  0  0  0  0  0  0  0
   -7.1330   20.5910  -32.5730 C   0  0  0  0  0  0  0  0  0  0  0  0
   -8.8551   18.4591  -30.7414 H   0  0  0  0  0  0  0  0  0  0  0  0
  -10.3025   18.7702  -31.7587 H   0  0  0  0  0  0  0  0  0  0  0  0
   -9.5372   17.1451  -31.7587 H   0  0  0  0  0  0  0  0  0  0  0  0
   -6.1308   17.3215  -32.5330 H   0  0  0  0  0  0  0  0  0  0  0  0
   -3.9117   18.4257  -32.2504 H   0  0  0  0  0  0  0  0  0  0  0  0
   -4.9798   23.2512  -31.6304 H   0  0  0  0  0  0  0  0  0  0  0  0
   -5.0482   22.9846  -29.8505 H   0  0  0  0  0  0  0  0  0  0  0  0
   -0.6245   25.0297  -28.0618 H   0  0  0  0  0  0  0  0  0  0  0  0
    0.7930   23.0959  -27.3650 H   0  0  0  0  0  0  0  0  0  0  0  0
    0.2884   20.8036  -28.2144 H   0  0  0  0  0  0  0  0  0  0  0  0
   -1.6062   20.4428  -29.8001 H   0  0  0  0  0  0  0  0  0  0  0  0
   -5.8230   22.3055  -32.3860 H   0  0  0  0  0  0  0  0  0  0  0  0
   -8.0402   21.2066  -32.6620 H   0  0  0  0  0  0  0  0  0  0  0  0
  1  2  1  0
  2  3  1  0
  3  4  2  0
  4  5  1  0
  5  6  2  0
  6  7  1  0
  7  8  2  0
  7  9  2  0
  7 10  1  0
 10 11  1  0
 11 12  1  0
 12 13  2  0
 12 14  1  0
 14 15  1  0
 15 16  2  0
 16 17  1  0
 17 18  2  0
 18 19  1  0
 19 20  2  0
  6 21  1  0
 21 22  2  0
 22  3  1  0
 20 10  1  0
 20 15  1  0
  1 23  1  0
  1 24  1  0
  1 25  1  0
  4 26  1  0
  5 27  1  0
 11 28  1  0
 11 29  1  0
 16 30  1  0
 17 31  1  0
 18 32  1  0
 19 33  1  0
 21 34  1  0
 22 35  1  0
M  CHG  1  14  -1
M  END
>  <UniqueID>  (20) 
19

>  <SMILES>  (20) 
COc1ccc(S(=O)(=O)N2CC(=O)[N-]c3ccccc32)cc1

>  <Energy>  (20) 
42.53043281130137

>  <Genealogy>  (20) 
COc1ccc(S(=O)(=O)N2CC(=O)[N-]c3ccccc32)cc1 (protonated)
COc1ccc(S(=O)(=O)N2CC(=O)[N-]c3ccccc32)cc1 (3D coordinates assigned)
COc1ccc(S(=O)(=O)N2CC(=O)[N-]c3ccccc32)cc1 (nonaromatic ring conformer: 42.53043281130137 kcal/mol)

>  <smiles>  (20) 
COc1ccc(S(=O)(=O)N2CC(=O)Nc3ccccc32)cc1

>  <score_type>  (20) 
oracle

>  <origin>  (20) 
adg

>  <m_score__min__energy>  (20) 
-8.9100000000000001

>  <m_primary>  (20) 
energy

$$$$
20:0
     RDKit          3D

 45 47  0  0  0  0  0  0  0  0999 V2000
   -6.1350   17.1750  -32.1440 C   0  0  0  0  0  0  0  0  0  0  0  0
   -5.3300   17.4210  -33.4130 C   0  0  0  0  0  0  0  0  0  0  0  0
   -6.1090   18.7100  -34.4490 S   0  0  0  0  0  0  0  0  0  0  0  0
   -5.7180   20.0750  -33.3420 C   0  0  0  0  0  0  0  0  0  0  0  0
   -4.4360   20.6370  -33.3850 C   0  0  0  0  0  0  0  0  0  0  0  0
   -4.1010   21.7000  -32.5440 C   0  0  0  0  0  0  0  0  0  0  0  0
   -5.0460   22.2160  -31.6420 C   0  0  0  0  0  0  0  0  0  0  0  0
   -4.6920   23.3500  -30.7590 C   0  0  0  0  0  0  0  0  0  0  0  0
   -4.8980   24.5300  -31.1530 O   0  0  0  0  0  0  0  0  0  0  0  0
   -4.1140   23.1310  -29.4600 N   0  0  0  0  0  0  0  0  0  0  0  0
   -2.9220   22.2800  -29.3310 C   0  0  0  0  0  0  0  0  0  0  0  0
   -2.4100   22.2330  -27.8850 C   0  0  0  0  0  0  0  0  0  0  0  0
   -2.3540   23.5850  -27.3070 N   0  0  0  0  0  0  0  0  0  0  0  0
   -1.3310   23.9220  -26.3450 C   0  0  0  0  0  0  0  0  0  0  0  0
   -0.5390   22.9150  -25.7600 C   0  0  0  0  0  0  0  0  0  0  0  0
    0.4550   23.2440  -24.8330 C   0  0  0  0  0  0  0  0  0  0  0  0
    0.6720   24.5770  -24.4800 C   0  0  0  0  0  0  0  0  0  0  0  0
   -0.1030   25.5860  -25.0550 C   0  0  0  0  0  0  0  0  0  0  0  0
   -1.0980   25.2640  -25.9820 C   0  0  0  0  0  0  0  0  0  0  0  0
   -3.4330   24.5500  -27.5800 C   0  0  0  0  0  0  0  0  0  0  0  0
   -4.6070   23.8870  -28.3040 C   0  0  0  0  0  0  0  0  0  0  0  0
   -6.3410   21.6730  -31.6230 C   0  0  0  0  0  0  0  0  0  0  0  0
   -6.6800   20.6070  -32.4650 C   0  0  0  0  0  0  0  0  0  0  0  0
   -8.4670   19.9160  -32.3870 Br  0  0  0  0  0  0  0  0  0  0  0  0
   -5.5023   17.3683  -31.2652 H   0  0  0  0  0  0  0  0  0  0  0  0
   -7.0046   17.8484  -32.1251 H   0  0  0  0  0  0  0  0  0  0  0  0
   -6.4796   16.1305  -32.1251 H   0  0  0  0  0  0  0  0  0  0  0  0
   -4.3159   17.7462  -33.1375 H   0  0  0  0  0  0  0  0  0  0  0  0
   -5.2933   16.4850  -33.9897 H   0  0  0  0  0  0  0  0  0  0  0  0
   -3.6879   20.2383  -34.0860 H   0  0  0  0  0  0  0  0  0  0  0  0
   -3.0919   22.1356  -32.5881 H   0  0  0  0  0  0  0  0  0  0  0  0
   -3.1767   21.2592  -29.6520 H   0  0  0  0  0  0  0  0  0  0  0  0
   -2.1276   22.7058  -29.9617 H   0  0  0  0  0  0  0  0  0  0  0  0
   -3.0879   21.6108  -27.2823 H   0  0  0  0  0  0  0  0  0  0  0  0
   -1.3961   21.8063  -27.8833 H   0  0  0  0  0  0  0  0  0  0  0  0
   -0.7034   21.8625  -26.0342 H   0  0  0  0  0  0  0  0  0  0  0  0
    1.0676   22.4502  -24.3807 H   0  0  0  0  0  0  0  0  0  0  0  0
    1.4533   24.8324  -23.7490 H   0  0  0  0  0  0  0  0  0  0  0  0
    0.0699   26.6364  -24.7778 H   0  0  0  0  0  0  0  0  0  0  0  0
   -1.7041   26.0641  -26.4319 H   0  0  0  0  0  0  0  0  0  0  0  0
   -3.7900   24.9665  -26.6265 H   0  0  0  0  0  0  0  0  0  0  0  0
   -3.0314   25.3435  -28.2274 H   0  0  0  0  0  0  0  0  0  0  0  0
   -5.1229   23.2035  -27.6136 H   0  0  0  0  0  0  0  0  0  0  0  0
   -5.3064   24.6629  -28.6486 H   0  0  0  0  0  0  0  0  0  0  0  0
   -7.0962   22.0892  -30.9400 H   0  0  0  0  0  0  0  0  0  0  0  0
  1  2  1  0
  2  3  1  0
  3  4  1  0
  4  5  2  0
  5  6  1  0
  6  7  2  0
  7  8  1  0
  8  9  2  0
  8 10  1  0
 10 11  1  0
 11 12  1  0
 12 13  1  0
 13 14  1  0
 14 15  2  0
 15 16  1  0
 16 17  2  0
 17 18  1  0
 18 19  2  0
 13 20  1  0
 20 21  1  0
  7 22  1  0
 22 23  2  0
 23 24  1  0
 23  4  1  0
 21 10  1  0
 19 14  1  0
  1 25  1  0
  1 26  1  0
  1 27  1  0
  2 28  1  0
  2 29  1  0
  5 30  1  0
  6 31  1  0
 11 32  1  0
 11 33  1  0
 12 34  1  0
 12 35  1  0
 15 36  1  0
 16 37  1  0
 17 38  1  0
 18 39  1  0
 19 40  1  0
 20 41  1  0
 20 42  1  0
 21 43  1  0
 21 44  1  0
 22 45  1  0
M  END
>  <UniqueID>  (21) 
20

>  <SMILES>  (21) 
CCSc1ccc(C(=O)N2CCN(c3ccccc3)CC2)cc1Br

>  <Energy>  (21) 
50.37363427490748

>  <Genealogy>  (21) 
CCSc1ccc(C(=O)N2CCN(c3ccccc3)CC2)cc1Br (3D coordinates assigned)
CCSc1ccc(C(=O)N2CCN(c3ccccc3)CC2)cc1Br (nonaromatic ring conformer: 50.37363427490748 kcal/mol)

>  <smiles>  (21) 
CCSc1ccc(C(=O)N2CCN(c3ccccc3)CC2)cc1Br

>  <score_type>  (21) 
oracle

>  <origin>  (21) 
adg

>  <m_score__min__energy>  (21) 
-8.4800000000000004

>  <m_primary>  (21) 
energy

$$$$
21:0
     RDKit          3D

 50 53  0  0  0  0  0  0  0  0999 V2000
   -9.1040   18.2900  -31.6670 C   0  0  0  0  0  0  0  0  0  0  0  0
   -9.5820   19.7690  -32.6110 S   0  0  0  0  0  0  0  0  0  0  0  0
   -8.1760   20.7340  -32.0470 C   0  0  0  0  0  0  0  0  0  0  0  0
   -6.8800   20.3280  -32.3710 C   0  0  0  0  0  0  0  0  0  0  0  0
   -5.7490   21.0640  -31.9530 C   0  0  0  0  0  0  0  0  0  0  0  0
   -5.9570   22.2180  -31.1320 C   0  0  0  0  0  0  0  0  0  0  0  0
   -7.2760   22.5940  -30.8070 C   0  0  0  0  0  0  0  0  0  0  0  0
   -8.3720   21.8710  -31.2670 C   0  0  0  0  0  0  0  0  0  0  0  0
   -9.6270   22.2680  -30.9340 F   0  0  0  0  0  0  0  0  0  0  0  0
   -4.8390   23.0340  -30.4850 C   0  0  0  0  0  0  0  0  0  0  0  0
   -3.4850   22.4370  -30.5450 N   0  0  2  0  0  0  0  0  0  0  0  0
   -2.6190   22.9170  -29.4820 C   0  0  0  0  0  0  0  0  0  0  0  0
   -2.4860   24.1150  -29.2850 O   0  0  0  0  0  0  0  0  0  0  0  0
   -1.8660   21.9270  -28.6180 C   0  0  0  0  0  0  0  0  0  0  0  0
   -2.7710   20.9620  -27.8650 C   0  0  0  0  0  0  0  0  0  0  0  0
   -2.0300   22.0490  -27.1070 C   0  0  0  0  0  0  0  0  0  0  0  0
   -2.8330   22.4650  -31.8830 C   0  0  0  0  0  0  0  0  0  0  0  0
   -3.4990   21.5970  -32.9560 C   0  0  0  0  0  0  0  0  0  0  0  0
   -4.4180   20.6300  -32.3520 N   0  0  0  0  0  0  0  0  0  0  0  0
   -3.9240   19.2560  -32.0990 C   0  0  0  0  0  0  0  0  0  0  0  0
   -4.7770   18.2330  -32.8020 C   0  0  0  0  0  0  0  0  0  0  0  0
   -5.4040   17.2030  -32.0800 C   0  0  0  0  0  0  0  0  0  0  0  0
   -6.2470   16.2970  -32.7290 C   0  0  0  0  0  0  0  0  0  0  0  0
   -6.4630   16.4050  -34.1070 C   0  0  0  0  0  0  0  0  0  0  0  0
   -7.2830   15.5280  -34.7350 F   0  0  0  0  0  0  0  0  0  0  0  0
   -5.8270   17.4130  -34.8370 C   0  0  0  0  0  0  0  0  0  0  0  0
   -4.9850   18.3220  -34.1890 C   0  0  0  0  0  0  0  0  0  0  0  0
   -9.1732   18.5041  -30.5902 H   0  0  0  0  0  0  0  0  0  0  0  0
   -9.7795   17.4595  -31.9199 H   0  0  0  0  0  0  0  0  0  0  0  0
   -8.0702   18.0119  -31.9199 H   0  0  0  0  0  0  0  0  0  0  0  0
   -6.7363   19.4138  -32.9656 H   0  0  0  0  0  0  0  0  0  0  0  0
   -7.4425   23.4791  -30.1754 H   0  0  0  0  0  0  0  0  0  0  0  0
   -4.7994   24.0108  -30.9893 H   0  0  0  0  0  0  0  0  0  0  0  0
   -5.0922   23.0910  -29.4161 H   0  0  0  0  0  0  0  0  0  0  0  0
   -3.6410   21.4180  -30.3480 H   0  0  0  0  0  0  0  0  0  0  0  0
   -0.9934   21.8544  -29.2838 H   0  0  0  0  0  0  0  0  0  0  0  0
   -3.8625   21.0237  -27.9870 H   0  0  0  0  0  0  0  0  0  0  0  0
   -2.8413   19.8674  -27.7822 H   0  0  0  0  0  0  0  0  0  0  0  0
   -2.5846   22.8980  -26.6808 H   0  0  0  0  0  0  0  0  0  0  0  0
   -1.3418   22.0678  -26.2491 H   0  0  0  0  0  0  0  0  0  0  0  0
   -2.8338   23.5057  -32.2394 H   0  0  0  0  0  0  0  0  0  0  0  0
   -1.8252   22.0486  -31.7383 H   0  0  0  0  0  0  0  0  0  0  0  0
   -4.0603   22.2447  -33.6455 H   0  0  0  0  0  0  0  0  0  0  0  0
   -2.7158   21.0458  -33.4971 H   0  0  0  0  0  0  0  0  0  0  0  0
   -2.8899   19.1734  -32.4647 H   0  0  0  0  0  0  0  0  0  0  0  0
   -3.9691   19.0631  -31.0170 H   0  0  0  0  0  0  0  0  0  0  0  0
   -5.2301   17.1095  -30.9979 H   0  0  0  0  0  0  0  0  0  0  0  0
   -6.7410   15.4984  -32.1561 H   0  0  0  0  0  0  0  0  0  0  0  0
   -5.9890   17.4913  -35.9222 H   0  0  0  0  0  0  0  0  0  0  0  0
   -4.4827   19.1110  -34.7680 H   0  0  0  0  0  0  0  0  0  0  0  0
  1  2  1  0
  2  3  1  0
  3  4  2  0
  4  5  1  0
  5  6  2  0
  6  7  1  0
  7  8  2  0
  8  9  1  0
  6 10  1  0
 10 11  1  0
 11 12  1  0
 12 13  2  0
 12 14  1  0
 14 15  1  0
 15 16  1  0
 11 17  1  0
 17 18  1  0
 18 19  1  0
 19 20  1  0
 20 21  1  0
 21 22  2  0
 22 23  1  0
 23 24  2  0
 24 25  1  0
 24 26  1  0
 26 27  2  0
  8  3  1  0
 16 14  1  0
 27 21  1  0
 19  5  1  0
  1 28  1  0
  1 29  1  0
  1 30  1  0
  4 31  1  0
  7 32  1  0
 10 33  1  0
 10 34  1  0
 11 35  1  1
 14 36  1  0
 15 37  1  0
 15 38  1  0
 16 39  1  0
 16 40  1  0
 17 41  1  0
 17 42  1  0
 18 43  1  0
 18 44  1  0
 20 45  1  0
 20 46  1  0
 22 47  1  0
 23 48  1  0
 26 49  1  0
 27 50  1  0
M  CHG  1  11   1
M  END
>  <UniqueID>  (22) 
21

>  <SMILES>  (22) 
CSc1cc2c(cc1F)C[N@H+](C(=O)C1CC1)CCN2Cc1ccc(F)cc1

>  <Energy>  (22) 
330.61225707175595

>  <Genealogy>  (22) 
CSc1cc2c(cc1F)C[NH+](C(=O)C1CC1)CCN2Cc1ccc(F)cc1 (protonated)
CSc1cc2c(cc1F)C[N@H+](C(=O)C1CC1)CCN2Cc1ccc(F)cc1 (chirality)
CSc1cc2c(cc1F)C[N@H+](C(=O)C1CC1)CCN2Cc1ccc(F)cc1 (3D coordinates assigned)
CSc1cc2c(cc1F)C[N@H+](C(=O)C1CC1)CCN2Cc1ccc(F)cc1 (nonaromatic ring conformer: 330.61225707175595 kcal/mol)

>  <smiles>  (22) 
CSc1cc2c(cc1F)CN(C(=O)C1CC1)CCN2Cc1ccc(F)cc1

>  <score_type>  (22) 
oracle

>  <origin>  (22) 
adg

>  <m_score__min__energy>  (22) 
-5.3899999999999997

>  <m_primary>  (22) 
energy

$$$$
22:0
     RDKit          3D

 53 55  0  0  0  0  0  0  0  0999 V2000
   -9.0630   18.5480  -31.7280 C   0  0  0  0  0  0  0  0  0  0  0  0
   -9.4680   19.6520  -32.7000 C   0  0  0  0  0  0  0  0  0  0  0  0
   -8.5090   20.7770  -32.6280 N   0  0  0  0  0  0  0  0  0  0  0  0
   -7.1360   20.3040  -32.3330 C   0  0  0  0  0  0  0  0  0  0  0  0
   -6.4730   19.6690  -33.5550 C   0  0  0  0  0  0  0  0  0  0  0  0
   -8.9840   21.8630  -31.7340 C   0  0  0  0  0  0  0  0  0  0  0  0
   -8.6720   23.2840  -32.2450 C   0  0  0  0  0  0  0  0  0  0  0  0
   -7.2410   23.4330  -32.5220 N   0  0  0  0  0  0  0  0  0  0  0  0
   -6.2830   23.7400  -31.4900 C   0  0  0  0  0  0  0  0  0  0  0  0
   -6.6260   24.6340  -30.4620 C   0  0  0  0  0  0  0  0  0  0  0  0
   -5.6890   24.9800  -29.4920 C   0  0  0  0  0  0  0  0  0  0  0  0
   -4.4400   24.4570  -29.5340 N   0  0  0  0  0  0  0  0  0  0  0  0
   -4.0540   23.5780  -30.4980 C   0  0  0  0  0  0  0  0  0  0  0  0
   -2.7460   23.0540  -30.4890 C   0  0  0  0  0  0  0  0  0  0  0  0
   -1.5860   23.5490  -29.2500 S   0  0  0  0  0  0  0  0  0  0  0  0
   -1.8870   22.8090  -27.9780 O   0  0  0  0  0  0  0  0  0  0  0  0
   -0.1850   23.2370  -29.6970 O   0  0  0  0  0  0  0  0  0  0  0  0
   -1.7360   25.2580  -28.9950 N   0  0  0  0  0  0  0  0  0  0  0  0
   -1.5150   25.9290  -27.7480 C   0  0  0  0  0  0  0  0  0  0  0  0
   -2.1730   25.5480  -26.5630 C   0  0  0  0  0  0  0  0  0  0  0  0
   -1.9240   26.2330  -25.3700 C   0  0  0  0  0  0  0  0  0  0  0  0
   -1.0230   27.3000  -25.3480 C   0  0  0  0  0  0  0  0  0  0  0  0
   -0.3670   27.6830  -26.5200 C   0  0  0  0  0  0  0  0  0  0  0  0
   -0.6110   27.0000  -27.7150 C   0  0  0  0  0  0  0  0  0  0  0  0
   -2.3660   22.1250  -31.4650 C   0  0  0  0  0  0  0  0  0  0  0  0
   -3.2760   21.7130  -32.4380 C   0  0  0  0  0  0  0  0  0  0  0  0
   -4.5710   22.2320  -32.4600 C   0  0  0  0  0  0  0  0  0  0  0  0
   -4.9770   23.1850  -31.5040 C   0  0  0  0  0  0  0  0  0  0  0  0
   -9.1932   18.9030  -30.6950 H   0  0  0  0  0  0  0  0  0  0  0  0
   -9.6951   17.6632  -31.8941 H   0  0  0  0  0  0  0  0  0  0  0  0
   -8.0087   18.2818  -31.8941 H   0  0  0  0  0  0  0  0  0  0  0  0
   -9.4781   19.2487  -33.7234 H   0  0  0  0  0  0  0  0  0  0  0  0
  -10.4695   20.0176  -32.4291 H   0  0  0  0  0  0  0  0  0  0  0  0
   -6.5286   21.1602  -32.0044 H   0  0  0  0  0  0  0  0  0  0  0  0
   -7.2028   19.5377  -31.5467 H   0  0  0  0  0  0  0  0  0  0  0  0
   -5.7151   18.9431  -33.2252 H   0  0  0  0  0  0  0  0  0  0  0  0
   -7.2346   19.1548  -34.1596 H   0  0  0  0  0  0  0  0  0  0  0  0
   -5.9921   20.4521  -34.1596 H   0  0  0  0  0  0  0  0  0  0  0  0
  -10.0743   21.7675  -31.6243 H   0  0  0  0  0  0  0  0  0  0  0  0
   -8.4479   21.7450  -30.7808 H   0  0  0  0  0  0  0  0  0  0  0  0
   -9.2396   23.4680  -33.1691 H   0  0  0  0  0  0  0  0  0  0  0  0
   -8.9591   24.0093  -31.4695 H   0  0  0  0  0  0  0  0  0  0  0  0
   -6.9070   23.3040  -33.5040 H   0  0  0  0  0  0  0  0  0  0  0  0
   -7.6385   25.0622  -30.4233 H   0  0  0  0  0  0  0  0  0  0  0  0
   -5.9637   25.6801  -28.6892 H   0  0  0  0  0  0  0  0  0  0  0  0
   -2.8847   24.7094  -26.5759 H   0  0  0  0  0  0  0  0  0  0  0  0
   -2.4390   25.9308  -24.4462 H   0  0  0  0  0  0  0  0  0  0  0  0
   -0.8302   27.8383  -24.4083 H   0  0  0  0  0  0  0  0  0  0  0  0
    0.3427   28.5233  -26.5027 H   0  0  0  0  0  0  0  0  0  0  0  0
   -0.0906   27.3047  -28.6350 H   0  0  0  0  0  0  0  0  0  0  0  0
   -1.3441   21.7179  -31.4643 H   0  0  0  0  0  0  0  0  0  0  0  0
   -2.9708   20.9738  -33.1933 H   0  0  0  0  0  0  0  0  0  0  0  0
   -5.2809   21.8947  -33.2296 H   0  0  0  0  0  0  0  0  0  0  0  0
  1  2  1  0
  2  3  1  0
  3  4  1  0
  4  5  1  0
  3  6  1  0
  6  7  1  0
  7  8  1  0
  8  9  1  0
  9 10  2  0
 10 11  1  0
 11 12  2  0
 12 13  1  0
 13 14  2  0
 14 15  1  0
 15 16  2  0
 15 17  2  0
 15 18  1  0
 18 19  1  0
 19 20  2  0
 20 21  1  0
 21 22  2  0
 22 23  1  0
 23 24  2  0
 14 25  1  0
 25 26  2  0
 26 27  1  0
 27 28  2  0
 28  9  1  0
 28 13  1  0
 24 19  1  0
  1 29  1  0
  1 30  1  0
  1 31  1  0
  2 32  1  0
  2 33  1  0
  4 34  1  0
  4 35  1  0
  5 36  1  0
  5 37  1  0
  5 38  1  0
  6 39  1  0
  6 40  1  0
  7 41  1  0
  7 42  1  0
  8 43  1  0
 10 44  1  0
 11 45  1  0
 20 46  1  0
 21 47  1  0
 22 48  1  0
 23 49  1  0
 24 50  1  0
 25 51  1  0
 26 52  1  0
 27 53  1  0
M  CHG  1  18  -1
M  END
>  <UniqueID>  (23) 
22

>  <SMILES>  (23) 
CCN(CC)CCNc1ccnc2c(S(=O)(=O)[N-]c3ccccc3)cccc12

>  <Energy>  (23) 
66.9840426168546

>  <Genealogy>  (23) 
CCN(CC)CCNc1ccnc2c(S(=O)(=O)[N-]c3ccccc3)cccc12 (protonated)
CCN(CC)CCNc1ccnc2c(S(=O)(=O)[N-]c3ccccc3)cccc12 (3D coordinates assigned)
CCN(CC)CCNc1ccnc2c(S(=O)(=O)[N-]c3ccccc3)cccc12 (optimized conformer: 66.9840426168546 kcal/mol)

>  <smiles>  (23) 
CCN(CC)CCNc1ccnc2c(S(=O)(=O)Nc3ccccc3)cccc12

>  <score_type>  (23) 
oracle

>  <origin>  (23) 
adg

>  <m_score__min__energy>  (23) 
-10.390000000000001

>  <m_primary>  (23) 
energy

$$$$
23:0
     RDKit          3D

 42 44  0  0  0  0  0  0  0  0999 V2000
   -7.8100   18.5990  -32.0130 C   0  0  0  0  0  0  0  0  0  0  0  0
   -6.6710   19.3330  -31.5780 O   0  0  0  0  0  0  0  0  0  0  0  0
   -5.4720   19.4500  -32.3010 C   0  0  0  0  0  0  0  0  0  0  0  0
   -4.7430   18.3190  -32.7180 C   0  0  0  0  0  0  0  0  0  0  0  0
   -3.5680   18.4680  -33.4570 C   0  0  0  0  0  0  0  0  0  0  0  0
   -3.1040   19.7410  -33.7860 C   0  0  0  0  0  0  0  0  0  0  0  0
   -3.8130   20.8710  -33.3770 C   0  0  0  0  0  0  0  0  0  0  0  0
   -4.9970   20.7380  -32.6330 C   0  0  0  0  0  0  0  0  0  0  0  0
   -5.7350   21.9510  -32.2120 C   0  0  0  0  0  0  0  0  0  0  0  0
   -7.1330   21.9700  -32.3320 C   0  0  0  0  0  0  0  0  0  0  0  0
   -7.8660   23.0650  -31.8820 C   0  0  0  0  0  0  0  0  0  0  0  0
   -7.2180   24.1460  -31.2900 C   0  0  0  0  0  0  0  0  0  0  0  0
   -5.8200   24.1580  -31.1490 C   0  0  0  0  0  0  0  0  0  0  0  0
   -5.1700   25.3290  -30.5080 C   0  0  0  0  0  0  0  0  0  0  0  0
   -5.7900   26.0430  -29.6760 O   0  0  0  0  0  0  0  0  0  0  0  0
   -3.8620   25.6710  -30.8340 O   0  0  0  0  0  0  0  0  0  0  0  0
   -5.0680   23.0620  -31.6420 C   0  0  0  0  0  0  0  0  0  0  0  0
   -3.6670   23.1000  -31.5740 O   0  0  0  0  0  0  0  0  0  0  0  0
   -2.9150   22.4180  -30.5680 C   0  0  0  0  0  0  0  0  0  0  0  0
   -2.8350   23.2490  -29.3170 C   0  0  0  0  0  0  0  0  0  0  0  0
   -1.7620   24.1330  -29.1220 C   0  0  0  0  0  0  0  0  0  0  0  0
   -1.7200   24.9500  -27.9880 C   0  0  0  0  0  0  0  0  0  0  0  0
   -2.7520   24.8960  -27.0470 C   0  0  0  0  0  0  0  0  0  0  0  0
   -3.8300   24.0260  -27.2410 C   0  0  0  0  0  0  0  0  0  0  0  0
   -3.8750   23.2090  -28.3740 C   0  0  0  0  0  0  0  0  0  0  0  0
   -8.3699   18.2382  -31.1376 H   0  0  0  0  0  0  0  0  0  0  0  0
   -8.4567   19.2507  -32.6188 H   0  0  0  0  0  0  0  0  0  0  0  0
   -7.4837   17.7408  -32.6188 H   0  0  0  0  0  0  0  0  0  0  0  0
   -5.1019   17.3118  -32.4596 H   0  0  0  0  0  0  0  0  0  0  0  0
   -3.0069   17.5789  -33.7805 H   0  0  0  0  0  0  0  0  0  0  0  0
   -2.1779   19.8546  -34.3687 H   0  0  0  0  0  0  0  0  0  0  0  0
   -3.4422   21.8729  -33.6390 H   0  0  0  0  0  0  0  0  0  0  0  0
   -7.6537   21.1134  -32.7850 H   0  0  0  0  0  0  0  0  0  0  0  0
   -8.9602   23.0761  -31.9945 H   0  0  0  0  0  0  0  0  0  0  0  0
   -7.8078   25.0011  -30.9282 H   0  0  0  0  0  0  0  0  0  0  0  0
   -3.4050   21.4608  -30.3362 H   0  0  0  0  0  0  0  0  0  0  0  0
   -1.8964   22.2410  -30.9436 H   0  0  0  0  0  0  0  0  0  0  0  0
   -0.9514   24.1831  -29.8639 H   0  0  0  0  0  0  0  0  0  0  0  0
   -0.8737   25.6361  -27.8363 H   0  0  0  0  0  0  0  0  0  0  0  0
   -2.7165   25.5375  -26.1541 H   0  0  0  0  0  0  0  0  0  0  0  0
   -4.6430   23.9848  -26.5012 H   0  0  0  0  0  0  0  0  0  0  0  0
   -4.7283   22.5320  -28.5278 H   0  0  0  0  0  0  0  0  0  0  0  0
  1  2  1  0
  2  3  1  0
  3  4  2  0
  4  5  1  0
  5  6  2  0
  6  7  1  0
  7  8  2  0
  8  9  1  0
  9 10  2  0
 10 11  1  0
 11 12  2  0
 12 13  1  0
 13 14  1  0
 14 15  2  0
 14 16  1  0
 13 17  2  0
 17 18  1  0
 18 19  1  0
 19 20  1  0
 20 21  2  0
 21 22  1  0
 22 23  2  0
 23 24  1  0
 24 25  2  0
  8  3  1  0
 17  9  1  0
 25 20  1  0
  1 26  1  0
  1 27  1  0
  1 28  1  0
  4 29  1  0
  5 30  1  0
  6 31  1  0
  7 32  1  0
 10 33  1  0
 11 34  1  0
 12 35  1  0
 19 36  1  0
 19 37  1  0
 21 38  1  0
 22 39  1  0
 23 40  1  0
 24 41  1  0
 25 42  1  0
M  CHG  1  16  -1
M  END
>  <UniqueID>  (24) 
23

>  <SMILES>  (24) 
COc1ccccc1-c1cccc(C(=O)[O-])c1OCc1ccccc1

>  <Energy>  (24) 
56.339456720937136

>  <Genealogy>  (24) 
COc1ccccc1-c1cccc(C(=O)[O-])c1OCc1ccccc1 (protonated)
COc1ccccc1-c1cccc(C(=O)[O-])c1OCc1ccccc1 (3D coordinates assigned)
COc1ccccc1-c1cccc(C(=O)[O-])c1OCc1ccccc1 (optimized conformer: 56.339456720937136 kcal/mol)

>  <smiles>  (24) 
COc1ccccc1-c1cccc(C(=O)O)c1OCc1ccccc1

>  <score_type>  (24) 
oracle

>  <origin>  (24) 
adg

>  <m_score__min__energy>  (24) 
-9.9399999999999995

>  <m_primary>  (24) 
energy

$$$$
24:0
     RDKit          3D

 48 51  0  0  0  0  0  0  0  0999 V2000
   -8.3750   18.9010  -31.9470 C   0  0  0  0  0  0  0  0  0  0  0  0
   -8.6000   20.1550  -32.5810 O   0  0  0  0  0  0  0  0  0  0  0  0
   -8.9890   21.2980  -31.8740 C   0  0  0  0  0  0  0  0  0  0  0  0
  -10.2040   21.4810  -31.5860 O   0  0  0  0  0  0  0  0  0  0  0  0
   -7.9710   22.2920  -31.4650 C   0  0  0  0  0  0  0  0  0  0  0  0
   -7.2970   23.0560  -32.4310 C   0  0  0  0  0  0  0  0  0  0  0  0
   -6.3360   23.9970  -32.0490 C   0  0  0  0  0  0  0  0  0  0  0  0
   -6.0380   24.1950  -30.6930 C   0  0  0  0  0  0  0  0  0  0  0  0
   -5.0000   25.2020  -30.2760 C   0  0  0  0  0  0  0  0  0  0  0  0
   -3.6860   24.7240  -30.5680 O   0  0  0  0  0  0  0  0  0  0  0  0
   -2.8080   24.1290  -29.6440 C   0  0  0  0  0  0  0  0  0  0  0  0
   -2.2340   24.8580  -28.5830 C   0  0  0  0  0  0  0  0  0  0  0  0
   -1.3970   24.2270  -27.6610 C   0  0  0  0  0  0  0  0  0  0  0  0
   -1.1220   22.8660  -27.7840 C   0  0  0  0  0  0  0  0  0  0  0  0
   -1.6740   22.1320  -28.8340 C   0  0  0  0  0  0  0  0  0  0  0  0
   -2.5080   22.7560  -29.7770 C   0  0  0  0  0  0  0  0  0  0  0  0
   -3.0810   21.9530  -30.8820 C   0  0  0  0  0  0  0  0  0  0  0  0
   -4.4260   21.5300  -30.8460 C   0  0  0  0  0  0  0  0  0  0  0  0
   -4.9670   20.7680  -31.8980 C   0  0  0  0  0  0  0  0  0  0  0  0
   -4.1570   20.4210  -32.9870 C   0  0  0  0  0  0  0  0  0  0  0  0
   -2.8660   20.8370  -32.9830 N   0  0  0  0  0  0  0  0  0  0  0  0
   -1.8930   20.6170  -33.8770 C   0  0  0  0  0  0  0  0  0  0  0  0
   -0.7560   21.2410  -33.3910 C   0  0  0  0  0  0  0  0  0  0  0  0
    0.5920   21.2040  -34.0260 C   0  0  0  0  0  0  0  0  0  0  0  0
   -1.0100   21.8280  -32.1960 N   0  0  0  0  0  0  0  0  0  0  0  0
   -2.3190   21.5650  -31.9940 C   0  0  0  0  0  0  0  0  0  0  0  0
   -6.6990   23.4240  -29.7250 C   0  0  0  0  0  0  0  0  0  0  0  0
   -7.6590   22.4830  -30.1060 C   0  0  0  0  0  0  0  0  0  0  0  0
   -8.3986   19.0327  -30.8552 H   0  0  0  0  0  0  0  0  0  0  0  0
   -9.1603   18.1919  -32.2479 H   0  0  0  0  0  0  0  0  0  0  0  0
   -7.3922   18.5091  -32.2479 H   0  0  0  0  0  0  0  0  0  0  0  0
   -7.5269   22.9131  -33.4972 H   0  0  0  0  0  0  0  0  0  0  0  0
   -5.8109   24.5851  -32.8161 H   0  0  0  0  0  0  0  0  0  0  0  0
   -5.1709   26.1429  -30.8196 H   0  0  0  0  0  0  0  0  0  0  0  0
   -5.0832   25.3669  -29.1916 H   0  0  0  0  0  0  0  0  0  0  0  0
   -2.4472   25.9323  -28.4807 H   0  0  0  0  0  0  0  0  0  0  0  0
   -0.9539   24.8046  -26.8363 H   0  0  0  0  0  0  0  0  0  0  0  0
   -0.4683   22.3697  -27.0516 H   0  0  0  0  0  0  0  0  0  0  0  0
   -1.4549   21.0578  -28.9243 H   0  0  0  0  0  0  0  0  0  0  0  0
   -5.0584   21.7985  -29.9869 H   0  0  0  0  0  0  0  0  0  0  0  0
   -6.0186   20.4470  -31.8655 H   0  0  0  0  0  0  0  0  0  0  0  0
   -4.5569   19.8275  -33.8224 H   0  0  0  0  0  0  0  0  0  0  0  0
   -1.9802   20.0503  -34.8157 H   0  0  0  0  0  0  0  0  0  0  0  0
    1.3653   21.1828  -33.2439 H   0  0  0  0  0  0  0  0  0  0  0  0
    0.6781   20.3032  -34.6513 H   0  0  0  0  0  0  0  0  0  0  0  0
    0.7274   22.0988  -34.6513 H   0  0  0  0  0  0  0  0  0  0  0  0
   -6.4601   23.5611  -28.6600 H   0  0  0  0  0  0  0  0  0  0  0  0
   -8.1746   21.8873  -29.3383 H   0  0  0  0  0  0  0  0  0  0  0  0
  1  2  1  0
  2  3  1  0
  3  4  2  0
  3  5  1  0
  5  6  2  0
  6  7  1  0
  7  8  2  0
  8  9  1  0
  9 10  1  0
 10 11  1  0
 11 12  2  0
 12 13  1  0
 13 14  2  0
 14 15  1  0
 15 16  2  0
 16 17  1  0
 17 18  2  0
 18 19  1  0
 19 20  2  0
 20 21  1  0
 21 22  1  0
 22 23  2  0
 23 24  1  0
 23 25  1  0
 25 26  2  0
  8 27  1  0
 27 28  2  0
 28  5  1  0
 16 11  1  0
 26 17  1  0
 26 21  1  0
  1 29  1  0
  1 30  1  0
  1 31  1  0
  6 32  1  0
  7 33  1  0
  9 34  1  0
  9 35  1  0
 12 36  1  0
 13 37  1  0
 14 38  1  0
 15 39  1  0
 18 40  1  0
 19 41  1  0
 20 42  1  0
 22 43  1  0
 24 44  1  0
 24 45  1  0
 24 46  1  0
 27 47  1  0
 28 48  1  0
M  END
>  <UniqueID>  (25) 
24

>  <SMILES>  (25) 
COC(=O)c1ccc(COc2ccccc2-c2cccn3cc(C)nc23)cc1

>  <Energy>  (25) 
89.56672425388064

>  <Genealogy>  (25) 
COC(=O)c1ccc(COc2ccccc2-c2cccn3cc(C)nc23)cc1 (3D coordinates assigned)
COC(=O)c1ccc(COc2ccccc2-c2cccn3cc(C)nc23)cc1 (optimized conformer: 89.56672425388064 kcal/mol)

>  <smiles>  (25) 
COC(=O)c1ccc(COc2ccccc2-c2cccn3cc(C)nc23)cc1

>  <score_type>  (25) 
oracle

>  <origin>  (25) 
adg

>  <m_score__min__energy>  (25) 
-8.8900000000000006

>  <m_primary>  (25) 
energy

$$$$
25:0
     RDKit          3D

 53 54  0  0  0  0  0  0  0  0999 V2000
   -2.8830   21.0300  -33.3960 C   0  0  0  0  0  0  0  0  0  0  0  0
   -2.6620   19.5460  -33.1070 C   0  0  0  0  0  0  0  0  0  0  0  0
   -3.2870   18.5900  -34.1520 C   0  0  0  0  0  0  0  0  0  0  0  0
   -4.5500   17.8940  -33.7640 N   0  0  0  0  0  0  0  0  0  0  0  0
   -4.5140   16.4190  -33.9330 C   0  0  0  0  0  0  0  0  0  0  0  0
   -5.7130   15.7140  -33.2690 C   0  0  0  0  0  0  0  0  0  0  0  0
   -6.8040   15.4050  -34.2910 C   0  0  0  0  0  0  0  0  0  0  0  0
   -5.7410   18.4800  -34.4360 C   0  0  0  0  0  0  0  0  0  0  0  0
   -6.6070   19.2590  -33.4700 C   0  0  0  0  0  0  0  0  0  0  0  0
   -7.8710   18.7800  -33.0950 C   0  0  0  0  0  0  0  0  0  0  0  0
   -8.6530   19.4930  -32.1840 C   0  0  0  0  0  0  0  0  0  0  0  0
   -8.1830   20.6910  -31.6350 C   0  0  0  0  0  0  0  0  0  0  0  0
   -9.2110   21.5540  -30.5020 Cl  0  0  0  0  0  0  0  0  0  0  0  0
   -6.9200   21.1860  -32.0060 C   0  0  0  0  0  0  0  0  0  0  0  0
   -6.4020   22.4030  -31.4380 N   0  0  0  0  0  0  0  0  0  0  0  0
   -7.2930   23.5650  -31.3170 C   0  0  0  0  0  0  0  0  0  0  0  0
   -6.6560   24.7030  -30.5090 C   0  0  0  0  0  0  0  0  0  0  0  0
   -5.4140   25.3230  -31.1740 C   0  0  0  0  0  0  0  0  0  0  0  0
   -4.1690   24.6560  -30.7530 N   0  0  0  0  0  0  0  0  0  0  0  0
   -4.0750   23.2370  -31.1350 C   0  0  0  0  0  0  0  0  0  0  0  0
   -5.2050   22.3480  -30.5900 C   0  0  0  0  0  0  0  0  0  0  0  0
   -6.1370   20.4600  -32.9190 C   0  0  0  0  0  0  0  0  0  0  0  0
   -2.9649   21.5801  -32.4470 H   0  0  0  0  0  0  0  0  0  0  0  0
   -2.0332   21.4214  -33.9745 H   0  0  0  0  0  0  0  0  0  0  0  0
   -3.8099   21.1568  -33.9745 H   0  0  0  0  0  0  0  0  0  0  0  0
   -1.5784   19.3595  -33.0751 H   0  0  0  0  0  0  0  0  0  0  0  0
   -3.1623   19.3350  -32.1503 H   0  0  0  0  0  0  0  0  0  0  0  0
   -3.4972   19.1791  -35.0568 H   0  0  0  0  0  0  0  0  0  0  0  0
   -2.5469   17.7869  -34.2832 H   0  0  0  0  0  0  0  0  0  0  0  0
   -4.6550   18.0780  -32.7370 H   0  0  0  0  0  0  0  0  0  0  0  0
   -4.5215   16.1879  -35.0084 H   0  0  0  0  0  0  0  0  0  0  0  0
   -3.6001   16.0511  -33.4438 H   0  0  0  0  0  0  0  0  0  0  0  0
   -5.3697   14.7730  -32.8144 H   0  0  0  0  0  0  0  0  0  0  0  0
   -6.1314   16.3835  -32.5030 H   0  0  0  0  0  0  0  0  0  0  0  0
   -7.7341   15.1416  -33.7661 H   0  0  0  0  0  0  0  0  0  0  0  0
   -6.9768   16.2895  -34.9217 H   0  0  0  0  0  0  0  0  0  0  0  0
   -6.4873   14.5612  -34.9217 H   0  0  0  0  0  0  0  0  0  0  0  0
   -5.4020   19.1562  -35.2347 H   0  0  0  0  0  0  0  0  0  0  0  0
   -6.3428   17.6547  -34.8444 H   0  0  0  0  0  0  0  0  0  0  0  0
   -8.2479   17.8383  -33.5206 H   0  0  0  0  0  0  0  0  0  0  0  0
   -9.6436   19.1108  -31.8965 H   0  0  0  0  0  0  0  0  0  0  0  0
   -7.5300   23.9360  -32.3251 H   0  0  0  0  0  0  0  0  0  0  0  0
   -8.2000   23.2408  -30.7858 H   0  0  0  0  0  0  0  0  0  0  0  0
   -7.4078   25.4946  -30.3742 H   0  0  0  0  0  0  0  0  0  0  0  0
   -6.3231   24.2686  -29.5548 H   0  0  0  0  0  0  0  0  0  0  0  0
   -5.5135   25.2321  -32.2657 H   0  0  0  0  0  0  0  0  0  0  0  0
   -5.3549   26.3771  -30.8652 H   0  0  0  0  0  0  0  0  0  0  0  0
   -3.3270   25.1740  -31.0970 H   0  0  0  0  0  0  0  0  0  0  0  0
   -4.0908   23.1762  -32.2332 H   0  0  0  0  0  0  0  0  0  0  0  0
   -3.1415   22.8579  -30.6935 H   0  0  0  0  0  0  0  0  0  0  0  0
   -4.8489   21.3082  -30.5444 H   0  0  0  0  0  0  0  0  0  0  0  0
   -5.4779   22.7178  -29.5906 H   0  0  0  0  0  0  0  0  0  0  0  0
   -5.1442   20.8377  -33.2049 H   0  0  0  0  0  0  0  0  0  0  0  0
  1  2  1  0
  2  3  1  0
  3  4  1  0
  4  5  1  0
  5  6  1  0
  6  7  1  0
  4  8  1  0
  8  9  1  0
  9 10  2  0
 10 11  1  0
 11 12  2  0
 12 13  1  0
 12 14  1  0
 14 15  1  0
 15 16  1  0
 16 17  1  0
 17 18  1  0
 18 19  1  0
 19 20  1  0
 20 21  1  0
 14 22  2  0
 22  9  1  0
 21 15  1  0
  1 23  1  0
  1 24  1  0
  1 25  1  0
  2 26  1  0
  2 27  1  0
  3 28  1  0
  3 29  1  0
  4 30  1  0
  5 31  1  0
  5 32  1  0
  6 33  1  0
  6 34  1  0
  7 35  1  0
  7 36  1  0
  7 37  1  0
  8 38  1  0
  8 39  1  0
 10 40  1  0
 11 41  1  0
 16 42  1  0
 16 43  1  0
 17 44  1  0
 17 45  1  0
 18 46  1  0
 18 47  1  0
 19 48  1  0
 20 49  1  0
 20 50  1  0
 21 51  1  0
 21 52  1  0
 22 53  1  0
M  CHG  1   4   1
M  END
>  <UniqueID>  (26) 
25

>  <SMILES>  (26) 
CCC[NH+](CCC)Cc1ccc(Cl)c(N2CCCNCC2)c1

>  <Energy>  (26) 
64.96445387173404

>  <Genealogy>  (26) 
CCC[NH+](CCC)Cc1ccc(Cl)c(N2CCCNCC2)c1 (protonated)
CCC[NH+](CCC)Cc1ccc(Cl)c(N2CCCNCC2)c1 (3D coordinates assigned)
CCC[NH+](CCC)Cc1ccc(Cl)c(N2CCCNCC2)c1 (nonaromatic ring conformer: 64.96445387173404 kcal/mol)

>  <smiles>  (26) 
CCCN(CCC)Cc1ccc(Cl)c(N2CCCNCC2)c1

>  <score_type>  (26) 
oracle

>  <origin>  (26) 
adg

>  <m_score__min__energy>  (26) 
-5.5

>  <m_primary>  (26) 
energy

$$$$
26:0
     RDKit          3D

 61 65  0  0  0  0  0  0  0  0999 V2000
   -5.7330   18.1670  -34.9540 C   0  0  0  0  0  0  0  0  0  0  0  0
   -5.6800   17.8160  -33.5260 N   0  0  0  0  0  0  0  0  0  0  0  0
   -6.9750   17.2710  -33.0510 C   0  0  0  0  0  0  0  0  0  0  0  0
   -7.9800   18.3870  -32.6890 C   0  0  0  0  0  0  0  0  0  0  0  0
   -7.4290   19.4030  -31.7500 N   0  0  0  0  0  0  0  0  0  0  0  0
   -7.6990   20.7830  -32.2140 C   0  0  0  0  0  0  0  0  0  0  0  0
   -6.6380   21.7310  -31.7120 C   0  0  0  0  0  0  0  0  0  0  0  0
   -5.5540   22.0670  -32.5350 C   0  0  0  0  0  0  0  0  0  0  0  0
   -4.5980   22.9910  -32.1040 C   0  0  0  0  0  0  0  0  0  0  0  0
   -4.7010   23.5760  -30.8300 C   0  0  0  0  0  0  0  0  0  0  0  0
   -3.7840   24.5840  -30.3880 N   0  0  0  0  0  0  0  0  0  0  0  0
   -2.5430   24.3590  -29.7090 C   0  0  0  0  0  0  0  0  0  0  0  0
   -2.0050   25.2970  -29.0600 O   0  0  0  0  0  0  0  0  0  0  0  0
   -1.9250   23.0050  -29.7330 C   0  0  0  0  0  0  0  0  0  0  0  0
   -1.7360   22.3990  -30.9860 C   0  0  0  0  0  0  0  0  0  0  0  0
   -1.3150   21.0660  -31.0780 C   0  0  0  0  0  0  0  0  0  0  0  0
   -1.1800   20.4290  -32.4070 C   0  0  0  0  0  0  0  0  0  0  0  0
   -0.2890   20.9560  -33.3580 C   0  0  0  0  0  0  0  0  0  0  0  0
   -0.1100   20.3100  -34.5890 C   0  0  0  0  0  0  0  0  0  0  0  0
   -0.8310   19.1500  -34.8890 C   0  0  0  0  0  0  0  0  0  0  0  0
   -1.7350   18.6300  -33.9580 C   0  0  0  0  0  0  0  0  0  0  0  0
   -1.9040   19.2660  -32.7170 C   0  0  0  0  0  0  0  0  0  0  0  0
   -1.0760   20.3470  -29.9430 N   0  0  0  0  0  0  0  0  0  0  0  0
   -1.1910   20.9060  -28.7030 C   0  0  0  0  0  0  0  0  0  0  0  0
   -0.8940   20.1400  -27.5610 C   0  0  0  0  0  0  0  0  0  0  0  0
   -0.9760   20.7080  -26.2890 C   0  0  0  0  0  0  0  0  0  0  0  0
   -1.3380   22.0480  -26.1440 C   0  0  0  0  0  0  0  0  0  0  0  0
   -1.6420   22.8270  -27.2690 C   0  0  0  0  0  0  0  0  0  0  0  0
   -1.6040   22.2630  -28.5640 C   0  0  0  0  0  0  0  0  0  0  0  0
   -5.7820   23.2370  -30.0090 C   0  0  0  0  0  0  0  0  0  0  0  0
   -6.7410   22.3160  -30.4410 C   0  0  0  0  0  0  0  0  0  0  0  0
   -5.9940   19.2050  -31.4400 C   0  0  0  0  0  0  0  0  0  0  0  0
   -5.1670   18.9450  -32.7100 C   0  0  0  0  0  0  0  0  0  0  0  0
   -5.8965   19.2496  -35.0596 H   0  0  0  0  0  0  0  0  0  0  0  0
   -4.7830   17.8910  -35.4349 H   0  0  0  0  0  0  0  0  0  0  0  0
   -6.5592   17.6228  -35.4349 H   0  0  0  0  0  0  0  0  0  0  0  0
   -7.4096   16.6470  -33.8458 H   0  0  0  0  0  0  0  0  0  0  0  0
   -6.7809   16.6832  -32.1417 H   0  0  0  0  0  0  0  0  0  0  0  0
   -8.2819   18.8972  -33.6156 H   0  0  0  0  0  0  0  0  0  0  0  0
   -8.8287   17.9051  -32.1816 H   0  0  0  0  0  0  0  0  0  0  0  0
   -7.7068   20.7992  -33.3139 H   0  0  0  0  0  0  0  0  0  0  0  0
   -8.6750   21.1039  -31.8210 H   0  0  0  0  0  0  0  0  0  0  0  0
   -5.4552   21.6005  -33.5263 H   0  0  0  0  0  0  0  0  0  0  0  0
   -3.7612   23.2616  -32.7647 H   0  0  0  0  0  0  0  0  0  0  0  0
   -1.9203   22.9766  -31.9038 H   0  0  0  0  0  0  0  0  0  0  0  0
    0.2690   21.8775  -33.1356 H   0  0  0  0  0  0  0  0  0  0  0  0
    0.6011   20.7175  -35.3227 H   0  0  0  0  0  0  0  0  0  0  0  0
   -0.6870   18.6471  -35.8567 H   0  0  0  0  0  0  0  0  0  0  0  0
   -2.3127   17.7248  -34.1967 H   0  0  0  0  0  0  0  0  0  0  0  0
   -2.6089   18.8500  -31.9821 H   0  0  0  0  0  0  0  0  0  0  0  0
   -0.7660   19.3520  -30.0330 H   0  0  0  0  0  0  0  0  0  0  0  0
   -0.5954   19.0871  -27.6714 H   0  0  0  0  0  0  0  0  0  0  0  0
   -0.7551   20.0991  -25.3999 H   0  0  0  0  0  0  0  0  0  0  0  0
   -1.3851   22.4958  -25.1404 H   0  0  0  0  0  0  0  0  0  0  0  0
   -1.9123   23.8858  -27.1427 H   0  0  0  0  0  0  0  0  0  0  0  0
   -5.8781   23.6990  -29.0154 H   0  0  0  0  0  0  0  0  0  0  0  0
   -7.5799   22.0489  -29.7815 H   0  0  0  0  0  0  0  0  0  0  0  0
   -5.6091   20.1076  -30.9428 H   0  0  0  0  0  0  0  0  0  0  0  0
   -5.9033   18.3250  -30.7863 H   0  0  0  0  0  0  0  0  0  0  0  0
   -5.1799   19.8555  -33.3271 H   0  0  0  0  0  0  0  0  0  0  0  0
   -4.1504   18.6767  -32.3866 H   0  0  0  0  0  0  0  0  0  0  0  0
  1  2  1  0
  2  3  1  0
  3  4  1  0
  4  5  1  0
  5  6  1  0
  6  7  1  0
  7  8  2  0
  8  9  1  0
  9 10  2  0
 10 11  1  0
 11 12  1  0
 12 13  2  0
 12 14  1  0
 14 15  2  0
 15 16  1  0
 16 17  1  0
 17 18  2  0
 18 19  1  0
 19 20  2  0
 20 21  1  0
 21 22  2  0
 16 23  2  0
 23 24  1  0
 24 25  2  0
 25 26  1  0
 26 27  2  0
 27 28  1  0
 28 29  2  0
 10 30  1  0
 30 31  2  0
  5 32  1  0
 32 33  1  0
 33  2  1  0
 31  7  1  0
 29 14  1  0
 22 17  1  0
 29 24  1  0
  1 34  1  0
  1 35  1  0
  1 36  1  0
  3 37  1  0
  3 38  1  0
  4 39  1  0
  4 40  1  0
  6 41  1  0
  6 42  1  0
  8 43  1  0
  9 44  1  0
 15 45  1  0
 18 46  1  0
 19 47  1  0
 20 48  1  0
 21 49  1  0
 22 50  1  0
 23 51  1  0
 25 52  1  0
 26 53  1  0
 27 54  1  0
 28 55  1  0
 30 56  1  0
 31 57  1  0
 32 58  1  0
 32 59  1  0
 33 60  1  0
 33 61  1  0
M  CHG  2  11  -1  23   1
M  END
>  <UniqueID>  (27) 
26

>  <SMILES>  (27) 
CN1CCN(Cc2ccc([N-]C(=O)c3cc(-c4ccccc4)[nH+]c4ccccc34)cc2)CC1

>  <Energy>  (27) 
100.60795412302019

>  <Genealogy>  (27) 
CN1CCN(Cc2ccc([N-]C(=O)c3cc(-c4ccccc4)[nH+]c4ccccc34)cc2)CC1 (protonated)
CN1CCN(Cc2ccc([N-]C(=O)c3cc(-c4ccccc4)[nH+]c4ccccc34)cc2)CC1 (3D coordinates assigned)
CN1CCN(Cc2ccc([N-]C(=O)c3cc(-c4ccccc4)[nH+]c4ccccc34)cc2)CC1 (nonaromatic ring conformer: 100.60795412302019 kcal/mol)

>  <smiles>  (27) 
CN1CCN(Cc2ccc(NC(=O)c3cc(-c4ccccc4)nc4ccccc34)cc2)CC1

>  <score_type>  (27) 
oracle

>  <origin>  (27) 
adg

>  <m_score__min__energy>  (27) 
-11.369999999999999

>  <m_primary>  (27) 
energy

$$$$
27:0
     RDKit          3D

 45 46  0  0  0  0  0  0  0  0999 V2000
   -6.0510   18.9520  -34.4630 C   0  0  0  0  0  0  0  0  0  0  0  0
   -6.8150   19.9110  -33.5350 C   0  0  0  0  0  0  0  0  0  0  0  0
   -8.0760   19.3780  -32.9420 N   0  0  0  0  0  0  0  0  0  0  0  0
   -7.9800   18.0210  -32.3400 C   0  0  0  0  0  0  0  0  0  0  0  0
   -6.7470   17.8730  -31.4390 C   0  0  0  0  0  0  0  0  0  0  0  0
   -8.7780   20.3470  -32.0580 C   0  0  0  0  0  0  0  0  0  0  0  0
   -8.1430   21.7510  -31.9690 C   0  0  0  0  0  0  0  0  0  0  0  0
   -6.8640   21.7230  -31.2560 N   0  0  0  0  0  0  0  0  0  0  0  0
   -6.1810   22.9210  -30.8330 C   0  0  0  0  0  0  0  0  0  0  0  0
   -6.8700   24.1460  -30.8180 C   0  0  0  0  0  0  0  0  0  0  0  0
   -6.2250   25.3230  -30.4470 C   0  0  0  0  0  0  0  0  0  0  0  0
   -4.8800   25.3050  -30.0840 C   0  0  0  0  0  0  0  0  0  0  0  0
   -4.1580   24.0990  -30.0790 C   0  0  0  0  0  0  0  0  0  0  0  0
   -2.7990   24.0820  -29.6980 C   0  0  0  0  0  0  0  0  0  0  0  0
   -2.1690   25.2890  -29.3420 O   0  0  0  0  0  0  0  0  0  0  0  0
   -1.3780   25.4760  -28.1730 C   0  0  0  0  0  0  0  0  0  0  0  0
   -2.1040   22.8590  -29.6790 C   0  0  0  0  0  0  0  0  0  0  0  0
   -2.7470   21.6740  -30.0260 C   0  0  0  0  0  0  0  0  0  0  0  0
   -4.0880   21.6830  -30.4060 C   0  0  0  0  0  0  0  0  0  0  0  0
   -4.8130   22.8900  -30.4530 C   0  0  0  0  0  0  0  0  0  0  0  0
   -5.4788   18.2338  -33.8573 H   0  0  0  0  0  0  0  0  0  0  0  0
   -6.7663   18.4085  -35.0978 H   0  0  0  0  0  0  0  0  0  0  0  0
   -5.3613   19.5277  -35.0978 H   0  0  0  0  0  0  0  0  0  0  0  0
   -6.1437   20.1859  -32.7081 H   0  0  0  0  0  0  0  0  0  0  0  0
   -7.1186   20.7582  -34.1675 H   0  0  0  0  0  0  0  0  0  0  0  0
   -8.7340   19.2790  -33.7540 H   0  0  0  0  0  0  0  0  0  0  0  0
   -8.8824   17.8354  -31.7390 H   0  0  0  0  0  0  0  0  0  0  0  0
   -7.8886   17.2934  -33.1599 H   0  0  0  0  0  0  0  0  0  0  0  0
   -7.0570   17.9102  -30.3842 H   0  0  0  0  0  0  0  0  0  0  0  0
   -6.2570   16.9096  -31.6434 H   0  0  0  0  0  0  0  0  0  0  0  0
   -6.0429   18.6931  -31.6434 H   0  0  0  0  0  0  0  0  0  0  0  0
   -9.8056   20.4637  -32.4327 H   0  0  0  0  0  0  0  0  0  0  0  0
   -8.7191   19.9257  -31.0436 H   0  0  0  0  0  0  0  0  0  0  0  0
   -7.9751   22.1315  -32.9874 H   0  0  0  0  0  0  0  0  0  0  0  0
   -8.8315   22.4040  -31.4126 H   0  0  0  0  0  0  0  0  0  0  0  0
   -6.3420   20.8190  -31.2180 H   0  0  0  0  0  0  0  0  0  0  0  0
   -7.9321   24.1753  -31.1029 H   0  0  0  0  0  0  0  0  0  0  0  0
   -6.7805   26.2724  -30.4405 H   0  0  0  0  0  0  0  0  0  0  0  0
   -4.3791   26.2420  -29.7991 H   0  0  0  0  0  0  0  0  0  0  0  0
   -2.0030   25.3283  -27.2799 H   0  0  0  0  0  0  0  0  0  0  0  0
   -0.5533   24.7481  -28.1680 H   0  0  0  0  0  0  0  0  0  0  0  0
   -0.9666   26.4962  -28.1680 H   0  0  0  0  0  0  0  0  0  0  0  0
   -1.0435   22.8389  -29.3875 H   0  0  0  0  0  0  0  0  0  0  0  0
   -2.1930   20.7241  -30.0001 H   0  0  0  0  0  0  0  0  0  0  0  0
   -4.5851   20.7384  -30.6718 H   0  0  0  0  0  0  0  0  0  0  0  0
  1  2  1  0
  2  3  1  0
  3  4  1  0
  4  5  1  0
  3  6  1  0
  6  7  1  0
  7  8  1  0
  8  9  1  0
  9 10  2  0
 10 11  1  0
 11 12  2  0
 12 13  1  0
 13 14  2  0
 14 15  1  0
 15 16  1  0
 14 17  1  0
 17 18  2  0
 18 19  1  0
 19 20  2  0
 20  9  1  0
 20 13  1  0
  1 21  1  0
  1 22  1  0
  1 23  1  0
  2 24  1  0
  2 25  1  0
  3 26  1  0
  4 27  1  0
  4 28  1  0
  5 29  1  0
  5 30  1  0
  5 31  1  0
  6 32  1  0
  6 33  1  0
  7 34  1  0
  7 35  1  0
  8 36  1  0
 10 37  1  0
 11 38  1  0
 12 39  1  0
 16 40  1  0
 16 41  1  0
 16 42  1  0
 17 43  1  0
 18 44  1  0
 19 45  1  0
M  CHG  1   3   1
M  END
>  <UniqueID>  (28) 
27

>  <SMILES>  (28) 
CC[NH+](CC)CCNc1cccc2c(OC)cccc12

>  <Energy>  (28) 
58.852150177888426

>  <Genealogy>  (28) 
CC[NH+](CC)CCNc1cccc2c(OC)cccc12 (protonated)
CC[NH+](CC)CCNc1cccc2c(OC)cccc12 (3D coordinates assigned)
CC[NH+](CC)CCNc1cccc2c(OC)cccc12 (optimized conformer: 58.852150177888426 kcal/mol)

>  <smiles>  (28) 
CCN(CC)CCNc1cccc2c(OC)cccc12

>  <score_type>  (28) 
oracle

>  <origin>  (28) 
adg

>  <m_score__min__energy>  (28) 
-6.8099999999999996

>  <m_primary>  (28) 
energy

$$$$
28:0
     RDKit          3D

 77 81  0  0  0  0  0  0  0  0999 V2000
   -9.0930   20.7660  -31.5930 C   0  0  0  0  0  0  0  0  0  0  0  0
   -7.8670   20.0860  -31.3280 O   0  0  0  0  0  0  0  0  0  0  0  0
   -7.1490   19.3410  -32.2800 C   0  0  0  0  0  0  0  0  0  0  0  0
   -7.6090   18.0930  -32.7430 C   0  0  0  0  0  0  0  0  0  0  0  0
   -6.8580   17.3630  -33.6670 C   0  0  0  0  0  0  0  0  0  0  0  0
   -5.6460   17.8690  -34.1420 C   0  0  0  0  0  0  0  0  0  0  0  0
   -5.1800   19.1070  -33.6980 C   0  0  0  0  0  0  0  0  0  0  0  0
   -5.9270   19.8530  -32.7700 C   0  0  0  0  0  0  0  0  0  0  0  0
   -5.4630   21.1520  -32.3650 N   0  0  0  0  0  0  0  0  0  0  0  0
   -4.3510   21.2370  -31.4090 C   0  0  0  0  0  0  0  0  0  0  0  0
   -3.9420   22.6970  -31.1410 C   0  0  0  0  0  0  0  0  0  0  0  0
   -5.0880   23.6010  -30.8710 N   0  0  0  0  0  0  0  0  0  0  0  0
   -5.1400   24.1510  -29.5010 C   0  0  0  0  0  0  0  0  0  0  0  0
   -3.7840   24.4910  -28.9350 C   0  0  0  0  0  0  0  0  0  0  0  0
   -2.8740   24.9170  -29.7010 O   0  0  0  0  0  0  0  0  0  0  0  0
   -3.5430   24.3920  -27.5260 N   0  0  0  0  0  0  0  0  0  0  0  0
   -2.2590   24.7680  -26.9190 C   0  0  2  0  0  0  0  0  0  0  0  0
   -1.5990   25.9340  -27.6390 C   0  0  0  0  0  0  0  0  0  0  0  0
   -0.1410   25.8390  -27.4060 N   0  0  0  0  0  0  0  0  0  0  0  0
    0.3480   26.6320  -26.2340 C   0  0  0  0  0  0  0  0  0  0  0  0
    0.1810   25.8550  -24.8910 C   0  0  0  0  0  0  0  0  0  0  0  0
   -0.1500   26.7500  -23.6770 C   0  0  0  0  0  0  0  0  0  0  0  0
    0.5090   28.0700  -23.7460 N   0  0  0  0  0  0  0  0  0  0  0  0
    1.9660   27.9770  -23.5320 C   0  0  0  0  0  0  0  0  0  0  0  0
    0.1590   28.8350  -24.9700 C   0  0  0  0  0  0  0  0  0  0  0  0
   -0.4250   27.9700  -26.1090 C   0  0  0  0  0  0  0  0  0  0  0  0
    0.1230   24.3860  -27.2620 C   0  0  0  0  0  0  0  0  0  0  0  0
   -1.1980   23.6650  -26.9470 C   0  0  2  0  0  0  0  0  0  0  0  0
   -1.4670   22.5180  -27.9160 C   0  0  0  0  0  0  0  0  0  0  0  0
   -2.3170   21.4660  -27.5270 C   0  0  0  0  0  0  0  0  0  0  0  0
   -2.5660   20.4000  -28.3960 C   0  0  0  0  0  0  0  0  0  0  0  0
   -1.9730   20.3700  -29.6600 C   0  0  0  0  0  0  0  0  0  0  0  0
   -1.1250   21.4060  -30.0580 C   0  0  0  0  0  0  0  0  0  0  0  0
   -0.5320   21.3680  -31.2780 F   0  0  0  0  0  0  0  0  0  0  0  0
   -0.8720   22.4760  -29.1920 C   0  0  0  0  0  0  0  0  0  0  0  0
   -6.4050   23.1770  -31.3960 C   0  0  0  0  0  0  0  0  0  0  0  0
   -6.2470   22.3510  -32.6720 C   0  0  0  0  0  0  0  0  0  0  0  0
   -9.5765   21.0342  -30.6421 H   0  0  0  0  0  0  0  0  0  0  0  0
   -8.8882   21.6795  -32.1706 H   0  0  0  0  0  0  0  0  0  0  0  0
   -9.7595   20.1086  -32.1706 H   0  0  0  0  0  0  0  0  0  0  0  0
   -8.5646   17.6912  -32.3750 H   0  0  0  0  0  0  0  0  0  0  0  0
   -7.2219   16.3873  -34.0214 H   0  0  0  0  0  0  0  0  0  0  0  0
   -5.0570   17.2898  -34.8683 H   0  0  0  0  0  0  0  0  0  0  0  0
   -4.2247   19.5005  -34.0755 H   0  0  0  0  0  0  0  0  0  0  0  0
   -4.6598   20.7733  -30.4605 H   0  0  0  0  0  0  0  0  0  0  0  0
   -3.4862   20.7119  -31.8407 H   0  0  0  0  0  0  0  0  0  0  0  0
   -3.2731   22.7150  -30.2679 H   0  0  0  0  0  0  0  0  0  0  0  0
   -3.4523   23.0651  -32.0546 H   0  0  0  0  0  0  0  0  0  0  0  0
   -5.7498   25.0664  -29.5167 H   0  0  0  0  0  0  0  0  0  0  0  0
   -5.5723   23.3713  -28.8566 H   0  0  0  0  0  0  0  0  0  0  0  0
   -4.3140   24.0260  -26.9210 H   0  0  0  0  0  0  0  0  0  0  0  0
   -2.5482   25.0079  -25.8852 H   0  0  0  0  0  0  0  0  0  0  0  0
   -1.8107   25.8770  -28.7169 H   0  0  0  0  0  0  0  0  0  0  0  0
   -1.9882   26.8907  -27.2606 H   0  0  0  0  0  0  0  0  0  0  0  0
    1.4164   26.8205  -26.4156 H   0  0  0  0  0  0  0  0  0  0  0  0
   -0.6333   25.1257  -25.0137 H   0  0  0  0  0  0  0  0  0  0  0  0
    1.1505   25.3809  -24.6783 H   0  0  0  0  0  0  0  0  0  0  0  0
   -1.2388   26.9018  -23.6380 H   0  0  0  0  0  0  0  0  0  0  0  0
    0.2218   26.2395  -22.7764 H   0  0  0  0  0  0  0  0  0  0  0  0
    2.1779   27.9635  -22.4527 H   0  0  0  0  0  0  0  0  0  0  0  0
    2.3459   27.0528  -23.9919 H   0  0  0  0  0  0  0  0  0  0  0  0
    2.4603   28.8454  -23.9919 H   0  0  0  0  0  0  0  0  0  0  0  0
   -0.5855   29.5982  -24.6993 H   0  0  0  0  0  0  0  0  0  0  0  0
    1.0948   29.2705  -25.3503 H   0  0  0  0  0  0  0  0  0  0  0  0
   -1.4827   27.7571  -25.8945 H   0  0  0  0  0  0  0  0  0  0  0  0
   -0.3307   28.5221  -27.0557 H   0  0  0  0  0  0  0  0  0  0  0  0
    0.5430   23.9930  -28.1996 H   0  0  0  0  0  0  0  0  0  0  0  0
    0.8412   24.2183  -26.4459 H   0  0  0  0  0  0  0  0  0  0  0  0
   -1.1858   23.1480  -25.9761 H   0  0  0  0  0  0  0  0  0  0  0  0
   -2.7882   21.4828  -26.5332 H   0  0  0  0  0  0  0  0  0  0  0  0
   -3.2314   19.5818  -28.0832 H   0  0  0  0  0  0  0  0  0  0  0  0
   -2.1737   19.5306  -30.3420 H   0  0  0  0  0  0  0  0  0  0  0  0
   -0.2038   23.2898  -29.5101 H   0  0  0  0  0  0  0  0  0  0  0  0
   -6.9165   22.5691  -30.6352 H   0  0  0  0  0  0  0  0  0  0  0  0
   -6.9937   24.0758  -31.6316 H   0  0  0  0  0  0  0  0  0  0  0  0
   -7.2385   22.0581  -33.0478 H   0  0  0  0  0  0  0  0  0  0  0  0
   -5.7332   22.9464  -33.4411 H   0  0  0  0  0  0  0  0  0  0  0  0
  1  2  1  0
  2  3  1  0
  3  4  2  0
  4  5  1  0
  5  6  2  0
  6  7  1  0
  7  8  2  0
  8  9  1  0
  9 10  1  0
 10 11  1  0
 11 12  1  0
 12 13  1  0
 13 14  1  0
 14 15  2  0
 14 16  1  0
 16 17  1  0
 17 18  1  0
 18 19  1  0
 19 20  1  0
 20 21  1  0
 21 22  1  0
 22 23  1  0
 23 24  1  0
 23 25  1  0
 25 26  1  0
 19 27  1  0
 27 28  1  0
 28 29  1  0
 29 30  2  0
 30 31  1  0
 31 32  2  0
 32 33  1  0
 33 34  1  0
 33 35  2  0
 12 36  1  0
 36 37  1  0
  8  3  1  0
 37  9  1  0
 28 17  1  0
 35 29  1  0
 26 20  1  0
  1 38  1  0
  1 39  1  0
  1 40  1  0
  4 41  1  0
  5 42  1  0
  6 43  1  0
  7 44  1  0
 10 45  1  0
 10 46  1  0
 11 47  1  0
 11 48  1  0
 13 49  1  0
 13 50  1  0
 16 51  1  0
 17 52  1  1
 18 53  1  0
 18 54  1  0
 20 55  1  0
 21 56  1  0
 21 57  1  0
 22 58  1  0
 22 59  1  0
 24 60  1  0
 24 61  1  0
 24 62  1  0
 25 63  1  0
 25 64  1  0
 26 65  1  0
 26 66  1  0
 27 67  1  0
 27 68  1  0
 28 69  1  1
 30 70  1  0
 31 71  1  0
 32 72  1  0
 35 73  1  0
 36 74  1  0
 36 75  1  0
 37 76  1  0
 37 77  1  0
M  END
>  <UniqueID>  (29) 
28

>  <SMILES>  (29) 
COc1ccccc1N1CCN(CC(=O)N[C@@H]2CN(C3CCN(C)CC3)C[C@@H]2c2cccc(F)c2)CC1

>  <Energy>  (29) 
116.38118226941032

>  <Genealogy>  (29) 
COc1ccccc1N1CCN(CC(=O)N[C@@H]2CN(C3CCN(C)CC3)C[C@@H]2c2cccc(F)c2)CC1 (chirality)
COc1ccccc1N1CCN(CC(=O)N[C@@H]2CN(C3CCN(C)CC3)C[C@@H]2c2cccc(F)c2)CC1 (3D coordinates assigned)
COc1ccccc1N1CCN(CC(=O)N[C@@H]2CN(C3CCN(C)CC3)C[C@@H]2c2cccc(F)c2)CC1 (nonaromatic ring conformer: 116.38118226941032 kcal/mol)

>  <smiles>  (29) 
COc1ccccc1N1CCN(CC(=O)NC2CN(C3CCN(C)CC3)CC2c2cccc(F)c2)CC1

>  <score_type>  (29) 
oracle

>  <origin>  (29) 
adg

>  <m_score__min__energy>  (29) 
-9.7300000000000004

>  <m_primary>  (29) 
energy

$$$$
29:0
     RDKit          3D

 45 48  0  0  0  0  0  0  0  0999 V2000
   -9.8430   21.6980  -31.2830 C   0  0  0  0  0  0  0  0  0  0  0  0
   -8.8410   20.6750  -31.7310 C   0  0  0  0  0  0  0  0  0  0  0  0
   -9.1090   19.3080  -31.5800 C   0  0  0  0  0  0  0  0  0  0  0  0
   -8.1710   18.3580  -31.9870 C   0  0  0  0  0  0  0  0  0  0  0  0
   -6.9430   18.7660  -32.5310 C   0  0  0  0  0  0  0  0  0  0  0  0
   -6.6130   20.1400  -32.5790 C   0  0  0  0  0  0  0  0  0  0  0  0
   -7.5950   21.0830  -32.2280 C   0  0  0  0  0  0  0  0  0  0  0  0
   -5.2200   20.6080  -33.0310 C   0  0  1  0  0  0  0  0  0  0  0  0
   -4.3910   21.1480  -31.8370 C   0  0  0  0  0  0  0  0  0  0  0  0
   -4.9220   22.4410  -31.2730 C   0  0  0  0  0  0  0  0  0  0  0  0
   -4.7910   22.7290  -29.9030 C   0  0  0  0  0  0  0  0  0  0  0  0
   -5.3150   23.9150  -29.3780 C   0  0  0  0  0  0  0  0  0  0  0  0
   -5.9680   24.8220  -30.2160 C   0  0  0  0  0  0  0  0  0  0  0  0
   -6.0980   24.5470  -31.5800 C   0  0  0  0  0  0  0  0  0  0  0  0
   -5.5780   23.3610  -32.1080 C   0  0  0  0  0  0  0  0  0  0  0  0
   -4.3890   19.4980  -33.7620 C   0  0  0  0  0  0  0  0  0  0  0  0
   -5.2430   18.3850  -34.2040 N   0  0  1  0  0  0  0  0  0  0  0  0
   -4.5250   17.2700  -34.8270 C   0  0  0  0  0  0  0  0  0  0  0  0
   -5.3860   16.0240  -34.5870 C   0  0  0  0  0  0  0  0  0  0  0  0
   -6.4490   16.4520  -33.5750 C   0  0  0  0  0  0  0  0  0  0  0  0
   -5.9290   17.7880  -33.0580 C   0  0  2  0  0  0  0  0  0  0  0  0
   -9.8712   21.7268  -30.1837 H   0  0  0  0  0  0  0  0  0  0  0  0
   -9.5546   22.6871  -31.6684 H   0  0  0  0  0  0  0  0  0  0  0  0
  -10.8378   21.4301  -31.6684 H   0  0  0  0  0  0  0  0  0  0  0  0
  -10.0626   18.9822  -31.1389 H   0  0  0  0  0  0  0  0  0  0  0  0
   -8.3947   17.2862  -31.8811 H   0  0  0  0  0  0  0  0  0  0  0  0
   -7.3828   22.1560  -32.3449 H   0  0  0  0  0  0  0  0  0  0  0  0
   -5.4124   21.4132  -33.7554 H   0  0  0  0  0  0  0  0  0  0  0  0
   -4.3967   20.3914  -31.0386 H   0  0  0  0  0  0  0  0  0  0  0  0
   -3.3770   21.3506  -32.2121 H   0  0  0  0  0  0  0  0  0  0  0  0
   -4.2742   22.0185  -29.2411 H   0  0  0  0  0  0  0  0  0  0  0  0
   -5.2128   24.1335  -28.3048 H   0  0  0  0  0  0  0  0  0  0  0  0
   -6.3804   25.7538  -29.8018 H   0  0  0  0  0  0  0  0  0  0  0  0
   -6.6097   25.2640  -32.2388 H   0  0  0  0  0  0  0  0  0  0  0  0
   -5.6831   23.1475  -33.1819 H   0  0  0  0  0  0  0  0  0  0  0  0
   -3.8968   19.9409  -34.6404 H   0  0  0  0  0  0  0  0  0  0  0  0
   -3.6465   19.1017  -33.0538 H   0  0  0  0  0  0  0  0  0  0  0  0
   -5.9440   18.7480  -34.8980 H   0  0  0  0  0  0  0  0  0  0  0  0
   -4.4040   17.4487  -35.9056 H   0  0  0  0  0  0  0  0  0  0  0  0
   -3.5180   17.1514  -34.4004 H   0  0  0  0  0  0  0  0  0  0  0  0
   -5.8579   15.6961  -35.5250 H   0  0  0  0  0  0  0  0  0  0  0  0
   -4.7871   15.1786  -34.2174 H   0  0  0  0  0  0  0  0  0  0  0  0
   -7.4286   16.5725  -34.0607 H   0  0  0  0  0  0  0  0  0  0  0  0
   -6.6018   15.7127  -32.7750 H   0  0  0  0  0  0  0  0  0  0  0  0
   -5.3050   17.5806  -32.1762 H   0  0  0  0  0  0  0  0  0  0  0  0
  1  2  1  0
  2  3  2  0
  3  4  1  0
  4  5  2  0
  5  6  1  0
  6  7  2  0
  6  8  1  0
  8  9  1  0
  9 10  1  0
 10 11  2  0
 11 12  1  0
 12 13  2  0
 13 14  1  0
 14 15  2  0
  8 16  1  0
 16 17  1  0
 17 18  1  0
 18 19  1  0
 19 20  1  0
 20 21  1  0
  7  2  1  0
 15 10  1  0
 21 17  1  0
 21  5  1  0
  1 22  1  0
  1 23  1  0
  1 24  1  0
  3 25  1  0
  4 26  1  0
  7 27  1  0
  8 28  1  6
  9 29  1  0
  9 30  1  0
 11 31  1  0
 12 32  1  0
 13 33  1  0
 14 34  1  0
 15 35  1  0
 16 36  1  0
 16 37  1  0
 17 38  1  6
 18 39  1  0
 18 40  1  0
 19 41  1  0
 19 42  1  0
 20 43  1  0
 20 44  1  0
 21 45  1  1
M  CHG  1  17   1
M  END
>  <UniqueID>  (30) 
29

>  <SMILES>  (30) 
Cc1ccc2c(c1)[C@@H](Cc1ccccc1)C[N@H+]1CCCC21

>  <Energy>  (30) 
60.518636567807434

>  <Genealogy>  (30) 
Cc1ccc2c(c1)C(Cc1ccccc1)C[NH+]1CCCC21 (protonated)
Cc1ccc2c(c1)[C@@H](Cc1ccccc1)C[N@H+]1CCCC21 (chirality)
Cc1ccc2c(c1)[C@@H](Cc1ccccc1)C[N@H+]1CCCC21 (3D coordinates assigned)
Cc1ccc2c(c1)[C@@H](Cc1ccccc1)C[N@H+]1CCCC21 (nonaromatic ring conformer: 60.518636567807434 kcal/mol)

>  <smiles>  (30) 
Cc1ccc2c(c1)C(Cc1ccccc1)CN1CCCC21

>  <score_type>  (30) 
oracle

>  <origin>  (30) 
adg

>  <m_score__min__energy>  (30) 
-8.1500000000000004

>  <m_primary>  (30) 
energy

$$$$
30:0
     RDKit          3D

 64 68  0  0  0  0  0  0  0  0999 V2000
   -0.4800   21.1750  -33.0780 C   0  0  0  0  0  0  0  0  0  0  0  0
   -0.9290   20.4780  -34.3620 C   0  0  0  0  0  0  0  0  0  0  0  0
   -1.8430   19.3440  -34.0840 N   0  0  0  0  0  0  0  0  0  0  0  0
   -2.8850   19.6340  -33.0680 C   0  0  0  0  0  0  0  0  0  0  0  0
   -3.8460   20.7640  -33.4690 C   0  0  0  0  0  0  0  0  0  0  0  0
   -1.1060   18.0880  -33.8030 C   0  0  0  0  0  0  0  0  0  0  0  0
   -1.1150   17.1780  -35.0380 C   0  0  0  0  0  0  0  0  0  0  0  0
   -1.7080   15.7950  -34.7570 C   0  0  0  0  0  0  0  0  0  0  0  0
   -3.0790   15.7540  -35.1480 O   0  0  0  0  0  0  0  0  0  0  0  0
   -4.0840   16.5560  -34.5840 C   0  0  0  0  0  0  0  0  0  0  0  0
   -4.4100   16.3670  -33.2380 C   0  0  0  0  0  0  0  0  0  0  0  0
   -5.4000   17.1450  -32.6300 C   0  0  0  0  0  0  0  0  0  0  0  0
   -6.0850   18.1340  -33.3600 C   0  0  0  0  0  0  0  0  0  0  0  0
   -7.1070   18.9770  -32.6880 C   0  0  0  0  0  0  0  0  0  0  0  0
   -8.1610   18.4170  -31.9100 C   0  0  0  0  0  0  0  0  0  0  0  0
   -9.0890   19.2270  -31.3180 N   0  0  0  0  0  0  0  0  0  0  0  0
   -8.9730   20.5600  -31.5000 C   0  0  0  0  0  0  0  0  0  0  0  0
   -9.7660   21.5140  -30.9810 N   0  0  0  0  0  0  0  0  0  0  0  0
   -9.2490   22.6730  -31.3900 N   0  0  0  0  0  0  0  0  0  0  0  0
   -8.1620   22.3940  -32.1530 C   0  0  0  0  0  0  0  0  0  0  0  0
   -7.2290   23.4210  -32.7130 C   0  0  0  0  0  0  0  0  0  0  0  0
   -6.1780   23.7590  -31.6930 C   0  0  0  0  0  0  0  0  0  0  0  0
   -6.4490   24.6980  -30.6850 C   0  0  0  0  0  0  0  0  0  0  0  0
   -5.5160   24.9430  -29.6730 C   0  0  0  0  0  0  0  0  0  0  0  0
   -4.3050   24.2430  -29.6520 C   0  0  0  0  0  0  0  0  0  0  0  0
   -3.4070   24.4590  -28.6520 N   0  0  0  0  0  0  0  0  0  0  0  0
   -2.2270   23.7870  -28.5930 C   0  0  0  0  0  0  0  0  0  0  0  0
   -1.9040   22.8470  -29.5750 C   0  0  0  0  0  0  0  0  0  0  0  0
   -2.8050   22.6020  -30.6160 C   0  0  0  0  0  0  0  0  0  0  0  0
   -4.0200   23.2990  -30.6630 C   0  0  0  0  0  0  0  0  0  0  0  0
   -4.9560   23.0640  -31.6810 C   0  0  0  0  0  0  0  0  0  0  0  0
   -7.9820   21.0710  -32.2210 N   0  0  0  0  0  0  0  0  0  0  0  0
   -7.0460   20.3370  -32.8120 N   0  0  0  0  0  0  0  0  0  0  0  0
   -5.7500   18.3250  -34.7140 C   0  0  0  0  0  0  0  0  0  0  0  0
   -4.7640   17.5410  -35.3210 C   0  0  0  0  0  0  0  0  0  0  0  0
   -0.8441   20.6098  -32.2074 H   0  0  0  0  0  0  0  0  0  0  0  0
    0.6187   21.2220  -33.0513 H   0  0  0  0  0  0  0  0  0  0  0  0
   -0.8914   22.1948  -33.0513 H   0  0  0  0  0  0  0  0  0  0  0  0
   -1.4506   21.2074  -34.9991 H   0  0  0  0  0  0  0  0  0  0  0  0
   -0.0352   20.0805  -34.8650 H   0  0  0  0  0  0  0  0  0  0  0  0
   -3.4741   18.7195  -32.9049 H   0  0  0  0  0  0  0  0  0  0  0  0
   -2.3620   19.9662  -32.1591 H   0  0  0  0  0  0  0  0  0  0  0  0
   -4.2506   21.2398  -32.5635 H   0  0  0  0  0  0  0  0  0  0  0  0
   -3.3035   21.5124  -34.0653 H   0  0  0  0  0  0  0  0  0  0  0  0
   -4.6718   20.3487  -34.0653 H   0  0  0  0  0  0  0  0  0  0  0  0
   -0.0661   18.3291  -33.5374 H   0  0  0  0  0  0  0  0  0  0  0  0
   -1.5961   17.5644  -32.9690 H   0  0  0  0  0  0  0  0  0  0  0  0
   -1.7113   17.6618  -35.8256 H   0  0  0  0  0  0  0  0  0  0  0  0
   -0.0694   17.0314  -35.3466 H   0  0  0  0  0  0  0  0  0  0  0  0
   -1.1465   15.0377  -35.3238 H   0  0  0  0  0  0  0  0  0  0  0  0
   -1.6377   15.5886  -33.6788 H   0  0  0  0  0  0  0  0  0  0  0  0
   -3.8831   15.5995  -32.6520 H   0  0  0  0  0  0  0  0  0  0  0  0
   -5.6459   16.9823  -31.5703 H   0  0  0  0  0  0  0  0  0  0  0  0
   -8.2282   17.3262  -31.7851 H   0  0  0  0  0  0  0  0  0  0  0  0
   -6.7462   23.0223  -33.6174 H   0  0  0  0  0  0  0  0  0  0  0  0
   -7.7959   24.3288  -32.9671 H   0  0  0  0  0  0  0  0  0  0  0  0
   -7.4031   25.2454  -30.6915 H   0  0  0  0  0  0  0  0  0  0  0  0
   -5.7344   25.6868  -28.8926 H   0  0  0  0  0  0  0  0  0  0  0  0
   -1.5244   23.9837  -27.7698 H   0  0  0  0  0  0  0  0  0  0  0  0
   -0.9485   22.3040  -29.5296 H   0  0  0  0  0  0  0  0  0  0  0  0
   -2.5610   21.8649  -31.3952 H   0  0  0  0  0  0  0  0  0  0  0  0
   -4.7331   22.3334  -32.4726 H   0  0  0  0  0  0  0  0  0  0  0  0
   -6.2687   19.0981  -35.2999 H   0  0  0  0  0  0  0  0  0  0  0  0
   -4.5189   17.6961  -36.3821 H   0  0  0  0  0  0  0  0  0  0  0  0
  1  2  1  0
  2  3  1  0
  3  4  1  0
  4  5  1  0
  3  6  1  0
  6  7  1  0
  7  8  1  0
  8  9  1  0
  9 10  1  0
 10 11  2  0
 11 12  1  0
 12 13  2  0
 13 14  1  0
 14 15  1  0
 15 16  2  0
 16 17  1  0
 17 18  2  0
 18 19  1  0
 19 20  2  0
 20 21  1  0
 21 22  1  0
 22 23  2  0
 23 24  1  0
 24 25  2  0
 25 26  1  0
 26 27  2  0
 27 28  1  0
 28 29  2  0
 29 30  1  0
 30 31  2  0
 20 32  1  0
 32 33  1  0
 13 34  1  0
 34 35  2  0
 35 10  1  0
 33 14  2  0
 32 17  1  0
 31 22  1  0
 30 25  1  0
  1 36  1  0
  1 37  1  0
  1 38  1  0
  2 39  1  0
  2 40  1  0
  4 41  1  0
  4 42  1  0
  5 43  1  0
  5 44  1  0
  5 45  1  0
  6 46  1  0
  6 47  1  0
  7 48  1  0
  7 49  1  0
  8 50  1  0
  8 51  1  0
 11 52  1  0
 12 53  1  0
 15 54  1  0
 21 55  1  0
 21 56  1  0
 23 57  1  0
 24 58  1  0
 27 59  1  0
 28 60  1  0
 29 61  1  0
 31 62  1  0
 34 63  1  0
 35 64  1  0
M  END
>  <UniqueID>  (31) 
30

>  <SMILES>  (31) 
CCN(CC)CCCOc1ccc(-c2cnc3nnc(Cc4ccc5ncccc5c4)n3n2)cc1

>  <Energy>  (31) 
117.99539605682085

>  <Genealogy>  (31) 
CCN(CC)CCCOc1ccc(-c2cnc3nnc(Cc4ccc5ncccc5c4)n3n2)cc1 (3D coordinates assigned)
CCN(CC)CCCOc1ccc(-c2cnc3nnc(Cc4ccc5ncccc5c4)n3n2)cc1 (optimized conformer: 117.99539605682085 kcal/mol)

>  <smiles>  (31) 
CCN(CC)CCCOc1ccc(-c2cnc3nnc(Cc4ccc5ncccc5c4)n3n2)cc1

>  <score_type>  (31) 
oracle

>  <origin>  (31) 
adg

>  <m_score__min__energy>  (31) 
-10.75

>  <m_primary>  (31) 
energy

$$$$
31:0
     RDKit          3D

 31 32  0  0  0  0  0  0  0  0999 V2000
   -6.4880   25.6710  -29.3780 C   0  0  0  0  0  0  0  0  0  0  0  0
   -5.6320   24.4480  -29.6810 C   0  0  0  0  0  0  0  0  0  0  0  0
   -5.3760   24.2260  -31.4800 S   0  0  0  0  0  0  0  0  0  0  0  0
   -6.5490   22.8580  -31.6590 C   0  0  0  0  0  0  0  0  0  0  0  0
   -7.8990   23.2050  -31.7410 C   0  0  0  0  0  0  0  0  0  0  0  0
   -8.8640   22.2230  -31.8830 C   0  0  0  0  0  0  0  0  0  0  0  0
   -8.4840   20.8870  -31.9810 C   0  0  0  0  0  0  0  0  0  0  0  0
   -9.4650   19.8970  -32.1460 C   0  0  0  0  0  0  0  0  0  0  0  0
   -9.0980   18.5600  -32.2790 C   0  0  0  0  0  0  0  0  0  0  0  0
   -7.7530   18.2020  -32.2590 C   0  0  0  0  0  0  0  0  0  0  0  0
   -6.7640   19.1750  -32.0940 C   0  0  0  0  0  0  0  0  0  0  0  0
   -7.1050   20.5440  -31.9340 C   0  0  0  0  0  0  0  0  0  0  0  0
   -6.1520   21.5370  -31.7510 N   0  0  0  0  0  0  0  0  0  0  0  0
   -4.7060   21.2100  -31.7190 C   0  0  0  0  0  0  0  0  0  0  0  0
   -4.0660   21.4550  -33.0840 C   0  0  0  0  0  0  0  0  0  0  0  0
   -6.5758   25.7964  -28.2887 H   0  0  0  0  0  0  0  0  0  0  0  0
   -6.0174   26.5649  -29.8132 H   0  0  0  0  0  0  0  0  0  0  0  0
   -7.4890   25.5349  -29.8132 H   0  0  0  0  0  0  0  0  0  0  0  0
   -4.6530   24.5692  -29.1943 H   0  0  0  0  0  0  0  0  0  0  0  0
   -6.1566   23.5602  -29.2982 H   0  0  0  0  0  0  0  0  0  0  0  0
   -8.1967   24.2628  -31.6926 H   0  0  0  0  0  0  0  0  0  0  0  0
   -9.9287   22.4973  -31.9184 H   0  0  0  0  0  0  0  0  0  0  0  0
  -10.5282   20.1781  -32.1704 H   0  0  0  0  0  0  0  0  0  0  0  0
   -9.8711   17.7869  -32.3999 H   0  0  0  0  0  0  0  0  0  0  0  0
   -7.4669   17.1461  -32.3739 H   0  0  0  0  0  0  0  0  0  0  0  0
   -5.7054   18.8760  -32.0880 H   0  0  0  0  0  0  0  0  0  0  0  0
   -4.2094   21.8427  -30.9687 H   0  0  0  0  0  0  0  0  0  0  0  0
   -4.5897   20.1473  -31.4599 H   0  0  0  0  0  0  0  0  0  0  0  0
   -3.0468   21.8452  -32.9464 H   0  0  0  0  0  0  0  0  0  0  0  0
   -4.0241   20.5094  -33.6443 H   0  0  0  0  0  0  0  0  0  0  0  0
   -4.6662   22.1869  -33.6443 H   0  0  0  0  0  0  0  0  0  0  0  0
  1  2  1  0
  2  3  1  0
  3  4  1  0
  4  5  2  0
  5  6  1  0
  6  7  2  0
  7  8  1  0
  8  9  2  0
  9 10  1  0
 10 11  2  0
 11 12  1  0
 12 13  2  0
 13 14  1  0
 14 15  1  0
 13  4  1  0
 12  7  1  0
  1 16  1  0
  1 17  1  0
  1 18  1  0
  2 19  1  0
  2 20  1  0
  5 21  1  0
  6 22  1  0
  8 23  1  0
  9 24  1  0
 10 25  1  0
 11 26  1  0
 14 27  1  0
 14 28  1  0
 15 29  1  0
 15 30  1  0
 15 31  1  0
M  CHG  1  13   1
M  END
>  <UniqueID>  (32) 
31

>  <SMILES>  (32) 
CCSc1ccc2ccccc2[n+]1CC

>  <Energy>  (32) 
34.27815644548424

>  <Genealogy>  (32) 
CCSc1ccc2ccccc2[n+]1CC (3D coordinates assigned)
CCSc1ccc2ccccc2[n+]1CC (optimized conformer: 34.27815644548424 kcal/mol)

>  <smiles>  (32) 
CCSc1ccc2ccccc2[n+]1CC

>  <score_type>  (32) 
oracle

>  <origin>  (32) 
adg

>  <m_score__min__energy>  (32) 
-6.1399999999999997

>  <m_primary>  (32) 
energy

$$$$
32:0
     RDKit          3D

 45 46  0  0  0  0  0  0  0  0999 V2000
   -8.0316   15.7182  -33.4054 H   0  0  0  0  0  0  0  0  0  0  0  0
   -7.2210   16.4600  -33.4560 C   0  0  0  0  0  0  0  0  0  0  0  0
   -6.2480   16.3630  -34.4520 C   0  0  0  0  0  0  0  0  0  0  0  0
   -6.2990   15.5511  -35.1924 H   0  0  0  0  0  0  0  0  0  0  0  0
   -5.2090   17.2960  -34.5100 C   0  0  0  0  0  0  0  0  0  0  0  0
   -4.4418   17.2124  -35.2938 H   0  0  0  0  0  0  0  0  0  0  0  0
   -5.1390   18.3430  -33.5700 C   0  0  0  0  0  0  0  0  0  0  0  0
   -4.0790   19.2650  -33.5670 O   0  0  0  0  0  0  0  0  0  0  0  0
   -2.7320   18.9540  -33.9060 C   0  0  0  0  0  0  0  0  0  0  0  0
   -2.1444   18.8183  -32.9861 H   0  0  0  0  0  0  0  0  0  0  0  0
   -2.7074   18.0265  -34.4969 H   0  0  0  0  0  0  0  0  0  0  0  0
   -2.3033   19.7768  -34.4969 H   0  0  0  0  0  0  0  0  0  0  0  0
   -6.1460   18.4550  -32.5870 C   0  0  0  0  0  0  0  0  0  0  0  0
   -6.1350   19.4830  -31.6330 O   0  0  0  0  0  0  0  0  0  0  0  0
   -6.8570   20.6810  -31.7470 C   0  0  0  0  0  0  0  0  0  0  0  0
   -8.1100   20.8360  -31.1340 C   0  0  0  0  0  0  0  0  0  0  0  0
   -8.5422   20.0148  -30.5433 H   0  0  0  0  0  0  0  0  0  0  0  0
   -8.8040   22.0370  -31.2780 C   0  0  0  0  0  0  0  0  0  0  0  0
   -9.7907   22.1607  -30.8077 H   0  0  0  0  0  0  0  0  0  0  0  0
   -8.2630   23.0560  -31.9990 N   0  0  0  0  0  0  0  0  0  0  0  0
   -8.7940   23.9520  -32.0940 H   0  0  0  0  0  0  0  0  0  0  0  0
   -7.0470   22.9380  -32.5940 C   0  0  0  0  0  0  0  0  0  0  0  0
   -6.6341   23.7823  -33.1655 H   0  0  0  0  0  0  0  0  0  0  0  0
   -6.3140   21.7450  -32.4840 C   0  0  0  0  0  0  0  0  0  0  0  0
   -5.0300   21.6070  -33.1120 N   0  0  0  0  0  0  0  0  0  0  0  0
   -4.9860   21.1760  -34.0620 H   0  0  0  0  0  0  0  0  0  0  0  0
   -3.8260   22.1630  -32.5620 C   0  0  0  0  0  0  0  0  0  0  0  0
   -3.9120   23.0340  -31.5950 N   0  0  0  0  0  0  0  0  0  0  0  0
   -3.3120   22.9360  -30.2680 C   0  0  0  0  0  0  0  0  0  0  0  0
   -2.2328   22.7475  -30.3664 H   0  0  0  0  0  0  0  0  0  0  0  0
   -3.7794   22.1085  -29.7141 H   0  0  0  0  0  0  0  0  0  0  0  0
   -3.5330   24.2410  -29.5140 C   0  0  0  0  0  0  0  0  0  0  0  0
   -2.6179   24.5075  -28.9649 H   0  0  0  0  0  0  0  0  0  0  0  0
   -4.3631   24.1192  -28.8026 H   0  0  0  0  0  0  0  0  0  0  0  0
   -3.8460   25.2660  -30.4350 O   0  0  0  0  0  0  0  0  0  0  0  0
   -5.2390   25.4800  -30.4410 C   0  0  0  0  0  0  0  0  0  0  0  0
   -5.6058   25.5363  -29.4055 H   0  0  0  0  0  0  0  0  0  0  0  0
   -5.4629   26.4231  -30.9611 H   0  0  0  0  0  0  0  0  0  0  0  0
   -5.7356   24.6476  -30.9611 H   0  0  0  0  0  0  0  0  0  0  0  0
   -2.5720   21.8430  -33.1880 N   0  0  0  0  0  0  0  0  0  0  0  0
   -2.5820   21.5310  -34.1840 H   0  0  0  0  0  0  0  0  0  0  0  0
   -1.4200   21.5430  -32.4450 C   0  0  0  0  0  0  0  0  0  0  0  0
   -0.4720   21.2950  -31.8300 N   0  0  0  0  0  0  0  0  0  0  0  0
   -7.1660   17.4980  -32.5240 C   0  0  0  0  0  0  0  0  0  0  0  0
   -7.9293   17.5644  -31.7347 H   0  0  0  0  0  0  0  0  0  0  0  0
  1  2  1  0
  2  3  2  0
  3  4  1  0
  3  5  1  0
  5  6  1  0
  5  7  2  0
  7  8  1  0
  8  9  1  0
  9 10  1  0
  9 11  1  0
  9 12  1  0
  7 13  1  0
 13 14  1  0
 14 15  1  0
 15 16  2  0
 16 17  1  0
 16 18  1  0
 18 19  1  0
 18 20  2  0
 20 21  1  0
 20 22  1  0
 22 23  1  0
 22 24  2  0
 24 25  1  0
 25 26  1  0
 25 27  1  0
 27 28  2  0
 28 29  1  0
 29 30  1  0
 29 31  1  0
 29 32  1  0
 32 33  1  0
 32 34  1  0
 32 35  1  0
 35 36  1  0
 36 37  1  0
 36 38  1  0
 36 39  1  0
 27 40  1  0
 40 41  1  0
 40 42  1  0
 42 43  3  0
 13 44  2  0
 44 45  1  0
 44  2  1  0
 24 15  1  0
M  CHG  1  20   1
M  END
>  <UniqueID>  (33) 
32

>  <SMILES>  (33) 
COCC/N=C(\NC#N)Nc1c[nH+]ccc1Oc1ccccc1OC

>  <Energy>  (33) 
55.66511153371296

>  <Genealogy>  (33) 
COCCN=C(NC#N)Nc1c[nH+]ccc1Oc1ccccc1OC (protonated)
COCC/N=C(\NC#N)Nc1c[nH+]ccc1Oc1ccccc1OC (cis-trans isomerization)
COCC/N=C(\NC#N)Nc1c[nH+]ccc1Oc1ccccc1OC (3D coordinates assigned)
COCC/N=C(\NC#N)Nc1c[nH+]ccc1Oc1ccccc1OC (optimized conformer: 55.66511153371296 kcal/mol)

>  <smiles>  (33) 
COCCN=C(NC#N)Nc1cnccc1Oc1ccccc1OC

>  <score_type>  (33) 
oracle

>  <origin>  (33) 
adg

>  <m_score__min__energy>  (33) 
-7.0199999999999996

>  <m_primary>  (33) 
energy

$$$$
33:0
     RDKit          3D

 66 69  0  0  0  0  0  0  0  0999 V2000
   -1.3800   25.2910  -28.4900 C   0  0  0  0  0  0  0  0  0  0  0  0
   -0.9550   23.9090  -28.9950 C   0  0  0  0  0  0  0  0  0  0  0  0
   -1.9110   22.8560  -28.6120 N   0  0  0  0  0  0  0  0  0  0  0  0
   -2.0610   22.7310  -27.1530 C   0  0  0  0  0  0  0  0  0  0  0  0
   -1.5520   21.3620  -26.6850 C   0  0  0  0  0  0  0  0  0  0  0  0
   -0.8440   20.6640  -27.7800 N   0  0  0  0  0  0  0  0  0  0  0  0
   -1.0530   19.2070  -27.7260 C   0  0  0  0  0  0  0  0  0  0  0  0
   -0.4830   18.5430  -28.9960 C   0  0  0  0  0  0  0  0  0  0  0  0
    0.5750   19.3500  -29.6520 N   0  0  0  0  0  0  0  0  0  0  0  0
    0.0450   20.2870  -30.6730 C   0  0  0  0  0  0  0  0  0  0  0  0
   -1.0630   19.6170  -31.4940 C   0  0  0  0  0  0  0  0  0  0  0  0
   -2.1370   20.5580  -31.8080 N   0  0  0  0  0  0  0  0  0  0  0  0
   -2.4920   21.0240  -33.0920 C   0  0  0  0  0  0  0  0  0  0  0  0
   -1.7810   20.8360  -34.1140 O   0  0  0  0  0  0  0  0  0  0  0  0
   -3.7640   21.7920  -33.0950 C   0  0  0  0  0  0  0  0  0  0  0  0
   -4.4090   21.5050  -31.6850 C   0  0  0  0  0  0  0  0  0  0  0  0
   -4.9550   22.7660  -30.9830 C   0  0  0  0  0  0  0  0  0  0  0  0
   -5.6130   23.7690  -31.7340 C   0  0  0  0  0  0  0  0  0  0  0  0
   -6.0600   24.9470  -31.1290 C   0  0  0  0  0  0  0  0  0  0  0  0
   -5.8200   25.1740  -29.7760 C   0  0  0  0  0  0  0  0  0  0  0  0
   -5.1040   24.2390  -29.0320 C   0  0  0  0  0  0  0  0  0  0  0  0
   -4.6530   23.0590  -29.6310 C   0  0  0  0  0  0  0  0  0  0  0  0
   -5.5680   20.5040  -31.8320 C   0  0  0  0  0  0  0  0  0  0  0  0
   -5.2740   19.1410  -32.0570 C   0  0  0  0  0  0  0  0  0  0  0  0
   -6.2960   18.2040  -32.2290 C   0  0  0  0  0  0  0  0  0  0  0  0
   -7.6310   18.6090  -32.1990 C   0  0  0  0  0  0  0  0  0  0  0  0
   -7.9450   19.9520  -32.0020 C   0  0  0  0  0  0  0  0  0  0  0  0
   -6.9280   20.8950  -31.8240 C   0  0  0  0  0  0  0  0  0  0  0  0
   -3.2120   20.9050  -30.9520 C   0  0  0  0  0  0  0  0  0  0  0  0
   -3.1650   20.6800  -29.7130 O   0  0  0  0  0  0  0  0  0  0  0  0
    1.4210   20.0260  -28.6500 C   0  0  0  0  0  0  0  0  0  0  0  0
    0.6030   20.9700  -27.7390 C   0  0  0  0  0  0  0  0  0  0  0  0
   -1.3812   25.2950  -27.3900 H   0  0  0  0  0  0  0  0  0  0  0  0
   -0.6735   26.0493  -28.8586 H   0  0  0  0  0  0  0  0  0  0  0  0
   -2.3905   25.5213  -28.8586 H   0  0  0  0  0  0  0  0  0  0  0  0
   -0.8835   23.9399  -30.0922 H   0  0  0  0  0  0  0  0  0  0  0  0
    0.0148   23.6664  -28.5360 H   0  0  0  0  0  0  0  0  0  0  0  0
   -1.6000   21.9370  -29.0080 H   0  0  0  0  0  0  0  0  0  0  0  0
   -1.4800   23.5234  -26.6585 H   0  0  0  0  0  0  0  0  0  0  0  0
   -3.1251   22.8276  -26.8914 H   0  0  0  0  0  0  0  0  0  0  0  0
   -0.8611   21.5032  -25.8408 H   0  0  0  0  0  0  0  0  0  0  0  0
   -2.4134   20.7517  -26.3759 H   0  0  0  0  0  0  0  0  0  0  0  0
   -0.5424   18.7986  -26.8414 H   0  0  0  0  0  0  0  0  0  0  0  0
   -2.1315   18.9998  -27.6642 H   0  0  0  0  0  0  0  0  0  0  0  0
   -0.0575   17.5670  -28.7195 H   0  0  0  0  0  0  0  0  0  0  0  0
   -1.3111   18.4441  -29.7133 H   0  0  0  0  0  0  0  0  0  0  0  0
   -0.3641   21.1760  -30.1707 H   0  0  0  0  0  0  0  0  0  0  0  0
    0.8632   20.5759  -31.3491 H   0  0  0  0  0  0  0  0  0  0  0  0
   -0.6333   19.2379  -32.4330 H   0  0  0  0  0  0  0  0  0  0  0  0
   -1.4862   18.7946  -30.8985 H   0  0  0  0  0  0  0  0  0  0  0  0
   -3.5676   22.8671  -33.2200 H   0  0  0  0  0  0  0  0  0  0  0  0
   -4.4258   21.4974  -33.9228 H   0  0  0  0  0  0  0  0  0  0  0  0
   -5.7753   23.6190  -32.8116 H   0  0  0  0  0  0  0  0  0  0  0  0
   -6.6029   25.6969  -31.7231 H   0  0  0  0  0  0  0  0  0  0  0  0
   -6.1951   26.0898  -29.2958 H   0  0  0  0  0  0  0  0  0  0  0  0
   -4.8927   24.4298  -27.9695 H   0  0  0  0  0  0  0  0  0  0  0  0
   -4.0545   22.3475  -29.0431 H   0  0  0  0  0  0  0  0  0  0  0  0
   -4.2250   18.8124  -32.0974 H   0  0  0  0  0  0  0  0  0  0  0  0
   -6.0476   17.1443  -32.3885 H   0  0  0  0  0  0  0  0  0  0  0  0
   -8.4342   17.8691  -32.3307 H   0  0  0  0  0  0  0  0  0  0  0  0
   -8.9974   20.2719  -31.9864 H   0  0  0  0  0  0  0  0  0  0  0  0
   -7.1882   21.9535  -31.6760 H   0  0  0  0  0  0  0  0  0  0  0  0
    1.9078   19.2633  -28.0244 H   0  0  0  0  0  0  0  0  0  0  0  0
    2.1629   20.6341  -29.1883 H   0  0  0  0  0  0  0  0  0  0  0  0
    0.9596   20.8618  -26.7041 H   0  0  0  0  0  0  0  0  0  0  0  0
    0.7430   21.9986  -28.1028 H   0  0  0  0  0  0  0  0  0  0  0  0
  1  2  1  0
  2  3  1  0
  3  4  1  0
  4  5  1  0
  5  6  1  0
  6  7  1  0
  7  8  1  0
  8  9  1  0
  9 10  1  0
 10 11  1  0
 11 12  1  0
 12 13  1  0
 13 14  2  0
 13 15  1  0
 15 16  1  0
 16 17  1  0
 17 18  2  0
 18 19  1  0
 19 20  2  0
 20 21  1  0
 21 22  2  0
 16 23  1  0
 23 24  2  0
 24 25  1  0
 25 26  2  0
 26 27  1  0
 27 28  2  0
 16 29  1  0
 29 30  2  0
  9 31  1  0
 31 32  1  0
 32  6  1  0
 29 12  1  0
 22 17  1  0
 28 23  1  0
  1 33  1  0
  1 34  1  0
  1 35  1  0
  2 36  1  0
  2 37  1  0
  3 38  1  0
  4 39  1  0
  4 40  1  0
  5 41  1  0
  5 42  1  0
  7 43  1  0
  7 44  1  0
  8 45  1  0
  8 46  1  0
 10 47  1  0
 10 48  1  0
 11 49  1  0
 11 50  1  0
 15 51  1  0
 15 52  1  0
 18 53  1  0
 19 54  1  0
 20 55  1  0
 21 56  1  0
 22 57  1  0
 24 58  1  0
 25 59  1  0
 26 60  1  0
 27 61  1  0
 28 62  1  0
 31 63  1  0
 31 64  1  0
 32 65  1  0
 32 66  1  0
M  END
>  <UniqueID>  (34) 
33

>  <SMILES>  (34) 
CCNCCN1CCN(CCN2C(=O)CC(c3ccccc3)(c3ccccc3)C2=O)CC1

>  <Energy>  (34) 
98.66305864400056

>  <Genealogy>  (34) 
CCNCCN1CCN(CCN2C(=O)CC(c3ccccc3)(c3ccccc3)C2=O)CC1 (3D coordinates assigned)
CCNCCN1CCN(CCN2C(=O)CC(c3ccccc3)(c3ccccc3)C2=O)CC1 (nonaromatic ring conformer: 98.66305864400056 kcal/mol)

>  <smiles>  (34) 
CCNCCN1CCN(CCN2C(=O)CC(c3ccccc3)(c3ccccc3)C2=O)CC1

>  <score_type>  (34) 
oracle

>  <origin>  (34) 
adg

>  <m_score__min__energy>  (34) 
-9.0299999999999994

>  <m_primary>  (34) 
energy

$$$$
34:0
     RDKit          3D

 35 36  0  0  0  0  0  0  0  0999 V2000
   -8.8820   18.6930  -31.2990 C   0  0  0  0  0  0  0  0  0  0  0  0
   -7.6010   18.6130  -32.0830 C   0  0  0  0  0  0  0  0  0  0  0  0
   -7.2480   17.4000  -32.6930 C   0  0  0  0  0  0  0  0  0  0  0  0
   -6.0380   17.2780  -33.3780 C   0  0  0  0  0  0  0  0  0  0  0  0
   -5.5750   15.6240  -34.2120 Br  0  0  0  0  0  0  0  0  0  0  0  0
   -5.1520   18.3550  -33.4240 C   0  0  0  0  0  0  0  0  0  0  0  0
   -5.4770   19.5670  -32.8080 C   0  0  0  0  0  0  0  0  0  0  0  0
   -4.1350   20.9350  -32.7700 Br  0  0  0  0  0  0  0  0  0  0  0  0
   -6.7220   19.7160  -32.1600 C   0  0  0  0  0  0  0  0  0  0  0  0
   -7.1010   20.9340  -31.5800 O   0  0  0  0  0  0  0  0  0  0  0  0
   -7.6210   22.0400  -32.3260 C   0  0  0  0  0  0  0  0  0  0  0  0
   -6.8530   23.3350  -32.0330 C   0  0  0  0  0  0  0  0  0  0  0  0
   -6.7010   23.5430  -30.5740 N   0  0  0  0  0  0  0  0  0  0  0  0
   -5.4550   22.9480  -30.0530 C   0  0  0  0  0  0  0  0  0  0  0  0
   -4.2090   23.7500  -30.4980 C   0  0  0  0  0  0  0  0  0  0  0  0
   -4.5200   25.0530  -30.9620 O   0  0  0  0  0  0  0  0  0  0  0  0
   -5.4470   25.6690  -30.0940 C   0  0  0  0  0  0  0  0  0  0  0  0
   -6.8170   24.9670  -30.1800 C   0  0  0  0  0  0  0  0  0  0  0  0
   -8.6547   18.6788  -30.2228 H   0  0  0  0  0  0  0  0  0  0  0  0
   -9.4081   19.6258  -31.5504 H   0  0  0  0  0  0  0  0  0  0  0  0
   -9.5201   17.8330  -31.5504 H   0  0  0  0  0  0  0  0  0  0  0  0
   -7.9297   16.5389  -32.6310 H   0  0  0  0  0  0  0  0  0  0  0  0
   -4.1910   18.2495  -33.9487 H   0  0  0  0  0  0  0  0  0  0  0  0
   -7.5420   21.8141  -33.3997 H   0  0  0  0  0  0  0  0  0  0  0  0
   -8.6698   22.1896  -32.0301 H   0  0  0  0  0  0  0  0  0  0  0  0
   -5.8559   23.2741  -32.4936 H   0  0  0  0  0  0  0  0  0  0  0  0
   -7.4191   24.1806  -32.4507 H   0  0  0  0  0  0  0  0  0  0  0  0
   -5.4978   22.9363  -28.9539 H   0  0  0  0  0  0  0  0  0  0  0  0
   -5.3678   21.9276  -30.4546 H   0  0  0  0  0  0  0  0  0  0  0  0
   -3.5254   23.8381  -29.6407 H   0  0  0  0  0  0  0  0  0  0  0  0
   -3.7517   23.2048  -31.3368 H   0  0  0  0  0  0  0  0  0  0  0  0
   -5.0726   25.6067  -29.0615 H   0  0  0  0  0  0  0  0  0  0  0  0
   -5.5674   26.7212  -30.3912 H   0  0  0  0  0  0  0  0  0  0  0  0
   -7.3041   25.0221  -29.1953 H   0  0  0  0  0  0  0  0  0  0  0  0
   -7.4080   25.4806  -30.9526 H   0  0  0  0  0  0  0  0  0  0  0  0
  1  2  1  0
  2  3  2  0
  3  4  1  0
  4  5  1  0
  4  6  2  0
  6  7  1  0
  7  8  1  0
  7  9  2  0
  9 10  1  0
 10 11  1  0
 11 12  1  0
 12 13  1  0
 13 14  1  0
 14 15  1  0
 15 16  1  0
 16 17  1  0
 17 18  1  0
  9  2  1  0
 18 13  1  0
  1 19  1  0
  1 20  1  0
  1 21  1  0
  3 22  1  0
  6 23  1  0
 11 24  1  0
 11 25  1  0
 12 26  1  0
 12 27  1  0
 14 28  1  0
 14 29  1  0
 15 30  1  0
 15 31  1  0
 17 32  1  0
 17 33  1  0
 18 34  1  0
 18 35  1  0
M  END
>  <UniqueID>  (35) 
34

>  <SMILES>  (35) 
Cc1cc(Br)cc(Br)c1OCCN1CCOCC1

>  <Energy>  (35) 
49.79801184968735

>  <Genealogy>  (35) 
Cc1cc(Br)cc(Br)c1OCCN1CCOCC1 (3D coordinates assigned)
Cc1cc(Br)cc(Br)c1OCCN1CCOCC1 (nonaromatic ring conformer: 49.79801184968735 kcal/mol)

>  <smiles>  (35) 
Cc1cc(Br)cc(Br)c1OCCN1CCOCC1

>  <score_type>  (35) 
oracle

>  <origin>  (35) 
adg

>  <m_score__min__energy>  (35) 
-7.7599999999999998

>  <m_primary>  (35) 
energy

$$$$
35:0
     RDKit          3D

 35 38  0  0  0  0  0  0  0  0999 V2000
   -5.8620   26.4300  -30.1130 O   0  0  0  0  0  0  0  0  0  0  0  0
   -5.2940   25.3270  -30.3220 C   0  0  0  0  0  0  0  0  0  0  0  0
   -6.1130   24.0730  -30.4600 C   0  0  0  0  0  0  0  0  0  0  0  0
   -5.3280   23.0270  -31.1220 N   0  0  0  0  0  0  0  0  0  0  0  0
   -5.7460   21.8690  -31.6850 C   0  0  0  0  0  0  0  0  0  0  0  0
   -7.1550   21.4830  -31.8860 C   0  0  0  0  0  0  0  0  0  0  0  0
   -7.4880   20.1420  -32.1180 C   0  0  0  0  0  0  0  0  0  0  0  0
   -8.8190   19.7800  -32.3320 C   0  0  0  0  0  0  0  0  0  0  0  0
   -9.8050   20.7680  -32.3300 C   0  0  0  0  0  0  0  0  0  0  0  0
   -9.4630   22.0690  -32.1320 N   0  0  0  0  0  0  0  0  0  0  0  0
   -8.1750   22.4460  -31.9160 C   0  0  0  0  0  0  0  0  0  0  0  0
   -4.7200   21.0550  -32.0180 N   0  0  0  0  0  0  0  0  0  0  0  0
   -3.6100   21.7250  -31.6390 C   0  0  0  0  0  0  0  0  0  0  0  0
   -2.2440   21.1900  -31.8320 C   0  0  0  0  0  0  0  0  0  0  0  0
   -1.5140   20.7450  -30.7150 C   0  0  0  0  0  0  0  0  0  0  0  0
   -0.2170   20.2460  -30.8700 C   0  0  0  0  0  0  0  0  0  0  0  0
    0.3680   20.1970  -32.1380 C   0  0  0  0  0  0  0  0  0  0  0  0
   -0.3410   20.6560  -33.2510 C   0  0  0  0  0  0  0  0  0  0  0  0
    0.2360   20.6260  -34.4780 F   0  0  0  0  0  0  0  0  0  0  0  0
   -1.6380   21.1550  -33.1000 C   0  0  0  0  0  0  0  0  0  0  0  0
   -3.9870   22.9410  -31.0880 C   0  0  0  0  0  0  0  0  0  0  0  0
   -3.1320   24.0100  -30.4730 C   0  0  0  0  0  0  0  0  0  0  0  0
   -3.8660   25.2730  -30.4260 N   0  0  0  0  0  0  0  0  0  0  0  0
   -6.4146   23.7241  -29.4614 H   0  0  0  0  0  0  0  0  0  0  0  0
   -7.0046   24.2911  -31.0662 H   0  0  0  0  0  0  0  0  0  0  0  0
   -6.7004   19.3743  -32.1315 H   0  0  0  0  0  0  0  0  0  0  0  0
   -9.0881   18.7268  -32.5005 H   0  0  0  0  0  0  0  0  0  0  0  0
  -10.8585   20.4941  -32.4886 H   0  0  0  0  0  0  0  0  0  0  0  0
   -7.9319   23.5080  -31.7644 H   0  0  0  0  0  0  0  0  0  0  0  0
   -1.9663   20.7898  -29.7133 H   0  0  0  0  0  0  0  0  0  0  0  0
    0.3436   19.8915  -29.9925 H   0  0  0  0  0  0  0  0  0  0  0  0
    1.3856   19.7975  -32.2598 H   0  0  0  0  0  0  0  0  0  0  0  0
   -2.1879   21.5226  -33.9789 H   0  0  0  0  0  0  0  0  0  0  0  0
   -2.8549   23.7116  -29.4511 H   0  0  0  0  0  0  0  0  0  0  0  0
   -2.2257   24.1420  -31.0823 H   0  0  0  0  0  0  0  0  0  0  0  0
  1  2  2  0
  2  3  1  0
  3  4  1  0
  4  5  1  0
  5  6  1  0
  6  7  2  0
  7  8  1  0
  8  9  2  0
  9 10  1  0
 10 11  2  0
  5 12  2  0
 12 13  1  0
 13 14  1  0
 14 15  2  0
 15 16  1  0
 16 17  2  0
 17 18  1  0
 18 19  1  0
 18 20  2  0
 13 21  2  0
 21 22  1  0
 22 23  1  0
 23  2  1  0
 21  4  1  0
 11  6  1  0
 20 14  1  0
  3 24  1  0
  3 25  1  0
  7 26  1  0
  8 27  1  0
  9 28  1  0
 11 29  1  0
 15 30  1  0
 16 31  1  0
 17 32  1  0
 20 33  1  0
 22 34  1  0
 22 35  1  0
M  CHG  1  23  -1
M  END
>  <UniqueID>  (36) 
35

>  <SMILES>  (36) 
O=C1Cn2c(-c3cccnc3)nc(-c3cccc(F)c3)c2C[N-]1

>  <Energy>  (36) 
82.22626424001264

>  <Genealogy>  (36) 
O=C1Cn2c(-c3cccnc3)nc(-c3cccc(F)c3)c2C[N-]1 (protonated)
O=C1Cn2c(-c3cccnc3)nc(-c3cccc(F)c3)c2C[N-]1 (3D coordinates assigned)
O=C1Cn2c(-c3cccnc3)nc(-c3cccc(F)c3)c2C[N-]1 (nonaromatic ring conformer: 82.22626424001264 kcal/mol)

>  <smiles>  (36) 
O=C1Cn2c(-c3cccnc3)nc(-c3cccc(F)c3)c2CN1

>  <score_type>  (36) 
oracle

>  <origin>  (36) 
adg

>  <m_score__min__energy>  (36) 
-9.4399999999999995

>  <m_primary>  (36) 
energy

$$$$
36:0
     RDKit          3D

 46 47  0  0  0  0  0  0  0  0999 V2000
   -5.9020   17.0820  -32.0210 C   0  0  0  0  0  0  0  0  0  0  0  0
   -7.2190   17.4470  -32.6970 C   0  0  0  0  0  0  0  0  0  0  0  0
   -7.9530   18.3680  -31.9000 O   0  0  0  0  0  0  0  0  0  0  0  0
   -8.2810   19.6590  -32.3230 C   0  0  0  0  0  0  0  0  0  0  0  0
   -9.4530   19.9200  -32.7110 O   0  0  0  0  0  0  0  0  0  0  0  0
   -7.2320   20.6950  -32.3440 C   0  0  0  0  0  0  0  0  0  0  0  0
   -5.9410   20.4940  -32.7870 C   0  0  0  0  0  0  0  0  0  0  0  0
   -5.2910   21.7060  -32.6570 C   0  0  0  0  0  0  0  0  0  0  0  0
   -3.8630   21.9470  -33.0460 C   0  0  0  0  0  0  0  0  0  0  0  0
   -6.1330   22.6430  -32.1550 N   0  0  0  0  0  0  0  0  0  0  0  0
   -5.8030   24.0430  -31.8720 C   0  0  0  0  0  0  0  0  0  0  0  0
   -5.2410   24.2180  -30.4600 C   0  0  0  0  0  0  0  0  0  0  0  0
   -3.8230   24.4210  -30.4890 O   0  0  0  0  0  0  0  0  0  0  0  0
   -2.8630   23.5870  -29.9080 C   0  0  0  0  0  0  0  0  0  0  0  0
   -2.8600   22.1910  -30.0880 C   0  0  0  0  0  0  0  0  0  0  0  0
   -1.9100   21.4080  -29.4420 C   0  0  0  0  0  0  0  0  0  0  0  0
   -0.9610   22.0030  -28.6080 C   0  0  0  0  0  0  0  0  0  0  0  0
   -0.9440   23.3870  -28.4360 C   0  0  0  0  0  0  0  0  0  0  0  0
   -1.8800   24.1910  -29.1010 C   0  0  0  0  0  0  0  0  0  0  0  0
   -1.8780   25.5940  -28.9740 O   0  0  0  0  0  0  0  0  0  0  0  0
   -1.1860   26.3210  -27.9630 C   0  0  0  0  0  0  0  0  0  0  0  0
   -7.3230   22.0280  -31.9500 C   0  0  0  0  0  0  0  0  0  0  0  0
   -8.5540   22.6890  -31.3970 C   0  0  0  0  0  0  0  0  0  0  0  0
   -6.0284   17.1170  -30.9288 H   0  0  0  0  0  0  0  0  0  0  0  0
   -5.6036   16.0673  -32.3232 H   0  0  0  0  0  0  0  0  0  0  0  0
   -5.1238   17.7983  -32.3232 H   0  0  0  0  0  0  0  0  0  0  0  0
   -7.0086   17.9034  -33.6755 H   0  0  0  0  0  0  0  0  0  0  0  0
   -7.8174   16.5328  -32.8239 H   0  0  0  0  0  0  0  0  0  0  0  0
   -5.5139   19.5547  -33.1682 H   0  0  0  0  0  0  0  0  0  0  0  0
   -3.2485   22.0507  -32.1395 H   0  0  0  0  0  0  0  0  0  0  0  0
   -3.4970   21.0979  -33.6419 H   0  0  0  0  0  0  0  0  0  0  0  0
   -3.7959   22.8692  -33.6419 H   0  0  0  0  0  0  0  0  0  0  0  0
   -5.0526   24.3863  -32.5993 H   0  0  0  0  0  0  0  0  0  0  0  0
   -6.7268   24.6352  -31.9490 H   0  0  0  0  0  0  0  0  0  0  0  0
   -5.7188   25.0897  -29.9890 H   0  0  0  0  0  0  0  0  0  0  0  0
   -5.4506   23.3037  -29.8855 H   0  0  0  0  0  0  0  0  0  0  0  0
   -3.6098   21.7193  -30.7402 H   0  0  0  0  0  0  0  0  0  0  0  0
   -1.9059   20.3178  -29.5881 H   0  0  0  0  0  0  0  0  0  0  0  0
   -0.2234   21.3772  -28.0842 H   0  0  0  0  0  0  0  0  0  0  0  0
   -0.1942   23.8487  -27.7768 H   0  0  0  0  0  0  0  0  0  0  0  0
   -1.5153   25.9750  -26.9721 H   0  0  0  0  0  0  0  0  0  0  0  0
   -0.1036   26.1554  -28.0681 H   0  0  0  0  0  0  0  0  0  0  0  0
   -1.4047   27.3939  -28.0681 H   0  0  0  0  0  0  0  0  0  0  0  0
   -8.5181   22.6697  -30.2978 H   0  0  0  0  0  0  0  0  0  0  0  0
   -8.5976   23.7318  -31.7442 H   0  0  0  0  0  0  0  0  0  0  0  0
   -9.4474   22.1493  -31.7442 H   0  0  0  0  0  0  0  0  0  0  0  0
  1  2  1  0
  2  3  1  0
  3  4  1  0
  4  5  2  0
  4  6  1  0
  6  7  1  0
  7  8  2  0
  8  9  1  0
  8 10  1  0
 10 11  1  0
 11 12  1  0
 12 13  1  0
 13 14  1  0
 14 15  2  0
 15 16  1  0
 16 17  2  0
 17 18  1  0
 18 19  2  0
 19 20  1  0
 20 21  1  0
 10 22  1  0
 22 23  1  0
 22  6  2  0
 19 14  1  0
  1 24  1  0
  1 25  1  0
  1 26  1  0
  2 27  1  0
  2 28  1  0
  7 29  1  0
  9 30  1  0
  9 31  1  0
  9 32  1  0
 11 33  1  0
 11 34  1  0
 12 35  1  0
 12 36  1  0
 15 37  1  0
 16 38  1  0
 17 39  1  0
 18 40  1  0
 21 41  1  0
 21 42  1  0
 21 43  1  0
 23 44  1  0
 23 45  1  0
 23 46  1  0
M  END
>  <UniqueID>  (37) 
36

>  <SMILES>  (37) 
CCOC(=O)c1cc(C)n(CCOc2ccccc2OC)c1C

>  <Energy>  (37) 
65.6653167550714

>  <Genealogy>  (37) 
CCOC(=O)c1cc(C)n(CCOc2ccccc2OC)c1C (3D coordinates assigned)
CCOC(=O)c1cc(C)n(CCOc2ccccc2OC)c1C (optimized conformer: 65.6653167550714 kcal/mol)

>  <smiles>  (37) 
CCOC(=O)c1cc(C)n(CCOc2ccccc2OC)c1C

>  <score_type>  (37) 
oracle

>  <origin>  (37) 
adg

>  <m_score__min__energy>  (37) 
-7.5800000000000001

>  <m_primary>  (37) 
energy

$$$$
37:0
     RDKit          3D

 42 44  0  0  0  0  0  0  0  0999 V2000
    0.2710   21.2820  -35.7070 C   0  0  0  0  0  0  0  0  0  0  0  0
   -0.0460   21.9240  -34.4760 O   0  0  0  0  0  0  0  0  0  0  0  0
   -0.9160   21.3970  -33.5090 C   0  0  0  0  0  0  0  0  0  0  0  0
   -0.4450   21.2580  -32.1980 C   0  0  0  0  0  0  0  0  0  0  0  0
   -1.2770   20.7480  -31.1980 C   0  0  0  0  0  0  0  0  0  0  0  0
   -2.5880   20.3740  -31.4980 C   0  0  0  0  0  0  0  0  0  0  0  0
   -3.0770   20.5030  -32.8080 C   0  0  0  0  0  0  0  0  0  0  0  0
   -4.4990   20.1310  -33.1350 C   0  0  0  0  0  0  0  0  0  0  0  0
   -5.4130   21.1730  -32.6660 N   0  0  0  0  0  0  0  0  0  0  0  0
   -5.0490   22.3920  -32.2030 C   0  0  0  0  0  0  0  0  0  0  0  0
   -6.1590   23.0760  -31.7200 C   0  0  0  0  0  0  0  0  0  0  0  0
   -6.1440   24.4100  -31.0310 C   0  0  0  0  0  0  0  0  0  0  0  0
   -5.1160   24.4490  -29.8910 C   0  0  0  0  0  0  0  0  0  0  0  0
   -5.6710   25.0410  -28.6730 N   0  0  0  0  0  0  0  0  0  0  0  0
   -7.2320   22.2190  -31.8850 C   0  0  0  0  0  0  0  0  0  0  0  0
   -8.5750   22.3510  -31.5320 C   0  0  0  0  0  0  0  0  0  0  0  0
   -9.4330   21.2690  -31.7960 C   0  0  0  0  0  0  0  0  0  0  0  0
   -8.9360   20.0900  -32.3910 C   0  0  0  0  0  0  0  0  0  0  0  0
   -7.5760   19.9790  -32.7270 C   0  0  0  0  0  0  0  0  0  0  0  0
   -6.7430   21.0710  -32.4620 C   0  0  0  0  0  0  0  0  0  0  0  0
   -2.2350   21.0110  -33.8120 C   0  0  0  0  0  0  0  0  0  0  0  0
    0.7495   20.3129  -35.5025 H   0  0  0  0  0  0  0  0  0  0  0  0
   -0.6512   21.1210  -36.2847 H   0  0  0  0  0  0  0  0  0  0  0  0
    0.9595   21.9163  -36.2847 H   0  0  0  0  0  0  0  0  0  0  0  0
    0.5864   21.5521  -31.9537 H   0  0  0  0  0  0  0  0  0  0  0  0
   -0.8977   20.6409  -30.1710 H   0  0  0  0  0  0  0  0  0  0  0  0
   -3.2399   19.9771  -30.7059 H   0  0  0  0  0  0  0  0  0  0  0  0
   -4.6041   20.0184  -34.2242 H   0  0  0  0  0  0  0  0  0  0  0  0
   -4.7469   19.1833  -32.6345 H   0  0  0  0  0  0  0  0  0  0  0  0
   -4.0217   22.7852  -32.2082 H   0  0  0  0  0  0  0  0  0  0  0  0
   -5.8907   25.1881  -31.7662 H   0  0  0  0  0  0  0  0  0  0  0  0
   -7.1408   24.5845  -30.5999 H   0  0  0  0  0  0  0  0  0  0  0  0
   -4.7910   23.4215  -29.6704 H   0  0  0  0  0  0  0  0  0  0  0  0
   -4.2702   25.0722  -30.2170 H   0  0  0  0  0  0  0  0  0  0  0  0
   -5.3710   26.0390  -28.5860 H   0  0  0  0  0  0  0  0  0  0  0  0
   -5.3610   24.5000  -27.8330 H   0  0  0  0  0  0  0  0  0  0  0  0
   -6.7140   25.0130  -28.7260 H   0  0  0  0  0  0  0  0  0  0  0  0
   -8.9507   23.2720  -31.0622 H   0  0  0  0  0  0  0  0  0  0  0  0
  -10.4995   21.3421  -31.5368 H   0  0  0  0  0  0  0  0  0  0  0  0
   -9.6184   19.2513  -32.5934 H   0  0  0  0  0  0  0  0  0  0  0  0
   -7.1785   19.0611  -33.1846 H   0  0  0  0  0  0  0  0  0  0  0  0
   -2.6095   21.1076  -34.8418 H   0  0  0  0  0  0  0  0  0  0  0  0
  1  2  1  0
  2  3  1  0
  3  4  2  0
  4  5  1  0
  5  6  2  0
  6  7  1  0
  7  8  1  0
  8  9  1  0
  9 10  1  0
 10 11  2  0
 11 12  1  0
 12 13  1  0
 13 14  1  0
 11 15  1  0
 15 16  2  0
 16 17  1  0
 17 18  2  0
 18 19  1  0
 19 20  2  0
  7 21  2  0
 21  3  1  0
 20  9  1  0
 20 15  1  0
  1 22  1  0
  1 23  1  0
  1 24  1  0
  4 25  1  0
  5 26  1  0
  6 27  1  0
  8 28  1  0
  8 29  1  0
 10 30  1  0
 12 31  1  0
 12 32  1  0
 13 33  1  0
 13 34  1  0
 14 35  1  0
 14 36  1  0
 14 37  1  0
 16 38  1  0
 17 39  1  0
 18 40  1  0
 19 41  1  0
 21 42  1  0
M  CHG  1  14   1
M  END
>  <UniqueID>  (38) 
37

>  <SMILES>  (38) 
COc1cccc(Cn2cc(CC[NH3+])c3ccccc32)c1

>  <Energy>  (38) 
70.63382213688016

>  <Genealogy>  (38) 
COc1cccc(Cn2cc(CC[NH3+])c3ccccc32)c1 (protonated)
COc1cccc(Cn2cc(CC[NH3+])c3ccccc32)c1 (3D coordinates assigned)
COc1cccc(Cn2cc(CC[NH3+])c3ccccc32)c1 (optimized conformer: 70.63382213688016 kcal/mol)

>  <smiles>  (38) 
COc1cccc(Cn2cc(CCN)c3ccccc32)c1

>  <score_type>  (38) 
oracle

>  <origin>  (38) 
adg

>  <m_score__min__energy>  (38) 
-7.2400000000000002

>  <m_primary>  (38) 
energy

$$$$
38:0
     RDKit          3D

 25 26  0  0  0  0  0  0  0  0999 V2000
   -9.1120   19.1230  -31.8510 C   0  0  0  0  0  0  0  0  0  0  0  0
   -7.8190   18.7000  -32.5420 C   0  0  0  0  0  0  0  0  0  0  0  0
   -7.2850   19.7910  -33.3590 N   0  0  0  0  0  0  0  0  0  0  0  0
   -6.0810   20.5140  -33.0350 C   0  0  0  0  0  0  0  0  0  0  0  0
   -4.8260   19.9900  -33.3990 C   0  0  0  0  0  0  0  0  0  0  0  0
   -3.6520   20.6980  -33.1380 C   0  0  0  0  0  0  0  0  0  0  0  0
   -3.7050   21.9420  -32.5120 C   0  0  0  0  0  0  0  0  0  0  0  0
   -4.9340   22.4840  -32.1320 C   0  0  0  0  0  0  0  0  0  0  0  0
   -4.9710   23.6930  -31.5090 N   0  0  0  0  0  0  0  0  0  0  0  0
   -6.1370   24.2560  -31.1020 C   0  0  0  0  0  0  0  0  0  0  0  0
   -7.3430   23.5890  -31.3070 C   0  0  0  0  0  0  0  0  0  0  0  0
   -7.3450   22.3470  -31.9430 C   0  0  0  0  0  0  0  0  0  0  0  0
   -6.1360   21.7740  -32.3840 C   0  0  0  0  0  0  0  0  0  0  0  0
   -8.9763   19.0786  -30.7603 H   0  0  0  0  0  0  0  0  0  0  0  0
   -9.3666   20.1513  -32.1473 H   0  0  0  0  0  0  0  0  0  0  0  0
   -9.9252   18.4440  -32.1473 H   0  0  0  0  0  0  0  0  0  0  0  0
   -7.0762   18.4238  -31.7792 H   0  0  0  0  0  0  0  0  0  0  0  0
   -8.0333   17.8420  -33.1962 H   0  0  0  0  0  0  0  0  0  0  0  0
   -7.8200   20.0480  -34.2180 H   0  0  0  0  0  0  0  0  0  0  0  0
   -4.7701   19.0100  -33.8955 H   0  0  0  0  0  0  0  0  0  0  0  0
   -2.6801   20.2721  -33.4278 H   0  0  0  0  0  0  0  0  0  0  0  0
   -2.7762   22.4981  -32.3169 H   0  0  0  0  0  0  0  0  0  0  0  0
   -6.1299   25.2397  -30.6099 H   0  0  0  0  0  0  0  0  0  0  0  0
   -8.2883   24.0390  -30.9694 H   0  0  0  0  0  0  0  0  0  0  0  0
   -8.2940   21.8135  -32.1006 H   0  0  0  0  0  0  0  0  0  0  0  0
  1  2  1  0
  2  3  1  0
  3  4  1  0
  4  5  2  0
  5  6  1  0
  6  7  2  0
  7  8  1  0
  8  9  2  0
  9 10  1  0
 10 11  2  0
 11 12  1  0
 12 13  2  0
 13  4  1  0
 13  8  1  0
  1 14  1  0
  1 15  1  0
  1 16  1  0
  2 17  1  0
  2 18  1  0
  3 19  1  0
  5 20  1  0
  6 21  1  0
  7 22  1  0
 10 23  1  0
 11 24  1  0
 12 25  1  0
M  END
>  <UniqueID>  (39) 
38

>  <SMILES>  (39) 
CCNc1cccc2ncccc12

>  <Energy>  (39) 
29.374754210284188

>  <Genealogy>  (39) 
CCNc1cccc2ncccc12 (3D coordinates assigned)
CCNc1cccc2ncccc12 (optimized conformer: 29.374754210284188 kcal/mol)

>  <smiles>  (39) 
CCNc1cccc2ncccc12

>  <score_type>  (39) 
oracle

>  <origin>  (39) 
adg

>  <m_score__min__energy>  (39) 
-6.0199999999999996

>  <m_primary>  (39) 
energy

$$$$
39:0
     RDKit          3D

 43 45  0  0  0  0  0  0  0  0999 V2000
   -5.0920   26.7626  -30.7385 H   0  0  0  0  0  0  0  0  0  0  0  0
   -5.0110   25.6670  -30.7940 C   0  0  0  0  0  0  0  0  0  0  0  0
   -3.8490   25.0570  -30.4610 N   0  0  0  0  0  0  0  0  0  0  0  0
   -3.6860   23.7130  -30.5650 C   0  0  0  0  0  0  0  0  0  0  0  0
   -2.4480   23.1570  -30.2290 C   0  0  0  0  0  0  0  0  0  0  0  0
   -1.6519   23.7984  -29.8229 H   0  0  0  0  0  0  0  0  0  0  0  0
   -2.2180   21.7950  -30.4060 C   0  0  0  0  0  0  0  0  0  0  0  0
   -0.6600   21.1030  -29.9880 Cl  0  0  0  0  0  0  0  0  0  0  0  0
   -3.2110   20.9910  -30.9640 C   0  0  0  0  0  0  0  0  0  0  0  0
   -3.0133   19.9241  -31.1446 H   0  0  0  0  0  0  0  0  0  0  0  0
   -4.4550   21.5320  -31.2950 C   0  0  0  0  0  0  0  0  0  0  0  0
   -5.2167   20.8923  -31.7645 H   0  0  0  0  0  0  0  0  0  0  0  0
   -4.7500   22.8920  -31.0350 C   0  0  0  0  0  0  0  0  0  0  0  0
   -6.0210   23.5120  -31.2710 C   0  0  0  0  0  0  0  0  0  0  0  0
   -7.1600   22.8890  -31.4340 N   0  0  0  0  0  0  0  0  0  0  0  0
   -7.5870   21.5390  -31.0750 C   0  0  0  0  0  0  0  0  0  0  0  0
   -8.0196   21.5491  -30.0637 H   0  0  0  0  0  0  0  0  0  0  0  0
   -6.7188   20.8639  -31.0986 H   0  0  0  0  0  0  0  0  0  0  0  0
   -8.6380   21.0480  -32.0730 C   0  0  0  0  0  0  0  0  0  0  0  0
   -8.9650   21.8974  -32.6907 H   0  0  0  0  0  0  0  0  0  0  0  0
   -9.4770   20.6247  -31.5012 H   0  0  0  0  0  0  0  0  0  0  0  0
   -8.1120   19.9930  -32.9560 N   0  0  0  0  0  0  0  0  0  0  0  0
   -8.6460   20.0530  -33.8550 H   0  0  0  0  0  0  0  0  0  0  0  0
   -6.6810   20.1580  -33.2710 C   0  0  0  0  0  0  0  0  0  0  0  0
   -6.1767   20.6438  -32.4227 H   0  0  0  0  0  0  0  0  0  0  0  0
   -6.5834   20.7785  -34.1741 H   0  0  0  0  0  0  0  0  0  0  0  0
   -6.0400   18.8130  -33.5280 C   0  0  0  0  0  0  0  0  0  0  0  0
   -6.8400   17.6580  -33.4760 C   0  0  0  0  0  0  0  0  0  0  0  0
   -7.9159   17.7496  -33.2663 H   0  0  0  0  0  0  0  0  0  0  0  0
   -6.2820   16.3960  -33.6880 C   0  0  0  0  0  0  0  0  0  0  0  0
   -6.9164   15.4988  -33.6363 H   0  0  0  0  0  0  0  0  0  0  0  0
   -4.9220   16.2720  -33.9650 C   0  0  0  0  0  0  0  0  0  0  0  0
   -4.4834   15.2764  -34.1273 H   0  0  0  0  0  0  0  0  0  0  0  0
   -4.1150   17.4090  -34.0370 C   0  0  0  0  0  0  0  0  0  0  0  0
   -3.0429   17.3038  -34.2594 H   0  0  0  0  0  0  0  0  0  0  0  0
   -4.6630   18.6910  -33.8270 C   0  0  0  0  0  0  0  0  0  0  0  0
   -3.8710   19.8490  -33.8990 O   0  0  0  0  0  0  0  0  0  0  0  0
   -2.4490   19.8550  -33.9530 C   0  0  0  0  0  0  0  0  0  0  0  0
   -2.0432   19.8567  -32.9306 H   0  0  0  0  0  0  0  0  0  0  0  0
   -2.0985   18.9583  -34.4851 H   0  0  0  0  0  0  0  0  0  0  0  0
   -2.1061   20.7546  -34.4851 H   0  0  0  0  0  0  0  0  0  0  0  0
   -6.1020   24.9100  -31.2060 C   0  0  0  0  0  0  0  0  0  0  0  0
   -7.0394   25.4138  -31.4841 H   0  0  0  0  0  0  0  0  0  0  0  0
  1  2  1  0
  2  3  1  0
  3  4  1  0
  4  5  2  0
  5  6  1  0
  5  7  1  0
  7  8  1  0
  7  9  2  0
  9 10  1  0
  9 11  1  0
 11 12  1  0
 11 13  2  0
 13 14  1  0
 14 15  2  0
 15 16  1  0
 16 17  1  0
 16 18  1  0
 16 19  1  0
 19 20  1  0
 19 21  1  0
 19 22  1  0
 22 23  1  0
 22 24  1  0
 24 25  1  0
 24 26  1  0
 24 27  1  0
 27 28  2  0
 28 29  1  0
 28 30  1  0
 30 31  1  0
 30 32  2  0
 32 33  1  0
 32 34  1  0
 34 35  1  0
 34 36  2  0
 36 37  1  0
 37 38  1  0
 38 39  1  0
 38 40  1  0
 38 41  1  0
 14 42  1  0
 42 43  1  0
 42  2  2  0
 13  4  1  0
 36 27  1  0
M  CHG  1   3  -1
M  END
>  <UniqueID>  (40) 
39

>  <SMILES>  (40) 
COc1ccccc1CNCC/N=c1/cc[n-]c2cc(Cl)ccc12

>  <Energy>  (40) 
56.309680987107456

>  <Genealogy>  (40) 
COc1ccccc1CNCCN=c1cc[n-]c2cc(Cl)ccc12 (protonated)
COc1ccccc1CNCC/N=c1/cc[n-]c2cc(Cl)ccc12 (cis-trans isomerization)
COc1ccccc1CNCC/N=c1/cc[n-]c2cc(Cl)ccc12 (3D coordinates assigned)
COc1ccccc1CNCC/N=c1/cc[n-]c2cc(Cl)ccc12 (optimized conformer: 56.309680987107456 kcal/mol)

>  <smiles>  (40) 
COc1ccccc1CNCCN=c1cc[nH]c2cc(Cl)ccc12

>  <score_type>  (40) 
oracle

>  <origin>  (40) 
adg

>  <m_score__min__energy>  (40) 
-9.1699999999999999

>  <m_primary>  (40) 
energy

$$$$
40:0
     RDKit          3D

 33 34  0  0  0  0  0  0  0  0999 V2000
   -7.4209   19.5169  -32.6525 H   0  0  0  0  0  0  0  0  0  0  0  0
   -6.8910   20.4690  -32.5020 C   0  0  0  0  0  0  0  0  0  0  0  0
   -6.3100   21.5130  -32.3370 C   0  0  0  0  0  0  0  0  0  0  0  0
   -5.6050   22.7830  -32.1370 C   0  0  0  0  0  0  0  0  0  0  0  0
   -4.8778   22.6704  -31.3193 H   0  0  0  0  0  0  0  0  0  0  0  0
   -5.0843   23.0555  -33.0668 H   0  0  0  0  0  0  0  0  0  0  0  0
   -6.5660   23.8490  -31.7920 N   0  0  0  0  0  0  0  0  0  0  0  0
   -7.9640   23.4160  -31.9680 C   0  0  0  0  0  0  0  0  0  0  0  0
   -8.4300   23.2717  -30.9821 H   0  0  0  0  0  0  0  0  0  0  0  0
   -8.5183   24.1845  -32.5266 H   0  0  0  0  0  0  0  0  0  0  0  0
   -7.9869   22.4687  -32.5266 H   0  0  0  0  0  0  0  0  0  0  0  0
   -6.3160   24.4610  -30.4660 C   0  0  0  0  0  0  0  0  0  0  0  0
   -7.2770   24.8209  -30.0699 H   0  0  0  0  0  0  0  0  0  0  0  0
   -5.8543   23.6767  -29.8481 H   0  0  0  0  0  0  0  0  0  0  0  0
   -5.3280   25.6430  -30.4690 C   0  0  0  0  0  0  0  0  0  0  0  0
   -5.5901   26.3298  -31.2873 H   0  0  0  0  0  0  0  0  0  0  0  0
   -5.3932   26.1590  -29.4997 H   0  0  0  0  0  0  0  0  0  0  0  0
   -3.9570   25.1740  -30.6580 N   0  0  0  0  0  0  0  0  0  0  0  0
   -3.2300   24.6460  -29.7210 C   0  0  0  0  0  0  0  0  0  0  0  0
   -2.1330   25.2980  -29.2360 N   0  0  0  0  0  0  0  0  0  0  0  0
   -1.3580   24.7650  -28.2550 C   0  0  0  0  0  0  0  0  0  0  0  0
   -0.2400   25.4550  -27.7770 C   0  0  0  0  0  0  0  0  0  0  0  0
    0.0206   26.4383  -28.1955 H   0  0  0  0  0  0  0  0  0  0  0  0
    0.5250   24.9090  -26.7940 N   0  0  0  0  0  0  0  0  0  0  0  0
    0.2370   23.6960  -26.2500 C   0  0  0  0  0  0  0  0  0  0  0  0
    0.8794   23.2847  -25.4575 H   0  0  0  0  0  0  0  0  0  0  0  0
   -0.8720   22.9700  -26.6940 C   0  0  0  0  0  0  0  0  0  0  0  0
   -1.1086   21.9898  -26.2544 H   0  0  0  0  0  0  0  0  0  0  0  0
   -1.6780   23.5070  -27.7060 C   0  0  0  0  0  0  0  0  0  0  0  0
   -2.8000   22.8230  -28.1900 C   0  0  0  0  0  0  0  0  0  0  0  0
   -3.0678   21.8395  -27.7763 H   0  0  0  0  0  0  0  0  0  0  0  0
   -3.5780   23.3940  -29.2000 C   0  0  0  0  0  0  0  0  0  0  0  0
   -4.4607   22.8620  -29.5845 H   0  0  0  0  0  0  0  0  0  0  0  0
  1  2  1  0
  2  3  3  0
  3  4  1  0
  4  5  1  0
  4  6  1  0
  4  7  1  0
  7  8  1  0
  8  9  1  0
  8 10  1  0
  8 11  1  0
  7 12  1  0
 12 13  1  0
 12 14  1  0
 12 15  1  0
 15 16  1  0
 15 17  1  0
 15 18  1  0
 18 19  2  0
 19 20  1  0
 20 21  1  0
 21 22  2  0
 22 23  1  0
 22 24  1  0
 24 25  2  0
 25 26  1  0
 25 27  1  0
 27 28  1  0
 27 29  2  0
 29 30  1  0
 30 31  1  0
 30 32  2  0
 32 33  1  0
 32 19  1  0
 29 21  1  0
M  CHG  1  20  -1
M  END
>  <UniqueID>  (41) 
40

>  <SMILES>  (41) 
C#CCN(C)CC/N=c1/ccc2ccncc2[n-]1

>  <Energy>  (41) 
37.337819444118836

>  <Genealogy>  (41) 
C#CCN(C)CCN=c1ccc2ccncc2[n-]1 (protonated)
C#CCN(C)CC/N=c1/ccc2ccncc2[n-]1 (cis-trans isomerization)
C#CCN(C)CC/N=c1/ccc2ccncc2[n-]1 (3D coordinates assigned)
C#CCN(C)CC/N=c1/ccc2ccncc2[n-]1 (optimized conformer: 37.337819444118836 kcal/mol)

>  <smiles>  (41) 
C#CCN(C)CCN=c1ccc2ccncc2[nH]1

>  <score_type>  (41) 
oracle

>  <origin>  (41) 
adg

>  <m_score__min__energy>  (41) 
-7.6500000000000004

>  <m_primary>  (41) 
energy

$$$$
41:0
     RDKit          3D

 54 56  0  0  0  0  0  0  0  0999 V2000
   -3.5070   18.5510  -26.0920 C   0  0  0  0  0  0  0  0  0  0  0  0
   -2.3570   19.3470  -26.6900 C   0  0  0  0  0  0  0  0  0  0  0  0
   -2.8350   20.0880  -27.7920 O   0  0  0  0  0  0  0  0  0  0  0  0
   -1.7710   20.3480  -28.6850 C   0  0  0  0  0  0  0  0  0  0  0  0
   -2.2870   21.1390  -29.8970 C   0  0  0  0  0  0  0  0  0  0  0  0
   -3.7020   21.5950  -29.8280 N   0  0  0  0  0  0  0  0  0  0  0  0
   -4.4810   21.4120  -31.0780 C   0  0  0  0  0  0  0  0  0  0  0  0
   -4.5300   22.6640  -31.9670 C   0  0  0  0  0  0  0  0  0  0  0  0
   -4.9760   23.8510  -31.2250 N   0  0  0  0  0  0  0  0  0  0  0  0
   -6.4080   23.7940  -30.8470 C   0  0  0  0  0  0  0  0  0  0  0  0
   -7.2900   23.4190  -32.0500 C   0  0  0  0  0  0  0  0  0  0  0  0
   -8.4340   22.4550  -31.6970 C   0  0  0  0  0  0  0  0  0  0  0  0
   -8.0830   21.0270  -32.0140 C   0  0  0  0  0  0  0  0  0  0  0  0
   -8.7810   19.9670  -31.4160 C   0  0  0  0  0  0  0  0  0  0  0  0
   -8.4610   18.6510  -31.7580 C   0  0  0  0  0  0  0  0  0  0  0  0
   -7.4510   18.4000  -32.6940 C   0  0  0  0  0  0  0  0  0  0  0  0
   -7.1080   17.0910  -33.0620 C   0  0  0  0  0  0  0  0  0  0  0  0
   -6.0960   16.8740  -34.0040 C   0  0  0  0  0  0  0  0  0  0  0  0
   -5.4260   17.9590  -34.5790 C   0  0  0  0  0  0  0  0  0  0  0  0
   -5.7620   19.2670  -34.2180 C   0  0  0  0  0  0  0  0  0  0  0  0
   -6.7720   19.4940  -33.2760 C   0  0  0  0  0  0  0  0  0  0  0  0
   -7.1070   20.7650  -32.9250 N   0  0  0  0  0  0  0  0  0  0  0  0
   -4.0710   24.1150  -30.0920 C   0  0  0  0  0  0  0  0  0  0  0  0
   -3.8980   22.9060  -29.1490 C   0  0  0  0  0  0  0  0  0  0  0  0
   -3.4490   18.5912  -24.9943 H   0  0  0  0  0  0  0  0  0  0  0  0
   -4.4630   18.9816  -26.4246 H   0  0  0  0  0  0  0  0  0  0  0  0
   -3.4407   17.5046  -26.4246 H   0  0  0  0  0  0  0  0  0  0  0  0
   -1.9504   20.0333  -25.9326 H   0  0  0  0  0  0  0  0  0  0  0  0
   -1.5625   18.6614  -27.0197 H   0  0  0  0  0  0  0  0  0  0  0  0
   -0.9969   20.9350  -28.1690 H   0  0  0  0  0  0  0  0  0  0  0  0
   -1.3460   19.3937  -29.0296 H   0  0  0  0  0  0  0  0  0  0  0  0
   -1.6522   22.0300  -30.0117 H   0  0  0  0  0  0  0  0  0  0  0  0
   -2.2431   20.4405  -30.7457 H   0  0  0  0  0  0  0  0  0  0  0  0
   -4.1260   20.9020  -29.1640 H   0  0  0  0  0  0  0  0  0  0  0  0
   -4.0239   20.5946  -31.6550 H   0  0  0  0  0  0  0  0  0  0  0  0
   -5.5164   21.1896  -30.7806 H   0  0  0  0  0  0  0  0  0  0  0  0
   -3.5235   22.8538  -32.3682 H   0  0  0  0  0  0  0  0  0  0  0  0
   -5.2529   22.4779  -32.7749 H   0  0  0  0  0  0  0  0  0  0  0  0
   -6.5402   23.0399  -30.0571 H   0  0  0  0  0  0  0  0  0  0  0  0
   -6.7125   24.7891  -30.4906 H   0  0  0  0  0  0  0  0  0  0  0  0
   -7.7265   24.3408  -32.4620 H   0  0  0  0  0  0  0  0  0  0  0  0
   -6.6442   22.9018  -32.7749 H   0  0  0  0  0  0  0  0  0  0  0  0
   -8.6495   22.5378  -30.6215 H   0  0  0  0  0  0  0  0  0  0  0  0
   -9.3112   22.7321  -32.3001 H   0  0  0  0  0  0  0  0  0  0  0  0
   -9.5751   20.1709  -30.6826 H   0  0  0  0  0  0  0  0  0  0  0  0
   -9.0016   17.8136  -31.2927 H   0  0  0  0  0  0  0  0  0  0  0  0
   -7.6335   16.2363  -32.6110 H   0  0  0  0  0  0  0  0  0  0  0  0
   -5.8267   15.8474  -34.2931 H   0  0  0  0  0  0  0  0  0  0  0  0
   -4.6312   17.7821  -35.3186 H   0  0  0  0  0  0  0  0  0  0  0  0
   -5.2331   20.1170  -34.6738 H   0  0  0  0  0  0  0  0  0  0  0  0
   -3.0835   24.3893  -30.4915 H   0  0  0  0  0  0  0  0  0  0  0  0
   -4.5209   24.9257  -29.5001 H   0  0  0  0  0  0  0  0  0  0  0  0
   -3.0210   23.0939  -28.5122 H   0  0  0  0  0  0  0  0  0  0  0  0
   -4.8394   22.8206  -28.5864 H   0  0  0  0  0  0  0  0  0  0  0  0
  1  2  1  0
  2  3  1  0
  3  4  1  0
  4  5  1  0
  5  6  1  0
  6  7  1  0
  7  8  1  0
  8  9  1  0
  9 10  1  0
 10 11  1  0
 11 12  1  0
 12 13  1  0
 13 14  2  0
 14 15  1  0
 15 16  2  0
 16 17  1  0
 17 18  2  0
 18 19  1  0
 19 20  2  0
 20 21  1  0
 21 22  2  0
  9 23  1  0
 23 24  1  0
 24  6  1  0
 22 13  1  0
 21 16  1  0
  1 25  1  0
  1 26  1  0
  1 27  1  0
  2 28  1  0
  2 29  1  0
  4 30  1  0
  4 31  1  0
  5 32  1  0
  5 33  1  0
  6 34  1  0
  7 35  1  0
  7 36  1  0
  8 37  1  0
  8 38  1  0
 10 39  1  0
 10 40  1  0
 11 41  1  0
 11 42  1  0
 12 43  1  0
 12 44  1  0
 14 45  1  0
 15 46  1  0
 17 47  1  0
 18 48  1  0
 19 49  1  0
 20 50  1  0
 23 51  1  0
 23 52  1  0
 24 53  1  0
 24 54  1  0
M  CHG  1   6   1
M  END
>  <UniqueID>  (42) 
41

>  <SMILES>  (42) 
CCOCC[NH+]1CCN(CCCc2ccc3ccccc3n2)CC1

>  <Energy>  (42) 
67.19943258030584

>  <Genealogy>  (42) 
CCOCC[NH+]1CCN(CCCc2ccc3ccccc3n2)CC1 (protonated)
CCOCC[NH+]1CCN(CCCc2ccc3ccccc3n2)CC1 (3D coordinates assigned)
CCOCC[NH+]1CCN(CCCc2ccc3ccccc3n2)CC1 (nonaromatic ring conformer: 67.19943258030584 kcal/mol)

>  <smiles>  (42) 
CCOCCN1CCN(CCCc2ccc3ccccc3n2)CC1

>  <score_type>  (42) 
oracle

>  <origin>  (42) 
adg

>  <m_score__min__energy>  (42) 
-8.3300000000000001

>  <m_primary>  (42) 
energy

$$$$
42:0
     RDKit          3D

 53 55  0  0  0  0  0  0  0  0999 V2000
   -3.2740   22.1220  -29.6890 C   0  0  0  0  0  0  0  0  0  0  0  0
   -3.1230   23.4530  -30.4230 C   0  0  0  0  0  0  0  0  0  0  0  0
   -4.0830   24.4470  -29.8890 N   0  0  0  0  0  0  0  0  0  0  0  0
   -4.6040   24.0280  -28.5670 C   0  0  0  0  0  0  0  0  0  0  0  0
   -3.6730   24.5090  -27.4570 C   0  0  0  0  0  0  0  0  0  0  0  0
   -5.1880   24.6890  -30.8430 C   0  0  0  0  0  0  0  0  0  0  0  0
   -6.0180   23.4140  -31.0250 C   0  0  0  0  0  0  0  0  0  0  0  0
   -5.8990   22.9090  -32.3920 N   0  0  0  0  0  0  0  0  0  0  0  0
   -5.7920   21.5010  -32.6680 C   0  0  0  0  0  0  0  0  0  0  0  0
   -6.9030   20.6620  -32.4860 C   0  0  0  0  0  0  0  0  0  0  0  0
   -8.1050   21.1630  -31.9440 C   0  0  0  0  0  0  0  0  0  0  0  0
   -9.1940   20.3210  -31.7330 C   0  0  0  0  0  0  0  0  0  0  0  0
   -9.1000   18.9690  -32.0440 C   0  0  0  0  0  0  0  0  0  0  0  0
   -7.9250   18.4550  -32.5920 C   0  0  0  0  0  0  0  0  0  0  0  0
   -6.8130   19.2950  -32.8570 C   0  0  0  0  0  0  0  0  0  0  0  0
   -5.6600   18.8120  -33.4490 N   0  0  0  0  0  0  0  0  0  0  0  0
   -5.6660   17.4880  -34.1100 C   0  0  0  0  0  0  0  0  0  0  0  0
   -4.5080   19.5770  -33.4420 C   0  0  0  0  0  0  0  0  0  0  0  0
   -3.2430   19.0240  -33.7720 C   0  0  0  0  0  0  0  0  0  0  0  0
   -2.0820   19.8180  -33.7910 C   0  0  0  0  0  0  0  0  0  0  0  0
   -0.8210   19.3020  -34.1260 O   0  0  0  0  0  0  0  0  0  0  0  0
    0.1590   19.9940  -34.8950 C   0  0  0  0  0  0  0  0  0  0  0  0
   -2.1720   21.1660  -33.4580 C   0  0  0  0  0  0  0  0  0  0  0  0
   -3.3930   21.7250  -33.0910 C   0  0  0  0  0  0  0  0  0  0  0  0
   -4.5670   20.9470  -33.0750 C   0  0  0  0  0  0  0  0  0  0  0  0
   -3.2541   22.2977  -28.6033 H   0  0  0  0  0  0  0  0  0  0  0  0
   -4.2308   21.6561  -29.9676 H   0  0  0  0  0  0  0  0  0  0  0  0
   -2.4459   21.4537  -29.9676 H   0  0  0  0  0  0  0  0  0  0  0  0
   -2.0982   23.8285  -30.2861 H   0  0  0  0  0  0  0  0  0  0  0  0
   -3.3277   23.2968  -31.4924 H   0  0  0  0  0  0  0  0  0  0  0  0
   -5.6036   24.4617  -28.4163 H   0  0  0  0  0  0  0  0  0  0  0  0
   -4.6625   22.9300  -28.5358 H   0  0  0  0  0  0  0  0  0  0  0  0
   -4.1194   24.2784  -26.4784 H   0  0  0  0  0  0  0  0  0  0  0  0
   -2.7021   23.9997  -27.5463 H   0  0  0  0  0  0  0  0  0  0  0  0
   -3.5266   25.5956  -27.5463 H   0  0  0  0  0  0  0  0  0  0  0  0
   -5.8337   25.4908  -30.4554 H   0  0  0  0  0  0  0  0  0  0  0  0
   -4.7654   24.9842  -31.8147 H   0  0  0  0  0  0  0  0  0  0  0  0
   -5.6584   22.6462  -30.3241 H   0  0  0  0  0  0  0  0  0  0  0  0
   -7.0741   23.6488  -30.8260 H   0  0  0  0  0  0  0  0  0  0  0  0
   -5.8280   23.5870  -33.1830 H   0  0  0  0  0  0  0  0  0  0  0  0
   -8.1830   22.2293  -31.6854 H   0  0  0  0  0  0  0  0  0  0  0  0
  -10.1296   20.7259  -31.3198 H   0  0  0  0  0  0  0  0  0  0  0  0
   -9.9551   18.3027  -31.8572 H   0  0  0  0  0  0  0  0  0  0  0  0
   -7.8595   17.3814  -32.8223 H   0  0  0  0  0  0  0  0  0  0  0  0
   -5.6696   16.6967  -33.3459 H   0  0  0  0  0  0  0  0  0  0  0  0
   -6.5646   17.3956  -34.7377 H   0  0  0  0  0  0  0  0  0  0  0  0
   -4.7683   17.3875  -34.7377 H   0  0  0  0  0  0  0  0  0  0  0  0
   -3.1692   17.9543  -34.0175 H   0  0  0  0  0  0  0  0  0  0  0  0
    0.8683   20.4949  -34.2198 H   0  0  0  0  0  0  0  0  0  0  0  0
    0.7006   19.2770  -35.5294 H   0  0  0  0  0  0  0  0  0  0  0  0
   -0.3355   20.7443  -35.5294 H   0  0  0  0  0  0  0  0  0  0  0  0
   -1.2704   21.7955  -33.4850 H   0  0  0  0  0  0  0  0  0  0  0  0
   -3.4415   22.7874  -32.8100 H   0  0  0  0  0  0  0  0  0  0  0  0
  1  2  1  0
  2  3  1  0
  3  4  1  0
  4  5  1  0
  3  6  1  0
  6  7  1  0
  7  8  1  0
  8  9  1  0
  9 10  2  0
 10 11  1  0
 11 12  2  0
 12 13  1  0
 13 14  2  0
 14 15  1  0
 15 16  2  0
 16 17  1  0
 16 18  1  0
 18 19  2  0
 19 20  1  0
 20 21  1  0
 21 22  1  0
 20 23  2  0
 23 24  1  0
 24 25  2  0
 25  9  1  0
 15 10  1  0
 25 18  1  0
  1 26  1  0
  1 27  1  0
  1 28  1  0
  2 29  1  0
  2 30  1  0
  4 31  1  0
  4 32  1  0
  5 33  1  0
  5 34  1  0
  5 35  1  0
  6 36  1  0
  6 37  1  0
  7 38  1  0
  7 39  1  0
  8 40  1  0
 11 41  1  0
 12 42  1  0
 13 43  1  0
 14 44  1  0
 17 45  1  0
 17 46  1  0
 17 47  1  0
 19 48  1  0
 22 49  1  0
 22 50  1  0
 22 51  1  0
 23 52  1  0
 24 53  1  0
M  CHG  1  16   1
M  END
>  <UniqueID>  (43) 
42

>  <SMILES>  (43) 
CCN(CC)CCNc1c2ccccc2[n+](C)c2cc(OC)ccc12

>  <Energy>  (43) 
76.4550545360028

>  <Genealogy>  (43) 
CCN(CC)CCNc1c2ccccc2[n+](C)c2cc(OC)ccc12 (3D coordinates assigned)
CCN(CC)CCNc1c2ccccc2[n+](C)c2cc(OC)ccc12 (optimized conformer: 76.4550545360028 kcal/mol)

>  <smiles>  (43) 
CCN(CC)CCNc1c2ccccc2[n+](C)c2cc(OC)ccc12

>  <score_type>  (43) 
oracle

>  <origin>  (43) 
adg

>  <m_score__min__energy>  (43) 
-8.1300000000000008

>  <m_primary>  (43) 
energy

$$$$
43:0
     RDKit          3D

 44 45  0  0  0  0  0  0  0  0999 V2000
   -4.2220   20.7130  -33.0730 C   0  0  0  0  0  0  0  0  0  0  0  0
   -5.3610   21.2610  -32.4180 O   0  0  0  0  0  0  0  0  0  0  0  0
   -6.5860   20.5930  -32.2540 C   0  0  0  0  0  0  0  0  0  0  0  0
   -6.8190   19.3240  -32.8200 C   0  0  0  0  0  0  0  0  0  0  0  0
   -8.0540   18.6930  -32.6590 C   0  0  0  0  0  0  0  0  0  0  0  0
   -9.0690   19.3150  -31.9320 C   0  0  0  0  0  0  0  0  0  0  0  0
   -8.8500   20.5660  -31.3560 C   0  0  0  0  0  0  0  0  0  0  0  0
   -7.6080   21.2090  -31.4990 C   0  0  0  0  0  0  0  0  0  0  0  0
   -7.4110   22.5750  -30.8810 C   0  0  0  0  0  0  0  0  0  0  0  0
   -6.7510   23.5010  -31.8220 N   0  0  0  0  0  0  0  0  0  0  0  0
   -6.1120   24.6360  -31.1390 C   0  0  0  0  0  0  0  0  0  0  0  0
   -4.6700   24.3430  -30.8250 C   0  0  0  0  0  0  0  0  0  0  0  0
   -3.8970   25.2860  -30.5030 O   0  0  0  0  0  0  0  0  0  0  0  0
   -4.1920   22.9940  -30.8620 N   0  0  0  0  0  0  0  0  0  0  0  0
   -2.8530   22.6340  -30.3970 C   0  0  0  0  0  0  0  0  0  0  0  0
   -2.8250   22.4370  -28.8760 C   0  0  0  0  0  0  0  0  0  0  0  0
   -2.4170   23.7040  -28.1660 C   0  0  0  0  0  0  0  0  0  0  0  0
   -1.2880   24.4300  -28.5860 C   0  0  0  0  0  0  0  0  0  0  0  0
   -0.8930   25.5810  -27.8980 C   0  0  0  0  0  0  0  0  0  0  0  0
   -1.6240   26.0210  -26.7930 C   0  0  0  0  0  0  0  0  0  0  0  0
   -2.7460   25.3040  -26.3650 C   0  0  0  0  0  0  0  0  0  0  0  0
   -3.1390   24.1480  -27.0460 C   0  0  0  0  0  0  0  0  0  0  0  0
   -3.4987   20.3650  -32.3209 H   0  0  0  0  0  0  0  0  0  0  0  0
   -4.5330   19.8660  -33.7021 H   0  0  0  0  0  0  0  0  0  0  0  0
   -3.7542   21.4846  -33.7021 H   0  0  0  0  0  0  0  0  0  0  0  0
   -6.0223   18.8269  -33.3928 H   0  0  0  0  0  0  0  0  0  0  0  0
   -8.2270   17.7031  -33.1065 H   0  0  0  0  0  0  0  0  0  0  0  0
  -10.0432   18.8182  -31.8129 H   0  0  0  0  0  0  0  0  0  0  0  0
   -9.6547   21.0531  -30.7858 H   0  0  0  0  0  0  0  0  0  0  0  0
   -8.3922   22.9868  -30.6024 H   0  0  0  0  0  0  0  0  0  0  0  0
   -6.7684   22.4650  -29.9950 H   0  0  0  0  0  0  0  0  0  0  0  0
   -6.0410   23.0100  -32.4170 H   0  0  0  0  0  0  0  0  0  0  0  0
   -6.1644   25.5214  -31.7896 H   0  0  0  0  0  0  0  0  0  0  0  0
   -6.6438   24.8164  -30.1931 H   0  0  0  0  0  0  0  0  0  0  0  0
   -4.8370   22.2530  -31.2180 H   0  0  0  0  0  0  0  0  0  0  0  0
   -2.5438   21.6980  -30.8852 H   0  0  0  0  0  0  0  0  0  0  0  0
   -2.1647   23.4528  -30.6536 H   0  0  0  0  0  0  0  0  0  0  0  0
   -3.8282   22.1421  -28.5345 H   0  0  0  0  0  0  0  0  0  0  0  0
   -2.0881   21.6549  -28.6410 H   0  0  0  0  0  0  0  0  0  0  0  0
   -0.7130   24.0904  -29.4601 H   0  0  0  0  0  0  0  0  0  0  0  0
   -0.0052   26.1406  -28.2277 H   0  0  0  0  0  0  0  0  0  0  0  0
   -1.3173   26.9322  -26.2586 H   0  0  0  0  0  0  0  0  0  0  0  0
   -3.3194   25.6498  -25.4923 H   0  0  0  0  0  0  0  0  0  0  0  0
   -4.0183   23.5832  -26.7029 H   0  0  0  0  0  0  0  0  0  0  0  0
  1  2  1  0
  2  3  1  0
  3  4  2  0
  4  5  1  0
  5  6  2  0
  6  7  1  0
  7  8  2  0
  8  9  1  0
  9 10  1  0
 10 11  1  0
 11 12  1  0
 12 13  2  0
 12 14  1  0
 14 15  1  0
 15 16  1  0
 16 17  1  0
 17 18  2  0
 18 19  1  0
 19 20  2  0
 20 21  1  0
 21 22  2  0
  8  3  1  0
 22 17  1  0
  1 23  1  0
  1 24  1  0
  1 25  1  0
  4 26  1  0
  5 27  1  0
  6 28  1  0
  7 29  1  0
  9 30  1  0
  9 31  1  0
 10 32  1  0
 11 33  1  0
 11 34  1  0
 14 35  1  0
 15 36  1  0
 15 37  1  0
 16 38  1  0
 16 39  1  0
 18 40  1  0
 19 41  1  0
 20 42  1  0
 21 43  1  0
 22 44  1  0
M  END
>  <UniqueID>  (44) 
43

>  <SMILES>  (44) 
COc1ccccc1CNCC(=O)NCCc1ccccc1

>  <Energy>  (44) 
35.443544870682324

>  <Genealogy>  (44) 
COc1ccccc1CNCC(=O)NCCc1ccccc1 (3D coordinates assigned)
COc1ccccc1CNCC(=O)NCCc1ccccc1 (optimized conformer: 35.443544870682324 kcal/mol)

>  <smiles>  (44) 
COc1ccccc1CNCC(=O)NCCc1ccccc1

>  <score_type>  (44) 
oracle

>  <origin>  (44) 
adg

>  <m_score__min__energy>  (44) 
-8.3699999999999992

>  <m_primary>  (44) 
energy

$$$$
44:0
     RDKit          3D

 61 64  0  0  0  0  0  0  0  0999 V2000
   -4.9870   25.2700  -30.6760 C   0  0  0  0  0  0  0  0  0  0  0  0
   -3.6530   24.8210  -30.4710 O   0  0  0  0  0  0  0  0  0  0  0  0
   -3.2620   23.9170  -29.4700 C   0  0  0  0  0  0  0  0  0  0  0  0
   -3.3630   24.2340  -28.1010 C   0  0  0  0  0  0  0  0  0  0  0  0
   -2.9380   23.3220  -27.1310 C   0  0  0  0  0  0  0  0  0  0  0  0
   -2.4090   22.0890  -27.5130 C   0  0  0  0  0  0  0  0  0  0  0  0
   -2.3070   21.7610  -28.8670 C   0  0  0  0  0  0  0  0  0  0  0  0
   -2.7360   22.6650  -29.8500 C   0  0  0  0  0  0  0  0  0  0  0  0
   -2.6320   22.3030  -31.2370 N   0  0  0  0  0  0  0  0  0  0  0  0
   -3.8070   22.4050  -32.1120 C   0  0  0  0  0  0  0  0  0  0  0  0
   -3.5920   21.6090  -33.4010 C   0  0  0  0  0  0  0  0  0  0  0  0
   -2.9970   20.3030  -33.0650 N   0  0  0  0  0  0  0  0  0  0  0  0
   -3.0790   19.3090  -34.1570 C   0  0  0  0  0  0  0  0  0  0  0  0
   -2.0700   18.1450  -34.0200 C   0  0  0  0  0  0  0  0  0  0  0  0
   -2.7400   16.7700  -34.1720 C   0  0  0  0  0  0  0  0  0  0  0  0
   -3.6600   16.4290  -32.9910 C   0  0  0  0  0  0  0  0  0  0  0  0
   -4.5940   17.5230  -32.7240 N   0  0  0  0  0  0  0  0  0  0  0  0
   -6.0130   17.3340  -32.8330 C   0  0  0  0  0  0  0  0  0  0  0  0
   -6.4700   16.2000  -33.1410 O   0  0  0  0  0  0  0  0  0  0  0  0
   -6.9430   18.4590  -32.5870 C   0  0  0  0  0  0  0  0  0  0  0  0
   -8.3080   18.2290  -32.3420 C   0  0  0  0  0  0  0  0  0  0  0  0
   -9.1630   19.3100  -32.1140 C   0  0  0  0  0  0  0  0  0  0  0  0
   -8.6580   20.6140  -32.1320 C   0  0  0  0  0  0  0  0  0  0  0  0
   -9.4890   21.7230  -31.9080 C   0  0  0  0  0  0  0  0  0  0  0  0
   -8.9520   23.0130  -31.9320 C   0  0  0  0  0  0  0  0  0  0  0  0
   -7.5880   23.2050  -32.1790 C   0  0  0  0  0  0  0  0  0  0  0  0
   -6.7540   22.1050  -32.4030 C   0  0  0  0  0  0  0  0  0  0  0  0
   -7.2820   20.8090  -32.3810 C   0  0  0  0  0  0  0  0  0  0  0  0
   -6.4730   19.7380  -32.5990 N   0  0  0  0  0  0  0  0  0  0  0  0
   -1.6420   20.3950  -32.4650 C   0  0  0  0  0  0  0  0  0  0  0  0
   -1.3820   21.7410  -31.7610 C   0  0  0  0  0  0  0  0  0  0  0  0
   -5.4725   25.4334  -29.7026 H   0  0  0  0  0  0  0  0  0  0  0  0
   -4.9735   26.2131  -31.2420 H   0  0  0  0  0  0  0  0  0  0  0  0
   -5.5466   24.5107  -31.2420 H   0  0  0  0  0  0  0  0  0  0  0  0
   -3.7788   25.2050  -27.7938 H   0  0  0  0  0  0  0  0  0  0  0  0
   -3.0208   23.5770  -26.0642 H   0  0  0  0  0  0  0  0  0  0  0  0
   -2.0720   21.3746  -26.7475 H   0  0  0  0  0  0  0  0  0  0  0  0
   -1.8879   20.7883  -29.1640 H   0  0  0  0  0  0  0  0  0  0  0  0
   -4.6860   22.0068  -31.5841 H   0  0  0  0  0  0  0  0  0  0  0  0
   -3.9642   23.4624  -32.3713 H   0  0  0  0  0  0  0  0  0  0  0  0
   -4.5576   21.4556  -33.9051 H   0  0  0  0  0  0  0  0  0  0  0  0
   -2.9185   22.1627  -34.0717 H   0  0  0  0  0  0  0  0  0  0  0  0
   -4.0951   18.8876  -34.1666 H   0  0  0  0  0  0  0  0  0  0  0  0
   -2.8330   19.8375  -35.0898 H   0  0  0  0  0  0  0  0  0  0  0  0
   -1.3000   18.2511  -34.7984 H   0  0  0  0  0  0  0  0  0  0  0  0
   -1.6327   18.1962  -33.0120 H   0  0  0  0  0  0  0  0  0  0  0  0
   -3.3372   16.7690  -35.0958 H   0  0  0  0  0  0  0  0  0  0  0  0
   -1.9432   16.0123  -34.2039 H   0  0  0  0  0  0  0  0  0  0  0  0
   -4.2300   15.5190  -33.2296 H   0  0  0  0  0  0  0  0  0  0  0  0
   -3.0396   16.2704  -32.0966 H   0  0  0  0  0  0  0  0  0  0  0  0
   -4.2220   18.4600  -32.4480 H   0  0  0  0  0  0  0  0  0  0  0  0
   -8.7014   17.2018  -32.3299 H   0  0  0  0  0  0  0  0  0  0  0  0
  -10.2318   19.1358  -31.9206 H   0  0  0  0  0  0  0  0  0  0  0  0
  -10.5618   21.5768  -31.7138 H   0  0  0  0  0  0  0  0  0  0  0  0
   -9.6042   23.8811  -31.7560 H   0  0  0  0  0  0  0  0  0  0  0  0
   -7.1712   24.2228  -32.1970 H   0  0  0  0  0  0  0  0  0  0  0  0
   -5.6821   22.2585  -32.5966 H   0  0  0  0  0  0  0  0  0  0  0  0
   -1.5304   19.5868  -31.7272 H   0  0  0  0  0  0  0  0  0  0  0  0
   -0.9139   20.3080  -33.2850 H   0  0  0  0  0  0  0  0  0  0  0  0
   -0.6803   21.5834  -30.9287 H   0  0  0  0  0  0  0  0  0  0  0  0
   -0.9567   22.4453  -32.4911 H   0  0  0  0  0  0  0  0  0  0  0  0
  1  2  1  0
  2  3  1  0
  3  4  2  0
  4  5  1  0
  5  6  2  0
  6  7  1  0
  7  8  2  0
  8  9  1  0
  9 10  1  0
 10 11  1  0
 11 12  1  0
 12 13  1  0
 13 14  1  0
 14 15  1  0
 15 16  1  0
 16 17  1  0
 17 18  1  0
 18 19  2  0
 18 20  1  0
 20 21  2  0
 21 22  1  0
 22 23  2  0
 23 24  1  0
 24 25  2  0
 25 26  1  0
 26 27  2  0
 27 28  1  0
 28 29  2  0
 12 30  1  0
 30 31  1  0
  8  3  1  0
 31  9  1  0
 29 20  1  0
 28 23  1  0
  1 32  1  0
  1 33  1  0
  1 34  1  0
  4 35  1  0
  5 36  1  0
  6 37  1  0
  7 38  1  0
 10 39  1  0
 10 40  1  0
 11 41  1  0
 11 42  1  0
 13 43  1  0
 13 44  1  0
 14 45  1  0
 14 46  1  0
 15 47  1  0
 15 48  1  0
 16 49  1  0
 16 50  1  0
 17 51  1  0
 21 52  1  0
 22 53  1  0
 24 54  1  0
 25 55  1  0
 26 56  1  0
 27 57  1  0
 30 58  1  0
 30 59  1  0
 31 60  1  0
 31 61  1  0
M  END
>  <UniqueID>  (45) 
44

>  <SMILES>  (45) 
COc1ccccc1N1CCN(CCCCNC(=O)c2ccc3ccccc3n2)CC1

>  <Energy>  (45) 
74.25968445867836

>  <Genealogy>  (45) 
COc1ccccc1N1CCN(CCCCNC(=O)c2ccc3ccccc3n2)CC1 (3D coordinates assigned)
COc1ccccc1N1CCN(CCCCNC(=O)c2ccc3ccccc3n2)CC1 (nonaromatic ring conformer: 74.25968445867836 kcal/mol)

>  <smiles>  (45) 
COc1ccccc1N1CCN(CCCCNC(=O)c2ccc3ccccc3n2)CC1

>  <score_type>  (45) 
oracle

>  <origin>  (45) 
adg

>  <m_score__min__energy>  (45) 
-9.7799999999999994

>  <m_primary>  (45) 
energy

$$$$
45:0
     RDKit          3D

 37 38  0  0  0  0  0  0  0  0999 V2000
   -3.9810   18.5140  -33.3230 C   0  0  0  0  0  0  0  0  0  0  0  0
   -5.3470   17.9960  -33.5890 N   0  0  0  0  0  0  0  0  0  0  0  0
   -5.2130   16.6650  -34.2290 C   0  0  0  0  0  0  0  0  0  0  0  0
   -6.0730   17.8560  -32.2860 C   0  0  0  0  0  0  0  0  0  0  0  0
   -7.5940   18.0350  -32.4440 C   0  0  0  0  0  0  0  0  0  0  0  0
   -7.9500   19.3880  -32.9600 N   0  0  0  0  0  0  0  0  0  0  0  0
   -8.3430   20.2880  -31.8480 C   0  0  0  0  0  0  0  0  0  0  0  0
   -7.3810   21.4440  -31.6870 C   0  0  0  0  0  0  0  0  0  0  0  0
   -7.7900   22.7570  -31.9740 C   0  0  0  0  0  0  0  0  0  0  0  0
   -6.9050   23.8240  -31.8000 C   0  0  0  0  0  0  0  0  0  0  0  0
   -5.6070   23.5920  -31.3370 C   0  0  0  0  0  0  0  0  0  0  0  0
   -4.7560   24.6360  -31.1700 F   0  0  0  0  0  0  0  0  0  0  0  0
   -5.1910   22.2870  -31.0440 C   0  0  0  0  0  0  0  0  0  0  0  0
   -3.5650   21.9840  -30.4560 Cl  0  0  0  0  0  0  0  0  0  0  0  0
   -6.0770   21.2170  -31.2180 C   0  0  0  0  0  0  0  0  0  0  0  0
   -6.8670   19.9930  -33.7840 C   0  0  0  0  0  0  0  0  0  0  0  0
   -6.0580   18.9200  -34.5300 C   0  0  0  0  0  0  0  0  0  0  0  0
   -3.8174   18.5760  -32.2370 H   0  0  0  0  0  0  0  0  0  0  0  0
   -3.2384   17.8351  -33.7675 H   0  0  0  0  0  0  0  0  0  0  0  0
   -3.8753   19.5146  -33.7675 H   0  0  0  0  0  0  0  0  0  0  0  0
   -5.1350   15.8906  -33.4517 H   0  0  0  0  0  0  0  0  0  0  0  0
   -6.0959   16.4686  -34.8550 H   0  0  0  0  0  0  0  0  0  0  0  0
   -4.3087   16.6485  -34.8550 H   0  0  0  0  0  0  0  0  0  0  0  0
   -5.8751   16.8545  -31.8763 H   0  0  0  0  0  0  0  0  0  0  0  0
   -5.7091   18.6446  -31.6109 H   0  0  0  0  0  0  0  0  0  0  0  0
   -7.9689   17.2773  -33.1478 H   0  0  0  0  0  0  0  0  0  0  0  0
   -8.0531   17.9201  -31.4510 H   0  0  0  0  0  0  0  0  0  0  0  0
   -8.7890   19.2640  -33.5780 H   0  0  0  0  0  0  0  0  0  0  0  0
   -9.3472   20.6876  -32.0527 H   0  0  0  0  0  0  0  0  0  0  0  0
   -8.3296   19.7028  -30.9167 H   0  0  0  0  0  0  0  0  0  0  0  0
   -8.8110   22.9457  -32.3371 H   0  0  0  0  0  0  0  0  0  0  0  0
   -7.2308   24.8496  -32.0281 H   0  0  0  0  0  0  0  0  0  0  0  0
   -5.7498   20.1927  -30.9860 H   0  0  0  0  0  0  0  0  0  0  0  0
   -7.3171   20.6763  -34.5192 H   0  0  0  0  0  0  0  0  0  0  0  0
   -6.1843   20.5337  -33.1120 H   0  0  0  0  0  0  0  0  0  0  0  0
   -6.7435   18.3302  -35.1562 H   0  0  0  0  0  0  0  0  0  0  0  0
   -5.2996   19.4310  -35.1413 H   0  0  0  0  0  0  0  0  0  0  0  0
  1  2  1  0
  2  3  1  0
  2  4  1  0
  4  5  1  0
  5  6  1  0
  6  7  1  0
  7  8  1  0
  8  9  2  0
  9 10  1  0
 10 11  2  0
 11 12  1  0
 11 13  1  0
 13 14  1  0
 13 15  2  0
  6 16  1  0
 16 17  1  0
 17  2  1  0
 15  8  1  0
  1 18  1  0
  1 19  1  0
  1 20  1  0
  3 21  1  0
  3 22  1  0
  3 23  1  0
  4 24  1  0
  4 25  1  0
  5 26  1  0
  5 27  1  0
  6 28  1  0
  7 29  1  0
  7 30  1  0
  9 31  1  0
 10 32  1  0
 15 33  1  0
 16 34  1  0
 16 35  1  0
 17 36  1  0
 17 37  1  0
M  CHG  2   2   1   6   1
M  END
>  <UniqueID>  (46) 
45

>  <SMILES>  (46) 
C[N+]1(C)CC[NH+](Cc2ccc(F)c(Cl)c2)CC1

>  <Energy>  (46) 
53.8017477330335

>  <Genealogy>  (46) 
C[N+]1(C)CC[NH+](Cc2ccc(F)c(Cl)c2)CC1 (protonated)
C[N+]1(C)CC[NH+](Cc2ccc(F)c(Cl)c2)CC1 (3D coordinates assigned)
C[N+]1(C)CC[NH+](Cc2ccc(F)c(Cl)c2)CC1 (nonaromatic ring conformer: 53.8017477330335 kcal/mol)

>  <smiles>  (46) 
C[N+]1(C)CCN(Cc2ccc(F)c(Cl)c2)CC1

>  <score_type>  (46) 
oracle

>  <origin>  (46) 
adg

>  <m_score__min__energy>  (46) 
-5.3899999999999997

>  <m_primary>  (46) 
energy

$$$$
46:0
     RDKit          3D

 35 36  0  0  0  0  0  0  0  0999 V2000
   -1.0630   23.0720  -29.5090 C   0  0  0  0  0  0  0  0  0  0  0  0
   -1.0490   24.0870  -28.4090 C   0  0  0  0  0  0  0  0  0  0  0  0
    0.0080   24.9280  -28.2410 N   0  0  0  0  0  0  0  0  0  0  0  0
   -0.1830   25.8000  -27.2270 C   0  0  0  0  0  0  0  0  0  0  0  0
   -1.6830   25.5710  -26.5050 S   0  0  0  0  0  0  0  0  0  0  0  0
   -2.1080   24.2970  -27.5210 C   0  0  0  0  0  0  0  0  0  0  0  0
   -3.4380   23.5980  -27.4990 C   0  0  0  0  0  0  0  0  0  0  0  0
   -4.5950   24.5510  -27.8220 C   0  0  0  0  0  0  0  0  0  0  0  0
   -5.2580   24.1650  -29.0680 N   0  0  0  0  0  0  0  0  0  0  0  0
   -4.7180   24.4650  -30.3600 C   0  0  0  0  0  0  0  0  0  0  0  0
   -3.5700   24.9770  -30.4660 O   0  0  0  0  0  0  0  0  0  0  0  0
   -5.4840   24.2010  -31.4990 O   0  0  0  0  0  0  0  0  0  0  0  0
   -5.4210   22.9720  -32.2190 C   0  0  0  0  0  0  0  0  0  0  0  0
   -6.7350   22.2340  -32.1340 C   0  0  0  0  0  0  0  0  0  0  0  0
   -7.8640   22.9350  -31.6750 C   0  0  0  0  0  0  0  0  0  0  0  0
   -9.1020   22.2950  -31.5640 C   0  0  0  0  0  0  0  0  0  0  0  0
   -9.2260   20.9500  -31.9100 C   0  0  0  0  0  0  0  0  0  0  0  0
   -8.1140   20.2400  -32.3680 C   0  0  0  0  0  0  0  0  0  0  0  0
   -6.8680   20.8690  -32.4830 C   0  0  0  0  0  0  0  0  0  0  0  0
   -5.3990   19.8090  -33.1200 Br  0  0  0  0  0  0  0  0  0  0  0  0
   -1.0769   22.0613  -29.0751 H   0  0  0  0  0  0  0  0  0  0  0  0
   -1.9592   23.2168  -30.1301 H   0  0  0  0  0  0  0  0  0  0  0  0
   -0.1631   23.1920  -30.1301 H   0  0  0  0  0  0  0  0  0  0  0  0
    0.5479   26.5605  -26.9148 H   0  0  0  0  0  0  0  0  0  0  0  0
   -3.4260   22.7890  -28.2442 H   0  0  0  0  0  0  0  0  0  0  0  0
   -3.5969   23.2033  -26.4846 H   0  0  0  0  0  0  0  0  0  0  0  0
   -5.3262   24.5208  -27.0008 H   0  0  0  0  0  0  0  0  0  0  0  0
   -4.1905   25.5672  -27.9396 H   0  0  0  0  0  0  0  0  0  0  0  0
   -6.2230   23.7680  -29.0140 H   0  0  0  0  0  0  0  0  0  0  0  0
   -5.1935   23.1833  -33.2743 H   0  0  0  0  0  0  0  0  0  0  0  0
   -4.6340   22.3436  -31.7765 H   0  0  0  0  0  0  0  0  0  0  0  0
   -7.7724   23.9963  -31.4008 H   0  0  0  0  0  0  0  0  0  0  0  0
   -9.9788   22.8529  -31.2035 H   0  0  0  0  0  0  0  0  0  0  0  0
  -10.2006   20.4476  -31.8221 H   0  0  0  0  0  0  0  0  0  0  0  0
   -8.2175   19.1793  -32.6403 H   0  0  0  0  0  0  0  0  0  0  0  0
  1  2  1  0
  2  3  1  0
  3  4  2  0
  4  5  1  0
  5  6  1  0
  6  7  1  0
  7  8  1  0
  8  9  1  0
  9 10  1  0
 10 11  2  0
 10 12  1  0
 12 13  1  0
 13 14  1  0
 14 15  2  0
 15 16  1  0
 16 17  2  0
 17 18  1  0
 18 19  2  0
 19 20  1  0
  6  2  2  0
 19 14  1  0
  1 21  1  0
  1 22  1  0
  1 23  1  0
  4 24  1  0
  7 25  1  0
  7 26  1  0
  8 27  1  0
  8 28  1  0
  9 29  1  0
 13 30  1  0
 13 31  1  0
 15 32  1  0
 16 33  1  0
 17 34  1  0
 18 35  1  0
M  END
>  <UniqueID>  (47) 
46

>  <SMILES>  (47) 
Cc1ncsc1CCNC(=O)OCc1ccccc1Br

>  <Energy>  (47) 
57.86300798872203

>  <Genealogy>  (47) 
Cc1ncsc1CCNC(=O)OCc1ccccc1Br (3D coordinates assigned)
Cc1ncsc1CCNC(=O)OCc1ccccc1Br (optimized conformer: 57.86300798872203 kcal/mol)

>  <smiles>  (47) 
Cc1ncsc1CCNC(=O)OCc1ccccc1Br

>  <score_type>  (47) 
oracle

>  <origin>  (47) 
adg

>  <m_score__min__energy>  (47) 
-8.1500000000000004

>  <m_primary>  (47) 
energy

$$$$
47:0
     RDKit          3D

 50 53  0  0  0  0  0  0  0  0999 V2000
   -8.9980   19.0040  -32.7130 C   0  0  0  0  0  0  0  0  0  0  0  0
   -8.6760   20.4210  -32.3320 C   0  0  0  0  0  0  0  0  0  0  0  0
   -9.7200   21.2990  -31.9630 C   0  0  0  0  0  0  0  0  0  0  0  0
   -9.4570   22.6480  -31.6500 C   0  0  0  0  0  0  0  0  0  0  0  0
   -8.1470   23.1470  -31.7010 C   0  0  0  0  0  0  0  0  0  0  0  0
   -7.1270   22.2650  -32.0450 C   0  0  0  0  0  0  0  0  0  0  0  0
   -5.7790   22.4870  -32.1900 C   0  0  0  0  0  0  0  0  0  0  0  0
   -5.1450   23.7190  -31.9940 O   0  0  0  0  0  0  0  0  0  0  0  0
   -5.5690   24.6870  -31.0380 C   0  0  0  0  0  0  0  0  0  0  0  0
   -4.8540   24.4670  -29.6940 C   0  0  0  0  0  0  0  0  0  0  0  0
   -4.2150   23.1250  -29.6150 N   0  0  0  0  0  0  0  0  0  0  0  0
   -2.8460   23.1450  -30.1750 C   0  0  0  0  0  0  0  0  0  0  0  0
   -1.8710   23.9480  -29.2800 C   0  0  0  0  0  0  0  0  0  0  0  0
   -2.3530   24.1440  -27.9620 O   0  0  0  0  0  0  0  0  0  0  0  0
   -2.9090   22.9460  -27.4650 C   0  0  0  0  0  0  0  0  0  0  0  0
   -4.2010   22.5870  -28.2290 C   0  0  0  0  0  0  0  0  0  0  0  0
   -5.1620   21.3380  -32.5440 N   0  0  0  0  0  0  0  0  0  0  0  0
   -6.1150   20.3820  -32.6200 C   0  0  0  0  0  0  0  0  0  0  0  0
   -5.7990   18.9750  -32.9140 C   0  0  0  0  0  0  0  0  0  0  0  0
   -5.4680   18.5770  -34.2180 C   0  0  0  0  0  0  0  0  0  0  0  0
   -5.1990   17.2330  -34.4960 C   0  0  0  0  0  0  0  0  0  0  0  0
   -5.2770   16.2790  -33.4770 C   0  0  0  0  0  0  0  0  0  0  0  0
   -5.6320   16.6660  -32.1810 C   0  0  0  0  0  0  0  0  0  0  0  0
   -5.9010   18.0100  -31.9010 C   0  0  0  0  0  0  0  0  0  0  0  0
   -7.3630   20.9370  -32.3280 C   0  0  0  0  0  0  0  0  0  0  0  0
   -9.1349   18.4017  -31.8028 H   0  0  0  0  0  0  0  0  0  0  0  0
   -9.9233   18.9854  -33.3076 H   0  0  0  0  0  0  0  0  0  0  0  0
   -8.1716   18.5874  -33.3076 H   0  0  0  0  0  0  0  0  0  0  0  0
  -10.7532   20.9242  -31.9194 H   0  0  0  0  0  0  0  0  0  0  0  0
  -10.2845   23.3138  -31.3639 H   0  0  0  0  0  0  0  0  0  0  0  0
   -7.9327   24.2022  -31.4762 H   0  0  0  0  0  0  0  0  0  0  0  0
   -5.3326   25.6937  -31.4131 H   0  0  0  0  0  0  0  0  0  0  0  0
   -6.6534   24.5840  -30.8848 H   0  0  0  0  0  0  0  0  0  0  0  0
   -4.0780   25.2374  -29.5744 H   0  0  0  0  0  0  0  0  0  0  0  0
   -5.6065   24.5324  -28.8943 H   0  0  0  0  0  0  0  0  0  0  0  0
   -4.7670   22.4620  -30.2110 H   0  0  0  0  0  0  0  0  0  0  0  0
   -2.4811   22.1108  -30.2607 H   0  0  0  0  0  0  0  0  0  0  0  0
   -2.8864   23.6326  -31.1602 H   0  0  0  0  0  0  0  0  0  0  0  0
   -0.9173   23.4026  -29.2256 H   0  0  0  0  0  0  0  0  0  0  0  0
   -1.7541   24.9424  -29.7356 H   0  0  0  0  0  0  0  0  0  0  0  0
   -2.1795   22.1316  -27.5863 H   0  0  0  0  0  0  0  0  0  0  0  0
   -3.1534   23.0837  -26.4014 H   0  0  0  0  0  0  0  0  0  0  0  0
   -4.2897   21.4916  -28.2756 H   0  0  0  0  0  0  0  0  0  0  0  0
   -5.0445   23.0402  -27.6876 H   0  0  0  0  0  0  0  0  0  0  0  0
   -4.1390   21.1950  -32.7000 H   0  0  0  0  0  0  0  0  0  0  0  0
   -5.4199   19.3241  -35.0239 H   0  0  0  0  0  0  0  0  0  0  0  0
   -4.9260   16.9265  -35.5166 H   0  0  0  0  0  0  0  0  0  0  0  0
   -5.0589   15.2231  -33.6949 H   0  0  0  0  0  0  0  0  0  0  0  0
   -5.6998   15.9135  -31.3815 H   0  0  0  0  0  0  0  0  0  0  0  0
   -6.1932   18.3108  -30.8841 H   0  0  0  0  0  0  0  0  0  0  0  0
  1  2  1  0
  2  3  2  0
  3  4  1  0
  4  5  2  0
  5  6  1  0
  6  7  2  0
  7  8  1  0
  8  9  1  0
  9 10  1  0
 10 11  1  0
 11 12  1  0
 12 13  1  0
 13 14  1  0
 14 15  1  0
 15 16  1  0
  7 17  1  0
 17 18  1  0
 18 19  1  0
 19 20  2  0
 20 21  1  0
 21 22  2  0
 22 23  1  0
 23 24  2  0
 18 25  2  0
 25  2  1  0
 25  6  1  0
 16 11  1  0
 24 19  1  0
  1 26  1  0
  1 27  1  0
  1 28  1  0
  3 29  1  0
  4 30  1  0
  5 31  1  0
  9 32  1  0
  9 33  1  0
 10 34  1  0
 10 35  1  0
 11 36  1  0
 12 37  1  0
 12 38  1  0
 13 39  1  0
 13 40  1  0
 15 41  1  0
 15 42  1  0
 16 43  1  0
 16 44  1  0
 17 45  1  0
 20 46  1  0
 21 47  1  0
 22 48  1  0
 23 49  1  0
 24 50  1  0
M  CHG  1  11   1
M  END
>  <UniqueID>  (48) 
47

>  <SMILES>  (48) 
Cc1cccc2c(OCC[NH+]3CCOCC3)[nH]c(-c3ccccc3)c12

>  <Energy>  (48) 
104.97835305512153

>  <Genealogy>  (48) 
Cc1cccc2c(OCC[NH+]3CCOCC3)[nH]c(-c3ccccc3)c12 (protonated)
Cc1cccc2c(OCC[NH+]3CCOCC3)[nH]c(-c3ccccc3)c12 (3D coordinates assigned)
Cc1cccc2c(OCC[NH+]3CCOCC3)[nH]c(-c3ccccc3)c12 (nonaromatic ring conformer: 104.97835305512153 kcal/mol)

>  <smiles>  (48) 
Cc1cccc2c(OCCN3CCOCC3)[nH]c(-c3ccccc3)c12

>  <score_type>  (48) 
oracle

>  <origin>  (48) 
adg

>  <m_score__min__energy>  (48) 
-8.3300000000000001

>  <m_primary>  (48) 
energy

$$$$
