0:0
     RDKit          3D

 50 51  0  0  0  0  0  0  0  0999 V2000
   -9.4830   19.3620  -32.3580 C   0  0  0  0  0  0  0  0  0  0  0  0
   -8.1160   18.7750  -32.0120 C   0  0  0  0  0  0  0  0  0  0  0  0
   -7.0330   19.5980  -32.6130 N   0  0  0  0  0  0  0  0  0  0  0  0
   -5.7940   18.8120  -32.8280 C   0  0  0  0  0  0  0  0  0  0  0  0
   -5.5740   18.4660  -34.3000 C   0  0  0  0  0  0  0  0  0  0  0  0
   -6.7420   20.8090  -31.7990 C   0  0  0  0  0  0  0  0  0  0  0  0
   -7.2630   22.0810  -32.4900 C   0  0  0  0  0  0  0  0  0  0  0  0
   -7.5920   23.2340  -31.5360 C   0  0  0  0  0  0  0  0  0  0  0  0
   -7.0950   22.8440  -29.8230 S   0  0  0  0  0  0  0  0  0  0  0  0
   -5.4520   23.5380  -30.0220 C   0  0  0  0  0  0  0  0  0  0  0  0
   -5.1540   24.4820  -30.9340 N   0  0  0  0  0  0  0  0  0  0  0  0
   -3.8750   24.7860  -30.7670 N   0  0  0  0  0  0  0  0  0  0  0  0
   -3.4140   24.0230  -29.7560 C   0  0  0  0  0  0  0  0  0  0  0  0
   -2.0040   24.0850  -29.2480 C   0  0  0  0  0  0  0  0  0  0  0  0
   -1.6310   25.4620  -28.9280 N   0  0  0  0  0  0  0  0  0  0  0  0
   -1.3390   25.9420  -27.6020 C   0  0  0  0  0  0  0  0  0  0  0  0
   -0.4920   27.0470  -27.3780 C   0  0  0  0  0  0  0  0  0  0  0  0
   -0.2320   27.4850  -26.0760 C   0  0  0  0  0  0  0  0  0  0  0  0
   -0.8130   26.8320  -24.9860 C   0  0  0  0  0  0  0  0  0  0  0  0
   -1.6600   25.7420  -25.1960 C   0  0  0  0  0  0  0  0  0  0  0  0
   -1.9240   25.3010  -26.4960 C   0  0  0  0  0  0  0  0  0  0  0  0
   -4.3790   23.2110  -29.2770 N   0  0  0  0  0  0  0  0  0  0  0  0
   -4.3250   22.3230  -28.1190 C   0  0  0  0  0  0  0  0  0  0  0  0
  -10.0270   19.5956  -31.4309 H   0  0  0  0  0  0  0  0  0  0  0  0
   -9.3488   20.2818  -32.9461 H   0  0  0  0  0  0  0  0  0  0  0  0
  -10.0576   18.6313  -32.9461 H   0  0  0  0  0  0  0  0  0  0  0  0
   -7.9946   18.7581  -30.9188 H   0  0  0  0  0  0  0  0  0  0  0  0
   -8.0535   17.7531  -32.4143 H   0  0  0  0  0  0  0  0  0  0  0  0
   -4.9357   19.4001  -32.4709 H   0  0  0  0  0  0  0  0  0  0  0  0
   -5.8939   17.8681  -32.2721 H   0  0  0  0  0  0  0  0  0  0  0  0
   -4.9852   17.5399  -34.3749 H   0  0  0  0  0  0  0  0  0  0  0  0
   -6.5471   18.3226  -34.7924 H   0  0  0  0  0  0  0  0  0  0  0  0
   -5.0313   19.2864  -34.7924 H   0  0  0  0  0  0  0  0  0  0  0  0
   -7.2296   20.7079  -30.8182 H   0  0  0  0  0  0  0  0  0  0  0  0
   -5.6518   20.8971  -31.6824 H   0  0  0  0  0  0  0  0  0  0  0  0
   -6.4939   22.4280  -33.1957 H   0  0  0  0  0  0  0  0  0  0  0  0
   -8.2066   21.8045  -32.9832 H   0  0  0  0  0  0  0  0  0  0  0  0
   -7.0570   24.1363  -31.8672 H   0  0  0  0  0  0  0  0  0  0  0  0
   -8.6797   23.3970  -31.5522 H   0  0  0  0  0  0  0  0  0  0  0  0
   -1.9192   23.4678  -28.3415 H   0  0  0  0  0  0  0  0  0  0  0  0
   -1.3289   23.7080  -30.0304 H   0  0  0  0  0  0  0  0  0  0  0  0
   -1.6080   26.1470  -29.7180 H   0  0  0  0  0  0  0  0  0  0  0  0
   -0.0335   27.5670  -28.2320 H   0  0  0  0  0  0  0  0  0  0  0  0
    0.4318   28.3461  -25.9093 H   0  0  0  0  0  0  0  0  0  0  0  0
   -0.6032   27.1765  -23.9626 H   0  0  0  0  0  0  0  0  0  0  0  0
   -2.1199   25.2300  -24.3379 H   0  0  0  0  0  0  0  0  0  0  0  0
   -2.5957   24.4445  -26.6550 H   0  0  0  0  0  0  0  0  0  0  0  0
   -4.3614   22.9209  -27.1964 H   0  0  0  0  0  0  0  0  0  0  0  0
   -5.1830   21.6351  -28.1441 H   0  0  0  0  0  0  0  0  0  0  0  0
   -3.3900   21.7441  -28.1441 H   0  0  0  0  0  0  0  0  0  0  0  0
  1  2  1  0
  2  3  1  0
  3  4  1  0
  4  5  1  0
  3  6  1  0
  6  7  1  0
  7  8  1  0
  8  9  1  0
  9 10  1  0
 10 11  2  0
 11 12  1  0
 12 13  2  0
 13 14  1  0
 14 15  1  0
 15 16  1  0
 16 17  2  0
 17 18  1  0
 18 19  2  0
 19 20  1  0
 20 21  2  0
 13 22  1  0
 22 23  1  0
 22 10  1  0
 21 16  1  0
  1 24  1  0
  1 25  1  0
  1 26  1  0
  2 27  1  0
  2 28  1  0
  4 29  1  0
  4 30  1  0
  5 31  1  0
  5 32  1  0
  5 33  1  0
  6 34  1  0
  6 35  1  0
  7 36  1  0
  7 37  1  0
  8 38  1  0
  8 39  1  0
 14 40  1  0
 14 41  1  0
 15 42  1  0
 17 43  1  0
 18 44  1  0
 19 45  1  0
 20 46  1  0
 21 47  1  0
 23 48  1  0
 23 49  1  0
 23 50  1  0
M  END
>  <UniqueID>  (1) 
1

>  <SMILES>  (1) 
CCN(CC)CCCSc1nnc(CNc2ccccc2)n1C

>  <Energy>  (1) 
77.22500137131748

>  <Genealogy>  (1) 
CCN(CC)CCCSc1nnc(CNc2ccccc2)n1C (3D coordinates assigned)
CCN(CC)CCCSc1nnc(CNc2ccccc2)n1C (optimized conformer: 77.22500137131748 kcal/mol)

>  <smiles>  (1) 
CCN(CC)CCCSc1nnc(CNc2ccccc2)n1C

>  <score_type>  (1) 
oracle

>  <origin>  (1) 
adg

>  <m_score__min__energy>  (1) 
-8.3599999999999994

>  <m_primary>  (1) 
energy

$$$$
1:0
     RDKit          3D

 57 58  0  0  0  0  0  0  0  0999 V2000
   -6.3881   23.4891  -33.3584 H   0  0  0  0  0  0  0  0  0  0  0  0
   -6.4860   23.1950  -32.3030 C   0  0  0  0  0  0  0  0  0  0  0  0
   -5.3470   22.9270  -31.6310 C   0  0  0  0  0  0  0  0  0  0  0  0
   -4.5470   21.7630  -32.0840 C   0  0  0  0  0  0  0  0  0  0  0  0
   -3.5920   21.9120  -33.1020 C   0  0  0  0  0  0  0  0  0  0  0  0
   -3.4262   22.8997  -33.5570 H   0  0  0  0  0  0  0  0  0  0  0  0
   -2.8510   20.8110  -33.5400 C   0  0  0  0  0  0  0  0  0  0  0  0
   -2.0989   20.9349  -34.3331 H   0  0  0  0  0  0  0  0  0  0  0  0
   -3.0650   19.5530  -32.9710 C   0  0  0  0  0  0  0  0  0  0  0  0
   -2.4766   18.6884  -33.3119 H   0  0  0  0  0  0  0  0  0  0  0  0
   -4.0270   19.3920  -31.9680 C   0  0  0  0  0  0  0  0  0  0  0  0
   -4.1985   18.3999  -31.5248 H   0  0  0  0  0  0  0  0  0  0  0  0
   -4.7700   20.4910  -31.5290 C   0  0  0  0  0  0  0  0  0  0  0  0
   -5.5319   20.3603  -30.7465 H   0  0  0  0  0  0  0  0  0  0  0  0
   -4.8840   23.7340  -30.4210 C   0  0  2  0  0  0  0  0  0  0  0  0
   -5.7265   23.8213  -29.7191 H   0  0  0  0  0  0  0  0  0  0  0  0
   -4.4640   25.0270  -30.8300 O   0  0  0  0  0  0  0  0  0  0  0  0
   -5.4230   26.0190  -30.5070 C   0  0  0  0  0  0  0  0  0  0  0  0
   -4.9141   26.8807  -30.0504 H   0  0  0  0  0  0  0  0  0  0  0  0
   -5.9395   26.3306  -31.4269 H   0  0  0  0  0  0  0  0  0  0  0  0
   -6.4490   25.4630  -29.5260 C   0  0  0  0  0  0  0  0  0  0  0  0
   -6.1090   25.6472  -28.4962 H   0  0  0  0  0  0  0  0  0  0  0  0
   -7.4171   25.9599  -29.6870 H   0  0  0  0  0  0  0  0  0  0  0  0
   -6.5612   24.3806  -29.6870 H   0  0  0  0  0  0  0  0  0  0  0  0
   -3.7240   23.0360  -29.7400 C   0  0  0  0  0  0  0  0  0  0  0  0
   -3.9400   22.2510  -28.5910 C   0  0  0  0  0  0  0  0  0  0  0  0
   -4.9588   22.1318  -28.1937 H   0  0  0  0  0  0  0  0  0  0  0  0
   -2.8680   21.6230  -27.9530 C   0  0  0  0  0  0  0  0  0  0  0  0
   -3.0469   21.0022  -27.0627 H   0  0  0  0  0  0  0  0  0  0  0  0
   -1.5700   21.7810  -28.4420 C   0  0  0  0  0  0  0  0  0  0  0  0
   -0.7286   21.2795  -27.9414 H   0  0  0  0  0  0  0  0  0  0  0  0
   -1.3400   22.5760  -29.5670 C   0  0  0  0  0  0  0  0  0  0  0  0
   -0.3162   22.7053  -29.9480 H   0  0  0  0  0  0  0  0  0  0  0  0
   -2.4090   23.2080  -30.2100 C   0  0  0  0  0  0  0  0  0  0  0  0
   -2.2208   23.8432  -31.0881 H   0  0  0  0  0  0  0  0  0  0  0  0
   -7.8810   23.1270  -31.7350 C   0  0  0  0  0  0  0  0  0  0  0  0
   -8.6065   23.3092  -32.5415 H   0  0  0  0  0  0  0  0  0  0  0  0
   -7.9759   23.8912  -30.9495 H   0  0  0  0  0  0  0  0  0  0  0  0
   -8.1580   21.7520  -31.1130 C   0  0  0  0  0  0  0  0  0  0  0  0
   -8.3590   21.8842  -30.0396 H   0  0  0  0  0  0  0  0  0  0  0  0
   -7.2719   21.1228  -31.2835 H   0  0  0  0  0  0  0  0  0  0  0  0
   -9.3640   21.0470  -31.7580 C   0  0  0  0  0  0  0  0  0  0  0  0
   -9.9292   21.7821  -32.3498 H   0  0  0  0  0  0  0  0  0  0  0  0
   -9.9799   20.6246  -30.9504 H   0  0  0  0  0  0  0  0  0  0  0  0
   -8.9360   19.8890  -32.6820 C   0  0  0  0  0  0  0  0  0  0  0  0
   -8.4088   20.3117  -33.5499 H   0  0  0  0  0  0  0  0  0  0  0  0
   -9.8498   19.3505  -32.9734 H   0  0  0  0  0  0  0  0  0  0  0  0
   -8.0080   18.8720  -31.9950 C   0  0  0  0  0  0  0  0  0  0  0  0
   -8.6277   18.1336  -31.4651 H   0  0  0  0  0  0  0  0  0  0  0  0
   -7.3582   19.4313  -31.3059 H   0  0  0  0  0  0  0  0  0  0  0  0
   -7.0990   18.1290  -32.9840 C   0  0  0  0  0  0  0  0  0  0  0  0
   -7.6968   17.3874  -33.5340 H   0  0  0  0  0  0  0  0  0  0  0  0
   -6.2962   17.6347  -32.4173 H   0  0  0  0  0  0  0  0  0  0  0  0
   -6.4650   19.0960  -33.9800 C   0  0  0  0  0  0  0  0  0  0  0  0
   -5.9416   19.8944  -33.4335 H   0  0  0  0  0  0  0  0  0  0  0  0
   -5.7471   18.5529  -34.6122 H   0  0  0  0  0  0  0  0  0  0  0  0
   -7.2493   19.5378  -34.6122 H   0  0  0  0  0  0  0  0  0  0  0  0
  1  2  1  0
  2  3  2  0
  3  4  1  0
  4  5  2  0
  5  6  1  0
  5  7  1  0
  7  8  1  0
  7  9  2  0
  9 10  1  0
  9 11  1  0
 11 12  1  0
 11 13  2  0
 13 14  1  0
  3 15  1  0
 15 16  1  1
 15 17  1  0
 17 18  1  0
 18 19  1  0
 18 20  1  0
 18 21  1  0
 21 22  1  0
 21 23  1  0
 21 24  1  0
 15 25  1  0
 25 26  2  0
 26 27  1  0
 26 28  1  0
 28 29  1  0
 28 30  2  0
 30 31  1  0
 30 32  1  0
 32 33  1  0
 32 34  2  0
 34 35  1  0
  2 36  1  0
 36 37  1  0
 36 38  1  0
 36 39  1  0
 39 40  1  0
 39 41  1  0
 39 42  1  0
 42 43  1  0
 42 44  1  0
 42 45  1  0
 45 46  1  0
 45 47  1  0
 45 48  1  0
 48 49  1  0
 48 50  1  0
 48 51  1  0
 51 52  1  0
 51 53  1  0
 51 54  1  0
 54 55  1  0
 54 56  1  0
 54 57  1  0
 13  4  1  0
 34 25  1  0
M  END
>  <UniqueID>  (2) 
2

>  <SMILES>  (2) 
CCCCCCC/C=C(/c1ccccc1)[C@H](OCC)c1ccccc1

>  <Energy>  (2) 
53.39988774970914

>  <Genealogy>  (2) 
CCCCCCCC=C(c1ccccc1)[C@H](OCC)c1ccccc1 (chirality)
CCCCCCC/C=C(/c1ccccc1)[C@H](OCC)c1ccccc1 (cis-trans isomerization)
CCCCCCC/C=C(/c1ccccc1)[C@H](OCC)c1ccccc1 (3D coordinates assigned)
CCCCCCC/C=C(/c1ccccc1)[C@H](OCC)c1ccccc1 (optimized conformer: 53.39988774970914 kcal/mol)

>  <smiles>  (2) 
CCCCCCCC=C(c1ccccc1)C(OCC)c1ccccc1

>  <score_type>  (2) 
oracle

>  <origin>  (2) 
adg

>  <m_score__min__energy>  (2) 
-8.4199999999999999

>  <m_primary>  (2) 
energy

$$$$
2:0
     RDKit          3D

 49 50  0  0  0  0  0  0  0  0999 V2000
  -10.1210   20.7369  -33.0659 H   0  0  0  0  0  0  0  0  0  0  0  0
   -9.2310   20.4300  -32.4970 C   0  0  0  0  0  0  0  0  0  0  0  0
   -8.3070   21.2960  -32.2160 N   0  0  0  0  0  0  0  0  0  0  0  0
   -8.3550   22.1820  -31.0900 C   0  0  0  0  0  0  0  0  0  0  0  0
   -9.0730   21.9060  -30.0890 O   0  0  0  0  0  0  0  0  0  0  0  0
   -7.5570   23.4620  -31.1320 C   0  0  1  0  0  0  0  0  0  0  0  0
   -8.3166   24.2105  -31.4017 H   0  0  0  0  0  0  0  0  0  0  0  0
   -6.8430   23.7580  -29.7900 C   0  0  2  0  0  0  0  0  0  0  0  0
   -7.4616   23.4851  -28.9223 H   0  0  0  0  0  0  0  0  0  0  0  0
   -6.4100   25.2360  -29.7950 C   0  0  0  0  0  0  0  0  0  0  0  0
   -6.0524   25.5480  -28.8026 H   0  0  0  0  0  0  0  0  0  0  0  0
   -7.2278   25.9298  -30.0397 H   0  0  0  0  0  0  0  0  0  0  0  0
   -5.2670   25.2500  -30.8270 C   0  0  0  0  0  0  0  0  0  0  0  0
   -4.3268   25.5948  -30.3719 H   0  0  0  0  0  0  0  0  0  0  0  0
   -5.4505   25.9324  -31.6700 H   0  0  0  0  0  0  0  0  0  0  0  0
   -5.1690   23.7720  -31.2500 C   0  0  1  0  0  0  0  0  0  0  0  0
   -4.2134   23.5393  -31.7426 H   0  0  0  0  0  0  0  0  0  0  0  0
   -5.5080   23.0620  -29.9620 C   0  0  0  0  0  0  0  0  0  0  0  0
   -4.7997   23.2814  -29.1495 H   0  0  0  0  0  0  0  0  0  0  0  0
   -5.4959   21.9621  -29.9608 H   0  0  0  0  0  0  0  0  0  0  0  0
   -6.3810   23.4220  -32.1340 C   0  0  0  0  0  0  0  0  0  0  0  0
   -6.2722   22.4214  -32.5778 H   0  0  0  0  0  0  0  0  0  0  0  0
   -6.5109   24.1053  -32.9862 H   0  0  0  0  0  0  0  0  0  0  0  0
   -9.0810   19.0120  -32.0440 C   0  0  0  0  0  0  0  0  0  0  0  0
  -10.0165   18.4684  -32.2422 H   0  0  0  0  0  0  0  0  0  0  0  0
   -8.8578   19.0058  -30.9669 H   0  0  0  0  0  0  0  0  0  0  0  0
   -8.0200   18.3780  -32.7330 O   0  0  0  0  0  0  0  0  0  0  0  0
   -7.1430   17.7200  -31.8350 C   0  0  0  0  0  0  0  0  0  0  0  0
   -7.1221   16.6452  -32.0683 H   0  0  0  0  0  0  0  0  0  0  0  0
   -7.5001   17.8718  -30.8057 H   0  0  0  0  0  0  0  0  0  0  0  0
   -5.7220   18.2980  -31.9670 C   0  0  0  0  0  0  0  0  0  0  0  0
   -5.0859   17.5567  -32.4728 H   0  0  0  0  0  0  0  0  0  0  0  0
   -5.3580   18.5212  -30.9533 H   0  0  0  0  0  0  0  0  0  0  0  0
   -5.6890   19.5660  -32.7470 N   0  0  0  0  0  0  0  0  0  0  0  0
   -6.6210   20.0340  -32.6400 H   0  0  0  0  0  0  0  0  0  0  0  0
   -4.6590   20.4950  -32.2090 C   0  0  0  0  0  0  0  0  0  0  0  0
   -3.9492   19.9161  -31.5998 H   0  0  0  0  0  0  0  0  0  0  0  0
   -5.1834   21.2585  -31.6156 H   0  0  0  0  0  0  0  0  0  0  0  0
   -3.8770   21.2260  -33.3070 C   0  0  0  0  0  0  0  0  0  0  0  0
   -3.1475   21.9079  -32.8456 H   0  0  0  0  0  0  0  0  0  0  0  0
   -3.3479   20.4911  -33.9315 H   0  0  0  0  0  0  0  0  0  0  0  0
   -4.5746   21.8034  -33.9315 H   0  0  0  0  0  0  0  0  0  0  0  0
   -5.5360   19.2940  -34.2020 C   0  0  0  0  0  0  0  0  0  0  0  0
   -6.4438   19.6449  -34.7146 H   0  0  0  0  0  0  0  0  0  0  0  0
   -4.6278   19.8235  -34.5258 H   0  0  0  0  0  0  0  0  0  0  0  0
   -5.3280   17.8130  -34.5540 C   0  0  0  0  0  0  0  0  0  0  0  0
   -5.2453   17.2243  -33.6285 H   0  0  0  0  0  0  0  0  0  0  0  0
   -6.1843   17.4523  -35.1428 H   0  0  0  0  0  0  0  0  0  0  0  0
   -4.4055   17.7021  -35.1428 H   0  0  0  0  0  0  0  0  0  0  0  0
  1  2  1  0
  2  3  2  0
  3  4  1  0
  4  5  2  0
  4  6  1  0
  6  7  1  6
  6  8  1  0
  8  9  1  1
  8 10  1  0
 10 11  1  0
 10 12  1  0
 10 13  1  0
 13 14  1  0
 13 15  1  0
 13 16  1  0
 16 17  1  6
 16 18  1  0
 18 19  1  0
 18 20  1  0
 16 21  1  0
 21 22  1  0
 21 23  1  0
  2 24  1  0
 24 25  1  0
 24 26  1  0
 24 27  1  0
 27 28  1  0
 28 29  1  0
 28 30  1  0
 28 31  1  0
 31 32  1  0
 31 33  1  0
 31 34  1  0
 34 35  1  0
 34 36  1  0
 36 37  1  0
 36 38  1  0
 36 39  1  0
 39 40  1  0
 39 41  1  0
 39 42  1  0
 34 43  1  0
 43 44  1  0
 43 45  1  0
 43 46  1  0
 46 47  1  0
 46 48  1  0
 46 49  1  0
 21  6  1  0
 18  8  1  0
M  CHG  1  34   1
M  END
>  <UniqueID>  (3) 
3

>  <SMILES>  (3) 
CC[NH+](CC)CCOC/C=N/C(=O)[C@@H]1C[C@H]2CCC1C2

>  <Energy>  (3) 
74.48799199886108

>  <Genealogy>  (3) 
CC[NH+](CC)CCOCC=NC(=O)C1CC2CCC1C2 (protonated)
CC[NH+](CC)CCOCC=NC(=O)[C@@H]1C[C@H]2CCC1C2 (chirality)
CC[NH+](CC)CCOC/C=N/C(=O)[C@@H]1C[C@H]2CCC1C2 (cis-trans isomerization)
CC[NH+](CC)CCOC/C=N/C(=O)[C@@H]1C[C@H]2CCC1C2 (3D coordinates assigned)
CC[NH+](CC)CCOC/C=N/C(=O)[C@@H]1C[C@H]2CCC1C2 (nonaromatic ring conformer: 74.48799199886108 kcal/mol)

>  <smiles>  (3) 
CCN(CC)CCOCC=NC(=O)C1CC2CCC1C2

>  <score_type>  (3) 
oracle

>  <origin>  (3) 
adg

>  <m_score__min__energy>  (3) 
-6.1600000000000001

>  <m_primary>  (3) 
energy

$$$$
3:0
     RDKit          3D

 59 63  0  0  0  0  0  0  0  0999 V2000
   -6.7940   25.2570  -29.7490 C   0  0  0  0  0  0  0  0  0  0  0  0
   -5.2960   24.9510  -29.6500 C   0  0  0  0  0  0  0  0  0  0  0  0
   -4.9660   23.5940  -29.1400 N   0  0  2  0  0  0  0  0  0  0  0  0
   -3.8790   23.6110  -28.1430 C   0  0  0  0  0  0  0  0  0  0  0  0
   -4.8220   22.5640  -30.2090 C   0  0  0  0  0  0  0  0  0  0  0  0
   -4.1200   23.0290  -31.5080 C   0  0  0  0  0  0  0  0  0  0  0  0
   -4.7100   22.4050  -32.6990 N   0  0  0  0  0  0  0  0  0  0  0  0
   -5.6230   21.2960  -32.6120 C   0  0  0  0  0  0  0  0  0  0  0  0
   -5.1650   19.9920  -32.8660 C   0  0  0  0  0  0  0  0  0  0  0  0
   -6.0140   18.8940  -32.5730 C   0  0  0  0  0  0  0  0  0  0  0  0
   -7.3460   19.0960  -32.2810 N   0  0  0  0  0  0  0  0  0  0  0  0
   -8.2970   17.9650  -32.3410 C   0  0  0  0  0  0  0  0  0  0  0  0
   -7.8120   20.3720  -32.0300 C   0  0  0  0  0  0  0  0  0  0  0  0
   -9.1330   20.6030  -31.5670 C   0  0  0  0  0  0  0  0  0  0  0  0
   -9.6190   21.8990  -31.3940 C   0  0  0  0  0  0  0  0  0  0  0  0
   -8.8090   22.9920  -31.6790 C   0  0  0  0  0  0  0  0  0  0  0  0
   -7.4960   22.7970  -32.0980 C   0  0  0  0  0  0  0  0  0  0  0  0
   -6.9660   21.4950  -32.2340 C   0  0  0  0  0  0  0  0  0  0  0  0
   -5.3920   17.5450  -32.6430 C   0  0  0  0  0  0  0  0  0  0  0  0
   -5.7120   16.4510  -31.9080 N   0  0  0  0  0  0  0  0  0  0  0  0
   -4.7640   15.5370  -32.1970 C   0  0  0  0  0  0  0  0  0  0  0  0
   -4.6410   14.2530  -31.6690 C   0  0  0  0  0  0  0  0  0  0  0  0
   -3.5380   13.4770  -32.0720 C   0  0  0  0  0  0  0  0  0  0  0  0
   -2.5850   14.0010  -32.9750 C   0  0  0  0  0  0  0  0  0  0  0  0
   -2.7250   15.3060  -33.4820 C   0  0  0  0  0  0  0  0  0  0  0  0
   -3.8340   16.0430  -33.0750 C   0  0  0  0  0  0  0  0  0  0  0  0
   -4.2240   17.3350  -33.3440 C   0  0  0  0  0  0  0  0  0  0  0  0
   -3.5380   18.4220  -34.0990 C   0  0  0  0  0  0  0  0  0  0  0  0
   -3.7290   19.7560  -33.3500 C   0  0  0  0  0  0  0  0  0  0  0  0
   -7.2182   25.3436  -28.7378 H   0  0  0  0  0  0  0  0  0  0  0  0
   -6.9399   26.2035  -30.2902 H   0  0  0  0  0  0  0  0  0  0  0  0
   -7.2994   24.4436  -30.2902 H   0  0  0  0  0  0  0  0  0  0  0  0
   -4.8592   25.0540  -30.6543 H   0  0  0  0  0  0  0  0  0  0  0  0
   -4.8835   25.6633  -28.9202 H   0  0  0  0  0  0  0  0  0  0  0  0
   -5.8180   23.3080  -28.5990 H   0  0  0  0  0  0  0  0  0  0  0  0
   -4.3097   23.6043  -27.1308 H   0  0  0  0  0  0  0  0  0  0  0  0
   -3.2443   22.7227  -28.2773 H   0  0  0  0  0  0  0  0  0  0  0  0
   -3.2724   24.5187  -28.2773 H   0  0  0  0  0  0  0  0  0  0  0  0
   -4.2418   21.7267  -29.7939 H   0  0  0  0  0  0  0  0  0  0  0  0
   -5.8475   22.2975  -30.5047 H   0  0  0  0  0  0  0  0  0  0  0  0
   -4.2163   24.1214  -31.5935 H   0  0  0  0  0  0  0  0  0  0  0  0
   -3.0632   22.7289  -31.4523 H   0  0  0  0  0  0  0  0  0  0  0  0
   -4.4740   22.7910  -33.6400 H   0  0  0  0  0  0  0  0  0  0  0  0
   -8.5599   17.6524  -31.3196 H   0  0  0  0  0  0  0  0  0  0  0  0
   -9.2067   18.2787  -32.8740 H   0  0  0  0  0  0  0  0  0  0  0  0
   -7.8318   17.1227  -32.8740 H   0  0  0  0  0  0  0  0  0  0  0  0
   -9.7846   19.7461  -31.3408 H   0  0  0  0  0  0  0  0  0  0  0  0
  -10.6455   22.0564  -31.0312 H   0  0  0  0  0  0  0  0  0  0  0  0
   -9.2061   24.0124  -31.5733 H   0  0  0  0  0  0  0  0  0  0  0  0
   -6.8635   23.6676  -32.3260 H   0  0  0  0  0  0  0  0  0  0  0  0
   -6.4730   16.3480  -31.2020 H   0  0  0  0  0  0  0  0  0  0  0  0
   -5.3830   13.8583  -30.9593 H   0  0  0  0  0  0  0  0  0  0  0  0
   -3.4168   12.4558  -31.6816 H   0  0  0  0  0  0  0  0  0  0  0  0
   -1.7280   13.3842  -33.2835 H   0  0  0  0  0  0  0  0  0  0  0  0
   -1.9839   15.7294  -34.1759 H   0  0  0  0  0  0  0  0  0  0  0  0
   -2.4647   18.1946  -34.1781 H   0  0  0  0  0  0  0  0  0  0  0  0
   -3.9677   18.4995  -35.1086 H   0  0  0  0  0  0  0  0  0  0  0  0
   -3.0625   19.7613  -32.4750 H   0  0  0  0  0  0  0  0  0  0  0  0
   -3.4938   20.5607  -34.0622 H   0  0  0  0  0  0  0  0  0  0  0  0
  1  2  1  0
  2  3  1  0
  3  4  1  0
  3  5  1  0
  5  6  1  0
  6  7  1  0
  7  8  1  0
  8  9  2  0
  9 10  1  0
 10 11  2  0
 11 12  1  0
 11 13  1  0
 13 14  2  0
 14 15  1  0
 15 16  2  0
 16 17  1  0
 17 18  2  0
 10 19  1  0
 19 20  1  0
 20 21  1  0
 21 22  2  0
 22 23  1  0
 23 24  2  0
 24 25  1  0
 25 26  2  0
 26 27  1  0
 27 28  1  0
 28 29  1  0
 18  8  1  0
 27 19  2  0
 29  9  1  0
 18 13  1  0
 26 21  1  0
  1 30  1  0
  1 31  1  0
  1 32  1  0
  2 33  1  0
  2 34  1  0
  3 35  1  1
  4 36  1  0
  4 37  1  0
  4 38  1  0
  5 39  1  0
  5 40  1  0
  6 41  1  0
  6 42  1  0
  7 43  1  0
 12 44  1  0
 12 45  1  0
 12 46  1  0
 14 47  1  0
 15 48  1  0
 16 49  1  0
 17 50  1  0
 20 51  1  0
 22 52  1  0
 23 53  1  0
 24 54  1  0
 25 55  1  0
 28 56  1  0
 28 57  1  0
 29 58  1  0
 29 59  1  0
M  CHG  2   3   1  11   1
M  END
>  <UniqueID>  (4) 
4

>  <SMILES>  (4) 
CC[N@H+](C)CCNc1c2c([n+](C)c3ccccc13)-c1[nH]c3ccccc3c1CC2

>  <Energy>  (4) 
135.87426620473582

>  <Genealogy>  (4) 
CC[NH+](C)CCNc1c2c([n+](C)c3ccccc13)-c1[nH]c3ccccc3c1CC2 (protonated)
CC[N@H+](C)CCNc1c2c([n+](C)c3ccccc13)-c1[nH]c3ccccc3c1CC2 (chirality)
CC[N@H+](C)CCNc1c2c([n+](C)c3ccccc13)-c1[nH]c3ccccc3c1CC2 (3D coordinates assigned)
CC[N@H+](C)CCNc1c2c([n+](C)c3ccccc13)-c1[nH]c3ccccc3c1CC2 (nonaromatic ring conformer: 135.87426620473582 kcal/mol)

>  <smiles>  (4) 
CCN(C)CCNc1c2c([n+](C)c3ccccc13)-c1[nH]c3ccccc3c1CC2

>  <score_type>  (4) 
oracle

>  <origin>  (4) 
adg

>  <m_score__min__energy>  (4) 
-7.9100000000000001

>  <m_primary>  (4) 
energy

$$$$
4:0
     RDKit          3D

 53 55  0  0  0  0  0  0  0  0999 V2000
   -2.0830   25.0860  -26.9630 C   0  0  0  0  0  0  0  0  0  0  0  0
   -1.3770   25.2640  -28.2980 C   0  0  0  0  0  0  0  0  0  0  0  0
   -2.3400   25.2910  -29.3320 O   0  0  0  0  0  0  0  0  0  0  0  0
   -3.4070   24.4070  -29.0380 C   0  0  0  0  0  0  0  0  0  0  0  0
   -4.5780   24.6490  -29.9880 C   0  0  0  0  0  0  0  0  0  0  0  0
   -4.3260   23.9780  -31.2040 O   0  0  0  0  0  0  0  0  0  0  0  0
   -4.1520   22.5900  -30.9870 C   0  0  0  0  0  0  0  0  0  0  0  0
   -3.4960   21.9240  -32.1990 C   0  0  0  0  0  0  0  0  0  0  0  0
   -4.4820   21.6130  -33.2390 N   0  0  0  0  0  0  0  0  0  0  0  0
   -5.6320   20.7890  -32.9740 C   0  0  0  0  0  0  0  0  0  0  0  0
   -6.8290   21.4010  -32.5630 C   0  0  0  0  0  0  0  0  0  0  0  0
   -6.9610   22.8070  -32.5690 C   0  0  0  0  0  0  0  0  0  0  0  0
   -8.1140   23.4180  -32.0850 C   0  0  0  0  0  0  0  0  0  0  0  0
   -9.1500   22.6430  -31.5790 C   0  0  0  0  0  0  0  0  0  0  0  0
   -9.0560   21.2530  -31.5890 C   0  0  0  0  0  0  0  0  0  0  0  0
   -7.9130   20.5990  -32.1200 C   0  0  0  0  0  0  0  0  0  0  0  0
   -7.8300   19.2210  -32.1890 N   0  0  0  0  0  0  0  0  0  0  0  0
   -9.0440   18.3990  -31.9770 C   0  0  0  0  0  0  0  0  0  0  0  0
   -6.6290   18.6110  -32.5050 C   0  0  0  0  0  0  0  0  0  0  0  0
   -6.4470   17.2160  -32.3380 C   0  0  0  0  0  0  0  0  0  0  0  0
   -5.2820   16.5870  -32.7580 C   0  0  0  0  0  0  0  0  0  0  0  0
   -4.2750   17.3180  -33.3700 C   0  0  0  0  0  0  0  0  0  0  0  0
   -4.3910   18.7100  -33.5190 C   0  0  0  0  0  0  0  0  0  0  0  0
   -3.4030   19.4360  -34.2070 O   0  0  0  0  0  0  0  0  0  0  0  0
   -2.0070   19.3870  -33.9310 C   0  0  0  0  0  0  0  0  0  0  0  0
   -5.5360   19.3790  -32.9990 C   0  0  0  0  0  0  0  0  0  0  0  0
   -1.3704   25.2657  -26.1445 H   0  0  0  0  0  0  0  0  0  0  0  0
   -2.9142   25.8027  -26.8894 H   0  0  0  0  0  0  0  0  0  0  0  0
   -2.4751   24.0609  -26.8894 H   0  0  0  0  0  0  0  0  0  0  0  0
   -0.8148   26.2094  -28.2939 H   0  0  0  0  0  0  0  0  0  0  0  0
   -0.6808   24.4284  -28.4626 H   0  0  0  0  0  0  0  0  0  0  0  0
   -3.0589   23.3695  -29.1492 H   0  0  0  0  0  0  0  0  0  0  0  0
   -3.7430   24.5852  -28.0058 H   0  0  0  0  0  0  0  0  0  0  0  0
   -5.5045   24.2627  -29.5381 H   0  0  0  0  0  0  0  0  0  0  0  0
   -4.6908   25.7273  -30.1736 H   0  0  0  0  0  0  0  0  0  0  0  0
   -3.5124   22.4412  -30.1046 H   0  0  0  0  0  0  0  0  0  0  0  0
   -5.1400   22.1333  -30.8279 H   0  0  0  0  0  0  0  0  0  0  0  0
   -2.7395   22.6053  -32.6156 H   0  0  0  0  0  0  0  0  0  0  0  0
   -3.0340   20.9822  -31.8680 H   0  0  0  0  0  0  0  0  0  0  0  0
   -4.3650   22.0290  -34.1900 H   0  0  0  0  0  0  0  0  0  0  0  0
   -6.1418   23.4274  -32.9614 H   0  0  0  0  0  0  0  0  0  0  0  0
   -8.2049   24.5141  -32.1031 H   0  0  0  0  0  0  0  0  0  0  0  0
  -10.0478   23.1286  -31.1690 H   0  0  0  0  0  0  0  0  0  0  0  0
   -9.8810   20.6522  -31.1787 H   0  0  0  0  0  0  0  0  0  0  0  0
   -9.2216   18.2788  -30.8981 H   0  0  0  0  0  0  0  0  0  0  0  0
   -9.9095   18.8976  -32.4377 H   0  0  0  0  0  0  0  0  0  0  0  0
   -8.9024   17.4102  -32.4377 H   0  0  0  0  0  0  0  0  0  0  0  0
   -7.2428   16.6201  -31.8672 H   0  0  0  0  0  0  0  0  0  0  0  0
   -5.1577   15.5049  -32.6046 H   0  0  0  0  0  0  0  0  0  0  0  0
   -3.3771   16.8031  -33.7422 H   0  0  0  0  0  0  0  0  0  0  0  0
   -1.8484   19.3814  -32.8425 H   0  0  0  0  0  0  0  0  0  0  0  0
   -1.5786   18.4733  -34.3686 H   0  0  0  0  0  0  0  0  0  0  0  0
   -1.5155   20.2684  -34.3686 H   0  0  0  0  0  0  0  0  0  0  0  0
  1  2  1  0
  2  3  1  0
  3  4  1  0
  4  5  1  0
  5  6  1  0
  6  7  1  0
  7  8  1  0
  8  9  1  0
  9 10  1  0
 10 11  2  0
 11 12  1  0
 12 13  2  0
 13 14  1  0
 14 15  2  0
 15 16  1  0
 16 17  2  0
 17 18  1  0
 17 19  1  0
 19 20  2  0
 20 21  1  0
 21 22  2  0
 22 23  1  0
 23 24  1  0
 24 25  1  0
 23 26  2  0
 26 10  1  0
 16 11  1  0
 26 19  1  0
  1 27  1  0
  1 28  1  0
  1 29  1  0
  2 30  1  0
  2 31  1  0
  4 32  1  0
  4 33  1  0
  5 34  1  0
  5 35  1  0
  7 36  1  0
  7 37  1  0
  8 38  1  0
  8 39  1  0
  9 40  1  0
 12 41  1  0
 13 42  1  0
 14 43  1  0
 15 44  1  0
 18 45  1  0
 18 46  1  0
 18 47  1  0
 20 48  1  0
 21 49  1  0
 22 50  1  0
 25 51  1  0
 25 52  1  0
 25 53  1  0
M  CHG  1  17   1
M  END
>  <UniqueID>  (5) 
5

>  <SMILES>  (5) 
CCOCCOCCNc1c2ccccc2[n+](C)c2cccc(OC)c12

>  <Energy>  (5) 
81.55163266792454

>  <Genealogy>  (5) 
CCOCCOCCNc1c2ccccc2[n+](C)c2cccc(OC)c12 (3D coordinates assigned)
CCOCCOCCNc1c2ccccc2[n+](C)c2cccc(OC)c12 (optimized conformer: 81.55163266792454 kcal/mol)

>  <smiles>  (5) 
CCOCCOCCNc1c2ccccc2[n+](C)c2cccc(OC)c12

>  <score_type>  (5) 
oracle

>  <origin>  (5) 
adg

>  <m_score__min__energy>  (5) 
-8.3800000000000008

>  <m_primary>  (5) 
energy

$$$$
5:0
     RDKit          3D

 45 48  0  0  0  0  0  0  0  0999 V2000
   -9.8630   21.1850  -31.9670 C   0  0  0  0  0  0  0  0  0  0  0  0
   -8.6970   20.2640  -32.1650 C   0  0  0  0  0  0  0  0  0  0  0  0
   -8.7110   18.9670  -31.5910 C   0  0  0  0  0  0  0  0  0  0  0  0
   -7.6360   18.0810  -31.7940 C   0  0  0  0  0  0  0  0  0  0  0  0
   -6.5790   18.5170  -32.5940 C   0  0  0  0  0  0  0  0  0  0  0  0
   -6.5650   19.7600  -33.1540 C   0  0  0  0  0  0  0  0  0  0  0  0
   -7.6070   20.6640  -32.9700 C   0  0  0  0  0  0  0  0  0  0  0  0
   -5.4210   19.9600  -33.8310 N   0  0  0  0  0  0  0  0  0  0  0  0
   -4.7530   18.7880  -33.6640 C   0  0  0  0  0  0  0  0  0  0  0  0
   -3.3500   18.5970  -34.1650 C   0  0  0  0  0  0  0  0  0  0  0  0
   -2.5800   19.9210  -34.2180 C   0  0  0  0  0  0  0  0  0  0  0  0
   -2.8580   20.7700  -33.0050 C   0  0  0  0  0  0  0  0  0  0  0  0
   -3.8500   21.6820  -32.9590 N   0  0  0  0  0  0  0  0  0  0  0  0
   -3.8340   22.1690  -31.7010 C   0  0  0  0  0  0  0  0  0  0  0  0
   -4.7640   23.1940  -31.1790 C   0  0  0  0  0  0  0  0  0  0  0  0
   -6.1570   23.1450  -31.3630 C   0  0  0  0  0  0  0  0  0  0  0  0
   -6.8340   24.2110  -30.7880 C   0  0  0  0  0  0  0  0  0  0  0  0
   -5.7050   25.2130  -30.0550 S   0  0  0  0  0  0  0  0  0  0  0  0
   -4.3470   24.3090  -30.4550 C   0  0  0  0  0  0  0  0  0  0  0  0
   -2.8260   21.5370  -30.9940 C   0  0  0  0  0  0  0  0  0  0  0  0
   -2.2180   20.6630  -31.8180 N   0  0  0  0  0  0  0  0  0  0  0  0
   -1.1200   19.7670  -31.4640 C   0  0  0  0  0  0  0  0  0  0  0  0
   -5.4410   17.8780  -32.9180 N   0  0  0  0  0  0  0  0  0  0  0  0
   -4.9860   16.5820  -32.4180 C   0  0  0  0  0  0  0  0  0  0  0  0
  -10.0407   21.3254  -30.8906 H   0  0  0  0  0  0  0  0  0  0  0  0
   -9.6453   22.1575  -32.4326 H   0  0  0  0  0  0  0  0  0  0  0  0
  -10.7587   20.7479  -32.4326 H   0  0  0  0  0  0  0  0  0  0  0  0
   -9.5701   18.6504  -30.9814 H   0  0  0  0  0  0  0  0  0  0  0  0
   -7.6294   17.0800  -31.3380 H   0  0  0  0  0  0  0  0  0  0  0  0
   -7.5827   21.6596  -33.4371 H   0  0  0  0  0  0  0  0  0  0  0  0
   -2.8226   17.9050  -33.4920 H   0  0  0  0  0  0  0  0  0  0  0  0
   -3.4036   18.1912  -35.1860 H   0  0  0  0  0  0  0  0  0  0  0  0
   -1.5022   19.7061  -34.2645 H   0  0  0  0  0  0  0  0  0  0  0  0
   -2.9075   20.4754  -35.1098 H   0  0  0  0  0  0  0  0  0  0  0  0
   -4.4980   21.9340  -33.7370 H   0  0  0  0  0  0  0  0  0  0  0  0
   -6.6630   22.3369  -31.9116 H   0  0  0  0  0  0  0  0  0  0  0  0
   -7.9220   24.3714  -30.8090 H   0  0  0  0  0  0  0  0  0  0  0  0
   -3.3078   24.5548  -30.1909 H   0  0  0  0  0  0  0  0  0  0  0  0
   -2.5664   21.7176  -29.9405 H   0  0  0  0  0  0  0  0  0  0  0  0
   -1.0391   19.7010  -30.3690 H   0  0  0  0  0  0  0  0  0  0  0  0
   -1.3149   18.7668  -31.8782 H   0  0  0  0  0  0  0  0  0  0  0  0
   -0.1792   20.1585  -31.8782 H   0  0  0  0  0  0  0  0  0  0  0  0
   -4.9894   16.5916  -31.3180 H   0  0  0  0  0  0  0  0  0  0  0  0
   -5.6605   15.7920  -32.7798 H   0  0  0  0  0  0  0  0  0  0  0  0
   -3.9657   16.3871  -32.7798 H   0  0  0  0  0  0  0  0  0  0  0  0
  1  2  1  0
  2  3  2  0
  3  4  1  0
  4  5  2  0
  5  6  1  0
  6  7  2  0
  6  8  1  0
  8  9  2  0
  9 10  1  0
 10 11  1  0
 11 12  1  0
 12 13  2  0
 13 14  1  0
 14 15  1  0
 15 16  1  0
 16 17  2  0
 17 18  1  0
 18 19  1  0
 14 20  2  0
 20 21  1  0
 21 22  1  0
  9 23  1  0
 23 24  1  0
  7  2  1  0
 21 12  1  0
 23  5  1  0
 19 15  2  0
  1 25  1  0
  1 26  1  0
  1 27  1  0
  3 28  1  0
  4 29  1  0
  7 30  1  0
 10 31  1  0
 10 32  1  0
 11 33  1  0
 11 34  1  0
 13 35  1  0
 16 36  1  0
 17 37  1  0
 19 38  1  0
 20 39  1  0
 22 40  1  0
 22 41  1  0
 22 42  1  0
 24 43  1  0
 24 44  1  0
 24 45  1  0
M  CHG  1  13   1
M  END
>  <UniqueID>  (6) 
6

>  <SMILES>  (6) 
Cc1ccc2c(c1)nc(CCc1[nH+]c(-c3ccsc3)cn1C)n2C

>  <Energy>  (6) 
135.29867255348663

>  <Genealogy>  (6) 
Cc1ccc2c(c1)nc(CCc1[nH+]c(-c3ccsc3)cn1C)n2C (protonated)
Cc1ccc2c(c1)nc(CCc1[nH+]c(-c3ccsc3)cn1C)n2C (3D coordinates assigned)
Cc1ccc2c(c1)nc(CCc1[nH+]c(-c3ccsc3)cn1C)n2C (optimized conformer: 135.29867255348663 kcal/mol)

>  <smiles>  (6) 
Cc1ccc2c(c1)nc(CCc1nc(-c3ccsc3)cn1C)n2C

>  <score_type>  (6) 
oracle

>  <origin>  (6) 
adg

>  <m_score__min__energy>  (6) 
-7.6699999999999999

>  <m_primary>  (6) 
energy

$$$$
6:0
     RDKit          3D

 54 57  0  0  0  0  0  0  0  0999 V2000
   -6.4760   17.7570  -32.7400 C   0  0  0  0  0  0  0  0  0  0  0  0
   -7.3180   18.9490  -32.4150 C   0  0  0  0  0  0  0  0  0  0  0  0
   -6.7290   20.1120  -31.8990 C   0  0  0  0  0  0  0  0  0  0  0  0
   -7.5340   21.2190  -31.5800 C   0  0  0  0  0  0  0  0  0  0  0  0
   -6.9290   22.4600  -31.0370 C   0  0  0  0  0  0  0  0  0  0  0  0
   -7.4820   23.7280  -31.2240 C   0  0  0  0  0  0  0  0  0  0  0  0
   -6.4890   24.8430  -30.4550 S   0  0  0  0  0  0  0  0  0  0  0  0
   -5.3910   23.6900  -29.9080 C   0  0  0  0  0  0  0  0  0  0  0  0
   -4.1730   23.9800  -29.1100 C   0  0  0  0  0  0  0  0  0  0  0  0
   -2.9140   24.0440  -29.7340 C   0  0  0  0  0  0  0  0  0  0  0  0
   -1.7640   24.3200  -28.9890 C   0  0  0  0  0  0  0  0  0  0  0  0
   -1.8500   24.5330  -27.6060 C   0  0  0  0  0  0  0  0  0  0  0  0
   -0.6220   24.8800  -26.8130 C   0  0  0  0  0  0  0  0  0  0  0  0
    0.2880   23.7300  -26.7950 N   0  0  0  0  0  0  0  0  0  0  0  0
    0.1900   23.0090  -25.5220 C   0  0  0  0  0  0  0  0  0  0  0  0
   -0.8660   21.8820  -25.5870 C   0  0  0  0  0  0  0  0  0  0  0  0
   -1.1730   21.3520  -26.9390 N   0  0  0  0  0  0  0  0  0  0  0  0
   -0.2340   20.3290  -27.4220 C   0  0  0  0  0  0  0  0  0  0  0  0
   -0.9840   19.0050  -27.5330 C   0  0  0  0  0  0  0  0  0  0  0  0
   -2.4080   19.2930  -27.0960 C   0  0  0  0  0  0  0  0  0  0  0  0
   -2.5250   20.8070  -27.0950 C   0  0  0  0  0  0  0  0  0  0  0  0
   -3.1050   24.4910  -26.9820 C   0  0  0  0  0  0  0  0  0  0  0  0
   -4.2570   24.2150  -27.7260 C   0  0  0  0  0  0  0  0  0  0  0  0
   -5.7730   22.4530  -30.3100 N   0  0  0  0  0  0  0  0  0  0  0  0
   -8.9220   21.1240  -31.7810 C   0  0  0  0  0  0  0  0  0  0  0  0
   -9.4700   19.9460  -32.2920 C   0  0  0  0  0  0  0  0  0  0  0  0
   -8.6650   18.8940  -32.5930 N   0  0  0  0  0  0  0  0  0  0  0  0
   -6.1394   17.2805  -31.8074 H   0  0  0  0  0  0  0  0  0  0  0  0
   -7.0681   17.0386  -33.3259 H   0  0  0  0  0  0  0  0  0  0  0  0
   -5.6010   18.0749  -33.3259 H   0  0  0  0  0  0  0  0  0  0  0  0
   -5.6409   20.1579  -31.7444 H   0  0  0  0  0  0  0  0  0  0  0  0
   -8.4049   23.9565  -31.7772 H   0  0  0  0  0  0  0  0  0  0  0  0
   -2.8337   23.8753  -30.8180 H   0  0  0  0  0  0  0  0  0  0  0  0
   -0.7863   24.3703  -29.4905 H   0  0  0  0  0  0  0  0  0  0  0  0
   -0.1169   25.7403  -27.2765 H   0  0  0  0  0  0  0  0  0  0  0  0
   -0.9104   25.1362  -25.7829 H   0  0  0  0  0  0  0  0  0  0  0  0
   -0.0060   23.0750  -27.5580 H   0  0  0  0  0  0  0  0  0  0  0  0
    1.1693   22.5675  -25.2853 H   0  0  0  0  0  0  0  0  0  0  0  0
   -0.1166   23.7238  -24.7441 H   0  0  0  0  0  0  0  0  0  0  0  0
   -0.5026   21.0451  -24.9725 H   0  0  0  0  0  0  0  0  0  0  0  0
   -1.8023   22.3333  -25.2269 H   0  0  0  0  0  0  0  0  0  0  0  0
    0.1569   20.6189  -28.4085 H   0  0  0  0  0  0  0  0  0  0  0  0
    0.6101   20.2292  -26.7237 H   0  0  0  0  0  0  0  0  0  0  0  0
   -0.9688   18.6430  -28.5716 H   0  0  0  0  0  0  0  0  0  0  0  0
   -0.5209   18.2262  -26.9093 H   0  0  0  0  0  0  0  0  0  0  0  0
   -3.1254   18.8510  -27.8031 H   0  0  0  0  0  0  0  0  0  0  0  0
   -2.6303   18.8626  -26.1084 H   0  0  0  0  0  0  0  0  0  0  0  0
   -2.9616   21.1508  -28.0443 H   0  0  0  0  0  0  0  0  0  0  0  0
   -3.1766   21.1453  -26.2759 H   0  0  0  0  0  0  0  0  0  0  0  0
   -3.1841   24.6763  -25.9006 H   0  0  0  0  0  0  0  0  0  0  0  0
   -5.2357   24.1815  -27.2249 H   0  0  0  0  0  0  0  0  0  0  0  0
   -5.2160   21.5900  -30.1300 H   0  0  0  0  0  0  0  0  0  0  0  0
   -9.5744   21.9752  -31.5364 H   0  0  0  0  0  0  0  0  0  0  0  0
  -10.5557   19.8696  -32.4512 H   0  0  0  0  0  0  0  0  0  0  0  0
  1  2  1  0
  2  3  2  0
  3  4  1  0
  4  5  1  0
  5  6  2  0
  6  7  1  0
  7  8  1  0
  8  9  1  0
  9 10  2  0
 10 11  1  0
 11 12  2  0
 12 13  1  0
 13 14  1  0
 14 15  1  0
 15 16  1  0
 16 17  1  0
 17 18  1  0
 18 19  1  0
 19 20  1  0
 20 21  1  0
 12 22  1  0
 22 23  2  0
  8 24  2  0
  4 25  2  0
 25 26  1  0
 26 27  2  0
 27  2  1  0
 24  5  1  0
 23  9  1  0
 21 17  1  0
  1 28  1  0
  1 29  1  0
  1 30  1  0
  3 31  1  0
  6 32  1  0
 10 33  1  0
 11 34  1  0
 13 35  1  0
 13 36  1  0
 14 37  1  0
 15 38  1  0
 15 39  1  0
 16 40  1  0
 16 41  1  0
 18 42  1  0
 18 43  1  0
 19 44  1  0
 19 45  1  0
 20 46  1  0
 20 47  1  0
 21 48  1  0
 21 49  1  0
 22 50  1  0
 23 51  1  0
 24 52  1  0
 25 53  1  0
 26 54  1  0
M  CHG  1  24   1
M  END
>  <UniqueID>  (7) 
7

>  <SMILES>  (7) 
Cc1cc(-c2csc(-c3ccc(CNCCN4CCCC4)cc3)[nH+]2)ccn1

>  <Energy>  (7) 
93.89973543100638

>  <Genealogy>  (7) 
Cc1cc(-c2csc(-c3ccc(CNCCN4CCCC4)cc3)[nH+]2)ccn1 (protonated)
Cc1cc(-c2csc(-c3ccc(CNCCN4CCCC4)cc3)[nH+]2)ccn1 (3D coordinates assigned)
Cc1cc(-c2csc(-c3ccc(CNCCN4CCCC4)cc3)[nH+]2)ccn1 (nonaromatic ring conformer: 93.89973543100638 kcal/mol)

>  <smiles>  (7) 
Cc1cc(-c2csc(-c3ccc(CNCCN4CCCC4)cc3)n2)ccn1

>  <score_type>  (7) 
oracle

>  <origin>  (7) 
adg

>  <m_score__min__energy>  (7) 
-8.2699999999999996

>  <m_primary>  (7) 
energy

$$$$
8:0
     RDKit          3D

 50 51  0  0  0  0  0  0  0  0999 V2000
   -1.7180   23.8360  -29.0230 C   0  0  0  0  0  0  0  0  0  0  0  0
   -1.0520   22.6950  -29.7960 C   0  0  0  0  0  0  0  0  0  0  0  0
   -1.9210   22.1440  -30.8500 N   0  0  0  0  0  0  0  0  0  0  0  0
   -1.2670   21.0560  -31.6020 C   0  0  0  0  0  0  0  0  0  0  0  0
   -1.8610   20.9110  -33.0200 C   0  0  0  0  0  0  0  0  0  0  0  0
   -2.2010   19.4610  -33.4130 C   0  0  0  0  0  0  0  0  0  0  0  0
   -3.4870   18.9210  -32.7680 C   0  0  0  0  0  0  0  0  0  0  0  0
   -4.9170   19.1740  -33.8070 S   0  0  0  0  0  0  0  0  0  0  0  0
   -5.3030   20.8070  -33.8450 O   0  0  0  0  0  0  0  0  0  0  0  0
   -6.3140   18.2050  -33.2480 C   0  0  0  0  0  0  0  0  0  0  0  0
   -7.1220   18.9110  -32.1460 C   0  0  1  0  0  0  0  0  0  0  0  0
   -6.3090   19.8510  -31.4770 O   0  0  0  0  0  0  0  0  0  0  0  0
   -7.1040   20.9840  -31.2120 C   0  0  1  0  0  0  0  0  0  0  0  0
   -6.2990   22.2320  -31.1190 N   0  0  0  0  0  0  0  0  0  0  0  0
   -6.9650   23.4120  -30.9060 C   0  0  0  0  0  0  0  0  0  0  0  0
   -6.2780   24.6190  -30.7970 C   0  0  0  0  0  0  0  0  0  0  0  0
   -4.8930   24.6020  -30.8750 C   0  0  0  0  0  0  0  0  0  0  0  0
   -4.2380   25.6750  -30.7890 O   0  0  0  0  0  0  0  0  0  0  0  0
   -4.2440   23.4250  -31.0320 N   0  0  0  0  0  0  0  0  0  0  0  0
   -4.9180   22.2490  -31.1370 C   0  0  0  0  0  0  0  0  0  0  0  0
   -4.2480   21.1860  -31.2360 O   0  0  0  0  0  0  0  0  0  0  0  0
   -8.1430   21.0580  -32.3240 C   0  0  0  0  0  0  0  0  0  0  0  0
   -8.3780   19.6140  -32.6820 C   0  0  2  0  0  0  0  0  0  0  0  0
   -9.5170   19.1230  -32.0210 O   0  0  0  0  0  0  0  0  0  0  0  0
   -1.6135   23.6570  -27.9427 H   0  0  0  0  0  0  0  0  0  0  0  0
   -1.2339   24.7882  -29.2854 H   0  0  0  0  0  0  0  0  0  0  0  0
   -2.7852   23.8827  -29.2854 H   0  0  0  0  0  0  0  0  0  0  0  0
   -0.1307   23.0751  -30.2615 H   0  0  0  0  0  0  0  0  0  0  0  0
   -0.8405   21.8862  -29.0810 H   0  0  0  0  0  0  0  0  0  0  0  0
   -2.1660   22.9240  -31.5010 H   0  0  0  0  0  0  0  0  0  0  0  0
   -2.8120   21.7920  -30.4270 H   0  0  0  0  0  0  0  0  0  0  0  0
   -0.1923   21.2751  -31.6854 H   0  0  0  0  0  0  0  0  0  0  0  0
   -1.4338   20.1134  -31.0601 H   0  0  0  0  0  0  0  0  0  0  0  0
   -2.7833   21.5083  -33.0711 H   0  0  0  0  0  0  0  0  0  0  0  0
   -1.0908   21.2587  -33.7242 H   0  0  0  0  0  0  0  0  0  0  0  0
   -2.3183   19.4178  -34.5059 H   0  0  0  0  0  0  0  0  0  0  0  0
   -1.3753   18.8319  -33.0490 H   0  0  0  0  0  0  0  0  0  0  0  0
   -3.3669   17.8428  -32.5862 H   0  0  0  0  0  0  0  0  0  0  0  0
   -3.6502   19.4685  -31.8280 H   0  0  0  0  0  0  0  0  0  0  0  0
   -5.4130   21.0550  -32.8920 H   0  0  0  0  0  0  0  0  0  0  0  0
   -6.9773   18.0166  -34.1050 H   0  0  0  0  0  0  0  0  0  0  0  0
   -5.9213   17.2688  -32.8246 H   0  0  0  0  0  0  0  0  0  0  0  0
   -7.4560   18.1280  -31.4493 H   0  0  0  0  0  0  0  0  0  0  0  0
   -7.5900   20.8884  -30.2298 H   0  0  0  0  0  0  0  0  0  0  0  0
   -8.0616   23.4051  -30.8197 H   0  0  0  0  0  0  0  0  0  0  0  0
   -6.8215   25.5643  -30.6523 H   0  0  0  0  0  0  0  0  0  0  0  0
   -9.0696   21.5301  -31.9656 H   0  0  0  0  0  0  0  0  0  0  0  0
   -7.8116   21.6634  -33.1805 H   0  0  0  0  0  0  0  0  0  0  0  0
   -8.5444   19.4596  -33.7583 H   0  0  0  0  0  0  0  0  0  0  0  0
   -9.8420   19.8540  -31.4330 H   0  0  0  0  0  0  0  0  0  0  0  0
  1  2  1  0
  2  3  1  0
  3  4  1  0
  4  5  1  0
  5  6  1  0
  6  7  1  0
  7  8  1  0
  8  9  1  1
  8 10  1  0
 10 11  1  0
 11 12  1  0
 12 13  1  0
 13 14  1  0
 14 15  1  0
 15 16  2  0
 16 17  1  0
 17 18  2  0
 17 19  1  0
 19 20  1  0
 20 21  2  0
 13 22  1  0
 22 23  1  0
 23 24  1  0
 23 11  1  0
 20 14  1  0
  1 25  1  0
  1 26  1  0
  1 27  1  0
  2 28  1  0
  2 29  1  0
  3 30  1  0
  3 31  1  0
  4 32  1  0
  4 33  1  0
  5 34  1  0
  5 35  1  0
  6 36  1  0
  6 37  1  0
  7 38  1  0
  7 39  1  0
  9 40  1  0
 10 41  1  0
 10 42  1  0
 11 43  1  1
 13 44  1  1
 15 45  1  0
 16 46  1  0
 22 47  1  0
 22 48  1  0
 23 49  1  6
 24 50  1  0
M  CHG  3   3   1   8   1  19  -1
M  END
>  <UniqueID>  (8) 
8

>  <SMILES>  (8) 
CC[NH2+]CCCC[S@+](O)C[C@H]1OC(n2ccc(=O)[n-]c2=O)CC1O

>  <Energy>  (8) 
44.98530783291823

>  <Genealogy>  (8) 
CC[NH2+]CCCC[S+](O)CC1OC(n2ccc(=O)[n-]c2=O)CC1O (protonated)
CC[NH2+]CCCC[S@+](O)C[C@H]1OC(n2ccc(=O)[n-]c2=O)CC1O (chirality)
CC[NH2+]CCCC[S@+](O)C[C@H]1OC(n2ccc(=O)[n-]c2=O)CC1O (3D coordinates assigned)
CC[NH2+]CCCC[S@+](O)C[C@H]1OC(n2ccc(=O)[n-]c2=O)CC1O (nonaromatic ring conformer: 44.98530783291823 kcal/mol)

>  <smiles>  (8) 
CCNCCCC[S+]([O-])CC1OC(n2ccc(=O)[nH]c2=O)CC1O

>  <score_type>  (8) 
oracle

>  <origin>  (8) 
adg

>  <m_score__min__energy>  (8) 
-5.04

>  <m_primary>  (8) 
energy

$$$$
9:0
     RDKit          3D

 55 57  0  0  0  0  0  0  0  0999 V2000
   -7.2380   13.9870  -34.5880 C   0  0  0  0  0  0  0  0  0  0  0  0
   -6.4380   12.7440  -34.2260 C   0  0  0  0  0  0  0  0  0  0  0  0
   -5.1290   13.1270  -33.8660 O   0  0  0  0  0  0  0  0  0  0  0  0
   -4.8260   12.6260  -32.5810 C   0  0  0  0  0  0  0  0  0  0  0  0
   -4.5910   13.7960  -31.6320 C   0  0  0  0  0  0  0  0  0  0  0  0
   -4.6900   15.0630  -32.3680 N   0  0  0  0  0  0  0  0  0  0  0  0
   -3.3740   15.5600  -32.8010 C   0  0  0  0  0  0  0  0  0  0  0  0
   -3.4060   16.1480  -34.2220 C   0  0  0  0  0  0  0  0  0  0  0  0
   -4.7270   16.5810  -34.5560 O   0  0  0  0  0  0  0  0  0  0  0  0
   -5.5240   17.4590  -33.7980 C   0  0  0  0  0  0  0  0  0  0  0  0
   -6.8530   17.1500  -33.4520 C   0  0  0  0  0  0  0  0  0  0  0  0
   -7.6240   18.0470  -32.7140 C   0  0  0  0  0  0  0  0  0  0  0  0
   -7.0880   19.2790  -32.3160 C   0  0  0  0  0  0  0  0  0  0  0  0
   -7.8380   20.2180  -31.5880 C   0  0  0  0  0  0  0  0  0  0  0  0
   -9.0320   19.9810  -31.2580 O   0  0  0  0  0  0  0  0  0  0  0  0
   -7.2540   21.4320  -31.2290 C   0  0  0  0  0  0  0  0  0  0  0  0
   -5.9250   21.6940  -31.6020 C   0  0  0  0  0  0  0  0  0  0  0  0
   -5.2760   22.9380  -31.2600 N   0  0  0  0  0  0  0  0  0  0  0  0
   -5.9480   24.2300  -31.4530 C   0  0  0  0  0  0  0  0  0  0  0  0
   -5.3800   25.2750  -30.4880 C   0  0  0  0  0  0  0  0  0  0  0  0
   -3.9680   25.3130  -30.5590 O   0  0  0  0  0  0  0  0  0  0  0  0
   -3.4410   24.0890  -30.0910 C   0  0  0  0  0  0  0  0  0  0  0  0
   -3.8260   22.9390  -31.0240 C   0  0  0  0  0  0  0  0  0  0  0  0
   -5.2480   20.7820  -32.2960 O   0  0  0  0  0  0  0  0  0  0  0  0
   -5.7570   19.6050  -32.6590 C   0  0  0  0  0  0  0  0  0  0  0  0
   -4.9680   18.6880  -33.3850 C   0  0  0  0  0  0  0  0  0  0  0  0
   -3.5560   19.0430  -33.7770 C   0  0  0  0  0  0  0  0  0  0  0  0
   -7.5643   14.4939  -33.6679 H   0  0  0  0  0  0  0  0  0  0  0  0
   -6.6087   14.6688  -35.1789 H   0  0  0  0  0  0  0  0  0  0  0  0
   -8.1192   13.6967  -35.1789 H   0  0  0  0  0  0  0  0  0  0  0  0
   -6.9177   12.2307  -33.3796 H   0  0  0  0  0  0  0  0  0  0  0  0
   -6.4010   12.0625  -35.0887 H   0  0  0  0  0  0  0  0  0  0  0  0
   -5.6665   12.0180  -32.2151 H   0  0  0  0  0  0  0  0  0  0  0  0
   -3.9218   12.0015  -32.6304 H   0  0  0  0  0  0  0  0  0  0  0  0
   -5.3486   13.7770  -30.8347 H   0  0  0  0  0  0  0  0  0  0  0  0
   -3.5865   13.7098  -31.1920 H   0  0  0  0  0  0  0  0  0  0  0  0
   -5.3020   14.9260  -33.2080 H   0  0  0  0  0  0  0  0  0  0  0  0
   -3.0451   16.3433  -32.1022 H   0  0  0  0  0  0  0  0  0  0  0  0
   -2.6796   14.7069  -32.8073 H   0  0  0  0  0  0  0  0  0  0  0  0
   -2.7199   17.0063  -34.2740 H   0  0  0  0  0  0  0  0  0  0  0  0
   -3.0959   15.3703  -34.9355 H   0  0  0  0  0  0  0  0  0  0  0  0
   -7.2880   16.1902  -33.7674 H   0  0  0  0  0  0  0  0  0  0  0  0
   -8.6577   17.7864  -32.4429 H   0  0  0  0  0  0  0  0  0  0  0  0
   -7.8282   22.1775  -30.6593 H   0  0  0  0  0  0  0  0  0  0  0  0
   -5.7919   24.5690  -32.4877 H   0  0  0  0  0  0  0  0  0  0  0  0
   -7.0229   24.1070  -31.2544 H   0  0  0  0  0  0  0  0  0  0  0  0
   -5.7806   26.2647  -30.7524 H   0  0  0  0  0  0  0  0  0  0  0  0
   -5.6731   25.0030  -29.4632 H   0  0  0  0  0  0  0  0  0  0  0  0
   -2.3445   24.1632  -30.0436 H   0  0  0  0  0  0  0  0  0  0  0  0
   -3.8548   23.8861  -29.0922 H   0  0  0  0  0  0  0  0  0  0  0  0
   -3.3022   23.0594  -31.9837 H   0  0  0  0  0  0  0  0  0  0  0  0
   -3.5390   21.9862  -30.5551 H   0  0  0  0  0  0  0  0  0  0  0  0
   -2.9511   19.1951  -32.8709 H   0  0  0  0  0  0  0  0  0  0  0  0
   -3.1244   18.2254  -34.3730 H   0  0  0  0  0  0  0  0  0  0  0  0
   -3.5624   19.9675  -34.3730 H   0  0  0  0  0  0  0  0  0  0  0  0
  1  2  1  0
  2  3  1  0
  3  4  1  0
  4  5  1  0
  5  6  1  0
  6  7  1  0
  7  8  1  0
  8  9  1  0
  9 10  1  0
 10 11  2  0
 11 12  1  0
 12 13  2  0
 13 14  1  0
 14 15  2  0
 14 16  1  0
 16 17  2  0
 17 18  1  0
 18 19  1  0
 19 20  1  0
 20 21  1  0
 21 22  1  0
 22 23  1  0
 17 24  1  0
 24 25  1  0
 25 26  2  0
 26 27  1  0
 26 10  1  0
 25 13  1  0
 23 18  1  0
  1 28  1  0
  1 29  1  0
  1 30  1  0
  2 31  1  0
  2 32  1  0
  4 33  1  0
  4 34  1  0
  5 35  1  0
  5 36  1  0
  6 37  1  0
  7 38  1  0
  7 39  1  0
  8 40  1  0
  8 41  1  0
 11 42  1  0
 12 43  1  0
 16 44  1  0
 19 45  1  0
 19 46  1  0
 20 47  1  0
 20 48  1  0
 22 49  1  0
 22 50  1  0
 23 51  1  0
 23 52  1  0
 27 53  1  0
 27 54  1  0
 27 55  1  0
M  END
>  <UniqueID>  (9) 
9

>  <SMILES>  (9) 
CCOCCNCCOc1ccc2c(=O)cc(N3CCOCC3)oc2c1C

>  <Energy>  (9) 
59.600647753726

>  <Genealogy>  (9) 
CCOCCNCCOc1ccc2c(=O)cc(N3CCOCC3)oc2c1C (3D coordinates assigned)
CCOCCNCCOc1ccc2c(=O)cc(N3CCOCC3)oc2c1C (nonaromatic ring conformer: 59.600647753726 kcal/mol)

>  <smiles>  (9) 
CCOCCNCCOc1ccc2c(=O)cc(N3CCOCC3)oc2c1C

>  <score_type>  (9) 
oracle

>  <origin>  (9) 
adg

>  <m_score__min__energy>  (9) 
-8.6099999999999994

>  <m_primary>  (9) 
energy

$$$$
10:0
     RDKit          3D

 68 70  0  0  1  0  0  0  0  0999 V2000
   -1.1060   21.5430  -31.8380 C   0  0  0  0  0  0  0  0  0  0  0  0
   -1.2510   21.6070  -30.3520 C   0  0  0  0  0  0  0  0  0  0  0  0
   -0.6430   22.5990  -29.6710 O   0  0  0  0  0  0  0  0  0  0  0  0
   -0.1610   22.4410  -28.4300 C   0  0  0  0  0  0  0  0  0  0  0  0
    0.6290   23.5540  -27.8050 C   0  0  0  0  0  0  0  0  0  0  0  0
    0.2770   24.8010  -28.2800 O   0  0  0  0  0  0  0  0  0  0  0  0
   -0.4950   25.5360  -27.3960 C   0  0  0  0  0  0  0  0  0  0  0  0
   -1.9660   25.3990  -27.6700 C   0  0  0  0  0  0  0  0  0  0  0  0
   -2.2700   25.2800  -29.0090 O   0  0  0  0  0  0  0  0  0  0  0  0
   -3.1810   24.2970  -29.2780 C   0  0  0  0  0  0  0  0  0  0  0  0
   -4.4050   24.8930  -29.9500 C   0  0  0  0  0  0  0  0  0  0  0  0
   -4.6380   24.2770  -31.2490 N   0  0  0  0  0  0  0  0  0  0  0  0
   -5.2080   23.1060  -31.3410 C   0  0  0  0  0  0  0  0  0  0  0  0
   -4.5410   21.9260  -31.2350 C   0  0  0  0  0  0  0  0  0  0  0  0
   -5.2150   20.7270  -31.3430 C   0  0  0  0  0  0  0  0  0  0  0  0
   -6.5410   20.7250  -31.5520 N   0  0  0  0  0  0  0  0  0  0  0  0
   -7.1700   19.5480  -31.6550 C   0  0  0  0  0  0  0  0  0  0  0  0
   -6.5710   18.2260  -31.5640 C   0  0  0  0  0  0  0  0  0  0  0  0
   -6.2370   17.6490  -32.8500 N   0  0  0  0  0  0  0  0  0  0  0  0
   -5.0300   16.8660  -32.7470 C   0  0  0  0  0  0  0  0  0  0  0  0
   -3.9280   17.3840  -33.6430 C   0  0  0  0  0  0  0  0  0  0  0  0
   -4.3530   17.2920  -35.0360 N   0  0  0  0  0  0  0  0  0  0  0  0
   -5.6080   17.9610  -35.1650 C   0  0  0  0  0  0  0  0  0  0  0  0
   -6.0910   18.6140  -33.8880 C   0  0  0  0  0  0  0  0  0  0  0  0
   -8.5520   19.6140  -31.8780 C   0  0  0  0  0  0  0  0  0  0  0  0
   -9.3540   18.3560  -32.0080 C   0  0  0  0  0  0  0  0  0  0  0  0
   -9.2230   20.8080  -31.9840 C   0  0  0  0  0  0  0  0  0  0  0  0
   -8.5450   22.0030  -31.8720 C   0  0  0  0  0  0  0  0  0  0  0  0
   -9.2140   23.3280  -31.9780 C   0  0  0  0  0  0  0  0  0  0  0  0
   -7.1800   21.9180  -31.6540 C   0  0  0  0  0  0  0  0  0  0  0  0
   -6.5230   23.0910  -31.5490 N   0  0  0  0  0  0  0  0  0  0  0  0
   -0.1270   21.1109  -32.0926 H   0  0  0  0  0  0  0  0  0  0  0  0
   -1.9048   20.9138  -32.2576 H   0  0  0  0  0  0  0  0  0  0  0  0
   -1.1795   22.5572  -32.2576 H   0  0  0  0  0  0  0  0  0  0  0  0
   -2.3272   21.6838  -30.1378 H   0  0  0  0  0  0  0  0  0  0  0  0
   -0.7387   20.6989  -30.0014 H   0  0  0  0  0  0  0  0  0  0  0  0
   -1.0219   22.2492  -27.7727 H   0  0  0  0  0  0  0  0  0  0  0  0
    0.5712   21.6268  -28.5349 H   0  0  0  0  0  0  0  0  0  0  0  0
    0.4626   23.5337  -26.7178 H   0  0  0  0  0  0  0  0  0  0  0  0
    1.6858   23.3911  -28.0631 H   0  0  0  0  0  0  0  0  0  0  0  0
   -0.2919   25.1852  -26.3734 H   0  0  0  0  0  0  0  0  0  0  0  0
   -0.2281   26.5961  -27.5187 H   0  0  0  0  0  0  0  0  0  0  0  0
   -2.3346   24.5031  -27.1489 H   0  0  0  0  0  0  0  0  0  0  0  0
   -2.4477   26.3204  -27.3109 H   0  0  0  0  0  0  0  0  0  0  0  0
   -2.7255   23.5512  -29.9461 H   0  0  0  0  0  0  0  0  0  0  0  0
   -3.4840   23.8178  -28.3354 H   0  0  0  0  0  0  0  0  0  0  0  0
   -5.2839   24.7265  -29.3099 H   0  0  0  0  0  0  0  0  0  0  0  0
   -4.2349   25.9697  -30.0977 H   0  0  0  0  0  0  0  0  0  0  0  0
   -3.4547   21.9273  -31.0617 H   0  0  0  0  0  0  0  0  0  0  0  0
   -4.6679   19.7765  -31.2582 H   0  0  0  0  0  0  0  0  0  0  0  0
   -5.6498   18.3023  -30.9677 H   0  0  0  0  0  0  0  0  0  0  0  0
   -7.3179   17.5656  -31.0993 H   0  0  0  0  0  0  0  0  0  0  0  0
   -4.6796   16.8928  -31.7047 H   0  0  0  0  0  0  0  0  0  0  0  0
   -5.2675   15.8406  -33.0665 H   0  0  0  0  0  0  0  0  0  0  0  0
   -3.7145   18.4337  -33.3929 H   0  0  0  0  0  0  0  0  0  0  0  0
   -3.0200   16.7810  -33.4951 H   0  0  0  0  0  0  0  0  0  0  0  0
   -3.6540   17.7730  -35.6450 H   0  0  0  0  0  0  0  0  0  0  0  0
   -5.5073   18.7398  -35.9352 H   0  0  0  0  0  0  0  0  0  0  0  0
   -6.3512   17.1952  -35.4319 H   0  0  0  0  0  0  0  0  0  0  0  0
   -5.3611   19.3744  -33.5734 H   0  0  0  0  0  0  0  0  0  0  0  0
   -7.0700   19.0783  -34.0779 H   0  0  0  0  0  0  0  0  0  0  0  0
   -9.5988   17.9721  -31.0067 H   0  0  0  0  0  0  0  0  0  0  0  0
  -10.2835   18.5688  -32.5564 H   0  0  0  0  0  0  0  0  0  0  0  0
   -8.7688   17.6031  -32.5564 H   0  0  0  0  0  0  0  0  0  0  0  0
  -10.3089   20.8105  -32.1595 H   0  0  0  0  0  0  0  0  0  0  0  0
   -9.4121   23.7204  -30.9697 H   0  0  0  0  0  0  0  0  0  0  0  0
   -8.5604   24.0263  -32.5213 H   0  0  0  0  0  0  0  0  0  0  0  0
  -10.1639   23.2167  -32.5213 H   0  0  0  0  0  0  0  0  0  0  0  0
  1  2  1  0
  2  3  1  0
  3  4  1  0
  4  5  1  0
  5  6  1  0
  6  7  1  0
  7  8  1  0
  8  9  1  0
  9 10  1  0
 10 11  1  0
 11 12  1  0
 12 13  2  0
 13 14  1  0
 14 15  2  0
 15 16  1  0
 16 17  1  0
 17 18  1  0
 18 19  1  0
 19 20  1  0
 20 21  1  0
 21 22  1  0
 22 23  1  0
 23 24  1  0
 17 25  2  0
 25 26  1  0
 25 27  1  0
 27 28  2  0
 28 29  1  0
 28 30  1  0
 30 31  2  0
 31 13  1  0
 30 16  1  0
 24 19  1  0
  1 32  1  0
  1 33  1  0
  1 34  1  0
  2 35  1  0
  2 36  1  0
  4 37  1  0
  4 38  1  0
  5 39  1  0
  5 40  1  0
  7 41  1  0
  7 42  1  0
  8 43  1  0
  8 44  1  0
 10 45  1  0
 10 46  1  0
 11 47  1  0
 11 48  1  0
 14 49  1  0
 15 50  1  0
 18 51  1  0
 18 52  1  0
 20 53  1  0
 20 54  1  0
 21 55  1  0
 21 56  1  0
 22 57  1  0
 23 58  1  0
 23 59  1  0
 24 60  1  0
 24 61  1  0
 26 62  1  0
 26 63  1  0
 26 64  1  0
 27 65  1  0
 29 66  1  0
 29 67  1  0
 29 68  1  0
M  END
>  <smiles>  (10) 
CCOCCOCCOCCN=c1ccn2c(CN3CCNCC3)c(C)cc(C)c2n1

>  <score_type>  (10) 
oracle

>  <origin>  (10) 
adg

>  <m_score__min__energy>  (10) 
-8.9399999999999995

>  <m_primary>  (10) 
energy

$$$$
11:0
     RDKit          3D

 72 76  0  0  0  0  0  0  0  0999 V2000
   -1.9240   19.9910  -27.0550 C   0  0  0  0  0  0  0  0  0  0  0  0
   -0.9120   20.6000  -27.8480 O   0  0  0  0  0  0  0  0  0  0  0  0
   -0.8560   20.5460  -29.2500 C   0  0  0  0  0  0  0  0  0  0  0  0
   -0.3210   19.4350  -29.9310 C   0  0  0  0  0  0  0  0  0  0  0  0
   -0.2540   19.4230  -31.3240 C   0  0  0  0  0  0  0  0  0  0  0  0
   -0.7420   20.5060  -32.0630 C   0  0  0  0  0  0  0  0  0  0  0  0
   -0.6050   20.5000  -33.8180 S   0  0  0  0  0  0  0  0  0  0  0  0
   -0.2510   21.8840  -34.2850 O   0  0  0  0  0  0  0  0  0  0  0  0
    0.4760   19.5580  -34.2690 O   0  0  0  0  0  0  0  0  0  0  0  0
   -2.1270   20.0350  -34.5100 N   0  0  0  0  0  0  0  0  0  0  0  0
   -2.7540   18.7760  -34.2190 C   0  0  0  0  0  0  0  0  0  0  0  0
   -2.0260   17.7760  -33.5550 C   0  0  0  0  0  0  0  0  0  0  0  0
   -2.6140   16.5390  -33.2780 C   0  0  0  0  0  0  0  0  0  0  0  0
   -3.9380   16.2950  -33.6470 C   0  0  0  0  0  0  0  0  0  0  0  0
   -4.6800   17.2910  -34.2870 C   0  0  0  0  0  0  0  0  0  0  0  0
   -4.0940   18.5270  -34.5710 C   0  0  0  0  0  0  0  0  0  0  0  0
   -1.2950   21.6060  -31.3960 C   0  0  0  0  0  0  0  0  0  0  0  0
   -1.3360   21.6440  -29.9920 C   0  0  0  0  0  0  0  0  0  0  0  0
   -1.8810   22.7840  -29.3060 N   0  0  0  0  0  0  0  0  0  0  0  0
   -3.0820   23.4910  -29.7560 C   0  0  0  0  0  0  0  0  0  0  0  0
   -3.8620   24.0230  -28.5520 C   0  0  0  0  0  0  0  0  0  0  0  0
   -5.2990   24.1480  -28.8820 N   0  0  0  0  0  0  0  0  0  0  0  0
   -5.8410   22.8670  -29.3860 C   0  0  0  0  0  0  0  0  0  0  0  0
   -7.1550   23.0860  -30.1440 C   0  0  0  0  0  0  0  0  0  0  0  0
   -6.9650   23.9310  -31.3490 N   0  0  0  0  0  0  0  0  0  0  0  0
   -6.8480   23.1020  -32.5680 C   0  0  0  0  0  0  0  0  0  0  0  0
   -6.2310   21.7520  -32.2580 C   0  0  0  0  0  0  0  0  0  0  0  0
   -4.8380   21.6780  -32.0850 C   0  0  0  0  0  0  0  0  0  0  0  0
   -4.2190   20.4660  -31.7870 C   0  0  0  0  0  0  0  0  0  0  0  0
   -4.9730   19.3030  -31.6600 C   0  0  0  0  0  0  0  0  0  0  0  0
   -6.3630   19.3390  -31.8390 C   0  0  0  0  0  0  0  0  0  0  0  0
   -7.1160   18.1600  -31.7140 C   0  0  0  0  0  0  0  0  0  0  0  0
   -8.4990   18.1860  -31.8960 C   0  0  0  0  0  0  0  0  0  0  0  0
   -9.1430   19.3830  -32.2040 C   0  0  0  0  0  0  0  0  0  0  0  0
   -8.4100   20.5660  -32.3300 C   0  0  0  0  0  0  0  0  0  0  0  0
   -7.0090   20.5670  -32.1460 C   0  0  0  0  0  0  0  0  0  0  0  0
   -5.8250   24.8760  -31.2290 C   0  0  0  0  0  0  0  0  0  0  0  0
   -5.5810   25.3040  -29.7730 C   0  0  0  0  0  0  0  0  0  0  0  0
   -1.6895   20.1321  -25.9896 H   0  0  0  0  0  0  0  0  0  0  0  0
   -2.8956   20.4545  -27.2811 H   0  0  0  0  0  0  0  0  0  0  0  0
   -1.9694   18.9154  -27.2811 H   0  0  0  0  0  0  0  0  0  0  0  0
    0.0468   18.5700  -29.3596 H   0  0  0  0  0  0  0  0  0  0  0  0
    0.1844   18.5584  -31.8438 H   0  0  0  0  0  0  0  0  0  0  0  0
   -2.6940   20.7930  -34.9530 H   0  0  0  0  0  0  0  0  0  0  0  0
   -0.9863   17.9674  -33.2509 H   0  0  0  0  0  0  0  0  0  0  0  0
   -2.0327   15.7564  -32.7684 H   0  0  0  0  0  0  0  0  0  0  0  0
   -4.3972   15.3184  -33.4339 H   0  0  0  0  0  0  0  0  0  0  0  0
   -5.7267   17.1017  -34.5675 H   0  0  0  0  0  0  0  0  0  0  0  0
   -4.6827   19.3095  -35.0722 H   0  0  0  0  0  0  0  0  0  0  0  0
   -1.7009   22.4478  -31.9762 H   0  0  0  0  0  0  0  0  0  0  0  0
   -1.3580   23.1750  -28.4890 H   0  0  0  0  0  0  0  0  0  0  0  0
   -2.7885   24.3330  -30.4001 H   0  0  0  0  0  0  0  0  0  0  0  0
   -3.7203   22.7938  -30.3186 H   0  0  0  0  0  0  0  0  0  0  0  0
   -3.7433   23.3281  -27.7076 H   0  0  0  0  0  0  0  0  0  0  0  0
   -3.4702   25.0151  -28.2834 H   0  0  0  0  0  0  0  0  0  0  0  0
   -5.1068   22.4079  -30.0644 H   0  0  0  0  0  0  0  0  0  0  0  0
   -6.0377   22.2080  -28.5275 H   0  0  0  0  0  0  0  0  0  0  0  0
   -7.5536   22.1088  -30.4542 H   0  0  0  0  0  0  0  0  0  0  0  0
   -7.8541   23.6043  -29.4712 H   0  0  0  0  0  0  0  0  0  0  0  0
   -7.8502   22.9486  -32.9948 H   0  0  0  0  0  0  0  0  0  0  0  0
   -6.1969   23.6257  -33.2833 H   0  0  0  0  0  0  0  0  0  0  0  0
   -4.2290   22.5884  -32.1862 H   0  0  0  0  0  0  0  0  0  0  0  0
   -3.1281   20.4280  -31.6513 H   0  0  0  0  0  0  0  0  0  0  0  0
   -4.4763   18.3518  -31.4182 H   0  0  0  0  0  0  0  0  0  0  0  0
   -6.6132   17.2121  -31.4716 H   0  0  0  0  0  0  0  0  0  0  0  0
   -9.0828   17.2591  -31.7961 H   0  0  0  0  0  0  0  0  0  0  0  0
  -10.2334   19.3966  -32.3486 H   0  0  0  0  0  0  0  0  0  0  0  0
   -8.9283   21.5049  -32.5746 H   0  0  0  0  0  0  0  0  0  0  0  0
   -4.9171   24.3873  -31.6122 H   0  0  0  0  0  0  0  0  0  0  0  0
   -6.0686   25.7770  -31.8111 H   0  0  0  0  0  0  0  0  0  0  0  0
   -4.7208   25.9891  -29.7457 H   0  0  0  0  0  0  0  0  0  0  0  0
   -6.4971   25.7922  -29.4090 H   0  0  0  0  0  0  0  0  0  0  0  0
  1  2  1  0
  2  3  1  0
  3  4  2  0
  4  5  1  0
  5  6  2  0
  6  7  1  0
  7  8  2  0
  7  9  2  0
  7 10  1  0
 10 11  1  0
 11 12  2  0
 12 13  1  0
 13 14  2  0
 14 15  1  0
 15 16  2  0
  6 17  1  0
 17 18  2  0
 18 19  1  0
 19 20  1  0
 20 21  1  0
 21 22  1  0
 22 23  1  0
 23 24  1  0
 24 25  1  0
 25 26  1  0
 26 27  1  0
 27 28  2  0
 28 29  1  0
 29 30  2  0
 30 31  1  0
 31 32  2  0
 32 33  1  0
 33 34  2  0
 34 35  1  0
 35 36  2  0
 25 37  1  0
 37 38  1  0
 18  3  1  0
 38 22  1  0
 16 11  1  0
 36 27  1  0
 36 31  1  0
  1 39  1  0
  1 40  1  0
  1 41  1  0
  4 42  1  0
  5 43  1  0
 10 44  1  0
 12 45  1  0
 13 46  1  0
 14 47  1  0
 15 48  1  0
 16 49  1  0
 17 50  1  0
 19 51  1  0
 20 52  1  0
 20 53  1  0
 21 54  1  0
 21 55  1  0
 23 56  1  0
 23 57  1  0
 24 58  1  0
 24 59  1  0
 26 60  1  0
 26 61  1  0
 28 62  1  0
 29 63  1  0
 30 64  1  0
 32 65  1  0
 33 66  1  0
 34 67  1  0
 35 68  1  0
 37 69  1  0
 37 70  1  0
 38 71  1  0
 38 72  1  0
M  END
>  <UniqueID>  (11) 
10

>  <SMILES>  (11) 
COc1ccc(S(=O)(=O)Nc2ccccc2)cc1NCCN1CCN(Cc2cccc3ccccc23)CC1

>  <Energy>  (11) 
96.3258163250782

>  <Genealogy>  (11) 
COc1ccc(S(=O)(=O)Nc2ccccc2)cc1NCCN1CCN(Cc2cccc3ccccc23)CC1 (3D coordinates assigned)
COc1ccc(S(=O)(=O)Nc2ccccc2)cc1NCCN1CCN(Cc2cccc3ccccc23)CC1 (nonaromatic ring conformer: 96.3258163250782 kcal/mol)

>  <smiles>  (11) 
COc1ccc(S(=O)(=O)Nc2ccccc2)cc1NCCN1CCN(Cc2cccc3ccccc23)CC1

>  <score_type>  (11) 
oracle

>  <origin>  (11) 
adg

>  <m_score__min__energy>  (11) 
-11.19

>  <m_primary>  (11) 
energy

$$$$
12:0
     RDKit          3D

 54 55  0  0  0  0  0  0  0  0999 V2000
   -8.6390   18.7530  -31.9820 C   0  0  0  0  0  0  0  0  0  0  0  0
   -7.8180   19.5760  -32.9700 C   0  0  0  0  0  0  0  0  0  0  0  0
   -7.4760   20.8920  -32.3960 N   0  0  0  0  0  0  0  0  0  0  0  0
   -8.5160   21.6760  -31.9730 C   0  0  0  0  0  0  0  0  0  0  0  0
   -8.2960   22.9370  -31.4300 C   0  0  0  0  0  0  0  0  0  0  0  0
   -7.0010   23.4110  -31.2970 C   0  0  0  0  0  0  0  0  0  0  0  0
   -5.9140   22.6250  -31.7080 C   0  0  0  0  0  0  0  0  0  0  0  0
   -4.5830   23.0860  -31.5700 C   0  0  0  0  0  0  0  0  0  0  0  0
   -4.2640   24.2830  -30.8420 N   0  0  0  0  0  0  0  0  0  0  0  0
   -4.5670   24.4120  -29.4140 C   0  0  0  0  0  0  0  0  0  0  0  0
   -3.2800   24.5520  -28.5910 C   0  0  0  0  0  0  0  0  0  0  0  0
   -2.1700   24.8120  -29.4290 O   0  0  0  0  0  0  0  0  0  0  0  0
   -0.9410   24.5630  -28.7720 C   0  0  0  0  0  0  0  0  0  0  0  0
   -0.6560   23.0500  -28.7000 C   0  0  0  0  0  0  0  0  0  0  0  0
   -1.3940   22.2620  -29.7300 N   0  0  0  0  0  0  0  0  0  0  0  0
   -0.4770   21.7750  -30.7950 C   0  0  0  0  0  0  0  0  0  0  0  0
   -0.7150   20.3060  -31.1670 C   0  0  0  0  0  0  0  0  0  0  0  0
   -2.1850   21.1700  -29.0960 C   0  0  0  0  0  0  0  0  0  0  0  0
   -2.3300   21.2960  -27.5720 C   0  0  0  0  0  0  0  0  0  0  0  0
   -3.5330   22.3370  -32.1080 C   0  0  0  0  0  0  0  0  0  0  0  0
   -3.7780   21.1120  -32.7160 C   0  0  0  0  0  0  0  0  0  0  0  0
   -5.0770   20.6150  -32.8040 C   0  0  0  0  0  0  0  0  0  0  0  0
   -6.1740   21.3560  -32.3060 C   0  0  0  0  0  0  0  0  0  0  0  0
   -8.3620   19.0307  -30.9543 H   0  0  0  0  0  0  0  0  0  0  0  0
   -9.7093   18.9518  -32.1397 H   0  0  0  0  0  0  0  0  0  0  0  0
   -8.4376   17.6831  -32.1397 H   0  0  0  0  0  0  0  0  0  0  0  0
   -6.8908   19.0342  -33.2083 H   0  0  0  0  0  0  0  0  0  0  0  0
   -8.4142   19.7320  -33.8812 H   0  0  0  0  0  0  0  0  0  0  0  0
   -9.5459   21.3007  -32.0646 H   0  0  0  0  0  0  0  0  0  0  0  0
   -9.1465   23.5556  -31.1074 H   0  0  0  0  0  0  0  0  0  0  0  0
   -6.8243   24.4080  -30.8672 H   0  0  0  0  0  0  0  0  0  0  0  0
   -3.4910   24.8810  -31.2130 H   0  0  0  0  0  0  0  0  0  0  0  0
   -5.1929   25.3030  -29.2578 H   0  0  0  0  0  0  0  0  0  0  0  0
   -5.0977   23.5066  -29.0845 H   0  0  0  0  0  0  0  0  0  0  0  0
   -3.3963   25.3827  -27.8794 H   0  0  0  0  0  0  0  0  0  0  0  0
   -3.1017   23.6083  -28.0546 H   0  0  0  0  0  0  0  0  0  0  0  0
   -0.1292   25.0570  -29.3261 H   0  0  0  0  0  0  0  0  0  0  0  0
   -1.0019   24.9596  -27.7478 H   0  0  0  0  0  0  0  0  0  0  0  0
    0.4227   22.8904  -28.8446 H   0  0  0  0  0  0  0  0  0  0  0  0
   -0.9976   22.7001  -27.7147 H   0  0  0  0  0  0  0  0  0  0  0  0
   -2.0970   22.8940  -30.1840 H   0  0  0  0  0  0  0  0  0  0  0  0
   -0.6245   22.3922  -31.6935 H   0  0  0  0  0  0  0  0  0  0  0  0
    0.5490   21.8533  -30.4062 H   0  0  0  0  0  0  0  0  0  0  0  0
   -0.8121   19.7066  -30.2498 H   0  0  0  0  0  0  0  0  0  0  0  0
   -1.6384   20.2226  -31.7590 H   0  0  0  0  0  0  0  0  0  0  0  0
    0.1348   19.9354  -31.7590 H   0  0  0  0  0  0  0  0  0  0  0  0
   -3.1918   21.1723  -29.5390 H   0  0  0  0  0  0  0  0  0  0  0  0
   -1.6369   20.2349  -29.2836 H   0  0  0  0  0  0  0  0  0  0  0  0
   -1.5879   20.6512  -27.0785 H   0  0  0  0  0  0  0  0  0  0  0  0
   -2.1638   22.3415  -27.2731 H   0  0  0  0  0  0  0  0  0  0  0  0
   -3.3421   20.9856  -27.2731 H   0  0  0  0  0  0  0  0  0  0  0  0
   -2.5037   22.7206  -32.0496 H   0  0  0  0  0  0  0  0  0  0  0  0
   -2.9412   20.5307  -33.1306 H   0  0  0  0  0  0  0  0  0  0  0  0
   -5.2516   19.6327  -33.2672 H   0  0  0  0  0  0  0  0  0  0  0  0
  1  2  1  0
  2  3  1  0
  3  4  2  0
  4  5  1  0
  5  6  2  0
  6  7  1  0
  7  8  2  0
  8  9  1  0
  9 10  1  0
 10 11  1  0
 11 12  1  0
 12 13  1  0
 13 14  1  0
 14 15  1  0
 15 16  1  0
 16 17  1  0
 15 18  1  0
 18 19  1  0
  8 20  1  0
 20 21  2  0
 21 22  1  0
 22 23  2  0
 23  3  1  0
 23  7  1  0
  1 24  1  0
  1 25  1  0
  1 26  1  0
  2 27  1  0
  2 28  1  0
  4 29  1  0
  5 30  1  0
  6 31  1  0
  9 32  1  0
 10 33  1  0
 10 34  1  0
 11 35  1  0
 11 36  1  0
 13 37  1  0
 13 38  1  0
 14 39  1  0
 14 40  1  0
 15 41  1  0
 16 42  1  0
 16 43  1  0
 17 44  1  0
 17 45  1  0
 17 46  1  0
 18 47  1  0
 18 48  1  0
 19 49  1  0
 19 50  1  0
 19 51  1  0
 20 52  1  0
 21 53  1  0
 22 54  1  0
M  CHG  2   3   1  15   1
M  END
>  <UniqueID>  (12) 
11

>  <SMILES>  (12) 
CC[n+]1cccc2c(NCCOCC[NH+](CC)CC)cccc21

>  <Energy>  (12) 
68.14478891458135

>  <Genealogy>  (12) 
CC[n+]1cccc2c(NCCOCC[NH+](CC)CC)cccc21 (protonated)
CC[n+]1cccc2c(NCCOCC[NH+](CC)CC)cccc21 (3D coordinates assigned)
CC[n+]1cccc2c(NCCOCC[NH+](CC)CC)cccc21 (optimized conformer: 68.14478891458135 kcal/mol)

>  <smiles>  (12) 
CCN(CC)CCOCCNc1cccc2c1ccc[n+]2CC

>  <score_type>  (12) 
oracle

>  <origin>  (12) 
adg

>  <m_score__min__energy>  (12) 
-6.2599999999999998

>  <m_primary>  (12) 
energy

$$$$
13:0
     RDKit          3D

 55 57  0  0  0  0  0  0  0  0999 V2000
   -6.2200   25.5830  -29.2770 C   0  0  0  0  0  0  0  0  0  0  0  0
   -5.3540   25.9000  -30.4920 C   0  0  0  0  0  0  0  0  0  0  0  0
   -4.8510   24.7020  -31.0840 O   0  0  0  0  0  0  0  0  0  0  0  0
   -5.5900   23.5290  -31.3130 C   0  0  0  0  0  0  0  0  0  0  0  0
   -4.8880   22.3300  -31.4510 C   0  0  0  0  0  0  0  0  0  0  0  0
   -5.5590   21.1280  -31.6790 C   0  0  0  0  0  0  0  0  0  0  0  0
   -6.9670   21.0930  -31.7710 C   0  0  0  0  0  0  0  0  0  0  0  0
   -7.6910   19.8880  -32.0090 C   0  0  0  0  0  0  0  0  0  0  0  0
   -7.0300   18.5360  -32.1870 C   0  0  0  0  0  0  0  0  0  0  0  0
   -6.4900   18.3290  -33.6090 C   0  0  0  0  0  0  0  0  0  0  0  0
   -5.8180   17.0130  -33.7390 N   0  0  0  0  0  0  0  0  0  0  0  0
   -5.0650   16.6110  -32.5220 C   0  0  0  0  0  0  0  0  0  0  0  0
   -3.5350   16.5470  -32.7200 C   0  0  0  0  0  0  0  0  0  0  0  0
   -3.0260   17.6530  -33.5600 N   0  0  0  0  0  0  0  0  0  0  0  0
   -2.8890   18.9260  -32.8140 C   0  0  0  0  0  0  0  0  0  0  0  0
   -3.1430   20.1220  -33.7340 C   0  0  0  0  0  0  0  0  0  0  0  0
   -2.5800   21.2820  -33.1590 O   0  0  0  0  0  0  0  0  0  0  0  0
   -1.5570   20.9120  -32.2640 C   0  0  0  0  0  0  0  0  0  0  0  0
   -3.7370   17.7900  -34.8580 C   0  0  0  0  0  0  0  0  0  0  0  0
   -5.0000   16.9170  -34.9630 C   0  0  0  0  0  0  0  0  0  0  0  0
   -9.0910   19.9440  -32.1320 C   0  0  0  0  0  0  0  0  0  0  0  0
   -9.7750   21.1500  -31.9970 C   0  0  0  0  0  0  0  0  0  0  0  0
   -9.0790   22.3270  -31.7460 C   0  0  0  0  0  0  0  0  0  0  0  0
   -7.6810   22.3140  -31.6360 C   0  0  0  0  0  0  0  0  0  0  0  0
   -6.9920   23.5160  -31.4030 C   0  0  0  0  0  0  0  0  0  0  0  0
   -5.6524   25.7908  -28.3579 H   0  0  0  0  0  0  0  0  0  0  0  0
   -7.1248   26.2082  -29.2984 H   0  0  0  0  0  0  0  0  0  0  0  0
   -6.5073   24.5214  -29.2984 H   0  0  0  0  0  0  0  0  0  0  0  0
   -5.9586   26.4423  -31.2339 H   0  0  0  0  0  0  0  0  0  0  0  0
   -4.5029   26.5162  -30.1666 H   0  0  0  0  0  0  0  0  0  0  0  0
   -3.7904   22.3330  -31.3790 H   0  0  0  0  0  0  0  0  0  0  0  0
   -4.9839   20.1967  -31.7883 H   0  0  0  0  0  0  0  0  0  0  0  0
   -6.1938   18.4558  -31.4768 H   0  0  0  0  0  0  0  0  0  0  0  0
   -7.7920   17.7643  -32.0029 H   0  0  0  0  0  0  0  0  0  0  0  0
   -7.3267   18.3770  -34.3215 H   0  0  0  0  0  0  0  0  0  0  0  0
   -5.7549   19.1191  -33.8219 H   0  0  0  0  0  0  0  0  0  0  0  0
   -5.2802   17.3393  -31.7263 H   0  0  0  0  0  0  0  0  0  0  0  0
   -5.3947   15.5931  -32.2667 H   0  0  0  0  0  0  0  0  0  0  0  0
   -3.0492   16.6001  -31.7345 H   0  0  0  0  0  0  0  0  0  0  0  0
   -3.3037   15.6027  -33.2345 H   0  0  0  0  0  0  0  0  0  0  0  0
   -3.6184   18.9424  -31.9907 H   0  0  0  0  0  0  0  0  0  0  0  0
   -1.8651   18.9955  -32.4181 H   0  0  0  0  0  0  0  0  0  0  0  0
   -2.6799   19.9362  -34.7143 H   0  0  0  0  0  0  0  0  0  0  0  0
   -4.2262   20.2637  -33.8629 H   0  0  0  0  0  0  0  0  0  0  0  0
   -1.9103   21.0398  -31.2302 H   0  0  0  0  0  0  0  0  0  0  0  0
   -1.2864   19.8590  -32.4315 H   0  0  0  0  0  0  0  0  0  0  0  0
   -0.6754   21.5482  -32.4315 H   0  0  0  0  0  0  0  0  0  0  0  0
   -4.0302   18.8426  -34.9847 H   0  0  0  0  0  0  0  0  0  0  0  0
   -3.0445   17.4516  -35.6428 H   0  0  0  0  0  0  0  0  0  0  0  0
   -5.5987   17.2540  -35.8221 H   0  0  0  0  0  0  0  0  0  0  0  0
   -4.6898   15.8697  -35.0935 H   0  0  0  0  0  0  0  0  0  0  0  0
   -9.6542   19.0218  -32.3379 H   0  0  0  0  0  0  0  0  0  0  0  0
  -10.8709   21.1711  -32.0894 H   0  0  0  0  0  0  0  0  0  0  0  0
   -9.6278   23.2736  -31.6331 H   0  0  0  0  0  0  0  0  0  0  0  0
   -7.5547   24.4544  -31.2901 H   0  0  0  0  0  0  0  0  0  0  0  0
  1  2  1  0
  2  3  1  0
  3  4  1  0
  4  5  2  0
  5  6  1  0
  6  7  2  0
  7  8  1  0
  8  9  1  0
  9 10  1  0
 10 11  1  0
 11 12  1  0
 12 13  1  0
 13 14  1  0
 14 15  1  0
 15 16  1  0
 16 17  1  0
 17 18  1  0
 14 19  1  0
 19 20  1  0
  8 21  2  0
 21 22  1  0
 22 23  2  0
 23 24  1  0
 24 25  2  0
 25  4  1  0
 24  7  1  0
 20 11  1  0
  1 26  1  0
  1 27  1  0
  1 28  1  0
  2 29  1  0
  2 30  1  0
  5 31  1  0
  6 32  1  0
  9 33  1  0
  9 34  1  0
 10 35  1  0
 10 36  1  0
 12 37  1  0
 12 38  1  0
 13 39  1  0
 13 40  1  0
 15 41  1  0
 15 42  1  0
 16 43  1  0
 16 44  1  0
 18 45  1  0
 18 46  1  0
 18 47  1  0
 19 48  1  0
 19 49  1  0
 20 50  1  0
 20 51  1  0
 21 52  1  0
 22 53  1  0
 23 54  1  0
 25 55  1  0
M  END
>  <UniqueID>  (13) 
12

>  <SMILES>  (13) 
CCOc1ccc2c(CCN3CCN(CCOC)CC3)cccc2c1

>  <Energy>  (13) 
73.89065745432761

>  <Genealogy>  (13) 
CCOc1ccc2c(CCN3CCN(CCOC)CC3)cccc2c1 (3D coordinates assigned)
CCOc1ccc2c(CCN3CCN(CCOC)CC3)cccc2c1 (nonaromatic ring conformer: 73.89065745432761 kcal/mol)

>  <smiles>  (13) 
CCOc1ccc2c(CCN3CCN(CCOC)CC3)cccc2c1

>  <score_type>  (13) 
oracle

>  <origin>  (13) 
adg

>  <m_score__min__energy>  (13) 
-8.2300000000000004

>  <m_primary>  (13) 
energy

$$$$
14:0
     RDKit          3D

 36 39  0  0  0  0  0  0  0  0999 V2000
   -9.4600   22.6420  -31.9660 C   0  0  0  0  0  0  0  0  0  0  0  0
   -8.6520   21.4690  -30.8370 S   0  0  0  0  0  0  0  0  0  0  0  0
   -7.3940   21.0150  -32.0360 C   0  0  0  0  0  0  0  0  0  0  0  0
   -7.4550   19.9360  -32.8870 C   0  0  0  0  0  0  0  0  0  0  0  0
   -6.2550   19.9340  -33.5250 C   0  0  0  0  0  0  0  0  0  0  0  0
   -5.4700   20.9370  -33.0930 N   0  0  0  0  0  0  0  0  0  0  0  0
   -6.1960   21.6290  -32.2200 N   0  0  0  0  0  0  0  0  0  0  0  0
   -5.6920   22.7890  -31.5400 C   0  0  0  0  0  0  0  0  0  0  0  0
   -4.4860   22.7060  -30.8280 C   0  0  0  0  0  0  0  0  0  0  0  0
   -3.9900   23.8230  -30.1480 C   0  0  0  0  0  0  0  0  0  0  0  0
   -4.7020   25.0250  -30.1620 C   0  0  0  0  0  0  0  0  0  0  0  0
   -5.9140   25.1100  -30.8500 C   0  0  0  0  0  0  0  0  0  0  0  0
   -6.4140   23.9950  -31.5330 C   0  0  0  0  0  0  0  0  0  0  0  0
   -5.8950   18.5730  -33.8310 C   0  0  0  0  0  0  0  0  0  0  0  0
   -4.7440   18.0330  -34.3910 C   0  0  0  0  0  0  0  0  0  0  0  0
   -4.6660   16.6320  -34.5080 C   0  0  0  0  0  0  0  0  0  0  0  0
   -3.4730   15.9920  -35.1520 C   0  0  0  0  0  0  0  0  0  0  0  0
   -5.7510   15.8380  -34.0640 C   0  0  0  0  0  0  0  0  0  0  0  0
   -6.8510   16.4160  -33.4960 N   0  0  0  0  0  0  0  0  0  0  0  0
   -6.9230   17.7660  -33.3830 C   0  0  0  0  0  0  0  0  0  0  0  0
   -8.0200   18.5550  -32.7180 C   0  0  0  0  0  0  0  0  0  0  0  0
   -9.9884   23.4092  -31.3810 H   0  0  0  0  0  0  0  0  0  0  0  0
   -8.7006   23.1229  -32.6001 H   0  0  0  0  0  0  0  0  0  0  0  0
  -10.1799   22.1039  -32.6001 H   0  0  0  0  0  0  0  0  0  0  0  0
   -3.9281   21.7583  -30.8045 H   0  0  0  0  0  0  0  0  0  0  0  0
   -3.0379   23.7550  -29.6013 H   0  0  0  0  0  0  0  0  0  0  0  0
   -4.3079   25.9041  -29.6312 H   0  0  0  0  0  0  0  0  0  0  0  0
   -6.4771   26.0550  -30.8554 H   0  0  0  0  0  0  0  0  0  0  0  0
   -7.3742   24.0628  -32.0655 H   0  0  0  0  0  0  0  0  0  0  0  0
   -3.9210   18.6784  -34.7317 H   0  0  0  0  0  0  0  0  0  0  0  0
   -2.7886   15.6249  -34.3730 H   0  0  0  0  0  0  0  0  0  0  0  0
   -3.8021   15.1493  -35.7778 H   0  0  0  0  0  0  0  0  0  0  0  0
   -2.9529   16.7322  -35.7778 H   0  0  0  0  0  0  0  0  0  0  0  0
   -5.7079   14.7447  -34.1775 H   0  0  0  0  0  0  0  0  0  0  0  0
   -8.9836   18.4379  -33.2354 H   0  0  0  0  0  0  0  0  0  0  0  0
   -8.2510   18.2628  -31.6830 H   0  0  0  0  0  0  0  0  0  0  0  0
  1  2  1  0
  2  3  1  0
  3  4  2  0
  4  5  1  0
  5  6  2  0
  6  7  1  0
  7  8  1  0
  8  9  2  0
  9 10  1  0
 10 11  2  0
 11 12  1  0
 12 13  2  0
  5 14  1  0
 14 15  2  0
 15 16  1  0
 16 17  1  0
 16 18  2  0
 18 19  1  0
 19 20  2  0
 20 21  1  0
  7  3  1  0
 13  8  1  0
 20 14  1  0
 21  4  1  0
  1 22  1  0
  1 23  1  0
  1 24  1  0
  9 25  1  0
 10 26  1  0
 11 27  1  0
 12 28  1  0
 13 29  1  0
 15 30  1  0
 17 31  1  0
 17 32  1  0
 17 33  1  0
 18 34  1  0
 21 35  1  0
 21 36  1  0
M  END
>  <UniqueID>  (14) 
13

>  <SMILES>  (14) 
CSc1c2c(nn1-c1ccccc1)-c1cc(C)cnc1C2

>  <Energy>  (14) 
113.9921326191412

>  <Genealogy>  (14) 
CSc1c2c(nn1-c1ccccc1)-c1cc(C)cnc1C2 (3D coordinates assigned)
CSc1c2c(nn1-c1ccccc1)-c1cc(C)cnc1C2 (nonaromatic ring conformer: 113.9921326191412 kcal/mol)

>  <smiles>  (14) 
CSc1c2c(nn1-c1ccccc1)-c1cc(C)cnc1C2

>  <score_type>  (14) 
oracle

>  <origin>  (14) 
adg

>  <m_score__min__energy>  (14) 
-8.3399999999999999

>  <m_primary>  (14) 
energy

$$$$
15:0
     RDKit          3D

 63 67  0  0  0  0  0  0  0  0999 V2000
   -5.3940   16.2480  -31.7480 C   0  0  0  0  0  0  0  0  0  0  0  0
   -5.2970   17.0420  -32.9710 N   0  0  0  0  0  0  0  0  0  0  0  0
   -4.3240   16.9380  -33.8980 C   0  0  0  0  0  0  0  0  0  0  0  0
   -4.5770   17.8000  -34.9440 C   0  0  0  0  0  0  0  0  0  0  0  0
   -5.7570   18.4530  -34.6460 C   0  0  0  0  0  0  0  0  0  0  0  0
   -6.1750   17.9640  -33.4220 C   0  0  0  0  0  0  0  0  0  0  0  0
   -7.4710   18.3380  -32.7470 C   0  0  0  0  0  0  0  0  0  0  0  0
   -8.0770   19.5390  -33.3460 N   0  0  0  0  0  0  0  0  0  0  0  0
   -7.8540   20.7090  -32.5290 C   0  0  0  0  0  0  0  0  0  0  0  0
   -8.9420   21.4220  -31.9960 C   0  0  0  0  0  0  0  0  0  0  0  0
   -8.7310   22.5730  -31.2350 C   0  0  0  0  0  0  0  0  0  0  0  0
   -7.4320   23.0330  -31.0010 C   0  0  0  0  0  0  0  0  0  0  0  0
   -7.2340   24.1590  -30.2630 N   0  0  0  0  0  0  0  0  0  0  0  0
   -5.9900   24.6450  -30.0170 C   0  0  0  0  0  0  0  0  0  0  0  0
   -4.8680   23.9930  -30.5270 C   0  0  0  0  0  0  0  0  0  0  0  0
   -5.0270   22.8310  -31.2910 C   0  0  0  0  0  0  0  0  0  0  0  0
   -3.8650   22.1760  -31.8130 N   0  0  0  0  0  0  0  0  0  0  0  0
   -2.7420   21.8970  -30.9090 C   0  0  0  0  0  0  0  0  0  0  0  0
   -1.5530   21.2970  -31.6660 C   0  0  0  0  0  0  0  0  0  0  0  0
   -2.0330   20.1370  -32.5610 C   0  0  0  0  0  0  0  0  0  0  0  0
   -0.8870   19.4390  -33.2690 C   0  0  0  0  0  0  0  0  0  0  0  0
   -0.5640   18.2850  -32.8710 O   0  0  0  0  0  0  0  0  0  0  0  0
   -0.1880   20.0070  -34.3960 N   0  0  0  0  0  0  0  0  0  0  0  0
   -0.0850   21.4250  -34.7050 C   0  0  0  0  0  0  0  0  0  0  0  0
    0.6140   21.5020  -36.0550 C   0  0  0  0  0  0  0  0  0  0  0  0
    1.3100   20.1570  -36.2360 C   0  0  0  0  0  0  0  0  0  0  0  0
    0.5750   19.1860  -35.3210 C   0  0  0  0  0  0  0  0  0  0  0  0
   -3.1750   20.5380  -33.5350 C   0  0  0  0  0  0  0  0  0  0  0  0
   -3.7580   21.9320  -33.2560 C   0  0  0  0  0  0  0  0  0  0  0  0
   -6.3240   22.3330  -31.5350 C   0  0  0  0  0  0  0  0  0  0  0  0
   -6.5480   21.1710  -32.2970 C   0  0  0  0  0  0  0  0  0  0  0  0
   -5.3131   16.9103  -30.8735 H   0  0  0  0  0  0  0  0  0  0  0  0
   -6.3625   15.7269  -31.7250 H   0  0  0  0  0  0  0  0  0  0  0  0
   -4.5794   15.5091  -31.7250 H   0  0  0  0  0  0  0  0  0  0  0  0
   -3.4565   16.2650  -33.8301 H   0  0  0  0  0  0  0  0  0  0  0  0
   -3.9583   17.9405  -35.8426 H   0  0  0  0  0  0  0  0  0  0  0  0
   -6.2638   19.2116  -35.2605 H   0  0  0  0  0  0  0  0  0  0  0  0
   -8.1761   17.4991  -32.8420 H   0  0  0  0  0  0  0  0  0  0  0  0
   -7.2539   18.5569  -31.6911 H   0  0  0  0  0  0  0  0  0  0  0  0
   -9.1090   19.3820  -33.4380 H   0  0  0  0  0  0  0  0  0  0  0  0
   -7.7010   19.6840  -34.3120 H   0  0  0  0  0  0  0  0  0  0  0  0
   -9.9678   21.0701  -32.1801 H   0  0  0  0  0  0  0  0  0  0  0  0
   -9.5897   23.1197  -30.8182 H   0  0  0  0  0  0  0  0  0  0  0  0
   -5.8671   25.5563  -29.4133 H   0  0  0  0  0  0  0  0  0  0  0  0
   -3.8615   24.3904  -30.3296 H   0  0  0  0  0  0  0  0  0  0  0  0
   -2.4254   22.8357  -30.4308 H   0  0  0  0  0  0  0  0  0  0  0  0
   -3.0762   21.1691  -30.1550 H   0  0  0  0  0  0  0  0  0  0  0  0
   -1.0898   22.0736  -32.2924 H   0  0  0  0  0  0  0  0  0  0  0  0
   -0.8175   20.9160  -30.9422 H   0  0  0  0  0  0  0  0  0  0  0  0
   -2.4766   19.4007  -31.8746 H   0  0  0  0  0  0  0  0  0  0  0  0
   -1.0855   21.8783  -34.7646 H   0  0  0  0  0  0  0  0  0  0  0  0
    0.4706   21.9708  -33.9282 H   0  0  0  0  0  0  0  0  0  0  0  0
   -0.1197   21.6655  -36.8581 H   0  0  0  0  0  0  0  0  0  0  0  0
    1.3281   22.3377  -36.0956 H   0  0  0  0  0  0  0  0  0  0  0  0
    1.2389   19.8262  -37.2827 H   0  0  0  0  0  0  0  0  0  0  0  0
    2.3801   20.2171  -35.9885 H   0  0  0  0  0  0  0  0  0  0  0  0
   -0.0987   18.5439  -35.9073 H   0  0  0  0  0  0  0  0  0  0  0  0
    1.2752   18.5247  -34.7895 H   0  0  0  0  0  0  0  0  0  0  0  0
   -2.7780   20.5257  -34.5608 H   0  0  0  0  0  0  0  0  0  0  0  0
   -3.9898   19.8126  -33.3940 H   0  0  0  0  0  0  0  0  0  0  0  0
   -3.1009   22.6930  -33.7021 H   0  0  0  0  0  0  0  0  0  0  0  0
   -4.7642   21.9867  -33.6971 H   0  0  0  0  0  0  0  0  0  0  0  0
   -5.6926   20.6197  -32.7146 H   0  0  0  0  0  0  0  0  0  0  0  0
  1  2  1  0
  2  3  1  0
  3  4  2  0
  4  5  1  0
  5  6  2  0
  6  7  1  0
  7  8  1  0
  8  9  1  0
  9 10  2  0
 10 11  1  0
 11 12  2  0
 12 13  1  0
 13 14  2  0
 14 15  1  0
 15 16  2  0
 16 17  1  0
 17 18  1  0
 18 19  1  0
 19 20  1  0
 20 21  1  0
 21 22  2  0
 21 23  1  0
 23 24  1  0
 24 25  1  0
 25 26  1  0
 26 27  1  0
 20 28  1  0
 28 29  1  0
 16 30  1  0
 30 31  2  0
  6  2  1  0
 31  9  1  0
 30 12  1  0
 29 17  1  0
 27 23  1  0
  1 32  1  0
  1 33  1  0
  1 34  1  0
  3 35  1  0
  4 36  1  0
  5 37  1  0
  7 38  1  0
  7 39  1  0
  8 40  1  0
  8 41  1  0
 10 42  1  0
 11 43  1  0
 14 44  1  0
 15 45  1  0
 18 46  1  0
 18 47  1  0
 19 48  1  0
 19 49  1  0
 20 50  1  0
 24 51  1  0
 24 52  1  0
 25 53  1  0
 25 54  1  0
 26 55  1  0
 26 56  1  0
 27 57  1  0
 27 58  1  0
 28 59  1  0
 28 60  1  0
 29 61  1  0
 29 62  1  0
 31 63  1  0
M  CHG  1   8   1
M  END
>  <UniqueID>  (15) 
14

>  <SMILES>  (15) 
Cn1cccc1C[NH2+]c1ccc2nccc(N3CCC(C(=O)N4CCCC4)CC3)c2c1

>  <Energy>  (15) 
103.76936644058681

>  <Genealogy>  (15) 
Cn1cccc1C[NH2+]c1ccc2nccc(N3CCC(C(=O)N4CCCC4)CC3)c2c1 (protonated)
Cn1cccc1C[NH2+]c1ccc2nccc(N3CCC(C(=O)N4CCCC4)CC3)c2c1 (3D coordinates assigned)
Cn1cccc1C[NH2+]c1ccc2nccc(N3CCC(C(=O)N4CCCC4)CC3)c2c1 (nonaromatic ring conformer: 103.76936644058681 kcal/mol)

>  <smiles>  (15) 
Cn1cccc1CNc1ccc2nccc(N3CCC(C(=O)N4CCCC4)CC3)c2c1

>  <score_type>  (15) 
oracle

>  <origin>  (15) 
adg

>  <m_score__min__energy>  (15) 
-8.9600000000000009

>  <m_primary>  (15) 
energy

$$$$
16:0
     RDKit          3D

 63 65  0  0  0  0  0  0  0  0999 V2000
   -1.1610   28.2460  -34.7680 C   0  0  0  0  0  0  0  0  0  0  0  0
   -1.5010   28.2750  -36.2640 C   0  0  0  0  0  0  0  0  0  0  0  0
   -1.2250   26.9720  -36.9280 N   0  0  1  0  0  0  0  0  0  0  0  0
   -0.9070   27.1430  -38.3610 C   0  0  0  0  0  0  0  0  0  0  0  0
   -0.1900   26.1760  -36.2120 C   0  0  0  0  0  0  0  0  0  0  0  0
    1.1640   26.0210  -36.9420 C   0  0  0  0  0  0  0  0  0  0  0  0
    1.4450   24.6740  -37.2790 O   0  0  0  0  0  0  0  0  0  0  0  0
    1.5510   23.8580  -36.1250 C   0  0  0  0  0  0  0  0  0  0  0  0
    0.3170   22.9710  -35.9490 C   0  0  0  0  0  0  0  0  0  0  0  0
    0.4680   22.1580  -34.8080 O   0  0  0  0  0  0  0  0  0  0  0  0
   -0.7850   21.9060  -34.3340 N   0  0  0  0  0  0  0  0  0  0  0  0
   -0.6530   20.9760  -33.2120 C   0  0  0  0  0  0  0  0  0  0  0  0
   -2.0020   20.7970  -32.5180 C   0  0  0  0  0  0  0  0  0  0  0  0
   -3.0930   21.0600  -33.4540 N   0  0  0  0  0  0  0  0  0  0  0  0
   -4.4500   20.7390  -33.1050 C   0  0  0  0  0  0  0  0  0  0  0  0
   -5.2380   21.6700  -32.4080 C   0  0  0  0  0  0  0  0  0  0  0  0
   -4.6750   22.8680  -31.9190 C   0  0  0  0  0  0  0  0  0  0  0  0
   -5.4430   23.7660  -31.1810 C   0  0  0  0  0  0  0  0  0  0  0  0
   -6.7750   23.4800  -30.9050 C   0  0  0  0  0  0  0  0  0  0  0  0
   -7.3540   22.3030  -31.3800 C   0  0  0  0  0  0  0  0  0  0  0  0
   -6.6080   21.3850  -32.1630 C   0  0  0  0  0  0  0  0  0  0  0  0
   -7.1750   20.2310  -32.6700 N   0  0  0  0  0  0  0  0  0  0  0  0
   -8.6460   20.0840  -32.6970 C   0  0  0  0  0  0  0  0  0  0  0  0
   -6.3670   19.2280  -33.1750 C   0  0  0  0  0  0  0  0  0  0  0  0
   -6.8700   17.9310  -33.4480 C   0  0  0  0  0  0  0  0  0  0  0  0
   -6.0570   16.9450  -34.0040 C   0  0  0  0  0  0  0  0  0  0  0  0
   -6.5640   15.7090  -34.2490 F   0  0  0  0  0  0  0  0  0  0  0  0
   -4.7220   17.2170  -34.2870 C   0  0  0  0  0  0  0  0  0  0  0  0
   -4.1900   18.4730  -34.0060 C   0  0  0  0  0  0  0  0  0  0  0  0
   -4.9910   19.4810  -33.4290 C   0  0  0  0  0  0  0  0  0  0  0  0
   -2.0872   28.3250  -34.1799 H   0  0  0  0  0  0  0  0  0  0  0  0
   -0.6523   27.3012  -34.5258 H   0  0  0  0  0  0  0  0  0  0  0  0
   -0.4997   29.0910  -34.5258 H   0  0  0  0  0  0  0  0  0  0  0  0
   -2.5687   28.5128  -36.3802 H   0  0  0  0  0  0  0  0  0  0  0  0
   -0.8672   29.0378  -36.7399 H   0  0  0  0  0  0  0  0  0  0  0  0
   -2.1000   26.3960  -36.8820 H   0  0  0  0  0  0  0  0  0  0  0  0
    0.0576   27.6617  -38.4632 H   0  0  0  0  0  0  0  0  0  0  0  0
   -0.8456   26.1563  -38.8433 H   0  0  0  0  0  0  0  0  0  0  0  0
   -1.6963   27.7383  -38.8433 H   0  0  0  0  0  0  0  0  0  0  0  0
    0.0019   26.6640  -35.2450 H   0  0  0  0  0  0  0  0  0  0  0  0
   -0.6013   25.1594  -36.1264 H   0  0  0  0  0  0  0  0  0  0  0  0
    1.1378   26.6181  -37.8655 H   0  0  0  0  0  0  0  0  0  0  0  0
    1.9543   26.3678  -36.2600 H   0  0  0  0  0  0  0  0  0  0  0  0
    2.4404   23.2178  -36.2206 H   0  0  0  0  0  0  0  0  0  0  0  0
    1.6325   24.5137  -35.2455 H   0  0  0  0  0  0  0  0  0  0  0  0
   -0.5737   23.6053  -35.8293 H   0  0  0  0  0  0  0  0  0  0  0  0
    0.2021   22.3311  -36.8363 H   0  0  0  0  0  0  0  0  0  0  0  0
   -1.3180   21.4030  -35.0830 H   0  0  0  0  0  0  0  0  0  0  0  0
   -0.3039   20.0021  -33.5857 H   0  0  0  0  0  0  0  0  0  0  0  0
    0.0721   21.3817  -32.4911 H   0  0  0  0  0  0  0  0  0  0  0  0
   -2.0843   19.7653  -32.1455 H   0  0  0  0  0  0  0  0  0  0  0  0
   -2.0703   21.5068  -31.6804 H   0  0  0  0  0  0  0  0  0  0  0  0
   -2.9150   21.6950  -34.2670 H   0  0  0  0  0  0  0  0  0  0  0  0
   -3.6182   23.0953  -32.1227 H   0  0  0  0  0  0  0  0  0  0  0  0
   -4.9950   24.7021  -30.8164 H   0  0  0  0  0  0  0  0  0  0  0  0
   -7.3748   24.1843  -30.3099 H   0  0  0  0  0  0  0  0  0  0  0  0
   -8.4056   22.0833  -31.1436 H   0  0  0  0  0  0  0  0  0  0  0  0
   -9.0296   20.0457  -31.6668 H   0  0  0  0  0  0  0  0  0  0  0  0
   -9.0907   20.9422  -33.2222 H   0  0  0  0  0  0  0  0  0  0  0  0
   -8.9121   19.1548  -33.2222 H   0  0  0  0  0  0  0  0  0  0  0  0
   -7.9201   17.6988  -33.2170 H   0  0  0  0  0  0  0  0  0  0  0  0
   -4.0858   16.4386  -34.7334 H   0  0  0  0  0  0  0  0  0  0  0  0
   -3.1347   18.6813  -34.2362 H   0  0  0  0  0  0  0  0  0  0  0  0
  1  2  1  0
  2  3  1  0
  3  4  1  0
  3  5  1  0
  5  6  1  0
  6  7  1  0
  7  8  1  0
  8  9  1  0
  9 10  1  0
 10 11  1  0
 11 12  1  0
 12 13  1  0
 13 14  1  0
 14 15  1  0
 15 16  2  0
 16 17  1  0
 17 18  2  0
 18 19  1  0
 19 20  2  0
 20 21  1  0
 21 22  2  0
 22 23  1  0
 22 24  1  0
 24 25  2  0
 25 26  1  0
 26 27  1  0
 26 28  2  0
 28 29  1  0
 29 30  2  0
 30 15  1  0
 21 16  1  0
 30 24  1  0
  1 31  1  0
  1 32  1  0
  1 33  1  0
  2 34  1  0
  2 35  1  0
  3 36  1  6
  4 37  1  0
  4 38  1  0
  4 39  1  0
  5 40  1  0
  5 41  1  0
  6 42  1  0
  6 43  1  0
  8 44  1  0
  8 45  1  0
  9 46  1  0
  9 47  1  0
 11 48  1  0
 12 49  1  0
 12 50  1  0
 13 51  1  0
 13 52  1  0
 14 53  1  0
 17 54  1  0
 18 55  1  0
 19 56  1  0
 20 57  1  0
 23 58  1  0
 23 59  1  0
 23 60  1  0
 25 61  1  0
 28 62  1  0
 29 63  1  0
M  CHG  2   3   1  22   1
M  END
>  <UniqueID>  (16) 
15

>  <SMILES>  (16) 
CC[N@@H+](C)CCOCCONCCNc1c2ccccc2[n+](C)c2cc(F)ccc12

>  <Energy>  (16) 
91.79454973303979

>  <Genealogy>  (16) 
CC[NH+](C)CCOCCONCCNc1c2ccccc2[n+](C)c2cc(F)ccc12 (protonated)
CC[N@@H+](C)CCOCCONCCNc1c2ccccc2[n+](C)c2cc(F)ccc12 (chirality)
CC[N@@H+](C)CCOCCONCCNc1c2ccccc2[n+](C)c2cc(F)ccc12 (3D coordinates assigned)
CC[N@@H+](C)CCOCCONCCNc1c2ccccc2[n+](C)c2cc(F)ccc12 (optimized conformer: 91.79454973303979 kcal/mol)

>  <smiles>  (16) 
CCN(C)CCOCCONCCNc1c2ccccc2[n+](C)c2cc(F)ccc12

>  <score_type>  (16) 
oracle

>  <origin>  (16) 
adg

>  <m_score__min__energy>  (16) 
-9.9000000000000004

>  <m_primary>  (16) 
energy

$$$$
17:0
     RDKit          3D

 42 43  0  0  0  0  0  0  0  0999 V2000
   -5.7730   25.0100  -29.4670 C   0  0  0  0  0  0  0  0  0  0  0  0
   -5.4260   25.2490  -30.9320 C   0  0  0  0  0  0  0  0  0  0  0  0
   -5.1770   24.0140  -31.6010 O   0  0  0  0  0  0  0  0  0  0  0  0
   -6.0870   22.9500  -31.7450 C   0  0  0  0  0  0  0  0  0  0  0  0
   -7.4180   23.0440  -31.2880 C   0  0  0  0  0  0  0  0  0  0  0  0
   -8.3020   21.9780  -31.4610 C   0  0  0  0  0  0  0  0  0  0  0  0
   -7.8800   20.8100  -32.0970 C   0  0  0  0  0  0  0  0  0  0  0  0
   -9.1000   19.3630  -32.3460 Br  0  0  0  0  0  0  0  0  0  0  0  0
   -6.5630   20.7000  -32.5490 C   0  0  0  0  0  0  0  0  0  0  0  0
   -5.6520   21.7540  -32.3590 C   0  0  0  0  0  0  0  0  0  0  0  0
   -4.2240   21.6010  -32.8550 C   0  0  0  0  0  0  0  0  0  0  0  0
   -3.2230   22.1860  -31.9380 N   0  0  0  0  0  0  0  0  0  0  0  0
   -3.2190   21.6170  -30.5760 C   0  0  0  0  0  0  0  0  0  0  0  0
   -3.1190   22.6670  -29.4910 C   0  0  0  0  0  0  0  0  0  0  0  0
   -3.7620   22.4830  -28.2560 C   0  0  0  0  0  0  0  0  0  0  0  0
   -3.6540   23.4530  -27.2570 C   0  0  0  0  0  0  0  0  0  0  0  0
   -2.9180   24.6180  -27.4850 C   0  0  0  0  0  0  0  0  0  0  0  0
   -2.2940   24.8330  -28.7190 C   0  0  0  0  0  0  0  0  0  0  0  0
   -1.5770   26.0250  -28.9050 O   0  0  0  0  0  0  0  0  0  0  0  0
   -0.8270   26.6800  -27.8870 C   0  0  0  0  0  0  0  0  0  0  0  0
   -2.4020   23.8530  -29.7240 C   0  0  0  0  0  0  0  0  0  0  0  0
   -5.0356   25.5179  -28.8280 H   0  0  0  0  0  0  0  0  0  0  0  0
   -6.7763   25.4095  -29.2579 H   0  0  0  0  0  0  0  0  0  0  0  0
   -5.7574   23.9302  -29.2579 H   0  0  0  0  0  0  0  0  0  0  0  0
   -6.2662   25.7621  -31.4227 H   0  0  0  0  0  0  0  0  0  0  0  0
   -4.5177   25.8674  -30.9831 H   0  0  0  0  0  0  0  0  0  0  0  0
   -7.7616   23.9637  -30.7919 H   0  0  0  0  0  0  0  0  0  0  0  0
   -9.3359   22.0590  -31.0944 H   0  0  0  0  0  0  0  0  0  0  0  0
   -6.2358   19.7813  -33.0578 H   0  0  0  0  0  0  0  0  0  0  0  0
   -4.0073   20.5288  -32.9711 H   0  0  0  0  0  0  0  0  0  0  0  0
   -4.1496   22.1434  -33.8091 H   0  0  0  0  0  0  0  0  0  0  0  0
   -3.3940   23.2160  -31.8790 H   0  0  0  0  0  0  0  0  0  0  0  0
   -2.2690   22.0640  -32.3490 H   0  0  0  0  0  0  0  0  0  0  0  0
   -4.1515   21.0519  -30.4306 H   0  0  0  0  0  0  0  0  0  0  0  0
   -2.3294   20.9754  -30.4927 H   0  0  0  0  0  0  0  0  0  0  0  0
   -4.3522   21.5725  -28.0751 H   0  0  0  0  0  0  0  0  0  0  0  0
   -4.1502   23.2990  -26.2874 H   0  0  0  0  0  0  0  0  0  0  0  0
   -2.8282   25.3718  -26.6890 H   0  0  0  0  0  0  0  0  0  0  0  0
   -1.1923   26.3610  -26.8997 H   0  0  0  0  0  0  0  0  0  0  0  0
    0.2361   26.4160  -27.9875 H   0  0  0  0  0  0  0  0  0  0  0  0
   -0.9455   27.7690  -27.9875 H   0  0  0  0  0  0  0  0  0  0  0  0
   -1.9212   24.0170  -30.6997 H   0  0  0  0  0  0  0  0  0  0  0  0
  1  2  1  0
  2  3  1  0
  3  4  1  0
  4  5  2  0
  5  6  1  0
  6  7  2  0
  7  8  1  0
  7  9  1  0
  9 10  2  0
 10 11  1  0
 11 12  1  0
 12 13  1  0
 13 14  1  0
 14 15  2  0
 15 16  1  0
 16 17  2  0
 17 18  1  0
 18 19  1  0
 19 20  1  0
 18 21  2  0
 10  4  1  0
 21 14  1  0
  1 22  1  0
  1 23  1  0
  1 24  1  0
  2 25  1  0
  2 26  1  0
  5 27  1  0
  6 28  1  0
  9 29  1  0
 11 30  1  0
 11 31  1  0
 12 32  1  0
 12 33  1  0
 13 34  1  0
 13 35  1  0
 15 36  1  0
 16 37  1  0
 17 38  1  0
 20 39  1  0
 20 40  1  0
 20 41  1  0
 21 42  1  0
M  CHG  1  12   1
M  END
>  <UniqueID>  (17) 
16

>  <SMILES>  (17) 
CCOc1ccc(Br)cc1C[NH2+]Cc1cccc(OC)c1

>  <Energy>  (17) 
38.962717395761246

>  <Genealogy>  (17) 
CCOc1ccc(Br)cc1C[NH2+]Cc1cccc(OC)c1 (protonated)
CCOc1ccc(Br)cc1C[NH2+]Cc1cccc(OC)c1 (3D coordinates assigned)
CCOc1ccc(Br)cc1C[NH2+]Cc1cccc(OC)c1 (optimized conformer: 38.962717395761246 kcal/mol)

>  <smiles>  (17) 
CCOc1ccc(Br)cc1CNCc1cccc(OC)c1

>  <score_type>  (17) 
oracle

>  <origin>  (17) 
adg

>  <m_score__min__energy>  (17) 
-7.6799999999999997

>  <m_primary>  (17) 
energy

$$$$
18:0
     RDKit          3D

 41 43  0  0  0  0  0  0  0  0999 V2000
   -3.4260   24.1820  -27.4760 C   0  0  0  0  0  0  0  0  0  0  0  0
   -2.4320   24.5230  -28.5780 C   0  0  0  0  0  0  0  0  0  0  0  0
   -3.1050   25.0430  -29.7240 O   0  0  0  0  0  0  0  0  0  0  0  0
   -4.3400   24.5950  -30.2240 C   0  0  0  0  0  0  0  0  0  0  0  0
   -5.5560   25.2540  -29.9600 C   0  0  0  0  0  0  0  0  0  0  0  0
   -6.7520   24.7670  -30.4950 C   0  0  0  0  0  0  0  0  0  0  0  0
   -6.7540   23.6190  -31.3010 C   0  0  0  0  0  0  0  0  0  0  0  0
   -8.0400   23.0870  -31.8790 C   0  0  0  0  0  0  0  0  0  0  0  0
   -8.7330   22.2130  -30.9170 N   0  0  0  0  0  0  0  0  0  0  0  0
   -9.5540   21.1870  -31.5760 C   0  0  0  0  0  0  0  0  0  0  0  0
   -8.7150   20.0170  -31.9870 C   0  0  0  0  0  0  0  0  0  0  0  0
   -9.0150   18.6840  -31.7930 C   0  0  0  0  0  0  0  0  0  0  0  0
   -8.0500   17.9760  -32.3380 O   0  0  0  0  0  0  0  0  0  0  0  0
   -7.1830   18.8240  -32.8500 C   0  0  0  0  0  0  0  0  0  0  0  0
   -5.9620   18.4160  -33.5530 C   0  0  0  0  0  0  0  0  0  0  0  0
   -5.8520   17.3440  -34.4290 C   0  0  0  0  0  0  0  0  0  0  0  0
   -4.5620   17.1920  -34.9530 C   0  0  0  0  0  0  0  0  0  0  0  0
   -3.6570   18.1390  -34.4910 C   0  0  0  0  0  0  0  0  0  0  0  0
   -4.4620   19.1670  -33.4300 S   0  0  0  0  0  0  0  0  0  0  0  0
   -7.5530   20.1050  -32.6550 N   0  0  0  0  0  0  0  0  0  0  0  0
   -5.5400   22.9690  -31.5710 C   0  0  0  0  0  0  0  0  0  0  0  0
   -4.3460   23.4510  -31.0310 C   0  0  0  0  0  0  0  0  0  0  0  0
   -2.9554   24.3434  -26.4949 H   0  0  0  0  0  0  0  0  0  0  0  0
   -4.3118   24.8277  -27.5685 H   0  0  0  0  0  0  0  0  0  0  0  0
   -3.7289   23.1286  -27.5685 H   0  0  0  0  0  0  0  0  0  0  0  0
   -1.7228   25.2759  -28.2037 H   0  0  0  0  0  0  0  0  0  0  0  0
   -1.8987   23.6057  -28.8682 H   0  0  0  0  0  0  0  0  0  0  0  0
   -5.5648   26.1558  -29.3301 H   0  0  0  0  0  0  0  0  0  0  0  0
   -7.6976   25.2873  -30.2826 H   0  0  0  0  0  0  0  0  0  0  0  0
   -8.6962   23.9324  -32.1335 H   0  0  0  0  0  0  0  0  0  0  0  0
   -7.8018   22.4980  -32.7770 H   0  0  0  0  0  0  0  0  0  0  0  0
   -7.9930   21.7120  -30.3700 H   0  0  0  0  0  0  0  0  0  0  0  0
  -10.3324   20.8450  -30.8780 H   0  0  0  0  0  0  0  0  0  0  0  0
  -10.0114   21.6257  -32.4751 H   0  0  0  0  0  0  0  0  0  0  0  0
   -9.9007   18.2859  -31.2762 H   0  0  0  0  0  0  0  0  0  0  0  0
   -6.6922   16.6819  -34.6852 H   0  0  0  0  0  0  0  0  0  0  0  0
   -4.2910   16.3973  -35.6637 H   0  0  0  0  0  0  0  0  0  0  0  0
   -2.5953   18.2055  -34.7710 H   0  0  0  0  0  0  0  0  0  0  0  0
   -7.0620   20.9710  -32.9680 H   0  0  0  0  0  0  0  0  0  0  0  0
   -5.5290   22.0748  -32.2116 H   0  0  0  0  0  0  0  0  0  0  0  0
   -3.4018   22.9273  -31.2415 H   0  0  0  0  0  0  0  0  0  0  0  0
  1  2  1  0
  2  3  1  0
  3  4  1  0
  4  5  2  0
  5  6  1  0
  6  7  2  0
  7  8  1  0
  8  9  1  0
  9 10  1  0
 10 11  1  0
 11 12  2  0
 12 13  1  0
 13 14  1  0
 14 15  1  0
 15 16  2  0
 16 17  1  0
 17 18  2  0
 18 19  1  0
 14 20  2  0
  7 21  1  0
 21 22  2  0
 22  4  1  0
 20 11  1  0
 19 15  1  0
  1 23  1  0
  1 24  1  0
  1 25  1  0
  2 26  1  0
  2 27  1  0
  5 28  1  0
  6 29  1  0
  8 30  1  0
  8 31  1  0
  9 32  1  0
 10 33  1  0
 10 34  1  0
 12 35  1  0
 16 36  1  0
 17 37  1  0
 18 38  1  0
 20 39  1  0
 21 40  1  0
 22 41  1  0
M  CHG  1  20   1
M  END
>  <UniqueID>  (18) 
17

>  <SMILES>  (18) 
CCOc1ccc(CNCc2coc(-c3cccs3)[nH+]2)cc1

>  <Energy>  (18) 
90.68655725099023

>  <Genealogy>  (18) 
CCOc1ccc(CNCc2coc(-c3cccs3)[nH+]2)cc1 (protonated)
CCOc1ccc(CNCc2coc(-c3cccs3)[nH+]2)cc1 (3D coordinates assigned)
CCOc1ccc(CNCc2coc(-c3cccs3)[nH+]2)cc1 (optimized conformer: 90.68655725099023 kcal/mol)

>  <smiles>  (18) 
CCOc1ccc(CNCc2coc(-c3cccs3)n2)cc1

>  <score_type>  (18) 
oracle

>  <origin>  (18) 
adg

>  <m_score__min__energy>  (18) 
-7.4100000000000001

>  <m_primary>  (18) 
energy

$$$$
19:0
     RDKit          3D

 75 78  0  0  0  0  0  0  0  0999 V2000
   -1.0400   17.8460  -33.4040 C   0  0  0  0  0  0  0  0  0  0  0  0
   -1.0520   18.6080  -32.0840 C   0  0  0  0  0  0  0  0  0  0  0  0
   -0.7850   20.0430  -32.3330 N   0  0  0  0  0  0  0  0  0  0  0  0
    0.5710   20.4500  -31.8830 C   0  0  0  0  0  0  0  0  0  0  0  0
    1.4130   19.3090  -31.2880 C   0  0  0  0  0  0  0  0  0  0  0  0
   -1.1260   20.4410  -33.7180 C   0  0  0  0  0  0  0  0  0  0  0  0
   -2.4640   21.1900  -33.7870 C   0  0  0  0  0  0  0  0  0  0  0  0
   -3.0410   21.3380  -32.4520 N   0  0  0  0  0  0  0  0  0  0  0  0
   -4.4400   21.1060  -32.2130 C   0  0  0  0  0  0  0  0  0  0  0  0
   -5.0150   19.8950  -32.6310 C   0  0  0  0  0  0  0  0  0  0  0  0
   -4.2100   18.8370  -33.1060 C   0  0  0  0  0  0  0  0  0  0  0  0
   -4.7790   17.6260  -33.4900 C   0  0  0  0  0  0  0  0  0  0  0  0
   -6.1530   17.4410  -33.3970 C   0  0  0  0  0  0  0  0  0  0  0  0
   -6.8600   15.8970  -33.8420 Cl  0  0  0  0  0  0  0  0  0  0  0  0
   -6.9700   18.4790  -32.9440 C   0  0  0  0  0  0  0  0  0  0  0  0
   -6.4220   19.7360  -32.5840 C   0  0  0  0  0  0  0  0  0  0  0  0
   -7.2210   20.7930  -32.1930 N   0  0  0  0  0  0  0  0  0  0  0  0
   -8.6760   20.7530  -32.4590 C   0  0  0  0  0  0  0  0  0  0  0  0
   -6.6580   21.8900  -31.5690 C   0  0  0  0  0  0  0  0  0  0  0  0
   -7.4630   22.8370  -30.8900 C   0  0  0  0  0  0  0  0  0  0  0  0
   -6.9010   23.9510  -30.2780 C   0  0  0  0  0  0  0  0  0  0  0  0
   -5.5290   24.1400  -30.2900 C   0  0  0  0  0  0  0  0  0  0  0  0
   -4.6810   23.2050  -30.9070 C   0  0  0  0  0  0  0  0  0  0  0  0
   -3.2820   23.3410  -30.8320 O   0  0  0  0  0  0  0  0  0  0  0  0
   -2.4490   22.9950  -29.7260 C   0  0  0  0  0  0  0  0  0  0  0  0
   -3.1310   22.0070  -28.7450 C   0  0  0  0  0  0  0  0  0  0  0  0
   -2.2180   21.1250  -27.9350 N   0  0  0  0  0  0  0  0  0  0  0  0
   -1.6300   21.9130  -26.8150 C   0  0  0  0  0  0  0  0  0  0  0  0
   -3.0730   20.0370  -27.3630 C   0  0  0  0  0  0  0  0  0  0  0  0
   -2.2900   18.9820  -26.5480 C   0  0  0  0  0  0  0  0  0  0  0  0
   -0.9000   18.6810  -27.1200 C   0  0  0  0  0  0  0  0  0  0  0  0
   -0.8170   19.0610  -28.5900 C   0  0  0  0  0  0  0  0  0  0  0  0
   -1.1320   20.5550  -28.8130 C   0  0  0  0  0  0  0  0  0  0  0  0
   -5.2450   22.0780  -31.5750 C   0  0  0  0  0  0  0  0  0  0  0  0
   -1.0230   16.7647  -33.2030 H   0  0  0  0  0  0  0  0  0  0  0  0
   -1.9422   18.0976  -33.9808 H   0  0  0  0  0  0  0  0  0  0  0  0
   -0.1462   18.1259  -33.9808 H   0  0  0  0  0  0  0  0  0  0  0  0
   -2.0368   18.4969  -31.6067 H   0  0  0  0  0  0  0  0  0  0  0  0
   -0.2726   18.2022  -31.4223 H   0  0  0  0  0  0  0  0  0  0  0  0
    1.1115   20.8610  -32.7484 H   0  0  0  0  0  0  0  0  0  0  0  0
    0.4265   21.1857  -31.0781 H   0  0  0  0  0  0  0  0  0  0  0  0
    1.3755   19.3598  -30.1898 H   0  0  0  0  0  0  0  0  0  0  0  0
    1.0102   18.3422  -31.6243 H   0  0  0  0  0  0  0  0  0  0  0  0
    2.4556   19.4088  -31.6243 H   0  0  0  0  0  0  0  0  0  0  0  0
   -0.3317   21.0961  -34.1052 H   0  0  0  0  0  0  0  0  0  0  0  0
   -1.2166   19.5263  -34.3223 H   0  0  0  0  0  0  0  0  0  0  0  0
   -2.2981   22.1868  -34.2216 H   0  0  0  0  0  0  0  0  0  0  0  0
   -3.1612   20.6131  -34.4124 H   0  0  0  0  0  0  0  0  0  0  0  0
   -2.4150   21.5560  -31.6450 H   0  0  0  0  0  0  0  0  0  0  0  0
   -3.1203   18.9712  -33.1735 H   0  0  0  0  0  0  0  0  0  0  0  0
   -4.1399   16.8142  -33.8677 H   0  0  0  0  0  0  0  0  0  0  0  0
   -8.0554   18.3189  -32.8653 H   0  0  0  0  0  0  0  0  0  0  0  0
   -9.2229   20.7380  -31.5047 H   0  0  0  0  0  0  0  0  0  0  0  0
   -8.9681   21.6435  -33.0350 H   0  0  0  0  0  0  0  0  0  0  0  0
   -8.9187   19.8478  -33.0350 H   0  0  0  0  0  0  0  0  0  0  0  0
   -8.5520   22.6882  -30.8463 H   0  0  0  0  0  0  0  0  0  0  0  0
   -7.5498   24.6872  -29.7810 H   0  0  0  0  0  0  0  0  0  0  0  0
   -5.0985   25.0319  -29.8112 H   0  0  0  0  0  0  0  0  0  0  0  0
   -1.5296   22.5295  -30.1108 H   0  0  0  0  0  0  0  0  0  0  0  0
   -2.2367   23.9199  -29.1697 H   0  0  0  0  0  0  0  0  0  0  0  0
   -3.7348   22.5986  -28.0411 H   0  0  0  0  0  0  0  0  0  0  0  0
   -3.7103   21.3205  -29.3799 H   0  0  0  0  0  0  0  0  0  0  0  0
   -1.9514   21.4822  -25.8553 H   0  0  0  0  0  0  0  0  0  0  0  0
   -0.5325   21.8821  -26.8815 H   0  0  0  0  0  0  0  0  0  0  0  0
   -1.9721   22.9563  -26.8815 H   0  0  0  0  0  0  0  0  0  0  0  0
   -3.8223   20.4976  -26.7024 H   0  0  0  0  0  0  0  0  0  0  0  0
   -3.5257   19.5082  -28.2147 H   0  0  0  0  0  0  0  0  0  0  0  0
   -2.1710   19.3536  -25.5195 H   0  0  0  0  0  0  0  0  0  0  0  0
   -2.8674   18.0465  -26.5874 H   0  0  0  0  0  0  0  0  0  0  0  0
   -0.1486   19.2549  -26.5579 H   0  0  0  0  0  0  0  0  0  0  0  0
   -0.7114   17.6012  -27.0279 H   0  0  0  0  0  0  0  0  0  0  0  0
    0.1996   18.8529  -28.9550 H   0  0  0  0  0  0  0  0  0  0  0  0
   -1.5628   18.4680  -29.1397 H   0  0  0  0  0  0  0  0  0  0  0  0
   -0.2109   21.1273  -28.6284 H   0  0  0  0  0  0  0  0  0  0  0  0
   -1.5031   20.6358  -29.8454 H   0  0  0  0  0  0  0  0  0  0  0  0
  1  2  1  0
  2  3  1  0
  3  4  1  0
  4  5  1  0
  3  6  1  0
  6  7  1  0
  7  8  1  0
  8  9  1  0
  9 10  2  0
 10 11  1  0
 11 12  2  0
 12 13  1  0
 13 14  1  0
 13 15  2  0
 15 16  1  0
 16 17  2  0
 17 18  1  0
 17 19  1  0
 19 20  2  0
 20 21  1  0
 21 22  2  0
 22 23  1  0
 23 24  1  0
 24 25  1  0
 25 26  1  0
 26 27  1  0
 27 28  1  0
 27 29  1  0
 29 30  1  0
 30 31  1  0
 31 32  1  0
 32 33  1  0
 23 34  2  0
 34  9  1  0
 16 10  1  0
 34 19  1  0
 33 27  1  0
  1 35  1  0
  1 36  1  0
  1 37  1  0
  2 38  1  0
  2 39  1  0
  4 40  1  0
  4 41  1  0
  5 42  1  0
  5 43  1  0
  5 44  1  0
  6 45  1  0
  6 46  1  0
  7 47  1  0
  7 48  1  0
  8 49  1  0
 11 50  1  0
 12 51  1  0
 15 52  1  0
 18 53  1  0
 18 54  1  0
 18 55  1  0
 20 56  1  0
 21 57  1  0
 22 58  1  0
 25 59  1  0
 25 60  1  0
 26 61  1  0
 26 62  1  0
 28 63  1  0
 28 64  1  0
 28 65  1  0
 29 66  1  0
 29 67  1  0
 30 68  1  0
 30 69  1  0
 31 70  1  0
 31 71  1  0
 32 72  1  0
 32 73  1  0
 33 74  1  0
 33 75  1  0
M  CHG  2  17   1  27   1
M  END
>  <UniqueID>  (19) 
18

>  <SMILES>  (19) 
CCN(CC)CCNc1c2ccc(Cl)cc2[n+](C)c2cccc(OCC[N+]3(C)CCCCC3)c12

>  <Energy>  (19) 
123.45462497737594

>  <Genealogy>  (19) 
CCN(CC)CCNc1c2ccc(Cl)cc2[n+](C)c2cccc(OCC[N+]3(C)CCCCC3)c12 (3D coordinates assigned)
CCN(CC)CCNc1c2ccc(Cl)cc2[n+](C)c2cccc(OCC[N+]3(C)CCCCC3)c12 (nonaromatic ring conformer: 123.45462497737594 kcal/mol)

>  <smiles>  (19) 
CCN(CC)CCNc1c2ccc(Cl)cc2[n+](C)c2cccc(OCC[N+]3(C)CCCCC3)c12

>  <score_type>  (19) 
oracle

>  <origin>  (19) 
adg

>  <m_score__min__energy>  (19) 
-8.0700000000000003

>  <m_primary>  (19) 
energy

$$$$
20:0
     RDKit          3D

 51 53  0  0  0  0  0  0  0  0999 V2000
   -6.2570   25.3000  -29.5450 C   0  0  0  0  0  0  0  0  0  0  0  0
   -5.3630   25.2700  -30.7790 C   0  0  0  0  0  0  0  0  0  0  0  0
   -4.0380   24.9230  -30.4170 O   0  0  0  0  0  0  0  0  0  0  0  0
   -4.0160   24.3140  -29.1430 C   0  0  0  0  0  0  0  0  0  0  0  0
   -3.9450   22.8000  -29.3150 C   0  0  0  0  0  0  0  0  0  0  0  0
   -4.5480   22.4190  -30.5370 O   0  0  0  0  0  0  0  0  0  0  0  0
   -3.5720   22.2750  -31.5490 C   0  0  0  0  0  0  0  0  0  0  0  0
   -4.2580   22.1450  -32.9080 C   0  0  0  0  0  0  0  0  0  0  0  0
   -5.1310   20.9660  -32.9390 N   0  0  0  0  0  0  0  0  0  0  0  0
   -4.8450   19.7290  -33.4290 C   0  0  0  0  0  0  0  0  0  0  0  0
   -5.9370   18.8820  -33.3020 C   0  0  0  0  0  0  0  0  0  0  0  0
   -6.9450   19.6520  -32.7550 C   0  0  0  0  0  0  0  0  0  0  0  0
   -8.2710   19.3430  -32.4460 C   0  0  0  0  0  0  0  0  0  0  0  0
   -9.0750   20.3600  -31.9060 C   0  0  0  0  0  0  0  0  0  0  0  0
   -8.5490   21.6520  -31.6930 C   0  0  0  0  0  0  0  0  0  0  0  0
   -7.2110   21.9380  -32.0170 C   0  0  0  0  0  0  0  0  0  0  0  0
   -6.4250   20.9090  -32.5470 C   0  0  0  0  0  0  0  0  0  0  0  0
   -6.0000   17.4460  -33.7660 C   0  0  0  0  0  0  0  0  0  0  0  0
   -4.9830   16.5460  -33.1550 N   0  0  0  0  0  0  0  0  0  0  0  0
   -5.4170   15.1420  -33.0880 C   0  0  0  0  0  0  0  0  0  0  0  0
   -3.5680   16.7050  -33.5670 C   0  0  0  0  0  0  0  0  0  0  0  0
   -2.9490   18.0870  -33.2390 C   0  0  0  0  0  0  0  0  0  0  0  0
   -3.5390   19.2770  -34.0160 C   0  0  0  0  0  0  0  0  0  0  0  0
   -5.6329   25.2791  -28.6395 H   0  0  0  0  0  0  0  0  0  0  0  0
   -6.8616   26.2189  -29.5525 H   0  0  0  0  0  0  0  0  0  0  0  0
   -6.9218   24.4237  -29.5525 H   0  0  0  0  0  0  0  0  0  0  0  0
   -5.7514   24.5266  -31.4907 H   0  0  0  0  0  0  0  0  0  0  0  0
   -5.3581   26.2678  -31.2421 H   0  0  0  0  0  0  0  0  0  0  0  0
   -3.1358   24.6628  -28.5831 H   0  0  0  0  0  0  0  0  0  0  0  0
   -4.9274   24.5817  -28.5883 H   0  0  0  0  0  0  0  0  0  0  0  0
   -2.8916   22.4832  -29.3151 H   0  0  0  0  0  0  0  0  0  0  0  0
   -4.4815   22.3185  -28.4841 H   0  0  0  0  0  0  0  0  0  0  0  0
   -2.9159   23.1579  -31.5531 H   0  0  0  0  0  0  0  0  0  0  0  0
   -2.9739   21.3726  -31.3539 H   0  0  0  0  0  0  0  0  0  0  0  0
   -4.8611   23.0456  -33.0954 H   0  0  0  0  0  0  0  0  0  0  0  0
   -3.4863   22.0334  -33.6839 H   0  0  0  0  0  0  0  0  0  0  0  0
   -8.6735   18.3342  -32.6201 H   0  0  0  0  0  0  0  0  0  0  0  0
  -10.1228   20.1478  -31.6471 H   0  0  0  0  0  0  0  0  0  0  0  0
   -9.1897   22.4403  -31.2709 H   0  0  0  0  0  0  0  0  0  0  0  0
   -6.7936   22.9433  -31.8581 H   0  0  0  0  0  0  0  0  0  0  0  0
   -6.9971   17.0511  -33.5216 H   0  0  0  0  0  0  0  0  0  0  0  0
   -5.7910   17.4606  -34.8459 H   0  0  0  0  0  0  0  0  0  0  0  0
   -5.5112   14.8372  -32.0353 H   0  0  0  0  0  0  0  0  0  0  0  0
   -6.3902   15.0347  -33.5893 H   0  0  0  0  0  0  0  0  0  0  0  0
   -4.6741   14.5042  -33.5893 H   0  0  0  0  0  0  0  0  0  0  0  0
   -2.9736   15.9334  -33.0558 H   0  0  0  0  0  0  0  0  0  0  0  0
   -3.5511   16.6094  -34.6627 H   0  0  0  0  0  0  0  0  0  0  0  0
   -3.0942   18.2775  -32.1654 H   0  0  0  0  0  0  0  0  0  0  0  0
   -1.8924   18.0240  -33.5385 H   0  0  0  0  0  0  0  0  0  0  0  0
   -2.8250   20.1132  -33.9840 H   0  0  0  0  0  0  0  0  0  0  0  0
   -3.7212   18.9546  -35.0518 H   0  0  0  0  0  0  0  0  0  0  0  0
  1  2  1  0
  2  3  1  0
  3  4  1  0
  4  5  1  0
  5  6  1  0
  6  7  1  0
  7  8  1  0
  8  9  1  0
  9 10  1  0
 10 11  2  0
 11 12  1  0
 12 13  2  0
 13 14  1  0
 14 15  2  0
 15 16  1  0
 16 17  2  0
 11 18  1  0
 18 19  1  0
 19 20  1  0
 19 21  1  0
 21 22  1  0
 22 23  1  0
 17  9  1  0
 23 10  1  0
 17 12  1  0
  1 24  1  0
  1 25  1  0
  1 26  1  0
  2 27  1  0
  2 28  1  0
  4 29  1  0
  4 30  1  0
  5 31  1  0
  5 32  1  0
  7 33  1  0
  7 34  1  0
  8 35  1  0
  8 36  1  0
 13 37  1  0
 14 38  1  0
 15 39  1  0
 16 40  1  0
 18 41  1  0
 18 42  1  0
 20 43  1  0
 20 44  1  0
 20 45  1  0
 21 46  1  0
 21 47  1  0
 22 48  1  0
 22 49  1  0
 23 50  1  0
 23 51  1  0
M  END
>  <UniqueID>  (20) 
19

>  <SMILES>  (20) 
CCOCCOCCn1c2c(c3ccccc31)CN(C)CCC2

>  <Energy>  (20) 
97.45625967730555

>  <Genealogy>  (20) 
CCOCCOCCn1c2c(c3ccccc31)CN(C)CCC2 (3D coordinates assigned)
CCOCCOCCn1c2c(c3ccccc31)CN(C)CCC2 (nonaromatic ring conformer: 97.45625967730555 kcal/mol)

>  <smiles>  (20) 
CCOCCOCCn1c2c(c3ccccc31)CN(C)CCC2

>  <score_type>  (20) 
oracle

>  <origin>  (20) 
adg

>  <m_score__min__energy>  (20) 
-6.75

>  <m_primary>  (20) 
energy

$$$$
21:0
     RDKit          3D

 52 54  0  0  0  0  0  0  0  0999 V2000
   -2.8290   24.6260  -26.9380 C   0  0  0  0  0  0  0  0  0  0  0  0
   -4.1840   24.1400  -27.4290 C   0  0  0  0  0  0  0  0  0  0  0  0
   -4.3480   24.5130  -28.7820 O   0  0  0  0  0  0  0  0  0  0  0  0
   -5.5590   25.1390  -28.9210 N   0  0  0  0  0  0  0  0  0  0  0  0
   -5.7840   25.3990  -30.3470 C   0  0  0  0  0  0  0  0  0  0  0  0
   -6.2810   24.1430  -31.0800 C   0  0  0  0  0  0  0  0  0  0  0  0
   -5.4220   22.9970  -30.7820 N   0  0  0  0  0  0  0  0  0  0  0  0
   -5.4710   21.7980  -31.5720 C   0  0  0  0  0  0  0  0  0  0  0  0
   -6.6930   21.1220  -31.7170 C   0  0  0  0  0  0  0  0  0  0  0  0
   -7.8250   21.5050  -30.9640 C   0  0  0  0  0  0  0  0  0  0  0  0
   -9.0270   20.8120  -31.0840 C   0  0  0  0  0  0  0  0  0  0  0  0
   -9.1190   19.7220  -31.9410 C   0  0  0  0  0  0  0  0  0  0  0  0
   -8.0190   19.3350  -32.7040 C   0  0  0  0  0  0  0  0  0  0  0  0
   -6.7920   20.0460  -32.6330 C   0  0  0  0  0  0  0  0  0  0  0  0
   -5.7130   19.7130  -33.4260 N   0  0  0  0  0  0  0  0  0  0  0  0
   -5.9020   18.8310  -34.5980 C   0  0  0  0  0  0  0  0  0  0  0  0
   -4.4580   20.2160  -33.1310 C   0  0  0  0  0  0  0  0  0  0  0  0
   -3.2940   19.6740  -33.7270 C   0  0  0  0  0  0  0  0  0  0  0  0
   -2.0370   20.1970  -33.4560 C   0  0  0  0  0  0  0  0  0  0  0  0
   -1.8910   21.2430  -32.5590 C   0  0  0  0  0  0  0  0  0  0  0  0
   -3.0060   21.7810  -31.8950 C   0  0  0  0  0  0  0  0  0  0  0  0
   -2.8460   22.7830  -30.9190 O   0  0  0  0  0  0  0  0  0  0  0  0
   -2.0500   22.6990  -29.7370 C   0  0  0  0  0  0  0  0  0  0  0  0
   -2.4030   21.4520  -28.9340 C   0  0  0  0  0  0  0  0  0  0  0  0
   -4.3090   21.2850  -32.1980 C   0  0  0  0  0  0  0  0  0  0  0  0
   -2.8175   24.6301  -25.8381 H   0  0  0  0  0  0  0  0  0  0  0  0
   -2.0415   23.9543  -27.3104 H   0  0  0  0  0  0  0  0  0  0  0  0
   -2.6480   25.6451  -27.3104 H   0  0  0  0  0  0  0  0  0  0  0  0
   -4.2366   23.0449  -27.3401 H   0  0  0  0  0  0  0  0  0  0  0  0
   -4.9817   24.5921  -26.8213 H   0  0  0  0  0  0  0  0  0  0  0  0
   -5.5760   26.0500  -28.4000 H   0  0  0  0  0  0  0  0  0  0  0  0
   -6.3270   24.5080  -28.5860 H   0  0  0  0  0  0  0  0  0  0  0  0
   -6.5372   26.1940  -30.4503 H   0  0  0  0  0  0  0  0  0  0  0  0
   -4.8271   25.7033  -30.7962 H   0  0  0  0  0  0  0  0  0  0  0  0
   -7.3080   23.9185  -30.7561 H   0  0  0  0  0  0  0  0  0  0  0  0
   -6.2554   24.3321  -32.1633 H   0  0  0  0  0  0  0  0  0  0  0  0
   -4.7710   23.0410  -29.9670 H   0  0  0  0  0  0  0  0  0  0  0  0
   -7.7564   22.3600  -30.2753 H   0  0  0  0  0  0  0  0  0  0  0  0
   -9.9041   21.1276  -30.5000 H   0  0  0  0  0  0  0  0  0  0  0  0
  -10.0632   19.1628  -32.0174 H   0  0  0  0  0  0  0  0  0  0  0  0
   -8.1026   18.4649  -33.3718 H   0  0  0  0  0  0  0  0  0  0  0  0
   -6.1211   17.8087  -34.2560 H   0  0  0  0  0  0  0  0  0  0  0  0
   -6.7410   19.2023  -35.2048 H   0  0  0  0  0  0  0  0  0  0  0  0
   -4.9845   18.8259  -35.2048 H   0  0  0  0  0  0  0  0  0  0  0  0
   -3.3873   18.8228  -34.4175 H   0  0  0  0  0  0  0  0  0  0  0  0
   -1.1513   19.7785  -33.9564 H   0  0  0  0  0  0  0  0  0  0  0  0
   -0.8905   21.6569  -32.3646 H   0  0  0  0  0  0  0  0  0  0  0  0
   -0.9878   22.6571  -30.0198 H   0  0  0  0  0  0  0  0  0  0  0  0
   -2.2463   23.5855  -29.1160 H   0  0  0  0  0  0  0  0  0  0  0  0
   -2.3391   21.6777  -27.8593 H   0  0  0  0  0  0  0  0  0  0  0  0
   -3.4265   21.1339  -29.1817 H   0  0  0  0  0  0  0  0  0  0  0  0
   -1.6981   20.6447  -29.1817 H   0  0  0  0  0  0  0  0  0  0  0  0
  1  2  1  0
  2  3  1  0
  3  4  1  0
  4  5  1  0
  5  6  1  0
  6  7  1  0
  7  8  1  0
  8  9  2  0
  9 10  1  0
 10 11  2  0
 11 12  1  0
 12 13  2  0
 13 14  1  0
 14 15  2  0
 15 16  1  0
 15 17  1  0
 17 18  2  0
 18 19  1  0
 19 20  2  0
 20 21  1  0
 21 22  1  0
 22 23  1  0
 23 24  1  0
 21 25  2  0
 25  8  1  0
 14  9  1  0
 25 17  1  0
  1 26  1  0
  1 27  1  0
  1 28  1  0
  2 29  1  0
  2 30  1  0
  4 31  1  0
  4 32  1  0
  5 33  1  0
  5 34  1  0
  6 35  1  0
  6 36  1  0
  7 37  1  0
 10 38  1  0
 11 39  1  0
 12 40  1  0
 13 41  1  0
 16 42  1  0
 16 43  1  0
 16 44  1  0
 18 45  1  0
 19 46  1  0
 20 47  1  0
 23 48  1  0
 23 49  1  0
 24 50  1  0
 24 51  1  0
 24 52  1  0
M  CHG  2   4   1  15   1
M  END
>  <UniqueID>  (21) 
20

>  <SMILES>  (21) 
CCO[NH2+]CCNc1c2ccccc2[n+](C)c2cccc(OCC)c12

>  <Energy>  (21) 
77.64890725351914

>  <Genealogy>  (21) 
CCO[NH2+]CCNc1c2ccccc2[n+](C)c2cccc(OCC)c12 (protonated)
CCO[NH2+]CCNc1c2ccccc2[n+](C)c2cccc(OCC)c12 (3D coordinates assigned)
CCO[NH2+]CCNc1c2ccccc2[n+](C)c2cccc(OCC)c12 (optimized conformer: 77.64890725351914 kcal/mol)

>  <smiles>  (21) 
CCONCCNc1c2ccccc2[n+](C)c2cccc(OCC)c12

>  <score_type>  (21) 
oracle

>  <origin>  (21) 
adg

>  <m_score__min__energy>  (21) 
-6.9900000000000002

>  <m_primary>  (21) 
energy

$$$$
22:0
     RDKit          3D

 61 63  0  0  0  0  0  0  0  0999 V2000
   -0.5480   23.6480  -28.0130 C   0  0  0  0  0  0  0  0  0  0  0  0
   -0.9330   24.7700  -28.9710 C   0  0  0  0  0  0  0  0  0  0  0  0
   -2.1780   25.3280  -28.5960 O   0  0  0  0  0  0  0  0  0  0  0  0
   -2.3670   25.2330  -27.1990 C   0  0  0  0  0  0  0  0  0  0  0  0
   -3.6400   24.4340  -26.9050 C   0  0  0  0  0  0  0  0  0  0  0  0
   -4.5990   24.5320  -28.0210 N   0  0  0  0  0  0  0  0  0  0  0  0
   -4.7490   23.2570  -28.7440 C   0  0  0  0  0  0  0  0  0  0  0  0
   -3.5730   22.9850  -29.7040 C   0  0  0  0  0  0  0  0  0  0  0  0
   -3.9600   23.1860  -31.1780 C   0  0  0  0  0  0  0  0  0  0  0  0
   -3.5750   21.9910  -32.0580 C   0  0  0  0  0  0  0  0  0  0  0  0
   -4.5760   21.7760  -33.1030 N   0  0  0  0  0  0  0  0  0  0  0  0
   -5.6810   20.8920  -32.8730 C   0  0  0  0  0  0  0  0  0  0  0  0
   -5.5390   19.5150  -33.0960 C   0  0  0  0  0  0  0  0  0  0  0  0
   -6.6430   18.6630  -32.9150 C   0  0  0  0  0  0  0  0  0  0  0  0
   -7.8170   19.1440  -32.3700 N   0  0  0  0  0  0  0  0  0  0  0  0
   -8.8560   18.1970  -31.9140 C   0  0  0  0  0  0  0  0  0  0  0  0
   -8.0080   20.5070  -32.2410 C   0  0  0  0  0  0  0  0  0  0  0  0
   -9.2700   21.0570  -31.8990 C   0  0  0  0  0  0  0  0  0  0  0  0
   -9.4380   22.4330  -31.7430 C   0  0  0  0  0  0  0  0  0  0  0  0
   -8.3640   23.2950  -31.9350 C   0  0  0  0  0  0  0  0  0  0  0  0
   -7.1180   22.7900  -32.3010 C   0  0  0  0  0  0  0  0  0  0  0  0
   -6.9270   21.4020  -32.4720 C   0  0  0  0  0  0  0  0  0  0  0  0
   -6.4600   17.2080  -33.3180 C   0  0  0  0  0  0  0  0  0  0  0  0
   -5.6500   17.1000  -34.6200 C   0  0  0  0  0  0  0  0  0  0  0  0
   -4.3290   17.9020  -34.6070 C   0  0  0  0  0  0  0  0  0  0  0  0
   -4.2040   18.8860  -33.4330 C   0  0  0  0  0  0  0  0  0  0  0  0
   -0.6669   23.9945  -26.9758 H   0  0  0  0  0  0  0  0  0  0  0  0
   -1.1992   22.7785  -28.1860 H   0  0  0  0  0  0  0  0  0  0  0  0
    0.4998   23.3615  -28.1860 H   0  0  0  0  0  0  0  0  0  0  0  0
   -0.1608   25.5529  -28.9425 H   0  0  0  0  0  0  0  0  0  0  0  0
   -1.0156   24.3602  -29.9885 H   0  0  0  0  0  0  0  0  0  0  0  0
   -1.5030   24.7242  -26.7466 H   0  0  0  0  0  0  0  0  0  0  0  0
   -2.4639   26.2431  -26.7744 H   0  0  0  0  0  0  0  0  0  0  0  0
   -3.3737   23.3777  -26.7521 H   0  0  0  0  0  0  0  0  0  0  0  0
   -4.1117   24.8489  -26.0020 H   0  0  0  0  0  0  0  0  0  0  0  0
   -5.5290   24.8550  -27.6650 H   0  0  0  0  0  0  0  0  0  0  0  0
   -4.2490   25.2460  -28.7030 H   0  0  0  0  0  0  0  0  0  0  0  0
   -4.8030   22.4390  -28.0106 H   0  0  0  0  0  0  0  0  0  0  0  0
   -5.6672   23.3186  -29.3466 H   0  0  0  0  0  0  0  0  0  0  0  0
   -2.7502   23.6724  -29.4581 H   0  0  0  0  0  0  0  0  0  0  0  0
   -3.2728   21.9344  -29.5768 H   0  0  0  0  0  0  0  0  0  0  0  0
   -5.0485   23.3323  -31.2395 H   0  0  0  0  0  0  0  0  0  0  0  0
   -3.4105   24.0635  -31.5496 H   0  0  0  0  0  0  0  0  0  0  0  0
   -2.5995   22.1871  -32.5270 H   0  0  0  0  0  0  0  0  0  0  0  0
   -3.5211   21.0905  -31.4286 H   0  0  0  0  0  0  0  0  0  0  0  0
   -4.4250   22.1440  -34.0680 H   0  0  0  0  0  0  0  0  0  0  0  0
   -8.8773   18.1776  -30.8144 H   0  0  0  0  0  0  0  0  0  0  0  0
   -9.8370   18.5181  -32.2941 H   0  0  0  0  0  0  0  0  0  0  0  0
   -8.6270   17.1905  -32.2941 H   0  0  0  0  0  0  0  0  0  0  0  0
  -10.1306   20.3873  -31.7544 H   0  0  0  0  0  0  0  0  0  0  0  0
  -10.4231   22.8373  -31.4673 H   0  0  0  0  0  0  0  0  0  0  0  0
   -8.4983   24.3781  -31.7976 H   0  0  0  0  0  0  0  0  0  0  0  0
   -6.2754   23.4794  -32.4581 H   0  0  0  0  0  0  0  0  0  0  0  0
   -5.9267   16.6761  -32.5163 H   0  0  0  0  0  0  0  0  0  0  0  0
   -7.4513   16.7600  -33.4812 H   0  0  0  0  0  0  0  0  0  0  0  0
   -5.4096   16.0403  -34.7909 H   0  0  0  0  0  0  0  0  0  0  0  0
   -6.2737   17.5271  -35.4191 H   0  0  0  0  0  0  0  0  0  0  0  0
   -3.4928   17.1895  -34.5511 H   0  0  0  0  0  0  0  0  0  0  0  0
   -4.3138   18.5033  -35.5280 H   0  0  0  0  0  0  0  0  0  0  0  0
   -3.8301   18.3454  -32.5510 H   0  0  0  0  0  0  0  0  0  0  0  0
   -3.5076   19.6861  -33.7241 H   0  0  0  0  0  0  0  0  0  0  0  0
  1  2  1  0
  2  3  1  0
  3  4  1  0
  4  5  1  0
  5  6  1  0
  6  7  1  0
  7  8  1  0
  8  9  1  0
  9 10  1  0
 10 11  1  0
 11 12  1  0
 12 13  2  0
 13 14  1  0
 14 15  2  0
 15 16  1  0
 15 17  1  0
 17 18  2  0
 18 19  1  0
 19 20  2  0
 20 21  1  0
 21 22  2  0
 14 23  1  0
 23 24  1  0
 24 25  1  0
 25 26  1  0
 22 12  1  0
 26 13  1  0
 22 17  1  0
  1 27  1  0
  1 28  1  0
  1 29  1  0
  2 30  1  0
  2 31  1  0
  4 32  1  0
  4 33  1  0
  5 34  1  0
  5 35  1  0
  6 36  1  0
  6 37  1  0
  7 38  1  0
  7 39  1  0
  8 40  1  0
  8 41  1  0
  9 42  1  0
  9 43  1  0
 10 44  1  0
 10 45  1  0
 11 46  1  0
 16 47  1  0
 16 48  1  0
 16 49  1  0
 18 50  1  0
 19 51  1  0
 20 52  1  0
 21 53  1  0
 23 54  1  0
 23 55  1  0
 24 56  1  0
 24 57  1  0
 25 58  1  0
 25 59  1  0
 26 60  1  0
 26 61  1  0
M  CHG  2   6   1  15   1
M  END
>  <UniqueID>  (22) 
21

>  <SMILES>  (22) 
CCOCC[NH2+]CCCCNc1c2c([n+](C)c3ccccc13)CCCC2

>  <Energy>  (22) 
79.6287555915387

>  <Genealogy>  (22) 
CCOCC[NH2+]CCCCNc1c2c([n+](C)c3ccccc13)CCCC2 (protonated)
CCOCC[NH2+]CCCCNc1c2c([n+](C)c3ccccc13)CCCC2 (3D coordinates assigned)
CCOCC[NH2+]CCCCNc1c2c([n+](C)c3ccccc13)CCCC2 (nonaromatic ring conformer: 79.6287555915387 kcal/mol)

>  <smiles>  (22) 
CCOCCNCCCCNc1c2c([n+](C)c3ccccc13)CCCC2

>  <score_type>  (22) 
oracle

>  <origin>  (22) 
adg

>  <m_score__min__energy>  (22) 
-8.2699999999999996

>  <m_primary>  (22) 
energy

$$$$
23:0
     RDKit          3D

 65 68  0  0  0  0  0  0  0  0999 V2000
   -6.4250   25.5650  -29.4460 C   0  0  0  0  0  0  0  0  0  0  0  0
   -5.7310   24.9850  -30.6810 C   0  0  0  0  0  0  0  0  0  0  0  0
   -4.2810   25.2420  -30.6830 N   0  0  0  0  0  0  0  0  0  0  0  0
   -3.4660   24.0540  -30.3590 C   0  0  0  0  0  0  0  0  0  0  0  0
   -4.2670   22.9970  -29.5750 C   0  0  0  0  0  0  0  0  0  0  0  0
   -3.9730   23.0910  -28.0700 C   0  0  0  0  0  0  0  0  0  0  0  0
   -2.8960   22.2390  -27.7130 O   0  0  0  0  0  0  0  0  0  0  0  0
   -2.3830   21.5430  -28.8340 C   0  0  0  0  0  0  0  0  0  0  0  0
   -1.0100   22.0860  -29.2330 C   0  0  0  0  0  0  0  0  0  0  0  0
   -0.6880   21.6570  -30.5400 O   0  0  0  0  0  0  0  0  0  0  0  0
   -1.8230   21.1000  -31.1780 C   0  0  0  0  0  0  0  0  0  0  0  0
   -1.5860   20.9480  -32.6840 C   0  0  0  0  0  0  0  0  0  0  0  0
   -2.8290   21.1400  -33.4370 N   0  0  0  0  0  0  0  0  0  0  0  0
   -3.8940   20.1790  -33.3230 C   0  0  0  0  0  0  0  0  0  0  0  0
   -5.1350   20.5810  -32.8400 C   0  0  0  0  0  0  0  0  0  0  0  0
   -6.2050   19.7080  -32.8110 C   0  0  0  0  0  0  0  0  0  0  0  0
   -6.0660   18.3800  -33.1320 N   0  0  0  0  0  0  0  0  0  0  0  0
   -7.1430   17.4280  -32.8040 C   0  0  0  0  0  0  0  0  0  0  0  0
   -4.8740   17.9540  -33.6970 C   0  0  0  0  0  0  0  0  0  0  0  0
   -4.7230   16.6510  -34.2370 C   0  0  0  0  0  0  0  0  0  0  0  0
   -3.4970   16.2190  -34.7470 C   0  0  0  0  0  0  0  0  0  0  0  0
   -2.3940   17.0650  -34.7320 C   0  0  0  0  0  0  0  0  0  0  0  0
   -2.5180   18.3650  -34.2410 C   0  0  0  0  0  0  0  0  0  0  0  0
   -3.7530   18.8420  -33.7620 C   0  0  0  0  0  0  0  0  0  0  0  0
   -7.3880   20.4700  -32.3820 C   0  0  0  0  0  0  0  0  0  0  0  0
   -8.7540   20.1480  -32.3880 C   0  0  0  0  0  0  0  0  0  0  0  0
   -9.6800   21.1250  -31.9870 C   0  0  0  0  0  0  0  0  0  0  0  0
   -9.2460   22.4140  -31.6320 C   0  0  0  0  0  0  0  0  0  0  0  0
   -7.8840   22.7420  -31.7010 C   0  0  0  0  0  0  0  0  0  0  0  0
   -6.9730   21.7590  -32.0910 C   0  0  0  0  0  0  0  0  0  0  0  0
   -5.5140   21.9480  -32.3500 C   0  0  0  0  0  0  0  0  0  0  0  0
   -5.9492   25.1674  -28.5374 H   0  0  0  0  0  0  0  0  0  0  0  0
   -6.3363   26.6614  -29.4566 H   0  0  0  0  0  0  0  0  0  0  0  0
   -7.4882   25.2830  -29.4566 H   0  0  0  0  0  0  0  0  0  0  0  0
   -5.8970   23.8978  -30.7015 H   0  0  0  0  0  0  0  0  0  0  0  0
   -6.1596   25.4751  -31.5676 H   0  0  0  0  0  0  0  0  0  0  0  0
   -3.9970   25.6810  -31.5920 H   0  0  0  0  0  0  0  0  0  0  0  0
   -3.1073   23.6037  -31.2963 H   0  0  0  0  0  0  0  0  0  0  0  0
   -2.6276   24.3811  -29.7265 H   0  0  0  0  0  0  0  0  0  0  0  0
   -5.3415   23.1618  -29.7430 H   0  0  0  0  0  0  0  0  0  0  0  0
   -3.9714   21.9984  -29.9290 H   0  0  0  0  0  0  0  0  0  0  0  0
   -3.7105   24.1291  -27.8179 H   0  0  0  0  0  0  0  0  0  0  0  0
   -4.8696   22.7774  -27.5153 H   0  0  0  0  0  0  0  0  0  0  0  0
   -2.2892   20.4761  -28.5833 H   0  0  0  0  0  0  0  0  0  0  0  0
   -3.0739   21.6803  -29.6788 H   0  0  0  0  0  0  0  0  0  0  0  0
   -1.0293   23.1854  -29.2037 H   0  0  0  0  0  0  0  0  0  0  0  0
   -0.2521   21.7102  -28.5299 H   0  0  0  0  0  0  0  0  0  0  0  0
   -2.0300   20.1104  -30.7446 H   0  0  0  0  0  0  0  0  0  0  0  0
   -2.6783   21.7743  -31.0238 H   0  0  0  0  0  0  0  0  0  0  0  0
   -0.8498   21.6979  -33.0091 H   0  0  0  0  0  0  0  0  0  0  0  0
   -1.2142   19.9310  -32.8778 H   0  0  0  0  0  0  0  0  0  0  0  0
   -2.7510   21.6520  -34.3440 H   0  0  0  0  0  0  0  0  0  0  0  0
   -7.2380   17.3440  -31.7113 H   0  0  0  0  0  0  0  0  0  0  0  0
   -8.0921   17.7878  -33.2280 H   0  0  0  0  0  0  0  0  0  0  0  0
   -6.9024   16.4419  -33.2280 H   0  0  0  0  0  0  0  0  0  0  0  0
   -5.5862   15.9694  -34.2543 H   0  0  0  0  0  0  0  0  0  0  0  0
   -3.4036   15.2048  -35.1625 H   0  0  0  0  0  0  0  0  0  0  0  0
   -1.4231   16.7093  -35.1074 H   0  0  0  0  0  0  0  0  0  0  0  0
   -1.6390   19.0262  -34.2279 H   0  0  0  0  0  0  0  0  0  0  0  0
   -9.0930   19.1494  -32.7008 H   0  0  0  0  0  0  0  0  0  0  0  0
  -10.7517   20.8799  -31.9505 H   0  0  0  0  0  0  0  0  0  0  0  0
   -9.9758   23.1668  -31.2995 H   0  0  0  0  0  0  0  0  0  0  0  0
   -7.5397   23.7566  -31.4520 H   0  0  0  0  0  0  0  0  0  0  0  0
   -5.3353   22.7165  -33.1164 H   0  0  0  0  0  0  0  0  0  0  0  0
   -4.9384   22.2950  -31.4792 H   0  0  0  0  0  0  0  0  0  0  0  0
  1  2  1  0
  2  3  1  0
  3  4  1  0
  4  5  1  0
  5  6  1  0
  6  7  1  0
  7  8  1  0
  8  9  1  0
  9 10  1  0
 10 11  1  0
 11 12  1  0
 12 13  1  0
 13 14  1  0
 14 15  2  0
 15 16  1  0
 16 17  2  0
 17 18  1  0
 17 19  1  0
 19 20  2  0
 20 21  1  0
 21 22  2  0
 22 23  1  0
 23 24  2  0
 16 25  1  0
 25 26  2  0
 26 27  1  0
 27 28  2  0
 28 29  1  0
 29 30  2  0
 30 31  1  0
 24 14  1  0
 30 25  1  0
 31 15  1  0
 24 19  1  0
  1 32  1  0
  1 33  1  0
  1 34  1  0
  2 35  1  0
  2 36  1  0
  3 37  1  0
  4 38  1  0
  4 39  1  0
  5 40  1  0
  5 41  1  0
  6 42  1  0
  6 43  1  0
  8 44  1  0
  8 45  1  0
  9 46  1  0
  9 47  1  0
 11 48  1  0
 11 49  1  0
 12 50  1  0
 12 51  1  0
 13 52  1  0
 18 53  1  0
 18 54  1  0
 18 55  1  0
 20 56  1  0
 21 57  1  0
 22 58  1  0
 23 59  1  0
 26 60  1  0
 27 61  1  0
 28 62  1  0
 29 63  1  0
 31 64  1  0
 31 65  1  0
M  CHG  1  17   1
M  END
>  <UniqueID>  (23) 
22

>  <SMILES>  (23) 
CCNCCCOCCOCCNc1c2c([n+](C)c3ccccc13)-c1ccccc1C2

>  <Energy>  (23) 
108.98758227270058

>  <Genealogy>  (23) 
CCNCCCOCCOCCNc1c2c([n+](C)c3ccccc13)-c1ccccc1C2 (3D coordinates assigned)
CCNCCCOCCOCCNc1c2c([n+](C)c3ccccc13)-c1ccccc1C2 (nonaromatic ring conformer: 108.98758227270058 kcal/mol)

>  <smiles>  (23) 
CCNCCCOCCOCCNc1c2c([n+](C)c3ccccc13)-c1ccccc1C2

>  <score_type>  (23) 
oracle

>  <origin>  (23) 
adg

>  <m_score__min__energy>  (23) 
-9.3300000000000001

>  <m_primary>  (23) 
energy

$$$$
24:0
     RDKit          3D

 62 64  0  0  0  0  0  0  0  0999 V2000
   -8.4850   19.2050  -32.0960 C   0  0  0  0  0  0  0  0  0  0  0  0
   -7.4670   18.1720  -31.5960 C   0  0  0  0  0  0  0  0  0  0  0  0
   -6.3650   17.9540  -32.5690 N   0  0  0  0  0  0  0  0  0  0  0  0
   -6.0930   16.5310  -32.9300 C   0  0  0  0  0  0  0  0  0  0  0  0
   -5.2570   16.3070  -34.2020 C   0  0  0  0  0  0  0  0  0  0  0  0
   -6.4390   18.8630  -33.7460 C   0  0  0  0  0  0  0  0  0  0  0  0
   -5.3590   19.9610  -33.8230 C   0  0  0  0  0  0  0  0  0  0  0  0
   -4.1550   19.5640  -33.1910 O   0  0  0  0  0  0  0  0  0  0  0  0
   -3.1140   20.4960  -33.4290 C   0  0  0  0  0  0  0  0  0  0  0  0
   -2.8350   21.3840  -32.2250 C   0  0  0  0  0  0  0  0  0  0  0  0
   -1.5820   21.3330  -31.5850 C   0  0  0  0  0  0  0  0  0  0  0  0
   -1.3240   22.1070  -30.5040 N   0  0  0  0  0  0  0  0  0  0  0  0
   -2.2360   22.9680  -29.9920 C   0  0  0  0  0  0  0  0  0  0  0  0
   -1.8840   23.7390  -28.8390 N   0  0  0  0  0  0  0  0  0  0  0  0
   -2.5500   23.5920  -27.5600 C   0  0  0  0  0  0  0  0  0  0  0  0
   -2.0740   24.7710  -26.7180 C   0  0  0  0  0  0  0  0  0  0  0  0
   -0.8640   25.3540  -27.4510 C   0  0  0  0  0  0  0  0  0  0  0  0
   -0.9630   24.8560  -28.8870 C   0  0  0  0  0  0  0  0  0  0  0  0
   -3.4980   23.1000  -30.6040 C   0  0  0  0  0  0  0  0  0  0  0  0
   -4.4480   24.0160  -30.1160 C   0  0  0  0  0  0  0  0  0  0  0  0
   -5.6980   24.1580  -30.7420 C   0  0  0  0  0  0  0  0  0  0  0  0
   -6.6670   25.0610  -30.2730 O   0  0  0  0  0  0  0  0  0  0  0  0
   -6.4870   25.9370  -29.1650 C   0  0  0  0  0  0  0  0  0  0  0  0
   -6.0000   23.3880  -31.8700 C   0  0  0  0  0  0  0  0  0  0  0  0
   -7.2560   23.5650  -32.4730 O   0  0  0  0  0  0  0  0  0  0  0  0
   -8.4870   23.0800  -31.9440 C   0  0  0  0  0  0  0  0  0  0  0  0
   -5.0540   22.4730  -32.3660 C   0  0  0  0  0  0  0  0  0  0  0  0
   -3.8010   22.3080  -31.7400 C   0  0  0  0  0  0  0  0  0  0  0  0
   -8.9656   19.6927  -31.2350 H   0  0  0  0  0  0  0  0  0  0  0  0
   -7.9700   19.9619  -32.7057 H   0  0  0  0  0  0  0  0  0  0  0  0
   -9.2494   18.7011  -32.7057 H   0  0  0  0  0  0  0  0  0  0  0  0
   -7.0374   18.5280  -30.6480 H   0  0  0  0  0  0  0  0  0  0  0  0
   -7.9939   17.2157  -31.4624 H   0  0  0  0  0  0  0  0  0  0  0  0
   -5.4950   18.2780  -32.0800 H   0  0  0  0  0  0  0  0  0  0  0  0
   -5.5574   16.0667  -32.0889 H   0  0  0  0  0  0  0  0  0  0  0  0
   -7.0764   16.0842  -33.1383 H   0  0  0  0  0  0  0  0  0  0  0  0
   -4.2295   16.0317  -33.9217 H   0  0  0  0  0  0  0  0  0  0  0  0
   -5.7043   15.4970  -34.7969 H   0  0  0  0  0  0  0  0  0  0  0  0
   -5.2394   17.2321  -34.7969 H   0  0  0  0  0  0  0  0  0  0  0  0
   -6.3566   18.2461  -34.6530 H   0  0  0  0  0  0  0  0  0  0  0  0
   -7.3963   19.3959  -33.6485 H   0  0  0  0  0  0  0  0  0  0  0  0
   -5.1498   20.1803  -34.8804 H   0  0  0  0  0  0  0  0  0  0  0  0
   -5.7403   20.8509  -33.3009 H   0  0  0  0  0  0  0  0  0  0  0  0
   -2.1965   19.9429  -33.6786 H   0  0  0  0  0  0  0  0  0  0  0  0
   -3.4335   21.1475  -34.2558 H   0  0  0  0  0  0  0  0  0  0  0  0
   -0.8034   20.6566  -31.9675 H   0  0  0  0  0  0  0  0  0  0  0  0
   -3.6419   23.6267  -27.6884 H   0  0  0  0  0  0  0  0  0  0  0  0
   -2.3149   22.6283  -27.0846 H   0  0  0  0  0  0  0  0  0  0  0  0
   -2.8696   25.5259  -26.6337 H   0  0  0  0  0  0  0  0  0  0  0  0
   -1.8124   24.4563  -25.6970 H   0  0  0  0  0  0  0  0  0  0  0  0
   -0.8944   26.4533  -27.4247 H   0  0  0  0  0  0  0  0  0  0  0  0
    0.0804   25.0425  -26.9808 H   0  0  0  0  0  0  0  0  0  0  0  0
   -1.3513   25.6481  -29.5441 H   0  0  0  0  0  0  0  0  0  0  0  0
    0.0181   24.5629  -29.2891 H   0  0  0  0  0  0  0  0  0  0  0  0
   -4.2093   24.6283  -29.2339 H   0  0  0  0  0  0  0  0  0  0  0  0
   -6.6031   25.3721  -28.2283 H   0  0  0  0  0  0  0  0  0  0  0  0
   -5.4797   26.3771  -29.2054 H   0  0  0  0  0  0  0  0  0  0  0  0
   -7.2392   26.7386  -29.2054 H   0  0  0  0  0  0  0  0  0  0  0  0
   -8.4455   23.0963  -30.8449 H   0  0  0  0  0  0  0  0  0  0  0  0
   -9.3121   23.7203  -32.2894 H   0  0  0  0  0  0  0  0  0  0  0  0
   -8.6536   22.0490  -32.2894 H   0  0  0  0  0  0  0  0  0  0  0  0
   -5.2956   21.8757  -33.2576 H   0  0  0  0  0  0  0  0  0  0  0  0
  1  2  1  0
  2  3  1  0
  3  4  1  0
  4  5  1  0
  3  6  1  0
  6  7  1  0
  7  8  1  0
  8  9  1  0
  9 10  1  0
 10 11  2  0
 11 12  1  0
 12 13  2  0
 13 14  1  0
 14 15  1  0
 15 16  1  0
 16 17  1  0
 17 18  1  0
 13 19  1  0
 19 20  2  0
 20 21  1  0
 21 22  1  0
 22 23  1  0
 21 24  2  0
 24 25  1  0
 25 26  1  0
 24 27  1  0
 27 28  2  0
 28 10  1  0
 18 14  1  0
 28 19  1  0
  1 29  1  0
  1 30  1  0
  1 31  1  0
  2 32  1  0
  2 33  1  0
  3 34  1  0
  4 35  1  0
  4 36  1  0
  5 37  1  0
  5 38  1  0
  5 39  1  0
  6 40  1  0
  6 41  1  0
  7 42  1  0
  7 43  1  0
  9 44  1  0
  9 45  1  0
 11 46  1  0
 15 47  1  0
 15 48  1  0
 16 49  1  0
 16 50  1  0
 17 51  1  0
 17 52  1  0
 18 53  1  0
 18 54  1  0
 20 55  1  0
 23 56  1  0
 23 57  1  0
 23 58  1  0
 26 59  1  0
 26 60  1  0
 26 61  1  0
 27 62  1  0
M  CHG  1   3   1
M  END
>  <UniqueID>  (24) 
23

>  <SMILES>  (24) 
CC[NH+](CC)CCOCc1cnc(N2CCCC2)c2cc(OC)c(OC)cc12

>  <Energy>  (24) 
86.4111804018753

>  <Genealogy>  (24) 
CC[NH+](CC)CCOCc1cnc(N2CCCC2)c2cc(OC)c(OC)cc12 (protonated)
CC[NH+](CC)CCOCc1cnc(N2CCCC2)c2cc(OC)c(OC)cc12 (3D coordinates assigned)
CC[NH+](CC)CCOCc1cnc(N2CCCC2)c2cc(OC)c(OC)cc12 (nonaromatic ring conformer: 86.4111804018753 kcal/mol)

>  <smiles>  (24) 
CCN(CC)CCOCc1cnc(N2CCCC2)c2cc(OC)c(OC)cc12

>  <score_type>  (24) 
oracle

>  <origin>  (24) 
adg

>  <m_score__min__energy>  (24) 
-7.0999999999999996

>  <m_primary>  (24) 
energy

$$$$
25:0
     RDKit          3D

 58 61  0  0  0  0  0  0  0  0999 V2000
   -5.4830   25.6290  -30.7110 C   0  0  0  0  0  0  0  0  0  0  0  0
   -5.7450   24.9310  -29.3770 C   0  0  0  0  0  0  0  0  0  0  0  0
   -4.5140   24.1700  -28.8770 C   0  0  0  0  0  0  0  0  0  0  0  0
   -4.2040   23.0500  -29.7790 N   0  0  0  0  0  0  0  0  0  0  0  0
   -3.5360   21.9400  -29.0810 C   0  0  0  0  0  0  0  0  0  0  0  0
   -2.5680   21.1660  -29.9910 C   0  0  0  0  0  0  0  0  0  0  0  0
   -2.2390   21.9470  -31.1250 O   0  0  0  0  0  0  0  0  0  0  0  0
   -1.0570   21.4680  -31.7320 C   0  0  0  0  0  0  0  0  0  0  0  0
   -1.4300   20.5880  -32.9260 C   0  0  0  0  0  0  0  0  0  0  0  0
   -2.6160   21.1150  -33.6170 N   0  0  0  0  0  0  0  0  0  0  0  0
   -3.7350   20.2080  -33.4560 C   0  0  0  0  0  0  0  0  0  0  0  0
   -4.9630   20.6730  -32.9670 C   0  0  0  0  0  0  0  0  0  0  0  0
   -6.0620   19.8360  -32.8540 C   0  0  0  0  0  0  0  0  0  0  0  0
   -5.9670   18.4850  -33.0700 N   0  0  0  0  0  0  0  0  0  0  0  0
   -7.0480   17.5910  -32.6210 C   0  0  0  0  0  0  0  0  0  0  0  0
   -4.8050   17.9840  -33.6340 C   0  0  0  0  0  0  0  0  0  0  0  0
   -4.7240   16.6420  -34.0780 C   0  0  0  0  0  0  0  0  0  0  0  0
   -3.5340   16.1190  -34.5780 C   0  0  0  0  0  0  0  0  0  0  0  0
   -2.3980   16.9140  -34.6550 C   0  0  0  0  0  0  0  0  0  0  0  0
   -2.4500   18.2520  -34.2710 C   0  0  0  0  0  0  0  0  0  0  0  0
   -3.6500   18.8250  -33.7910 C   0  0  0  0  0  0  0  0  0  0  0  0
   -7.2220   20.6460  -32.4000 C   0  0  0  0  0  0  0  0  0  0  0  0
   -8.5940   20.3590  -32.3410 C   0  0  0  0  0  0  0  0  0  0  0  0
   -9.4780   21.3740  -31.9380 C   0  0  0  0  0  0  0  0  0  0  0  0
   -8.9990   22.6650  -31.6460 C   0  0  0  0  0  0  0  0  0  0  0  0
   -7.6340   22.9600  -31.7770 C   0  0  0  0  0  0  0  0  0  0  0  0
   -6.7730   21.9350  -32.1660 C   0  0  0  0  0  0  0  0  0  0  0  0
   -5.3600   22.0050  -32.4950 C   0  0  0  0  0  0  0  0  0  0  0  0
   -4.6270   23.0200  -32.3630 O   0  0  0  0  0  0  0  0  0  0  0  0
   -5.1020   26.6440  -30.5251 H   0  0  0  0  0  0  0  0  0  0  0  0
   -4.7383   25.0571  -31.2841 H   0  0  0  0  0  0  0  0  0  0  0  0
   -6.4201   25.6883  -31.2841 H   0  0  0  0  0  0  0  0  0  0  0  0
   -6.0230   25.6878  -28.6287 H   0  0  0  0  0  0  0  0  0  0  0  0
   -6.5565   24.2037  -29.5274 H   0  0  0  0  0  0  0  0  0  0  0  0
   -3.6541   24.8551  -28.8405 H   0  0  0  0  0  0  0  0  0  0  0  0
   -4.7228   23.7729  -27.8727 H   0  0  0  0  0  0  0  0  0  0  0  0
   -3.5910   23.3940  -30.5550 H   0  0  0  0  0  0  0  0  0  0  0  0
   -2.9698   22.3483  -28.2309 H   0  0  0  0  0  0  0  0  0  0  0  0
   -4.3152   21.2377  -28.7499 H   0  0  0  0  0  0  0  0  0  0  0  0
   -1.6504   20.9322  -29.4312 H   0  0  0  0  0  0  0  0  0  0  0  0
   -3.0510   20.2349  -30.3222 H   0  0  0  0  0  0  0  0  0  0  0  0
   -0.4490   22.3177  -32.0761 H   0  0  0  0  0  0  0  0  0  0  0  0
   -0.4782   20.8802  -31.0044 H   0  0  0  0  0  0  0  0  0  0  0  0
   -0.5856   20.5602  -33.6304 H   0  0  0  0  0  0  0  0  0  0  0  0
   -1.6581   19.5764  -32.5589 H   0  0  0  0  0  0  0  0  0  0  0  0
   -2.4150   21.2850  -34.6260 H   0  0  0  0  0  0  0  0  0  0  0  0
   -2.8570   22.0570  -33.2350 H   0  0  0  0  0  0  0  0  0  0  0  0
   -7.0735   17.5699  -31.5215 H   0  0  0  0  0  0  0  0  0  0  0  0
   -8.0113   17.9598  -33.0031 H   0  0  0  0  0  0  0  0  0  0  0  0
   -6.8665   16.5756  -33.0031 H   0  0  0  0  0  0  0  0  0  0  0  0
   -5.6166   16.0012  -34.0271 H   0  0  0  0  0  0  0  0  0  0  0  0
   -3.4938   15.0721  -34.9132 H   0  0  0  0  0  0  0  0  0  0  0  0
   -1.4532   16.4854  -35.0207 H   0  0  0  0  0  0  0  0  0  0  0  0
   -1.5441   18.8719  -34.3423 H   0  0  0  0  0  0  0  0  0  0  0  0
   -8.9701   19.3595  -32.6049 H   0  0  0  0  0  0  0  0  0  0  0  0
  -10.5530   21.1581  -31.8500 H   0  0  0  0  0  0  0  0  0  0  0  0
   -9.6984   23.4462  -31.3135 H   0  0  0  0  0  0  0  0  0  0  0  0
   -7.2533   23.9727  -31.5782 H   0  0  0  0  0  0  0  0  0  0  0  0
  1  2  1  0
  2  3  1  0
  3  4  1  0
  4  5  1  0
  5  6  1  0
  6  7  1  0
  7  8  1  0
  8  9  1  0
  9 10  1  0
 10 11  1  0
 11 12  2  0
 12 13  1  0
 13 14  2  0
 14 15  1  0
 14 16  1  0
 16 17  2  0
 17 18  1  0
 18 19  2  0
 19 20  1  0
 20 21  2  0
 13 22  1  0
 22 23  2  0
 23 24  1  0
 24 25  2  0
 25 26  1  0
 26 27  2  0
 27 28  1  0
 28 29  2  0
 21 11  1  0
 27 22  1  0
 28 12  1  0
 21 16  1  0
  1 30  1  0
  1 31  1  0
  1 32  1  0
  2 33  1  0
  2 34  1  0
  3 35  1  0
  3 36  1  0
  4 37  1  0
  5 38  1  0
  5 39  1  0
  6 40  1  0
  6 41  1  0
  8 42  1  0
  8 43  1  0
  9 44  1  0
  9 45  1  0
 10 46  1  0
 10 47  1  0
 15 48  1  0
 15 49  1  0
 15 50  1  0
 17 51  1  0
 18 52  1  0
 19 53  1  0
 20 54  1  0
 23 55  1  0
 24 56  1  0
 25 57  1  0
 26 58  1  0
M  CHG  2  10   1  14   1
M  END
>  <UniqueID>  (25) 
24

>  <SMILES>  (25) 
CCCNCCOCC[NH2+]c1c2c([n+](C)c3ccccc13)-c1ccccc1C2=O

>  <Energy>  (25) 
108.95579602875048

>  <Genealogy>  (25) 
CCCNCCOCC[NH2+]c1c2c([n+](C)c3ccccc13)-c1ccccc1C2=O (protonated)
CCCNCCOCC[NH2+]c1c2c([n+](C)c3ccccc13)-c1ccccc1C2=O (3D coordinates assigned)
CCCNCCOCC[NH2+]c1c2c([n+](C)c3ccccc13)-c1ccccc1C2=O (nonaromatic ring conformer: 108.95579602875048 kcal/mol)

>  <smiles>  (25) 
CCCNCCOCCNc1c2c([n+](C)c3ccccc13)-c1ccccc1C2=O

>  <score_type>  (25) 
oracle

>  <origin>  (25) 
adg

>  <m_score__min__energy>  (25) 
-8.4900000000000002

>  <m_primary>  (25) 
energy

$$$$
26:0
     RDKit          3D

 39 39  0  0  0  0  0  0  0  0999 V2000
   -6.9730   23.3730  -32.2890 C   0  0  0  0  0  0  0  0  0  0  0  0
   -8.3820   22.8780  -31.9610 C   0  0  0  0  0  0  0  0  0  0  0  0
   -8.4130   21.3960  -31.5510 C   0  0  0  0  0  0  0  0  0  0  0  0
   -9.4500   20.5860  -32.3530 C   0  0  0  0  0  0  0  0  0  0  0  0
   -8.8500   19.4580  -33.0910 N   0  0  0  0  0  0  0  0  0  0  0  0
   -8.0770   18.5000  -32.2740 C   0  0  0  0  0  0  0  0  0  0  0  0
   -6.6160   18.3270  -32.7470 C   0  0  2  0  0  0  0  0  0  0  0  0
   -5.6430   19.1370  -31.8500 C   0  0  0  0  0  0  0  0  0  0  0  0
   -4.4330   19.5880  -32.5820 N   0  0  0  0  0  0  0  0  0  0  0  0
   -4.5740   20.9640  -33.1120 C   0  0  0  0  0  0  0  0  0  0  0  0
   -3.7710   21.9420  -32.2580 C   0  0  0  0  0  0  0  0  0  0  0  0
   -4.0650   18.6260  -33.6400 C   0  0  0  0  0  0  0  0  0  0  0  0
   -5.2380   18.3800  -34.6170 C   0  0  0  0  0  0  0  0  0  0  0  0
   -6.4920   18.7690  -34.0850 O   0  0  0  0  0  0  0  0  0  0  0  0
   -6.4252   23.5654  -31.3547 H   0  0  0  0  0  0  0  0  0  0  0  0
   -6.4424   22.6075  -32.8741 H   0  0  0  0  0  0  0  0  0  0  0  0
   -7.0378   24.3022  -32.8741 H   0  0  0  0  0  0  0  0  0  0  0  0
   -8.7820   23.4804  -31.1320 H   0  0  0  0  0  0  0  0  0  0  0  0
   -8.9899   22.9823  -32.8718 H   0  0  0  0  0  0  0  0  0  0  0  0
   -7.4169   20.9615  -31.7214 H   0  0  0  0  0  0  0  0  0  0  0  0
   -8.6978   21.3476  -30.4896 H   0  0  0  0  0  0  0  0  0  0  0  0
  -10.2015   20.1888  -31.6548 H   0  0  0  0  0  0  0  0  0  0  0  0
   -9.8983   21.2645  -33.0937 H   0  0  0  0  0  0  0  0  0  0  0  0
   -9.6140   18.9340  -33.5790 H   0  0  0  0  0  0  0  0  0  0  0  0
   -8.2240   19.8460  -33.8350 H   0  0  0  0  0  0  0  0  0  0  0  0
   -8.0664   18.8581  -31.2340 H   0  0  0  0  0  0  0  0  0  0  0  0
   -8.5677   17.5204  -32.3722 H   0  0  0  0  0  0  0  0  0  0  0  0
   -6.3561   17.2604  -32.6775 H   0  0  0  0  0  0  0  0  0  0  0  0
   -6.1721   20.0214  -31.4654 H   0  0  0  0  0  0  0  0  0  0  0  0
   -5.3124   18.4758  -31.0355 H   0  0  0  0  0  0  0  0  0  0  0  0
   -4.2021   20.9948  -34.1468 H   0  0  0  0  0  0  0  0  0  0  0  0
   -5.6353   21.2520  -33.0860 H   0  0  0  0  0  0  0  0  0  0  0  0
   -3.9463   21.7285  -31.1932 H   0  0  0  0  0  0  0  0  0  0  0  0
   -2.6999   21.8311  -32.4827 H   0  0  0  0  0  0  0  0  0  0  0  0
   -4.0882   22.9710  -32.4827 H   0  0  0  0  0  0  0  0  0  0  0  0
   -3.2086   19.0249  -34.2034 H   0  0  0  0  0  0  0  0  0  0  0  0
   -3.8085   17.6692  -33.1617 H   0  0  0  0  0  0  0  0  0  0  0  0
   -5.0542   18.9541  -35.5371 H   0  0  0  0  0  0  0  0  0  0  0  0
   -5.2838   17.2981  -34.8105 H   0  0  0  0  0  0  0  0  0  0  0  0
  1  2  1  0
  2  3  1  0
  3  4  1  0
  4  5  1  0
  5  6  1  0
  6  7  1  0
  7  8  1  0
  8  9  1  0
  9 10  1  0
 10 11  1  0
  9 12  1  0
 12 13  1  0
 13 14  1  0
 14  7  1  0
  1 15  1  0
  1 16  1  0
  1 17  1  0
  2 18  1  0
  2 19  1  0
  3 20  1  0
  3 21  1  0
  4 22  1  0
  4 23  1  0
  5 24  1  0
  5 25  1  0
  6 26  1  0
  6 27  1  0
  7 28  1  6
  8 29  1  0
  8 30  1  0
 10 31  1  0
 10 32  1  0
 11 33  1  0
 11 34  1  0
 11 35  1  0
 12 36  1  0
 12 37  1  0
 13 38  1  0
 13 39  1  0
M  CHG  1   5   1
M  END
>  <UniqueID>  (26) 
25

>  <SMILES>  (26) 
CCCC[NH2+]C[C@@H]1CN(CC)CCO1

>  <Energy>  (26) 
42.04349970646415

>  <Genealogy>  (26) 
CCCC[NH2+]CC1CN(CC)CCO1 (protonated)
CCCC[NH2+]C[C@@H]1CN(CC)CCO1 (chirality)
CCCC[NH2+]C[C@@H]1CN(CC)CCO1 (3D coordinates assigned)
CCCC[NH2+]C[C@@H]1CN(CC)CCO1 (nonaromatic ring conformer: 42.04349970646415 kcal/mol)

>  <smiles>  (26) 
CCCCNCC1CN(CC)CCO1

>  <score_type>  (26) 
oracle

>  <origin>  (26) 
adg

>  <m_score__min__energy>  (26) 
-4.5499999999999998

>  <m_primary>  (26) 
energy

$$$$
27:0
     RDKit          3D

 39 41  0  0  0  0  0  0  0  0999 V2000
   -8.7674   22.3424  -29.5864 H   0  0  0  0  0  0  0  0  0  0  0  0
   -8.1210   22.4080  -30.4740 C   0  0  0  0  0  0  0  0  0  0  0  0
   -8.5360   21.7800  -31.5860 C   0  0  0  0  0  0  0  0  0  0  0  0
   -9.3471   22.2521  -32.1598 H   0  0  0  0  0  0  0  0  0  0  0  0
   -7.9910   20.5040  -32.1030 C   0  0  0  0  0  0  0  0  0  0  0  0
   -8.7070   19.3060  -31.9660 C   0  0  0  0  0  0  0  0  0  0  0  0
   -9.6964   19.3057  -31.4854 H   0  0  0  0  0  0  0  0  0  0  0  0
   -8.1600   18.1170  -32.4410 C   0  0  0  0  0  0  0  0  0  0  0  0
   -8.7243   17.1771  -32.3507 H   0  0  0  0  0  0  0  0  0  0  0  0
   -6.8930   18.1180  -33.0330 C   0  0  0  0  0  0  0  0  0  0  0  0
   -6.3300   16.9310  -33.5180 C   0  0  0  0  0  0  0  0  0  0  0  0
   -6.8883   15.9864  -33.4404 H   0  0  0  0  0  0  0  0  0  0  0  0
   -5.0630   16.9450  -34.0990 C   0  0  0  0  0  0  0  0  0  0  0  0
   -4.6247   16.0104  -34.4789 H   0  0  0  0  0  0  0  0  0  0  0  0
   -4.3480   18.1390  -34.2010 C   0  0  0  0  0  0  0  0  0  0  0  0
   -3.3475   18.1371  -34.6582 H   0  0  0  0  0  0  0  0  0  0  0  0
   -4.8950   19.3480  -33.7240 C   0  0  0  0  0  0  0  0  0  0  0  0
   -4.1990   20.5680  -33.8100 O   0  0  0  0  0  0  0  0  0  0  0  0
   -2.8370   20.7830  -33.4410 C   0  0  0  0  0  0  0  0  0  0  0  0
   -2.5115   21.7639  -33.8177 H   0  0  0  0  0  0  0  0  0  0  0  0
   -2.2220   19.9826  -33.8782 H   0  0  0  0  0  0  0  0  0  0  0  0
   -2.6770   20.7510  -31.9250 C   0  0  0  0  0  0  0  0  0  0  0  0
   -3.6496   20.9455  -31.4495 H   0  0  0  0  0  0  0  0  0  0  0  0
   -2.3091   19.7615  -31.6159 H   0  0  0  0  0  0  0  0  0  0  0  0
   -1.9568   21.5229  -31.6159 H   0  0  0  0  0  0  0  0  0  0  0  0
   -6.1780   19.3360  -33.1320 C   0  0  0  0  0  0  0  0  0  0  0  0
   -6.7430   20.4880  -32.6560 N   0  0  0  0  0  0  0  0  0  0  0  0
   -6.2210   21.3920  -32.7240 H   0  0  0  0  0  0  0  0  0  0  0  0
   -6.8660   23.1810  -30.3440 C   0  0  0  0  0  0  0  0  0  0  0  0
   -5.6370   22.5180  -30.4860 C   0  0  0  0  0  0  0  0  0  0  0  0
   -5.6183   21.4338  -30.6706 H   0  0  0  0  0  0  0  0  0  0  0  0
   -4.4360   23.2290  -30.3940 C   0  0  0  0  0  0  0  0  0  0  0  0
   -3.4761   22.7006  -30.4909 H   0  0  0  0  0  0  0  0  0  0  0  0
   -4.4540   24.6110  -30.1790 C   0  0  0  0  0  0  0  0  0  0  0  0
   -3.2900   25.2990  -30.0910 F   0  0  0  0  0  0  0  0  0  0  0  0
   -5.6740   25.2840  -30.0660 C   0  0  0  0  0  0  0  0  0  0  0  0
   -5.6880   26.3720  -29.9044 H   0  0  0  0  0  0  0  0  0  0  0  0
   -6.8760   24.5770  -30.1580 C   0  0  0  0  0  0  0  0  0  0  0  0
   -7.8338   25.1130  -30.0848 H   0  0  0  0  0  0  0  0  0  0  0  0
  1  2  1  0
  2  3  2  0
  3  4  1  0
  3  5  1  0
  5  6  2  0
  6  7  1  0
  6  8  1  0
  8  9  1  0
  8 10  2  0
 10 11  1  0
 11 12  1  0
 11 13  2  0
 13 14  1  0
 13 15  1  0
 15 16  1  0
 15 17  2  0
 17 18  1  0
 18 19  1  0
 19 20  1  0
 19 21  1  0
 19 22  1  0
 22 23  1  0
 22 24  1  0
 22 25  1  0
 17 26  1  0
 26 27  2  0
 27 28  1  0
  2 29  1  0
 29 30  2  0
 30 31  1  0
 30 32  1  0
 32 33  1  0
 32 34  2  0
 34 35  1  0
 34 36  1  0
 36 37  1  0
 36 38  2  0
 38 39  1  0
 27  5  1  0
 38 29  1  0
 26 10  1  0
M  CHG  1  27   1
M  END
>  <UniqueID>  (27) 
26

>  <SMILES>  (27) 
CCOc1cccc2ccc(/C=C\c3ccc(F)cc3)[nH+]c12

>  <Energy>  (27) 
52.99233879627559

>  <Genealogy>  (27) 
CCOc1cccc2ccc(C=Cc3ccc(F)cc3)[nH+]c12 (protonated)
CCOc1cccc2ccc(/C=C\c3ccc(F)cc3)[nH+]c12 (cis-trans isomerization)
CCOc1cccc2ccc(/C=C\c3ccc(F)cc3)[nH+]c12 (3D coordinates assigned)
CCOc1cccc2ccc(/C=C\c3ccc(F)cc3)[nH+]c12 (optimized conformer: 52.99233879627559 kcal/mol)

>  <smiles>  (27) 
CCOc1cccc2ccc(C=Cc3ccc(F)cc3)nc12

>  <score_type>  (27) 
oracle

>  <origin>  (27) 
adg

>  <m_score__min__energy>  (27) 
-7.7999999999999998

>  <m_primary>  (27) 
energy

$$$$
28:0
     RDKit          3D

 47 49  0  0  0  0  0  0  0  0999 V2000
   -1.3070   25.4470  -27.8290 C   0  0  0  0  0  0  0  0  0  0  0  0
   -2.3850   24.5050  -28.3670 C   0  0  0  0  0  0  0  0  0  0  0  0
   -3.6240   24.5470  -27.4740 C   0  0  0  0  0  0  0  0  0  0  0  0
   -2.7570   24.9130  -29.7210 N   0  0  0  0  0  0  0  0  0  0  0  0
   -3.9930   24.6800  -30.4200 C   0  0  0  0  0  0  0  0  0  0  0  0
   -4.5620   25.6840  -30.9280 O   0  0  0  0  0  0  0  0  0  0  0  0
   -4.6610   23.3000  -30.5400 C   0  0  1  0  0  0  0  0  0  0  0  0
   -5.9520   23.2370  -29.7390 C   0  0  0  0  0  0  0  0  0  0  0  0
   -6.9100   22.5220  -30.6680 C   0  0  0  0  0  0  0  0  0  0  0  0
   -6.5180   22.7610  -31.9980 O   0  0  0  0  0  0  0  0  0  0  0  0
   -5.1250   22.9900  -31.9930 C   0  0  2  0  0  0  0  0  0  0  0  0
   -4.4160   21.7810  -32.6320 C   0  0  0  0  0  0  0  0  0  0  0  0
   -2.9020   21.8380  -32.3840 C   0  0  0  0  0  0  0  0  0  0  0  0
   -2.5440   22.0540  -30.9590 N   0  0  0  0  0  0  0  0  0  0  0  0
   -1.4820   21.1530  -30.4570 C   0  0  0  0  0  0  0  0  0  0  0  0
   -1.4240   21.0620  -28.9460 C   0  0  0  0  0  0  0  0  0  0  0  0
   -0.5750   21.9150  -28.2160 C   0  0  0  0  0  0  0  0  0  0  0  0
   -0.5210   21.8360  -26.8220 C   0  0  0  0  0  0  0  0  0  0  0  0
   -1.3020   20.8970  -26.1430 C   0  0  0  0  0  0  0  0  0  0  0  0
   -1.2460   20.8200  -24.7900 F   0  0  0  0  0  0  0  0  0  0  0  0
   -2.1300   20.0290  -26.8590 C   0  0  0  0  0  0  0  0  0  0  0  0
   -2.1880   20.1060  -28.2540 C   0  0  0  0  0  0  0  0  0  0  0  0
   -3.6960   22.1830  -30.0420 C   0  0  0  0  0  0  0  0  0  0  0  0
   -1.3233   25.4328  -26.7292 H   0  0  0  0  0  0  0  0  0  0  0  0
   -0.3202   25.1166  -28.1854 H   0  0  0  0  0  0  0  0  0  0  0  0
   -1.5022   26.4692  -28.1854 H   0  0  0  0  0  0  0  0  0  0  0  0
   -1.9847   23.4805  -28.3784 H   0  0  0  0  0  0  0  0  0  0  0  0
   -3.3155   24.5365  -26.4182 H   0  0  0  0  0  0  0  0  0  0  0  0
   -4.1938   25.4650  -27.6804 H   0  0  0  0  0  0  0  0  0  0  0  0
   -4.2547   23.6697  -27.6804 H   0  0  0  0  0  0  0  0  0  0  0  0
   -5.8096   22.6689  -28.8079 H   0  0  0  0  0  0  0  0  0  0  0  0
   -6.3140   24.2291  -29.4312 H   0  0  0  0  0  0  0  0  0  0  0  0
   -6.8849   21.4414  -30.4641 H   0  0  0  0  0  0  0  0  0  0  0  0
   -7.9326   22.8945  -30.5079 H   0  0  0  0  0  0  0  0  0  0  0  0
   -4.8568   23.8686  -32.5981 H   0  0  0  0  0  0  0  0  0  0  0  0
   -4.8178   20.8554  -32.1941 H   0  0  0  0  0  0  0  0  0  0  0  0
   -4.5948   21.8027  -33.7172 H   0  0  0  0  0  0  0  0  0  0  0  0
   -2.4588   20.8869  -32.7143 H   0  0  0  0  0  0  0  0  0  0  0  0
   -2.5131   22.6975  -32.9497 H   0  0  0  0  0  0  0  0  0  0  0  0
   -1.6631   20.1452  -30.8588 H   0  0  0  0  0  0  0  0  0  0  0  0
   -0.5211   21.5717  -30.7908 H   0  0  0  0  0  0  0  0  0  0  0  0
    0.0500   22.6485  -28.7464 H   0  0  0  0  0  0  0  0  0  0  0  0
    0.1371   22.5138  -26.2584 H   0  0  0  0  0  0  0  0  0  0  0  0
   -2.7373   19.2837  -26.3245 H   0  0  0  0  0  0  0  0  0  0  0  0
   -2.8353   19.4144  -28.8133 H   0  0  0  0  0  0  0  0  0  0  0  0
   -4.2376   21.2264  -30.0030 H   0  0  0  0  0  0  0  0  0  0  0  0
   -3.3278   22.4487  -29.0401 H   0  0  0  0  0  0  0  0  0  0  0  0
  1  2  1  0
  2  3  1  0
  2  4  1  0
  4  5  1  0
  5  6  2  0
  7  5  1  6
  7  8  1  0
  8  9  1  0
  9 10  1  0
 10 11  1  0
 11 12  1  0
 12 13  1  0
 13 14  1  0
 14 15  1  0
 15 16  1  0
 16 17  2  0
 17 18  1  0
 18 19  2  0
 19 20  1  0
 19 21  1  0
 21 22  2  0
 14 23  1  0
 11  7  1  0
 22 16  1  0
 23  7  1  0
  1 24  1  0
  1 25  1  0
  1 26  1  0
  2 27  1  0
  3 28  1  0
  3 29  1  0
  3 30  1  0
  8 31  1  0
  8 32  1  0
  9 33  1  0
  9 34  1  0
 11 35  1  6
 12 36  1  0
 12 37  1  0
 13 38  1  0
 13 39  1  0
 15 40  1  0
 15 41  1  0
 17 42  1  0
 18 43  1  0
 21 44  1  0
 22 45  1  0
 23 46  1  0
 23 47  1  0
M  CHG  1   4  -1
M  END
>  <UniqueID>  (28) 
27

>  <SMILES>  (28) 
CC(C)[N-]C(=O)[C@@]12CCO[C@@H]1CCN(Cc1ccc(F)cc1)C2

>  <Energy>  (28) 
62.018098724193656

>  <Genealogy>  (28) 
CC(C)[N-]C(=O)C12CCOC1CCN(Cc1ccc(F)cc1)C2 (protonated)
CC(C)[N-]C(=O)[C@@]12CCO[C@@H]1CCN(Cc1ccc(F)cc1)C2 (chirality)
CC(C)[N-]C(=O)[C@@]12CCO[C@@H]1CCN(Cc1ccc(F)cc1)C2 (3D coordinates assigned)
CC(C)[N-]C(=O)[C@@]12CCO[C@@H]1CCN(Cc1ccc(F)cc1)C2 (nonaromatic ring conformer: 62.018098724193656 kcal/mol)

>  <smiles>  (28) 
CC(C)NC(=O)C12CCOC1CCN(Cc1ccc(F)cc1)C2

>  <score_type>  (28) 
oracle

>  <origin>  (28) 
adg

>  <m_score__min__energy>  (28) 
-9.1999999999999993

>  <m_primary>  (28) 
energy

$$$$
29:0
     RDKit          3D

 66 68  0  0  0  0  0  0  0  0999 V2000
   -2.6490   21.6590  -29.0310 C   0  0  0  0  0  0  0  0  0  0  0  0
   -1.5650   21.3410  -30.0550 C   0  0  0  0  0  0  0  0  0  0  0  0
   -1.7890   20.0700  -30.6390 O   0  0  0  0  0  0  0  0  0  0  0  0
   -0.7650   19.7630  -31.5620 C   0  0  0  0  0  0  0  0  0  0  0  0
   -1.2750   18.7160  -32.5540 C   0  0  0  0  0  0  0  0  0  0  0  0
   -2.3390   19.2250  -33.3380 O   0  0  0  0  0  0  0  0  0  0  0  0
   -2.0590   20.5290  -33.8220 C   0  0  0  0  0  0  0  0  0  0  0  0
   -3.1410   21.4920  -33.3330 C   0  0  0  0  0  0  0  0  0  0  0  0
   -3.8960   20.9100  -32.2220 N   0  0  0  0  0  0  0  0  0  0  0  0
   -5.2810   21.2270  -32.0560 C   0  0  0  0  0  0  0  0  0  0  0  0
   -5.6080   22.4760  -31.4920 C   0  0  0  0  0  0  0  0  0  0  0  0
   -4.6030   23.4350  -31.2270 C   0  0  0  0  0  0  0  0  0  0  0  0
   -4.9140   24.6490  -30.6230 C   0  0  0  0  0  0  0  0  0  0  0  0
   -6.2260   24.9280  -30.2610 C   0  0  0  0  0  0  0  0  0  0  0  0
   -7.2360   24.0030  -30.5220 C   0  0  0  0  0  0  0  0  0  0  0  0
   -6.9540   22.7710  -31.1700 C   0  0  0  0  0  0  0  0  0  0  0  0
   -7.9470   21.8580  -31.4540 N   0  0  0  0  0  0  0  0  0  0  0  0
   -9.3680   22.2680  -31.3670 C   0  0  0  0  0  0  0  0  0  0  0  0
   -7.6210   20.5770  -31.8590 C   0  0  0  0  0  0  0  0  0  0  0  0
   -8.5920   19.5480  -31.8350 C   0  0  0  0  0  0  0  0  0  0  0  0
   -8.3200   18.2900  -32.3480 C   0  0  0  0  0  0  0  0  0  0  0  0
   -7.0930   18.0270  -32.9280 C   0  0  0  0  0  0  0  0  0  0  0  0
   -6.0650   18.9880  -32.9340 C   0  0  0  0  0  0  0  0  0  0  0  0
   -4.8790   18.6780  -33.7140 N   0  0  0  0  0  0  0  0  0  0  0  0
   -5.2090   17.7860  -34.8390 C   0  0  0  0  0  0  0  0  0  0  0  0
   -4.6130   16.3850  -34.6340 C   0  0  0  0  0  0  0  0  0  0  0  0
   -3.9950   16.2770  -33.2930 N   0  0  0  0  0  0  0  0  0  0  0  0
   -2.6810   15.6150  -33.3670 C   0  0  0  0  0  0  0  0  0  0  0  0
   -4.8690   15.5400  -32.3690 C   0  0  0  0  0  0  0  0  0  0  0  0
   -6.2950   20.2600  -32.2920 C   0  0  0  0  0  0  0  0  0  0  0  0
   -2.2413   21.5394  -28.0164 H   0  0  0  0  0  0  0  0  0  0  0  0
   -2.9910   22.6953  -29.1689 H   0  0  0  0  0  0  0  0  0  0  0  0
   -3.4967   20.9717  -29.1689 H   0  0  0  0  0  0  0  0  0  0  0  0
   -1.5759   22.1082  -30.8433 H   0  0  0  0  0  0  0  0  0  0  0  0
   -0.5892   21.3313  -29.5474 H   0  0  0  0  0  0  0  0  0  0  0  0
   -0.4755   20.6742  -32.1060 H   0  0  0  0  0  0  0  0  0  0  0  0
    0.1086   19.3660  -31.0243 H   0  0  0  0  0  0  0  0  0  0  0  0
   -0.4499   18.4202  -33.2186 H   0  0  0  0  0  0  0  0  0  0  0  0
   -1.6460   17.8506  -31.9852 H   0  0  0  0  0  0  0  0  0  0  0  0
   -1.0782   20.8573  -33.4475 H   0  0  0  0  0  0  0  0  0  0  0  0
   -2.0442   20.5188  -34.9219 H   0  0  0  0  0  0  0  0  0  0  0  0
   -2.6666   22.4254  -32.9960 H   0  0  0  0  0  0  0  0  0  0  0  0
   -3.8349   21.6912  -34.1629 H   0  0  0  0  0  0  0  0  0  0  0  0
   -3.5250   20.0700  -31.7250 H   0  0  0  0  0  0  0  0  0  0  0  0
   -3.5604   23.2179  -31.5024 H   0  0  0  0  0  0  0  0  0  0  0  0
   -4.1215   25.3876  -30.4321 H   0  0  0  0  0  0  0  0  0  0  0  0
   -6.4684   25.8807  -29.7674 H   0  0  0  0  0  0  0  0  0  0  0  0
   -8.2691   24.2313  -30.2209 H   0  0  0  0  0  0  0  0  0  0  0  0
   -9.6612   22.3526  -30.3102 H   0  0  0  0  0  0  0  0  0  0  0  0
   -9.5000   23.2409  -31.8631 H   0  0  0  0  0  0  0  0  0  0  0  0
   -9.9979   21.5150  -31.8631 H   0  0  0  0  0  0  0  0  0  0  0  0
   -9.5820   19.7508  -31.4006 H   0  0  0  0  0  0  0  0  0  0  0  0
   -9.0822   17.4987  -32.2936 H   0  0  0  0  0  0  0  0  0  0  0  0
   -6.9166   17.0465  -33.3944 H   0  0  0  0  0  0  0  0  0  0  0  0
   -4.3760   19.5320  -34.0200 H   0  0  0  0  0  0  0  0  0  0  0  0
   -4.1790   18.1790  -33.1140 H   0  0  0  0  0  0  0  0  0  0  0  0
   -6.3027   17.7017  -34.9205 H   0  0  0  0  0  0  0  0  0  0  0  0
   -4.7820   18.2138  -35.7581 H   0  0  0  0  0  0  0  0  0  0  0  0
   -5.4119   15.6345  -34.7262 H   0  0  0  0  0  0  0  0  0  0  0  0
   -3.8404   16.2112  -35.3975 H   0  0  0  0  0  0  0  0  0  0  0  0
   -2.3074   15.4268  -32.3496 H   0  0  0  0  0  0  0  0  0  0  0  0
   -2.7813   14.6599  -33.9033 H   0  0  0  0  0  0  0  0  0  0  0  0
   -1.9731   16.2641  -33.9033 H   0  0  0  0  0  0  0  0  0  0  0  0
   -4.5886   15.7764  -31.3319 H   0  0  0  0  0  0  0  0  0  0  0  0
   -5.9152   15.8327  -32.5418 H   0  0  0  0  0  0  0  0  0  0  0  0
   -4.7572   14.4594  -32.5418 H   0  0  0  0  0  0  0  0  0  0  0  0
  1  2  1  0
  2  3  1  0
  3  4  1  0
  4  5  1  0
  5  6  1  0
  6  7  1  0
  7  8  1  0
  8  9  1  0
  9 10  1  0
 10 11  2  0
 11 12  1  0
 12 13  2  0
 13 14  1  0
 14 15  2  0
 15 16  1  0
 16 17  2  0
 17 18  1  0
 17 19  1  0
 19 20  2  0
 20 21  1  0
 21 22  2  0
 22 23  1  0
 23 24  1  0
 24 25  1  0
 25 26  1  0
 26 27  1  0
 27 28  1  0
 27 29  1  0
 23 30  2  0
 30 10  1  0
 16 11  1  0
 30 19  1  0
  1 31  1  0
  1 32  1  0
  1 33  1  0
  2 34  1  0
  2 35  1  0
  4 36  1  0
  4 37  1  0
  5 38  1  0
  5 39  1  0
  7 40  1  0
  7 41  1  0
  8 42  1  0
  8 43  1  0
  9 44  1  0
 12 45  1  0
 13 46  1  0
 14 47  1  0
 15 48  1  0
 18 49  1  0
 18 50  1  0
 18 51  1  0
 20 52  1  0
 21 53  1  0
 22 54  1  0
 24 55  1  0
 24 56  1  0
 25 57  1  0
 25 58  1  0
 26 59  1  0
 26 60  1  0
 28 61  1  0
 28 62  1  0
 28 63  1  0
 29 64  1  0
 29 65  1  0
 29 66  1  0
M  CHG  2  17   1  24   1
M  END
>  <UniqueID>  (29) 
28

>  <SMILES>  (29) 
CCOCCOCCNc1c2ccccc2[n+](C)c2cccc([NH2+]CCN(C)C)c12

>  <Energy>  (29) 
101.05426791882695

>  <Genealogy>  (29) 
CCOCCOCCNc1c2ccccc2[n+](C)c2cccc([NH2+]CCN(C)C)c12 (protonated)
CCOCCOCCNc1c2ccccc2[n+](C)c2cccc([NH2+]CCN(C)C)c12 (3D coordinates assigned)
CCOCCOCCNc1c2ccccc2[n+](C)c2cccc([NH2+]CCN(C)C)c12 (optimized conformer: 101.05426791882695 kcal/mol)

>  <smiles>  (29) 
CCOCCOCCNc1c2ccccc2[n+](C)c2cccc(NCCN(C)C)c12

>  <score_type>  (29) 
oracle

>  <origin>  (29) 
adg

>  <m_score__min__energy>  (29) 
-9.0600000000000005

>  <m_primary>  (29) 
energy

$$$$
