0:0
     RDKit          3D

 60 63  0  0  0  0  0  0  0  0999 V2000
   -9.0300   20.8930  -30.9030 C   0  0  0  0  0  0  0  0  0  0  0  0
   -9.4950   20.6830  -32.3390 C   0  0  0  0  0  0  0  0  0  0  0  0
   -9.2770   19.2890  -32.7460 N   0  0  0  0  0  0  0  0  0  0  0  0
   -8.7230   18.4880  -31.6470 C   0  0  0  0  0  0  0  0  0  0  0  0
   -7.6070   17.5810  -32.1780 C   0  0  0  0  0  0  0  0  0  0  0  0
   -6.7570   18.3160  -33.1420 N   0  0  0  0  0  0  0  0  0  0  0  0
   -6.1760   19.5150  -32.5070 C   0  0  0  0  0  0  0  0  0  0  0  0
   -5.3010   20.2930  -33.5090 C   0  0  0  0  0  0  0  0  0  0  0  0
   -4.2680   19.4430  -34.1380 N   0  0  0  0  0  0  0  0  0  0  0  0
   -3.1110   19.1880  -33.2480 C   0  0  0  0  0  0  0  0  0  0  0  0
   -3.3450   19.8730  -31.8990 C   0  0  0  0  0  0  0  0  0  0  0  0
   -2.5310   21.1780  -31.7680 C   0  0  0  0  0  0  0  0  0  0  0  0
   -2.9390   21.9670  -30.5960 N   0  0  0  0  0  0  0  0  0  0  0  0
   -2.2970   21.7710  -29.3120 C   0  0  0  0  0  0  0  0  0  0  0  0
   -1.9620   20.4860  -28.8450 C   0  0  0  0  0  0  0  0  0  0  0  0
   -1.5200   20.3050  -27.5310 C   0  0  0  0  0  0  0  0  0  0  0  0
   -1.4080   21.3990  -26.6700 C   0  0  0  0  0  0  0  0  0  0  0  0
   -1.6990   22.6840  -27.1320 C   0  0  0  0  0  0  0  0  0  0  0  0
   -2.1180   22.8730  -28.4530 C   0  0  0  0  0  0  0  0  0  0  0  0
   -2.3000   24.5330  -29.1020 S   0  0  0  0  0  0  0  0  0  0  0  0
   -3.8470   24.1610  -29.9240 C   0  0  0  0  0  0  0  0  0  0  0  0
   -4.9000   25.0800  -29.8690 C   0  0  0  0  0  0  0  0  0  0  0  0
   -6.0630   24.8570  -30.6090 C   0  0  0  0  0  0  0  0  0  0  0  0
   -6.1760   23.7130  -31.4030 C   0  0  0  0  0  0  0  0  0  0  0  0
   -7.6380   23.4370  -32.3360 Cl  0  0  0  0  0  0  0  0  0  0  0  0
   -5.1350   22.7790  -31.4420 C   0  0  0  0  0  0  0  0  0  0  0  0
   -3.9610   22.9890  -30.6960 C   0  0  0  0  0  0  0  0  0  0  0  0
   -4.8540   18.2110  -34.7010 C   0  0  0  0  0  0  0  0  0  0  0  0
   -5.6770   17.4510  -33.6560 C   0  0  0  0  0  0  0  0  0  0  0  0
   -9.8087   20.5413  -30.2103 H   0  0  0  0  0  0  0  0  0  0  0  0
   -8.1031   20.3261  -30.7311 H   0  0  0  0  0  0  0  0  0  0  0  0
   -8.8425   21.9632  -30.7311 H   0  0  0  0  0  0  0  0  0  0  0  0
  -10.5669   20.9189  -32.4116 H   0  0  0  0  0  0  0  0  0  0  0  0
   -8.9182   21.3441  -33.0025 H   0  0  0  0  0  0  0  0  0  0  0  0
   -8.5730   19.2880  -33.5220 H   0  0  0  0  0  0  0  0  0  0  0  0
   -8.3137   19.1582  -30.8767 H   0  0  0  0  0  0  0  0  0  0  0  0
   -9.5200   17.8671  -31.2120 H   0  0  0  0  0  0  0  0  0  0  0  0
   -6.9871   17.2388  -31.3362 H   0  0  0  0  0  0  0  0  0  0  0  0
   -8.0613   16.7192  -32.6888 H   0  0  0  0  0  0  0  0  0  0  0  0
   -6.9891   20.1672  -32.1555 H   0  0  0  0  0  0  0  0  0  0  0  0
   -5.5480   19.1979  -31.6614 H   0  0  0  0  0  0  0  0  0  0  0  0
   -5.9483   20.7036  -34.2979 H   0  0  0  0  0  0  0  0  0  0  0  0
   -4.7850   21.0900  -32.9535 H   0  0  0  0  0  0  0  0  0  0  0  0
   -2.9981   18.1046  -33.0945 H   0  0  0  0  0  0  0  0  0  0  0  0
   -2.1971   19.5898  -33.7100 H   0  0  0  0  0  0  0  0  0  0  0  0
   -4.4148   20.1096  -31.8010 H   0  0  0  0  0  0  0  0  0  0  0  0
   -3.0170   19.1852  -31.1057 H   0  0  0  0  0  0  0  0  0  0  0  0
   -1.4652   20.9235  -31.6711 H   0  0  0  0  0  0  0  0  0  0  0  0
   -2.7153   21.7848  -32.6668 H   0  0  0  0  0  0  0  0  0  0  0  0
   -2.0484   19.6197  -29.5174 H   0  0  0  0  0  0  0  0  0  0  0  0
   -1.2596   19.2976  -27.1741 H   0  0  0  0  0  0  0  0  0  0  0  0
   -1.0905   21.2482  -25.6277 H   0  0  0  0  0  0  0  0  0  0  0  0
   -1.5988   23.5472  -26.4575 H   0  0  0  0  0  0  0  0  0  0  0  0
   -4.8119   25.9795  -29.2420 H   0  0  0  0  0  0  0  0  0  0  0  0
   -6.8896   25.5815  -30.5668 H   0  0  0  0  0  0  0  0  0  0  0  0
   -5.2352   21.8746  -32.0600 H   0  0  0  0  0  0  0  0  0  0  0  0
   -5.5074   18.4792  -35.5443 H   0  0  0  0  0  0  0  0  0  0  0  0
   -4.0325   17.5593  -35.0333 H   0  0  0  0  0  0  0  0  0  0  0  0
   -6.1162   16.5549  -34.1187 H   0  0  0  0  0  0  0  0  0  0  0  0
   -5.0217   17.1558  -32.8233 H   0  0  0  0  0  0  0  0  0  0  0  0
  1  2  1  0
  2  3  1  0
  3  4  1  0
  4  5  1  0
  5  6  1  0
  6  7  1  0
  7  8  1  0
  8  9  1  0
  9 10  1  0
 10 11  1  0
 11 12  1  0
 12 13  1  0
 13 14  1  0
 14 15  2  0
 15 16  1  0
 16 17  2  0
 17 18  1  0
 18 19  2  0
 19 20  1  0
 20 21  1  0
 21 22  2  0
 22 23  1  0
 23 24  2  0
 24 25  1  0
 24 26  1  0
 26 27  2  0
  9 28  1  0
 28 29  1  0
 29  6  1  0
 27 13  1  0
 19 14  1  0
 27 21  1  0
  1 30  1  0
  1 31  1  0
  1 32  1  0
  2 33  1  0
  2 34  1  0
  3 35  1  0
  4 36  1  0
  4 37  1  0
  5 38  1  0
  5 39  1  0
  7 40  1  0
  7 41  1  0
  8 42  1  0
  8 43  1  0
 10 44  1  0
 10 45  1  0
 11 46  1  0
 11 47  1  0
 12 48  1  0
 12 49  1  0
 15 50  1  0
 16 51  1  0
 17 52  1  0
 18 53  1  0
 22 54  1  0
 23 55  1  0
 26 56  1  0
 28 57  1  0
 28 58  1  0
 29 59  1  0
 29 60  1  0
M  END
>  <UniqueID>  (1) 
1

>  <SMILES>  (1) 
CCNCCN1CCN(CCCN2c3ccccc3Sc3ccc(Cl)cc32)CC1

>  <Energy>  (1) 
80.0456167742086

>  <Genealogy>  (1) 
CCNCCN1CCN(CCCN2c3ccccc3Sc3ccc(Cl)cc32)CC1 (3D coordinates assigned)
CCNCCN1CCN(CCCN2c3ccccc3Sc3ccc(Cl)cc32)CC1 (nonaromatic ring conformer: 80.0456167742086 kcal/mol)

>  <smiles>  (1) 
CCNCCN1CCN(CCCN2c3ccccc3Sc3ccc(Cl)cc32)CC1

>  <score_type>  (1) 
oracle

>  <origin>  (1) 
adg

>  <m_score__min__energy>  (1) 
-9.7799999999999994

>  <m_primary>  (1) 
energy

$$$$
1:0
     RDKit          3D

 60 63  0  0  0  0  0  0  0  0999 V2000
    0.2510   20.3740  -35.5590 C   0  0  0  0  0  0  0  0  0  0  0  0
   -0.2690   21.4660  -34.6140 C   0  0  0  0  0  0  0  0  0  0  0  0
   -1.5100   21.0530  -33.9040 N   0  0  0  0  0  0  0  0  0  0  0  0
   -1.3520   21.2350  -32.4350 C   0  0  0  0  0  0  0  0  0  0  0  0
   -0.4810   20.1420  -31.8060 C   0  0  0  0  0  0  0  0  0  0  0  0
   -1.8300   19.6340  -34.2120 C   0  0  0  0  0  0  0  0  0  0  0  0
   -3.2440   19.2740  -33.8160 C   0  0  0  0  0  0  0  0  0  0  0  0
   -3.7090   17.9540  -34.0040 C   0  0  0  0  0  0  0  0  0  0  0  0
   -5.0170   17.5910  -33.6370 C   0  0  0  0  0  0  0  0  0  0  0  0
   -5.4880   16.2060  -33.8380 C   0  0  0  0  0  0  0  0  0  0  0  0
   -6.7630   15.9900  -34.3800 C   0  0  0  0  0  0  0  0  0  0  0  0
   -7.2340   14.6910  -34.5850 C   0  0  0  0  0  0  0  0  0  0  0  0
   -6.4370   13.5840  -34.2390 C   0  0  0  0  0  0  0  0  0  0  0  0
   -6.8640   12.2600  -34.4230 O   0  0  0  0  0  0  0  0  0  0  0  0
   -7.9820   11.8810  -35.2190 C   0  0  0  0  0  0  0  0  0  0  0  0
   -5.1690   13.8010  -33.6850 C   0  0  0  0  0  0  0  0  0  0  0  0
   -4.6910   15.1010  -33.4790 C   0  0  0  0  0  0  0  0  0  0  0  0
   -3.1130   15.3080  -32.7270 Cl  0  0  0  0  0  0  0  0  0  0  0  0
   -5.8350   18.5690  -33.0630 C   0  0  0  0  0  0  0  0  0  0  0  0
   -7.4160   18.4030  -32.4830 S   0  0  0  0  0  0  0  0  0  0  0  0
   -7.5440   20.0100  -31.9940 C   0  0  0  0  0  0  0  0  0  0  0  0
   -8.6340   20.6270  -31.3880 C   0  0  0  0  0  0  0  0  0  0  0  0
   -8.5270   21.9840  -31.0490 C   0  0  0  0  0  0  0  0  0  0  0  0
   -7.3430   22.7040  -31.3250 C   0  0  0  0  0  0  0  0  0  0  0  0
   -7.2320   24.1540  -30.9260 C   0  0  0  0  0  0  0  0  0  0  0  0
   -6.1790   24.3630  -29.8320 C   0  0  0  0  0  0  0  0  0  0  0  0
   -4.9190   24.8730  -30.3890 C   0  0  0  0  0  0  0  0  0  0  0  0
   -3.9270   25.2730  -30.8280 N   0  0  0  0  0  0  0  0  0  0  0  0
   -6.2490   22.0510  -31.9330 C   0  0  0  0  0  0  0  0  0  0  0  0
   -6.3640   20.6950  -32.2670 C   0  0  0  0  0  0  0  0  0  0  0  0
   -5.3920   19.8770  -32.8690 C   0  0  0  0  0  0  0  0  0  0  0  0
   -4.0960   20.2430  -33.2490 C   0  0  0  0  0  0  0  0  0  0  0  0
    0.6497   19.5366  -34.9675 H   0  0  0  0  0  0  0  0  0  0  0  0
   -0.5729   20.0152  -36.1934 H   0  0  0  0  0  0  0  0  0  0  0  0
    1.0489   20.7875  -36.1934 H   0  0  0  0  0  0  0  0  0  0  0  0
    0.5083   21.6881  -33.8680 H   0  0  0  0  0  0  0  0  0  0  0  0
   -0.5071   22.3518  -35.2212 H   0  0  0  0  0  0  0  0  0  0  0  0
   -2.3010   21.6570  -34.2360 H   0  0  0  0  0  0  0  0  0  0  0  0
   -0.8838   22.2126  -32.2476 H   0  0  0  0  0  0  0  0  0  0  0  0
   -2.3509   21.1751  -31.9782 H   0  0  0  0  0  0  0  0  0  0  0  0
   -0.5379   20.2134  -30.7098 H   0  0  0  0  0  0  0  0  0  0  0  0
   -0.8424   19.1543  -32.1284 H   0  0  0  0  0  0  0  0  0  0  0  0
    0.5624   20.2738  -32.1284 H   0  0  0  0  0  0  0  0  0  0  0  0
   -1.7111   19.4696  -35.2931 H   0  0  0  0  0  0  0  0  0  0  0  0
   -1.1429   18.9976  -33.6351 H   0  0  0  0  0  0  0  0  0  0  0  0
   -3.0393   17.1999  -34.4432 H   0  0  0  0  0  0  0  0  0  0  0  0
   -7.3965   16.8491  -34.6455 H   0  0  0  0  0  0  0  0  0  0  0  0
   -8.2324   14.5327  -35.0188 H   0  0  0  0  0  0  0  0  0  0  0  0
   -8.8190   11.5972  -34.5641 H   0  0  0  0  0  0  0  0  0  0  0  0
   -8.2837   12.7271  -35.8539 H   0  0  0  0  0  0  0  0  0  0  0  0
   -7.7070   11.0259  -35.8539 H   0  0  0  0  0  0  0  0  0  0  0  0
   -4.5417   12.9407  -33.4087 H   0  0  0  0  0  0  0  0  0  0  0  0
   -9.5564   20.0649  -31.1800 H   0  0  0  0  0  0  0  0  0  0  0  0
   -9.3731   22.4925  -30.5636 H   0  0  0  0  0  0  0  0  0  0  0  0
   -6.9504   24.7460  -31.8093 H   0  0  0  0  0  0  0  0  0  0  0  0
   -8.2063   24.4756  -30.5294 H   0  0  0  0  0  0  0  0  0  0  0  0
   -6.5643   25.0863  -29.0983 H   0  0  0  0  0  0  0  0  0  0  0  0
   -5.9782   23.3920  -29.3557 H   0  0  0  0  0  0  0  0  0  0  0  0
   -5.3186   22.5994  -32.1418 H   0  0  0  0  0  0  0  0  0  0  0  0
   -3.7459   21.2760  -33.1067 H   0  0  0  0  0  0  0  0  0  0  0  0
  1  2  1  0
  2  3  1  0
  3  4  1  0
  4  5  1  0
  3  6  1  0
  6  7  1  0
  7  8  2  0
  8  9  1  0
  9 10  1  0
 10 11  2  0
 11 12  1  0
 12 13  2  0
 13 14  1  0
 14 15  1  0
 13 16  1  0
 16 17  2  0
 17 18  1  0
  9 19  2  0
 19 20  1  0
 20 21  1  0
 21 22  2  0
 22 23  1  0
 23 24  2  0
 24 25  1  0
 25 26  1  0
 26 27  1  0
 27 28  3  0
 24 29  1  0
 29 30  2  0
 30 31  1  0
 31 32  2  0
 32  7  1  0
 17 10  1  0
 31 19  1  0
 30 21  1  0
  1 33  1  0
  1 34  1  0
  1 35  1  0
  2 36  1  0
  2 37  1  0
  3 38  1  0
  4 39  1  0
  4 40  1  0
  5 41  1  0
  5 42  1  0
  5 43  1  0
  6 44  1  0
  6 45  1  0
  8 46  1  0
 11 47  1  0
 12 48  1  0
 15 49  1  0
 15 50  1  0
 15 51  1  0
 16 52  1  0
 22 53  1  0
 23 54  1  0
 25 55  1  0
 25 56  1  0
 26 57  1  0
 26 58  1  0
 29 59  1  0
 32 60  1  0
M  CHG  1   3   1
M  END
>  <UniqueID>  (2) 
2

>  <SMILES>  (2) 
CC[NH+](CC)Cc1cc(-c2ccc(OC)cc2Cl)c2sc3ccc(CCC#N)cc3c2c1

>  <Energy>  (2) 
103.81172047149866

>  <Genealogy>  (2) 
CC[NH+](CC)Cc1cc(-c2ccc(OC)cc2Cl)c2sc3ccc(CCC#N)cc3c2c1 (protonated)
CC[NH+](CC)Cc1cc(-c2ccc(OC)cc2Cl)c2sc3ccc(CCC#N)cc3c2c1 (3D coordinates assigned)
CC[NH+](CC)Cc1cc(-c2ccc(OC)cc2Cl)c2sc3ccc(CCC#N)cc3c2c1 (optimized conformer: 103.81172047149866 kcal/mol)

>  <smiles>  (2) 
CCN(CC)Cc1cc(-c2ccc(OC)cc2Cl)c2sc3ccc(CCC#N)cc3c2c1

>  <score_type>  (2) 
oracle

>  <origin>  (2) 
adg

>  <m_score__min__energy>  (2) 
-9.5399999999999991

>  <m_primary>  (2) 
energy

$$$$
2:0
     RDKit          3D

 71 74  0  0  0  0  0  0  0  0999 V2000
   -9.4770   21.5520  -30.4810 C   0  0  0  0  0  0  0  0  0  0  0  0
   -9.2460   21.3140  -31.9720 C   0  0  0  0  0  0  0  0  0  0  0  0
   -7.8100   21.4760  -32.3050 N   0  0  0  0  0  0  0  0  0  0  0  0
   -7.0950   20.1820  -32.2030 C   0  0  0  0  0  0  0  0  0  0  0  0
   -8.0700   19.0170  -32.3620 C   0  0  0  0  0  0  0  0  0  0  0  0
   -7.1860   22.4990  -31.4310 C   0  0  0  0  0  0  0  0  0  0  0  0
   -6.4160   23.5440  -32.2480 C   0  0  0  0  0  0  0  0  0  0  0  0
   -5.1090   23.8250  -31.6550 N   0  0  0  0  0  0  0  0  0  0  0  0
   -4.0760   22.8250  -31.5790 C   0  0  0  0  0  0  0  0  0  0  0  0
   -4.2350   21.6570  -32.3250 C   0  0  0  0  0  0  0  0  0  0  0  0
   -3.3110   20.6290  -32.2500 C   0  0  0  0  0  0  0  0  0  0  0  0
   -2.2010   20.7110  -31.3980 C   0  0  0  0  0  0  0  0  0  0  0  0
   -1.2110   19.6580  -31.4470 N   0  0  0  0  0  0  0  0  0  0  0  0
   -1.1400   18.6340  -32.4940 C   0  0  0  0  0  0  0  0  0  0  0  0
    0.2980   18.3820  -32.9710 C   0  0  0  0  0  0  0  0  0  0  0  0
    0.6390   19.2820  -34.0970 N   0  0  0  0  0  0  0  0  0  0  0  0
   -0.5280   20.0550  -34.5950 C   0  0  0  0  0  0  0  0  0  0  0  0
   -0.4720   21.5430  -34.2040 C   0  0  0  0  0  0  0  0  0  0  0  0
    0.7760   22.2040  -34.6620 N   0  0  0  0  0  0  0  0  0  0  0  0
    0.5720   22.9200  -35.9310 C   0  0  0  0  0  0  0  0  0  0  0  0
    1.9350   21.2860  -34.7630 C   0  0  0  0  0  0  0  0  0  0  0  0
    1.8130   20.1220  -33.7760 C   0  0  0  0  0  0  0  0  0  0  0  0
   -2.0320   21.8720  -30.5790 C   0  0  0  0  0  0  0  0  0  0  0  0
   -0.9960   21.9680  -29.6090 C   0  0  0  0  0  0  0  0  0  0  0  0
   -0.1790   20.8810  -29.3160 O   0  0  0  0  0  0  0  0  0  0  0  0
   -0.7910   23.1590  -28.8910 C   0  0  0  0  0  0  0  0  0  0  0  0
    0.2620   23.2640  -27.9560 C   0  0  0  0  0  0  0  0  0  0  0  0
    0.4780   24.4540  -27.2630 C   0  0  0  0  0  0  0  0  0  0  0  0
   -0.3460   25.5550  -27.4880 C   0  0  0  0  0  0  0  0  0  0  0  0
   -1.3960   25.4680  -28.4020 C   0  0  0  0  0  0  0  0  0  0  0  0
   -1.6340   24.2700  -29.1100 C   0  0  0  0  0  0  0  0  0  0  0  0
   -2.7000   24.1740  -30.0160 C   0  0  0  0  0  0  0  0  0  0  0  0
   -3.4860   25.3020  -30.2330 O   0  0  0  0  0  0  0  0  0  0  0  0
   -2.9500   22.9650  -30.7180 C   0  0  0  0  0  0  0  0  0  0  0  0
   -8.8274   20.8827  -29.8979 H   0  0  0  0  0  0  0  0  0  0  0  0
   -9.2405   22.5979  -30.2357 H   0  0  0  0  0  0  0  0  0  0  0  0
  -10.5295   21.3468  -30.2357 H   0  0  0  0  0  0  0  0  0  0  0  0
   -9.5649   20.2933  -32.2298 H   0  0  0  0  0  0  0  0  0  0  0  0
   -9.8303   22.0487  -32.5453 H   0  0  0  0  0  0  0  0  0  0  0  0
   -6.3328   20.1264  -32.9941 H   0  0  0  0  0  0  0  0  0  0  0  0
   -6.6202   20.1154  -31.2130 H   0  0  0  0  0  0  0  0  0  0  0  0
   -8.3733   18.6546  -31.3687 H   0  0  0  0  0  0  0  0  0  0  0  0
   -8.9582   19.3552  -32.9159 H   0  0  0  0  0  0  0  0  0  0  0  0
   -7.5806   18.2023  -32.9159 H   0  0  0  0  0  0  0  0  0  0  0  0
   -7.9744   23.0058  -30.8552 H   0  0  0  0  0  0  0  0  0  0  0  0
   -6.4751   21.9929  -30.7614 H   0  0  0  0  0  0  0  0  0  0  0  0
   -6.2714   23.1641  -33.2702 H   0  0  0  0  0  0  0  0  0  0  0  0
   -7.0002   24.4760  -32.2580 H   0  0  0  0  0  0  0  0  0  0  0  0
   -4.9980   24.6940  -31.0830 H   0  0  0  0  0  0  0  0  0  0  0  0
   -5.1094   21.5511  -32.9840 H   0  0  0  0  0  0  0  0  0  0  0  0
   -3.4504   19.7314  -32.8703 H   0  0  0  0  0  0  0  0  0  0  0  0
   -0.3800   19.7240  -30.8200 H   0  0  0  0  0  0  0  0  0  0  0  0
   -1.5501   17.6938  -32.0968 H   0  0  0  0  0  0  0  0  0  0  0  0
   -1.7204   18.9951  -33.3558 H   0  0  0  0  0  0  0  0  0  0  0  0
    0.9926   18.5659  -32.1381 H   0  0  0  0  0  0  0  0  0  0  0  0
    0.3808   17.3396  -33.3125 H   0  0  0  0  0  0  0  0  0  0  0  0
   -0.5555   19.9812  -35.6922 H   0  0  0  0  0  0  0  0  0  0  0  0
   -1.4295   19.6260  -34.1331 H   0  0  0  0  0  0  0  0  0  0  0  0
   -1.3314   22.0594  -34.6566 H   0  0  0  0  0  0  0  0  0  0  0  0
   -0.4979   21.6015  -33.1059 H   0  0  0  0  0  0  0  0  0  0  0  0
    0.2761   23.9587  -35.7225 H   0  0  0  0  0  0  0  0  0  0  0  0
    1.5075   22.9144  -36.5097 H   0  0  0  0  0  0  0  0  0  0  0  0
   -0.2201   22.4222  -36.5097 H   0  0  0  0  0  0  0  0  0  0  0  0
    1.9853   20.8843  -35.7858 H   0  0  0  0  0  0  0  0  0  0  0  0
    2.8468   21.8515  -34.5206 H   0  0  0  0  0  0  0  0  0  0  0  0
    2.7228   19.5061  -33.8305 H   0  0  0  0  0  0  0  0  0  0  0  0
    1.6874   20.5308  -32.7625 H   0  0  0  0  0  0  0  0  0  0  0  0
    0.9172   22.3996  -27.7730 H   0  0  0  0  0  0  0  0  0  0  0  0
    1.3011   24.5241  -26.5366 H   0  0  0  0  0  0  0  0  0  0  0  0
   -0.1681   26.4943  -26.9439 H   0  0  0  0  0  0  0  0  0  0  0  0
   -2.0441   26.3402  -28.5726 H   0  0  0  0  0  0  0  0  0  0  0  0
  1  2  1  0
  2  3  1  0
  3  4  1  0
  4  5  1  0
  3  6  1  0
  6  7  1  0
  7  8  1  0
  8  9  1  0
  9 10  2  0
 10 11  1  0
 11 12  2  0
 12 13  1  0
 13 14  1  0
 14 15  1  0
 15 16  1  0
 16 17  1  0
 17 18  1  0
 18 19  1  0
 19 20  1  0
 19 21  1  0
 21 22  1  0
 12 23  1  0
 23 24  2  0
 24 25  1  0
 24 26  1  0
 26 27  2  0
 27 28  1  0
 28 29  2  0
 29 30  1  0
 30 31  2  0
 31 32  1  0
 32 33  1  0
 32 34  2  0
 34  9  1  0
 22 16  1  0
 34 23  1  0
 31 26  1  0
  1 35  1  0
  1 36  1  0
  1 37  1  0
  2 38  1  0
  2 39  1  0
  4 40  1  0
  4 41  1  0
  5 42  1  0
  5 43  1  0
  5 44  1  0
  6 45  1  0
  6 46  1  0
  7 47  1  0
  7 48  1  0
  8 49  1  0
 10 50  1  0
 11 51  1  0
 13 52  1  0
 14 53  1  0
 14 54  1  0
 15 55  1  0
 15 56  1  0
 17 57  1  0
 17 58  1  0
 18 59  1  0
 18 60  1  0
 20 61  1  0
 20 62  1  0
 20 63  1  0
 21 64  1  0
 21 65  1  0
 22 66  1  0
 22 67  1  0
 27 68  1  0
 28 69  1  0
 29 70  1  0
 30 71  1  0
M  CHG  2  25  -1  33  -1
M  END
>  <UniqueID>  (3) 
3

>  <SMILES>  (3) 
CCN(CC)CCNc1ccc(NCCN2CCN(C)CC2)c2c([O-])c3ccccc3c([O-])c12

>  <Energy>  (3) 
106.48938952635632

>  <Genealogy>  (3) 
CCN(CC)CCNc1ccc(NCCN2CCN(C)CC2)c2c([O-])c3ccccc3c([O-])c12 (protonated)
CCN(CC)CCNc1ccc(NCCN2CCN(C)CC2)c2c([O-])c3ccccc3c([O-])c12 (3D coordinates assigned)
CCN(CC)CCNc1ccc(NCCN2CCN(C)CC2)c2c([O-])c3ccccc3c([O-])c12 (nonaromatic ring conformer: 106.48938952635632 kcal/mol)

>  <smiles>  (3) 
CCN(CC)CCNc1ccc(NCCN2CCN(C)CC2)c2c(O)c3ccccc3c(O)c12

>  <score_type>  (3) 
oracle

>  <origin>  (3) 
adg

>  <m_score__min__energy>  (3) 
-11.630000000000001

>  <m_primary>  (3) 
energy

$$$$
3:0
     RDKit          3D

 54 55  0  0  0  0  0  0  0  0999 V2000
   -0.8300   26.7950  -23.4210 C   0  0  0  0  0  0  0  0  0  0  0  0
   -0.3310   26.0950  -24.6840 C   0  0  0  0  0  0  0  0  0  0  0  0
   -1.1300   26.5560  -25.9220 C   0  0  0  0  0  0  0  0  0  0  0  0
   -1.9380   25.4830  -26.5630 N   0  0  2  0  0  0  0  0  0  0  0  0
   -3.2800   25.2980  -25.9450 C   0  0  0  0  0  0  0  0  0  0  0  0
   -4.2430   24.4950  -26.8290 C   0  0  0  0  0  0  0  0  0  0  0  0
   -1.1890   24.1920  -26.6000 C   0  0  0  0  0  0  0  0  0  0  0  0
   -1.1870   23.5420  -27.9990 C   0  0  0  0  0  0  0  0  0  0  0  0
   -1.1000   24.5860  -29.1240 C   0  0  0  0  0  0  0  0  0  0  0  0
   -2.3930   25.2320  -29.3130 N   0  0  0  0  0  0  0  0  0  0  0  0
   -3.4860   24.6250  -30.0150 C   0  0  0  0  0  0  0  0  0  0  0  0
   -4.1400   25.2860  -30.8670 O   0  0  0  0  0  0  0  0  0  0  0  0
   -3.8890   23.2080  -29.7210 C   0  0  0  0  0  0  0  0  0  0  0  0
   -3.8960   22.3800  -30.9420 N   0  0  0  0  0  0  0  0  0  0  0  0
   -2.6420   22.0150  -31.5580 C   0  0  0  0  0  0  0  0  0  0  0  0
   -1.5480   22.1920  -30.9530 O   0  0  0  0  0  0  0  0  0  0  0  0
   -2.6300   21.4920  -32.9630 C   0  0  0  0  0  0  0  0  0  0  0  0
   -3.8090   20.7350  -33.2340 O   0  0  0  0  0  0  0  0  0  0  0  0
   -5.0490   21.0400  -32.6650 C   0  0  0  0  0  0  0  0  0  0  0  0
   -6.2090   20.4860  -33.2180 C   0  0  0  0  0  0  0  0  0  0  0  0
   -7.4570   20.7620  -32.6570 C   0  0  0  0  0  0  0  0  0  0  0  0
   -7.5580   21.5950  -31.5340 C   0  0  0  0  0  0  0  0  0  0  0  0
   -8.8940   21.8570  -30.8990 C   0  0  0  0  0  0  0  0  0  0  0  0
   -6.3940   22.1360  -30.9630 C   0  0  0  0  0  0  0  0  0  0  0  0
   -5.1250   21.8740  -31.5280 C   0  0  0  0  0  0  0  0  0  0  0  0
   -0.4521   26.2649  -22.5343 H   0  0  0  0  0  0  0  0  0  0  0  0
   -0.4672   27.8334  -23.4097 H   0  0  0  0  0  0  0  0  0  0  0  0
   -1.9299   26.7907  -23.4097 H   0  0  0  0  0  0  0  0  0  0  0  0
    0.7324   26.3344  -24.8321 H   0  0  0  0  0  0  0  0  0  0  0  0
   -0.4674   25.0104  -24.5617 H   0  0  0  0  0  0  0  0  0  0  0  0
   -1.8114   27.3619  -25.6119 H   0  0  0  0  0  0  0  0  0  0  0  0
   -0.3923   26.8842  -26.6691 H   0  0  0  0  0  0  0  0  0  0  0  0
   -2.0960   25.8020  -27.5480 H   0  0  0  0  0  0  0  0  0  0  0  0
   -3.1556   24.7666  -24.9899 H   0  0  0  0  0  0  0  0  0  0  0  0
   -3.7180   26.2974  -25.8056 H   0  0  0  0  0  0  0  0  0  0  0  0
   -4.9321   23.9204  -26.1927 H   0  0  0  0  0  0  0  0  0  0  0  0
   -4.8189   25.1842  -27.4641 H   0  0  0  0  0  0  0  0  0  0  0  0
   -3.6685   23.8046  -27.4641 H   0  0  0  0  0  0  0  0  0  0  0  0
   -0.1481   24.3808  -26.2987 H   0  0  0  0  0  0  0  0  0  0  0  0
   -1.6931   23.4968  -25.9125 H   0  0  0  0  0  0  0  0  0  0  0  0
   -0.3220   22.8667  -28.0747 H   0  0  0  0  0  0  0  0  0  0  0  0
   -2.1337   22.9947  -28.1185 H   0  0  0  0  0  0  0  0  0  0  0  0
   -0.3500   25.3453  -28.8577 H   0  0  0  0  0  0  0  0  0  0  0  0
   -0.8102   24.0831  -30.0584 H   0  0  0  0  0  0  0  0  0  0  0  0
   -3.1775   22.7767  -29.0015 H   0  0  0  0  0  0  0  0  0  0  0  0
   -4.9083   23.2193  -29.3076 H   0  0  0  0  0  0  0  0  0  0  0  0
   -2.5772   22.3394  -33.6624 H   0  0  0  0  0  0  0  0  0  0  0  0
   -1.7551   20.8369  -33.0870 H   0  0  0  0  0  0  0  0  0  0  0  0
   -6.1370   19.8304  -34.0983 H   0  0  0  0  0  0  0  0  0  0  0  0
   -8.3647   20.3242  -33.0978 H   0  0  0  0  0  0  0  0  0  0  0  0
   -8.7899   21.8366  -29.8041 H   0  0  0  0  0  0  0  0  0  0  0  0
   -9.2623   22.8445  -31.2140 H   0  0  0  0  0  0  0  0  0  0  0  0
   -9.6080   21.0818  -31.2140 H   0  0  0  0  0  0  0  0  0  0  0  0
   -6.4708   22.7698  -30.0673 H   0  0  0  0  0  0  0  0  0  0  0  0
  1  2  1  0
  2  3  1  0
  3  4  1  0
  4  5  1  0
  5  6  1  0
  4  7  1  0
  7  8  1  0
  8  9  1  0
  9 10  1  0
 10 11  1  0
 11 12  2  0
 11 13  1  0
 13 14  1  0
 14 15  1  0
 15 16  2  0
 15 17  1  0
 17 18  1  0
 18 19  1  0
 19 20  2  0
 20 21  1  0
 21 22  2  0
 22 23  1  0
 22 24  1  0
 24 25  2  0
 25 14  1  0
 25 19  1  0
  1 26  1  0
  1 27  1  0
  1 28  1  0
  2 29  1  0
  2 30  1  0
  3 31  1  0
  3 32  1  0
  4 33  1  6
  5 34  1  0
  5 35  1  0
  6 36  1  0
  6 37  1  0
  6 38  1  0
  7 39  1  0
  7 40  1  0
  8 41  1  0
  8 42  1  0
  9 43  1  0
  9 44  1  0
 13 45  1  0
 13 46  1  0
 17 47  1  0
 17 48  1  0
 20 49  1  0
 21 50  1  0
 23 51  1  0
 23 52  1  0
 23 53  1  0
 24 54  1  0
M  CHG  2   4   1  10  -1
M  END
>  <UniqueID>  (4) 
4

>  <SMILES>  (4) 
CCC[N@H+](CC)CCC[N-]C(=O)CN1C(=O)COc2ccc(C)cc21

>  <Energy>  (4) 
52.56660220547726

>  <Genealogy>  (4) 
CCC[NH+](CC)CCC[N-]C(=O)CN1C(=O)COc2ccc(C)cc21 (protonated)
CCC[N@H+](CC)CCC[N-]C(=O)CN1C(=O)COc2ccc(C)cc21 (chirality)
CCC[N@H+](CC)CCC[N-]C(=O)CN1C(=O)COc2ccc(C)cc21 (3D coordinates assigned)
CCC[N@H+](CC)CCC[N-]C(=O)CN1C(=O)COc2ccc(C)cc21 (nonaromatic ring conformer: 52.56660220547726 kcal/mol)

>  <smiles>  (4) 
CCCN(CC)CCCNC(=O)CN1C(=O)COc2ccc(C)cc21

>  <score_type>  (4) 
oracle

>  <origin>  (4) 
adg

>  <m_score__min__energy>  (4) 
-8.4700000000000006

>  <m_primary>  (4) 
energy

$$$$
4:0
     RDKit          3D

 39 41  0  0  0  0  0  0  0  0999 V2000
   -9.8180   21.5280  -31.9520 C   0  0  0  0  0  0  0  0  0  0  0  0
   -8.7190   20.5080  -32.0110 C   0  0  0  0  0  0  0  0  0  0  0  0
   -9.0180   19.1410  -31.9120 C   0  0  0  0  0  0  0  0  0  0  0  0
   -7.9970   18.1910  -32.0040 C   0  0  0  0  0  0  0  0  0  0  0  0
   -6.6760   18.5960  -32.2100 C   0  0  0  0  0  0  0  0  0  0  0  0
   -6.3650   19.9640  -32.3300 C   0  0  0  0  0  0  0  0  0  0  0  0
   -5.0560   20.4220  -32.5450 O   0  0  0  0  0  0  0  0  0  0  0  0
   -4.7240   21.7420  -32.9670 C   0  0  0  0  0  0  0  0  0  0  0  0
   -4.4210   22.5890  -31.7710 C   0  0  0  0  0  0  0  0  0  0  0  0
   -4.8220   23.7840  -31.7450 O   0  0  0  0  0  0  0  0  0  0  0  0
   -3.7620   22.0160  -30.6310 N   0  0  0  0  0  0  0  0  0  0  0  0
   -3.2390   22.7830  -29.5330 C   0  0  0  0  0  0  0  0  0  0  0  0
   -3.2060   22.2140  -28.2490 C   0  0  0  0  0  0  0  0  0  0  0  0
   -2.6910   22.9320  -27.1660 C   0  0  0  0  0  0  0  0  0  0  0  0
   -2.1900   24.2210  -27.3600 C   0  0  0  0  0  0  0  0  0  0  0  0
   -2.1720   24.7800  -28.6450 C   0  0  0  0  0  0  0  0  0  0  0  0
   -2.7010   24.0700  -29.7270 C   0  0  0  0  0  0  0  0  0  0  0  0
   -1.6140   26.0490  -28.8250 O   0  0  0  0  0  0  0  0  0  0  0  0
   -0.8310   26.6640  -27.7990 C   0  0  0  0  0  0  0  0  0  0  0  0
   -1.4350   26.3680  -26.4200 C   0  0  0  0  0  0  0  0  0  0  0  0
   -1.6980   24.9680  -26.2860 O   0  0  0  0  0  0  0  0  0  0  0  0
   -7.3930   20.9110  -32.2360 C   0  0  0  0  0  0  0  0  0  0  0  0
  -10.0567   21.7495  -30.9013 H   0  0  0  0  0  0  0  0  0  0  0  0
   -9.4905   22.4494  -32.4557 H   0  0  0  0  0  0  0  0  0  0  0  0
  -10.7125   21.1328  -32.4557 H   0  0  0  0  0  0  0  0  0  0  0  0
  -10.0581   18.8161  -31.7617 H   0  0  0  0  0  0  0  0  0  0  0  0
   -8.2344   17.1207  -31.9139 H   0  0  0  0  0  0  0  0  0  0  0  0
   -5.8763   17.8438  -32.2787 H   0  0  0  0  0  0  0  0  0  0  0  0
   -3.8419   21.7058  -33.6231 H   0  0  0  0  0  0  0  0  0  0  0  0
   -5.5732   22.1749  -33.5161 H   0  0  0  0  0  0  0  0  0  0  0  0
   -3.7310   20.9740  -30.5580 H   0  0  0  0  0  0  0  0  0  0  0  0
   -3.5888   21.1944  -28.0946 H   0  0  0  0  0  0  0  0  0  0  0  0
   -2.6803   22.4823  -26.1622 H   0  0  0  0  0  0  0  0  0  0  0  0
   -2.6970   24.5175  -30.7319 H   0  0  0  0  0  0  0  0  0  0  0  0
    0.1946   26.2683  -27.8386 H   0  0  0  0  0  0  0  0  0  0  0  0
   -0.8211   27.7522  -27.9597 H   0  0  0  0  0  0  0  0  0  0  0  0
   -0.7271   26.6812  -25.6384 H   0  0  0  0  0  0  0  0  0  0  0  0
   -2.3794   26.9223  -26.3153 H   0  0  0  0  0  0  0  0  0  0  0  0
   -7.1591   21.9808  -32.3395 H   0  0  0  0  0  0  0  0  0  0  0  0
  1  2  1  0
  2  3  2  0
  3  4  1  0
  4  5  2  0
  5  6  1  0
  6  7  1  0
  7  8  1  0
  8  9  1  0
  9 10  2  0
  9 11  1  0
 11 12  1  0
 12 13  2  0
 13 14  1  0
 14 15  2  0
 15 16  1  0
 16 17  2  0
 16 18  1  0
 18 19  1  0
 19 20  1  0
 20 21  1  0
  6 22  2  0
 22  2  1  0
 17 12  1  0
 21 15  1  0
  1 23  1  0
  1 24  1  0
  1 25  1  0
  3 26  1  0
  4 27  1  0
  5 28  1  0
  8 29  1  0
  8 30  1  0
 11 31  1  0
 13 32  1  0
 14 33  1  0
 17 34  1  0
 19 35  1  0
 19 36  1  0
 20 37  1  0
 20 38  1  0
 22 39  1  0
M  END
>  <UniqueID>  (5) 
5

>  <SMILES>  (5) 
Cc1cccc(OCC(=O)Nc2ccc3c(c2)OCCO3)c1

>  <Energy>  (5) 
42.790676673274056

>  <Genealogy>  (5) 
Cc1cccc(OCC(=O)Nc2ccc3c(c2)OCCO3)c1 (3D coordinates assigned)
Cc1cccc(OCC(=O)Nc2ccc3c(c2)OCCO3)c1 (nonaromatic ring conformer: 42.790676673274056 kcal/mol)

>  <smiles>  (5) 
Cc1cccc(OCC(=O)Nc2ccc3c(c2)OCCO3)c1

>  <score_type>  (5) 
oracle

>  <origin>  (5) 
adg

>  <m_score__min__energy>  (5) 
-8.1199999999999992

>  <m_primary>  (5) 
energy

$$$$
5:0
     RDKit          3D

 45 47  0  0  0  0  0  0  0  0999 V2000
   -9.1150   18.7310  -31.9050 C   0  0  0  0  0  0  0  0  0  0  0  0
   -8.1810   19.8390  -32.2600 C   0  0  0  0  0  0  0  0  0  0  0  0
   -7.9030   20.9490  -31.4890 C   0  0  0  0  0  0  0  0  0  0  0  0
   -7.0820   21.7120  -32.3010 C   0  0  0  0  0  0  0  0  0  0  0  0
   -6.4810   23.0420  -31.9570 C   0  0  0  0  0  0  0  0  0  0  0  0
   -7.1080   23.6550  -30.6930 C   0  0  0  0  0  0  0  0  0  0  0  0
   -6.2990   24.8220  -30.0970 C   0  0  0  0  0  0  0  0  0  0  0  0
   -5.1830   25.3150  -31.0200 C   0  0  0  0  0  0  0  0  0  0  0  0
   -3.9210   25.1250  -30.3860 O   0  0  0  0  0  0  0  0  0  0  0  0
   -3.5240   23.9390  -29.7480 C   0  0  0  0  0  0  0  0  0  0  0  0
   -2.7810   22.9480  -30.4200 C   0  0  0  0  0  0  0  0  0  0  0  0
   -2.3990   21.7790  -29.7580 C   0  0  0  0  0  0  0  0  0  0  0  0
   -2.7480   21.5740  -28.4170 C   0  0  0  0  0  0  0  0  0  0  0  0
   -2.3360   20.3320  -27.7300 C   0  0  0  0  0  0  0  0  0  0  0  0
   -3.0670   19.7330  -26.8530 N   0  0  0  0  0  0  0  0  0  0  0  0
   -2.3670   18.5490  -26.3780 C   0  0  0  0  0  0  0  0  0  0  0  0
   -1.0430   18.5430  -27.1530 C   0  0  0  0  0  0  0  0  0  0  0  0
   -1.1320   19.6990  -27.9650 O   0  0  0  0  0  0  0  0  0  0  0  0
   -3.4900   22.5600  -27.7450 C   0  0  0  0  0  0  0  0  0  0  0  0
   -3.8770   23.7380  -28.4010 C   0  0  0  0  0  0  0  0  0  0  0  0
   -4.6320   24.7250  -27.6900 N   0  0  0  0  0  0  0  0  0  0  0  0
   -6.9040   21.0840  -33.4420 O   0  0  0  0  0  0  0  0  0  0  0  0
   -7.5600   19.9620  -33.4470 N   0  0  0  0  0  0  0  0  0  0  0  0
   -9.1855   18.6474  -30.8105 H   0  0  0  0  0  0  0  0  0  0  0  0
  -10.1108   18.9432  -32.3214 H   0  0  0  0  0  0  0  0  0  0  0  0
   -8.7373   17.7855  -32.3214 H   0  0  0  0  0  0  0  0  0  0  0  0
   -8.2514   21.1742  -30.4702 H   0  0  0  0  0  0  0  0  0  0  0  0
   -5.4020   22.9100  -31.7886 H   0  0  0  0  0  0  0  0  0  0  0  0
   -6.6751   23.7268  -32.7957 H   0  0  0  0  0  0  0  0  0  0  0  0
   -8.1118   24.0248  -30.9490 H   0  0  0  0  0  0  0  0  0  0  0  0
   -7.1312   22.8615  -29.9316 H   0  0  0  0  0  0  0  0  0  0  0  0
   -6.9854   25.6588  -29.9005 H   0  0  0  0  0  0  0  0  0  0  0  0
   -5.8229   24.4532  -29.1765 H   0  0  0  0  0  0  0  0  0  0  0  0
   -5.2090   24.7472  -31.9618 H   0  0  0  0  0  0  0  0  0  0  0  0
   -5.3289   26.3846  -31.2314 H   0  0  0  0  0  0  0  0  0  0  0  0
   -2.4999   23.0961  -31.4731 H   0  0  0  0  0  0  0  0  0  0  0  0
   -1.8194   21.0131  -30.2941 H   0  0  0  0  0  0  0  0  0  0  0  0
   -2.1827   18.6153  -25.2956 H   0  0  0  0  0  0  0  0  0  0  0  0
   -2.9481   17.6290  -26.5392 H   0  0  0  0  0  0  0  0  0  0  0  0
   -0.1854   18.6089  -26.4673 H   0  0  0  0  0  0  0  0  0  0  0  0
   -0.8899   17.6214  -27.7338 H   0  0  0  0  0  0  0  0  0  0  0  0
   -3.7706   22.4064  -26.6925 H   0  0  0  0  0  0  0  0  0  0  0  0
   -4.8040   25.6670  -28.1070 H   0  0  0  0  0  0  0  0  0  0  0  0
   -5.0270   24.5320  -26.7430 H   0  0  0  0  0  0  0  0  0  0  0  0
   -7.5970   19.2940  -34.2490 H   0  0  0  0  0  0  0  0  0  0  0  0
  1  2  1  0
  2  3  1  0
  3  4  2  0
  4  5  1  0
  5  6  1  0
  6  7  1  0
  7  8  1  0
  8  9  1  0
  9 10  1  0
 10 11  2  0
 11 12  1  0
 12 13  2  0
 13 14  1  0
 14 15  2  0
 15 16  1  0
 16 17  1  0
 17 18  1  0
 13 19  1  0
 19 20  2  0
 20 21  1  0
  4 22  1  0
 22 23  1  0
 23  2  2  0
 20 10  1  0
 18 14  1  0
  1 24  1  0
  1 25  1  0
  1 26  1  0
  3 27  1  0
  5 28  1  0
  5 29  1  0
  6 30  1  0
  6 31  1  0
  7 32  1  0
  7 33  1  0
  8 34  1  0
  8 35  1  0
 11 36  1  0
 12 37  1  0
 16 38  1  0
 16 39  1  0
 17 40  1  0
 17 41  1  0
 19 42  1  0
 21 43  1  0
 21 44  1  0
 23 45  1  0
M  CHG  1  23   1
M  END
>  <UniqueID>  (6) 
6

>  <SMILES>  (6) 
Cc1cc(CCCCOc2ccc(C3=NCCO3)cc2N)o[nH+]1

>  <Energy>  (6) 
82.327065015429

>  <Genealogy>  (6) 
Cc1cc(CCCCOc2ccc(C3=NCCO3)cc2N)o[nH+]1 (protonated)
Cc1cc(CCCCOc2ccc(C3=NCCO3)cc2N)o[nH+]1 (3D coordinates assigned)
Cc1cc(CCCCOc2ccc(C3=NCCO3)cc2N)o[nH+]1 (nonaromatic ring conformer: 82.327065015429 kcal/mol)

>  <smiles>  (6) 
Cc1cc(CCCCOc2ccc(C3=NCCO3)cc2N)on1

>  <score_type>  (6) 
oracle

>  <origin>  (6) 
adg

>  <m_score__min__energy>  (6) 
-8.7799999999999994

>  <m_primary>  (6) 
energy

$$$$
6:0
     RDKit          3D

 35 37  0  0  0  0  0  0  0  0999 V2000
   -5.3740   25.9630  -30.4720 C   0  0  0  0  0  0  0  0  0  0  0  0
   -4.7160   24.8530  -31.0740 O   0  0  0  0  0  0  0  0  0  0  0  0
   -5.3580   23.6720  -31.4810 C   0  0  0  0  0  0  0  0  0  0  0  0
   -6.7600   23.5600  -31.5170 C   0  0  0  0  0  0  0  0  0  0  0  0
   -7.3680   22.3710  -31.9290 C   0  0  0  0  0  0  0  0  0  0  0  0
   -8.6950   22.2870  -31.9320 O   0  0  0  0  0  0  0  0  0  0  0  0
   -9.3430   21.1900  -32.3030 C   0  0  0  0  0  0  0  0  0  0  0  0
  -10.6020   21.1730  -32.2780 O   0  0  0  0  0  0  0  0  0  0  0  0
   -8.6390   20.0590  -32.7190 C   0  0  0  0  0  0  0  0  0  0  0  0
   -7.2390   20.0920  -32.7520 C   0  0  0  0  0  0  0  0  0  0  0  0
   -6.5150   18.8990  -33.2440 C   0  0  0  0  0  0  0  0  0  0  0  0
   -5.8780   18.9190  -34.4970 C   0  0  0  0  0  0  0  0  0  0  0  0
   -5.2100   17.7820  -34.9650 C   0  0  0  0  0  0  0  0  0  0  0  0
   -5.1830   16.6180  -34.1920 C   0  0  0  0  0  0  0  0  0  0  0  0
   -5.8270   16.5860  -32.9520 C   0  0  0  0  0  0  0  0  0  0  0  0
   -6.4950   17.7200  -32.4790 C   0  0  0  0  0  0  0  0  0  0  0  0
   -6.5770   21.2710  -32.3330 C   0  0  0  0  0  0  0  0  0  0  0  0
   -5.1740   21.3800  -32.2750 C   0  0  0  0  0  0  0  0  0  0  0  0
   -4.5640   22.5790  -31.8570 C   0  0  0  0  0  0  0  0  0  0  0  0
   -3.1680   22.7210  -31.7990 O   0  0  0  0  0  0  0  0  0  0  0  0
   -2.2430   21.6390  -31.7840 C   0  0  0  0  0  0  0  0  0  0  0  0
   -5.3199   25.8717  -29.3771 H   0  0  0  0  0  0  0  0  0  0  0  0
   -4.8826   26.8954  -30.7869 H   0  0  0  0  0  0  0  0  0  0  0  0
   -6.4278   25.9794  -30.7869 H   0  0  0  0  0  0  0  0  0  0  0  0
   -7.3831   24.4158  -31.2182 H   0  0  0  0  0  0  0  0  0  0  0  0
   -9.1793   19.1489  -33.0186 H   0  0  0  0  0  0  0  0  0  0  0  0
   -5.9048   19.8311  -35.1113 H   0  0  0  0  0  0  0  0  0  0  0  0
   -4.7056   17.8044  -35.9423 H   0  0  0  0  0  0  0  0  0  0  0  0
   -4.6544   15.7262  -34.5599 H   0  0  0  0  0  0  0  0  0  0  0  0
   -5.8084   15.6674  -32.3471 H   0  0  0  0  0  0  0  0  0  0  0  0
   -7.0062   17.6892  -31.5055 H   0  0  0  0  0  0  0  0  0  0  0  0
   -4.5486   20.5207  -32.5588 H   0  0  0  0  0  0  0  0  0  0  0  0
   -2.0119   21.3686  -30.7431 H   0  0  0  0  0  0  0  0  0  0  0  0
   -2.6839   20.7725  -32.2987 H   0  0  0  0  0  0  0  0  0  0  0  0
   -1.3185   21.9398  -32.2987 H   0  0  0  0  0  0  0  0  0  0  0  0
  1  2  1  0
  2  3  1  0
  3  4  2  0
  4  5  1  0
  5  6  1  0
  6  7  1  0
  7  8  2  0
  7  9  1  0
  9 10  2  0
 10 11  1  0
 11 12  2  0
 12 13  1  0
 13 14  2  0
 14 15  1  0
 15 16  2  0
 10 17  1  0
 17 18  1  0
 18 19  2  0
 19 20  1  0
 20 21  1  0
 19  3  1  0
 17  5  2  0
 16 11  1  0
  1 22  1  0
  1 23  1  0
  1 24  1  0
  4 25  1  0
  9 26  1  0
 12 27  1  0
 13 28  1  0
 14 29  1  0
 15 30  1  0
 16 31  1  0
 18 32  1  0
 21 33  1  0
 21 34  1  0
 21 35  1  0
M  END
>  <UniqueID>  (7) 
7

>  <SMILES>  (7) 
COc1cc2oc(=O)cc(-c3ccccc3)c2cc1OC

>  <Energy>  (7) 
49.09885927264517

>  <Genealogy>  (7) 
COc1cc2oc(=O)cc(-c3ccccc3)c2cc1OC (3D coordinates assigned)
COc1cc2oc(=O)cc(-c3ccccc3)c2cc1OC (optimized conformer: 49.09885927264517 kcal/mol)

>  <smiles>  (7) 
COc1cc2oc(=O)cc(-c3ccccc3)c2cc1OC

>  <score_type>  (7) 
oracle

>  <origin>  (7) 
adg

>  <m_score__min__energy>  (7) 
-7.8799999999999999

>  <m_primary>  (7) 
energy

$$$$
7:0
     RDKit          3D

 44 45  0  0  0  0  0  0  0  0999 V2000
   -3.0570   24.8720  -26.6060 C   0  0  0  0  0  0  0  0  0  0  0  0
   -2.7110   24.4190  -28.0310 C   0  0  0  0  0  0  0  0  0  0  0  0
   -3.8170   23.7250  -28.7480 N   0  0  0  0  0  0  0  0  0  0  0  0
   -4.0830   22.3560  -28.2300 C   0  0  0  0  0  0  0  0  0  0  0  0
   -2.8570   21.4410  -28.3040 C   0  0  0  0  0  0  0  0  0  0  0  0
   -5.0560   24.5470  -28.7450 C   0  0  0  0  0  0  0  0  0  0  0  0
   -5.3220   25.2740  -30.0780 C   0  0  0  0  0  0  0  0  0  0  0  0
   -4.6990   24.5970  -31.1740 O   0  0  0  0  0  0  0  0  0  0  0  0
   -4.9270   23.2730  -31.5850 C   0  0  0  0  0  0  0  0  0  0  0  0
   -6.2520   22.8720  -31.7860 C   0  0  0  0  0  0  0  0  0  0  0  0
   -6.5520   21.5720  -32.2010 C   0  0  0  0  0  0  0  0  0  0  0  0
   -5.5240   20.6400  -32.4210 C   0  0  0  0  0  0  0  0  0  0  0  0
   -5.8390   19.2580  -32.8660 C   0  0  0  0  0  0  0  0  0  0  0  0
   -6.4600   18.3480  -31.9890 C   0  0  0  0  0  0  0  0  0  0  0  0
   -6.7580   17.0480  -32.4090 C   0  0  0  0  0  0  0  0  0  0  0  0
   -6.4380   16.6400  -33.7080 C   0  0  0  0  0  0  0  0  0  0  0  0
   -6.8450   14.8640  -34.2800 Br  0  0  0  0  0  0  0  0  0  0  0  0
   -5.8210   17.5350  -34.5870 C   0  0  0  0  0  0  0  0  0  0  0  0
   -5.5230   18.8350  -34.1710 C   0  0  0  0  0  0  0  0  0  0  0  0
   -4.1920   21.0370  -32.2120 C   0  0  0  0  0  0  0  0  0  0  0  0
   -3.8940   22.3370  -31.7960 C   0  0  0  0  0  0  0  0  0  0  0  0
   -2.5552   24.2150  -25.8804 H   0  0  0  0  0  0  0  0  0  0  0  0
   -2.7181   25.9080  -26.4581 H   0  0  0  0  0  0  0  0  0  0  0  0
   -4.1457   24.8177  -26.4581 H   0  0  0  0  0  0  0  0  0  0  0  0
   -2.4288   25.3079  -28.6143 H   0  0  0  0  0  0  0  0  0  0  0  0
   -1.8948   23.6877  -27.9356 H   0  0  0  0  0  0  0  0  0  0  0  0
   -3.4900   23.6340  -29.7360 H   0  0  0  0  0  0  0  0  0  0  0  0
   -4.3997   22.4338  -27.1795 H   0  0  0  0  0  0  0  0  0  0  0  0
   -4.8654   21.9106  -28.8621 H   0  0  0  0  0  0  0  0  0  0  0  0
   -2.5233   21.1920  -27.2858 H   0  0  0  0  0  0  0  0  0  0  0  0
   -3.1208   20.5171  -28.8397 H   0  0  0  0  0  0  0  0  0  0  0  0
   -2.0464   21.9567  -28.8397 H   0  0  0  0  0  0  0  0  0  0  0  0
   -5.9100   23.8868  -28.5333 H   0  0  0  0  0  0  0  0  0  0  0  0
   -4.9243   25.3232  -27.9768 H   0  0  0  0  0  0  0  0  0  0  0  0
   -6.4072   25.3155  -30.2529 H   0  0  0  0  0  0  0  0  0  0  0  0
   -4.8990   26.2872  -30.0108 H   0  0  0  0  0  0  0  0  0  0  0  0
   -7.0682   23.5894  -31.6151 H   0  0  0  0  0  0  0  0  0  0  0  0
   -7.6000   21.2763  -32.3565 H   0  0  0  0  0  0  0  0  0  0  0  0
   -6.7126   18.6623  -30.9656 H   0  0  0  0  0  0  0  0  0  0  0  0
   -7.2448   16.3452  -31.7168 H   0  0  0  0  0  0  0  0  0  0  0  0
   -5.5695   17.2148  -35.6089 H   0  0  0  0  0  0  0  0  0  0  0  0
   -5.0377   19.5335  -34.8686 H   0  0  0  0  0  0  0  0  0  0  0  0
   -3.3766   20.3175  -32.3775 H   0  0  0  0  0  0  0  0  0  0  0  0
   -2.8471   22.6321  -31.6321 H   0  0  0  0  0  0  0  0  0  0  0  0
  1  2  1  0
  2  3  1  0
  3  4  1  0
  4  5  1  0
  3  6  1  0
  6  7  1  0
  7  8  1  0
  8  9  1  0
  9 10  2  0
 10 11  1  0
 11 12  2  0
 12 13  1  0
 13 14  2  0
 14 15  1  0
 15 16  2  0
 16 17  1  0
 16 18  1  0
 18 19  2  0
 12 20  1  0
 20 21  2  0
 21  9  1  0
 19 13  1  0
  1 22  1  0
  1 23  1  0
  1 24  1  0
  2 25  1  0
  2 26  1  0
  3 27  1  0
  4 28  1  0
  4 29  1  0
  5 30  1  0
  5 31  1  0
  5 32  1  0
  6 33  1  0
  6 34  1  0
  7 35  1  0
  7 36  1  0
 10 37  1  0
 11 38  1  0
 14 39  1  0
 15 40  1  0
 18 41  1  0
 19 42  1  0
 20 43  1  0
 21 44  1  0
M  CHG  1   3   1
M  END
>  <UniqueID>  (8) 
8

>  <SMILES>  (8) 
CC[NH+](CC)CCOc1ccc(-c2ccc(Br)cc2)cc1

>  <Energy>  (8) 
53.186652321509754

>  <Genealogy>  (8) 
CC[NH+](CC)CCOc1ccc(-c2ccc(Br)cc2)cc1 (protonated)
CC[NH+](CC)CCOc1ccc(-c2ccc(Br)cc2)cc1 (3D coordinates assigned)
CC[NH+](CC)CCOc1ccc(-c2ccc(Br)cc2)cc1 (optimized conformer: 53.186652321509754 kcal/mol)

>  <smiles>  (8) 
CCN(CC)CCOc1ccc(-c2ccc(Br)cc2)cc1

>  <score_type>  (8) 
oracle

>  <origin>  (8) 
adg

>  <m_score__min__energy>  (8) 
-6.8300000000000001

>  <m_primary>  (8) 
energy

$$$$
8:0
     RDKit          3D

 53 56  0  0  0  0  0  0  0  0999 V2000
   -9.5030   19.9700  -32.3470 C   0  0  0  0  0  0  0  0  0  0  0  0
   -8.7450   18.6680  -32.0260 C   0  0  0  0  0  0  0  0  0  0  0  0
   -7.2660   18.7740  -32.1260 N   0  0  0  0  0  0  0  0  0  0  0  0
   -6.8270   20.1010  -32.6430 C   0  0  0  0  0  0  0  0  0  0  0  0
   -5.5130   20.0630  -33.4550 C   0  0  0  0  0  0  0  0  0  0  0  0
   -4.6050   19.0060  -32.9770 N   0  0  0  0  0  0  0  0  0  0  0  0
   -3.1690   19.1750  -32.9690 C   0  0  0  0  0  0  0  0  0  0  0  0
   -2.4420   18.2810  -32.4550 O   0  0  0  0  0  0  0  0  0  0  0  0
   -2.4930   20.3840  -33.5550 C   0  0  0  0  0  0  0  0  0  0  0  0
   -3.1680   21.9260  -32.8410 S   0  0  0  0  0  0  0  0  0  0  0  0
   -2.7130   21.5280  -31.1430 C   0  0  0  0  0  0  0  0  0  0  0  0
   -1.6430   20.7090  -30.9430 N   0  0  0  0  0  0  0  0  0  0  0  0
   -1.2440   20.4000  -29.6880 C   0  0  0  0  0  0  0  0  0  0  0  0
   -1.9120   20.8880  -28.5990 C   0  0  0  0  0  0  0  0  0  0  0  0
   -3.0040   21.7320  -28.7890 C   0  0  0  0  0  0  0  0  0  0  0  0
   -3.6210   22.1940  -27.7880 O   0  0  0  0  0  0  0  0  0  0  0  0
   -3.4030   22.0400  -30.0660 N   0  0  0  0  0  0  0  0  0  0  0  0
   -4.5430   22.8980  -30.2670 C   0  0  0  0  0  0  0  0  0  0  0  0
   -5.8090   22.3390  -30.5100 C   0  0  0  0  0  0  0  0  0  0  0  0
   -6.9170   23.1700  -30.7140 C   0  0  0  0  0  0  0  0  0  0  0  0
   -6.7650   24.5580  -30.6820 C   0  0  0  0  0  0  0  0  0  0  0  0
   -5.5050   25.1210  -30.4500 C   0  0  0  0  0  0  0  0  0  0  0  0
   -4.3950   24.2950  -30.2450 C   0  0  0  0  0  0  0  0  0  0  0  0
   -3.1730   24.8500  -30.0330 F   0  0  0  0  0  0  0  0  0  0  0  0
   -1.2480   20.3780  -27.0290 S   0  0  0  0  0  0  0  0  0  0  0  0
    0.2530   19.7880  -27.9000 C   0  0  0  0  0  0  0  0  0  0  0  0
   -0.0750   19.5430  -29.3800 C   0  0  0  0  0  0  0  0  0  0  0  0
   -5.1450   17.6660  -32.7050 C   0  0  0  0  0  0  0  0  0  0  0  0
   -6.6680   17.6400  -32.8610 C   0  0  0  0  0  0  0  0  0  0  0  0
   -9.7922   20.4667  -31.4091 H   0  0  0  0  0  0  0  0  0  0  0  0
   -8.8529   20.6384  -32.9306 H   0  0  0  0  0  0  0  0  0  0  0  0
  -10.4053   19.7347  -32.9306 H   0  0  0  0  0  0  0  0  0  0  0  0
   -8.9990   18.3671  -30.9989 H   0  0  0  0  0  0  0  0  0  0  0  0
   -9.0570   17.9308  -32.7804 H   0  0  0  0  0  0  0  0  0  0  0  0
   -6.9190   18.7080  -31.1390 H   0  0  0  0  0  0  0  0  0  0  0  0
   -7.6216   20.4983  -33.2916 H   0  0  0  0  0  0  0  0  0  0  0  0
   -6.6365   20.7346  -31.7642 H   0  0  0  0  0  0  0  0  0  0  0  0
   -5.7529   19.8752  -34.5120 H   0  0  0  0  0  0  0  0  0  0  0  0
   -5.0061   21.0313  -33.3307 H   0  0  0  0  0  0  0  0  0  0  0  0
   -1.4150   20.3313  -33.3423 H   0  0  0  0  0  0  0  0  0  0  0  0
   -2.6728   20.3933  -34.6402 H   0  0  0  0  0  0  0  0  0  0  0  0
   -5.9298   21.2461  -30.5400 H   0  0  0  0  0  0  0  0  0  0  0  0
   -7.9078   22.7296  -30.8996 H   0  0  0  0  0  0  0  0  0  0  0  0
   -7.6371   25.2097  -30.8394 H   0  0  0  0  0  0  0  0  0  0  0  0
   -5.3874   26.2145  -30.4288 H   0  0  0  0  0  0  0  0  0  0  0  0
    1.0447   20.5475  -27.8211 H   0  0  0  0  0  0  0  0  0  0  0  0
    0.5972   18.8494  -27.4412 H   0  0  0  0  0  0  0  0  0  0  0  0
    0.7807   19.8225  -30.0122 H   0  0  0  0  0  0  0  0  0  0  0  0
   -0.2917   18.4821  -29.5738 H   0  0  0  0  0  0  0  0  0  0  0  0
   -4.6998   16.9497  -33.4112 H   0  0  0  0  0  0  0  0  0  0  0  0
   -4.8966   17.3944  -31.6684 H   0  0  0  0  0  0  0  0  0  0  0  0
   -6.9273   17.7184  -33.9271 H   0  0  0  0  0  0  0  0  0  0  0  0
   -7.0588   16.6962  -32.4529 H   0  0  0  0  0  0  0  0  0  0  0  0
  1  2  1  0
  2  3  1  0
  3  4  1  0
  4  5  1  0
  5  6  1  0
  6  7  1  0
  7  8  2  0
  7  9  1  0
  9 10  1  0
 10 11  1  0
 11 12  2  0
 12 13  1  0
 13 14  2  0
 14 15  1  0
 15 16  2  0
 15 17  1  0
 17 18  1  0
 18 19  2  0
 19 20  1  0
 20 21  2  0
 21 22  1  0
 22 23  2  0
 23 24  1  0
 14 25  1  0
 25 26  1  0
 26 27  1  0
  6 28  1  0
 28 29  1  0
 29  3  1  0
 17 11  1  0
 23 18  1  0
 27 13  1  0
  1 30  1  0
  1 31  1  0
  1 32  1  0
  2 33  1  0
  2 34  1  0
  3 35  1  0
  4 36  1  0
  4 37  1  0
  5 38  1  0
  5 39  1  0
  9 40  1  0
  9 41  1  0
 19 42  1  0
 20 43  1  0
 21 44  1  0
 22 45  1  0
 26 46  1  0
 26 47  1  0
 27 48  1  0
 27 49  1  0
 28 50  1  0
 28 51  1  0
 29 52  1  0
 29 53  1  0
M  CHG  1   3   1
M  END
>  <UniqueID>  (9) 
9

>  <SMILES>  (9) 
CC[NH+]1CCN(C(=O)CSc2nc3c(c(=O)n2-c2ccccc2F)SCC3)CC1

>  <Energy>  (9) 
78.14223091870902

>  <Genealogy>  (9) 
CC[NH+]1CCN(C(=O)CSc2nc3c(c(=O)n2-c2ccccc2F)SCC3)CC1 (protonated)
CC[NH+]1CCN(C(=O)CSc2nc3c(c(=O)n2-c2ccccc2F)SCC3)CC1 (3D coordinates assigned)
CC[NH+]1CCN(C(=O)CSc2nc3c(c(=O)n2-c2ccccc2F)SCC3)CC1 (nonaromatic ring conformer: 78.14223091870902 kcal/mol)

>  <smiles>  (9) 
CCN1CCN(C(=O)CSc2nc3c(c(=O)n2-c2ccccc2F)SCC3)CC1

>  <score_type>  (9) 
oracle

>  <origin>  (9) 
adg

>  <m_score__min__energy>  (9) 
-8.3900000000000006

>  <m_primary>  (9) 
energy

$$$$
9:0
     RDKit          3D

 50 53  0  0  0  0  0  0  0  0999 V2000
   -4.2070   19.6170  -33.7880 C   0  0  0  0  0  0  0  0  0  0  0  0
   -4.4150   20.2260  -32.5190 O   0  0  0  0  0  0  0  0  0  0  0  0
   -3.3920   20.7080  -31.6900 C   0  0  0  0  0  0  0  0  0  0  0  0
   -2.1490   20.0520  -31.5860 C   0  0  0  0  0  0  0  0  0  0  0  0
   -1.1700   20.5310  -30.7110 C   0  0  0  0  0  0  0  0  0  0  0  0
   -1.4150   21.6660  -29.9380 C   0  0  0  0  0  0  0  0  0  0  0  0
   -2.6370   22.3320  -30.0410 C   0  0  0  0  0  0  0  0  0  0  0  0
   -3.6260   21.8670  -30.9210 C   0  0  0  0  0  0  0  0  0  0  0  0
   -4.8750   22.5720  -31.0220 N   0  0  0  0  0  0  0  0  0  0  0  0
   -5.6060   22.9440  -29.8100 C   0  0  0  0  0  0  0  0  0  0  0  0
   -7.1060   22.8130  -30.0770 C   0  0  0  0  0  0  0  0  0  0  0  0
   -7.5490   23.6060  -31.2490 N   0  0  0  0  0  0  0  0  0  0  0  0
   -8.7480   23.0550  -31.9180 C   0  0  0  0  0  0  0  0  0  0  0  0
   -8.7060   21.5570  -32.0790 C   0  0  0  0  0  0  0  0  0  0  0  0
   -9.7840   20.6980  -32.1100 C   0  0  0  0  0  0  0  0  0  0  0  0
   -9.3190   19.4770  -32.2320 O   0  0  0  0  0  0  0  0  0  0  0  0
   -8.0050   19.5540  -32.2820 C   0  0  0  0  0  0  0  0  0  0  0  0
   -7.1250   18.3690  -32.4070 C   0  0  0  0  0  0  0  0  0  0  0  0
   -6.5640   17.7460  -31.2770 C   0  0  0  0  0  0  0  0  0  0  0  0
   -5.7330   16.6300  -31.4250 C   0  0  0  0  0  0  0  0  0  0  0  0
   -5.4550   16.1240  -32.6980 C   0  0  0  0  0  0  0  0  0  0  0  0
   -4.3220   14.6000  -32.8960 Br  0  0  0  0  0  0  0  0  0  0  0  0
   -6.0080   16.7350  -33.8260 C   0  0  0  0  0  0  0  0  0  0  0  0
   -6.8350   17.8530  -33.6830 C   0  0  0  0  0  0  0  0  0  0  0  0
   -7.5790   20.8330  -32.1960 N   0  0  0  0  0  0  0  0  0  0  0  0
   -6.4840   24.0670  -32.1730 C   0  0  0  0  0  0  0  0  0  0  0  0
   -5.3410   23.0510  -32.3270 C   0  0  0  0  0  0  0  0  0  0  0  0
   -3.8544   18.5848  -33.6459 H   0  0  0  0  0  0  0  0  0  0  0  0
   -5.1528   19.6074  -34.3496 H   0  0  0  0  0  0  0  0  0  0  0  0
   -3.4529   20.1880  -34.3496 H   0  0  0  0  0  0  0  0  0  0  0  0
   -1.9484   19.1590  -32.1962 H   0  0  0  0  0  0  0  0  0  0  0  0
   -0.2036   20.0115  -30.6317 H   0  0  0  0  0  0  0  0  0  0  0  0
   -0.6440   22.0365  -29.2464 H   0  0  0  0  0  0  0  0  0  0  0  0
   -2.8259   23.2263  -29.4290 H   0  0  0  0  0  0  0  0  0  0  0  0
   -5.3179   22.2757  -28.9852 H   0  0  0  0  0  0  0  0  0  0  0  0
   -5.3657   23.9811  -29.5331 H   0  0  0  0  0  0  0  0  0  0  0  0
   -7.3399   21.7538  -30.2598 H   0  0  0  0  0  0  0  0  0  0  0  0
   -7.6361   23.1996  -29.1941 H   0  0  0  0  0  0  0  0  0  0  0  0
   -9.6330   23.3171  -31.3196 H   0  0  0  0  0  0  0  0  0  0  0  0
   -8.7863   23.4900  -32.9276 H   0  0  0  0  0  0  0  0  0  0  0  0
  -10.8439   20.9848  -32.0443 H   0  0  0  0  0  0  0  0  0  0  0  0
   -6.7798   18.1382  -30.2722 H   0  0  0  0  0  0  0  0  0  0  0  0
   -5.2971   16.1494  -30.5368 H   0  0  0  0  0  0  0  0  0  0  0  0
   -5.7924   16.3359  -34.8281 H   0  0  0  0  0  0  0  0  0  0  0  0
   -7.2624   18.3331  -34.5756 H   0  0  0  0  0  0  0  0  0  0  0  0
   -6.6010   21.1970  -32.2000 H   0  0  0  0  0  0  0  0  0  0  0  0
   -6.9309   24.2444  -33.1623 H   0  0  0  0  0  0  0  0  0  0  0  0
   -6.0530   24.9848  -31.7465 H   0  0  0  0  0  0  0  0  0  0  0  0
   -5.7001   22.1941  -32.9159 H   0  0  0  0  0  0  0  0  0  0  0  0
   -4.5011   23.5475  -32.8349 H   0  0  0  0  0  0  0  0  0  0  0  0
  1  2  1  0
  2  3  1  0
  3  4  2  0
  4  5  1  0
  5  6  2  0
  6  7  1  0
  7  8  2  0
  8  9  1  0
  9 10  1  0
 10 11  1  0
 11 12  1  0
 12 13  1  0
 13 14  1  0
 14 15  2  0
 15 16  1  0
 16 17  1  0
 17 18  1  0
 18 19  2  0
 19 20  1  0
 20 21  2  0
 21 22  1  0
 21 23  1  0
 23 24  2  0
 17 25  2  0
 12 26  1  0
 26 27  1  0
  8  3  1  0
 27  9  1  0
 25 14  1  0
 24 18  1  0
  1 28  1  0
  1 29  1  0
  1 30  1  0
  4 31  1  0
  5 32  1  0
  6 33  1  0
  7 34  1  0
 10 35  1  0
 10 36  1  0
 11 37  1  0
 11 38  1  0
 13 39  1  0
 13 40  1  0
 15 41  1  0
 19 42  1  0
 20 43  1  0
 23 44  1  0
 24 45  1  0
 25 46  1  0
 26 47  1  0
 26 48  1  0
 27 49  1  0
 27 50  1  0
M  CHG  1  25   1
M  END
>  <UniqueID>  (10) 
10

>  <SMILES>  (10) 
COc1ccccc1N1CCN(Cc2coc(-c3ccc(Br)cc3)[nH+]2)CC1

>  <Energy>  (10) 
95.8869402689508

>  <Genealogy>  (10) 
COc1ccccc1N1CCN(Cc2coc(-c3ccc(Br)cc3)[nH+]2)CC1 (protonated)
COc1ccccc1N1CCN(Cc2coc(-c3ccc(Br)cc3)[nH+]2)CC1 (3D coordinates assigned)
COc1ccccc1N1CCN(Cc2coc(-c3ccc(Br)cc3)[nH+]2)CC1 (nonaromatic ring conformer: 95.8869402689508 kcal/mol)

>  <smiles>  (10) 
COc1ccccc1N1CCN(Cc2coc(-c3ccc(Br)cc3)n2)CC1

>  <score_type>  (10) 
oracle

>  <origin>  (10) 
adg

>  <m_score__min__energy>  (10) 
-8.3699999999999992

>  <m_primary>  (10) 
energy

$$$$
10:0
     RDKit          3D

 38 41  0  0  0  0  0  0  0  0999 V2000
   -0.1570   22.8750  -24.3040 C   0  0  0  0  0  0  0  0  0  0  0  0
   -0.6730   22.5680  -25.5950 O   0  0  0  0  0  0  0  0  0  0  0  0
   -0.9750   23.5250  -26.5770 C   0  0  0  0  0  0  0  0  0  0  0  0
   -0.2050   24.6910  -26.6220 C   0  0  0  0  0  0  0  0  0  0  0  0
   -0.4640   25.6720  -27.5800 C   0  0  0  0  0  0  0  0  0  0  0  0
   -1.4970   25.4980  -28.5030 C   0  0  0  0  0  0  0  0  0  0  0  0
   -2.2910   24.3360  -28.4770 C   0  0  0  0  0  0  0  0  0  0  0  0
   -3.3610   24.1380  -29.4230 N   0  0  0  0  0  0  0  0  0  0  0  0
   -4.2840   23.1550  -29.4400 C   0  0  0  0  0  0  0  0  0  0  0  0
   -5.0880   23.3880  -30.5410 C   0  0  0  0  0  0  0  0  0  0  0  0
   -6.2470   22.5910  -31.0080 C   0  0  0  0  0  0  0  0  0  0  0  0
   -7.4830   23.2240  -31.2350 C   0  0  0  0  0  0  0  0  0  0  0  0
   -8.5890   22.4930  -31.6740 C   0  0  0  0  0  0  0  0  0  0  0  0
   -8.4830   21.1140  -31.8940 C   0  0  0  0  0  0  0  0  0  0  0  0
   -9.5890   20.3710  -32.3360 C   0  0  0  0  0  0  0  0  0  0  0  0
   -9.4700   18.9960  -32.5520 C   0  0  0  0  0  0  0  0  0  0  0  0
   -8.2490   18.3520  -32.3300 C   0  0  0  0  0  0  0  0  0  0  0  0
   -7.1400   19.0810  -31.8900 C   0  0  0  0  0  0  0  0  0  0  0  0
   -7.2460   20.4640  -31.6690 C   0  0  0  0  0  0  0  0  0  0  0  0
   -6.1390   21.2040  -31.2280 C   0  0  0  0  0  0  0  0  0  0  0  0
   -4.6310   24.4970  -31.1580 N   0  0  0  0  0  0  0  0  0  0  0  0
   -3.5880   24.9270  -30.4630 N   0  0  0  0  0  0  0  0  0  0  0  0
   -2.0170   23.3500  -27.5080 C   0  0  0  0  0  0  0  0  0  0  0  0
   -0.8323   22.4732  -23.5342 H   0  0  0  0  0  0  0  0  0  0  0  0
    0.8392   22.4226  -24.1902 H   0  0  0  0  0  0  0  0  0  0  0  0
   -0.0793   23.9663  -24.1902 H   0  0  0  0  0  0  0  0  0  0  0  0
    0.6101   24.8360  -25.8977 H   0  0  0  0  0  0  0  0  0  0  0  0
    0.1479   26.5857  -27.6081 H   0  0  0  0  0  0  0  0  0  0  0  0
   -1.6920   26.2752  -29.2566 H   0  0  0  0  0  0  0  0  0  0  0  0
   -4.3789   22.3294  -28.7193 H   0  0  0  0  0  0  0  0  0  0  0  0
   -7.5791   24.3065  -31.0648 H   0  0  0  0  0  0  0  0  0  0  0  0
   -9.5481   23.0028  -31.8478 H   0  0  0  0  0  0  0  0  0  0  0  0
  -10.5518   20.8728  -32.5127 H   0  0  0  0  0  0  0  0  0  0  0  0
  -10.3397   18.4181  -32.8979 H   0  0  0  0  0  0  0  0  0  0  0  0
   -8.1607   17.2691  -32.5019 H   0  0  0  0  0  0  0  0  0  0  0  0
   -6.1816   18.5698  -31.7164 H   0  0  0  0  0  0  0  0  0  0  0  0
   -5.1787   20.6970  -31.0526 H   0  0  0  0  0  0  0  0  0  0  0  0
   -2.6241   22.4332  -27.4786 H   0  0  0  0  0  0  0  0  0  0  0  0
  1  2  1  0
  2  3  1  0
  3  4  2  0
  4  5  1  0
  5  6  2  0
  6  7  1  0
  7  8  1  0
  8  9  1  0
  9 10  2  0
 10 11  1  0
 11 12  2  0
 12 13  1  0
 13 14  2  0
 14 15  1  0
 15 16  2  0
 16 17  1  0
 17 18  2  0
 18 19  1  0
 19 20  2  0
 10 21  1  0
 21 22  2  0
  7 23  2  0
 23  3  1  0
 22  8  1  0
 20 11  1  0
 19 14  1  0
  1 24  1  0
  1 25  1  0
  1 26  1  0
  4 27  1  0
  5 28  1  0
  6 29  1  0
  9 30  1  0
 12 31  1  0
 13 32  1  0
 15 33  1  0
 16 34  1  0
 17 35  1  0
 18 36  1  0
 20 37  1  0
 23 38  1  0
M  END
>  <UniqueID>  (11) 
11

>  <SMILES>  (11) 
COc1cccc(-n2cc(-c3ccc4ccccc4c3)nn2)c1

>  <Energy>  (11) 
83.9073592313835

>  <Genealogy>  (11) 
COc1cccc(-n2cc(-c3ccc4ccccc4c3)nn2)c1 (3D coordinates assigned)
COc1cccc(-n2cc(-c3ccc4ccccc4c3)nn2)c1 (optimized conformer: 83.9073592313835 kcal/mol)

>  <smiles>  (11) 
COc1cccc(-n2cc(-c3ccc4ccccc4c3)nn2)c1

>  <score_type>  (11) 
oracle

>  <origin>  (11) 
adg

>  <m_score__min__energy>  (11) 
-9.9100000000000001

>  <m_primary>  (11) 
energy

$$$$
11:0
     RDKit          3D

 43 45  0  0  0  0  0  0  0  0999 V2000
   -2.8470   20.9980  -33.3360 C   0  0  0  0  0  0  0  0  0  0  0  0
   -4.2560   21.1770  -33.4420 O   0  0  0  0  0  0  0  0  0  0  0  0
   -5.2140   20.2670  -32.9680 C   0  0  0  0  0  0  0  0  0  0  0  0
   -5.1470   18.8920  -33.2760 C   0  0  0  0  0  0  0  0  0  0  0  0
   -6.1380   18.0190  -32.8230 C   0  0  0  0  0  0  0  0  0  0  0  0
   -7.2050   18.5020  -32.0650 C   0  0  0  0  0  0  0  0  0  0  0  0
   -7.2790   19.8590  -31.7480 C   0  0  0  0  0  0  0  0  0  0  0  0
   -6.2820   20.7460  -32.1820 C   0  0  0  0  0  0  0  0  0  0  0  0
   -6.3790   22.1380  -31.8400 N   0  0  0  0  0  0  0  0  0  0  0  0
   -5.2580   23.0620  -31.8510 C   0  0  0  0  0  0  0  0  0  0  0  0
   -5.8570   24.4450  -31.4980 C   0  0  2  0  0  0  0  0  0  0  0  0
   -4.9450   25.2800  -30.6320 C   0  0  0  0  0  0  0  0  0  0  0  0
   -5.3690   26.3410  -30.1010 O   0  0  0  0  0  0  0  0  0  0  0  0
   -3.5740   24.8950  -30.4700 N   0  0  0  0  0  0  0  0  0  0  0  0
   -3.1490   23.7160  -29.7760 C   0  0  0  0  0  0  0  0  0  0  0  0
   -2.3610   22.7860  -30.4670 C   0  0  0  0  0  0  0  0  0  0  0  0
   -1.9350   21.6140  -29.8390 C   0  0  0  0  0  0  0  0  0  0  0  0
   -2.2810   21.3660  -28.5100 C   0  0  0  0  0  0  0  0  0  0  0  0
   -3.0400   22.3000  -27.7990 C   0  0  0  0  0  0  0  0  0  0  0  0
   -3.4600   23.4930  -28.4120 C   0  0  0  0  0  0  0  0  0  0  0  0
   -4.2290   24.4970  -27.5960 C   0  0  0  0  0  0  0  0  0  0  0  0
   -7.2340   24.1650  -30.8560 C   0  0  0  0  0  0  0  0  0  0  0  0
   -7.5100   22.7770  -31.2740 C   0  0  0  0  0  0  0  0  0  0  0  0
   -8.6330   22.2190  -31.1540 O   0  0  0  0  0  0  0  0  0  0  0  0
   -2.5608   20.9616  -32.2745 H   0  0  0  0  0  0  0  0  0  0  0  0
   -2.5592   20.0561  -33.8258 H   0  0  0  0  0  0  0  0  0  0  0  0
   -2.3328   21.8380  -33.8258 H   0  0  0  0  0  0  0  0  0  0  0  0
   -4.3099   18.5057  -33.8760 H   0  0  0  0  0  0  0  0  0  0  0  0
   -6.0773   16.9475  -33.0644 H   0  0  0  0  0  0  0  0  0  0  0  0
   -7.9885   17.8127  -31.7170 H   0  0  0  0  0  0  0  0  0  0  0  0
   -8.1246   20.2359  -31.1539 H   0  0  0  0  0  0  0  0  0  0  0  0
   -4.5084   22.7656  -31.1025 H   0  0  0  0  0  0  0  0  0  0  0  0
   -4.7499   23.0748  -32.8265 H   0  0  0  0  0  0  0  0  0  0  0  0
   -5.9753   25.0632  -32.4002 H   0  0  0  0  0  0  0  0  0  0  0  0
   -2.0760   22.9806  -31.5115 H   0  0  0  0  0  0  0  0  0  0  0  0
   -1.3255   20.8848  -30.3928 H   0  0  0  0  0  0  0  0  0  0  0  0
   -1.9564   20.4353  -28.0218 H   0  0  0  0  0  0  0  0  0  0  0  0
   -3.3106   22.0998  -26.7518 H   0  0  0  0  0  0  0  0  0  0  0  0
   -4.0744   24.2952  -26.5258 H   0  0  0  0  0  0  0  0  0  0  0  0
   -3.8743   25.5109  -27.8329 H   0  0  0  0  0  0  0  0  0  0  0  0
   -5.3003   24.4187  -27.8329 H   0  0  0  0  0  0  0  0  0  0  0  0
   -7.1849   24.2470  -29.7602 H   0  0  0  0  0  0  0  0  0  0  0  0
   -8.0130   24.8773  -31.1653 H   0  0  0  0  0  0  0  0  0  0  0  0
  1  2  1  0
  2  3  1  0
  3  4  2  0
  4  5  1  0
  5  6  2  0
  6  7  1  0
  7  8  2  0
  8  9  1  0
  9 10  1  0
 10 11  1  0
 11 12  1  0
 12 13  2  0
 12 14  1  0
 14 15  1  0
 15 16  2  0
 16 17  1  0
 17 18  2  0
 18 19  1  0
 19 20  2  0
 20 21  1  0
 11 22  1  0
 22 23  1  0
 23 24  2  0
  8  3  1  0
 23  9  1  0
 20 15  1  0
  1 25  1  0
  1 26  1  0
  1 27  1  0
  4 28  1  0
  5 29  1  0
  6 30  1  0
  7 31  1  0
 10 32  1  0
 10 33  1  0
 11 34  1  6
 16 35  1  0
 17 36  1  0
 18 37  1  0
 19 38  1  0
 21 39  1  0
 21 40  1  0
 21 41  1  0
 22 42  1  0
 22 43  1  0
M  CHG  1  14  -1
M  END
>  <UniqueID>  (12) 
12

>  <SMILES>  (12) 
COc1ccccc1N1C[C@H](C(=O)[N-]c2ccccc2C)CC1=O

>  <Energy>  (12) 
64.97888792169242

>  <Genealogy>  (12) 
COc1ccccc1N1CC(C(=O)[N-]c2ccccc2C)CC1=O (protonated)
COc1ccccc1N1C[C@H](C(=O)[N-]c2ccccc2C)CC1=O (chirality)
COc1ccccc1N1C[C@H](C(=O)[N-]c2ccccc2C)CC1=O (3D coordinates assigned)
COc1ccccc1N1C[C@H](C(=O)[N-]c2ccccc2C)CC1=O (nonaromatic ring conformer: 64.97888792169242 kcal/mol)

>  <smiles>  (12) 
COc1ccccc1N1CC(C(=O)Nc2ccccc2C)CC1=O

>  <score_type>  (12) 
oracle

>  <origin>  (12) 
adg

>  <m_score__min__energy>  (12) 
-9.7400000000000002

>  <m_primary>  (12) 
energy

$$$$
12:0
     RDKit          3D

 47 47  0  0  0  0  0  0  0  0999 V2000
   -2.3470   24.6380  -28.6370 C   0  0  0  0  0  0  0  0  0  0  0  0
   -3.0920   25.2060  -29.7090 O   0  0  0  0  0  0  0  0  0  0  0  0
   -4.1700   24.5720  -30.3470 C   0  0  0  0  0  0  0  0  0  0  0  0
   -5.4440   25.1350  -30.2130 C   0  0  0  0  0  0  0  0  0  0  0  0
   -6.5510   24.5410  -30.8260 C   0  0  0  0  0  0  0  0  0  0  0  0
   -6.3960   23.3730  -31.5870 C   0  0  0  0  0  0  0  0  0  0  0  0
   -7.5980   22.7140  -32.2090 C   0  0  0  0  0  0  0  0  0  0  0  0
   -7.5670   21.2600  -31.9980 N   0  0  0  0  0  0  0  0  0  0  0  0
   -8.8610   20.7210  -31.5370 C   0  0  0  0  0  0  0  0  0  0  0  0
   -9.1120   19.3210  -32.1230 C   0  0  0  0  0  0  0  0  0  0  0  0
   -7.9710   18.3270  -31.8350 C   0  0  0  0  0  0  0  0  0  0  0  0
   -7.2290   17.8640  -33.1140 C   0  0  0  0  0  0  0  0  0  0  0  0
   -6.5590   18.9710  -33.8200 N   0  0  0  0  0  0  0  0  0  0  0  0
   -5.1950   18.6160  -34.2480 C   0  0  0  0  0  0  0  0  0  0  0  0
   -4.1910   19.6960  -33.8170 C   0  0  0  0  0  0  0  0  0  0  0  0
   -3.9140   19.6780  -32.3030 C   0  0  0  0  0  0  0  0  0  0  0  0
   -5.1340   19.8170  -31.5070 N   0  0  0  0  0  0  0  0  0  0  0  0
   -5.1200   22.8040  -31.7220 C   0  0  0  0  0  0  0  0  0  0  0  0
   -4.0140   23.3980  -31.1090 C   0  0  0  0  0  0  0  0  0  0  0  0
   -2.7761   24.9652  -27.6785 H   0  0  0  0  0  0  0  0  0  0  0  0
   -2.3892   23.5407  -28.7021 H   0  0  0  0  0  0  0  0  0  0  0  0
   -1.3001   24.9692  -28.7021 H   0  0  0  0  0  0  0  0  0  0  0  0
   -5.5755   26.0524  -29.6205 H   0  0  0  0  0  0  0  0  0  0  0  0
   -7.5479   24.9915  -30.7111 H   0  0  0  0  0  0  0  0  0  0  0  0
   -8.5105   23.1248  -31.7523 H   0  0  0  0  0  0  0  0  0  0  0  0
   -7.5869   22.9124  -33.2909 H   0  0  0  0  0  0  0  0  0  0  0  0
   -6.8550   21.0700  -31.2550 H   0  0  0  0  0  0  0  0  0  0  0  0
   -8.8535   20.6559  -30.4390 H   0  0  0  0  0  0  0  0  0  0  0  0
   -9.6629   21.3932  -31.8763 H   0  0  0  0  0  0  0  0  0  0  0  0
  -10.0406   18.9220  -31.6889 H   0  0  0  0  0  0  0  0  0  0  0  0
   -9.1797   19.4321  -33.2153 H   0  0  0  0  0  0  0  0  0  0  0  0
   -7.2452   18.8120  -31.1657 H   0  0  0  0  0  0  0  0  0  0  0  0
   -8.4222   17.4344  -31.3770 H   0  0  0  0  0  0  0  0  0  0  0  0
   -6.4712   17.1189  -32.8300 H   0  0  0  0  0  0  0  0  0  0  0  0
   -7.9806   17.4427  -33.7979 H   0  0  0  0  0  0  0  0  0  0  0  0
   -6.5060   19.7830  -33.1600 H   0  0  0  0  0  0  0  0  0  0  0  0
   -7.1300   19.2640  -34.6480 H   0  0  0  0  0  0  0  0  0  0  0  0
   -4.9115   17.6566  -33.7907 H   0  0  0  0  0  0  0  0  0  0  0  0
   -5.1786   18.5362  -35.3450 H   0  0  0  0  0  0  0  0  0  0  0  0
   -3.2435   19.5289  -34.3503 H   0  0  0  0  0  0  0  0  0  0  0  0
   -4.6288   20.6746  -34.0634 H   0  0  0  0  0  0  0  0  0  0  0  0
   -3.4311   18.7241  -32.0443 H   0  0  0  0  0  0  0  0  0  0  0  0
   -3.2656   20.5361  -32.0723 H   0  0  0  0  0  0  0  0  0  0  0  0
   -5.7490   20.5450  -31.9370 H   0  0  0  0  0  0  0  0  0  0  0  0
   -4.8820   20.1280  -30.5430 H   0  0  0  0  0  0  0  0  0  0  0  0
   -4.9902   21.8857  -32.3135 H   0  0  0  0  0  0  0  0  0  0  0  0
   -3.0172   22.9468  -31.2220 H   0  0  0  0  0  0  0  0  0  0  0  0
  1  2  1  0
  2  3  1  0
  3  4  2  0
  4  5  1  0
  5  6  2  0
  6  7  1  0
  7  8  1  0
  8  9  1  0
  9 10  1  0
 10 11  1  0
 11 12  1  0
 12 13  1  0
 13 14  1  0
 14 15  1  0
 15 16  1  0
 16 17  1  0
  6 18  1  0
 18 19  2  0
 19  3  1  0
  1 20  1  0
  1 21  1  0
  1 22  1  0
  4 23  1  0
  5 24  1  0
  7 25  1  0
  7 26  1  0
  8 27  1  0
  9 28  1  0
  9 29  1  0
 10 30  1  0
 10 31  1  0
 11 32  1  0
 11 33  1  0
 12 34  1  0
 12 35  1  0
 13 36  1  0
 13 37  1  0
 14 38  1  0
 14 39  1  0
 15 40  1  0
 15 41  1  0
 16 42  1  0
 16 43  1  0
 17 44  1  0
 17 45  1  0
 18 46  1  0
 19 47  1  0
M  CHG  1  13   1
M  END
>  <UniqueID>  (13) 
13

>  <SMILES>  (13) 
COc1ccc(CNCCCC[NH2+]CCCN)cc1

>  <Energy>  (13) 
37.93922815388595

>  <Genealogy>  (13) 
COc1ccc(CNCCCC[NH2+]CCCN)cc1 (protonated)
COc1ccc(CNCCCC[NH2+]CCCN)cc1 (3D coordinates assigned)
COc1ccc(CNCCCC[NH2+]CCCN)cc1 (optimized conformer: 37.93922815388595 kcal/mol)

>  <smiles>  (13) 
COc1ccc(CNCCCCNCCCN)cc1

>  <score_type>  (13) 
oracle

>  <origin>  (13) 
adg

>  <m_score__min__energy>  (13) 
-5.6100000000000003

>  <m_primary>  (13) 
energy

$$$$
13:0
     RDKit          3D

 48 51  0  0  0  0  0  0  0  0999 V2000
   -6.7250   25.7000  -29.5820 C   0  0  0  0  0  0  0  0  0  0  0  0
   -5.5190   24.9970  -30.1150 C   0  0  0  0  0  0  0  0  0  0  0  0
   -4.3950   25.5970  -30.4270 O   0  0  0  0  0  0  0  0  0  0  0  0
   -3.5050   24.7430  -30.8390 N   0  0  0  0  0  0  0  0  0  0  0  0
   -4.0750   23.5210  -30.8090 C   0  0  0  0  0  0  0  0  0  0  0  0
   -3.3490   22.2870  -31.1700 C   0  0  0  0  0  0  0  0  0  0  0  0
   -2.7790   21.4950  -30.1600 C   0  0  0  0  0  0  0  0  0  0  0  0
   -2.0730   20.3340  -30.4880 C   0  0  0  0  0  0  0  0  0  0  0  0
   -1.9160   19.9640  -31.8260 C   0  0  0  0  0  0  0  0  0  0  0  0
   -2.4590   20.7580  -32.8390 C   0  0  0  0  0  0  0  0  0  0  0  0
   -3.1660   21.9200  -32.5150 C   0  0  0  0  0  0  0  0  0  0  0  0
   -5.3830   23.6420  -30.3550 C   0  0  0  0  0  0  0  0  0  0  0  0
   -6.3520   22.5560  -29.9650 C   0  0  0  0  0  0  0  0  0  0  0  0
   -7.3040   22.2770  -31.0590 N   0  0  0  0  0  0  0  0  0  0  0  0
   -6.6970   22.4650  -32.4020 C   0  0  0  0  0  0  0  0  0  0  0  0
   -6.0410   21.1880  -32.9470 C   0  0  0  0  0  0  0  0  0  0  0  0
   -6.9580   20.0450  -32.8580 N   0  0  0  0  0  0  0  0  0  0  0  0
   -6.5390   18.7530  -33.3290 C   0  0  0  0  0  0  0  0  0  0  0  0
   -5.7360   18.6410  -34.4770 C   0  0  0  0  0  0  0  0  0  0  0  0
   -5.3170   17.3850  -34.9260 C   0  0  0  0  0  0  0  0  0  0  0  0
   -5.6920   16.2320  -34.2330 C   0  0  0  0  0  0  0  0  0  0  0  0
   -5.2830   15.0140  -34.6690 F   0  0  0  0  0  0  0  0  0  0  0  0
   -6.4870   16.3330  -33.0870 C   0  0  0  0  0  0  0  0  0  0  0  0
   -6.9090   17.5880  -32.6360 C   0  0  0  0  0  0  0  0  0  0  0  0
   -8.2390   20.2160  -32.1650 C   0  0  0  0  0  0  0  0  0  0  0  0
   -7.9890   20.9710  -30.8580 C   0  0  0  0  0  0  0  0  0  0  0  0
   -6.7013   25.6862  -28.4823 H   0  0  0  0  0  0  0  0  0  0  0  0
   -6.7284   26.7416  -29.9356 H   0  0  0  0  0  0  0  0  0  0  0  0
   -7.6330   25.1897  -29.9356 H   0  0  0  0  0  0  0  0  0  0  0  0
   -2.8886   21.7897  -29.1059 H   0  0  0  0  0  0  0  0  0  0  0  0
   -1.6404   19.7108  -29.6915 H   0  0  0  0  0  0  0  0  0  0  0  0
   -1.3647   19.0472  -32.0819 H   0  0  0  0  0  0  0  0  0  0  0  0
   -2.3303   20.4688  -33.8925 H   0  0  0  0  0  0  0  0  0  0  0  0
   -3.5809   22.5498  -33.3158 H   0  0  0  0  0  0  0  0  0  0  0  0
   -5.7903   21.6387  -29.7345 H   0  0  0  0  0  0  0  0  0  0  0  0
   -6.9192   22.8926  -29.0847 H   0  0  0  0  0  0  0  0  0  0  0  0
   -7.4848   22.7807  -33.1018 H   0  0  0  0  0  0  0  0  0  0  0  0
   -5.9075   23.2246  -32.3033 H   0  0  0  0  0  0  0  0  0  0  0  0
   -5.7654   21.3467  -34.0000 H   0  0  0  0  0  0  0  0  0  0  0  0
   -5.1481   20.9682  -32.3433 H   0  0  0  0  0  0  0  0  0  0  0  0
   -5.4356   19.5462  -35.0251 H   0  0  0  0  0  0  0  0  0  0  0  0
   -4.6908   17.3048  -35.8268 H   0  0  0  0  0  0  0  0  0  0  0  0
   -6.7806   15.4250  -32.5399 H   0  0  0  0  0  0  0  0  0  0  0  0
   -7.5339   17.6633  -31.7339 H   0  0  0  0  0  0  0  0  0  0  0  0
   -8.9297   20.7912  -32.7991 H   0  0  0  0  0  0  0  0  0  0  0  0
   -8.6857   19.2335  -31.9523 H   0  0  0  0  0  0  0  0  0  0  0  0
   -8.9573   21.1552  -30.3696 H   0  0  0  0  0  0  0  0  0  0  0  0
   -7.3277   20.3459  -30.2399 H   0  0  0  0  0  0  0  0  0  0  0  0
  1  2  1  0
  2  3  1  0
  3  4  1  0
  4  5  2  0
  5  6  1  0
  6  7  2  0
  7  8  1  0
  8  9  2  0
  9 10  1  0
 10 11  2  0
  5 12  1  0
 12 13  1  0
 13 14  1  0
 14 15  1  0
 15 16  1  0
 16 17  1  0
 17 18  1  0
 18 19  2  0
 19 20  1  0
 20 21  2  0
 21 22  1  0
 21 23  1  0
 23 24  2  0
 17 25  1  0
 25 26  1  0
 12  2  2  0
 26 14  1  0
 11  6  1  0
 24 18  1  0
  1 27  1  0
  1 28  1  0
  1 29  1  0
  7 30  1  0
  8 31  1  0
  9 32  1  0
 10 33  1  0
 11 34  1  0
 13 35  1  0
 13 36  1  0
 15 37  1  0
 15 38  1  0
 16 39  1  0
 16 40  1  0
 19 41  1  0
 20 42  1  0
 23 43  1  0
 24 44  1  0
 25 45  1  0
 25 46  1  0
 26 47  1  0
 26 48  1  0
M  END
>  <UniqueID>  (14) 
14

>  <SMILES>  (14) 
Cc1onc(-c2ccccc2)c1CN1CCN(c2ccc(F)cc2)CC1

>  <Energy>  (14) 
97.54225840518804

>  <Genealogy>  (14) 
Cc1onc(-c2ccccc2)c1CN1CCN(c2ccc(F)cc2)CC1 (3D coordinates assigned)
Cc1onc(-c2ccccc2)c1CN1CCN(c2ccc(F)cc2)CC1 (nonaromatic ring conformer: 97.54225840518804 kcal/mol)

>  <smiles>  (14) 
Cc1onc(-c2ccccc2)c1CN1CCN(c2ccc(F)cc2)CC1

>  <score_type>  (14) 
oracle

>  <origin>  (14) 
adg

>  <m_score__min__energy>  (14) 
-9.3399999999999999

>  <m_primary>  (14) 
energy

$$$$
14:0
     RDKit          3D

 46 48  0  0  0  0  0  0  0  0999 V2000
   -3.8640   26.4250  -30.8140 H   0  0  0  0  0  0  0  0  0  0  0  0
   -3.8100   25.4180  -30.7060 O   0  0  0  0  0  0  0  0  0  0  0  0
   -4.9330   24.6110  -30.7080 N   0  0  0  0  0  0  0  0  0  0  0  0
   -4.8630   23.3510  -31.0940 C   0  0  0  0  0  0  0  0  0  0  0  0
   -6.0120   22.5140  -31.1990 C   0  0  0  0  0  0  0  0  0  0  0  0
   -5.9050   21.2720  -31.8570 C   0  0  0  0  0  0  0  0  0  0  0  0
   -4.6430   20.8030  -32.2620 C   0  0  0  0  0  0  0  0  0  0  0  0
   -4.4950   19.5090  -32.8900 C   0  0  0  0  0  0  0  0  0  0  0  0
   -4.3740   18.4730  -33.3920 N   0  0  0  0  0  0  0  0  0  0  0  0
   -3.5140   21.6030  -32.0350 C   0  0  0  0  0  0  0  0  0  0  0  0
   -2.2090   21.1460  -32.4280 N   0  0  0  0  0  0  0  0  0  0  0  0
   -1.8300   21.1800  -33.8430 C   0  0  0  0  0  0  0  0  0  0  0  0
   -1.8606   22.2200  -34.1999 H   0  0  0  0  0  0  0  0  0  0  0  0
   -2.5370   20.5594  -34.4131 H   0  0  0  0  0  0  0  0  0  0  0  0
   -0.4130   20.6210  -34.0400 C   0  0  0  0  0  0  0  0  0  0  0  0
    0.3169   21.3876  -33.7407 H   0  0  0  0  0  0  0  0  0  0  0  0
   -0.2948   20.3552  -35.1008 H   0  0  0  0  0  0  0  0  0  0  0  0
   -0.1860   19.4030  -33.2330 N   0  0  0  0  0  0  0  0  0  0  0  0
   -0.9510   18.2550  -33.7490 C   0  0  0  0  0  0  0  0  0  0  0  0
   -1.3429   17.6669  -32.9061 H   0  0  0  0  0  0  0  0  0  0  0  0
   -1.7881   18.6184  -34.3631 H   0  0  0  0  0  0  0  0  0  0  0  0
   -0.2933   17.6223  -34.3631 H   0  0  0  0  0  0  0  0  0  0  0  0
   -0.3940   19.6000  -31.7740 C   0  0  0  0  0  0  0  0  0  0  0  0
    0.5924   19.6675  -31.2919 H   0  0  0  0  0  0  0  0  0  0  0  0
   -0.9853   18.7416  -31.4226 H   0  0  0  0  0  0  0  0  0  0  0  0
   -1.1960   20.8650  -31.4100 C   0  0  0  0  0  0  0  0  0  0  0  0
   -0.5083   21.7206  -31.3391 H   0  0  0  0  0  0  0  0  0  0  0  0
   -1.6996   20.6993  -30.4462 H   0  0  0  0  0  0  0  0  0  0  0  0
   -3.6510   22.8360  -31.4740 N   0  0  0  0  0  0  0  0  0  0  0  0
   -2.7880   23.4200  -31.4120 H   0  0  0  0  0  0  0  0  0  0  0  0
   -7.1620   20.4350  -32.0150 C   0  0  0  0  0  0  0  0  0  0  0  0
   -7.0312   19.7405  -32.8579 H   0  0  0  0  0  0  0  0  0  0  0  0
   -7.3354   19.8733  -31.0853 H   0  0  0  0  0  0  0  0  0  0  0  0
   -8.3770   21.3370  -32.2860 C   0  0  0  0  0  0  0  0  0  0  0  0
   -8.2659   21.7802  -33.2866 H   0  0  0  0  0  0  0  0  0  0  0  0
   -9.2742   20.7053  -32.2083 H   0  0  0  0  0  0  0  0  0  0  0  0
   -8.5340   22.4820  -31.2570 C   0  0  0  0  0  0  0  0  0  0  0  0
   -8.7586   23.4103  -31.8026 H   0  0  0  0  0  0  0  0  0  0  0  0
   -9.3442   22.1893  -30.5730 H   0  0  0  0  0  0  0  0  0  0  0  0
   -7.2830   22.7170  -30.3950 C   0  0  0  0  0  0  0  0  0  0  0  0
   -7.3021   23.7470  -30.0093 H   0  0  0  0  0  0  0  0  0  0  0  0
   -7.2901   21.9912  -29.5685 H   0  0  0  0  0  0  0  0  0  0  0  0
   -6.2030   25.3110  -30.4810 C   0  0  0  0  0  0  0  0  0  0  0  0
   -6.3798   25.4084  -29.3997 H   0  0  0  0  0  0  0  0  0  0  0  0
   -6.1569   26.3112  -30.9366 H   0  0  0  0  0  0  0  0  0  0  0  0
   -7.0240   24.7380  -30.9366 H   0  0  0  0  0  0  0  0  0  0  0  0
  1  2  1  0
  2  3  1  0
  3  4  2  0
  4  5  1  0
  5  6  2  0
  6  7  1  0
  7  8  1  0
  8  9  3  0
  7 10  2  0
 10 11  1  0
 11 12  1  0
 12 13  1  0
 12 14  1  0
 12 15  1  0
 15 16  1  0
 15 17  1  0
 15 18  1  0
 18 19  1  0
 19 20  1  0
 19 21  1  0
 19 22  1  0
 18 23  1  0
 23 24  1  0
 23 25  1  0
 23 26  1  0
 26 27  1  0
 26 28  1  0
 10 29  1  0
 29 30  1  0
  6 31  1  0
 31 32  1  0
 31 33  1  0
 31 34  1  0
 34 35  1  0
 34 36  1  0
 34 37  1  0
 37 38  1  0
 37 39  1  0
 37 40  1  0
 40 41  1  0
 40 42  1  0
  3 43  1  0
 43 44  1  0
 43 45  1  0
 43 46  1  0
 29  4  1  0
 40  5  1  0
 26 11  1  0
M  CHG  1   3   1
M  END
>  <UniqueID>  (15) 
15

>  <SMILES>  (15) 
CN1CCN(c2[nH]/c(=[N+](/C)O)c3c(c2C#N)CCCC3)CC1

>  <Energy>  (15) 
87.96180889796446

>  <Genealogy>  (15) 
CN1CCN(c2[nH]c(=[N+](C)O)c3c(c2C#N)CCCC3)CC1 (protonated)
CN1CCN(c2[nH]/c(=[N+](/C)O)c3c(c2C#N)CCCC3)CC1 (cis-trans isomerization)
CN1CCN(c2[nH]/c(=[N+](/C)O)c3c(c2C#N)CCCC3)CC1 (3D coordinates assigned)
CN1CCN(c2[nH]/c(=[N+](/C)O)c3c(c2C#N)CCCC3)CC1 (nonaromatic ring conformer: 87.96180889796446 kcal/mol)

>  <smiles>  (15) 
CN1CCN(c2[nH]c(=[N+](C)[O-])c3c(c2C#N)CCCC3)CC1

>  <score_type>  (15) 
oracle

>  <origin>  (15) 
adg

>  <m_score__min__energy>  (15) 
-7.2199999999999998

>  <m_primary>  (15) 
energy

$$$$
15:0
     RDKit          3D

 37 39  0  0  0  0  0  0  0  0999 V2000
   -5.6810   15.5460  -33.8480 C   0  0  0  0  0  0  0  0  0  0  0  0
   -5.9770   16.9750  -33.5030 C   0  0  0  0  0  0  0  0  0  0  0  0
   -5.0110   17.9770  -33.7450 C   0  0  0  0  0  0  0  0  0  0  0  0
   -5.3090   19.3160  -33.4550 C   0  0  0  0  0  0  0  0  0  0  0  0
   -6.5380   19.6100  -32.9540 N   0  0  0  0  0  0  0  0  0  0  0  0
   -7.0870   20.7840  -32.5890 C   0  0  0  0  0  0  0  0  0  0  0  0
   -6.3960   22.1250  -32.5930 C   0  0  0  0  0  0  0  0  0  0  0  0
   -5.6910   22.3600  -31.3150 N   0  0  0  0  0  0  0  0  0  0  0  0
   -6.3340   23.4460  -30.5310 C   0  0  0  0  0  0  0  0  0  0  0  0
   -5.7070   24.8200  -30.7820 C   0  0  0  0  0  0  0  0  0  0  0  0
   -4.0130   24.9230  -30.0930 S   0  0  0  0  0  0  0  0  0  0  0  0
   -3.5450   23.1670  -30.3110 C   0  0  0  0  0  0  0  0  0  0  0  0
   -4.2350   22.5490  -31.5280 C   0  0  0  0  0  0  0  0  0  0  0  0
   -8.3720   20.5100  -32.1300 C   0  0  0  0  0  0  0  0  0  0  0  0
   -9.3630   21.5050  -31.6020 C   0  0  0  0  0  0  0  0  0  0  0  0
   -9.3430   21.5090  -30.2190 F   0  0  0  0  0  0  0  0  0  0  0  0
   -9.0460   22.7710  -32.0570 F   0  0  0  0  0  0  0  0  0  0  0  0
  -10.6340   21.1690  -32.0290 F   0  0  0  0  0  0  0  0  0  0  0  0
   -8.6250   19.1830  -32.2220 N   0  0  0  0  0  0  0  0  0  0  0  0
   -7.4810   18.6780  -32.7270 C   0  0  0  0  0  0  0  0  0  0  0  0
   -7.2410   17.3330  -32.9970 C   0  0  0  0  0  0  0  0  0  0  0  0
   -5.5602   14.9629  -32.9231 H   0  0  0  0  0  0  0  0  0  0  0  0
   -6.5123   15.1312  -34.4370 H   0  0  0  0  0  0  0  0  0  0  0  0
   -4.7533   15.4956  -34.4370 H   0  0  0  0  0  0  0  0  0  0  0  0
   -4.0284   17.7076  -34.1595 H   0  0  0  0  0  0  0  0  0  0  0  0
   -4.5667   20.1090  -33.6286 H   0  0  0  0  0  0  0  0  0  0  0  0
   -5.6671   22.1519  -33.4164 H   0  0  0  0  0  0  0  0  0  0  0  0
   -7.1547   22.9105  -32.7250 H   0  0  0  0  0  0  0  0  0  0  0  0
   -7.3986   23.4918  -30.8041 H   0  0  0  0  0  0  0  0  0  0  0  0
   -6.1918   23.2101  -29.4660 H   0  0  0  0  0  0  0  0  0  0  0  0
   -5.6631   24.9998  -31.8663 H   0  0  0  0  0  0  0  0  0  0  0  0
   -6.3284   25.5784  -30.2833 H   0  0  0  0  0  0  0  0  0  0  0  0
   -2.4554   23.1019  -30.4467 H   0  0  0  0  0  0  0  0  0  0  0  0
   -3.8625   22.6120  -29.4159 H   0  0  0  0  0  0  0  0  0  0  0  0
   -4.0873   23.2124  -32.3930 H   0  0  0  0  0  0  0  0  0  0  0  0
   -3.7890   21.5583  -31.7003 H   0  0  0  0  0  0  0  0  0  0  0  0
   -8.0162   16.5728  -32.8201 H   0  0  0  0  0  0  0  0  0  0  0  0
  1  2  1  0
  2  3  1  0
  3  4  2  0
  4  5  1  0
  5  6  1  0
  6  7  1  0
  7  8  1  0
  8  9  1  0
  9 10  1  0
 10 11  1  0
 11 12  1  0
 12 13  1  0
  6 14  2  0
 14 15  1  0
 15 16  1  0
 15 17  1  0
 15 18  1  0
 14 19  1  0
 19 20  2  0
 20 21  1  0
 21  2  2  0
 20  5  1  0
 13  8  1  0
  1 22  1  0
  1 23  1  0
  1 24  1  0
  3 25  1  0
  4 26  1  0
  7 27  1  0
  7 28  1  0
  9 29  1  0
  9 30  1  0
 10 31  1  0
 10 32  1  0
 12 33  1  0
 12 34  1  0
 13 35  1  0
 13 36  1  0
 21 37  1  0
M  END
>  <UniqueID>  (16) 
16

>  <SMILES>  (16) 
Cc1ccn2c(CN3CCSCC3)c(C(F)(F)F)nc2c1

>  <Energy>  (16) 
77.22479060579433

>  <Genealogy>  (16) 
Cc1ccn2c(CN3CCSCC3)c(C(F)(F)F)nc2c1 (3D coordinates assigned)
Cc1ccn2c(CN3CCSCC3)c(C(F)(F)F)nc2c1 (nonaromatic ring conformer: 77.22479060579433 kcal/mol)

>  <smiles>  (16) 
Cc1ccn2c(CN3CCSCC3)c(C(F)(F)F)nc2c1

>  <score_type>  (16) 
oracle

>  <origin>  (16) 
adg

>  <m_score__min__energy>  (16) 
-7

>  <m_primary>  (16) 
energy

$$$$
16:0
     RDKit          3D

 38 40  0  0  0  0  0  0  0  0999 V2000
   -6.0850   25.6590  -30.1300 C   0  0  0  0  0  0  0  0  0  0  0  0
   -5.2910   24.4790  -30.5900 C   0  0  0  0  0  0  0  0  0  0  0  0
   -3.9450   24.3950  -30.4670 N   0  0  0  0  0  0  0  0  0  0  0  0
   -3.6550   23.1970  -31.0140 C   0  0  0  0  0  0  0  0  0  0  0  0
   -2.3770   22.6570  -31.1470 C   0  0  0  0  0  0  0  0  0  0  0  0
   -2.2540   21.4150  -31.7860 C   0  0  0  0  0  0  0  0  0  0  0  0
   -3.3950   20.7570  -32.2830 C   0  0  0  0  0  0  0  0  0  0  0  0
   -4.6580   21.3460  -32.1250 C   0  0  0  0  0  0  0  0  0  0  0  0
   -4.7380   22.5390  -31.4720 N   0  0  0  0  0  0  0  0  0  0  0  0
   -5.7900   23.3370  -31.2060 C   0  0  0  0  0  0  0  0  0  0  0  0
   -7.2040   23.0470  -31.5100 C   0  0  0  0  0  0  0  0  0  0  0  0
   -7.8040   23.7420  -32.3730 O   0  0  0  0  0  0  0  0  0  0  0  0
   -7.9100   22.0210  -30.7950 N   0  0  0  0  0  0  0  0  0  0  0  0
   -9.3160   21.7060  -31.0460 C   0  0  0  0  0  0  0  0  0  0  0  0
   -9.4650   20.8460  -32.3040 C   0  0  0  0  0  0  0  0  0  0  0  0
   -8.3260   19.8690  -32.4470 C   0  0  0  0  0  0  0  0  0  0  0  0
   -8.2460   18.7430  -31.6100 C   0  0  0  0  0  0  0  0  0  0  0  0
   -7.2080   17.8200  -31.7690 C   0  0  0  0  0  0  0  0  0  0  0  0
   -6.2520   18.0060  -32.7720 C   0  0  0  0  0  0  0  0  0  0  0  0
   -6.3320   19.1180  -33.6150 C   0  0  0  0  0  0  0  0  0  0  0  0
   -7.3660   20.0460  -33.4560 C   0  0  0  0  0  0  0  0  0  0  0  0
   -6.1016   25.6837  -29.0304 H   0  0  0  0  0  0  0  0  0  0  0  0
   -5.6237   26.5822  -30.5105 H   0  0  0  0  0  0  0  0  0  0  0  0
   -7.1140   25.5794  -30.5105 H   0  0  0  0  0  0  0  0  0  0  0  0
   -1.4935   23.1880  -30.7631 H   0  0  0  0  0  0  0  0  0  0  0  0
   -1.2622   20.9530  -31.8994 H   0  0  0  0  0  0  0  0  0  0  0  0
   -3.2966   19.7869  -32.7921 H   0  0  0  0  0  0  0  0  0  0  0  0
   -5.5613   20.8570  -32.5185 H   0  0  0  0  0  0  0  0  0  0  0  0
   -7.4630   21.5970  -29.9500 H   0  0  0  0  0  0  0  0  0  0  0  0
   -9.7219   21.1568  -30.1837 H   0  0  0  0  0  0  0  0  0  0  0  0
   -9.8666   22.6466  -31.1950 H   0  0  0  0  0  0  0  0  0  0  0  0
  -10.4100   20.2862  -32.2437 H   0  0  0  0  0  0  0  0  0  0  0  0
   -9.4581   21.5126  -33.1790 H   0  0  0  0  0  0  0  0  0  0  0  0
   -9.0027   18.5873  -30.8270 H   0  0  0  0  0  0  0  0  0  0  0  0
   -7.1434   16.9462  -31.1040 H   0  0  0  0  0  0  0  0  0  0  0  0
   -5.4373   17.2776  -32.8977 H   0  0  0  0  0  0  0  0  0  0  0  0
   -5.5803   19.2634  -34.4049 H   0  0  0  0  0  0  0  0  0  0  0  0
   -7.4274   20.9178  -34.1239 H   0  0  0  0  0  0  0  0  0  0  0  0
  1  2  1  0
  2  3  1  0
  3  4  2  0
  4  5  1  0
  5  6  2  0
  6  7  1  0
  7  8  2  0
  8  9  1  0
  9 10  1  0
 10 11  1  0
 11 12  2  0
 11 13  1  0
 13 14  1  0
 14 15  1  0
 15 16  1  0
 16 17  2  0
 17 18  1  0
 18 19  2  0
 19 20  1  0
 20 21  2  0
 10  2  2  0
 21 16  1  0
  9  4  1  0
  1 22  1  0
  1 23  1  0
  1 24  1  0
  5 25  1  0
  6 26  1  0
  7 27  1  0
  8 28  1  0
 13 29  1  0
 14 30  1  0
 14 31  1  0
 15 32  1  0
 15 33  1  0
 17 34  1  0
 18 35  1  0
 19 36  1  0
 20 37  1  0
 21 38  1  0
M  END
>  <UniqueID>  (17) 
17

>  <SMILES>  (17) 
Cc1nc2ccccn2c1C(=O)NCCc1ccccc1

>  <Energy>  (17) 
72.23193559349369

>  <Genealogy>  (17) 
Cc1nc2ccccn2c1C(=O)NCCc1ccccc1 (3D coordinates assigned)
Cc1nc2ccccn2c1C(=O)NCCc1ccccc1 (optimized conformer: 72.23193559349369 kcal/mol)

>  <smiles>  (17) 
Cc1nc2ccccn2c1C(=O)NCCc1ccccc1

>  <score_type>  (17) 
oracle

>  <origin>  (17) 
adg

>  <m_score__min__energy>  (17) 
-7.8799999999999999

>  <m_primary>  (17) 
energy

$$$$
17:0
     RDKit          3D

 53 54  0  0  0  0  0  0  0  0999 V2000
   -1.6160   17.3710  -25.7610 H   0  0  0  0  0  0  0  0  0  0  0  0
   -1.4460   18.0350  -26.5490 N   0  0  0  0  0  0  0  0  0  0  0  0
   -0.4660   17.8980  -27.3870 C   0  0  0  0  0  0  0  0  0  0  0  0
   -0.3680   18.7590  -28.5920 C   0  0  0  0  0  0  0  0  0  0  0  0
    0.5880   18.4830  -29.5830 C   0  0  0  0  0  0  0  0  0  0  0  0
    1.2675   17.6266  -29.4612 H   0  0  0  0  0  0  0  0  0  0  0  0
    0.6840   19.2860  -30.7220 C   0  0  0  0  0  0  0  0  0  0  0  0
    1.4334   19.0537  -31.4930 H   0  0  0  0  0  0  0  0  0  0  0  0
   -0.1710   20.3890  -30.8890 C   0  0  0  0  0  0  0  0  0  0  0  0
   -0.1250   21.2030  -32.0320 O   0  0  0  0  0  0  0  0  0  0  0  0
   -1.0140   21.0930  -33.1380 C   0  0  0  0  0  0  0  0  0  0  0  0
   -2.0428   20.9657  -32.7702 H   0  0  0  0  0  0  0  0  0  0  0  0
   -0.9534   22.0055  -33.7493 H   0  0  0  0  0  0  0  0  0  0  0  0
   -0.7328   20.2228  -33.7493 H   0  0  0  0  0  0  0  0  0  0  0  0
   -1.1200   20.6790  -29.8930 C   0  0  0  0  0  0  0  0  0  0  0  0
   -2.0170   21.7890  -30.0500 N   0  0  0  0  0  0  0  0  0  0  0  0
   -1.4640   23.1400  -30.1880 C   0  0  0  0  0  0  0  0  0  0  0  0
   -0.6512   23.1277  -30.9291 H   0  0  0  0  0  0  0  0  0  0  0  0
   -2.2583   23.8250  -30.5195 H   0  0  0  0  0  0  0  0  0  0  0  0
   -0.9240   23.6100  -28.8610 C   0  0  0  0  0  0  0  0  0  0  0  0
    0.0430   22.8370  -28.2000 C   0  0  0  0  0  0  0  0  0  0  0  0
    0.3457   21.8655  -28.6179 H   0  0  0  0  0  0  0  0  0  0  0  0
    0.6230   23.2940  -27.0150 C   0  0  0  0  0  0  0  0  0  0  0  0
    1.3709   22.6763  -26.4963 H   0  0  0  0  0  0  0  0  0  0  0  0
    0.2560   24.5330  -26.4870 C   0  0  0  0  0  0  0  0  0  0  0  0
    0.7132   24.8857  -25.5508 H   0  0  0  0  0  0  0  0  0  0  0  0
   -0.6930   25.3310  -27.1440 C   0  0  0  0  0  0  0  0  0  0  0  0
   -1.0850   26.6630  -26.5700 C   0  0  0  0  0  0  0  0  0  0  0  0
   -1.0688   26.6080  -25.4715 H   0  0  0  0  0  0  0  0  0  0  0  0
   -0.3750   27.4317  -26.9091 H   0  0  0  0  0  0  0  0  0  0  0  0
   -2.0982   26.9246  -26.9091 H   0  0  0  0  0  0  0  0  0  0  0  0
   -1.2900   24.8640  -28.3300 C   0  0  0  0  0  0  0  0  0  0  0  0
   -2.2350   25.6510  -28.9840 O   0  0  0  0  0  0  0  0  0  0  0  0
   -3.4640   21.5710  -29.9400 C   0  0  0  0  0  0  0  0  0  0  0  0
   -3.6814   20.5017  -30.0790 H   0  0  0  0  0  0  0  0  0  0  0  0
   -3.8004   21.8978  -28.9450 H   0  0  0  0  0  0  0  0  0  0  0  0
   -4.2060   22.3800  -31.0070 C   0  0  0  0  0  0  0  0  0  0  0  0
   -3.4720   22.8745  -31.6602 H   0  0  0  0  0  0  0  0  0  0  0  0
   -4.8388   21.6963  -31.5919 H   0  0  0  0  0  0  0  0  0  0  0  0
   -5.0600   23.3970  -30.3870 N   0  0  0  0  0  0  0  0  0  0  0  0
   -6.0900   23.2150  -30.4100 H   0  0  0  0  0  0  0  0  0  0  0  0
   -4.6310   24.4840  -29.8020 C   0  0  0  0  0  0  0  0  0  0  0  0
   -4.1870   25.6250  -30.5520 N   0  0  0  0  0  0  0  0  0  0  0  0
   -4.1450   25.6430  -31.5940 H   0  0  0  0  0  0  0  0  0  0  0  0
   -3.8690   26.4820  -30.0480 H   0  0  0  0  0  0  0  0  0  0  0  0
   -4.5910   24.5450  -28.3730 N   0  0  0  0  0  0  0  0  0  0  0  0
   -4.9050   23.7380  -27.7900 H   0  0  0  0  0  0  0  0  0  0  0  0
   -4.2460   25.4040  -27.8890 H   0  0  0  0  0  0  0  0  0  0  0  0
   -1.2210   19.8630  -28.7590 C   0  0  0  0  0  0  0  0  0  0  0  0
   -1.9758   20.0888  -27.9914 H   0  0  0  0  0  0  0  0  0  0  0  0
    0.5180   16.8900  -27.1410 N   0  0  0  0  0  0  0  0  0  0  0  0
    0.4240   16.2520  -26.3190 H   0  0  0  0  0  0  0  0  0  0  0  0
    1.3650   16.8000  -27.7450 H   0  0  0  0  0  0  0  0  0  0  0  0
  1  2  1  0
  2  3  2  0
  3  4  1  0
  4  5  2  0
  5  6  1  0
  5  7  1  0
  7  8  1  0
  7  9  2  0
  9 10  1  0
 10 11  1  0
 11 12  1  0
 11 13  1  0
 11 14  1  0
  9 15  1  0
 15 16  1  0
 16 17  1  0
 17 18  1  0
 17 19  1  0
 17 20  1  0
 20 21  2  0
 21 22  1  0
 21 23  1  0
 23 24  1  0
 23 25  2  0
 25 26  1  0
 25 27  1  0
 27 28  1  0
 28 29  1  0
 28 30  1  0
 28 31  1  0
 27 32  2  0
 32 33  1  0
 16 34  1  0
 34 35  1  0
 34 36  1  0
 34 37  1  0
 37 38  1  0
 37 39  1  0
 37 40  1  0
 40 41  1  0
 40 42  2  3
 42 43  1  0
 43 44  1  0
 43 45  1  0
 42 46  1  0
 46 47  1  0
 46 48  1  0
 15 49  2  0
 49 50  1  0
  3 51  1  0
 51 52  1  0
 51 53  1  0
 49  4  1  0
 32 20  1  0
M  CHG  2  33  -1  40   1
M  END
>  <UniqueID>  (18) 
18

>  <SMILES>  (18) 
[H]/N=C(/N)c1ccc(OC)c(N(CC[NH+]=C(N)N)Cc2cccc(C)c2[O-])c1

>  <Energy>  (18) 
51.59099541213686

>  <Genealogy>  (18) 
COc1ccc(C(=N)N)cc1N(CC[NH+]=C(N)N)Cc1cccc(C)c1[O-] (protonated)
[H]/N=C(/N)c1ccc(OC)c(N(CC[NH+]=C(N)N)Cc2cccc(C)c2[O-])c1 (cis-trans isomerization)
[H]/N=C(/N)c1ccc(OC)c(N(CC[NH+]=C(N)N)Cc2cccc(C)c2[O-])c1 (3D coordinates assigned)
[H]/N=C(/N)c1ccc(OC)c(N(CC[NH+]=C(N)N)Cc2cccc(C)c2[O-])c1 (optimized conformer: 51.59099541213686 kcal/mol)

>  <smiles>  (18) 
COc1ccc(C(=N)N)cc1N(CCN=C(N)N)Cc1cccc(C)c1O

>  <score_type>  (18) 
oracle

>  <origin>  (18) 
adg

>  <m_score__min__energy>  (18) 
-9.7899999999999991

>  <m_primary>  (18) 
energy

$$$$
18:0
     RDKit          3D

 46 46  0  0  0  0  0  0  0  0999 V2000
   -4.5580   19.3780  -33.4460 C   0  0  0  0  0  0  0  0  0  0  0  0
   -5.9530   19.9830  -33.3160 C   0  0  0  0  0  0  0  0  0  0  0  0
   -7.0020   18.8970  -33.0410 C   0  0  0  0  0  0  0  0  0  0  0  0
   -7.4430   18.8430  -31.5650 C   0  0  0  0  0  0  0  0  0  0  0  0
   -8.6950   19.6730  -31.2110 C   0  0  0  0  0  0  0  0  0  0  0  0
   -9.2130   20.6130  -32.3190 C   0  0  0  0  0  0  0  0  0  0  0  0
   -9.3440   22.0870  -31.8960 C   0  0  0  0  0  0  0  0  0  0  0  0
   -8.0990   22.6370  -31.1680 C   0  0  0  0  0  0  0  0  0  0  0  0
   -6.9440   22.9660  -32.1370 C   0  0  0  0  0  0  0  0  0  0  0  0
   -5.9830   24.0440  -31.6000 C   0  0  0  0  0  0  0  0  0  0  0  0
   -4.7600   23.4520  -30.9420 C   0  0  0  0  0  0  0  0  0  0  0  0
   -4.6420   22.0560  -30.8190 C   0  0  0  0  0  0  0  0  0  0  0  0
   -3.5630   21.4960  -30.1310 C   0  0  0  0  0  0  0  0  0  0  0  0
   -2.5920   22.3230  -29.5570 C   0  0  0  0  0  0  0  0  0  0  0  0
   -1.2330   21.6020  -28.6360 S   0  0  0  0  0  0  0  0  0  0  0  0
   -0.4900   20.8360  -30.1120 C   0  0  0  0  0  0  0  0  0  0  0  0
   -2.6900   23.7120  -29.6930 C   0  0  0  0  0  0  0  0  0  0  0  0
   -3.7700   24.2790  -30.3780 C   0  0  0  0  0  0  0  0  0  0  0  0
   -3.8590   25.6630  -30.4820 O   0  0  0  0  0  0  0  0  0  0  0  0
   -4.1418   19.1975  -32.4439 H   0  0  0  0  0  0  0  0  0  0  0  0
   -4.6207   18.4262  -33.9939 H   0  0  0  0  0  0  0  0  0  0  0  0
   -3.9060   20.0742  -33.9939 H   0  0  0  0  0  0  0  0  0  0  0  0
   -5.9560   20.7041  -32.4854 H   0  0  0  0  0  0  0  0  0  0  0  0
   -6.2070   20.4828  -34.2624 H   0  0  0  0  0  0  0  0  0  0  0  0
   -7.8862   19.0986  -33.6635 H   0  0  0  0  0  0  0  0  0  0  0  0
   -6.5416   17.9274  -33.2817 H   0  0  0  0  0  0  0  0  0  0  0  0
   -7.6509   17.7928  -31.3124 H   0  0  0  0  0  0  0  0  0  0  0  0
   -6.6169   19.2847  -30.9884 H   0  0  0  0  0  0  0  0  0  0  0  0
   -9.5040   18.9720  -30.9577 H   0  0  0  0  0  0  0  0  0  0  0  0
   -8.3939   20.3281  -30.3802 H   0  0  0  0  0  0  0  0  0  0  0  0
   -8.5159   20.5600  -33.1682 H   0  0  0  0  0  0  0  0  0  0  0  0
  -10.2266   20.2690  -32.5724 H   0  0  0  0  0  0  0  0  0  0  0  0
   -9.5149   22.6932  -32.7979 H   0  0  0  0  0  0  0  0  0  0  0  0
  -10.1826   22.1443  -31.1864 H   0  0  0  0  0  0  0  0  0  0  0  0
   -8.3812   23.5547  -30.6312 H   0  0  0  0  0  0  0  0  0  0  0  0
   -7.7441   21.8573  -30.4780 H   0  0  0  0  0  0  0  0  0  0  0  0
   -6.3692   22.0461  -32.3194 H   0  0  0  0  0  0  0  0  0  0  0  0
   -7.3959   23.3634  -33.0578 H   0  0  0  0  0  0  0  0  0  0  0  0
   -5.6602   24.6783  -32.4387 H   0  0  0  0  0  0  0  0  0  0  0  0
   -6.5241   24.6249  -30.8386 H   0  0  0  0  0  0  0  0  0  0  0  0
   -5.4039   21.4013  -31.2672 H   0  0  0  0  0  0  0  0  0  0  0  0
   -3.4768   20.4031  -30.0405 H   0  0  0  0  0  0  0  0  0  0  0  0
    0.2447   20.0785  -29.8015 H   0  0  0  0  0  0  0  0  0  0  0  0
   -1.2777   20.3581  -30.7130 H   0  0  0  0  0  0  0  0  0  0  0  0
    0.0117   21.6088  -30.7130 H   0  0  0  0  0  0  0  0  0  0  0  0
   -1.9147   24.3609  -29.2596 H   0  0  0  0  0  0  0  0  0  0  0  0
  1  2  1  0
  2  3  1  0
  3  4  1  0
  4  5  1  0
  5  6  1  0
  6  7  1  0
  7  8  1  0
  8  9  1  0
  9 10  1  0
 10 11  1  0
 11 12  2  0
 12 13  1  0
 13 14  2  0
 14 15  1  0
 15 16  1  0
 14 17  1  0
 17 18  2  0
 18 19  1  0
 18 11  1  0
  1 20  1  0
  1 21  1  0
  1 22  1  0
  2 23  1  0
  2 24  1  0
  3 25  1  0
  3 26  1  0
  4 27  1  0
  4 28  1  0
  5 29  1  0
  5 30  1  0
  6 31  1  0
  6 32  1  0
  7 33  1  0
  7 34  1  0
  8 35  1  0
  8 36  1  0
  9 37  1  0
  9 38  1  0
 10 39  1  0
 10 40  1  0
 12 41  1  0
 13 42  1  0
 16 43  1  0
 16 44  1  0
 16 45  1  0
 17 46  1  0
M  CHG  1  19  -1
M  END
>  <UniqueID>  (19) 
19

>  <SMILES>  (19) 
CCCCCCCCCCc1ccc(SC)cc1[O-]

>  <Energy>  (19) 
27.629858240774517

>  <Genealogy>  (19) 
CCCCCCCCCCc1ccc(SC)cc1[O-] (protonated)
CCCCCCCCCCc1ccc(SC)cc1[O-] (3D coordinates assigned)
CCCCCCCCCCc1ccc(SC)cc1[O-] (optimized conformer: 27.629858240774517 kcal/mol)

>  <smiles>  (19) 
CCCCCCCCCCc1ccc(SC)cc1O

>  <score_type>  (19) 
oracle

>  <origin>  (19) 
adg

>  <m_score__min__energy>  (19) 
-9.9100000000000001

>  <m_primary>  (19) 
energy

$$$$
19:0
     RDKit          3D

 48 51  0  0  0  0  0  0  0  0999 V2000
    0.5970   17.4480  -27.8430 C   0  0  0  0  0  0  0  0  0  0  0  0
    0.6270   18.7850  -28.3320 O   0  0  0  0  0  0  0  0  0  0  0  0
   -0.0400   19.2190  -29.4880 C   0  0  0  0  0  0  0  0  0  0  0  0
    0.3430   18.6790  -30.7190 C   0  0  0  0  0  0  0  0  0  0  0  0
   -0.2810   19.0870  -31.8990 C   0  0  0  0  0  0  0  0  0  0  0  0
   -1.2960   20.0610  -31.8770 C   0  0  0  0  0  0  0  0  0  0  0  0
   -1.9130   20.5100  -33.1540 C   0  0  0  0  0  0  0  0  0  0  0  0
   -1.5170   19.9990  -34.2390 O   0  0  0  0  0  0  0  0  0  0  0  0
   -2.9870   21.5650  -33.2200 C   0  0  0  0  0  0  0  0  0  0  0  0
   -4.3250   21.0360  -32.7720 C   0  0  0  0  0  0  0  0  0  0  0  0
   -4.7430   19.8400  -33.2750 N   0  0  0  0  0  0  0  0  0  0  0  0
   -5.9290   19.2880  -32.9180 C   0  0  0  0  0  0  0  0  0  0  0  0
   -6.3340   18.0580  -33.4520 C   0  0  0  0  0  0  0  0  0  0  0  0
   -7.5610   17.5050  -33.0720 C   0  0  0  0  0  0  0  0  0  0  0  0
   -8.3860   18.1790  -32.1620 C   0  0  0  0  0  0  0  0  0  0  0  0
   -7.9850   19.4080  -31.6270 C   0  0  0  0  0  0  0  0  0  0  0  0
   -6.7560   19.9640  -32.0040 C   0  0  0  0  0  0  0  0  0  0  0  0
   -6.3500   21.1550  -31.4960 N   0  0  0  0  0  0  0  0  0  0  0  0
   -5.1570   21.7110  -31.8420 C   0  0  0  0  0  0  0  0  0  0  0  0
   -4.8130   22.9930  -31.2960 N   0  0  0  0  0  0  0  0  0  0  0  0
   -3.6550   23.0960  -30.3930 C   0  0  0  0  0  0  0  0  0  0  0  0
   -3.5910   24.4500  -29.6880 C   0  0  0  0  0  0  0  0  0  0  0  0
   -3.9830   25.4820  -30.5640 O   0  0  0  0  0  0  0  0  0  0  0  0
   -5.3720   25.3850  -30.7850 C   0  0  0  0  0  0  0  0  0  0  0  0
   -5.7360   24.1090  -31.5570 C   0  0  0  0  0  0  0  0  0  0  0  0
   -1.7040   20.5770  -30.6310 C   0  0  0  0  0  0  0  0  0  0  0  0
   -1.0770   20.1690  -29.4510 C   0  0  0  0  0  0  0  0  0  0  0  0
    0.5973   17.4598  -26.7431 H   0  0  0  0  0  0  0  0  0  0  0  0
   -0.3126   16.9458  -28.2041 H   0  0  0  0  0  0  0  0  0  0  0  0
    1.4832   16.9055  -28.2041 H   0  0  0  0  0  0  0  0  0  0  0  0
    1.1435   17.9256  -30.7582 H   0  0  0  0  0  0  0  0  0  0  0  0
    0.0244   18.6418  -32.8574 H   0  0  0  0  0  0  0  0  0  0  0  0
   -2.7009   22.4045  -32.5693 H   0  0  0  0  0  0  0  0  0  0  0  0
   -3.0823   21.8883  -34.2671 H   0  0  0  0  0  0  0  0  0  0  0  0
   -5.6887   17.5285  -34.1683 H   0  0  0  0  0  0  0  0  0  0  0  0
   -7.8793   16.5381  -33.4888 H   0  0  0  0  0  0  0  0  0  0  0  0
   -9.3511   17.7409  -31.8675 H   0  0  0  0  0  0  0  0  0  0  0  0
   -8.6332   19.9362  -30.9122 H   0  0  0  0  0  0  0  0  0  0  0  0
   -3.7270   22.3040  -29.6330 H   0  0  0  0  0  0  0  0  0  0  0  0
   -2.7436   22.9877  -30.9993 H   0  0  0  0  0  0  0  0  0  0  0  0
   -4.2650   24.4376  -28.8187 H   0  0  0  0  0  0  0  0  0  0  0  0
   -2.5561   24.6332  -29.3632 H   0  0  0  0  0  0  0  0  0  0  0  0
   -5.8877   25.3732  -29.8134 H   0  0  0  0  0  0  0  0  0  0  0  0
   -5.6849   26.2510  -31.3867 H   0  0  0  0  0  0  0  0  0  0  0  0
   -6.7503   23.8001  -31.2642 H   0  0  0  0  0  0  0  0  0  0  0  0
   -5.6705   24.3447  -32.6295 H   0  0  0  0  0  0  0  0  0  0  0  0
   -2.5244   21.3084  -30.5868 H   0  0  0  0  0  0  0  0  0  0  0  0
   -1.3960   20.5930  -28.4874 H   0  0  0  0  0  0  0  0  0  0  0  0
  1  2  1  0
  2  3  1  0
  3  4  2  0
  4  5  1  0
  5  6  2  0
  6  7  1  0
  7  8  2  0
  7  9  1  0
  9 10  1  0
 10 11  2  0
 11 12  1  0
 12 13  2  0
 13 14  1  0
 14 15  2  0
 15 16  1  0
 16 17  2  0
 17 18  1  0
 18 19  2  0
 19 20  1  0
 20 21  1  0
 21 22  1  0
 22 23  1  0
 23 24  1  0
 24 25  1  0
  6 26  1  0
 26 27  2  0
 27  3  1  0
 19 10  1  0
 25 20  1  0
 17 12  1  0
  1 28  1  0
  1 29  1  0
  1 30  1  0
  4 31  1  0
  5 32  1  0
  9 33  1  0
  9 34  1  0
 13 35  1  0
 14 36  1  0
 15 37  1  0
 16 38  1  0
 21 39  1  0
 21 40  1  0
 22 41  1  0
 22 42  1  0
 24 43  1  0
 24 44  1  0
 25 45  1  0
 25 46  1  0
 26 47  1  0
 27 48  1  0
M  END
>  <UniqueID>  (20) 
20

>  <SMILES>  (20) 
COc1ccc(C(=O)Cc2nc3ccccc3nc2N2CCOCC2)cc1

>  <Energy>  (20) 
63.70694986118537

>  <Genealogy>  (20) 
COc1ccc(C(=O)Cc2nc3ccccc3nc2N2CCOCC2)cc1 (3D coordinates assigned)
COc1ccc(C(=O)Cc2nc3ccccc3nc2N2CCOCC2)cc1 (nonaromatic ring conformer: 63.70694986118537 kcal/mol)

>  <smiles>  (20) 
COc1ccc(C(=O)Cc2nc3ccccc3nc2N2CCOCC2)cc1

>  <score_type>  (20) 
oracle

>  <origin>  (20) 
adg

>  <m_score__min__energy>  (20) 
-8.3100000000000005

>  <m_primary>  (20) 
energy

$$$$
20:0
     RDKit          3D

 44 45  0  0  0  0  0  0  0  0999 V2000
   -0.0420   23.2230  -24.7520 C   0  0  0  0  0  0  0  0  0  0  0  0
   -0.4160   23.6180  -26.1740 C   0  0  0  0  0  0  0  0  0  0  0  0
   -1.6350   22.8810  -26.5860 N   0  0  0  0  0  0  0  0  0  0  0  0
   -1.3330   21.6510  -27.3540 C   0  0  0  0  0  0  0  0  0  0  0  0
   -2.5650   20.7750  -27.6270 C   0  0  0  0  0  0  0  0  0  0  0  0
   -2.6460   23.7360  -27.2440 C   0  0  0  0  0  0  0  0  0  0  0  0
   -1.9740   24.8990  -27.9830 C   0  0  0  0  0  0  0  0  0  0  0  0
   -2.4700   24.9900  -29.3560 N   0  0  0  0  0  0  0  0  0  0  0  0
   -3.5570   24.2070  -29.8880 C   0  0  0  0  0  0  0  0  0  0  0  0
   -3.3400   22.9950  -30.5710 C   0  0  0  0  0  0  0  0  0  0  0  0
   -4.4190   22.2630  -31.0770 C   0  0  0  0  0  0  0  0  0  0  0  0
   -5.7360   22.7250  -30.9150 C   0  0  0  0  0  0  0  0  0  0  0  0
   -6.8810   21.9460  -31.4510 C   0  0  0  0  0  0  0  0  0  0  0  0
   -6.6600   20.8020  -32.2420 C   0  0  0  0  0  0  0  0  0  0  0  0
   -7.7400   20.0700  -32.7460 C   0  0  0  0  0  0  0  0  0  0  0  0
   -9.0490   20.4700  -32.4680 C   0  0  0  0  0  0  0  0  0  0  0  0
   -9.2810   21.6030  -31.6850 C   0  0  0  0  0  0  0  0  0  0  0  0
   -8.2060   22.3390  -31.1780 C   0  0  0  0  0  0  0  0  0  0  0  0
   -5.9500   23.9380  -30.2390 C   0  0  0  0  0  0  0  0  0  0  0  0
   -4.8720   24.6700  -29.7340 C   0  0  0  0  0  0  0  0  0  0  0  0
   -0.6179   23.8312  -24.0390 H   0  0  0  0  0  0  0  0  0  0  0  0
   -0.2711   22.1587  -24.5948 H   0  0  0  0  0  0  0  0  0  0  0  0
    1.0332   23.3937  -24.5948 H   0  0  0  0  0  0  0  0  0  0  0  0
   -0.6099   24.7000  -26.2153 H   0  0  0  0  0  0  0  0  0  0  0  0
    0.4116   23.3682  -26.8542 H   0  0  0  0  0  0  0  0  0  0  0  0
   -0.8940   21.9434  -28.3193 H   0  0  0  0  0  0  0  0  0  0  0  0
   -0.6419   21.0520  -26.7427 H   0  0  0  0  0  0  0  0  0  0  0  0
   -3.0093   20.4591  -26.6716 H   0  0  0  0  0  0  0  0  0  0  0  0
   -3.3044   21.3513  -28.2025 H   0  0  0  0  0  0  0  0  0  0  0  0
   -2.2635   19.8873  -28.2025 H   0  0  0  0  0  0  0  0  0  0  0  0
   -3.2162   23.1315  -27.9647 H   0  0  0  0  0  0  0  0  0  0  0  0
   -3.3169   24.1462  -26.4748 H   0  0  0  0  0  0  0  0  0  0  0  0
   -2.1949   25.8387  -27.4555 H   0  0  0  0  0  0  0  0  0  0  0  0
   -0.8883   24.7238  -28.0084 H   0  0  0  0  0  0  0  0  0  0  0  0
   -1.9930   25.6710  -29.9900 H   0  0  0  0  0  0  0  0  0  0  0  0
   -2.3145   22.6212  -30.7076 H   0  0  0  0  0  0  0  0  0  0  0  0
   -4.2348   21.3167  -31.6068 H   0  0  0  0  0  0  0  0  0  0  0  0
   -5.6314   20.4821  -32.4649 H   0  0  0  0  0  0  0  0  0  0  0  0
   -7.5581   19.1774  -33.3626 H   0  0  0  0  0  0  0  0  0  0  0  0
   -9.8969   19.8929  -32.8656 H   0  0  0  0  0  0  0  0  0  0  0  0
  -10.3123   21.9171  -31.4667 H   0  0  0  0  0  0  0  0  0  0  0  0
   -8.3959   23.2304  -30.5621 H   0  0  0  0  0  0  0  0  0  0  0  0
   -6.9749   24.3147  -30.1061 H   0  0  0  0  0  0  0  0  0  0  0  0
   -5.0567   25.6194  -29.2101 H   0  0  0  0  0  0  0  0  0  0  0  0
  1  2  1  0
  2  3  1  0
  3  4  1  0
  4  5  1  0
  3  6  1  0
  6  7  1  0
  7  8  1  0
  8  9  1  0
  9 10  2  0
 10 11  1  0
 11 12  2  0
 12 13  1  0
 13 14  2  0
 14 15  1  0
 15 16  2  0
 16 17  1  0
 17 18  2  0
 12 19  1  0
 19 20  2  0
 20  9  1  0
 18 13  1  0
  1 21  1  0
  1 22  1  0
  1 23  1  0
  2 24  1  0
  2 25  1  0
  4 26  1  0
  4 27  1  0
  5 28  1  0
  5 29  1  0
  5 30  1  0
  6 31  1  0
  6 32  1  0
  7 33  1  0
  7 34  1  0
  8 35  1  0
 10 36  1  0
 11 37  1  0
 14 38  1  0
 15 39  1  0
 16 40  1  0
 17 41  1  0
 18 42  1  0
 19 43  1  0
 20 44  1  0
M  END
>  <UniqueID>  (21) 
21

>  <SMILES>  (21) 
CCN(CC)CCNc1ccc(-c2ccccc2)cc1

>  <Energy>  (21) 
48.2548296946432

>  <Genealogy>  (21) 
CCN(CC)CCNc1ccc(-c2ccccc2)cc1 (3D coordinates assigned)
CCN(CC)CCNc1ccc(-c2ccccc2)cc1 (optimized conformer: 48.2548296946432 kcal/mol)

>  <smiles>  (21) 
CCN(CC)CCNc1ccc(-c2ccccc2)cc1

>  <score_type>  (21) 
oracle

>  <origin>  (21) 
adg

>  <m_score__min__energy>  (21) 
-7.4199999999999999

>  <m_primary>  (21) 
energy

$$$$
21:0
     RDKit          3D

 59 63  0  0  0  0  0  0  0  0999 V2000
   -3.4030   24.1750  -27.5300 C   0  0  0  0  0  0  0  0  0  0  0  0
   -2.1020   24.0960  -28.3290 C   0  0  0  0  0  0  0  0  0  0  0  0
   -2.0290   22.8510  -29.2270 C   0  0  0  0  0  0  0  0  0  0  0  0
   -0.6320   22.6480  -29.8340 C   0  0  0  0  0  0  0  0  0  0  0  0
   -0.1160   21.2390  -29.6710 C   0  0  0  0  0  0  0  0  0  0  0  0
    0.2730   20.7120  -28.4800 N   0  0  0  0  0  0  0  0  0  0  0  0
    0.5150   19.4190  -28.7460 C   0  0  0  0  0  0  0  0  0  0  0  0
    0.9140   18.4230  -27.8590 C   0  0  0  0  0  0  0  0  0  0  0  0
    1.0650   17.1080  -28.3630 C   0  0  0  0  0  0  0  0  0  0  0  0
    1.4660   16.0380  -27.5510 O   0  0  0  0  0  0  0  0  0  0  0  0
    2.6270   16.0480  -26.7270 C   0  0  0  0  0  0  0  0  0  0  0  0
    0.8020   16.8490  -29.7290 C   0  0  0  0  0  0  0  0  0  0  0  0
    0.3930   17.8800  -30.5950 C   0  0  0  0  0  0  0  0  0  0  0  0
    0.2660   19.1650  -30.0650 C   0  0  0  0  0  0  0  0  0  0  0  0
   -0.1330   20.3060  -30.6670 N   0  0  0  0  0  0  0  0  0  0  0  0
   -0.6140   20.4730  -32.0430 C   0  0  0  0  0  0  0  0  0  0  0  0
   -2.0940   20.7470  -32.0470 C   0  0  0  0  0  0  0  0  0  0  0  0
   -2.6890   21.4400  -33.1130 C   0  0  0  0  0  0  0  0  0  0  0  0
   -4.0450   21.7690  -33.0700 C   0  0  0  0  0  0  0  0  0  0  0  0
   -4.8240   21.4110  -31.9590 C   0  0  0  0  0  0  0  0  0  0  0  0
   -6.2480   21.7990  -31.8940 C   0  0  0  0  0  0  0  0  0  0  0  0
   -7.2150   20.8310  -32.2130 C   0  0  0  0  0  0  0  0  0  0  0  0
   -8.5690   21.1640  -32.2490 C   0  0  0  0  0  0  0  0  0  0  0  0
   -8.9750   22.4670  -31.9680 C   0  0  0  0  0  0  0  0  0  0  0  0
   -8.0310   23.4400  -31.6350 C   0  0  0  0  0  0  0  0  0  0  0  0
   -6.6610   23.1220  -31.5760 C   0  0  0  0  0  0  0  0  0  0  0  0
   -5.7070   24.1740  -31.1370 C   0  0  0  0  0  0  0  0  0  0  0  0
   -4.3680   24.0430  -31.1740 N   0  0  0  0  0  0  0  0  0  0  0  0
   -3.9010   25.2050  -30.7490 N   0  0  0  0  0  0  0  0  0  0  0  0
   -4.9080   26.0170  -30.4720 N   0  0  0  0  0  0  0  0  0  0  0  0
   -6.0550   25.4030  -30.7100 N   0  0  0  0  0  0  0  0  0  0  0  0
   -4.2410   20.6840  -30.9110 C   0  0  0  0  0  0  0  0  0  0  0  0
   -2.8830   20.3590  -30.9520 C   0  0  0  0  0  0  0  0  0  0  0  0
   -3.1740   24.1611  -26.4542 H   0  0  0  0  0  0  0  0  0  0  0  0
   -3.9311   25.1069  -27.7805 H   0  0  0  0  0  0  0  0  0  0  0  0
   -4.0400   23.3139  -27.7805 H   0  0  0  0  0  0  0  0  0  0  0  0
   -2.0240   24.9916  -28.9629 H   0  0  0  0  0  0  0  0  0  0  0  0
   -1.2738   24.0330  -27.6078 H   0  0  0  0  0  0  0  0  0  0  0  0
   -2.2849   21.9662  -28.6257 H   0  0  0  0  0  0  0  0  0  0  0  0
   -2.7376   22.9934  -30.0562 H   0  0  0  0  0  0  0  0  0  0  0  0
   -0.6793   22.8817  -30.9078 H   0  0  0  0  0  0  0  0  0  0  0  0
    0.0592   23.3151  -29.2980 H   0  0  0  0  0  0  0  0  0  0  0  0
    0.3350   21.1810  -27.5500 H   0  0  0  0  0  0  0  0  0  0  0  0
    1.1060   18.6501  -26.8000 H   0  0  0  0  0  0  0  0  0  0  0  0
    2.3258   16.0454  -25.6690 H   0  0  0  0  0  0  0  0  0  0  0  0
    3.2338   15.1550  -26.9377 H   0  0  0  0  0  0  0  0  0  0  0  0
    3.2184   16.9513  -26.9377 H   0  0  0  0  0  0  0  0  0  0  0  0
    0.9189   15.8273  -30.1195 H   0  0  0  0  0  0  0  0  0  0  0  0
    0.1802   17.6797  -31.6555 H   0  0  0  0  0  0  0  0  0  0  0  0
   -0.0870   21.3169  -32.5121 H   0  0  0  0  0  0  0  0  0  0  0  0
   -0.4188   19.5484  -32.6060 H   0  0  0  0  0  0  0  0  0  0  0  0
   -2.0839   21.7251  -33.9863 H   0  0  0  0  0  0  0  0  0  0  0  0
   -4.5045   22.3107  -33.9099 H   0  0  0  0  0  0  0  0  0  0  0  0
   -6.9013   19.8006  -32.4365 H   0  0  0  0  0  0  0  0  0  0  0  0
   -9.3170   20.3973  -32.4994 H   0  0  0  0  0  0  0  0  0  0  0  0
  -10.0424   22.7297  -32.0087 H   0  0  0  0  0  0  0  0  0  0  0  0
   -8.3613   24.4662  -31.4164 H   0  0  0  0  0  0  0  0  0  0  0  0
   -4.8548   20.3688  -30.0543 H   0  0  0  0  0  0  0  0  0  0  0  0
   -2.4295   19.7965  -30.1226 H   0  0  0  0  0  0  0  0  0  0  0  0
  1  2  1  0
  2  3  1  0
  3  4  1  0
  4  5  1  0
  5  6  2  0
  6  7  1  0
  7  8  2  0
  8  9  1  0
  9 10  1  0
 10 11  1  0
  9 12  2  0
 12 13  1  0
 13 14  2  0
 14 15  1  0
 15 16  1  0
 16 17  1  0
 17 18  2  0
 18 19  1  0
 19 20  2  0
 20 21  1  0
 21 22  2  0
 22 23  1  0
 23 24  2  0
 24 25  1  0
 25 26  2  0
 26 27  1  0
 27 28  1  0
 28 29  2  0
 29 30  1  0
 30 31  1  0
 20 32  1  0
 32 33  2  0
 15  5  1  0
 33 17  1  0
 14  7  1  0
 26 21  1  0
 31 27  2  0
  1 34  1  0
  1 35  1  0
  1 36  1  0
  2 37  1  0
  2 38  1  0
  3 39  1  0
  3 40  1  0
  4 41  1  0
  4 42  1  0
  6 43  1  0
  8 44  1  0
 11 45  1  0
 11 46  1  0
 11 47  1  0
 12 48  1  0
 13 49  1  0
 16 50  1  0
 16 51  1  0
 18 52  1  0
 19 53  1  0
 22 54  1  0
 23 55  1  0
 24 56  1  0
 25 57  1  0
 32 58  1  0
 33 59  1  0
M  CHG  2   6   1  30  -1
M  END
>  <UniqueID>  (22) 
22

>  <SMILES>  (22) 
CCCCc1[nH+]c2cc(OC)ccc2n1Cc1ccc(-c2ccccc2-c2nn[n-]n2)cc1

>  <Energy>  (22) 
143.236787528859

>  <Genealogy>  (22) 
CCCCc1[nH+]c2cc(OC)ccc2n1Cc1ccc(-c2ccccc2-c2nn[n-]n2)cc1 (protonated)
CCCCc1[nH+]c2cc(OC)ccc2n1Cc1ccc(-c2ccccc2-c2nn[n-]n2)cc1 (3D coordinates assigned)
CCCCc1[nH+]c2cc(OC)ccc2n1Cc1ccc(-c2ccccc2-c2nn[n-]n2)cc1 (optimized conformer: 143.236787528859 kcal/mol)

>  <smiles>  (22) 
CCCCc1nc2cc(OC)ccc2n1Cc1ccc(-c2ccccc2-c2nn[nH]n2)cc1

>  <score_type>  (22) 
oracle

>  <origin>  (22) 
adg

>  <m_score__min__energy>  (22) 
-10.33

>  <m_primary>  (22) 
energy

$$$$
22:0
     RDKit          3D

 32 34  0  0  0  0  0  0  0  0999 V2000
   -0.5020   26.5840  -27.1150 C   0  0  0  0  0  0  0  0  0  0  0  0
    0.2570   25.6390  -27.8600 O   0  0  0  0  0  0  0  0  0  0  0  0
   -0.2030   24.3660  -28.2260 C   0  0  0  0  0  0  0  0  0  0  0  0
    0.5070   23.1900  -27.9230 C   0  0  0  0  0  0  0  0  0  0  0  0
    0.0030   21.9450  -28.3070 C   0  0  0  0  0  0  0  0  0  0  0  0
   -1.2100   21.8590  -28.9940 C   0  0  0  0  0  0  0  0  0  0  0  0
   -1.9320   23.0220  -29.3060 C   0  0  0  0  0  0  0  0  0  0  0  0
   -3.1810   22.9360  -30.0150 N   0  0  0  0  0  0  0  0  0  0  0  0
   -3.9040   23.9610  -30.5210 C   0  0  0  0  0  0  0  0  0  0  0  0
   -3.5280   25.2980  -30.4580 O   0  0  0  0  0  0  0  0  0  0  0  0
   -5.0490   23.4880  -31.1330 C   0  0  0  0  0  0  0  0  0  0  0  0
   -5.0280   22.1240  -31.0020 C   0  0  0  0  0  0  0  0  0  0  0  0
   -3.8740   21.8110  -30.3100 C   0  0  0  0  0  0  0  0  0  0  0  0
   -3.4880   20.5280  -29.9420 O   0  0  0  0  0  0  0  0  0  0  0  0
   -6.0940   21.2140  -31.5210 C   0  0  0  0  0  0  0  0  0  0  0  0
   -7.1930   21.9820  -32.2270 C   0  0  0  0  0  0  0  0  0  0  0  0
   -7.2090   23.3280  -32.3630 C   0  0  0  0  0  0  0  0  0  0  0  0
   -6.1300   24.2490  -31.8300 C   0  0  0  0  0  0  0  0  0  0  0  0
   -1.4190   24.2720  -28.9170 C   0  0  0  0  0  0  0  0  0  0  0  0
   -0.3575   26.4041  -26.0395 H   0  0  0  0  0  0  0  0  0  0  0  0
   -0.1674   27.6017  -27.3648 H   0  0  0  0  0  0  0  0  0  0  0  0
   -1.5679   26.4768  -27.3648 H   0  0  0  0  0  0  0  0  0  0  0  0
    1.4626   23.2510  -27.3817 H   0  0  0  0  0  0  0  0  0  0  0  0
    0.5634   21.0293  -28.0675 H   0  0  0  0  0  0  0  0  0  0  0  0
   -1.6016   20.8752  -29.2921 H   0  0  0  0  0  0  0  0  0  0  0  0
   -5.6427   20.5047  -32.2304 H   0  0  0  0  0  0  0  0  0  0  0  0
   -6.5403   20.6863  -30.6653 H   0  0  0  0  0  0  0  0  0  0  0  0
   -8.0293   21.4100  -32.6553 H   0  0  0  0  0  0  0  0  0  0  0  0
   -8.0586   23.7824  -32.8938 H   0  0  0  0  0  0  0  0  0  0  0  0
   -5.6893   24.8057  -32.6702 H   0  0  0  0  0  0  0  0  0  0  0  0
   -6.5914   24.9333  -31.1028 H   0  0  0  0  0  0  0  0  0  0  0  0
   -1.9789   25.1877  -29.1579 H   0  0  0  0  0  0  0  0  0  0  0  0
  1  2  1  0
  2  3  1  0
  3  4  2  0
  4  5  1  0
  5  6  2  0
  6  7  1  0
  7  8  1  0
  8  9  1  0
  9 10  1  0
  9 11  2  0
 11 12  1  0
 12 13  2  0
 13 14  1  0
 12 15  1  0
 15 16  1  0
 16 17  2  0
 17 18  1  0
  7 19  2  0
 19  3  1  0
 13  8  1  0
 18 11  1  0
  1 20  1  0
  1 21  1  0
  1 22  1  0
  4 23  1  0
  5 24  1  0
  6 25  1  0
 15 26  1  0
 15 27  1  0
 16 28  1  0
 17 29  1  0
 18 30  1  0
 18 31  1  0
 19 32  1  0
M  CHG  2  10  -1  14  -1
M  END
>  <UniqueID>  (23) 
23

>  <SMILES>  (23) 
COc1cccc(-n2c([O-])c3c(c2[O-])CC=CC3)c1

>  <Energy>  (23) 
71.35736618534715

>  <Genealogy>  (23) 
COc1cccc(-n2c([O-])c3c(c2[O-])CC=CC3)c1 (protonated)
COc1cccc(-n2c([O-])c3c(c2[O-])CC=CC3)c1 (3D coordinates assigned)
COc1cccc(-n2c([O-])c3c(c2[O-])CC=CC3)c1 (nonaromatic ring conformer: 71.35736618534715 kcal/mol)

>  <smiles>  (23) 
COc1cccc(-n2c(O)c3c(c2O)CC=CC3)c1

>  <score_type>  (23) 
oracle

>  <origin>  (23) 
adg

>  <m_score__min__energy>  (23) 
-9.1899999999999995

>  <m_primary>  (23) 
energy

$$$$
23:0
     RDKit          3D

 90 94  0  0  0  0  0  0  0  0999 V2000
   -3.6060   23.7180  -31.5750 O   0  0  0  0  0  0  0  0  0  0  0  0
   -3.8030   22.6820  -30.8850 C   0  0  0  0  0  0  0  0  0  0  0  0
   -5.2280   22.2990  -30.5190 C   0  0  1  0  0  0  0  0  0  0  0  0
   -5.7870   23.1660  -29.3580 C   0  0  0  0  0  0  0  0  0  0  0  0
   -4.9380   24.3980  -28.9840 C   0  0  0  0  0  0  0  0  0  0  0  0
   -4.2540   24.2430  -27.6170 C   0  0  0  0  0  0  0  0  0  0  0  0
   -2.7560   24.1300  -27.7400 C   0  0  0  0  0  0  0  0  0  0  0  0
   -2.0880   24.6700  -28.8520 C   0  0  0  0  0  0  0  0  0  0  0  0
   -0.7000   24.5470  -28.9690 C   0  0  0  0  0  0  0  0  0  0  0  0
    0.0290   23.8830  -27.9750 C   0  0  0  0  0  0  0  0  0  0  0  0
   -0.6280   23.3460  -26.8660 C   0  0  0  0  0  0  0  0  0  0  0  0
   -2.0160   23.4650  -26.7490 C   0  0  0  0  0  0  0  0  0  0  0  0
   -6.1720   22.1340  -31.7570 C   0  0  0  0  0  0  0  0  0  0  0  0
   -6.7180   20.7370  -32.0220 C   0  0  0  0  0  0  0  0  0  0  0  0
   -5.8640   19.7060  -32.4970 C   0  0  0  0  0  0  0  0  0  0  0  0
   -4.2210   20.0140  -33.0450 Cl  0  0  0  0  0  0  0  0  0  0  0  0
   -6.3450   18.4020  -32.6340 C   0  0  0  0  0  0  0  0  0  0  0  0
   -7.6720   18.1050  -32.3390 C   0  0  0  0  0  0  0  0  0  0  0  0
   -8.5480   19.1250  -31.9750 C   0  0  0  0  0  0  0  0  0  0  0  0
   -8.0960   20.4390  -31.8380 C   0  0  0  0  0  0  0  0  0  0  0  0
   -9.4350   21.7920  -31.5620 Br  0  0  0  0  0  0  0  0  0  0  0  0
   -2.6650   21.9170  -30.4280 N   0  0  0  0  0  0  0  0  0  0  0  0
   -2.6230   21.3360  -29.0780 C   0  0  0  0  0  0  0  0  0  0  0  0
   -1.8520   19.9940  -29.0660 C   0  0  0  0  0  0  0  0  0  0  0  0
   -0.8630   19.8690  -30.1650 N   0  0  0  0  0  0  0  0  0  0  0  0
    0.0980   18.7030  -30.1330 C   0  0  0  0  0  0  0  0  0  0  0  0
   -0.2480   17.7930  -31.3690 C   0  0  0  0  0  0  0  0  0  0  0  0
   -1.2690   18.4130  -32.2410 N   0  0  0  0  0  0  0  0  0  0  0  0
   -1.1430   18.0240  -33.6510 C   0  0  0  0  0  0  0  0  0  0  0  0
   -0.4570   19.1540  -34.4370 C   0  0  0  0  0  0  0  0  0  0  0  0
   -1.1890   20.4880  -34.3380 C   0  0  0  0  0  0  0  0  0  0  0  0
   -0.1290   21.5620  -34.5490 C   0  0  0  0  0  0  0  0  0  0  0  0
    1.2290   20.8890  -34.3500 C   0  0  0  0  0  0  0  0  0  0  0  0
    0.9510   19.4510  -33.9350 C   0  0  0  0  0  0  0  0  0  0  0  0
    1.6040   19.1520  -30.2510 C   0  0  0  0  0  0  0  0  0  0  0  0
    2.2420   19.6230  -28.9400 C   0  0  0  0  0  0  0  0  0  0  0  0
    2.1060   18.5560  -27.8560 C   0  0  0  0  0  0  0  0  0  0  0  0
    0.6400   18.2410  -27.5760 C   0  0  0  0  0  0  0  0  0  0  0  0
   -0.1130   17.8050  -28.8490 C   0  0  0  0  0  0  0  0  0  0  0  0
   -0.3020   21.1890  -30.5210 C   0  0  0  0  0  0  0  0  0  0  0  0
   -1.4050   22.0220  -31.1820 C   0  0  0  0  0  0  0  0  0  0  0  0
   -5.1910   21.2793  -30.1081 H   0  0  0  0  0  0  0  0  0  0  0  0
   -6.7873   23.5190  -29.6493 H   0  0  0  0  0  0  0  0  0  0  0  0
   -5.7883   22.5178  -28.4693 H   0  0  0  0  0  0  0  0  0  0  0  0
   -4.1640   24.5404  -29.7525 H   0  0  0  0  0  0  0  0  0  0  0  0
   -5.6119   25.2655  -28.9261 H   0  0  0  0  0  0  0  0  0  0  0  0
   -4.4936   25.1211  -26.9993 H   0  0  0  0  0  0  0  0  0  0  0  0
   -4.6261   23.3161  -27.1561 H   0  0  0  0  0  0  0  0  0  0  0  0
   -2.6594   25.1917  -29.6339 H   0  0  0  0  0  0  0  0  0  0  0  0
   -0.1813   24.9715  -29.8412 H   0  0  0  0  0  0  0  0  0  0  0  0
    1.1206   23.7842  -28.0678 H   0  0  0  0  0  0  0  0  0  0  0  0
   -0.0529   22.8289  -26.0838 H   0  0  0  0  0  0  0  0  0  0  0  0
   -2.5308   23.0358  -25.8768 H   0  0  0  0  0  0  0  0  0  0  0  0
   -7.0313   22.8054  -31.6123 H   0  0  0  0  0  0  0  0  0  0  0  0
   -5.5458   22.3691  -32.6303 H   0  0  0  0  0  0  0  0  0  0  0  0
   -5.6701   17.6042  -32.9775 H   0  0  0  0  0  0  0  0  0  0  0  0
   -8.0289   17.0659  -32.3932 H   0  0  0  0  0  0  0  0  0  0  0  0
   -9.6078   18.8927  -31.7934 H   0  0  0  0  0  0  0  0  0  0  0  0
   -2.1227   22.0426  -28.3994 H   0  0  0  0  0  0  0  0  0  0  0  0
   -3.6556   21.1456  -28.7501 H   0  0  0  0  0  0  0  0  0  0  0  0
   -1.3198   19.9069  -28.1073 H   0  0  0  0  0  0  0  0  0  0  0  0
   -2.5937   19.1938  -29.2060 H   0  0  0  0  0  0  0  0  0  0  0  0
    0.6675   17.6268  -31.9558 H   0  0  0  0  0  0  0  0  0  0  0  0
   -0.6539   16.8433  -30.9904 H   0  0  0  0  0  0  0  0  0  0  0  0
   -1.1980   19.4520  -32.1670 H   0  0  0  0  0  0  0  0  0  0  0  0
   -0.5397   17.1072  -33.7256 H   0  0  0  0  0  0  0  0  0  0  0  0
   -2.1431   17.8410  -34.0709 H   0  0  0  0  0  0  0  0  0  0  0  0
   -0.4545   18.7723  -35.4687 H   0  0  0  0  0  0  0  0  0  0  0  0
   -1.9644   20.5577  -35.1151 H   0  0  0  0  0  0  0  0  0  0  0  0
   -1.6918   20.6019  -33.3663 H   0  0  0  0  0  0  0  0  0  0  0  0
   -0.2028   21.9717  -35.5672 H   0  0  0  0  0  0  0  0  0  0  0  0
   -0.2642   22.3937  -33.8419 H   0  0  0  0  0  0  0  0  0  0  0  0
    1.8022   20.9081  -35.2886 H   0  0  0  0  0  0  0  0  0  0  0  0
    1.8207   21.4131  -33.5850 H   0  0  0  0  0  0  0  0  0  0  0  0
    1.6779   18.7683  -34.3994 H   0  0  0  0  0  0  0  0  0  0  0  0
    1.0365   19.3138  -32.8469 H   0  0  0  0  0  0  0  0  0  0  0  0
    2.1866   18.2980  -30.6269 H   0  0  0  0  0  0  0  0  0  0  0  0
    1.6150   20.0189  -30.9280 H   0  0  0  0  0  0  0  0  0  0  0  0
    3.3089   19.8286  -29.1117 H   0  0  0  0  0  0  0  0  0  0  0  0
    1.7254   20.5342  -28.6042 H   0  0  0  0  0  0  0  0  0  0  0  0
    2.6132   17.6386  -28.1893 H   0  0  0  0  0  0  0  0  0  0  0  0
    2.5641   18.9371  -26.9314 H   0  0  0  0  0  0  0  0  0  0  0  0
    0.5868   17.4283  -26.8366 H   0  0  0  0  0  0  0  0  0  0  0  0
    0.1630   19.1570  -27.1973 H   0  0  0  0  0  0  0  0  0  0  0  0
    0.2128   16.7841  -29.0974 H   0  0  0  0  0  0  0  0  0  0  0  0
   -1.1811   17.8950  -28.6019 H   0  0  0  0  0  0  0  0  0  0  0  0
    0.0543   21.6981  -29.6133 H   0  0  0  0  0  0  0  0  0  0  0  0
    0.5439   21.0655  -31.2132 H   0  0  0  0  0  0  0  0  0  0  0  0
   -1.0908   23.0757  -31.2135 H   0  0  0  0  0  0  0  0  0  0  0  0
   -1.5716   21.6404  -32.2002 H   0  0  0  0  0  0  0  0  0  0  0  0
  1  2  2  0
  2  3  1  0
  3  4  1  0
  4  5  1  0
  5  6  1  0
  6  7  1  0
  7  8  2  0
  8  9  1  0
  9 10  2  0
 10 11  1  0
 11 12  2  0
  3 13  1  0
 13 14  1  0
 14 15  2  0
 15 16  1  0
 15 17  1  0
 17 18  2  0
 18 19  1  0
 19 20  2  0
 20 21  1  0
  2 22  1  0
 22 23  1  0
 23 24  1  0
 24 25  1  0
 25 26  1  0
 26 27  1  0
 27 28  1  0
 28 29  1  0
 29 30  1  0
 30 31  1  0
 31 32  1  0
 32 33  1  0
 33 34  1  0
 26 35  1  0
 35 36  1  0
 36 37  1  0
 37 38  1  0
 38 39  1  0
 25 40  1  0
 40 41  1  0
 12  7  1  0
 20 14  1  0
 41 22  1  0
 39 26  1  0
 34 30  1  0
  3 42  1  1
  4 43  1  0
  4 44  1  0
  5 45  1  0
  5 46  1  0
  6 47  1  0
  6 48  1  0
  8 49  1  0
  9 50  1  0
 10 51  1  0
 11 52  1  0
 12 53  1  0
 13 54  1  0
 13 55  1  0
 17 56  1  0
 18 57  1  0
 19 58  1  0
 23 59  1  0
 23 60  1  0
 24 61  1  0
 24 62  1  0
 27 63  1  0
 27 64  1  0
 28 65  1  0
 29 66  1  0
 29 67  1  0
 30 68  1  0
 31 69  1  0
 31 70  1  0
 32 71  1  0
 32 72  1  0
 33 73  1  0
 33 74  1  0
 34 75  1  0
 34 76  1  0
 35 77  1  0
 35 78  1  0
 36 79  1  0
 36 80  1  0
 37 81  1  0
 37 82  1  0
 38 83  1  0
 38 84  1  0
 39 85  1  0
 39 86  1  0
 40 87  1  0
 40 88  1  0
 41 89  1  0
 41 90  1  0
M  END
>  <UniqueID>  (24) 
24

>  <SMILES>  (24) 
O=C([C@@H](CCCc1ccccc1)Cc1c(Cl)cccc1Br)N1CCN(C2(CNCC3CCCC3)CCCCC2)CC1

>  <Energy>  (24) 
120.26468580521797

>  <Genealogy>  (24) 
O=C([C@@H](CCCc1ccccc1)Cc1c(Cl)cccc1Br)N1CCN(C2(CNCC3CCCC3)CCCCC2)CC1 (chirality)
O=C([C@@H](CCCc1ccccc1)Cc1c(Cl)cccc1Br)N1CCN(C2(CNCC3CCCC3)CCCCC2)CC1 (3D coordinates assigned)
O=C([C@@H](CCCc1ccccc1)Cc1c(Cl)cccc1Br)N1CCN(C2(CNCC3CCCC3)CCCCC2)CC1 (nonaromatic ring conformer: 120.26468580521797 kcal/mol)

>  <smiles>  (24) 
O=C(C(CCCc1ccccc1)Cc1c(Cl)cccc1Br)N1CCN(C2(CNCC3CCCC3)CCCCC2)CC1

>  <score_type>  (24) 
oracle

>  <origin>  (24) 
adg

>  <m_score__min__energy>  (24) 
-11.56

>  <m_primary>  (24) 
energy

$$$$
24:0
     RDKit          3D

 46 49  0  0  0  0  0  0  0  0999 V2000
   -8.8460   18.5030  -32.1460 F   0  0  0  0  0  0  0  0  0  0  0  0
   -8.3940   19.7820  -32.1550 C   0  0  0  0  0  0  0  0  0  0  0  0
   -9.2150   20.8000  -31.6570 C   0  0  0  0  0  0  0  0  0  0  0  0
   -8.7810   22.1280  -31.6830 C   0  0  0  0  0  0  0  0  0  0  0  0
   -7.5260   22.4430  -32.2090 C   0  0  0  0  0  0  0  0  0  0  0  0
   -6.7010   21.4300  -32.7100 C   0  0  0  0  0  0  0  0  0  0  0  0
   -7.1270   20.0920  -32.6860 C   0  0  0  0  0  0  0  0  0  0  0  0
   -6.2710   19.0570  -33.1980 N   0  0  0  0  0  0  0  0  0  0  0  0
   -5.7350   18.0250  -32.3060 C   0  0  0  0  0  0  0  0  0  0  0  0
   -4.2600   17.7110  -32.6340 C   0  0  0  0  0  0  0  0  0  0  0  0
   -3.8770   17.9480  -34.0570 N   0  0  0  0  0  0  0  0  0  0  0  0
   -3.1580   19.2370  -34.2350 C   0  0  0  0  0  0  0  0  0  0  0  0
   -3.0350   19.9900  -32.9400 C   0  0  0  0  0  0  0  0  0  0  0  0
   -2.1370   19.7290  -31.9310 C   0  0  0  0  0  0  0  0  0  0  0  0
   -2.3720   20.5850  -30.9690 O   0  0  0  0  0  0  0  0  0  0  0  0
   -3.3730   21.3460  -31.3560 C   0  0  0  0  0  0  0  0  0  0  0  0
   -3.9370   22.4380  -30.5370 C   0  0  0  0  0  0  0  0  0  0  0  0
   -3.7530   22.4570  -29.1420 C   0  0  0  0  0  0  0  0  0  0  0  0
   -4.2900   23.4950  -28.3740 C   0  0  0  0  0  0  0  0  0  0  0  0
   -5.0120   24.5210  -28.9890 C   0  0  0  0  0  0  0  0  0  0  0  0
   -5.2000   24.5100  -30.3730 C   0  0  0  0  0  0  0  0  0  0  0  0
   -4.6650   23.4740  -31.1460 C   0  0  0  0  0  0  0  0  0  0  0  0
   -3.8310   21.0160  -32.5840 N   0  0  0  0  0  0  0  0  0  0  0  0
   -5.0380   17.8520  -34.9690 C   0  0  0  0  0  0  0  0  0  0  0  0
   -6.1000   18.9140  -34.6480 C   0  0  0  0  0  0  0  0  0  0  0  0
  -10.2045   20.5542  -31.2440 H   0  0  0  0  0  0  0  0  0  0  0  0
   -9.4280   22.9256  -31.2891 H   0  0  0  0  0  0  0  0  0  0  0  0
   -7.1858   23.4889  -32.2294 H   0  0  0  0  0  0  0  0  0  0  0  0
   -5.7140   21.6828  -33.1246 H   0  0  0  0  0  0  0  0  0  0  0  0
   -5.8034   18.3789  -31.2667 H   0  0  0  0  0  0  0  0  0  0  0  0
   -6.3244   17.1066  -32.4441 H   0  0  0  0  0  0  0  0  0  0  0  0
   -3.6245   18.3441  -31.9974 H   0  0  0  0  0  0  0  0  0  0  0  0
   -4.1209   16.6358  -32.4481 H   0  0  0  0  0  0  0  0  0  0  0  0
   -3.2240   17.1780  -34.3430 H   0  0  0  0  0  0  0  0  0  0  0  0
   -2.1501   19.0318  -34.6249 H   0  0  0  0  0  0  0  0  0  0  0  0
   -3.7347   19.8564  -34.9377 H   0  0  0  0  0  0  0  0  0  0  0  0
   -1.3645   18.9459  -31.9324 H   0  0  0  0  0  0  0  0  0  0  0  0
   -3.1844   21.6520  -28.6536 H   0  0  0  0  0  0  0  0  0  0  0  0
   -4.1437   23.5037  -27.2838 H   0  0  0  0  0  0  0  0  0  0  0  0
   -5.4323   25.3373  -28.3833 H   0  0  0  0  0  0  0  0  0  0  0  0
   -5.7698   25.3175  -30.8560 H   0  0  0  0  0  0  0  0  0  0  0  0
   -4.8150   23.4704  -32.2357 H   0  0  0  0  0  0  0  0  0  0  0  0
   -4.6919   17.9948  -36.0033 H   0  0  0  0  0  0  0  0  0  0  0  0
   -5.4947   16.8596  -34.8404 H   0  0  0  0  0  0  0  0  0  0  0  0
   -5.7844   19.8791  -35.0710 H   0  0  0  0  0  0  0  0  0  0  0  0
   -7.0581   18.5989  -35.0870 H   0  0  0  0  0  0  0  0  0  0  0  0
  1  2  1  0
  2  3  2  0
  3  4  1  0
  4  5  2  0
  5  6  1  0
  6  7  2  0
  7  8  1  0
  8  9  1  0
  9 10  1  0
 10 11  1  0
 11 12  1  0
 12 13  1  0
 13 14  2  0
 14 15  1  0
 15 16  1  0
 16 17  1  0
 17 18  2  0
 18 19  1  0
 19 20  2  0
 20 21  1  0
 21 22  2  0
 16 23  2  0
 11 24  1  0
 24 25  1  0
  7  2  1  0
 25  8  1  0
 23 13  1  0
 22 17  1  0
  3 26  1  0
  4 27  1  0
  5 28  1  0
  6 29  1  0
  9 30  1  0
  9 31  1  0
 10 32  1  0
 10 33  1  0
 11 34  1  0
 12 35  1  0
 12 36  1  0
 14 37  1  0
 18 38  1  0
 19 39  1  0
 20 40  1  0
 21 41  1  0
 22 42  1  0
 24 43  1  0
 24 44  1  0
 25 45  1  0
 25 46  1  0
M  CHG  1  11   1
M  END
>  <UniqueID>  (25) 
25

>  <SMILES>  (25) 
Fc1ccccc1N1CC[NH+](Cc2coc(-c3ccccc3)n2)CC1

>  <Energy>  (25) 
92.19928379616495

>  <Genealogy>  (25) 
Fc1ccccc1N1CC[NH+](Cc2coc(-c3ccccc3)n2)CC1 (protonated)
Fc1ccccc1N1CC[NH+](Cc2coc(-c3ccccc3)n2)CC1 (3D coordinates assigned)
Fc1ccccc1N1CC[NH+](Cc2coc(-c3ccccc3)n2)CC1 (nonaromatic ring conformer: 92.19928379616495 kcal/mol)

>  <smiles>  (25) 
Fc1ccccc1N1CCN(Cc2coc(-c3ccccc3)n2)CC1

>  <score_type>  (25) 
oracle

>  <origin>  (25) 
adg

>  <m_score__min__energy>  (25) 
-7.6399999999999997

>  <m_primary>  (25) 
energy

$$$$
25:0
     RDKit          3D

 47 49  0  0  0  0  0  0  0  0999 V2000
   -3.1260   20.2490  -33.8440 C   0  0  0  0  0  0  0  0  0  0  0  0
   -3.2410   21.2850  -32.7640 C   0  0  0  0  0  0  0  0  0  0  0  0
   -2.2120   21.4440  -31.8410 C   0  0  0  0  0  0  0  0  0  0  0  0
   -2.3240   22.3720  -30.7970 C   0  0  0  0  0  0  0  0  0  0  0  0
   -1.1280   22.5170  -29.8870 C   0  0  0  0  0  0  0  0  0  0  0  0
   -3.5310   23.1260  -30.6580 C   0  0  0  0  0  0  0  0  0  0  0  0
   -3.7890   24.0340  -29.5860 C   0  0  0  0  0  0  0  0  0  0  0  0
   -2.8890   24.2080  -28.4810 N   0  0  0  0  0  0  0  0  0  0  0  0
   -3.3640   23.8470  -27.1460 C   0  0  0  0  0  0  0  0  0  0  0  0
   -1.8470   25.2300  -28.5880 C   0  0  0  0  0  0  0  0  0  0  0  0
   -4.9920   24.7480  -29.5470 C   0  0  0  0  0  0  0  0  0  0  0  0
   -5.9510   24.5890  -30.5350 C   0  0  0  0  0  0  0  0  0  0  0  0
   -5.7410   23.7010  -31.5880 C   0  0  0  0  0  0  0  0  0  0  0  0
   -6.7570   23.5640  -32.5940 N   0  0  0  0  0  0  0  0  0  0  0  0
   -8.0660   22.9930  -32.2860 C   0  0  0  0  0  0  0  0  0  0  0  0
   -7.9610   21.4960  -32.1910 C   0  0  0  0  0  0  0  0  0  0  0  0
   -8.7800   20.7890  -31.2950 C   0  0  0  0  0  0  0  0  0  0  0  0
   -8.7360   19.3920  -31.2530 C   0  0  0  0  0  0  0  0  0  0  0  0
   -7.8800   18.6930  -32.1100 C   0  0  0  0  0  0  0  0  0  0  0  0
   -7.0730   19.3890  -33.0140 C   0  0  0  0  0  0  0  0  0  0  0  0
   -7.1150   20.7860  -33.0600 C   0  0  0  0  0  0  0  0  0  0  0  0
   -4.5440   22.9500  -31.6540 C   0  0  0  0  0  0  0  0  0  0  0  0
   -4.3730   22.0270  -32.6490 N   0  0  0  0  0  0  0  0  0  0  0  0
   -3.0156   19.2543  -33.3876 H   0  0  0  0  0  0  0  0  0  0  0  0
   -4.0317   20.2677  -34.4679 H   0  0  0  0  0  0  0  0  0  0  0  0
   -2.2464   20.4658  -34.4679 H   0  0  0  0  0  0  0  0  0  0  0  0
   -1.3007   20.8346  -31.9318 H   0  0  0  0  0  0  0  0  0  0  0  0
   -1.4581   22.4770  -28.8385 H   0  0  0  0  0  0  0  0  0  0  0  0
   -0.4192   21.6982  -30.0798 H   0  0  0  0  0  0  0  0  0  0  0  0
   -0.6354   23.4814  -30.0798 H   0  0  0  0  0  0  0  0  0  0  0  0
   -2.7293   24.3294  -26.3881 H   0  0  0  0  0  0  0  0  0  0  0  0
   -4.4035   24.1851  -27.0228 H   0  0  0  0  0  0  0  0  0  0  0  0
   -3.3166   22.7549  -27.0228 H   0  0  0  0  0  0  0  0  0  0  0  0
   -1.5318   25.5392  -27.5805 H   0  0  0  0  0  0  0  0  0  0  0  0
   -0.9841   24.8183  -29.1320 H   0  0  0  0  0  0  0  0  0  0  0  0
   -2.2419   26.1007  -29.1320 H   0  0  0  0  0  0  0  0  0  0  0  0
   -5.1796   25.4469  -28.7186 H   0  0  0  0  0  0  0  0  0  0  0  0
   -6.8849   25.1682  -30.4874 H   0  0  0  0  0  0  0  0  0  0  0  0
   -6.5120   23.7440  -33.5940 H   0  0  0  0  0  0  0  0  0  0  0  0
   -8.4230   23.3954  -31.3265 H   0  0  0  0  0  0  0  0  0  0  0  0
   -8.7737   23.2567  -33.0857 H   0  0  0  0  0  0  0  0  0  0  0  0
   -9.4584   21.3363  -30.6240 H   0  0  0  0  0  0  0  0  0  0  0  0
   -9.3748   18.8427  -30.5457 H   0  0  0  0  0  0  0  0  0  0  0  0
   -7.8419   17.5943  -32.0725 H   0  0  0  0  0  0  0  0  0  0  0  0
   -6.4037   18.8371  -33.6904 H   0  0  0  0  0  0  0  0  0  0  0  0
   -6.4843   21.3305  -33.7781 H   0  0  0  0  0  0  0  0  0  0  0  0
   -5.1320   21.8540  -33.3450 H   0  0  0  0  0  0  0  0  0  0  0  0
  1  2  1  0
  2  3  2  0
  3  4  1  0
  4  5  1  0
  4  6  2  0
  6  7  1  0
  7  8  1  0
  8  9  1  0
  8 10  1  0
  7 11  2  0
 11 12  1  0
 12 13  2  0
 13 14  1  0
 14 15  1  0
 15 16  1  0
 16 17  2  0
 17 18  1  0
 18 19  2  0
 19 20  1  0
 20 21  2  0
 13 22  1  0
 22 23  2  0
 23  2  1  0
 22  6  1  0
 21 16  1  0
  1 24  1  0
  1 25  1  0
  1 26  1  0
  3 27  1  0
  5 28  1  0
  5 29  1  0
  5 30  1  0
  9 31  1  0
  9 32  1  0
  9 33  1  0
 10 34  1  0
 10 35  1  0
 10 36  1  0
 11 37  1  0
 12 38  1  0
 14 39  1  0
 15 40  1  0
 15 41  1  0
 17 42  1  0
 18 43  1  0
 19 44  1  0
 20 45  1  0
 21 46  1  0
 23 47  1  0
M  CHG  1  23   1
M  END
>  <UniqueID>  (26) 
26

>  <SMILES>  (26) 
Cc1cc(C)c2c(N(C)C)ccc(NCc3ccccc3)c2[nH+]1

>  <Energy>  (26) 
64.81189640187094

>  <Genealogy>  (26) 
Cc1cc(C)c2c(N(C)C)ccc(NCc3ccccc3)c2[nH+]1 (protonated)
Cc1cc(C)c2c(N(C)C)ccc(NCc3ccccc3)c2[nH+]1 (3D coordinates assigned)
Cc1cc(C)c2c(N(C)C)ccc(NCc3ccccc3)c2[nH+]1 (optimized conformer: 64.81189640187094 kcal/mol)

>  <smiles>  (26) 
Cc1cc(C)c2c(N(C)C)ccc(NCc3ccccc3)c2n1

>  <score_type>  (26) 
oracle

>  <origin>  (26) 
adg

>  <m_score__min__energy>  (26) 
-7.5899999999999999

>  <m_primary>  (26) 
energy

$$$$
26:0
     RDKit          3D

 41 43  0  0  0  0  0  0  0  0999 V2000
   -0.9120   20.4840  -32.1650 C   0  0  0  0  0  0  0  0  0  0  0  0
   -1.1330   21.1060  -33.5430 C   0  0  0  0  0  0  0  0  0  0  0  0
   -2.5680   21.2000  -33.8560 N   0  0  0  0  0  0  0  0  0  0  0  0
   -3.3890   20.5150  -32.8330 C   0  0  0  0  0  0  0  0  0  0  0  0
   -4.6170   21.3180  -32.2810 C   0  0  0  0  0  0  0  0  0  0  0  0
   -5.9230   20.5340  -32.1210 C   0  0  0  0  0  0  0  0  0  0  0  0
   -5.9790   19.2270  -31.5920 C   0  0  0  0  0  0  0  0  0  0  0  0
   -7.1890   18.5350  -31.5160 C   0  0  0  0  0  0  0  0  0  0  0  0
   -8.3730   19.1480  -31.9090 C   0  0  0  0  0  0  0  0  0  0  0  0
   -8.3580   20.4770  -32.3250 C   0  0  0  0  0  0  0  0  0  0  0  0
   -7.1470   21.1850  -32.4070 C   0  0  0  0  0  0  0  0  0  0  0  0
   -7.1860   22.6800  -32.5910 C   0  0  0  0  0  0  0  0  0  0  0  0
   -6.8250   23.3740  -31.2740 C   0  0  0  0  0  0  0  0  0  0  0  0
   -5.4050   23.2400  -30.7160 C   0  0  0  0  0  0  0  0  0  0  0  0
   -5.1220   24.1210  -29.6520 C   0  0  0  0  0  0  0  0  0  0  0  0
   -3.8800   24.1300  -29.0270 C   0  0  0  0  0  0  0  0  0  0  0  0
   -2.8860   23.2640  -29.4520 C   0  0  0  0  0  0  0  0  0  0  0  0
   -3.1310   22.3700  -30.4910 C   0  0  0  0  0  0  0  0  0  0  0  0
   -4.3950   22.2970  -31.1230 C   0  0  0  0  0  0  0  0  0  0  0  0
   -1.1721   21.2161  -31.3863 H   0  0  0  0  0  0  0  0  0  0  0  0
   -1.5487   19.5934  -32.0583 H   0  0  0  0  0  0  0  0  0  0  0  0
    0.1439   20.1948  -32.0583 H   0  0  0  0  0  0  0  0  0  0  0  0
   -0.6952   22.1150  -33.5565 H   0  0  0  0  0  0  0  0  0  0  0  0
   -0.6513   20.4664  -34.2972 H   0  0  0  0  0  0  0  0  0  0  0  0
   -2.7430   20.8100  -34.8100 H   0  0  0  0  0  0  0  0  0  0  0  0
   -2.8100   22.2180  -33.8450 H   0  0  0  0  0  0  0  0  0  0  0  0
   -3.7692   19.5829  -33.2765 H   0  0  0  0  0  0  0  0  0  0  0  0
   -2.7222   20.3666  -31.9708 H   0  0  0  0  0  0  0  0  0  0  0  0
   -4.7464   21.9782  -33.1513 H   0  0  0  0  0  0  0  0  0  0  0  0
   -5.0562   18.7467  -31.2345 H   0  0  0  0  0  0  0  0  0  0  0  0
   -7.2055   17.5001  -31.1435 H   0  0  0  0  0  0  0  0  0  0  0  0
   -9.3182   18.5856  -31.8915 H   0  0  0  0  0  0  0  0  0  0  0  0
   -9.3013   20.9762  -32.5914 H   0  0  0  0  0  0  0  0  0  0  0  0
   -6.4634   22.9714  -33.3675 H   0  0  0  0  0  0  0  0  0  0  0  0
   -8.1989   22.9824  -32.8954 H   0  0  0  0  0  0  0  0  0  0  0  0
   -7.0128   24.4484  -31.4165 H   0  0  0  0  0  0  0  0  0  0  0  0
   -7.4456   22.8542  -30.5292 H   0  0  0  0  0  0  0  0  0  0  0  0
   -5.9016   24.8170  -29.3086 H   0  0  0  0  0  0  0  0  0  0  0  0
   -3.6870   24.8242  -28.1958 H   0  0  0  0  0  0  0  0  0  0  0  0
   -1.8990   23.2826  -28.9667 H   0  0  0  0  0  0  0  0  0  0  0  0
   -2.3227   21.7046  -30.8286 H   0  0  0  0  0  0  0  0  0  0  0  0
  1  2  1  0
  2  3  1  0
  3  4  1  0
  4  5  1  0
  5  6  1  0
  6  7  2  0
  7  8  1  0
  8  9  2  0
  9 10  1  0
 10 11  2  0
 11 12  1  0
 12 13  1  0
 13 14  1  0
 14 15  2  0
 15 16  1  0
 16 17  2  0
 17 18  1  0
 18 19  2  0
 19  5  1  0
 11  6  1  0
 19 14  1  0
  1 20  1  0
  1 21  1  0
  1 22  1  0
  2 23  1  0
  2 24  1  0
  3 25  1  0
  3 26  1  0
  4 27  1  0
  4 28  1  0
  5 29  1  0
  7 30  1  0
  8 31  1  0
  9 32  1  0
 10 33  1  0
 12 34  1  0
 12 35  1  0
 13 36  1  0
 13 37  1  0
 15 38  1  0
 16 39  1  0
 17 40  1  0
 18 41  1  0
M  CHG  1   3   1
M  END
>  <UniqueID>  (27) 
27

>  <SMILES>  (27) 
CC[NH2+]CC1c2ccccc2CCc2ccccc21

>  <Energy>  (27) 
70.67631629147363

>  <Genealogy>  (27) 
CC[NH2+]CC1c2ccccc2CCc2ccccc21 (protonated)
CC[NH2+]CC1c2ccccc2CCc2ccccc21 (3D coordinates assigned)
CC[NH2+]CC1c2ccccc2CCc2ccccc21 (nonaromatic ring conformer: 70.67631629147363 kcal/mol)

>  <smiles>  (27) 
CCNCC1c2ccccc2CCc2ccccc21

>  <score_type>  (27) 
oracle

>  <origin>  (27) 
adg

>  <m_score__min__energy>  (27) 
-5.75

>  <m_primary>  (27) 
energy

$$$$
27:0
     RDKit          3D

 56 58  0  0  0  0  0  0  0  0999 V2000
   -0.4870   22.3570  -24.6890 C   0  0  0  0  0  0  0  0  0  0  0  0
    0.4460   23.5430  -24.7970 C   0  0  0  0  0  0  0  0  0  0  0  0
   -0.2130   24.7290  -25.3160 N   0  0  0  0  0  0  0  0  0  0  0  0
    0.1710   26.0270  -24.7820 C   0  0  0  0  0  0  0  0  0  0  0  0
   -0.8350   26.4780  -23.7380 C   0  0  0  0  0  0  0  0  0  0  0  0
   -1.2260   24.6660  -26.3270 C   0  0  0  0  0  0  0  0  0  0  0  0
   -0.7570   24.5180  -27.6290 C   0  0  0  0  0  0  0  0  0  0  0  0
   -1.6300   24.4520  -28.7110 C   0  0  0  0  0  0  0  0  0  0  0  0
   -2.9800   24.5430  -28.3940 C   0  0  0  0  0  0  0  0  0  0  0  0
   -3.9380   24.4780  -29.4910 C   0  0  0  0  0  0  0  0  0  0  0  0
   -4.6770   23.4020  -29.9100 C   0  0  0  0  0  0  0  0  0  0  0  0
   -5.4570   23.7860  -30.9820 C   0  0  0  0  0  0  0  0  0  0  0  0
   -6.3650   22.9070  -31.6740 C   0  0  0  0  0  0  0  0  0  0  0  0
   -7.3510   23.3580  -32.3080 O   0  0  0  0  0  0  0  0  0  0  0  0
   -6.1980   21.4800  -31.6800 N   0  0  0  0  0  0  0  0  0  0  0  0
   -7.1870   20.7180  -32.4180 C   0  0  0  0  0  0  0  0  0  0  0  0
   -6.7300   19.3590  -32.7650 C   0  0  0  0  0  0  0  0  0  0  0  0
   -5.4780   19.0620  -33.2570 C   0  0  0  0  0  0  0  0  0  0  0  0
   -4.5080   20.1520  -33.4700 C   0  0  0  0  0  0  0  0  0  0  0  0
   -5.1820   17.7230  -33.5400 C   0  0  0  0  0  0  0  0  0  0  0  0
   -6.0990   16.7150  -33.3390 C   0  0  0  0  0  0  0  0  0  0  0  0
   -5.7900   15.4790  -33.6130 N   0  0  0  0  0  0  0  0  0  0  0  0
   -7.3120   17.0390  -32.8570 N   0  0  0  0  0  0  0  0  0  0  0  0
   -7.6410   18.3170  -32.5710 C   0  0  0  0  0  0  0  0  0  0  0  0
   -9.0120   18.6320  -32.0330 C   0  0  0  0  0  0  0  0  0  0  0  0
   -5.1810   25.0790  -31.1950 N   0  0  0  0  0  0  0  0  0  0  0  0
   -4.2870   25.5010  -30.3260 N   0  0  0  0  0  0  0  0  0  0  0  0
   -3.4180   24.6880  -27.0960 C   0  0  0  0  0  0  0  0  0  0  0  0
   -2.5220   24.7480  -26.0660 N   0  0  0  0  0  0  0  0  0  0  0  0
   -0.6673   22.1277  -23.6284 H   0  0  0  0  0  0  0  0  0  0  0  0
   -1.4419   22.5958  -25.1800 H   0  0  0  0  0  0  0  0  0  0  0  0
   -0.0301   21.4851  -25.1800 H   0  0  0  0  0  0  0  0  0  0  0  0
    0.8434   23.7704  -23.7968 H   0  0  0  0  0  0  0  0  0  0  0  0
    1.2468   23.2728  -25.5010 H   0  0  0  0  0  0  0  0  0  0  0  0
    1.1662   25.9506  -24.3196 H   0  0  0  0  0  0  0  0  0  0  0  0
    0.1950   26.7612  -25.6008 H   0  0  0  0  0  0  0  0  0  0  0  0
   -0.4272   26.2952  -22.7329 H   0  0  0  0  0  0  0  0  0  0  0  0
   -1.0359   27.5523  -23.8624 H   0  0  0  0  0  0  0  0  0  0  0  0
   -1.7707   25.9132  -23.8624 H   0  0  0  0  0  0  0  0  0  0  0  0
    0.3265   24.4518  -27.8067 H   0  0  0  0  0  0  0  0  0  0  0  0
   -1.2757   24.3358  -29.7459 H   0  0  0  0  0  0  0  0  0  0  0  0
   -4.6523   22.3966  -29.4645 H   0  0  0  0  0  0  0  0  0  0  0  0
   -5.4040   21.0310  -31.1750 H   0  0  0  0  0  0  0  0  0  0  0  0
   -8.0955   20.6355  -31.8033 H   0  0  0  0  0  0  0  0  0  0  0  0
   -7.3749   21.2516  -33.3614 H   0  0  0  0  0  0  0  0  0  0  0  0
   -4.1672   20.5349  -32.4968 H   0  0  0  0  0  0  0  0  0  0  0  0
   -3.6457   19.7700  -34.0361 H   0  0  0  0  0  0  0  0  0  0  0  0
   -4.9875   20.9642  -34.0361 H   0  0  0  0  0  0  0  0  0  0  0  0
   -4.1873   17.4684  -33.9347 H   0  0  0  0  0  0  0  0  0  0  0  0
   -5.0000   15.0130  -33.0920 H   0  0  0  0  0  0  0  0  0  0  0  0
   -8.0520   16.3250  -32.6830 H   0  0  0  0  0  0  0  0  0  0  0  0
   -8.9847   18.6257  -30.9334 H   0  0  0  0  0  0  0  0  0  0  0  0
   -9.3252   19.6255  -32.3864 H   0  0  0  0  0  0  0  0  0  0  0  0
   -9.7274   17.8748  -32.3864 H   0  0  0  0  0  0  0  0  0  0  0  0
   -3.8700   26.4350  -30.2270 H   0  0  0  0  0  0  0  0  0  0  0  0
   -4.4959   24.7559  -26.8873 H   0  0  0  0  0  0  0  0  0  0  0  0
  1  2  1  0
  2  3  1  0
  3  4  1  0
  4  5  1  0
  3  6  1  0
  6  7  2  0
  7  8  1  0
  8  9  2  0
  9 10  1  0
 10 11  2  0
 11 12  1  0
 12 13  1  0
 13 14  2  0
 13 15  1  0
 15 16  1  0
 16 17  1  0
 17 18  1  0
 18 19  1  0
 18 20  2  0
 20 21  1  0
 21 22  2  3
 21 23  1  0
 23 24  1  0
 24 25  1  0
 12 26  2  0
 26 27  1  0
  9 28  1  0
 28 29  2  0
 29  6  1  0
 27 10  1  0
 24 17  2  0
  1 30  1  0
  1 31  1  0
  1 32  1  0
  2 33  1  0
  2 34  1  0
  4 35  1  0
  4 36  1  0
  5 37  1  0
  5 38  1  0
  5 39  1  0
  7 40  1  0
  8 41  1  0
 11 42  1  0
 15 43  1  0
 16 44  1  0
 16 45  1  0
 19 46  1  0
 19 47  1  0
 19 48  1  0
 20 49  1  0
 22 50  1  0
 23 51  1  0
 25 52  1  0
 25 53  1  0
 25 54  1  0
 27 55  1  0
 28 56  1  0
M  END
>  <smiles>  (28) 
CCN(CC)c1ccc(-c2cc(C(=O)NCc3c(C)cc(=N)[nH]c3C)n[nH]2)cn1

>  <score_type>  (28) 
oracle

>  <origin>  (28) 
adg

>  <m_score__min__energy>  (28) 
-9.0600000000000005

>  <m_primary>  (28) 
energy

$$$$
28:0
     RDKit          3D

 40 42  0  0  0  0  0  0  0  0999 V2000
   -5.5300   16.0230  -33.4210 C   0  0  0  0  0  0  0  0  0  0  0  0
   -6.8360   16.6250  -33.9250 C   0  0  0  0  0  0  0  0  0  0  0  0
   -7.0960   17.8970  -33.2580 N   0  0  0  0  0  0  0  0  0  0  0  0
   -6.1970   18.8730  -33.0410 C   0  0  0  0  0  0  0  0  0  0  0  0
   -6.8200   19.8840  -32.3300 C   0  0  0  0  0  0  0  0  0  0  0  0
   -6.2280   21.1630  -31.8610 C   0  0  0  0  0  0  0  0  0  0  0  0
   -5.0570   21.1690  -31.0820 C   0  0  0  0  0  0  0  0  0  0  0  0
   -4.5000   22.3730  -30.6400 C   0  0  0  0  0  0  0  0  0  0  0  0
   -5.0980   23.6000  -30.9680 C   0  0  0  0  0  0  0  0  0  0  0  0
   -4.5080   24.8770  -30.5030 C   0  0  0  0  0  0  0  0  0  0  0  0
   -5.1960   25.9350  -30.5190 O   0  0  0  0  0  0  0  0  0  0  0  0
   -3.1550   24.9170  -30.0330 N   0  0  0  0  0  0  0  0  0  0  0  0
   -2.7640   24.5860  -28.6670 C   0  0  0  0  0  0  0  0  0  0  0  0
   -2.2450   23.1820  -28.6000 C   0  0  0  0  0  0  0  0  0  0  0  0
   -2.7120   22.2950  -27.6180 C   0  0  0  0  0  0  0  0  0  0  0  0
   -2.2300   20.9840  -27.5940 C   0  0  0  0  0  0  0  0  0  0  0  0
   -1.2960   20.5700  -28.5450 C   0  0  0  0  0  0  0  0  0  0  0  0
   -0.8570   21.4780  -29.5120 C   0  0  0  0  0  0  0  0  0  0  0  0
   -1.3380   22.7500  -29.5200 N   0  0  0  0  0  0  0  0  0  0  0  0
   -6.2680   23.5960  -31.7470 C   0  0  0  0  0  0  0  0  0  0  0  0
   -6.8260   22.3930  -32.1870 C   0  0  0  0  0  0  0  0  0  0  0  0
   -8.1190   19.4300  -32.1420 C   0  0  0  0  0  0  0  0  0  0  0  0
   -8.2570   18.2160  -32.7090 N   0  0  0  0  0  0  0  0  0  0  0  0
   -5.5273   16.0217  -32.3210 H   0  0  0  0  0  0  0  0  0  0  0  0
   -5.4360   14.9907  -33.7891 H   0  0  0  0  0  0  0  0  0  0  0  0
   -4.6840   16.6220  -33.7891 H   0  0  0  0  0  0  0  0  0  0  0  0
   -6.7643   16.7918  -35.0099 H   0  0  0  0  0  0  0  0  0  0  0  0
   -7.6597   15.9299  -33.7052 H   0  0  0  0  0  0  0  0  0  0  0  0
   -5.1478   18.8687  -33.3714 H   0  0  0  0  0  0  0  0  0  0  0  0
   -4.5743   20.2166  -30.8177 H   0  0  0  0  0  0  0  0  0  0  0  0
   -3.5849   22.3586  -30.0297 H   0  0  0  0  0  0  0  0  0  0  0  0
   -1.9770   25.2799  -28.3367 H   0  0  0  0  0  0  0  0  0  0  0  0
   -3.6434   24.6739  -28.0120 H   0  0  0  0  0  0  0  0  0  0  0  0
   -3.4505   22.6288  -26.8742 H   0  0  0  0  0  0  0  0  0  0  0  0
   -2.5857   20.2797  -26.8275 H   0  0  0  0  0  0  0  0  0  0  0  0
   -0.9097   19.5401  -28.5333 H   0  0  0  0  0  0  0  0  0  0  0  0
   -0.1218   21.1637  -30.2674 H   0  0  0  0  0  0  0  0  0  0  0  0
   -6.7488   24.5490  -32.0127 H   0  0  0  0  0  0  0  0  0  0  0  0
   -7.7427   22.4084  -32.7948 H   0  0  0  0  0  0  0  0  0  0  0  0
   -8.9125   19.9772  -31.6120 H   0  0  0  0  0  0  0  0  0  0  0  0
  1  2  1  0
  2  3  1  0
  3  4  1  0
  4  5  2  0
  5  6  1  0
  6  7  2  0
  7  8  1  0
  8  9  2  0
  9 10  1  0
 10 11  2  0
 10 12  1  0
 12 13  1  0
 13 14  1  0
 14 15  2  0
 15 16  1  0
 16 17  2  0
 17 18  1  0
 18 19  2  0
  9 20  1  0
 20 21  2  0
  5 22  1  0
 22 23  2  0
 23  3  1  0
 21  6  1  0
 19 14  1  0
  1 24  1  0
  1 25  1  0
  1 26  1  0
  2 27  1  0
  2 28  1  0
  4 29  1  0
  7 30  1  0
  8 31  1  0
 13 32  1  0
 13 33  1  0
 15 34  1  0
 16 35  1  0
 17 36  1  0
 18 37  1  0
 20 38  1  0
 21 39  1  0
 22 40  1  0
M  CHG  1  12  -1
M  END
>  <UniqueID>  (29) 
28

>  <SMILES>  (29) 
CCn1cc(-c2ccc(C(=O)[N-]Cc3ccccn3)cc2)cn1

>  <Energy>  (29) 
69.43697900102491

>  <Genealogy>  (29) 
CCn1cc(-c2ccc(C(=O)[N-]Cc3ccccn3)cc2)cn1 (protonated)
CCn1cc(-c2ccc(C(=O)[N-]Cc3ccccn3)cc2)cn1 (3D coordinates assigned)
CCn1cc(-c2ccc(C(=O)[N-]Cc3ccccn3)cc2)cn1 (optimized conformer: 69.43697900102491 kcal/mol)

>  <smiles>  (29) 
CCn1cc(-c2ccc(C(=O)NCc3ccccn3)cc2)cn1

>  <score_type>  (29) 
oracle

>  <origin>  (29) 
adg

>  <m_score__min__energy>  (29) 
-10.529999999999999

>  <m_primary>  (29) 
energy

$$$$
29:0
     RDKit          3D

 41 41  0  0  0  0  0  0  0  0999 V2000
   -5.6210   18.1270  -34.9400 C   0  0  0  0  0  0  0  0  0  0  0  0
   -4.5020   18.8190  -34.1690 C   0  0  0  0  0  0  0  0  0  0  0  0
   -5.0510   19.5580  -33.0210 N   0  0  0  0  0  0  0  0  0  0  0  0
   -4.1940   20.4630  -32.2400 C   0  0  0  0  0  0  0  0  0  0  0  0
   -4.6820   21.9100  -32.3800 C   0  0  0  0  0  0  0  0  0  0  0  0
   -5.1180   22.5890  -31.0530 C   0  0  0  0  0  0  0  0  0  0  0  0
   -6.4880   23.2020  -31.0030 N   0  0  0  0  0  0  0  0  0  0  0  0
   -7.4380   22.3420  -30.2530 C   0  0  0  0  0  0  0  0  0  0  0  0
   -6.3840   24.4910  -30.2720 C   0  0  0  0  0  0  0  0  0  0  0  0
   -7.0310   23.4830  -32.3540 C   0  0  0  0  0  0  0  0  0  0  0  0
   -6.4390   19.4020  -32.6640 C   0  0  0  0  0  0  0  0  0  0  0  0
   -6.8500   18.3170  -31.8720 C   0  0  0  0  0  0  0  0  0  0  0  0
   -8.1960   18.1700  -31.5210 C   0  0  0  0  0  0  0  0  0  0  0  0
   -9.1390   19.1050  -31.9580 C   0  0  0  0  0  0  0  0  0  0  0  0
   -8.7380   20.1870  -32.7460 C   0  0  0  0  0  0  0  0  0  0  0  0
   -7.3940   20.3360  -33.0990 C   0  0  0  0  0  0  0  0  0  0  0  0
   -6.3360   17.6848  -34.2306 H   0  0  0  0  0  0  0  0  0  0  0  0
   -6.1395   18.8624  -35.5728 H   0  0  0  0  0  0  0  0  0  0  0  0
   -5.1947   17.3346  -35.5728 H   0  0  0  0  0  0  0  0  0  0  0  0
   -3.7902   18.0628  -33.8064 H   0  0  0  0  0  0  0  0  0  0  0  0
   -3.9923   19.5274  -34.8387 H   0  0  0  0  0  0  0  0  0  0  0  0
   -4.2270   20.1697  -31.1803 H   0  0  0  0  0  0  0  0  0  0  0  0
   -3.1631   20.3947  -32.6177 H   0  0  0  0  0  0  0  0  0  0  0  0
   -3.8651   22.5047  -32.8148 H   0  0  0  0  0  0  0  0  0  0  0  0
   -5.5802   21.8706  -33.0138 H   0  0  0  0  0  0  0  0  0  0  0  0
   -5.0696   21.8264  -30.2617 H   0  0  0  0  0  0  0  0  0  0  0  0
   -4.4279   23.4372  -30.9334 H   0  0  0  0  0  0  0  0  0  0  0  0
   -7.2842   22.4812  -29.1727 H   0  0  0  0  0  0  0  0  0  0  0  0
   -8.4695   22.6197  -30.5153 H   0  0  0  0  0  0  0  0  0  0  0  0
   -7.2640   21.2880  -30.5153 H   0  0  0  0  0  0  0  0  0  0  0  0
   -6.3994   24.3005  -29.1887 H   0  0  0  0  0  0  0  0  0  0  0  0
   -5.4426   24.9913  -30.5430 H   0  0  0  0  0  0  0  0  0  0  0  0
   -7.2330   25.1357  -30.5430 H   0  0  0  0  0  0  0  0  0  0  0  0
   -8.0044   23.9867  -32.2605 H   0  0  0  0  0  0  0  0  0  0  0  0
   -6.3329   24.1330  -32.9018 H   0  0  0  0  0  0  0  0  0  0  0  0
   -7.1585   22.5377  -32.9018 H   0  0  0  0  0  0  0  0  0  0  0  0
   -6.1102   17.5799  -31.5264 H   0  0  0  0  0  0  0  0  0  0  0  0
   -8.5126   17.3184  -30.9009 H   0  0  0  0  0  0  0  0  0  0  0  0
  -10.1973   18.9888  -31.6813 H   0  0  0  0  0  0  0  0  0  0  0  0
   -9.4809   20.9222  -33.0888 H   0  0  0  0  0  0  0  0  0  0  0  0
   -7.0825   21.1886  -33.7203 H   0  0  0  0  0  0  0  0  0  0  0  0
  1  2  1  0
  2  3  1  0
  3  4  1  0
  4  5  1  0
  5  6  1  0
  6  7  1  0
  7  8  1  0
  7  9  1  0
  7 10  1  0
  3 11  1  0
 11 12  2  0
 12 13  1  0
 13 14  2  0
 14 15  1  0
 15 16  2  0
 16 11  1  0
  1 17  1  0
  1 18  1  0
  1 19  1  0
  2 20  1  0
  2 21  1  0
  4 22  1  0
  4 23  1  0
  5 24  1  0
  5 25  1  0
  6 26  1  0
  6 27  1  0
  8 28  1  0
  8 29  1  0
  8 30  1  0
  9 31  1  0
  9 32  1  0
  9 33  1  0
 10 34  1  0
 10 35  1  0
 10 36  1  0
 12 37  1  0
 13 38  1  0
 14 39  1  0
 15 40  1  0
 16 41  1  0
M  CHG  1   7   1
M  END
>  <UniqueID>  (30) 
29

>  <SMILES>  (30) 
CCN(CCC[N+](C)(C)C)c1ccccc1

>  <Energy>  (30) 
46.697091608695544

>  <Genealogy>  (30) 
CCN(CCC[N+](C)(C)C)c1ccccc1 (3D coordinates assigned)
CCN(CCC[N+](C)(C)C)c1ccccc1 (optimized conformer: 46.697091608695544 kcal/mol)

>  <smiles>  (30) 
CCN(CCC[N+](C)(C)C)c1ccccc1

>  <score_type>  (30) 
oracle

>  <origin>  (30) 
adg

>  <m_score__min__energy>  (30) 
-4.8300000000000001

>  <m_primary>  (30) 
energy

$$$$
30:0
     RDKit          3D

 47 50  0  0  0  0  0  0  0  0999 V2000
   -0.8620   21.6500  -31.2110 C   0  0  0  0  0  0  0  0  0  0  0  0
   -1.7930   20.7470  -31.8820 N   0  0  0  0  0  0  0  0  0  0  0  0
   -1.5520   20.0880  -33.0330 C   0  0  0  0  0  0  0  0  0  0  0  0
   -2.6810   19.3950  -33.4230 C   0  0  0  0  0  0  0  0  0  0  0  0
   -3.6520   19.6510  -32.4750 C   0  0  0  0  0  0  0  0  0  0  0  0
   -3.0730   20.4850  -31.5370 C   0  0  0  0  0  0  0  0  0  0  0  0
   -3.7930   21.0880  -30.3660 C   0  0  0  0  0  0  0  0  0  0  0  0
   -3.9560   22.5420  -30.5890 N   0  0  0  0  0  0  0  0  0  0  0  0
   -4.6610   23.2850  -29.5170 C   0  0  0  0  0  0  0  0  0  0  0  0
   -6.1870   23.4700  -29.7280 C   0  0  1  0  0  0  0  0  0  0  0  0
   -6.5020   24.6280  -30.6970 C   0  0  0  0  0  0  0  0  0  0  0  0
   -6.4960   24.1750  -32.1660 C   0  0  0  0  0  0  0  0  0  0  0  0
   -5.7800   22.8230  -32.3460 C   0  0  1  0  0  0  0  0  0  0  0  0
   -4.2740   22.9250  -31.9820 C   0  0  0  0  0  0  0  0  0  0  0  0
   -6.4380   21.7500  -31.5540 N   0  0  0  0  0  0  0  0  0  0  0  0
   -7.5100   21.0660  -32.3050 C   0  0  0  0  0  0  0  0  0  0  0  0
   -7.0370   19.7270  -32.7930 C   0  0  0  0  0  0  0  0  0  0  0  0
   -7.2700   18.5340  -32.0900 C   0  0  0  0  0  0  0  0  0  0  0  0
   -6.7880   17.4060  -32.7400 C   0  0  0  0  0  0  0  0  0  0  0  0
   -6.0860   17.8980  -34.1850 S   0  0  0  0  0  0  0  0  0  0  0  0
   -6.3810   19.5420  -34.0040 C   0  0  0  0  0  0  0  0  0  0  0  0
   -6.8870   22.1820  -30.2030 C   0  0  0  0  0  0  0  0  0  0  0  0
   -0.9703   21.5449  -30.1214 H   0  0  0  0  0  0  0  0  0  0  0  0
    0.1681   21.3979  -31.5031 H   0  0  0  0  0  0  0  0  0  0  0  0
   -1.0825   22.6873  -31.5031 H   0  0  0  0  0  0  0  0  0  0  0  0
   -0.5979   20.1004  -33.5802 H   0  0  0  0  0  0  0  0  0  0  0  0
   -2.7865   18.7616  -34.3161 H   0  0  0  0  0  0  0  0  0  0  0  0
   -4.6828   19.2670  -32.4678 H   0  0  0  0  0  0  0  0  0  0  0  0
   -4.7825   20.6189  -30.2616 H   0  0  0  0  0  0  0  0  0  0  0  0
   -3.2110   20.9186  -29.4481 H   0  0  0  0  0  0  0  0  0  0  0  0
   -4.5126   22.7406  -28.5728 H   0  0  0  0  0  0  0  0  0  0  0  0
   -4.2303   24.2972  -29.5163 H   0  0  0  0  0  0  0  0  0  0  0  0
   -6.5897   23.7232  -28.7362 H   0  0  0  0  0  0  0  0  0  0  0  0
   -7.4962   25.0317  -30.4550 H   0  0  0  0  0  0  0  0  0  0  0  0
   -5.7192   25.3913  -30.5762 H   0  0  0  0  0  0  0  0  0  0  0  0
   -7.5354   24.0761  -32.5121 H   0  0  0  0  0  0  0  0  0  0  0  0
   -5.9531   24.9298  -32.7538 H   0  0  0  0  0  0  0  0  0  0  0  0
   -5.8554   22.5558  -33.4104 H   0  0  0  0  0  0  0  0  0  0  0  0
   -3.7110   22.2644  -32.6578 H   0  0  0  0  0  0  0  0  0  0  0  0
   -3.9958   23.9839  -32.0884 H   0  0  0  0  0  0  0  0  0  0  0  0
   -8.3800   20.9249  -31.6468 H   0  0  0  0  0  0  0  0  0  0  0  0
   -7.7872   21.6835  -33.1721 H   0  0  0  0  0  0  0  0  0  0  0  0
   -7.7845   18.4968  -31.1185 H   0  0  0  0  0  0  0  0  0  0  0  0
   -6.8541   16.3711  -32.3732 H   0  0  0  0  0  0  0  0  0  0  0  0
   -6.1040   20.3320  -34.7176 H   0  0  0  0  0  0  0  0  0  0  0  0
   -7.9718   22.3616  -30.2333 H   0  0  0  0  0  0  0  0  0  0  0  0
   -6.6271   21.3817  -29.4945 H   0  0  0  0  0  0  0  0  0  0  0  0
  1  2  1  0
  2  3  1  0
  3  4  2  0
  4  5  1  0
  5  6  2  0
  6  7  1  0
  7  8  1  0
  8  9  1  0
  9 10  1  0
 10 11  1  0
 11 12  1  0
 12 13  1  0
 13 14  1  0
 13 15  1  0
 15 16  1  0
 16 17  1  0
 17 18  1  0
 18 19  2  0
 19 20  1  0
 20 21  1  0
 15 22  1  0
  6  2  1  0
 14  8  1  0
 21 17  2  0
 22 10  1  0
  1 23  1  0
  1 24  1  0
  1 25  1  0
  3 26  1  0
  4 27  1  0
  5 28  1  0
  7 29  1  0
  7 30  1  0
  9 31  1  0
  9 32  1  0
 10 33  1  1
 11 34  1  0
 11 35  1  0
 12 36  1  0
 12 37  1  0
 13 38  1  6
 14 39  1  0
 14 40  1  0
 16 41  1  0
 16 42  1  0
 18 43  1  0
 19 44  1  0
 21 45  1  0
 22 46  1  0
 22 47  1  0
M  END
>  <UniqueID>  (31) 
30

>  <SMILES>  (31) 
Cn1cccc1CN1C[C@H]2CC[C@@H](C1)N(Cc1ccsc1)C2

>  <Energy>  (31) 
123.0291950067174

>  <Genealogy>  (31) 
Cn1cccc1CN1C[C@H]2CC[C@@H](C1)N(Cc1ccsc1)C2 (chirality)
Cn1cccc1CN1C[C@H]2CC[C@@H](C1)N(Cc1ccsc1)C2 (3D coordinates assigned)
Cn1cccc1CN1C[C@H]2CC[C@@H](C1)N(Cc1ccsc1)C2 (nonaromatic ring conformer: 123.0291950067174 kcal/mol)

>  <smiles>  (31) 
Cn1cccc1CN1CC2CCC(C1)N(Cc1ccsc1)C2

>  <score_type>  (31) 
oracle

>  <origin>  (31) 
adg

>  <m_score__min__energy>  (31) 
-5.8499999999999996

>  <m_primary>  (31) 
energy

$$$$
31:0
     RDKit          3D

 47 50  0  0  0  0  0  0  0  0999 V2000
   -8.0230   21.7870  -31.7820 C   0  0  0  0  0  0  0  0  0  0  0  0
   -8.7730   20.4610  -31.9420 C   0  0  0  0  0  0  0  0  0  0  0  0
   -8.2070   19.6190  -33.0100 N   0  0  0  0  0  0  0  0  0  0  0  0
   -8.3250   18.1790  -32.7310 C   0  0  0  0  0  0  0  0  0  0  0  0
   -7.1110   17.4340  -33.2390 C   0  0  0  0  0  0  0  0  0  0  0  0
   -7.2330   16.0590  -33.5010 C   0  0  0  0  0  0  0  0  0  0  0  0
   -6.1570   15.3290  -34.0010 C   0  0  0  0  0  0  0  0  0  0  0  0
   -4.9420   15.9600  -34.2520 C   0  0  0  0  0  0  0  0  0  0  0  0
   -4.7830   17.3240  -33.9790 C   0  0  0  0  0  0  0  0  0  0  0  0
   -5.8610   18.0780  -33.4530 C   0  0  0  0  0  0  0  0  0  0  0  0
   -5.7080   19.5100  -33.2600 N   0  0  0  0  0  0  0  0  0  0  0  0
   -4.3590   19.8870  -32.8960 C   0  0  0  0  0  0  0  0  0  0  0  0
   -4.1370   21.0280  -32.1030 C   0  0  0  0  0  0  0  0  0  0  0  0
   -2.8320   21.4530  -31.7980 C   0  0  0  0  0  0  0  0  0  0  0  0
   -2.6090   22.6500  -30.9460 C   0  0  0  0  0  0  0  0  0  0  0  0
   -3.6310   23.6020  -30.7690 C   0  0  0  0  0  0  0  0  0  0  0  0
   -3.4200   24.7270  -29.9670 C   0  0  0  0  0  0  0  0  0  0  0  0
   -2.1890   24.9160  -29.3330 C   0  0  0  0  0  0  0  0  0  0  0  0
   -1.9820   26.0360  -28.5370 O   0  0  0  0  0  0  0  0  0  0  0  0
   -1.1670   23.9780  -29.5030 C   0  0  0  0  0  0  0  0  0  0  0  0
   -1.3730   22.8510  -30.3030 C   0  0  0  0  0  0  0  0  0  0  0  0
   -1.7420   20.7350  -32.3180 C   0  0  0  0  0  0  0  0  0  0  0  0
   -1.9520   19.6150  -33.1250 C   0  0  0  0  0  0  0  0  0  0  0  0
   -3.2540   19.1830  -33.4110 C   0  0  0  0  0  0  0  0  0  0  0  0
   -3.4790   17.9990  -34.3070 C   0  0  0  0  0  0  0  0  0  0  0  0
   -7.8968   22.0101  -30.7123 H   0  0  0  0  0  0  0  0  0  0  0  0
   -7.0350   21.7094  -32.2594 H   0  0  0  0  0  0  0  0  0  0  0  0
   -8.5986   22.5937  -32.2594 H   0  0  0  0  0  0  0  0  0  0  0  0
   -8.7203   19.9089  -30.9920 H   0  0  0  0  0  0  0  0  0  0  0  0
   -9.8122   20.6953  -32.2160 H   0  0  0  0  0  0  0  0  0  0  0  0
   -8.6870   19.8300  -33.9170 H   0  0  0  0  0  0  0  0  0  0  0  0
   -8.4130   18.0278  -31.6450 H   0  0  0  0  0  0  0  0  0  0  0  0
   -9.2175   17.7917  -33.2442 H   0  0  0  0  0  0  0  0  0  0  0  0
   -8.1904   15.5525  -33.3089 H   0  0  0  0  0  0  0  0  0  0  0  0
   -6.2677   14.2524  -34.1977 H   0  0  0  0  0  0  0  0  0  0  0  0
   -4.1020   15.3838  -34.6672 H   0  0  0  0  0  0  0  0  0  0  0  0
   -5.9590   19.9950  -34.1520 H   0  0  0  0  0  0  0  0  0  0  0  0
   -6.3500   19.8410  -32.5050 H   0  0  0  0  0  0  0  0  0  0  0  0
   -4.9964   21.5953  -31.7163 H   0  0  0  0  0  0  0  0  0  0  0  0
   -4.6022   23.4594  -31.2653 H   0  0  0  0  0  0  0  0  0  0  0  0
   -4.2246   25.4653  -29.8345 H   0  0  0  0  0  0  0  0  0  0  0  0
   -0.1974   24.1274  -29.0055 H   0  0  0  0  0  0  0  0  0  0  0  0
   -0.5644   22.1164  -30.4311 H   0  0  0  0  0  0  0  0  0  0  0  0
   -0.7158   21.0575  -32.0877 H   0  0  0  0  0  0  0  0  0  0  0  0
   -1.0911   19.0691  -33.5383 H   0  0  0  0  0  0  0  0  0  0  0  0
   -3.5006   18.3371  -35.3535 H   0  0  0  0  0  0  0  0  0  0  0  0
   -2.6606   17.2799  -34.1550 H   0  0  0  0  0  0  0  0  0  0  0  0
  1  2  1  0
  2  3  1  0
  3  4  1  0
  4  5  1  0
  5  6  2  0
  6  7  1  0
  7  8  2  0
  8  9  1  0
  9 10  2  0
 10 11  1  0
 11 12  1  0
 12 13  2  0
 13 14  1  0
 14 15  1  0
 15 16  2  0
 16 17  1  0
 17 18  2  0
 18 19  1  0
 18 20  1  0
 20 21  2  0
 14 22  2  0
 22 23  1  0
 23 24  2  0
 24 25  1  0
 10  5  1  0
 24 12  1  0
 25  9  1  0
 21 15  1  0
  1 26  1  0
  1 27  1  0
  1 28  1  0
  2 29  1  0
  2 30  1  0
  3 31  1  0
  4 32  1  0
  4 33  1  0
  6 34  1  0
  7 35  1  0
  8 36  1  0
 11 37  1  0
 11 38  1  0
 13 39  1  0
 16 40  1  0
 17 41  1  0
 20 42  1  0
 21 43  1  0
 22 44  1  0
 23 45  1  0
 25 46  1  0
 25 47  1  0
M  CHG  2  11   1  19  -1
M  END
>  <UniqueID>  (32) 
31

>  <SMILES>  (32) 
CCNCc1cccc2c1[NH2+]c1cc(-c3ccc([O-])cc3)ccc1C2

>  <Energy>  (32) 
64.35183597926536

>  <Genealogy>  (32) 
CCNCc1cccc2c1[NH2+]c1cc(-c3ccc([O-])cc3)ccc1C2 (protonated)
CCNCc1cccc2c1[NH2+]c1cc(-c3ccc([O-])cc3)ccc1C2 (3D coordinates assigned)
CCNCc1cccc2c1[NH2+]c1cc(-c3ccc([O-])cc3)ccc1C2 (nonaromatic ring conformer: 64.35183597926536 kcal/mol)

>  <smiles>  (32) 
CCNCc1cccc2c1Nc1cc(-c3ccc(O)cc3)ccc1C2

>  <score_type>  (32) 
oracle

>  <origin>  (32) 
adg

>  <m_score__min__energy>  (32) 
-9.3100000000000005

>  <m_primary>  (32) 
energy

$$$$
32:0
     RDKit          3D

 50 51  0  0  0  0  0  0  0  0999 V2000
   -7.5910   17.8950  -32.2760 C   0  0  0  0  0  0  0  0  0  0  0  0
   -7.6490   19.0620  -33.0890 O   0  0  0  0  0  0  0  0  0  0  0  0
   -7.8160   20.3720  -32.6100 C   0  0  0  0  0  0  0  0  0  0  0  0
   -9.0750   20.8170  -32.1590 C   0  0  0  0  0  0  0  0  0  0  0  0
   -9.2410   22.1150  -31.6840 C   0  0  0  0  0  0  0  0  0  0  0  0
   -8.1630   22.9920  -31.6530 C   0  0  0  0  0  0  0  0  0  0  0  0
   -6.9010   22.5840  -32.1060 C   0  0  0  0  0  0  0  0  0  0  0  0
   -5.7510   23.5620  -32.0140 C   0  0  0  0  0  0  0  0  0  0  0  0
   -4.8800   23.2170  -30.8750 N   0  0  0  0  0  0  0  0  0  0  0  0
   -4.5800   24.3870  -30.0450 C   0  0  0  0  0  0  0  0  0  0  0  0
   -3.2400   24.1070  -29.3590 C   0  0  2  0  0  0  0  0  0  0  0  0
   -2.3730   25.2900  -29.3340 N   0  0  0  0  0  0  0  0  0  0  0  0
   -1.1690   25.4490  -28.5720 C   0  0  0  0  0  0  0  0  0  0  0  0
   -1.1820   26.3050  -27.3500 C   0  0  0  0  0  0  0  0  0  0  0  0
   -0.1140   24.8400  -28.8930 O   0  0  0  0  0  0  0  0  0  0  0  0
   -2.6090   22.9340  -30.1370 C   0  0  1  0  0  0  0  0  0  0  0  0
   -2.3590   21.6490  -29.2880 C   0  0  0  0  0  0  0  0  0  0  0  0
   -3.0070   21.6760  -27.8900 C   0  0  0  0  0  0  0  0  0  0  0  0
   -0.8600   21.3360  -29.1790 C   0  0  0  0  0  0  0  0  0  0  0  0
   -3.5780   22.6900  -31.2980 C   0  0  0  0  0  0  0  0  0  0  0  0
   -6.7100   21.2640  -32.5760 C   0  0  0  0  0  0  0  0  0  0  0  0
   -5.4120   20.9020  -32.9880 O   0  0  0  0  0  0  0  0  0  0  0  0
   -4.7080   19.7150  -32.6450 C   0  0  0  0  0  0  0  0  0  0  0  0
   -7.6055   18.1860  -31.2153 H   0  0  0  0  0  0  0  0  0  0  0  0
   -8.4584   17.2540  -32.4922 H   0  0  0  0  0  0  0  0  0  0  0  0
   -6.6643   17.3432  -32.4922 H   0  0  0  0  0  0  0  0  0  0  0  0
   -9.9351   20.1317  -32.1826 H   0  0  0  0  0  0  0  0  0  0  0  0
  -10.2286   22.4478  -31.3320 H   0  0  0  0  0  0  0  0  0  0  0  0
   -8.3014   24.0139  -31.2701 H   0  0  0  0  0  0  0  0  0  0  0  0
   -5.1654   23.5230  -32.9443 H   0  0  0  0  0  0  0  0  0  0  0  0
   -6.1522   24.5754  -31.8655 H   0  0  0  0  0  0  0  0  0  0  0  0
   -4.5041   25.2875  -30.6722 H   0  0  0  0  0  0  0  0  0  0  0  0
   -5.3748   24.5618  -29.3049 H   0  0  0  0  0  0  0  0  0  0  0  0
   -3.3816   23.8477  -28.2994 H   0  0  0  0  0  0  0  0  0  0  0  0
   -1.1723   25.6661  -26.4546 H   0  0  0  0  0  0  0  0  0  0  0  0
   -0.2936   26.9536  -27.3472 H   0  0  0  0  0  0  0  0  0  0  0  0
   -2.0897   26.9264  -27.3472 H   0  0  0  0  0  0  0  0  0  0  0  0
   -1.5931   23.1903  -30.4719 H   0  0  0  0  0  0  0  0  0  0  0  0
   -2.8613   20.8402  -29.8389 H   0  0  0  0  0  0  0  0  0  0  0  0
   -2.2212   21.6433  -27.1209 H   0  0  0  0  0  0  0  0  0  0  0  0
   -3.5938   22.5994  -27.7756 H   0  0  0  0  0  0  0  0  0  0  0  0
   -3.6685   20.8046  -27.7756 H   0  0  0  0  0  0  0  0  0  0  0  0
   -0.5741   21.2763  -28.1185 H   0  0  0  0  0  0  0  0  0  0  0  0
   -0.6495   20.3745  -29.6702 H   0  0  0  0  0  0  0  0  0  0  0  0
   -0.2824   22.1329  -29.6702 H   0  0  0  0  0  0  0  0  0  0  0  0
   -3.2304   23.2159  -32.1994 H   0  0  0  0  0  0  0  0  0  0  0  0
   -3.6436   21.6193  -31.5417 H   0  0  0  0  0  0  0  0  0  0  0  0
   -4.6541   19.6241  -31.5501 H   0  0  0  0  0  0  0  0  0  0  0  0
   -5.2352   18.8432  -33.0598 H   0  0  0  0  0  0  0  0  0  0  0  0
   -3.6902   19.7595  -33.0598 H   0  0  0  0  0  0  0  0  0  0  0  0
  1  2  1  0
  2  3  1  0
  3  4  2  0
  4  5  1  0
  5  6  2  0
  6  7  1  0
  7  8  1  0
  8  9  1  0
  9 10  1  0
 10 11  1  0
 11 12  1  0
 12 13  1  0
 13 14  1  0
 13 15  2  0
 11 16  1  0
 16 17  1  0
 17 18  1  0
 17 19  1  0
 16 20  1  0
  7 21  2  0
 21 22  1  0
 22 23  1  0
 21  3  1  0
 20  9  1  0
  1 24  1  0
  1 25  1  0
  1 26  1  0
  4 27  1  0
  5 28  1  0
  6 29  1  0
  8 30  1  0
  8 31  1  0
 10 32  1  0
 10 33  1  0
 11 34  1  1
 14 35  1  0
 14 36  1  0
 14 37  1  0
 16 38  1  6
 17 39  1  0
 18 40  1  0
 18 41  1  0
 18 42  1  0
 19 43  1  0
 19 44  1  0
 19 45  1  0
 20 46  1  0
 20 47  1  0
 23 48  1  0
 23 49  1  0
 23 50  1  0
M  CHG  1  12  -1
M  END
>  <UniqueID>  (33) 
32

>  <SMILES>  (33) 
COc1cccc(CN2C[C@H]([N-]C(C)=O)[C@@H](C(C)C)C2)c1OC

>  <Energy>  (33) 
50.73871943398697

>  <Genealogy>  (33) 
COc1cccc(CN2CC([N-]C(C)=O)C(C(C)C)C2)c1OC (protonated)
COc1cccc(CN2C[C@H]([N-]C(C)=O)[C@@H](C(C)C)C2)c1OC (chirality)
COc1cccc(CN2C[C@H]([N-]C(C)=O)[C@@H](C(C)C)C2)c1OC (3D coordinates assigned)
COc1cccc(CN2C[C@H]([N-]C(C)=O)[C@@H](C(C)C)C2)c1OC (nonaromatic ring conformer: 50.73871943398697 kcal/mol)

>  <smiles>  (33) 
COc1cccc(CN2CC(NC(C)=O)C(C(C)C)C2)c1OC

>  <score_type>  (33) 
oracle

>  <origin>  (33) 
adg

>  <m_score__min__energy>  (33) 
-9.0199999999999996

>  <m_primary>  (33) 
energy

$$$$
33:0
     RDKit          3D

 38 40  0  0  0  0  0  0  0  0999 V2000
   -4.3660   19.0720  -33.7830 C   0  0  0  0  0  0  0  0  0  0  0  0
   -3.7810   20.3450  -33.7450 O   0  0  0  0  0  0  0  0  0  0  0  0
   -2.6400   20.6310  -33.0280 C   0  0  0  0  0  0  0  0  0  0  0  0
   -1.4280   19.9850  -33.2930 C   0  0  0  0  0  0  0  0  0  0  0  0
   -0.2830   20.2660  -32.5780 C   0  0  0  0  0  0  0  0  0  0  0  0
   -0.3350   21.2030  -31.5840 C   0  0  0  0  0  0  0  0  0  0  0  0
   -1.5270   21.8600  -31.2990 C   0  0  0  0  0  0  0  0  0  0  0  0
   -2.6950   21.5910  -32.0090 C   0  0  0  0  0  0  0  0  0  0  0  0
   -3.9340   22.2940  -31.7020 C   0  0  0  0  0  0  0  0  0  0  0  0
   -3.8640   23.5500  -31.2170 N   0  0  0  0  0  0  0  0  0  0  0  0
   -5.0000   24.2290  -30.9100 C   0  0  0  0  0  0  0  0  0  0  0  0
   -4.8430   25.4300  -30.4530 N   0  0  0  0  0  0  0  0  0  0  0  0
   -6.2570   23.6900  -31.0740 C   0  0  0  0  0  0  0  0  0  0  0  0
   -6.3030   22.3970  -31.5760 C   0  0  0  0  0  0  0  0  0  0  0  0
   -7.5550   21.7510  -31.7790 N   0  0  0  0  0  0  0  0  0  0  0  0
   -8.8710   22.3070  -31.5380 C   0  0  0  0  0  0  0  0  0  0  0  0
   -9.8560   21.2730  -31.9810 C   0  0  0  0  0  0  0  0  0  0  0  0
   -9.0890   20.0300  -32.3280 C   0  0  0  0  0  0  0  0  0  0  0  0
   -7.6470   20.3920  -32.2860 C   0  0  0  0  0  0  0  0  0  0  0  0
   -5.1530   21.7530  -31.8680 N   0  0  0  0  0  0  0  0  0  0  0  0
   -4.5308   18.7134  -32.7562 H   0  0  0  0  0  0  0  0  0  0  0  0
   -5.3293   19.1268  -34.3113 H   0  0  0  0  0  0  0  0  0  0  0  0
   -3.6971   18.3767  -34.3113 H   0  0  0  0  0  0  0  0  0  0  0  0
   -1.3872   19.2321  -34.0939 H   0  0  0  0  0  0  0  0  0  0  0  0
    0.6584   19.7439  -32.8041 H   0  0  0  0  0  0  0  0  0  0  0  0
    0.5710   21.4386  -31.0064 H   0  0  0  0  0  0  0  0  0  0  0  0
   -1.5481   22.6096  -30.4942 H   0  0  0  0  0  0  0  0  0  0  0  0
   -4.9760   25.6730  -29.4590 H   0  0  0  0  0  0  0  0  0  0  0  0
   -7.1693   24.2506  -30.8222 H   0  0  0  0  0  0  0  0  0  0  0  0
   -9.0022   22.5229  -30.4674 H   0  0  0  0  0  0  0  0  0  0  0  0
   -9.0109   23.2504  -32.0861 H   0  0  0  0  0  0  0  0  0  0  0  0
  -10.5664   21.0602  -31.1686 H   0  0  0  0  0  0  0  0  0  0  0  0
  -10.4240   21.6307  -32.8524 H   0  0  0  0  0  0  0  0  0  0  0  0
   -9.3021   19.2364  -31.5967 H   0  0  0  0  0  0  0  0  0  0  0  0
   -9.3738   19.6538  -33.3217 H   0  0  0  0  0  0  0  0  0  0  0  0
   -7.1060   19.7045  -31.6192 H   0  0  0  0  0  0  0  0  0  0  0  0
   -7.1990   20.3200  -33.2880 H   0  0  0  0  0  0  0  0  0  0  0  0
   -5.2590   20.7840  -32.2380 H   0  0  0  0  0  0  0  0  0  0  0  0
  1  2  1  0
  2  3  1  0
  3  4  2  0
  4  5  1  0
  5  6  2  0
  6  7  1  0
  7  8  2  0
  8  9  1  0
  9 10  2  0
 10 11  1  0
 11 12  2  3
 11 13  1  0
 13 14  2  0
 14 15  1  0
 15 16  1  0
 16 17  1  0
 17 18  1  0
 18 19  1  0
 14 20  1  0
  8  3  1  0
 20  9  1  0
 19 15  1  0
  1 21  1  0
  1 22  1  0
  1 23  1  0
  4 24  1  0
  5 25  1  0
  6 26  1  0
  7 27  1  0
 12 28  1  0
 13 29  1  0
 16 30  1  0
 16 31  1  0
 17 32  1  0
 17 33  1  0
 18 34  1  0
 18 35  1  0
 19 36  1  0
 19 37  1  0
 20 38  1  0
M  END
>  <smiles>  (34) 
COc1ccccc1-c1nc(=N)cc(N2CCCC2)[nH]1

>  <score_type>  (34) 
oracle

>  <origin>  (34) 
adg

>  <m_score__min__energy>  (34) 
-7.3600000000000003

>  <m_primary>  (34) 
energy

$$$$
34:0
     RDKit          3D

 44 46  0  0  0  0  0  0  0  0999 V2000
   -4.1510   22.9900  -28.3060 C   0  0  0  0  0  0  0  0  0  0  0  0
   -4.7430   22.6560  -29.5560 O   0  0  0  0  0  0  0  0  0  0  0  0
   -4.0300   22.2290  -30.6890 C   0  0  0  0  0  0  0  0  0  0  0  0
   -2.7910   21.5660  -30.5730 C   0  0  0  0  0  0  0  0  0  0  0  0
   -2.1350   21.0870  -31.7070 C   0  0  0  0  0  0  0  0  0  0  0  0
   -2.7100   21.2460  -32.9660 C   0  0  0  0  0  0  0  0  0  0  0  0
   -3.9280   21.9160  -33.0990 C   0  0  0  0  0  0  0  0  0  0  0  0
   -4.5770   22.4540  -31.9730 C   0  0  0  0  0  0  0  0  0  0  0  0
   -5.8990   23.1800  -32.1580 C   0  0  0  0  0  0  0  0  0  0  0  0
   -6.8360   23.0830  -31.0100 N   0  0  1  0  0  0  0  0  0  0  0  0
   -7.2280   24.3890  -30.4670 C   0  0  0  0  0  0  0  0  0  0  0  0
   -8.2350   22.0660  -31.3130 S   0  0  0  0  0  0  0  0  0  0  0  0
   -9.0260   21.9270  -30.0420 O   0  0  0  0  0  0  0  0  0  0  0  0
   -9.1130   22.7450  -32.3270 O   0  0  0  0  0  0  0  0  0  0  0  0
   -7.8390   20.4560  -31.9420 C   0  0  0  0  0  0  0  0  0  0  0  0
   -8.6090   19.3420  -31.5750 C   0  0  0  0  0  0  0  0  0  0  0  0
   -8.2960   18.0710  -32.0610 C   0  0  0  0  0  0  0  0  0  0  0  0
   -7.2260   17.8990  -32.9490 C   0  0  0  0  0  0  0  0  0  0  0  0
   -6.8960   16.6250  -33.4370 C   0  0  0  0  0  0  0  0  0  0  0  0
   -5.8350   16.4700  -34.3320 C   0  0  0  0  0  0  0  0  0  0  0  0
   -5.0970   17.5830  -34.7480 C   0  0  0  0  0  0  0  0  0  0  0  0
   -5.4160   18.8570  -34.2700 C   0  0  0  0  0  0  0  0  0  0  0  0
   -6.4770   19.0250  -33.3660 C   0  0  0  0  0  0  0  0  0  0  0  0
   -6.8030   20.2980  -32.8730 C   0  0  0  0  0  0  0  0  0  0  0  0
   -4.7920   22.6284  -27.4884 H   0  0  0  0  0  0  0  0  0  0  0  0
   -3.1604   22.5177  -28.2316 H   0  0  0  0  0  0  0  0  0  0  0  0
   -4.0430   24.0822  -28.2316 H   0  0  0  0  0  0  0  0  0  0  0  0
   -2.3382   21.4254  -29.5804 H   0  0  0  0  0  0  0  0  0  0  0  0
   -1.1624   20.5830  -31.6071 H   0  0  0  0  0  0  0  0  0  0  0  0
   -2.2042   20.8435  -33.8560 H   0  0  0  0  0  0  0  0  0  0  0  0
   -4.3843   22.0241  -34.0940 H   0  0  0  0  0  0  0  0  0  0  0  0
   -5.6821   24.2443  -32.3320 H   0  0  0  0  0  0  0  0  0  0  0  0
   -6.4012   22.6914  -33.0060 H   0  0  0  0  0  0  0  0  0  0  0  0
   -6.3050   22.5990  -30.2470 H   0  0  0  0  0  0  0  0  0  0  0  0
   -7.2156   24.3478  -29.3678 H   0  0  0  0  0  0  0  0  0  0  0  0
   -6.5209   25.1572  -30.8131 H   0  0  0  0  0  0  0  0  0  0  0  0
   -8.2413   24.6408  -30.8131 H   0  0  0  0  0  0  0  0  0  0  0  0
   -9.4667   19.4710  -30.8985 H   0  0  0  0  0  0  0  0  0  0  0  0
   -8.8916   17.2016  -31.7456 H   0  0  0  0  0  0  0  0  0  0  0  0
   -7.4742   15.7468  -33.1139 H   0  0  0  0  0  0  0  0  0  0  0  0
   -5.5790   15.4696  -34.7109 H   0  0  0  0  0  0  0  0  0  0  0  0
   -4.2629   17.4552  -35.4536 H   0  0  0  0  0  0  0  0  0  0  0  0
   -4.8348   19.7296  -34.6027 H   0  0  0  0  0  0  0  0  0  0  0  0
   -6.2415   21.1781  -33.2197 H   0  0  0  0  0  0  0  0  0  0  0  0
  1  2  1  0
  2  3  1  0
  3  4  2  0
  4  5  1  0
  5  6  2  0
  6  7  1  0
  7  8  2  0
  8  9  1  0
  9 10  1  0
 10 11  1  0
 10 12  1  0
 12 13  2  0
 12 14  2  0
 12 15  1  0
 15 16  2  0
 16 17  1  0
 17 18  2  0
 18 19  1  0
 19 20  2  0
 20 21  1  0
 21 22  2  0
 22 23  1  0
 23 24  2  0
  8  3  1  0
 24 15  1  0
 23 18  1  0
  1 25  1  0
  1 26  1  0
  1 27  1  0
  4 28  1  0
  5 29  1  0
  6 30  1  0
  7 31  1  0
  9 32  1  0
  9 33  1  0
 10 34  1  1
 11 35  1  0
 11 36  1  0
 11 37  1  0
 16 38  1  0
 17 39  1  0
 19 40  1  0
 20 41  1  0
 21 42  1  0
 22 43  1  0
 24 44  1  0
M  CHG  1  10   1
M  END
>  <UniqueID>  (35) 
33

>  <SMILES>  (35) 
COc1ccccc1C[N@@H+](C)S(=O)(=O)c1ccc2ccccc2c1

>  <Energy>  (35) 
51.5207930837092

>  <Genealogy>  (35) 
COc1ccccc1C[NH+](C)S(=O)(=O)c1ccc2ccccc2c1 (protonated)
COc1ccccc1C[N@@H+](C)S(=O)(=O)c1ccc2ccccc2c1 (chirality)
COc1ccccc1C[N@@H+](C)S(=O)(=O)c1ccc2ccccc2c1 (3D coordinates assigned)
COc1ccccc1C[N@@H+](C)S(=O)(=O)c1ccc2ccccc2c1 (optimized conformer: 51.5207930837092 kcal/mol)

>  <smiles>  (35) 
COc1ccccc1CN(C)S(=O)(=O)c1ccc2ccccc2c1

>  <score_type>  (35) 
oracle

>  <origin>  (35) 
adg

>  <m_score__min__energy>  (35) 
-8.9399999999999995

>  <m_primary>  (35) 
energy

$$$$
35:0
     RDKit          3D

 53 54  0  0  0  0  0  0  0  0999 V2000
   -0.6122   23.0304  -30.0902 H   0  0  0  0  0  0  0  0  0  0  0  0
   -0.8020   23.8150  -29.3430 C   0  0  0  0  0  0  0  0  0  0  0  0
   -1.0100   24.6750  -28.5240 C   0  0  0  0  0  0  0  0  0  0  0  0
   -1.2620   25.7220  -27.5260 C   0  0  0  0  0  0  0  0  0  0  0  0
   -0.3105   26.2038  -27.2569 H   0  0  0  0  0  0  0  0  0  0  0  0
   -1.9523   26.4649  -27.9521 H   0  0  0  0  0  0  0  0  0  0  0  0
   -1.8720   25.1370  -26.3150 N   0  0  0  0  0  0  0  0  0  0  0  0
   -1.3650   25.7760  -25.0850 C   0  0  0  0  0  0  0  0  0  0  0  0
   -1.7763   25.2577  -24.2062 H   0  0  0  0  0  0  0  0  0  0  0  0
   -0.2669   25.7150  -25.0660 H   0  0  0  0  0  0  0  0  0  0  0  0
   -1.6740   26.8315  -25.0660 H   0  0  0  0  0  0  0  0  0  0  0  0
   -8.3400   22.7180  -31.2250 C   0  0  0  0  0  0  0  0  0  0  0  0
   -8.9604   23.3260  -30.5501 H   0  0  0  0  0  0  0  0  0  0  0  0
   -8.5996   22.9224  -32.2742 H   0  0  0  0  0  0  0  0  0  0  0  0
   -8.5890   21.2580  -30.9430 C   0  0  0  0  0  0  0  0  0  0  0  0
   -8.5460   20.9281  -29.8945 H   0  0  0  0  0  0  0  0  0  0  0  0
   -4.4490   24.2090  -28.3980 C   0  0  0  0  0  0  0  0  0  0  0  0
   -5.1402   25.0481  -28.5660 H   0  0  0  0  0  0  0  0  0  0  0  0
   -4.1010   23.2990  -29.5440 C   0  0  0  0  0  0  0  0  0  0  0  0
   -3.0391   23.0211  -29.4730 H   0  0  0  0  0  0  0  0  0  0  0  0
   -4.7382   22.4041  -29.4869 H   0  0  0  0  0  0  0  0  0  0  0  0
   -4.3410   23.9670  -30.8440 N   0  0  0  0  0  0  0  0  0  0  0  0
   -4.6240   23.0050  -31.9380 C   0  0  0  0  0  0  0  0  0  0  0  0
   -4.1214   23.3577  -32.8507 H   0  0  0  0  0  0  0  0  0  0  0  0
   -4.2519   22.0231  -31.6102 H   0  0  0  0  0  0  0  0  0  0  0  0
   -6.1270   22.8430  -32.2400 C   0  0  0  0  0  0  0  0  0  0  0  0
   -6.4263   23.5783  -33.0014 H   0  0  0  0  0  0  0  0  0  0  0  0
   -6.3116   21.8238  -32.6104 H   0  0  0  0  0  0  0  0  0  0  0  0
   -6.9170   23.0610  -31.0150 N   0  0  0  0  0  0  0  0  0  0  0  0
   -3.3510   25.1550  -26.3690 C   0  0  0  0  0  0  0  0  0  0  0  0
   -3.7389   25.0889  -25.3418 H   0  0  0  0  0  0  0  0  0  0  0  0
   -3.6479   26.0913  -26.8643 H   0  0  0  0  0  0  0  0  0  0  0  0
   -3.9330   24.0170  -27.1760 C   0  0  0  0  0  0  0  0  0  0  0  0
   -3.9330   23.0034  -26.7486 H   0  0  0  0  0  0  0  0  0  0  0  0
   -8.8590   20.3310  -31.8740 C   0  0  0  0  0  0  0  0  0  0  0  0
   -9.9125   20.1776  -32.1506 H   0  0  0  0  0  0  0  0  0  0  0  0
   -7.8440   19.5010  -32.5550 C   0  0  0  0  0  0  0  0  0  0  0  0
   -7.8060   18.1210  -32.3040 C   0  0  0  0  0  0  0  0  0  0  0  0
   -8.5149   17.6739  -31.5916 H   0  0  0  0  0  0  0  0  0  0  0  0
   -6.8690   17.3110  -32.9570 C   0  0  0  0  0  0  0  0  0  0  0  0
   -6.8333   16.2321  -32.7457 H   0  0  0  0  0  0  0  0  0  0  0  0
   -5.9790   17.8720  -33.8770 C   0  0  0  0  0  0  0  0  0  0  0  0
   -5.2376   17.2362  -34.3831 H   0  0  0  0  0  0  0  0  0  0  0  0
   -6.0310   19.2410  -34.1540 C   0  0  0  0  0  0  0  0  0  0  0  0
   -5.3358   19.6813  -34.8840 H   0  0  0  0  0  0  0  0  0  0  0  0
   -6.9670   20.0510  -33.5030 C   0  0  0  0  0  0  0  0  0  0  0  0
   -7.0162   21.1251  -33.7352 H   0  0  0  0  0  0  0  0  0  0  0  0
   -6.7920   24.4660  -30.5680 C   0  0  0  0  0  0  0  0  0  0  0  0
   -7.4967   25.0828  -31.1449 H   0  0  0  0  0  0  0  0  0  0  0  0
   -7.0148   24.4931  -29.4911 H   0  0  0  0  0  0  0  0  0  0  0  0
   -5.3660   25.0300  -30.7640 C   0  0  0  0  0  0  0  0  0  0  0  0
   -5.3426   25.6131  -31.6965 H   0  0  0  0  0  0  0  0  0  0  0  0
   -5.1312   25.6546  -29.8895 H   0  0  0  0  0  0  0  0  0  0  0  0
  1  2  1  0
  2  3  3  0
  3  4  1  0
  4  5  1  0
  4  6  1  0
  4  7  1  0
  7  8  1  0
  8  9  1  0
  8 10  1  0
  8 11  1  0
  7 12  1  0
 12 13  1  0
 12 14  1  0
 12 15  1  0
 15 16  1  0
 15 17  2  0
 17 18  1  0
 17 19  1  0
 19 20  1  0
 19 21  1  0
 19 22  1  0
 22 23  1  0
 23 24  1  0
 23 25  1  0
 23 26  1  0
 26 27  1  0
 26 28  1  0
 26 29  1  0
 29 30  1  0
 30 31  1  0
 30 32  1  0
 30 33  1  0
 33 34  1  0
 33 35  2  0
 35 36  1  0
 35 37  1  0
 37 38  2  0
 38 39  1  0
 38 40  1  0
 40 41  1  0
 40 42  2  0
 42 43  1  0
 42 44  1  0
 44 45  1  0
 44 46  2  0
 46 47  1  0
 29 48  1  0
 48 49  1  0
 48 50  1  0
 48 51  1  0
 51 52  1  0
 51 53  1  0
 51 22  1  0
 46 37  1  0
M  END
>  <UniqueID>  (36) 
34

>  <SMILES>  (36) 
C#CCN(C)C/C=C/CN1CCN(C/C=C\c2ccccc2)CC1

>  <Energy>  (36) 
65.54520385671518

>  <Genealogy>  (36) 
C#CCN(C)C/C=C/CN1CCN(C/C=C\c2ccccc2)CC1 (cis-trans isomerization)
C#CCN(C)C/C=C/CN1CCN(C/C=C\c2ccccc2)CC1 (3D coordinates assigned)
C#CCN(C)C/C=C/CN1CCN(C/C=C\c2ccccc2)CC1 (nonaromatic ring conformer: 65.54520385671518 kcal/mol)

>  <smiles>  (36) 
C#CCN(C)CC=CCN1CCN(CC=Cc2ccccc2)CC1

>  <score_type>  (36) 
oracle

>  <origin>  (36) 
adg

>  <m_score__min__energy>  (36) 
-8.2300000000000004

>  <m_primary>  (36) 
energy

$$$$
36:0
     RDKit          3D

 52 54  0  0  0  0  0  0  0  0999 V2000
   -9.0500   22.1690  -31.9180 C   0  0  0  0  0  0  0  0  0  0  0  0
   -8.2620   21.9450  -30.6260 C   0  0  0  0  0  0  0  0  0  0  0  0
   -6.9580   22.7560  -30.5810 C   0  0  0  0  0  0  0  0  0  0  0  0
   -6.6570   23.4630  -31.9080 C   0  0  0  0  0  0  0  0  0  0  0  0
   -5.4240   24.1770  -31.8240 O   0  0  0  0  0  0  0  0  0  0  0  0
   -5.1160   25.0600  -30.7850 C   0  0  0  0  0  0  0  0  0  0  0  0
   -6.0340   25.6370  -30.1380 O   0  0  0  0  0  0  0  0  0  0  0  0
   -3.7440   25.2980  -30.4580 N   0  0  0  0  0  0  0  0  0  0  0  0
   -3.0450   24.6210  -29.3720 C   0  0  0  0  0  0  0  0  0  0  0  0
   -2.9160   23.1570  -29.6690 C   0  0  0  0  0  0  0  0  0  0  0  0
   -3.2610   22.2000  -28.7050 C   0  0  0  0  0  0  0  0  0  0  0  0
   -3.0840   20.8460  -28.9930 C   0  0  0  0  0  0  0  0  0  0  0  0
   -2.5680   20.4590  -30.2290 C   0  0  0  0  0  0  0  0  0  0  0  0
   -2.2470   21.4400  -31.1820 C   0  0  0  0  0  0  0  0  0  0  0  0
   -1.6630   21.0840  -32.4910 C   0  0  0  0  0  0  0  0  0  0  0  0
   -0.4010   21.5150  -32.7640 N   0  0  0  0  0  0  0  0  0  0  0  0
    0.2400   21.1820  -33.9120 C   0  0  0  0  0  0  0  0  0  0  0  0
   -0.4030   20.3680  -34.8410 C   0  0  0  0  0  0  0  0  0  0  0  0
   -1.6710   19.9510  -34.5970 N   0  0  0  0  0  0  0  0  0  0  0  0
   -2.3360   20.2940  -33.4590 C   0  0  0  0  0  0  0  0  0  0  0  0
   -3.7470   19.8700  -33.3220 C   0  0  0  0  0  0  0  0  0  0  0  0
   -4.0980   18.5090  -33.3420 C   0  0  0  0  0  0  0  0  0  0  0  0
   -5.4330   18.1220  -33.1980 C   0  0  0  0  0  0  0  0  0  0  0  0
   -6.4360   19.0810  -33.0170 C   0  0  0  0  0  0  0  0  0  0  0  0
   -7.7610   18.6410  -32.8810 O   0  0  0  0  0  0  0  0  0  0  0  0
   -8.4940   18.6670  -31.6600 C   0  0  0  0  0  0  0  0  0  0  0  0
   -6.0830   20.4430  -32.9740 C   0  0  0  0  0  0  0  0  0  0  0  0
   -4.7480   20.8310  -33.1180 C   0  0  0  0  0  0  0  0  0  0  0  0
   -2.4090   22.7540  -30.8660 N   0  0  0  0  0  0  0  0  0  0  0  0
  -10.0813   22.4622  -31.6723 H   0  0  0  0  0  0  0  0  0  0  0  0
   -8.5720   22.9669  -32.5053 H   0  0  0  0  0  0  0  0  0  0  0  0
   -9.0632   21.2390  -32.5053 H   0  0  0  0  0  0  0  0  0  0  0  0
   -8.8910   22.2418  -29.7738 H   0  0  0  0  0  0  0  0  0  0  0  0
   -7.9932   20.8793  -30.5803 H   0  0  0  0  0  0  0  0  0  0  0  0
   -7.0421   23.5146  -29.7889 H   0  0  0  0  0  0  0  0  0  0  0  0
   -6.1352   22.0530  -30.3840 H   0  0  0  0  0  0  0  0  0  0  0  0
   -6.5877   22.7135  -32.7102 H   0  0  0  0  0  0  0  0  0  0  0  0
   -7.4671   24.1750  -32.1242 H   0  0  0  0  0  0  0  0  0  0  0  0
   -2.0419   25.0579  -29.2580 H   0  0  0  0  0  0  0  0  0  0  0  0
   -3.6193   24.7483  -28.4425 H   0  0  0  0  0  0  0  0  0  0  0  0
   -3.6670   22.5128  -27.7317 H   0  0  0  0  0  0  0  0  0  0  0  0
   -3.3514   20.0847  -28.2454 H   0  0  0  0  0  0  0  0  0  0  0  0
   -2.4134   19.3939  -30.4562 H   0  0  0  0  0  0  0  0  0  0  0  0
    1.2576   21.5513  -34.1072 H   0  0  0  0  0  0  0  0  0  0  0  0
    0.1124   20.0657  -35.7645 H   0  0  0  0  0  0  0  0  0  0  0  0
   -3.3177   17.7446  -33.4717 H   0  0  0  0  0  0  0  0  0  0  0  0
   -5.6977   17.0547  -33.2272 H   0  0  0  0  0  0  0  0  0  0  0  0
   -7.7942   18.6422  -30.8116 H   0  0  0  0  0  0  0  0  0  0  0  0
   -9.0951   19.5870  -31.6127 H   0  0  0  0  0  0  0  0  0  0  0  0
   -9.1588   17.7919  -31.6127 H   0  0  0  0  0  0  0  0  0  0  0  0
   -6.8617   21.2058  -32.8263 H   0  0  0  0  0  0  0  0  0  0  0  0
   -4.4807   21.8970  -33.0710 H   0  0  0  0  0  0  0  0  0  0  0  0
  1  2  1  0
  2  3  1  0
  3  4  1  0
  4  5  1  0
  5  6  1  0
  6  7  2  0
  6  8  1  0
  8  9  1  0
  9 10  1  0
 10 11  2  0
 11 12  1  0
 12 13  2  0
 13 14  1  0
 14 15  1  0
 15 16  2  0
 16 17  1  0
 17 18  2  0
 18 19  1  0
 19 20  2  0
 20 21  1  0
 21 22  2  0
 22 23  1  0
 23 24  2  0
 24 25  1  0
 25 26  1  0
 24 27  1  0
 27 28  2  0
 14 29  2  0
 29 10  1  0
 20 15  1  0
 28 21  1  0
  1 30  1  0
  1 31  1  0
  1 32  1  0
  2 33  1  0
  2 34  1  0
  3 35  1  0
  3 36  1  0
  4 37  1  0
  4 38  1  0
  9 39  1  0
  9 40  1  0
 11 41  1  0
 12 42  1  0
 13 43  1  0
 17 44  1  0
 18 45  1  0
 22 46  1  0
 23 47  1  0
 26 48  1  0
 26 49  1  0
 26 50  1  0
 27 51  1  0
 28 52  1  0
M  CHG  1   8  -1
M  END
>  <UniqueID>  (37) 
35

>  <SMILES>  (37) 
CCCCOC(=O)[N-]Cc1cccc(-c2nccnc2-c2ccc(OC)cc2)n1

>  <Energy>  (37) 
56.553114690401834

>  <Genealogy>  (37) 
CCCCOC(=O)[N-]Cc1cccc(-c2nccnc2-c2ccc(OC)cc2)n1 (protonated)
CCCCOC(=O)[N-]Cc1cccc(-c2nccnc2-c2ccc(OC)cc2)n1 (3D coordinates assigned)
CCCCOC(=O)[N-]Cc1cccc(-c2nccnc2-c2ccc(OC)cc2)n1 (optimized conformer: 56.553114690401834 kcal/mol)

>  <smiles>  (37) 
CCCCOC(=O)NCc1cccc(-c2nccnc2-c2ccc(OC)cc2)n1

>  <score_type>  (37) 
oracle

>  <origin>  (37) 
adg

>  <m_score__min__energy>  (37) 
-9.6400000000000006

>  <m_primary>  (37) 
energy

$$$$
37:0
     RDKit          3D

 58 62  0  0  0  0  0  0  0  0999 V2000
   -9.2660   20.4620  -32.3380 C   0  0  0  0  0  0  0  0  0  0  0  0
   -8.6710   21.4610  -31.3390 C   0  0  0  0  0  0  0  0  0  0  0  0
   -8.2990   22.7360  -31.9780 N   0  0  0  0  0  0  0  0  0  0  0  0
   -7.0980   23.3380  -31.3800 C   0  0  0  0  0  0  0  0  0  0  0  0
   -5.9120   23.2160  -32.3420 C   0  0  0  0  0  0  0  0  0  0  0  0
   -4.6410   23.1720  -31.5890 N   0  0  0  0  0  0  0  0  0  0  0  0
   -3.8700   22.0200  -31.5650 C   0  0  0  0  0  0  0  0  0  0  0  0
   -4.2240   20.7980  -32.3140 C   0  0  0  0  0  0  0  0  0  0  0  0
   -3.4260   20.3780  -33.3860 C   0  0  0  0  0  0  0  0  0  0  0  0
   -3.7610   19.2290  -34.1080 C   0  0  0  0  0  0  0  0  0  0  0  0
   -4.9060   18.4930  -33.7690 C   0  0  0  0  0  0  0  0  0  0  0  0
   -5.2520   17.3370  -34.4860 C   0  0  0  0  0  0  0  0  0  0  0  0
   -6.3970   16.6150  -34.1410 C   0  0  0  0  0  0  0  0  0  0  0  0
   -7.2040   17.0380  -33.0820 C   0  0  0  0  0  0  0  0  0  0  0  0
   -6.8710   18.1860  -32.3590 C   0  0  0  0  0  0  0  0  0  0  0  0
   -5.7230   18.9220  -32.6940 C   0  0  0  0  0  0  0  0  0  0  0  0
   -5.3780   20.0760  -31.9770 C   0  0  0  0  0  0  0  0  0  0  0  0
   -2.7230   22.0320  -30.7810 C   0  0  0  0  0  0  0  0  0  0  0  0
   -1.7940   21.0860  -30.5510 N   0  0  0  0  0  0  0  0  0  0  0  0
   -0.9070   21.6140  -29.7090 N   0  0  0  0  0  0  0  0  0  0  0  0
   -1.2500   22.8650  -29.4080 N   0  0  0  0  0  0  0  0  0  0  0  0
   -0.5260   23.7380  -28.4860 C   0  0  0  0  0  0  0  0  0  0  0  0
   -1.4470   24.8330  -27.9230 C   0  0  1  0  0  0  0  0  0  0  0  0
   -1.1810   25.1130  -26.4440 C   0  0  0  0  0  0  0  0  0  0  0  0
   -0.4030   26.3900  -26.4680 C   0  0  0  0  0  0  0  0  0  0  0  0
   -0.8490   27.0290  -27.7630 C   0  0  0  0  0  0  0  0  0  0  0  0
   -1.2480   26.0200  -28.6610 O   0  0  0  0  0  0  0  0  0  0  0  0
   -2.3840   23.1240  -30.0770 C   0  0  0  0  0  0  0  0  0  0  0  0
   -3.1240   24.2520  -30.0750 N   0  0  0  0  0  0  0  0  0  0  0  0
   -4.2620   24.2760  -30.8320 C   0  0  0  0  0  0  0  0  0  0  0  0
   -4.9700   25.3200  -30.8230 O   0  0  0  0  0  0  0  0  0  0  0  0
   -9.7541   19.6424  -31.7903 H   0  0  0  0  0  0  0  0  0  0  0  0
  -10.0070   20.9730  -32.9703 H   0  0  0  0  0  0  0  0  0  0  0  0
   -8.4637   20.0538  -32.9703 H   0  0  0  0  0  0  0  0  0  0  0  0
   -9.4150   21.6624  -30.5542 H   0  0  0  0  0  0  0  0  0  0  0  0
   -7.7568   21.0148  -30.9205 H   0  0  0  0  0  0  0  0  0  0  0  0
   -8.1340   22.5820  -33.0010 H   0  0  0  0  0  0  0  0  0  0  0  0
   -7.2893   24.4010  -31.1716 H   0  0  0  0  0  0  0  0  0  0  0  0
   -6.8585   22.8100  -30.4452 H   0  0  0  0  0  0  0  0  0  0  0  0
   -6.0165   22.2930  -32.9311 H   0  0  0  0  0  0  0  0  0  0  0  0
   -5.9018   24.0907  -33.0090 H   0  0  0  0  0  0  0  0  0  0  0  0
   -2.5311   20.9555  -33.6610 H   0  0  0  0  0  0  0  0  0  0  0  0
   -3.1254   18.9012  -34.9438 H   0  0  0  0  0  0  0  0  0  0  0  0
   -4.6205   16.9991  -35.3209 H   0  0  0  0  0  0  0  0  0  0  0  0
   -6.6643   15.7096  -34.7056 H   0  0  0  0  0  0  0  0  0  0  0  0
   -8.1047   16.4651  -32.8165 H   0  0  0  0  0  0  0  0  0  0  0  0
   -7.5094   18.5141  -31.5255 H   0  0  0  0  0  0  0  0  0  0  0  0
   -6.0147   20.4164  -31.1471 H   0  0  0  0  0  0  0  0  0  0  0  0
   -1.7540   20.1170  -30.9400 H   0  0  0  0  0  0  0  0  0  0  0  0
   -0.1338   23.1353  -27.6536 H   0  0  0  0  0  0  0  0  0  0  0  0
    0.2963   24.2207  -29.0345 H   0  0  0  0  0  0  0  0  0  0  0  0
   -2.4846   24.4790  -28.0123 H   0  0  0  0  0  0  0  0  0  0  0  0
   -2.1238   25.2367  -25.8910 H   0  0  0  0  0  0  0  0  0  0  0  0
   -0.6465   24.2937  -25.9410 H   0  0  0  0  0  0  0  0  0  0  0  0
   -0.6557   27.0243  -25.6055 H   0  0  0  0  0  0  0  0  0  0  0  0
    0.6849   26.2385  -26.4090 H   0  0  0  0  0  0  0  0  0  0  0  0
   -1.6950   27.7045  -27.5683 H   0  0  0  0  0  0  0  0  0  0  0  0
   -0.0186   27.6048  -28.1975 H   0  0  0  0  0  0  0  0  0  0  0  0
  1  2  1  0
  2  3  1  0
  3  4  1  0
  4  5  1  0
  5  6  1  0
  6  7  1  0
  7  8  1  0
  8  9  2  0
  9 10  1  0
 10 11  2  0
 11 12  1  0
 12 13  2  0
 13 14  1  0
 14 15  2  0
 15 16  1  0
 16 17  2  0
  7 18  2  0
 18 19  1  0
 19 20  2  0
 20 21  1  0
 21 22  1  0
 22 23  1  0
 23 24  1  0
 24 25  1  0
 25 26  1  0
 26 27  1  0
 21 28  1  0
 28 29  2  0
 29 30  1  0
 30 31  2  0
 30  6  1  0
 17  8  1  0
 28 18  1  0
 16 11  1  0
 27 23  1  0
  1 32  1  0
  1 33  1  0
  1 34  1  0
  2 35  1  0
  2 36  1  0
  3 37  1  0
  4 38  1  0
  4 39  1  0
  5 40  1  0
  5 41  1  0
  9 42  1  0
 10 43  1  0
 12 44  1  0
 13 45  1  0
 14 46  1  0
 15 47  1  0
 17 48  1  0
 19 49  1  0
 22 50  1  0
 22 51  1  0
 23 52  1  1
 24 53  1  0
 24 54  1  0
 25 55  1  0
 25 56  1  0
 26 57  1  0
 26 58  1  0
M  CHG  1  19   1
M  END
>  <UniqueID>  (38) 
36

>  <SMILES>  (38) 
CCNCCn1c(-c2ccc3ccccc3c2)c2[nH+]nn(C[C@H]3CCCO3)c2nc1=O

>  <Energy>  (38) 
119.94318756800008

>  <Genealogy>  (38) 
CCNCCn1c(-c2ccc3ccccc3c2)c2[nH+]nn(CC3CCCO3)c2nc1=O (protonated)
CCNCCn1c(-c2ccc3ccccc3c2)c2[nH+]nn(C[C@H]3CCCO3)c2nc1=O (chirality)
CCNCCn1c(-c2ccc3ccccc3c2)c2[nH+]nn(C[C@H]3CCCO3)c2nc1=O (3D coordinates assigned)
CCNCCn1c(-c2ccc3ccccc3c2)c2[nH+]nn(C[C@H]3CCCO3)c2nc1=O (nonaromatic ring conformer: 119.94318756800008 kcal/mol)

>  <smiles>  (38) 
CCNCCn1c(-c2ccc3ccccc3c2)c2nnn(CC3CCCO3)c2nc1=O

>  <score_type>  (38) 
oracle

>  <origin>  (38) 
adg

>  <m_score__min__energy>  (38) 
-9.3399999999999999

>  <m_primary>  (38) 
energy

$$$$
38:0
     RDKit          3D

 70 72  0  0  0  0  0  0  0  0999 V2000
   -5.6720   25.0670  -30.4090 C   0  0  0  0  0  0  0  0  0  0  0  0
   -4.5960   23.9700  -30.4480 C   0  0  0  0  0  0  0  0  0  0  0  0
   -4.3190   23.3540  -29.1290 N   0  0  0  0  0  0  0  0  0  0  0  0
   -3.4620   24.1960  -28.2640 C   0  0  0  0  0  0  0  0  0  0  0  0
   -4.2160   24.5400  -26.9860 C   0  0  0  0  0  0  0  0  0  0  0  0
   -3.8630   21.9510  -29.2270 C   0  0  0  0  0  0  0  0  0  0  0  0
   -2.8950   21.6030  -28.0870 C   0  0  0  0  0  0  0  0  0  0  0  0
   -2.1280   20.2970  -28.3790 C   0  0  0  0  0  0  0  0  0  0  0  0
   -0.9010   20.4650  -29.2020 N   0  0  0  0  0  0  0  0  0  0  0  0
   -0.6740   19.3530  -30.1660 C   0  0  0  0  0  0  0  0  0  0  0  0
   -1.3380   19.5470  -31.5530 C   0  0  0  0  0  0  0  0  0  0  0  0
   -1.8220   20.9230  -31.7430 N   0  0  0  0  0  0  0  0  0  0  0  0
   -2.3940   21.1980  -33.0830 C   0  0  0  0  0  0  0  0  0  0  0  0
   -3.7870   21.8540  -33.0850 C   0  0  0  0  0  0  0  0  0  0  0  0
   -4.7010   21.0570  -32.3610 O   0  0  0  0  0  0  0  0  0  0  0  0
   -5.7370   20.5630  -33.1930 C   0  0  0  0  0  0  0  0  0  0  0  0
   -7.0550   21.0470  -32.6340 C   0  0  0  0  0  0  0  0  0  0  0  0
   -8.1850   20.2080  -32.6380 C   0  0  0  0  0  0  0  0  0  0  0  0
   -9.4000   20.6540  -32.1080 C   0  0  0  0  0  0  0  0  0  0  0  0
   -9.4940   21.9330  -31.5560 C   0  0  0  0  0  0  0  0  0  0  0  0
   -8.3730   22.7680  -31.5280 C   0  0  0  0  0  0  0  0  0  0  0  0
   -7.1580   22.3290  -32.0640 C   0  0  0  0  0  0  0  0  0  0  0  0
   -5.7240   19.0470  -33.2500 C   0  0  0  0  0  0  0  0  0  0  0  0
   -5.7290   18.2610  -32.0810 C   0  0  0  0  0  0  0  0  0  0  0  0
   -5.7540   16.8650  -32.1660 C   0  0  0  0  0  0  0  0  0  0  0  0
   -5.7920   16.2400  -33.4140 C   0  0  0  0  0  0  0  0  0  0  0  0
   -5.8000   17.0090  -34.5810 C   0  0  0  0  0  0  0  0  0  0  0  0
   -5.7690   18.4040  -34.5010 C   0  0  0  0  0  0  0  0  0  0  0  0
   -0.8220   21.8940  -31.2920 C   0  0  0  0  0  0  0  0  0  0  0  0
   -0.7410   21.8400  -29.7620 C   0  0  0  0  0  0  0  0  0  0  0  0
   -5.9102   25.3099  -29.3629 H   0  0  0  0  0  0  0  0  0  0  0  0
   -5.2967   25.9670  -30.9181 H   0  0  0  0  0  0  0  0  0  0  0  0
   -6.5791   24.7092  -30.9181 H   0  0  0  0  0  0  0  0  0  0  0  0
   -4.9316   23.1798  -31.1357 H   0  0  0  0  0  0  0  0  0  0  0  0
   -3.6629   24.4494  -30.7790 H   0  0  0  0  0  0  0  0  0  0  0  0
   -2.5431   23.6465  -28.0114 H   0  0  0  0  0  0  0  0  0  0  0  0
   -3.1997   25.1221  -28.7965 H   0  0  0  0  0  0  0  0  0  0  0  0
   -3.6059   24.2616  -26.1141 H   0  0  0  0  0  0  0  0  0  0  0  0
   -4.4205   25.6205  -26.9605 H   0  0  0  0  0  0  0  0  0  0  0  0
   -5.1661   23.9863  -26.9605 H   0  0  0  0  0  0  0  0  0  0  0  0
   -4.7366   21.2848  -29.1724 H   0  0  0  0  0  0  0  0  0  0  0  0
   -3.3366   21.8210  -30.1840 H   0  0  0  0  0  0  0  0  0  0  0  0
   -2.1722   22.4236  -27.9682 H   0  0  0  0  0  0  0  0  0  0  0  0
   -3.4805   21.4622  -27.1665 H   0  0  0  0  0  0  0  0  0  0  0  0
   -1.8365   19.8491  -27.4175 H   0  0  0  0  0  0  0  0  0  0  0  0
   -2.8092   19.6623  -28.9648 H   0  0  0  0  0  0  0  0  0  0  0  0
   -0.1270   20.3640  -28.5030 H   0  0  0  0  0  0  0  0  0  0  0  0
    0.4104   19.2482  -30.3178 H   0  0  0  0  0  0  0  0  0  0  0  0
   -1.1395   18.4603  -29.7229 H   0  0  0  0  0  0  0  0  0  0  0  0
   -0.5995   19.3188  -32.3356 H   0  0  0  0  0  0  0  0  0  0  0  0
   -2.2031   18.8704  -31.6139 H   0  0  0  0  0  0  0  0  0  0  0  0
   -1.7029   21.8676  -33.6160 H   0  0  0  0  0  0  0  0  0  0  0  0
   -2.5202   20.2175  -33.5655 H   0  0  0  0  0  0  0  0  0  0  0  0
   -3.7216   22.8477  -32.6179 H   0  0  0  0  0  0  0  0  0  0  0  0
   -4.1376   21.9502  -34.1232 H   0  0  0  0  0  0  0  0  0  0  0  0
   -5.5889   20.9318  -34.2187 H   0  0  0  0  0  0  0  0  0  0  0  0
   -8.1121   19.1951  -33.0607 H   0  0  0  0  0  0  0  0  0  0  0  0
  -10.2819   19.9968  -32.1261 H   0  0  0  0  0  0  0  0  0  0  0  0
  -10.4510   22.2841  -31.1427 H   0  0  0  0  0  0  0  0  0  0  0  0
   -8.4467   23.7716  -31.0838 H   0  0  0  0  0  0  0  0  0  0  0  0
   -6.2787   22.9894  -32.0397 H   0  0  0  0  0  0  0  0  0  0  0  0
   -5.7131   18.7482  -31.0949 H   0  0  0  0  0  0  0  0  0  0  0  0
   -5.7437   16.2587  -31.2483 H   0  0  0  0  0  0  0  0  0  0  0  0
   -5.8156   15.1422  -33.4787 H   0  0  0  0  0  0  0  0  0  0  0  0
   -5.8307   16.5157  -35.5637 H   0  0  0  0  0  0  0  0  0  0  0  0
   -5.7799   19.0039  -35.4229 H   0  0  0  0  0  0  0  0  0  0  0  0
    0.1583   21.6438  -31.7238 H   0  0  0  0  0  0  0  0  0  0  0  0
   -1.1076   22.9053  -31.6172 H   0  0  0  0  0  0  0  0  0  0  0  0
    0.2399   22.2296  -29.4519 H   0  0  0  0  0  0  0  0  0  0  0  0
   -1.5738   22.4448  -29.3738 H   0  0  0  0  0  0  0  0  0  0  0  0
  1  2  1  0
  2  3  1  0
  3  4  1  0
  4  5  1  0
  3  6  1  0
  6  7  1  0
  7  8  1  0
  8  9  1  0
  9 10  1  0
 10 11  1  0
 11 12  1  0
 12 13  1  0
 13 14  1  0
 14 15  1  0
 15 16  1  0
 16 17  1  0
 17 18  2  0
 18 19  1  0
 19 20  2  0
 20 21  1  0
 21 22  2  0
 16 23  1  0
 23 24  2  0
 24 25  1  0
 25 26  2  0
 26 27  1  0
 27 28  2  0
 12 29  1  0
 29 30  1  0
 30  9  1  0
 22 17  1  0
 28 23  1  0
  1 31  1  0
  1 32  1  0
  1 33  1  0
  2 34  1  0
  2 35  1  0
  4 36  1  0
  4 37  1  0
  5 38  1  0
  5 39  1  0
  5 40  1  0
  6 41  1  0
  6 42  1  0
  7 43  1  0
  7 44  1  0
  8 45  1  0
  8 46  1  0
  9 47  1  0
 10 48  1  0
 10 49  1  0
 11 50  1  0
 11 51  1  0
 13 52  1  0
 13 53  1  0
 14 54  1  0
 14 55  1  0
 16 56  1  0
 18 57  1  0
 19 58  1  0
 20 59  1  0
 21 60  1  0
 22 61  1  0
 24 62  1  0
 25 63  1  0
 26 64  1  0
 27 65  1  0
 28 66  1  0
 29 67  1  0
 29 68  1  0
 30 69  1  0
 30 70  1  0
M  CHG  1   9   1
M  END
>  <UniqueID>  (39) 
37

>  <SMILES>  (39) 
CCN(CC)CCC[NH+]1CCN(CCOC(c2ccccc2)c2ccccc2)CC1

>  <Energy>  (39) 
91.46592191864715

>  <Genealogy>  (39) 
CCN(CC)CCC[NH+]1CCN(CCOC(c2ccccc2)c2ccccc2)CC1 (protonated)
CCN(CC)CCC[NH+]1CCN(CCOC(c2ccccc2)c2ccccc2)CC1 (3D coordinates assigned)
CCN(CC)CCC[NH+]1CCN(CCOC(c2ccccc2)c2ccccc2)CC1 (nonaromatic ring conformer: 91.46592191864715 kcal/mol)

>  <smiles>  (39) 
CCN(CC)CCCN1CCN(CCOC(c2ccccc2)c2ccccc2)CC1

>  <score_type>  (39) 
oracle

>  <origin>  (39) 
adg

>  <m_score__min__energy>  (39) 
-8.0899999999999999

>  <m_primary>  (39) 
energy

$$$$
39:0
     RDKit          3D

 41 43  0  0  0  0  0  0  0  0999 V2000
   -5.9194   16.6771  -32.9027 H   0  0  0  0  0  0  0  0  0  0  0  0
   -6.3080   17.7060  -32.9230 C   0  0  0  0  0  0  0  0  0  0  0  0
   -5.6740   18.6550  -33.8650 C   0  0  0  0  0  0  0  0  0  0  0  0
   -6.1220   18.7170  -35.0410 O   0  0  0  0  0  0  0  0  0  0  0  0
   -4.5130   19.4980  -33.4890 C   0  0  0  0  0  0  0  0  0  0  0  0
   -3.2150   19.1370  -33.8760 C   0  0  0  0  0  0  0  0  0  0  0  0
   -3.0563   18.2414  -34.4946 H   0  0  0  0  0  0  0  0  0  0  0  0
   -2.1270   19.9080  -33.4800 C   0  0  0  0  0  0  0  0  0  0  0  0
   -1.1106   19.6150  -33.7819 H   0  0  0  0  0  0  0  0  0  0  0  0
   -2.3170   21.0510  -32.7020 C   0  0  0  0  0  0  0  0  0  0  0  0
   -1.4449   21.6441  -32.3894 H   0  0  0  0  0  0  0  0  0  0  0  0
   -3.6130   21.4590  -32.3090 C   0  0  0  0  0  0  0  0  0  0  0  0
   -3.8140   22.6500  -31.4860 N   0  0  0  0  0  0  0  0  0  0  0  0
   -2.7420   23.0840  -30.5630 C   0  0  0  0  0  0  0  0  0  0  0  0
   -2.5057   22.2484  -29.8878 H   0  0  0  0  0  0  0  0  0  0  0  0
   -1.8828   23.3779  -31.1838 H   0  0  0  0  0  0  0  0  0  0  0  0
   -3.1170   24.3010  -29.7130 C   0  0  0  0  0  0  0  0  0  0  0  0
   -3.7064   23.9664  -28.8466 H   0  0  0  0  0  0  0  0  0  0  0  0
   -2.1916   24.7955  -29.3828 H   0  0  0  0  0  0  0  0  0  0  0  0
   -3.8760   25.2230  -30.4570 O   0  0  0  0  0  0  0  0  0  0  0  0
   -5.1360   24.6520  -30.7180 C   0  0  0  0  0  0  0  0  0  0  0  0
   -5.5670   24.2845  -29.7750 H   0  0  0  0  0  0  0  0  0  0  0  0
   -5.7843   25.4209  -31.1634 H   0  0  0  0  0  0  0  0  0  0  0  0
   -5.0150   23.4850  -31.7020 C   0  0  0  0  0  0  0  0  0  0  0  0
   -5.9052   22.8475  -31.5964 H   0  0  0  0  0  0  0  0  0  0  0  0
   -4.9285   23.9198  -32.7087 H   0  0  0  0  0  0  0  0  0  0  0  0
   -4.7060   20.6610  -32.7260 C   0  0  0  0  0  0  0  0  0  0  0  0
   -5.7275   20.9583  -32.4464 H   0  0  0  0  0  0  0  0  0  0  0  0
   -7.3200   18.0010  -32.0910 C   0  0  0  0  0  0  0  0  0  0  0  0
   -7.7307   17.1830  -31.4809 H   0  0  0  0  0  0  0  0  0  0  0  0
   -7.9250   19.3420  -31.9320 C   0  0  0  0  0  0  0  0  0  0  0  0
   -9.1910   19.5930  -32.4850 C   0  0  0  0  0  0  0  0  0  0  0  0
   -9.7147   18.7994  -33.0381 H   0  0  0  0  0  0  0  0  0  0  0  0
   -9.7880   20.8480  -32.3350 C   0  0  0  0  0  0  0  0  0  0  0  0
  -10.7862   21.0350  -32.7576 H   0  0  0  0  0  0  0  0  0  0  0  0
   -9.1190   21.8660  -31.6490 C   0  0  0  0  0  0  0  0  0  0  0  0
   -9.5956   22.8492  -31.5219 H   0  0  0  0  0  0  0  0  0  0  0  0
   -7.8450   21.6340  -31.1250 C   0  0  0  0  0  0  0  0  0  0  0  0
   -7.3148   22.4381  -30.5937 H   0  0  0  0  0  0  0  0  0  0  0  0
   -7.2430   20.3810  -31.2750 C   0  0  0  0  0  0  0  0  0  0  0  0
   -6.2321   20.2076  -30.8775 H   0  0  0  0  0  0  0  0  0  0  0  0
  1  2  1  0
  2  3  1  0
  3  4  2  0
  3  5  1  0
  5  6  2  0
  6  7  1  0
  6  8  1  0
  8  9  1  0
  8 10  2  0
 10 11  1  0
 10 12  1  0
 12 13  1  0
 13 14  1  0
 14 15  1  0
 14 16  1  0
 14 17  1  0
 17 18  1  0
 17 19  1  0
 17 20  1  0
 20 21  1  0
 21 22  1  0
 21 23  1  0
 21 24  1  0
 24 25  1  0
 24 26  1  0
 12 27  2  0
 27 28  1  0
  2 29  2  0
 29 30  1  0
 29 31  1  0
 31 32  2  0
 32 33  1  0
 32 34  1  0
 34 35  1  0
 34 36  2  0
 36 37  1  0
 36 38  1  0
 38 39  1  0
 38 40  2  0
 40 41  1  0
 27  5  1  0
 40 31  1  0
 24 13  1  0
M  END
>  <UniqueID>  (40) 
38

>  <SMILES>  (40) 
O=C(/C=C\c1ccccc1)c1cccc(N2CCOCC2)c1

>  <Energy>  (40) 
60.267037504575015

>  <Genealogy>  (40) 
O=C(/C=C\c1ccccc1)c1cccc(N2CCOCC2)c1 (cis-trans isomerization)
O=C(/C=C\c1ccccc1)c1cccc(N2CCOCC2)c1 (3D coordinates assigned)
O=C(/C=C\c1ccccc1)c1cccc(N2CCOCC2)c1 (nonaromatic ring conformer: 60.267037504575015 kcal/mol)

>  <smiles>  (40) 
O=C(C=Cc1ccccc1)c1cccc(N2CCOCC2)c1

>  <score_type>  (40) 
oracle

>  <origin>  (40) 
adg

>  <m_score__min__energy>  (40) 
-8.8200000000000003

>  <m_primary>  (40) 
energy

$$$$
40:0
     RDKit          3D

 65 69  0  0  1  0  0  0  0  0999 V2000
   -3.5080   18.8930  -26.3240 C   0  0  0  0  0  0  0  0  0  0  0  0
   -2.0120   19.0730  -26.4840 C   0  0  0  0  0  0  0  0  0  0  0  0
   -1.6710   20.2490  -27.2180 N   0  0  0  0  0  0  0  0  0  0  0  0
   -2.7920   21.1310  -27.4870 C   0  0  0  0  0  0  0  0  0  0  0  0
   -2.3900   22.5880  -27.3490 C   0  0  0  0  0  0  0  0  0  0  0  0
   -1.0840   22.7300  -26.7670 N   0  0  0  0  0  0  0  0  0  0  0  0
    0.1120   22.6370  -28.0020 S   0  0  0  0  0  0  0  0  0  0  0  0
    0.5990   24.0400  -28.3210 O   0  0  0  0  0  0  0  0  0  0  0  0
    1.3070   21.8930  -27.4550 O   0  0  0  0  0  0  0  0  0  0  0  0
   -0.4590   21.9400  -29.4760 C   0  0  0  0  0  0  0  0  0  0  0  0
   -0.2100   20.6500  -29.8840 C   0  0  0  0  0  0  0  0  0  0  0  0
   -0.7180   20.1930  -31.0920 C   0  0  0  0  0  0  0  0  0  0  0  0
   -1.4830   20.9880  -31.9280 C   0  0  0  0  0  0  0  0  0  0  0  0
   -1.9990   20.5040  -33.1710 N   0  0  0  0  0  0  0  0  0  0  0  0
   -3.0310   19.7340  -33.2540 C   0  0  0  0  0  0  0  0  0  0  0  0
   -4.2330   20.0410  -32.7300 N   0  0  0  0  0  0  0  0  0  0  0  0
   -5.3080   19.2330  -32.8190 C   0  0  0  0  0  0  0  0  0  0  0  0
   -5.2030   18.0340  -33.4650 C   0  0  0  0  0  0  0  0  0  0  0  0
   -3.9750   17.7080  -34.0060 C   0  0  0  0  0  0  0  0  0  0  0  0
   -2.9340   18.5520  -33.8880 N   0  0  0  0  0  0  0  0  0  0  0  0
   -6.2980   17.0620  -33.6220 C   0  0  0  0  0  0  0  0  0  0  0  0
   -7.6070   17.4260  -33.0660 C   0  0  0  0  0  0  0  0  0  0  0  0
   -7.6740   18.7270  -32.3620 C   0  0  0  0  0  0  0  0  0  0  0  0
   -8.7010   19.3020  -31.7430 N   0  0  0  0  0  0  0  0  0  0  0  0
   -8.3200   20.4720  -31.2510 N   0  0  0  0  0  0  0  0  0  0  0  0
   -9.2770   21.3240  -30.5330 C   0  0  0  0  0  0  0  0  0  0  0  0
   -7.0290   20.7140  -31.5240 C   0  0  0  0  0  0  0  0  0  0  0  0
   -6.2490   21.8990  -31.1940 C   0  0  0  0  0  0  0  0  0  0  0  0
   -5.0620   21.8280  -30.4750 C   0  0  0  0  0  0  0  0  0  0  0  0
   -4.3260   22.9400  -30.1330 C   0  0  0  0  0  0  0  0  0  0  0  0
   -4.7460   24.1980  -30.4990 C   0  0  0  0  0  0  0  0  0  0  0  0
   -5.9140   24.3040  -31.2100 C   0  0  0  0  0  0  0  0  0  0  0  0
   -6.6490   23.1860  -31.5500 C   0  0  0  0  0  0  0  0  0  0  0  0
   -8.1400   23.4630  -32.4320 Cl  0  0  0  0  0  0  0  0  0  0  0  0
   -6.6090   19.5910  -32.2410 C   0  0  0  0  0  0  0  0  0  0  0  0
   -1.7240   22.2830  -31.5020 C   0  0  0  0  0  0  0  0  0  0  0  0
   -1.2260   22.7430  -30.3140 C   0  0  0  0  0  0  0  0  0  0  0  0
   -3.7613   18.8625  -25.2540 H   0  0  0  0  0  0  0  0  0  0  0  0
   -4.0317   19.7346  -26.8009 H   0  0  0  0  0  0  0  0  0  0  0  0
   -3.8171   17.9512  -26.8009 H   0  0  0  0  0  0  0  0  0  0  0  0
   -1.5571   19.1384  -25.4846 H   0  0  0  0  0  0  0  0  0  0  0  0
   -1.6333   18.2087  -27.0493 H   0  0  0  0  0  0  0  0  0  0  0  0
   -0.8830   20.7580  -26.7460 H   0  0  0  0  0  0  0  0  0  0  0  0
   -3.1504   20.9533  -28.5117 H   0  0  0  0  0  0  0  0  0  0  0  0
   -3.5857   20.9181  -26.7558 H   0  0  0  0  0  0  0  0  0  0  0  0
   -2.3875   23.0523  -28.3462 H   0  0  0  0  0  0  0  0  0  0  0  0
   -3.1151   23.0805  -26.6844 H   0  0  0  0  0  0  0  0  0  0  0  0
   -0.8950   21.9790  -26.0710 H   0  0  0  0  0  0  0  0  0  0  0  0
    0.3921   19.9803  -29.2524 H   0  0  0  0  0  0  0  0  0  0  0  0
   -0.5043   19.1580  -31.3972 H   0  0  0  0  0  0  0  0  0  0  0  0
   -3.8473   16.7528  -34.5364 H   0  0  0  0  0  0  0  0  0  0  0  0
   -2.0380   18.2430  -34.3220 H   0  0  0  0  0  0  0  0  0  0  0  0
   -6.4336   16.8884  -34.6997 H   0  0  0  0  0  0  0  0  0  0  0  0
   -5.9800   16.1827  -33.0426 H   0  0  0  0  0  0  0  0  0  0  0  0
   -8.3289   17.4546  -33.8955 H   0  0  0  0  0  0  0  0  0  0  0  0
   -7.8276   16.6644  -32.3035 H   0  0  0  0  0  0  0  0  0  0  0  0
   -9.1372   21.1996  -29.4490 H   0  0  0  0  0  0  0  0  0  0  0  0
   -9.1080   22.3761  -30.8061 H   0  0  0  0  0  0  0  0  0  0  0  0
  -10.3025   21.0344  -30.8061 H   0  0  0  0  0  0  0  0  0  0  0  0
   -4.6939   20.8388  -30.1652 H   0  0  0  0  0  0  0  0  0  0  0  0
   -3.3934   22.8216  -29.5618 H   0  0  0  0  0  0  0  0  0  0  0  0
   -4.1631   25.0911  -30.2297 H   0  0  0  0  0  0  0  0  0  0  0  0
   -6.2718   25.2984  -31.5150 H   0  0  0  0  0  0  0  0  0  0  0  0
   -2.3272   22.9545  -32.1306 H   0  0  0  0  0  0  0  0  0  0  0  0
   -1.4384   23.7792  -30.0121 H   0  0  0  0  0  0  0  0  0  0  0  0
  1  2  1  0
  2  3  1  0
  3  4  1  0
  4  5  1  0
  5  6  1  0
  6  7  1  0
  7  8  2  0
  7  9  2  0
  7 10  1  0
 10 11  2  0
 11 12  1  0
 12 13  2  0
 13 14  1  0
 14 15  2  0
 15 16  1  0
 16 17  2  0
 17 18  1  0
 18 19  2  0
 19 20  1  0
 18 21  1  0
 21 22  1  0
 22 23  1  0
 23 24  2  0
 24 25  1  0
 25 26  1  0
 25 27  1  0
 27 28  1  0
 28 29  2  0
 29 30  1  0
 30 31  2  0
 31 32  1  0
 32 33  2  0
 33 34  1  0
 27 35  2  0
 13 36  1  0
 36 37  2  0
 37 10  1  0
 20 15  1  0
 35 23  1  0
 35 17  1  0
 33 28  1  0
  1 38  1  0
  1 39  1  0
  1 40  1  0
  2 41  1  0
  2 42  1  0
  3 43  1  0
  4 44  1  0
  4 45  1  0
  5 46  1  0
  5 47  1  0
  6 48  1  0
 11 49  1  0
 12 50  1  0
 19 51  1  0
 20 52  1  0
 21 53  1  0
 21 54  1  0
 22 55  1  0
 22 56  1  0
 26 57  1  0
 26 58  1  0
 26 59  1  0
 29 60  1  0
 30 61  1  0
 31 62  1  0
 32 63  1  0
 36 64  1  0
 37 65  1  0
M  END
>  <smiles>  (41) 
CCNCCNS(=O)(=O)c1ccc(N=c2nc3c(c[nH]2)CCc2nn(C)c(-c4ccccc4Cl)c2-3)cc1

>  <score_type>  (41) 
oracle

>  <origin>  (41) 
adg

>  <m_score__min__energy>  (41) 
-10.609999999999999

>  <m_primary>  (41) 
energy

$$$$
41:0
     RDKit          3D

 57 59  0  0  0  0  0  0  0  0999 V2000
   -3.4780   19.0000  -26.8620 C   0  0  0  0  0  0  0  0  0  0  0  0
   -2.0400   18.7790  -26.4090 C   0  0  0  0  0  0  0  0  0  0  0  0
   -1.1220   19.0220  -27.5460 N   0  0  0  0  0  0  0  0  0  0  0  0
   -0.8620   20.4640  -27.7640 C   0  0  0  0  0  0  0  0  0  0  0  0
   -1.2070   21.2980  -26.5300 C   0  0  0  0  0  0  0  0  0  0  0  0
    0.0900   18.1700  -27.4860 C   0  0  0  0  0  0  0  0  0  0  0  0
    0.6570   17.7730  -28.8660 C   0  0  0  0  0  0  0  0  0  0  0  0
   -0.1670   18.3360  -29.9340 N   0  0  0  0  0  0  0  0  0  0  0  0
   -0.1090   17.8520  -31.2850 C   0  0  0  0  0  0  0  0  0  0  0  0
    0.7350   16.9690  -31.6090 O   0  0  0  0  0  0  0  0  0  0  0  0
   -1.0780   18.3500  -32.3140 C   0  0  0  0  0  0  0  0  0  0  0  0
   -1.4450   19.7840  -32.0670 C   0  0  0  0  0  0  0  0  0  0  0  0
   -1.8140   20.2610  -30.8650 N   0  0  0  0  0  0  0  0  0  0  0  0
   -2.0700   21.5670  -31.1000 C   0  0  0  0  0  0  0  0  0  0  0  0
   -2.5550   22.5000  -30.0340 C   0  0  0  0  0  0  0  0  0  0  0  0
   -3.8220   23.2110  -30.4850 C   0  0  0  0  0  0  0  0  0  0  0  0
   -3.8850   24.6120  -30.2870 C   0  0  0  0  0  0  0  0  0  0  0  0
   -2.8100   25.2950  -29.7220 O   0  0  0  0  0  0  0  0  0  0  0  0
   -5.0170   25.3380  -30.6490 C   0  0  0  0  0  0  0  0  0  0  0  0
   -6.1090   24.6980  -31.2260 C   0  0  0  0  0  0  0  0  0  0  0  0
   -6.0820   23.3170  -31.4520 C   0  0  0  0  0  0  0  0  0  0  0  0
   -7.1830   22.7000  -32.0620 C   0  0  0  0  0  0  0  0  0  0  0  0
   -7.1810   21.3240  -32.3040 C   0  0  0  0  0  0  0  0  0  0  0  0
   -6.0880   20.5510  -31.9240 C   0  0  0  0  0  0  0  0  0  0  0  0
   -4.9840   21.1460  -31.3070 C   0  0  0  0  0  0  0  0  0  0  0  0
   -4.9450   22.5460  -31.0720 C   0  0  0  0  0  0  0  0  0  0  0  0
   -1.8760   21.9420  -32.3860 N   0  0  0  0  0  0  0  0  0  0  0  0
   -1.4800   20.8060  -32.9910 C   0  0  0  0  0  0  0  0  0  0  0  0
   -1.1650   20.7060  -34.4500 C   0  0  0  0  0  0  0  0  0  0  0  0
   -4.1288   19.1000  -25.9808 H   0  0  0  0  0  0  0  0  0  0  0  0
   -3.5352   19.9175  -27.4661 H   0  0  0  0  0  0  0  0  0  0  0  0
   -3.8081   18.1420  -27.4661 H   0  0  0  0  0  0  0  0  0  0  0  0
   -1.8023   19.4744  -25.5905 H   0  0  0  0  0  0  0  0  0  0  0  0
   -1.9213   17.7439  -26.0563 H   0  0  0  0  0  0  0  0  0  0  0  0
    0.2036   20.6016  -27.9998 H   0  0  0  0  0  0  0  0  0  0  0  0
   -1.4987   20.8037  -28.5942 H   0  0  0  0  0  0  0  0  0  0  0  0
   -0.9698   20.7245  -25.6218 H   0  0  0  0  0  0  0  0  0  0  0  0
   -0.6198   22.2281  -26.5402 H   0  0  0  0  0  0  0  0  0  0  0  0
   -2.2797   21.5415  -26.5402 H   0  0  0  0  0  0  0  0  0  0  0  0
    0.8701   18.7189  -26.9381 H   0  0  0  0  0  0  0  0  0  0  0  0
   -0.2064   17.2357  -26.9868 H   0  0  0  0  0  0  0  0  0  0  0  0
    1.6840   18.1556  -28.9601 H   0  0  0  0  0  0  0  0  0  0  0  0
    0.6540   16.6764  -28.9521 H   0  0  0  0  0  0  0  0  0  0  0  0
   -0.8060   19.1340  -29.7030 H   0  0  0  0  0  0  0  0  0  0  0  0
   -0.6191   18.2638  -33.3100 H   0  0  0  0  0  0  0  0  0  0  0  0
   -1.9925   17.7417  -32.2535 H   0  0  0  0  0  0  0  0  0  0  0  0
   -2.7676   21.9262  -29.1199 H   0  0  0  0  0  0  0  0  0  0  0  0
   -1.7760   23.2513  -29.8372 H   0  0  0  0  0  0  0  0  0  0  0  0
   -5.0478   26.4241  -30.4776 H   0  0  0  0  0  0  0  0  0  0  0  0
   -6.9989   25.2806  -31.5063 H   0  0  0  0  0  0  0  0  0  0  0  0
   -8.0553   23.3039  -32.3524 H   0  0  0  0  0  0  0  0  0  0  0  0
   -8.0442   20.8512  -32.7954 H   0  0  0  0  0  0  0  0  0  0  0  0
   -6.0929   19.4669  -32.1100 H   0  0  0  0  0  0  0  0  0  0  0  0
   -4.1330   20.5208  -30.9990 H   0  0  0  0  0  0  0  0  0  0  0  0
   -0.1237   20.3754  -34.5785 H   0  0  0  0  0  0  0  0  0  0  0  0
   -1.8416   19.9785  -34.9222 H   0  0  0  0  0  0  0  0  0  0  0  0
   -1.2981   21.6906  -34.9222 H   0  0  0  0  0  0  0  0  0  0  0  0
  1  2  1  0
  2  3  1  0
  3  4  1  0
  4  5  1  0
  3  6  1  0
  6  7  1  0
  7  8  1  0
  8  9  1  0
  9 10  2  0
  9 11  1  0
 11 12  1  0
 12 13  1  0
 13 14  2  0
 14 15  1  0
 15 16  1  0
 16 17  2  0
 17 18  1  0
 17 19  1  0
 19 20  2  0
 20 21  1  0
 21 22  2  0
 22 23  1  0
 23 24  2  0
 24 25  1  0
 25 26  2  0
 14 27  1  0
 27 28  1  0
 28 29  1  0
 28 12  2  0
 26 16  1  0
 26 21  1  0
  1 30  1  0
  1 31  1  0
  1 32  1  0
  2 33  1  0
  2 34  1  0
  4 35  1  0
  4 36  1  0
  5 37  1  0
  5 38  1  0
  5 39  1  0
  6 40  1  0
  6 41  1  0
  7 42  1  0
  7 43  1  0
  8 44  1  0
 11 45  1  0
 11 46  1  0
 15 47  1  0
 15 48  1  0
 19 49  1  0
 20 50  1  0
 22 51  1  0
 23 52  1  0
 24 53  1  0
 25 54  1  0
 29 55  1  0
 29 56  1  0
 29 57  1  0
M  CHG  2  18  -1  27  -1
M  END
>  <UniqueID>  (42) 
39

>  <SMILES>  (42) 
CCN(CC)CCNC(=O)Cc1nc(Cc2c([O-])ccc3ccccc23)[n-]c1C

>  <Energy>  (42) 
89.28368219875313

>  <Genealogy>  (42) 
CCN(CC)CCNC(=O)Cc1nc(Cc2c([O-])ccc3ccccc23)[n-]c1C (protonated)
CCN(CC)CCNC(=O)Cc1nc(Cc2c([O-])ccc3ccccc23)[n-]c1C (3D coordinates assigned)
CCN(CC)CCNC(=O)Cc1nc(Cc2c([O-])ccc3ccccc23)[n-]c1C (optimized conformer: 89.28368219875313 kcal/mol)

>  <smiles>  (42) 
CCN(CC)CCNC(=O)Cc1nc(Cc2c(O)ccc3ccccc23)[nH]c1C

>  <score_type>  (42) 
oracle

>  <origin>  (42) 
adg

>  <m_score__min__energy>  (42) 
-11.880000000000001

>  <m_primary>  (42) 
energy

$$$$
42:0
     RDKit          3D

 49 51  0  0  0  0  0  0  0  0999 V2000
   -0.6330   22.7580  -29.7490 C   0  0  0  0  0  0  0  0  0  0  0  0
   -1.8010   22.9260  -28.8780 N   0  0  0  0  0  0  0  0  0  0  0  0
   -2.2540   21.7640  -28.1080 C   0  0  0  0  0  0  0  0  0  0  0  0
   -2.4400   24.2190  -28.7320 C   0  0  0  0  0  0  0  0  0  0  0  0
   -1.9610   25.2210  -29.3310 O   0  0  0  0  0  0  0  0  0  0  0  0
   -3.7320   24.3880  -27.9620 C   0  0  0  0  0  0  0  0  0  0  0  0
   -4.9960   24.2150  -28.8280 C   0  0  0  0  0  0  0  0  0  0  0  0
   -5.0750   25.1830  -30.0250 C   0  0  0  0  0  0  0  0  0  0  0  0
   -5.8330   24.6220  -31.2320 C   0  0  0  0  0  0  0  0  0  0  0  0
   -4.9970   23.6850  -31.9710 N   0  0  0  0  0  0  0  0  0  0  0  0
   -4.8320   22.3150  -31.5960 C   0  0  0  0  0  0  0  0  0  0  0  0
   -3.9850   22.0120  -30.7150 O   0  0  0  0  0  0  0  0  0  0  0  0
   -5.6300   21.2430  -32.2360 C   0  0  0  0  0  0  0  0  0  0  0  0
   -4.9900   20.2240  -32.9780 C   0  0  0  0  0  0  0  0  0  0  0  0
   -3.5880   20.1790  -33.1350 C   0  0  0  0  0  0  0  0  0  0  0  0
   -2.9890   19.1590  -33.8780 C   0  0  0  0  0  0  0  0  0  0  0  0
   -3.7720   18.1710  -34.4750 C   0  0  0  0  0  0  0  0  0  0  0  0
   -5.1600   18.1980  -34.3320 C   0  0  0  0  0  0  0  0  0  0  0  0
   -5.7790   19.2180  -33.5880 C   0  0  0  0  0  0  0  0  0  0  0  0
   -7.1360   19.2360  -33.4620 N   0  0  0  0  0  0  0  0  0  0  0  0
   -7.7790   20.2100  -32.7570 C   0  0  0  0  0  0  0  0  0  0  0  0
   -9.1810   20.1940  -32.6610 C   0  0  0  0  0  0  0  0  0  0  0  0
   -9.8520   21.1890  -31.9460 C   0  0  0  0  0  0  0  0  0  0  0  0
   -9.1310   22.2060  -31.3220 C   0  0  0  0  0  0  0  0  0  0  0  0
   -7.7380   22.2360  -31.4090 C   0  0  0  0  0  0  0  0  0  0  0  0
   -7.0410   21.2400  -32.1260 C   0  0  0  0  0  0  0  0  0  0  0  0
    0.2686   22.6283  -29.1323 H   0  0  0  0  0  0  0  0  0  0  0  0
   -0.7737   21.8708  -30.3840 H   0  0  0  0  0  0  0  0  0  0  0  0
   -0.5179   23.6488  -30.3840 H   0  0  0  0  0  0  0  0  0  0  0  0
   -2.1694   21.9809  -27.0329 H   0  0  0  0  0  0  0  0  0  0  0  0
   -3.3031   21.5457  -28.3566 H   0  0  0  0  0  0  0  0  0  0  0  0
   -1.6295   20.8933  -28.3566 H   0  0  0  0  0  0  0  0  0  0  0  0
   -3.7572   23.6388  -27.1570 H   0  0  0  0  0  0  0  0  0  0  0  0
   -3.7445   25.4182  -27.5766 H   0  0  0  0  0  0  0  0  0  0  0  0
   -5.0118   23.1853  -29.2146 H   0  0  0  0  0  0  0  0  0  0  0  0
   -5.8572   24.4387  -28.1812 H   0  0  0  0  0  0  0  0  0  0  0  0
   -5.5826   26.1011  -29.6942 H   0  0  0  0  0  0  0  0  0  0  0  0
   -4.0417   25.3652  -30.3552 H   0  0  0  0  0  0  0  0  0  0  0  0
   -6.7367   24.1019  -30.8817 H   0  0  0  0  0  0  0  0  0  0  0  0
   -6.1072   25.4541  -31.8971 H   0  0  0  0  0  0  0  0  0  0  0  0
   -2.9618   20.9537  -32.6683 H   0  0  0  0  0  0  0  0  0  0  0  0
   -1.8953   19.1348  -33.9928 H   0  0  0  0  0  0  0  0  0  0  0  0
   -3.2951   17.3700  -35.0589 H   0  0  0  0  0  0  0  0  0  0  0  0
   -5.7735   17.4166  -34.8042 H   0  0  0  0  0  0  0  0  0  0  0  0
   -7.7000   18.4840  -33.9210 H   0  0  0  0  0  0  0  0  0  0  0  0
   -9.7535   19.3931  -33.1518 H   0  0  0  0  0  0  0  0  0  0  0  0
  -10.9496   21.1700  -31.8753 H   0  0  0  0  0  0  0  0  0  0  0  0
   -9.6617   22.9878  -30.7589 H   0  0  0  0  0  0  0  0  0  0  0  0
   -7.1784   23.0434  -30.9141 H   0  0  0  0  0  0  0  0  0  0  0  0
  1  2  1  0
  2  3  1  0
  2  4  1  0
  4  5  2  0
  4  6  1  0
  6  7  1  0
  7  8  1  0
  8  9  1  0
  9 10  1  0
 10 11  1  0
 11 12  2  0
 11 13  1  0
 13 14  2  0
 14 15  1  0
 15 16  2  0
 16 17  1  0
 17 18  2  0
 18 19  1  0
 19 20  2  0
 20 21  1  0
 21 22  2  0
 22 23  1  0
 23 24  2  0
 24 25  1  0
 25 26  2  0
 26 13  1  0
 19 14  1  0
 26 21  1  0
  1 27  1  0
  1 28  1  0
  1 29  1  0
  3 30  1  0
  3 31  1  0
  3 32  1  0
  6 33  1  0
  6 34  1  0
  7 35  1  0
  7 36  1  0
  8 37  1  0
  8 38  1  0
  9 39  1  0
  9 40  1  0
 15 41  1  0
 16 42  1  0
 17 43  1  0
 18 44  1  0
 20 45  1  0
 22 46  1  0
 23 47  1  0
 24 48  1  0
 25 49  1  0
M  CHG  2  10  -1  20   1
M  END
>  <UniqueID>  (43) 
40

>  <SMILES>  (43) 
CN(C)C(=O)CCCC[N-]C(=O)c1c2ccccc2[nH+]c2ccccc12

>  <Energy>  (43) 
59.8400076530974

>  <Genealogy>  (43) 
CN(C)C(=O)CCCC[N-]C(=O)c1c2ccccc2[nH+]c2ccccc12 (protonated)
CN(C)C(=O)CCCC[N-]C(=O)c1c2ccccc2[nH+]c2ccccc12 (3D coordinates assigned)
CN(C)C(=O)CCCC[N-]C(=O)c1c2ccccc2[nH+]c2ccccc12 (optimized conformer: 59.8400076530974 kcal/mol)

>  <smiles>  (43) 
CN(C)C(=O)CCCCNC(=O)c1c2ccccc2nc2ccccc12

>  <score_type>  (43) 
oracle

>  <origin>  (43) 
adg

>  <m_score__min__energy>  (43) 
-9.3699999999999992

>  <m_primary>  (43) 
energy

$$$$
43:0
     RDKit          3D

 47 49  0  0  0  0  0  0  0  0999 V2000
   -3.7370   21.2140  -31.9310 C   0  0  0  0  0  0  0  0  0  0  0  0
   -4.4720   22.3970  -32.5520 C   0  0  0  0  0  0  0  0  0  0  0  0
   -5.5590   22.8470  -31.6750 N   0  0  0  0  0  0  0  0  0  0  0  0
   -6.8640   22.2420  -31.7510 C   0  0  0  0  0  0  0  0  0  0  0  0
   -8.0150   23.0390  -31.8820 C   0  0  0  0  0  0  0  0  0  0  0  0
   -9.2780   22.4440  -31.9640 C   0  0  0  0  0  0  0  0  0  0  0  0
   -9.4020   21.0540  -31.9180 C   0  0  0  0  0  0  0  0  0  0  0  0
   -8.2630   20.2540  -31.7910 C   0  0  0  0  0  0  0  0  0  0  0  0
   -6.9980   20.8440  -31.7090 C   0  0  0  0  0  0  0  0  0  0  0  0
   -5.2520   24.1000  -30.5080 S   0  0  0  0  0  0  0  0  0  0  0  0
   -6.5210   24.4300  -29.7740 O   0  0  0  0  0  0  0  0  0  0  0  0
   -4.7840   25.3460  -31.2090 O   0  0  0  0  0  0  0  0  0  0  0  0
   -4.0180   23.5620  -29.3720 C   0  0  0  0  0  0  0  0  0  0  0  0
   -4.1330   22.3060  -28.7630 C   0  0  0  0  0  0  0  0  0  0  0  0
   -3.1760   21.8840  -27.8380 C   0  0  0  0  0  0  0  0  0  0  0  0
   -2.0940   22.7090  -27.5220 C   0  0  0  0  0  0  0  0  0  0  0  0
   -1.9550   23.9620  -28.1390 C   0  0  0  0  0  0  0  0  0  0  0  0
   -0.8250   24.8510  -27.7980 C   0  0  0  0  0  0  0  0  0  0  0  0
    0.2600   24.7250  -28.4280 O   0  0  0  0  0  0  0  0  0  0  0  0
   -0.9280   25.8370  -26.7540 N   0  0  0  0  0  0  0  0  0  0  0  0
   -1.8530   25.7420  -25.6350 C   0  0  0  0  0  0  0  0  0  0  0  0
   -1.3190   26.7020  -24.5810 C   0  0  0  0  0  0  0  0  0  0  0  0
   -0.3670   27.6380  -25.3200 C   0  0  0  0  0  0  0  0  0  0  0  0
    0.0640   26.8810  -26.5680 C   0  0  0  0  0  0  0  0  0  0  0  0
   -2.9320   24.3900  -29.0540 C   0  0  0  0  0  0  0  0  0  0  0  0
   -3.7832   21.2883  -30.8345 H   0  0  0  0  0  0  0  0  0  0  0  0
   -4.2117   20.2762  -32.2553 H   0  0  0  0  0  0  0  0  0  0  0  0
   -2.6859   21.2242  -32.2553 H   0  0  0  0  0  0  0  0  0  0  0  0
   -3.7630   23.2244  -32.7029 H   0  0  0  0  0  0  0  0  0  0  0  0
   -4.9002   22.0828  -33.5153 H   0  0  0  0  0  0  0  0  0  0  0  0
   -7.9217   24.1344  -31.9201 H   0  0  0  0  0  0  0  0  0  0  0  0
  -10.1753   23.0722  -32.0649 H   0  0  0  0  0  0  0  0  0  0  0  0
  -10.3965   20.5884  -31.9817 H   0  0  0  0  0  0  0  0  0  0  0  0
   -8.3619   19.1590  -31.7555 H   0  0  0  0  0  0  0  0  0  0  0  0
   -6.1038   20.2109  -31.6112 H   0  0  0  0  0  0  0  0  0  0  0  0
   -4.9796   21.6502  -29.0141 H   0  0  0  0  0  0  0  0  0  0  0  0
   -3.2743   20.8996  -27.3570 H   0  0  0  0  0  0  0  0  0  0  0  0
   -1.3475   22.3752  -26.7863 H   0  0  0  0  0  0  0  0  0  0  0  0
   -2.8652   26.0386  -25.9471 H   0  0  0  0  0  0  0  0  0  0  0  0
   -1.9236   24.7136  -25.2510 H   0  0  0  0  0  0  0  0  0  0  0  0
   -2.1436   27.2724  -24.1287 H   0  0  0  0  0  0  0  0  0  0  0  0
   -0.8109   26.1674  -23.7649 H   0  0  0  0  0  0  0  0  0  0  0  0
   -0.8817   28.5704  -25.5950 H   0  0  0  0  0  0  0  0  0  0  0  0
    0.4944   27.9183  -24.6960 H   0  0  0  0  0  0  0  0  0  0  0  0
    0.0812   27.5536  -27.4382 H   0  0  0  0  0  0  0  0  0  0  0  0
    1.0770   26.4655  -26.4623 H   0  0  0  0  0  0  0  0  0  0  0  0
   -2.8442   25.3808  -29.5237 H   0  0  0  0  0  0  0  0  0  0  0  0
  1  2  1  0
  2  3  1  0
  3  4  1  0
  4  5  2  0
  5  6  1  0
  6  7  2  0
  7  8  1  0
  8  9  2  0
  3 10  1  0
 10 11  2  0
 10 12  2  0
 10 13  1  0
 13 14  2  0
 14 15  1  0
 15 16  2  0
 16 17  1  0
 17 18  1  0
 18 19  2  0
 18 20  1  0
 20 21  1  0
 21 22  1  0
 22 23  1  0
 23 24  1  0
 17 25  2  0
  9  4  1  0
 25 13  1  0
 24 20  1  0
  1 26  1  0
  1 27  1  0
  1 28  1  0
  2 29  1  0
  2 30  1  0
  5 31  1  0
  6 32  1  0
  7 33  1  0
  8 34  1  0
  9 35  1  0
 14 36  1  0
 15 37  1  0
 16 38  1  0
 21 39  1  0
 21 40  1  0
 22 41  1  0
 22 42  1  0
 23 43  1  0
 23 44  1  0
 24 45  1  0
 24 46  1  0
 25 47  1  0
M  END
>  <UniqueID>  (44) 
41

>  <SMILES>  (44) 
CCN(c1ccccc1)S(=O)(=O)c1cccc(C(=O)N2CCCC2)c1

>  <Energy>  (44) 
53.237645632351494

>  <Genealogy>  (44) 
CCN(c1ccccc1)S(=O)(=O)c1cccc(C(=O)N2CCCC2)c1 (3D coordinates assigned)
CCN(c1ccccc1)S(=O)(=O)c1cccc(C(=O)N2CCCC2)c1 (nonaromatic ring conformer: 53.237645632351494 kcal/mol)

>  <smiles>  (44) 
CCN(c1ccccc1)S(=O)(=O)c1cccc(C(=O)N2CCCC2)c1

>  <score_type>  (44) 
oracle

>  <origin>  (44) 
adg

>  <m_score__min__energy>  (44) 
-9.2300000000000004

>  <m_primary>  (44) 
energy

$$$$
44:0
     RDKit          3D

 59 63  0  0  0  0  0  0  0  0999 V2000
   -2.4570   19.6530  -26.9730 C   0  0  0  0  0  0  0  0  0  0  0  0
   -3.0560   20.3970  -28.1750 C   0  0  0  0  0  0  0  0  0  0  0  0
   -2.4110   21.7970  -28.4400 C   0  0  2  0  0  0  0  0  0  0  0  0
   -1.9670   22.3190  -27.2060 O   0  0  0  0  0  0  0  0  0  0  0  0
   -3.3720   22.8360  -29.0240 C   0  0  0  0  0  0  0  0  0  0  0  0
   -4.7660   22.6570  -29.1580 C   0  0  0  0  0  0  0  0  0  0  0  0
   -5.5560   23.6710  -29.7030 C   0  0  0  0  0  0  0  0  0  0  0  0
   -4.9590   24.8620  -30.1100 C   0  0  0  0  0  0  0  0  0  0  0  0
   -3.6190   25.0280  -29.9820 N   0  0  0  0  0  0  0  0  0  0  0  0
   -2.8200   24.0550  -29.4660 C   0  0  0  0  0  0  0  0  0  0  0  0
   -1.3460   24.3000  -29.3270 C   0  0  0  0  0  0  0  0  0  0  0  0
   -0.5130   23.0670  -29.7260 C   0  0  0  0  0  0  0  0  0  0  0  0
   -1.1620   21.6820  -29.4040 C   0  0  2  0  0  0  0  0  0  0  0  0
   -1.3780   20.9390  -30.6800 N   0  0  0  0  0  0  0  0  0  0  0  0
   -0.9740   19.5190  -30.7420 C   0  0  0  0  0  0  0  0  0  0  0  0
   -1.4610   18.8490  -32.0480 C   0  0  0  0  0  0  0  0  0  0  0  0
   -2.5420   19.6870  -32.7670 C   0  0  0  0  0  0  0  0  0  0  0  0
   -1.9920   21.1070  -33.0710 C   0  0  0  0  0  0  0  0  0  0  0  0
   -1.1130   21.6680  -31.9340 C   0  0  0  0  0  0  0  0  0  0  0  0
   -3.8720   19.7480  -31.9370 C   0  0  0  0  0  0  0  0  0  0  0  0
   -4.9270   19.3220  -32.8500 N   0  0  0  0  0  0  0  0  0  0  0  0
   -6.3410   19.3640  -32.5690 C   0  0  0  0  0  0  0  0  0  0  0  0
   -7.0360   20.5870  -32.6090 C   0  0  0  0  0  0  0  0  0  0  0  0
   -8.4090   20.6310  -32.3520 C   0  0  0  0  0  0  0  0  0  0  0  0
   -9.1070   19.4550  -32.0630 C   0  0  0  0  0  0  0  0  0  0  0  0
   -8.4320   18.2340  -32.0360 C   0  0  0  0  0  0  0  0  0  0  0  0
   -7.0580   18.1850  -32.2920 C   0  0  0  0  0  0  0  0  0  0  0  0
   -4.2990   18.8630  -34.0330 C   0  0  0  0  0  0  0  0  0  0  0  0
   -4.9090   18.2950  -34.9770 O   0  0  0  0  0  0  0  0  0  0  0  0
   -2.9000   19.0360  -34.0260 N   0  0  0  0  0  0  0  0  0  0  0  0
   -2.8231   20.1078  -26.0407 H   0  0  0  0  0  0  0  0  0  0  0  0
   -2.7589   18.5958  -27.0085 H   0  0  0  0  0  0  0  0  0  0  0  0
   -1.3598   19.7223  -27.0085 H   0  0  0  0  0  0  0  0  0  0  0  0
   -2.9155   19.7757  -29.0718 H   0  0  0  0  0  0  0  0  0  0  0  0
   -4.1171   20.5730  -27.9448 H   0  0  0  0  0  0  0  0  0  0  0  0
   -1.1790   21.7920  -26.9070 H   0  0  0  0  0  0  0  0  0  0  0  0
   -5.2314   21.7152  -28.8318 H   0  0  0  0  0  0  0  0  0  0  0  0
   -6.6417   23.5305  -29.8102 H   0  0  0  0  0  0  0  0  0  0  0  0
   -5.5747   25.6682  -30.5354 H   0  0  0  0  0  0  0  0  0  0  0  0
   -1.0640   25.1432  -29.9747 H   0  0  0  0  0  0  0  0  0  0  0  0
   -1.1378   24.5215  -28.2698 H   0  0  0  0  0  0  0  0  0  0  0  0
   -0.3363   23.1142  -30.8107 H   0  0  0  0  0  0  0  0  0  0  0  0
    0.4062   23.1165  -29.1238 H   0  0  0  0  0  0  0  0  0  0  0  0
   -0.4726   21.0698  -28.8040 H   0  0  0  0  0  0  0  0  0  0  0  0
    0.1233   19.4570  -30.6958 H   0  0  0  0  0  0  0  0  0  0  0  0
   -1.4315   18.9920  -29.8917 H   0  0  0  0  0  0  0  0  0  0  0  0
   -0.6020   18.7244  -32.7237 H   0  0  0  0  0  0  0  0  0  0  0  0
   -1.9068   17.8788  -31.7835 H   0  0  0  0  0  0  0  0  0  0  0  0
   -1.3892   21.0603  -33.9899 H   0  0  0  0  0  0  0  0  0  0  0  0
   -2.8563   21.7785  -33.1812 H   0  0  0  0  0  0  0  0  0  0  0  0
   -0.0528   21.5536  -32.2039 H   0  0  0  0  0  0  0  0  0  0  0  0
   -1.3501   22.7322  -31.7881 H   0  0  0  0  0  0  0  0  0  0  0  0
   -3.8160   19.0701  -31.0725 H   0  0  0  0  0  0  0  0  0  0  0  0
   -4.0590   20.7580  -31.5435 H   0  0  0  0  0  0  0  0  0  0  0  0
   -6.4946   21.5152  -32.8443 H   0  0  0  0  0  0  0  0  0  0  0  0
   -8.9415   21.5932  -32.3772 H   0  0  0  0  0  0  0  0  0  0  0  0
  -10.1869   19.4920  -31.8571 H   0  0  0  0  0  0  0  0  0  0  0  0
   -8.9819   17.3078  -31.8128 H   0  0  0  0  0  0  0  0  0  0  0  0
   -6.5339   17.2180  -32.2768 H   0  0  0  0  0  0  0  0  0  0  0  0
  1  2  1  0
  2  3  1  0
  3  4  1  1
  3  5  1  0
  5  6  2  0
  6  7  1  0
  7  8  2  0
  8  9  1  0
  9 10  2  0
 10 11  1  0
 11 12  1  0
 12 13  1  0
 13 14  1  0
 14 15  1  0
 15 16  1  0
 16 17  1  0
 17 18  1  0
 18 19  1  0
 17 20  1  0
 20 21  1  0
 21 22  1  0
 22 23  2  0
 23 24  1  0
 24 25  2  0
 25 26  1  0
 26 27  2  0
 21 28  1  0
 28 29  2  0
 28 30  1  0
 13  3  1  0
 19 14  1  0
 27 22  1  0
 10  5  1  0
 30 17  1  0
  1 31  1  0
  1 32  1  0
  1 33  1  0
  2 34  1  0
  2 35  1  0
  4 36  1  0
  6 37  1  0
  7 38  1  0
  8 39  1  0
 11 40  1  0
 11 41  1  0
 12 42  1  0
 12 43  1  0
 13 44  1  1
 15 45  1  0
 15 46  1  0
 16 47  1  0
 16 48  1  0
 18 49  1  0
 18 50  1  0
 19 51  1  0
 19 52  1  0
 20 53  1  0
 20 54  1  0
 23 55  1  0
 24 56  1  0
 25 57  1  0
 26 58  1  0
 27 59  1  0
M  CHG  1  30  -1
M  END
>  <UniqueID>  (45) 
42

>  <SMILES>  (45) 
CC[C@]1(O)c2cccnc2CC[C@@H]1N1CCC2(CC1)CN(c1ccccc1)C(=O)[N-]2

>  <Energy>  (45) 
112.00546542114749

>  <Genealogy>  (45) 
CCC1(O)c2cccnc2CCC1N1CCC2(CC1)CN(c1ccccc1)C(=O)[N-]2 (protonated)
CC[C@]1(O)c2cccnc2CC[C@@H]1N1CCC2(CC1)CN(c1ccccc1)C(=O)[N-]2 (chirality)
CC[C@]1(O)c2cccnc2CC[C@@H]1N1CCC2(CC1)CN(c1ccccc1)C(=O)[N-]2 (3D coordinates assigned)
CC[C@]1(O)c2cccnc2CC[C@@H]1N1CCC2(CC1)CN(c1ccccc1)C(=O)[N-]2 (nonaromatic ring conformer: 112.00546542114749 kcal/mol)

>  <smiles>  (45) 
CCC1(O)c2cccnc2CCC1N1CCC2(CC1)CN(c1ccccc1)C(=O)N2

>  <score_type>  (45) 
oracle

>  <origin>  (45) 
adg

>  <m_score__min__energy>  (45) 
-9.1199999999999992

>  <m_primary>  (45) 
energy

$$$$
45:0
     RDKit          3D

 39 40  0  0  0  0  0  0  0  0999 V2000
   -1.0370   25.7270  -24.8700 C   0  0  0  0  0  0  0  0  0  0  0  0
   -0.8510   24.3400  -25.4780 C   0  0  0  0  0  0  0  0  0  0  0  0
   -1.8710   24.0980  -26.5240 N   0  0  0  0  0  0  0  0  0  0  0  0
   -2.7410   25.2840  -26.7060 C   0  0  0  0  0  0  0  0  0  0  0  0
   -4.1950   24.9230  -26.4170 C   0  0  0  0  0  0  0  0  0  0  0  0
   -1.2430   23.6930  -27.8040 C   0  0  0  0  0  0  0  0  0  0  0  0
   -1.9350   24.3980  -28.9750 C   0  0  0  0  0  0  0  0  0  0  0  0
   -3.0830   23.6190  -29.4350 N   0  0  0  0  0  0  0  0  0  0  0  0
   -4.0500   24.1460  -30.3590 C   0  0  0  0  0  0  0  0  0  0  0  0
   -3.8950   25.2990  -30.8430 O   0  0  0  0  0  0  0  0  0  0  0  0
   -5.2260   23.3500  -30.7550 C   0  0  0  0  0  0  0  0  0  0  0  0
   -5.2000   22.2500  -31.6180 C   0  0  0  0  0  0  0  0  0  0  0  0
   -6.4690   21.6950  -31.8150 C   0  0  0  0  0  0  0  0  0  0  0  0
   -6.7700   20.5920  -32.6200 C   0  0  0  0  0  0  0  0  0  0  0  0
   -8.1060   20.1640  -32.7070 C   0  0  0  0  0  0  0  0  0  0  0  0
   -9.1190   20.8360  -31.9950 C   0  0  0  0  0  0  0  0  0  0  0  0
   -8.8060   21.9420  -31.1900 C   0  0  0  0  0  0  0  0  0  0  0  0
   -7.4750   22.3470  -31.1200 C   0  0  0  0  0  0  0  0  0  0  0  0
   -6.8200   23.6230  -30.2490 S   0  0  0  0  0  0  0  0  0  0  0  0
   -1.0268   25.6507  -23.7727 H   0  0  0  0  0  0  0  0  0  0  0  0
   -0.2190   26.3845  -25.1995 H   0  0  0  0  0  0  0  0  0  0  0  0
   -1.9993   26.1457  -25.1995 H   0  0  0  0  0  0  0  0  0  0  0  0
    0.1515   24.2711  -25.9255 H   0  0  0  0  0  0  0  0  0  0  0  0
   -0.9625   23.5839  -24.6869 H   0  0  0  0  0  0  0  0  0  0  0  0
   -2.4203   26.0786  -26.0163 H   0  0  0  0  0  0  0  0  0  0  0  0
   -2.6586   25.6322  -27.7462 H   0  0  0  0  0  0  0  0  0  0  0  0
   -4.3538   24.8836  -25.3292 H   0  0  0  0  0  0  0  0  0  0  0  0
   -4.8562   25.6843  -26.8567 H   0  0  0  0  0  0  0  0  0  0  0  0
   -4.4233   23.9409  -26.8567 H   0  0  0  0  0  0  0  0  0  0  0  0
   -0.1783   23.9693  -27.7906 H   0  0  0  0  0  0  0  0  0  0  0  0
   -1.3452   22.6047  -27.9272 H   0  0  0  0  0  0  0  0  0  0  0  0
   -2.2785   25.3905  -28.6481 H   0  0  0  0  0  0  0  0  0  0  0  0
   -1.2184   24.4988  -29.8034 H   0  0  0  0  0  0  0  0  0  0  0  0
   -3.1600   22.6290  -29.1150 H   0  0  0  0  0  0  0  0  0  0  0  0
   -4.2840   21.8642  -32.0893 H   0  0  0  0  0  0  0  0  0  0  0  0
   -5.9766   20.0694  -33.1744 H   0  0  0  0  0  0  0  0  0  0  0  0
   -8.3624   19.2983  -33.3354 H   0  0  0  0  0  0  0  0  0  0  0  0
  -10.1610   20.4919  -32.0705 H   0  0  0  0  0  0  0  0  0  0  0  0
   -9.5893   22.4740  -30.6302 H   0  0  0  0  0  0  0  0  0  0  0  0
  1  2  1  0
  2  3  1  0
  3  4  1  0
  4  5  1  0
  3  6  1  0
  6  7  1  0
  7  8  1  0
  8  9  1  0
  9 10  2  0
  9 11  1  0
 11 12  2  0
 12 13  1  0
 13 14  2  0
 14 15  1  0
 15 16  2  0
 16 17  1  0
 17 18  2  0
 18 19  1  0
 19 11  1  0
 18 13  1  0
  1 20  1  0
  1 21  1  0
  1 22  1  0
  2 23  1  0
  2 24  1  0
  4 25  1  0
  4 26  1  0
  5 27  1  0
  5 28  1  0
  5 29  1  0
  6 30  1  0
  6 31  1  0
  7 32  1  0
  7 33  1  0
  8 34  1  0
 12 35  1  0
 14 36  1  0
 15 37  1  0
 16 38  1  0
 17 39  1  0
M  END
>  <UniqueID>  (46) 
43

>  <SMILES>  (46) 
CCN(CC)CCNC(=O)c1cc2ccccc2s1

>  <Energy>  (46) 
64.14824166086989

>  <Genealogy>  (46) 
CCN(CC)CCNC(=O)c1cc2ccccc2s1 (3D coordinates assigned)
CCN(CC)CCNC(=O)c1cc2ccccc2s1 (optimized conformer: 64.14824166086989 kcal/mol)

>  <smiles>  (46) 
CCN(CC)CCNC(=O)c1cc2ccccc2s1

>  <score_type>  (46) 
oracle

>  <origin>  (46) 
adg

>  <m_score__min__energy>  (46) 
-7.1799999999999997

>  <m_primary>  (46) 
energy

$$$$
