0:0
     RDKit          3D

 44 46  0  0  0  0  0  0  0  0999 V2000
   -2.3740   26.0560  -25.5480 C   0  0  0  0  0  0  0  0  0  0  0  0
   -2.8910   25.3060  -26.7060 N   0  0  0  0  0  0  0  0  0  0  0  0
   -4.1860   24.6770  -26.3900 C   0  0  0  0  0  0  0  0  0  0  0  0
   -1.9060   24.3370  -27.2460 C   0  0  0  0  0  0  0  0  0  0  0  0
   -1.5030   24.5860  -28.7150 C   0  0  0  0  0  0  0  0  0  0  0  0
   -2.5780   25.1990  -29.4270 O   0  0  0  0  0  0  0  0  0  0  0  0
   -3.7320   24.5420  -29.8850 C   0  0  0  0  0  0  0  0  0  0  0  0
   -5.0310   24.9170  -29.4900 C   0  0  0  0  0  0  0  0  0  0  0  0
   -6.1440   24.2240  -29.9780 C   0  0  0  0  0  0  0  0  0  0  0  0
   -5.9790   23.1400  -30.8550 C   0  0  0  0  0  0  0  0  0  0  0  0
   -7.1650   22.4210  -31.3730 C   0  0  0  0  0  0  0  0  0  0  0  0
   -8.4080   23.0390  -31.5170 C   0  0  0  0  0  0  0  0  0  0  0  0
   -9.5060   21.9260  -32.1440 S   0  0  0  0  0  0  0  0  0  0  0  0
   -8.4200   20.6510  -32.2270 C   0  0  0  0  0  0  0  0  0  0  0  0
   -7.1820   21.0620  -31.7560 C   0  0  0  0  0  0  0  0  0  0  0  0
   -6.0200   20.1000  -31.7010 C   0  0  0  0  0  0  0  0  0  0  0  0
   -6.5100   18.6430  -31.5730 C   0  0  0  0  0  0  0  0  0  0  0  0
   -7.5540   18.2860  -32.6510 C   0  0  0  0  0  0  0  0  0  0  0  0
   -8.6870   19.2760  -32.6570 C   0  0  0  0  0  0  0  0  0  0  0  0
   -9.8280   18.9420  -33.0710 O   0  0  0  0  0  0  0  0  0  0  0  0
   -4.6840   22.7750  -31.2540 C   0  0  0  0  0  0  0  0  0  0  0  0
   -3.5730   23.4680  -30.7670 C   0  0  0  0  0  0  0  0  0  0  0  0
   -2.7080   25.5715  -24.6186 H   0  0  0  0  0  0  0  0  0  0  0  0
   -1.2745   26.0685  -25.5804 H   0  0  0  0  0  0  0  0  0  0  0  0
   -2.7535   27.0880  -25.5804 H   0  0  0  0  0  0  0  0  0  0  0  0
   -3.0700   26.0050  -27.4670 H   0  0  0  0  0  0  0  0  0  0  0  0
   -4.3081   24.6177  -25.2984 H   0  0  0  0  0  0  0  0  0  0  0  0
   -5.0006   25.2798  -26.8179 H   0  0  0  0  0  0  0  0  0  0  0  0
   -4.2157   23.6641  -26.8179 H   0  0  0  0  0  0  0  0  0  0  0  0
   -0.9981   24.3888  -26.6271 H   0  0  0  0  0  0  0  0  0  0  0  0
   -2.3901   23.3497  -27.2173 H   0  0  0  0  0  0  0  0  0  0  0  0
   -0.6250   25.2481  -28.7431 H   0  0  0  0  0  0  0  0  0  0  0  0
   -1.2639   23.6224  -29.1885 H   0  0  0  0  0  0  0  0  0  0  0  0
   -5.1709   25.7581  -28.7950 H   0  0  0  0  0  0  0  0  0  0  0  0
   -7.1553   24.5305  -29.6725 H   0  0  0  0  0  0  0  0  0  0  0  0
   -8.6343   24.0848  -31.2620 H   0  0  0  0  0  0  0  0  0  0  0  0
   -5.4271   20.1999  -32.6222 H   0  0  0  0  0  0  0  0  0  0  0  0
   -5.4084   20.3414  -30.8191 H   0  0  0  0  0  0  0  0  0  0  0  0
   -5.6476   17.9682  -31.6770 H   0  0  0  0  0  0  0  0  0  0  0  0
   -6.9874   18.5311  -30.5883 H   0  0  0  0  0  0  0  0  0  0  0  0
   -7.0676   18.2907  -33.6376 H   0  0  0  0  0  0  0  0  0  0  0  0
   -7.9620   17.2896  -32.4257 H   0  0  0  0  0  0  0  0  0  0  0  0
   -4.5429   21.9385  -31.9542 H   0  0  0  0  0  0  0  0  0  0  0  0
   -2.5628   23.1660  -31.0804 H   0  0  0  0  0  0  0  0  0  0  0  0
  1  2  1  0
  2  3  1  0
  2  4  1  0
  4  5  1  0
  5  6  1  0
  6  7  1  0
  7  8  2  0
  8  9  1  0
  9 10  2  0
 10 11  1  0
 11 12  2  0
 12 13  1  0
 13 14  1  0
 14 15  2  0
 15 16  1  0
 16 17  1  0
 17 18  1  0
 18 19  1  0
 19 20  2  0
 10 21  1  0
 21 22  2  0
 22  7  1  0
 15 11  1  0
 19 14  1  0
  1 23  1  0
  1 24  1  0
  1 25  1  0
  2 26  1  0
  3 27  1  0
  3 28  1  0
  3 29  1  0
  4 30  1  0
  4 31  1  0
  5 32  1  0
  5 33  1  0
  8 34  1  0
  9 35  1  0
 12 36  1  0
 16 37  1  0
 16 38  1  0
 17 39  1  0
 17 40  1  0
 18 41  1  0
 18 42  1  0
 21 43  1  0
 22 44  1  0
M  CHG  1   2   1
M  END
>  <UniqueID>  (1) 
1

>  <SMILES>  (1) 
C[NH+](C)CCOc1ccc(-c2csc3c2CCCC3=O)cc1

>  <Energy>  (1) 
77.8389231778054

>  <Genealogy>  (1) 
C[NH+](C)CCOc1ccc(-c2csc3c2CCCC3=O)cc1 (protonated)
C[NH+](C)CCOc1ccc(-c2csc3c2CCCC3=O)cc1 (3D coordinates assigned)
C[NH+](C)CCOc1ccc(-c2csc3c2CCCC3=O)cc1 (nonaromatic ring conformer: 77.8389231778054 kcal/mol)

>  <smiles>  (1) 
CN(C)CCOc1ccc(-c2csc3c2CCCC3=O)cc1

>  <score_type>  (1) 
oracle

>  <origin>  (1) 
adg

>  <m_score__min__energy>  (1) 
-8.0500000000000007

>  <m_primary>  (1) 
energy

$$$$
1:0
     RDKit          3D

 60 62  0  0  0  0  0  0  0  0999 V2000
   -3.0390   21.2180  -28.3410 C   0  0  0  0  0  0  0  0  0  0  0  0
   -2.0800   20.4350  -29.2460 C   0  0  0  0  0  0  0  0  0  0  0  0
   -2.2020   20.8250  -30.6600 N   0  0  0  0  0  0  0  0  0  0  0  0
   -1.0980   21.6860  -31.1120 C   0  0  0  0  0  0  0  0  0  0  0  0
   -0.5270   21.1560  -32.4330 C   0  0  0  0  0  0  0  0  0  0  0  0
   -1.5700   21.1200  -33.5640 C   0  0  0  0  0  0  0  0  0  0  0  0
   -2.4690   20.0390  -33.4010 O   0  0  0  0  0  0  0  0  0  0  0  0
   -2.1120   18.9310  -34.2050 C   0  0  0  0  0  0  0  0  0  0  0  0
   -3.1560   17.8200  -34.0450 C   0  0  0  0  0  0  0  0  0  0  0  0
   -4.4780   18.3190  -34.1630 O   0  0  0  0  0  0  0  0  0  0  0  0
   -5.2510   17.9680  -33.0340 C   0  0  0  0  0  0  0  0  0  0  0  0
   -5.0260   18.9760  -31.8990 C   0  0  0  0  0  0  0  0  0  0  0  0
   -4.7100   20.3450  -32.3550 N   0  0  0  0  0  0  0  0  0  0  0  0
   -5.7110   21.2770  -31.9790 N   0  0  0  0  0  0  0  0  0  0  0  0
   -5.5170   22.4830  -31.3810 C   0  0  0  0  0  0  0  0  0  0  0  0
   -6.7320   23.1100  -31.1550 C   0  0  0  0  0  0  0  0  0  0  0  0
   -7.7030   22.2260  -31.5720 C   0  0  0  0  0  0  0  0  0  0  0  0
   -9.0940   22.3160  -31.5340 C   0  0  0  0  0  0  0  0  0  0  0  0
   -9.8350   21.2340  -32.0340 C   0  0  0  0  0  0  0  0  0  0  0  0
   -9.1800   20.0990  -32.5570 C   0  0  0  0  0  0  0  0  0  0  0  0
   -7.7750   20.0300  -32.5770 C   0  0  0  0  0  0  0  0  0  0  0  0
   -7.0540   21.1190  -32.0740 C   0  0  0  0  0  0  0  0  0  0  0  0
   -6.8940   24.4290  -30.4620 C   0  0  0  0  0  0  0  0  0  0  0  0
   -5.5540   25.1920  -30.4330 C   0  0  0  0  0  0  0  0  0  0  0  0
   -4.3800   24.2710  -30.0450 C   0  0  0  0  0  0  0  0  0  0  0  0
   -4.1970   23.1260  -31.0630 C   0  0  0  0  0  0  0  0  0  0  0  0
   -2.7942   21.0181  -27.2874 H   0  0  0  0  0  0  0  0  0  0  0  0
   -2.9373   22.2945  -28.5432 H   0  0  0  0  0  0  0  0  0  0  0  0
   -4.0734   20.9030  -28.5432 H   0  0  0  0  0  0  0  0  0  0  0  0
   -1.0481   20.6235  -28.9149 H   0  0  0  0  0  0  0  0  0  0  0  0
   -2.3388   19.3688  -29.1677 H   0  0  0  0  0  0  0  0  0  0  0  0
   -2.2430   19.9630  -31.2550 H   0  0  0  0  0  0  0  0  0  0  0  0
   -1.4720   22.7096  -31.2614 H   0  0  0  0  0  0  0  0  0  0  0  0
   -0.3048   21.6863  -30.3499 H   0  0  0  0  0  0  0  0  0  0  0  0
    0.3041   21.8068  -32.7424 H   0  0  0  0  0  0  0  0  0  0  0  0
   -0.1939   20.1224  -32.2578 H   0  0  0  0  0  0  0  0  0  0  0  0
   -2.1378   22.0621  -33.5578 H   0  0  0  0  0  0  0  0  0  0  0  0
   -1.0411   20.9903  -34.5197 H   0  0  0  0  0  0  0  0  0  0  0  0
   -2.0682   19.2428  -35.2590 H   0  0  0  0  0  0  0  0  0  0  0  0
   -1.1275   18.5543  -33.8905 H   0  0  0  0  0  0  0  0  0  0  0  0
   -2.9909   17.0613  -34.8242 H   0  0  0  0  0  0  0  0  0  0  0  0
   -3.0426   17.3862  -33.0405 H   0  0  0  0  0  0  0  0  0  0  0  0
   -6.3157   17.9646  -33.3103 H   0  0  0  0  0  0  0  0  0  0  0  0
   -4.9473   16.9684  -32.6897 H   0  0  0  0  0  0  0  0  0  0  0  0
   -5.9409   19.0185  -31.2897 H   0  0  0  0  0  0  0  0  0  0  0  0
   -4.1513   18.6229  -31.3332 H   0  0  0  0  0  0  0  0  0  0  0  0
   -3.7820   20.6290  -31.9680 H   0  0  0  0  0  0  0  0  0  0  0  0
   -4.6270   20.3510  -33.3970 H   0  0  0  0  0  0  0  0  0  0  0  0
   -9.5944   23.2063  -31.1253 H   0  0  0  0  0  0  0  0  0  0  0  0
  -10.9343   21.2711  -32.0180 H   0  0  0  0  0  0  0  0  0  0  0  0
   -9.7729   19.2611  -32.9524 H   0  0  0  0  0  0  0  0  0  0  0  0
   -7.2578   19.1452  -32.9766 H   0  0  0  0  0  0  0  0  0  0  0  0
   -7.6417   25.0308  -30.9993 H   0  0  0  0  0  0  0  0  0  0  0  0
   -7.2237   24.2495  -29.4280 H   0  0  0  0  0  0  0  0  0  0  0  0
   -5.3619   25.6127  -31.4311 H   0  0  0  0  0  0  0  0  0  0  0  0
   -5.6293   25.9875  -29.6770 H   0  0  0  0  0  0  0  0  0  0  0  0
   -3.4560   24.8667  -30.0076 H   0  0  0  0  0  0  0  0  0  0  0  0
   -4.6006   23.8269  -29.0631 H   0  0  0  0  0  0  0  0  0  0  0  0
   -3.7605   23.5312  -31.9878 H   0  0  0  0  0  0  0  0  0  0  0  0
   -3.5300   22.3678  -30.6268 H   0  0  0  0  0  0  0  0  0  0  0  0
  1  2  1  0
  2  3  1  0
  3  4  1  0
  4  5  1  0
  5  6  1  0
  6  7  1  0
  7  8  1  0
  8  9  1  0
  9 10  1  0
 10 11  1  0
 11 12  1  0
 12 13  1  0
 13 14  1  0
 14 15  1  0
 15 16  2  0
 16 17  1  0
 17 18  2  0
 18 19  1  0
 19 20  2  0
 20 21  1  0
 21 22  2  0
 16 23  1  0
 23 24  1  0
 24 25  1  0
 25 26  1  0
 22 14  1  0
 26 15  1  0
 22 17  1  0
  1 27  1  0
  1 28  1  0
  1 29  1  0
  2 30  1  0
  2 31  1  0
  3 32  1  0
  4 33  1  0
  4 34  1  0
  5 35  1  0
  5 36  1  0
  6 37  1  0
  6 38  1  0
  8 39  1  0
  8 40  1  0
  9 41  1  0
  9 42  1  0
 11 43  1  0
 11 44  1  0
 12 45  1  0
 12 46  1  0
 13 47  1  0
 13 48  1  0
 18 49  1  0
 19 50  1  0
 20 51  1  0
 21 52  1  0
 23 53  1  0
 23 54  1  0
 24 55  1  0
 24 56  1  0
 25 57  1  0
 25 58  1  0
 26 59  1  0
 26 60  1  0
M  CHG  1  13   1
M  END
>  <UniqueID>  (2) 
2

>  <SMILES>  (2) 
CCNCCCOCCOCC[NH2+]n1c2c(c3ccccc31)CCCC2

>  <Energy>  (2) 
91.83869750553919

>  <Genealogy>  (2) 
CCNCCCOCCOCC[NH2+]n1c2c(c3ccccc31)CCCC2 (protonated)
CCNCCCOCCOCC[NH2+]n1c2c(c3ccccc31)CCCC2 (3D coordinates assigned)
CCNCCCOCCOCC[NH2+]n1c2c(c3ccccc31)CCCC2 (nonaromatic ring conformer: 91.83869750553919 kcal/mol)

>  <smiles>  (2) 
CCNCCCOCCOCCNn1c2c(c3ccccc31)CCCC2

>  <score_type>  (2) 
oracle

>  <origin>  (2) 
adg

>  <m_score__min__energy>  (2) 
-8.9299999999999997

>  <m_primary>  (2) 
energy

$$$$
2:0
     RDKit          3D

 20 20  0  0  0  0  0  0  0  0999 V2000
   -2.8120   23.1710  -27.8110 C   0  0  0  0  0  0  0  0  0  0  0  0
   -4.2390   23.1540  -28.3440 C   0  0  0  0  0  0  0  0  0  0  0  0
   -4.7560   24.5210  -28.4360 N   0  0  0  0  0  0  0  0  0  0  0  0
   -5.1400   24.8940  -30.0890 S   0  0  0  0  0  0  0  0  0  0  0  0
   -3.8890   25.2830  -30.8250 O   0  0  0  0  0  0  0  0  0  0  0  0
   -6.1010   26.0490  -30.1290 O   0  0  0  0  0  0  0  0  0  0  0  0
   -5.8790   23.5100  -30.8750 C   0  0  0  0  0  0  0  0  0  0  0  0
   -5.3390   22.8100  -31.9440 C   0  0  0  0  0  0  0  0  0  0  0  0
   -6.1650   21.7710  -32.3880 C   0  0  0  0  0  0  0  0  0  0  0  0
   -7.3470   21.6660  -31.6660 C   0  0  0  0  0  0  0  0  0  0  0  0
   -8.7270   20.3870  -31.9680 Br  0  0  0  0  0  0  0  0  0  0  0  0
   -7.3770   22.8570  -30.4800 S   0  0  0  0  0  0  0  0  0  0  0  0
   -2.8314   23.1708  -26.7112 H   0  0  0  0  0  0  0  0  0  0  0  0
   -2.2764   22.2792  -28.1685 H   0  0  0  0  0  0  0  0  0  0  0  0
   -2.2978   24.0753  -28.1685 H   0  0  0  0  0  0  0  0  0  0  0  0
   -4.2493   22.6927  -29.3426 H   0  0  0  0  0  0  0  0  0  0  0  0
   -4.8736   22.5735  -27.6581 H   0  0  0  0  0  0  0  0  0  0  0  0
   -5.6530   24.5680  -27.9010 H   0  0  0  0  0  0  0  0  0  0  0  0
   -4.3641   23.0466  -32.3953 H   0  0  0  0  0  0  0  0  0  0  0  0
   -5.9046   21.1051  -33.2239 H   0  0  0  0  0  0  0  0  0  0  0  0
  1  2  1  0
  2  3  1  0
  3  4  1  0
  4  5  2  0
  4  6  2  0
  4  7  1  0
  7  8  2  0
  8  9  1  0
  9 10  2  0
 10 11  1  0
 10 12  1  0
 12  7  1  0
  1 13  1  0
  1 14  1  0
  1 15  1  0
  2 16  1  0
  2 17  1  0
  3 18  1  0
  8 19  1  0
  9 20  1  0
M  END
>  <UniqueID>  (3) 
3

>  <SMILES>  (3) 
CCNS(=O)(=O)c1ccc(Br)s1

>  <Energy>  (3) 
38.8157846783075

>  <Genealogy>  (3) 
CCNS(=O)(=O)c1ccc(Br)s1 (3D coordinates assigned)
CCNS(=O)(=O)c1ccc(Br)s1 (optimized conformer: 38.8157846783075 kcal/mol)

>  <smiles>  (3) 
CCNS(=O)(=O)c1ccc(Br)s1

>  <score_type>  (3) 
oracle

>  <origin>  (3) 
adg

>  <m_score__min__energy>  (3) 
-6.6399999999999997

>  <m_primary>  (3) 
energy

$$$$
3:0
     RDKit          3D

 70 72  0  0  0  0  0  0  0  0999 V2000
   -3.8830   24.2210  -27.1600 C   0  0  0  0  0  0  0  0  0  0  0  0
   -2.4300   24.3350  -27.6210 C   0  0  0  0  0  0  0  0  0  0  0  0
   -2.0450   23.2560  -28.6450 C   0  0  0  0  0  0  0  0  0  0  0  0
   -2.8090   21.9390  -28.4310 C   0  0  0  0  0  0  0  0  0  0  0  0
   -2.3580   21.1860  -27.1680 C   0  0  0  0  0  0  0  0  0  0  0  0
   -2.2790   19.6420  -27.3590 C   0  0  2  0  0  0  0  0  0  0  0  0
   -3.0180   18.9210  -26.2200 C   0  0  0  0  0  0  0  0  0  0  0  0
   -0.8020   19.1770  -27.4480 C   0  0  0  0  0  0  0  0  0  0  0  0
   -0.4050   18.6340  -28.8390 C   0  0  0  0  0  0  0  0  0  0  0  0
   -0.0010   19.7540  -29.8080 C   0  0  0  0  0  0  0  0  0  0  0  0
   -1.1410   20.1230  -30.6610 N   0  0  0  0  0  0  0  0  0  0  0  0
   -0.7250   20.3440  -32.0530 C   0  0  0  0  0  0  0  0  0  0  0  0
   -1.4750   21.5390  -32.6500 C   0  0  0  0  0  0  0  0  0  0  0  0
   -2.9150   21.1720  -33.0310 C   0  0  0  0  0  0  0  0  0  0  0  0
   -3.6940   20.8290  -31.8420 N   0  0  0  0  0  0  0  0  0  0  0  0
   -5.0740   21.2100  -31.7030 C   0  0  0  0  0  0  0  0  0  0  0  0
   -6.0890   20.2650  -31.9250 C   0  0  0  0  0  0  0  0  0  0  0  0
   -5.7750   18.9180  -32.2050 C   0  0  0  0  0  0  0  0  0  0  0  0
   -6.7830   17.9750  -32.3880 C   0  0  0  0  0  0  0  0  0  0  0  0
   -8.1160   18.3530  -32.2810 C   0  0  0  0  0  0  0  0  0  0  0  0
   -8.4520   19.6810  -32.0180 C   0  0  0  0  0  0  0  0  0  0  0  0
   -7.4490   20.6740  -31.8670 C   0  0  0  0  0  0  0  0  0  0  0  0
   -7.7650   22.0030  -31.6590 N   0  0  0  0  0  0  0  0  0  0  0  0
   -9.1470   22.4810  -31.8910 C   0  0  0  0  0  0  0  0  0  0  0  0
   -6.7860   22.8890  -31.2480 C   0  0  0  0  0  0  0  0  0  0  0  0
   -7.1070   24.1800  -30.7540 C   0  0  0  0  0  0  0  0  0  0  0  0
   -6.1070   25.0700  -30.3640 C   0  0  0  0  0  0  0  0  0  0  0  0
   -4.7700   24.6960  -30.4320 C   0  0  0  0  0  0  0  0  0  0  0  0
   -4.4250   23.4230  -30.8780 C   0  0  0  0  0  0  0  0  0  0  0  0
   -5.4180   22.5070  -31.2880 C   0  0  0  0  0  0  0  0  0  0  0  0
   -3.9197   24.2181  -26.0606 H   0  0  0  0  0  0  0  0  0  0  0  0
   -4.4577   25.0768  -27.5438 H   0  0  0  0  0  0  0  0  0  0  0  0
   -4.3172   23.2860  -27.5438 H   0  0  0  0  0  0  0  0  0  0  0  0
   -2.2833   25.3238  -28.0800 H   0  0  0  0  0  0  0  0  0  0  0  0
   -1.7898   24.1970  -26.7372 H   0  0  0  0  0  0  0  0  0  0  0  0
   -2.2676   23.6326  -29.6543 H   0  0  0  0  0  0  0  0  0  0  0  0
   -0.9731   23.0439  -28.5187 H   0  0  0  0  0  0  0  0  0  0  0  0
   -3.8816   22.1657  -28.3407 H   0  0  0  0  0  0  0  0  0  0  0  0
   -2.5999   21.2910  -29.2949 H   0  0  0  0  0  0  0  0  0  0  0  0
   -1.3613   21.5527  -26.8815 H   0  0  0  0  0  0  0  0  0  0  0  0
   -3.1127   21.3773  -26.3909 H   0  0  0  0  0  0  0  0  0  0  0  0
   -2.7735   19.3807  -28.3062 H   0  0  0  0  0  0  0  0  0  0  0  0
   -2.6443   19.2856  -25.2518 H   0  0  0  0  0  0  0  0  0  0  0  0
   -4.0965   19.1236  -26.2966 H   0  0  0  0  0  0  0  0  0  0  0  0
   -2.8421   17.8379  -26.2966 H   0  0  0  0  0  0  0  0  0  0  0  0
   -0.1534   20.0333  -27.2113 H   0  0  0  0  0  0  0  0  0  0  0  0
   -0.6817   18.3495  -26.7333 H   0  0  0  0  0  0  0  0  0  0  0  0
    0.4444   17.9452  -28.7206 H   0  0  0  0  0  0  0  0  0  0  0  0
   -1.2814   18.1220  -29.2631 H   0  0  0  0  0  0  0  0  0  0  0  0
    0.3218   20.6339  -29.2321 H   0  0  0  0  0  0  0  0  0  0  0  0
    0.8231   19.3986  -30.4440 H   0  0  0  0  0  0  0  0  0  0  0  0
   -1.8170   19.3230  -30.6580 H   0  0  0  0  0  0  0  0  0  0  0  0
    0.3563   20.5438  -32.0810 H   0  0  0  0  0  0  0  0  0  0  0  0
   -0.9581   19.4451  -32.6426 H   0  0  0  0  0  0  0  0  0  0  0  0
   -1.4983   22.3516  -31.9090 H   0  0  0  0  0  0  0  0  0  0  0  0
   -0.9481   21.8533  -33.5630 H   0  0  0  0  0  0  0  0  0  0  0  0
   -3.3846   22.0295  -33.5351 H   0  0  0  0  0  0  0  0  0  0  0  0
   -2.8917   20.3003  -33.7015 H   0  0  0  0  0  0  0  0  0  0  0  0
   -3.2590   20.2320  -31.1030 H   0  0  0  0  0  0  0  0  0  0  0  0
   -4.7218   18.6094  -32.2796 H   0  0  0  0  0  0  0  0  0  0  0  0
   -6.5242   16.9308  -32.6173 H   0  0  0  0  0  0  0  0  0  0  0  0
   -8.9098   17.6015  -32.4043 H   0  0  0  0  0  0  0  0  0  0  0  0
   -9.5112   19.9633  -31.9261 H   0  0  0  0  0  0  0  0  0  0  0  0
   -9.6428   22.6525  -30.9242 H   0  0  0  0  0  0  0  0  0  0  0  0
   -9.1189   23.4216  -32.4606 H   0  0  0  0  0  0  0  0  0  0  0  0
   -9.7060   21.7240  -32.4606 H   0  0  0  0  0  0  0  0  0  0  0  0
   -8.1615   24.4834  -30.6775 H   0  0  0  0  0  0  0  0  0  0  0  0
   -6.3774   26.0725  -30.0009 H   0  0  0  0  0  0  0  0  0  0  0  0
   -3.9845   25.4058  -30.1334 H   0  0  0  0  0  0  0  0  0  0  0  0
   -3.3660   23.1274  -30.9113 H   0  0  0  0  0  0  0  0  0  0  0  0
  1  2  1  0
  2  3  1  0
  3  4  1  0
  4  5  1  0
  5  6  1  0
  6  7  1  0
  6  8  1  0
  8  9  1  0
  9 10  1  0
 10 11  1  0
 11 12  1  0
 12 13  1  0
 13 14  1  0
 14 15  1  0
 15 16  1  0
 16 17  2  0
 17 18  1  0
 18 19  2  0
 19 20  1  0
 20 21  2  0
 21 22  1  0
 22 23  2  0
 23 24  1  0
 23 25  1  0
 25 26  2  0
 26 27  1  0
 27 28  2  0
 28 29  1  0
 29 30  2  0
 30 16  1  0
 22 17  1  0
 30 25  1  0
  1 31  1  0
  1 32  1  0
  1 33  1  0
  2 34  1  0
  2 35  1  0
  3 36  1  0
  3 37  1  0
  4 38  1  0
  4 39  1  0
  5 40  1  0
  5 41  1  0
  6 42  1  6
  7 43  1  0
  7 44  1  0
  7 45  1  0
  8 46  1  0
  8 47  1  0
  9 48  1  0
  9 49  1  0
 10 50  1  0
 10 51  1  0
 11 52  1  0
 12 53  1  0
 12 54  1  0
 13 55  1  0
 13 56  1  0
 14 57  1  0
 14 58  1  0
 15 59  1  0
 18 60  1  0
 19 61  1  0
 20 62  1  0
 21 63  1  0
 24 64  1  0
 24 65  1  0
 24 66  1  0
 26 67  1  0
 27 68  1  0
 28 69  1  0
 29 70  1  0
M  CHG  1  23   1
M  END
>  <UniqueID>  (4) 
4

>  <SMILES>  (4) 
CCCCC[C@H](C)CCCNCCCNc1c2ccccc2[n+](C)c2ccccc12

>  <Energy>  (4) 
83.45466525784438

>  <Genealogy>  (4) 
CCCCC[C@H](C)CCCNCCCNc1c2ccccc2[n+](C)c2ccccc12 (chirality)
CCCCC[C@H](C)CCCNCCCNc1c2ccccc2[n+](C)c2ccccc12 (3D coordinates assigned)
CCCCC[C@H](C)CCCNCCCNc1c2ccccc2[n+](C)c2ccccc12 (optimized conformer: 83.45466525784438 kcal/mol)

>  <smiles>  (4) 
CCCCCC(C)CCCNCCCNc1c2ccccc2[n+](C)c2ccccc12

>  <score_type>  (4) 
oracle

>  <origin>  (4) 
adg

>  <m_score__min__energy>  (4) 
-9.5700000000000003

>  <m_primary>  (4) 
energy

$$$$
4:0
     RDKit          3D

 43 44  0  0  0  0  0  0  0  0999 V2000
   -5.4370   16.4300  -33.3720 C   0  0  0  0  0  0  0  0  0  0  0  0
   -6.5000   17.1930  -34.1740 C   0  0  0  0  0  0  0  0  0  0  0  0
   -6.6180   18.6330  -33.8370 N   0  0  2  0  0  0  0  0  0  0  0  0
   -5.3230   19.3290  -33.8560 C   0  0  0  0  0  0  0  0  0  0  0  0
   -7.4450   18.9240  -32.3210 S   0  0  0  0  0  0  0  0  0  0  0  0
   -6.6930   18.2470  -31.2090 O   0  0  0  0  0  0  0  0  0  0  0  0
   -8.8350   18.3520  -32.3730 O   0  0  0  0  0  0  0  0  0  0  0  0
   -7.5160   20.6500  -31.9680 C   0  0  0  0  0  0  0  0  0  0  0  0
   -8.6820   21.3880  -32.2180 C   0  0  0  0  0  0  0  0  0  0  0  0
   -8.7100   22.7620  -31.9610 C   0  0  0  0  0  0  0  0  0  0  0  0
   -7.5730   23.4070  -31.4670 C   0  0  0  0  0  0  0  0  0  0  0  0
   -6.4030   22.6770  -31.2190 C   0  0  0  0  0  0  0  0  0  0  0  0
   -4.9370   23.4800  -30.6690 S   0  0  0  0  0  0  0  0  0  0  0  0
   -4.9710   23.5440  -29.1670 O   0  0  0  0  0  0  0  0  0  0  0  0
   -4.8610   24.8820  -31.2050 O   0  0  0  0  0  0  0  0  0  0  0  0
   -3.5220   22.5670  -31.2240 C   0  0  0  0  0  0  0  0  0  0  0  0
   -3.5910   21.9020  -32.4590 C   0  0  0  0  0  0  0  0  0  0  0  0
   -2.4870   21.2070  -32.9560 C   0  0  0  0  0  0  0  0  0  0  0  0
   -1.2990   21.1710  -32.2280 C   0  0  0  0  0  0  0  0  0  0  0  0
   -1.2110   21.8250  -30.9980 C   0  0  0  0  0  0  0  0  0  0  0  0
   -2.3180   22.5180  -30.4750 C   0  0  0  0  0  0  0  0  0  0  0  0
   -2.1660   23.2260  -29.1530 C   0  0  0  0  0  0  0  0  0  0  0  0
   -6.3850   21.2960  -31.4550 C   0  0  0  0  0  0  0  0  0  0  0  0
   -5.6233   16.5637  -32.2962 H   0  0  0  0  0  0  0  0  0  0  0  0
   -5.4866   15.3601  -33.6225 H   0  0  0  0  0  0  0  0  0  0  0  0
   -4.4392   16.8193  -33.6225 H   0  0  0  0  0  0  0  0  0  0  0  0
   -6.2478   17.1108  -35.2415 H   0  0  0  0  0  0  0  0  0  0  0  0
   -7.4675   16.7351  -33.9204 H   0  0  0  0  0  0  0  0  0  0  0  0
   -7.2090   19.0680  -34.5850 H   0  0  0  0  0  0  0  0  0  0  0  0
   -4.9883   19.5089  -32.8237 H   0  0  0  0  0  0  0  0  0  0  0  0
   -4.5808   18.7083  -34.3792 H   0  0  0  0  0  0  0  0  0  0  0  0
   -5.4311   20.2905  -34.3792 H   0  0  0  0  0  0  0  0  0  0  0  0
   -9.5755   20.8853  -32.6167 H   0  0  0  0  0  0  0  0  0  0  0  0
   -9.6291   23.3366  -32.1481 H   0  0  0  0  0  0  0  0  0  0  0  0
   -7.5966   24.4894  -31.2725 H   0  0  0  0  0  0  0  0  0  0  0  0
   -4.5243   21.9290  -33.0406 H   0  0  0  0  0  0  0  0  0  0  0  0
   -2.5548   20.6873  -33.9231 H   0  0  0  0  0  0  0  0  0  0  0  0
   -0.4291   20.6262  -32.6235 H   0  0  0  0  0  0  0  0  0  0  0  0
   -0.2678   21.7983  -30.4326 H   0  0  0  0  0  0  0  0  0  0  0  0
   -2.3200   22.5089  -28.3332 H   0  0  0  0  0  0  0  0  0  0  0  0
   -1.1554   23.6544  -29.0805 H   0  0  0  0  0  0  0  0  0  0  0  0
   -2.9117   24.0314  -29.0805 H   0  0  0  0  0  0  0  0  0  0  0  0
   -5.4765   20.7158  -31.2358 H   0  0  0  0  0  0  0  0  0  0  0  0
  1  2  1  0
  2  3  1  0
  3  4  1  0
  3  5  1  0
  5  6  2  0
  5  7  2  0
  5  8  1  0
  8  9  2  0
  9 10  1  0
 10 11  2  0
 11 12  1  0
 12 13  1  0
 13 14  2  0
 13 15  2  0
 13 16  1  0
 16 17  2  0
 17 18  1  0
 18 19  2  0
 19 20  1  0
 20 21  2  0
 21 22  1  0
 12 23  2  0
 23  8  1  0
 21 16  1  0
  1 24  1  0
  1 25  1  0
  1 26  1  0
  2 27  1  0
  2 28  1  0
  3 29  1  6
  4 30  1  0
  4 31  1  0
  4 32  1  0
  9 33  1  0
 10 34  1  0
 11 35  1  0
 17 36  1  0
 18 37  1  0
 19 38  1  0
 20 39  1  0
 22 40  1  0
 22 41  1  0
 22 42  1  0
 23 43  1  0
M  CHG  1   3   1
M  END
>  <UniqueID>  (5) 
5

>  <SMILES>  (5) 
CC[N@H+](C)S(=O)(=O)c1cccc(S(=O)(=O)c2ccccc2C)c1

>  <Energy>  (5) 
44.362918070752166

>  <Genealogy>  (5) 
CC[NH+](C)S(=O)(=O)c1cccc(S(=O)(=O)c2ccccc2C)c1 (protonated)
CC[N@H+](C)S(=O)(=O)c1cccc(S(=O)(=O)c2ccccc2C)c1 (chirality)
CC[N@H+](C)S(=O)(=O)c1cccc(S(=O)(=O)c2ccccc2C)c1 (3D coordinates assigned)
CC[N@H+](C)S(=O)(=O)c1cccc(S(=O)(=O)c2ccccc2C)c1 (optimized conformer: 44.362918070752166 kcal/mol)

>  <smiles>  (5) 
CCN(C)S(=O)(=O)c1cccc(S(=O)(=O)c2ccccc2C)c1

>  <score_type>  (5) 
oracle

>  <origin>  (5) 
adg

>  <m_score__min__energy>  (5) 
-8.5199999999999996

>  <m_primary>  (5) 
energy

$$$$
5:0
     RDKit          3D

 55 57  0  0  0  0  0  0  0  0999 V2000
   -9.4890   22.0000  -31.9230 C   0  0  0  0  0  0  0  0  0  0  0  0
   -8.3630   21.3950  -31.0930 C   0  0  0  0  0  0  0  0  0  0  0  0
   -7.3820   20.7320  -31.9630 N   0  0  0  0  0  0  0  0  0  0  0  0
   -6.2210   21.2690  -32.4040 C   0  0  0  0  0  0  0  0  0  0  0  0
   -5.6970   22.6200  -32.0180 C   0  0  0  0  0  0  0  0  0  0  0  0
   -5.5850   20.4000  -33.2660 C   0  0  0  0  0  0  0  0  0  0  0  0
   -6.4040   19.2940  -33.3900 C   0  0  0  0  0  0  0  0  0  0  0  0
   -6.1040   18.1470  -34.2750 C   0  0  0  0  0  0  0  0  0  0  0  0
   -5.7830   18.3760  -35.4730 O   0  0  0  0  0  0  0  0  0  0  0  0
   -6.2700   16.7170  -33.8400 C   0  0  0  0  0  0  0  0  0  0  0  0
   -5.0290   15.8760  -34.2040 C   0  0  0  0  0  0  0  0  0  0  0  0
   -3.8110   16.7090  -34.3640 N   0  0  0  0  0  0  0  0  0  0  0  0
   -3.4110   17.2820  -33.0520 C   0  0  0  0  0  0  0  0  0  0  0  0
   -1.9430   17.7630  -33.0130 C   0  0  0  0  0  0  0  0  0  0  0  0
   -1.4160   17.9580  -34.3680 N   0  0  0  0  0  0  0  0  0  0  0  0
   -0.7050   19.1610  -34.7220 C   0  0  0  0  0  0  0  0  0  0  0  0
   -1.0210   20.3820  -34.1010 C   0  0  0  0  0  0  0  0  0  0  0  0
   -0.3400   21.5510  -34.4530 C   0  0  0  0  0  0  0  0  0  0  0  0
    0.6580   21.5140  -35.4320 C   0  0  0  0  0  0  0  0  0  0  0  0
    1.5100   22.9830  -35.8740 Cl  0  0  0  0  0  0  0  0  0  0  0  0
    0.9730   20.3060  -36.0610 C   0  0  0  0  0  0  0  0  0  0  0  0
    0.2940   19.1350  -35.7110 C   0  0  0  0  0  0  0  0  0  0  0  0
   -1.5420   16.8620  -35.3370 C   0  0  0  0  0  0  0  0  0  0  0  0
   -2.6990   15.9280  -34.9530 C   0  0  0  0  0  0  0  0  0  0  0  0
   -7.5020   19.5170  -32.5560 C   0  0  0  0  0  0  0  0  0  0  0  0
   -8.6600   18.5820  -32.3420 C   0  0  0  0  0  0  0  0  0  0  0  0
  -10.2574   22.4129  -31.2529 H   0  0  0  0  0  0  0  0  0  0  0  0
   -9.0860   22.8031  -32.5576 H   0  0  0  0  0  0  0  0  0  0  0  0
   -9.9362   21.2207  -32.5576 H   0  0  0  0  0  0  0  0  0  0  0  0
   -7.8624   22.1933  -30.5254 H   0  0  0  0  0  0  0  0  0  0  0  0
   -8.7889   20.6503  -30.4045 H   0  0  0  0  0  0  0  0  0  0  0  0
   -5.6654   22.7014  -30.9215 H   0  0  0  0  0  0  0  0  0  0  0  0
   -4.6832   22.7500  -32.4247 H   0  0  0  0  0  0  0  0  0  0  0  0
   -6.3580   23.3996  -32.4247 H   0  0  0  0  0  0  0  0  0  0  0  0
   -4.6143   20.5570  -33.7590 H   0  0  0  0  0  0  0  0  0  0  0  0
   -6.4161   16.6881  -32.7501 H   0  0  0  0  0  0  0  0  0  0  0  0
   -7.1424   16.2938  -34.3594 H   0  0  0  0  0  0  0  0  0  0  0  0
   -4.8526   15.1414  -33.4045 H   0  0  0  0  0  0  0  0  0  0  0  0
   -5.2277   15.3822  -35.1666 H   0  0  0  0  0  0  0  0  0  0  0  0
   -4.0380   17.5100  -35.0050 H   0  0  0  0  0  0  0  0  0  0  0  0
   -4.0645   18.1391  -32.8323 H   0  0  0  0  0  0  0  0  0  0  0  0
   -3.5096   16.4809  -32.3047 H   0  0  0  0  0  0  0  0  0  0  0  0
   -1.8915   18.7163  -32.4667 H   0  0  0  0  0  0  0  0  0  0  0  0
   -1.3368   16.9959  -32.5089 H   0  0  0  0  0  0  0  0  0  0  0  0
   -1.8085   20.4177  -33.3338 H   0  0  0  0  0  0  0  0  0  0  0  0
   -0.5896   22.5017  -33.9591 H   0  0  0  0  0  0  0  0  0  0  0  0
    1.7564   20.2767  -36.8326 H   0  0  0  0  0  0  0  0  0  0  0  0
    0.5428   18.1880  -36.2122 H   0  0  0  0  0  0  0  0  0  0  0  0
   -1.7337   17.2828  -36.3351 H   0  0  0  0  0  0  0  0  0  0  0  0
   -0.6065   16.2833  -35.3399 H   0  0  0  0  0  0  0  0  0  0  0  0
   -3.0580   15.4052  -35.8518 H   0  0  0  0  0  0  0  0  0  0  0  0
   -2.3409   15.1976  -34.2125 H   0  0  0  0  0  0  0  0  0  0  0  0
   -8.8275   18.4467  -31.2633 H   0  0  0  0  0  0  0  0  0  0  0  0
   -9.5640   19.0064  -32.8031 H   0  0  0  0  0  0  0  0  0  0  0  0
   -8.4356   17.6088  -32.8031 H   0  0  0  0  0  0  0  0  0  0  0  0
  1  2  1  0
  2  3  1  0
  3  4  1  0
  4  5  1  0
  4  6  2  0
  6  7  1  0
  7  8  1  0
  8  9  2  0
  8 10  1  0
 10 11  1  0
 11 12  1  0
 12 13  1  0
 13 14  1  0
 14 15  1  0
 15 16  1  0
 16 17  2  0
 17 18  1  0
 18 19  2  0
 19 20  1  0
 19 21  1  0
 21 22  2  0
 15 23  1  0
 23 24  1  0
  7 25  2  0
 25 26  1  0
 25  3  1  0
 24 12  1  0
 22 16  1  0
  1 27  1  0
  1 28  1  0
  1 29  1  0
  2 30  1  0
  2 31  1  0
  5 32  1  0
  5 33  1  0
  5 34  1  0
  6 35  1  0
 10 36  1  0
 10 37  1  0
 11 38  1  0
 11 39  1  0
 12 40  1  0
 13 41  1  0
 13 42  1  0
 14 43  1  0
 14 44  1  0
 17 45  1  0
 18 46  1  0
 21 47  1  0
 22 48  1  0
 23 49  1  0
 23 50  1  0
 24 51  1  0
 24 52  1  0
 26 53  1  0
 26 54  1  0
 26 55  1  0
M  CHG  1  12   1
M  END
>  <UniqueID>  (6) 
6

>  <SMILES>  (6) 
CCn1c(C)cc(C(=O)CC[NH+]2CCN(c3ccc(Cl)cc3)CC2)c1C

>  <Energy>  (6) 
90.96937161883795

>  <Genealogy>  (6) 
CCn1c(C)cc(C(=O)CC[NH+]2CCN(c3ccc(Cl)cc3)CC2)c1C (protonated)
CCn1c(C)cc(C(=O)CC[NH+]2CCN(c3ccc(Cl)cc3)CC2)c1C (3D coordinates assigned)
CCn1c(C)cc(C(=O)CC[NH+]2CCN(c3ccc(Cl)cc3)CC2)c1C (nonaromatic ring conformer: 90.96937161883795 kcal/mol)

>  <smiles>  (6) 
CCn1c(C)cc(C(=O)CCN2CCN(c3ccc(Cl)cc3)CC2)c1C

>  <score_type>  (6) 
oracle

>  <origin>  (6) 
adg

>  <m_score__min__energy>  (6) 
-7.8600000000000003

>  <m_primary>  (6) 
energy

$$$$
6:0
     RDKit          3D

 34 36  0  0  0  0  0  0  0  0999 V2000
   -3.0110   24.1320  -27.7900 C   0  0  0  0  0  0  0  0  0  0  0  0
   -2.2420   24.5020  -29.0530 C   0  0  0  0  0  0  0  0  0  0  0  0
   -3.1340   24.9270  -30.0830 O   0  0  0  0  0  0  0  0  0  0  0  0
   -4.3990   24.3760  -30.3510 C   0  0  0  0  0  0  0  0  0  0  0  0
   -5.5900   24.9560  -29.8910 C   0  0  0  0  0  0  0  0  0  0  0  0
   -6.8160   24.3670  -30.1870 C   0  0  0  0  0  0  0  0  0  0  0  0
   -6.8760   23.1890  -30.9480 C   0  0  0  0  0  0  0  0  0  0  0  0
   -8.1160   22.6170  -31.2310 C   0  0  0  0  0  0  0  0  0  0  0  0
   -8.2220   21.4750  -31.9690 N   0  0  0  0  0  0  0  0  0  0  0  0
   -9.5730   20.9420  -32.2180 C   0  0  0  0  0  0  0  0  0  0  0  0
   -7.0950   20.8480  -32.4590 C   0  0  0  0  0  0  0  0  0  0  0  0
   -7.1960   19.6610  -33.2250 C   0  0  0  0  0  0  0  0  0  0  0  0
   -6.0610   19.0260  -33.7220 C   0  0  0  0  0  0  0  0  0  0  0  0
   -4.8030   19.5520  -33.4700 C   0  0  0  0  0  0  0  0  0  0  0  0
   -4.6650   20.7180  -32.7200 C   0  0  0  0  0  0  0  0  0  0  0  0
   -5.7980   21.3910  -32.1990 C   0  0  0  0  0  0  0  0  0  0  0  0
   -5.6930   22.5850  -31.4280 C   0  0  0  0  0  0  0  0  0  0  0  0
   -4.4570   23.2030  -31.1140 C   0  0  0  0  0  0  0  0  0  0  0  0
   -2.4216   24.4156  -26.9056 H   0  0  0  0  0  0  0  0  0  0  0  0
   -3.9726   24.6660  -27.7765 H   0  0  0  0  0  0  0  0  0  0  0  0
   -3.1938   23.0474  -27.7765 H   0  0  0  0  0  0  0  0  0  0  0  0
   -1.5417   25.3185  -28.8227 H   0  0  0  0  0  0  0  0  0  0  0  0
   -1.6940   23.6155  -29.4047 H   0  0  0  0  0  0  0  0  0  0  0  0
   -5.5553   25.8794  -29.2943 H   0  0  0  0  0  0  0  0  0  0  0  0
   -7.7453   24.8284  -29.8216 H   0  0  0  0  0  0  0  0  0  0  0  0
   -9.0292   23.0978  -30.8504 H   0  0  0  0  0  0  0  0  0  0  0  0
  -10.0722   20.7451  -31.2578 H   0  0  0  0  0  0  0  0  0  0  0  0
  -10.1573   21.6770  -32.7910 H   0  0  0  0  0  0  0  0  0  0  0  0
   -9.4981   20.0061  -32.7910 H   0  0  0  0  0  0  0  0  0  0  0  0
   -8.1884   19.2334  -33.4308 H   0  0  0  0  0  0  0  0  0  0  0  0
   -6.1624   18.1055  -34.3156 H   0  0  0  0  0  0  0  0  0  0  0  0
   -3.9094   19.0461  -33.8643 H   0  0  0  0  0  0  0  0  0  0  0  0
   -3.6601   21.1228  -32.5292 H   0  0  0  0  0  0  0  0  0  0  0  0
   -3.5223   22.7513  -31.4777 H   0  0  0  0  0  0  0  0  0  0  0  0
  1  2  1  0
  2  3  1  0
  3  4  1  0
  4  5  2  0
  5  6  1  0
  6  7  2  0
  7  8  1  0
  8  9  2  0
  9 10  1  0
  9 11  1  0
 11 12  2  0
 12 13  1  0
 13 14  2  0
 14 15  1  0
 15 16  2  0
 16 17  1  0
 17 18  2  0
 18  4  1  0
 17  7  1  0
 16 11  1  0
  1 19  1  0
  1 20  1  0
  1 21  1  0
  2 22  1  0
  2 23  1  0
  5 24  1  0
  6 25  1  0
  8 26  1  0
 10 27  1  0
 10 28  1  0
 10 29  1  0
 12 30  1  0
 13 31  1  0
 14 32  1  0
 15 33  1  0
 18 34  1  0
M  CHG  1   9   1
M  END
>  <UniqueID>  (7) 
7

>  <SMILES>  (7) 
CCOc1ccc2c[n+](C)c3ccccc3c2c1

>  <Energy>  (7) 
50.032929437378016

>  <Genealogy>  (7) 
CCOc1ccc2c[n+](C)c3ccccc3c2c1 (3D coordinates assigned)
CCOc1ccc2c[n+](C)c3ccccc3c2c1 (optimized conformer: 50.032929437378016 kcal/mol)

>  <smiles>  (7) 
CCOc1ccc2c[n+](C)c3ccccc3c2c1

>  <score_type>  (7) 
oracle

>  <origin>  (7) 
adg

>  <m_score__min__energy>  (7) 
-7.54

>  <m_primary>  (7) 
energy

$$$$
7:0
     RDKit          3D

 63 66  0  0  0  0  0  0  0  0999 V2000
   -1.2630   28.2700  -34.1400 C   0  0  0  0  0  0  0  0  0  0  0  0
   -1.0990   27.9630  -35.6250 C   0  0  0  0  0  0  0  0  0  0  0  0
   -0.0990   26.9800  -35.8170 O   0  0  0  0  0  0  0  0  0  0  0  0
   -0.4880   26.0680  -36.8240 C   0  0  0  0  0  0  0  0  0  0  0  0
    0.7250   25.7330  -37.6900 C   0  0  0  0  0  0  0  0  0  0  0  0
    1.3340   24.5370  -37.2410 O   0  0  0  0  0  0  0  0  0  0  0  0
    0.8880   24.1830  -35.9430 C   0  0  0  0  0  0  0  0  0  0  0  0
    0.8310   22.6610  -35.7990 C   0  0  0  0  0  0  0  0  0  0  0  0
    1.5450   22.2520  -34.6460 O   0  0  0  0  0  0  0  0  0  0  0  0
    0.9110   21.1620  -34.0040 C   0  0  0  0  0  0  0  0  0  0  0  0
   -0.5560   21.0700  -34.4380 C   0  0  0  0  0  0  0  0  0  0  0  0
   -1.4860   20.9250  -33.2290 C   0  0  0  0  0  0  0  0  0  0  0  0
   -2.8660   21.2370  -33.6050 N   0  0  0  0  0  0  0  0  0  0  0  0
   -3.9130   20.2650  -33.4720 C   0  0  0  0  0  0  0  0  0  0  0  0
   -5.1720   20.6510  -33.0260 C   0  0  0  0  0  0  0  0  0  0  0  0
   -6.1770   19.7240  -32.8120 C   0  0  0  0  0  0  0  0  0  0  0  0
   -5.9510   18.3770  -32.9390 N   0  0  0  0  0  0  0  0  0  0  0  0
   -6.9190   17.4130  -32.3910 C   0  0  0  0  0  0  0  0  0  0  0  0
   -4.7700   17.9610  -33.5340 C   0  0  0  0  0  0  0  0  0  0  0  0
   -4.5690   16.6140  -33.9240 C   0  0  0  0  0  0  0  0  0  0  0  0
   -3.3730   16.2080  -34.5170 C   0  0  0  0  0  0  0  0  0  0  0  0
   -2.3590   17.1310  -34.7580 C   0  0  0  0  0  0  0  0  0  0  0  0
   -2.5320   18.4690  -34.4140 C   0  0  0  0  0  0  0  0  0  0  0  0
   -3.7220   18.9040  -33.7990 C   0  0  0  0  0  0  0  0  0  0  0  0
   -7.3880   20.4580  -32.3630 C   0  0  0  0  0  0  0  0  0  0  0  0
   -8.7190   20.0490  -32.1990 C   0  0  0  0  0  0  0  0  0  0  0  0
   -9.6790   21.0080  -31.8320 C   0  0  0  0  0  0  0  0  0  0  0  0
   -9.3170   22.3600  -31.6770 C   0  0  0  0  0  0  0  0  0  0  0  0
   -7.9960   22.7710  -31.9080 C   0  0  0  0  0  0  0  0  0  0  0  0
   -7.0560   21.8010  -32.2570 C   0  0  0  0  0  0  0  0  0  0  0  0
   -5.6700   21.9750  -32.6610 C   0  0  0  0  0  0  0  0  0  0  0  0
   -5.0390   23.0630  -32.7100 O   0  0  0  0  0  0  0  0  0  0  0  0
   -0.8267   27.4532  -33.5463 H   0  0  0  0  0  0  0  0  0  0  0  0
   -0.7481   29.2123  -33.9013 H   0  0  0  0  0  0  0  0  0  0  0  0
   -2.3325   28.3659  -33.9013 H   0  0  0  0  0  0  0  0  0  0  0  0
   -2.0537   27.5923  -36.0263 H   0  0  0  0  0  0  0  0  0  0  0  0
   -0.8010   28.8830  -36.1493 H   0  0  0  0  0  0  0  0  0  0  0  0
   -0.8741   25.1488  -36.3594 H   0  0  0  0  0  0  0  0  0  0  0  0
   -1.2756   26.5171  -37.4469 H   0  0  0  0  0  0  0  0  0  0  0  0
    0.4017   25.6059  -38.7337 H   0  0  0  0  0  0  0  0  0  0  0  0
    1.4534   26.5541  -37.6184 H   0  0  0  0  0  0  0  0  0  0  0  0
    1.5837   24.5926  -35.1958 H   0  0  0  0  0  0  0  0  0  0  0  0
   -0.1194   24.5957  -35.7854 H   0  0  0  0  0  0  0  0  0  0  0  0
   -0.2183   22.3436  -35.7083 H   0  0  0  0  0  0  0  0  0  0  0  0
    1.2875   22.1990  -36.6868 H   0  0  0  0  0  0  0  0  0  0  0  0
    1.4288   20.2301  -34.2749 H   0  0  0  0  0  0  0  0  0  0  0  0
    0.9535   21.3136  -32.9153 H   0  0  0  0  0  0  0  0  0  0  0  0
   -0.8246   21.9832  -34.9892 H   0  0  0  0  0  0  0  0  0  0  0  0
   -0.6744   20.1816  -35.0757 H   0  0  0  0  0  0  0  0  0  0  0  0
   -1.4370   19.8912  -32.8562 H   0  0  0  0  0  0  0  0  0  0  0  0
   -1.1632   21.6258  -32.4450 H   0  0  0  0  0  0  0  0  0  0  0  0
   -3.1290   22.2400  -33.7300 H   0  0  0  0  0  0  0  0  0  0  0  0
   -6.8865   17.4453  -31.2920 H   0  0  0  0  0  0  0  0  0  0  0  0
   -7.9307   17.6730  -32.7358 H   0  0  0  0  0  0  0  0  0  0  0  0
   -6.6632   16.4002  -32.7358 H   0  0  0  0  0  0  0  0  0  0  0  0
   -5.3681   15.8768  -33.7568 H   0  0  0  0  0  0  0  0  0  0  0  0
   -3.2306   15.1534  -34.7955 H   0  0  0  0  0  0  0  0  0  0  0  0
   -1.4175   16.8019  -35.2220 H   0  0  0  0  0  0  0  0  0  0  0  0
   -1.7314   19.1934  -34.6246 H   0  0  0  0  0  0  0  0  0  0  0  0
   -9.0063   18.9986  -32.3544 H   0  0  0  0  0  0  0  0  0  0  0  0
  -10.7216   20.6998  -31.6645 H   0  0  0  0  0  0  0  0  0  0  0  0
  -10.0743   23.0977  -31.3731 H   0  0  0  0  0  0  0  0  0  0  0  0
   -7.7091   23.8290  -31.8165 H   0  0  0  0  0  0  0  0  0  0  0  0
  1  2  1  0
  2  3  1  0
  3  4  1  0
  4  5  1  0
  5  6  1  0
  6  7  1  0
  7  8  1  0
  8  9  1  0
  9 10  1  0
 10 11  1  0
 11 12  1  0
 12 13  1  0
 13 14  1  0
 14 15  2  0
 15 16  1  0
 16 17  2  0
 17 18  1  0
 17 19  1  0
 19 20  2  0
 20 21  1  0
 21 22  2  0
 22 23  1  0
 23 24  2  0
 16 25  1  0
 25 26  2  0
 26 27  1  0
 27 28  2  0
 28 29  1  0
 29 30  2  0
 30 31  1  0
 31 32  2  0
 24 14  1  0
 30 25  1  0
 31 15  1  0
 24 19  1  0
  1 33  1  0
  1 34  1  0
  1 35  1  0
  2 36  1  0
  2 37  1  0
  4 38  1  0
  4 39  1  0
  5 40  1  0
  5 41  1  0
  7 42  1  0
  7 43  1  0
  8 44  1  0
  8 45  1  0
 10 46  1  0
 10 47  1  0
 11 48  1  0
 11 49  1  0
 12 50  1  0
 12 51  1  0
 13 52  1  0
 18 53  1  0
 18 54  1  0
 18 55  1  0
 20 56  1  0
 21 57  1  0
 22 58  1  0
 23 59  1  0
 26 60  1  0
 27 61  1  0
 28 62  1  0
 29 63  1  0
M  CHG  1  17   1
M  END
>  <UniqueID>  (8) 
8

>  <SMILES>  (8) 
CCOCCOCCOCCCNc1c2c([n+](C)c3ccccc13)-c1ccccc1C2=O

>  <Energy>  (8) 
118.02619965559862

>  <Genealogy>  (8) 
CCOCCOCCOCCCNc1c2c([n+](C)c3ccccc13)-c1ccccc1C2=O (3D coordinates assigned)
CCOCCOCCOCCCNc1c2c([n+](C)c3ccccc13)-c1ccccc1C2=O (nonaromatic ring conformer: 118.02619965559862 kcal/mol)

>  <smiles>  (8) 
CCOCCOCCOCCCNc1c2c([n+](C)c3ccccc13)-c1ccccc1C2=O

>  <score_type>  (8) 
oracle

>  <origin>  (8) 
adg

>  <m_score__min__energy>  (8) 
-9.7100000000000009

>  <m_primary>  (8) 
energy

$$$$
8:0
     RDKit          3D

 61 63  0  0  0  0  0  0  0  0999 V2000
   -0.9080   23.2600  -29.2750 C   0  0  0  0  0  0  0  0  0  0  0  0
   -1.9640   22.7440  -30.2390 C   0  0  0  0  0  0  0  0  0  0  0  0
   -2.6380   21.6510  -29.6510 O   0  0  0  0  0  0  0  0  0  0  0  0
   -2.8020   21.8550  -28.2580 C   0  0  0  0  0  0  0  0  0  0  0  0
   -4.0550   22.6840  -28.0060 C   0  0  0  0  0  0  0  0  0  0  0  0
   -4.9620   22.4900  -29.0750 O   0  0  0  0  0  0  0  0  0  0  0  0
   -5.7050   23.6660  -29.3360 C   0  0  0  0  0  0  0  0  0  0  0  0
   -4.8130   24.8480  -29.7230 C   0  0  0  0  0  0  0  0  0  0  0  0
   -4.8440   25.0320  -31.1270 O   0  0  0  0  0  0  0  0  0  0  0  0
   -5.8010   24.1830  -31.7340 C   0  0  0  0  0  0  0  0  0  0  0  0
   -5.1650   23.0420  -32.5460 C   0  0  0  0  0  0  0  0  0  0  0  0
   -4.8220   21.8680  -31.7340 N   0  0  0  0  0  0  0  0  0  0  0  0
   -5.0570   20.4980  -32.1120 C   0  0  0  0  0  0  0  0  0  0  0  0
   -4.0590   19.7330  -32.7530 C   0  0  0  0  0  0  0  0  0  0  0  0
   -4.3750   18.5160  -33.3110 C   0  0  0  0  0  0  0  0  0  0  0  0
   -5.6140   17.9430  -33.1980 N   0  0  0  0  0  0  0  0  0  0  0  0
   -5.8510   16.6020  -33.7650 C   0  0  0  0  0  0  0  0  0  0  0  0
   -6.6330   18.6700  -32.6160 C   0  0  0  0  0  0  0  0  0  0  0  0
   -7.9620   18.1810  -32.5780 C   0  0  0  0  0  0  0  0  0  0  0  0
   -8.9970   18.9520  -32.0520 C   0  0  0  0  0  0  0  0  0  0  0  0
   -8.7440   20.2320  -31.5770 C   0  0  0  0  0  0  0  0  0  0  0  0
   -7.4510   20.7490  -31.6080 C   0  0  0  0  0  0  0  0  0  0  0  0
   -6.3740   19.9760  -32.0920 C   0  0  0  0  0  0  0  0  0  0  0  0
   -3.2510   18.0340  -34.1540 C   0  0  0  0  0  0  0  0  0  0  0  0
   -2.3430   19.2690  -34.2220 C   0  0  0  0  0  0  0  0  0  0  0  0
   -2.7040   20.1340  -33.0670 N   0  0  2  0  0  0  0  0  0  0  0  0
   -1.7910   19.8570  -31.9420 C   0  0  0  0  0  0  0  0  0  0  0  0
   -2.6160   21.4590  -33.4000 O   0  0  0  0  0  0  0  0  0  0  0  0
   -1.2442   23.0957  -28.2406 H   0  0  0  0  0  0  0  0  0  0  0  0
    0.0365   22.7219  -29.4434 H   0  0  0  0  0  0  0  0  0  0  0  0
   -0.7521   24.3358  -29.4434 H   0  0  0  0  0  0  0  0  0  0  0  0
   -2.6848   23.5456  -30.4580 H   0  0  0  0  0  0  0  0  0  0  0  0
   -1.4832   22.4208  -31.1741 H   0  0  0  0  0  0  0  0  0  0  0  0
   -2.8998   20.8818  -27.7547 H   0  0  0  0  0  0  0  0  0  0  0  0
   -1.9256   22.3886  -27.8617 H   0  0  0  0  0  0  0  0  0  0  0  0
   -4.5236   22.3657  -27.0631 H   0  0  0  0  0  0  0  0  0  0  0  0
   -3.7869   23.7486  -27.9363 H   0  0  0  0  0  0  0  0  0  0  0  0
   -6.4038   23.4660  -30.1617 H   0  0  0  0  0  0  0  0  0  0  0  0
   -6.2377   23.9371  -28.4126 H   0  0  0  0  0  0  0  0  0  0  0  0
   -5.1785   25.7593  -29.2270 H   0  0  0  0  0  0  0  0  0  0  0  0
   -3.7798   24.6428  -29.4060 H   0  0  0  0  0  0  0  0  0  0  0  0
   -6.4296   23.7436  -30.9455 H   0  0  0  0  0  0  0  0  0  0  0  0
   -6.3876   24.7966  -32.4336 H   0  0  0  0  0  0  0  0  0  0  0  0
   -5.8759   22.7308  -33.3256 H   0  0  0  0  0  0  0  0  0  0  0  0
   -4.2263   23.4292  -32.9690 H   0  0  0  0  0  0  0  0  0  0  0  0
   -4.2970   22.0300  -30.8450 H   0  0  0  0  0  0  0  0  0  0  0  0
   -5.9793   15.8761  -32.9485 H   0  0  0  0  0  0  0  0  0  0  0  0
   -6.7597   16.6213  -34.3846 H   0  0  0  0  0  0  0  0  0  0  0  0
   -4.9908   16.3086  -34.3846 H   0  0  0  0  0  0  0  0  0  0  0  0
   -8.1806   17.1767  -32.9699 H   0  0  0  0  0  0  0  0  0  0  0  0
  -10.0182   18.5450  -32.0130 H   0  0  0  0  0  0  0  0  0  0  0  0
   -9.5677   20.8400  -31.1747 H   0  0  0  0  0  0  0  0  0  0  0  0
   -7.2670   21.7729  -31.2507 H   0  0  0  0  0  0  0  0  0  0  0  0
   -2.7346   17.1849  -33.6825 H   0  0  0  0  0  0  0  0  0  0  0  0
   -3.5666   17.6635  -35.1405 H   0  0  0  0  0  0  0  0  0  0  0  0
   -1.2875   18.9669  -34.1532 H   0  0  0  0  0  0  0  0  0  0  0  0
   -2.4776   19.8051  -35.1730 H   0  0  0  0  0  0  0  0  0  0  0  0
   -2.3209   20.0178  -30.9916 H   0  0  0  0  0  0  0  0  0  0  0  0
   -1.4464   18.8139  -31.9978 H   0  0  0  0  0  0  0  0  0  0  0  0
   -0.9249   20.5328  -31.9978 H   0  0  0  0  0  0  0  0  0  0  0  0
   -2.7020   21.5380  -34.3880 H   0  0  0  0  0  0  0  0  0  0  0  0
  1  2  1  0
  2  3  1  0
  3  4  1  0
  4  5  1  0
  5  6  1  0
  6  7  1  0
  7  8  1  0
  8  9  1  0
  9 10  1  0
 10 11  1  0
 11 12  1  0
 12 13  1  0
 13 14  2  0
 14 15  1  0
 15 16  2  0
 16 17  1  0
 16 18  1  0
 18 19  2  0
 19 20  1  0
 20 21  2  0
 21 22  1  0
 22 23  2  0
 15 24  1  0
 24 25  1  0
 25 26  1  0
 26 27  1  0
 26 28  1  6
 23 13  1  0
 26 14  1  0
 23 18  1  0
  1 29  1  0
  1 30  1  0
  1 31  1  0
  2 32  1  0
  2 33  1  0
  4 34  1  0
  4 35  1  0
  5 36  1  0
  5 37  1  0
  7 38  1  0
  7 39  1  0
  8 40  1  0
  8 41  1  0
 10 42  1  0
 10 43  1  0
 11 44  1  0
 11 45  1  0
 12 46  1  0
 17 47  1  0
 17 48  1  0
 17 49  1  0
 19 50  1  0
 20 51  1  0
 21 52  1  0
 22 53  1  0
 24 54  1  0
 24 55  1  0
 25 56  1  0
 25 57  1  0
 27 58  1  0
 27 59  1  0
 27 60  1  0
 28 61  1  0
M  CHG  2  16   1  26   1
M  END
>  <UniqueID>  (9) 
9

>  <SMILES>  (9) 
CCOCCOCCOCCNc1c2c([n+](C)c3ccccc13)CC[N@@+]2(C)O

>  <Energy>  (9) 
93.4610675939998

>  <Genealogy>  (9) 
CCOCCOCCOCCNc1c2c([n+](C)c3ccccc13)CC[N+]2(C)O (protonated)
CCOCCOCCOCCNc1c2c([n+](C)c3ccccc13)CC[N@@+]2(C)O (chirality)
CCOCCOCCOCCNc1c2c([n+](C)c3ccccc13)CC[N@@+]2(C)O (3D coordinates assigned)
CCOCCOCCOCCNc1c2c([n+](C)c3ccccc13)CC[N@@+]2(C)O (nonaromatic ring conformer: 93.4610675939998 kcal/mol)

>  <smiles>  (9) 
CCOCCOCCOCCNc1c2c([n+](C)c3ccccc13)CC[N+]2(C)[O-]

>  <score_type>  (9) 
oracle

>  <origin>  (9) 
adg

>  <m_score__min__energy>  (9) 
-8.4199999999999999

>  <m_primary>  (9) 
energy

$$$$
9:0
     RDKit          3D

 47 49  0  0  0  0  0  0  0  0999 V2000
   -2.4020   17.9430  -34.1800 C   0  0  0  0  0  0  0  0  0  0  0  0
   -3.7230   17.2070  -34.4600 C   0  0  0  0  0  0  0  0  0  0  0  0
   -4.9320   17.7660  -33.7810 N   0  0  1  0  0  0  0  0  0  0  0  0
   -4.6340   18.1980  -32.3870 C   0  0  0  0  0  0  0  0  0  0  0  0
   -5.9170   18.7320  -31.6950 C   0  0  0  0  0  0  0  0  0  0  0  0
   -7.0890   18.6270  -32.6090 N   0  0  1  0  0  0  0  0  0  0  0  0
   -8.3710   19.0480  -31.9550 C   0  0  0  0  0  0  0  0  0  0  0  0
   -8.8620   20.5000  -32.2060 C   0  0  0  0  0  0  0  0  0  0  0  0
   -7.9770   21.5690  -31.6200 C   0  0  0  0  0  0  0  0  0  0  0  0
   -8.0730   21.9060  -30.2600 C   0  0  0  0  0  0  0  0  0  0  0  0
   -7.2590   22.9040  -29.7190 C   0  0  0  0  0  0  0  0  0  0  0  0
   -6.3260   23.5680  -30.5270 C   0  0  0  0  0  0  0  0  0  0  0  0
   -5.3140   24.8400  -29.8510 S   0  0  0  0  0  0  0  0  0  0  0  0
   -4.2550   25.2300  -30.8420 O   0  0  0  0  0  0  0  0  0  0  0  0
   -6.1530   26.0470  -29.5390 O   0  0  0  0  0  0  0  0  0  0  0  0
   -4.5890   24.2860  -28.4480 F   0  0  0  0  0  0  0  0  0  0  0  0
   -6.2200   23.2290  -31.8830 C   0  0  0  0  0  0  0  0  0  0  0  0
   -7.0330   22.2300  -32.4250 C   0  0  0  0  0  0  0  0  0  0  0  0
   -6.8130   19.4090  -33.8470 C   0  0  0  0  0  0  0  0  0  0  0  0
   -5.5130   18.9120  -34.5330 C   0  0  0  0  0  0  0  0  0  0  0  0
   -7.2330   17.1960  -33.0060 C   0  0  0  0  0  0  0  0  0  0  0  0
   -5.9590   16.6910  -33.7190 C   0  0  0  0  0  0  0  0  0  0  0  0
   -2.2520   18.0266  -33.0935 H   0  0  0  0  0  0  0  0  0  0  0  0
   -1.5674   17.3798  -34.6231 H   0  0  0  0  0  0  0  0  0  0  0  0
   -2.4417   18.9490  -34.6231 H   0  0  0  0  0  0  0  0  0  0  0  0
   -3.9017   17.2340  -35.5450 H   0  0  0  0  0  0  0  0  0  0  0  0
   -3.5932   16.1926  -34.0550 H   0  0  0  0  0  0  0  0  0  0  0  0
   -4.2463   17.3403  -31.8177 H   0  0  0  0  0  0  0  0  0  0  0  0
   -3.8857   19.0037  -32.4175 H   0  0  0  0  0  0  0  0  0  0  0  0
   -6.1116   18.1402  -30.7884 H   0  0  0  0  0  0  0  0  0  0  0  0
   -5.7648   19.7897  -31.4340 H   0  0  0  0  0  0  0  0  0  0  0  0
   -9.1599   18.3678  -32.3086 H   0  0  0  0  0  0  0  0  0  0  0  0
   -8.1616   19.0060  -30.8759 H   0  0  0  0  0  0  0  0  0  0  0  0
   -8.9203   20.6599  -33.2928 H   0  0  0  0  0  0  0  0  0  0  0  0
   -9.8369   20.5915  -31.7047 H   0  0  0  0  0  0  0  0  0  0  0  0
   -8.7940   21.3806  -29.6165 H   0  0  0  0  0  0  0  0  0  0  0  0
   -7.3506   23.1696  -28.6555 H   0  0  0  0  0  0  0  0  0  0  0  0
   -5.4939   23.7515  -32.5231 H   0  0  0  0  0  0  0  0  0  0  0  0
   -6.9338   21.9596  -33.4866 H   0  0  0  0  0  0  0  0  0  0  0  0
   -7.6562   19.2914  -34.5436 H   0  0  0  0  0  0  0  0  0  0  0  0
   -6.6863   20.4673  -33.5752 H   0  0  0  0  0  0  0  0  0  0  0  0
   -5.7451   18.5912  -35.5592 H   0  0  0  0  0  0  0  0  0  0  0  0
   -4.7824   19.7342  -34.5488 H   0  0  0  0  0  0  0  0  0  0  0  0
   -7.4068   16.5882  -32.1058 H   0  0  0  0  0  0  0  0  0  0  0  0
   -8.0824   17.1073  -33.6993 H   0  0  0  0  0  0  0  0  0  0  0  0
   -5.5509   15.8328  -33.1650 H   0  0  0  0  0  0  0  0  0  0  0  0
   -6.2216   16.3921  -34.7445 H   0  0  0  0  0  0  0  0  0  0  0  0
  1  2  1  0
  3  2  1  6
  3  4  1  0
  4  5  1  0
  5  6  1  0
  6  7  1  1
  7  8  1  0
  8  9  1  0
  9 10  2  0
 10 11  1  0
 11 12  2  0
 12 13  1  0
 13 14  2  0
 13 15  2  0
 13 16  1  0
 12 17  1  0
 17 18  2  0
  6 19  1  0
 19 20  1  0
  6 21  1  0
 21 22  1  0
 20  3  1  0
 22  3  1  0
 18  9  1  0
  1 23  1  0
  1 24  1  0
  1 25  1  0
  2 26  1  0
  2 27  1  0
  4 28  1  0
  4 29  1  0
  5 30  1  0
  5 31  1  0
  7 32  1  0
  7 33  1  0
  8 34  1  0
  8 35  1  0
 10 36  1  0
 11 37  1  0
 17 38  1  0
 18 39  1  0
 19 40  1  0
 19 41  1  0
 20 42  1  0
 20 43  1  0
 21 44  1  0
 21 45  1  0
 22 46  1  0
 22 47  1  0
M  CHG  2   3   1   6   1
M  END
>  <UniqueID>  (10) 
10

>  <SMILES>  (10) 
CC[N+]12CC[N+](CCc3ccc(S(=O)(=O)F)cc3)(CC1)CC2

>  <Energy>  (10) 
77.77787676806831

>  <Genealogy>  (10) 
CC[N+]12CC[N+](CCc3ccc(S(=O)(=O)F)cc3)(CC1)CC2 (3D coordinates assigned)
CC[N+]12CC[N+](CCc3ccc(S(=O)(=O)F)cc3)(CC1)CC2 (nonaromatic ring conformer: 77.77787676806831 kcal/mol)

>  <smiles>  (10) 
CC[N+]12CC[N+](CCc3ccc(S(=O)(=O)F)cc3)(CC1)CC2

>  <score_type>  (10) 
oracle

>  <origin>  (10) 
adg

>  <m_score__min__energy>  (10) 
-7.1500000000000004

>  <m_primary>  (10) 
energy

$$$$
10:0
     RDKit          3D

 57 58  0  0  0  0  0  0  0  0999 V2000
   -2.7150   19.0270  -26.7300 C   0  0  0  0  0  0  0  0  0  0  0  0
   -2.4220   20.0580  -27.8200 C   0  0  0  0  0  0  0  0  0  0  0  0
   -3.4040   21.2550  -27.7860 C   0  0  0  0  0  0  0  0  0  0  0  0
   -3.4870   22.0000  -29.0640 N   0  0  0  0  0  0  0  0  0  0  0  0
   -2.9160   21.2430  -30.2060 C   0  0  0  0  0  0  0  0  0  0  0  0
   -1.6540   21.9350  -30.7370 C   0  0  0  0  0  0  0  0  0  0  0  0
   -1.2600   21.4370  -32.1260 C   0  0  0  0  0  0  0  0  0  0  0  0
   -2.9710   23.3810  -28.9480 C   0  0  0  0  0  0  0  0  0  0  0  0
   -4.0200   24.4090  -29.3820 C   0  0  0  0  0  0  0  0  0  0  0  0
   -4.2150   24.3410  -30.8330 N   0  0  0  0  0  0  0  0  0  0  0  0
   -5.5290   24.8650  -31.2180 C   0  0  0  0  0  0  0  0  0  0  0  0
   -6.4100   23.7420  -31.7780 C   0  0  0  0  0  0  0  0  0  0  0  0
   -5.9870   22.4310  -31.2780 N   0  0  0  0  0  0  0  0  0  0  0  0
   -6.5950   21.2050  -31.7250 C   0  0  0  0  0  0  0  0  0  0  0  0
   -5.8470   20.3030  -32.5190 C   0  0  0  0  0  0  0  0  0  0  0  0
   -4.5010   20.5470  -32.8590 C   0  0  0  0  0  0  0  0  0  0  0  0
   -3.8070   19.6550  -33.6790 C   0  0  0  0  0  0  0  0  0  0  0  0
   -4.4380   18.5100  -34.1680 C   0  0  0  0  0  0  0  0  0  0  0  0
   -5.7700   18.2510  -33.8370 C   0  0  0  0  0  0  0  0  0  0  0  0
   -6.4800   19.1420  -33.0170 C   0  0  0  0  0  0  0  0  0  0  0  0
   -7.8180   18.8990  -32.7070 C   0  0  0  0  0  0  0  0  0  0  0  0
   -8.5110   19.7960  -31.8980 C   0  0  0  0  0  0  0  0  0  0  0  0
   -7.9000   20.9110  -31.3960 N   0  0  0  0  0  0  0  0  0  0  0  0
   -8.6890   21.7910  -30.5250 C   0  0  0  0  0  0  0  0  0  0  0  0
   -2.5831   19.4910  -25.7414 H   0  0  0  0  0  0  0  0  0  0  0  0
   -3.7503   18.6696  -26.8321 H   0  0  0  0  0  0  0  0  0  0  0  0
   -2.0224   18.1785  -26.8321 H   0  0  0  0  0  0  0  0  0  0  0  0
   -1.3990   20.4374  -27.6804 H   0  0  0  0  0  0  0  0  0  0  0  0
   -2.5397   19.5577  -28.7925 H   0  0  0  0  0  0  0  0  0  0  0  0
   -4.4065   20.8737  -27.5416 H   0  0  0  0  0  0  0  0  0  0  0  0
   -3.0239   21.9584  -27.0305 H   0  0  0  0  0  0  0  0  0  0  0  0
   -2.6579   20.2269  -29.8730 H   0  0  0  0  0  0  0  0  0  0  0  0
   -3.6630   21.2015  -31.0123 H   0  0  0  0  0  0  0  0  0  0  0  0
   -1.8399   23.0179  -30.7892 H   0  0  0  0  0  0  0  0  0  0  0  0
   -0.8279   21.7015  -30.0492 H   0  0  0  0  0  0  0  0  0  0  0  0
   -0.5802   20.5778  -32.0283 H   0  0  0  0  0  0  0  0  0  0  0  0
   -2.1624   21.1300  -32.6751 H   0  0  0  0  0  0  0  0  0  0  0  0
   -0.7537   22.2445  -32.6751 H   0  0  0  0  0  0  0  0  0  0  0  0
   -2.6943   23.5726  -27.9008 H   0  0  0  0  0  0  0  0  0  0  0  0
   -2.0964   23.4798  -29.6078 H   0  0  0  0  0  0  0  0  0  0  0  0
   -4.9725   24.1941  -28.8756 H   0  0  0  0  0  0  0  0  0  0  0  0
   -3.6733   25.4169  -29.1102 H   0  0  0  0  0  0  0  0  0  0  0  0
   -3.4810   24.9280  -31.2950 H   0  0  0  0  0  0  0  0  0  0  0  0
   -6.0175   25.3025  -30.3349 H   0  0  0  0  0  0  0  0  0  0  0  0
   -5.3933   25.6324  -31.9944 H   0  0  0  0  0  0  0  0  0  0  0  0
   -7.4526   23.9208  -31.4763 H   0  0  0  0  0  0  0  0  0  0  0  0
   -6.3155   23.7416  -32.8739 H   0  0  0  0  0  0  0  0  0  0  0  0
   -5.1440   22.3770  -30.6650 H   0  0  0  0  0  0  0  0  0  0  0  0
   -3.9944   21.4452  -32.4762 H   0  0  0  0  0  0  0  0  0  0  0  0
   -2.7577   19.8557  -33.9410 H   0  0  0  0  0  0  0  0  0  0  0  0
   -3.8861   17.8115  -34.8142 H   0  0  0  0  0  0  0  0  0  0  0  0
   -6.2642   17.3460  -34.2201 H   0  0  0  0  0  0  0  0  0  0  0  0
   -8.3229   18.0039  -33.0993 H   0  0  0  0  0  0  0  0  0  0  0  0
   -9.5674   19.6041  -31.6590 H   0  0  0  0  0  0  0  0  0  0  0  0
   -8.4753   21.5527  -29.4726 H   0  0  0  0  0  0  0  0  0  0  0  0
   -8.4227   22.8394  -30.7249 H   0  0  0  0  0  0  0  0  0  0  0  0
   -9.7601   21.6403  -30.7249 H   0  0  0  0  0  0  0  0  0  0  0  0
  1  2  1  0
  2  3  1  0
  3  4  1  0
  4  5  1  0
  5  6  1  0
  6  7  1  0
  4  8  1  0
  8  9  1  0
  9 10  1  0
 10 11  1  0
 11 12  1  0
 12 13  1  0
 13 14  1  0
 14 15  2  0
 15 16  1  0
 16 17  2  0
 17 18  1  0
 18 19  2  0
 19 20  1  0
 20 21  2  0
 21 22  1  0
 22 23  2  0
 23 24  1  0
 23 14  1  0
 20 15  1  0
  1 25  1  0
  1 26  1  0
  1 27  1  0
  2 28  1  0
  2 29  1  0
  3 30  1  0
  3 31  1  0
  5 32  1  0
  5 33  1  0
  6 34  1  0
  6 35  1  0
  7 36  1  0
  7 37  1  0
  7 38  1  0
  8 39  1  0
  8 40  1  0
  9 41  1  0
  9 42  1  0
 10 43  1  0
 11 44  1  0
 11 45  1  0
 12 46  1  0
 12 47  1  0
 13 48  1  0
 16 49  1  0
 17 50  1  0
 18 51  1  0
 19 52  1  0
 21 53  1  0
 22 54  1  0
 24 55  1  0
 24 56  1  0
 24 57  1  0
M  CHG  1  23   1
M  END
>  <UniqueID>  (11) 
11

>  <SMILES>  (11) 
CCCN(CCC)CCNCCNc1c2ccccc2cc[n+]1C

>  <Energy>  (11) 
55.92844880899624

>  <Genealogy>  (11) 
CCCN(CCC)CCNCCNc1c2ccccc2cc[n+]1C (3D coordinates assigned)
CCCN(CCC)CCNCCNc1c2ccccc2cc[n+]1C (optimized conformer: 55.92844880899624 kcal/mol)

>  <smiles>  (11) 
CCCN(CCC)CCNCCNc1c2ccccc2cc[n+]1C

>  <score_type>  (11) 
oracle

>  <origin>  (11) 
adg

>  <m_score__min__energy>  (11) 
-7.6399999999999997

>  <m_primary>  (11) 
energy

$$$$
11:0
     RDKit          3D

 34 33  0  0  0  0  0  0  0  0999 V2000
   -2.3530   25.5670  -25.9540 C   0  0  0  0  0  0  0  0  0  0  0  0
   -1.5910   25.4710  -27.2750 C   0  0  0  0  0  0  0  0  0  0  0  0
   -2.1600   24.3780  -28.1880 C   0  0  0  0  0  0  0  0  0  0  0  0
   -2.5620   24.9240  -29.4800 N   0  0  0  0  0  0  0  0  0  0  0  0
   -3.9070   24.9020  -29.9680 C   0  0  0  0  0  0  0  0  0  0  0  0
   -4.2490   25.6330  -30.9370 O   0  0  0  0  0  0  0  0  0  0  0  0
   -4.9010   23.9620  -29.3590 C   0  0  0  0  0  0  0  0  0  0  0  0
   -6.3460   24.3210  -29.7400 C   0  0  0  0  0  0  0  0  0  0  0  0
   -7.1690   23.1090  -30.2260 C   0  0  0  0  0  0  0  0  0  0  0  0
   -7.2150   22.9750  -31.7640 C   0  0  0  0  0  0  0  0  0  0  0  0
   -7.6630   21.5860  -32.2560 C   0  0  0  0  0  0  0  0  0  0  0  0
   -9.1340   21.2680  -31.9560 C   0  0  0  0  0  0  0  0  0  0  0  0
   -9.4450   19.8890  -32.3200 N   0  0  0  0  0  0  0  0  0  0  0  0
   -8.5580   18.9770  -32.3300 C   0  0  0  0  0  0  0  0  0  0  0  0
   -7.4340   17.8230  -32.3430 S   0  0  0  0  0  0  0  0  0  0  0  0
   -1.6463   25.4780  -25.1158 H   0  0  0  0  0  0  0  0  0  0  0  0
   -2.8684   26.5372  -25.8976 H   0  0  0  0  0  0  0  0  0  0  0  0
   -3.0929   24.7550  -25.8976 H   0  0  0  0  0  0  0  0  0  0  0  0
   -1.6578   26.4382  -27.7947 H   0  0  0  0  0  0  0  0  0  0  0  0
   -0.5462   25.2134  -27.0468 H   0  0  0  0  0  0  0  0  0  0  0  0
   -1.3908   23.6081  -28.3478 H   0  0  0  0  0  0  0  0  0  0  0  0
   -3.0472   23.9460  -27.7019 H   0  0  0  0  0  0  0  0  0  0  0  0
   -4.6850   22.9419  -29.7092 H   0  0  0  0  0  0  0  0  0  0  0  0
   -4.8110   24.0363  -28.2652 H   0  0  0  0  0  0  0  0  0  0  0  0
   -6.8435   24.7494  -28.8574 H   0  0  0  0  0  0  0  0  0  0  0  0
   -6.2946   25.0354  -30.5748 H   0  0  0  0  0  0  0  0  0  0  0  0
   -6.7217   22.1944  -29.8097 H   0  0  0  0  0  0  0  0  0  0  0  0
   -8.2030   23.2601  -29.8824 H   0  0  0  0  0  0  0  0  0  0  0  0
   -7.9179   23.7247  -32.1562 H   0  0  0  0  0  0  0  0  0  0  0  0
   -6.1885   23.1273  -32.1287 H   0  0  0  0  0  0  0  0  0  0  0  0
   -7.5129   21.5385  -33.3447 H   0  0  0  0  0  0  0  0  0  0  0  0
   -7.0577   20.8437  -31.7150 H   0  0  0  0  0  0  0  0  0  0  0  0
   -9.3229   21.4099  -30.8817 H   0  0  0  0  0  0  0  0  0  0  0  0
   -9.7708   21.9433  -32.5463 H   0  0  0  0  0  0  0  0  0  0  0  0
  1  2  1  0
  2  3  1  0
  3  4  1  0
  4  5  1  0
  5  6  2  0
  5  7  1  0
  7  8  1  0
  8  9  1  0
  9 10  1  0
 10 11  1  0
 11 12  1  0
 12 13  1  0
 13 14  2  0
 14 15  2  0
  1 16  1  0
  1 17  1  0
  1 18  1  0
  2 19  1  0
  2 20  1  0
  3 21  1  0
  3 22  1  0
  7 23  1  0
  7 24  1  0
  8 25  1  0
  8 26  1  0
  9 27  1  0
  9 28  1  0
 10 29  1  0
 10 30  1  0
 11 31  1  0
 11 32  1  0
 12 33  1  0
 12 34  1  0
M  CHG  1   4  -1
M  END
>  <UniqueID>  (12) 
12

>  <SMILES>  (12) 
CCC[N-]C(=O)CCCCCCN=C=S

>  <Energy>  (12) 
16.01066987363862

>  <Genealogy>  (12) 
CCC[N-]C(=O)CCCCCCN=C=S (protonated)
CCC[N-]C(=O)CCCCCCN=C=S (3D coordinates assigned)
CCC[N-]C(=O)CCCCCCN=C=S (optimized conformer: 16.01066987363862 kcal/mol)

>  <smiles>  (12) 
CCCNC(=O)CCCCCCN=C=S

>  <score_type>  (12) 
oracle

>  <origin>  (12) 
adg

>  <m_score__min__energy>  (12) 
-7.3799999999999999

>  <m_primary>  (12) 
energy

$$$$
12:0
     RDKit          3D

 86 90  0  0  0  0  0  0  0  0999 V2000
   -3.7270   22.3760  -28.5310 C   0  0  0  0  0  0  0  0  0  0  0  0
   -2.9130   21.0780  -28.6170 C   0  0  0  0  0  0  0  0  0  0  0  0
   -2.0680   20.9690  -29.8310 N   0  0  1  0  0  0  0  0  0  0  0  0
   -0.9100   20.0790  -29.6100 C   0  0  0  0  0  0  0  0  0  0  0  0
   -2.8520   20.5640  -31.0290 C   0  0  0  0  0  0  0  0  0  0  0  0
   -2.5190   21.4080  -32.2760 C   0  0  0  0  0  0  0  0  0  0  0  0
   -3.6460   21.4480  -33.2130 N   0  0  0  0  0  0  0  0  0  0  0  0
   -5.0030   21.3190  -32.7750 C   0  0  0  0  0  0  0  0  0  0  0  0
   -5.6420   22.3480  -32.0460 C   0  0  0  0  0  0  0  0  0  0  0  0
   -4.9210   23.4790  -31.6200 C   0  0  0  0  0  0  0  0  0  0  0  0
   -5.5400   24.4810  -30.8780 C   0  0  0  0  0  0  0  0  0  0  0  0
   -6.8830   24.3670  -30.5340 C   0  0  0  0  0  0  0  0  0  0  0  0
   -7.6270   23.2580  -30.9460 C   0  0  0  0  0  0  0  0  0  0  0  0
   -7.0400   22.2380  -31.7320 C   0  0  0  0  0  0  0  0  0  0  0  0
   -7.7740   21.1490  -32.1780 N   0  0  0  0  0  0  0  0  0  0  0  0
   -9.2310   21.0560  -31.9720 C   0  0  0  0  0  0  0  0  0  0  0  0
   -7.1050   20.1270  -32.7970 C   0  0  0  0  0  0  0  0  0  0  0  0
   -7.6180   18.9150  -33.1290 N   0  0  0  0  0  0  0  0  0  0  0  0
   -6.5750   18.2140  -33.6120 C   0  0  0  0  0  0  0  0  0  0  0  0
   -6.5830   16.8720  -33.9860 C   0  0  0  0  0  0  0  0  0  0  0  0
   -5.3620   16.2750  -34.3380 C   0  0  0  0  0  0  0  0  0  0  0  0
   -4.1530   17.0210  -34.3000 C   0  0  0  0  0  0  0  0  0  0  0  0
   -2.9120   16.4350  -34.5830 O   0  0  0  0  0  0  0  0  0  0  0  0
   -1.6730   16.9290  -34.0780 C   0  0  0  0  0  0  0  0  0  0  0  0
   -1.1180   18.0910  -34.9360 C   0  0  0  0  0  0  0  0  0  0  0  0
    0.3740   18.2710  -34.9480 N   0  0  2  0  0  0  0  0  0  0  0  0
    1.0350   16.9340  -34.9560 C   0  0  0  0  0  0  0  0  0  0  0  0
    0.7790   18.9260  -33.6530 C   0  0  0  0  0  0  0  0  0  0  0  0
    0.3110   20.3830  -33.4230 C   0  0  0  0  0  0  0  0  0  0  0  0
    1.1060   21.5220  -34.1000 C   0  0  0  0  0  0  0  0  0  0  0  0
    1.1270   21.5280  -35.6000 N   0  0  0  0  0  0  0  0  0  0  0  0
    2.5270   21.3810  -36.0710 C   0  0  0  0  0  0  0  0  0  0  0  0
    0.6500   22.8680  -36.0410 C   0  0  0  0  0  0  0  0  0  0  0  0
    0.2620   20.4810  -36.2490 C   0  0  0  0  0  0  0  0  0  0  0  0
    0.8160   19.0390  -36.1610 C   0  0  0  0  0  0  0  0  0  0  0  0
   -4.1830   18.3830  -33.9390 C   0  0  0  0  0  0  0  0  0  0  0  0
   -5.4140   18.9540  -33.6040 C   0  0  0  0  0  0  0  0  0  0  0  0
   -5.7580   20.1920  -33.0880 C   0  0  0  0  0  0  0  0  0  0  0  0
   -3.8906   22.6369  -27.4750 H   0  0  0  0  0  0  0  0  0  0  0  0
   -3.1760   23.1879  -29.0282 H   0  0  0  0  0  0  0  0  0  0  0  0
   -4.6978   22.2336  -29.0282 H   0  0  0  0  0  0  0  0  0  0  0  0
   -2.2582   21.0225  -27.7349 H   0  0  0  0  0  0  0  0  0  0  0  0
   -3.6386   20.2525  -28.6621 H   0  0  0  0  0  0  0  0  0  0  0  0
   -1.6740   21.9240  -29.9850 H   0  0  0  0  0  0  0  0  0  0  0  0
   -0.7456   19.9526  -28.5297 H   0  0  0  0  0  0  0  0  0  0  0  0
   -1.1083   19.0987  -30.0679 H   0  0  0  0  0  0  0  0  0  0  0  0
   -0.0137   20.5229  -30.0679 H   0  0  0  0  0  0  0  0  0  0  0  0
   -2.6345   19.5088  -31.2508 H   0  0  0  0  0  0  0  0  0  0  0  0
   -3.9156   20.7221  -30.7971 H   0  0  0  0  0  0  0  0  0  0  0  0
   -2.2800   22.4342  -31.9600 H   0  0  0  0  0  0  0  0  0  0  0  0
   -1.6611   20.9464  -32.7868 H   0  0  0  0  0  0  0  0  0  0  0  0
   -3.4510   21.4890  -34.2390 H   0  0  0  0  0  0  0  0  0  0  0  0
   -3.8554   23.5724  -31.8765 H   0  0  0  0  0  0  0  0  0  0  0  0
   -4.9659   25.3648  -30.5630 H   0  0  0  0  0  0  0  0  0  0  0  0
   -7.3624   25.1546  -29.9340 H   0  0  0  0  0  0  0  0  0  0  0  0
   -8.6847   23.1767  -30.6550 H   0  0  0  0  0  0  0  0  0  0  0  0
   -9.4487   21.0421  -30.8939 H   0  0  0  0  0  0  0  0  0  0  0  0
   -9.7228   21.9246  -32.4342 H   0  0  0  0  0  0  0  0  0  0  0  0
   -9.6084   20.1319  -32.4342 H   0  0  0  0  0  0  0  0  0  0  0  0
   -8.5830   18.5480  -32.9780 H   0  0  0  0  0  0  0  0  0  0  0  0
   -7.5200   16.2961  -34.0050 H   0  0  0  0  0  0  0  0  0  0  0  0
   -5.3409   15.2193  -34.6463 H   0  0  0  0  0  0  0  0  0  0  0  0
   -1.8269   17.2889  -33.0500 H   0  0  0  0  0  0  0  0  0  0  0  0
   -0.9428   16.1069  -34.1072 H   0  0  0  0  0  0  0  0  0  0  0  0
   -1.4413   17.9225  -35.9738 H   0  0  0  0  0  0  0  0  0  0  0  0
   -1.5149   19.0063  -34.4728 H   0  0  0  0  0  0  0  0  0  0  0  0
    1.2000   16.6003  -33.9209 H   0  0  0  0  0  0  0  0  0  0  0  0
    0.3911   16.2098  -35.4765 H   0  0  0  0  0  0  0  0  0  0  0  0
    2.0014   17.0059  -35.4765 H   0  0  0  0  0  0  0  0  0  0  0  0
    0.3754   18.3149  -32.8322 H   0  0  0  0  0  0  0  0  0  0  0  0
    1.8767   18.9830  -33.6943 H   0  0  0  0  0  0  0  0  0  0  0  0
   -0.7268   20.4523  -33.7811 H   0  0  0  0  0  0  0  0  0  0  0  0
    0.4603   20.5499  -32.3460 H   0  0  0  0  0  0  0  0  0  0  0  0
    0.6698   22.4759  -33.7687 H   0  0  0  0  0  0  0  0  0  0  0  0
    2.1516   21.3657  -33.7963 H   0  0  0  0  0  0  0  0  0  0  0  0
    3.2001   21.3103  -35.2038 H   0  0  0  0  0  0  0  0  0  0  0  0
    2.6154   20.4686  -36.6791 H   0  0  0  0  0  0  0  0  0  0  0  0
    2.8030   22.2551  -36.6791 H   0  0  0  0  0  0  0  0  0  0  0  0
    0.4296   23.4873  -35.1590 H   0  0  0  0  0  0  0  0  0  0  0  0
    1.4302   23.3545  -36.6449 H   0  0  0  0  0  0  0  0  0  0  0  0
   -0.2621   22.7521  -36.6449 H   0  0  0  0  0  0  0  0  0  0  0  0
   -0.7234   20.4998  -35.7606 H   0  0  0  0  0  0  0  0  0  0  0  0
    0.2197   20.7327  -37.3190 H   0  0  0  0  0  0  0  0  0  0  0  0
    0.4847   18.4893  -37.0544 H   0  0  0  0  0  0  0  0  0  0  0  0
    1.9100   19.1297  -36.0904 H   0  0  0  0  0  0  0  0  0  0  0  0
   -3.2605   18.9818  -33.9213 H   0  0  0  0  0  0  0  0  0  0  0  0
  1  2  1  0
  2  3  1  0
  3  4  1  0
  3  5  1  0
  5  6  1  0
  6  7  1  0
  7  8  1  0
  8  9  2  0
  9 10  1  0
 10 11  2  0
 11 12  1  0
 12 13  2  0
 13 14  1  0
 14 15  2  0
 15 16  1  0
 15 17  1  0
 17 18  1  0
 18 19  1  0
 19 20  2  0
 20 21  1  0
 21 22  2  0
 22 23  1  0
 23 24  1  0
 24 25  1  0
 26 25  1  1
 26 27  1  0
 26 28  1  0
 28 29  1  0
 29 30  1  0
 30 31  1  0
 31 32  1  0
 31 33  1  0
 31 34  1  0
 34 35  1  0
 22 36  1  0
 36 37  2  0
 37 38  1  0
 38  8  1  0
 14  9  1  0
 38 17  2  0
 37 19  1  0
 35 26  1  0
  1 39  1  0
  1 40  1  0
  1 41  1  0
  2 42  1  0
  2 43  1  0
  3 44  1  6
  4 45  1  0
  4 46  1  0
  4 47  1  0
  5 48  1  0
  5 49  1  0
  6 50  1  0
  6 51  1  0
  7 52  1  0
 10 53  1  0
 11 54  1  0
 12 55  1  0
 13 56  1  0
 16 57  1  0
 16 58  1  0
 16 59  1  0
 18 60  1  0
 20 61  1  0
 21 62  1  0
 24 63  1  0
 24 64  1  0
 25 65  1  0
 25 66  1  0
 27 67  1  0
 27 68  1  0
 27 69  1  0
 28 70  1  0
 28 71  1  0
 29 72  1  0
 29 73  1  0
 30 74  1  0
 30 75  1  0
 32 76  1  0
 32 77  1  0
 32 78  1  0
 33 79  1  0
 33 80  1  0
 33 81  1  0
 34 82  1  0
 34 83  1  0
 35 84  1  0
 35 85  1  0
 36 86  1  0
M  CHG  4   3   1  15   1  26   1  31   1
M  END
>  <UniqueID>  (13) 
13

>  <SMILES>  (13) 
CC[N@@H+](C)CCNc1c2ccccc2[n+](C)c2[nH]c3ccc(OCC[N@+]4(C)CCC[N+](C)(C)CC4)cc3c12

>  <Energy>  (13) 
187.3912168672395

>  <Genealogy>  (13) 
CC[NH+](C)CCNc1c2ccccc2[n+](C)c2[nH]c3ccc(OCC[N+]4(C)CCC[N+](C)(C)CC4)cc3c12 (protonated)
CC[N@@H+](C)CCNc1c2ccccc2[n+](C)c2[nH]c3ccc(OCC[N@+]4(C)CCC[N+](C)(C)CC4)cc3c12 (chirality)
CC[N@@H+](C)CCNc1c2ccccc2[n+](C)c2[nH]c3ccc(OCC[N@+]4(C)CCC[N+](C)(C)CC4)cc3c12 (3D coordinates assigned)
CC[N@@H+](C)CCNc1c2ccccc2[n+](C)c2[nH]c3ccc(OCC[N@+]4(C)CCC[N+](C)(C)CC4)cc3c12 (nonaromatic ring conformer: 187.3912168672395 kcal/mol)

>  <smiles>  (13) 
CCN(C)CCNc1c2ccccc2[n+](C)c2[nH]c3ccc(OCC[N+]4(C)CCC[N+](C)(C)CC4)cc3c12

>  <score_type>  (13) 
oracle

>  <origin>  (13) 
adg

>  <m_score__min__energy>  (13) 
-5.3700000000000001

>  <m_primary>  (13) 
energy

$$$$
13:0
     RDKit          3D

 44 46  0  0  0  0  0  0  0  0999 V2000
   -8.2590   22.2890  -30.4780 C   0  0  0  0  0  0  0  0  0  0  0  0
   -8.1790   21.3240  -31.5670 N   0  0  0  0  0  0  0  0  0  0  0  0
   -9.2090   20.7470  -32.1560 N   0  0  0  0  0  0  0  0  0  0  0  0
   -8.7830   19.7900  -32.9640 N   0  0  0  0  0  0  0  0  0  0  0  0
   -7.4590   19.7170  -32.9010 N   0  0  0  0  0  0  0  0  0  0  0  0
   -7.0950   20.6780  -32.0290 C   0  0  0  0  0  0  0  0  0  0  0  0
   -5.4100   20.9650  -31.4860 S   0  0  0  0  0  0  0  0  0  0  0  0
   -5.1330   22.4350  -32.5370 C   0  0  0  0  0  0  0  0  0  0  0  0
   -5.3730   23.7530  -31.7820 C   0  0  0  0  0  0  0  0  0  0  0  0
   -4.4250   23.9580  -30.6590 N   0  0  0  0  0  0  0  0  0  0  0  0
   -5.1360   23.8560  -29.3620 C   0  0  0  0  0  0  0  0  0  0  0  0
   -4.5180   22.7800  -28.4560 C   0  0  0  0  0  0  0  0  0  0  0  0
   -3.3030   23.2630  -27.6620 C   0  0  0  0  0  0  0  0  0  0  0  0
   -2.3420   23.9280  -28.5510 N   0  0  0  0  0  0  0  0  0  0  0  0
   -1.6310   25.0990  -28.0880 C   0  0  0  0  0  0  0  0  0  0  0  0
   -1.3060   26.0050  -28.9040 O   0  0  0  0  0  0  0  0  0  0  0  0
   -1.2170   25.2420  -26.6490 C   0  0  0  0  0  0  0  0  0  0  0  0
   -2.3230   25.7320  -25.7260 C   0  0  0  0  0  0  0  0  0  0  0  0
   -1.1940   26.6690  -26.1180 C   0  0  0  0  0  0  0  0  0  0  0  0
   -2.0090   23.3620  -29.8720 C   0  0  0  0  0  0  0  0  0  0  0  0
   -3.2230   23.0730  -30.7910 C   0  0  0  0  0  0  0  0  0  0  0  0
   -8.2151   21.7594  -29.5149 H   0  0  0  0  0  0  0  0  0  0  0  0
   -7.4161   22.9922  -30.5486 H   0  0  0  0  0  0  0  0  0  0  0  0
   -9.2062   22.8438  -30.5486 H   0  0  0  0  0  0  0  0  0  0  0  0
  -10.2130   20.9840  -31.9900 H   0  0  0  0  0  0  0  0  0  0  0  0
   -4.0941   22.4196  -32.8982 H   0  0  0  0  0  0  0  0  0  0  0  0
   -5.8514   22.3910  -33.3689 H   0  0  0  0  0  0  0  0  0  0  0  0
   -5.2636   24.5877  -32.4901 H   0  0  0  0  0  0  0  0  0  0  0  0
   -6.3854   23.7079  -31.3543 H   0  0  0  0  0  0  0  0  0  0  0  0
   -5.0820   24.8275  -28.8489 H   0  0  0  0  0  0  0  0  0  0  0  0
   -6.1796   23.5739  -29.5653 H   0  0  0  0  0  0  0  0  0  0  0  0
   -5.2860   22.4437  -27.7439 H   0  0  0  0  0  0  0  0  0  0  0  0
   -4.1690   21.9702  -29.1135 H   0  0  0  0  0  0  0  0  0  0  0  0
   -3.6337   23.9730  -26.8897 H   0  0  0  0  0  0  0  0  0  0  0  0
   -2.8148   22.3955  -27.1938 H   0  0  0  0  0  0  0  0  0  0  0  0
   -0.5056   24.4030  -26.6480 H   0  0  0  0  0  0  0  0  0  0  0  0
   -3.3362   25.8966  -26.1213 H   0  0  0  0  0  0  0  0  0  0  0  0
   -2.7504   25.3860  -24.7733 H   0  0  0  0  0  0  0  0  0  0  0  0
   -1.3896   27.5117  -26.7973 H   0  0  0  0  0  0  0  0  0  0  0  0
   -0.4655   27.2820  -25.5671 H   0  0  0  0  0  0  0  0  0  0  0  0
   -1.3510   24.0742  -30.3913 H   0  0  0  0  0  0  0  0  0  0  0  0
   -1.5355   22.3886  -29.6765 H   0  0  0  0  0  0  0  0  0  0  0  0
   -2.8726   23.1483  -31.8310 H   0  0  0  0  0  0  0  0  0  0  0  0
   -3.5755   22.0785  -30.4801 H   0  0  0  0  0  0  0  0  0  0  0  0
  1  2  1  0
  2  3  1  0
  3  4  2  0
  4  5  1  0
  5  6  2  0
  6  7  1  0
  7  8  1  0
  8  9  1  0
  9 10  1  0
 10 11  1  0
 11 12  1  0
 12 13  1  0
 13 14  1  0
 14 15  1  0
 15 16  2  0
 15 17  1  0
 17 18  1  0
 18 19  1  0
 14 20  1  0
 20 21  1  0
  6  2  1  0
 21 10  1  0
 19 17  1  0
  1 22  1  0
  1 23  1  0
  1 24  1  0
  3 25  1  0
  8 26  1  0
  8 27  1  0
  9 28  1  0
  9 29  1  0
 11 30  1  0
 11 31  1  0
 12 32  1  0
 12 33  1  0
 13 34  1  0
 13 35  1  0
 17 36  1  0
 18 37  1  0
 18 38  1  0
 19 39  1  0
 19 40  1  0
 20 41  1  0
 20 42  1  0
 21 43  1  0
 21 44  1  0
M  CHG  1   3   1
M  END
>  <UniqueID>  (14) 
14

>  <SMILES>  (14) 
Cn1[nH+]nnc1SCCN1CCCN(C(=O)C2CC2)CC1

>  <Energy>  (14) 
355.532150520327

>  <Genealogy>  (14) 
Cn1[nH+]nnc1SCCN1CCCN(C(=O)C2CC2)CC1 (protonated)
Cn1[nH+]nnc1SCCN1CCCN(C(=O)C2CC2)CC1 (3D coordinates assigned)
Cn1[nH+]nnc1SCCN1CCCN(C(=O)C2CC2)CC1 (nonaromatic ring conformer: 355.532150520327 kcal/mol)

>  <smiles>  (14) 
Cn1nnnc1SCCN1CCCN(C(=O)C2CC2)CC1

>  <score_type>  (14) 
oracle

>  <origin>  (14) 
adg

>  <m_score__min__energy>  (14) 
-5.9100000000000001

>  <m_primary>  (14) 
energy

$$$$
14:0
     RDKit          3D

 72 76  0  0  0  0  0  0  0  0999 V2000
   -1.1444   15.9812  -35.1228 H   0  0  0  0  0  0  0  0  0  0  0  0
   -1.4860   16.9630  -34.7630 C   0  0  0  0  0  0  0  0  0  0  0  0
   -2.7820   17.1260  -34.3650 N   0  0  0  0  0  0  0  0  0  0  0  0
   -3.2080   18.3390  -33.9280 C   0  0  0  0  0  0  0  0  0  0  0  0
   -2.3450   19.4160  -33.8400 C   0  0  0  0  0  0  0  0  0  0  0  0
   -1.0150   19.2910  -34.2440 C   0  0  0  0  0  0  0  0  0  0  0  0
   -0.3252   20.1463  -34.1936 H   0  0  0  0  0  0  0  0  0  0  0  0
   -0.5840   18.0430  -34.7160 C   0  0  0  0  0  0  0  0  0  0  0  0
    0.4558   17.9081  -35.0486 H   0  0  0  0  0  0  0  0  0  0  0  0
   -3.1000   20.5500  -33.2970 C   0  0  0  0  0  0  0  0  0  0  0  0
   -2.6730   21.7430  -33.0240 N   0  0  0  0  0  0  0  0  0  0  0  0
   -2.5330   22.1990  -31.7350 O   0  0  0  0  0  0  0  0  0  0  0  0
   -1.3680   21.8860  -30.9880 C   0  0  0  0  0  0  0  0  0  0  0  0
   -1.1222   20.8230  -31.1280 H   0  0  0  0  0  0  0  0  0  0  0  0
   -0.5375   22.5151  -31.3409 H   0  0  0  0  0  0  0  0  0  0  0  0
   -1.6010   22.1590  -29.4970 C   0  0  0  0  0  0  0  0  0  0  0  0
   -0.7866   22.7952  -29.1203 H   0  0  0  0  0  0  0  0  0  0  0  0
   -2.5755   22.6578  -29.3898 H   0  0  0  0  0  0  0  0  0  0  0  0
   -1.6360   20.9110  -28.7080 N   0  0  0  0  0  0  0  0  0  0  0  0
   -0.2960   20.3100  -28.5550 C   0  0  0  0  0  0  0  0  0  0  0  0
    0.1949   20.2611  -29.5382 H   0  0  0  0  0  0  0  0  0  0  0  0
    0.2997   20.9299  -27.8688 H   0  0  0  0  0  0  0  0  0  0  0  0
   -0.4150   18.8880  -27.9740 C   0  0  0  0  0  0  0  0  0  0  0  0
   -0.4338   18.1677  -28.8052 H   0  0  0  0  0  0  0  0  0  0  0  0
    0.4502   18.7226  -27.3151 H   0  0  0  0  0  0  0  0  0  0  0  0
   -1.6880   18.7010  -27.1300 C   0  0  0  0  0  0  0  0  0  0  0  0
   -2.5196   18.4163  -27.7913 H   0  0  0  0  0  0  0  0  0  0  0  0
   -1.5021   17.9138  -26.3845 H   0  0  0  0  0  0  0  0  0  0  0  0
   -2.0520   19.9910  -26.3960 C   0  0  0  0  0  0  0  0  0  0  0  0
   -2.9866   19.8334  -25.8377 H   0  0  0  0  0  0  0  0  0  0  0  0
   -1.2274   20.2452  -25.7137 H   0  0  0  0  0  0  0  0  0  0  0  0
   -2.2470   21.1650  -27.3810 C   0  0  0  0  0  0  0  0  0  0  0  0
   -3.3254   21.3336  -27.5174 H   0  0  0  0  0  0  0  0  0  0  0  0
   -1.7470   22.0448  -26.9498 H   0  0  0  0  0  0  0  0  0  0  0  0
   -4.4670   20.0670  -33.0760 C   0  0  0  0  0  0  0  0  0  0  0  0
   -5.5700   20.7350  -32.5650 C   0  0  0  0  0  0  0  0  0  0  0  0
   -5.4710   22.1180  -32.2120 N   0  0  0  0  0  0  0  0  0  0  0  0
   -4.5440   22.4880  -31.9060 H   0  0  0  0  0  0  0  0  0  0  0  0
   -6.6030   23.0140  -32.4300 C   0  0  0  0  0  0  0  0  0  0  0  0
   -7.5384   22.4612  -32.2587 H   0  0  0  0  0  0  0  0  0  0  0  0
   -6.5623   23.3877  -33.4638 H   0  0  0  0  0  0  0  0  0  0  0  0
   -6.5440   24.2090  -31.4740 C   0  0  0  0  0  0  0  0  0  0  0  0
   -7.3247   24.1000  -30.7068 H   0  0  0  0  0  0  0  0  0  0  0  0
   -6.7068   25.1351  -32.0449 H   0  0  0  0  0  0  0  0  0  0  0  0
   -5.2180   24.2710  -30.8180 N   0  0  0  0  0  0  0  0  0  0  0  0
   -4.8830   25.6680  -30.4770 C   0  0  0  0  0  0  0  0  0  0  0  0
   -4.8557   25.7820  -29.3833 H   0  0  0  0  0  0  0  0  0  0  0  0
   -3.8985   25.9219  -30.8968 H   0  0  0  0  0  0  0  0  0  0  0  0
   -5.6453   26.3408  -30.8968 H   0  0  0  0  0  0  0  0  0  0  0  0
   -5.1820   23.4090  -29.6150 C   0  0  0  0  0  0  0  0  0  0  0  0
   -4.7667   22.4284  -29.8906 H   0  0  0  0  0  0  0  0  0  0  0  0
   -6.2087   23.3073  -29.2335 H   0  0  0  0  0  0  0  0  0  0  0  0
   -4.3190   24.0210  -28.5100 C   0  0  0  0  0  0  0  0  0  0  0  0
   -4.7232   23.7344  -27.5279 H   0  0  0  0  0  0  0  0  0  0  0  0
   -3.2871   23.6517  -28.6038 H   0  0  0  0  0  0  0  0  0  0  0  0
   -4.3262   25.1170  -28.6038 H   0  0  0  0  0  0  0  0  0  0  0  0
   -6.7590   20.0040  -32.3780 C   0  0  0  0  0  0  0  0  0  0  0  0
   -7.8900   20.6130  -31.8030 C   0  0  0  0  0  0  0  0  0  0  0  0
   -7.8567   21.6782  -31.5306 H   0  0  0  0  0  0  0  0  0  0  0  0
   -9.0510   19.8780  -31.5760 C   0  0  0  0  0  0  0  0  0  0  0  0
   -9.9319   20.3669  -31.1345 H   0  0  0  0  0  0  0  0  0  0  0  0
   -9.1000   18.5270  -31.9060 C   0  0  0  0  0  0  0  0  0  0  0  0
  -10.0147   17.9492  -31.7075 H   0  0  0  0  0  0  0  0  0  0  0  0
   -7.9970   17.9000  -32.4870 C   0  0  0  0  0  0  0  0  0  0  0  0
   -8.0491   16.8289  -32.7319 H   0  0  0  0  0  0  0  0  0  0  0  0
   -6.8110   18.6230  -32.7660 C   0  0  0  0  0  0  0  0  0  0  0  0
   -5.7160   18.0270  -33.3770 N   0  0  0  0  0  0  0  0  0  0  0  0
   -5.7830   16.6610  -33.9260 C   0  0  0  0  0  0  0  0  0  0  0  0
   -5.8186   15.9353  -33.1001 H   0  0  0  0  0  0  0  0  0  0  0  0
   -6.6873   16.5581  -34.5438 H   0  0  0  0  0  0  0  0  0  0  0  0
   -4.8931   16.4701  -34.5438 H   0  0  0  0  0  0  0  0  0  0  0  0
   -4.5470   18.7410  -33.4570 C   0  0  0  0  0  0  0  0  0  0  0  0
  1  2  1  0
  2  3  2  0
  3  4  1  0
  4  5  2  0
  5  6  1  0
  6  7  1  0
  6  8  2  0
  8  9  1  0
  5 10  1  0
 10 11  2  0
 11 12  1  0
 12 13  1  0
 13 14  1  0
 13 15  1  0
 13 16  1  0
 16 17  1  0
 16 18  1  0
 16 19  1  0
 19 20  1  0
 20 21  1  0
 20 22  1  0
 20 23  1  0
 23 24  1  0
 23 25  1  0
 23 26  1  0
 26 27  1  0
 26 28  1  0
 26 29  1  0
 29 30  1  0
 29 31  1  0
 29 32  1  0
 32 33  1  0
 32 34  1  0
 10 35  1  0
 35 36  2  0
 36 37  1  0
 37 38  1  0
 37 39  1  0
 39 40  1  0
 39 41  1  0
 39 42  1  0
 42 43  1  0
 42 44  1  0
 42 45  1  0
 45 46  1  0
 46 47  1  0
 46 48  1  0
 46 49  1  0
 45 50  1  0
 50 51  1  0
 50 52  1  0
 50 53  1  0
 53 54  1  0
 53 55  1  0
 53 56  1  0
 36 57  1  0
 57 58  2  0
 58 59  1  0
 58 60  1  0
 60 61  1  0
 60 62  2  0
 62 63  1  0
 62 64  1  0
 64 65  1  0
 64 66  2  0
 66 67  1  0
 67 68  1  0
 68 69  1  0
 68 70  1  0
 68 71  1  0
 67 72  2  0
  8  2  1  0
 32 19  1  0
 72 35  1  0
 72  4  1  0
 66 57  1  0
M  CHG  1  67   1
M  END
>  <UniqueID>  (15) 
15

>  <SMILES>  (15) 
CCN(C)CCNc1c2c([n+](C)c3ccccc13)-c1ncccc1/C2=N\OCCN1CCCCC1

>  <Energy>  (15) 
127.42784236728218

>  <Genealogy>  (15) 
CCN(C)CCNc1c2c([n+](C)c3ccccc13)-c1ncccc1/C2=N\OCCN1CCCCC1 (cis-trans isomerization)
CCN(C)CCNc1c2c([n+](C)c3ccccc13)-c1ncccc1/C2=N\OCCN1CCCCC1 (3D coordinates assigned)
CCN(C)CCNc1c2c([n+](C)c3ccccc13)-c1ncccc1/C2=N\OCCN1CCCCC1 (nonaromatic ring conformer: 127.42784236728218 kcal/mol)

>  <smiles>  (15) 
CCN(C)CCNc1c2c([n+](C)c3ccccc13)-c1ncccc1C2=NOCCN1CCCCC1

>  <score_type>  (15) 
oracle

>  <origin>  (15) 
adg

>  <m_score__min__energy>  (15) 
-9.7100000000000009

>  <m_primary>  (15) 
energy

$$$$
15:0
     RDKit          3D

 55 59  0  0  0  0  0  0  0  0999 V2000
   -3.4040   17.4640  -33.0910 C   0  0  0  0  0  0  0  0  0  0  0  0
   -4.1500   18.6830  -33.4010 N   0  0  0  0  0  0  0  0  0  0  0  0
   -5.4760   18.8030  -33.6030 C   0  0  0  0  0  0  0  0  0  0  0  0
   -6.6500   17.4420  -33.5780 S   0  0  0  0  0  0  0  0  0  0  0  0
   -7.2830   17.8130  -31.9040 C   0  0  0  0  0  0  0  0  0  0  0  0
   -8.7720   18.1850  -31.9570 C   0  0  0  0  0  0  0  0  0  0  0  0
   -9.0420   19.6830  -32.2640 C   0  0  0  0  0  0  0  0  0  0  0  0
   -8.4350   20.6650  -31.3360 N   0  0  0  0  0  0  0  0  0  0  0  0
   -9.0980   21.9710  -31.2440 C   0  0  0  0  0  0  0  0  0  0  0  0
   -8.0290   23.0520  -31.2550 C   0  0  2  0  0  0  0  0  0  0  0  0
   -7.2370   23.2140  -32.5430 C   0  0  0  0  0  0  0  0  0  0  0  0
   -6.7010   22.3450  -31.4090 C   0  0  1  0  0  0  0  0  0  0  0  0
   -5.5770   22.8900  -30.5670 C   0  0  0  0  0  0  0  0  0  0  0  0
   -5.7940   24.0080  -29.7490 C   0  0  0  0  0  0  0  0  0  0  0  0
   -4.7470   24.5410  -28.9910 C   0  0  0  0  0  0  0  0  0  0  0  0
   -3.4670   23.9620  -29.0370 C   0  0  0  0  0  0  0  0  0  0  0  0
   -2.3260   24.5670  -28.2590 C   0  0  0  0  0  0  0  0  0  0  0  0
   -1.8050   25.6610  -28.9260 F   0  0  0  0  0  0  0  0  0  0  0  0
   -1.3320   23.6200  -28.0990 F   0  0  0  0  0  0  0  0  0  0  0  0
   -2.7540   24.9860  -27.0110 F   0  0  0  0  0  0  0  0  0  0  0  0
   -3.2430   22.8710  -29.8950 C   0  0  0  0  0  0  0  0  0  0  0  0
   -4.2910   22.3390  -30.6520 C   0  0  0  0  0  0  0  0  0  0  0  0
   -6.9800   20.8500  -31.4360 C   0  0  0  0  0  0  0  0  0  0  0  0
   -5.8310   20.0810  -33.8300 N   0  0  0  0  0  0  0  0  0  0  0  0
   -4.7210   20.8020  -33.7790 N   0  0  0  0  0  0  0  0  0  0  0  0
   -3.7030   19.9520  -33.5360 C   0  0  0  0  0  0  0  0  0  0  0  0
   -2.3050   20.4080  -33.4090 C   0  0  0  0  0  0  0  0  0  0  0  0
   -1.7480   20.7540  -32.1700 C   0  0  0  0  0  0  0  0  0  0  0  0
   -0.4120   21.1490  -32.1250 C   0  0  0  0  0  0  0  0  0  0  0  0
    0.3280   21.1760  -33.2630 N   0  0  0  0  0  0  0  0  0  0  0  0
   -0.2170   20.8170  -34.4540 C   0  0  0  0  0  0  0  0  0  0  0  0
   -1.5190   20.4310  -34.5190 N   0  0  0  0  0  0  0  0  0  0  0  0
   -3.3317   17.3459  -31.9998 H   0  0  0  0  0  0  0  0  0  0  0  0
   -3.9257   16.5958  -33.5200 H   0  0  0  0  0  0  0  0  0  0  0  0
   -2.3935   17.5334  -33.5200 H   0  0  0  0  0  0  0  0  0  0  0  0
   -7.1547   16.9270  -31.2648 H   0  0  0  0  0  0  0  0  0  0  0  0
   -6.7201   18.6643  -31.4936 H   0  0  0  0  0  0  0  0  0  0  0  0
   -9.2512   17.5801  -32.7409 H   0  0  0  0  0  0  0  0  0  0  0  0
   -9.1835   17.9877  -30.9561 H   0  0  0  0  0  0  0  0  0  0  0  0
   -8.6563   19.8928  -33.2726 H   0  0  0  0  0  0  0  0  0  0  0  0
  -10.1291   19.8122  -32.1562 H   0  0  0  0  0  0  0  0  0  0  0  0
   -9.7727   22.1067  -32.1021 H   0  0  0  0  0  0  0  0  0  0  0  0
   -9.6881   22.0316  -30.3177 H   0  0  0  0  0  0  0  0  0  0  0  0
   -8.5112   23.7948  -30.6025 H   0  0  0  0  0  0  0  0  0  0  0  0
   -7.5951   22.7479  -33.4728 H   0  0  0  0  0  0  0  0  0  0  0  0
   -6.8528   24.0674  -33.1210 H   0  0  0  0  0  0  0  0  0  0  0  0
   -6.7923   24.4677  -29.7034 H   0  0  0  0  0  0  0  0  0  0  0  0
   -4.9263   25.4197  -28.3541 H   0  0  0  0  0  0  0  0  0  0  0  0
   -2.2367   22.4332  -29.9711 H   0  0  0  0  0  0  0  0  0  0  0  0
   -4.1054   21.4834  -31.3179 H   0  0  0  0  0  0  0  0  0  0  0  0
   -6.6111   20.4170  -32.3775 H   0  0  0  0  0  0  0  0  0  0  0  0
   -6.4695   20.3477  -30.6011 H   0  0  0  0  0  0  0  0  0  0  0  0
   -2.3529   20.7146  -31.2521 H   0  0  0  0  0  0  0  0  0  0  0  0
    0.0432   21.4391  -31.1666 H   0  0  0  0  0  0  0  0  0  0  0  0
    0.3958   20.8386  -35.3673 H   0  0  0  0  0  0  0  0  0  0  0  0
  1  2  1  0
  2  3  1  0
  3  4  1  0
  4  5  1  0
  5  6  1  0
  6  7  1  0
  7  8  1  0
  8  9  1  0
  9 10  1  0
 10 11  1  0
 11 12  1  0
 12 13  1  1
 13 14  2  0
 14 15  1  0
 15 16  2  0
 16 17  1  0
 17 18  1  0
 17 19  1  0
 17 20  1  0
 16 21  1  0
 21 22  2  0
 12 23  1  0
  3 24  2  0
 24 25  1  0
 25 26  2  0
 26 27  1  0
 27 28  2  0
 28 29  1  0
 29 30  2  0
 30 31  1  0
 31 32  2  0
 26  2  1  0
 32 27  1  0
 23  8  1  0
 12 10  1  0
 22 13  1  0
  1 33  1  0
  1 34  1  0
  1 35  1  0
  5 36  1  0
  5 37  1  0
  6 38  1  0
  6 39  1  0
  7 40  1  0
  7 41  1  0
  9 42  1  0
  9 43  1  0
 10 44  1  1
 11 45  1  0
 11 46  1  0
 14 47  1  0
 15 48  1  0
 21 49  1  0
 22 50  1  0
 23 51  1  0
 23 52  1  0
 28 53  1  0
 29 54  1  0
 31 55  1  0
M  END
>  <UniqueID>  (16) 
16

>  <SMILES>  (16) 
Cn1c(SCCCN2C[C@@H]3C[C@]3(c3ccc(C(F)(F)F)cc3)C2)nnc1-c1ccncn1

>  <Energy>  (16) 
374.1315520836486

>  <Genealogy>  (16) 
Cn1c(SCCCN2C[C@@H]3C[C@]3(c3ccc(C(F)(F)F)cc3)C2)nnc1-c1ccncn1 (chirality)
Cn1c(SCCCN2C[C@@H]3C[C@]3(c3ccc(C(F)(F)F)cc3)C2)nnc1-c1ccncn1 (3D coordinates assigned)
Cn1c(SCCCN2C[C@@H]3C[C@]3(c3ccc(C(F)(F)F)cc3)C2)nnc1-c1ccncn1 (nonaromatic ring conformer: 374.1315520836486 kcal/mol)

>  <smiles>  (16) 
Cn1c(SCCCN2CC3CC3(c3ccc(C(F)(F)F)cc3)C2)nnc1-c1ccncn1

>  <score_type>  (16) 
oracle

>  <origin>  (16) 
adg

>  <m_score__min__energy>  (16) 
-9.7400000000000002

>  <m_primary>  (16) 
energy

$$$$
16:0
     RDKit          3D

 40 41  0  0  0  0  0  0  0  0999 V2000
   -4.1130   24.0900  -28.2100 C   0  0  0  0  0  0  0  0  0  0  0  0
   -3.2190   24.0340  -29.4430 C   0  0  0  0  0  0  0  0  0  0  0  0
   -3.7590   24.8350  -30.4920 O   0  0  0  0  0  0  0  0  0  0  0  0
   -5.1320   24.9610  -30.7400 C   0  0  0  0  0  0  0  0  0  0  0  0
   -5.7230   26.0490  -30.4960 O   0  0  0  0  0  0  0  0  0  0  0  0
   -5.8890   23.8120  -31.2830 C   0  0  0  0  0  0  0  0  0  0  0  0
   -7.2850   23.7490  -31.1360 C   0  0  0  0  0  0  0  0  0  0  0  0
   -8.0040   22.6640  -31.6450 C   0  0  0  0  0  0  0  0  0  0  0  0
   -7.3460   21.6190  -32.3120 C   0  0  0  0  0  0  0  0  0  0  0  0
   -8.1160   20.5150  -32.8240 N   0  0  0  0  0  0  0  0  0  0  0  0
   -9.0970   19.7820  -32.0200 C   0  0  0  0  0  0  0  0  0  0  0  0
   -8.7230   18.2970  -31.8750 C   0  0  0  0  0  0  0  0  0  0  0  0
   -7.2280   18.0650  -31.5960 C   0  0  0  0  0  0  0  0  0  0  0  0
   -6.4550   17.8040  -32.8580 C   0  0  0  0  0  0  0  0  0  0  0  0
   -5.7100   16.6290  -33.0190 C   0  0  0  0  0  0  0  0  0  0  0  0
   -4.9860   16.4390  -34.1930 C   0  0  0  0  0  0  0  0  0  0  0  0
   -5.0170   17.4240  -35.1770 C   0  0  0  0  0  0  0  0  0  0  0  0
   -5.7490   18.5500  -34.9750 N   0  0  0  0  0  0  0  0  0  0  0  0
   -6.4430   18.7350  -33.8500 N   0  0  0  0  0  0  0  0  0  0  0  0
   -5.9480   21.6830  -32.4640 C   0  0  0  0  0  0  0  0  0  0  0  0
   -5.2290   22.7680  -31.9540 C   0  0  0  0  0  0  0  0  0  0  0  0
   -3.4907   24.0510  -27.3038 H   0  0  0  0  0  0  0  0  0  0  0  0
   -4.6906   25.0261  -28.2181 H   0  0  0  0  0  0  0  0  0  0  0  0
   -4.8029   23.2333  -28.2181 H   0  0  0  0  0  0  0  0  0  0  0  0
   -2.2183   24.4082  -29.1811 H   0  0  0  0  0  0  0  0  0  0  0  0
   -3.1573   22.9916  -29.7889 H   0  0  0  0  0  0  0  0  0  0  0  0
   -7.8161   24.5600  -30.6162 H   0  0  0  0  0  0  0  0  0  0  0  0
   -9.0965   22.6287  -31.5216 H   0  0  0  0  0  0  0  0  0  0  0  0
   -7.9610   20.2300  -33.8180 H   0  0  0  0  0  0  0  0  0  0  0  0
   -9.1472   20.2357  -31.0192 H   0  0  0  0  0  0  0  0  0  0  0  0
  -10.0695   19.8410  -32.5306 H   0  0  0  0  0  0  0  0  0  0  0  0
   -9.3026   17.8717  -31.0425 H   0  0  0  0  0  0  0  0  0  0  0  0
   -8.9523   17.8105  -32.8345 H   0  0  0  0  0  0  0  0  0  0  0  0
   -6.8153   18.9586  -31.1048 H   0  0  0  0  0  0  0  0  0  0  0  0
   -7.1357   17.1788  -30.9509 H   0  0  0  0  0  0  0  0  0  0  0  0
   -5.6970   15.8654  -32.2274 H   0  0  0  0  0  0  0  0  0  0  0  0
   -4.3967   15.5221  -34.3415 H   0  0  0  0  0  0  0  0  0  0  0  0
   -4.4524   17.2909  -36.1116 H   0  0  0  0  0  0  0  0  0  0  0  0
   -5.4178   20.8738  -32.9876 H   0  0  0  0  0  0  0  0  0  0  0  0
   -4.1367   22.8051  -32.0789 H   0  0  0  0  0  0  0  0  0  0  0  0
  1  2  1  0
  2  3  1  0
  3  4  1  0
  4  5  2  0
  4  6  1  0
  6  7  2  0
  7  8  1  0
  8  9  2  0
  9 10  1  0
 10 11  1  0
 11 12  1  0
 12 13  1  0
 13 14  1  0
 14 15  2  0
 15 16  1  0
 16 17  2  0
 17 18  1  0
 18 19  2  0
  9 20  1  0
 20 21  2  0
 21  6  1  0
 19 14  1  0
  1 22  1  0
  1 23  1  0
  1 24  1  0
  2 25  1  0
  2 26  1  0
  7 27  1  0
  8 28  1  0
 10 29  1  0
 11 30  1  0
 11 31  1  0
 12 32  1  0
 12 33  1  0
 13 34  1  0
 13 35  1  0
 15 36  1  0
 16 37  1  0
 17 38  1  0
 20 39  1  0
 21 40  1  0
M  END
>  <UniqueID>  (17) 
17

>  <SMILES>  (17) 
CCOC(=O)c1ccc(NCCCc2cccnn2)cc1

>  <Energy>  (17) 
33.19196821848586

>  <Genealogy>  (17) 
CCOC(=O)c1ccc(NCCCc2cccnn2)cc1 (3D coordinates assigned)
CCOC(=O)c1ccc(NCCCc2cccnn2)cc1 (optimized conformer: 33.19196821848586 kcal/mol)

>  <smiles>  (17) 
CCOC(=O)c1ccc(NCCCc2cccnn2)cc1

>  <score_type>  (17) 
oracle

>  <origin>  (17) 
adg

>  <m_score__min__energy>  (17) 
-8.0700000000000003

>  <m_primary>  (17) 
energy

$$$$
17:0
     RDKit          3D

 38 38  0  0  0  0  0  0  0  0999 V2000
   -3.8590   23.2300  -32.3960 H   0  0  0  0  0  0  0  0  0  0  0  0
   -4.1600   22.6480  -33.1380 O   0  0  0  0  0  0  0  0  0  0  0  0
   -3.4610   21.1570  -32.8090 S   0  0  0  0  0  0  0  0  0  0  0  0
   -1.7620   21.1580  -33.3290 C   0  0  0  0  0  0  0  0  0  0  0  0
   -1.1079   21.1584  -32.4446 H   0  0  0  0  0  0  0  0  0  0  0  0
   -1.5626   20.2600  -33.9322 H   0  0  0  0  0  0  0  0  0  0  0  0
   -1.5637   22.0563  -33.9322 H   0  0  0  0  0  0  0  0  0  0  0  0
   -3.5830   20.7940  -31.0650 C   0  0  0  0  0  0  0  0  0  0  0  0
   -3.5222   19.7049  -30.9226 H   0  0  0  0  0  0  0  0  0  0  0  0
   -4.5434   21.1868  -30.6998 H   0  0  0  0  0  0  0  0  0  0  0  0
   -2.4550   21.4650  -30.2630 C   0  0  0  0  0  0  0  0  0  0  0  0
   -1.8239   22.0342  -30.9614 H   0  0  0  0  0  0  0  0  0  0  0  0
   -1.9012   20.6619  -29.7548 H   0  0  0  0  0  0  0  0  0  0  0  0
   -2.9570   22.4240  -29.1710 C   0  0  0  0  0  0  0  0  0  0  0  0
   -2.1871   22.4968  -28.3887 H   0  0  0  0  0  0  0  0  0  0  0  0
   -3.9014   22.0135  -28.7842 H   0  0  0  0  0  0  0  0  0  0  0  0
   -3.2530   23.8300  -29.6940 C   0  0  0  0  0  0  0  0  0  0  0  0
   -2.3088   24.3312  -29.9534 H   0  0  0  0  0  0  0  0  0  0  0  0
   -3.7733   24.4088  -28.9166 H   0  0  0  0  0  0  0  0  0  0  0  0
   -4.0780   23.7410  -30.8530 O   0  0  0  0  0  0  0  0  0  0  0  0
   -4.9720   24.7280  -31.2360 N   0  0  0  0  0  0  0  0  0  0  0  0
   -6.1300   24.9340  -30.6830 C   0  0  0  0  0  0  0  0  0  0  0  0
   -6.6014   25.9259  -30.7460 H   0  0  0  0  0  0  0  0  0  0  0  0
   -6.8200   23.8230  -29.9620 C   0  0  0  0  0  0  0  0  0  0  0  0
   -7.7417   24.2061  -29.4998 H   0  0  0  0  0  0  0  0  0  0  0  0
   -6.1496   23.4260  -29.1855 H   0  0  0  0  0  0  0  0  0  0  0  0
   -7.1570   22.7520  -30.8970 N   0  0  0  0  0  0  0  0  0  0  0  0
   -8.2190   21.9280  -30.8130 C   0  0  0  0  0  0  0  0  0  0  0  0
   -9.0127   21.9704  -30.0526 H   0  0  0  0  0  0  0  0  0  0  0  0
   -8.1350   21.0200  -31.8510 C   0  0  0  0  0  0  0  0  0  0  0  0
   -9.1300   19.9670  -32.2080 C   0  0  0  0  0  0  0  0  0  0  0  0
   -9.5449   19.5279  -31.2888 H   0  0  0  0  0  0  0  0  0  0  0  0
   -9.9421   20.4153  -32.7992 H   0  0  0  0  0  0  0  0  0  0  0  0
   -8.6365   19.1816  -32.7992 H   0  0  0  0  0  0  0  0  0  0  0  0
   -6.9900   21.3570  -32.5500 C   0  0  0  0  0  0  0  0  0  0  0  0
   -6.6155   20.8542  -33.4538 H   0  0  0  0  0  0  0  0  0  0  0  0
   -6.4130   22.4050  -31.9350 N   0  0  0  0  0  0  0  0  0  0  0  0
   -5.5260   22.8770  -32.2210 H   0  0  0  0  0  0  0  0  0  0  0  0
  1  2  1  0
  3  2  1  1
  3  4  1  0
  4  5  1  0
  4  6  1  0
  4  7  1  0
  3  8  1  0
  8  9  1  0
  8 10  1  0
  8 11  1  0
 11 12  1  0
 11 13  1  0
 11 14  1  0
 14 15  1  0
 14 16  1  0
 14 17  1  0
 17 18  1  0
 17 19  1  0
 17 20  1  0
 20 21  1  0
 21 22  2  0
 22 23  1  0
 22 24  1  0
 24 25  1  0
 24 26  1  0
 24 27  1  0
 27 28  1  0
 28 29  1  0
 28 30  2  0
 30 31  1  0
 31 32  1  0
 31 33  1  0
 31 34  1  0
 30 35  1  0
 35 36  1  0
 35 37  2  0
 37 38  1  0
 37 27  1  0
M  CHG  2   3   1  37   1
M  END
>  <UniqueID>  (18) 
18

>  <SMILES>  (18) 
Cc1c[nH+]n(C/C=N/OCCCC[S@+](C)O)c1

>  <Energy>  (18) 
50.946117124096254

>  <Genealogy>  (18) 
Cc1c[nH+]n(CC=NOCCCC[S+](C)O)c1 (protonated)
Cc1c[nH+]n(CC=NOCCCC[S@+](C)O)c1 (chirality)
Cc1c[nH+]n(C/C=N/OCCCC[S@+](C)O)c1 (cis-trans isomerization)
Cc1c[nH+]n(C/C=N/OCCCC[S@+](C)O)c1 (3D coordinates assigned)
Cc1c[nH+]n(C/C=N/OCCCC[S@+](C)O)c1 (optimized conformer: 50.946117124096254 kcal/mol)

>  <smiles>  (18) 
Cc1cnn(CC=NOCCCC[S+](C)[O-])c1

>  <score_type>  (18) 
oracle

>  <origin>  (18) 
adg

>  <m_score__min__energy>  (18) 
-4.2999999999999998

>  <m_primary>  (18) 
energy

$$$$
18:0
     RDKit          3D

 51 53  0  0  0  0  0  0  0  0999 V2000
   -3.5890   24.0900  -27.8640 C   0  0  0  0  0  0  0  0  0  0  0  0
   -2.6180   23.9390  -29.0250 C   0  0  0  0  0  0  0  0  0  0  0  0
   -3.3090   24.1640  -30.2510 O   0  0  0  0  0  0  0  0  0  0  0  0
   -4.5420   23.5670  -30.5410 C   0  0  0  0  0  0  0  0  0  0  0  0
   -5.7390   24.3090  -30.4770 C   0  0  0  0  0  0  0  0  0  0  0  0
   -5.7370   26.0310  -30.1260 Cl  0  0  0  0  0  0  0  0  0  0  0  0
   -6.9620   23.6920  -30.7630 C   0  0  0  0  0  0  0  0  0  0  0  0
   -7.0030   22.3480  -31.1350 C   0  0  0  0  0  0  0  0  0  0  0  0
   -8.6750   21.5140  -31.5270 Br  0  0  0  0  0  0  0  0  0  0  0  0
   -5.8190   21.6150  -31.2340 C   0  0  0  0  0  0  0  0  0  0  0  0
   -4.5840   22.2110  -30.9330 C   0  0  0  0  0  0  0  0  0  0  0  0
   -3.3290   21.3770  -31.0370 C   0  0  0  0  0  0  0  0  0  0  0  0
   -2.3410   22.0220  -31.9150 N   0  0  0  0  0  0  0  0  0  0  0  0
   -0.9500   21.7060  -31.5440 C   0  0  0  0  0  0  0  0  0  0  0  0
   -0.4400   20.4410  -32.2540 C   0  0  0  0  0  0  0  0  0  0  0  0
   -0.4720   20.5000  -33.7960 C   0  0  0  0  0  0  0  0  0  0  0  0
   -1.8180   20.7550  -34.3490 N   0  0  0  0  0  0  0  0  0  0  0  0
   -2.7520   19.7050  -34.0190 C   0  0  0  0  0  0  0  0  0  0  0  0
   -2.3120   18.3830  -33.8390 C   0  0  0  0  0  0  0  0  0  0  0  0
   -3.2320   17.3800  -33.5170 C   0  0  0  0  0  0  0  0  0  0  0  0
   -2.8290   16.1940  -33.3730 O   0  0  0  0  0  0  0  0  0  0  0  0
   -4.5910   17.7060  -33.3570 C   0  0  0  0  0  0  0  0  0  0  0  0
   -5.5600   16.7360  -33.0390 C   0  0  0  0  0  0  0  0  0  0  0  0
   -6.9010   17.1050  -32.8890 C   0  0  0  0  0  0  0  0  0  0  0  0
   -7.2870   18.4380  -33.0500 C   0  0  0  0  0  0  0  0  0  0  0  0
   -6.3340   19.4120  -33.3660 C   0  0  0  0  0  0  0  0  0  0  0  0
   -4.9900   19.0530  -33.5200 C   0  0  0  0  0  0  0  0  0  0  0  0
   -4.0690   20.0010  -33.8340 N   0  0  0  0  0  0  0  0  0  0  0  0
   -3.0409   24.0048  -26.9141 H   0  0  0  0  0  0  0  0  0  0  0  0
   -4.0762   25.0747  -27.9191 H   0  0  0  0  0  0  0  0  0  0  0  0
   -4.3522   23.2997  -27.9191 H   0  0  0  0  0  0  0  0  0  0  0  0
   -1.8051   24.6728  -28.9216 H   0  0  0  0  0  0  0  0  0  0  0  0
   -2.1958   22.9233  -29.0217 H   0  0  0  0  0  0  0  0  0  0  0  0
   -7.8957   24.2695  -30.6942 H   0  0  0  0  0  0  0  0  0  0  0  0
   -5.8540   20.5621  -31.5504 H   0  0  0  0  0  0  0  0  0  0  0  0
   -2.8939   21.2546  -30.0342 H   0  0  0  0  0  0  0  0  0  0  0  0
   -3.5922   20.3980  -31.4640 H   0  0  0  0  0  0  0  0  0  0  0  0
   -2.4670   23.0580  -31.8130 H   0  0  0  0  0  0  0  0  0  0  0  0
   -0.3065   22.5537  -31.8221 H   0  0  0  0  0  0  0  0  0  0  0  0
   -0.9196   21.5238  -30.4596 H   0  0  0  0  0  0  0  0  0  0  0  0
    0.6005   20.2700  -31.9407 H   0  0  0  0  0  0  0  0  0  0  0  0
   -1.1230   19.6292  -31.9634 H   0  0  0  0  0  0  0  0  0  0  0  0
    0.1989   21.3063  -34.1274 H   0  0  0  0  0  0  0  0  0  0  0  0
   -0.1530   19.5136  -34.1638 H   0  0  0  0  0  0  0  0  0  0  0  0
   -2.1660   21.6890  -34.0310 H   0  0  0  0  0  0  0  0  0  0  0  0
   -1.7480   20.7880  -35.3930 H   0  0  0  0  0  0  0  0  0  0  0  0
   -1.2457   18.1372  -33.9511 H   0  0  0  0  0  0  0  0  0  0  0  0
   -5.2621   15.6852  -32.9081 H   0  0  0  0  0  0  0  0  0  0  0  0
   -7.6547   16.3424  -32.6433 H   0  0  0  0  0  0  0  0  0  0  0  0
   -8.3426   18.7222  -32.9280 H   0  0  0  0  0  0  0  0  0  0  0  0
   -6.6410   20.4606  -33.4935 H   0  0  0  0  0  0  0  0  0  0  0  0
  1  2  1  0
  2  3  1  0
  3  4  1  0
  4  5  2  0
  5  6  1  0
  5  7  1  0
  7  8  2  0
  8  9  1  0
  8 10  1  0
 10 11  2  0
 11 12  1  0
 12 13  1  0
 13 14  1  0
 14 15  1  0
 15 16  1  0
 16 17  1  0
 17 18  1  0
 18 19  2  0
 19 20  1  0
 20 21  2  0
 20 22  1  0
 22 23  2  0
 23 24  1  0
 24 25  2  0
 25 26  1  0
 26 27  2  0
 27 28  1  0
 11  4  1  0
 28 18  1  0
 27 22  1  0
  1 29  1  0
  1 30  1  0
  1 31  1  0
  2 32  1  0
  2 33  1  0
  7 34  1  0
 10 35  1  0
 12 36  1  0
 12 37  1  0
 13 38  1  0
 14 39  1  0
 14 40  1  0
 15 41  1  0
 15 42  1  0
 16 43  1  0
 16 44  1  0
 17 45  1  0
 17 46  1  0
 19 47  1  0
 23 48  1  0
 24 49  1  0
 25 50  1  0
 26 51  1  0
M  CHG  2  17   1  28  -1
M  END
>  <UniqueID>  (19) 
19

>  <SMILES>  (19) 
CCOc1c(Cl)cc(Br)cc1CNCCC[NH2+]c1cc(=O)c2ccccc2[n-]1

>  <Energy>  (19) 
59.0640309696134

>  <Genealogy>  (19) 
CCOc1c(Cl)cc(Br)cc1CNCCC[NH2+]c1cc(=O)c2ccccc2[n-]1 (protonated)
CCOc1c(Cl)cc(Br)cc1CNCCC[NH2+]c1cc(=O)c2ccccc2[n-]1 (3D coordinates assigned)
CCOc1c(Cl)cc(Br)cc1CNCCC[NH2+]c1cc(=O)c2ccccc2[n-]1 (optimized conformer: 59.0640309696134 kcal/mol)

>  <smiles>  (19) 
CCOc1c(Cl)cc(Br)cc1CNCCCNc1cc(=O)c2ccccc2[nH]1

>  <score_type>  (19) 
oracle

>  <origin>  (19) 
adg

>  <m_score__min__energy>  (19) 
-8.5199999999999996

>  <m_primary>  (19) 
energy

$$$$
19:0
     RDKit          3D

 57 60  0  0  0  0  0  0  0  0999 V2000
   -3.0470   21.5860  -28.3420 C   0  0  0  0  0  0  0  0  0  0  0  0
   -1.9780   20.5870  -28.7570 C   0  0  0  0  0  0  0  0  0  0  0  0
   -1.5280   20.9030  -30.0560 O   0  0  0  0  0  0  0  0  0  0  0  0
   -0.3180   20.2220  -30.3120 C   0  0  0  0  0  0  0  0  0  0  0  0
    0.0570   20.4030  -31.7770 C   0  0  0  0  0  0  0  0  0  0  0  0
   -0.6150   21.5340  -32.2900 O   0  0  0  0  0  0  0  0  0  0  0  0
   -1.1640   21.2550  -33.5650 C   0  0  0  0  0  0  0  0  0  0  0  0
   -2.6890   21.1660  -33.4630 C   0  0  0  0  0  0  0  0  0  0  0  0
   -3.1300   21.1920  -32.0580 N   0  0  0  0  0  0  0  0  0  0  0  0
   -4.5710   21.2960  -31.9810 C   0  0  0  0  0  0  0  0  0  0  0  0
   -5.2110   22.4450  -31.4290 C   0  0  0  0  0  0  0  0  0  0  0  0
   -4.4690   23.4660  -30.7890 C   0  0  0  0  0  0  0  0  0  0  0  0
   -5.0900   24.6180  -30.3160 C   0  0  0  0  0  0  0  0  0  0  0  0
   -6.4600   24.7880  -30.4700 C   0  0  0  0  0  0  0  0  0  0  0  0
   -7.2270   23.7900  -31.0650 C   0  0  0  0  0  0  0  0  0  0  0  0
   -6.6380   22.5850  -31.5240 C   0  0  0  0  0  0  0  0  0  0  0  0
   -7.4100   21.5690  -32.0620 N   0  0  0  0  0  0  0  0  0  0  0  0
   -8.8850   21.6490  -32.0650 C   0  0  0  0  0  0  0  0  0  0  0  0
   -6.7780   20.4720  -32.5860 C   0  0  0  0  0  0  0  0  0  0  0  0
   -7.3770   19.4350  -33.2200 N   0  0  0  0  0  0  0  0  0  0  0  0
   -6.3860   18.5810  -33.5230 C   0  0  0  0  0  0  0  0  0  0  0  0
   -6.5300   17.3450  -34.1490 C   0  0  0  0  0  0  0  0  0  0  0  0
   -5.3860   16.5590  -34.3400 C   0  0  0  0  0  0  0  0  0  0  0  0
   -4.1160   17.0130  -33.9070 C   0  0  0  0  0  0  0  0  0  0  0  0
   -2.9130   16.1130  -34.0420 C   0  0  0  0  0  0  0  0  0  0  0  0
   -2.8950   15.5660  -35.3110 F   0  0  0  0  0  0  0  0  0  0  0  0
   -2.9550   15.0890  -33.1130 F   0  0  0  0  0  0  0  0  0  0  0  0
   -1.7470   16.8300  -33.8420 F   0  0  0  0  0  0  0  0  0  0  0  0
   -4.0060   18.2640  -33.2570 C   0  0  0  0  0  0  0  0  0  0  0  0
   -5.1590   19.0500  -33.1040 C   0  0  0  0  0  0  0  0  0  0  0  0
   -5.4050   20.2980  -32.5200 C   0  0  0  0  0  0  0  0  0  0  0  0
   -3.0980   21.6336  -27.2442 H   0  0  0  0  0  0  0  0  0  0  0  0
   -2.7949   22.5797  -28.7408 H   0  0  0  0  0  0  0  0  0  0  0  0
   -4.0213   21.2673  -28.7408 H   0  0  0  0  0  0  0  0  0  0  0  0
   -1.1343   20.6370  -28.0529 H   0  0  0  0  0  0  0  0  0  0  0  0
   -2.3984   19.5705  -28.7483 H   0  0  0  0  0  0  0  0  0  0  0  0
    0.4782   20.6340  -29.6746 H   0  0  0  0  0  0  0  0  0  0  0  0
   -0.4420   19.1515  -30.0913 H   0  0  0  0  0  0  0  0  0  0  0  0
    1.1437   20.5496  -31.8636 H   0  0  0  0  0  0  0  0  0  0  0  0
   -0.2346   19.5087  -32.3472 H   0  0  0  0  0  0  0  0  0  0  0  0
   -0.8908   22.0588  -34.2644 H   0  0  0  0  0  0  0  0  0  0  0  0
   -0.7672   20.2963  -33.9302 H   0  0  0  0  0  0  0  0  0  0  0  0
   -3.1348   22.0193  -33.9951 H   0  0  0  0  0  0  0  0  0  0  0  0
   -3.0139   20.2164  -33.9131 H   0  0  0  0  0  0  0  0  0  0  0  0
   -2.7890   20.3420  -31.5560 H   0  0  0  0  0  0  0  0  0  0  0  0
   -2.6880   21.9780  -31.5350 H   0  0  0  0  0  0  0  0  0  0  0  0
   -3.3827   23.3470  -30.6633 H   0  0  0  0  0  0  0  0  0  0  0  0
   -4.4937   25.3969  -29.8183 H   0  0  0  0  0  0  0  0  0  0  0  0
   -6.9403   25.7139  -30.1208 H   0  0  0  0  0  0  0  0  0  0  0  0
   -8.3106   23.9393  -31.1812 H   0  0  0  0  0  0  0  0  0  0  0  0
   -9.2532   21.6690  -31.0287 H   0  0  0  0  0  0  0  0  0  0  0  0
   -9.2014   22.5656  -32.5843 H   0  0  0  0  0  0  0  0  0  0  0  0
   -9.2987   20.7720  -32.5843 H   0  0  0  0  0  0  0  0  0  0  0  0
   -8.3830   19.2970  -33.4600 H   0  0  0  0  0  0  0  0  0  0  0  0
   -7.5172   16.9948  -34.4850 H   0  0  0  0  0  0  0  0  0  0  0  0
   -5.4750   15.5789  -34.8314 H   0  0  0  0  0  0  0  0  0  0  0  0
   -3.0347   18.6148  -32.8782 H   0  0  0  0  0  0  0  0  0  0  0  0
  1  2  1  0
  2  3  1  0
  3  4  1  0
  4  5  1  0
  5  6  1  0
  6  7  1  0
  7  8  1  0
  8  9  1  0
  9 10  1  0
 10 11  2  0
 11 12  1  0
 12 13  2  0
 13 14  1  0
 14 15  2  0
 15 16  1  0
 16 17  2  0
 17 18  1  0
 17 19  1  0
 19 20  1  0
 20 21  1  0
 21 22  2  0
 22 23  1  0
 23 24  2  0
 24 25  1  0
 25 26  1  0
 25 27  1  0
 25 28  1  0
 24 29  1  0
 29 30  2  0
 30 31  1  0
 31 10  1  0
 16 11  1  0
 31 19  2  0
 30 21  1  0
  1 32  1  0
  1 33  1  0
  1 34  1  0
  2 35  1  0
  2 36  1  0
  4 37  1  0
  4 38  1  0
  5 39  1  0
  5 40  1  0
  7 41  1  0
  7 42  1  0
  8 43  1  0
  8 44  1  0
  9 45  1  0
  9 46  1  0
 12 47  1  0
 13 48  1  0
 14 49  1  0
 15 50  1  0
 18 51  1  0
 18 52  1  0
 18 53  1  0
 20 54  1  0
 22 55  1  0
 23 56  1  0
 29 57  1  0
M  CHG  2   9   1  17   1
M  END
>  <UniqueID>  (20) 
20

>  <SMILES>  (20) 
CCOCCOCC[NH2+]c1c2ccccc2[n+](C)c2[nH]c3ccc(C(F)(F)F)cc3c12

>  <Energy>  (20) 
114.26104587793888

>  <Genealogy>  (20) 
CCOCCOCC[NH2+]c1c2ccccc2[n+](C)c2[nH]c3ccc(C(F)(F)F)cc3c12 (protonated)
CCOCCOCC[NH2+]c1c2ccccc2[n+](C)c2[nH]c3ccc(C(F)(F)F)cc3c12 (3D coordinates assigned)
CCOCCOCC[NH2+]c1c2ccccc2[n+](C)c2[nH]c3ccc(C(F)(F)F)cc3c12 (optimized conformer: 114.26104587793888 kcal/mol)

>  <smiles>  (20) 
CCOCCOCCNc1c2ccccc2[n+](C)c2[nH]c3ccc(C(F)(F)F)cc3c12

>  <score_type>  (20) 
oracle

>  <origin>  (20) 
adg

>  <m_score__min__energy>  (20) 
-8.6099999999999994

>  <m_primary>  (20) 
energy

$$$$
20:0
     RDKit          3D

 89 93  0  0  0  0  0  0  0  0999 V2000
   -2.7260   19.3200  -26.7200 C   0  0  0  0  0  0  0  0  0  0  0  0
   -2.7500   20.4540  -27.7330 C   0  0  0  0  0  0  0  0  0  0  0  0
   -1.9000   20.1220  -28.8130 O   0  0  0  0  0  0  0  0  0  0  0  0
   -0.7300   19.4760  -28.3460 C   0  0  0  0  0  0  0  0  0  0  0  0
    0.2010   19.0740  -29.4950 C   0  0  0  0  0  0  0  0  0  0  0  0
   -0.5400   18.9580  -30.6980 O   0  0  0  0  0  0  0  0  0  0  0  0
    0.2420   19.3120  -31.8240 C   0  0  0  0  0  0  0  0  0  0  0  0
   -0.4600   20.3340  -32.7340 C   0  0  0  0  0  0  0  0  0  0  0  0
   -1.5450   21.1140  -31.9720 C   0  0  0  0  0  0  0  0  0  0  0  0
   -2.5470   20.1980  -31.3920 N   0  0  0  0  0  0  0  0  0  0  0  0
   -3.8370   20.3400  -32.0470 C   0  0  0  0  0  0  0  0  0  0  0  0
   -4.2960   19.4000  -33.0140 C   0  0  0  0  0  0  0  0  0  0  0  0
   -3.3960   18.5460  -33.6870 C   0  0  0  0  0  0  0  0  0  0  0  0
   -3.8490   17.6330  -34.6360 C   0  0  0  0  0  0  0  0  0  0  0  0
   -5.2010   17.5600  -34.9490 C   0  0  0  0  0  0  0  0  0  0  0  0
   -6.1150   18.4020  -34.3180 C   0  0  0  0  0  0  0  0  0  0  0  0
   -5.6950   19.3330  -33.3360 C   0  0  0  0  0  0  0  0  0  0  0  0
   -6.5990   20.1690  -32.7020 N   0  0  0  0  0  0  0  0  0  0  0  0
   -8.0540   20.0180  -32.8860 C   0  0  0  0  0  0  0  0  0  0  0  0
   -6.1100   21.1870  -31.9300 C   0  0  0  0  0  0  0  0  0  0  0  0
   -6.8350   22.1950  -31.3850 N   0  0  0  0  0  0  0  0  0  0  0  0
   -5.9350   22.9880  -30.7770 C   0  0  0  0  0  0  0  0  0  0  0  0
   -6.1990   24.1900  -30.1230 C   0  0  0  0  0  0  0  0  0  0  0  0
   -5.1130   24.9290  -29.6310 C   0  0  0  0  0  0  0  0  0  0  0  0
   -3.7880   24.4940  -29.8390 C   0  0  0  0  0  0  0  0  0  0  0  0
   -2.7430   25.2880  -29.3360 O   0  0  0  0  0  0  0  0  0  0  0  0
   -1.6960   24.8300  -28.4750 C   0  0  0  0  0  0  0  0  0  0  0  0
   -1.9560   25.2800  -27.0140 C   0  0  0  0  0  0  0  0  0  0  0  0
   -0.7510   25.2810  -26.1230 N   0  0  0  0  0  0  0  0  0  0  0  0
   -0.1090   23.9400  -26.1520 C   0  0  0  0  0  0  0  0  0  0  0  0
   -1.2060   25.5380  -24.7140 C   0  0  0  0  0  0  0  0  0  0  0  0
   -1.2130   27.0390  -24.3680 C   0  0  0  0  0  0  0  0  0  0  0  0
    0.1620   27.6280  -24.4150 N   0  0  0  0  0  0  0  0  0  0  0  0
    0.0560   29.0660  -24.7680 C   0  0  0  0  0  0  0  0  0  0  0  0
    0.7920   27.5340  -23.0740 C   0  0  0  0  0  0  0  0  0  0  0  0
    1.0370   26.9260  -25.4080 C   0  0  0  0  0  0  0  0  0  0  0  0
    0.2290   26.3260  -26.5760 C   0  0  0  0  0  0  0  0  0  0  0  0
   -3.5530   23.2940  -30.5530 C   0  0  0  0  0  0  0  0  0  0  0  0
   -4.6500   22.5140  -30.9340 C   0  0  0  0  0  0  0  0  0  0  0  0
   -4.7630   21.3200  -31.6440 C   0  0  0  0  0  0  0  0  0  0  0  0
   -2.7348   19.7373  -25.7022 H   0  0  0  0  0  0  0  0  0  0  0  0
   -3.6108   18.6822  -26.8625 H   0  0  0  0  0  0  0  0  0  0  0  0
   -1.8150   18.7203  -26.8625 H   0  0  0  0  0  0  0  0  0  0  0  0
   -3.7763   20.5980  -28.1017 H   0  0  0  0  0  0  0  0  0  0  0  0
   -2.4039   21.3843  -27.2590 H   0  0  0  0  0  0  0  0  0  0  0  0
   -0.1905   20.1601  -27.6745 H   0  0  0  0  0  0  0  0  0  0  0  0
   -1.0349   18.5598  -27.8192 H   0  0  0  0  0  0  0  0  0  0  0  0
    0.9798   19.8409  -29.6188 H   0  0  0  0  0  0  0  0  0  0  0  0
    0.6670   18.1053  -29.2617 H   0  0  0  0  0  0  0  0  0  0  0  0
    1.1897   19.7459  -31.4724 H   0  0  0  0  0  0  0  0  0  0  0  0
    0.4082   18.3990  -32.4146 H   0  0  0  0  0  0  0  0  0  0  0  0
    0.2875   21.0437  -33.1180 H   0  0  0  0  0  0  0  0  0  0  0  0
   -0.9415   19.7887  -33.5591 H   0  0  0  0  0  0  0  0  0  0  0  0
   -1.0725   21.6894  -31.1623 H   0  0  0  0  0  0  0  0  0  0  0  0
   -2.0532   21.7874  -32.6779 H   0  0  0  0  0  0  0  0  0  0  0  0
   -2.6450   20.3560  -30.3640 H   0  0  0  0  0  0  0  0  0  0  0  0
   -2.1740   19.2400  -31.5250 H   0  0  0  0  0  0  0  0  0  0  0  0
   -2.3214   18.6024  -33.4586 H   0  0  0  0  0  0  0  0  0  0  0  0
   -3.1335   16.9667  -35.1401 H   0  0  0  0  0  0  0  0  0  0  0  0
   -5.5513   16.8345  -35.6980 H   0  0  0  0  0  0  0  0  0  0  0  0
   -7.1800   18.3428  -34.5868 H   0  0  0  0  0  0  0  0  0  0  0  0
   -8.5446   19.9671  -31.9028 H   0  0  0  0  0  0  0  0  0  0  0  0
   -8.4442   20.8805  -33.4463 H   0  0  0  0  0  0  0  0  0  0  0  0
   -8.2588   19.0938  -33.4463 H   0  0  0  0  0  0  0  0  0  0  0  0
   -7.8570   22.3830  -31.4600 H   0  0  0  0  0  0  0  0  0  0  0  0
   -7.2309   24.5494  -29.9961 H   0  0  0  0  0  0  0  0  0  0  0  0
   -5.2975   25.8603  -29.0755 H   0  0  0  0  0  0  0  0  0  0  0  0
   -1.6513   23.7316  -28.5126 H   0  0  0  0  0  0  0  0  0  0  0  0
   -0.7428   25.2610  -28.8149 H   0  0  0  0  0  0  0  0  0  0  0  0
   -2.3611   26.3024  -27.0397 H   0  0  0  0  0  0  0  0  0  0  0  0
   -2.6514   24.5426  -26.5865 H   0  0  0  0  0  0  0  0  0  0  0  0
    0.0580   23.5911  -25.1223 H   0  0  0  0  0  0  0  0  0  0  0  0
   -0.7652   23.2306  -26.6776 H   0  0  0  0  0  0  0  0  0  0  0  0
    0.8550   24.0063  -26.6776 H   0  0  0  0  0  0  0  0  0  0  0  0
   -2.2252   25.1422  -24.5934 H   0  0  0  0  0  0  0  0  0  0  0  0
   -0.4989   25.0388  -24.0351 H   0  0  0  0  0  0  0  0  0  0  0  0
   -1.8515   27.5678  -25.0910 H   0  0  0  0  0  0  0  0  0  0  0  0
   -1.5976   27.1513  -23.3436 H   0  0  0  0  0  0  0  0  0  0  0  0
    0.0117   29.6671  -23.8478 H   0  0  0  0  0  0  0  0  0  0  0  0
    0.9346   29.3642  -25.3589 H   0  0  0  0  0  0  0  0  0  0  0  0
   -0.8568   29.2322  -25.3589 H   0  0  0  0  0  0  0  0  0  0  0  0
    0.0211   27.6490  -22.2978 H   0  0  0  0  0  0  0  0  0  0  0  0
    1.2783   26.5534  -22.9653 H   0  0  0  0  0  0  0  0  0  0  0  0
    1.5434   28.3300  -22.9653 H   0  0  0  0  0  0  0  0  0  0  0  0
    1.7623   27.6471  -25.8128 H   0  0  0  0  0  0  0  0  0  0  0  0
    1.5419   26.0990  -24.8873 H   0  0  0  0  0  0  0  0  0  0  0  0
   -0.3243   27.1356  -27.0744 H   0  0  0  0  0  0  0  0  0  0  0  0
    0.9412   25.8411  -27.2598 H   0  0  0  0  0  0  0  0  0  0  0  0
   -2.5284   22.9814  -30.8031 H   0  0  0  0  0  0  0  0  0  0  0  0
  1  2  1  0
  2  3  1  0
  3  4  1  0
  4  5  1  0
  5  6  1  0
  6  7  1  0
  7  8  1  0
  8  9  1  0
  9 10  1  0
 10 11  1  0
 11 12  2  0
 12 13  1  0
 13 14  2  0
 14 15  1  0
 15 16  2  0
 16 17  1  0
 17 18  2  0
 18 19  1  0
 18 20  1  0
 20 21  1  0
 21 22  1  0
 22 23  2  0
 23 24  1  0
 24 25  2  0
 25 26  1  0
 26 27  1  0
 27 28  1  0
 28 29  1  0
 29 30  1  0
 29 31  1  0
 31 32  1  0
 32 33  1  0
 33 34  1  0
 33 35  1  0
 33 36  1  0
 36 37  1  0
 25 38  1  0
 38 39  2  0
 39 40  1  0
 40 11  1  0
 17 12  1  0
 40 20  2  0
 39 22  1  0
 37 29  1  0
  1 41  1  0
  1 42  1  0
  1 43  1  0
  2 44  1  0
  2 45  1  0
  4 46  1  0
  4 47  1  0
  5 48  1  0
  5 49  1  0
  7 50  1  0
  7 51  1  0
  8 52  1  0
  8 53  1  0
  9 54  1  0
  9 55  1  0
 10 56  1  0
 10 57  1  0
 13 58  1  0
 14 59  1  0
 15 60  1  0
 16 61  1  0
 19 62  1  0
 19 63  1  0
 19 64  1  0
 21 65  1  0
 23 66  1  0
 24 67  1  0
 27 68  1  0
 27 69  1  0
 28 70  1  0
 28 71  1  0
 30 72  1  0
 30 73  1  0
 30 74  1  0
 31 75  1  0
 31 76  1  0
 32 77  1  0
 32 78  1  0
 34 79  1  0
 34 80  1  0
 34 81  1  0
 35 82  1  0
 35 83  1  0
 35 84  1  0
 36 85  1  0
 36 86  1  0
 37 87  1  0
 37 88  1  0
 38 89  1  0
M  CHG  4  10   1  18   1  29   1  33   1
M  END
>  <UniqueID>  (21) 
21

>  <SMILES>  (21) 
CCOCCOCCC[NH2+]c1c2ccccc2[n+](C)c2[nH]c3ccc(OCC[N+]4(C)CC[N+](C)(C)CC4)cc3c12

>  <Energy>  (21) 
174.82934658558275

>  <Genealogy>  (21) 
CCOCCOCCC[NH2+]c1c2ccccc2[n+](C)c2[nH]c3ccc(OCC[N+]4(C)CC[N+](C)(C)CC4)cc3c12 (protonated)
CCOCCOCCC[NH2+]c1c2ccccc2[n+](C)c2[nH]c3ccc(OCC[N+]4(C)CC[N+](C)(C)CC4)cc3c12 (3D coordinates assigned)
CCOCCOCCC[NH2+]c1c2ccccc2[n+](C)c2[nH]c3ccc(OCC[N+]4(C)CC[N+](C)(C)CC4)cc3c12 (nonaromatic ring conformer: 174.82934658558275 kcal/mol)

>  <smiles>  (21) 
CCOCCOCCCNc1c2ccccc2[n+](C)c2[nH]c3ccc(OCC[N+]4(C)CC[N+](C)(C)CC4)cc3c12

>  <score_type>  (21) 
oracle

>  <origin>  (21) 
adg

>  <m_score__min__energy>  (21) 
-7.7199999999999998

>  <m_primary>  (21) 
energy

$$$$
21:0
     RDKit          3D

 38 39  0  0  0  0  0  0  0  0999 V2000
   -7.3610   18.1470  -31.5930 C   0  0  0  0  0  0  0  0  0  0  0  0
   -8.7810   18.5600  -31.9760 C   0  0  0  0  0  0  0  0  0  0  0  0
   -8.8290   19.9090  -32.7050 C   0  0  0  0  0  0  0  0  0  0  0  0
   -9.5760   20.8970  -31.9150 N   0  0  0  0  0  0  0  0  0  0  0  0
   -8.6600   21.7520  -31.1490 C   0  0  0  0  0  0  0  0  0  0  0  0
   -8.1010   22.8720  -32.0350 C   0  0  0  0  0  0  0  0  0  0  0  0
   -6.6400   23.1420  -31.7320 C   0  0  0  0  0  0  0  0  0  0  0  0
   -6.3140   24.3570  -31.1120 C   0  0  0  0  0  0  0  0  0  0  0  0
   -4.9780   24.6660  -30.8540 C   0  0  0  0  0  0  0  0  0  0  0  0
   -4.6820   25.7520  -30.2910 O   0  0  0  0  0  0  0  0  0  0  0  0
   -4.0140   23.8230  -31.2020 O   0  0  0  0  0  0  0  0  0  0  0  0
   -4.2560   22.6630  -31.8030 C   0  0  0  0  0  0  0  0  0  0  0  0
   -3.1820   21.8390  -32.1460 C   0  0  0  0  0  0  0  0  0  0  0  0
   -3.4030   20.6200  -32.7880 C   0  0  0  0  0  0  0  0  0  0  0  0
   -4.7120   20.2060  -33.0890 C   0  0  0  0  0  0  0  0  0  0  0  0
   -4.9840   18.9900  -33.7350 O   0  0  0  0  0  0  0  0  0  0  0  0
   -6.1020   18.7630  -34.5870 C   0  0  0  0  0  0  0  0  0  0  0  0
   -5.7920   21.0250  -32.7390 C   0  0  0  0  0  0  0  0  0  0  0  0
   -5.5850   22.2650  -32.0970 C   0  0  0  0  0  0  0  0  0  0  0  0
   -7.2698   18.1205  -30.4971 H   0  0  0  0  0  0  0  0  0  0  0  0
   -7.1462   17.1492  -32.0031 H   0  0  0  0  0  0  0  0  0  0  0  0
   -6.6445   18.8740  -32.0031 H   0  0  0  0  0  0  0  0  0  0  0  0
   -9.2062   17.7886  -32.6349 H   0  0  0  0  0  0  0  0  0  0  0  0
   -9.3590   18.6642  -31.0459 H   0  0  0  0  0  0  0  0  0  0  0  0
   -7.8025   20.2723  -32.8612 H   0  0  0  0  0  0  0  0  0  0  0  0
   -9.3352   19.7719  -33.6719 H   0  0  0  0  0  0  0  0  0  0  0  0
  -10.0880   21.5160  -32.5850 H   0  0  0  0  0  0  0  0  0  0  0  0
   -9.2035   22.1974  -30.3027 H   0  0  0  0  0  0  0  0  0  0  0  0
   -7.8239   21.1381  -30.7828 H   0  0  0  0  0  0  0  0  0  0  0  0
   -8.1987   22.5759  -33.0899 H   0  0  0  0  0  0  0  0  0  0  0  0
   -8.6715   23.7904  -31.8321 H   0  0  0  0  0  0  0  0  0  0  0  0
   -7.1085   25.0637  -30.8302 H   0  0  0  0  0  0  0  0  0  0  0  0
   -2.1549   22.1530  -31.9085 H   0  0  0  0  0  0  0  0  0  0  0  0
   -2.5499   19.9809  -33.0595 H   0  0  0  0  0  0  0  0  0  0  0  0
   -6.9981   18.5811  -33.9755 H   0  0  0  0  0  0  0  0  0  0  0  0
   -6.2645   19.6465  -35.2219 H   0  0  0  0  0  0  0  0  0  0  0  0
   -5.9071   17.8861  -35.2219 H   0  0  0  0  0  0  0  0  0  0  0  0
   -6.8169   20.6975  -32.9676 H   0  0  0  0  0  0  0  0  0  0  0  0
  1  2  1  0
  2  3  1  0
  3  4  1  0
  4  5  1  0
  5  6  1  0
  6  7  1  0
  7  8  2  0
  8  9  1  0
  9 10  2  0
  9 11  1  0
 11 12  1  0
 12 13  2  0
 13 14  1  0
 14 15  2  0
 15 16  1  0
 16 17  1  0
 15 18  1  0
 18 19  2  0
 19  7  1  0
 19 12  1  0
  1 20  1  0
  1 21  1  0
  1 22  1  0
  2 23  1  0
  2 24  1  0
  3 25  1  0
  3 26  1  0
  4 27  1  0
  5 28  1  0
  5 29  1  0
  6 30  1  0
  6 31  1  0
  8 32  1  0
 13 33  1  0
 14 34  1  0
 17 35  1  0
 17 36  1  0
 17 37  1  0
 18 38  1  0
M  END
>  <UniqueID>  (22) 
22

>  <SMILES>  (22) 
CCCNCCc1cc(=O)oc2ccc(OC)cc12

>  <Energy>  (22) 
35.67803537566102

>  <Genealogy>  (22) 
CCCNCCc1cc(=O)oc2ccc(OC)cc12 (3D coordinates assigned)
CCCNCCc1cc(=O)oc2ccc(OC)cc12 (optimized conformer: 35.67803537566102 kcal/mol)

>  <smiles>  (22) 
CCCNCCc1cc(=O)oc2ccc(OC)cc12

>  <score_type>  (22) 
oracle

>  <origin>  (22) 
adg

>  <m_score__min__energy>  (22) 
-7.2599999999999998

>  <m_primary>  (22) 
energy

$$$$
22:0
     RDKit          3D

 47 49  0  0  0  0  0  0  0  0999 V2000
   -1.9080   21.1500  -29.6410 C   0  0  0  0  0  0  0  0  0  0  0  0
   -1.2770   22.3390  -30.3490 C   0  0  0  0  0  0  0  0  0  0  0  0
   -2.2320   23.3770  -30.4500 O   0  0  0  0  0  0  0  0  0  0  0  0
   -2.5920   23.8460  -29.1650 C   0  0  0  0  0  0  0  0  0  0  0  0
   -3.9550   24.5440  -29.2160 C   0  0  0  0  0  0  0  0  0  0  0  0
   -4.1140   25.2530  -30.4940 N   0  0  0  0  0  0  0  0  0  0  0  0
   -5.5170   25.3050  -30.9450 C   0  0  0  0  0  0  0  0  0  0  0  0
   -5.8560   24.1980  -31.9570 C   0  0  0  0  0  0  0  0  0  0  0  0
   -5.0080   23.0250  -31.7430 N   0  0  0  0  0  0  0  0  0  0  0  0
   -5.3060   21.7440  -32.3250 C   0  0  0  0  0  0  0  0  0  0  0  0
   -6.5880   21.1640  -32.2210 C   0  0  0  0  0  0  0  0  0  0  0  0
   -7.6370   21.8410  -31.5650 C   0  0  0  0  0  0  0  0  0  0  0  0
   -8.8920   21.2520  -31.4340 C   0  0  0  0  0  0  0  0  0  0  0  0
   -9.1220   19.9770  -31.9400 C   0  0  0  0  0  0  0  0  0  0  0  0
   -8.1080   19.2890  -32.6070 C   0  0  0  0  0  0  0  0  0  0  0  0
   -6.8300   19.8720  -32.7930 C   0  0  0  0  0  0  0  0  0  0  0  0
   -5.8250   19.2140  -33.4900 N   0  0  0  0  0  0  0  0  0  0  0  0
   -6.0980   17.9520  -34.2060 C   0  0  0  0  0  0  0  0  0  0  0  0
   -4.5590   19.7520  -33.4960 C   0  0  0  0  0  0  0  0  0  0  0  0
   -3.3910   19.1390  -34.0000 C   0  0  0  0  0  0  0  0  0  0  0  0
   -2.2480   19.9170  -33.8430 C   0  0  0  0  0  0  0  0  0  0  0  0
   -2.6700   21.3500  -33.0680 S   0  0  0  0  0  0  0  0  0  0  0  0
   -4.3090   20.9970  -32.9420 C   0  0  0  0  0  0  0  0  0  0  0  0
   -1.8338   21.2898  -28.5524 H   0  0  0  0  0  0  0  0  0  0  0  0
   -2.9666   21.0712  -29.9292 H   0  0  0  0  0  0  0  0  0  0  0  0
   -1.3799   20.2291  -29.9292 H   0  0  0  0  0  0  0  0  0  0  0  0
   -0.4086   22.6921  -29.7735 H   0  0  0  0  0  0  0  0  0  0  0  0
   -0.9472   22.0394  -31.3547 H   0  0  0  0  0  0  0  0  0  0  0  0
   -2.6459   22.9950  -28.4701 H   0  0  0  0  0  0  0  0  0  0  0  0
   -1.8342   24.5656  -28.8216 H   0  0  0  0  0  0  0  0  0  0  0  0
   -4.7521   23.7927  -29.1155 H   0  0  0  0  0  0  0  0  0  0  0  0
   -4.0178   25.2701  -28.3921 H   0  0  0  0  0  0  0  0  0  0  0  0
   -3.5230   24.7830  -31.2180 H   0  0  0  0  0  0  0  0  0  0  0  0
   -6.1727   25.1938  -30.0688 H   0  0  0  0  0  0  0  0  0  0  0  0
   -5.6693   26.2720  -31.4467 H   0  0  0  0  0  0  0  0  0  0  0  0
   -6.9103   23.9085  -31.8359 H   0  0  0  0  0  0  0  0  0  0  0  0
   -5.6800   24.5813  -32.9729 H   0  0  0  0  0  0  0  0  0  0  0  0
   -4.2020   23.1090  -31.0850 H   0  0  0  0  0  0  0  0  0  0  0  0
   -7.4619   22.8455  -31.1522 H   0  0  0  0  0  0  0  0  0  0  0  0
   -9.7035   21.7965  -30.9291 H   0  0  0  0  0  0  0  0  0  0  0  0
  -10.1091   19.5084  -31.8135 H   0  0  0  0  0  0  0  0  0  0  0  0
   -8.3037   18.2783  -32.9945 H   0  0  0  0  0  0  0  0  0  0  0  0
   -6.2721   17.1470  -33.4768 H   0  0  0  0  0  0  0  0  0  0  0  0
   -6.9905   18.0743  -34.8373 H   0  0  0  0  0  0  0  0  0  0  0  0
   -5.2348   17.6945  -34.8373 H   0  0  0  0  0  0  0  0  0  0  0  0
   -3.3852   18.1446  -34.4703 H   0  0  0  0  0  0  0  0  0  0  0  0
   -1.2352   19.6408  -34.1714 H   0  0  0  0  0  0  0  0  0  0  0  0
  1  2  1  0
  2  3  1  0
  3  4  1  0
  4  5  1  0
  5  6  1  0
  6  7  1  0
  7  8  1  0
  8  9  1  0
  9 10  1  0
 10 11  2  0
 11 12  1  0
 12 13  2  0
 13 14  1  0
 14 15  2  0
 15 16  1  0
 16 17  2  0
 17 18  1  0
 17 19  1  0
 19 20  1  0
 20 21  2  0
 21 22  1  0
 22 23  1  0
 23 10  1  0
 16 11  1  0
 23 19  2  0
  1 24  1  0
  1 25  1  0
  1 26  1  0
  2 27  1  0
  2 28  1  0
  4 29  1  0
  4 30  1  0
  5 31  1  0
  5 32  1  0
  6 33  1  0
  7 34  1  0
  7 35  1  0
  8 36  1  0
  8 37  1  0
  9 38  1  0
 12 39  1  0
 13 40  1  0
 14 41  1  0
 15 42  1  0
 18 43  1  0
 18 44  1  0
 18 45  1  0
 20 46  1  0
 21 47  1  0
M  CHG  1  17   1
M  END
>  <UniqueID>  (23) 
23

>  <SMILES>  (23) 
CCOCCNCCNc1c2ccccc2[n+](C)c2ccsc12

>  <Energy>  (23) 
93.0855277573535

>  <Genealogy>  (23) 
CCOCCNCCNc1c2ccccc2[n+](C)c2ccsc12 (3D coordinates assigned)
CCOCCNCCNc1c2ccccc2[n+](C)c2ccsc12 (optimized conformer: 93.0855277573535 kcal/mol)

>  <smiles>  (23) 
CCOCCNCCNc1c2ccccc2[n+](C)c2ccsc12

>  <score_type>  (23) 
oracle

>  <origin>  (23) 
adg

>  <m_score__min__energy>  (23) 
-9.0399999999999991

>  <m_primary>  (23) 
energy

$$$$
23:0
     RDKit          3D

 47 50  0  0  0  0  0  0  0  0999 V2000
   -4.9960   13.4500  -32.8990 C   0  0  0  0  0  0  0  0  0  0  0  0
   -4.3920   14.7180  -32.2700 C   0  0  0  0  0  0  0  0  0  0  0  0
   -5.0180   16.0090  -32.6900 N   0  0  1  0  0  0  0  0  0  0  0  0
   -5.9430   15.8300  -33.8430 C   0  0  0  0  0  0  0  0  0  0  0  0
   -6.4900   17.2020  -34.3190 C   0  0  0  0  0  0  0  0  0  0  0  0
   -5.9890   18.2980  -33.4420 N   0  0  1  0  0  0  0  0  0  0  0  0
   -6.4820   19.6350  -33.8990 C   0  0  0  0  0  0  0  0  0  0  0  0
   -7.5960   20.2900  -33.0380 C   0  0  0  0  0  0  0  0  0  0  0  0
   -7.1060   21.4550  -32.2230 C   0  0  0  0  0  0  0  0  0  0  0  0
   -5.7680   21.7780  -31.9820 C   0  0  0  0  0  0  0  0  0  0  0  0
   -5.6300   22.9560  -31.2430 C   0  0  0  0  0  0  0  0  0  0  0  0
   -4.4260   23.5380  -30.8350 C   0  0  0  0  0  0  0  0  0  0  0  0
   -4.4670   24.7340  -30.0980 C   0  0  0  0  0  0  0  0  0  0  0  0
   -5.7010   25.3350  -29.7810 C   0  0  0  0  0  0  0  0  0  0  0  0
   -6.9040   24.7440  -30.1980 C   0  0  0  0  0  0  0  0  0  0  0  0
   -6.8380   23.5580  -30.9250 C   0  0  0  0  0  0  0  0  0  0  0  0
   -8.1010   22.6500  -31.5520 S   0  0  0  0  0  0  0  0  0  0  0  0
   -6.3670   18.0060  -32.0320 C   0  0  0  0  0  0  0  0  0  0  0  0
   -5.7560   16.6560  -31.5700 C   0  0  0  0  0  0  0  0  0  0  0  0
   -4.5010   18.3030  -33.5270 C   0  0  0  0  0  0  0  0  0  0  0  0
   -3.9260   16.9300  -33.1120 C   0  0  0  0  0  0  0  0  0  0  0  0
   -5.3222   12.7652  -32.1024 H   0  0  0  0  0  0  0  0  0  0  0  0
   -5.8596   13.7255  -33.5221 H   0  0  0  0  0  0  0  0  0  0  0  0
   -4.2379   12.9530  -33.5221 H   0  0  0  0  0  0  0  0  0  0  0  0
   -4.4906   14.6337  -31.1777 H   0  0  0  0  0  0  0  0  0  0  0  0
   -3.3503   14.7608  -32.6208 H   0  0  0  0  0  0  0  0  0  0  0  0
   -5.4009   15.3495  -34.6708 H   0  0  0  0  0  0  0  0  0  0  0  0
   -6.7878   15.2004  -33.5269 H   0  0  0  0  0  0  0  0  0  0  0  0
   -6.1585   17.3850  -35.3518 H   0  0  0  0  0  0  0  0  0  0  0  0
   -7.5888   17.1825  -34.2705 H   0  0  0  0  0  0  0  0  0  0  0  0
   -5.6228   20.3217  -33.9137 H   0  0  0  0  0  0  0  0  0  0  0  0
   -6.9393   19.4575  -34.8836 H   0  0  0  0  0  0  0  0  0  0  0  0
   -8.3939   20.6428  -33.7080 H   0  0  0  0  0  0  0  0  0  0  0  0
   -7.9564   19.5262  -32.3332 H   0  0  0  0  0  0  0  0  0  0  0  0
   -4.9193   21.1733  -32.3342 H   0  0  0  0  0  0  0  0  0  0  0  0
   -3.4637   23.0681  -31.0864 H   0  0  0  0  0  0  0  0  0  0  0  0
   -3.5293   25.2039  -29.7665 H   0  0  0  0  0  0  0  0  0  0  0  0
   -5.7219   26.2714  -29.2042 H   0  0  0  0  0  0  0  0  0  0  0  0
   -7.8730   25.2054  -29.9570 H   0  0  0  0  0  0  0  0  0  0  0  0
   -5.9938   18.8123  -31.3835 H   0  0  0  0  0  0  0  0  0  0  0  0
   -7.4630   17.9400  -31.9655 H   0  0  0  0  0  0  0  0  0  0  0  0
   -5.0619   16.8388  -30.7365 H   0  0  0  0  0  0  0  0  0  0  0  0
   -6.5687   15.9891  -31.2462 H   0  0  0  0  0  0  0  0  0  0  0  0
   -4.1991   18.5232  -34.5616 H   0  0  0  0  0  0  0  0  0  0  0  0
   -4.1101   19.0714  -32.8438 H   0  0  0  0  0  0  0  0  0  0  0  0
   -3.3914   16.4890  -33.9662 H   0  0  0  0  0  0  0  0  0  0  0  0
   -3.2383   17.0751  -32.2658 H   0  0  0  0  0  0  0  0  0  0  0  0
  1  2  1  0
  3  2  1  1
  3  4  1  0
  4  5  1  0
  5  6  1  0
  6  7  1  6
  7  8  1  0
  8  9  1  0
  9 10  2  0
 10 11  1  0
 11 12  2  0
 12 13  1  0
 13 14  2  0
 14 15  1  0
 15 16  2  0
 16 17  1  0
  6 18  1  0
 18 19  1  0
  6 20  1  0
 20 21  1  0
 19  3  1  0
 21  3  1  0
 17  9  1  0
 16 11  1  0
  1 22  1  0
  1 23  1  0
  1 24  1  0
  2 25  1  0
  2 26  1  0
  4 27  1  0
  4 28  1  0
  5 29  1  0
  5 30  1  0
  7 31  1  0
  7 32  1  0
  8 33  1  0
  8 34  1  0
 10 35  1  0
 12 36  1  0
 13 37  1  0
 14 38  1  0
 15 39  1  0
 18 40  1  0
 18 41  1  0
 19 42  1  0
 19 43  1  0
 20 44  1  0
 20 45  1  0
 21 46  1  0
 21 47  1  0
M  CHG  2   3   1   6   1
M  END
>  <UniqueID>  (24) 
24

>  <SMILES>  (24) 
CC[N+]12CC[N+](CCc3cc4ccccc4s3)(CC1)CC2

>  <Energy>  (24) 
108.21793696470357

>  <Genealogy>  (24) 
CC[N+]12CC[N+](CCc3cc4ccccc4s3)(CC1)CC2 (3D coordinates assigned)
CC[N+]12CC[N+](CCc3cc4ccccc4s3)(CC1)CC2 (nonaromatic ring conformer: 108.21793696470357 kcal/mol)

>  <smiles>  (24) 
CC[N+]12CC[N+](CCc3cc4ccccc4s3)(CC1)CC2

>  <score_type>  (24) 
oracle

>  <origin>  (24) 
adg

>  <m_score__min__energy>  (24) 
-6.4299999999999997

>  <m_primary>  (24) 
energy

$$$$
24:0
     RDKit          3D

 46 48  0  0  0  0  0  0  0  0999 V2000
   -8.9870   22.1670  -31.8470 C   0  0  0  0  0  0  0  0  0  0  0  0
   -9.3580   20.7350  -32.1970 C   0  0  0  0  0  0  0  0  0  0  0  0
   -8.2230   19.9050  -32.0280 O   0  0  0  0  0  0  0  0  0  0  0  0
   -8.1500   18.9990  -33.0580 N   0  0  0  0  0  0  0  0  0  0  0  0
   -7.4240   17.8110  -32.5880 C   0  0  0  0  0  0  0  0  0  0  0  0
   -6.8620   16.9740  -33.7550 C   0  0  0  0  0  0  0  0  0  0  0  0
   -5.8580   17.7260  -34.6460 C   0  0  0  0  0  0  0  0  0  0  0  0
   -4.8990   18.6540  -33.8830 C   0  0  0  0  0  0  0  0  0  0  0  0
   -5.5810   19.8110  -33.3900 O   0  0  0  0  0  0  0  0  0  0  0  0
   -5.0280   20.8500  -32.6210 C   0  0  0  0  0  0  0  0  0  0  0  0
   -5.6370   22.1070  -32.6920 C   0  0  0  0  0  0  0  0  0  0  0  0
   -5.1360   23.1890  -31.9610 C   0  0  0  0  0  0  0  0  0  0  0  0
   -4.0100   23.0240  -31.1370 C   0  0  0  0  0  0  0  0  0  0  0  0
   -3.4700   24.0840  -30.3880 C   0  0  0  0  0  0  0  0  0  0  0  0
   -3.9900   25.2320  -30.4390 O   0  0  0  0  0  0  0  0  0  0  0  0
   -2.3430   23.8490  -29.5810 C   0  0  0  0  0  0  0  0  0  0  0  0
   -1.7510   24.8630  -28.8060 C   0  0  0  0  0  0  0  0  0  0  0  0
   -0.6300   24.5820  -28.0190 C   0  0  0  0  0  0  0  0  0  0  0  0
   -0.0920   23.2930  -27.9970 C   0  0  0  0  0  0  0  0  0  0  0  0
   -0.6710   22.2770  -28.7610 C   0  0  0  0  0  0  0  0  0  0  0  0
   -1.7930   22.5450  -29.5530 C   0  0  0  0  0  0  0  0  0  0  0  0
   -2.3340   21.5700  -30.2760 O   0  0  0  0  0  0  0  0  0  0  0  0
   -3.3980   21.7540  -31.0510 C   0  0  0  0  0  0  0  0  0  0  0  0
   -3.9080   20.6760  -31.7840 C   0  0  0  0  0  0  0  0  0  0  0  0
   -8.9574   22.2813  -30.7534 H   0  0  0  0  0  0  0  0  0  0  0  0
   -7.9981   22.4027  -32.2672 H   0  0  0  0  0  0  0  0  0  0  0  0
   -9.7370   22.8532  -32.2672 H   0  0  0  0  0  0  0  0  0  0  0  0
  -10.1664   20.3920  -31.5346 H   0  0  0  0  0  0  0  0  0  0  0  0
   -9.6989   20.6865  -33.2417 H   0  0  0  0  0  0  0  0  0  0  0  0
   -9.0810   18.7390  -33.4680 H   0  0  0  0  0  0  0  0  0  0  0  0
   -7.5920   19.4600  -33.8120 H   0  0  0  0  0  0  0  0  0  0  0  0
   -6.5888   18.1354  -31.9499 H   0  0  0  0  0  0  0  0  0  0  0  0
   -8.1319   17.1807  -32.0298 H   0  0  0  0  0  0  0  0  0  0  0  0
   -6.3566   16.0920  -33.3346 H   0  0  0  0  0  0  0  0  0  0  0  0
   -7.7170   16.7113  -34.3953 H   0  0  0  0  0  0  0  0  0  0  0  0
   -5.2567   16.9823  -35.1894 H   0  0  0  0  0  0  0  0  0  0  0  0
   -6.4516   18.3691  -35.3123 H   0  0  0  0  0  0  0  0  0  0  0  0
   -4.4666   18.1037  -33.0344 H   0  0  0  0  0  0  0  0  0  0  0  0
   -4.1096   18.9835  -34.5745 H   0  0  0  0  0  0  0  0  0  0  0  0
   -6.5214   22.2465  -33.3310 H   0  0  0  0  0  0  0  0  0  0  0  0
   -5.6249   24.1719  -32.0314 H   0  0  0  0  0  0  0  0  0  0  0  0
   -2.1711   25.8795  -28.8192 H   0  0  0  0  0  0  0  0  0  0  0  0
   -0.1703   25.3784  -27.4153 H   0  0  0  0  0  0  0  0  0  0  0  0
    0.7902   23.0775  -27.3762 H   0  0  0  0  0  0  0  0  0  0  0  0
   -0.2438   21.2636  -28.7400 H   0  0  0  0  0  0  0  0  0  0  0  0
   -3.4317   19.6875  -31.7061 H   0  0  0  0  0  0  0  0  0  0  0  0
  1  2  1  0
  2  3  1  0
  3  4  1  0
  4  5  1  0
  5  6  1  0
  6  7  1  0
  7  8  1  0
  8  9  1  0
  9 10  1  0
 10 11  2  0
 11 12  1  0
 12 13  2  0
 13 14  1  0
 14 15  2  0
 14 16  1  0
 16 17  2  0
 17 18  1  0
 18 19  2  0
 19 20  1  0
 20 21  2  0
 21 22  1  0
 22 23  1  0
 23 24  2  0
 24 10  1  0
 23 13  1  0
 21 16  1  0
  1 25  1  0
  1 26  1  0
  1 27  1  0
  2 28  1  0
  2 29  1  0
  4 30  1  0
  4 31  1  0
  5 32  1  0
  5 33  1  0
  6 34  1  0
  6 35  1  0
  7 36  1  0
  7 37  1  0
  8 38  1  0
  8 39  1  0
 11 40  1  0
 12 41  1  0
 17 42  1  0
 18 43  1  0
 19 44  1  0
 20 45  1  0
 24 46  1  0
M  CHG  1   4   1
M  END
>  <UniqueID>  (25) 
25

>  <SMILES>  (25) 
CCO[NH2+]CCCCOc1ccc2c(=O)c3ccccc3oc2c1

>  <Energy>  (25) 
56.663034416560215

>  <Genealogy>  (25) 
CCO[NH2+]CCCCOc1ccc2c(=O)c3ccccc3oc2c1 (protonated)
CCO[NH2+]CCCCOc1ccc2c(=O)c3ccccc3oc2c1 (3D coordinates assigned)
CCO[NH2+]CCCCOc1ccc2c(=O)c3ccccc3oc2c1 (optimized conformer: 56.663034416560215 kcal/mol)

>  <smiles>  (25) 
CCONCCCCOc1ccc2c(=O)c3ccccc3oc2c1

>  <score_type>  (25) 
oracle

>  <origin>  (25) 
adg

>  <m_score__min__energy>  (25) 
-8.7100000000000009

>  <m_primary>  (25) 
energy

$$$$
25:0
     RDKit          3D

 39 41  0  0  0  0  0  0  0  0999 V2000
   -0.9550   21.6700  -29.3810 C   0  0  0  0  0  0  0  0  0  0  0  0
   -1.9910   22.3580  -30.1490 N   0  0  0  0  0  0  0  0  0  0  0  0
   -2.7160   21.8890  -31.1840 C   0  0  0  0  0  0  0  0  0  0  0  0
   -2.5660   20.2460  -31.8970 S   0  0  0  0  0  0  0  0  0  0  0  0
   -3.4580   20.6580  -33.4370 C   0  0  0  0  0  0  0  0  0  0  0  0
   -4.9290   20.4230  -33.2830 C   0  0  0  0  0  0  0  0  0  0  0  0
   -5.5600   19.8210  -34.1940 O   0  0  0  0  0  0  0  0  0  0  0  0
   -5.6130   20.8910  -32.1090 N   0  0  0  0  0  0  0  0  0  0  0  0
   -7.0450   20.9910  -32.0060 C   0  0  0  0  0  0  0  0  0  0  0  0
   -7.8510   19.9000  -32.3790 C   0  0  0  0  0  0  0  0  0  0  0  0
   -9.2420   19.9960  -32.3410 C   0  0  0  0  0  0  0  0  0  0  0  0
   -9.8490   21.1860  -31.9450 C   0  0  0  0  0  0  0  0  0  0  0  0
   -9.0670   22.2850  -31.5860 C   0  0  0  0  0  0  0  0  0  0  0  0
   -7.6600   22.2050  -31.5990 C   0  0  0  0  0  0  0  0  0  0  0  0
   -6.8310   23.4130  -31.2170 C   0  0  0  0  0  0  0  0  0  0  0  0
   -7.6700   24.4460  -30.8410 F   0  0  0  0  0  0  0  0  0  0  0  0
   -5.9790   23.1340  -30.1610 F   0  0  0  0  0  0  0  0  0  0  0  0
   -6.0570   23.8190  -32.2900 F   0  0  0  0  0  0  0  0  0  0  0  0
   -3.6180   22.7940  -31.6060 N   0  0  0  0  0  0  0  0  0  0  0  0
   -3.4890   23.8590  -30.8300 N   0  0  0  0  0  0  0  0  0  0  0  0
   -2.5090   23.5890  -29.9450 C   0  0  0  0  0  0  0  0  0  0  0  0
   -2.1030   24.5220  -28.8810 C   0  0  0  0  0  0  0  0  0  0  0  0
   -2.3670   24.3660  -27.5350 C   0  0  0  0  0  0  0  0  0  0  0  0
   -1.8030   25.4610  -26.9150 C   0  0  0  0  0  0  0  0  0  0  0  0
   -1.2310   26.2160  -27.9190 C   0  0  0  0  0  0  0  0  0  0  0  0
   -1.4260   25.6310  -29.0790 O   0  0  0  0  0  0  0  0  0  0  0  0
   -1.1491   21.7989  -28.3059 H   0  0  0  0  0  0  0  0  0  0  0  0
   -0.9650   20.5985  -29.6295 H   0  0  0  0  0  0  0  0  0  0  0  0
    0.0287   22.0949  -29.6295 H   0  0  0  0  0  0  0  0  0  0  0  0
   -3.2862   21.7169  -33.6802 H   0  0  0  0  0  0  0  0  0  0  0  0
   -3.0819   20.0120  -34.2440 H   0  0  0  0  0  0  0  0  0  0  0  0
   -5.0310   21.1880  -31.2940 H   0  0  0  0  0  0  0  0  0  0  0  0
   -7.3791   18.9610  -32.7041 H   0  0  0  0  0  0  0  0  0  0  0  0
   -9.8604   19.1314  -32.6239 H   0  0  0  0  0  0  0  0  0  0  0  0
  -10.9461   21.2595  -31.9152 H   0  0  0  0  0  0  0  0  0  0  0  0
   -9.5549   23.2252  -31.2893 H   0  0  0  0  0  0  0  0  0  0  0  0
   -2.9136   23.5400  -27.0565 H   0  0  0  0  0  0  0  0  0  0  0  0
   -1.8079   25.6870  -25.8385 H   0  0  0  0  0  0  0  0  0  0  0  0
   -0.6933   27.1640  -27.7703 H   0  0  0  0  0  0  0  0  0  0  0  0
  1  2  1  0
  2  3  1  0
  3  4  1  0
  4  5  1  0
  5  6  1  0
  6  7  2  0
  6  8  1  0
  8  9  1  0
  9 10  2  0
 10 11  1  0
 11 12  2  0
 12 13  1  0
 13 14  2  0
 14 15  1  0
 15 16  1  0
 15 17  1  0
 15 18  1  0
  3 19  2  0
 19 20  1  0
 20 21  2  0
 21 22  1  0
 22 23  2  0
 23 24  1  0
 24 25  2  0
 25 26  1  0
 21  2  1  0
 26 22  1  0
 14  9  1  0
  1 27  1  0
  1 28  1  0
  1 29  1  0
  5 30  1  0
  5 31  1  0
  8 32  1  0
 10 33  1  0
 11 34  1  0
 12 35  1  0
 13 36  1  0
 23 37  1  0
 24 38  1  0
 25 39  1  0
M  END
>  <UniqueID>  (26) 
26

>  <SMILES>  (26) 
Cn1c(SCC(=O)Nc2ccccc2C(F)(F)F)nnc1-c1ccco1

>  <Energy>  (26) 
101.33369470307491

>  <Genealogy>  (26) 
Cn1c(SCC(=O)Nc2ccccc2C(F)(F)F)nnc1-c1ccco1 (3D coordinates assigned)
Cn1c(SCC(=O)Nc2ccccc2C(F)(F)F)nnc1-c1ccco1 (optimized conformer: 101.33369470307491 kcal/mol)

>  <smiles>  (26) 
Cn1c(SCC(=O)Nc2ccccc2C(F)(F)F)nnc1-c1ccco1

>  <score_type>  (26) 
oracle

>  <origin>  (26) 
adg

>  <m_score__min__energy>  (26) 
-8.25

>  <m_primary>  (26) 
energy

$$$$
