0:0
     RDKit          3D

 43 47  0  0  0  0  0  0  0  0999 V2000
   -6.0310   16.6380  -32.8680 C   0  0  0  0  0  0  0  0  0  0  0  0
   -6.3900   17.9580  -32.3690 N   0  0  0  0  0  0  0  0  0  0  0  0
   -5.6250   19.0610  -32.4000 C   0  0  0  0  0  0  0  0  0  0  0  0
   -6.4090   20.0810  -31.8970 C   0  0  0  0  0  0  0  0  0  0  0  0
   -6.0460   21.4990  -31.7140 C   0  0  0  0  0  0  0  0  0  0  0  0
   -4.8820   21.8780  -31.0040 C   0  0  0  0  0  0  0  0  0  0  0  0
   -4.6240   23.2450  -30.8850 C   0  0  0  0  0  0  0  0  0  0  0  0
   -3.6190   23.9830  -30.2840 C   0  0  0  0  0  0  0  0  0  0  0  0
   -2.4390   23.4900  -29.5410 C   0  0  0  0  0  0  0  0  0  0  0  0
   -2.4130   22.1860  -29.0250 C   0  0  0  0  0  0  0  0  0  0  0  0
   -1.2740   21.7530  -28.3240 C   0  0  0  0  0  0  0  0  0  0  0  0
   -1.1890   20.4200  -27.7690 N   0  0  0  0  0  0  0  0  0  0  0  0
   -0.0180   19.5690  -28.0200 C   0  0  0  0  0  0  0  0  0  0  0  0
   -0.4030   18.0900  -27.9120 C   0  0  0  0  0  0  0  0  0  0  0  0
   -1.0820   17.8330  -26.6990 O   0  0  0  0  0  0  0  0  0  0  0  0
   -2.3210   18.5140  -26.6970 C   0  0  0  0  0  0  0  0  0  0  0  0
   -2.1070   20.0300  -26.6910 C   0  0  0  0  0  0  0  0  0  0  0  0
   -0.2280   22.6100  -28.1740 N   0  0  0  0  0  0  0  0  0  0  0  0
   -0.2660   23.8690  -28.6790 C   0  0  0  0  0  0  0  0  0  0  0  0
   -1.3620   24.2990  -29.3520 N   0  0  0  0  0  0  0  0  0  0  0  0
   -3.8840   25.2980  -30.4880 N   0  0  0  0  0  0  0  0  0  0  0  0
   -5.0080   25.4180  -31.1880 N   0  0  0  0  0  0  0  0  0  0  0  0
   -5.4570   24.1750  -31.4290 C   0  0  0  0  0  0  0  0  0  0  0  0
   -6.5970   23.8000  -32.1230 C   0  0  0  0  0  0  0  0  0  0  0  0
   -6.8630   22.4660  -32.2480 N   0  0  0  0  0  0  0  0  0  0  0  0
   -7.6200   19.5700  -31.5910 N   0  0  0  0  0  0  0  0  0  0  0  0
   -7.5820   18.2810  -31.8950 N   0  0  0  0  0  0  0  0  0  0  0  0
   -5.8473   15.9627  -32.0194 H   0  0  0  0  0  0  0  0  0  0  0  0
   -6.8539   16.2414  -33.4808 H   0  0  0  0  0  0  0  0  0  0  0  0
   -5.1206   16.7128  -33.4808 H   0  0  0  0  0  0  0  0  0  0  0  0
   -4.5862   19.1369  -32.7537 H   0  0  0  0  0  0  0  0  0  0  0  0
   -4.2089   21.1273  -30.5644 H   0  0  0  0  0  0  0  0  0  0  0  0
   -3.2709   21.5123  -29.1667 H   0  0  0  0  0  0  0  0  0  0  0  0
    0.3675   19.7708  -29.0303 H   0  0  0  0  0  0  0  0  0  0  0  0
    0.7549   19.7934  -27.2701 H   0  0  0  0  0  0  0  0  0  0  0  0
   -1.0588   17.8260  -28.7548 H   0  0  0  0  0  0  0  0  0  0  0  0
    0.5154   17.4850  -27.9358 H   0  0  0  0  0  0  0  0  0  0  0  0
   -2.8885   18.2333  -27.5965 H   0  0  0  0  0  0  0  0  0  0  0  0
   -2.8771   18.2324  -25.7907 H   0  0  0  0  0  0  0  0  0  0  0  0
   -3.0739   20.5334  -26.8380 H   0  0  0  0  0  0  0  0  0  0  0  0
   -1.6708   20.3257  -25.7254 H   0  0  0  0  0  0  0  0  0  0  0  0
    0.5935   24.5417  -28.5422 H   0  0  0  0  0  0  0  0  0  0  0  0
   -7.2676   24.5545  -32.5601 H   0  0  0  0  0  0  0  0  0  0  0  0
  1  2  1  0
  2  3  1  0
  3  4  2  0
  4  5  1  0
  5  6  2  0
  6  7  1  0
  7  8  2  0
  8  9  1  0
  9 10  2  0
 10 11  1  0
 11 12  1  0
 12 13  1  0
 13 14  1  0
 14 15  1  0
 15 16  1  0
 16 17  1  0
 11 18  2  0
 18 19  1  0
 19 20  2  0
  8 21  1  0
 21 22  1  0
 22 23  2  0
 23 24  1  0
 24 25  2  0
  4 26  1  0
 26 27  2  0
 27  2  1  0
 25  5  1  0
 23  7  1  0
 20  9  1  0
 17 12  1  0
  1 28  1  0
  1 29  1  0
  1 30  1  0
  3 31  1  0
  6 32  1  0
 10 33  1  0
 13 34  1  0
 13 35  1  0
 14 36  1  0
 14 37  1  0
 16 38  1  0
 16 39  1  0
 17 40  1  0
 17 41  1  0
 19 42  1  0
 24 43  1  0
M  CHG  1  21  -1
M  END
>  <UniqueID>  (1) 
1

>  <SMILES>  (1) 
Cn1cc(-c2cc3c(-c4cc(N5CCOCC5)ncn4)[n-]nc3cn2)nn1

>  <Energy>  (1) 
128.7268420474692

>  <Genealogy>  (1) 
Cn1cc(-c2cc3c(-c4cc(N5CCOCC5)ncn4)[n-]nc3cn2)nn1 (protonated)
Cn1cc(-c2cc3c(-c4cc(N5CCOCC5)ncn4)[n-]nc3cn2)nn1 (3D coordinates assigned)
Cn1cc(-c2cc3c(-c4cc(N5CCOCC5)ncn4)[n-]nc3cn2)nn1 (nonaromatic ring conformer: 128.7268420474692 kcal/mol)

>  <smiles>  (1) 
Cn1cc(-c2cc3c(-c4cc(N5CCOCC5)ncn4)[nH]nc3cn2)nn1

>  <score_type>  (1) 
oracle

>  <origin>  (1) 
adg

>  <m_score__min__energy>  (1) 
-10.630000000000001

>  <m_primary>  (1) 
energy

$$$$
1:0
     RDKit          3D

 36 39  0  0  0  0  0  0  0  0999 V2000
   -6.0150   26.6503  -30.9818 H   0  0  0  0  0  0  0  0  0  0  0  0
   -5.6320   25.6210  -30.9200 C   0  0  0  0  0  0  0  0  0  0  0  0
   -4.3730   25.3920  -30.4660 N   0  0  0  0  0  0  0  0  0  0  0  0
   -3.8770   24.1300  -30.3850 C   0  0  0  0  0  0  0  0  0  0  0  0
   -2.6760   23.9490  -29.9170 N   0  0  0  0  0  0  0  0  0  0  0  0
   -2.1510   24.4490  -28.6750 C   0  0  0  0  0  0  0  0  0  0  0  0
   -2.9780   24.4450  -27.5460 C   0  0  0  0  0  0  0  0  0  0  0  0
   -4.0003   24.0457  -27.6202 H   0  0  0  0  0  0  0  0  0  0  0  0
   -2.5160   24.9440  -26.3250 C   0  0  0  0  0  0  0  0  0  0  0  0
   -3.1708   24.9191  -25.4415 H   0  0  0  0  0  0  0  0  0  0  0  0
   -1.2210   25.4770  -26.2190 C   0  0  0  0  0  0  0  0  0  0  0  0
   -0.7300   26.0050  -24.9280 C   0  0  0  0  0  0  0  0  0  0  0  0
   -1.4460   26.8030  -24.1090 N   0  0  0  0  0  0  0  0  0  0  0  0
   -0.6480   27.0390  -23.0800 N   0  0  0  0  0  0  0  0  0  0  0  0
    0.4990   26.4100  -23.2690 N   0  0  0  0  0  0  0  0  0  0  0  0
    1.3030   26.4310  -22.6050 H   0  0  0  0  0  0  0  0  0  0  0  0
    0.4890   25.7510  -24.4140 N   0  0  0  0  0  0  0  0  0  0  0  0
   -0.4020   25.5130  -27.3600 C   0  0  0  0  0  0  0  0  0  0  0  0
    0.6104   25.9379  -27.2931 H   0  0  0  0  0  0  0  0  0  0  0  0
   -0.8660   25.0120  -28.5800 C   0  0  0  0  0  0  0  0  0  0  0  0
   -0.2221   25.0585  -29.4707 H   0  0  0  0  0  0  0  0  0  0  0  0
   -4.6590   23.0770  -30.7510 N   0  0  0  0  0  0  0  0  0  0  0  0
   -5.9240   23.2500  -31.2230 C   0  0  0  0  0  0  0  0  0  0  0  0
   -6.7220   22.0580  -31.6110 C   0  0  0  0  0  0  0  0  0  0  0  0
   -6.1480   21.0700  -32.4340 C   0  0  0  0  0  0  0  0  0  0  0  0
   -5.1092   21.1827  -32.7777 H   0  0  0  0  0  0  0  0  0  0  0  0
   -6.8870   19.9470  -32.8180 C   0  0  0  0  0  0  0  0  0  0  0  0
   -6.4262   19.1790  -33.4566 H   0  0  0  0  0  0  0  0  0  0  0  0
   -8.2080   19.7980  -32.3930 C   0  0  0  0  0  0  0  0  0  0  0  0
   -8.9230   18.7080  -32.7680 F   0  0  0  0  0  0  0  0  0  0  0  0
   -8.7950   20.7750  -31.5870 C   0  0  0  0  0  0  0  0  0  0  0  0
   -9.8376   20.6592  -31.2560 H   0  0  0  0  0  0  0  0  0  0  0  0
   -8.0610   21.9010  -31.1990 C   0  0  0  0  0  0  0  0  0  0  0  0
   -8.5320   22.6692  -30.5681 H   0  0  0  0  0  0  0  0  0  0  0  0
   -6.4400   24.5530  -31.3080 C   0  0  0  0  0  0  0  0  0  0  0  0
   -7.4625   24.7280  -31.6738 H   0  0  0  0  0  0  0  0  0  0  0  0
  1  2  1  0
  2  3  1  0
  3  4  1  0
  4  5  2  0
  5  6  1  0
  6  7  2  0
  7  8  1  0
  7  9  1  0
  9 10  1  0
  9 11  2  0
 11 12  1  0
 12 13  2  0
 13 14  1  0
 14 15  1  0
 15 16  1  0
 15 17  2  0
 11 18  1  0
 18 19  1  0
 18 20  2  0
 20 21  1  0
  4 22  1  0
 22 23  2  0
 23 24  1  0
 24 25  2  0
 25 26  1  0
 25 27  1  0
 27 28  1  0
 27 29  2  0
 29 30  1  0
 29 31  1  0
 31 32  1  0
 31 33  2  0
 33 34  1  0
 23 35  1  0
 35 36  1  0
 35  2  2  0
 20  6  1  0
 33 24  1  0
 17 12  1  0
M  CHG  3   3  -1  14  -1  15   1
M  END
>  <UniqueID>  (2) 
2

>  <SMILES>  (2) 
Fc1ccc(-c2cc[n-]/c(=N/c3ccc(-c4n[n-][nH+]n4)cc3)n2)cc1

>  <Energy>  (2) 
90.42104098005949

>  <Genealogy>  (2) 
Fc1ccc(-c2cc[n-]c(=Nc3ccc(-c4n[n-][nH+]n4)cc3)n2)cc1 (protonated)
Fc1ccc(-c2cc[n-]/c(=N/c3ccc(-c4n[n-][nH+]n4)cc3)n2)cc1 (cis-trans isomerization)
Fc1ccc(-c2cc[n-]/c(=N/c3ccc(-c4n[n-][nH+]n4)cc3)n2)cc1 (3D coordinates assigned)
Fc1ccc(-c2cc[n-]/c(=N/c3ccc(-c4n[n-][nH+]n4)cc3)n2)cc1 (optimized conformer: 90.42104098005949 kcal/mol)

>  <smiles>  (2) 
Fc1ccc(-c2cc[nH]c(=Nc3ccc(-c4nn[nH]n4)cc3)n2)cc1

>  <score_type>  (2) 
oracle

>  <origin>  (2) 
adg

>  <m_score__min__energy>  (2) 
-10.390000000000001

>  <m_primary>  (2) 
energy

$$$$
2:0
     RDKit          3D

 39 41  0  0  0  0  0  0  0  0999 V2000
   -3.8920   24.1570  -27.4410 C   0  0  0  0  0  0  0  0  0  0  0  0
   -3.6290   23.5360  -28.6930 O   0  0  0  0  0  0  0  0  0  0  0  0
   -4.1120   24.0400  -29.9040 C   0  0  0  0  0  0  0  0  0  0  0  0
   -3.4930   24.9770  -30.4800 O   0  0  0  0  0  0  0  0  0  0  0  0
   -5.3770   23.5230  -30.5040 C   0  0  0  0  0  0  0  0  0  0  0  0
   -6.5640   24.1700  -30.3850 C   0  0  0  0  0  0  0  0  0  0  0  0
   -6.7280   25.4620  -29.6380 C   0  0  0  0  0  0  0  0  0  0  0  0
   -7.7240   23.6290  -30.9470 O   0  0  0  0  0  0  0  0  0  0  0  0
   -7.7870   22.3310  -31.4510 C   0  0  0  0  0  0  0  0  0  0  0  0
   -9.0340   21.7950  -31.7790 C   0  0  0  0  0  0  0  0  0  0  0  0
   -9.1400   20.4830  -32.2300 C   0  0  0  0  0  0  0  0  0  0  0  0
   -7.9970   19.6930  -32.3630 C   0  0  0  0  0  0  0  0  0  0  0  0
   -8.1200   18.4110  -32.8010 N   0  0  0  0  0  0  0  0  0  0  0  0
   -7.0440   17.5940  -32.9590 C   0  0  0  0  0  0  0  0  0  0  0  0
   -7.2030   16.2810  -33.4110 O   0  0  0  0  0  0  0  0  0  0  0  0
   -6.1230   15.5070  -33.9230 C   0  0  0  0  0  0  0  0  0  0  0  0
   -5.7660   18.0690  -32.6700 C   0  0  0  0  0  0  0  0  0  0  0  0
   -5.6010   19.3800  -32.2190 C   0  0  0  0  0  0  0  0  0  0  0  0
   -6.7180   20.2250  -32.0540 C   0  0  0  0  0  0  0  0  0  0  0  0
   -6.6140   21.5710  -31.5970 C   0  0  0  0  0  0  0  0  0  0  0  0
   -5.2780   22.2610  -31.3590 C   0  0  1  0  0  0  0  0  0  0  0  0
   -4.6410   22.6260  -32.7080 C   0  0  0  0  0  0  0  0  0  0  0  0
   -3.6037   23.4764  -26.6264 H   0  0  0  0  0  0  0  0  0  0  0  0
   -3.3108   25.0878  -27.3641 H   0  0  0  0  0  0  0  0  0  0  0  0
   -4.9649   24.3872  -27.3641 H   0  0  0  0  0  0  0  0  0  0  0  0
   -6.7031   25.2656  -28.5560 H   0  0  0  0  0  0  0  0  0  0  0  0
   -5.9095   26.1466  -29.9054 H   0  0  0  0  0  0  0  0  0  0  0  0
   -7.6915   25.9204  -29.9054 H   0  0  0  0  0  0  0  0  0  0  0  0
   -9.9381   22.4138  -31.6802 H   0  0  0  0  0  0  0  0  0  0  0  0
  -10.1267   20.0674  -32.4823 H   0  0  0  0  0  0  0  0  0  0  0  0
   -5.5418   15.0905  -33.0871 H   0  0  0  0  0  0  0  0  0  0  0  0
   -6.5196   14.6863  -34.5387 H   0  0  0  0  0  0  0  0  0  0  0  0
   -5.4733   16.1463  -34.5387 H   0  0  0  0  0  0  0  0  0  0  0  0
   -4.8914   17.4140  -32.7966 H   0  0  0  0  0  0  0  0  0  0  0  0
   -4.5929   19.7564  -31.9908 H   0  0  0  0  0  0  0  0  0  0  0  0
   -4.6582   21.5437  -30.8010 H   0  0  0  0  0  0  0  0  0  0  0  0
   -3.6986   23.1660  -32.5343 H   0  0  0  0  0  0  0  0  0  0  0  0
   -4.4376   21.7074  -33.2779 H   0  0  0  0  0  0  0  0  0  0  0  0
   -5.3306   23.2660  -33.2779 H   0  0  0  0  0  0  0  0  0  0  0  0
  1  2  1  0
  2  3  1  0
  3  4  2  0
  3  5  1  0
  5  6  2  0
  6  7  1  0
  6  8  1  0
  8  9  1  0
  9 10  2  0
 10 11  1  0
 11 12  2  0
 12 13  1  0
 13 14  2  0
 14 15  1  0
 15 16  1  0
 14 17  1  0
 17 18  2  0
 18 19  1  0
 19 20  2  0
 20 21  1  0
 21 22  1  0
 21  5  1  0
 20  9  1  0
 19 12  1  0
  1 23  1  0
  1 24  1  0
  1 25  1  0
  7 26  1  0
  7 27  1  0
  7 28  1  0
 10 29  1  0
 11 30  1  0
 16 31  1  0
 16 32  1  0
 16 33  1  0
 17 34  1  0
 18 35  1  0
 21 36  1  1
 22 37  1  0
 22 38  1  0
 22 39  1  0
M  END
>  <UniqueID>  (3) 
3

>  <SMILES>  (3) 
COC(=O)C1=C(C)Oc2ccc3nc(OC)ccc3c2[C@H]1C

>  <Energy>  (3) 
47.66232758572412

>  <Genealogy>  (3) 
COC(=O)C1=C(C)Oc2ccc3nc(OC)ccc3c2[C@H]1C (chirality)
COC(=O)C1=C(C)Oc2ccc3nc(OC)ccc3c2[C@H]1C (3D coordinates assigned)
COC(=O)C1=C(C)Oc2ccc3nc(OC)ccc3c2[C@H]1C (nonaromatic ring conformer: 47.66232758572412 kcal/mol)

>  <smiles>  (3) 
COC(=O)C1=C(C)Oc2ccc3nc(OC)ccc3c2C1C

>  <score_type>  (3) 
oracle

>  <origin>  (3) 
adg

>  <m_score__min__energy>  (3) 
-8.3800000000000008

>  <m_primary>  (3) 
energy

$$$$
3:0
     RDKit          3D

 41 44  0  0  0  0  0  0  0  0999 V2000
    0.8800   24.6010  -28.2040 O   0  0  0  0  0  0  0  0  0  0  0  0
   -0.5460   24.8330  -27.7920 S   0  0  0  0  0  0  0  0  0  0  0  0
   -1.0690   23.5970  -27.1170 O   0  0  0  0  0  0  0  0  0  0  0  0
   -1.5000   25.1570  -29.2050 N   0  0  0  0  0  0  0  0  0  0  0  0
   -2.6450   24.4010  -29.6190 C   0  0  0  0  0  0  0  0  0  0  0  0
   -3.9180   24.9240  -29.3720 C   0  0  0  0  0  0  0  0  0  0  0  0
   -5.0620   24.2230  -29.7640 C   0  0  0  0  0  0  0  0  0  0  0  0
   -4.9530   22.9760  -30.4040 C   0  0  0  0  0  0  0  0  0  0  0  0
   -6.1760   22.2450  -30.8210 C   0  0  0  0  0  0  0  0  0  0  0  0
   -6.0490   21.0660  -31.3640 N   0  0  0  0  0  0  0  0  0  0  0  0
   -7.1460   20.2420  -31.7830 C   0  0  0  0  0  0  0  0  0  0  0  0
   -6.9580   18.8610  -31.9190 C   0  0  0  0  0  0  0  0  0  0  0  0
   -8.0430   18.0290  -32.2090 C   0  0  0  0  0  0  0  0  0  0  0  0
   -9.3220   18.5740  -32.3630 C   0  0  0  0  0  0  0  0  0  0  0  0
   -9.5120   19.9540  -32.2520 C   0  0  0  0  0  0  0  0  0  0  0  0
   -8.4240   20.7910  -31.9840 C   0  0  0  0  0  0  0  0  0  0  0  0
   -8.6420   22.5710  -31.9630 S   0  0  0  0  0  0  0  0  0  0  0  0
   -7.5510   22.8040  -30.5240 C   0  0  0  0  0  0  0  0  0  0  0  0
   -3.6720   22.4550  -30.6570 C   0  0  0  0  0  0  0  0  0  0  0  0
   -2.5290   23.1570  -30.2640 C   0  0  0  0  0  0  0  0  0  0  0  0
   -0.6590   26.1860  -26.6690 C   0  0  0  0  0  0  0  0  0  0  0  0
   -0.3960   27.4940  -27.1030 C   0  0  0  0  0  0  0  0  0  0  0  0
   -0.4950   28.5630  -26.2070 C   0  0  0  0  0  0  0  0  0  0  0  0
   -0.8530   28.3300  -24.8760 C   0  0  0  0  0  0  0  0  0  0  0  0
   -1.1130   27.0280  -24.4390 C   0  0  0  0  0  0  0  0  0  0  0  0
   -1.0140   25.9570  -25.3320 C   0  0  0  0  0  0  0  0  0  0  0  0
   -4.0200   25.8949  -28.8651 H   0  0  0  0  0  0  0  0  0  0  0  0
   -6.0566   24.6509  -29.5700 H   0  0  0  0  0  0  0  0  0  0  0  0
   -5.9534   18.4297  -31.7972 H   0  0  0  0  0  0  0  0  0  0  0  0
   -7.8910   16.9448  -32.3162 H   0  0  0  0  0  0  0  0  0  0  0  0
  -10.1785   17.9161  -32.5715 H   0  0  0  0  0  0  0  0  0  0  0  0
  -10.5177   20.3822  -32.3755 H   0  0  0  0  0  0  0  0  0  0  0  0
   -7.4672   23.8778  -30.3005 H   0  0  0  0  0  0  0  0  0  0  0  0
   -7.9767   22.2749  -29.6586 H   0  0  0  0  0  0  0  0  0  0  0  0
   -3.5683   21.4867  -31.1686 H   0  0  0  0  0  0  0  0  0  0  0  0
   -1.5329   22.7338  -30.4605 H   0  0  0  0  0  0  0  0  0  0  0  0
   -0.1116   27.6788  -28.1494 H   0  0  0  0  0  0  0  0  0  0  0  0
   -0.2910   29.5881  -26.5498 H   0  0  0  0  0  0  0  0  0  0  0  0
   -0.9302   29.1718  -24.1721 H   0  0  0  0  0  0  0  0  0  0  0  0
   -1.3957   26.8460  -23.3917 H   0  0  0  0  0  0  0  0  0  0  0  0
   -1.2150   24.9327  -24.9851 H   0  0  0  0  0  0  0  0  0  0  0  0
  1  2  2  0
  2  3  2  0
  2  4  1  0
  4  5  1  0
  5  6  2  0
  6  7  1  0
  7  8  2  0
  8  9  1  0
  9 10  2  0
 10 11  1  0
 11 12  2  0
 12 13  1  0
 13 14  2  0
 14 15  1  0
 15 16  2  0
 16 17  1  0
 17 18  1  0
  8 19  1  0
 19 20  2  0
  2 21  1  0
 21 22  2  0
 22 23  1  0
 23 24  2  0
 24 25  1  0
 25 26  2  0
 20  5  1  0
 26 21  1  0
 18  9  1  0
 16 11  1  0
  6 27  1  0
  7 28  1  0
 12 29  1  0
 13 30  1  0
 14 31  1  0
 15 32  1  0
 18 33  1  0
 18 34  1  0
 19 35  1  0
 20 36  1  0
 22 37  1  0
 23 38  1  0
 24 39  1  0
 25 40  1  0
 26 41  1  0
M  CHG  1   4  -1
M  END
>  <UniqueID>  (4) 
4

>  <SMILES>  (4) 
O=S(=O)([N-]c1ccc(C2=Nc3ccccc3SC2)cc1)c1ccccc1

>  <Energy>  (4) 
57.89970748035956

>  <Genealogy>  (4) 
O=S(=O)([N-]c1ccc(C2=Nc3ccccc3SC2)cc1)c1ccccc1 (protonated)
O=S(=O)([N-]c1ccc(C2=Nc3ccccc3SC2)cc1)c1ccccc1 (3D coordinates assigned)
O=S(=O)([N-]c1ccc(C2=Nc3ccccc3SC2)cc1)c1ccccc1 (nonaromatic ring conformer: 57.89970748035956 kcal/mol)

>  <smiles>  (4) 
O=S(=O)(Nc1ccc(C2=Nc3ccccc3SC2)cc1)c1ccccc1

>  <score_type>  (4) 
oracle

>  <origin>  (4) 
adg

>  <m_score__min__energy>  (4) 
-10.859999999999999

>  <m_primary>  (4) 
energy

$$$$
4:0
     RDKit          3D

 24 25  0  0  0  0  0  0  0  0999 V2000
   -3.8660   25.2350  -30.5450 O   0  0  0  0  0  0  0  0  0  0  0  0
   -3.0430   24.6230  -29.8330 N   0  0  0  0  0  0  0  0  0  0  0  0
   -1.9520   25.3010  -29.3440 O   0  0  0  0  0  0  0  0  0  0  0  0
   -3.1360   23.2040  -29.6370 C   0  0  0  0  0  0  0  0  0  0  0  0
   -2.6560   22.6040  -28.5270 N   0  0  0  0  0  0  0  0  0  0  0  0
   -2.8780   21.2920  -28.7380 C   0  0  0  0  0  0  0  0  0  0  0  0
   -3.4830   21.1170  -29.9610 C   0  0  0  0  0  0  0  0  0  0  0  0
   -3.6700   22.3270  -30.5240 N   0  0  0  0  0  0  0  0  0  0  0  0
   -4.2480   22.6130  -31.8450 C   0  0  0  0  0  0  0  0  0  0  0  0
   -5.5620   21.8960  -32.0610 C   0  0  0  0  0  0  0  0  0  0  0  0
   -5.5850   20.6970  -32.7930 C   0  0  0  0  0  0  0  0  0  0  0  0
   -6.7830   20.0040  -32.9810 C   0  0  0  0  0  0  0  0  0  0  0  0
   -7.9720   20.4970  -32.4350 C   0  0  0  0  0  0  0  0  0  0  0  0
   -9.4740   19.6230  -32.6700 Cl  0  0  0  0  0  0  0  0  0  0  0  0
   -7.9610   21.6820  -31.6950 C   0  0  0  0  0  0  0  0  0  0  0  0
   -6.7640   22.3840  -31.5010 C   0  0  0  0  0  0  0  0  0  0  0  0
   -6.8050   23.8590  -30.5400 Cl  0  0  0  0  0  0  0  0  0  0  0  0
   -2.6156   20.4841  -28.0391 H   0  0  0  0  0  0  0  0  0  0  0  0
   -3.7666   20.1513  -30.4049 H   0  0  0  0  0  0  0  0  0  0  0  0
   -4.4174   23.6965  -31.9305 H   0  0  0  0  0  0  0  0  0  0  0  0
   -3.5398   22.2572  -32.6077 H   0  0  0  0  0  0  0  0  0  0  0  0
   -4.6524   20.3010  -33.2213 H   0  0  0  0  0  0  0  0  0  0  0  0
   -6.7911   19.0686  -33.5597 H   0  0  0  0  0  0  0  0  0  0  0  0
   -8.8968   22.0658  -31.2625 H   0  0  0  0  0  0  0  0  0  0  0  0
  1  2  2  0
  2  3  1  0
  2  4  1  0
  4  5  2  0
  5  6  1  0
  6  7  2  0
  7  8  1  0
  8  9  1  0
  9 10  1  0
 10 11  2  0
 11 12  1  0
 12 13  2  0
 13 14  1  0
 13 15  1  0
 15 16  2  0
 16 17  1  0
  8  4  1  0
 16 10  1  0
  6 18  1  0
  7 19  1  0
  9 20  1  0
  9 21  1  0
 11 22  1  0
 12 23  1  0
 15 24  1  0
M  CHG  2   2   1   3  -1
M  END
>  <UniqueID>  (5) 
5

>  <SMILES>  (5) 
O=[N+]([O-])c1nccn1Cc1ccc(Cl)cc1Cl

>  <Energy>  (5) 
57.09611879927394

>  <Genealogy>  (5) 
O=[N+]([O-])c1nccn1Cc1ccc(Cl)cc1Cl (3D coordinates assigned)
O=[N+]([O-])c1nccn1Cc1ccc(Cl)cc1Cl (optimized conformer: 57.09611879927394 kcal/mol)

>  <smiles>  (5) 
O=[N+]([O-])c1nccn1Cc1ccc(Cl)cc1Cl

>  <score_type>  (5) 
oracle

>  <origin>  (5) 
adg

>  <m_score__min__energy>  (5) 
-8.3800000000000008

>  <m_primary>  (5) 
energy

$$$$
5:0
     RDKit          3D

 36 38  0  0  0  0  0  0  0  0999 V2000
   -3.8830   23.1670  -27.8280 C   0  0  0  0  0  0  0  0  0  0  0  0
   -4.5700   24.2270  -28.4250 C   0  0  0  0  0  0  0  0  0  0  0  0
   -4.8320   24.2080  -29.7980 C   0  0  0  0  0  0  0  0  0  0  0  0
   -4.4060   23.1210  -30.5880 C   0  0  0  0  0  0  0  0  0  0  0  0
   -4.6460   23.0470  -31.9690 O   0  0  0  0  0  0  0  0  0  0  0  0
   -5.2030   21.9180  -32.6460 C   0  0  0  0  0  0  0  0  0  0  0  0
   -6.6840   21.7890  -32.3550 C   0  0  0  0  0  0  0  0  0  0  0  0
   -7.3790   22.9210  -31.8940 C   0  0  0  0  0  0  0  0  0  0  0  0
   -8.7530   22.8660  -31.6530 C   0  0  0  0  0  0  0  0  0  0  0  0
   -9.4520   21.6780  -31.8590 C   0  0  0  0  0  0  0  0  0  0  0  0
   -8.7760   20.5350  -32.2900 C   0  0  0  0  0  0  0  0  0  0  0  0
   -7.3900   20.5680  -32.5250 C   0  0  0  0  0  0  0  0  0  0  0  0
   -6.7190   19.3160  -32.9340 C   0  0  0  0  0  0  0  0  0  0  0  0
   -6.6590   18.2260  -32.0500 C   0  0  0  0  0  0  0  0  0  0  0  0
   -6.0140   17.0450  -32.4310 C   0  0  0  0  0  0  0  0  0  0  0  0
   -5.4190   16.9470  -33.6920 C   0  0  0  0  0  0  0  0  0  0  0  0
   -5.4640   18.0320  -34.5720 C   0  0  0  0  0  0  0  0  0  0  0  0
   -6.1080   19.2150  -34.1950 C   0  0  0  0  0  0  0  0  0  0  0  0
   -3.7150   22.0650  -29.9790 C   0  0  0  0  0  0  0  0  0  0  0  0
   -3.4550   22.0870  -28.6040 C   0  0  0  0  0  0  0  0  0  0  0  0
   -3.6791   23.1828  -26.7472 H   0  0  0  0  0  0  0  0  0  0  0  0
   -4.9052   25.0778  -27.8137 H   0  0  0  0  0  0  0  0  0  0  0  0
   -5.3729   25.0449  -30.2639 H   0  0  0  0  0  0  0  0  0  0  0  0
   -5.0583   22.0405  -33.7295 H   0  0  0  0  0  0  0  0  0  0  0  0
   -4.6948   21.0095  -32.2905 H   0  0  0  0  0  0  0  0  0  0  0  0
   -6.8339   23.8607  -31.7213 H   0  0  0  0  0  0  0  0  0  0  0  0
   -9.2848   23.7618  -31.2999 H   0  0  0  0  0  0  0  0  0  0  0  0
  -10.5370   21.6409  -31.6819 H   0  0  0  0  0  0  0  0  0  0  0  0
   -9.3330   19.5996  -32.4473 H   0  0  0  0  0  0  0  0  0  0  0  0
   -7.1210   18.3016  -31.0546 H   0  0  0  0  0  0  0  0  0  0  0  0
   -5.9749   16.1921  -31.7374 H   0  0  0  0  0  0  0  0  0  0  0  0
   -4.9154   16.0161  -33.9918 H   0  0  0  0  0  0  0  0  0  0  0  0
   -4.9922   17.9554  -35.5627 H   0  0  0  0  0  0  0  0  0  0  0  0
   -6.1361   20.0688  -34.8879 H   0  0  0  0  0  0  0  0  0  0  0  0
   -3.3746   21.2130  -30.5858 H   0  0  0  0  0  0  0  0  0  0  0  0
   -2.9131   21.2531  -28.1338 H   0  0  0  0  0  0  0  0  0  0  0  0
  1  2  2  0
  2  3  1  0
  3  4  2  0
  4  5  1  0
  5  6  1  0
  6  7  1  0
  7  8  2  0
  8  9  1  0
  9 10  2  0
 10 11  1  0
 11 12  2  0
 12 13  1  0
 13 14  2  0
 14 15  1  0
 15 16  2  0
 16 17  1  0
 17 18  2  0
  4 19  1  0
 19 20  2  0
 20  1  1  0
 12  7  1  0
 18 13  1  0
  1 21  1  0
  2 22  1  0
  3 23  1  0
  6 24  1  0
  6 25  1  0
  8 26  1  0
  9 27  1  0
 10 28  1  0
 11 29  1  0
 14 30  1  0
 15 31  1  0
 16 32  1  0
 17 33  1  0
 18 34  1  0
 19 35  1  0
 20 36  1  0
M  END
>  <UniqueID>  (6) 
6

>  <SMILES>  (6) 
c1ccc(OCc2ccccc2-c2ccccc2)cc1

>  <Energy>  (6) 
46.442016062929646

>  <Genealogy>  (6) 
c1ccc(OCc2ccccc2-c2ccccc2)cc1 (3D coordinates assigned)
c1ccc(OCc2ccccc2-c2ccccc2)cc1 (optimized conformer: 46.442016062929646 kcal/mol)

>  <smiles>  (6) 
c1ccc(OCc2ccccc2-c2ccccc2)cc1

>  <score_type>  (6) 
oracle

>  <origin>  (6) 
adg

>  <m_score__min__energy>  (6) 
-7.8799999999999999

>  <m_primary>  (6) 
energy

$$$$
6:0
     RDKit          3D

 47 49  0  0  0  0  0  0  0  0999 V2000
   -5.0230   18.2050  -34.8100 O   0  0  0  0  0  0  0  0  0  0  0  0
   -5.3910   18.9060  -33.8290 C   0  0  0  0  0  0  0  0  0  0  0  0
   -6.8600   18.9660  -33.4710 C   0  0  1  0  0  0  0  0  0  0  0  0
   -7.2460   17.8550  -32.4620 C   0  0  0  0  0  0  0  0  0  0  0  0
   -8.4400   18.2490  -31.5720 C   0  0  0  0  0  0  0  0  0  0  0  0
   -9.3810   19.2220  -32.2940 C   0  0  0  0  0  0  0  0  0  0  0  0
   -8.6930   20.4680  -32.7160 N   0  0  0  0  0  0  0  0  0  0  0  0
   -9.0960   21.6800  -31.9670 C   0  0  0  0  0  0  0  0  0  0  0  0
   -7.9280   22.5170  -31.4850 C   0  0  0  0  0  0  0  0  0  0  0  0
   -7.2710   23.3940  -32.3670 C   0  0  0  0  0  0  0  0  0  0  0  0
   -6.1920   24.1650  -31.9240 C   0  0  0  0  0  0  0  0  0  0  0  0
   -5.7680   24.0820  -30.5970 C   0  0  0  0  0  0  0  0  0  0  0  0
   -6.4290   23.2320  -29.7060 C   0  0  0  0  0  0  0  0  0  0  0  0
   -7.5080   22.4590  -30.1430 C   0  0  0  0  0  0  0  0  0  0  0  0
   -7.2290   20.3510  -32.9160 C   0  0  0  0  0  0  0  0  0  0  0  0
   -4.4080   19.6460  -33.0820 N   0  0  0  0  0  0  0  0  0  0  0  0
   -4.4510   19.7200  -31.6150 C   0  0  0  0  0  0  0  0  0  0  0  0
   -4.3060   21.1760  -31.1460 C   0  0  0  0  0  0  0  0  0  0  0  0
   -3.3160   22.0010  -31.9990 C   0  0  0  0  0  0  0  0  0  0  0  0
   -2.4190   21.1250  -32.8820 C   0  0  0  0  0  0  0  0  0  0  0  0
   -3.2720   20.2410  -33.8020 C   0  0  0  0  0  0  0  0  0  0  0  0
   -7.4332   18.7940  -34.3940 H   0  0  0  0  0  0  0  0  0  0  0  0
   -7.5100   16.9464  -33.0230 H   0  0  0  0  0  0  0  0  0  0  0  0
   -6.3809   17.6893  -31.8031 H   0  0  0  0  0  0  0  0  0  0  0  0
   -9.0010   17.3416  -31.3038 H   0  0  0  0  0  0  0  0  0  0  0  0
   -8.0506   18.7482  -30.6724 H   0  0  0  0  0  0  0  0  0  0  0  0
   -9.7874   18.7235  -33.1864 H   0  0  0  0  0  0  0  0  0  0  0  0
  -10.1783   19.5017  -31.5897 H   0  0  0  0  0  0  0  0  0  0  0  0
   -9.7209   22.3024  -32.6244 H   0  0  0  0  0  0  0  0  0  0  0  0
   -9.6369   21.3388  -31.0720 H   0  0  0  0  0  0  0  0  0  0  0  0
   -7.6080   23.4737  -33.4111 H   0  0  0  0  0  0  0  0  0  0  0  0
   -5.6758   24.8390  -32.6235 H   0  0  0  0  0  0  0  0  0  0  0  0
   -4.9147   24.6848  -30.2528 H   0  0  0  0  0  0  0  0  0  0  0  0
   -6.0991   23.1713  -28.6584 H   0  0  0  0  0  0  0  0  0  0  0  0
   -8.0322   21.8013  -29.4340 H   0  0  0  0  0  0  0  0  0  0  0  0
   -6.8998   21.1232  -33.6269 H   0  0  0  0  0  0  0  0  0  0  0  0
   -6.7299   20.4848  -31.9449 H   0  0  0  0  0  0  0  0  0  0  0  0
   -5.4120   19.3192  -31.2602 H   0  0  0  0  0  0  0  0  0  0  0  0
   -3.6192   19.1290  -31.2041 H   0  0  0  0  0  0  0  0  0  0  0  0
   -5.2936   21.6579  -31.1949 H   0  0  0  0  0  0  0  0  0  0  0  0
   -3.9065   21.1484  -30.1215 H   0  0  0  0  0  0  0  0  0  0  0  0
   -3.8907   22.6800  -32.6461 H   0  0  0  0  0  0  0  0  0  0  0  0
   -2.6624   22.5525  -31.3071 H   0  0  0  0  0  0  0  0  0  0  0  0
   -1.7737   21.7704  -33.4960 H   0  0  0  0  0  0  0  0  0  0  0  0
   -1.8046   20.4797  -32.2369 H   0  0  0  0  0  0  0  0  0  0  0  0
   -3.6564   20.8544  -34.6302 H   0  0  0  0  0  0  0  0  0  0  0  0
   -2.6381   19.4246  -34.1783 H   0  0  0  0  0  0  0  0  0  0  0  0
  1  2  2  0
  2  3  1  0
  3  4  1  0
  4  5  1  0
  5  6  1  0
  6  7  1  0
  7  8  1  0
  8  9  1  0
  9 10  2  0
 10 11  1  0
 11 12  2  0
 12 13  1  0
 13 14  2  0
  7 15  1  0
  2 16  1  0
 16 17  1  0
 17 18  1  0
 18 19  1  0
 19 20  1  0
 20 21  1  0
 15  3  1  0
 21 16  1  0
 14  9  1  0
  3 22  1  6
  4 23  1  0
  4 24  1  0
  5 25  1  0
  5 26  1  0
  6 27  1  0
  6 28  1  0
  8 29  1  0
  8 30  1  0
 10 31  1  0
 11 32  1  0
 12 33  1  0
 13 34  1  0
 14 35  1  0
 15 36  1  0
 15 37  1  0
 17 38  1  0
 17 39  1  0
 18 40  1  0
 18 41  1  0
 19 42  1  0
 19 43  1  0
 20 44  1  0
 20 45  1  0
 21 46  1  0
 21 47  1  0
M  END
>  <UniqueID>  (7) 
7

>  <SMILES>  (7) 
O=C([C@H]1CCCN(Cc2ccccc2)C1)N1CCCCC1

>  <Energy>  (7) 
60.36926779486761

>  <Genealogy>  (7) 
O=C([C@H]1CCCN(Cc2ccccc2)C1)N1CCCCC1 (chirality)
O=C([C@H]1CCCN(Cc2ccccc2)C1)N1CCCCC1 (3D coordinates assigned)
O=C([C@H]1CCCN(Cc2ccccc2)C1)N1CCCCC1 (nonaromatic ring conformer: 60.36926779486761 kcal/mol)

>  <smiles>  (7) 
O=C(C1CCCN(Cc2ccccc2)C1)N1CCCCC1

>  <score_type>  (7) 
oracle

>  <origin>  (7) 
adg

>  <m_score__min__energy>  (7) 
-8.6099999999999994

>  <m_primary>  (7) 
energy

$$$$
7:0
     RDKit          3D

 41 44  0  0  0  0  0  0  0  0999 V2000
   -8.9210   20.8970  -32.1820 O   0  0  0  0  0  0  0  0  0  0  0  0
   -7.6610   20.8500  -32.2590 C   0  0  0  0  0  0  0  0  0  0  0  0
   -7.0200   19.6320  -32.5410 C   0  0  0  0  0  0  0  0  0  0  0  0
   -7.7550   18.4430  -32.7180 C   0  0  0  0  0  0  0  0  0  0  0  0
   -7.0980   17.2400  -32.9840 C   0  0  0  0  0  0  0  0  0  0  0  0
   -5.7070   17.2060  -33.0710 C   0  0  0  0  0  0  0  0  0  0  0  0
   -4.9650   18.3760  -32.9010 C   0  0  0  0  0  0  0  0  0  0  0  0
   -5.6110   19.6050  -32.6490 C   0  0  0  0  0  0  0  0  0  0  0  0
   -4.9000   20.8110  -32.4780 C   0  0  0  0  0  0  0  0  0  0  0  0
   -3.4330   20.8960  -32.6590 C   0  0  0  0  0  0  0  0  0  0  0  0
   -2.8370   20.3860  -33.8230 C   0  0  0  0  0  0  0  0  0  0  0  0
   -1.4480   20.4290  -33.9790 C   0  0  0  0  0  0  0  0  0  0  0  0
   -0.6460   20.9690  -32.9690 C   0  0  0  0  0  0  0  0  0  0  0  0
   -1.2320   21.4620  -31.8000 C   0  0  0  0  0  0  0  0  0  0  0  0
   -2.6200   21.4210  -31.6400 C   0  0  0  0  0  0  0  0  0  0  0  0
   -5.5810   21.9490  -32.1710 N   0  0  0  0  0  0  0  0  0  0  0  0
   -6.9170   21.9840  -32.0710 N   0  0  0  0  0  0  0  0  0  0  0  0
   -7.5740   23.2820  -31.8450 C   0  0  0  0  0  0  0  0  0  0  0  0
   -7.2440   23.8230  -30.4490 C   0  0  0  0  0  0  0  0  0  0  0  0
   -5.8180   24.1300  -30.3340 N   0  0  0  0  0  0  0  0  0  0  0  0
   -4.9150   23.4910  -29.5730 C   0  0  0  0  0  0  0  0  0  0  0  0
   -3.7230   24.1730  -29.6740 C   0  0  0  0  0  0  0  0  0  0  0  0
   -3.8770   25.2370  -30.4880 N   0  0  0  0  0  0  0  0  0  0  0  0
   -5.1710   25.1820  -30.8690 C   0  0  0  0  0  0  0  0  0  0  0  0
   -8.8525   18.4626  -32.6462 H   0  0  0  0  0  0  0  0  0  0  0  0
   -7.6793   16.3169  -33.1253 H   0  0  0  0  0  0  0  0  0  0  0  0
   -5.1930   16.2549  -33.2741 H   0  0  0  0  0  0  0  0  0  0  0  0
   -3.8674   18.3397  -32.9640 H   0  0  0  0  0  0  0  0  0  0  0  0
   -3.4645   19.9512  -34.6149 H   0  0  0  0  0  0  0  0  0  0  0  0
   -0.9859   20.0376  -34.8973 H   0  0  0  0  0  0  0  0  0  0  0  0
    0.4462   21.0058  -33.0945 H   0  0  0  0  0  0  0  0  0  0  0  0
   -0.5998   21.8831  -31.0043 H   0  0  0  0  0  0  0  0  0  0  0  0
   -3.0770   21.8006  -30.7142 H   0  0  0  0  0  0  0  0  0  0  0  0
   -5.0350   22.8350  -32.0530 H   0  0  0  0  0  0  0  0  0  0  0  0
   -7.2247   23.9997  -32.6019 H   0  0  0  0  0  0  0  0  0  0  0  0
   -8.6627   23.1444  -31.9217 H   0  0  0  0  0  0  0  0  0  0  0  0
   -7.8256   24.7395  -30.2707 H   0  0  0  0  0  0  0  0  0  0  0  0
   -7.5004   23.0555  -29.7039 H   0  0  0  0  0  0  0  0  0  0  0  0
   -5.0952   22.5850  -28.9758 H   0  0  0  0  0  0  0  0  0  0  0  0
   -2.7876   23.8926  -29.1677 H   0  0  0  0  0  0  0  0  0  0  0  0
   -5.6431   25.9141  -31.5407 H   0  0  0  0  0  0  0  0  0  0  0  0
  1  2  2  0
  2  3  1  0
  3  4  2  0
  4  5  1  0
  5  6  2  0
  6  7  1  0
  7  8  2  0
  8  9  1  0
  9 10  1  0
 10 11  2  0
 11 12  1  0
 12 13  2  0
 13 14  1  0
 14 15  2  0
  9 16  2  0
 16 17  1  0
 17 18  1  0
 18 19  1  0
 19 20  1  0
 20 21  1  0
 21 22  2  0
 22 23  1  0
 23 24  2  0
 17  2  1  0
 24 20  1  0
  8  3  1  0
 15 10  1  0
  4 25  1  0
  5 26  1  0
  6 27  1  0
  7 28  1  0
 11 29  1  0
 12 30  1  0
 13 31  1  0
 14 32  1  0
 15 33  1  0
 16 34  1  0
 18 35  1  0
 18 36  1  0
 19 37  1  0
 19 38  1  0
 21 39  1  0
 22 40  1  0
 24 41  1  0
M  CHG  1  16   1
M  END
>  <UniqueID>  (8) 
8

>  <SMILES>  (8) 
O=c1c2ccccc2c(-c2ccccc2)[nH+]n1CCn1ccnc1

>  <Energy>  (8) 
84.38394757405727

>  <Genealogy>  (8) 
O=c1c2ccccc2c(-c2ccccc2)[nH+]n1CCn1ccnc1 (protonated)
O=c1c2ccccc2c(-c2ccccc2)[nH+]n1CCn1ccnc1 (3D coordinates assigned)
O=c1c2ccccc2c(-c2ccccc2)[nH+]n1CCn1ccnc1 (optimized conformer: 84.38394757405727 kcal/mol)

>  <smiles>  (8) 
O=c1c2ccccc2c(-c2ccccc2)nn1CCn1ccnc1

>  <score_type>  (8) 
oracle

>  <origin>  (8) 
adg

>  <m_score__min__energy>  (8) 
-7.8499999999999996

>  <m_primary>  (8) 
energy

$$$$
8:0
     RDKit          3D

 29 30  0  0  0  0  0  0  0  0999 V2000
   -6.6570   15.6980  -34.4860 O   0  0  0  0  0  0  0  0  0  0  0  0
   -6.3920   16.9260  -34.3940 C   0  0  0  0  0  0  0  0  0  0  0  0
   -5.5180   17.5090  -35.3030 O   0  0  0  0  0  0  0  0  0  0  0  0
   -7.0020   17.7530  -33.2970 C   0  0  0  0  0  0  0  0  0  0  0  0
   -6.3670   19.0920  -33.1940 N   0  0  2  0  0  0  0  0  0  0  0  0
   -5.1640   18.9970  -32.3350 C   0  0  0  0  0  0  0  0  0  0  0  0
   -4.4430   20.3480  -32.2300 C   0  0  0  0  0  0  0  0  0  0  0  0
   -5.3800   21.4180  -31.7450 C   0  0  0  0  0  0  0  0  0  0  0  0
   -4.8720   22.5640  -31.1150 C   0  0  0  0  0  0  0  0  0  0  0  0
   -5.7360   23.5790  -30.6850 C   0  0  0  0  0  0  0  0  0  0  0  0
   -5.0900   25.0150  -29.8980 S   0  0  0  0  0  0  0  0  0  0  0  0
   -4.5450   24.6530  -28.5450 O   0  0  0  0  0  0  0  0  0  0  0  0
   -6.1800   26.0350  -29.7220 O   0  0  0  0  0  0  0  0  0  0  0  0
   -3.8620   25.6650  -30.8410 O   0  0  0  0  0  0  0  0  0  0  0  0
   -7.1130   23.4570  -30.9090 C   0  0  0  0  0  0  0  0  0  0  0  0
   -7.6250   22.3270  -31.5500 C   0  0  0  0  0  0  0  0  0  0  0  0
   -6.7630   21.3030  -31.9800 C   0  0  0  0  0  0  0  0  0  0  0  0
   -7.2840   20.0960  -32.6690 C   0  0  0  0  0  0  0  0  0  0  0  0
   -8.5270   19.9980  -32.8750 O   0  0  0  0  0  0  0  0  0  0  0  0
   -8.0745   17.8830  -33.5042 H   0  0  0  0  0  0  0  0  0  0  0  0
   -6.8430   17.2262  -32.3445 H   0  0  0  0  0  0  0  0  0  0  0  0
   -6.0590   19.4020  -34.1460 H   0  0  0  0  0  0  0  0  0  0  0  0
   -5.4676   18.6741  -31.3282 H   0  0  0  0  0  0  0  0  0  0  0  0
   -4.4729   18.2698  -32.7861 H   0  0  0  0  0  0  0  0  0  0  0  0
   -3.6051   20.2554  -31.5234 H   0  0  0  0  0  0  0  0  0  0  0  0
   -4.0742   20.6287  -33.2276 H   0  0  0  0  0  0  0  0  0  0  0  0
   -3.7881   22.6660  -30.9577 H   0  0  0  0  0  0  0  0  0  0  0  0
   -7.7943   24.2549  -30.5785 H   0  0  0  0  0  0  0  0  0  0  0  0
   -8.7082   22.2376  -31.7193 H   0  0  0  0  0  0  0  0  0  0  0  0
  1  2  2  0
  2  3  1  0
  2  4  1  0
  4  5  1  0
  5  6  1  0
  6  7  1  0
  7  8  1  0
  8  9  2  0
  9 10  1  0
 10 11  1  0
 11 12  2  0
 11 13  2  0
 11 14  1  0
 10 15  2  0
 15 16  1  0
 16 17  2  0
 17 18  1  0
 18 19  2  0
 18  5  1  0
 17  8  1  0
  4 20  1  0
  4 21  1  0
  5 22  1  6
  6 23  1  0
  6 24  1  0
  7 25  1  0
  7 26  1  0
  9 27  1  0
 15 28  1  0
 16 29  1  0
M  CHG  3   3  -1   5   1  14  -1
M  END
>  <UniqueID>  (9) 
9

>  <SMILES>  (9) 
O=C([O-])C[N@@H+]1CCc2cc(S(=O)(=O)[O-])ccc2C1=O

>  <Energy>  (9) 
36.86958608770093

>  <Genealogy>  (9) 
O=C([O-])C[NH+]1CCc2cc(S(=O)(=O)[O-])ccc2C1=O (protonated)
O=C([O-])C[N@@H+]1CCc2cc(S(=O)(=O)[O-])ccc2C1=O (chirality)
O=C([O-])C[N@@H+]1CCc2cc(S(=O)(=O)[O-])ccc2C1=O (3D coordinates assigned)
O=C([O-])C[N@@H+]1CCc2cc(S(=O)(=O)[O-])ccc2C1=O (nonaromatic ring conformer: 36.86958608770093 kcal/mol)

>  <smiles>  (9) 
O=C(O)CN1CCc2cc(S(=O)(=O)O)ccc2C1=O

>  <score_type>  (9) 
oracle

>  <origin>  (9) 
adg

>  <m_score__min__energy>  (9) 
-9.1799999999999997

>  <m_primary>  (9) 
energy

$$$$
9:0
     RDKit          3D

 36 38  0  0  1  0  0  0  0  0999 V2000
   -3.8530   20.2010  -32.2650 C   0  0  0  0  0  0  0  0  0  0  0  0
   -4.4490   21.4830  -32.9220 C   0  0  0  0  0  0  0  0  0  0  0  0
   -5.4180   22.0700  -32.0530 N   0  0  0  0  0  0  0  0  0  0  0  0
   -6.7170   21.5860  -32.1530 C   0  0  0  0  0  0  0  0  0  0  0  0
   -7.2370   20.4810  -32.7970 C   0  0  0  0  0  0  0  0  0  0  0  0
   -8.5640   20.2000  -32.7150 C   0  0  0  0  0  0  0  0  0  0  0  0
   -9.4030   20.9920  -32.0030 C   0  0  0  0  0  0  0  0  0  0  0  0
   -8.9380   22.0960  -31.3470 C   0  0  0  0  0  0  0  0  0  0  0  0
   -7.5900   22.3570  -31.4460 C   0  0  0  0  0  0  0  0  0  0  0  0
   -6.8640   23.3470  -30.8790 C   0  0  0  0  0  0  0  0  0  0  0  0
   -7.2320   24.3960  -30.1290 N   0  0  0  0  0  0  0  0  0  0  0  0
   -6.3450   25.3030  -29.6950 C   0  0  0  0  0  0  0  0  0  0  0  0
   -5.0650   25.1130  -30.0380 N   0  0  0  0  0  0  0  0  0  0  0  0
   -4.6750   24.0540  -30.7930 C   0  0  0  0  0  0  0  0  0  0  0  0
   -3.4800   23.8310  -30.8560 N   0  0  0  0  0  0  0  0  0  0  0  0
   -2.5590   23.1960  -30.1190 C   0  0  0  0  0  0  0  0  0  0  0  0
   -1.8670   23.9650  -28.9990 C   0  0  0  0  0  0  0  0  0  0  0  0
   -2.3630   25.3080  -28.9650 N   0  0  0  0  0  0  0  0  0  0  0  0
   -5.5450   23.1120  -31.2770 C   0  0  0  0  0  0  0  0  0  0  0  0
   -3.8971   20.2958  -31.1700 H   0  0  0  0  0  0  0  0  0  0  0  0
   -4.4351   19.3227  -32.5807 H   0  0  0  0  0  0  0  0  0  0  0  0
   -2.8063   20.0799  -32.5807 H   0  0  0  0  0  0  0  0  0  0  0  0
   -3.6413   22.2061  -33.1088 H   0  0  0  0  0  0  0  0  0  0  0  0
   -4.9325   21.2112  -33.8719 H   0  0  0  0  0  0  0  0  0  0  0  0
   -6.5737   19.8247  -33.3795 H   0  0  0  0  0  0  0  0  0  0  0  0
   -8.9636   19.3164  -33.2343 H   0  0  0  0  0  0  0  0  0  0  0  0
  -10.4730   20.7420  -31.9530 H   0  0  0  0  0  0  0  0  0  0  0  0
   -9.6092   22.7462  -30.7667 H   0  0  0  0  0  0  0  0  0  0  0  0
   -6.6550   26.1641  -29.0848 H   0  0  0  0  0  0  0  0  0  0  0  0
   -4.3770   25.8110  -29.7050 H   0  0  0  0  0  0  0  0  0  0  0  0
   -3.0533   22.3275  -29.6593 H   0  0  0  0  0  0  0  0  0  0  0  0
   -1.7512   22.9727  -30.8314 H   0  0  0  0  0  0  0  0  0  0  0  0
   -2.0717   23.4740  -28.0362 H   0  0  0  0  0  0  0  0  0  0  0  0
   -0.7821   23.9792  -29.1799 H   0  0  0  0  0  0  0  0  0  0  0  0
   -2.5440   25.6550  -29.9350 H   0  0  0  0  0  0  0  0  0  0  0  0
   -3.2990   25.3090  -28.4880 H   0  0  0  0  0  0  0  0  0  0  0  0
  1  2  1  0
  2  3  1  0
  3  4  1  0
  4  5  2  0
  5  6  1  0
  6  7  2  0
  7  8  1  0
  8  9  2  0
  9 10  1  0
 10 11  1  0
 11 12  2  0
 12 13  1  0
 13 14  1  0
 14 15  2  0
 15 16  1  0
 16 17  1  0
 17 18  1  0
 14 19  1  0
 19  3  1  0
  9  4  1  0
 19 10  2  0
  1 20  1  0
  1 21  1  0
  1 22  1  0
  2 23  1  0
  2 24  1  0
  5 25  1  0
  6 26  1  0
  7 27  1  0
  8 28  1  0
 12 29  1  0
 13 30  1  0
 16 31  1  0
 16 32  1  0
 17 33  1  0
 17 34  1  0
 18 35  1  0
 18 36  1  0
M  END
>  <smiles>  (10) 
CCn1c2ccccc2c2nc[nH]c(=NCCN)c21

>  <score_type>  (10) 
oracle

>  <origin>  (10) 
adg

>  <m_score__min__energy>  (10) 
-7.8200000000000003

>  <m_primary>  (10) 
energy

$$$$
10:0
     RDKit          3D

 41 42  0  0  0  0  0  0  0  0999 V2000
   -2.7520   19.8230  -27.1290 C   0  0  0  0  0  0  0  0  0  0  0  0
   -2.0250   20.9990  -27.4740 O   0  0  0  0  0  0  0  0  0  0  0  0
   -2.5320   22.0390  -28.2690 C   0  0  0  0  0  0  0  0  0  0  0  0
   -2.3850   23.3510  -27.8160 C   0  0  0  0  0  0  0  0  0  0  0  0
   -2.8740   24.4200  -28.5670 C   0  0  0  0  0  0  0  0  0  0  0  0
   -3.5280   24.1940  -29.7920 C   0  0  0  0  0  0  0  0  0  0  0  0
   -4.0300   25.2560  -30.5630 O   0  0  0  0  0  0  0  0  0  0  0  0
   -5.3520   25.7740  -30.4680 C   0  0  0  0  0  0  0  0  0  0  0  0
   -3.6850   22.8710  -30.2550 C   0  0  0  0  0  0  0  0  0  0  0  0
   -4.5260   22.5170  -31.7760 S   0  0  0  0  0  0  0  0  0  0  0  0
   -3.5070   22.3010  -32.8600 O   0  0  0  0  0  0  0  0  0  0  0  0
   -5.3770   23.6900  -32.1780 O   0  0  0  0  0  0  0  0  0  0  0  0
   -5.5290   21.0910  -31.6380 N   0  0  0  0  0  0  0  0  0  0  0  0
   -6.8850   21.4180  -31.1300 C   0  0  0  0  0  0  0  0  0  0  0  0
   -7.9580   21.4150  -32.2300 C   0  0  0  0  0  0  0  0  0  0  0  0
   -8.0280   20.0450  -32.9520 C   0  0  0  0  0  0  0  0  0  0  0  0
   -9.1180   19.1510  -32.3470 C   0  0  0  0  0  0  0  0  0  0  0  0
   -6.6650   19.3150  -32.9510 C   0  0  0  0  0  0  0  0  0  0  0  0
   -5.5120   20.3220  -32.9010 C   0  0  0  0  0  0  0  0  0  0  0  0
   -3.1780   21.8040  -29.4960 C   0  0  0  0  0  0  0  0  0  0  0  0
   -2.8070   19.7340  -26.0340 H   0  0  0  0  0  0  0  0  0  0  0  0
   -3.7690   19.8859  -27.5433 H   0  0  0  0  0  0  0  0  0  0  0  0
   -2.2411   18.9413  -27.5433 H   0  0  0  0  0  0  0  0  0  0  0  0
   -1.8791   23.5437  -26.8584 H   0  0  0  0  0  0  0  0  0  0  0  0
   -2.7472   25.4486  -28.1983 H   0  0  0  0  0  0  0  0  0  0  0  0
   -5.6282   25.8822  -29.4087 H   0  0  0  0  0  0  0  0  0  0  0  0
   -5.3972   26.7563  -30.9609 H   0  0  0  0  0  0  0  0  0  0  0  0
   -6.0525   25.0839  -30.9609 H   0  0  0  0  0  0  0  0  0  0  0  0
   -7.1623   20.6742  -30.3685 H   0  0  0  0  0  0  0  0  0  0  0  0
   -6.8432   22.4361  -30.7155 H   0  0  0  0  0  0  0  0  0  0  0  0
   -8.9364   21.6298  -31.7755 H   0  0  0  0  0  0  0  0  0  0  0  0
   -7.6936   22.1829  -32.9719 H   0  0  0  0  0  0  0  0  0  0  0  0
   -8.2911   20.2533  -33.9996 H   0  0  0  0  0  0  0  0  0  0  0  0
   -9.0623   19.1967  -31.2494 H   0  0  0  0  0  0  0  0  0  0  0  0
  -10.1062   19.5021  -32.6789 H   0  0  0  0  0  0  0  0  0  0  0  0
   -8.9671   18.1132  -32.6789 H   0  0  0  0  0  0  0  0  0  0  0  0
   -6.6083   18.6571  -32.0713 H   0  0  0  0  0  0  0  0  0  0  0  0
   -6.5792   18.7245  -33.8751 H   0  0  0  0  0  0  0  0  0  0  0  0
   -4.5581   19.7796  -32.9782 H   0  0  0  0  0  0  0  0  0  0  0  0
   -5.6268   21.0253  -33.7390 H   0  0  0  0  0  0  0  0  0  0  0  0
   -3.2872   20.7735  -29.8649 H   0  0  0  0  0  0  0  0  0  0  0  0
  1  2  1  0
  2  3  1  0
  3  4  2  0
  4  5  1  0
  5  6  2  0
  6  7  1  0
  7  8  1  0
  6  9  1  0
  9 10  1  0
 10 11  2  0
 10 12  2  0
 10 13  1  0
 13 14  1  0
 14 15  1  0
 15 16  1  0
 16 17  1  0
 16 18  1  0
 18 19  1  0
  9 20  2  0
 20  3  1  0
 19 13  1  0
  1 21  1  0
  1 22  1  0
  1 23  1  0
  4 24  1  0
  5 25  1  0
  8 26  1  0
  8 27  1  0
  8 28  1  0
 14 29  1  0
 14 30  1  0
 15 31  1  0
 15 32  1  0
 16 33  1  0
 17 34  1  0
 17 35  1  0
 17 36  1  0
 18 37  1  0
 18 38  1  0
 19 39  1  0
 19 40  1  0
 20 41  1  0
M  END
>  <UniqueID>  (11) 
10

>  <SMILES>  (11) 
COc1ccc(OC)c(S(=O)(=O)N2CCC(C)CC2)c1

>  <Energy>  (11) 
42.832122557807914

>  <Genealogy>  (11) 
COc1ccc(OC)c(S(=O)(=O)N2CCC(C)CC2)c1 (3D coordinates assigned)
COc1ccc(OC)c(S(=O)(=O)N2CCC(C)CC2)c1 (nonaromatic ring conformer: 42.832122557807914 kcal/mol)

>  <smiles>  (11) 
COc1ccc(OC)c(S(=O)(=O)N2CCC(C)CC2)c1

>  <score_type>  (11) 
oracle

>  <origin>  (11) 
adg

>  <m_score__min__energy>  (11) 
-7.7000000000000002

>  <m_primary>  (11) 
energy

$$$$
11:0
     RDKit          3D

 42 45  0  0  1  0  0  0  0  0999 V2000
   -1.0210   26.7750  -24.0670 C   0  0  0  0  0  0  0  0  0  0  0  0
   -1.6690   26.7430  -25.2340 N   0  0  0  0  0  0  0  0  0  0  0  0
   -1.5350   25.4930  -25.7280 C   0  0  0  0  0  0  0  0  0  0  0  0
   -2.1420   25.0980  -27.0330 C   0  0  0  0  0  0  0  0  0  0  0  0
   -3.5070   24.5850  -26.7620 C   0  0  0  0  0  0  0  0  0  0  0  0
   -3.8640   23.3100  -27.4770 C   0  0  0  0  0  0  0  0  0  0  0  0
   -3.1730   23.1830  -28.7450 N   0  0  0  0  0  0  0  0  0  0  0  0
   -3.8100   23.0410  -29.9850 C   0  0  0  0  0  0  0  0  0  0  0  0
   -5.0820   23.4900  -30.2670 C   0  0  0  0  0  0  0  0  0  0  0  0
   -5.6100   23.2990  -31.5130 C   0  0  0  0  0  0  0  0  0  0  0  0
   -6.7840   23.7190  -31.7530 N   0  0  0  0  0  0  0  0  0  0  0  0
   -8.0020   23.0060  -31.5740 C   0  0  0  0  0  0  0  0  0  0  0  0
   -7.8560   21.5840  -31.9960 C   0  0  0  0  0  0  0  0  0  0  0  0
   -8.5540   20.5220  -31.4150 C   0  0  0  0  0  0  0  0  0  0  0  0
   -8.0160   19.0210  -32.2850 S   0  0  0  0  0  0  0  0  0  0  0  0
   -6.8500   20.1030  -33.3790 C   0  0  0  0  0  0  0  0  0  0  0  0
   -7.0480   21.1830  -32.9620 N   0  0  0  0  0  0  0  0  0  0  0  0
   -4.9380   22.6780  -32.5130 N   0  0  0  0  0  0  0  0  0  0  0  0
   -3.7010   22.2490  -32.2160 C   0  0  0  0  0  0  0  0  0  0  0  0
   -3.1640   22.4230  -31.0090 N   0  0  0  0  0  0  0  0  0  0  0  0
   -1.7150   23.2090  -28.6840 C   0  0  0  0  0  0  0  0  0  0  0  0
   -1.1890   24.1900  -27.7100 C   0  0  0  0  0  0  0  0  0  0  0  0
   -0.8150   24.7960  -24.8600 N   0  0  0  0  0  0  0  0  0  0  0  0
   -0.4890   25.5590  -23.8350 N   0  0  0  0  0  0  0  0  0  0  0  0
   -0.9356   27.6492  -23.4048 H   0  0  0  0  0  0  0  0  0  0  0  0
   -2.2965   25.9224  -27.7447 H   0  0  0  0  0  0  0  0  0  0  0  0
   -3.5948   24.4051  -25.6804 H   0  0  0  0  0  0  0  0  0  0  0  0
   -4.2018   25.3510  -27.1368 H   0  0  0  0  0  0  0  0  0  0  0  0
   -3.5919   22.4570  -26.8380 H   0  0  0  0  0  0  0  0  0  0  0  0
   -4.9448   23.3277  -27.6809 H   0  0  0  0  0  0  0  0  0  0  0  0
   -5.6710   24.0009  -29.4911 H   0  0  0  0  0  0  0  0  0  0  0  0
   -8.2850   23.0386  -30.5115 H   0  0  0  0  0  0  0  0  0  0  0  0
   -8.7783   23.4775  -32.1945 H   0  0  0  0  0  0  0  0  0  0  0  0
   -9.2839   20.5829  -30.5943 H   0  0  0  0  0  0  0  0  0  0  0  0
   -6.1729   19.7883  -34.1868 H   0  0  0  0  0  0  0  0  0  0  0  0
   -5.3530   22.5430  -33.4470 H   0  0  0  0  0  0  0  0  0  0  0  0
   -3.1129   21.7383  -32.9927 H   0  0  0  0  0  0  0  0  0  0  0  0
   -1.3593   22.2080  -28.3985 H   0  0  0  0  0  0  0  0  0  0  0  0
   -1.3520   23.5091  -29.6781 H   0  0  0  0  0  0  0  0  0  0  0  0
   -0.6701   23.6208  -26.9247 H   0  0  0  0  0  0  0  0  0  0  0  0
   -0.5642   24.8617  -28.3171 H   0  0  0  0  0  0  0  0  0  0  0  0
    0.0760   25.2910  -22.9890 H   0  0  0  0  0  0  0  0  0  0  0  0
  1  2  2  0
  2  3  1  0
  3  4  1  0
  4  5  1  0
  5  6  1  0
  6  7  1  0
  7  8  1  0
  8  9  2  0
  9 10  1  0
 10 11  2  0
 11 12  1  0
 12 13  1  0
 13 14  2  0
 14 15  1  0
 15 16  1  0
 16 17  2  0
 10 18  1  0
 18 19  1  0
 19 20  2  0
  7 21  1  0
 21 22  1  0
  3 23  2  0
 23 24  1  0
 24  1  1  0
 22  4  1  0
 20  8  1  0
 17 13  1  0
  1 25  1  0
  4 26  1  0
  5 27  1  0
  5 28  1  0
  6 29  1  0
  6 30  1  0
  9 31  1  0
 12 32  1  0
 12 33  1  0
 14 34  1  0
 16 35  1  0
 18 36  1  0
 19 37  1  0
 21 38  1  0
 21 39  1  0
 22 40  1  0
 22 41  1  0
 24 42  1  0
M  END
>  <smiles>  (12) 
c1nc(C2CCN(c3cc(=NCc4cscn4)[nH]cn3)CC2)n[nH]1

>  <score_type>  (12) 
oracle

>  <origin>  (12) 
adg

>  <m_score__min__energy>  (12) 
-7.9000000000000004

>  <m_primary>  (12) 
energy

$$$$
12:0
     RDKit          3D

 36 38  0  0  0  0  0  0  0  0999 V2000
   -1.3540   20.2510  -34.5640 C   0  0  0  0  0  0  0  0  0  0  0  0
   -2.0770   20.3850  -33.2180 C   0  0  2  0  0  0  0  0  0  0  0  0
   -3.4180   20.9530  -33.3630 N   0  0  0  0  0  0  0  0  0  0  0  0
   -4.2850   21.2100  -32.4230 C   0  0  0  0  0  0  0  0  0  0  0  0
   -5.5420   20.4160  -32.3920 C   0  0  0  0  0  0  0  0  0  0  0  0
   -6.7810   21.0320  -32.6500 C   0  0  0  0  0  0  0  0  0  0  0  0
   -7.9610   20.2840  -32.6310 C   0  0  0  0  0  0  0  0  0  0  0  0
   -7.9210   18.9140  -32.3600 C   0  0  0  0  0  0  0  0  0  0  0  0
   -9.0670   18.1920  -32.3410 F   0  0  0  0  0  0  0  0  0  0  0  0
   -6.6970   18.2890  -32.1110 C   0  0  0  0  0  0  0  0  0  0  0  0
   -5.5120   19.0320  -32.1300 C   0  0  0  0  0  0  0  0  0  0  0  0
   -4.0520   22.2820  -31.4170 C   0  0  0  0  0  0  0  0  0  0  0  0
   -5.0610   23.2380  -31.1960 C   0  0  0  0  0  0  0  0  0  0  0  0
   -4.8910   24.2500  -30.2500 C   0  0  0  0  0  0  0  0  0  0  0  0
   -6.1610   25.4310  -29.9870 Cl  0  0  0  0  0  0  0  0  0  0  0  0
   -3.7070   24.3240  -29.5150 C   0  0  0  0  0  0  0  0  0  0  0  0
   -2.6930   23.3900  -29.7280 C   0  0  0  0  0  0  0  0  0  0  0  0
   -2.8480   22.3630  -30.6790 C   0  0  0  0  0  0  0  0  0  0  0  0
   -1.7790   21.4200  -30.8840 N   0  0  0  0  0  0  0  0  0  0  0  0
   -1.0360   20.9120  -29.7270 C   0  0  0  0  0  0  0  0  0  0  0  0
   -1.2760   21.1560  -32.2070 C   0  0  0  0  0  0  0  0  0  0  0  0
   -0.1330   21.5760  -32.5370 O   0  0  0  0  0  0  0  0  0  0  0  0
   -0.2863   20.0531  -34.3886 H   0  0  0  0  0  0  0  0  0  0  0  0
   -1.7923   19.4188  -35.1344 H   0  0  0  0  0  0  0  0  0  0  0  0
   -1.4649   21.1850  -35.1344 H   0  0  0  0  0  0  0  0  0  0  0  0
   -2.1881   19.3598  -32.8352 H   0  0  0  0  0  0  0  0  0  0  0  0
   -6.8206   22.1094  -32.8680 H   0  0  0  0  0  0  0  0  0  0  0  0
   -8.9248   20.7755  -32.8301 H   0  0  0  0  0  0  0  0  0  0  0  0
   -6.6648   17.2100  -31.8995 H   0  0  0  0  0  0  0  0  0  0  0  0
   -4.5507   18.5326  -31.9392 H   0  0  0  0  0  0  0  0  0  0  0  0
   -5.9945   23.1870  -31.7756 H   0  0  0  0  0  0  0  0  0  0  0  0
   -3.5732   25.1195  -28.7671 H   0  0  0  0  0  0  0  0  0  0  0  0
   -1.7617   23.4565  -29.1465 H   0  0  0  0  0  0  0  0  0  0  0  0
   -1.5259   21.2469  -28.8008 H   0  0  0  0  0  0  0  0  0  0  0  0
   -1.0192   19.8125  -29.7560 H   0  0  0  0  0  0  0  0  0  0  0  0
   -0.0054   21.2953  -29.7560 H   0  0  0  0  0  0  0  0  0  0  0  0
  1  2  1  0
  2  3  1  0
  3  4  2  0
  4  5  1  0
  5  6  2  0
  6  7  1  0
  7  8  2  0
  8  9  1  0
  8 10  1  0
 10 11  2  0
  4 12  1  0
 12 13  2  0
 13 14  1  0
 14 15  1  0
 14 16  2  0
 16 17  1  0
 17 18  2  0
 18 19  1  0
 19 20  1  0
 19 21  1  0
 21 22  2  0
 21  2  1  0
 11  5  1  0
 18 12  1  0
  1 23  1  0
  1 24  1  0
  1 25  1  0
  2 26  1  1
  6 27  1  0
  7 28  1  0
 10 29  1  0
 11 30  1  0
 13 31  1  0
 16 32  1  0
 17 33  1  0
 20 34  1  0
 20 35  1  0
 20 36  1  0
M  END
>  <UniqueID>  (13) 
11

>  <SMILES>  (13) 
C[C@@H]1N=C(c2ccc(F)cc2)c2cc(Cl)ccc2N(C)C1=O

>  <Energy>  (13) 
53.56866560253858

>  <Genealogy>  (13) 
C[C@@H]1N=C(c2ccc(F)cc2)c2cc(Cl)ccc2N(C)C1=O (chirality)
C[C@@H]1N=C(c2ccc(F)cc2)c2cc(Cl)ccc2N(C)C1=O (3D coordinates assigned)
C[C@@H]1N=C(c2ccc(F)cc2)c2cc(Cl)ccc2N(C)C1=O (nonaromatic ring conformer: 53.56866560253858 kcal/mol)

>  <smiles>  (13) 
CC1N=C(c2ccc(F)cc2)c2cc(Cl)ccc2N(C)C1=O

>  <score_type>  (13) 
oracle

>  <origin>  (13) 
adg

>  <m_score__min__energy>  (13) 
-7.46

>  <m_primary>  (13) 
energy

$$$$
13:0
     RDKit          3D

 17 17  0  0  0  0  0  0  0  0999 V2000
   -4.3290   25.6680  -30.8460 O   0  0  0  0  0  0  0  0  0  0  0  0
   -4.3300   24.4950  -30.3800 C   0  0  0  0  0  0  0  0  0  0  0  0
   -5.4000   23.5440  -30.7960 C   0  0  0  0  0  0  0  0  0  0  0  0
   -6.6020   23.4770  -30.0630 C   0  0  0  0  0  0  0  0  0  0  0  0
   -7.6180   22.5920  -30.4360 C   0  0  0  0  0  0  0  0  0  0  0  0
   -7.4510   21.7600  -31.5450 C   0  0  0  0  0  0  0  0  0  0  0  0
   -8.8400   20.5520  -32.0520 Br  0  0  0  0  0  0  0  0  0  0  0  0
   -6.2660   21.8140  -32.2810 C   0  0  0  0  0  0  0  0  0  0  0  0
   -5.2470   22.6970  -31.9130 C   0  0  0  0  0  0  0  0  0  0  0  0
   -3.2370   24.1160  -29.4210 C   0  0  0  0  0  0  0  0  0  0  0  0
   -2.3640   25.1740  -29.2530 F   0  0  0  0  0  0  0  0  0  0  0  0
   -2.5530   23.0100  -29.8920 F   0  0  0  0  0  0  0  0  0  0  0  0
   -6.7423   24.1283  -29.1877 H   0  0  0  0  0  0  0  0  0  0  0  0
   -8.5509   22.5510  -29.8546 H   0  0  0  0  0  0  0  0  0  0  0  0
   -6.1336   21.1587  -33.1545 H   0  0  0  0  0  0  0  0  0  0  0  0
   -4.3173   22.7315  -32.5000 H   0  0  0  0  0  0  0  0  0  0  0  0
   -3.6892   23.8687  -28.4492 H   0  0  0  0  0  0  0  0  0  0  0  0
  1  2  2  0
  2  3  1  0
  3  4  2  0
  4  5  1  0
  5  6  2  0
  6  7  1  0
  6  8  1  0
  8  9  2  0
  2 10  1  0
 10 11  1  0
 10 12  1  0
  9  3  1  0
  4 13  1  0
  5 14  1  0
  8 15  1  0
  9 16  1  0
 10 17  1  0
M  END
>  <UniqueID>  (14) 
12

>  <SMILES>  (14) 
O=C(c1ccc(Br)cc1)C(F)F

>  <Energy>  (14) 
16.51056456367295

>  <Genealogy>  (14) 
O=C(c1ccc(Br)cc1)C(F)F (3D coordinates assigned)
O=C(c1ccc(Br)cc1)C(F)F (optimized conformer: 16.51056456367295 kcal/mol)

>  <smiles>  (14) 
O=C(c1ccc(Br)cc1)C(F)F

>  <score_type>  (14) 
oracle

>  <origin>  (14) 
adg

>  <m_score__min__energy>  (14) 
-5.6399999999999997

>  <m_primary>  (14) 
energy

$$$$
14:0
     RDKit          3D

 31 33  0  0  0  0  0  0  0  0999 V2000
   -1.8450   24.6360  -27.9840 C   0  0  0  0  0  0  0  0  0  0  0  0
   -1.8810   24.2450  -29.3510 O   0  0  0  0  0  0  0  0  0  0  0  0
   -2.5630   23.1080  -29.7960 C   0  0  0  0  0  0  0  0  0  0  0  0
   -2.1580   21.7910  -29.7050 C   0  0  0  0  0  0  0  0  0  0  0  0
   -3.0940   21.0080  -30.2750 N   0  0  0  0  0  0  0  0  0  0  0  0
   -4.0750   21.7870  -30.7150 N   0  0  0  0  0  0  0  0  0  0  0  0
   -5.2620   21.2570  -31.3220 C   0  0  0  0  0  0  0  0  0  0  0  0
   -5.1760   20.3650  -32.4190 C   0  0  0  0  0  0  0  0  0  0  0  0
   -6.3440   19.8810  -33.0300 C   0  0  0  0  0  0  0  0  0  0  0  0
   -7.5760   20.3130  -32.5380 C   0  0  0  0  0  0  0  0  0  0  0  0
   -7.6650   21.1780  -31.5080 C   0  0  0  0  0  0  0  0  0  0  0  0
   -6.5290   21.6840  -30.8740 C   0  0  0  0  0  0  0  0  0  0  0  0
   -9.0840   21.4510  -31.2350 C   0  0  0  0  0  0  0  0  0  0  0  0
   -9.8430   20.6900  -32.1680 O   0  0  0  0  0  0  0  0  0  0  0  0
   -8.9340   19.9740  -32.9950 C   0  0  0  0  0  0  0  0  0  0  0  0
   -3.7810   23.0840  -30.4430 C   0  0  0  0  0  0  0  0  0  0  0  0
   -4.5560   24.2690  -30.8670 C   0  0  0  0  0  0  0  0  0  0  0  0
   -4.1990   25.5630  -30.3870 N   0  0  0  0  0  0  0  0  0  0  0  0
   -5.5130   24.1530  -31.6770 O   0  0  0  0  0  0  0  0  0  0  0  0
   -1.9271   23.7442  -27.3453 H   0  0  0  0  0  0  0  0  0  0  0  0
   -0.8957   25.1507  -27.7747 H   0  0  0  0  0  0  0  0  0  0  0  0
   -2.6844   25.3154  -27.7747 H   0  0  0  0  0  0  0  0  0  0  0  0
   -1.2240   21.4390  -29.2427 H   0  0  0  0  0  0  0  0  0  0  0  0
   -4.1908   20.0503  -32.7936 H   0  0  0  0  0  0  0  0  0  0  0  0
   -6.2890   19.1790  -33.8751 H   0  0  0  0  0  0  0  0  0  0  0  0
   -6.6201   22.3997  -30.0436 H   0  0  0  0  0  0  0  0  0  0  0  0
   -9.3357   21.1486  -30.2078 H   0  0  0  0  0  0  0  0  0  0  0  0
   -9.3027   22.5244  -31.3349 H   0  0  0  0  0  0  0  0  0  0  0  0
   -9.1063   18.8920  -32.8969 H   0  0  0  0  0  0  0  0  0  0  0  0
   -9.0705   20.2435  -34.0527 H   0  0  0  0  0  0  0  0  0  0  0  0
   -3.4860   25.6780  -29.6330 H   0  0  0  0  0  0  0  0  0  0  0  0
  1  2  1  0
  2  3  1  0
  3  4  1  0
  4  5  2  0
  5  6  1  0
  6  7  1  0
  7  8  2  0
  8  9  1  0
  9 10  2  0
 10 11  1  0
 11 12  2  0
 11 13  1  0
 13 14  1  0
 14 15  1  0
  6 16  1  0
 16 17  1  0
 17 18  1  0
 17 19  2  0
 16  3  2  0
 12  7  1  0
 15 10  1  0
  1 20  1  0
  1 21  1  0
  1 22  1  0
  4 23  1  0
  8 24  1  0
  9 25  1  0
 12 26  1  0
 13 27  1  0
 13 28  1  0
 15 29  1  0
 15 30  1  0
 18 31  1  0
M  CHG  1  18  -1
M  END
>  <UniqueID>  (15) 
13

>  <SMILES>  (15) 
COc1cnn(-c2ccc3c(c2)COC3)c1C([NH-])=O

>  <Energy>  (15) 
79.98686913919578

>  <Genealogy>  (15) 
COc1cnn(-c2ccc3c(c2)COC3)c1C([NH-])=O (protonated)
COc1cnn(-c2ccc3c(c2)COC3)c1C([NH-])=O (3D coordinates assigned)
COc1cnn(-c2ccc3c(c2)COC3)c1C([NH-])=O (nonaromatic ring conformer: 79.98686913919578 kcal/mol)

>  <smiles>  (15) 
COc1cnn(-c2ccc3c(c2)COC3)c1C(N)=O

>  <score_type>  (15) 
oracle

>  <origin>  (15) 
adg

>  <m_score__min__energy>  (15) 
-8.5999999999999996

>  <m_primary>  (15) 
energy

$$$$
15:0
     RDKit          3D

 23 24  0  0  0  0  0  0  0  0999 V2000
   -1.7870   22.6950  -29.4400 C   0  0  0  0  0  0  0  0  0  0  0  0
   -1.7800   23.9690  -28.8750 C   0  0  0  0  0  0  0  0  0  0  0  0
   -2.6290   24.9210  -29.3400 N   0  0  0  0  0  0  0  0  0  0  0  0
   -3.4960   24.6540  -30.3570 C   0  0  0  0  0  0  0  0  0  0  0  0
   -4.3080   25.5660  -30.8040 N   0  0  0  0  0  0  0  0  0  0  0  0
   -5.7410   25.6230  -30.5140 C   0  0  0  0  0  0  0  0  0  0  0  0
   -6.3910   24.2940  -30.7930 C   0  0  0  0  0  0  0  0  0  0  0  0
   -6.9490   23.5360  -29.7530 C   0  0  0  0  0  0  0  0  0  0  0  0
   -7.5610   22.3150  -30.0440 C   0  0  0  0  0  0  0  0  0  0  0  0
   -7.6160   21.8670  -31.3270 N   0  0  0  0  0  0  0  0  0  0  0  0
   -7.0840   22.5820  -32.3540 C   0  0  0  0  0  0  0  0  0  0  0  0
   -6.4640   23.8090  -32.1070 C   0  0  0  0  0  0  0  0  0  0  0  0
   -3.5140   23.4150  -30.9170 N   0  0  0  0  0  0  0  0  0  0  0  0
   -2.6790   22.4360  -30.4790 C   0  0  0  0  0  0  0  0  0  0  0  0
   -1.1051   21.9129  -29.0748 H   0  0  0  0  0  0  0  0  0  0  0  0
   -1.0873   24.2030  -28.0531 H   0  0  0  0  0  0  0  0  0  0  0  0
   -5.8855   25.8808  -29.4545 H   0  0  0  0  0  0  0  0  0  0  0  0
   -6.2031   26.3860  -31.1576 H   0  0  0  0  0  0  0  0  0  0  0  0
   -6.9048   23.9006  -28.7161 H   0  0  0  0  0  0  0  0  0  0  0  0
   -7.9996   21.7141  -29.2337 H   0  0  0  0  0  0  0  0  0  0  0  0
   -7.1420   22.1933  -33.3814 H   0  0  0  0  0  0  0  0  0  0  0  0
   -6.0362   24.3906  -32.9369 H   0  0  0  0  0  0  0  0  0  0  0  0
   -2.7073   21.4397  -30.9444 H   0  0  0  0  0  0  0  0  0  0  0  0
  1  2  1  0
  2  3  2  0
  3  4  1  0
  4  5  2  3
  5  6  1  0
  6  7  1  0
  7  8  2  0
  8  9  1  0
  9 10  2  0
 10 11  1  0
 11 12  2  0
  4 13  1  0
 13 14  1  0
 14  1  2  0
 12  7  1  0
  1 15  1  0
  2 16  1  0
  6 17  1  0
  6 18  1  0
  8 19  1  0
  9 20  1  0
 11 21  1  0
 12 22  1  0
 14 23  1  0
M  CHG  1  13  -1
M  END
>  <UniqueID>  (16) 
14

>  <SMILES>  (16) 
c1cnc(=NCc2ccncc2)[n-]c1

>  <Energy>  (16) 
24.83622178629781

>  <Genealogy>  (16) 
c1cnc(=NCc2ccncc2)[n-]c1 (protonated)
c1cnc(=NCc2ccncc2)[n-]c1 (3D coordinates assigned)
c1cnc(=NCc2ccncc2)[n-]c1 (optimized conformer: 24.83622178629781 kcal/mol)

>  <smiles>  (16) 
c1cnc(=NCc2ccncc2)[nH]c1

>  <score_type>  (16) 
oracle

>  <origin>  (16) 
adg

>  <m_score__min__energy>  (16) 
-6.6600000000000001

>  <m_primary>  (16) 
energy

$$$$
16:0
     RDKit          3D

 25 26  0  0  0  0  0  0  0  0999 V2000
   -9.1771   22.3780  -32.4675 H   0  0  0  0  0  0  0  0  0  0  0  0
   -8.2490   22.6960  -31.9700 C   0  0  0  0  0  0  0  0  0  0  0  0
   -8.0220   22.3600  -30.6340 C   0  0  0  0  0  0  0  0  0  0  0  0
   -8.7717   21.7761  -30.0799 H   0  0  0  0  0  0  0  0  0  0  0  0
   -6.8440   22.7640  -29.9990 C   0  0  0  0  0  0  0  0  0  0  0  0
   -6.6713   22.4946  -28.9466 H   0  0  0  0  0  0  0  0  0  0  0  0
   -5.8770   23.5130  -30.6960 C   0  0  0  0  0  0  0  0  0  0  0  0
   -4.6320   23.9340  -30.0080 C   0  0  0  0  0  0  0  0  0  0  0  0
   -3.8040   24.8910  -30.4810 N   0  0  0  0  0  0  0  0  0  0  0  0
   -2.7900   25.0080  -29.6410 N   0  0  0  0  0  0  0  0  0  0  0  0
   -1.9940   25.6730  -29.7700 H   0  0  0  0  0  0  0  0  0  0  0  0
   -2.9560   24.1450  -28.6280 C   0  0  0  0  0  0  0  0  0  0  0  0
   -2.0890   24.0070  -27.6670 N   0  0  0  0  0  0  0  0  0  0  0  0
   -0.9530   24.8430  -27.4070 C   0  0  0  0  0  0  0  0  0  0  0  0
   -0.3490   25.3670  -28.3800 O   0  0  0  0  0  0  0  0  0  0  0  0
   -0.5070   25.1650  -26.0090 C   0  0  0  0  0  0  0  0  0  0  0  0
   -0.5310   24.2487  -25.4009 H   0  0  0  0  0  0  0  0  0  0  0  0
    0.5157   25.5684  -26.0450 H   0  0  0  0  0  0  0  0  0  0  0  0
   -1.5830   26.3830  -25.2780 Cl  0  0  0  0  0  0  0  0  0  0  0  0
   -4.1210   23.4230  -28.8210 C   0  0  0  0  0  0  0  0  0  0  0  0
   -4.5430   22.6312  -28.1847 H   0  0  0  0  0  0  0  0  0  0  0  0
   -6.1180   23.8440  -32.0440 C   0  0  0  0  0  0  0  0  0  0  0  0
   -5.3730   24.4277  -32.6046 H   0  0  0  0  0  0  0  0  0  0  0  0
   -7.2970   23.4360  -32.6740 C   0  0  0  0  0  0  0  0  0  0  0  0
   -7.4754   23.6986  -33.7272 H   0  0  0  0  0  0  0  0  0  0  0  0
  1  2  1  0
  2  3  2  0
  3  4  1  0
  3  5  1  0
  5  6  1  0
  5  7  2  0
  7  8  1  0
  8  9  1  0
  9 10  1  0
 10 11  1  0
 10 12  1  0
 12 13  2  0
 13 14  1  0
 14 15  2  0
 14 16  1  0
 16 17  1  0
 16 18  1  0
 16 19  1  0
 12 20  1  0
 20 21  1  0
  7 22  1  0
 22 23  1  0
 22 24  2  0
 24 25  1  0
 24  2  1  0
 20  8  2  0
M  CHG  1   9  -1
M  END
>  <UniqueID>  (17) 
15

>  <SMILES>  (17) 
O=C(CCl)/N=c1\cc(-c2ccccc2)[n-][nH]1

>  <Energy>  (17) 
63.196442961239306

>  <Genealogy>  (17) 
O=C(CCl)N=c1cc(-c2ccccc2)[n-][nH]1 (protonated)
O=C(CCl)/N=c1\cc(-c2ccccc2)[n-][nH]1 (cis-trans isomerization)
O=C(CCl)/N=c1\cc(-c2ccccc2)[n-][nH]1 (3D coordinates assigned)
O=C(CCl)/N=c1\cc(-c2ccccc2)[n-][nH]1 (optimized conformer: 63.196442961239306 kcal/mol)

>  <smiles>  (17) 
O=C(CCl)N=c1cc(-c2ccccc2)[nH][nH]1

>  <score_type>  (17) 
oracle

>  <origin>  (17) 
adg

>  <m_score__min__energy>  (17) 
-8.4800000000000004

>  <m_primary>  (17) 
energy

$$$$
17:0
     RDKit          3D

 49 52  0  0  0  0  0  0  0  0999 V2000
    4.0560   20.9090  -37.1590 C   0  0  0  0  0  0  0  0  0  0  0  0
    2.7900   21.5070  -36.8990 O   0  0  0  0  0  0  0  0  0  0  0  0
    1.9870   21.2100  -35.7890 C   0  0  0  0  0  0  0  0  0  0  0  0
    2.5280   20.4210  -34.7680 C   0  0  0  0  0  0  0  0  0  0  0  0
    1.7680   20.0990  -33.6400 C   0  0  0  0  0  0  0  0  0  0  0  0
    0.4500   20.5670  -33.5130 C   0  0  0  0  0  0  0  0  0  0  0  0
   -0.3450   20.2120  -32.3650 N   0  0  0  0  0  0  0  0  0  0  0  0
   -1.5700   19.4140  -32.5000 C   0  0  0  0  0  0  0  0  0  0  0  0
   -2.7680   20.1540  -31.8700 C   0  0  0  0  0  0  0  0  0  0  0  0
   -2.3430   21.2220  -30.9370 N   0  0  0  0  0  0  0  0  0  0  0  0
   -3.4720   21.6700  -30.1040 C   0  0  0  0  0  0  0  0  0  0  0  0
   -3.8470   23.0850  -30.4410 C   0  0  0  0  0  0  0  0  0  0  0  0
   -3.1280   24.2200  -30.1330 C   0  0  0  0  0  0  0  0  0  0  0  0
   -3.8450   25.3060  -30.4770 N   0  0  0  0  0  0  0  0  0  0  0  0
   -4.9990   24.9070  -30.9930 N   0  0  0  0  0  0  0  0  0  0  0  0
   -5.0240   23.5610  -30.9920 C   0  0  0  0  0  0  0  0  0  0  0  0
   -6.1790   22.7720  -31.4520 C   0  0  0  0  0  0  0  0  0  0  0  0
   -7.4790   23.1840  -31.1240 C   0  0  0  0  0  0  0  0  0  0  0  0
   -8.5830   22.4460  -31.5640 C   0  0  0  0  0  0  0  0  0  0  0  0
   -8.3950   21.3030  -32.3460 C   0  0  0  0  0  0  0  0  0  0  0  0
   -7.1040   20.9000  -32.6960 C   0  0  0  0  0  0  0  0  0  0  0  0
   -5.9980   21.6340  -32.2570 C   0  0  0  0  0  0  0  0  0  0  0  0
   -1.1930   20.7900  -30.1200 C   0  0  0  0  0  0  0  0  0  0  0  0
    0.0400   20.6820  -31.0260 C   0  0  0  0  0  0  0  0  0  0  0  0
   -0.0980   21.3500  -34.5410 C   0  0  0  0  0  0  0  0  0  0  0  0
    0.6640   21.6750  -35.6680 C   0  0  0  0  0  0  0  0  0  0  0  0
    4.5532   20.6742  -36.2063 H   0  0  0  0  0  0  0  0  0  0  0  0
    3.9128   19.9834  -37.7358 H   0  0  0  0  0  0  0  0  0  0  0  0
    4.6800   21.6076  -37.7358 H   0  0  0  0  0  0  0  0  0  0  0  0
    3.5603   20.0509  -34.8538 H   0  0  0  0  0  0  0  0  0  0  0  0
    2.2051   19.4750  -32.8466 H   0  0  0  0  0  0  0  0  0  0  0  0
   -1.7727   19.2393  -33.5670 H   0  0  0  0  0  0  0  0  0  0  0  0
   -1.4297   18.4553  -31.9792 H   0  0  0  0  0  0  0  0  0  0  0  0
   -3.3674   20.6053  -32.6744 H   0  0  0  0  0  0  0  0  0  0  0  0
   -3.3523   19.4196  -31.2962 H   0  0  0  0  0  0  0  0  0  0  0  0
   -4.3366   21.0141  -30.2834 H   0  0  0  0  0  0  0  0  0  0  0  0
   -3.1733   21.6239  -29.0463 H   0  0  0  0  0  0  0  0  0  0  0  0
   -2.1266   24.2358  -29.6780 H   0  0  0  0  0  0  0  0  0  0  0  0
   -7.6309   24.0901  -30.5190 H   0  0  0  0  0  0  0  0  0  0  0  0
   -9.6003   22.7657  -31.2942 H   0  0  0  0  0  0  0  0  0  0  0  0
   -9.2639   20.7205  -32.6860 H   0  0  0  0  0  0  0  0  0  0  0  0
   -6.9575   20.0043  -33.3176 H   0  0  0  0  0  0  0  0  0  0  0  0
   -4.9831   21.3200  -32.5424 H   0  0  0  0  0  0  0  0  0  0  0  0
   -1.0053   21.5274  -29.3256 H   0  0  0  0  0  0  0  0  0  0  0  0
   -1.4060   19.8144  -29.6586 H   0  0  0  0  0  0  0  0  0  0  0  0
    0.5140   21.6709  -31.1118 H   0  0  0  0  0  0  0  0  0  0  0  0
    0.7441   19.9613  -30.5846 H   0  0  0  0  0  0  0  0  0  0  0  0
   -1.1340   21.7106  -34.4597 H   0  0  0  0  0  0  0  0  0  0  0  0
    0.2273   22.2968  -36.4634 H   0  0  0  0  0  0  0  0  0  0  0  0
  1  2  1  0
  2  3  1  0
  3  4  2  0
  4  5  1  0
  5  6  2  0
  6  7  1  0
  7  8  1  0
  8  9  1  0
  9 10  1  0
 10 11  1  0
 11 12  1  0
 12 13  2  0
 13 14  1  0
 14 15  1  0
 15 16  2  0
 16 17  1  0
 17 18  2  0
 18 19  1  0
 19 20  2  0
 20 21  1  0
 21 22  2  0
 10 23  1  0
 23 24  1  0
  6 25  1  0
 25 26  2  0
 26  3  1  0
 24  7  1  0
 16 12  1  0
 22 17  1  0
  1 27  1  0
  1 28  1  0
  1 29  1  0
  4 30  1  0
  5 31  1  0
  8 32  1  0
  8 33  1  0
  9 34  1  0
  9 35  1  0
 11 36  1  0
 11 37  1  0
 13 38  1  0
 18 39  1  0
 19 40  1  0
 20 41  1  0
 21 42  1  0
 22 43  1  0
 23 44  1  0
 23 45  1  0
 24 46  1  0
 24 47  1  0
 25 48  1  0
 26 49  1  0
M  CHG  1  14  -1
M  END
>  <UniqueID>  (18) 
16

>  <SMILES>  (18) 
COc1ccc(N2CCN(Cc3c[n-]nc3-c3ccccc3)CC2)cc1

>  <Energy>  (18) 
94.65577417602496

>  <Genealogy>  (18) 
COc1ccc(N2CCN(Cc3c[n-]nc3-c3ccccc3)CC2)cc1 (protonated)
COc1ccc(N2CCN(Cc3c[n-]nc3-c3ccccc3)CC2)cc1 (3D coordinates assigned)
COc1ccc(N2CCN(Cc3c[n-]nc3-c3ccccc3)CC2)cc1 (nonaromatic ring conformer: 94.65577417602496 kcal/mol)

>  <smiles>  (18) 
COc1ccc(N2CCN(Cc3c[nH]nc3-c3ccccc3)CC2)cc1

>  <score_type>  (18) 
oracle

>  <origin>  (18) 
adg

>  <m_score__min__energy>  (18) 
-10.289999999999999

>  <m_primary>  (18) 
energy

$$$$
18:0
     RDKit          3D

 45 47  0  0  0  0  0  0  0  0999 V2000
   -7.6510   18.0230  -31.5990 C   0  0  0  0  0  0  0  0  0  0  0  0
   -8.7500   19.0820  -31.5590 C   0  0  0  0  0  0  0  0  0  0  0  0
   -8.6640   20.0560  -32.7420 C   0  0  0  0  0  0  0  0  0  0  0  0
   -7.3600   20.7170  -32.7900 N   0  0  0  0  0  0  0  0  0  0  0  0
   -6.1960   20.2560  -33.3250 C   0  0  0  0  0  0  0  0  0  0  0  0
   -6.0980   19.1520  -33.9260 O   0  0  0  0  0  0  0  0  0  0  0  0
   -5.1430   21.0950  -33.1220 N   0  0  0  0  0  0  0  0  0  0  0  0
   -3.7360   20.8770  -33.4530 C   0  0  0  0  0  0  0  0  0  0  0  0
   -2.8680   21.0680  -32.2150 C   0  0  0  0  0  0  0  0  0  0  0  0
   -5.6780   22.1030  -32.4090 C   0  0  0  0  0  0  0  0  0  0  0  0
   -5.0450   23.1710  -31.8730 N   0  0  0  0  0  0  0  0  0  0  0  0
   -5.7800   24.0570  -31.1290 C   0  0  0  0  0  0  0  0  0  0  0  0
   -5.1140   25.2320  -30.5380 C   0  0  0  0  0  0  0  0  0  0  0  0
   -5.8110   26.1850  -30.0950 O   0  0  0  0  0  0  0  0  0  0  0  0
   -3.6860   25.2940  -30.4660 N   0  0  0  0  0  0  0  0  0  0  0  0
   -2.8460   24.1690  -30.0730 C   0  0  0  0  0  0  0  0  0  0  0  0
   -2.1860   24.4450  -28.7450 C   0  0  0  0  0  0  0  0  0  0  0  0
   -1.4610   25.6360  -28.5640 C   0  0  0  0  0  0  0  0  0  0  0  0
   -0.8260   25.9020  -27.3480 C   0  0  0  0  0  0  0  0  0  0  0  0
   -0.9050   24.9810  -26.3020 C   0  0  0  0  0  0  0  0  0  0  0  0
   -1.6180   23.7920  -26.4680 C   0  0  0  0  0  0  0  0  0  0  0  0
   -2.2580   23.5160  -27.6840 C   0  0  0  0  0  0  0  0  0  0  0  0
   -3.1350   21.9970  -27.8420 Cl  0  0  0  0  0  0  0  0  0  0  0  0
   -7.1710   23.8190  -30.9290 C   0  0  0  0  0  0  0  0  0  0  0  0
   -7.7670   22.7150  -31.4740 N   0  0  0  0  0  0  0  0  0  0  0  0
   -7.0010   21.8790  -32.2130 C   0  0  0  0  0  0  0  0  0  0  0  0
   -7.3675   17.7498  -30.5719 H   0  0  0  0  0  0  0  0  0  0  0  0
   -8.0200   17.1313  -32.1270 H   0  0  0  0  0  0  0  0  0  0  0  0
   -6.7736   18.4248  -32.1270 H   0  0  0  0  0  0  0  0  0  0  0  0
   -9.7276   18.5784  -31.5858 H   0  0  0  0  0  0  0  0  0  0  0  0
   -8.6230   19.6639  -30.6342 H   0  0  0  0  0  0  0  0  0  0  0  0
   -8.8182   19.4984  -33.6776 H   0  0  0  0  0  0  0  0  0  0  0  0
   -9.4399   20.8255  -32.6164 H   0  0  0  0  0  0  0  0  0  0  0  0
   -3.6066   19.8528  -33.8329 H   0  0  0  0  0  0  0  0  0  0  0  0
   -3.4312   21.6037  -34.2205 H   0  0  0  0  0  0  0  0  0  0  0  0
   -3.4820   20.9329  -31.3123 H   0  0  0  0  0  0  0  0  0  0  0  0
   -2.0548   20.3273  -32.2195 H   0  0  0  0  0  0  0  0  0  0  0  0
   -2.4408   22.0816  -32.2195 H   0  0  0  0  0  0  0  0  0  0  0  0
   -3.4670   23.2650  -29.9883 H   0  0  0  0  0  0  0  0  0  0  0  0
   -2.0667   24.0218  -30.8353 H   0  0  0  0  0  0  0  0  0  0  0  0
   -1.3931   26.3639  -29.3859 H   0  0  0  0  0  0  0  0  0  0  0  0
   -0.2635   26.8379  -27.2149 H   0  0  0  0  0  0  0  0  0  0  0  0
   -0.4047   25.1923  -25.3454 H   0  0  0  0  0  0  0  0  0  0  0  0
   -1.6776   23.0690  -25.6411 H   0  0  0  0  0  0  0  0  0  0  0  0
   -7.7677   24.5260  -30.3339 H   0  0  0  0  0  0  0  0  0  0  0  0
  1  2  1  0
  2  3  1  0
  3  4  1  0
  4  5  1  0
  5  6  2  0
  5  7  1  0
  7  8  1  0
  8  9  1  0
  7 10  1  0
 10 11  2  0
 11 12  1  0
 12 13  1  0
 13 14  2  0
 13 15  1  0
 15 16  1  0
 16 17  1  0
 17 18  2  0
 18 19  1  0
 19 20  2  0
 20 21  1  0
 21 22  2  0
 22 23  1  0
 12 24  2  0
 24 25  1  0
 25 26  2  0
 26  4  1  0
 26 10  1  0
 22 17  1  0
  1 27  1  0
  1 28  1  0
  1 29  1  0
  2 30  1  0
  2 31  1  0
  3 32  1  0
  3 33  1  0
  8 34  1  0
  8 35  1  0
  9 36  1  0
  9 37  1  0
  9 38  1  0
 16 39  1  0
 16 40  1  0
 18 41  1  0
 19 42  1  0
 20 43  1  0
 21 44  1  0
 24 45  1  0
M  CHG  1  15  -1
M  END
>  <UniqueID>  (19) 
17

>  <SMILES>  (19) 
CCCn1c(=O)n(CC)c2nc(C(=O)[N-]Cc3ccccc3Cl)cnc21

>  <Energy>  (19) 
82.56895711503411

>  <Genealogy>  (19) 
CCCn1c(=O)n(CC)c2nc(C(=O)[N-]Cc3ccccc3Cl)cnc21 (protonated)
CCCn1c(=O)n(CC)c2nc(C(=O)[N-]Cc3ccccc3Cl)cnc21 (3D coordinates assigned)
CCCn1c(=O)n(CC)c2nc(C(=O)[N-]Cc3ccccc3Cl)cnc21 (optimized conformer: 82.56895711503411 kcal/mol)

>  <smiles>  (19) 
CCCn1c(=O)n(CC)c2nc(C(=O)NCc3ccccc3Cl)cnc21

>  <score_type>  (19) 
oracle

>  <origin>  (19) 
adg

>  <m_score__min__energy>  (19) 
-10.25

>  <m_primary>  (19) 
energy

$$$$
19:0
     RDKit          3D

 57 58  0  0  0  0  0  0  0  0999 V2000
   -2.7550   14.8200  -36.5790 C   0  0  0  0  0  0  0  0  0  0  0  0
   -2.2790   15.1690  -35.1650 C   0  0  0  0  0  0  0  0  0  0  0  0
   -3.1610   16.1530  -34.4830 N   0  0  0  0  0  0  0  0  0  0  0  0
   -2.6010   17.5360  -34.4920 C   0  0  0  0  0  0  0  0  0  0  0  0
   -2.5990   18.1760  -33.0990 C   0  0  0  0  0  0  0  0  0  0  0  0
   -3.5250   15.7010  -33.1110 C   0  0  0  0  0  0  0  0  0  0  0  0
   -4.9200   15.0400  -32.9620 C   0  0  0  0  0  0  0  0  0  0  0  0
   -5.6190   14.8830  -34.2590 N   0  0  0  0  0  0  0  0  0  0  0  0
   -5.8630   13.4570  -34.5480 C   0  0  0  0  0  0  0  0  0  0  0  0
   -6.9040   15.6170  -34.2680 C   0  0  0  0  0  0  0  0  0  0  0  0
   -6.7260   16.9850  -33.6670 C   0  0  0  0  0  0  0  0  0  0  0  0
   -5.9840   17.9570  -34.3530 C   0  0  0  0  0  0  0  0  0  0  0  0
   -5.7290   19.1980  -33.7640 C   0  0  0  0  0  0  0  0  0  0  0  0
   -6.2150   19.4890  -32.4770 C   0  0  0  0  0  0  0  0  0  0  0  0
   -5.9080   20.7900  -31.8330 C   0  0  0  0  0  0  0  0  0  0  0  0
   -6.9340   21.5690  -31.2690 C   0  0  0  0  0  0  0  0  0  0  0  0
   -6.6440   22.7980  -30.6700 C   0  0  0  0  0  0  0  0  0  0  0  0
   -5.3240   23.2660  -30.6220 C   0  0  0  0  0  0  0  0  0  0  0  0
   -4.9620   24.8230  -29.8850 S   0  0  0  0  0  0  0  0  0  0  0  0
   -6.4820   25.6520  -29.4820 C   0  0  0  0  0  0  0  0  0  0  0  0
   -4.1540   24.6180  -28.6340 O   0  0  0  0  0  0  0  0  0  0  0  0
   -4.1670   25.6660  -30.8410 O   0  0  0  0  0  0  0  0  0  0  0  0
   -4.2990   22.5000  -31.1900 C   0  0  0  0  0  0  0  0  0  0  0  0
   -4.5860   21.2700  -31.7890 C   0  0  0  0  0  0  0  0  0  0  0  0
   -6.9820   18.5220  -31.8030 C   0  0  0  0  0  0  0  0  0  0  0  0
   -7.2360   17.2810  -32.3940 C   0  0  0  0  0  0  0  0  0  0  0  0
   -3.6407   14.1706  -36.5179 H   0  0  0  0  0  0  0  0  0  0  0  0
   -3.0141   15.7437  -37.1171 H   0  0  0  0  0  0  0  0  0  0  0  0
   -1.9519   14.2951  -37.1171 H   0  0  0  0  0  0  0  0  0  0  0  0
   -2.2531   14.2468  -34.5659 H   0  0  0  0  0  0  0  0  0  0  0  0
   -1.2829   15.6266  -35.2560 H   0  0  0  0  0  0  0  0  0  0  0  0
   -4.0700   16.1540  -35.0060 H   0  0  0  0  0  0  0  0  0  0  0  0
   -1.5664   17.4955  -34.8634 H   0  0  0  0  0  0  0  0  0  0  0  0
   -3.2396   18.1517  -35.1425 H   0  0  0  0  0  0  0  0  0  0  0  0
   -2.6015   17.3867  -32.3328 H   0  0  0  0  0  0  0  0  0  0  0  0
   -1.6989   18.7975  -32.9823 H   0  0  0  0  0  0  0  0  0  0  0  0
   -3.4952   18.8031  -32.9823 H   0  0  0  0  0  0  0  0  0  0  0  0
   -2.7697   14.9705  -32.7856 H   0  0  0  0  0  0  0  0  0  0  0  0
   -3.5615   16.6133  -32.4975 H   0  0  0  0  0  0  0  0  0  0  0  0
   -4.7920   14.0461  -32.5085 H   0  0  0  0  0  0  0  0  0  0  0  0
   -5.5344   15.6987  -32.3306 H   0  0  0  0  0  0  0  0  0  0  0  0
   -5.9579   12.9023  -33.6028 H   0  0  0  0  0  0  0  0  0  0  0  0
   -6.7918   13.3542  -35.1283 H   0  0  0  0  0  0  0  0  0  0  0  0
   -5.0212   13.0512  -35.1283 H   0  0  0  0  0  0  0  0  0  0  0  0
   -7.2569   15.7189  -35.3049 H   0  0  0  0  0  0  0  0  0  0  0  0
   -7.6410   15.0572  -33.6735 H   0  0  0  0  0  0  0  0  0  0  0  0
   -5.6003   17.7412  -35.3611 H   0  0  0  0  0  0  0  0  0  0  0  0
   -5.1442   19.9524  -34.3107 H   0  0  0  0  0  0  0  0  0  0  0  0
   -7.9727   21.2083  -31.2995 H   0  0  0  0  0  0  0  0  0  0  0  0
   -7.4550   23.4002  -30.2346 H   0  0  0  0  0  0  0  0  0  0  0  0
   -6.5891   25.7104  -28.3888 H   0  0  0  0  0  0  0  0  0  0  0  0
   -6.4687   26.6678  -29.9039 H   0  0  0  0  0  0  0  0  0  0  0  0
   -7.3288   25.0908  -29.9039 H   0  0  0  0  0  0  0  0  0  0  0  0
   -3.2626   22.8679  -31.1648 H   0  0  0  0  0  0  0  0  0  0  0  0
   -3.7731   20.6735  -32.2288 H   0  0  0  0  0  0  0  0  0  0  0  0
   -7.3849   18.7438  -30.8037 H   0  0  0  0  0  0  0  0  0  0  0  0
   -7.8387   16.5328  -31.8583 H   0  0  0  0  0  0  0  0  0  0  0  0
  1  2  1  0
  2  3  1  0
  3  4  1  0
  4  5  1  0
  3  6  1  0
  6  7  1  0
  7  8  1  0
  8  9  1  0
  8 10  1  0
 10 11  1  0
 11 12  2  0
 12 13  1  0
 13 14  2  0
 14 15  1  0
 15 16  2  0
 16 17  1  0
 17 18  2  0
 18 19  1  0
 19 20  1  0
 19 21  2  0
 19 22  2  0
 18 23  1  0
 23 24  2  0
 14 25  1  0
 25 26  2  0
 26 11  1  0
 24 15  1  0
  1 27  1  0
  1 28  1  0
  1 29  1  0
  2 30  1  0
  2 31  1  0
  3 32  1  0
  4 33  1  0
  4 34  1  0
  5 35  1  0
  5 36  1  0
  5 37  1  0
  6 38  1  0
  6 39  1  0
  7 40  1  0
  7 41  1  0
  9 42  1  0
  9 43  1  0
  9 44  1  0
 10 45  1  0
 10 46  1  0
 12 47  1  0
 13 48  1  0
 16 49  1  0
 17 50  1  0
 20 51  1  0
 20 52  1  0
 20 53  1  0
 23 54  1  0
 24 55  1  0
 25 56  1  0
 26 57  1  0
M  CHG  1   3   1
M  END
>  <UniqueID>  (20) 
18

>  <SMILES>  (20) 
CC[NH+](CC)CCN(C)Cc1ccc(-c2ccc(S(C)(=O)=O)cc2)cc1

>  <Energy>  (20) 
61.70767573369862

>  <Genealogy>  (20) 
CC[NH+](CC)CCN(C)Cc1ccc(-c2ccc(S(C)(=O)=O)cc2)cc1 (protonated)
CC[NH+](CC)CCN(C)Cc1ccc(-c2ccc(S(C)(=O)=O)cc2)cc1 (3D coordinates assigned)
CC[NH+](CC)CCN(C)Cc1ccc(-c2ccc(S(C)(=O)=O)cc2)cc1 (optimized conformer: 61.70767573369862 kcal/mol)

>  <smiles>  (20) 
CCN(CC)CCN(C)Cc1ccc(-c2ccc(S(C)(=O)=O)cc2)cc1

>  <score_type>  (20) 
oracle

>  <origin>  (20) 
adg

>  <m_score__min__energy>  (20) 
-7.6500000000000004

>  <m_primary>  (20) 
energy

$$$$
20:0
     RDKit          3D

 23 23  0  0  0  0  0  0  0  0999 V2000
   -6.2920   19.1140  -32.6670 C   0  0  0  0  0  0  0  0  0  0  0  0
   -6.3330   20.4310  -33.4340 C   0  0  0  0  0  0  0  0  0  0  0  0
   -6.5340   21.5600  -32.5120 N   0  0  0  0  0  0  0  0  0  0  0  0
   -5.6020   22.5420  -32.2710 C   0  0  0  0  0  0  0  0  0  0  0  0
   -4.3370   22.5890  -32.9500 N   0  0  0  0  0  0  0  0  0  0  0  0
   -6.0240   23.5390  -31.3760 C   0  0  0  0  0  0  0  0  0  0  0  0
   -5.2620   24.6860  -30.8490 C   0  0  0  0  0  0  0  0  0  0  0  0
   -5.8860   25.6680  -30.3620 O   0  0  0  0  0  0  0  0  0  0  0  0
   -3.8650   24.6700  -30.8450 O   0  0  0  0  0  0  0  0  0  0  0  0
   -3.1100   23.7570  -30.0560 C   0  0  0  0  0  0  0  0  0  0  0  0
   -7.6090   23.1960  -30.9250 S   0  0  0  0  0  0  0  0  0  0  0  0
   -7.6980   21.8010  -31.8470 C   0  0  0  0  0  0  0  0  0  0  0  0
   -9.0540   20.8840  -31.9450 S   0  0  0  0  0  0  0  0  0  0  0  0
   -6.2984   19.3188  -31.5862 H   0  0  0  0  0  0  0  0  0  0  0  0
   -7.1717   18.5086  -32.9307 H   0  0  0  0  0  0  0  0  0  0  0  0
   -5.3763   18.5645  -32.9307 H   0  0  0  0  0  0  0  0  0  0  0  0
   -5.3823   20.5669  -33.9704 H   0  0  0  0  0  0  0  0  0  0  0  0
   -7.1705   20.4010  -34.1466 H   0  0  0  0  0  0  0  0  0  0  0  0
   -4.2350   22.3090  -33.9480 H   0  0  0  0  0  0  0  0  0  0  0  0
   -3.4970   23.0130  -32.5060 H   0  0  0  0  0  0  0  0  0  0  0  0
   -3.2819   23.9648  -28.9896 H   0  0  0  0  0  0  0  0  0  0  0  0
   -3.4245   22.7279  -30.2843 H   0  0  0  0  0  0  0  0  0  0  0  0
   -2.0402   23.8727  -30.2843 H   0  0  0  0  0  0  0  0  0  0  0  0
  1  2  1  0
  2  3  1  0
  3  4  1  0
  4  5  1  0
  4  6  2  0
  6  7  1  0
  7  8  2  0
  7  9  1  0
  9 10  1  0
  6 11  1  0
 11 12  1  0
 12 13  2  0
 12  3  1  0
  1 14  1  0
  1 15  1  0
  1 16  1  0
  2 17  1  0
  2 18  1  0
  5 19  1  0
  5 20  1  0
 10 21  1  0
 10 22  1  0
 10 23  1  0
M  END
>  <UniqueID>  (21) 
19

>  <SMILES>  (21) 
CCn1c(N)c(C(=O)OC)sc1=S

>  <Energy>  (21) 
50.35843791078664

>  <Genealogy>  (21) 
CCn1c(N)c(C(=O)OC)sc1=S (3D coordinates assigned)
CCn1c(N)c(C(=O)OC)sc1=S (optimized conformer: 50.35843791078664 kcal/mol)

>  <smiles>  (21) 
CCn1c(N)c(C(=O)OC)sc1=S

>  <score_type>  (21) 
oracle

>  <origin>  (21) 
adg

>  <m_score__min__energy>  (21) 
-5.25

>  <m_primary>  (21) 
energy

$$$$
21:0
     RDKit          3D

 30 30  0  0  0  0  0  0  0  0999 V2000
   -1.3660   25.3130  -28.3670 C   0  0  0  0  0  0  0  0  0  0  0  0
   -2.1460   24.1540  -28.9890 C   0  0  0  0  0  0  0  0  0  0  0  0
   -3.5950   24.3000  -28.7680 N   0  0  0  0  0  0  0  0  0  0  0  0
   -4.1660   23.7910  -27.5070 C   0  0  0  0  0  0  0  0  0  0  0  0
   -4.2240   24.9000  -26.4540 C   0  0  0  0  0  0  0  0  0  0  0  0
   -4.4180   24.8640  -29.8200 C   0  0  0  0  0  0  0  0  0  0  0  0
   -3.8690   25.3100  -30.8650 O   0  0  0  0  0  0  0  0  0  0  0  0
   -5.8910   24.9870  -29.6990 C   0  0  0  0  0  0  0  0  0  0  0  0
   -6.7640   24.2050  -30.3520 C   0  0  0  0  0  0  0  0  0  0  0  0
   -6.4460   23.4120  -31.5580 C   0  0  0  0  0  0  0  0  0  0  0  0
   -5.5210   23.8060  -32.3170 O   0  0  0  0  0  0  0  0  0  0  0  0
   -7.2300   22.2250  -31.9400 C   0  0  0  0  0  0  0  0  0  0  0  0
   -6.6980   21.1340  -32.5320 N   0  0  0  0  0  0  0  0  0  0  0  0
   -7.6180   20.1470  -32.7070 C   0  0  0  0  0  0  0  0  0  0  0  0
   -8.8990   20.4520  -32.2660 C   0  0  0  0  0  0  0  0  0  0  0  0
   -8.8630   21.9990  -31.6100 S   0  0  0  0  0  0  0  0  0  0  0  0
   -1.4145   25.2409  -27.2704 H   0  0  0  0  0  0  0  0  0  0  0  0
   -0.3161   25.2644  -28.6916 H   0  0  0  0  0  0  0  0  0  0  0  0
   -1.8063   26.2673  -28.6916 H   0  0  0  0  0  0  0  0  0  0  0  0
   -1.9498   24.1307  -30.0711 H   0  0  0  0  0  0  0  0  0  0  0  0
   -1.8159   23.2195  -28.5117 H   0  0  0  0  0  0  0  0  0  0  0  0
   -5.1836   23.4184  -27.6957 H   0  0  0  0  0  0  0  0  0  0  0  0
   -3.5263   22.9789  -27.1310 H   0  0  0  0  0  0  0  0  0  0  0  0
   -4.2006   24.4531  -25.4491 H   0  0  0  0  0  0  0  0  0  0  0  0
   -3.3596   25.5689  -26.5780 H   0  0  0  0  0  0  0  0  0  0  0  0
   -5.1535   25.4751  -26.5780 H   0  0  0  0  0  0  0  0  0  0  0  0
   -6.2918   25.7661  -29.0340 H   0  0  0  0  0  0  0  0  0  0  0  0
   -7.7909   24.1501  -29.9615 H   0  0  0  0  0  0  0  0  0  0  0  0
   -7.3657   19.1788  -33.1641 H   0  0  0  0  0  0  0  0  0  0  0  0
   -9.7805   19.7975  -32.3339 H   0  0  0  0  0  0  0  0  0  0  0  0
  1  2  1  0
  2  3  1  0
  3  4  1  0
  4  5  1  0
  3  6  1  0
  6  7  2  0
  6  8  1  0
  8  9  2  3
  9 10  1  0
 10 11  2  0
 10 12  1  0
 12 13  2  0
 13 14  1  0
 14 15  2  0
 15 16  1  0
 16 12  1  0
  1 17  1  0
  1 18  1  0
  1 19  1  0
  2 20  1  0
  2 21  1  0
  4 22  1  0
  4 23  1  0
  5 24  1  0
  5 25  1  0
  5 26  1  0
  8 27  1  0
  9 28  1  0
 14 29  1  0
 15 30  1  0
M  END
>  <UniqueID>  (22) 
20

>  <SMILES>  (22) 
CCN(CC)C(=O)C=CC(=O)c1nccs1

>  <Energy>  (22) 
59.0188714507706

>  <Genealogy>  (22) 
CCN(CC)C(=O)C=CC(=O)c1nccs1 (3D coordinates assigned)
CCN(CC)C(=O)C=CC(=O)c1nccs1 (optimized conformer: 59.0188714507706 kcal/mol)

>  <smiles>  (22) 
CCN(CC)C(=O)C=CC(=O)c1nccs1

>  <score_type>  (22) 
oracle

>  <origin>  (22) 
adg

>  <m_score__min__energy>  (22) 
-6.4900000000000002

>  <m_primary>  (22) 
energy

$$$$
22:0
     RDKit          3D

 36 40  0  0  0  0  0  0  0  0999 V2000
    0.4860   22.2970  -27.4460 Br  0  0  0  0  0  0  0  0  0  0  0  0
   -0.8250   23.5490  -26.8360 C   0  0  0  0  0  0  0  0  0  0  0  0
   -0.5480   24.3860  -25.7420 C   0  0  0  0  0  0  0  0  0  0  0  0
   -1.5110   25.3090  -25.2900 C   0  0  0  0  0  0  0  0  0  0  0  0
   -2.7600   25.4050  -25.9250 C   0  0  0  0  0  0  0  0  0  0  0  0
   -3.0290   24.5700  -27.0120 C   0  0  0  0  0  0  0  0  0  0  0  0
   -4.2170   24.5420  -27.7500 C   0  0  0  0  0  0  0  0  0  0  0  0
   -4.1840   23.5970  -28.7780 C   0  0  0  0  0  0  0  0  0  0  0  0
   -5.2730   23.3260  -29.7300 C   0  0  0  0  0  0  0  0  0  0  0  0
   -5.4110   22.1680  -30.4150 N   0  0  0  0  0  0  0  0  0  0  0  0
   -6.5050   22.1660  -31.2280 C   0  0  0  0  0  0  0  0  0  0  0  0
   -6.8790   21.0060  -32.0600 C   0  0  0  0  0  0  0  0  0  0  0  0
   -8.1760   20.5700  -32.3190 C   0  0  0  0  0  0  0  0  0  0  0  0
   -8.1600   19.4700  -33.1030 N   0  0  0  0  0  0  0  0  0  0  0  0
   -6.8660   19.2120  -33.3540 C   0  0  0  0  0  0  0  0  0  0  0  0
   -6.3530   18.1870  -34.1490 C   0  0  0  0  0  0  0  0  0  0  0  0
   -4.9590   18.1200  -34.3200 C   0  0  0  0  0  0  0  0  0  0  0  0
   -4.1180   19.0760  -33.7100 C   0  0  0  0  0  0  0  0  0  0  0  0
   -4.6630   20.1020  -32.9170 C   0  0  0  0  0  0  0  0  0  0  0  0
   -6.0490   20.1300  -32.7410 C   0  0  0  0  0  0  0  0  0  0  0  0
   -7.2670   23.3320  -31.1780 C   0  0  0  0  0  0  0  0  0  0  0  0
   -6.5220   24.3900  -30.1030 S   0  0  0  0  0  0  0  0  0  0  0  0
   -2.6860   22.8090  -28.7630 S   0  0  0  0  0  0  0  0  0  0  0  0
   -2.0740   23.6630  -27.4520 C   0  0  0  0  0  0  0  0  0  0  0  0
    0.4264   24.3200  -25.2358 H   0  0  0  0  0  0  0  0  0  0  0  0
   -1.2831   25.9598  -24.4329 H   0  0  0  0  0  0  0  0  0  0  0  0
   -3.5132   26.1251  -25.5725 H   0  0  0  0  0  0  0  0  0  0  0  0
   -5.0805   25.1915  -27.5438 H   0  0  0  0  0  0  0  0  0  0  0  0
   -4.7750   21.3510  -30.2940 H   0  0  0  0  0  0  0  0  0  0  0  0
   -9.0872   21.0542  -31.9380 H   0  0  0  0  0  0  0  0  0  0  0  0
   -8.9890   18.9380  -33.4490 H   0  0  0  0  0  0  0  0  0  0  0  0
   -7.0187   17.4536  -34.6275 H   0  0  0  0  0  0  0  0  0  0  0  0
   -4.5211   17.3181  -34.9326 H   0  0  0  0  0  0  0  0  0  0  0  0
   -3.0293   19.0181  -33.8559 H   0  0  0  0  0  0  0  0  0  0  0  0
   -4.0173   20.8598  -32.4493 H   0  0  0  0  0  0  0  0  0  0  0  0
   -8.1916   23.5260  -31.7415 H   0  0  0  0  0  0  0  0  0  0  0  0
  1  2  1  0
  2  3  2  0
  3  4  1  0
  4  5  2  0
  5  6  1  0
  6  7  1  0
  7  8  2  0
  8  9  1  0
  9 10  2  0
 10 11  1  0
 11 12  1  0
 12 13  2  0
 13 14  1  0
 14 15  1  0
 15 16  2  0
 16 17  1  0
 17 18  2  0
 18 19  1  0
 19 20  2  0
 11 21  2  0
 21 22  1  0
  8 23  1  0
 23 24  1  0
 24  2  1  0
 24  6  2  0
 22  9  1  0
 20 12  1  0
 20 15  1  0
  3 25  1  0
  4 26  1  0
  5 27  1  0
  7 28  1  0
 10 29  1  0
 13 30  1  0
 14 31  1  0
 16 32  1  0
 17 33  1  0
 18 34  1  0
 19 35  1  0
 21 36  1  0
M  CHG  1  10   1
M  END
>  <UniqueID>  (23) 
21

>  <SMILES>  (23) 
Brc1cccc2cc(-c3[nH+]c(-c4c[nH]c5ccccc45)cs3)sc12

>  <Energy>  (23) 
138.63488987937274

>  <Genealogy>  (23) 
Brc1cccc2cc(-c3[nH+]c(-c4c[nH]c5ccccc45)cs3)sc12 (protonated)
Brc1cccc2cc(-c3[nH+]c(-c4c[nH]c5ccccc45)cs3)sc12 (3D coordinates assigned)
Brc1cccc2cc(-c3[nH+]c(-c4c[nH]c5ccccc45)cs3)sc12 (optimized conformer: 138.63488987937274 kcal/mol)

>  <smiles>  (23) 
Brc1cccc2cc(-c3nc(-c4c[nH]c5ccccc45)cs3)sc12

>  <score_type>  (23) 
oracle

>  <origin>  (23) 
adg

>  <m_score__min__energy>  (23) 
-8.2100000000000009

>  <m_primary>  (23) 
energy

$$$$
23:0
     RDKit          3D

 45 48  0  0  0  0  0  0  0  0999 V2000
   -4.9100   14.2480  -34.6380 C   0  0  0  0  0  0  0  0  0  0  0  0
   -5.2570   15.6530  -34.2420 C   0  0  0  0  0  0  0  0  0  0  0  0
   -4.7010   16.7400  -34.9340 C   0  0  0  0  0  0  0  0  0  0  0  0
   -4.9950   18.0490  -34.5440 C   0  0  0  0  0  0  0  0  0  0  0  0
   -5.8340   18.2930  -33.4430 C   0  0  0  0  0  0  0  0  0  0  0  0
   -6.1460   19.6420  -33.0430 N   0  0  0  0  0  0  0  0  0  0  0  0
   -7.5490   20.1080  -33.0340 C   0  0  0  0  0  0  0  0  0  0  0  0
   -7.8080   21.1410  -31.9150 C   0  0  0  0  0  0  0  0  0  0  0  0
   -6.7370   22.1360  -31.8790 N   0  0  0  0  0  0  0  0  0  0  0  0
   -6.8090   23.3380  -31.3360 N   0  0  0  0  0  0  0  0  0  0  0  0
   -5.5750   23.8830  -31.3710 C   0  0  0  0  0  0  0  0  0  0  0  0
   -5.2340   25.2430  -30.8420 C   0  0  0  0  0  0  0  0  0  0  0  0
   -3.8700   25.2940  -30.4250 O   0  0  0  0  0  0  0  0  0  0  0  0
   -3.3190   24.5600  -29.3620 C   0  0  0  0  0  0  0  0  0  0  0  0
   -2.0010   24.8390  -28.9780 C   0  0  0  0  0  0  0  0  0  0  0  0
   -1.4030   24.1340  -27.9290 C   0  0  0  0  0  0  0  0  0  0  0  0
   -2.1200   23.1430  -27.2530 C   0  0  0  0  0  0  0  0  0  0  0  0
   -3.4370   22.8590  -27.6240 C   0  0  0  0  0  0  0  0  0  0  0  0
   -4.0380   23.5630  -28.6720 C   0  0  0  0  0  0  0  0  0  0  0  0
   -4.6840   22.9880  -31.9510 C   0  0  0  0  0  0  0  0  0  0  0  0
   -5.4730   21.8910  -32.2410 C   0  0  0  0  0  0  0  0  0  0  0  0
   -5.0960   20.6060  -32.8190 C   0  0  0  0  0  0  0  0  0  0  0  0
   -3.8960   20.3580  -33.1180 O   0  0  0  0  0  0  0  0  0  0  0  0
   -6.3780   17.2030  -32.7460 C   0  0  0  0  0  0  0  0  0  0  0  0
   -6.0850   15.8930  -33.1370 C   0  0  0  0  0  0  0  0  0  0  0  0
   -4.7596   13.6389  -33.7345 H   0  0  0  0  0  0  0  0  0  0  0  0
   -5.7300   13.8222  -35.2349 H   0  0  0  0  0  0  0  0  0  0  0  0
   -3.9861   14.2529  -35.2349 H   0  0  0  0  0  0  0  0  0  0  0  0
   -4.0306   16.5606  -35.7874 H   0  0  0  0  0  0  0  0  0  0  0  0
   -4.5669   18.8945  -35.1024 H   0  0  0  0  0  0  0  0  0  0  0  0
   -7.7754   20.5721  -34.0053 H   0  0  0  0  0  0  0  0  0  0  0  0
   -8.1953   19.2373  -32.8491 H   0  0  0  0  0  0  0  0  0  0  0  0
   -8.7662   21.6471  -32.1042 H   0  0  0  0  0  0  0  0  0  0  0  0
   -7.8402   20.6176  -30.9480 H   0  0  0  0  0  0  0  0  0  0  0  0
   -7.6730   23.7640  -30.9300 H   0  0  0  0  0  0  0  0  0  0  0  0
   -5.3981   25.9898  -31.6328 H   0  0  0  0  0  0  0  0  0  0  0  0
   -5.8772   25.4573  -29.9757 H   0  0  0  0  0  0  0  0  0  0  0  0
   -1.4322   25.6187  -29.5058 H   0  0  0  0  0  0  0  0  0  0  0  0
   -0.3672   24.3596  -27.6355 H   0  0  0  0  0  0  0  0  0  0  0  0
   -1.6480   22.5870  -26.4295 H   0  0  0  0  0  0  0  0  0  0  0  0
   -4.0019   22.0803  -27.0907 H   0  0  0  0  0  0  0  0  0  0  0  0
   -5.0758   23.3380  -28.9591 H   0  0  0  0  0  0  0  0  0  0  0  0
   -3.6077   23.1210  -32.1353 H   0  0  0  0  0  0  0  0  0  0  0  0
   -7.0399   17.3807  -31.8856 H   0  0  0  0  0  0  0  0  0  0  0  0
   -6.5064   15.0467  -32.5747 H   0  0  0  0  0  0  0  0  0  0  0  0
  1  2  1  0
  2  3  2  0
  3  4  1  0
  4  5  2  0
  5  6  1  0
  6  7  1  0
  7  8  1  0
  8  9  1  0
  9 10  1  0
 10 11  2  0
 11 12  1  0
 12 13  1  0
 13 14  1  0
 14 15  2  0
 15 16  1  0
 16 17  2  0
 17 18  1  0
 18 19  2  0
 11 20  1  0
 20 21  2  0
 21 22  1  0
 22 23  2  0
  5 24  1  0
 24 25  2  0
 25  2  1  0
 22  6  1  0
 21  9  1  0
 19 14  1  0
  1 26  1  0
  1 27  1  0
  1 28  1  0
  3 29  1  0
  4 30  1  0
  7 31  1  0
  7 32  1  0
  8 33  1  0
  8 34  1  0
 10 35  1  0
 12 36  1  0
 12 37  1  0
 15 38  1  0
 16 39  1  0
 17 40  1  0
 18 41  1  0
 19 42  1  0
 20 43  1  0
 24 44  1  0
 25 45  1  0
M  CHG  1  10   1
M  END
>  <UniqueID>  (24) 
22

>  <SMILES>  (24) 
Cc1ccc(N2CCn3[nH+]c(COc4ccccc4)cc3C2=O)cc1

>  <Energy>  (24) 
85.07381703027963

>  <Genealogy>  (24) 
Cc1ccc(N2CCn3[nH+]c(COc4ccccc4)cc3C2=O)cc1 (protonated)
Cc1ccc(N2CCn3[nH+]c(COc4ccccc4)cc3C2=O)cc1 (3D coordinates assigned)
Cc1ccc(N2CCn3[nH+]c(COc4ccccc4)cc3C2=O)cc1 (nonaromatic ring conformer: 85.07381703027963 kcal/mol)

>  <smiles>  (24) 
Cc1ccc(N2CCn3nc(COc4ccccc4)cc3C2=O)cc1

>  <score_type>  (24) 
oracle

>  <origin>  (24) 
adg

>  <m_score__min__energy>  (24) 
-7.8700000000000001

>  <m_primary>  (24) 
energy

$$$$
24:0
     RDKit          3D

 35 37  0  0  0  0  0  0  0  0999 V2000
   -1.3950   26.0480  -27.1380 C   0  0  0  0  0  0  0  0  0  0  0  0
   -0.8870   25.2000  -28.3080 C   0  0  0  0  0  0  0  0  0  0  0  0
    0.3450   24.3810  -27.9060 C   0  0  0  0  0  0  0  0  0  0  0  0
   -1.9790   24.3120  -28.8550 C   0  0  0  0  0  0  0  0  0  0  0  0
   -1.9390   22.9130  -28.6950 C   0  0  0  0  0  0  0  0  0  0  0  0
   -2.9750   22.1390  -29.2210 C   0  0  0  0  0  0  0  0  0  0  0  0
   -2.9580   20.8860  -29.0890 O   0  0  0  0  0  0  0  0  0  0  0  0
   -4.0250   22.7690  -29.8920 C   0  0  0  0  0  0  0  0  0  0  0  0
   -5.0310   22.0630  -30.4050 O   0  0  0  0  0  0  0  0  0  0  0  0
   -6.0560   22.6240  -31.0490 C   0  0  0  0  0  0  0  0  0  0  0  0
   -7.1270   21.7460  -31.5840 C   0  0  0  0  0  0  0  0  0  0  0  0
   -8.4910   22.0810  -31.4640 C   0  0  0  0  0  0  0  0  0  0  0  0
   -9.4770   21.2290  -31.9690 C   0  0  0  0  0  0  0  0  0  0  0  0
   -9.1180   20.0330  -32.5940 C   0  0  0  0  0  0  0  0  0  0  0  0
   -7.7720   19.6820  -32.7080 C   0  0  0  0  0  0  0  0  0  0  0  0
   -6.7810   20.5300  -32.2040 C   0  0  0  0  0  0  0  0  0  0  0  0
   -6.0880   24.0220  -31.2150 C   0  0  0  0  0  0  0  0  0  0  0  0
   -5.0520   24.7960  -30.6900 C   0  0  0  0  0  0  0  0  0  0  0  0
   -5.0640   26.0480  -30.8310 O   0  0  0  0  0  0  0  0  0  0  0  0
   -4.0030   24.1700  -30.0160 C   0  0  0  0  0  0  0  0  0  0  0  0
   -2.9980   24.8740  -29.5020 O   0  0  0  0  0  0  0  0  0  0  0  0
   -1.1095   25.5714  -26.1886 H   0  0  0  0  0  0  0  0  0  0  0  0
   -0.9497   27.0524  -27.1926 H   0  0  0  0  0  0  0  0  0  0  0  0
   -2.4906   26.1292  -27.1926 H   0  0  0  0  0  0  0  0  0  0  0  0
   -0.5832   25.8878  -29.1109 H   0  0  0  0  0  0  0  0  0  0  0  0
    0.4132   24.3357  -26.8091 H   0  0  0  0  0  0  0  0  0  0  0  0
    0.2557   23.3619  -28.3103 H   0  0  0  0  0  0  0  0  0  0  0  0
    1.2501   24.8578  -28.3103 H   0  0  0  0  0  0  0  0  0  0  0  0
   -1.1025   22.4367  -28.1626 H   0  0  0  0  0  0  0  0  0  0  0  0
   -8.7813   23.0196  -30.9694 H   0  0  0  0  0  0  0  0  0  0  0  0
  -10.5385   21.5012  -31.8739 H   0  0  0  0  0  0  0  0  0  0  0  0
   -9.8960   19.3676  -32.9965 H   0  0  0  0  0  0  0  0  0  0  0  0
   -7.4903   18.7368  -33.1951 H   0  0  0  0  0  0  0  0  0  0  0  0
   -5.7223   20.2448  -32.2926 H   0  0  0  0  0  0  0  0  0  0  0  0
   -6.9207   24.4990  -31.7527 H   0  0  0  0  0  0  0  0  0  0  0  0
  1  2  1  0
  2  3  1  0
  2  4  1  0
  4  5  2  0
  5  6  1  0
  6  7  2  0
  6  8  1  0
  8  9  1  0
  9 10  1  0
 10 11  1  0
 11 12  2  0
 12 13  1  0
 13 14  2  0
 14 15  1  0
 15 16  2  0
 10 17  2  0
 17 18  1  0
 18 19  2  0
 18 20  1  0
 20 21  1  0
 21  4  1  0
 20  8  2  0
 16 11  1  0
  1 22  1  0
  1 23  1  0
  1 24  1  0
  2 25  1  0
  3 26  1  0
  3 27  1  0
  3 28  1  0
  5 29  1  0
 12 30  1  0
 13 31  1  0
 14 32  1  0
 15 33  1  0
 16 34  1  0
 17 35  1  0
M  END
>  <UniqueID>  (25) 
23

>  <SMILES>  (25) 
CC(C)c1cc(=O)c2oc(-c3ccccc3)cc(=O)c2o1

>  <Energy>  (25) 
42.554228341214355

>  <Genealogy>  (25) 
CC(C)c1cc(=O)c2oc(-c3ccccc3)cc(=O)c2o1 (3D coordinates assigned)
CC(C)c1cc(=O)c2oc(-c3ccccc3)cc(=O)c2o1 (optimized conformer: 42.554228341214355 kcal/mol)

>  <smiles>  (25) 
CC(C)c1cc(=O)c2oc(-c3ccccc3)cc(=O)c2o1

>  <score_type>  (25) 
oracle

>  <origin>  (25) 
adg

>  <m_score__min__energy>  (25) 
-7.8399999999999999

>  <m_primary>  (25) 
energy

$$$$
25:0
     RDKit          3D

 26 26  0  0  0  0  0  0  0  0999 V2000
   -7.1170   22.3020  -30.3180 C   0  0  0  0  0  0  0  0  0  0  0  0
   -6.4970   23.5080  -30.8960 N   0  0  0  0  0  0  0  0  0  0  0  0
   -6.7750   23.6010  -32.3400 C   0  0  0  0  0  0  0  0  0  0  0  0
   -6.8630   24.7460  -30.1640 C   0  0  0  0  0  0  0  0  0  0  0  0
   -5.7300   25.7890  -30.0650 C   0  0  0  0  0  0  0  0  0  0  0  0
   -4.5710   25.3560  -30.8450 N   0  0  0  0  0  0  0  0  0  0  0  0
   -3.6430   24.5530  -30.4150 C   0  0  0  0  0  0  0  0  0  0  0  0
   -3.5430   23.3060  -30.9480 N   0  0  0  0  0  0  0  0  0  0  0  0
   -2.5880   22.4370  -30.5240 C   0  0  0  0  0  0  0  0  0  0  0  0
   -1.6930   22.8200  -29.5270 C   0  0  0  0  0  0  0  0  0  0  0  0
   -1.8080   24.1010  -28.9870 C   0  0  0  0  0  0  0  0  0  0  0  0
   -2.7760   24.9400  -29.4370 N   0  0  0  0  0  0  0  0  0  0  0  0
   -7.0853   22.3637  -29.2202 H   0  0  0  0  0  0  0  0  0  0  0  0
   -8.1630   22.2318  -30.6512 H   0  0  0  0  0  0  0  0  0  0  0  0
   -6.5654   21.4105  -30.6512 H   0  0  0  0  0  0  0  0  0  0  0  0
   -5.4600   23.3950  -30.7920 H   0  0  0  0  0  0  0  0  0  0  0  0
   -7.8080   23.9466  -32.4930 H   0  0  0  0  0  0  0  0  0  0  0  0
   -6.0773   24.3147  -32.8025 H   0  0  0  0  0  0  0  0  0  0  0  0
   -6.6472   22.6112  -32.8025 H   0  0  0  0  0  0  0  0  0  0  0  0
   -7.7148   25.2119  -30.6811 H   0  0  0  0  0  0  0  0  0  0  0  0
   -7.0996   24.4421  -29.1336 H   0  0  0  0  0  0  0  0  0  0  0  0
   -6.0894   26.7531  -30.4541 H   0  0  0  0  0  0  0  0  0  0  0  0
   -5.4325   25.8948  -29.0113 H   0  0  0  0  0  0  0  0  0  0  0  0
   -2.5216   21.4325  -30.9673 H   0  0  0  0  0  0  0  0  0  0  0  0
   -0.9139   22.1283  -29.1740 H   0  0  0  0  0  0  0  0  0  0  0  0
   -1.1159   24.4308  -28.1982 H   0  0  0  0  0  0  0  0  0  0  0  0
  1  2  1  0
  2  3  1  0
  2  4  1  0
  4  5  1  0
  5  6  1  0
  6  7  2  3
  7  8  1  0
  8  9  2  0
  9 10  1  0
 10 11  2  0
 11 12  1  0
 12  7  1  0
  1 13  1  0
  1 14  1  0
  1 15  1  0
  2 16  1  0
  3 17  1  0
  3 18  1  0
  3 19  1  0
  4 20  1  0
  4 21  1  0
  5 22  1  0
  5 23  1  0
  9 24  1  0
 10 25  1  0
 11 26  1  0
M  CHG  2   2   1  12  -1
M  END
>  <UniqueID>  (26) 
24

>  <SMILES>  (26) 
C[NH+](C)CCN=c1nccc[n-]1

>  <Energy>  (26) 
26.09343960578112

>  <Genealogy>  (26) 
C[NH+](C)CCN=c1nccc[n-]1 (protonated)
C[NH+](C)CCN=c1nccc[n-]1 (3D coordinates assigned)
C[NH+](C)CCN=c1nccc[n-]1 (optimized conformer: 26.09343960578112 kcal/mol)

>  <smiles>  (26) 
CN(C)CCN=c1nccc[nH]1

>  <score_type>  (26) 
oracle

>  <origin>  (26) 
adg

>  <m_score__min__energy>  (26) 
-4.6200000000000001

>  <m_primary>  (26) 
energy

$$$$
26:0
     RDKit          3D

 37 40  0  0  0  0  0  0  0  0999 V2000
   -1.3970   25.5630  -29.2390 O   0  0  0  0  0  0  0  0  0  0  0  0
   -1.7890   25.2710  -28.0760 C   0  0  0  0  0  0  0  0  0  0  0  0
   -2.6790   24.1590  -27.8840 N   0  0  0  0  0  0  0  0  0  0  0  0
   -3.5280   23.6270  -28.9150 C   0  0  0  0  0  0  0  0  0  0  0  0
   -4.4390   24.4810  -29.5810 C   0  0  0  0  0  0  0  0  0  0  0  0
   -5.2620   23.9900  -30.6080 C   0  0  0  0  0  0  0  0  0  0  0  0
   -5.1340   22.6480  -30.9470 C   0  0  0  0  0  0  0  0  0  0  0  0
   -5.8150   21.9890  -31.9000 N   0  0  0  0  0  0  0  0  0  0  0  0
   -5.2790   20.7410  -31.8000 C   0  0  0  0  0  0  0  0  0  0  0  0
   -5.6930   19.6050  -32.6490 C   0  0  0  0  0  0  0  0  0  0  0  0
   -6.7690   18.7820  -32.2760 C   0  0  0  0  0  0  0  0  0  0  0  0
   -7.1470   17.7120  -33.0890 C   0  0  0  0  0  0  0  0  0  0  0  0
   -6.4460   17.4700  -34.2710 C   0  0  0  0  0  0  0  0  0  0  0  0
   -5.4070   18.2720  -34.6220 N   0  0  0  0  0  0  0  0  0  0  0  0
   -5.0180   19.3210  -33.8490 C   0  0  0  0  0  0  0  0  0  0  0  0
   -4.3250   20.6490  -30.8400 N   0  0  0  0  0  0  0  0  0  0  0  0
   -4.2570   21.8580  -30.3210 N   0  0  0  0  0  0  0  0  0  0  0  0
   -3.4400   22.2790  -29.3240 C   0  0  0  0  0  0  0  0  0  0  0  0
   -1.2810   26.0490  -26.9200 C   0  0  0  0  0  0  0  0  0  0  0  0
   -1.6090   25.6810  -25.6010 C   0  0  0  0  0  0  0  0  0  0  0  0
   -1.1310   26.4260  -24.5180 C   0  0  0  0  0  0  0  0  0  0  0  0
   -0.3260   27.5460  -24.7380 C   0  0  0  0  0  0  0  0  0  0  0  0
    0.1370   28.2670  -23.6870 F   0  0  0  0  0  0  0  0  0  0  0  0
   -0.0010   27.9270  -26.0420 C   0  0  0  0  0  0  0  0  0  0  0  0
   -0.4780   27.1860  -27.1280 C   0  0  0  0  0  0  0  0  0  0  0  0
   -2.6280   23.6390  -26.9780 H   0  0  0  0  0  0  0  0  0  0  0  0
   -4.5033   25.5403  -29.2914 H   0  0  0  0  0  0  0  0  0  0  0  0
   -5.9808   24.6430  -31.1246 H   0  0  0  0  0  0  0  0  0  0  0  0
   -7.3145   18.9812  -31.3418 H   0  0  0  0  0  0  0  0  0  0  0  0
   -7.9893   17.0659  -32.8006 H   0  0  0  0  0  0  0  0  0  0  0  0
   -6.7348   16.6294  -34.9190 H   0  0  0  0  0  0  0  0  0  0  0  0
   -4.1720   19.9496  -34.1639 H   0  0  0  0  0  0  0  0  0  0  0  0
   -2.7283   21.5890  -28.8471 H   0  0  0  0  0  0  0  0  0  0  0  0
   -2.2453   24.8019  -25.4212 H   0  0  0  0  0  0  0  0  0  0  0  0
   -1.3896   26.1292  -23.4909 H   0  0  0  0  0  0  0  0  0  0  0  0
    0.6307   28.8107  -26.2149 H   0  0  0  0  0  0  0  0  0  0  0  0
   -0.2236   27.4943  -28.1528 H   0  0  0  0  0  0  0  0  0  0  0  0
  1  2  2  0
  2  3  1  0
  3  4  1  0
  4  5  1  0
  5  6  2  0
  6  7  1  0
  7  8  2  0
  8  9  1  0
  9 10  1  0
 10 11  2  0
 11 12  1  0
 12 13  2  0
 13 14  1  0
 14 15  2  0
  9 16  2  0
 16 17  1  0
 17 18  1  0
  2 19  1  0
 19 20  2  0
 20 21  1  0
 21 22  2  0
 22 23  1  0
 22 24  1  0
 24 25  2  0
 18  4  2  0
 25 19  1  0
 17  7  1  0
 15 10  1  0
  3 26  1  0
  5 27  1  0
  6 28  1  0
 11 29  1  0
 12 30  1  0
 13 31  1  0
 15 32  1  0
 18 33  1  0
 20 34  1  0
 21 35  1  0
 24 36  1  0
 25 37  1  0
M  END
>  <UniqueID>  (27) 
25

>  <SMILES>  (27) 
O=C(Nc1ccc2nc(-c3cccnc3)nn2c1)c1ccc(F)cc1

>  <Energy>  (27) 
87.06966942924272

>  <Genealogy>  (27) 
O=C(Nc1ccc2nc(-c3cccnc3)nn2c1)c1ccc(F)cc1 (3D coordinates assigned)
O=C(Nc1ccc2nc(-c3cccnc3)nn2c1)c1ccc(F)cc1 (optimized conformer: 87.06966942924272 kcal/mol)

>  <smiles>  (27) 
O=C(Nc1ccc2nc(-c3cccnc3)nn2c1)c1ccc(F)cc1

>  <score_type>  (27) 
oracle

>  <origin>  (27) 
adg

>  <m_score__min__energy>  (27) 
-7.8200000000000003

>  <m_primary>  (27) 
energy

$$$$
27:0
     RDKit          3D

 37 39  0  0  0  0  0  0  0  0999 V2000
   -3.6220   18.3610  -33.7660 C   0  0  0  0  0  0  0  0  0  0  0  0
   -2.8530   19.5250  -33.4320 O   0  0  0  0  0  0  0  0  0  0  0  0
   -3.4950   20.5740  -32.7900 C   0  0  0  0  0  0  0  0  0  0  0  0
   -3.9770   21.6740  -33.4230 C   0  0  0  0  0  0  0  0  0  0  0  0
   -4.6030   22.6720  -32.7040 C   0  0  0  0  0  0  0  0  0  0  0  0
   -4.7740   22.6130  -31.3310 C   0  0  0  0  0  0  0  0  0  0  0  0
   -5.4220   23.6700  -30.6740 N   0  0  0  0  0  0  0  0  0  0  0  0
   -6.7190   24.0790  -30.8430 C   0  0  0  0  0  0  0  0  0  0  0  0
   -7.8220   23.2930  -31.9650 S   0  0  0  0  0  0  0  0  0  0  0  0
   -8.5760   21.8570  -31.1750 C   0  0  0  0  0  0  0  0  0  0  0  0
   -8.1750   20.5750  -31.7590 C   0  0  0  0  0  0  0  0  0  0  0  0
   -7.2200   20.5860  -32.7710 C   0  0  0  0  0  0  0  0  0  0  0  0
   -6.7730   19.4240  -33.3730 C   0  0  0  0  0  0  0  0  0  0  0  0
   -7.2700   18.1860  -32.9810 C   0  0  0  0  0  0  0  0  0  0  0  0
   -6.8410   17.0450  -33.5620 F   0  0  0  0  0  0  0  0  0  0  0  0
   -8.2080   18.1810  -31.9860 C   0  0  0  0  0  0  0  0  0  0  0  0
   -8.6520   19.3410  -31.3860 C   0  0  0  0  0  0  0  0  0  0  0  0
   -6.8530   25.1030  -30.0070 N   0  0  0  0  0  0  0  0  0  0  0  0
   -5.7490   25.3370  -29.3580 N   0  0  0  0  0  0  0  0  0  0  0  0
   -4.8250   24.4540  -29.7520 C   0  0  0  0  0  0  0  0  0  0  0  0
   -3.6150   24.3470  -29.3600 O   0  0  0  0  0  0  0  0  0  0  0  0
   -4.2780   21.4880  -30.7010 C   0  0  0  0  0  0  0  0  0  0  0  0
   -3.6470   20.4810  -31.4220 C   0  0  0  0  0  0  0  0  0  0  0  0
   -3.9517   17.8620  -32.8428 H   0  0  0  0  0  0  0  0  0  0  0  0
   -4.5014   18.6593  -34.3557 H   0  0  0  0  0  0  0  0  0  0  0  0
   -3.0026   17.6691  -34.3557 H   0  0  0  0  0  0  0  0  0  0  0  0
   -3.8682   21.7703  -34.5134 H   0  0  0  0  0  0  0  0  0  0  0  0
   -4.9823   23.5518  -33.2446 H   0  0  0  0  0  0  0  0  0  0  0  0
   -8.2905   21.8573  -30.1127 H   0  0  0  0  0  0  0  0  0  0  0  0
   -9.6623   21.9473  -31.3224 H   0  0  0  0  0  0  0  0  0  0  0  0
   -6.8073   21.5501  -33.1029 H   0  0  0  0  0  0  0  0  0  0  0  0
   -6.0168   19.4797  -34.1699 H   0  0  0  0  0  0  0  0  0  0  0  0
   -8.6229   17.2184  -31.6525 H   0  0  0  0  0  0  0  0  0  0  0  0
   -9.4071   19.2769  -30.5887 H   0  0  0  0  0  0  0  0  0  0  0  0
   -5.5860   26.0910  -28.6380 H   0  0  0  0  0  0  0  0  0  0  0  0
   -4.3842   21.3875  -29.6108 H   0  0  0  0  0  0  0  0  0  0  0  0
   -3.2628   19.5961  -30.8935 H   0  0  0  0  0  0  0  0  0  0  0  0
  1  2  1  0
  2  3  1  0
  3  4  2  0
  4  5  1  0
  5  6  2  0
  6  7  1  0
  7  8  1  0
  8  9  1  0
  9 10  1  0
 10 11  1  0
 11 12  2  0
 12 13  1  0
 13 14  2  0
 14 15  1  0
 14 16  1  0
 16 17  2  0
  8 18  2  0
 18 19  1  0
 19 20  1  0
 20 21  2  0
  6 22  1  0
 22 23  2  0
 23  3  1  0
 20  7  1  0
 17 11  1  0
  1 24  1  0
  1 25  1  0
  1 26  1  0
  4 27  1  0
  5 28  1  0
 10 29  1  0
 10 30  1  0
 12 31  1  0
 13 32  1  0
 16 33  1  0
 17 34  1  0
 19 35  1  0
 22 36  1  0
 23 37  1  0
M  END
>  <smiles>  (28) 
COc1ccc(-n2c(SCc3ccc(F)cc3)n[nH]c2=O)cc1

>  <score_type>  (28) 
oracle

>  <origin>  (28) 
adg

>  <m_score__min__energy>  (28) 
-8.3499999999999996

>  <m_primary>  (28) 
energy

$$$$
28:0
     RDKit          3D

 41 44  0  0  0  0  0  0  0  0999 V2000
   -5.5250   17.6740  -33.4310 O   0  0  0  0  0  0  0  0  0  0  0  0
   -5.6780   18.8850  -33.1010 C   0  0  0  0  0  0  0  0  0  0  0  0
   -6.9400   19.3540  -32.7290 C   0  0  0  0  0  0  0  0  0  0  0  0
   -8.0410   18.4700  -32.7170 C   0  0  0  0  0  0  0  0  0  0  0  0
   -9.3050   18.9120  -32.3480 C   0  0  0  0  0  0  0  0  0  0  0  0
   -9.4920   20.2370  -31.9840 C   0  0  0  0  0  0  0  0  0  0  0  0
   -8.4200   21.1290  -31.9910 C   0  0  0  0  0  0  0  0  0  0  0  0
   -7.1110   20.7210  -32.3660 C   0  0  0  0  0  0  0  0  0  0  0  0
   -6.0250   21.5930  -32.3890 N   0  0  0  0  0  0  0  0  0  0  0  0
   -6.1820   23.0450  -32.0650 C   0  0  0  0  0  0  0  0  0  0  0  0
   -6.4730   23.2560  -30.6130 N   0  0  0  0  0  0  0  0  0  0  0  0
   -5.4410   22.6750  -29.7020 C   0  0  0  0  0  0  0  0  0  0  0  0
   -4.4350   23.6860  -29.1330 C   0  0  0  0  0  0  0  0  0  0  0  0
   -3.9700   24.9020  -30.3910 S   0  0  0  0  0  0  0  0  0  0  0  0
   -5.6310   25.6630  -30.4370 C   0  0  0  0  0  0  0  0  0  0  0  0
   -6.8060   24.6630  -30.2860 C   0  0  0  0  0  0  0  0  0  0  0  0
   -4.7630   21.1140  -32.7340 C   0  0  0  0  0  0  0  0  0  0  0  0
   -3.6060   21.9450  -32.7320 C   0  0  0  0  0  0  0  0  0  0  0  0
   -2.3520   21.4500  -33.0910 C   0  0  0  0  0  0  0  0  0  0  0  0
   -2.2030   20.1200  -33.4580 C   0  0  0  0  0  0  0  0  0  0  0  0
   -3.3050   19.2740  -33.4630 C   0  0  0  0  0  0  0  0  0  0  0  0
   -4.5830   19.7520  -33.1010 C   0  0  0  0  0  0  0  0  0  0  0  0
   -7.8958   17.4179  -33.0035 H   0  0  0  0  0  0  0  0  0  0  0  0
  -10.1547   18.2135  -32.3445 H   0  0  0  0  0  0  0  0  0  0  0  0
  -10.4921   20.5866  -31.6879 H   0  0  0  0  0  0  0  0  0  0  0  0
   -8.5919   22.1754  -31.6987 H   0  0  0  0  0  0  0  0  0  0  0  0
   -5.2510   23.5711  -32.3228 H   0  0  0  0  0  0  0  0  0  0  0  0
   -7.0289   23.4381  -32.6467 H   0  0  0  0  0  0  0  0  0  0  0  0
   -7.3510   22.7230  -30.4040 H   0  0  0  0  0  0  0  0  0  0  0  0
   -5.9605   22.1984  -28.8577 H   0  0  0  0  0  0  0  0  0  0  0  0
   -4.8567   21.9686  -30.3100 H   0  0  0  0  0  0  0  0  0  0  0  0
   -4.8907   24.2070  -28.2781 H   0  0  0  0  0  0  0  0  0  0  0  0
   -3.5323   23.1451  -28.8128 H   0  0  0  0  0  0  0  0  0  0  0  0
   -5.6958   26.3941  -29.6176 H   0  0  0  0  0  0  0  0  0  0  0  0
   -5.7366   26.1185  -31.4327 H   0  0  0  0  0  0  0  0  0  0  0  0
   -7.1533   24.6986  -29.2429 H   0  0  0  0  0  0  0  0  0  0  0  0
   -7.5725   24.9754  -31.0105 H   0  0  0  0  0  0  0  0  0  0  0  0
   -3.7035   23.0012  -32.4407 H   0  0  0  0  0  0  0  0  0  0  0  0
   -1.4774   22.1170  -33.0831 H   0  0  0  0  0  0  0  0  0  0  0  0
   -1.2130   19.7358  -33.7448 H   0  0  0  0  0  0  0  0  0  0  0  0
   -3.1803   18.2201  -33.7522 H   0  0  0  0  0  0  0  0  0  0  0  0
  1  2  2  0
  2  3  1  0
  3  4  2  0
  4  5  1  0
  5  6  2  0
  6  7  1  0
  7  8  2  0
  8  9  1  0
  9 10  1  0
 10 11  1  0
 11 12  1  0
 12 13  1  0
 13 14  1  0
 14 15  1  0
 15 16  1  0
  9 17  1  0
 17 18  2  0
 18 19  1  0
 19 20  2  0
 20 21  1  0
 21 22  2  0
 22  2  1  0
  8  3  1  0
 16 11  1  0
 22 17  1  0
  4 23  1  0
  5 24  1  0
  6 25  1  0
  7 26  1  0
 10 27  1  0
 10 28  1  0
 11 29  1  0
 12 30  1  0
 12 31  1  0
 13 32  1  0
 13 33  1  0
 15 34  1  0
 15 35  1  0
 16 36  1  0
 16 37  1  0
 18 38  1  0
 19 39  1  0
 20 40  1  0
 21 41  1  0
M  CHG  1  11   1
M  END
>  <UniqueID>  (29) 
26

>  <SMILES>  (29) 
O=c1c2ccccc2n(C[NH+]2CCSCC2)c2ccccc12

>  <Energy>  (29) 
81.51019554658744

>  <Genealogy>  (29) 
O=c1c2ccccc2n(C[NH+]2CCSCC2)c2ccccc12 (protonated)
O=c1c2ccccc2n(C[NH+]2CCSCC2)c2ccccc12 (3D coordinates assigned)
O=c1c2ccccc2n(C[NH+]2CCSCC2)c2ccccc12 (nonaromatic ring conformer: 81.51019554658744 kcal/mol)

>  <smiles>  (29) 
O=c1c2ccccc2n(CN2CCSCC2)c2ccccc12

>  <score_type>  (29) 
oracle

>  <origin>  (29) 
adg

>  <m_score__min__energy>  (29) 
-7.8399999999999999

>  <m_primary>  (29) 
energy

$$$$
29:0
     RDKit          3D

 51 54  0  0  1  0  0  0  0  0999 V2000
   -0.7600   16.9280  -35.7430 C   0  0  0  0  0  0  0  0  0  0  0  0
   -1.7760   17.6100  -34.9530 N   0  0  0  0  0  0  0  0  0  0  0  0
   -2.2990   16.5860  -33.6460 S   0  0  0  0  0  0  0  0  0  0  0  0
   -1.4840   15.3420  -33.6160 O   0  0  0  0  0  0  0  0  0  0  0  0
   -2.1150   17.3920  -32.3980 O   0  0  0  0  0  0  0  0  0  0  0  0
   -3.9830   16.1050  -33.8540 C   0  0  0  0  0  0  0  0  0  0  0  0
   -4.4040   14.8100  -33.6250 C   0  0  0  0  0  0  0  0  0  0  0  0
   -5.7140   14.4020  -33.7780 C   0  0  0  0  0  0  0  0  0  0  0  0
   -6.6430   15.3400  -34.1810 C   0  0  0  0  0  0  0  0  0  0  0  0
   -6.2470   16.6420  -34.4180 C   0  0  0  0  0  0  0  0  0  0  0  0
   -4.9400   17.0700  -34.2690 C   0  0  0  0  0  0  0  0  0  0  0  0
   -4.4390   18.3330  -34.5680 N   0  0  0  0  0  0  0  0  0  0  0  0
   -4.2690   19.3080  -33.8040 C   0  0  0  0  0  0  0  0  0  0  0  0
   -3.0600   19.6960  -33.3280 N   0  0  0  0  0  0  0  0  0  0  0  0
   -3.2630   20.7470  -32.5410 N   0  0  0  0  0  0  0  0  0  0  0  0
   -4.5860   21.0450  -32.5020 C   0  0  0  0  0  0  0  0  0  0  0  0
   -5.2590   20.1190  -33.3210 C   0  0  0  0  0  0  0  0  0  0  0  0
   -6.7290   20.0070  -33.6240 C   0  0  0  0  0  0  0  0  0  0  0  0
   -7.3920   20.8400  -32.6890 C   0  0  0  0  0  0  0  0  0  0  0  0
   -7.7080   21.7180  -31.6820 C   0  0  0  0  0  0  0  0  0  0  0  0
   -6.4070   22.4660  -31.3080 C   0  0  0  0  0  0  0  0  0  0  0  0
   -6.7270   23.5470  -30.5280 C   0  0  0  0  0  0  0  0  0  0  0  0
   -5.7400   24.4000  -30.0840 C   0  0  0  0  0  0  0  0  0  0  0  0
   -6.0730   25.4880  -29.2970 O   0  0  0  0  0  0  0  0  0  0  0  0
   -4.4480   24.1080  -30.4600 C   0  0  0  0  0  0  0  0  0  0  0  0
   -3.4560   24.9730  -30.0070 O   0  0  0  0  0  0  0  0  0  0  0  0
   -2.5380   24.6890  -28.9930 C   0  0  0  0  0  0  0  0  0  0  0  0
   -4.1260   23.0080  -31.2510 C   0  0  0  0  0  0  0  0  0  0  0  0
   -5.1190   22.1460  -31.7000 C   0  0  0  0  0  0  0  0  0  0  0  0
   -0.0372   16.4428  -35.0706 H   0  0  0  0  0  0  0  0  0  0  0  0
   -1.2383   16.1673  -36.3775 H   0  0  0  0  0  0  0  0  0  0  0  0
   -0.2372   17.6588  -36.3775 H   0  0  0  0  0  0  0  0  0  0  0  0
   -2.5980   17.7480  -35.6100 H   0  0  0  0  0  0  0  0  0  0  0  0
   -3.6589   14.0668  -33.3049 H   0  0  0  0  0  0  0  0  0  0  0  0
   -6.0088   13.3601  -33.5844 H   0  0  0  0  0  0  0  0  0  0  0  0
   -7.6962   15.0514  -34.3131 H   0  0  0  0  0  0  0  0  0  0  0  0
   -7.0051   17.3713  -34.7397 H   0  0  0  0  0  0  0  0  0  0  0  0
   -2.1370   19.2360  -33.5510 H   0  0  0  0  0  0  0  0  0  0  0  0
   -2.4570   21.2030  -32.0610 H   0  0  0  0  0  0  0  0  0  0  0  0
   -6.9335   20.3476  -34.6498 H   0  0  0  0  0  0  0  0  0  0  0  0
   -7.0749   18.9656  -33.5476 H   0  0  0  0  0  0  0  0  0  0  0  0
   -7.9532   21.3926  -33.4569 H   0  0  0  0  0  0  0  0  0  0  0  0
   -7.0507   20.1461  -31.9067 H   0  0  0  0  0  0  0  0  0  0  0  0
   -8.4682   22.4332  -32.0293 H   0  0  0  0  0  0  0  0  0  0  0  0
   -8.1180   21.1851  -30.8114 H   0  0  0  0  0  0  0  0  0  0  0  0
   -7.7761   23.7343  -30.2554 H   0  0  0  0  0  0  0  0  0  0  0  0
   -5.3350   25.9930  -28.8420 H   0  0  0  0  0  0  0  0  0  0  0  0
   -3.0162   24.8369  -28.0135 H   0  0  0  0  0  0  0  0  0  0  0  0
   -2.2029   23.6452  -29.0835 H   0  0  0  0  0  0  0  0  0  0  0  0
   -1.6720   25.3612  -29.0835 H   0  0  0  0  0  0  0  0  0  0  0  0
   -3.0768   22.8200  -31.5226 H   0  0  0  0  0  0  0  0  0  0  0  0
  1  2  1  0
  2  3  1  0
  3  4  2  0
  3  5  2  0
  3  6  1  0
  6  7  2  0
  7  8  1  0
  8  9  2  0
  9 10  1  0
 10 11  2  0
 11 12  1  0
 12 13  2  0
 13 14  1  0
 14 15  1  0
 15 16  1  0
 16 17  2  0
 17 18  1  0
 18 19  1  0
 19 20  1  0
 20 21  1  0
 21 22  2  0
 22 23  1  0
 23 24  1  0
 23 25  2  0
 25 26  1  0
 26 27  1  0
 25 28  1  0
 28 29  2  0
 11  6  1  0
 17 13  1  0
 29 21  1  0
 29 16  1  0
  1 30  1  0
  1 31  1  0
  1 32  1  0
  2 33  1  0
  7 34  1  0
  8 35  1  0
  9 36  1  0
 10 37  1  0
 14 38  1  0
 15 39  1  0
 18 40  1  0
 18 41  1  0
 19 42  1  0
 19 43  1  0
 20 44  1  0
 20 45  1  0
 22 46  1  0
 24 47  1  0
 27 48  1  0
 27 49  1  0
 27 50  1  0
 28 51  1  0
M  END
>  <smiles>  (30) 
CNS(=O)(=O)c1ccccc1N=c1[nH][nH]c2c1CCCc1cc(O)c(OC)cc1-2

>  <score_type>  (30) 
oracle

>  <origin>  (30) 
adg

>  <m_score__min__energy>  (30) 
-7.1799999999999997

>  <m_primary>  (30) 
energy

$$$$
30:0
     RDKit          3D

 32 33  0  0  0  0  0  0  0  0999 V2000
   -8.9520   21.5720  -30.9790 C   0  0  0  0  0  0  0  0  0  0  0  0
   -8.0180   22.1660  -31.8750 O   0  0  0  0  0  0  0  0  0  0  0  0
   -6.9270   22.9520  -31.4750 C   0  0  0  0  0  0  0  0  0  0  0  0
   -7.0860   24.1840  -30.8130 C   0  0  0  0  0  0  0  0  0  0  0  0
   -5.9660   24.9300  -30.4360 C   0  0  0  0  0  0  0  0  0  0  0  0
   -4.6750   24.4710  -30.7250 C   0  0  0  0  0  0  0  0  0  0  0  0
   -3.5540   25.2600  -30.2990 N   0  0  0  0  0  0  0  0  0  0  0  0
   -2.5530   24.8830  -29.3450 C   0  0  0  0  0  0  0  0  0  0  0  0
   -1.6080   25.6720  -29.0810 O   0  0  0  0  0  0  0  0  0  0  0  0
   -2.6520   23.5920  -28.6230 C   0  0  0  0  0  0  0  0  0  0  0  0
   -2.0130   22.4110  -28.9740 C   0  0  0  0  0  0  0  0  0  0  0  0
   -0.9260   22.1130  -30.3230 Cl  0  0  0  0  0  0  0  0  0  0  0  0
   -2.4050   21.4970  -28.0180 C   0  0  0  0  0  0  0  0  0  0  0  0
   -1.9690   20.0710  -27.9270 C   0  0  0  0  0  0  0  0  0  0  0  0
   -3.2290   22.0880  -27.1330 N   0  0  0  0  0  0  0  0  0  0  0  0
   -3.3790   23.3510  -27.5020 N   0  0  0  0  0  0  0  0  0  0  0  0
   -4.2210   24.2870  -26.7640 C   0  0  0  0  0  0  0  0  0  0  0  0
   -4.5160   23.2300  -31.3650 C   0  0  0  0  0  0  0  0  0  0  0  0
   -5.6360   22.4830  -31.7410 C   0  0  0  0  0  0  0  0  0  0  0  0
   -8.6419   21.7692  -29.9422 H   0  0  0  0  0  0  0  0  0  0  0  0
   -9.9498   22.0018  -31.1513 H   0  0  0  0  0  0  0  0  0  0  0  0
   -8.9858   20.4861  -31.1513 H   0  0  0  0  0  0  0  0  0  0  0  0
   -8.0954   24.5609  -30.5916 H   0  0  0  0  0  0  0  0  0  0  0  0
   -6.0997   25.8856  -29.9079 H   0  0  0  0  0  0  0  0  0  0  0  0
   -1.8805   19.7814  -26.8695 H   0  0  0  0  0  0  0  0  0  0  0  0
   -2.7116   19.4282  -28.4222 H   0  0  0  0  0  0  0  0  0  0  0  0
   -0.9939   19.9534  -28.4222 H   0  0  0  0  0  0  0  0  0  0  0  0
   -4.0818   24.1323  -25.6839 H   0  0  0  0  0  0  0  0  0  0  0  0
   -3.9402   25.3178  -27.0259 H   0  0  0  0  0  0  0  0  0  0  0  0
   -5.2757   24.1165  -27.0259 H   0  0  0  0  0  0  0  0  0  0  0  0
   -3.5063   22.8450  -31.5708 H   0  0  0  0  0  0  0  0  0  0  0  0
   -5.5011   21.5176  -32.2507 H   0  0  0  0  0  0  0  0  0  0  0  0
  1  2  1  0
  2  3  1  0
  3  4  2  0
  4  5  1  0
  5  6  2  0
  6  7  1  0
  7  8  1  0
  8  9  2  0
  8 10  1  0
 10 11  2  0
 11 12  1  0
 11 13  1  0
 13 14  1  0
 13 15  2  0
 15 16  1  0
 16 17  1  0
  6 18  1  0
 18 19  2  0
 19  3  1  0
 16 10  1  0
  1 20  1  0
  1 21  1  0
  1 22  1  0
  4 23  1  0
  5 24  1  0
 14 25  1  0
 14 26  1  0
 14 27  1  0
 17 28  1  0
 17 29  1  0
 17 30  1  0
 18 31  1  0
 19 32  1  0
M  CHG  1   7  -1
M  END
>  <UniqueID>  (31) 
27

>  <SMILES>  (31) 
COc1ccc([N-]C(=O)c2c(Cl)c(C)nn2C)cc1

>  <Energy>  (31) 
65.56539832538184

>  <Genealogy>  (31) 
COc1ccc([N-]C(=O)c2c(Cl)c(C)nn2C)cc1 (protonated)
COc1ccc([N-]C(=O)c2c(Cl)c(C)nn2C)cc1 (3D coordinates assigned)
COc1ccc([N-]C(=O)c2c(Cl)c(C)nn2C)cc1 (optimized conformer: 65.56539832538184 kcal/mol)

>  <smiles>  (31) 
COc1ccc(NC(=O)c2c(Cl)c(C)nn2C)cc1

>  <score_type>  (31) 
oracle

>  <origin>  (31) 
adg

>  <m_score__min__energy>  (31) 
-7.7400000000000002

>  <m_primary>  (31) 
energy

$$$$
31:0
     RDKit          3D

 22 22  0  0  0  0  0  0  0  0999 V2000
   -2.4880   20.2580  -27.4360 C   0  0  0  0  0  0  0  0  0  0  0  0
   -3.2600   21.4460  -27.5520 O   0  0  0  0  0  0  0  0  0  0  0  0
   -2.7730   22.6100  -28.1530 C   0  0  0  0  0  0  0  0  0  0  0  0
   -3.6010   23.3410  -29.0050 C   0  0  0  0  0  0  0  0  0  0  0  0
   -3.0960   24.5080  -29.6010 C   0  0  0  0  0  0  0  0  0  0  0  0
   -3.8610   25.2990  -30.4700 O   0  0  0  0  0  0  0  0  0  0  0  0
   -5.2860   25.3150  -30.4980 C   0  0  0  0  0  0  0  0  0  0  0  0
   -1.8210   24.8900  -29.3320 N   0  0  0  0  0  0  0  0  0  0  0  0
   -1.0230   24.1670  -28.4980 C   0  0  0  0  0  0  0  0  0  0  0  0
    0.2880   24.5720  -28.2300 O   0  0  0  0  0  0  0  0  0  0  0  0
    0.8580   24.5190  -26.9280 C   0  0  0  0  0  0  0  0  0  0  0  0
   -1.5030   23.0380  -27.9180 N   0  0  0  0  0  0  0  0  0  0  0  0
   -2.3350   20.0225  -26.3724 H   0  0  0  0  0  0  0  0  0  0  0  0
   -3.0189   19.4267  -27.9229 H   0  0  0  0  0  0  0  0  0  0  0  0
   -1.5127   20.4055  -27.9229 H   0  0  0  0  0  0  0  0  0  0  0  0
   -4.6304   23.0095  -29.2063 H   0  0  0  0  0  0  0  0  0  0  0  0
   -5.6729   25.3193  -29.4683 H   0  0  0  0  0  0  0  0  0  0  0  0
   -5.6323   26.2171  -31.0236 H   0  0  0  0  0  0  0  0  0  0  0  0
   -5.6525   24.4209  -31.0236 H   0  0  0  0  0  0  0  0  0  0  0  0
    0.0596   24.5932  -26.1749 H   0  0  0  0  0  0  0  0  0  0  0  0
    1.3944   23.5671  -26.8011 H   0  0  0  0  0  0  0  0  0  0  0  0
    1.5608   25.3557  -26.8011 H   0  0  0  0  0  0  0  0  0  0  0  0
  1  2  1  0
  2  3  1  0
  3  4  2  0
  4  5  1  0
  5  6  1  0
  6  7  1  0
  5  8  2  0
  8  9  1  0
  9 10  1  0
 10 11  1  0
  9 12  2  0
 12  3  1  0
  1 13  1  0
  1 14  1  0
  1 15  1  0
  4 16  1  0
  7 17  1  0
  7 18  1  0
  7 19  1  0
 11 20  1  0
 11 21  1  0
 11 22  1  0
M  END
>  <UniqueID>  (32) 
28

>  <SMILES>  (32) 
COc1cc(OC)nc(OC)n1

>  <Energy>  (32) 
16.14782329626071

>  <Genealogy>  (32) 
COc1cc(OC)nc(OC)n1 (3D coordinates assigned)
COc1cc(OC)nc(OC)n1 (optimized conformer: 16.14782329626071 kcal/mol)

>  <smiles>  (32) 
COc1cc(OC)nc(OC)n1

>  <score_type>  (32) 
oracle

>  <origin>  (32) 
adg

>  <m_score__min__energy>  (32) 
-4.0099999999999998

>  <m_primary>  (32) 
energy

$$$$
32:0
     RDKit          3D

 33 33  0  0  0  0  0  0  0  0999 V2000
   -3.8320   22.0920  -30.1750 C   0  0  0  0  0  0  0  0  0  0  0  0
   -4.9420   23.1240  -29.9910 C   0  0  0  0  0  0  0  0  0  0  0  0
   -4.9910   24.0490  -31.1450 N   0  0  0  0  0  0  0  0  0  0  0  0
   -5.6940   25.3130  -30.8240 C   0  0  0  0  0  0  0  0  0  0  0  0
   -6.1980   25.3040  -29.3840 C   0  0  0  0  0  0  0  0  0  0  0  0
   -5.4800   23.3910  -32.3850 C   0  0  0  0  0  0  0  0  0  0  0  0
   -6.7040   22.5100  -32.1850 C   0  0  0  0  0  0  0  0  0  0  0  0
   -7.9200   23.0880  -31.7770 C   0  0  0  0  0  0  0  0  0  0  0  0
   -9.0570   22.3000  -31.5940 C   0  0  0  0  0  0  0  0  0  0  0  0
   -8.9950   20.9230  -31.8010 C   0  0  0  0  0  0  0  0  0  0  0  0
   -7.7920   20.3270  -32.1820 C   0  0  0  0  0  0  0  0  0  0  0  0
   -6.6340   21.1090  -32.3700 C   0  0  0  0  0  0  0  0  0  0  0  0
   -5.4080   20.5280  -32.7360 O   0  0  0  0  0  0  0  0  0  0  0  0
   -5.2700   19.3450  -33.5130 C   0  0  0  0  0  0  0  0  0  0  0  0
   -3.4739   21.7591  -29.1897 H   0  0  0  0  0  0  0  0  0  0  0  0
   -4.2227   21.2289  -30.7340 H   0  0  0  0  0  0  0  0  0  0  0  0
   -2.9996   22.5445  -30.7340 H   0  0  0  0  0  0  0  0  0  0  0  0
   -5.9075   22.6044  -29.9032 H   0  0  0  0  0  0  0  0  0  0  0  0
   -4.7378   23.7052  -29.0796 H   0  0  0  0  0  0  0  0  0  0  0  0
   -4.9994   26.1555  -30.9574 H   0  0  0  0  0  0  0  0  0  0  0  0
   -6.5570   25.4167  -31.4982 H   0  0  0  0  0  0  0  0  0  0  0  0
   -5.3404   25.3193  -28.6953 H   0  0  0  0  0  0  0  0  0  0  0  0
   -6.8245   26.1911  -29.2092 H   0  0  0  0  0  0  0  0  0  0  0  0
   -6.7924   24.3951  -29.2092 H   0  0  0  0  0  0  0  0  0  0  0  0
   -5.7350   24.1748  -33.1134 H   0  0  0  0  0  0  0  0  0  0  0  0
   -4.6707   22.7319  -32.7322 H   0  0  0  0  0  0  0  0  0  0  0  0
   -7.9751   24.1723  -31.6004 H   0  0  0  0  0  0  0  0  0  0  0  0
  -10.0043   22.7665  -31.2857 H   0  0  0  0  0  0  0  0  0  0  0  0
   -9.8950   20.3056  -31.6639 H   0  0  0  0  0  0  0  0  0  0  0  0
   -7.7469   19.2389  -32.3368 H   0  0  0  0  0  0  0  0  0  0  0  0
   -5.1688   18.4771  -32.8447 H   0  0  0  0  0  0  0  0  0  0  0  0
   -6.1593   19.2173  -34.1476 H   0  0  0  0  0  0  0  0  0  0  0  0
   -4.3752   19.4255  -34.1476 H   0  0  0  0  0  0  0  0  0  0  0  0
  1  2  1  0
  2  3  1  0
  3  4  1  0
  4  5  1  0
  3  6  1  0
  6  7  1  0
  7  8  2  0
  8  9  1  0
  9 10  2  0
 10 11  1  0
 11 12  2  0
 12 13  1  0
 13 14  1  0
 12  7  1  0
  1 15  1  0
  1 16  1  0
  1 17  1  0
  2 18  1  0
  2 19  1  0
  4 20  1  0
  4 21  1  0
  5 22  1  0
  5 23  1  0
  5 24  1  0
  6 25  1  0
  6 26  1  0
  8 27  1  0
  9 28  1  0
 10 29  1  0
 11 30  1  0
 14 31  1  0
 14 32  1  0
 14 33  1  0
M  END
>  <UniqueID>  (33) 
29

>  <SMILES>  (33) 
CCN(CC)Cc1ccccc1OC

>  <Energy>  (33) 
31.95370215439776

>  <Genealogy>  (33) 
CCN(CC)Cc1ccccc1OC (3D coordinates assigned)
CCN(CC)Cc1ccccc1OC (optimized conformer: 31.95370215439776 kcal/mol)

>  <smiles>  (33) 
CCN(CC)Cc1ccccc1OC

>  <score_type>  (33) 
oracle

>  <origin>  (33) 
adg

>  <m_score__min__energy>  (33) 
-5.3899999999999997

>  <m_primary>  (33) 
energy

$$$$
33:0
     RDKit          3D

 25 27  0  0  0  0  0  0  0  0999 V2000
   -8.3430   19.6470  -32.0630 C   0  0  0  0  0  0  0  0  0  0  0  0
   -7.8690   21.0310  -31.7710 C   0  0  0  0  0  0  0  0  0  0  0  0
   -8.6840   22.1080  -31.9460 N   0  0  0  0  0  0  0  0  0  0  0  0
   -7.7710   23.4050  -31.4520 S   0  0  0  0  0  0  0  0  0  0  0  0
   -6.3930   22.5710  -31.0250 C   0  0  0  0  0  0  0  0  0  0  0  0
   -5.1350   23.1390  -30.4770 C   0  0  0  0  0  0  0  0  0  0  0  0
   -4.3420   22.3830  -29.5990 C   0  0  0  0  0  0  0  0  0  0  0  0
   -3.1590   22.9210  -29.0870 C   0  0  0  0  0  0  0  0  0  0  0  0
   -2.3440   22.1940  -28.2070 C   0  0  0  0  0  0  0  0  0  0  0  0
   -1.1660   22.7650  -27.7150 C   0  0  0  0  0  0  0  0  0  0  0  0
   -0.8000   24.0590  -28.0960 C   0  0  0  0  0  0  0  0  0  0  0  0
   -1.6090   24.7910  -28.9730 C   0  0  0  0  0  0  0  0  0  0  0  0
   -1.2350   26.0770  -29.3460 O   0  0  0  0  0  0  0  0  0  0  0  0
   -2.7900   24.2260  -29.4720 C   0  0  0  0  0  0  0  0  0  0  0  0
   -3.5600   24.9180  -30.3040 O   0  0  0  0  0  0  0  0  0  0  0  0
   -4.6930   24.4390  -30.8110 C   0  0  0  0  0  0  0  0  0  0  0  0
   -5.3600   25.1660  -31.5940 O   0  0  0  0  0  0  0  0  0  0  0  0
   -6.6180   21.2600  -31.2600 N   0  0  0  0  0  0  0  0  0  0  0  0
   -8.5253   19.1148  -31.1177 H   0  0  0  0  0  0  0  0  0  0  0  0
   -9.2763   19.6939  -32.6433 H   0  0  0  0  0  0  0  0  0  0  0  0
   -7.5769   19.1118  -32.6433 H   0  0  0  0  0  0  0  0  0  0  0  0
   -4.6524   21.3668  -29.3143 H   0  0  0  0  0  0  0  0  0  0  0  0
   -2.6310   21.1762  -27.9043 H   0  0  0  0  0  0  0  0  0  0  0  0
   -0.5258   22.1942  -27.0263 H   0  0  0  0  0  0  0  0  0  0  0  0
    0.1271   24.5038  -27.7053 H   0  0  0  0  0  0  0  0  0  0  0  0
  1  2  1  0
  2  3  2  0
  3  4  1  0
  4  5  1  0
  5  6  1  0
  6  7  2  0
  7  8  1  0
  8  9  2  0
  9 10  1  0
 10 11  2  0
 11 12  1  0
 12 13  1  0
 12 14  2  0
 14 15  1  0
 15 16  1  0
 16 17  2  0
  5 18  2  0
 18  2  1  0
 16  6  1  0
 14  8  1  0
  1 19  1  0
  1 20  1  0
  1 21  1  0
  7 22  1  0
  9 23  1  0
 10 24  1  0
 11 25  1  0
M  CHG  1  13  -1
M  END
>  <UniqueID>  (34) 
30

>  <SMILES>  (34) 
Cc1nsc(-c2cc3cccc([O-])c3oc2=O)n1

>  <Energy>  (34) 
69.47511238605409

>  <Genealogy>  (34) 
Cc1nsc(-c2cc3cccc([O-])c3oc2=O)n1 (protonated)
Cc1nsc(-c2cc3cccc([O-])c3oc2=O)n1 (3D coordinates assigned)
Cc1nsc(-c2cc3cccc([O-])c3oc2=O)n1 (optimized conformer: 69.47511238605409 kcal/mol)

>  <smiles>  (34) 
Cc1nsc(-c2cc3cccc(O)c3oc2=O)n1

>  <score_type>  (34) 
oracle

>  <origin>  (34) 
adg

>  <m_score__min__energy>  (34) 
-10.890000000000001

>  <m_primary>  (34) 
energy

$$$$
34:0
     RDKit          3D

 36 37  0  0  0  0  0  0  0  0999 V2000
   -6.2090   24.9720  -29.8800 C   0  0  0  0  0  0  0  0  0  0  0  0
   -5.1880   25.9200  -30.4980 C   0  0  0  0  0  0  0  0  0  0  0  0
   -3.8720   25.2900  -30.5490 N   0  0  0  0  0  0  0  0  0  0  0  0
   -3.6320   23.8910  -30.7520 C   0  0  0  0  0  0  0  0  0  0  0  0
   -4.3350   23.2740  -31.5980 O   0  0  0  0  0  0  0  0  0  0  0  0
   -2.5420   23.1640  -30.0170 C   0  0  0  0  0  0  0  0  0  0  0  0
   -2.5170   21.7900  -30.4000 O   0  0  0  0  0  0  0  0  0  0  0  0
   -2.0880   21.3190  -31.6510 C   0  0  0  0  0  0  0  0  0  0  0  0
   -0.7420   21.4040  -32.0580 C   0  0  0  0  0  0  0  0  0  0  0  0
   -0.3490   20.9250  -33.3090 C   0  0  0  0  0  0  0  0  0  0  0  0
   -1.2920   20.3630  -34.1700 C   0  0  0  0  0  0  0  0  0  0  0  0
   -2.6290   20.2730  -33.7810 C   0  0  0  0  0  0  0  0  0  0  0  0
   -3.0380   20.7350  -32.5160 C   0  0  0  0  0  0  0  0  0  0  0  0
   -4.4200   20.6690  -32.1220 N   0  0  0  0  0  0  0  0  0  0  0  0
   -5.3890   19.8250  -32.7650 C   0  0  0  0  0  0  0  0  0  0  0  0
   -5.0080   18.8720  -33.4980 O   0  0  0  0  0  0  0  0  0  0  0  0
   -6.8330   20.0270  -32.5480 C   0  0  0  0  0  0  0  0  0  0  0  0
   -7.8360   19.0680  -32.6530 C   0  0  0  0  0  0  0  0  0  0  0  0
   -9.1130   19.5700  -32.3690 C   0  0  0  0  0  0  0  0  0  0  0  0
   -9.1230   20.9180  -32.0390 C   0  0  0  0  0  0  0  0  0  0  0  0
   -7.5430   21.4850  -32.0970 S   0  0  0  0  0  0  0  0  0  0  0  0
   -6.1465   25.0301  -28.7833 H   0  0  0  0  0  0  0  0  0  0  0  0
   -7.2198   25.2591  -30.2053 H   0  0  0  0  0  0  0  0  0  0  0  0
   -5.9976   23.9427  -30.2053 H   0  0  0  0  0  0  0  0  0  0  0  0
   -5.5055   26.1787  -31.5189 H   0  0  0  0  0  0  0  0  0  0  0  0
   -5.1247   26.8275  -29.8796 H   0  0  0  0  0  0  0  0  0  0  0  0
   -1.5726   23.6252  -30.2570 H   0  0  0  0  0  0  0  0  0  0  0  0
   -2.7339   23.2304  -28.9359 H   0  0  0  0  0  0  0  0  0  0  0  0
    0.0047   21.8510  -31.3852 H   0  0  0  0  0  0  0  0  0  0  0  0
    0.7052   20.9907  -33.6162 H   0  0  0  0  0  0  0  0  0  0  0  0
   -0.9810   19.9903  -35.1571 H   0  0  0  0  0  0  0  0  0  0  0  0
   -3.3692   19.8375  -34.4684 H   0  0  0  0  0  0  0  0  0  0  0  0
   -4.7120   21.1890  -31.2640 H   0  0  0  0  0  0  0  0  0  0  0  0
   -7.6454   18.0209  -32.9311 H   0  0  0  0  0  0  0  0  0  0  0  0
  -10.0230   18.9530  -32.4043 H   0  0  0  0  0  0  0  0  0  0  0  0
  -10.0124   21.5127  -31.7835 H   0  0  0  0  0  0  0  0  0  0  0  0
  1  2  1  0
  2  3  1  0
  3  4  1  0
  4  5  2  0
  4  6  1  0
  6  7  1  0
  7  8  1  0
  8  9  2  0
  9 10  1  0
 10 11  2  0
 11 12  1  0
 12 13  2  0
 13 14  1  0
 14 15  1  0
 15 16  2  0
 15 17  1  0
 17 18  2  0
 18 19  1  0
 19 20  2  0
 20 21  1  0
 13  8  1  0
 21 17  1  0
  1 22  1  0
  1 23  1  0
  1 24  1  0
  2 25  1  0
  2 26  1  0
  6 27  1  0
  6 28  1  0
  9 29  1  0
 10 30  1  0
 11 31  1  0
 12 32  1  0
 14 33  1  0
 18 34  1  0
 19 35  1  0
 20 36  1  0
M  CHG  1   3  -1
M  END
>  <UniqueID>  (35) 
31

>  <SMILES>  (35) 
CC[N-]C(=O)COc1ccccc1NC(=O)c1cccs1

>  <Energy>  (35) 
61.233132631590294

>  <Genealogy>  (35) 
CC[N-]C(=O)COc1ccccc1NC(=O)c1cccs1 (protonated)
CC[N-]C(=O)COc1ccccc1NC(=O)c1cccs1 (3D coordinates assigned)
CC[N-]C(=O)COc1ccccc1NC(=O)c1cccs1 (optimized conformer: 61.233132631590294 kcal/mol)

>  <smiles>  (35) 
CCNC(=O)COc1ccccc1NC(=O)c1cccs1

>  <score_type>  (35) 
oracle

>  <origin>  (35) 
adg

>  <m_score__min__energy>  (35) 
-8.6699999999999999

>  <m_primary>  (35) 
energy

$$$$
35:0
     RDKit          3D

 71 75  0  0  0  0  0  0  0  0999 V2000
   -8.1290   22.2910  -30.1820 C   0  0  0  0  0  0  0  0  0  0  0  0
   -9.5390   21.5610  -31.0800 S   0  0  0  0  0  0  0  0  0  0  0  0
   -8.5450   20.2980  -31.8710 C   0  0  0  0  0  0  0  0  0  0  0  0
   -8.8060   18.9470  -31.6320 C   0  0  0  0  0  0  0  0  0  0  0  0
   -8.0520   17.9610  -32.2730 C   0  0  0  0  0  0  0  0  0  0  0  0
   -7.0220   18.3180  -33.1650 C   0  0  0  0  0  0  0  0  0  0  0  0
   -6.1860   17.2610  -33.8610 C   0  0  1  0  0  0  0  0  0  0  0  0
   -5.1050   17.9160  -34.7440 C   0  0  0  0  0  0  0  0  0  0  0  0
   -4.1030   16.8550  -35.2160 C   0  0  0  0  0  0  0  0  0  0  0  0
   -3.4120   16.1590  -34.0900 N   0  0  1  0  0  0  0  0  0  0  0  0
   -1.9960   16.4840  -33.9950 C   0  0  0  0  0  0  0  0  0  0  0  0
   -1.1430   15.6300  -34.3630 O   0  0  0  0  0  0  0  0  0  0  0  0
   -1.4900   17.7870  -33.4950 C   0  0  0  0  0  0  0  0  0  0  0  0
   -1.5300   18.9500  -34.2850 C   0  0  0  0  0  0  0  0  0  0  0  0
   -1.0550   20.1640  -33.7760 C   0  0  0  0  0  0  0  0  0  0  0  0
   -0.5390   20.2310  -32.4700 C   0  0  0  0  0  0  0  0  0  0  0  0
   -0.0870   21.5490  -31.8910 C   0  0  0  0  0  0  0  0  0  0  0  0
   -1.2010   22.2170  -31.1870 N   0  0  0  0  0  0  0  0  0  0  0  0
   -1.0230   22.1560  -29.7230 C   0  0  0  0  0  0  0  0  0  0  0  0
   -2.0730   23.0530  -29.0260 C   0  0  0  0  0  0  0  0  0  0  0  0
   -3.2010   23.3430  -29.9310 N   0  0  0  0  0  0  0  0  0  0  0  0
   -4.3090   24.0150  -29.2350 C   0  0  0  0  0  0  0  0  0  0  0  0
   -5.3360   24.5450  -30.2590 C   0  0  0  0  0  0  0  0  0  0  0  0
   -5.3310   23.7490  -31.5770 C   0  0  0  0  0  0  0  0  0  0  0  0
   -5.0150   22.2720  -31.3310 C   0  0  0  0  0  0  0  0  0  0  0  0
   -3.6420   22.1030  -30.6190 C   0  0  1  0  0  0  0  0  0  0  0  0
   -2.5190   21.6670  -31.5960 C   0  0  0  0  0  0  0  0  0  0  0  0
   -0.5290   19.0750  -31.6690 C   0  0  0  0  0  0  0  0  0  0  0  0
   -0.9930   17.8630  -32.1830 C   0  0  0  0  0  0  0  0  0  0  0  0
   -4.0620   16.3170  -32.7640 C   0  0  0  0  0  0  0  0  0  0  0  0
   -5.5930   16.2260  -32.8650 C   0  0  0  0  0  0  0  0  0  0  0  0
   -6.7600   19.6820  -33.3910 C   0  0  0  0  0  0  0  0  0  0  0  0
   -7.5260   20.6630  -32.7570 C   0  0  0  0  0  0  0  0  0  0  0  0
   -8.2990   22.2030  -29.0988 H   0  0  0  0  0  0  0  0  0  0  0  0
   -7.2059   21.7575  -30.4528 H   0  0  0  0  0  0  0  0  0  0  0  0
   -8.0318   23.3527  -30.4528 H   0  0  0  0  0  0  0  0  0  0  0  0
   -9.6080   18.6583  -30.9367 H   0  0  0  0  0  0  0  0  0  0  0  0
   -8.2640   16.8990  -32.0799 H   0  0  0  0  0  0  0  0  0  0  0  0
   -6.8532   16.6890  -34.5226 H   0  0  0  0  0  0  0  0  0  0  0  0
   -4.5753   18.6847  -34.1622 H   0  0  0  0  0  0  0  0  0  0  0  0
   -5.5838   18.3772  -35.6204 H   0  0  0  0  0  0  0  0  0  0  0  0
   -3.3437   17.3451  -35.8431 H   0  0  0  0  0  0  0  0  0  0  0  0
   -4.6694   16.0943  -35.7733 H   0  0  0  0  0  0  0  0  0  0  0  0
   -3.4510   15.1340  -34.3120 H   0  0  0  0  0  0  0  0  0  0  0  0
   -1.9360   18.9052  -35.3063 H   0  0  0  0  0  0  0  0  0  0  0  0
   -1.0855   21.0692  -34.4002 H   0  0  0  0  0  0  0  0  0  0  0  0
    0.7336   21.3695  -31.1808 H   0  0  0  0  0  0  0  0  0  0  0  0
    0.2545   22.1981  -32.7108 H   0  0  0  0  0  0  0  0  0  0  0  0
   -1.1481   21.1172  -29.3835 H   0  0  0  0  0  0  0  0  0  0  0  0
   -0.0147   22.5129  -29.4661 H   0  0  0  0  0  0  0  0  0  0  0  0
   -2.4521   22.5359  -28.1322 H   0  0  0  0  0  0  0  0  0  0  0  0
   -1.5938   24.0027  -28.7460 H   0  0  0  0  0  0  0  0  0  0  0  0
   -4.8030   23.2991  -28.5616 H   0  0  0  0  0  0  0  0  0  0  0  0
   -3.9098   24.8604  -28.6553 H   0  0  0  0  0  0  0  0  0  0  0  0
   -6.3401   24.4819  -29.8143 H   0  0  0  0  0  0  0  0  0  0  0  0
   -5.0596   25.5825  -30.4981 H   0  0  0  0  0  0  0  0  0  0  0  0
   -6.3214   23.8302  -32.0488 H   0  0  0  0  0  0  0  0  0  0  0  0
   -4.5531   24.1668  -32.2330 H   0  0  0  0  0  0  0  0  0  0  0  0
   -5.8032   21.8366  -30.6992 H   0  0  0  0  0  0  0  0  0  0  0  0
   -4.9698   21.7583  -32.3026 H   0  0  0  0  0  0  0  0  0  0  0  0
   -3.8075   21.3115  -29.8732 H   0  0  0  0  0  0  0  0  0  0  0  0
   -2.4606   20.5686  -31.6069 H   0  0  0  0  0  0  0  0  0  0  0  0
   -2.7606   22.0550  -32.5965 H   0  0  0  0  0  0  0  0  0  0  0  0
   -0.1549   19.1261  -30.6358 H   0  0  0  0  0  0  0  0  0  0  0  0
   -0.9694   16.9598  -31.5556 H   0  0  0  0  0  0  0  0  0  0  0  0
   -3.7902   17.2987  -32.3488 H   0  0  0  0  0  0  0  0  0  0  0  0
   -3.7130   15.5022  -32.1126 H   0  0  0  0  0  0  0  0  0  0  0  0
   -6.0237   16.4077  -31.8693 H   0  0  0  0  0  0  0  0  0  0  0  0
   -5.8444   15.2219  -33.2371 H   0  0  0  0  0  0  0  0  0  0  0  0
   -5.9473   19.9774  -34.0709 H   0  0  0  0  0  0  0  0  0  0  0  0
   -7.3271   21.7266  -32.9552 H   0  0  0  0  0  0  0  0  0  0  0  0
  1  2  1  0
  2  3  1  0
  3  4  2  0
  4  5  1  0
  5  6  2  0
  6  7  1  0
  7  8  1  0
  8  9  1  0
  9 10  1  0
 10 11  1  0
 11 12  2  0
 11 13  1  0
 13 14  2  0
 14 15  1  0
 15 16  2  0
 16 17  1  0
 17 18  1  0
 18 19  1  0
 19 20  1  0
 20 21  1  0
 21 22  1  0
 22 23  1  0
 23 24  1  0
 24 25  1  0
 25 26  1  0
 26 27  1  0
 16 28  1  0
 28 29  2  0
 10 30  1  0
 30 31  1  0
  6 32  1  0
 32 33  2  0
 33  3  1  0
 31  7  1  0
 29 13  1  0
 27 18  1  0
 26 21  1  0
  1 34  1  0
  1 35  1  0
  1 36  1  0
  4 37  1  0
  5 38  1  0
  7 39  1  6
  8 40  1  0
  8 41  1  0
  9 42  1  0
  9 43  1  0
 10 44  1  6
 14 45  1  0
 15 46  1  0
 17 47  1  0
 17 48  1  0
 19 49  1  0
 19 50  1  0
 20 51  1  0
 20 52  1  0
 22 53  1  0
 22 54  1  0
 23 55  1  0
 23 56  1  0
 24 57  1  0
 24 58  1  0
 25 59  1  0
 25 60  1  0
 26 61  1  1
 27 62  1  0
 27 63  1  0
 28 64  1  0
 29 65  1  0
 30 66  1  0
 30 67  1  0
 31 68  1  0
 31 69  1  0
 32 70  1  0
 33 71  1  0
M  CHG  1  10   1
M  END
>  <UniqueID>  (36) 
32

>  <SMILES>  (36) 
CSc1ccc(C2CC[NH+](C(=O)c3ccc(CN4CCN5CCCC[C@H]5C4)cc3)CC2)cc1

>  <Energy>  (36) 
103.07570530251971

>  <Genealogy>  (36) 
CSc1ccc(C2CC[NH+](C(=O)c3ccc(CN4CCN5CCCCC5C4)cc3)CC2)cc1 (protonated)
CSc1ccc(C2CC[NH+](C(=O)c3ccc(CN4CCN5CCCC[C@H]5C4)cc3)CC2)cc1 (chirality)
CSc1ccc(C2CC[NH+](C(=O)c3ccc(CN4CCN5CCCC[C@H]5C4)cc3)CC2)cc1 (3D coordinates assigned)
CSc1ccc(C2CC[NH+](C(=O)c3ccc(CN4CCN5CCCC[C@H]5C4)cc3)CC2)cc1 (nonaromatic ring conformer: 103.07570530251971 kcal/mol)

>  <smiles>  (36) 
CSc1ccc(C2CCN(C(=O)c3ccc(CN4CCN5CCCCC5C4)cc3)CC2)cc1

>  <score_type>  (36) 
oracle

>  <origin>  (36) 
adg

>  <m_score__min__energy>  (36) 
-10.140000000000001

>  <m_primary>  (36) 
energy

$$$$
36:0
     RDKit          3D

 47 49  0  0  0  0  0  0  0  0999 V2000
   -2.2675   21.9010  -26.9428 H   0  0  0  0  0  0  0  0  0  0  0  0
   -2.7250   21.4350  -27.8280 C   0  0  0  0  0  0  0  0  0  0  0  0
   -2.7765   20.3391  -27.9079 H   0  0  0  0  0  0  0  0  0  0  0  0
   -3.2180   22.2000  -28.8060 C   0  0  0  0  0  0  0  0  0  0  0  0
   -3.1540   23.5570  -28.8400 N   0  0  0  0  0  0  0  0  0  0  0  0
   -2.6390   24.4630  -27.8480 C   0  0  0  0  0  0  0  0  0  0  0  0
   -3.4150   24.7990  -26.7330 C   0  0  0  0  0  0  0  0  0  0  0  0
   -4.4262   24.3800  -26.6241 H   0  0  0  0  0  0  0  0  0  0  0  0
   -2.9130   25.6630  -25.7580 C   0  0  0  0  0  0  0  0  0  0  0  0
   -3.5349   25.9236  -24.8889 H   0  0  0  0  0  0  0  0  0  0  0  0
   -1.6210   26.2030  -25.8760 C   0  0  0  0  0  0  0  0  0  0  0  0
   -1.1100   27.1360  -24.8100 C   0  0  0  0  0  0  0  0  0  0  0  0
   -1.3382   26.7193  -23.8179 H   0  0  0  0  0  0  0  0  0  0  0  0
   -0.0215   27.2537  -24.9167 H   0  0  0  0  0  0  0  0  0  0  0  0
   -1.5970   28.1165  -24.9167 H   0  0  0  0  0  0  0  0  0  0  0  0
   -0.8300   25.8660  -27.0010 C   0  0  0  0  0  0  0  0  0  0  0  0
    0.5640   26.4120  -27.1660 C   0  0  0  0  0  0  0  0  0  0  0  0
    1.0091   26.5864  -26.1753 H   0  0  0  0  0  0  0  0  0  0  0  0
    1.1780   25.6879  -27.7216 H   0  0  0  0  0  0  0  0  0  0  0  0
    0.5229   27.3605  -27.7216 H   0  0  0  0  0  0  0  0  0  0  0  0
   -1.3460   24.9890  -27.9710 C   0  0  0  0  0  0  0  0  0  0  0  0
   -0.7271   24.7123  -28.8373 H   0  0  0  0  0  0  0  0  0  0  0  0
   -3.6970   23.8910  -30.0280 C   0  0  0  0  0  0  0  0  0  0  0  0
   -3.8270   25.0740  -30.4430 O   0  0  0  0  0  0  0  0  0  0  0  0
   -4.1000   22.7500  -30.6910 C   0  0  0  0  0  0  0  0  0  0  0  0
   -4.6580   22.7020  -31.9130 C   0  0  0  0  0  0  0  0  0  0  0  0
   -4.8030   23.6509  -32.4501 H   0  0  0  0  0  0  0  0  0  0  0  0
   -5.0890   21.4570  -32.5810 C   0  0  0  0  0  0  0  0  0  0  0  0
   -6.4480   21.1480  -32.7490 C   0  0  0  0  0  0  0  0  0  0  0  0
   -7.2160   21.8270  -32.3501 H   0  0  0  0  0  0  0  0  0  0  0  0
   -6.8320   19.9830  -33.4200 C   0  0  0  0  0  0  0  0  0  0  0  0
   -7.8993   19.7407  -33.5300 H   0  0  0  0  0  0  0  0  0  0  0  0
   -5.8570   19.1180  -33.9560 C   0  0  0  0  0  0  0  0  0  0  0  0
   -6.1820   17.9330  -34.6350 O   0  0  0  0  0  0  0  0  0  0  0  0
   -6.4390   16.6680  -34.0240 C   0  0  0  0  0  0  0  0  0  0  0  0
   -7.5087   16.4308  -34.1211 H   0  0  0  0  0  0  0  0  0  0  0  0
   -5.8308   15.9021  -34.5276 H   0  0  0  0  0  0  0  0  0  0  0  0
   -6.0650   16.6970  -32.5460 C   0  0  0  0  0  0  0  0  0  0  0  0
   -6.9773   16.6263  -31.9355 H   0  0  0  0  0  0  0  0  0  0  0  0
   -5.4045   15.8474  -32.3182 H   0  0  0  0  0  0  0  0  0  0  0  0
   -5.5434   17.6383  -32.3182 H   0  0  0  0  0  0  0  0  0  0  0  0
   -4.5040   19.4440  -33.8070 C   0  0  0  0  0  0  0  0  0  0  0  0
   -3.7343   18.7767  -34.2221 H   0  0  0  0  0  0  0  0  0  0  0  0
   -4.1210   20.6090  -33.1360 C   0  0  0  0  0  0  0  0  0  0  0  0
   -3.0544   20.8614  -33.0431 H   0  0  0  0  0  0  0  0  0  0  0  0
   -3.7920   21.6850  -29.9180 N   0  0  0  0  0  0  0  0  0  0  0  0
   -3.9060   20.6710  -30.1430 H   0  0  0  0  0  0  0  0  0  0  0  0
  1  2  1  0
  2  3  1  0
  2  4  2  0
  4  5  1  0
  5  6  1  0
  6  7  2  0
  7  8  1  0
  7  9  1  0
  9 10  1  0
  9 11  2  0
 11 12  1  0
 12 13  1  0
 12 14  1  0
 12 15  1  0
 11 16  1  0
 16 17  1  0
 17 18  1  0
 17 19  1  0
 17 20  1  0
 16 21  2  0
 21 22  1  0
  5 23  1  0
 23 24  2  0
 23 25  1  0
 25 26  2  0
 26 27  1  0
 26 28  1  0
 28 29  2  0
 29 30  1  0
 29 31  1  0
 31 32  1  0
 31 33  2  0
 33 34  1  0
 34 35  1  0
 35 36  1  0
 35 37  1  0
 35 38  1  0
 38 39  1  0
 38 40  1  0
 38 41  1  0
 33 42  1  0
 42 43  1  0
 42 44  2  0
 44 45  1  0
 25 46  1  0
 46 47  1  0
 46  4  1  0
 21  6  1  0
 44 28  1  0
M  END
>  <UniqueID>  (37) 
33

>  <SMILES>  (37) 
C=c1[nH]/c(=C\c2ccc(OCC)cc2)c(=O)n1-c1ccc(C)c(C)c1

>  <Energy>  (37) 
93.69740096148905

>  <Genealogy>  (37) 
C=c1[nH]/c(=C\c2ccc(OCC)cc2)c(=O)n1-c1ccc(C)c(C)c1 (cis-trans isomerization)
C=c1[nH]/c(=C\c2ccc(OCC)cc2)c(=O)n1-c1ccc(C)c(C)c1 (3D coordinates assigned)
C=c1[nH]/c(=C\c2ccc(OCC)cc2)c(=O)n1-c1ccc(C)c(C)c1 (optimized conformer: 93.69740096148905 kcal/mol)

>  <smiles>  (37) 
C=c1[nH]c(=Cc2ccc(OCC)cc2)c(=O)n1-c1ccc(C)c(C)c1

>  <score_type>  (37) 
oracle

>  <origin>  (37) 
adg

>  <m_score__min__energy>  (37) 
-9.1600000000000001

>  <m_primary>  (37) 
energy

$$$$
37:0
     RDKit          3D

 45 47  0  0  0  0  0  0  0  0999 V2000
   -7.5970   22.6130  -30.0140 C   0  0  0  0  0  0  0  0  0  0  0  0
   -8.4000   21.6010  -30.8240 C   0  0  0  0  0  0  0  0  0  0  0  0
   -7.5040   20.7100  -31.5740 N   0  0  0  0  0  0  0  0  0  0  0  0
   -7.7920   19.2650  -31.6070 C   0  0  0  0  0  0  0  0  0  0  0  0
   -9.1050   18.9760  -32.3310 C   0  0  0  0  0  0  0  0  0  0  0  0
   -6.4240   21.2800  -32.3440 C   0  0  0  0  0  0  0  0  0  0  0  0
   -6.5040   22.4720  -32.7490 O   0  0  0  0  0  0  0  0  0  0  0  0
   -5.2100   20.5070  -32.6660 C   0  0  0  0  0  0  0  0  0  0  0  0
   -3.9270   20.6310  -32.1110 C   0  0  0  0  0  0  0  0  0  0  0  0
   -3.4420   21.6560  -31.1560 C   0  0  0  0  0  0  0  0  0  0  0  0
   -2.5550   21.3380  -30.1130 C   0  0  0  0  0  0  0  0  0  0  0  0
   -2.1310   22.3260  -29.2210 C   0  0  0  0  0  0  0  0  0  0  0  0
   -2.5940   23.6360  -29.3520 C   0  0  0  0  0  0  0  0  0  0  0  0
   -3.4900   23.9720  -30.3710 C   0  0  0  0  0  0  0  0  0  0  0  0
   -3.9320   25.3010  -30.4560 O   0  0  0  0  0  0  0  0  0  0  0  0
   -5.3000   25.6970  -30.4620 C   0  0  0  0  0  0  0  0  0  0  0  0
   -3.9170   22.9750  -31.2700 C   0  0  0  0  0  0  0  0  0  0  0  0
   -3.1530   19.6550  -32.5540 O   0  0  0  0  0  0  0  0  0  0  0  0
   -3.8650   18.9010  -33.3540 C   0  0  0  0  0  0  0  0  0  0  0  0
   -3.4540   17.7480  -34.0180 C   0  0  0  0  0  0  0  0  0  0  0  0
   -4.4080   17.0560  -34.7880 C   0  0  0  0  0  0  0  0  0  0  0  0
   -5.7390   17.5230  -34.8640 C   0  0  0  0  0  0  0  0  0  0  0  0
   -6.1230   18.6920  -34.1820 C   0  0  0  0  0  0  0  0  0  0  0  0
   -5.1460   19.3740  -33.4540 C   0  0  0  0  0  0  0  0  0  0  0  0
   -7.7463   22.4248  -28.9406 H   0  0  0  0  0  0  0  0  0  0  0  0
   -6.5291   22.5139  -30.2586 H   0  0  0  0  0  0  0  0  0  0  0  0
   -7.9363   23.6304  -30.2586 H   0  0  0  0  0  0  0  0  0  0  0  0
   -9.0182   21.0002  -30.1407 H   0  0  0  0  0  0  0  0  0  0  0  0
   -9.0379   22.1439  -31.5369 H   0  0  0  0  0  0  0  0  0  0  0  0
   -6.9735   18.7486  -32.1300 H   0  0  0  0  0  0  0  0  0  0  0  0
   -7.8809   18.9055  -30.5712 H   0  0  0  0  0  0  0  0  0  0  0  0
   -9.9005   18.8009  -31.5917 H   0  0  0  0  0  0  0  0  0  0  0  0
   -9.3732   19.8366  -32.9614 H   0  0  0  0  0  0  0  0  0  0  0  0
   -8.9871   18.0823  -32.9614 H   0  0  0  0  0  0  0  0  0  0  0  0
   -2.1928   20.3057  -29.9985 H   0  0  0  0  0  0  0  0  0  0  0  0
   -1.4299   22.0706  -28.4128 H   0  0  0  0  0  0  0  0  0  0  0  0
   -2.2516   24.4093  -28.6487 H   0  0  0  0  0  0  0  0  0  0  0  0
   -5.6564   25.8002  -29.4265 H   0  0  0  0  0  0  0  0  0  0  0  0
   -5.4004   26.6611  -30.9821 H   0  0  0  0  0  0  0  0  0  0  0  0
   -5.8998   24.9356  -30.9821 H   0  0  0  0  0  0  0  0  0  0  0  0
   -4.6288   23.2305  -32.0688 H   0  0  0  0  0  0  0  0  0  0  0  0
   -2.4168   17.3893  -33.9432 H   0  0  0  0  0  0  0  0  0  0  0  0
   -4.1154   16.1467  -35.3334 H   0  0  0  0  0  0  0  0  0  0  0  0
   -6.4795   16.9694  -35.4599 H   0  0  0  0  0  0  0  0  0  0  0  0
   -7.1599   19.0571  -34.2210 H   0  0  0  0  0  0  0  0  0  0  0  0
  1  2  1  0
  2  3  1  0
  3  4  1  0
  4  5  1  0
  3  6  1  0
  6  7  2  0
  6  8  1  0
  8  9  2  0
  9 10  1  0
 10 11  2  0
 11 12  1  0
 12 13  2  0
 13 14  1  0
 14 15  1  0
 15 16  1  0
 14 17  2  0
  9 18  1  0
 18 19  1  0
 19 20  2  0
 20 21  1  0
 21 22  2  0
 22 23  1  0
 23 24  2  0
 24  8  1  0
 17 10  1  0
 24 19  1  0
  1 25  1  0
  1 26  1  0
  1 27  1  0
  2 28  1  0
  2 29  1  0
  4 30  1  0
  4 31  1  0
  5 32  1  0
  5 33  1  0
  5 34  1  0
 11 35  1  0
 12 36  1  0
 13 37  1  0
 16 38  1  0
 16 39  1  0
 16 40  1  0
 17 41  1  0
 20 42  1  0
 21 43  1  0
 22 44  1  0
 23 45  1  0
M  END
>  <UniqueID>  (38) 
34

>  <SMILES>  (38) 
CCN(CC)C(=O)c1c(-c2cccc(OC)c2)oc2ccccc12

>  <Energy>  (38) 
82.00963517593664

>  <Genealogy>  (38) 
CCN(CC)C(=O)c1c(-c2cccc(OC)c2)oc2ccccc12 (3D coordinates assigned)
CCN(CC)C(=O)c1c(-c2cccc(OC)c2)oc2ccccc12 (optimized conformer: 82.00963517593664 kcal/mol)

>  <smiles>  (38) 
CCN(CC)C(=O)c1c(-c2cccc(OC)c2)oc2ccccc12

>  <score_type>  (38) 
oracle

>  <origin>  (38) 
adg

>  <m_score__min__energy>  (38) 
-8.5299999999999994

>  <m_primary>  (38) 
energy

$$$$
38:0
     RDKit          3D

 25 27  0  0  0  0  0  0  0  0999 V2000
   -9.6030   21.2250  -31.9680 C   0  0  0  0  0  0  0  0  0  0  0  0
   -8.6590   20.0600  -32.0270 C   0  0  0  0  0  0  0  0  0  0  0  0
   -9.1110   18.7630  -32.2730 C   0  0  0  0  0  0  0  0  0  0  0  0
   -7.7500   17.8010  -32.2110 S   0  0  0  0  0  0  0  0  0  0  0  0
   -6.6010   18.9520  -31.8980 N   0  0  0  0  0  0  0  0  0  0  0  0
   -7.2490   20.1440  -31.8420 C   0  0  0  0  0  0  0  0  0  0  0  0
   -6.5090   21.3980  -31.5900 C   0  0  0  0  0  0  0  0  0  0  0  0
   -5.1970   21.5550  -32.1070 C   0  0  0  0  0  0  0  0  0  0  0  0
   -4.4810   22.7480  -31.8930 C   0  0  0  0  0  0  0  0  0  0  0  0
   -5.1060   23.7600  -31.1750 C   0  0  0  0  0  0  0  0  0  0  0  0
   -6.3660   23.6250  -30.6890 C   0  0  0  0  0  0  0  0  0  0  0  0
   -7.1080   22.4620  -30.8780 C   0  0  0  0  0  0  0  0  0  0  0  0
   -6.7330   24.7820  -30.0310 O   0  0  0  0  0  0  0  0  0  0  0  0
   -5.6340   25.7010  -30.1050 C   0  0  0  0  0  0  0  0  0  0  0  0
   -4.6170   25.0090  -30.8420 O   0  0  0  0  0  0  0  0  0  0  0  0
   -9.8080   21.4780  -30.9173 H   0  0  0  0  0  0  0  0  0  0  0  0
   -9.1487   22.0909  -32.4717 H   0  0  0  0  0  0  0  0  0  0  0  0
  -10.5443   20.9601  -32.4717 H   0  0  0  0  0  0  0  0  0  0  0  0
  -10.1454   18.4429  -32.4667 H   0  0  0  0  0  0  0  0  0  0  0  0
   -5.5760   18.7900  -31.7900 H   0  0  0  0  0  0  0  0  0  0  0  0
   -4.7353   20.7374  -32.6800 H   0  0  0  0  0  0  0  0  0  0  0  0
   -3.4598   22.8749  -32.2816 H   0  0  0  0  0  0  0  0  0  0  0  0
   -8.1314   22.3738  -30.4844 H   0  0  0  0  0  0  0  0  0  0  0  0
   -5.9338   26.6199  -30.6301 H   0  0  0  0  0  0  0  0  0  0  0  0
   -5.2844   26.0064  -29.1077 H   0  0  0  0  0  0  0  0  0  0  0  0
  1  2  1  0
  2  3  2  0
  3  4  1  0
  4  5  1  0
  5  6  2  0
  6  7  1  0
  7  8  2  0
  8  9  1  0
  9 10  2  0
 10 11  1  0
 11 12  2  0
 11 13  1  0
 13 14  1  0
 14 15  1  0
  6  2  1  0
 12  7  1  0
 15 10  1  0
  1 16  1  0
  1 17  1  0
  1 18  1  0
  3 19  1  0
  5 20  1  0
  8 21  1  0
  9 22  1  0
 12 23  1  0
 14 24  1  0
 14 25  1  0
M  CHG  1   5   1
M  END
>  <UniqueID>  (39) 
35

>  <SMILES>  (39) 
Cc1cs[nH+]c1-c1ccc2c(c1)OCO2

>  <Energy>  (39) 
91.29703377507545

>  <Genealogy>  (39) 
Cc1cs[nH+]c1-c1ccc2c(c1)OCO2 (protonated)
Cc1cs[nH+]c1-c1ccc2c(c1)OCO2 (3D coordinates assigned)
Cc1cs[nH+]c1-c1ccc2c(c1)OCO2 (nonaromatic ring conformer: 91.29703377507545 kcal/mol)

>  <smiles>  (39) 
Cc1csnc1-c1ccc2c(c1)OCO2

>  <score_type>  (39) 
oracle

>  <origin>  (39) 
adg

>  <m_score__min__energy>  (39) 
-6.29

>  <m_primary>  (39) 
energy

$$$$
39:0
     RDKit          3D

 40 42  0  0  0  0  0  0  0  0999 V2000
   -9.0860   18.7800  -31.7530 C   0  0  0  0  0  0  0  0  0  0  0  0
   -8.1260   19.8930  -31.6630 N   0  0  0  0  0  0  0  0  0  0  0  0
   -7.3800   20.0310  -32.9310 C   0  0  0  0  0  0  0  0  0  0  0  0
   -6.2250   21.0300  -32.7570 C   0  0  0  0  0  0  0  0  0  0  0  0
   -6.6180   22.1300  -31.8680 N   0  0  0  0  0  0  0  0  0  0  0  0
   -5.6120   22.9440  -31.2340 C   0  0  0  0  0  0  0  0  0  0  0  0
   -4.2470   22.6660  -31.4210 C   0  0  0  0  0  0  0  0  0  0  0  0
   -3.2730   23.4470  -30.7940 C   0  0  0  0  0  0  0  0  0  0  0  0
   -3.6450   24.5010  -29.9520 C   0  0  0  0  0  0  0  0  0  0  0  0
   -2.6200   25.2960  -29.3400 N   0  0  0  0  0  0  0  0  0  0  0  0
   -1.4710   24.7930  -28.6450 C   0  0  0  0  0  0  0  0  0  0  0  0
   -0.4990   25.5680  -28.4400 O   0  0  0  0  0  0  0  0  0  0  0  0
   -1.3690   23.3820  -28.2260 C   0  0  0  0  0  0  0  0  0  0  0  0
   -0.2840   22.5460  -28.4600 C   0  0  0  0  0  0  0  0  0  0  0  0
   -0.4790   21.2390  -27.9970 C   0  0  0  0  0  0  0  0  0  0  0  0
   -1.7220   21.0340  -27.4100 C   0  0  0  0  0  0  0  0  0  0  0  0
   -2.5750   22.4800  -27.4690 S   0  0  0  0  0  0  0  0  0  0  0  0
   -5.0070   24.7940  -29.7750 C   0  0  0  0  0  0  0  0  0  0  0  0
   -5.9820   24.0140  -30.4030 C   0  0  0  0  0  0  0  0  0  0  0  0
   -8.0450   22.4220  -31.6970 C   0  0  0  0  0  0  0  0  0  0  0  0
   -8.8250   21.1510  -31.2950 C   0  0  0  0  0  0  0  0  0  0  0  0
   -9.3664   18.4549  -30.7403 H   0  0  0  0  0  0  0  0  0  0  0  0
   -9.9844   19.1135  -32.2930 H   0  0  0  0  0  0  0  0  0  0  0  0
   -8.6242   17.9402  -32.2930 H   0  0  0  0  0  0  0  0  0  0  0  0
   -7.4460   19.6550  -30.9000 H   0  0  0  0  0  0  0  0  0  0  0  0
   -6.9732   19.0514  -33.2225 H   0  0  0  0  0  0  0  0  0  0  0  0
   -8.0613   20.4001  -33.7117 H   0  0  0  0  0  0  0  0  0  0  0  0
   -5.3587   20.5082  -32.3242 H   0  0  0  0  0  0  0  0  0  0  0  0
   -5.9674   21.4469  -33.7418 H   0  0  0  0  0  0  0  0  0  0  0  0
   -3.9435   21.8278  -32.0654 H   0  0  0  0  0  0  0  0  0  0  0  0
   -2.2075   23.2322  -30.9632 H   0  0  0  0  0  0  0  0  0  0  0  0
    0.6377   22.8784  -28.9599 H   0  0  0  0  0  0  0  0  0  0  0  0
    0.2804   20.4486  -28.0892 H   0  0  0  0  0  0  0  0  0  0  0  0
   -2.0846   20.0883  -26.9809 H   0  0  0  0  0  0  0  0  0  0  0  0
   -5.3075   25.6404  -29.1399 H   0  0  0  0  0  0  0  0  0  0  0  0
   -7.0469   24.2398  -30.2452 H   0  0  0  0  0  0  0  0  0  0  0  0
   -8.1651   23.1817  -30.9106 H   0  0  0  0  0  0  0  0  0  0  0  0
   -8.4445   22.7910  -32.6531 H   0  0  0  0  0  0  0  0  0  0  0  0
   -8.9734   21.1622  -30.2051 H   0  0  0  0  0  0  0  0  0  0  0  0
   -9.7788   21.1666  -31.8428 H   0  0  0  0  0  0  0  0  0  0  0  0
  1  2  1  0
  2  3  1  0
  3  4  1  0
  4  5  1  0
  5  6  1  0
  6  7  2  0
  7  8  1  0
  8  9  2  0
  9 10  1  0
 10 11  1  0
 11 12  2  0
 11 13  1  0
 13 14  2  0
 14 15  1  0
 15 16  2  0
 16 17  1  0
  9 18  1  0
 18 19  2  0
  5 20  1  0
 20 21  1  0
 21  2  1  0
 19  6  1  0
 17 13  1  0
  1 22  1  0
  1 23  1  0
  1 24  1  0
  2 25  1  0
  3 26  1  0
  3 27  1  0
  4 28  1  0
  4 29  1  0
  7 30  1  0
  8 31  1  0
 14 32  1  0
 15 33  1  0
 16 34  1  0
 18 35  1  0
 19 36  1  0
 20 37  1  0
 20 38  1  0
 21 39  1  0
 21 40  1  0
M  CHG  2   2   1  10  -1
M  END
>  <UniqueID>  (40) 
36

>  <SMILES>  (40) 
C[NH+]1CCN(c2ccc([N-]C(=O)c3cccs3)cc2)CC1

>  <Energy>  (40) 
82.05353323806894

>  <Genealogy>  (40) 
C[NH+]1CCN(c2ccc([N-]C(=O)c3cccs3)cc2)CC1 (protonated)
C[NH+]1CCN(c2ccc([N-]C(=O)c3cccs3)cc2)CC1 (3D coordinates assigned)
C[NH+]1CCN(c2ccc([N-]C(=O)c3cccs3)cc2)CC1 (nonaromatic ring conformer: 82.05353323806894 kcal/mol)

>  <smiles>  (40) 
CN1CCN(c2ccc(NC(=O)c3cccs3)cc2)CC1

>  <score_type>  (40) 
oracle

>  <origin>  (40) 
adg

>  <m_score__min__energy>  (40) 
-8.6799999999999997

>  <m_primary>  (40) 
energy

$$$$
40:0
     RDKit          3D

 41 43  0  0  0  0  0  0  0  0999 V2000
   -6.4923   21.6692  -32.8430 H   0  0  0  0  0  0  0  0  0  0  0  0
   -6.8360   22.4100  -32.1060 C   0  0  0  0  0  0  0  0  0  0  0  0
   -8.1590   22.5610  -31.9250 C   0  0  0  0  0  0  0  0  0  0  0  0
   -8.6058   23.5448  -32.1311 H   0  0  0  0  0  0  0  0  0  0  0  0
   -9.0240   21.4950  -31.4730 N   0  0  0  0  0  0  0  0  0  0  0  0
   -9.4890   21.5520  -30.0830 C   0  0  0  0  0  0  0  0  0  0  0  0
   -8.6298   21.4467  -29.4043 H   0  0  0  0  0  0  0  0  0  0  0  0
   -9.9837   22.5175  -29.9012 H   0  0  0  0  0  0  0  0  0  0  0  0
  -10.2023   20.7346  -29.9012 H   0  0  0  0  0  0  0  0  0  0  0  0
   -9.4760   20.4030  -32.3510 C   0  0  0  0  0  0  0  0  0  0  0  0
  -10.4373   20.0162  -31.9819 H   0  0  0  0  0  0  0  0  0  0  0  0
   -9.5913   20.7930  -33.3731 H   0  0  0  0  0  0  0  0  0  0  0  0
   -8.4710   19.2920  -32.3670 C   0  0  0  0  0  0  0  0  0  0  0  0
   -7.3640   19.2880  -33.1400 N   0  0  0  0  0  0  0  0  0  0  0  0
   -6.8210   18.0930  -32.8220 C   0  0  0  0  0  0  0  0  0  0  0  0
   -5.5320   17.5860  -33.3860 C   0  0  0  0  0  0  0  0  0  0  0  0
   -5.4295   16.7269  -32.7067 H   0  0  0  0  0  0  0  0  0  0  0  0
   -5.3700   17.8040  -34.8820 C   0  0  0  0  0  0  0  0  0  0  0  0
   -4.8383   17.0588  -35.4918 H   0  0  0  0  0  0  0  0  0  0  0  0
   -6.0577   17.9980  -35.7183 H   0  0  0  0  0  0  0  0  0  0  0  0
   -4.6000   18.6720  -33.9020 C   0  0  0  0  0  0  0  0  0  0  0  0
   -3.5108   18.5552  -33.8020 H   0  0  0  0  0  0  0  0  0  0  0  0
   -4.4993   19.7545  -33.7346 H   0  0  0  0  0  0  0  0  0  0  0  0
   -7.5450   17.4460  -31.9390 O   0  0  0  0  0  0  0  0  0  0  0  0
   -8.5820   18.1650  -31.6440 N   0  0  0  0  0  0  0  0  0  0  0  0
   -9.3340   17.9020  -30.9710 H   0  0  0  0  0  0  0  0  0  0  0  0
   -5.8150   23.1890  -31.3650 C   0  0  0  0  0  0  0  0  0  0  0  0
   -4.5250   22.6520  -31.2290 C   0  0  0  0  0  0  0  0  0  0  0  0
   -4.2971   21.6657  -31.6593 H   0  0  0  0  0  0  0  0  0  0  0  0
   -3.5280   23.3590  -30.5520 C   0  0  0  0  0  0  0  0  0  0  0  0
   -2.5260   22.9184  -30.4433 H   0  0  0  0  0  0  0  0  0  0  0  0
   -3.7920   24.6220  -30.0110 C   0  0  0  0  0  0  0  0  0  0  0  0
   -2.7570   25.2920  -29.3430 O   0  0  0  0  0  0  0  0  0  0  0  0
   -2.1420   24.8300  -28.1450 C   0  0  0  0  0  0  0  0  0  0  0  0
   -2.6814   25.2352  -27.2761 H   0  0  0  0  0  0  0  0  0  0  0  0
   -2.1742   23.7308  -28.1166 H   0  0  0  0  0  0  0  0  0  0  0  0
   -1.0953   25.1670  -28.1166 H   0  0  0  0  0  0  0  0  0  0  0  0
   -5.0780   25.1740  -30.1570 C   0  0  0  0  0  0  0  0  0  0  0  0
   -5.2979   26.1670  -29.7379 H   0  0  0  0  0  0  0  0  0  0  0  0
   -6.0780   24.4670  -30.8320 C   0  0  0  0  0  0  0  0  0  0  0  0
   -7.0774   24.9116  -30.9479 H   0  0  0  0  0  0  0  0  0  0  0  0
  1  2  1  0
  2  3  2  0
  3  4  1  0
  3  5  1  0
  5  6  1  0
  6  7  1  0
  6  8  1  0
  6  9  1  0
  5 10  1  0
 10 11  1  0
 10 12  1  0
 10 13  1  0
 13 14  1  0
 14 15  2  0
 15 16  1  0
 16 17  1  0
 16 18  1  0
 18 19  1  0
 18 20  1  0
 18 21  1  0
 21 22  1  0
 21 23  1  0
 15 24  1  0
 24 25  1  0
 25 26  1  0
  2 27  1  0
 27 28  2  0
 28 29  1  0
 28 30  1  0
 30 31  1  0
 30 32  2  0
 32 33  1  0
 33 34  1  0
 34 35  1  0
 34 36  1  0
 34 37  1  0
 32 38  1  0
 38 39  1  0
 38 40  2  0
 40 41  1  0
 25 13  2  0
 40 27  1  0
 21 16  1  0
M  CHG  1  25   1
M  END
>  <UniqueID>  (41) 
37

>  <SMILES>  (41) 
COc1ccc(/C=C/N(C)Cc2nc(C3CC3)o[nH+]2)cc1

>  <Energy>  (41) 
337.70173000715045

>  <Genealogy>  (41) 
COc1ccc(C=CN(C)Cc2nc(C3CC3)o[nH+]2)cc1 (protonated)
COc1ccc(/C=C/N(C)Cc2nc(C3CC3)o[nH+]2)cc1 (cis-trans isomerization)
COc1ccc(/C=C/N(C)Cc2nc(C3CC3)o[nH+]2)cc1 (3D coordinates assigned)
COc1ccc(/C=C/N(C)Cc2nc(C3CC3)o[nH+]2)cc1 (nonaromatic ring conformer: 337.70173000715045 kcal/mol)

>  <smiles>  (41) 
COc1ccc(C=CN(C)Cc2noc(C3CC3)n2)cc1

>  <score_type>  (41) 
oracle

>  <origin>  (41) 
adg

>  <m_score__min__energy>  (41) 
-7.5700000000000003

>  <m_primary>  (41) 
energy

$$$$
41:0
     RDKit          3D

 48 52  0  0  0  0  0  0  0  0999 V2000
   -0.9280   14.9670  -35.9450 O   0  0  0  0  0  0  0  0  0  0  0  0
   -0.6550   15.4820  -34.8410 N   0  0  0  0  0  0  0  0  0  0  0  0
    0.4290   15.0080  -34.1380 O   0  0  0  0  0  0  0  0  0  0  0  0
   -1.4550   16.5570  -34.3150 C   0  0  0  0  0  0  0  0  0  0  0  0
   -2.4560   16.2980  -33.3630 C   0  0  0  0  0  0  0  0  0  0  0  0
   -3.2330   17.3400  -32.8480 C   0  0  0  0  0  0  0  0  0  0  0  0
   -3.0010   18.6590  -33.2580 C   0  0  0  0  0  0  0  0  0  0  0  0
   -3.8460   19.7480  -32.7630 C   0  0  0  0  0  0  0  0  0  0  0  0
   -3.3650   20.6760  -31.9070 N   0  0  0  0  0  0  0  0  0  0  0  0
   -4.4250   21.4550  -31.6170 C   0  0  0  0  0  0  0  0  0  0  0  0
   -5.5440   21.0450  -32.2380 N   0  0  0  0  0  0  0  0  0  0  0  0
   -5.2060   19.9720  -32.9820 C   0  0  0  0  0  0  0  0  0  0  0  0
   -6.2440   19.2730  -33.8650 C   0  0  1  0  0  0  0  0  0  0  0  0
   -5.7230   18.4940  -35.1040 C   0  0  0  0  0  0  0  0  0  0  0  0
   -5.4600   17.0010  -34.8650 C   0  0  0  0  0  0  0  0  0  0  0  0
   -6.5870   16.3540  -34.0720 C   0  0  0  0  0  0  0  0  0  0  0  0
   -6.8370   17.1420  -32.7870 C   0  0  0  0  0  0  0  0  0  0  0  0
   -7.2780   18.5210  -33.0880 N   0  0  1  0  0  0  0  0  0  0  0  0
   -7.7050   19.1770  -31.8210 C   0  0  0  0  0  0  0  0  0  0  0  0
   -7.9610   20.6660  -31.9610 C   0  0  0  0  0  0  0  0  0  0  0  0
   -9.2690   21.1740  -31.8980 C   0  0  0  0  0  0  0  0  0  0  0  0
   -9.4900   22.5540  -31.9150 C   0  0  0  0  0  0  0  0  0  0  0  0
   -8.4080   23.4370  -31.9880 C   0  0  0  0  0  0  0  0  0  0  0  0
   -7.1040   22.9440  -32.0630 C   0  0  0  0  0  0  0  0  0  0  0  0
   -6.8730   21.5610  -32.0650 C   0  0  0  0  0  0  0  0  0  0  0  0
   -2.0310   18.9220  -34.2330 C   0  0  0  0  0  0  0  0  0  0  0  0
   -1.2550   17.8810  -34.7500 C   0  0  0  0  0  0  0  0  0  0  0  0
   -2.6295   15.2672  -33.0204 H   0  0  0  0  0  0  0  0  0  0  0  0
   -4.0281   17.1235  -32.1194 H   0  0  0  0  0  0  0  0  0  0  0  0
   -4.3798   22.3272  -30.9482 H   0  0  0  0  0  0  0  0  0  0  0  0
   -6.7486   20.1313  -34.3325 H   0  0  0  0  0  0  0  0  0  0  0  0
   -6.4718   18.5852  -35.9046 H   0  0  0  0  0  0  0  0  0  0  0  0
   -4.7518   18.9407  -35.3632 H   0  0  0  0  0  0  0  0  0  0  0  0
   -5.3706   16.4941  -35.8371 H   0  0  0  0  0  0  0  0  0  0  0  0
   -4.5306   16.9037  -34.2846 H   0  0  0  0  0  0  0  0  0  0  0  0
   -7.5037   16.3472  -34.6800 H   0  0  0  0  0  0  0  0  0  0  0  0
   -6.3037   15.3226  -33.8153 H   0  0  0  0  0  0  0  0  0  0  0  0
   -7.6171   16.6349  -32.2001 H   0  0  0  0  0  0  0  0  0  0  0  0
   -5.8971   17.1912  -32.2177 H   0  0  0  0  0  0  0  0  0  0  0  0
   -8.1350   18.4540  -33.6890 H   0  0  0  0  0  0  0  0  0  0  0  0
   -8.6324   18.6961  -31.4764 H   0  0  0  0  0  0  0  0  0  0  0  0
   -6.8793   19.0589  -31.1039 H   0  0  0  0  0  0  0  0  0  0  0  0
  -10.1227   20.4831  -31.8350 H   0  0  0  0  0  0  0  0  0  0  0  0
  -10.5168   22.9462  -31.8709 H   0  0  0  0  0  0  0  0  0  0  0  0
   -8.5848   24.5227  -31.9863 H   0  0  0  0  0  0  0  0  0  0  0  0
   -6.2559   23.6421  -32.1207 H   0  0  0  0  0  0  0  0  0  0  0  0
   -1.8794   19.9504  -34.5929 H   0  0  0  0  0  0  0  0  0  0  0  0
   -0.4823   18.0977  -35.5023 H   0  0  0  0  0  0  0  0  0  0  0  0
  1  2  2  0
  2  3  1  0
  2  4  1  0
  4  5  2  0
  5  6  1  0
  6  7  2  0
  7  8  1  0
  8  9  1  0
  9 10  2  0
 10 11  1  0
 11 12  1  0
 12 13  1  0
 13 14  1  0
 14 15  1  0
 15 16  1  0
 16 17  1  0
 17 18  1  0
 18 19  1  0
 19 20  1  0
 20 21  2  0
 21 22  1  0
 22 23  2  0
 23 24  1  0
 24 25  2  0
  7 26  1  0
 26 27  2  0
 27  4  1  0
 12  8  2  0
 18 13  1  0
 25 20  1  0
 25 11  1  0
  5 28  1  0
  6 29  1  0
 10 30  1  0
 13 31  1  6
 14 32  1  0
 14 33  1  0
 15 34  1  0
 15 35  1  0
 16 36  1  0
 16 37  1  0
 17 38  1  0
 17 39  1  0
 18 40  1  6
 19 41  1  0
 19 42  1  0
 21 43  1  0
 22 44  1  0
 23 45  1  0
 24 46  1  0
 26 47  1  0
 27 48  1  0
M  CHG  3   2   1   3  -1  18   1
M  END
>  <UniqueID>  (42) 
38

>  <SMILES>  (42) 
O=[N+]([O-])c1ccc(-c2ncn3c2[C@H]2CCCC[N@H+]2Cc2ccccc2-3)cc1

>  <Energy>  (42) 
113.82124623345425

>  <Genealogy>  (42) 
O=[N+]([O-])c1ccc(-c2ncn3c2C2CCCC[NH+]2Cc2ccccc2-3)cc1 (protonated)
O=[N+]([O-])c1ccc(-c2ncn3c2[C@H]2CCCC[N@H+]2Cc2ccccc2-3)cc1 (chirality)
O=[N+]([O-])c1ccc(-c2ncn3c2[C@H]2CCCC[N@H+]2Cc2ccccc2-3)cc1 (3D coordinates assigned)
O=[N+]([O-])c1ccc(-c2ncn3c2[C@H]2CCCC[N@H+]2Cc2ccccc2-3)cc1 (nonaromatic ring conformer: 113.82124623345425 kcal/mol)

>  <smiles>  (42) 
O=[N+]([O-])c1ccc(-c2ncn3c2C2CCCCN2Cc2ccccc2-3)cc1

>  <score_type>  (42) 
oracle

>  <origin>  (42) 
adg

>  <m_score__min__energy>  (42) 
-7.6200000000000001

>  <m_primary>  (42) 
energy

$$$$
42:0
     RDKit          3D

 38 41  0  0  0  0  0  0  0  0999 V2000
   -8.3220   18.8300  -32.3170 Br  0  0  0  0  0  0  0  0  0  0  0  0
   -8.0310   20.6740  -31.9130 C   0  0  0  0  0  0  0  0  0  0  0  0
   -9.0000   21.6240  -32.2500 C   0  0  0  0  0  0  0  0  0  0  0  0
   -8.7850   22.9730  -31.9580 C   0  0  0  0  0  0  0  0  0  0  0  0
   -7.6030   23.3760  -31.3310 C   0  0  0  0  0  0  0  0  0  0  0  0
   -6.6200   22.4300  -30.9850 C   0  0  0  0  0  0  0  0  0  0  0  0
   -5.3630   22.8570  -30.3170 C   0  0  0  0  0  0  0  0  0  0  0  0
   -5.3900   23.3820  -29.0140 C   0  0  0  0  0  0  0  0  0  0  0  0
   -4.2070   23.7830  -28.3860 C   0  0  0  0  0  0  0  0  0  0  0  0
   -2.9730   23.6680  -29.0460 C   0  0  0  0  0  0  0  0  0  0  0  0
   -1.7250   24.0960  -28.3700 C   0  0  0  0  0  0  0  0  0  0  0  0
   -1.7040   24.8850  -27.2730 N   0  0  0  0  0  0  0  0  0  0  0  0
   -0.4420   25.1450  -26.8300 C   0  0  0  0  0  0  0  0  0  0  0  0
   -0.2050   25.9910  -25.6300 C   0  0  0  0  0  0  0  0  0  0  0  0
   -0.6480   27.3250  -25.5610 C   0  0  0  0  0  0  0  0  0  0  0  0
   -0.4090   28.0860  -24.4160 C   0  0  0  0  0  0  0  0  0  0  0  0
    0.2700   27.5150  -23.3420 C   0  0  0  0  0  0  0  0  0  0  0  0
    0.6920   26.2240  -23.4100 N   0  0  0  0  0  0  0  0  0  0  0  0
    0.4710   25.4600  -24.5150 C   0  0  0  0  0  0  0  0  0  0  0  0
    0.5680   24.5470  -27.5890 C   0  0  0  0  0  0  0  0  0  0  0  0
   -0.1600   23.6840  -28.8330 S   0  0  0  0  0  0  0  0  0  0  0  0
   -2.9450   23.1420  -30.3490 C   0  0  0  0  0  0  0  0  0  0  0  0
   -4.1280   22.7420  -30.9780 C   0  0  0  0  0  0  0  0  0  0  0  0
   -6.8470   21.0730  -31.2840 C   0  0  0  0  0  0  0  0  0  0  0  0
   -9.9308   21.3094  -32.7446 H   0  0  0  0  0  0  0  0  0  0  0  0
   -9.5481   23.7199  -32.2223 H   0  0  0  0  0  0  0  0  0  0  0  0
   -7.4396   24.4403  -31.1062 H   0  0  0  0  0  0  0  0  0  0  0  0
   -6.3491   23.4782  -28.4840 H   0  0  0  0  0  0  0  0  0  0  0  0
   -4.2433   24.1923  -27.3656 H   0  0  0  0  0  0  0  0  0  0  0  0
   -1.1844   27.7693  -26.4124 H   0  0  0  0  0  0  0  0  0  0  0  0
   -0.7542   29.1290  -24.3619 H   0  0  0  0  0  0  0  0  0  0  0  0
    0.4652   28.1094  -22.4373 H   0  0  0  0  0  0  0  0  0  0  0  0
    1.1980   25.8100  -22.5970 H   0  0  0  0  0  0  0  0  0  0  0  0
    0.8238   24.4183  -24.5368 H   0  0  0  0  0  0  0  0  0  0  0  0
    1.6494   24.6273  -27.4042 H   0  0  0  0  0  0  0  0  0  0  0  0
   -1.9854   23.0443  -30.8778 H   0  0  0  0  0  0  0  0  0  0  0  0
   -4.0918   22.3339  -31.9988 H   0  0  0  0  0  0  0  0  0  0  0  0
   -6.0880   20.3214  -31.0212 H   0  0  0  0  0  0  0  0  0  0  0  0
  1  2  1  0
  2  3  2  0
  3  4  1  0
  4  5  2  0
  5  6  1  0
  6  7  1  0
  7  8  2  0
  8  9  1  0
  9 10  2  0
 10 11  1  0
 11 12  2  0
 12 13  1  0
 13 14  1  0
 14 15  2  0
 15 16  1  0
 16 17  2  0
 17 18  1  0
 18 19  2  0
 13 20  2  0
 20 21  1  0
 10 22  1  0
 22 23  2  0
  6 24  2  0
 24  2  1  0
 23  7  1  0
 21 11  1  0
 19 14  1  0
  3 25  1  0
  4 26  1  0
  5 27  1  0
  8 28  1  0
  9 29  1  0
 15 30  1  0
 16 31  1  0
 17 32  1  0
 18 33  1  0
 19 34  1  0
 20 35  1  0
 22 36  1  0
 23 37  1  0
 24 38  1  0
M  CHG  1  18   1
M  END
>  <UniqueID>  (43) 
39

>  <SMILES>  (43) 
Brc1cccc(-c2ccc(-c3nc(-c4ccc[nH+]c4)cs3)cc2)c1

>  <Energy>  (43) 
80.8261001783975

>  <Genealogy>  (43) 
Brc1cccc(-c2ccc(-c3nc(-c4ccc[nH+]c4)cs3)cc2)c1 (protonated)
Brc1cccc(-c2ccc(-c3nc(-c4ccc[nH+]c4)cs3)cc2)c1 (3D coordinates assigned)
Brc1cccc(-c2ccc(-c3nc(-c4ccc[nH+]c4)cs3)cc2)c1 (optimized conformer: 80.8261001783975 kcal/mol)

>  <smiles>  (43) 
Brc1cccc(-c2ccc(-c3nc(-c4cccnc4)cs3)cc2)c1

>  <score_type>  (43) 
oracle

>  <origin>  (43) 
adg

>  <m_score__min__energy>  (43) 
-9.5899999999999999

>  <m_primary>  (43) 
energy

$$$$
43:0
     RDKit          3D

 58 62  0  0  0  0  0  0  0  0999 V2000
   -0.7680   24.6560  -26.2330 C   0  0  0  0  0  0  0  0  0  0  0  0
   -1.2920   24.0890  -27.5190 C   0  0  0  0  0  0  0  0  0  0  0  0
   -2.6290   24.3050  -27.8890 C   0  0  0  0  0  0  0  0  0  0  0  0
   -3.1350   23.7510  -29.0670 C   0  0  0  0  0  0  0  0  0  0  0  0
   -2.3150   22.9640  -29.8880 C   0  0  0  0  0  0  0  0  0  0  0  0
   -2.8170   22.4050  -31.0720 C   0  0  0  0  0  0  0  0  0  0  0  0
   -1.9880   21.6170  -31.8920 C   0  0  0  0  0  0  0  0  0  0  0  0
   -0.6540   21.3970  -31.5240 C   0  0  0  0  0  0  0  0  0  0  0  0
   -0.1510   21.9380  -30.3310 C   0  0  0  0  0  0  0  0  0  0  0  0
   -0.9710   22.7300  -29.5150 C   0  0  0  0  0  0  0  0  0  0  0  0
   -0.4710   23.2870  -28.3270 C   0  0  0  0  0  0  0  0  0  0  0  0
    0.1830   20.4700  -32.3650 C   0  0  0  0  0  0  0  0  0  0  0  0
   -0.0770   20.6350  -33.9070 C   0  0  0  0  0  0  0  0  0  0  0  0
    0.0050   19.2410  -34.5740 C   0  0  0  0  0  0  0  0  0  0  0  0
    1.0490   21.5100  -34.5080 C   0  0  0  0  0  0  0  0  0  0  0  0
   -1.4000   21.2660  -34.2170 N   0  0  0  0  0  0  0  0  0  0  0  0
   -2.4380   21.0010  -33.2000 C   0  0  2  0  0  0  0  0  0  0  0  0
   -3.7270   21.5480  -33.6510 N   0  0  0  0  0  0  0  0  0  0  0  0
   -5.0020   21.1940  -33.0790 C   0  0  0  0  0  0  0  0  0  0  0  0
   -5.8410   22.1550  -32.4890 C   0  0  0  0  0  0  0  0  0  0  0  0
   -7.0740   21.7860  -31.9540 C   0  0  0  0  0  0  0  0  0  0  0  0
   -7.4950   20.4510  -32.0020 C   0  0  0  0  0  0  0  0  0  0  0  0
   -8.7300   20.0850  -31.4600 C   0  0  0  0  0  0  0  0  0  0  0  0
   -9.1420   18.7600  -31.5120 C   0  0  0  0  0  0  0  0  0  0  0  0
   -8.3200   17.8050  -32.1050 C   0  0  0  0  0  0  0  0  0  0  0  0
   -7.1080   18.1490  -32.6430 N   0  0  0  0  0  0  0  0  0  0  0  0
   -6.2950   17.0880  -33.2590 C   0  0  0  0  0  0  0  0  0  0  0  0
   -6.6760   19.4610  -32.6010 C   0  0  0  0  0  0  0  0  0  0  0  0
   -5.4300   19.8580  -33.1390 C   0  0  0  0  0  0  0  0  0  0  0  0
   -1.2434   24.1416  -25.3848 H   0  0  0  0  0  0  0  0  0  0  0  0
    0.3214   24.5115  -26.1855 H   0  0  0  0  0  0  0  0  0  0  0  0
   -0.9978   25.7307  -26.1855 H   0  0  0  0  0  0  0  0  0  0  0  0
   -3.2821   24.9144  -27.2471 H   0  0  0  0  0  0  0  0  0  0  0  0
   -4.1817   23.9330  -29.3520 H   0  0  0  0  0  0  0  0  0  0  0  0
   -3.8633   22.5832  -31.3611 H   0  0  0  0  0  0  0  0  0  0  0  0
    0.8898   21.7401  -30.0351 H   0  0  0  0  0  0  0  0  0  0  0  0
    0.5698   23.0938  -28.0279 H   0  0  0  0  0  0  0  0  0  0  0  0
    1.2445   20.6774  -32.1645 H   0  0  0  0  0  0  0  0  0  0  0  0
   -0.0931   19.4404  -32.0934 H   0  0  0  0  0  0  0  0  0  0  0  0
    0.0507   18.4645  -33.7962 H   0  0  0  0  0  0  0  0  0  0  0  0
   -0.8853   19.0811  -35.1999 H   0  0  0  0  0  0  0  0  0  0  0  0
    0.9079   19.1866  -35.1999 H   0  0  0  0  0  0  0  0  0  0  0  0
    1.6338   21.9645  -33.6947 H   0  0  0  0  0  0  0  0  0  0  0  0
    1.7079   20.8846  -35.1282 H   0  0  0  0  0  0  0  0  0  0  0  0
    0.6057   22.3029  -35.1282 H   0  0  0  0  0  0  0  0  0  0  0  0
   -1.2940   22.3070  -34.2970 H   0  0  0  0  0  0  0  0  0  0  0  0
   -1.7510   20.9390  -35.1480 H   0  0  0  0  0  0  0  0  0  0  0  0
   -2.5776   19.9200  -33.0519 H   0  0  0  0  0  0  0  0  0  0  0  0
   -3.7170   22.2270  -34.4470 H   0  0  0  0  0  0  0  0  0  0  0  0
   -5.5219   23.2069  -32.4492 H   0  0  0  0  0  0  0  0  0  0  0  0
   -7.7198   22.5471  -31.4917 H   0  0  0  0  0  0  0  0  0  0  0  0
   -9.3742   20.8447  -30.9933 H   0  0  0  0  0  0  0  0  0  0  0  0
  -10.1130   18.4661  -31.0868 H   0  0  0  0  0  0  0  0  0  0  0  0
   -8.6496   16.7562  -32.1421 H   0  0  0  0  0  0  0  0  0  0  0  0
   -5.8285   16.4791  -32.4706 H   0  0  0  0  0  0  0  0  0  0  0  0
   -6.9374   16.4497  -33.8834 H   0  0  0  0  0  0  0  0  0  0  0  0
   -5.5115   17.5422  -33.8834 H   0  0  0  0  0  0  0  0  0  0  0  0
   -4.7833   19.1054  -33.6138 H   0  0  0  0  0  0  0  0  0  0  0  0
  1  2  1  0
  2  3  2  0
  3  4  1  0
  4  5  2  0
  5  6  1  0
  6  7  2  0
  7  8  1  0
  8  9  2  0
  9 10  1  0
 10 11  2  0
  8 12  1  0
 12 13  1  0
 13 14  1  0
 13 15  1  0
 13 16  1  0
 16 17  1  0
 17 18  1  0
 18 19  1  0
 19 20  2  0
 20 21  1  0
 21 22  2  0
 22 23  1  0
 23 24  2  0
 24 25  1  0
 25 26  2  0
 26 27  1  0
 26 28  1  0
 28 29  2  0
 11  2  1  0
 29 19  1  0
 10  5  1  0
 28 22  1  0
 17  7  1  0
  1 30  1  0
  1 31  1  0
  1 32  1  0
  3 33  1  0
  4 34  1  0
  6 35  1  0
  9 36  1  0
 11 37  1  0
 12 38  1  0
 12 39  1  0
 14 40  1  0
 14 41  1  0
 14 42  1  0
 15 43  1  0
 15 44  1  0
 15 45  1  0
 16 46  1  0
 16 47  1  0
 17 48  1  1
 18 49  1  0
 20 50  1  0
 21 51  1  0
 23 52  1  0
 24 53  1  0
 25 54  1  0
 27 55  1  0
 27 56  1  0
 27 57  1  0
 29 58  1  0
M  CHG  2  16   1  26   1
M  END
>  <UniqueID>  (44) 
40

>  <SMILES>  (44) 
Cc1ccc2cc3c(cc2c1)CC(C)(C)[NH2+][C@@H]3Nc1ccc2ccc[n+](C)c2c1

>  <Energy>  (44) 
84.30812707985898

>  <Genealogy>  (44) 
Cc1ccc2cc3c(cc2c1)CC(C)(C)[NH2+]C3Nc1ccc2ccc[n+](C)c2c1 (protonated)
Cc1ccc2cc3c(cc2c1)CC(C)(C)[NH2+][C@@H]3Nc1ccc2ccc[n+](C)c2c1 (chirality)
Cc1ccc2cc3c(cc2c1)CC(C)(C)[NH2+][C@@H]3Nc1ccc2ccc[n+](C)c2c1 (3D coordinates assigned)
Cc1ccc2cc3c(cc2c1)CC(C)(C)[NH2+][C@@H]3Nc1ccc2ccc[n+](C)c2c1 (nonaromatic ring conformer: 84.30812707985898 kcal/mol)

>  <smiles>  (44) 
Cc1ccc2cc3c(cc2c1)CC(C)(C)NC3Nc1ccc2ccc[n+](C)c2c1

>  <score_type>  (44) 
oracle

>  <origin>  (44) 
adg

>  <m_score__min__energy>  (44) 
-8.9100000000000001

>  <m_primary>  (44) 
energy

$$$$
44:0
     RDKit          3D

 26 27  0  0  0  0  0  0  0  0999 V2000
   -2.3790   24.1580  -29.1780 C   0  0  0  0  0  0  0  0  0  0  0  0
   -3.2440   25.0050  -29.9240 O   0  0  0  0  0  0  0  0  0  0  0  0
   -4.5690   24.6660  -30.2120 C   0  0  0  0  0  0  0  0  0  0  0  0
   -4.8590   23.7930  -31.2160 N   0  0  0  0  0  0  0  0  0  0  0  0
   -6.1430   23.4440  -31.5020 C   0  0  0  0  0  0  0  0  0  0  0  0
   -6.4390   22.5620  -32.5480 O   0  0  0  0  0  0  0  0  0  0  0  0
   -7.1210   21.3430  -32.4110 C   0  0  0  0  0  0  0  0  0  0  0  0
   -8.4460   21.2720  -31.9390 C   0  0  0  0  0  0  0  0  0  0  0  0
   -9.0880   20.0340  -31.8280 C   0  0  0  0  0  0  0  0  0  0  0  0
   -8.4210   18.8640  -32.1980 C   0  0  0  0  0  0  0  0  0  0  0  0
   -7.1140   18.9290  -32.6880 C   0  0  0  0  0  0  0  0  0  0  0  0
   -6.4700   20.1650  -32.8010 C   0  0  0  0  0  0  0  0  0  0  0  0
   -7.1860   24.0050  -30.7650 C   0  0  0  0  0  0  0  0  0  0  0  0
   -6.8750   24.8990  -29.7400 C   0  0  0  0  0  0  0  0  0  0  0  0
   -5.5780   25.2120  -29.4800 N   0  0  0  0  0  0  0  0  0  0  0  0
   -2.5447   24.3203  -28.1027 H   0  0  0  0  0  0  0  0  0  0  0  0
   -2.5900   23.1076  -29.4271 H   0  0  0  0  0  0  0  0  0  0  0  0
   -1.3332   24.3910  -29.4271 H   0  0  0  0  0  0  0  0  0  0  0  0
   -8.9777   22.1927  -31.6568 H   0  0  0  0  0  0  0  0  0  0  0  0
  -10.1193   19.9820  -31.4489 H   0  0  0  0  0  0  0  0  0  0  0  0
   -8.9249   17.8908  -32.1036 H   0  0  0  0  0  0  0  0  0  0  0  0
   -6.5916   18.0076  -32.9849 H   0  0  0  0  0  0  0  0  0  0  0  0
   -5.4455   20.2129  -33.1987 H   0  0  0  0  0  0  0  0  0  0  0  0
   -8.2321   23.7478  -30.9874 H   0  0  0  0  0  0  0  0  0  0  0  0
   -7.6800   25.3509  -29.1418 H   0  0  0  0  0  0  0  0  0  0  0  0
   -5.3560   25.8820  -28.7100 H   0  0  0  0  0  0  0  0  0  0  0  0
  1  2  1  0
  2  3  1  0
  3  4  2  0
  4  5  1  0
  5  6  1  0
  6  7  1  0
  7  8  2  0
  8  9  1  0
  9 10  2  0
 10 11  1  0
 11 12  2  0
  5 13  2  0
 13 14  1  0
 14 15  2  0
 15  3  1  0
 12  7  1  0
  1 16  1  0
  1 17  1  0
  1 18  1  0
  8 19  1  0
  9 20  1  0
 10 21  1  0
 11 22  1  0
 12 23  1  0
 13 24  1  0
 14 25  1  0
 15 26  1  0
M  CHG  1  15   1
M  END
>  <UniqueID>  (45) 
41

>  <SMILES>  (45) 
COc1nc(Oc2ccccc2)cc[nH+]1

>  <Energy>  (45) 
29.042421150482834

>  <Genealogy>  (45) 
COc1nc(Oc2ccccc2)cc[nH+]1 (protonated)
COc1nc(Oc2ccccc2)cc[nH+]1 (3D coordinates assigned)
COc1nc(Oc2ccccc2)cc[nH+]1 (optimized conformer: 29.042421150482834 kcal/mol)

>  <smiles>  (45) 
COc1nccc(Oc2ccccc2)n1

>  <score_type>  (45) 
oracle

>  <origin>  (45) 
adg

>  <m_score__min__energy>  (45) 
-6.0800000000000001

>  <m_primary>  (45) 
energy

$$$$
45:0
     RDKit          3D

 40 41  0  0  0  0  0  0  0  0999 V2000
   -6.0000   23.8530  -32.2020 C   0  0  0  0  0  0  0  0  0  0  0  0
   -6.1410   23.2330  -30.8720 N   0  0  0  0  0  0  0  0  0  0  0  0
   -5.9630   24.2470  -29.8080 C   0  0  0  0  0  0  0  0  0  0  0  0
   -4.9500   25.2880  -30.2130 C   0  0  0  0  0  0  0  0  0  0  0  0
   -5.3390   26.4590  -30.4660 O   0  0  0  0  0  0  0  0  0  0  0  0
   -3.5840   24.9450  -30.4770 N   0  0  0  0  0  0  0  0  0  0  0  0
   -2.7530   24.1190  -29.6520 C   0  0  0  0  0  0  0  0  0  0  0  0
   -1.7830   24.7210  -28.8380 C   0  0  0  0  0  0  0  0  0  0  0  0
   -1.6070   26.0650  -28.8660 F   0  0  0  0  0  0  0  0  0  0  0  0
   -0.9790   23.9350  -28.0040 C   0  0  0  0  0  0  0  0  0  0  0  0
   -1.1540   22.5500  -27.9650 C   0  0  0  0  0  0  0  0  0  0  0  0
   -2.1410   21.9480  -28.7480 C   0  0  0  0  0  0  0  0  0  0  0  0
   -2.9480   22.7270  -29.5830 C   0  0  0  0  0  0  0  0  0  0  0  0
   -3.9400   22.1320  -30.2900 F   0  0  0  0  0  0  0  0  0  0  0  0
   -7.4610   22.5800  -30.7630 C   0  0  0  0  0  0  0  0  0  0  0  0
   -7.5200   21.3730  -31.6520 C   0  0  0  0  0  0  0  0  0  0  0  0
   -8.6250   21.0100  -32.1360 O   0  0  0  0  0  0  0  0  0  0  0  0
   -6.3140   20.6660  -31.9790 N   0  0  0  0  0  0  0  0  0  0  0  0
   -6.3010   19.3850  -32.6290 C   0  0  0  0  0  0  0  0  0  0  0  0
   -7.2200   18.3980  -32.2310 C   0  0  0  0  0  0  0  0  0  0  0  0
   -8.0890   18.6390  -31.2180 F   0  0  0  0  0  0  0  0  0  0  0  0
   -7.2320   17.1510  -32.8630 C   0  0  0  0  0  0  0  0  0  0  0  0
   -6.3420   16.8850  -33.9070 C   0  0  0  0  0  0  0  0  0  0  0  0
   -5.4430   17.8680  -34.3260 C   0  0  0  0  0  0  0  0  0  0  0  0
   -5.4240   19.1180  -33.6980 C   0  0  0  0  0  0  0  0  0  0  0  0
   -4.5840   20.0770  -34.1650 F   0  0  0  0  0  0  0  0  0  0  0  0
   -5.7574   24.9196  -32.0855 H   0  0  0  0  0  0  0  0  0  0  0  0
   -5.1929   23.3519  -32.7565 H   0  0  0  0  0  0  0  0  0  0  0  0
   -6.9445   23.7502  -32.7565 H   0  0  0  0  0  0  0  0  0  0  0  0
   -6.9276   24.7399  -29.6167 H   0  0  0  0  0  0  0  0  0  0  0  0
   -5.6002   23.7412  -28.9010 H   0  0  0  0  0  0  0  0  0  0  0  0
   -0.2083   24.4090  -27.3785 H   0  0  0  0  0  0  0  0  0  0  0  0
   -0.5140   21.9331  -27.3171 H   0  0  0  0  0  0  0  0  0  0  0  0
   -2.2841   20.8581  -28.7079 H   0  0  0  0  0  0  0  0  0  0  0  0
   -7.6281   22.2713  -29.7205 H   0  0  0  0  0  0  0  0  0  0  0  0
   -8.2393   23.2922  -31.0746 H   0  0  0  0  0  0  0  0  0  0  0  0
   -5.4030   21.1530  -31.8220 H   0  0  0  0  0  0  0  0  0  0  0  0
   -7.9435   16.3777  -32.5378 H   0  0  0  0  0  0  0  0  0  0  0  0
   -6.3496   15.9011  -34.3988 H   0  0  0  0  0  0  0  0  0  0  0  0
   -4.7477   17.6589  -35.1523 H   0  0  0  0  0  0  0  0  0  0  0  0
  1  2  1  0
  2  3  1  0
  3  4  1  0
  4  5  2  0
  4  6  1  0
  6  7  1  0
  7  8  2  0
  8  9  1  0
  8 10  1  0
 10 11  2  0
 11 12  1  0
 12 13  2  0
 13 14  1  0
  2 15  1  0
 15 16  1  0
 16 17  2  0
 16 18  1  0
 18 19  1  0
 19 20  2  0
 20 21  1  0
 20 22  1  0
 22 23  2  0
 23 24  1  0
 24 25  2  0
 25 26  1  0
 13  7  1  0
 25 19  1  0
  1 27  1  0
  1 28  1  0
  1 29  1  0
  3 30  1  0
  3 31  1  0
 10 32  1  0
 11 33  1  0
 12 34  1  0
 15 35  1  0
 15 36  1  0
 18 37  1  0
 22 38  1  0
 23 39  1  0
 24 40  1  0
M  CHG  1   6  -1
M  END
>  <UniqueID>  (46) 
42

>  <SMILES>  (46) 
CN(CC(=O)[N-]c1c(F)cccc1F)CC(=O)Nc1c(F)cccc1F

>  <Energy>  (46) 
51.7237567972746

>  <Genealogy>  (46) 
CN(CC(=O)[N-]c1c(F)cccc1F)CC(=O)Nc1c(F)cccc1F (protonated)
CN(CC(=O)[N-]c1c(F)cccc1F)CC(=O)Nc1c(F)cccc1F (3D coordinates assigned)
CN(CC(=O)[N-]c1c(F)cccc1F)CC(=O)Nc1c(F)cccc1F (optimized conformer: 51.7237567972746 kcal/mol)

>  <smiles>  (46) 
CN(CC(=O)Nc1c(F)cccc1F)CC(=O)Nc1c(F)cccc1F

>  <score_type>  (46) 
oracle

>  <origin>  (46) 
adg

>  <m_score__min__energy>  (46) 
-9.0199999999999996

>  <m_primary>  (46) 
energy

$$$$
46:0
     RDKit          3D

 37 38  0  0  1  0  0  0  0  0999 V2000
   -6.1790   25.6770  -29.4510 C   0  0  0  0  0  0  0  0  0  0  0  0
   -4.9640   24.8170  -29.7400 C   0  0  0  0  0  0  0  0  0  0  0  0
   -4.9470   24.6170  -31.1950 N   0  0  0  0  0  0  0  0  0  0  0  0
   -5.5870   23.5670  -31.6240 C   0  0  0  0  0  0  0  0  0  0  0  0
   -6.9660   23.4580  -31.5240 C   0  0  0  0  0  0  0  0  0  0  0  0
   -7.6330   22.3580  -31.9740 C   0  0  0  0  0  0  0  0  0  0  0  0
   -9.1030   22.1720  -31.9000 C   0  0  0  0  0  0  0  0  0  0  0  0
   -9.4850   20.7080  -31.9670 C   0  0  0  0  0  0  0  0  0  0  0  0
   -6.9270   21.3460  -32.5350 N   0  0  0  0  0  0  0  0  0  0  0  0
   -5.5800   21.4340  -32.6420 C   0  0  0  0  0  0  0  0  0  0  0  0
   -4.9090   20.3270  -33.2440 N   0  0  0  0  0  0  0  0  0  0  0  0
   -5.4860   19.2280  -33.7270 N   0  0  0  0  0  0  0  0  0  0  0  0
   -4.5910   18.3790  -34.2230 C   0  0  0  0  0  0  0  0  0  0  0  0
   -4.9410   17.0660  -34.8310 C   0  0  0  0  0  0  0  0  0  0  0  0
   -3.3530   18.9620  -34.0530 C   0  0  0  0  0  0  0  0  0  0  0  0
   -3.5760   20.1830  -33.4360 C   0  0  0  0  0  0  0  0  0  0  0  0
   -2.5190   21.1620  -33.0550 C   0  0  0  0  0  0  0  0  0  0  0  0
   -4.9170   22.5260  -32.1950 N   0  0  0  0  0  0  0  0  0  0  0  0
   -6.3115   25.7708  -28.3630 H   0  0  0  0  0  0  0  0  0  0  0  0
   -6.0346   26.6751  -29.8902 H   0  0  0  0  0  0  0  0  0  0  0  0
   -7.0724   25.2090  -29.8902 H   0  0  0  0  0  0  0  0  0  0  0  0
   -4.0468   25.3291  -29.4138 H   0  0  0  0  0  0  0  0  0  0  0  0
   -5.0112   23.8588  -29.2019 H   0  0  0  0  0  0  0  0  0  0  0  0
   -7.5365   24.2813  -31.0694 H   0  0  0  0  0  0  0  0  0  0  0  0
   -9.4686   22.5931  -30.9518 H   0  0  0  0  0  0  0  0  0  0  0  0
   -9.5580   22.6854  -32.7599 H   0  0  0  0  0  0  0  0  0  0  0  0
   -9.5891   20.3092  -30.9471 H   0  0  0  0  0  0  0  0  0  0  0  0
  -10.4407   20.6025  -32.5013 H   0  0  0  0  0  0  0  0  0  0  0  0
   -8.7026   20.1490  -32.5013 H   0  0  0  0  0  0  0  0  0  0  0  0
   -7.4170   20.4910  -32.8880 H   0  0  0  0  0  0  0  0  0  0  0  0
   -5.1363   16.3333  -34.0341 H   0  0  0  0  0  0  0  0  0  0  0  0
   -5.8405   17.1786  -35.4541 H   0  0  0  0  0  0  0  0  0  0  0  0
   -4.1048   16.7159  -35.4541 H   0  0  0  0  0  0  0  0  0  0  0  0
   -2.3806   18.5412  -34.3486 H   0  0  0  0  0  0  0  0  0  0  0  0
   -2.4535   21.2227  -31.9586 H   0  0  0  0  0  0  0  0  0  0  0  0
   -1.5514   20.8340  -33.4626 H   0  0  0  0  0  0  0  0  0  0  0  0
   -2.7720   22.1519  -33.4626 H   0  0  0  0  0  0  0  0  0  0  0  0
  1  2  1  0
  2  3  1  0
  3  4  2  0
  4  5  1  0
  5  6  2  0
  6  7  1  0
  7  8  1  0
  6  9  1  0
  9 10  1  0
 10 11  1  0
 11 12  1  0
 12 13  2  0
 13 14  1  0
 13 15  1  0
 15 16  2  0
 16 17  1  0
 10 18  2  0
 18  4  1  0
 16 11  1  0
  1 19  1  0
  1 20  1  0
  1 21  1  0
  2 22  1  0
  2 23  1  0
  5 24  1  0
  7 25  1  0
  7 26  1  0
  8 27  1  0
  8 28  1  0
  8 29  1  0
  9 30  1  0
 14 31  1  0
 14 32  1  0
 14 33  1  0
 15 34  1  0
 17 35  1  0
 17 36  1  0
 17 37  1  0
M  END
>  <smiles>  (47) 
CCN=c1cc(CC)[nH]c(-n2nc(C)cc2C)n1

>  <score_type>  (47) 
oracle

>  <origin>  (47) 
adg

>  <m_score__min__energy>  (47) 
-6.5999999999999996

>  <m_primary>  (47) 
energy

$$$$
47:0
     RDKit          3D

 31 31  0  0  0  0  0  0  0  0999 V2000
   -8.8000   23.4250  -31.9790 C   0  0  0  0  0  0  0  0  0  0  0  0
   -8.0870   22.0970  -31.9570 C   0  0  0  0  0  0  0  0  0  0  0  0
   -8.8250   20.9150  -32.0060 C   0  0  0  0  0  0  0  0  0  0  0  0
   -8.1830   19.6680  -31.9800 C   0  0  0  0  0  0  0  0  0  0  0  0
   -9.0570   18.4370  -31.8980 C   0  0  0  0  0  0  0  0  0  0  0  0
   -6.8020   19.6020  -31.9430 N   0  0  0  0  0  0  0  0  0  0  0  0
   -6.0840   18.3010  -32.0260 C   0  0  0  0  0  0  0  0  0  0  0  0
   -5.7990   17.8310  -33.4810 C   0  0  0  0  0  0  0  0  0  0  0  0
   -6.5350   16.5360  -33.8460 C   0  0  0  0  0  0  0  0  0  0  0  0
   -6.0720   18.9120  -34.5330 C   0  0  0  0  0  0  0  0  0  0  0  0
   -6.0690   20.7600  -31.7940 C   0  0  0  0  0  0  0  0  0  0  0  0
   -4.8200   20.7060  -31.6150 O   0  0  0  0  0  0  0  0  0  0  0  0
   -6.6940   22.0190  -31.8180 C   0  0  0  0  0  0  0  0  0  0  0  0
   -5.8970   23.2220  -31.6900 C   0  0  0  0  0  0  0  0  0  0  0  0
   -5.2610   24.1830  -31.5880 N   0  0  0  0  0  0  0  0  0  0  0  0
   -8.9806   23.7613  -30.9474 H   0  0  0  0  0  0  0  0  0  0  0  0
   -8.1785   24.1662  -32.5028 H   0  0  0  0  0  0  0  0  0  0  0  0
   -9.7612   23.3165  -32.5028 H   0  0  0  0  0  0  0  0  0  0  0  0
   -9.9224   20.9608  -32.0657 H   0  0  0  0  0  0  0  0  0  0  0  0
   -9.2364   18.1843  -30.8426 H   0  0  0  0  0  0  0  0  0  0  0  0
  -10.0176   18.6355  -32.3959 H   0  0  0  0  0  0  0  0  0  0  0  0
   -8.5529   17.5956  -32.3959 H   0  0  0  0  0  0  0  0  0  0  0  0
   -5.1232   18.4013  -31.4998 H   0  0  0  0  0  0  0  0  0  0  0  0
   -6.7388   17.5448  -31.5683 H   0  0  0  0  0  0  0  0  0  0  0  0
   -4.7192   17.6218  -33.4954 H   0  0  0  0  0  0  0  0  0  0  0  0
   -6.8329   16.0118  -32.9260 H   0  0  0  0  0  0  0  0  0  0  0  0
   -7.4308   16.7775  -34.4369 H   0  0  0  0  0  0  0  0  0  0  0  0
   -5.8691   15.8899  -34.4369 H   0  0  0  0  0  0  0  0  0  0  0  0
   -6.3116   19.8606  -34.0303 H   0  0  0  0  0  0  0  0  0  0  0  0
   -5.1794   19.0455  -35.1618 H   0  0  0  0  0  0  0  0  0  0  0  0
   -6.9210   18.6056  -35.1618 H   0  0  0  0  0  0  0  0  0  0  0  0
  1  2  1  0
  2  3  1  0
  3  4  2  0
  4  5  1  0
  4  6  1  0
  6  7  1  0
  7  8  1  0
  8  9  1  0
  8 10  1  0
  6 11  1  0
 11 12  2  0
 11 13  1  0
 13 14  1  0
 14 15  3  0
 13  2  2  0
  1 16  1  0
  1 17  1  0
  1 18  1  0
  3 19  1  0
  5 20  1  0
  5 21  1  0
  5 22  1  0
  7 23  1  0
  7 24  1  0
  8 25  1  0
  9 26  1  0
  9 27  1  0
  9 28  1  0
 10 29  1  0
 10 30  1  0
 10 31  1  0
M  END
>  <UniqueID>  (48) 
43

>  <SMILES>  (48) 
Cc1cc(C)n(CC(C)C)c(=O)c1C#N

>  <Energy>  (48) 
33.48585446896722

>  <Genealogy>  (48) 
Cc1cc(C)n(CC(C)C)c(=O)c1C#N (3D coordinates assigned)
Cc1cc(C)n(CC(C)C)c(=O)c1C#N (optimized conformer: 33.48585446896722 kcal/mol)

>  <smiles>  (48) 
Cc1cc(C)n(CC(C)C)c(=O)c1C#N

>  <score_type>  (48) 
oracle

>  <origin>  (48) 
adg

>  <m_score__min__energy>  (48) 
-6.2300000000000004

>  <m_primary>  (48) 
energy

$$$$
48:0
     RDKit          3D

 34 36  0  0  0  0  0  0  0  0999 V2000
   -5.7230   16.4350  -33.7220 C   0  0  0  0  0  0  0  0  0  0  0  0
   -6.1350   17.8320  -33.3620 C   0  0  0  0  0  0  0  0  0  0  0  0
   -5.2860   18.9030  -33.6370 C   0  0  0  0  0  0  0  0  0  0  0  0
   -5.6860   20.2040  -33.3330 C   0  0  0  0  0  0  0  0  0  0  0  0
   -6.9530   20.4550  -32.7570 C   0  0  0  0  0  0  0  0  0  0  0  0
   -7.7880   19.3290  -32.5200 C   0  0  0  0  0  0  0  0  0  0  0  0
   -9.0550   19.5190  -31.9700 C   0  0  0  0  0  0  0  0  0  0  0  0
   -9.4920   20.7950  -31.6610 C   0  0  0  0  0  0  0  0  0  0  0  0
   -8.6620   21.8900  -31.8930 C   0  0  0  0  0  0  0  0  0  0  0  0
   -9.0980   23.0380  -31.6010 O   0  0  0  0  0  0  0  0  0  0  0  0
   -7.4010   21.7280  -32.4280 N   0  0  0  0  0  0  0  0  0  0  0  0
   -6.5880   22.9490  -32.6480 C   0  0  0  0  0  0  0  0  0  0  0  0
   -5.9200   23.3900  -31.3670 C   0  0  0  0  0  0  0  0  0  0  0  0
   -6.3580   24.5400  -30.6880 C   0  0  0  0  0  0  0  0  0  0  0  0
   -5.7460   24.9300  -29.4930 C   0  0  0  0  0  0  0  0  0  0  0  0
   -4.6940   24.1780  -28.9650 C   0  0  0  0  0  0  0  0  0  0  0  0
   -4.2520   23.0330  -29.6310 C   0  0  0  0  0  0  0  0  0  0  0  0
   -4.8610   22.6380  -30.8260 C   0  0  0  0  0  0  0  0  0  0  0  0
   -7.3660   18.0680  -32.8270 N   0  0  0  0  0  0  0  0  0  0  0  0
   -5.5519   15.8549  -32.8032 H   0  0  0  0  0  0  0  0  0  0  0  0
   -6.5190   15.9589  -34.3134 H   0  0  0  0  0  0  0  0  0  0  0  0
   -4.7960   16.4670  -34.3134 H   0  0  0  0  0  0  0  0  0  0  0  0
   -4.3016   18.7221  -34.0933 H   0  0  0  0  0  0  0  0  0  0  0  0
   -5.0083   21.0445  -33.5436 H   0  0  0  0  0  0  0  0  0  0  0  0
   -9.7077   18.6539  -31.7816 H   0  0  0  0  0  0  0  0  0  0  0  0
  -10.4940   20.9449  -31.2325 H   0  0  0  0  0  0  0  0  0  0  0  0
   -5.8159   22.7365  -33.4021 H   0  0  0  0  0  0  0  0  0  0  0  0
   -7.2515   23.7553  -32.9940 H   0  0  0  0  0  0  0  0  0  0  0  0
   -7.1863   25.1360  -31.0987 H   0  0  0  0  0  0  0  0  0  0  0  0
   -6.0939   25.8314  -28.9672 H   0  0  0  0  0  0  0  0  0  0  0  0
   -4.2139   24.4876  -28.0250 H   0  0  0  0  0  0  0  0  0  0  0  0
   -3.4235   22.4410  -29.2149 H   0  0  0  0  0  0  0  0  0  0  0  0
   -4.5103   21.7344  -31.3460 H   0  0  0  0  0  0  0  0  0  0  0  0
   -8.0010   17.2550  -32.6520 H   0  0  0  0  0  0  0  0  0  0  0  0
  1  2  1  0
  2  3  2  0
  3  4  1  0
  4  5  2  0
  5  6  1  0
  6  7  1  0
  7  8  2  0
  8  9  1  0
  9 10  2  0
  9 11  1  0
 11 12  1  0
 12 13  1  0
 13 14  2  0
 14 15  1  0
 15 16  2  0
 16 17  1  0
 17 18  2  0
  6 19  2  0
 19  2  1  0
 11  5  1  0
 18 13  1  0
  1 20  1  0
  1 21  1  0
  1 22  1  0
  3 23  1  0
  4 24  1  0
  7 25  1  0
  8 26  1  0
 12 27  1  0
 12 28  1  0
 14 29  1  0
 15 30  1  0
 16 31  1  0
 17 32  1  0
 18 33  1  0
 19 34  1  0
M  CHG  1  19   1
M  END
>  <UniqueID>  (49) 
44

>  <SMILES>  (49) 
Cc1ccc2c(ccc(=O)n2Cc2ccccc2)[nH+]1

>  <Energy>  (49) 
47.41649584609031

>  <Genealogy>  (49) 
Cc1ccc2c(ccc(=O)n2Cc2ccccc2)[nH+]1 (protonated)
Cc1ccc2c(ccc(=O)n2Cc2ccccc2)[nH+]1 (3D coordinates assigned)
Cc1ccc2c(ccc(=O)n2Cc2ccccc2)[nH+]1 (optimized conformer: 47.41649584609031 kcal/mol)

>  <smiles>  (49) 
Cc1ccc2c(ccc(=O)n2Cc2ccccc2)n1

>  <score_type>  (49) 
oracle

>  <origin>  (49) 
adg

>  <m_score__min__energy>  (49) 
-6.6900000000000004

>  <m_primary>  (49) 
energy

$$$$
