0:0
     RDKit          3D

 76 80  0  0  0  0  0  0  0  0999 V2000
   -4.7230   23.5240  -30.6600 C   0  0  0  0  0  0  0  0  0  0  0  0
   -4.1210   24.8050  -30.0750 C   0  0  0  0  0  0  0  0  0  0  0  0
   -2.8380   24.5410  -29.5150 N   0  0  0  0  0  0  0  0  0  0  0  0
   -2.8080   24.5640  -28.0820 C   0  0  0  0  0  0  0  0  0  0  0  0
   -3.7820   23.5440  -27.5330 C   0  0  0  0  0  0  0  0  0  0  0  0
   -2.3420   23.2110  -29.9230 C   0  0  0  0  0  0  0  0  0  0  0  0
   -0.9570   22.9750  -29.4190 C   0  0  0  0  0  0  0  0  0  0  0  0
   -0.1820   22.0100  -29.8860 O   0  0  0  0  0  0  0  0  0  0  0  0
   -0.2610   20.7150  -29.7000 C   0  0  0  0  0  0  0  0  0  0  0  0
   -0.1340   19.8510  -30.9050 C   0  0  0  0  0  0  0  0  0  0  0  0
   -0.8660   20.5350  -31.9940 N   0  0  0  0  0  0  0  0  0  0  0  0
   -2.1910   20.8030  -31.9020 C   0  0  0  0  0  0  0  0  0  0  0  0
   -2.5570   21.4280  -33.0710 C   0  0  0  0  0  0  0  0  0  0  0  0
   -3.9280   21.9250  -33.4730 C   0  0  0  0  0  0  0  0  0  0  0  0
   -4.9990   21.2660  -32.9970 N   0  0  0  0  0  0  0  0  0  0  0  0
   -5.8750   20.4290  -32.9610 C   0  0  0  0  0  0  0  0  0  0  0  0
   -5.7740   19.1050  -33.3320 C   0  0  0  0  0  0  0  0  0  0  0  0
   -4.5860   18.6030  -33.8160 C   0  0  0  0  0  0  0  0  0  0  0  0
   -4.4090   17.2950  -34.2080 C   0  0  0  0  0  0  0  0  0  0  0  0
   -5.4610   16.4050  -34.1250 C   0  0  0  0  0  0  0  0  0  0  0  0
   -6.6580   16.8980  -33.6400 C   0  0  0  0  0  0  0  0  0  0  0  0
   -6.8260   18.2100  -33.2490 C   0  0  0  0  0  0  0  0  0  0  0  0
   -7.9960   18.6720  -32.7840 N   0  0  0  0  0  0  0  0  0  0  0  0
   -8.1940   19.9400  -32.3990 C   0  0  0  0  0  0  0  0  0  0  0  0
   -9.4500   20.2740  -31.9390 C   0  0  0  0  0  0  0  0  0  0  0  0
   -9.6620   21.5850  -31.5370 C   0  0  0  0  0  0  0  0  0  0  0  0
   -8.6410   22.5030  -31.6040 C   0  0  0  0  0  0  0  0  0  0  0  0
   -7.3810   22.1180  -32.0790 C   0  0  0  0  0  0  0  0  0  0  0  0
   -7.1470   20.8190  -32.4840 C   0  0  0  0  0  0  0  0  0  0  0  0
   -1.4370   21.5040  -33.8050 N   0  0  0  0  0  0  0  0  0  0  0  0
   -0.3910   20.9690  -33.1750 C   0  0  0  0  0  0  0  0  0  0  0  0
    1.0290   20.8290  -33.5930 C   0  0  0  0  0  0  0  0  0  0  0  0
    1.2770   21.1920  -35.3410 S   0  0  0  0  0  0  0  0  0  0  0  0
    1.4430   22.9140  -35.7130 C   0  0  0  0  0  0  0  0  0  0  0  0
    0.3050   23.6350  -36.0720 C   0  0  0  0  0  0  0  0  0  0  0  0
    0.3920   24.9710  -36.3890 C   0  0  0  0  0  0  0  0  0  0  0  0
    1.6050   25.6550  -36.3670 C   0  0  0  0  0  0  0  0  0  0  0  0
    2.7290   24.9520  -36.0160 C   0  0  0  0  0  0  0  0  0  0  0  0
    2.6250   23.6150  -35.7000 C   0  0  0  0  0  0  0  0  0  0  0  0
   -5.0356   22.8588  -29.8416 H   0  0  0  0  0  0  0  0  0  0  0  0
   -5.5957   23.7786  -31.2793 H   0  0  0  0  0  0  0  0  0  0  0  0
   -3.9700   23.0146  -31.2793 H   0  0  0  0  0  0  0  0  0  0  0  0
   -4.0205   25.5554  -30.8730 H   0  0  0  0  0  0  0  0  0  0  0  0
   -4.7850   25.1815  -29.2830 H   0  0  0  0  0  0  0  0  0  0  0  0
   -1.7926   24.3237  -27.7340 H   0  0  0  0  0  0  0  0  0  0  0  0
   -3.0932   25.5659  -27.7285 H   0  0  0  0  0  0  0  0  0  0  0  0
   -3.7582   23.5690  -26.4335 H   0  0  0  0  0  0  0  0  0  0  0  0
   -4.7974   23.7811  -27.8832 H   0  0  0  0  0  0  0  0  0  0  0  0
   -3.4983   22.5406  -27.8832 H   0  0  0  0  0  0  0  0  0  0  0  0
   -3.0094   22.4380  -29.5143 H   0  0  0  0  0  0  0  0  0  0  0  0
   -2.3256   23.1668  -31.0220 H   0  0  0  0  0  0  0  0  0  0  0  0
   -0.4082   23.9138  -29.5851 H   0  0  0  0  0  0  0  0  0  0  0  0
   -1.1484   22.6308  -28.3919 H   0  0  0  0  0  0  0  0  0  0  0  0
    0.5398   20.4305  -29.0016 H   0  0  0  0  0  0  0  0  0  0  0  0
   -1.2821   20.5411  -29.3298 H   0  0  0  0  0  0  0  0  0  0  0  0
    0.9253   19.7313  -31.1764 H   0  0  0  0  0  0  0  0  0  0  0  0
   -0.5453   18.8478  -30.7193 H   0  0  0  0  0  0  0  0  0  0  0  0
   -2.8491   20.5656  -31.0532 H   0  0  0  0  0  0  0  0  0  0  0  0
   -4.0097   22.9693  -33.1372 H   0  0  0  0  0  0  0  0  0  0  0  0
   -3.9698   21.7712  -34.5614 H   0  0  0  0  0  0  0  0  0  0  0  0
   -3.7283   19.2873  -33.8939 H   0  0  0  0  0  0  0  0  0  0  0  0
   -3.4319   16.9601  -34.5863 H   0  0  0  0  0  0  0  0  0  0  0  0
   -5.3520   15.3538  -34.4302 H   0  0  0  0  0  0  0  0  0  0  0  0
   -7.5152   16.2130  -33.5624 H   0  0  0  0  0  0  0  0  0  0  0  0
   -8.7790   17.9860  -32.7270 H   0  0  0  0  0  0  0  0  0  0  0  0
  -10.2561   19.5270  -31.8923 H   0  0  0  0  0  0  0  0  0  0  0  0
  -10.6504   21.8908  -31.1634 H   0  0  0  0  0  0  0  0  0  0  0  0
   -8.8138   23.5412  -31.2842 H   0  0  0  0  0  0  0  0  0  0  0  0
   -6.5691   22.8585  -32.1299 H   0  0  0  0  0  0  0  0  0  0  0  0
    1.6411   21.5235  -32.9988 H   0  0  0  0  0  0  0  0  0  0  0  0
    1.3237   19.7825  -33.4253 H   0  0  0  0  0  0  0  0  0  0  0  0
   -0.6721   23.1307  -36.1021 H   0  0  0  0  0  0  0  0  0  0  0  0
   -0.5228   25.5145  -36.6678 H   0  0  0  0  0  0  0  0  0  0  0  0
    1.6597   26.7235  -36.6226 H   0  0  0  0  0  0  0  0  0  0  0  0
    3.7080   25.4527  -35.9869 H   0  0  0  0  0  0  0  0  0  0  0  0
    3.5427   23.0766  -35.4207 H   0  0  0  0  0  0  0  0  0  0  0  0
  1  2  1  0
  2  3  1  0
  3  4  1  0
  4  5  1  0
  3  6  1  0
  6  7  1  0
  7  8  1  0
  8  9  1  0
  9 10  1  0
 10 11  1  0
 11 12  1  0
 12 13  2  0
 13 14  1  0
 14 15  1  0
 15 16  2  3
 16 17  1  0
 17 18  2  0
 18 19  1  0
 19 20  2  0
 20 21  1  0
 21 22  2  0
 22 23  1  0
 23 24  1  0
 24 25  2  0
 25 26  1  0
 26 27  2  0
 27 28  1  0
 28 29  2  0
 13 30  1  0
 30 31  2  0
 31 32  1  0
 32 33  1  0
 33 34  1  0
 34 35  2  0
 35 36  1  0
 36 37  2  0
 37 38  1  0
 38 39  2  0
 31 11  1  0
 39 34  1  0
 29 16  1  0
 22 17  1  0
 29 24  1  0
  1 40  1  0
  1 41  1  0
  1 42  1  0
  2 43  1  0
  2 44  1  0
  4 45  1  0
  4 46  1  0
  5 47  1  0
  5 48  1  0
  5 49  1  0
  6 50  1  0
  6 51  1  0
  7 52  1  0
  7 53  1  0
  9 54  1  0
  9 55  1  0
 10 56  1  0
 10 57  1  0
 12 58  1  0
 14 59  1  0
 14 60  1  0
 18 61  1  0
 19 62  1  0
 20 63  1  0
 21 64  1  0
 23 65  1  0
 25 66  1  0
 26 67  1  0
 27 68  1  0
 28 69  1  0
 32 70  1  0
 32 71  1  0
 35 72  1  0
 36 73  1  0
 37 74  1  0
 38 75  1  0
 39 76  1  0
M  END
>  <smiles>  (1) 
CCN(CC)CCOCCn1cc(CN=c2c3ccccc3[nH]c3ccccc23)nc1CSc1ccccc1

>  <score_type>  (1) 
oracle

>  <origin>  (1) 
adg

>  <m_score__min__energy>  (1) 
-10.17

>  <m_primary>  (1) 
energy

$$$$
1:0
     RDKit          3D

 43 45  0  0  0  0  0  0  0  0999 V2000
   -1.8320   25.6920  -26.5210 C   0  0  0  0  0  0  0  0  0  0  0  0
   -1.1830   26.1420  -27.8060 C   0  0  0  0  0  0  0  0  0  0  0  0
   -1.8150   25.6580  -28.9680 O   0  0  0  0  0  0  0  0  0  0  0  0
   -1.8500   24.3080  -29.2420 C   0  0  0  0  0  0  0  0  0  0  0  0
   -0.7770   23.4560  -29.1320 C   0  0  0  0  0  0  0  0  0  0  0  0
   -0.8580   22.1050  -29.4200 C   0  0  0  0  0  0  0  0  0  0  0  0
   -2.0480   21.5640  -29.8360 C   0  0  0  0  0  0  0  0  0  0  0  0
   -3.1290   22.4140  -29.9470 C   0  0  0  0  0  0  0  0  0  0  0  0
   -3.0670   23.7640  -29.6640 C   0  0  0  0  0  0  0  0  0  0  0  0
   -4.2580   24.6380  -29.7990 C   0  0  0  0  0  0  0  0  0  0  0  0
   -4.5360   24.7950  -31.1960 N   0  0  0  0  0  0  0  0  0  0  0  0
   -5.8940   24.4400  -31.5530 C   0  0  0  0  0  0  0  0  0  0  0  0
   -5.9650   23.0340  -32.0190 C   0  0  0  0  0  0  0  0  0  0  0  0
   -5.0130   22.2370  -32.5210 N   0  0  0  0  0  0  0  0  0  0  0  0
   -5.5100   21.0480  -32.8110 N   0  0  0  0  0  0  0  0  0  0  0  0
   -4.8170   19.8940  -33.3750 C   0  0  0  0  0  0  0  0  0  0  0  0
   -6.8410   21.0170  -32.5030 C   0  0  0  0  0  0  0  0  0  0  0  0
   -7.8230   20.0480  -32.6010 C   0  0  0  0  0  0  0  0  0  0  0  0
   -9.0970   20.3750  -32.1840 C   0  0  0  0  0  0  0  0  0  0  0  0
   -9.4300   21.6150  -31.6780 C   0  0  0  0  0  0  0  0  0  0  0  0
   -8.4010   22.5610  -31.5990 C   0  0  0  0  0  0  0  0  0  0  0  0
   -7.1150   22.2740  -32.0060 C   0  0  0  0  0  0  0  0  0  0  0  0
   -1.2637   26.0861  -25.6656 H   0  0  0  0  0  0  0  0  0  0  0  0
   -2.8646   26.0690  -26.4801 H   0  0  0  0  0  0  0  0  0  0  0  0
   -1.8411   24.5928  -26.4801 H   0  0  0  0  0  0  0  0  0  0  0  0
   -1.2002   27.2415  -27.8355 H   0  0  0  0  0  0  0  0  0  0  0  0
   -0.1616   25.7338  -27.8062 H   0  0  0  0  0  0  0  0  0  0  0  0
    0.1884   23.8661  -28.8005 H   0  0  0  0  0  0  0  0  0  0  0  0
    0.0309   21.4655  -29.3155 H   0  0  0  0  0  0  0  0  0  0  0  0
   -2.1369   20.4933  -30.0721 H   0  0  0  0  0  0  0  0  0  0  0  0
   -4.0904   21.9944  -30.2782 H   0  0  0  0  0  0  0  0  0  0  0  0
   -5.1199   24.1746  -29.2966 H   0  0  0  0  0  0  0  0  0  0  0  0
   -4.0681   25.6170  -29.3348 H   0  0  0  0  0  0  0  0  0  0  0  0
   -4.2340   25.6940  -31.5800 H   0  0  0  0  0  0  0  0  0  0  0  0
   -6.5419   24.5613  -30.6724 H   0  0  0  0  0  0  0  0  0  0  0  0
   -6.2284   25.0990  -32.3678 H   0  0  0  0  0  0  0  0  0  0  0  0
   -4.4366   19.2605  -32.5602 H   0  0  0  0  0  0  0  0  0  0  0  0
   -5.5160   19.3135  -33.9950 H   0  0  0  0  0  0  0  0  0  0  0  0
   -3.9761   20.2383  -33.9950 H   0  0  0  0  0  0  0  0  0  0  0  0
   -7.5955   19.0480  -32.9989 H   0  0  0  0  0  0  0  0  0  0  0  0
   -9.8848   19.6109  -32.2584 H   0  0  0  0  0  0  0  0  0  0  0  0
  -10.4544   21.8488  -31.3525 H   0  0  0  0  0  0  0  0  0  0  0  0
   -8.6246   23.5618  -31.2009 H   0  0  0  0  0  0  0  0  0  0  0  0
  1  2  1  0
  2  3  1  0
  3  4  1  0
  4  5  2  0
  5  6  1  0
  6  7  2  0
  7  8  1  0
  8  9  2  0
  9 10  1  0
 10 11  1  0
 11 12  1  0
 12 13  1  0
 13 14  2  0
 14 15  1  0
 15 16  1  0
 15 17  1  0
 17 18  2  0
 18 19  1  0
 19 20  2  0
 20 21  1  0
 21 22  2  0
  9  4  1  0
 22 13  1  0
 22 17  1  0
  1 23  1  0
  1 24  1  0
  1 25  1  0
  2 26  1  0
  2 27  1  0
  5 28  1  0
  6 29  1  0
  7 30  1  0
  8 31  1  0
 10 32  1  0
 10 33  1  0
 11 34  1  0
 12 35  1  0
 12 36  1  0
 16 37  1  0
 16 38  1  0
 16 39  1  0
 18 40  1  0
 19 41  1  0
 20 42  1  0
 21 43  1  0
M  END
>  <smiles>  (2) 
CCOc1ccccc1CNCc1nn(C)c2ccccc12

>  <score_type>  (2) 
oracle

>  <origin>  (2) 
adg

>  <m_score__min__energy>  (2) 
-9.1300000000000008

>  <m_primary>  (2) 
energy

$$$$
2:0
     RDKit          3D

 26 27  0  0  1  0  0  0  0  0999 V2000
   -6.1100   25.6720  -29.6780 C   0  0  0  0  0  0  0  0  0  0  0  0
   -6.4990   24.6200  -30.6240 C   0  0  0  0  0  0  0  0  0  0  0  0
   -6.8350   23.7600  -31.4070 C   0  0  0  0  0  0  0  0  0  0  0  0
   -7.2300   22.6900  -32.3560 C   0  0  1  0  0  0  0  0  0  0  0  0
   -6.0920   21.8700  -32.7040 N   0  0  0  0  0  0  0  0  0  0  0  0
   -6.3560   20.6340  -32.4820 C   0  0  0  0  0  0  0  0  0  0  0  0
   -5.6550   18.9630  -32.5810 S   0  0  0  0  0  0  0  0  0  0  0  0
   -7.3100   18.1800  -32.7730 C   0  0  0  0  0  0  0  0  0  0  0  0
   -8.0880   19.1230  -31.9470 C   0  0  0  0  0  0  0  0  0  0  0  0
   -9.0980   18.7140  -31.2610 O   0  0  0  0  0  0  0  0  0  0  0  0
   -7.6580   20.4370  -31.9690 N   0  0  0  0  0  0  0  0  0  0  0  0
   -8.1330   21.7870  -31.6020 C   0  0  0  0  0  0  0  0  0  0  0  0
   -7.9940   21.9270  -30.0990 C   0  0  0  0  0  0  0  0  0  0  0  0
   -9.5610   21.8940  -32.0490 C   0  0  0  0  0  0  0  0  0  0  0  0
   -6.2447   25.3077  -28.6488 H   0  0  0  0  0  0  0  0  0  0  0  0
   -5.0544   25.9370  -29.8380 H   0  0  0  0  0  0  0  0  0  0  0  0
   -6.7392   26.5600  -29.8380 H   0  0  0  0  0  0  0  0  0  0  0  0
   -7.6715   23.1418  -33.2565 H   0  0  0  0  0  0  0  0  0  0  0  0
   -7.6460   18.1701  -33.8204 H   0  0  0  0  0  0  0  0  0  0  0  0
   -7.3765   17.1207  -32.4839 H   0  0  0  0  0  0  0  0  0  0  0  0
   -8.6849   21.2312  -29.6005 H   0  0  0  0  0  0  0  0  0  0  0  0
   -6.9608   21.6929  -29.8029 H   0  0  0  0  0  0  0  0  0  0  0  0
   -8.2355   22.9585  -29.8029 H   0  0  0  0  0  0  0  0  0  0  0  0
  -10.2182   21.9432  -31.1683 H   0  0  0  0  0  0  0  0  0  0  0  0
   -9.6888   22.8042  -32.6532 H   0  0  0  0  0  0  0  0  0  0  0  0
   -9.8231   21.0130  -32.6532 H   0  0  0  0  0  0  0  0  0  0  0  0
  1  2  1  0
  2  3  3  0
  3  4  1  0
  4  5  1  0
  5  6  2  0
  6  7  1  0
  7  8  1  0
  8  9  1  0
  9 10  2  0
  9 11  1  0
 11 12  1  0
 12 13  1  0
 12 14  1  0
 12  4  1  0
 11  6  1  0
  1 15  1  0
  1 16  1  0
  1 17  1  0
  4 18  1  6
  8 19  1  0
  8 20  1  0
 13 21  1  0
 13 22  1  0
 13 23  1  0
 14 24  1  0
 14 25  1  0
 14 26  1  0
M  END
>  <smiles>  (3) 
CC#CC1N=C2SCC(=O)N2C1(C)C

>  <score_type>  (3) 
oracle

>  <origin>  (3) 
adg

>  <m_score__min__energy>  (3) 
-5.7800000000000002

>  <m_primary>  (3) 
energy

$$$$
3:0
     RDKit          3D

 77 80  0  0  0  0  0  0  0  0999 V2000
   -3.0630   19.6640  -26.8020 C   0  0  0  0  0  0  0  0  0  0  0  0
   -1.9810   18.5940  -26.7220 C   0  0  0  0  0  0  0  0  0  0  0  0
   -0.9960   18.7610  -27.7420 N   0  0  0  0  0  0  0  0  0  0  0  0
    0.1050   17.8440  -27.5650 C   0  0  0  0  0  0  0  0  0  0  0  0
    0.9650   17.8440  -28.8320 C   0  0  0  0  0  0  0  0  0  0  0  0
    0.2710   18.6090  -29.8560 N   0  0  0  0  0  0  0  0  0  0  0  0
    1.2770   19.3940  -30.6220 C   0  0  0  0  0  0  0  0  0  0  0  0
    0.5250   20.1250  -31.7020 C   0  0  0  0  0  0  0  0  0  0  0  0
    0.8710   19.8270  -32.9850 C   0  0  0  0  0  0  0  0  0  0  0  0
    0.1590   20.4040  -34.0000 C   0  0  0  0  0  0  0  0  0  0  0  0
    0.6390   19.9960  -35.7810 Br  0  0  0  0  0  0  0  0  0  0  0  0
   -0.8700   21.2520  -33.7710 C   0  0  0  0  0  0  0  0  0  0  0  0
   -1.2010   21.5400  -32.4640 C   0  0  0  0  0  0  0  0  0  0  0  0
   -0.5280   21.0010  -31.3640 C   0  0  0  0  0  0  0  0  0  0  0  0
   -0.8180   21.2590  -30.1510 O   0  0  0  0  0  0  0  0  0  0  0  0
   -1.1230   21.5210  -28.9030 C   0  0  0  0  0  0  0  0  0  0  0  0
   -1.0540   23.0410  -28.5550 C   0  0  0  0  0  0  0  0  0  0  0  0
   -2.0210   23.7320  -29.4320 C   0  0  0  0  0  0  0  0  0  0  0  0
   -3.4990   23.3760  -29.1520 C   0  0  0  0  0  0  0  0  0  0  0  0
   -4.0040   22.4880  -30.2260 C   0  0  0  0  0  0  0  0  0  0  0  0
   -4.1670   23.0400  -31.5530 C   0  0  0  0  0  0  0  0  0  0  0  0
   -4.7420   22.4360  -32.6960 N   0  0  0  0  0  0  0  0  0  0  0  0
   -5.4450   21.2210  -32.7180 C   0  0  0  0  0  0  0  0  0  0  0  0
   -6.8080   21.3120  -32.3530 C   0  0  0  0  0  0  0  0  0  0  0  0
   -7.3420   22.5470  -31.9980 C   0  0  0  0  0  0  0  0  0  0  0  0
   -8.6540   22.7220  -31.6210 C   0  0  0  0  0  0  0  0  0  0  0  0
   -9.4590   21.6010  -31.6020 C   0  0  0  0  0  0  0  0  0  0  0  0
   -8.9450   20.3630  -31.9520 C   0  0  0  0  0  0  0  0  0  0  0  0
   -7.6170   20.2000  -32.3310 C   0  0  0  0  0  0  0  0  0  0  0  0
   -7.1570   18.9610  -32.6540 N   0  0  0  0  0  0  0  0  0  0  0  0
   -7.9860   17.7930  -32.6660 C   0  0  0  0  0  0  0  0  0  0  0  0
   -5.8500   18.8550  -33.0000 C   0  0  0  0  0  0  0  0  0  0  0  0
   -5.3000   17.6310  -33.2990 C   0  0  0  0  0  0  0  0  0  0  0  0
   -3.9500   17.4730  -33.6240 C   0  0  0  0  0  0  0  0  0  0  0  0
   -3.1330   18.5840  -33.6440 C   0  0  0  0  0  0  0  0  0  0  0  0
   -3.6810   19.8100  -33.3470 C   0  0  0  0  0  0  0  0  0  0  0  0
   -5.0090   19.9760  -33.0300 C   0  0  0  0  0  0  0  0  0  0  0  0
   -3.3621   19.9597  -25.7856 H   0  0  0  0  0  0  0  0  0  0  0  0
   -2.6725   20.5409  -27.3391 H   0  0  0  0  0  0  0  0  0  0  0  0
   -3.9355   19.2637  -27.3391 H   0  0  0  0  0  0  0  0  0  0  0  0
   -1.4905   18.6559  -25.7394 H   0  0  0  0  0  0  0  0  0  0  0  0
   -2.4581   17.6130  -26.8636 H   0  0  0  0  0  0  0  0  0  0  0  0
   -1.3890   18.8060  -28.6890 H   0  0  0  0  0  0  0  0  0  0  0  0
    0.7144   18.1614  -26.7060 H   0  0  0  0  0  0  0  0  0  0  0  0
   -0.2821   16.8312  -27.3796 H   0  0  0  0  0  0  0  0  0  0  0  0
    1.9402   18.3064  -28.6194 H   0  0  0  0  0  0  0  0  0  0  0  0
    1.1309   16.8128  -29.1770 H   0  0  0  0  0  0  0  0  0  0  0  0
   -0.2780   19.3730  -29.3580 H   0  0  0  0  0  0  0  0  0  0  0  0
    1.7820   20.1121  -29.9592 H   0  0  0  0  0  0  0  0  0  0  0  0
    2.0474   18.7370  -31.0519 H   0  0  0  0  0  0  0  0  0  0  0  0
    1.7024   19.1394  -33.1995 H   0  0  0  0  0  0  0  0  0  0  0  0
   -1.4282   21.7002  -34.6062 H   0  0  0  0  0  0  0  0  0  0  0  0
   -2.0377   22.2293  -32.2774 H   0  0  0  0  0  0  0  0  0  0  0  0
   -2.1463   21.1655  -28.7119 H   0  0  0  0  0  0  0  0  0  0  0  0
   -0.3810   21.0091  -28.2726 H   0  0  0  0  0  0  0  0  0  0  0  0
   -1.3218   23.1990  -27.4999 H   0  0  0  0  0  0  0  0  0  0  0  0
   -0.0374   23.4319  -28.7088 H   0  0  0  0  0  0  0  0  0  0  0  0
   -1.8959   24.8164  -29.2962 H   0  0  0  0  0  0  0  0  0  0  0  0
   -1.8063   23.4030  -30.4595 H   0  0  0  0  0  0  0  0  0  0  0  0
   -3.5750   22.8602  -28.1834 H   0  0  0  0  0  0  0  0  0  0  0  0
   -4.0997   24.2971  -29.1243 H   0  0  0  0  0  0  0  0  0  0  0  0
   -3.3023   21.6448  -30.3081 H   0  0  0  0  0  0  0  0  0  0  0  0
   -5.0268   22.2350  -29.9101 H   0  0  0  0  0  0  0  0  0  0  0  0
   -4.7564   23.9560  -31.3997 H   0  0  0  0  0  0  0  0  0  0  0  0
   -3.1138   23.0092  -31.8691 H   0  0  0  0  0  0  0  0  0  0  0  0
   -4.6350   22.9410  -33.6230 H   0  0  0  0  0  0  0  0  0  0  0  0
   -6.6826   23.4272  -32.0198 H   0  0  0  0  0  0  0  0  0  0  0  0
   -9.0444   23.7131  -31.3465 H   0  0  0  0  0  0  0  0  0  0  0  0
  -10.5149   21.6911  -31.3072 H   0  0  0  0  0  0  0  0  0  0  0  0
   -9.6061   19.4841  -31.9295 H   0  0  0  0  0  0  0  0  0  0  0  0
   -8.2032   17.4869  -31.6320 H   0  0  0  0  0  0  0  0  0  0  0  0
   -8.9281   18.0174  -33.1876 H   0  0  0  0  0  0  0  0  0  0  0  0
   -7.4633   16.9777  -33.1876 H   0  0  0  0  0  0  0  0  0  0  0  0
   -5.9474   16.7419  -33.2818 H   0  0  0  0  0  0  0  0  0  0  0  0
   -3.5452   16.4778  -33.8602 H   0  0  0  0  0  0  0  0  0  0  0  0
   -2.0654   18.4915  -33.8923 H   0  0  0  0  0  0  0  0  0  0  0  0
   -3.0291   20.6959  -33.3637 H   0  0  0  0  0  0  0  0  0  0  0  0
  1  2  1  0
  2  3  1  0
  3  4  1  0
  4  5  1  0
  5  6  1  0
  6  7  1  0
  7  8  1  0
  8  9  2  0
  9 10  1  0
 10 11  1  0
 10 12  2  0
 12 13  1  0
 13 14  2  0
 14 15  1  0
 15 16  1  0
 16 17  1  0
 17 18  1  0
 18 19  1  0
 19 20  1  0
 20 21  1  0
 21 22  1  0
 22 23  1  0
 23 24  1  0
 24 25  2  0
 25 26  1  0
 26 27  2  0
 27 28  1  0
 28 29  2  0
 29 30  1  0
 30 31  1  0
 30 32  2  0
 32 33  1  0
 33 34  2  0
 34 35  1  0
 35 36  2  0
 36 37  1  0
 14  8  1  0
 37 23  2  0
 29 24  1  0
 37 32  1  0
  1 38  1  0
  1 39  1  0
  1 40  1  0
  2 41  1  0
  2 42  1  0
  3 43  1  0
  4 44  1  0
  4 45  1  0
  5 46  1  0
  5 47  1  0
  6 48  1  0
  7 49  1  0
  7 50  1  0
  9 51  1  0
 12 52  1  0
 13 53  1  0
 16 54  1  0
 16 55  1  0
 17 56  1  0
 17 57  1  0
 18 58  1  0
 18 59  1  0
 19 60  1  0
 19 61  1  0
 20 62  1  0
 20 63  1  0
 21 64  1  0
 21 65  1  0
 22 66  1  0
 25 67  1  0
 26 68  1  0
 27 69  1  0
 28 70  1  0
 31 71  1  0
 31 72  1  0
 31 73  1  0
 33 74  1  0
 34 75  1  0
 35 76  1  0
 36 77  1  0
M  CHG  1  30   1
M  END
>  <smiles>  (4) 
CCNCCNCc1cc(Br)ccc1OCCCCCCNc1c2ccccc2[n+](C)c2ccccc12

>  <score_type>  (4) 
oracle

>  <origin>  (4) 
adg

>  <m_score__min__energy>  (4) 
-11.619999999999999

>  <m_primary>  (4) 
energy

$$$$
4:0
     RDKit          3D

 61 64  0  0  0  0  0  0  0  0999 V2000
   -1.0300   22.3530  -29.0110 C   0  0  0  0  0  0  0  0  0  0  0  0
   -1.3930   23.7060  -29.5370 C   0  0  0  0  0  0  0  0  0  0  0  0
   -2.3030   24.3580  -28.5850 N   0  0  0  0  0  0  0  0  0  0  0  0
   -3.7040   23.9760  -28.7370 C   0  0  0  0  0  0  0  0  0  0  0  0
   -4.3660   24.6280  -29.9240 C   0  0  0  0  0  0  0  0  0  0  0  0
   -4.0500   23.9190  -31.1230 N   0  0  0  0  0  0  0  0  0  0  0  0
   -3.9910   22.4940  -30.9960 C   0  0  0  0  0  0  0  0  0  0  0  0
   -3.5100   21.8120  -32.2660 C   0  0  0  0  0  0  0  0  0  0  0  0
   -4.6070   21.6330  -33.2200 N   0  0  0  0  0  0  0  0  0  0  0  0
   -5.7480   20.8710  -32.9050 C   0  0  0  0  0  0  0  0  0  0  0  0
   -5.7300   19.4880  -33.0340 C   0  0  0  0  0  0  0  0  0  0  0  0
   -4.5390   18.9430  -33.4850 C   0  0  0  0  0  0  0  0  0  0  0  0
   -4.4360   17.5790  -33.6470 C   0  0  0  0  0  0  0  0  0  0  0  0
   -5.5240   16.7820  -33.3570 C   0  0  0  0  0  0  0  0  0  0  0  0
   -6.7060   17.3580  -32.9050 C   0  0  0  0  0  0  0  0  0  0  0  0
   -6.8390   18.7270  -32.7310 C   0  0  0  0  0  0  0  0  0  0  0  0
   -8.0050   19.2800  -32.2940 N   0  0  0  0  0  0  0  0  0  0  0  0
   -9.1060   18.4300  -31.9860 C   0  0  0  0  0  0  0  0  0  0  0  0
   -8.0090   20.6200  -32.1750 C   0  0  0  0  0  0  0  0  0  0  0  0
   -9.1560   21.2540  -31.7480 C   0  0  0  0  0  0  0  0  0  0  0  0
   -9.1940   22.6460  -31.6210 C   0  0  0  0  0  0  0  0  0  0  0  0
   -8.1040   23.4370  -31.9130 C   0  0  0  0  0  0  0  0  0  0  0  0
   -6.9560   22.8030  -32.3410 C   0  0  0  0  0  0  0  0  0  0  0  0
   -6.9290   21.4220  -32.4630 C   0  0  0  0  0  0  0  0  0  0  0  0
   -1.8580   25.2890  -27.6100 C   0  0  0  0  0  0  0  0  0  0  0  0
   -0.8790   26.2450  -27.8740 C   0  0  0  0  0  0  0  0  0  0  0  0
   -0.4390   27.1380  -26.9170 C   0  0  0  0  0  0  0  0  0  0  0  0
   -0.9410   27.1420  -25.6420 C   0  0  0  0  0  0  0  0  0  0  0  0
   -1.9150   26.2030  -25.3570 C   0  0  0  0  0  0  0  0  0  0  0  0
   -2.3630   25.2940  -26.3240 C   0  0  0  0  0  0  0  0  0  0  0  0
   -1.0355   22.3736  -27.9112 H   0  0  0  0  0  0  0  0  0  0  0  0
   -1.7613   21.6127  -29.3676 H   0  0  0  0  0  0  0  0  0  0  0  0
   -0.0263   22.0781  -29.3676 H   0  0  0  0  0  0  0  0  0  0  0  0
   -0.4832   24.3133  -29.6534 H   0  0  0  0  0  0  0  0  0  0  0  0
   -1.8861   23.6058  -30.5152 H   0  0  0  0  0  0  0  0  0  0  0  0
   -3.7584   22.8844  -28.8610 H   0  0  0  0  0  0  0  0  0  0  0  0
   -4.2371   24.3136  -27.8360 H   0  0  0  0  0  0  0  0  0  0  0  0
   -5.4562   24.6248  -29.7778 H   0  0  0  0  0  0  0  0  0  0  0  0
   -3.9993   25.6612  -30.0137 H   0  0  0  0  0  0  0  0  0  0  0  0
   -4.6070   24.2450  -31.9300 H   0  0  0  0  0  0  0  0  0  0  0  0
   -3.3004   22.2418  -30.1778 H   0  0  0  0  0  0  0  0  0  0  0  0
   -5.0109   22.1358  -30.7921 H   0  0  0  0  0  0  0  0  0  0  0  0
   -2.7277   22.4301  -32.7308 H   0  0  0  0  0  0  0  0  0  0  0  0
   -3.1146   20.8205  -32.0002 H   0  0  0  0  0  0  0  0  0  0  0  0
   -4.5540   22.0760  -34.1550 H   0  0  0  0  0  0  0  0  0  0  0  0
   -3.6822   19.5944  -33.7120 H   0  0  0  0  0  0  0  0  0  0  0  0
   -3.4970   17.1304  -34.0035 H   0  0  0  0  0  0  0  0  0  0  0  0
   -5.4565   15.6914  -33.4833 H   0  0  0  0  0  0  0  0  0  0  0  0
   -7.5630   16.7067  -32.6782 H   0  0  0  0  0  0  0  0  0  0  0  0
   -9.2119   18.3482  -30.8942 H   0  0  0  0  0  0  0  0  0  0  0  0
  -10.0270   18.8536  -32.4130 H   0  0  0  0  0  0  0  0  0  0  0  0
   -8.9293   17.4318  -32.4130 H   0  0  0  0  0  0  0  0  0  0  0  0
  -10.0492   20.6598  -31.5050 H   0  0  0  0  0  0  0  0  0  0  0  0
  -10.1229   23.1246  -31.2773 H   0  0  0  0  0  0  0  0  0  0  0  0
   -8.1476   24.5312  -31.8089 H   0  0  0  0  0  0  0  0  0  0  0  0
   -6.0609   23.3937  -32.5858 H   0  0  0  0  0  0  0  0  0  0  0  0
   -0.4406   26.2899  -28.8819 H   0  0  0  0  0  0  0  0  0  0  0  0
    0.3382   27.8684  -27.1864 H   0  0  0  0  0  0  0  0  0  0  0  0
   -0.5871   27.8560  -24.8838 H   0  0  0  0  0  0  0  0  0  0  0  0
   -2.3485   26.1690  -24.3466 H   0  0  0  0  0  0  0  0  0  0  0  0
   -3.1389   24.5634  -26.0518 H   0  0  0  0  0  0  0  0  0  0  0  0
  1  2  1  0
  2  3  1  0
  3  4  1  0
  4  5  1  0
  5  6  1  0
  6  7  1  0
  7  8  1  0
  8  9  1  0
  9 10  1  0
 10 11  1  0
 11 12  2  0
 12 13  1  0
 13 14  2  0
 14 15  1  0
 15 16  2  0
 16 17  1  0
 17 18  1  0
 17 19  2  0
 19 20  1  0
 20 21  2  0
 21 22  1  0
 22 23  2  0
 23 24  1  0
  3 25  1  0
 25 26  2  0
 26 27  1  0
 27 28  2  0
 28 29  1  0
 29 30  2  0
 24 10  2  0
 30 25  1  0
 16 11  1  0
 24 19  1  0
  1 31  1  0
  1 32  1  0
  1 33  1  0
  2 34  1  0
  2 35  1  0
  4 36  1  0
  4 37  1  0
  5 38  1  0
  5 39  1  0
  6 40  1  0
  7 41  1  0
  7 42  1  0
  8 43  1  0
  8 44  1  0
  9 45  1  0
 12 46  1  0
 13 47  1  0
 14 48  1  0
 15 49  1  0
 18 50  1  0
 18 51  1  0
 18 52  1  0
 20 53  1  0
 21 54  1  0
 22 55  1  0
 23 56  1  0
 26 57  1  0
 27 58  1  0
 28 59  1  0
 29 60  1  0
 30 61  1  0
M  CHG  1  17   1
M  END
>  <smiles>  (5) 
CCN(CCNCCNc1c2ccccc2[n+](C)c2ccccc12)c1ccccc1

>  <score_type>  (5) 
oracle

>  <origin>  (5) 
adg

>  <m_score__min__energy>  (5) 
-9.8900000000000006

>  <m_primary>  (5) 
energy

$$$$
5:0
     RDKit          3D

 41 44  0  0  1  0  0  0  0  0999 V2000
   -6.0760   18.4040  -34.3460 C   0  0  0  0  0  0  0  0  0  0  0  0
   -6.0220   19.6230  -33.5600 N   0  0  0  0  0  0  0  0  0  0  0  0
   -4.9180   20.3750  -33.2720 C   0  0  0  0  0  0  0  0  0  0  0  0
   -3.7590   20.1110  -33.6550 O   0  0  0  0  0  0  0  0  0  0  0  0
   -5.2790   21.4320  -32.5170 N   0  0  0  0  0  0  0  0  0  0  0  0
   -6.5970   21.3200  -32.3490 C   0  0  0  0  0  0  0  0  0  0  0  0
   -7.3730   22.2010  -31.6320 C   0  0  0  0  0  0  0  0  0  0  0  0
   -8.7290   21.9640  -31.5390 C   0  0  0  0  0  0  0  0  0  0  0  0
   -9.2590   20.8380  -32.1770 C   0  0  0  0  0  0  0  0  0  0  0  0
   -8.4390   19.9680  -32.8930 C   0  0  0  0  0  0  0  0  0  0  0  0
   -7.0850   20.2120  -32.9830 C   0  0  0  0  0  0  0  0  0  0  0  0
   -6.7080   23.3750  -30.9920 C   0  0  0  0  0  0  0  0  0  0  0  0
   -5.4550   23.7060  -31.7260 C   0  0  1  0  0  0  0  0  0  0  0  0
   -4.7660   24.8430  -31.2050 N   0  0  0  0  0  0  0  0  0  0  0  0
   -5.3380   25.3470  -30.0020 C   0  0  0  0  0  0  0  0  0  0  0  0
   -4.9570   24.5510  -28.7790 C   0  0  0  0  0  0  0  0  0  0  0  0
   -3.6090   23.9410  -28.9100 C   0  0  0  0  0  0  0  0  0  0  0  0
   -3.2500   22.6470  -29.0170 C   0  0  0  0  0  0  0  0  0  0  0  0
   -1.9590   22.3250  -29.1270 C   0  0  0  0  0  0  0  0  0  0  0  0
   -1.0510   23.3520  -29.1240 C   0  0  0  0  0  0  0  0  0  0  0  0
   -2.0800   24.8900  -28.9550 S   0  0  0  0  0  0  0  0  0  0  0  0
   -4.5270   22.5250  -31.9370 C   0  0  0  0  0  0  0  0  0  0  0  0
   -6.1145   17.5350  -33.6727 H   0  0  0  0  0  0  0  0  0  0  0  0
   -6.9745   18.4163  -34.9805 H   0  0  0  0  0  0  0  0  0  0  0  0
   -5.1799   18.3368  -34.9805 H   0  0  0  0  0  0  0  0  0  0  0  0
   -9.3804   22.6472  -30.9742 H   0  0  0  0  0  0  0  0  0  0  0  0
  -10.3384   20.6362  -32.1127 H   0  0  0  0  0  0  0  0  0  0  0  0
   -8.8724   19.0858  -33.3868 H   0  0  0  0  0  0  0  0  0  0  0  0
   -7.3872   24.2398  -31.0201 H   0  0  0  0  0  0  0  0  0  0  0  0
   -6.4638   23.1299  -29.9478 H   0  0  0  0  0  0  0  0  0  0  0  0
   -5.8079   23.9913  -32.7280 H   0  0  0  0  0  0  0  0  0  0  0  0
   -4.6240   25.6060  -31.8940 H   0  0  0  0  0  0  0  0  0  0  0  0
   -4.9993   26.3842  -29.8626 H   0  0  0  0  0  0  0  0  0  0  0  0
   -6.4307   25.2774  -30.1076 H   0  0  0  0  0  0  0  0  0  0  0  0
   -4.9612   25.2189  -27.9050 H   0  0  0  0  0  0  0  0  0  0  0  0
   -5.6881   23.7376  -28.6616 H   0  0  0  0  0  0  0  0  0  0  0  0
   -4.0174   21.8589  -29.0138 H   0  0  0  0  0  0  0  0  0  0  0  0
   -1.6367   21.2771  -29.2165 H   0  0  0  0  0  0  0  0  0  0  0  0
    0.0438   23.2813  -29.2039 H   0  0  0  0  0  0  0  0  0  0  0  0
   -3.7118   22.8134  -32.6169 H   0  0  0  0  0  0  0  0  0  0  0  0
   -4.0995   22.2116  -30.9732 H   0  0  0  0  0  0  0  0  0  0  0  0
  1  2  1  0
  2  3  1  0
  3  4  2  0
  3  5  1  0
  5  6  1  0
  6  7  2  0
  7  8  1  0
  8  9  2  0
  9 10  1  0
 10 11  2  0
  7 12  1  0
 12 13  1  0
 13 14  1  0
 14 15  1  0
 15 16  1  0
 16 17  1  0
 17 18  2  0
 18 19  1  0
 19 20  2  0
 20 21  1  0
 13 22  1  0
 11  2  1  0
 21 17  1  0
 22  5  1  0
 11  6  1  0
  1 23  1  0
  1 24  1  0
  1 25  1  0
  8 26  1  0
  9 27  1  0
 10 28  1  0
 12 29  1  0
 12 30  1  0
 13 31  1  6
 14 32  1  0
 15 33  1  0
 15 34  1  0
 16 35  1  0
 16 36  1  0
 18 37  1  0
 19 38  1  0
 20 39  1  0
 22 40  1  0
 22 41  1  0
M  END
>  <smiles>  (6) 
Cn1c(=O)n2c3c(cccc31)CC(NCCc1cccs1)C2

>  <score_type>  (6) 
oracle

>  <origin>  (6) 
adg

>  <m_score__min__energy>  (6) 
-8.9299999999999997

>  <m_primary>  (6) 
energy

$$$$
6:0
     RDKit          3D

 52 54  0  0  0  0  0  0  0  0999 V2000
   -3.9700   22.6600  -29.3840 C   0  0  0  0  0  0  0  0  0  0  0  0
   -3.5300   23.6950  -30.3790 C   0  0  0  0  0  0  0  0  0  0  0  0
   -4.6880   24.0950  -31.1930 N   0  0  0  0  0  0  0  0  0  0  0  0
   -5.4030   25.1470  -30.4610 C   0  0  0  0  0  0  0  0  0  0  0  0
   -6.8620   24.7050  -30.2140 C   0  0  0  0  0  0  0  0  0  0  0  0
   -6.9560   23.3650  -30.0310 O   0  0  0  0  0  0  0  0  0  0  0  0
   -7.9790   22.6670  -30.5770 C   0  0  0  0  0  0  0  0  0  0  0  0
   -7.6460   21.5390  -31.4660 C   0  0  0  0  0  0  0  0  0  0  0  0
   -8.5350   20.5730  -31.8700 C   0  0  0  0  0  0  0  0  0  0  0  0
   -8.1610   19.5110  -32.6940 C   0  0  0  0  0  0  0  0  0  0  0  0
   -6.8200   19.4770  -33.0950 C   0  0  0  0  0  0  0  0  0  0  0  0
   -5.9360   20.4480  -32.6870 C   0  0  0  0  0  0  0  0  0  0  0  0
   -4.5370   20.4240  -33.0980 C   0  0  0  0  0  0  0  0  0  0  0  0
   -3.9320   19.3570  -33.7070 C   0  0  0  0  0  0  0  0  0  0  0  0
   -2.5940   19.3630  -34.0900 C   0  0  0  0  0  0  0  0  0  0  0  0
   -1.8080   20.4780  -33.8610 C   0  0  0  0  0  0  0  0  0  0  0  0
   -0.4380   20.5260  -34.2370 N   0  0  0  0  0  0  0  0  0  0  0  0
   -0.0260   21.0510  -35.5230 C   0  0  0  0  0  0  0  0  0  0  0  0
    1.3870   21.6090  -35.3000 C   0  0  0  0  0  0  0  0  0  0  0  0
    2.1690   20.4940  -35.0610 O   0  0  0  0  0  0  0  0  0  0  0  0
    1.9390   19.9630  -33.8190 C   0  0  0  0  0  0  0  0  0  0  0  0
    0.5480   20.0390  -33.3070 C   0  0  0  0  0  0  0  0  0  0  0  0
   -2.4180   21.5480  -33.2490 C   0  0  0  0  0  0  0  0  0  0  0  0
   -3.7390   21.5430  -32.8710 C   0  0  0  0  0  0  0  0  0  0  0  0
   -6.3760   21.4380  -31.8930 N   0  0  0  0  0  0  0  0  0  0  0  0
   -3.8086   23.0397  -28.3643 H   0  0  0  0  0  0  0  0  0  0  0  0
   -5.0384   22.4424  -29.5294 H   0  0  0  0  0  0  0  0  0  0  0  0
   -3.3853   21.7397  -29.5294 H   0  0  0  0  0  0  0  0  0  0  0  0
   -3.1312   24.5719  -29.8479 H   0  0  0  0  0  0  0  0  0  0  0  0
   -2.7444   23.2792  -31.0270 H   0  0  0  0  0  0  0  0  0  0  0  0
   -5.3040   23.2720  -31.3220 H   0  0  0  0  0  0  0  0  0  0  0  0
   -4.9057   25.3244  -29.4960 H   0  0  0  0  0  0  0  0  0  0  0  0
   -5.3970   26.0736  -31.0537 H   0  0  0  0  0  0  0  0  0  0  0  0
   -7.2418   25.2149  -29.3163 H   0  0  0  0  0  0  0  0  0  0  0  0
   -7.4560   24.9725  -31.1004 H   0  0  0  0  0  0  0  0  0  0  0  0
   -8.5806   22.2649  -29.7485 H   0  0  0  0  0  0  0  0  0  0  0  0
   -8.4907   23.3907  -31.2285 H   0  0  0  0  0  0  0  0  0  0  0  0
   -9.5796   20.6391  -31.5317 H   0  0  0  0  0  0  0  0  0  0  0  0
   -8.8807   18.7421  -33.0114 H   0  0  0  0  0  0  0  0  0  0  0  0
   -6.4688   18.6623  -33.7454 H   0  0  0  0  0  0  0  0  0  0  0  0
   -4.5303   18.4548  -33.9022 H   0  0  0  0  0  0  0  0  0  0  0  0
   -2.1597   18.4774  -34.5769 H   0  0  0  0  0  0  0  0  0  0  0  0
   -0.0095   20.2513  -36.2781 H   0  0  0  0  0  0  0  0  0  0  0  0
   -0.7179   21.8228  -35.8912 H   0  0  0  0  0  0  0  0  0  0  0  0
    1.7382   22.1452  -36.1939 H   0  0  0  0  0  0  0  0  0  0  0  0
    1.4244   22.3302  -34.4702 H   0  0  0  0  0  0  0  0  0  0  0  0
    2.2238   18.9010  -33.8529 H   0  0  0  0  0  0  0  0  0  0  0  0
    2.5346   20.5775  -33.1279 H   0  0  0  0  0  0  0  0  0  0  0  0
    0.2475   19.0276  -32.9958 H   0  0  0  0  0  0  0  0  0  0  0  0
    0.5718   20.7718  -32.4870 H   0  0  0  0  0  0  0  0  0  0  0  0
   -1.8202   22.4503  -33.0529 H   0  0  0  0  0  0  0  0  0  0  0  0
   -4.1702   22.4305  -32.3848 H   0  0  0  0  0  0  0  0  0  0  0  0
  1  2  1  0
  2  3  1  0
  3  4  1  0
  4  5  1  0
  5  6  1  0
  6  7  1  0
  7  8  1  0
  8  9  2  0
  9 10  1  0
 10 11  2  0
 11 12  1  0
 12 13  1  0
 13 14  2  0
 14 15  1  0
 15 16  2  0
 16 17  1  0
 17 18  1  0
 18 19  1  0
 19 20  1  0
 20 21  1  0
 21 22  1  0
 16 23  1  0
 23 24  2  0
 12 25  2  0
 25  8  1  0
 24 13  1  0
 22 17  1  0
  1 26  1  0
  1 27  1  0
  1 28  1  0
  2 29  1  0
  2 30  1  0
  3 31  1  0
  4 32  1  0
  4 33  1  0
  5 34  1  0
  5 35  1  0
  7 36  1  0
  7 37  1  0
  9 38  1  0
 10 39  1  0
 11 40  1  0
 14 41  1  0
 15 42  1  0
 18 43  1  0
 18 44  1  0
 19 45  1  0
 19 46  1  0
 21 47  1  0
 21 48  1  0
 22 49  1  0
 22 50  1  0
 23 51  1  0
 24 52  1  0
M  END
>  <smiles>  (7) 
CCNCCOCc1cccc(-c2ccc(N3CCOCC3)cc2)n1

>  <score_type>  (7) 
oracle

>  <origin>  (7) 
adg

>  <m_score__min__energy>  (7) 
-8.4600000000000009

>  <m_primary>  (7) 
energy

$$$$
7:0
     RDKit          3D

 60 62  0  0  0  0  0  0  0  0999 V2000
   -2.5610   25.3370  -26.1110 C   0  0  0  0  0  0  0  0  0  0  0  0
   -3.9850   24.9590  -26.3250 C   0  0  0  0  0  0  0  0  0  0  0  0
   -4.2110   24.2710  -27.5710 N   0  0  0  0  0  0  0  0  0  0  0  0
   -3.2650   23.2250  -27.8560 C   0  0  0  0  0  0  0  0  0  0  0  0
   -3.4100   22.6710  -29.2670 C   0  0  0  0  0  0  0  0  0  0  0  0
   -3.0990   23.7480  -30.3090 C   0  0  0  0  0  0  0  0  0  0  0  0
   -4.1550   24.5980  -30.4910 O   0  0  0  0  0  0  0  0  0  0  0  0
   -5.4160   24.0610  -30.2730 C   0  0  0  0  0  0  0  0  0  0  0  0
   -6.3070   24.2820  -31.4390 C   0  0  0  0  0  0  0  0  0  0  0  0
   -6.1720   23.3850  -32.5430 N   0  0  0  0  0  0  0  0  0  0  0  0
   -6.0680   21.9680  -32.4360 C   0  0  0  0  0  0  0  0  0  0  0  0
   -7.1970   21.2240  -32.0580 C   0  0  0  0  0  0  0  0  0  0  0  0
   -7.1130   19.8370  -31.9540 C   0  0  0  0  0  0  0  0  0  0  0  0
   -5.9690   19.1660  -32.2070 N   0  0  0  0  0  0  0  0  0  0  0  0
   -5.8960   17.7320  -32.0760 C   0  0  0  0  0  0  0  0  0  0  0  0
   -6.3360   17.1070  -33.3550 C   0  0  0  0  0  0  0  0  0  0  0  0
   -4.8590   19.8700  -32.5780 C   0  0  0  0  0  0  0  0  0  0  0  0
   -3.6650   19.2580  -32.8670 C   0  0  0  0  0  0  0  0  0  0  0  0
   -2.5280   19.9400  -33.2590 C   0  0  0  0  0  0  0  0  0  0  0  0
   -2.5790   21.2990  -33.3720 C   0  0  0  0  0  0  0  0  0  0  0  0
   -3.7710   21.9240  -33.0850 C   0  0  0  0  0  0  0  0  0  0  0  0
   -4.9120   21.2660  -32.6920 C   0  0  0  0  0  0  0  0  0  0  0  0
   -8.3790   19.1470  -31.5630 C   0  0  0  0  0  0  0  0  0  0  0  0
   -9.4910   19.8290  -32.3720 C   0  0  0  0  0  0  0  0  0  0  0  0
   -9.7020   21.2500  -31.9900 C   0  0  0  0  0  0  0  0  0  0  0  0
   -8.4210   21.9800  -31.7800 C   0  0  0  0  0  0  0  0  0  0  0  0
   -2.3544   25.3918  -25.0320 H   0  0  0  0  0  0  0  0  0  0  0  0
   -1.9078   24.5811  -26.5715 H   0  0  0  0  0  0  0  0  0  0  0  0
   -2.3687   26.3173  -26.5715 H   0  0  0  0  0  0  0  0  0  0  0  0
   -4.2993   24.3015  -25.5011 H   0  0  0  0  0  0  0  0  0  0  0  0
   -4.5683   25.8911  -26.3570 H   0  0  0  0  0  0  0  0  0  0  0  0
   -4.1510   24.9620  -28.3620 H   0  0  0  0  0  0  0  0  0  0  0  0
   -2.2483   23.6283  -27.7389 H   0  0  0  0  0  0  0  0  0  0  0  0
   -3.4587   22.4009  -27.1536 H   0  0  0  0  0  0  0  0  0  0  0  0
   -2.7124   21.8306  -29.3978 H   0  0  0  0  0  0  0  0  0  0  0  0
   -4.4474   22.3334  -29.4081 H   0  0  0  0  0  0  0  0  0  0  0  0
   -2.2281   24.3291  -29.9716 H   0  0  0  0  0  0  0  0  0  0  0  0
   -2.8932   23.2480  -31.2669 H   0  0  0  0  0  0  0  0  0  0  0  0
   -5.3190   22.9796  -30.0965 H   0  0  0  0  0  0  0  0  0  0  0  0
   -5.8590   24.5607  -29.3989 H   0  0  0  0  0  0  0  0  0  0  0  0
   -7.3446   24.2119  -31.0806 H   0  0  0  0  0  0  0  0  0  0  0  0
   -6.0162   25.2659  -31.8357 H   0  0  0  0  0  0  0  0  0  0  0  0
   -6.1400   23.7510  -33.5430 H   0  0  0  0  0  0  0  0  0  0  0  0
   -4.8603   17.4336  -31.8564 H   0  0  0  0  0  0  0  0  0  0  0  0
   -6.5482   17.3993  -31.2551 H   0  0  0  0  0  0  0  0  0  0  0  0
   -6.9567   16.2253  -33.1377 H   0  0  0  0  0  0  0  0  0  0  0  0
   -6.9225   17.8342  -33.9358 H   0  0  0  0  0  0  0  0  0  0  0  0
   -5.4536   16.8001  -33.9358 H   0  0  0  0  0  0  0  0  0  0  0  0
   -3.6095   18.1627  -32.7819 H   0  0  0  0  0  0  0  0  0  0  0  0
   -1.5971   19.3958  -33.4763 H   0  0  0  0  0  0  0  0  0  0  0  0
   -1.6957   21.8763  -33.6825 H   0  0  0  0  0  0  0  0  0  0  0  0
   -3.8133   23.0194  -33.1758 H   0  0  0  0  0  0  0  0  0  0  0  0
   -8.3251   18.0768  -31.8117 H   0  0  0  0  0  0  0  0  0  0  0  0
   -8.5625   19.2181  -30.4807 H   0  0  0  0  0  0  0  0  0  0  0  0
   -9.2231   19.7891  -33.4381 H   0  0  0  0  0  0  0  0  0  0  0  0
  -10.4269   19.2904  -32.1622 H   0  0  0  0  0  0  0  0  0  0  0  0
  -10.2662   21.7506  -32.7907 H   0  0  0  0  0  0  0  0  0  0  0  0
  -10.2536   21.2621  -31.0384 H   0  0  0  0  0  0  0  0  0  0  0  0
   -8.4264   22.8640  -32.4346 H   0  0  0  0  0  0  0  0  0  0  0  0
   -8.3866   22.2149  -30.7059 H   0  0  0  0  0  0  0  0  0  0  0  0
  1  2  1  0
  2  3  1  0
  3  4  1  0
  4  5  1  0
  5  6  1  0
  6  7  1  0
  7  8  1  0
  8  9  1  0
  9 10  1  0
 10 11  1  0
 11 12  2  0
 12 13  1  0
 13 14  2  0
 14 15  1  0
 15 16  1  0
 14 17  1  0
 17 18  2  0
 18 19  1  0
 19 20  2  0
 20 21  1  0
 21 22  2  0
 13 23  1  0
 23 24  1  0
 24 25  1  0
 25 26  1  0
 22 11  1  0
 26 12  1  0
 22 17  1  0
  1 27  1  0
  1 28  1  0
  1 29  1  0
  2 30  1  0
  2 31  1  0
  3 32  1  0
  4 33  1  0
  4 34  1  0
  5 35  1  0
  5 36  1  0
  6 37  1  0
  6 38  1  0
  8 39  1  0
  8 40  1  0
  9 41  1  0
  9 42  1  0
 10 43  1  0
 15 44  1  0
 15 45  1  0
 16 46  1  0
 16 47  1  0
 16 48  1  0
 18 49  1  0
 19 50  1  0
 20 51  1  0
 21 52  1  0
 23 53  1  0
 23 54  1  0
 24 55  1  0
 24 56  1  0
 25 57  1  0
 25 58  1  0
 26 59  1  0
 26 60  1  0
M  CHG  1  14   1
M  END
>  <smiles>  (8) 
CCNCCCOCCNc1c2c([n+](CC)c3ccccc13)CCCC2

>  <score_type>  (8) 
oracle

>  <origin>  (8) 
adg

>  <m_score__min__energy>  (8) 
-9.8900000000000006

>  <m_primary>  (8) 
energy

$$$$
8:0
     RDKit          3D

 45 47  0  0  0  0  0  0  0  0999 V2000
   -4.2480   23.0180  -28.3100 C   0  0  0  0  0  0  0  0  0  0  0  0
   -4.2270   23.9800  -29.4730 C   0  0  0  0  0  0  0  0  0  0  0  0
   -4.1490   23.2180  -30.7180 N   0  0  0  0  0  0  0  0  0  0  0  0
   -5.1480   23.1210  -31.6410 C   0  0  0  0  0  0  0  0  0  0  0  0
   -6.4660   23.7950  -31.4900 C   0  0  0  0  0  0  0  0  0  0  0  0
   -7.4150   23.3590  -32.4990 N   0  0  0  0  0  0  0  0  0  0  0  0
   -8.4170   22.4940  -31.9720 C   0  0  0  0  0  0  0  0  0  0  0  0
   -7.9870   21.0600  -31.8460 C   0  0  0  0  0  0  0  0  0  0  0  0
   -9.1150   20.1040  -31.6820 C   0  0  0  0  0  0  0  0  0  0  0  0
   -8.6260   18.6940  -31.7720 C   0  0  0  0  0  0  0  0  0  0  0  0
   -7.1410   18.5340  -31.7870 C   0  0  0  0  0  0  0  0  0  0  0  0
   -6.4210   19.4300  -32.7410 C   0  0  0  0  0  0  0  0  0  0  0  0
   -7.2230   20.6630  -33.0920 C   0  0  0  0  0  0  0  0  0  0  0  0
   -4.7060   22.3380  -32.6450 N   0  0  0  0  0  0  0  0  0  0  0  0
   -3.4540   21.9200  -32.4100 C   0  0  0  0  0  0  0  0  0  0  0  0
   -2.5200   21.1320  -33.0480 C   0  0  0  0  0  0  0  0  0  0  0  0
   -1.2700   20.9030  -32.4910 C   0  0  0  0  0  0  0  0  0  0  0  0
   -0.9300   21.4640  -31.2740 C   0  0  0  0  0  0  0  0  0  0  0  0
   -1.8620   22.2590  -30.6220 C   0  0  0  0  0  0  0  0  0  0  0  0
   -3.1150   22.4860  -31.1850 C   0  0  0  0  0  0  0  0  0  0  0  0
   -4.2357   23.5832  -27.3664 H   0  0  0  0  0  0  0  0  0  0  0  0
   -5.1598   22.4045  -28.3580 H   0  0  0  0  0  0  0  0  0  0  0  0
   -3.3639   22.3653  -28.3580 H   0  0  0  0  0  0  0  0  0  0  0  0
   -5.1454   24.5854  -29.4678 H   0  0  0  0  0  0  0  0  0  0  0  0
   -3.3557   24.6462  -29.3892 H   0  0  0  0  0  0  0  0  0  0  0  0
   -6.8727   23.5622  -30.4948 H   0  0  0  0  0  0  0  0  0  0  0  0
   -6.3117   24.8773  -31.6116 H   0  0  0  0  0  0  0  0  0  0  0  0
   -6.8550   22.9670  -33.2670 H   0  0  0  0  0  0  0  0  0  0  0  0
   -8.6977   22.8592  -30.9731 H   0  0  0  0  0  0  0  0  0  0  0  0
   -9.2562   22.5115  -32.6829 H   0  0  0  0  0  0  0  0  0  0  0  0
   -7.3705   21.0032  -30.9368 H   0  0  0  0  0  0  0  0  0  0  0  0
   -9.5833   20.2624  -30.6994 H   0  0  0  0  0  0  0  0  0  0  0  0
   -9.8471   20.2777  -32.4844 H   0  0  0  0  0  0  0  0  0  0  0  0
   -9.0187   18.1420  -30.9054 H   0  0  0  0  0  0  0  0  0  0  0  0
   -8.9836   18.3087  -32.7383 H   0  0  0  0  0  0  0  0  0  0  0  0
   -6.7649   18.7407  -30.7742 H   0  0  0  0  0  0  0  0  0  0  0  0
   -6.9452   17.5050  -32.1229 H   0  0  0  0  0  0  0  0  0  0  0  0
   -5.4721   19.7447  -32.2822 H   0  0  0  0  0  0  0  0  0  0  0  0
   -6.2522   18.8646  -33.6693 H   0  0  0  0  0  0  0  0  0  0  0  0
   -6.5501   21.4773  -33.3987 H   0  0  0  0  0  0  0  0  0  0  0  0
   -7.9096   20.4616  -33.9275 H   0  0  0  0  0  0  0  0  0  0  0  0
   -2.7705   20.6760  -34.0172 H   0  0  0  0  0  0  0  0  0  0  0  0
   -0.5437   20.2700  -33.0220 H   0  0  0  0  0  0  0  0  0  0  0  0
    0.0605   21.2836  -30.8309 H   0  0  0  0  0  0  0  0  0  0  0  0
   -1.6088   22.7134  -29.6528 H   0  0  0  0  0  0  0  0  0  0  0  0
  1  2  1  0
  2  3  1  0
  3  4  1  0
  4  5  1  0
  5  6  1  0
  6  7  1  0
  7  8  1  0
  8  9  1  0
  9 10  1  0
 10 11  1  0
 11 12  1  0
 12 13  1  0
  4 14  2  0
 14 15  1  0
 15 16  2  0
 16 17  1  0
 17 18  2  0
 18 19  1  0
 19 20  2  0
 20  3  1  0
 13  8  1  0
 20 15  1  0
  1 21  1  0
  1 22  1  0
  1 23  1  0
  2 24  1  0
  2 25  1  0
  5 26  1  0
  5 27  1  0
  6 28  1  0
  7 29  1  0
  7 30  1  0
  8 31  1  0
  9 32  1  0
  9 33  1  0
 10 34  1  0
 10 35  1  0
 11 36  1  0
 11 37  1  0
 12 38  1  0
 12 39  1  0
 13 40  1  0
 13 41  1  0
 16 42  1  0
 17 43  1  0
 18 44  1  0
 19 45  1  0
M  END
>  <smiles>  (9) 
CCn1c(CNCC2CCCCC2)nc2ccccc21

>  <score_type>  (9) 
oracle

>  <origin>  (9) 
adg

>  <m_score__min__energy>  (9) 
-7.7800000000000002

>  <m_primary>  (9) 
energy

$$$$
10:0
     RDKit          3D

 38 40  0  0  0  0  0  0  0  0999 V2000
   -8.6730   18.2810  -31.5900 C   0  0  0  0  0  0  0  0  0  0  0  0
   -7.7760   19.1300  -32.3430 N   0  0  0  0  0  0  0  0  0  0  0  0
   -7.7800   20.4890  -32.3990 C   0  0  0  0  0  0  0  0  0  0  0  0
   -8.8870   21.6010  -31.6060 S   0  0  0  0  0  0  0  0  0  0  0  0
   -8.3550   23.3210  -31.9460 C   0  0  0  0  0  0  0  0  0  0  0  0
   -6.8470   23.4190  -31.7720 C   0  0  0  0  0  0  0  0  0  0  0  0
   -6.5030   23.5030  -30.3580 N   0  0  0  0  0  0  0  0  0  0  0  0
   -6.3790   24.9020  -29.9620 C   0  0  0  0  0  0  0  0  0  0  0  0
   -5.3560   25.6600  -30.7540 C   0  0  0  0  0  0  0  0  0  0  0  0
   -4.1410   25.0480  -30.5450 O   0  0  0  0  0  0  0  0  0  0  0  0
   -4.1080   23.7060  -30.8210 C   0  0  0  0  0  0  0  0  0  0  0  0
   -5.1840   22.8900  -30.1410 C   0  0  0  0  0  0  0  0  0  0  0  0
   -6.7580   20.8220  -33.2200 N   0  0  0  0  0  0  0  0  0  0  0  0
   -6.1640   19.7160  -33.6400 N   0  0  0  0  0  0  0  0  0  0  0  0
   -6.7830   18.6490  -33.1070 C   0  0  0  0  0  0  0  0  0  0  0  0
   -6.4370   17.2650  -33.3430 C   0  0  0  0  0  0  0  0  0  0  0  0
   -6.8450   16.3250  -34.2060 C   0  0  0  0  0  0  0  0  0  0  0  0
   -6.3240   15.0910  -34.1760 C   0  0  0  0  0  0  0  0  0  0  0  0
   -5.3450   14.8610  -33.2030 C   0  0  0  0  0  0  0  0  0  0  0  0
   -5.1890   16.4790  -32.3190 S   0  0  0  0  0  0  0  0  0  0  0  0
   -8.5083   18.4369  -30.5136 H   0  0  0  0  0  0  0  0  0  0  0  0
   -9.7138   18.5325  -31.8419 H   0  0  0  0  0  0  0  0  0  0  0  0
   -8.4790   17.2279  -31.8419 H   0  0  0  0  0  0  0  0  0  0  0  0
   -8.6253   23.5932  -32.9769 H   0  0  0  0  0  0  0  0  0  0  0  0
   -8.8542   24.0084  -31.2472 H   0  0  0  0  0  0  0  0  0  0  0  0
   -6.3731   22.5271  -32.2079 H   0  0  0  0  0  0  0  0  0  0  0  0
   -6.4872   24.3253  -32.2812 H   0  0  0  0  0  0  0  0  0  0  0  0
   -7.3555   25.3899  -30.0974 H   0  0  0  0  0  0  0  0  0  0  0  0
   -6.0487   24.9129  -28.9128 H   0  0  0  0  0  0  0  0  0  0  0  0
   -5.6121   25.6330  -31.8234 H   0  0  0  0  0  0  0  0  0  0  0  0
   -5.3211   26.7132  -30.4383 H   0  0  0  0  0  0  0  0  0  0  0  0
   -4.2175   23.5778  -31.9080 H   0  0  0  0  0  0  0  0  0  0  0  0
   -3.1478   23.3347  -30.4335 H   0  0  0  0  0  0  0  0  0  0  0  0
   -5.1843   21.8716  -30.5567 H   0  0  0  0  0  0  0  0  0  0  0  0
   -4.9785   22.8560  -29.0609 H   0  0  0  0  0  0  0  0  0  0  0  0
   -7.6182   16.5696  -34.9492 H   0  0  0  0  0  0  0  0  0  0  0  0
   -6.6467   14.3052  -34.8748 H   0  0  0  0  0  0  0  0  0  0  0  0
   -4.7933   13.9296  -33.0079 H   0  0  0  0  0  0  0  0  0  0  0  0
  1  2  1  0
  2  3  1  0
  3  4  1  0
  4  5  1  0
  5  6  1  0
  6  7  1  0
  7  8  1  0
  8  9  1  0
  9 10  1  0
 10 11  1  0
 11 12  1  0
  3 13  2  0
 13 14  1  0
 14 15  2  0
 15 16  1  0
 16 17  2  0
 17 18  1  0
 18 19  2  0
 19 20  1  0
 15  2  1  0
 20 16  1  0
 12  7  1  0
  1 21  1  0
  1 22  1  0
  1 23  1  0
  5 24  1  0
  5 25  1  0
  6 26  1  0
  6 27  1  0
  8 28  1  0
  8 29  1  0
  9 30  1  0
  9 31  1  0
 11 32  1  0
 11 33  1  0
 12 34  1  0
 12 35  1  0
 17 36  1  0
 18 37  1  0
 19 38  1  0
M  END
>  <smiles>  (10) 
Cn1c(SCCN2CCOCC2)nnc1-c1cccs1

>  <score_type>  (10) 
oracle

>  <origin>  (10) 
adg

>  <m_score__min__energy>  (10) 
-7.9800000000000004

>  <m_primary>  (10) 
energy

$$$$
11:0
     RDKit          3D

 51 54  0  0  0  0  0  0  0  0999 V2000
   -4.6980   20.2990  -33.3500 C   0  0  0  0  0  0  0  0  0  0  0  0
   -5.4370   21.2570  -32.5510 N   0  0  0  0  0  0  0  0  0  0  0  0
   -4.9520   22.3640  -31.9260 C   0  0  0  0  0  0  0  0  0  0  0  0
   -6.0050   22.9810  -31.2810 C   0  0  0  0  0  0  0  0  0  0  0  0
   -6.0640   24.1940  -30.4650 C   0  0  0  0  0  0  0  0  0  0  0  0
   -5.0380   25.2260  -30.8460 C   0  0  0  0  0  0  0  0  0  0  0  0
   -3.8340   25.1490  -30.0920 N   0  0  0  0  0  0  0  0  0  0  0  0
   -4.0150   24.2500  -28.9840 C   0  0  0  0  0  0  0  0  0  0  0  0
   -3.2030   23.0020  -29.0730 C   0  0  0  0  0  0  0  0  0  0  0  0
   -2.1580   23.1090  -30.1030 N   0  0  0  0  0  0  0  0  0  0  0  0
   -1.6020   21.9260  -30.6480 C   0  0  0  0  0  0  0  0  0  0  0  0
   -1.7110   21.6770  -32.0020 C   0  0  0  0  0  0  0  0  0  0  0  0
   -1.2000   20.5520  -32.6100 C   0  0  0  0  0  0  0  0  0  0  0  0
   -0.5480   19.6270  -31.8280 C   0  0  0  0  0  0  0  0  0  0  0  0
   -0.4280   19.8520  -30.4800 C   0  0  0  0  0  0  0  0  0  0  0  0
    0.2380   18.8930  -29.7400 C   0  0  0  0  0  0  0  0  0  0  0  0
    0.3940   19.0600  -28.3780 C   0  0  0  0  0  0  0  0  0  0  0  0
   -0.1350   20.2090  -27.7970 C   0  0  0  0  0  0  0  0  0  0  0  0
   -0.7960   21.1560  -28.5530 C   0  0  0  0  0  0  0  0  0  0  0  0
   -0.9430   20.9770  -29.8970 C   0  0  0  0  0  0  0  0  0  0  0  0
   -7.1330   22.1940  -31.5480 C   0  0  0  0  0  0  0  0  0  0  0  0
   -8.4700   22.3310  -31.1570 C   0  0  0  0  0  0  0  0  0  0  0  0
   -9.4380   21.4330  -31.5340 C   0  0  0  0  0  0  0  0  0  0  0  0
   -9.0550   20.3560  -32.3320 C   0  0  0  0  0  0  0  0  0  0  0  0
   -7.7370   20.2320  -32.7100 C   0  0  0  0  0  0  0  0  0  0  0  0
   -6.7570   21.1460  -32.3250 C   0  0  0  0  0  0  0  0  0  0  0  0
   -4.1621   19.6042  -32.6866 H   0  0  0  0  0  0  0  0  0  0  0  0
   -5.3968   19.7344  -33.9848 H   0  0  0  0  0  0  0  0  0  0  0  0
   -3.9745   20.8316  -33.9848 H   0  0  0  0  0  0  0  0  0  0  0  0
   -3.9067   22.7064  -31.9334 H   0  0  0  0  0  0  0  0  0  0  0  0
   -7.0635   24.6397  -30.5761 H   0  0  0  0  0  0  0  0  0  0  0  0
   -5.8521   23.8958  -29.4276 H   0  0  0  0  0  0  0  0  0  0  0  0
   -4.7898   25.0914  -31.9092 H   0  0  0  0  0  0  0  0  0  0  0  0
   -5.4828   26.2101  -30.6369 H   0  0  0  0  0  0  0  0  0  0  0  0
   -3.4930   26.0500  -29.7160 H   0  0  0  0  0  0  0  0  0  0  0  0
   -3.7354   24.7789  -28.0609 H   0  0  0  0  0  0  0  0  0  0  0  0
   -5.0711   23.9425  -28.9945 H   0  0  0  0  0  0  0  0  0  0  0  0
   -2.7268   22.8156  -28.0991 H   0  0  0  0  0  0  0  0  0  0  0  0
   -3.8732   22.1739  -29.3471 H   0  0  0  0  0  0  0  0  0  0  0  0
   -1.8920   24.0760  -30.3650 H   0  0  0  0  0  0  0  0  0  0  0  0
   -2.2333   22.4159  -32.6275 H   0  0  0  0  0  0  0  0  0  0  0  0
   -1.3104   20.3970  -33.6934 H   0  0  0  0  0  0  0  0  0  0  0  0
   -0.1271   18.7162  -32.2789 H   0  0  0  0  0  0  0  0  0  0  0  0
    0.6431   17.9982  -30.2352 H   0  0  0  0  0  0  0  0  0  0  0  0
    0.9200   18.3083  -27.7711 H   0  0  0  0  0  0  0  0  0  0  0  0
   -0.0241   20.3654  -26.7138 H   0  0  0  0  0  0  0  0  0  0  0  0
   -1.2047   22.0562  -28.0708 H   0  0  0  0  0  0  0  0  0  0  0  0
   -8.7547   23.1864  -30.5268 H   0  0  0  0  0  0  0  0  0  0  0  0
  -10.4834   21.5596  -31.2161 H   0  0  0  0  0  0  0  0  0  0  0  0
   -9.7983   19.6128  -32.6563 H   0  0  0  0  0  0  0  0  0  0  0  0
   -7.4458   19.3787  -33.3402 H   0  0  0  0  0  0  0  0  0  0  0  0
  1  2  1  0
  2  3  1  0
  3  4  2  0
  4  5  1  0
  5  6  1  0
  6  7  1  0
  7  8  1  0
  8  9  1  0
  9 10  1  0
 10 11  1  0
 11 12  2  0
 12 13  1  0
 13 14  2  0
 14 15  1  0
 15 16  2  0
 16 17  1  0
 17 18  2  0
 18 19  1  0
 19 20  2  0
  4 21  1  0
 21 22  2  0
 22 23  1  0
 23 24  2  0
 24 25  1  0
 25 26  2  0
 26  2  1  0
 20 11  1  0
 26 21  1  0
 20 15  1  0
  1 27  1  0
  1 28  1  0
  1 29  1  0
  3 30  1  0
  5 31  1  0
  5 32  1  0
  6 33  1  0
  6 34  1  0
  7 35  1  0
  8 36  1  0
  8 37  1  0
  9 38  1  0
  9 39  1  0
 10 40  1  0
 12 41  1  0
 13 42  1  0
 14 43  1  0
 16 44  1  0
 17 45  1  0
 18 46  1  0
 19 47  1  0
 22 48  1  0
 23 49  1  0
 24 50  1  0
 25 51  1  0
M  END
>  <smiles>  (11) 
Cn1cc(CCNCCNc2cccc3ccccc23)c2ccccc21

>  <score_type>  (11) 
oracle

>  <origin>  (11) 
adg

>  <m_score__min__energy>  (11) 
-9.5500000000000007

>  <m_primary>  (11) 
energy

$$$$
