0:0
     RDKit          3D

 33 34  0  0  0  0  0  0  0  0999 V2000
   -9.1160   19.9780  -32.3200 C   0  0  0  0  0  0  0  0  0  0  0  0
   -8.2960   18.7250  -32.0180 C   0  0  0  0  0  0  0  0  0  0  0  0
   -6.7900   18.9580  -32.1850 C   0  0  0  0  0  0  0  0  0  0  0  0
   -6.4070   20.0790  -33.5820 S   0  0  0  0  0  0  0  0  0  0  0  0
   -5.8180   21.4270  -32.5520 C   0  0  0  0  0  0  0  0  0  0  0  0
   -6.6930   22.0880  -31.7470 N   0  0  0  0  0  0  0  0  0  0  0  0
   -6.2810   23.1080  -30.9520 C   0  0  0  0  0  0  0  0  0  0  0  0
   -7.1780   23.7900  -30.1320 C   0  0  0  0  0  0  0  0  0  0  0  0
   -6.7250   24.8070  -29.3490 N   0  0  0  0  0  0  0  0  0  0  0  0
   -5.4380   25.1660  -29.3510 N   0  0  0  0  0  0  0  0  0  0  0  0
   -4.5160   24.5350  -30.1320 C   0  0  0  0  0  0  0  0  0  0  0  0
   -3.1730   24.9270  -30.1180 O   0  0  0  0  0  0  0  0  0  0  0  0
   -2.1880   24.2650  -29.3350 C   0  0  0  0  0  0  0  0  0  0  0  0
   -4.9310   23.4840  -30.9530 C   0  0  0  0  0  0  0  0  0  0  0  0
   -4.0540   22.8200  -31.7500 N   0  0  0  0  0  0  0  0  0  0  0  0
   -4.4640   21.7960  -32.5510 C   0  0  0  0  0  0  0  0  0  0  0  0
   -3.5510   21.1190  -33.3670 O   0  0  0  0  0  0  0  0  0  0  0  0
   -2.9390   19.8940  -32.9840 C   0  0  0  0  0  0  0  0  0  0  0  0
   -9.4251   20.4503  -31.3759 H   0  0  0  0  0  0  0  0  0  0  0  0
   -8.5052   20.6848  -32.9008 H   0  0  0  0  0  0  0  0  0  0  0  0
  -10.0082   19.7012  -32.9008 H   0  0  0  0  0  0  0  0  0  0  0  0
   -8.4927   18.4155  -30.9809 H   0  0  0  0  0  0  0  0  0  0  0  0
   -8.5965   17.9466  -32.7348 H   0  0  0  0  0  0  0  0  0  0  0  0
   -6.3963   19.4012  -31.2584 H   0  0  0  0  0  0  0  0  0  0  0  0
   -6.3219   17.9855  -32.3975 H   0  0  0  0  0  0  0  0  0  0  0  0
   -8.2415   23.5092  -30.1177 H   0  0  0  0  0  0  0  0  0  0  0  0
   -7.3950   25.3200  -28.7360 H   0  0  0  0  0  0  0  0  0  0  0  0
   -2.4080   24.4129  -28.2674 H   0  0  0  0  0  0  0  0  0  0  0  0
   -2.1980   23.1896  -29.5659 H   0  0  0  0  0  0  0  0  0  0  0  0
   -1.1960   24.6804  -29.5659 H   0  0  0  0  0  0  0  0  0  0  0  0
   -2.9060   19.8280  -31.8865 H   0  0  0  0  0  0  0  0  0  0  0  0
   -3.5222   19.0518  -33.3846 H   0  0  0  0  0  0  0  0  0  0  0  0
   -1.9153   19.8546  -33.3846 H   0  0  0  0  0  0  0  0  0  0  0  0
  1  2  1  0
  2  3  1  0
  3  4  1  0
  4  5  1  0
  5  6  2  0
  6  7  1  0
  7  8  2  0
  8  9  1  0
  9 10  2  0
 10 11  1  0
 11 12  1  0
 12 13  1  0
 11 14  2  0
 14 15  1  0
 15 16  2  0
 16 17  1  0
 17 18  1  0
 16  5  1  0
 14  7  1  0
  1 19  1  0
  1 20  1  0
  1 21  1  0
  2 22  1  0
  2 23  1  0
  3 24  1  0
  3 25  1  0
  8 26  1  0
  9 27  1  0
 13 28  1  0
 13 29  1  0
 13 30  1  0
 18 31  1  0
 18 32  1  0
 18 33  1  0
M  CHG  1   9   1
M  END
>  <UniqueID>  (1) 
1

>  <SMILES>  (1) 
CCCSc1nc2c[nH+]nc(OC)c2nc1OC

>  <Energy>  (1) 
25.4329921965897

>  <Genealogy>  (1) 
CCCSc1nc2c[nH+]nc(OC)c2nc1OC (protonated)
CCCSc1nc2c[nH+]nc(OC)c2nc1OC (3D coordinates assigned)
CCCSc1nc2c[nH+]nc(OC)c2nc1OC (optimized conformer: 25.4329921965897 kcal/mol)

>  <smiles>  (1) 
CCCSc1nc2cnnc(OC)c2nc1OC

>  <score_type>  (1) 
oracle

>  <origin>  (1) 
adg

>  <m_score__min__energy>  (1) 
-5.8499999999999996

>  <m_primary>  (1) 
energy

$$$$
1:0
     RDKit          3D

 47 49  0  0  0  0  0  0  0  0999 V2000
  -10.0759   20.9113  -31.0328 H   0  0  0  0  0  0  0  0  0  0  0  0
   -9.1610   20.9760  -31.6400 C   0  0  0  0  0  0  0  0  0  0  0  0
   -8.9690   20.0560  -32.5930 C   0  0  0  0  0  0  0  0  0  0  0  0
   -9.2906   20.2753  -33.6218 H   0  0  0  0  0  0  0  0  0  0  0  0
   -8.3230   18.7260  -32.2930 C   0  0  0  0  0  0  0  0  0  0  0  0
   -8.7696   17.9635  -32.9481 H   0  0  0  0  0  0  0  0  0  0  0  0
   -8.4987   18.5067  -31.2295 H   0  0  0  0  0  0  0  0  0  0  0  0
   -6.8590   18.7340  -32.5080 N   0  0  0  0  0  0  0  0  0  0  0  0
   -6.0880   19.3220  -31.3860 C   0  0  0  0  0  0  0  0  0  0  0  0
   -5.2397   18.6614  -31.1536 H   0  0  0  0  0  0  0  0  0  0  0  0
   -6.7646   19.4201  -30.5242 H   0  0  0  0  0  0  0  0  0  0  0  0
   -5.5480   20.7220  -31.7270 C   0  0  0  0  0  0  0  0  0  0  0  0
   -4.9555   21.0873  -30.8752 H   0  0  0  0  0  0  0  0  0  0  0  0
   -6.4131   21.3704  -31.9301 H   0  0  0  0  0  0  0  0  0  0  0  0
   -4.6860   20.7280  -32.9450 N   0  0  0  0  0  0  0  0  0  0  0  0
   -4.8880   21.6150  -33.4670 H   0  0  0  0  0  0  0  0  0  0  0  0
   -3.2410   20.7130  -32.6020 C   0  0  0  0  0  0  0  0  0  0  0  0
   -2.6750   21.1624  -33.4313 H   0  0  0  0  0  0  0  0  0  0  0  0
   -2.9434   19.6671  -32.4358 H   0  0  0  0  0  0  0  0  0  0  0  0
   -2.9480   21.4870  -31.3360 C   0  0  0  0  0  0  0  0  0  0  0  0
   -2.4170   20.8300  -30.2130 C   0  0  0  0  0  0  0  0  0  0  0  0
   -2.2190   19.7488  -30.2547 H   0  0  0  0  0  0  0  0  0  0  0  0
   -2.1390   21.5430  -29.0430 C   0  0  0  0  0  0  0  0  0  0  0  0
   -1.7214   21.0224  -28.1686 H   0  0  0  0  0  0  0  0  0  0  0  0
   -2.3910   22.9160  -28.9830 C   0  0  0  0  0  0  0  0  0  0  0  0
   -2.1710   23.4760  -28.0621 H   0  0  0  0  0  0  0  0  0  0  0  0
   -2.9230   23.5780  -30.0940 C   0  0  0  0  0  0  0  0  0  0  0  0
   -3.1670   24.9110  -30.0340 F   0  0  0  0  0  0  0  0  0  0  0  0
   -3.2030   22.8680  -31.2660 C   0  0  0  0  0  0  0  0  0  0  0  0
   -3.6244   23.3921  -32.1365 H   0  0  0  0  0  0  0  0  0  0  0  0
   -4.9910   19.6110  -33.8780 C   0  0  0  0  0  0  0  0  0  0  0  0
   -4.3965   18.7317  -33.5891 H   0  0  0  0  0  0  0  0  0  0  0  0
   -4.7399   19.9358  -34.8985 H   0  0  0  0  0  0  0  0  0  0  0  0
   -6.4770   19.2400  -33.8440 C   0  0  0  0  0  0  0  0  0  0  0  0
   -6.6717   18.4600  -34.5948 H   0  0  0  0  0  0  0  0  0  0  0  0
   -7.0711   20.1390  -34.0648 H   0  0  0  0  0  0  0  0  0  0  0  0
   -8.2100   22.0770  -31.3570 C   0  0  0  0  0  0  0  0  0  0  0  0
   -7.8120   22.3000  -30.0280 C   0  0  0  0  0  0  0  0  0  0  0  0
   -8.2187   21.6695  -29.2236 H   0  0  0  0  0  0  0  0  0  0  0  0
   -6.9040   23.3160  -29.7200 C   0  0  0  0  0  0  0  0  0  0  0  0
   -6.6056   23.4875  -28.6752 H   0  0  0  0  0  0  0  0  0  0  0  0
   -6.3740   24.1150  -30.7370 C   0  0  0  0  0  0  0  0  0  0  0  0
   -5.6641   24.9190  -30.4926 H   0  0  0  0  0  0  0  0  0  0  0  0
   -6.7470   23.8910  -32.0630 C   0  0  0  0  0  0  0  0  0  0  0  0
   -6.3238   24.5152  -32.8638 H   0  0  0  0  0  0  0  0  0  0  0  0
   -7.6560   22.8770  -32.3780 C   0  0  0  0  0  0  0  0  0  0  0  0
   -7.9404   22.7023  -33.4261 H   0  0  0  0  0  0  0  0  0  0  0  0
  1  2  1  0
  2  3  2  0
  3  4  1  0
  3  5  1  0
  5  6  1  0
  5  7  1  0
  5  8  1  0
  8  9  1  0
  9 10  1  0
  9 11  1  0
  9 12  1  0
 12 13  1  0
 12 14  1  0
 12 15  1  0
 15 16  1  0
 15 17  1  0
 17 18  1  0
 17 19  1  0
 17 20  1  0
 20 21  2  0
 21 22  1  0
 21 23  1  0
 23 24  1  0
 23 25  2  0
 25 26  1  0
 25 27  1  0
 27 28  1  0
 27 29  2  0
 29 30  1  0
 15 31  1  0
 31 32  1  0
 31 33  1  0
 31 34  1  0
 34 35  1  0
 34 36  1  0
  2 37  1  0
 37 38  2  0
 38 39  1  0
 38 40  1  0
 40 41  1  0
 40 42  2  0
 42 43  1  0
 42 44  1  0
 44 45  1  0
 44 46  2  0
 46 47  1  0
 34  8  1  0
 46 37  1  0
 29 20  1  0
M  CHG  1  15   1
M  END
>  <UniqueID>  (2) 
2

>  <SMILES>  (2) 
Fc1cccc(C[NH+]2CCN(C/C=C/c3ccccc3)CC2)c1

>  <Energy>  (2) 
65.06916860467182

>  <Genealogy>  (2) 
Fc1cccc(C[NH+]2CCN(CC=Cc3ccccc3)CC2)c1 (protonated)
Fc1cccc(C[NH+]2CCN(C/C=C/c3ccccc3)CC2)c1 (cis-trans isomerization)
Fc1cccc(C[NH+]2CCN(C/C=C/c3ccccc3)CC2)c1 (3D coordinates assigned)
Fc1cccc(C[NH+]2CCN(C/C=C/c3ccccc3)CC2)c1 (nonaromatic ring conformer: 65.06916860467182 kcal/mol)

>  <smiles>  (2) 
Fc1cccc(CN2CCN(CC=Cc3ccccc3)CC2)c1

>  <score_type>  (2) 
oracle

>  <origin>  (2) 
adg

>  <m_score__min__energy>  (2) 
-7.4299999999999997

>  <m_primary>  (2) 
energy

$$$$
2:0
     RDKit          3D

 48 50  0  0  0  0  0  0  0  0999 V2000
   -1.2460   18.4750  -33.1040 C   0  0  0  0  0  0  0  0  0  0  0  0
   -1.4190   19.3490  -34.3510 C   0  0  0  0  0  0  0  0  0  0  0  0
   -1.5290   20.7900  -34.0210 N   0  0  2  0  0  0  0  0  0  0  0  0
   -0.3030   21.5360  -34.3730 C   0  0  0  0  0  0  0  0  0  0  0  0
   -1.9310   21.0120  -32.6060 C   0  0  0  0  0  0  0  0  0  0  0  0
   -3.2450   21.8030  -32.4070 C   0  0  0  0  0  0  0  0  0  0  0  0
   -4.2360   21.4980  -33.4380 N   0  0  0  0  0  0  0  0  0  0  0  0
   -5.4310   20.7860  -33.0950 C   0  0  0  0  0  0  0  0  0  0  0  0
   -6.4860   21.4470  -32.4700 C   0  0  0  0  0  0  0  0  0  0  0  0
   -7.6310   20.7770  -32.1220 C   0  0  0  0  0  0  0  0  0  0  0  0
   -7.7960   19.4370  -32.3710 N   0  0  0  0  0  0  0  0  0  0  0  0
   -9.0450   18.7570  -31.9780 C   0  0  0  0  0  0  0  0  0  0  0  0
   -6.7720   18.7370  -32.9880 C   0  0  0  0  0  0  0  0  0  0  0  0
   -6.8810   17.3520  -33.2680 C   0  0  0  0  0  0  0  0  0  0  0  0
   -5.8390   16.6620  -33.8920 C   0  0  0  0  0  0  0  0  0  0  0  0
   -4.6720   17.3270  -34.2510 C   0  0  0  0  0  0  0  0  0  0  0  0
   -4.5310   18.6890  -33.9900 C   0  0  0  0  0  0  0  0  0  0  0  0
   -5.5650   19.4070  -33.3580 C   0  0  0  0  0  0  0  0  0  0  0  0
   -8.5990   21.6830  -31.4390 C   0  0  0  0  0  0  0  0  0  0  0  0
   -7.9030   23.0530  -31.4180 C   0  0  0  0  0  0  0  0  0  0  0  0
   -6.5140   22.8700  -32.0460 C   0  0  0  0  0  0  0  0  0  0  0  0
   -1.3685   19.0937  -32.2028 H   0  0  0  0  0  0  0  0  0  0  0  0
   -2.0037   17.6776  -33.1071 H   0  0  0  0  0  0  0  0  0  0  0  0
   -0.2416   18.0264  -33.1071 H   0  0  0  0  0  0  0  0  0  0  0  0
   -0.5492   19.2026  -35.0083 H   0  0  0  0  0  0  0  0  0  0  0  0
   -2.3538   19.0461  -34.8455 H   0  0  0  0  0  0  0  0  0  0  0  0
   -2.3070   21.1900  -34.6000 H   0  0  0  0  0  0  0  0  0  0  0  0
    0.2123   21.8495  -33.4531 H   0  0  0  0  0  0  0  0  0  0  0  0
    0.3626   20.8896  -34.9640 H   0  0  0  0  0  0  0  0  0  0  0  0
   -0.5712   22.4242  -34.9640 H   0  0  0  0  0  0  0  0  0  0  0  0
   -2.0513   20.0282  -32.1288 H   0  0  0  0  0  0  0  0  0  0  0  0
   -1.1362   21.6261  -32.1574 H   0  0  0  0  0  0  0  0  0  0  0  0
   -3.6668   21.5472  -31.4238 H   0  0  0  0  0  0  0  0  0  0  0  0
   -3.0070   22.8748  -32.4746 H   0  0  0  0  0  0  0  0  0  0  0  0
   -4.2350   22.0350  -34.3350 H   0  0  0  0  0  0  0  0  0  0  0  0
   -9.1128   18.7201  -30.8807 H   0  0  0  0  0  0  0  0  0  0  0  0
   -9.9062   19.3108  -32.3801 H   0  0  0  0  0  0  0  0  0  0  0  0
   -9.0472   17.7331  -32.3801 H   0  0  0  0  0  0  0  0  0  0  0  0
   -7.7987   16.8130  -32.9901 H   0  0  0  0  0  0  0  0  0  0  0  0
   -5.9423   15.5869  -34.1004 H   0  0  0  0  0  0  0  0  0  0  0  0
   -3.8568   16.7762  -34.7429 H   0  0  0  0  0  0  0  0  0  0  0  0
   -3.6050   19.2072  -34.2799 H   0  0  0  0  0  0  0  0  0  0  0  0
   -9.5433   21.7362  -32.0007 H   0  0  0  0  0  0  0  0  0  0  0  0
   -8.8566   21.3315  -30.4290 H   0  0  0  0  0  0  0  0  0  0  0  0
   -8.4867   23.7806  -32.0011 H   0  0  0  0  0  0  0  0  0  0  0  0
   -7.8178   23.4304  -30.3883 H   0  0  0  0  0  0  0  0  0  0  0  0
   -6.3871   23.5368  -32.9116 H   0  0  0  0  0  0  0  0  0  0  0  0
   -5.7014   23.1155  -31.3464 H   0  0  0  0  0  0  0  0  0  0  0  0
  1  2  1  0
  2  3  1  0
  3  4  1  0
  3  5  1  0
  5  6  1  0
  6  7  1  0
  7  8  1  0
  8  9  2  0
  9 10  1  0
 10 11  2  0
 11 12  1  0
 11 13  1  0
 13 14  2  0
 14 15  1  0
 15 16  2  0
 16 17  1  0
 17 18  2  0
 10 19  1  0
 19 20  1  0
 20 21  1  0
 18  8  1  0
 21  9  1  0
 18 13  1  0
  1 22  1  0
  1 23  1  0
  1 24  1  0
  2 25  1  0
  2 26  1  0
  3 27  1  6
  4 28  1  0
  4 29  1  0
  4 30  1  0
  5 31  1  0
  5 32  1  0
  6 33  1  0
  6 34  1  0
  7 35  1  0
 12 36  1  0
 12 37  1  0
 12 38  1  0
 14 39  1  0
 15 40  1  0
 16 41  1  0
 17 42  1  0
 19 43  1  0
 19 44  1  0
 20 45  1  0
 20 46  1  0
 21 47  1  0
 21 48  1  0
M  CHG  2   3   1  11   1
M  END
>  <UniqueID>  (3) 
3

>  <SMILES>  (3) 
CC[N@H+](C)CCNc1c2c([n+](C)c3ccccc13)CCC2

>  <Energy>  (3) 
72.8785365948319

>  <Genealogy>  (3) 
CC[NH+](C)CCNc1c2c([n+](C)c3ccccc13)CCC2 (protonated)
CC[N@H+](C)CCNc1c2c([n+](C)c3ccccc13)CCC2 (chirality)
CC[N@H+](C)CCNc1c2c([n+](C)c3ccccc13)CCC2 (3D coordinates assigned)
CC[N@H+](C)CCNc1c2c([n+](C)c3ccccc13)CCC2 (nonaromatic ring conformer: 72.8785365948319 kcal/mol)

>  <smiles>  (3) 
CCN(C)CCNc1c2c([n+](C)c3ccccc13)CCC2

>  <score_type>  (3) 
oracle

>  <origin>  (3) 
adg

>  <m_score__min__energy>  (3) 
-6.6699999999999999

>  <m_primary>  (3) 
energy

$$$$
3:0
     RDKit          3D

 61 63  0  0  0  0  0  0  0  0999 V2000
   -3.9890   24.1920  -27.7150 C   0  0  0  0  0  0  0  0  0  0  0  0
   -4.9750   24.5310  -28.8300 C   0  0  0  0  0  0  0  0  0  0  0  0
   -4.2430   24.9100  -30.1210 C   0  0  0  0  0  0  0  0  0  0  0  0
   -4.9900   24.4200  -31.2850 N   0  0  0  0  0  0  0  0  0  0  0  0
   -6.4270   24.2490  -30.9920 C   0  0  0  0  0  0  0  0  0  0  0  0
   -6.8200   22.7820  -30.7290 C   0  0  0  0  0  0  0  0  0  0  0  0
   -8.0890   22.3680  -31.4870 C   0  0  0  0  0  0  0  0  0  0  0  0
   -8.1230   20.8700  -31.8600 C   0  0  0  0  0  0  0  0  0  0  0  0
   -6.8130   20.3580  -32.3630 N   0  0  0  0  0  0  0  0  0  0  0  0
   -6.3980   19.1610  -31.6010 C   0  0  0  0  0  0  0  0  0  0  0  0
   -4.9670   18.7280  -31.9840 C   0  0  0  0  0  0  0  0  0  0  0  0
   -4.6450   18.9280  -33.4200 N   0  0  0  0  0  0  0  0  0  0  0  0
   -3.7340   20.0710  -33.6570 C   0  0  0  0  0  0  0  0  0  0  0  0
   -3.8090   21.0590  -32.5230 C   0  0  0  0  0  0  0  0  0  0  0  0
   -4.6850   21.9660  -32.5690 O   0  0  0  0  0  0  0  0  0  0  0  0
   -2.9080   21.0030  -31.4020 N   0  0  0  0  0  0  0  0  0  0  0  0
   -1.8030   20.0490  -31.2580 C   0  0  0  0  0  0  0  0  0  0  0  0
   -1.1840   20.4440  -29.9710 C   0  0  0  0  0  0  0  0  0  0  0  0
   -0.0810   19.8680  -29.3390 C   0  0  0  0  0  0  0  0  0  0  0  0
    0.3430   20.4040  -28.1120 C   0  0  0  0  0  0  0  0  0  0  0  0
   -0.3360   21.4980  -27.5430 C   0  0  0  0  0  0  0  0  0  0  0  0
   -1.4450   22.0610  -28.1970 C   0  0  0  0  0  0  0  0  0  0  0  0
   -1.8490   21.5120  -29.4150 C   0  0  0  0  0  0  0  0  0  0  0  0
   -2.9790   21.9360  -30.2760 C   0  0  0  0  0  0  0  0  0  0  0  0
   -5.8560   18.9680  -34.2640 C   0  0  0  0  0  0  0  0  0  0  0  0
   -6.8600   20.0580  -33.8220 C   0  0  0  0  0  0  0  0  0  0  0  0
   -4.4685   24.3569  -26.7388 H   0  0  0  0  0  0  0  0  0  0  0  0
   -3.6860   23.1381  -27.8014 H   0  0  0  0  0  0  0  0  0  0  0  0
   -3.1020   24.8368  -27.8014 H   0  0  0  0  0  0  0  0  0  0  0  0
   -5.6130   23.6559  -29.0230 H   0  0  0  0  0  0  0  0  0  0  0  0
   -5.5818   25.3904  -28.5087 H   0  0  0  0  0  0  0  0  0  0  0  0
   -4.1530   26.0047  -30.1806 H   0  0  0  0  0  0  0  0  0  0  0  0
   -3.2426   24.4527  -30.1159 H   0  0  0  0  0  0  0  0  0  0  0  0
   -4.5670   23.5200  -31.6140 H   0  0  0  0  0  0  0  0  0  0  0  0
   -6.6756   24.8433  -30.1004 H   0  0  0  0  0  0  0  0  0  0  0  0
   -6.9847   24.5841  -31.8789 H   0  0  0  0  0  0  0  0  0  0  0  0
   -5.9913   22.1324  -31.0473 H   0  0  0  0  0  0  0  0  0  0  0  0
   -7.0249   22.6788  -29.6532 H   0  0  0  0  0  0  0  0  0  0  0  0
   -8.9606   22.5888  -30.8533 H   0  0  0  0  0  0  0  0  0  0  0  0
   -8.1030   22.9362  -32.4288 H   0  0  0  0  0  0  0  0  0  0  0  0
   -8.4035   20.2936  -30.9661 H   0  0  0  0  0  0  0  0  0  0  0  0
   -8.8536   20.7527  -32.6739 H   0  0  0  0  0  0  0  0  0  0  0  0
   -6.0860   21.0910  -32.1930 H   0  0  0  0  0  0  0  0  0  0  0  0
   -6.4282   19.3911  -30.5258 H   0  0  0  0  0  0  0  0  0  0  0  0
   -7.0880   18.3381  -31.8394 H   0  0  0  0  0  0  0  0  0  0  0  0
   -4.2550   19.3137  -31.3840 H   0  0  0  0  0  0  0  0  0  0  0  0
   -4.8951   17.6482  -31.7866 H   0  0  0  0  0  0  0  0  0  0  0  0
   -2.7026   19.6983  -33.7429 H   0  0  0  0  0  0  0  0  0  0  0  0
   -4.0371   20.5767  -34.5857 H   0  0  0  0  0  0  0  0  0  0  0  0
   -2.1767   19.0153  -31.2157 H   0  0  0  0  0  0  0  0  0  0  0  0
   -1.0982   20.0728  -32.1022 H   0  0  0  0  0  0  0  0  0  0  0  0
    0.4442   19.0139  -29.7914 H   0  0  0  0  0  0  0  0  0  0  0  0
    1.2092   19.9671  -27.5935 H   0  0  0  0  0  0  0  0  0  0  0  0
    0.0029   21.9138  -26.5826 H   0  0  0  0  0  0  0  0  0  0  0  0
   -1.9825   22.9150  -27.7590 H   0  0  0  0  0  0  0  0  0  0  0  0
   -3.9374   21.8411  -29.7446 H   0  0  0  0  0  0  0  0  0  0  0  0
   -2.9157   22.9902  -30.5838 H   0  0  0  0  0  0  0  0  0  0  0  0
   -5.5539   19.1690  -35.3024 H   0  0  0  0  0  0  0  0  0  0  0  0
   -6.3597   17.9950  -34.1660 H   0  0  0  0  0  0  0  0  0  0  0  0
   -6.6349   20.9823  -34.3742 H   0  0  0  0  0  0  0  0  0  0  0  0
   -7.8678   19.6747  -34.0396 H   0  0  0  0  0  0  0  0  0  0  0  0
  1  2  1  0
  2  3  1  0
  3  4  1  0
  4  5  1  0
  5  6  1  0
  6  7  1  0
  7  8  1  0
  8  9  1  0
  9 10  1  0
 10 11  1  0
 11 12  1  0
 12 13  1  0
 13 14  1  0
 14 15  2  0
 14 16  1  0
 16 17  1  0
 17 18  1  0
 18 19  2  0
 19 20  1  0
 20 21  2  0
 21 22  1  0
 22 23  2  0
 23 24  1  0
 12 25  1  0
 25 26  1  0
 26  9  1  0
 24 16  1  0
 23 18  1  0
  1 27  1  0
  1 28  1  0
  1 29  1  0
  2 30  1  0
  2 31  1  0
  3 32  1  0
  3 33  1  0
  4 34  1  0
  5 35  1  0
  5 36  1  0
  6 37  1  0
  6 38  1  0
  7 39  1  0
  7 40  1  0
  8 41  1  0
  8 42  1  0
  9 43  1  0
 10 44  1  0
 10 45  1  0
 11 46  1  0
 11 47  1  0
 13 48  1  0
 13 49  1  0
 17 50  1  0
 17 51  1  0
 19 52  1  0
 20 53  1  0
 21 54  1  0
 22 55  1  0
 24 56  1  0
 24 57  1  0
 25 58  1  0
 25 59  1  0
 26 60  1  0
 26 61  1  0
M  CHG  1   9   1
M  END
>  <UniqueID>  (4) 
4

>  <SMILES>  (4) 
CCCNCCCC[NH+]1CCN(CC(=O)N2Cc3ccccc3C2)CC1

>  <Energy>  (4) 
79.39467460781125

>  <Genealogy>  (4) 
CCCNCCCC[NH+]1CCN(CC(=O)N2Cc3ccccc3C2)CC1 (protonated)
CCCNCCCC[NH+]1CCN(CC(=O)N2Cc3ccccc3C2)CC1 (3D coordinates assigned)
CCCNCCCC[NH+]1CCN(CC(=O)N2Cc3ccccc3C2)CC1 (nonaromatic ring conformer: 79.39467460781125 kcal/mol)

>  <smiles>  (4) 
CCCNCCCCN1CCN(CC(=O)N2Cc3ccccc3C2)CC1

>  <score_type>  (4) 
oracle

>  <origin>  (4) 
adg

>  <m_score__min__energy>  (4) 
-7.9800000000000004

>  <m_primary>  (4) 
energy

$$$$
4:0
     RDKit          3D

 44 47  0  0  0  0  0  0  0  0999 V2000
   -2.6210   19.8470  -27.0320 C   0  0  0  0  0  0  0  0  0  0  0  0
   -2.1180   20.3820  -28.2510 O   0  0  0  0  0  0  0  0  0  0  0  0
   -2.3960   21.6730  -28.7240 C   0  0  0  0  0  0  0  0  0  0  0  0
   -1.5280   22.7750  -28.4780 C   0  0  0  0  0  0  0  0  0  0  0  0
   -1.8400   24.0560  -28.9690 C   0  0  0  0  0  0  0  0  0  0  0  0
   -3.0150   24.2030  -29.6960 C   0  0  0  0  0  0  0  0  0  0  0  0
   -3.5010   25.2880  -30.2430 O   0  0  0  0  0  0  0  0  0  0  0  0
   -4.6300   25.0240  -30.8430 N   0  0  0  0  0  0  0  0  0  0  0  0
   -4.8900   23.7030  -30.6790 C   0  0  0  0  0  0  0  0  0  0  0  0
   -6.0880   23.0270  -31.2220 C   0  0  0  0  0  0  0  0  0  0  0  0
   -5.9830   21.7700  -31.8310 C   0  0  0  0  0  0  0  0  0  0  0  0
   -7.1400   21.1590  -32.3350 C   0  0  0  0  0  0  0  0  0  0  0  0
   -7.0720   19.8560  -32.9460 N   0  0  0  0  0  0  0  0  0  0  0  0
   -5.9930   19.5010  -33.8720 C   0  0  0  0  0  0  0  0  0  0  0  0
   -5.2660   18.2350  -33.3830 C   0  0  0  0  0  0  0  0  0  0  0  0
   -6.1390   17.2850  -32.6440 N   0  0  0  0  0  0  0  0  0  0  0  0
   -5.8960   17.3360  -31.1910 C   0  0  0  0  0  0  0  0  0  0  0  0
   -7.5740   17.4350  -32.9680 C   0  0  0  0  0  0  0  0  0  0  0  0
   -8.0900   18.8470  -32.6380 C   0  0  0  0  0  0  0  0  0  0  0  0
   -8.3410   21.7940  -32.2040 N   0  0  0  0  0  0  0  0  0  0  0  0
   -8.4240   23.0140  -31.6120 C   0  0  0  0  0  0  0  0  0  0  0  0
   -7.3080   23.6170  -31.1310 N   0  0  0  0  0  0  0  0  0  0  0  0
   -3.8550   23.1540  -29.9390 C   0  0  0  0  0  0  0  0  0  0  0  0
   -3.5780   21.8680  -29.4670 C   0  0  0  0  0  0  0  0  0  0  0  0
   -2.1421   20.3564  -26.1828 H   0  0  0  0  0  0  0  0  0  0  0  0
   -3.7092   20.0008  -26.9855 H   0  0  0  0  0  0  0  0  0  0  0  0
   -2.4005   18.7703  -26.9855 H   0  0  0  0  0  0  0  0  0  0  0  0
   -0.6052   22.6232  -27.8988 H   0  0  0  0  0  0  0  0  0  0  0  0
   -1.1757   24.9129  -28.7835 H   0  0  0  0  0  0  0  0  0  0  0  0
   -5.0069   21.2694  -31.9127 H   0  0  0  0  0  0  0  0  0  0  0  0
   -6.4174   19.3136  -34.8694 H   0  0  0  0  0  0  0  0  0  0  0  0
   -5.2735   20.3317  -33.9193 H   0  0  0  0  0  0  0  0  0  0  0  0
   -4.8510   17.7142  -34.2585 H   0  0  0  0  0  0  0  0  0  0  0  0
   -4.4878   18.5660  -32.6795 H   0  0  0  0  0  0  0  0  0  0  0  0
   -6.8360   17.1387  -30.6549 H   0  0  0  0  0  0  0  0  0  0  0  0
   -5.1508   16.5747  -30.9169 H   0  0  0  0  0  0  0  0  0  0  0  0
   -5.5198   18.3327  -30.9169 H   0  0  0  0  0  0  0  0  0  0  0  0
   -7.7183   17.2451  -34.0418 H   0  0  0  0  0  0  0  0  0  0  0  0
   -8.1391   16.7136  -32.3595 H   0  0  0  0  0  0  0  0  0  0  0  0
   -8.9918   19.0503  -33.2341 H   0  0  0  0  0  0  0  0  0  0  0  0
   -8.3231   18.8963  -31.5641 H   0  0  0  0  0  0  0  0  0  0  0  0
   -9.2130   21.3560  -32.5740 H   0  0  0  0  0  0  0  0  0  0  0  0
   -9.3994   23.5146  -31.5224 H   0  0  0  0  0  0  0  0  0  0  0  0
   -4.2630   21.0315  -29.6696 H   0  0  0  0  0  0  0  0  0  0  0  0
  1  2  1  0
  2  3  1  0
  3  4  2  0
  4  5  1  0
  5  6  2  0
  6  7  1  0
  7  8  1  0
  8  9  2  0
  9 10  1  0
 10 11  2  0
 11 12  1  0
 12 13  1  0
 13 14  1  0
 14 15  1  0
 15 16  1  0
 16 17  1  0
 16 18  1  0
 18 19  1  0
 12 20  2  0
 20 21  1  0
 21 22  2  0
  9 23  1  0
 23 24  2  0
 24  3  1  0
 23  6  1  0
 22 10  1  0
 19 13  1  0
  1 25  1  0
  1 26  1  0
  1 27  1  0
  4 28  1  0
  5 29  1  0
 11 30  1  0
 14 31  1  0
 14 32  1  0
 15 33  1  0
 15 34  1  0
 17 35  1  0
 17 36  1  0
 17 37  1  0
 18 38  1  0
 18 39  1  0
 19 40  1  0
 19 41  1  0
 20 42  1  0
 21 43  1  0
 24 44  1  0
M  CHG  1  20   1
M  END
>  <UniqueID>  (5) 
5

>  <SMILES>  (5) 
COc1ccc2onc(-c3cc(N4CCN(C)CC4)[nH+]cn3)c2c1

>  <Energy>  (5) 
98.62572774400499

>  <Genealogy>  (5) 
COc1ccc2onc(-c3cc(N4CCN(C)CC4)[nH+]cn3)c2c1 (protonated)
COc1ccc2onc(-c3cc(N4CCN(C)CC4)[nH+]cn3)c2c1 (3D coordinates assigned)
COc1ccc2onc(-c3cc(N4CCN(C)CC4)[nH+]cn3)c2c1 (nonaromatic ring conformer: 98.62572774400499 kcal/mol)

>  <smiles>  (5) 
COc1ccc2onc(-c3cc(N4CCN(C)CC4)ncn3)c2c1

>  <score_type>  (5) 
oracle

>  <origin>  (5) 
adg

>  <m_score__min__energy>  (5) 
-8.0999999999999996

>  <m_primary>  (5) 
energy

$$$$
5:0
     RDKit          3D

 51 53  0  0  0  0  0  0  0  0999 V2000
   -2.3780   25.4920  -25.9920 C   0  0  0  0  0  0  0  0  0  0  0  0
   -1.6270   24.5050  -26.8970 C   0  0  0  0  0  0  0  0  0  0  0  0
   -2.3880   23.2690  -27.1980 N   0  0  0  0  0  0  0  0  0  0  0  0
   -1.5480   22.0620  -27.0790 C   0  0  0  0  0  0  0  0  0  0  0  0
   -3.0860   23.3460  -28.5030 C   0  0  0  0  0  0  0  0  0  0  0  0
   -2.5880   24.5360  -29.3380 C   0  0  0  0  0  0  0  0  0  0  0  0
   -3.5340   24.9180  -30.3360 O   0  0  0  0  0  0  0  0  0  0  0  0
   -4.7210   24.2320  -30.6570 C   0  0  0  0  0  0  0  0  0  0  0  0
   -5.9900   24.7840  -30.3940 C   0  0  0  0  0  0  0  0  0  0  0  0
   -7.1520   24.1010  -30.7520 C   0  0  0  0  0  0  0  0  0  0  0  0
   -7.0730   22.8440  -31.3670 C   0  0  0  0  0  0  0  0  0  0  0  0
   -8.2160   22.1300  -31.7540 C   0  0  0  0  0  0  0  0  0  0  0  0
   -9.3710   22.6030  -31.5710 O   0  0  0  0  0  0  0  0  0  0  0  0
   -8.0750   20.8790  -32.3550 C   0  0  0  0  0  0  0  0  0  0  0  0
   -6.7850   20.3470  -32.5510 C   0  0  0  0  0  0  0  0  0  0  0  0
   -6.5740   19.0440  -33.1500 N   0  0  0  0  0  0  0  0  0  0  0  0
   -7.1010   17.8260  -32.5060 C   0  0  0  0  0  0  0  0  0  0  0  0
   -6.5790   16.5420  -33.1540 C   0  0  0  0  0  0  0  0  0  0  0  0
   -6.5620   16.6550  -34.5590 O   0  0  0  0  0  0  0  0  0  0  0  0
   -5.5730   17.5900  -34.9240 C   0  0  0  0  0  0  0  0  0  0  0  0
   -5.9720   19.0050  -34.4960 C   0  0  0  0  0  0  0  0  0  0  0  0
   -5.7250   21.0640  -32.1770 O   0  0  0  0  0  0  0  0  0  0  0  0
   -5.8080   22.2660  -31.6100 C   0  0  0  0  0  0  0  0  0  0  0  0
   -4.6320   22.9570  -31.2590 C   0  0  0  0  0  0  0  0  0  0  0  0
   -3.2960   22.3190  -31.5410 C   0  0  0  0  0  0  0  0  0  0  0  0
   -2.1872   25.2412  -24.9381 H   0  0  0  0  0  0  0  0  0  0  0  0
   -2.0277   26.5148  -26.1947 H   0  0  0  0  0  0  0  0  0  0  0  0
   -3.4572   25.4271  -26.1947 H   0  0  0  0  0  0  0  0  0  0  0  0
   -1.3980   25.0109  -27.8466 H   0  0  0  0  0  0  0  0  0  0  0  0
   -0.7213   24.1984  -26.3533 H   0  0  0  0  0  0  0  0  0  0  0  0
   -1.3870   21.8307  -26.0157 H   0  0  0  0  0  0  0  0  0  0  0  0
   -2.0525   21.2146  -27.5663 H   0  0  0  0  0  0  0  0  0  0  0  0
   -0.5781   22.2407  -27.5663 H   0  0  0  0  0  0  0  0  0  0  0  0
   -2.9035   22.4161  -29.0615 H   0  0  0  0  0  0  0  0  0  0  0  0
   -4.1606   23.4835  -28.3123 H   0  0  0  0  0  0  0  0  0  0  0  0
   -2.4119   25.3912  -28.6689 H   0  0  0  0  0  0  0  0  0  0  0  0
   -1.6605   24.2324  -29.8455 H   0  0  0  0  0  0  0  0  0  0  0  0
   -6.0652   25.7644  -29.9009 H   0  0  0  0  0  0  0  0  0  0  0  0
   -8.1354   24.5510  -30.5507 H   0  0  0  0  0  0  0  0  0  0  0  0
   -8.9629   20.3129  -32.6731 H   0  0  0  0  0  0  0  0  0  0  0  0
   -6.8041   17.8314  -31.4468 H   0  0  0  0  0  0  0  0  0  0  0  0
   -8.1948   17.8357  -32.6221 H   0  0  0  0  0  0  0  0  0  0  0  0
   -5.5569   16.3486  -32.7964 H   0  0  0  0  0  0  0  0  0  0  0  0
   -7.2477   15.7135  -32.8775 H   0  0  0  0  0  0  0  0  0  0  0  0
   -4.6250   17.3202  -34.4356 H   0  0  0  0  0  0  0  0  0  0  0  0
   -5.4610   17.5730  -36.0181 H   0  0  0  0  0  0  0  0  0  0  0  0
   -5.0737   19.6398  -34.4983 H   0  0  0  0  0  0  0  0  0  0  0  0
   -6.7277   19.3670  -35.2086 H   0  0  0  0  0  0  0  0  0  0  0  0
   -2.7959   22.0802  -30.5908 H   0  0  0  0  0  0  0  0  0  0  0  0
   -3.4456   21.3951  -32.1190 H   0  0  0  0  0  0  0  0  0  0  0  0
   -2.6715   23.0161  -32.1190 H   0  0  0  0  0  0  0  0  0  0  0  0
  1  2  1  0
  2  3  1  0
  3  4  1  0
  3  5  1  0
  5  6  1  0
  6  7  1  0
  7  8  1  0
  8  9  2  0
  9 10  1  0
 10 11  2  0
 11 12  1  0
 12 13  2  0
 12 14  1  0
 14 15  2  0
 15 16  1  0
 16 17  1  0
 17 18  1  0
 18 19  1  0
 19 20  1  0
 20 21  1  0
 15 22  1  0
 22 23  1  0
 23 24  2  0
 24 25  1  0
 24  8  1  0
 23 11  1  0
 21 16  1  0
  1 26  1  0
  1 27  1  0
  1 28  1  0
  2 29  1  0
  2 30  1  0
  4 31  1  0
  4 32  1  0
  4 33  1  0
  5 34  1  0
  5 35  1  0
  6 36  1  0
  6 37  1  0
  9 38  1  0
 10 39  1  0
 14 40  1  0
 17 41  1  0
 17 42  1  0
 18 43  1  0
 18 44  1  0
 20 45  1  0
 20 46  1  0
 21 47  1  0
 21 48  1  0
 25 49  1  0
 25 50  1  0
 25 51  1  0
M  END
>  <UniqueID>  (6) 
6

>  <SMILES>  (6) 
CCN(C)CCOc1ccc2c(=O)cc(N3CCOCC3)oc2c1C

>  <Energy>  (6) 
62.421400925965145

>  <Genealogy>  (6) 
CCN(C)CCOc1ccc2c(=O)cc(N3CCOCC3)oc2c1C (3D coordinates assigned)
CCN(C)CCOc1ccc2c(=O)cc(N3CCOCC3)oc2c1C (nonaromatic ring conformer: 62.421400925965145 kcal/mol)

>  <smiles>  (6) 
CCN(C)CCOc1ccc2c(=O)cc(N3CCOCC3)oc2c1C

>  <score_type>  (6) 
oracle

>  <origin>  (6) 
adg

>  <m_score__min__energy>  (6) 
-8.2200000000000006

>  <m_primary>  (6) 
energy

$$$$
6:0
     RDKit          3D

 50 54  0  0  0  0  0  0  0  0999 V2000
   -6.7390   25.6860  -29.3420 C   0  0  0  0  0  0  0  0  0  0  0  0
   -5.7260   26.0070  -30.4360 C   0  0  0  0  0  0  0  0  0  0  0  0
   -4.9910   24.7720  -30.8480 C   0  0  0  0  0  0  0  0  0  0  0  0
   -3.7650   24.4390  -30.3650 N   0  0  0  0  0  0  0  0  0  0  0  0
   -3.5560   23.2540  -30.9690 C   0  0  0  0  0  0  0  0  0  0  0  0
   -2.4290   22.4300  -30.8440 C   0  0  0  0  0  0  0  0  0  0  0  0
   -1.2680   22.7910  -29.9480 C   0  0  2  0  0  0  0  0  0  0  0  0
   -1.2720   21.8830  -28.6950 C   0  0  0  0  0  0  0  0  0  0  0  0
   -0.1460   22.1910  -27.7980 N   0  0  0  0  0  0  0  0  0  0  0  0
    0.2820   23.5980  -27.8690 C   0  0  0  0  0  0  0  0  0  0  0  0
   -0.8520   24.5140  -28.3550 C   0  0  0  0  0  0  0  0  0  0  0  0
   -1.3120   24.1860  -29.6580 O   0  0  0  0  0  0  0  0  0  0  0  0
   -2.4500   21.2120  -31.5540 C   0  0  0  0  0  0  0  0  0  0  0  0
   -3.5610   20.8540  -32.3540 C   0  0  0  0  0  0  0  0  0  0  0  0
   -3.5830   19.5810  -33.1020 C   0  0  0  0  0  0  0  0  0  0  0  0
   -2.5080   19.0100  -33.7790 C   0  0  0  0  0  0  0  0  0  0  0  0
   -2.8790   17.8400  -34.3490 N   0  0  0  0  0  0  0  0  0  0  0  0
   -2.0340   16.9660  -35.1580 C   0  0  0  0  0  0  0  0  0  0  0  0
   -4.1840   17.6690  -34.0580 C   0  0  0  0  0  0  0  0  0  0  0  0
   -5.0220   16.6260  -34.4610 C   0  0  0  0  0  0  0  0  0  0  0  0
   -6.3720   16.6770  -34.0750 C   0  0  0  0  0  0  0  0  0  0  0  0
   -7.2180   15.6840  -34.4470 F   0  0  0  0  0  0  0  0  0  0  0  0
   -6.8580   17.7610  -33.3120 C   0  0  0  0  0  0  0  0  0  0  0  0
   -5.9950   18.8010  -32.9220 C   0  0  0  0  0  0  0  0  0  0  0  0
   -4.6510   18.7160  -33.2980 C   0  0  0  0  0  0  0  0  0  0  0  0
   -4.6450   21.7480  -32.4490 C   0  0  0  0  0  0  0  0  0  0  0  0
   -4.5870   22.9030  -31.7450 N   0  0  0  0  0  0  0  0  0  0  0  0
   -5.5110   23.8410  -31.6820 N   0  0  0  0  0  0  0  0  0  0  0  0
   -6.2734   25.8335  -28.3564 H   0  0  0  0  0  0  0  0  0  0  0  0
   -7.6084   26.3527  -29.4403 H   0  0  0  0  0  0  0  0  0  0  0  0
   -7.0658   24.6403  -29.4403 H   0  0  0  0  0  0  0  0  0  0  0  0
   -6.2537   26.4219  -31.3075 H   0  0  0  0  0  0  0  0  0  0  0  0
   -5.0024   26.7385  -30.0471 H   0  0  0  0  0  0  0  0  0  0  0  0
   -0.3070   22.6080  -30.4510 H   0  0  0  0  0  0  0  0  0  0  0  0
   -2.2148   22.0330  -28.1486 H   0  0  0  0  0  0  0  0  0  0  0  0
   -1.1716   20.8390  -29.0267 H   0  0  0  0  0  0  0  0  0  0  0  0
    0.6680   21.5890  -28.0660 H   0  0  0  0  0  0  0  0  0  0  0  0
    0.5997   23.9248  -26.8679 H   0  0  0  0  0  0  0  0  0  0  0  0
    1.1111   23.6680  -28.5885 H   0  0  0  0  0  0  0  0  0  0  0  0
   -1.6955   24.4293  -27.6541 H   0  0  0  0  0  0  0  0  0  0  0  0
   -0.4524   25.5381  -28.3958 H   0  0  0  0  0  0  0  0  0  0  0  0
   -1.5898   20.5298  -31.4850 H   0  0  0  0  0  0  0  0  0  0  0  0
   -1.5008   19.4478  -33.8415 H   0  0  0  0  0  0  0  0  0  0  0  0
   -1.4225   16.3335  -34.4977 H   0  0  0  0  0  0  0  0  0  0  0  0
   -2.6672   16.3288  -35.7928 H   0  0  0  0  0  0  0  0  0  0  0  0
   -1.3758   17.5774  -35.7928 H   0  0  0  0  0  0  0  0  0  0  0  0
   -4.6362   15.7898  -35.0626 H   0  0  0  0  0  0  0  0  0  0  0  0
   -7.9183   17.7924  -33.0207 H   0  0  0  0  0  0  0  0  0  0  0  0
   -6.3666   19.6561  -32.3383 H   0  0  0  0  0  0  0  0  0  0  0  0
   -5.5160   21.5140  -33.0787 H   0  0  0  0  0  0  0  0  0  0  0  0
  1  2  1  0
  2  3  1  0
  3  4  1  0
  4  5  2  0
  5  6  1  0
  6  7  1  0
  7  8  1  0
  8  9  1  0
  9 10  1  0
 10 11  1  0
 11 12  1  0
  6 13  2  0
 13 14  1  0
 14 15  1  0
 15 16  2  0
 16 17  1  0
 17 18  1  0
 17 19  1  0
 19 20  2  0
 20 21  1  0
 21 22  1  0
 21 23  2  0
 23 24  1  0
 24 25  2  0
 14 26  2  0
 26 27  1  0
 27 28  1  0
 28  3  2  0
 27  5  1  0
 12  7  1  0
 25 15  1  0
 25 19  1  0
  1 29  1  0
  1 30  1  0
  1 31  1  0
  2 32  1  0
  2 33  1  0
  7 34  1  6
  8 35  1  0
  8 36  1  0
  9 37  1  0
 10 38  1  0
 10 39  1  0
 11 40  1  0
 11 41  1  0
 13 42  1  0
 16 43  1  0
 18 44  1  0
 18 45  1  0
 18 46  1  0
 20 47  1  0
 23 48  1  0
 24 49  1  0
 26 50  1  0
M  END
>  <UniqueID>  (7) 
7

>  <SMILES>  (7) 
CCc1nc2c([C@@H]3CNCCO3)cc(-c3cn(C)c4cc(F)ccc34)cn2n1

>  <Energy>  (7) 
137.9360964792384

>  <Genealogy>  (7) 
CCc1nc2c([C@@H]3CNCCO3)cc(-c3cn(C)c4cc(F)ccc34)cn2n1 (chirality)
CCc1nc2c([C@@H]3CNCCO3)cc(-c3cn(C)c4cc(F)ccc34)cn2n1 (3D coordinates assigned)
CCc1nc2c([C@@H]3CNCCO3)cc(-c3cn(C)c4cc(F)ccc34)cn2n1 (nonaromatic ring conformer: 137.9360964792384 kcal/mol)

>  <smiles>  (7) 
CCc1nc2c(C3CNCCO3)cc(-c3cn(C)c4cc(F)ccc34)cn2n1

>  <score_type>  (7) 
oracle

>  <origin>  (7) 
adg

>  <m_score__min__energy>  (7) 
-8.8200000000000003

>  <m_primary>  (7) 
energy

$$$$
7:0
     RDKit          3D

 58 60  0  0  0  0  0  0  0  0999 V2000
   -4.9710   23.5710  -29.0510 C   0  0  0  0  0  0  0  0  0  0  0  0
   -4.3870   24.8090  -29.7370 C   0  0  0  0  0  0  0  0  0  0  0  0
   -4.5940   24.7940  -31.1920 N   0  0  0  0  0  0  0  0  0  0  0  0
   -6.0050   24.6090  -31.5590 C   0  0  0  0  0  0  0  0  0  0  0  0
   -6.1810   23.3130  -32.3570 C   0  0  0  0  0  0  0  0  0  0  0  0
   -5.1540   22.3240  -32.0130 N   0  0  0  0  0  0  0  0  0  0  0  0
   -5.2800   20.9450  -32.3940 C   0  0  0  0  0  0  0  0  0  0  0  0
   -6.5200   20.3030  -32.2440 C   0  0  0  0  0  0  0  0  0  0  0  0
   -7.5490   20.8870  -31.4750 C   0  0  0  0  0  0  0  0  0  0  0  0
   -8.7640   20.2310  -31.2970 C   0  0  0  0  0  0  0  0  0  0  0  0
   -8.9680   18.9790  -31.8660 C   0  0  0  0  0  0  0  0  0  0  0  0
   -7.9670   18.3860  -32.6340 C   0  0  0  0  0  0  0  0  0  0  0  0
   -6.7330   19.0470  -32.8640 C   0  0  0  0  0  0  0  0  0  0  0  0
   -5.7530   18.5030  -33.6670 N   0  0  0  0  0  0  0  0  0  0  0  0
   -6.0890   17.3920  -34.5870 C   0  0  0  0  0  0  0  0  0  0  0  0
   -4.4650   19.0060  -33.6260 C   0  0  0  0  0  0  0  0  0  0  0  0
   -3.3910   18.3070  -34.2180 C   0  0  0  0  0  0  0  0  0  0  0  0
   -2.1060   18.8240  -34.2110 C   0  0  0  0  0  0  0  0  0  0  0  0
   -1.8230   20.0350  -33.5860 C   0  0  0  0  0  0  0  0  0  0  0  0
   -0.4550   20.4510  -33.5230 N   0  0  0  0  0  0  0  0  0  0  0  0
    0.3160   20.1860  -32.3090 C   0  0  0  0  0  0  0  0  0  0  0  0
   -0.0010   21.4900  -34.4490 C   0  0  0  0  0  0  0  0  0  0  0  0
   -2.8610   20.7620  -32.9510 C   0  0  0  0  0  0  0  0  0  0  0  0
   -2.6100   21.9600  -32.2520 O   0  0  0  0  0  0  0  0  0  0  0  0
   -2.0500   22.0900  -30.9470 C   0  0  0  0  0  0  0  0  0  0  0  0
   -2.6350   21.0170  -30.0420 C   0  0  0  0  0  0  0  0  0  0  0  0
   -4.1940   20.2480  -32.9780 C   0  0  0  0  0  0  0  0  0  0  0  0
   -4.9126   23.6948  -27.9595 H   0  0  0  0  0  0  0  0  0  0  0  0
   -6.0223   23.4476  -29.3503 H   0  0  0  0  0  0  0  0  0  0  0  0
   -4.3977   22.6812  -29.3503 H   0  0  0  0  0  0  0  0  0  0  0  0
   -4.8710   25.7048  -29.3207 H   0  0  0  0  0  0  0  0  0  0  0  0
   -3.3025   24.8140  -29.5528 H   0  0  0  0  0  0  0  0  0  0  0  0
   -4.2440   25.6900  -31.6050 H   0  0  0  0  0  0  0  0  0  0  0  0
   -6.6142   24.5577  -30.6445 H   0  0  0  0  0  0  0  0  0  0  0  0
   -6.3278   25.4580  -32.1794 H   0  0  0  0  0  0  0  0  0  0  0  0
   -7.1722   22.8899  -32.1367 H   0  0  0  0  0  0  0  0  0  0  0  0
   -6.0848   23.5515  -33.4265 H   0  0  0  0  0  0  0  0  0  0  0  0
   -4.3740   22.6020  -31.3760 H   0  0  0  0  0  0  0  0  0  0  0  0
   -7.3894   21.8715  -31.0110 H   0  0  0  0  0  0  0  0  0  0  0  0
   -9.5626   20.7033  -30.7061 H   0  0  0  0  0  0  0  0  0  0  0  0
   -9.9223   18.4547  -31.7097 H   0  0  0  0  0  0  0  0  0  0  0  0
   -8.1367   17.3898  -33.0685 H   0  0  0  0  0  0  0  0  0  0  0  0
   -6.3587   16.5003  -34.0020 H   0  0  0  0  0  0  0  0  0  0  0  0
   -6.9386   17.6853  -35.2211 H   0  0  0  0  0  0  0  0  0  0  0  0
   -5.2193   17.1653  -35.2211 H   0  0  0  0  0  0  0  0  0  0  0  0
   -3.5781   17.3331  -34.6940 H   0  0  0  0  0  0  0  0  0  0  0  0
   -1.2964   18.2687  -34.7072 H   0  0  0  0  0  0  0  0  0  0  0  0
   -0.3049   20.3994  -31.4264 H   0  0  0  0  0  0  0  0  0  0  0  0
    0.6245   19.1303  -32.2937 H   0  0  0  0  0  0  0  0  0  0  0  0
    1.2084   20.8290  -32.2937 H   0  0  0  0  0  0  0  0  0  0  0  0
    0.3754   22.3514  -33.8777 H   0  0  0  0  0  0  0  0  0  0  0  0
    0.8044   21.0901  -35.0826 H   0  0  0  0  0  0  0  0  0  0  0  0
   -0.8416   21.8093  -35.0826 H   0  0  0  0  0  0  0  0  0  0  0  0
   -0.9580   21.9697  -31.0017 H   0  0  0  0  0  0  0  0  0  0  0  0
   -2.2864   23.0847  -30.5411 H   0  0  0  0  0  0  0  0  0  0  0  0
   -2.4806   21.3002  -28.9903 H   0  0  0  0  0  0  0  0  0  0  0  0
   -3.7123   20.9173  -30.2405 H   0  0  0  0  0  0  0  0  0  0  0  0
   -2.1352   20.0574  -30.2405 H   0  0  0  0  0  0  0  0  0  0  0  0
  1  2  1  0
  2  3  1  0
  3  4  1  0
  4  5  1  0
  5  6  1  0
  6  7  1  0
  7  8  2  0
  8  9  1  0
  9 10  2  0
 10 11  1  0
 11 12  2  0
 12 13  1  0
 13 14  2  0
 14 15  1  0
 14 16  1  0
 16 17  2  0
 17 18  1  0
 18 19  2  0
 19 20  1  0
 20 21  1  0
 20 22  1  0
 19 23  1  0
 23 24  1  0
 24 25  1  0
 25 26  1  0
 23 27  2  0
 27  7  1  0
 13  8  1  0
 27 16  1  0
  1 28  1  0
  1 29  1  0
  1 30  1  0
  2 31  1  0
  2 32  1  0
  3 33  1  0
  4 34  1  0
  4 35  1  0
  5 36  1  0
  5 37  1  0
  6 38  1  0
  9 39  1  0
 10 40  1  0
 11 41  1  0
 12 42  1  0
 15 43  1  0
 15 44  1  0
 15 45  1  0
 17 46  1  0
 18 47  1  0
 21 48  1  0
 21 49  1  0
 21 50  1  0
 22 51  1  0
 22 52  1  0
 22 53  1  0
 25 54  1  0
 25 55  1  0
 26 56  1  0
 26 57  1  0
 26 58  1  0
M  CHG  1  14   1
M  END
>  <UniqueID>  (8) 
8

>  <SMILES>  (8) 
CCNCCNc1c2ccccc2[n+](C)c2ccc(N(C)C)c(OCC)c12

>  <Energy>  (8) 
87.22518808549167

>  <Genealogy>  (8) 
CCNCCNc1c2ccccc2[n+](C)c2ccc(N(C)C)c(OCC)c12 (3D coordinates assigned)
CCNCCNc1c2ccccc2[n+](C)c2ccc(N(C)C)c(OCC)c12 (optimized conformer: 87.22518808549167 kcal/mol)

>  <smiles>  (8) 
CCNCCNc1c2ccccc2[n+](C)c2ccc(N(C)C)c(OCC)c12

>  <score_type>  (8) 
oracle

>  <origin>  (8) 
adg

>  <m_score__min__energy>  (8) 
-8.5099999999999998

>  <m_primary>  (8) 
energy

$$$$
8:0
     RDKit          3D

 62 64  0  0  0  0  0  0  0  0999 V2000
   -6.5540   25.6100  -29.4140 C   0  0  0  0  0  0  0  0  0  0  0  0
   -6.6150   24.2450  -30.0930 C   0  0  0  0  0  0  0  0  0  0  0  0
   -5.2600   23.6550  -30.1950 N   0  0  0  0  0  0  0  0  0  0  0  0
   -5.0450   22.6770  -29.1070 C   0  0  0  0  0  0  0  0  0  0  0  0
   -4.2260   24.7150  -30.1610 C   0  0  0  0  0  0  0  0  0  0  0  0
   -3.2680   24.5340  -28.9770 C   0  0  0  0  0  0  0  0  0  0  0  0
   -1.9950   25.0670  -29.2900 O   0  0  0  0  0  0  0  0  0  0  0  0
   -0.9560   24.3370  -28.6640 C   0  0  0  0  0  0  0  0  0  0  0  0
   -0.5710   23.0970  -29.4860 C   0  0  0  0  0  0  0  0  0  0  0  0
   -1.6670   22.6000  -30.2330 O   0  0  0  0  0  0  0  0  0  0  0  0
   -1.2540   21.6300  -31.1750 C   0  0  0  0  0  0  0  0  0  0  0  0
   -2.3280   21.4800  -32.2500 C   0  0  0  0  0  0  0  0  0  0  0  0
   -3.6540   21.7760  -31.6870 N   0  0  0  0  0  0  0  0  0  0  0  0
   -4.6120   22.1720  -32.7320 C   0  0  0  0  0  0  0  0  0  0  0  0
   -5.9020   21.3860  -32.6500 C   0  0  0  0  0  0  0  0  0  0  0  0
   -7.0120   22.0400  -32.2180 N   0  0  0  0  0  0  0  0  0  0  0  0
   -8.1970   21.4440  -32.0770 N   0  0  0  0  0  0  0  0  0  0  0  0
   -9.3280   22.2420  -31.6000 C   0  0  0  0  0  0  0  0  0  0  0  0
   -8.3500   20.1170  -32.3640 C   0  0  0  0  0  0  0  0  0  0  0  0
   -9.4770   19.5650  -32.2250 O   0  0  0  0  0  0  0  0  0  0  0  0
   -7.2470   19.3670  -32.8100 C   0  0  0  0  0  0  0  0  0  0  0  0
   -7.3730   18.0340  -33.0940 N   0  0  0  0  0  0  0  0  0  0  0  0
   -6.3130   17.2870  -33.5150 C   0  0  0  0  0  0  0  0  0  0  0  0
   -6.4680   15.9180  -33.7910 C   0  0  0  0  0  0  0  0  0  0  0  0
   -5.3760   15.1570  -34.2170 C   0  0  0  0  0  0  0  0  0  0  0  0
   -4.1220   15.7530  -34.3730 C   0  0  0  0  0  0  0  0  0  0  0  0
   -3.9540   17.1150  -34.1040 C   0  0  0  0  0  0  0  0  0  0  0  0
   -5.0460   17.8870  -33.6740 C   0  0  0  0  0  0  0  0  0  0  0  0
   -4.8960   19.2500  -33.3980 C   0  0  0  0  0  0  0  0  0  0  0  0
   -5.9970   20.0090  -32.9560 C   0  0  0  0  0  0  0  0  0  0  0  0
   -6.5599   25.4770  -28.3221 H   0  0  0  0  0  0  0  0  0  0  0  0
   -5.6318   26.1285  -29.7152 H   0  0  0  0  0  0  0  0  0  0  0  0
   -7.4263   26.2087  -29.7152 H   0  0  0  0  0  0  0  0  0  0  0  0
   -7.2578   23.5755  -29.5026 H   0  0  0  0  0  0  0  0  0  0  0  0
   -7.0258   24.3696  -31.1058 H   0  0  0  0  0  0  0  0  0  0  0  0
   -5.1555   23.1798  -28.1349 H   0  0  0  0  0  0  0  0  0  0  0  0
   -5.7870   21.8690  -29.1884 H   0  0  0  0  0  0  0  0  0  0  0  0
   -4.0326   22.2547  -29.1884 H   0  0  0  0  0  0  0  0  0  0  0  0
   -3.6479   24.6794  -31.0962 H   0  0  0  0  0  0  0  0  0  0  0  0
   -4.7323   25.6849  -30.0477 H   0  0  0  0  0  0  0  0  0  0  0  0
   -3.6742   25.0564  -28.0983 H   0  0  0  0  0  0  0  0  0  0  0  0
   -3.1636   23.4603  -28.7618 H   0  0  0  0  0  0  0  0  0  0  0  0
   -0.0741   24.9862  -28.5604 H   0  0  0  0  0  0  0  0  0  0  0  0
   -1.3116   24.0032  -27.6780 H   0  0  0  0  0  0  0  0  0  0  0  0
    0.2393   23.3669  -30.1793 H   0  0  0  0  0  0  0  0  0  0  0  0
   -0.2484   22.3106  -28.7878 H   0  0  0  0  0  0  0  0  0  0  0  0
   -0.3100   21.9490  -31.6409 H   0  0  0  0  0  0  0  0  0  0  0  0
   -1.1032   20.6654  -30.6682 H   0  0  0  0  0  0  0  0  0  0  0  0
   -2.1184   22.1788  -33.0732 H   0  0  0  0  0  0  0  0  0  0  0  0
   -2.3195   20.4457  -32.6245 H   0  0  0  0  0  0  0  0  0  0  0  0
   -3.5580   22.5500  -30.9900 H   0  0  0  0  0  0  0  0  0  0  0  0
   -4.8407   23.2417  -32.6164 H   0  0  0  0  0  0  0  0  0  0  0  0
   -4.1513   21.9653  -33.7093 H   0  0  0  0  0  0  0  0  0  0  0  0
   -9.3352   22.2471  -30.5000 H   0  0  0  0  0  0  0  0  0  0  0  0
   -9.2315   23.2731  -31.9708 H   0  0  0  0  0  0  0  0  0  0  0  0
  -10.2671   21.8054  -31.9708 H   0  0  0  0  0  0  0  0  0  0  0  0
   -8.3020   17.5650  -32.9840 H   0  0  0  0  0  0  0  0  0  0  0  0
   -7.4530   15.4433  -33.6713 H   0  0  0  0  0  0  0  0  0  0  0  0
   -5.5042   14.0855  -34.4301 H   0  0  0  0  0  0  0  0  0  0  0  0
   -3.2653   15.1498  -34.7080 H   0  0  0  0  0  0  0  0  0  0  0  0
   -2.9660   17.5822  -34.2292 H   0  0  0  0  0  0  0  0  0  0  0  0
   -3.9150   19.7307  -33.5266 H   0  0  0  0  0  0  0  0  0  0  0  0
  1  2  1  0
  2  3  1  0
  3  4  1  0
  3  5  1  0
  5  6  1  0
  6  7  1  0
  7  8  1  0
  8  9  1  0
  9 10  1  0
 10 11  1  0
 11 12  1  0
 12 13  1  0
 13 14  1  0
 14 15  1  0
 15 16  2  0
 16 17  1  0
 17 18  1  0
 17 19  1  0
 19 20  2  0
 19 21  1  0
 21 22  2  0
 22 23  1  0
 23 24  2  0
 24 25  1  0
 25 26  2  0
 26 27  1  0
 27 28  2  0
 28 29  1  0
 29 30  2  0
 30 15  1  0
 30 21  1  0
 28 23  1  0
  1 31  1  0
  1 32  1  0
  1 33  1  0
  2 34  1  0
  2 35  1  0
  4 36  1  0
  4 37  1  0
  4 38  1  0
  5 39  1  0
  5 40  1  0
  6 41  1  0
  6 42  1  0
  8 43  1  0
  8 44  1  0
  9 45  1  0
  9 46  1  0
 11 47  1  0
 11 48  1  0
 12 49  1  0
 12 50  1  0
 13 51  1  0
 14 52  1  0
 14 53  1  0
 18 54  1  0
 18 55  1  0
 18 56  1  0
 22 57  1  0
 24 58  1  0
 25 59  1  0
 26 60  1  0
 27 61  1  0
 29 62  1  0
M  CHG  1  22   1
M  END
>  <UniqueID>  (9) 
9

>  <SMILES>  (9) 
CCN(C)CCOCCOCCNCc1nn(C)c(=O)c2[nH+]c3ccccc3cc12

>  <Energy>  (9) 
75.14881830424059

>  <Genealogy>  (9) 
CCN(C)CCOCCOCCNCc1nn(C)c(=O)c2[nH+]c3ccccc3cc12 (protonated)
CCN(C)CCOCCOCCNCc1nn(C)c(=O)c2[nH+]c3ccccc3cc12 (3D coordinates assigned)
CCN(C)CCOCCOCCNCc1nn(C)c(=O)c2[nH+]c3ccccc3cc12 (optimized conformer: 75.14881830424059 kcal/mol)

>  <smiles>  (9) 
CCN(C)CCOCCOCCNCc1nn(C)c(=O)c2nc3ccccc3cc12

>  <score_type>  (9) 
oracle

>  <origin>  (9) 
adg

>  <m_score__min__energy>  (9) 
-8.9800000000000004

>  <m_primary>  (9) 
energy

$$$$
9:0
     RDKit          3D

 80 82  0  0  0  0  0  0  0  0999 V2000
   -0.9360   22.2310  -26.3610 C   0  0  0  0  0  0  0  0  0  0  0  0
   -0.7620   21.6460  -27.7590 C   0  0  0  0  0  0  0  0  0  0  0  0
   -1.1130   20.2090  -27.7600 N   0  0  0  0  0  0  0  0  0  0  0  0
   -2.5620   20.0080  -27.5320 C   0  0  0  0  0  0  0  0  0  0  0  0
   -2.7880   18.9510  -26.4560 C   0  0  0  0  0  0  0  0  0  0  0  0
   -0.6650   19.5390  -29.0050 C   0  0  0  0  0  0  0  0  0  0  0  0
   -0.2390   20.5970  -30.0270 C   0  0  0  0  0  0  0  0  0  0  0  0
   -1.2340   20.6810  -31.1970 C   0  0  0  0  0  0  0  0  0  0  0  0
   -0.7060   21.5490  -32.3480 C   0  0  0  0  0  0  0  0  0  0  0  0
   -0.8960   20.9300  -33.7480 C   0  0  0  0  0  0  0  0  0  0  0  0
   -2.3020   20.6800  -34.0920 N   0  0  0  0  0  0  0  0  0  0  0  0
   -3.0010   19.4790  -33.7280 C   0  0  0  0  0  0  0  0  0  0  0  0
   -2.2890   18.2720  -33.7410 C   0  0  0  0  0  0  0  0  0  0  0  0
   -2.9330   17.0660  -33.5270 C   0  0  0  0  0  0  0  0  0  0  0  0
   -4.3080   17.0340  -33.3390 C   0  0  0  0  0  0  0  0  0  0  0  0
   -5.0730   18.2250  -33.3140 C   0  0  0  0  0  0  0  0  0  0  0  0
   -4.3950   19.4770  -33.4050 C   0  0  0  0  0  0  0  0  0  0  0  0
   -5.1330   20.6610  -33.1570 C   0  0  0  0  0  0  0  0  0  0  0  0
   -4.4790   21.9330  -33.0670 N   0  0  0  0  0  0  0  0  0  0  0  0
   -3.8300   22.3800  -31.8340 C   0  0  0  0  0  0  0  0  0  0  0  0
   -4.7950   23.2170  -30.9950 C   0  0  0  0  0  0  0  0  0  0  0  0
   -4.2210   24.5570  -30.7410 N   0  0  0  0  0  0  0  0  0  0  0  0
   -5.2960   25.5620  -30.5650 C   0  0  0  0  0  0  0  0  0  0  0  0
   -6.5690   24.8970  -30.0480 C   0  0  0  0  0  0  0  0  0  0  0  0
   -3.3270   24.5360  -29.5590 C   0  0  0  0  0  0  0  0  0  0  0  0
   -3.7510   23.4450  -28.5780 C   0  0  0  0  0  0  0  0  0  0  0  0
   -6.4900   20.5690  -32.7850 C   0  0  0  0  0  0  0  0  0  0  0  0
   -7.2080   21.7150  -32.3680 C   0  0  0  0  0  0  0  0  0  0  0  0
   -8.5420   21.6200  -31.9790 C   0  0  0  0  0  0  0  0  0  0  0  0
   -9.1800   20.3880  -31.9740 C   0  0  0  0  0  0  0  0  0  0  0  0
   -8.4910   19.2420  -32.3650 C   0  0  0  0  0  0  0  0  0  0  0  0
   -7.1400   19.3100  -32.7960 C   0  0  0  0  0  0  0  0  0  0  0  0
   -6.4480   18.1810  -33.1770 N   0  0  0  0  0  0  0  0  0  0  0  0
   -7.1800   16.9240  -33.4550 C   0  0  0  0  0  0  0  0  0  0  0  0
   -0.7069   21.4606  -25.6100 H   0  0  0  0  0  0  0  0  0  0  0  0
   -0.2524   23.0832  -26.2324 H   0  0  0  0  0  0  0  0  0  0  0  0
   -1.9742   22.5711  -26.2324 H   0  0  0  0  0  0  0  0  0  0  0  0
   -1.4189   22.1808  -28.4608 H   0  0  0  0  0  0  0  0  0  0  0  0
    0.2881   21.7587  -28.0666 H   0  0  0  0  0  0  0  0  0  0  0  0
   -3.0133   20.9574  -27.2082 H   0  0  0  0  0  0  0  0  0  0  0  0
   -3.0276   19.6691  -28.4692 H   0  0  0  0  0  0  0  0  0  0  0  0
   -2.6894   19.4124  -25.4623 H   0  0  0  0  0  0  0  0  0  0  0  0
   -3.7971   18.5269  -26.5648 H   0  0  0  0  0  0  0  0  0  0  0  0
   -2.0405   18.1513  -26.5648 H   0  0  0  0  0  0  0  0  0  0  0  0
    0.1874   18.8807  -28.7812 H   0  0  0  0  0  0  0  0  0  0  0  0
   -1.4906   18.9408  -29.4179 H   0  0  0  0  0  0  0  0  0  0  0  0
   -0.1894   21.5763  -29.5286 H   0  0  0  0  0  0  0  0  0  0  0  0
    0.7446   20.3130  -30.4292 H   0  0  0  0  0  0  0  0  0  0  0  0
   -1.4209   19.6655  -31.5764 H   0  0  0  0  0  0  0  0  0  0  0  0
   -2.1578   21.1451  -30.8212 H   0  0  0  0  0  0  0  0  0  0  0  0
   -1.2347   22.5133  -32.3229 H   0  0  0  0  0  0  0  0  0  0  0  0
    0.3782   21.6520  -32.1934 H   0  0  0  0  0  0  0  0  0  0  0  0
   -0.4722   21.6187  -34.4937 H   0  0  0  0  0  0  0  0  0  0  0  0
   -0.3858   19.9555  -33.7429 H   0  0  0  0  0  0  0  0  0  0  0  0
   -2.8820   21.5350  -34.2390 H   0  0  0  0  0  0  0  0  0  0  0  0
   -1.2043   18.2834  -33.9237 H   0  0  0  0  0  0  0  0  0  0  0  0
   -2.3542   16.1308  -33.5058 H   0  0  0  0  0  0  0  0  0  0  0  0
   -4.8125   16.0654  -33.2070 H   0  0  0  0  0  0  0  0  0  0  0  0
   -4.3430   22.4660  -33.9570 H   0  0  0  0  0  0  0  0  0  0  0  0
   -3.5130   21.5016  -31.2527 H   0  0  0  0  0  0  0  0  0  0  0  0
   -2.9574   22.9970  -32.0945 H   0  0  0  0  0  0  0  0  0  0  0  0
   -5.7465   23.3259  -31.5361 H   0  0  0  0  0  0  0  0  0  0  0  0
   -4.9658   22.7114  -30.0331 H   0  0  0  0  0  0  0  0  0  0  0  0
   -4.9657   26.3228  -29.8424 H   0  0  0  0  0  0  0  0  0  0  0  0
   -5.5085   26.0302  -31.5375 H   0  0  0  0  0  0  0  0  0  0  0  0
   -6.5634   24.8999  -28.9480 H   0  0  0  0  0  0  0  0  0  0  0  0
   -7.4463   25.4520  -30.4117 H   0  0  0  0  0  0  0  0  0  0  0  0
   -6.6146   23.8599  -30.4117 H   0  0  0  0  0  0  0  0  0  0  0  0
   -2.2960   24.3426  -29.8900 H   0  0  0  0  0  0  0  0  0  0  0  0
   -3.3898   25.5101  -29.0519 H   0  0  0  0  0  0  0  0  0  0  0  0
   -3.6115   23.8040  -27.5476 H   0  0  0  0  0  0  0  0  0  0  0  0
   -4.8106   23.1979  -28.7399 H   0  0  0  0  0  0  0  0  0  0  0  0
   -3.1363   22.5473  -28.7399 H   0  0  0  0  0  0  0  0  0  0  0  0
   -6.7060   22.6936  -32.3509 H   0  0  0  0  0  0  0  0  0  0  0  0
   -9.0908   22.5236  -31.6751 H   0  0  0  0  0  0  0  0  0  0  0  0
  -10.2320   20.3159  -31.6607 H   0  0  0  0  0  0  0  0  0  0  0  0
   -9.0022   18.2683  -32.3394 H   0  0  0  0  0  0  0  0  0  0  0  0
   -7.4592   16.4445  -32.5052 H   0  0  0  0  0  0  0  0  0  0  0  0
   -8.0884   17.1489  -34.0332 H   0  0  0  0  0  0  0  0  0  0  0  0
   -6.5361   16.2449  -34.0332 H   0  0  0  0  0  0  0  0  0  0  0  0
  1  2  1  0
  2  3  1  0
  3  4  1  0
  4  5  1  0
  3  6  1  0
  6  7  1  0
  7  8  1  0
  8  9  1  0
  9 10  1  0
 10 11  1  0
 11 12  1  0
 12 13  2  0
 13 14  1  0
 14 15  2  0
 15 16  1  0
 16 17  2  0
 17 18  1  0
 18 19  1  0
 19 20  1  0
 20 21  1  0
 21 22  1  0
 22 23  1  0
 23 24  1  0
 22 25  1  0
 25 26  1  0
 18 27  2  0
 27 28  1  0
 28 29  2  0
 29 30  1  0
 30 31  2  0
 31 32  1  0
 32 33  2  0
 33 34  1  0
 17 12  1  0
 32 27  1  0
 33 16  1  0
  1 35  1  0
  1 36  1  0
  1 37  1  0
  2 38  1  0
  2 39  1  0
  4 40  1  0
  4 41  1  0
  5 42  1  0
  5 43  1  0
  5 44  1  0
  6 45  1  0
  6 46  1  0
  7 47  1  0
  7 48  1  0
  8 49  1  0
  8 50  1  0
  9 51  1  0
  9 52  1  0
 10 53  1  0
 10 54  1  0
 11 55  1  0
 13 56  1  0
 14 57  1  0
 15 58  1  0
 19 59  1  0
 20 60  1  0
 20 61  1  0
 21 62  1  0
 21 63  1  0
 23 64  1  0
 23 65  1  0
 24 66  1  0
 24 67  1  0
 24 68  1  0
 25 69  1  0
 25 70  1  0
 26 71  1  0
 26 72  1  0
 26 73  1  0
 28 74  1  0
 29 75  1  0
 30 76  1  0
 31 77  1  0
 34 78  1  0
 34 79  1  0
 34 80  1  0
M  CHG  1  33   1
M  END
>  <UniqueID>  (10) 
10

>  <SMILES>  (10) 
CCN(CC)CCCCCNc1cccc2c1c(NCCN(CC)CC)c1ccccc1[n+]2C

>  <Energy>  (10) 
103.66037650117836

>  <Genealogy>  (10) 
CCN(CC)CCCCCNc1cccc2c1c(NCCN(CC)CC)c1ccccc1[n+]2C (3D coordinates assigned)
CCN(CC)CCCCCNc1cccc2c1c(NCCN(CC)CC)c1ccccc1[n+]2C (optimized conformer: 103.66037650117836 kcal/mol)

>  <smiles>  (10) 
CCN(CC)CCCCCNc1cccc2c1c(NCCN(CC)CC)c1ccccc1[n+]2C

>  <score_type>  (10) 
oracle

>  <origin>  (10) 
adg

>  <m_score__min__energy>  (10) 
-9.6300000000000008

>  <m_primary>  (10) 
energy

$$$$
10:0
     RDKit          3D

 36 38  0  0  0  0  0  0  0  0999 V2000
   -1.9300   25.0320  -27.0190 C   0  0  0  0  0  0  0  0  0  0  0  0
   -1.5970   24.7810  -28.4860 C   0  0  0  0  0  0  0  0  0  0  0  0
   -2.7560   25.0580  -29.3350 N   0  0  0  0  0  0  0  0  0  0  0  0
   -3.4440   24.0740  -30.1360 C   0  0  0  0  0  0  0  0  0  0  0  0
   -2.7970   22.9240  -30.6220 C   0  0  0  0  0  0  0  0  0  0  0  0
   -3.4930   21.9950  -31.3980 C   0  0  0  0  0  0  0  0  0  0  0  0
   -4.8500   22.1930  -31.7080 C   0  0  0  0  0  0  0  0  0  0  0  0
   -5.5130   23.3230  -31.1900 C   0  0  0  0  0  0  0  0  0  0  0  0
   -4.8040   24.2610  -30.4260 C   0  0  0  0  0  0  0  0  0  0  0  0
   -6.9620   23.5760  -31.5260 C   0  0  0  0  0  0  0  0  0  0  0  0
   -7.7100   22.3050  -31.8350 C   0  0  0  0  0  0  0  0  0  0  0  0
   -9.1050   22.2650  -31.6900 C   0  0  0  0  0  0  0  0  0  0  0  0
   -9.8160   21.1080  -32.0120 C   0  0  0  0  0  0  0  0  0  0  0  0
   -9.1410   19.9840  -32.4900 C   0  0  0  0  0  0  0  0  0  0  0  0
   -7.7540   20.0160  -32.6570 C   0  0  0  0  0  0  0  0  0  0  0  0
   -7.0260   21.1830  -32.3490 C   0  0  0  0  0  0  0  0  0  0  0  0
   -5.5900   21.2390  -32.5040 N   0  0  0  0  0  0  0  0  0  0  0  0
   -4.8990   20.3450  -33.4430 C   0  0  0  0  0  0  0  0  0  0  0  0
   -1.2134   24.4919  -26.3827 H   0  0  0  0  0  0  0  0  0  0  0  0
   -1.8678   26.1098  -26.8081 H   0  0  0  0  0  0  0  0  0  0  0  0
   -2.9490   24.6753  -26.8081 H   0  0  0  0  0  0  0  0  0  0  0  0
   -0.7658   25.4367  -28.7847 H   0  0  0  0  0  0  0  0  0  0  0  0
   -1.3137   23.7252  -28.6083 H   0  0  0  0  0  0  0  0  0  0  0  0
   -3.1080   26.0420  -29.3500 H   0  0  0  0  0  0  0  0  0  0  0  0
   -1.7353   22.7551  -30.3892 H   0  0  0  0  0  0  0  0  0  0  0  0
   -2.9744   21.0993  -31.7705 H   0  0  0  0  0  0  0  0  0  0  0  0
   -5.3211   25.1556  -30.0489 H   0  0  0  0  0  0  0  0  0  0  0  0
   -7.4427   24.0692  -30.6683 H   0  0  0  0  0  0  0  0  0  0  0  0
   -6.9924   24.2101  -32.4243 H   0  0  0  0  0  0  0  0  0  0  0  0
   -9.6417   23.1511  -31.3202 H   0  0  0  0  0  0  0  0  0  0  0  0
  -10.9088   21.0821  -31.8890 H   0  0  0  0  0  0  0  0  0  0  0  0
   -9.7022   19.0705  -32.7360 H   0  0  0  0  0  0  0  0  0  0  0  0
   -7.2274   19.1255  -33.0309 H   0  0  0  0  0  0  0  0  0  0  0  0
   -4.3212   19.5974  -32.8797 H   0  0  0  0  0  0  0  0  0  0  0  0
   -5.6398   19.8348  -34.0762 H   0  0  0  0  0  0  0  0  0  0  0  0
   -4.2186   20.9334  -34.0762 H   0  0  0  0  0  0  0  0  0  0  0  0
  1  2  1  0
  2  3  1  0
  3  4  1  0
  4  5  2  0
  5  6  1  0
  6  7  2  0
  7  8  1  0
  8  9  2  0
  8 10  1  0
 10 11  1  0
 11 12  2  0
 12 13  1  0
 13 14  2  0
 14 15  1  0
 15 16  2  0
 16 17  1  0
 17 18  1  0
  9  4  1  0
 16 11  1  0
 17  7  1  0
  1 19  1  0
  1 20  1  0
  1 21  1  0
  2 22  1  0
  2 23  1  0
  3 24  1  0
  5 25  1  0
  6 26  1  0
  9 27  1  0
 10 28  1  0
 10 29  1  0
 12 30  1  0
 13 31  1  0
 14 32  1  0
 15 33  1  0
 18 34  1  0
 18 35  1  0
 18 36  1  0
M  END
>  <UniqueID>  (11) 
11

>  <SMILES>  (11) 
CCNc1ccc2c(c1)Cc1ccccc1N2C

>  <Energy>  (11) 
43.04025598722429

>  <Genealogy>  (11) 
CCNc1ccc2c(c1)Cc1ccccc1N2C (3D coordinates assigned)
CCNc1ccc2c(c1)Cc1ccccc1N2C (nonaromatic ring conformer: 43.04025598722429 kcal/mol)

>  <smiles>  (11) 
CCNc1ccc2c(c1)Cc1ccccc1N2C

>  <score_type>  (11) 
oracle

>  <origin>  (11) 
adg

>  <m_score__min__energy>  (11) 
-8.1099999999999994

>  <m_primary>  (11) 
energy

$$$$
11:0
     RDKit          3D

 54 57  0  0  0  0  0  0  0  0999 V2000
   -1.8860   23.3570  -29.7320 C   0  0  0  0  0  0  0  0  0  0  0  0
   -3.1590   24.1000  -29.3390 C   0  0  0  0  0  0  0  0  0  0  0  0
   -3.6290   24.9150  -30.4680 N   0  0  0  0  0  0  0  0  0  0  0  0
   -5.0990   24.9650  -30.5200 C   0  0  0  0  0  0  0  0  0  0  0  0
   -5.6780   23.8480  -31.4050 C   0  0  0  0  0  0  0  0  0  0  0  0
   -4.7080   22.6860  -31.6680 C   0  0  0  0  0  0  0  0  0  0  0  0
   -4.9910   22.0110  -32.9380 N   0  0  0  0  0  0  0  0  0  0  0  0
   -5.2700   20.6050  -33.0220 C   0  0  0  0  0  0  0  0  0  0  0  0
   -6.5290   20.0670  -32.6630 C   0  0  0  0  0  0  0  0  0  0  0  0
   -7.5180   20.8770  -32.0680 C   0  0  0  0  0  0  0  0  0  0  0  0
   -8.7530   20.3450  -31.7060 C   0  0  0  0  0  0  0  0  0  0  0  0
   -9.0180   18.9950  -31.9030 C   0  0  0  0  0  0  0  0  0  0  0  0
   -8.0490   18.1600  -32.4580 C   0  0  0  0  0  0  0  0  0  0  0  0
   -6.7880   18.6670  -32.8540 C   0  0  0  0  0  0  0  0  0  0  0  0
   -5.8100   17.8400  -33.3880 N   0  0  0  0  0  0  0  0  0  0  0  0
   -6.0880   16.4280  -33.7060 C   0  0  0  0  0  0  0  0  0  0  0  0
   -4.5600   18.3640  -33.5950 C   0  0  0  0  0  0  0  0  0  0  0  0
   -3.4580   17.6820  -33.9960 N   0  0  0  0  0  0  0  0  0  0  0  0
   -2.4880   18.6130  -34.0970 C   0  0  0  0  0  0  0  0  0  0  0  0
   -1.1700   18.4000  -34.4920 C   0  0  0  0  0  0  0  0  0  0  0  0
   -0.3090   19.5090  -34.5480 C   0  0  0  0  0  0  0  0  0  0  0  0
   -0.7670   20.8030  -34.2100 C   0  0  0  0  0  0  0  0  0  0  0  0
    0.1430   21.8680  -34.2880 O   0  0  0  0  0  0  0  0  0  0  0  0
    1.0150   22.0990  -35.3910 C   0  0  0  0  0  0  0  0  0  0  0  0
   -2.1120   20.9860  -33.8060 C   0  0  0  0  0  0  0  0  0  0  0  0
   -2.9480   19.8670  -33.7600 C   0  0  0  0  0  0  0  0  0  0  0  0
   -4.2840   19.7050  -33.4260 C   0  0  0  0  0  0  0  0  0  0  0  0
   -1.3493   23.0437  -28.8244 H   0  0  0  0  0  0  0  0  0  0  0  0
   -2.1481   22.4701  -30.3275 H   0  0  0  0  0  0  0  0  0  0  0  0
   -1.2427   24.0214  -30.3275 H   0  0  0  0  0  0  0  0  0  0  0  0
   -3.9369   23.3720  -29.0654 H   0  0  0  0  0  0  0  0  0  0  0  0
   -2.9466   24.7556  -28.4817 H   0  0  0  0  0  0  0  0  0  0  0  0
   -3.2940   24.4610  -31.3510 H   0  0  0  0  0  0  0  0  0  0  0  0
   -5.4953   24.8526  -29.5001 H   0  0  0  0  0  0  0  0  0  0  0  0
   -5.3929   25.9320  -30.9542 H   0  0  0  0  0  0  0  0  0  0  0  0
   -6.5733   23.4445  -30.9095 H   0  0  0  0  0  0  0  0  0  0  0  0
   -5.8996   24.3019  -32.3822 H   0  0  0  0  0  0  0  0  0  0  0  0
   -3.6813   23.0799  -31.6963 H   0  0  0  0  0  0  0  0  0  0  0  0
   -4.8303   21.9515  -30.8583 H   0  0  0  0  0  0  0  0  0  0  0  0
   -4.9480   22.5660  -33.8240 H   0  0  0  0  0  0  0  0  0  0  0  0
   -7.3115   21.9423  -31.8876 H   0  0  0  0  0  0  0  0  0  0  0  0
   -9.5213   20.9954  -31.2627 H   0  0  0  0  0  0  0  0  0  0  0  0
   -9.9977   18.5829  -31.6195 H   0  0  0  0  0  0  0  0  0  0  0  0
   -8.2679   17.0901  -32.5903 H   0  0  0  0  0  0  0  0  0  0  0  0
   -6.2004   15.8572  -32.7725 H   0  0  0  0  0  0  0  0  0  0  0  0
   -7.0168   16.3600  -34.2914 H   0  0  0  0  0  0  0  0  0  0  0  0
   -5.2543   16.0130  -34.2914 H   0  0  0  0  0  0  0  0  0  0  0  0
   -3.3390   16.6600  -34.1710 H   0  0  0  0  0  0  0  0  0  0  0  0
   -0.8131   17.3927  -34.7527 H   0  0  0  0  0  0  0  0  0  0  0  0
    0.7366   19.3683  -34.8594 H   0  0  0  0  0  0  0  0  0  0  0  0
    2.0154   22.3640  -35.0183 H   0  0  0  0  0  0  0  0  0  0  0  0
    1.0814   21.1875  -36.0031 H   0  0  0  0  0  0  0  0  0  0  0  0
    0.6214   22.9239  -36.0031 H   0  0  0  0  0  0  0  0  0  0  0  0
   -2.4890   21.9833  -33.5354 H   0  0  0  0  0  0  0  0  0  0  0  0
  1  2  1  0
  2  3  1  0
  3  4  1  0
  4  5  1  0
  5  6  1  0
  6  7  1  0
  7  8  1  0
  8  9  2  0
  9 10  1  0
 10 11  2  0
 11 12  1  0
 12 13  2  0
 13 14  1  0
 14 15  2  0
 15 16  1  0
 15 17  1  0
 17 18  1  0
 18 19  1  0
 19 20  2  0
 20 21  1  0
 21 22  2  0
 22 23  1  0
 23 24  1  0
 22 25  1  0
 25 26  2  0
 26 27  1  0
 27  8  1  0
 14  9  1  0
 27 17  2  0
 26 19  1  0
  1 28  1  0
  1 29  1  0
  1 30  1  0
  2 31  1  0
  2 32  1  0
  3 33  1  0
  4 34  1  0
  4 35  1  0
  5 36  1  0
  5 37  1  0
  6 38  1  0
  6 39  1  0
  7 40  1  0
 10 41  1  0
 11 42  1  0
 12 43  1  0
 13 44  1  0
 16 45  1  0
 16 46  1  0
 16 47  1  0
 18 48  1  0
 20 49  1  0
 21 50  1  0
 24 51  1  0
 24 52  1  0
 24 53  1  0
 25 54  1  0
M  CHG  1  15   1
M  END
>  <UniqueID>  (12) 
12

>  <SMILES>  (12) 
CCNCCCNc1c2ccccc2[n+](C)c2[nH]c3ccc(OC)cc3c12

>  <Energy>  (12) 
106.73862038813543

>  <Genealogy>  (12) 
CCNCCCNc1c2ccccc2[n+](C)c2[nH]c3ccc(OC)cc3c12 (3D coordinates assigned)
CCNCCCNc1c2ccccc2[n+](C)c2[nH]c3ccc(OC)cc3c12 (optimized conformer: 106.73862038813543 kcal/mol)

>  <smiles>  (12) 
CCNCCCNc1c2ccccc2[n+](C)c2[nH]c3ccc(OC)cc3c12

>  <score_type>  (12) 
oracle

>  <origin>  (12) 
adg

>  <m_score__min__energy>  (12) 
-9.5299999999999994

>  <m_primary>  (12) 
energy

$$$$
12:0
     RDKit          3D

 44 44  0  0  0  0  0  0  0  0999 V2000
   -5.2100   19.9970  -33.4050 C   0  0  0  0  0  0  0  0  0  0  0  0
   -5.1870   20.8410  -32.1360 C   0  0  0  0  0  0  0  0  0  0  0  0
   -4.0190   21.7300  -32.1460 N   0  0  0  0  0  0  0  0  0  0  0  0
   -2.8430   21.0920  -32.7630 C   0  0  0  0  0  0  0  0  0  0  0  0
   -1.5250   21.4300  -32.0420 C   0  0  0  0  0  0  0  0  0  0  0  0
   -1.7610   21.8330  -30.7050 O   0  0  0  0  0  0  0  0  0  0  0  0
   -1.8120   20.7110  -29.8480 C   0  0  0  0  0  0  0  0  0  0  0  0
   -2.7920   20.9870  -28.7090 C   0  0  0  0  0  0  0  0  0  0  0  0
   -3.6960   22.0970  -29.0410 N   0  0  0  0  0  0  0  0  0  0  0  0
   -3.5020   23.2780  -28.1790 C   0  0  0  0  0  0  0  0  0  0  0  0
   -4.6070   24.3100  -28.4240 C   0  0  0  0  0  0  0  0  0  0  0  0
   -4.9260   24.5660  -30.1660 S   0  0  0  0  0  0  0  0  0  0  0  0
   -5.2050   26.0240  -30.4080 O   0  0  0  0  0  0  0  0  0  0  0  0
   -3.7240   24.1710  -30.9780 O   0  0  0  0  0  0  0  0  0  0  0  0
   -6.3310   23.6250  -30.6610 C   0  0  0  0  0  0  0  0  0  0  0  0
   -6.8880   23.7860  -31.9380 C   0  0  0  0  0  0  0  0  0  0  0  0
   -7.9940   23.0230  -32.3220 C   0  0  0  0  0  0  0  0  0  0  0  0
   -8.5530   22.1020  -31.4320 C   0  0  0  0  0  0  0  0  0  0  0  0
   -8.0010   21.9380  -30.1580 C   0  0  0  0  0  0  0  0  0  0  0  0
   -6.8890   22.6930  -29.7750 C   0  0  0  0  0  0  0  0  0  0  0  0
   -5.2391   18.9308  -33.1358 H   0  0  0  0  0  0  0  0  0  0  0  0
   -6.1016   20.2500  -33.9975 H   0  0  0  0  0  0  0  0  0  0  0  0
   -4.3060   20.2011  -33.9975 H   0  0  0  0  0  0  0  0  0  0  0  0
   -6.1045   21.4455  -32.0838 H   0  0  0  0  0  0  0  0  0  0  0  0
   -5.1279   20.1766  -31.2613 H   0  0  0  0  0  0  0  0  0  0  0  0
   -3.7960   22.0200  -31.1670 H   0  0  0  0  0  0  0  0  0  0  0  0
   -2.9845   20.0014  -32.7410 H   0  0  0  0  0  0  0  0  0  0  0  0
   -2.7627   21.4760  -33.7907 H   0  0  0  0  0  0  0  0  0  0  0  0
   -0.8789   20.5398  -32.0396 H   0  0  0  0  0  0  0  0  0  0  0  0
   -1.0394   22.2605  -32.5754 H   0  0  0  0  0  0  0  0  0  0  0  0
   -2.1475   19.8305  -30.4156 H   0  0  0  0  0  0  0  0  0  0  0  0
   -0.8113   20.5193  -29.4335 H   0  0  0  0  0  0  0  0  0  0  0  0
   -3.3889   20.0821  -28.5224 H   0  0  0  0  0  0  0  0  0  0  0  0
   -2.2157   21.2638  -27.8139 H   0  0  0  0  0  0  0  0  0  0  0  0
   -3.4970   22.3790  -30.0300 H   0  0  0  0  0  0  0  0  0  0  0  0
   -3.5271   22.9645  -27.1249 H   0  0  0  0  0  0  0  0  0  0  0  0
   -2.5301   23.7352  -28.4164 H   0  0  0  0  0  0  0  0  0  0  0  0
   -5.5318   23.9584  -27.9433 H   0  0  0  0  0  0  0  0  0  0  0  0
   -4.2717   25.2679  -27.9998 H   0  0  0  0  0  0  0  0  0  0  0  0
   -6.4535   24.5142  -32.6386 H   0  0  0  0  0  0  0  0  0  0  0  0
   -8.4252   23.1476  -33.3263 H   0  0  0  0  0  0  0  0  0  0  0  0
   -9.4271   21.5062  -31.7337 H   0  0  0  0  0  0  0  0  0  0  0  0
   -8.4421   21.2144  -29.4567 H   0  0  0  0  0  0  0  0  0  0  0  0
   -6.4505   22.5555  -28.7756 H   0  0  0  0  0  0  0  0  0  0  0  0
  1  2  1  0
  2  3  1  0
  3  4  1  0
  4  5  1  0
  5  6  1  0
  6  7  1  0
  7  8  1  0
  8  9  1  0
  9 10  1  0
 10 11  1  0
 11 12  1  0
 12 13  2  0
 12 14  2  0
 12 15  1  0
 15 16  2  0
 16 17  1  0
 17 18  2  0
 18 19  1  0
 19 20  2  0
 20 15  1  0
  1 21  1  0
  1 22  1  0
  1 23  1  0
  2 24  1  0
  2 25  1  0
  3 26  1  0
  4 27  1  0
  4 28  1  0
  5 29  1  0
  5 30  1  0
  7 31  1  0
  7 32  1  0
  8 33  1  0
  8 34  1  0
  9 35  1  0
 10 36  1  0
 10 37  1  0
 11 38  1  0
 11 39  1  0
 16 40  1  0
 17 41  1  0
 18 42  1  0
 19 43  1  0
 20 44  1  0
M  END
>  <UniqueID>  (13) 
13

>  <SMILES>  (13) 
CCNCCOCCNCCS(=O)(=O)c1ccccc1

>  <Energy>  (13) 
30.487685632734628

>  <Genealogy>  (13) 
CCNCCOCCNCCS(=O)(=O)c1ccccc1 (3D coordinates assigned)
CCNCCOCCNCCS(=O)(=O)c1ccccc1 (optimized conformer: 30.487685632734628 kcal/mol)

>  <smiles>  (13) 
CCNCCOCCNCCS(=O)(=O)c1ccccc1

>  <score_type>  (13) 
oracle

>  <origin>  (13) 
adg

>  <m_score__min__energy>  (13) 
-5.5599999999999996

>  <m_primary>  (13) 
energy

$$$$
13:0
     RDKit          3D

 49 51  0  0  0  0  0  0  0  0999 V2000
   -6.3060   25.2060  -29.7930 C   0  0  0  0  0  0  0  0  0  0  0  0
   -4.9880   24.5020  -30.1090 C   0  0  0  0  0  0  0  0  0  0  0  0
   -4.9440   23.1570  -29.4990 N   0  0  0  0  0  0  0  0  0  0  0  0
   -4.2530   23.1510  -28.1950 C   0  0  0  0  0  0  0  0  0  0  0  0
   -4.4180   22.1250  -30.4240 C   0  0  0  0  0  0  0  0  0  0  0  0
   -3.7630   22.6840  -31.7100 C   0  0  0  0  0  0  0  0  0  0  0  0
   -4.4370   22.1860  -32.9100 N   0  0  0  0  0  0  0  0  0  0  0  0
   -5.4370   21.1540  -32.8310 C   0  0  0  0  0  0  0  0  0  0  0  0
   -6.7640   21.4760  -32.4930 C   0  0  0  0  0  0  0  0  0  0  0  0
   -7.1730   22.8160  -32.3270 C   0  0  0  0  0  0  0  0  0  0  0  0
   -8.4870   23.1190  -31.9740 C   0  0  0  0  0  0  0  0  0  0  0  0
   -9.4110   22.0980  -31.7820 C   0  0  0  0  0  0  0  0  0  0  0  0
   -9.0260   20.7660  -31.9290 C   0  0  0  0  0  0  0  0  0  0  0  0
   -7.6950   20.4280  -32.2740 C   0  0  0  0  0  0  0  0  0  0  0  0
   -7.2940   19.1130  -32.3850 N   0  0  0  0  0  0  0  0  0  0  0  0
   -8.0460   18.0780  -31.6450 C   0  0  0  0  0  0  0  0  0  0  0  0
   -6.1020   18.8050  -33.0150 C   0  0  0  0  0  0  0  0  0  0  0  0
   -5.8170   17.5090  -33.5620 C   0  0  0  0  0  0  0  0  0  0  0  0
   -6.8800   16.4780  -33.8590 C   0  0  0  0  0  0  0  0  0  0  0  0
   -4.5150   17.2080  -33.9870 C   0  0  0  0  0  0  0  0  0  0  0  0
   -3.5280   18.1840  -34.0050 C   0  0  0  0  0  0  0  0  0  0  0  0
   -3.8310   19.4880  -33.6330 C   0  0  0  0  0  0  0  0  0  0  0  0
   -5.1120   19.8190  -33.1490 C   0  0  0  0  0  0  0  0  0  0  0  0
   -6.4331   25.2739  -28.7025 H   0  0  0  0  0  0  0  0  0  0  0  0
   -6.2939   26.2178  -30.2245 H   0  0  0  0  0  0  0  0  0  0  0  0
   -7.1402   24.6333  -30.2245 H   0  0  0  0  0  0  0  0  0  0  0  0
   -4.8848   24.4053  -31.1999 H   0  0  0  0  0  0  0  0  0  0  0  0
   -4.1637   25.1009  -29.6944 H   0  0  0  0  0  0  0  0  0  0  0  0
   -4.9977   23.1575  -27.3854 H   0  0  0  0  0  0  0  0  0  0  0  0
   -3.6309   22.2474  -28.1138 H   0  0  0  0  0  0  0  0  0  0  0  0
   -3.6153   24.0436  -28.1138 H   0  0  0  0  0  0  0  0  0  0  0  0
   -3.6638   21.5334  -29.8844 H   0  0  0  0  0  0  0  0  0  0  0  0
   -5.2833   21.5288  -30.7494 H   0  0  0  0  0  0  0  0  0  0  0  0
   -3.8236   23.7822  -31.6947 H   0  0  0  0  0  0  0  0  0  0  0  0
   -2.7145   22.3524  -31.7379 H   0  0  0  0  0  0  0  0  0  0  0  0
   -4.3010   22.6870  -33.8150 H   0  0  0  0  0  0  0  0  0  0  0  0
   -6.4480   23.6295  -32.4776 H   0  0  0  0  0  0  0  0  0  0  0  0
   -8.7935   24.1678  -31.8471 H   0  0  0  0  0  0  0  0  0  0  0  0
  -10.4494   22.3419  -31.5132 H   0  0  0  0  0  0  0  0  0  0  0  0
   -9.7662   19.9670  -31.7749 H   0  0  0  0  0  0  0  0  0  0  0  0
   -7.9273   18.2413  -30.5637 H   0  0  0  0  0  0  0  0  0  0  0  0
   -9.1118   18.1391  -31.9103 H   0  0  0  0  0  0  0  0  0  0  0  0
   -7.6586   17.0832  -31.9103 H   0  0  0  0  0  0  0  0  0  0  0  0
   -7.2845   16.0857  -32.9143 H   0  0  0  0  0  0  0  0  0  0  0  0
   -7.6902   16.9434  -34.4395 H   0  0  0  0  0  0  0  0  0  0  0  0
   -6.4396   15.6540  -34.4395 H   0  0  0  0  0  0  0  0  0  0  0  0
   -4.2726   16.1849  -34.3104 H   0  0  0  0  0  0  0  0  0  0  0  0
   -2.5047   17.9247  -34.3142 H   0  0  0  0  0  0  0  0  0  0  0  0
   -3.0624   20.2704  -33.7173 H   0  0  0  0  0  0  0  0  0  0  0  0
  1  2  1  0
  2  3  1  0
  3  4  1  0
  3  5  1  0
  5  6  1  0
  6  7  1  0
  7  8  1  0
  8  9  2  0
  9 10  1  0
 10 11  2  0
 11 12  1  0
 12 13  2  0
 13 14  1  0
 14 15  2  0
 15 16  1  0
 15 17  1  0
 17 18  2  0
 18 19  1  0
 18 20  1  0
 20 21  2  0
 21 22  1  0
 22 23  2  0
 23  8  1  0
 14  9  1  0
 23 17  1  0
  1 24  1  0
  1 25  1  0
  1 26  1  0
  2 27  1  0
  2 28  1  0
  4 29  1  0
  4 30  1  0
  4 31  1  0
  5 32  1  0
  5 33  1  0
  6 34  1  0
  6 35  1  0
  7 36  1  0
 10 37  1  0
 11 38  1  0
 12 39  1  0
 13 40  1  0
 16 41  1  0
 16 42  1  0
 16 43  1  0
 19 44  1  0
 19 45  1  0
 19 46  1  0
 20 47  1  0
 21 48  1  0
 22 49  1  0
M  CHG  1  15   1
M  END
>  <UniqueID>  (14) 
14

>  <SMILES>  (14) 
CCN(C)CCNc1c2ccccc2[n+](C)c2c(C)cccc12

>  <Energy>  (14) 
88.80457430127977

>  <Genealogy>  (14) 
CCN(C)CCNc1c2ccccc2[n+](C)c2c(C)cccc12 (3D coordinates assigned)
CCN(C)CCNc1c2ccccc2[n+](C)c2c(C)cccc12 (optimized conformer: 88.80457430127977 kcal/mol)

>  <smiles>  (14) 
CCN(C)CCNc1c2ccccc2[n+](C)c2c(C)cccc12

>  <score_type>  (14) 
oracle

>  <origin>  (14) 
adg

>  <m_score__min__energy>  (14) 
-8.6400000000000006

>  <m_primary>  (14) 
energy

$$$$
14:0
     RDKit          3D

 54 56  0  0  0  0  0  0  0  0999 V2000
   -6.2900   25.2420  -29.6540 C   0  0  0  0  0  0  0  0  0  0  0  0
   -5.3930   25.3540  -30.8810 C   0  0  0  0  0  0  0  0  0  0  0  0
   -3.9850   25.2630  -30.4820 N   0  0  0  0  0  0  0  0  0  0  0  0
   -3.8570   24.5430  -29.2090 C   0  0  0  0  0  0  0  0  0  0  0  0
   -2.7570   23.4810  -29.3080 C   0  0  0  0  0  0  0  0  0  0  0  0
   -3.2090   22.2600  -30.1130 C   0  0  0  0  0  0  0  0  0  0  0  0
   -3.2130   22.5970  -31.4820 O   0  0  0  0  0  0  0  0  0  0  0  0
   -2.3760   21.7140  -32.2030 C   0  0  0  0  0  0  0  0  0  0  0  0
   -3.2440   20.7770  -33.0560 C   0  0  0  0  0  0  0  0  0  0  0  0
   -4.4880   21.4140  -33.5370 N   0  0  0  0  0  0  0  0  0  0  0  0
   -5.6790   20.6300  -33.2240 C   0  0  0  0  0  0  0  0  0  0  0  0
   -5.7180   19.2380  -33.5280 C   0  0  0  0  0  0  0  0  0  0  0  0
   -4.6690   18.5970  -34.2400 C   0  0  0  0  0  0  0  0  0  0  0  0
   -4.7440   17.2490  -34.5750 C   0  0  0  0  0  0  0  0  0  0  0  0
   -5.8600   16.5050  -34.2250 C   0  0  0  0  0  0  0  0  0  0  0  0
   -6.8940   17.0960  -33.5090 C   0  0  0  0  0  0  0  0  0  0  0  0
   -6.8310   18.4570  -33.1120 C   0  0  0  0  0  0  0  0  0  0  0  0
   -7.8280   19.0200  -32.3440 N   0  0  0  0  0  0  0  0  0  0  0  0
   -8.7840   18.1500  -31.6220 C   0  0  0  0  0  0  0  0  0  0  0  0
   -7.9140   20.3900  -32.2170 C   0  0  0  0  0  0  0  0  0  0  0  0
   -9.0870   20.9990  -31.7030 C   0  0  0  0  0  0  0  0  0  0  0  0
   -9.1540   22.3700  -31.4850 C   0  0  0  0  0  0  0  0  0  0  0  0
   -8.0650   23.1710  -31.7830 C   0  0  0  0  0  0  0  0  0  0  0  0
   -6.9170   22.6150  -32.3410 C   0  0  0  0  0  0  0  0  0  0  0  0
   -6.8220   21.2210  -32.6040 C   0  0  0  0  0  0  0  0  0  0  0  0
   -5.6773   25.3185  -28.7437 H   0  0  0  0  0  0  0  0  0  0  0  0
   -7.0314   26.0546  -29.6664 H   0  0  0  0  0  0  0  0  0  0  0  0
   -6.8088   24.2721  -29.6664 H   0  0  0  0  0  0  0  0  0  0  0  0
   -5.6273   24.5372  -31.5795 H   0  0  0  0  0  0  0  0  0  0  0  0
   -5.5682   26.3239  -31.3695 H   0  0  0  0  0  0  0  0  0  0  0  0
   -3.4820   24.7060  -31.2130 H   0  0  0  0  0  0  0  0  0  0  0  0
   -3.6016   25.2570  -28.4122 H   0  0  0  0  0  0  0  0  0  0  0  0
   -4.8125   24.0487  -28.9794 H   0  0  0  0  0  0  0  0  0  0  0  0
   -1.8783   23.9246  -29.7991 H   0  0  0  0  0  0  0  0  0  0  0  0
   -2.5162   23.1454  -28.2885 H   0  0  0  0  0  0  0  0  0  0  0  0
   -2.5147   21.4246  -29.9395 H   0  0  0  0  0  0  0  0  0  0  0  0
   -4.2187   21.9569  -29.7988 H   0  0  0  0  0  0  0  0  0  0  0  0
   -1.7075   22.2929  -32.8571 H   0  0  0  0  0  0  0  0  0  0  0  0
   -1.7730   21.1205  -31.5001 H   0  0  0  0  0  0  0  0  0  0  0  0
   -2.6568   20.4537  -33.9282 H   0  0  0  0  0  0  0  0  0  0  0  0
   -3.5358   19.9299  -32.4178 H   0  0  0  0  0  0  0  0  0  0  0  0
   -4.4220   21.5630  -34.5670 H   0  0  0  0  0  0  0  0  0  0  0  0
   -4.5250   22.3920  -33.1890 H   0  0  0  0  0  0  0  0  0  0  0  0
   -3.7812   19.1773  -34.5317 H   0  0  0  0  0  0  0  0  0  0  0  0
   -3.9154   16.7721  -35.1191 H   0  0  0  0  0  0  0  0  0  0  0  0
   -5.9272   15.4458  -34.5143 H   0  0  0  0  0  0  0  0  0  0  0  0
   -7.7783   16.4974  -33.2449 H   0  0  0  0  0  0  0  0  0  0  0  0
   -8.6467   18.2749  -30.5378 H   0  0  0  0  0  0  0  0  0  0  0  0
   -9.8123   18.4286  -31.8959 H   0  0  0  0  0  0  0  0  0  0  0  0
   -8.6033   17.1001  -31.8959 H   0  0  0  0  0  0  0  0  0  0  0  0
   -9.9618   20.3734  -31.4721 H   0  0  0  0  0  0  0  0  0  0  0  0
  -10.0715   22.8182  -31.0760 H   0  0  0  0  0  0  0  0  0  0  0  0
   -8.1068   24.2509  -31.5781 H   0  0  0  0  0  0  0  0  0  0  0  0
   -6.0656   23.2679  -32.5835 H   0  0  0  0  0  0  0  0  0  0  0  0
  1  2  1  0
  2  3  1  0
  3  4  1  0
  4  5  1  0
  5  6  1  0
  6  7  1  0
  7  8  1  0
  8  9  1  0
  9 10  1  0
 10 11  1  0
 11 12  2  0
 12 13  1  0
 13 14  2  0
 14 15  1  0
 15 16  2  0
 16 17  1  0
 17 18  2  0
 18 19  1  0
 18 20  1  0
 20 21  2  0
 21 22  1  0
 22 23  2  0
 23 24  1  0
 24 25  2  0
 25 11  1  0
 17 12  1  0
 25 20  1  0
  1 26  1  0
  1 27  1  0
  1 28  1  0
  2 29  1  0
  2 30  1  0
  3 31  1  0
  4 32  1  0
  4 33  1  0
  5 34  1  0
  5 35  1  0
  6 36  1  0
  6 37  1  0
  8 38  1  0
  8 39  1  0
  9 40  1  0
  9 41  1  0
 10 42  1  0
 10 43  1  0
 13 44  1  0
 14 45  1  0
 15 46  1  0
 16 47  1  0
 19 48  1  0
 19 49  1  0
 19 50  1  0
 21 51  1  0
 22 52  1  0
 23 53  1  0
 24 54  1  0
M  CHG  2  10   1  18   1
M  END
>  <UniqueID>  (15) 
15

>  <SMILES>  (15) 
CCNCCCOCC[NH2+]c1c2ccccc2[n+](C)c2ccccc12

>  <Energy>  (15) 
72.8494005822182

>  <Genealogy>  (15) 
CCNCCCOCC[NH2+]c1c2ccccc2[n+](C)c2ccccc12 (protonated)
CCNCCCOCC[NH2+]c1c2ccccc2[n+](C)c2ccccc12 (3D coordinates assigned)
CCNCCCOCC[NH2+]c1c2ccccc2[n+](C)c2ccccc12 (optimized conformer: 72.8494005822182 kcal/mol)

>  <smiles>  (15) 
CCNCCCOCCNc1c2ccccc2[n+](C)c2ccccc12

>  <score_type>  (15) 
oracle

>  <origin>  (15) 
adg

>  <m_score__min__energy>  (15) 
-8.5099999999999998

>  <m_primary>  (15) 
energy

$$$$
15:0
     RDKit          3D

 60 62  0  0  0  0  0  0  0  0999 V2000
   -7.0780   23.1690  -30.4220 C   0  0  0  0  0  0  0  0  0  0  0  0
   -7.9640   22.1320  -31.0460 C   0  0  0  0  0  0  0  0  0  0  0  0
   -9.1280   22.5150  -31.7300 C   0  0  0  0  0  0  0  0  0  0  0  0
   -9.9280   21.5510  -32.3500 C   0  0  0  0  0  0  0  0  0  0  0  0
   -9.5670   20.2030  -32.3030 C   0  0  0  0  0  0  0  0  0  0  0  0
   -8.3980   19.8060  -31.6350 C   0  0  0  0  0  0  0  0  0  0  0  0
   -7.9910   18.3500  -31.6170 C   0  0  0  0  0  0  0  0  0  0  0  0
   -6.9690   18.0440  -32.6460 N   0  0  0  0  0  0  0  0  0  0  0  0
   -5.7180   17.6210  -31.9880 C   0  0  0  0  0  0  0  0  0  0  0  0
   -4.6430   17.2400  -33.0180 C   0  0  0  0  0  0  0  0  0  0  0  0
   -4.4480   18.2690  -34.0570 N   0  0  0  0  0  0  0  0  0  0  0  0
   -3.2640   19.1430  -33.9160 C   0  0  0  0  0  0  0  0  0  0  0  0
   -3.1950   19.8840  -32.5790 C   0  0  0  0  0  0  0  0  0  0  0  0
   -4.1830   20.8940  -32.5690 O   0  0  0  0  0  0  0  0  0  0  0  0
   -3.5660   22.1590  -32.4630 C   0  0  0  0  0  0  0  0  0  0  0  0
   -2.3410   22.0370  -31.5480 C   0  0  0  0  0  0  0  0  0  0  0  0
   -2.6400   22.2540  -30.1150 N   0  0  0  0  0  0  0  0  0  0  0  0
   -1.5710   22.9300  -29.3420 C   0  0  0  0  0  0  0  0  0  0  0  0
   -2.0140   24.2800  -28.7640 C   0  0  0  0  0  0  0  0  0  0  0  0
   -2.9210   24.9390  -29.7000 N   0  0  0  0  0  0  0  0  0  0  0  0
   -4.1990   24.2210  -29.7680 C   0  0  0  0  0  0  0  0  0  0  0  0
   -4.0220   22.6840  -29.8150 C   0  0  0  0  0  0  0  0  0  0  0  0
   -5.6740   18.8920  -34.5920 C   0  0  0  0  0  0  0  0  0  0  0  0
   -6.7020   19.2210  -33.4990 C   0  0  0  0  0  0  0  0  0  0  0  0
   -7.5950   20.7780  -31.0140 C   0  0  0  0  0  0  0  0  0  0  0  0
   -7.1417   23.0945  -29.3264 H   0  0  0  0  0  0  0  0  0  0  0  0
   -6.0384   23.0031  -30.7410 H   0  0  0  0  0  0  0  0  0  0  0  0
   -7.4041   24.1699  -30.7410 H   0  0  0  0  0  0  0  0  0  0  0  0
   -9.4116   23.5767  -31.7783 H   0  0  0  0  0  0  0  0  0  0  0  0
  -10.8447   21.8552  -32.8765 H   0  0  0  0  0  0  0  0  0  0  0  0
  -10.2015   19.4488  -32.7916 H   0  0  0  0  0  0  0  0  0  0  0  0
   -7.5795   18.1090  -30.6257 H   0  0  0  0  0  0  0  0  0  0  0  0
   -8.8838   17.7460  -31.8362 H   0  0  0  0  0  0  0  0  0  0  0  0
   -7.3160   17.2540  -33.2420 H   0  0  0  0  0  0  0  0  0  0  0  0
   -5.3423   18.4484  -31.3681 H   0  0  0  0  0  0  0  0  0  0  0  0
   -5.9339   16.7369  -31.3702 H   0  0  0  0  0  0  0  0  0  0  0  0
   -3.6896   17.0901  -32.4902 H   0  0  0  0  0  0  0  0  0  0  0  0
   -4.9821   16.3235  -33.5230 H   0  0  0  0  0  0  0  0  0  0  0  0
   -2.3615   18.5219  -34.0145 H   0  0  0  0  0  0  0  0  0  0  0  0
   -3.3378   19.9092  -34.7018 H   0  0  0  0  0  0  0  0  0  0  0  0
   -3.3784   19.1787  -31.7551 H   0  0  0  0  0  0  0  0  0  0  0  0
   -2.1990   20.3329  -32.4504 H   0  0  0  0  0  0  0  0  0  0  0  0
   -3.2503   22.5009  -33.4597 H   0  0  0  0  0  0  0  0  0  0  0  0
   -4.2756   22.8866  -32.0421 H   0  0  0  0  0  0  0  0  0  0  0  0
   -1.9202   21.0275  -31.6652 H   0  0  0  0  0  0  0  0  0  0  0  0
   -1.6362   22.8256  -31.8505 H   0  0  0  0  0  0  0  0  0  0  0  0
   -1.2705   22.2744  -28.5114 H   0  0  0  0  0  0  0  0  0  0  0  0
   -0.7373   23.1246  -30.0327 H   0  0  0  0  0  0  0  0  0  0  0  0
   -2.5308   24.1167  -27.8068 H   0  0  0  0  0  0  0  0  0  0  0  0
   -1.1310   24.9156  -28.6016 H   0  0  0  0  0  0  0  0  0  0  0  0
   -3.1100   25.9070  -29.3470 H   0  0  0  0  0  0  0  0  0  0  0  0
   -4.7948   24.4791  -28.8801 H   0  0  0  0  0  0  0  0  0  0  0  0
   -4.7005   24.5251  -30.6986 H   0  0  0  0  0  0  0  0  0  0  0  0
   -4.3095   22.2712  -28.8368 H   0  0  0  0  0  0  0  0  0  0  0  0
   -4.6588   22.3119  -30.6311 H   0  0  0  0  0  0  0  0  0  0  0  0
   -5.3983   19.8242  -35.1069 H   0  0  0  0  0  0  0  0  0  0  0  0
   -6.1402   18.1689  -35.2774 H   0  0  0  0  0  0  0  0  0  0  0  0
   -6.3117   20.0369  -32.8730 H   0  0  0  0  0  0  0  0  0  0  0  0
   -7.6427   19.5208  -33.9839 H   0  0  0  0  0  0  0  0  0  0  0  0
   -6.6710   20.4757  -30.4994 H   0  0  0  0  0  0  0  0  0  0  0  0
  1  2  1  0
  2  3  2  0
  3  4  1  0
  4  5  2  0
  5  6  1  0
  6  7  1  0
  7  8  1  0
  8  9  1  0
  9 10  1  0
 10 11  1  0
 11 12  1  0
 12 13  1  0
 13 14  1  0
 14 15  1  0
 15 16  1  0
 16 17  1  0
 17 18  1  0
 18 19  1  0
 19 20  1  0
 20 21  1  0
 21 22  1  0
 11 23  1  0
 23 24  1  0
  6 25  2  0
 25  2  1  0
 24  8  1  0
 22 17  1  0
  1 26  1  0
  1 27  1  0
  1 28  1  0
  3 29  1  0
  4 30  1  0
  5 31  1  0
  7 32  1  0
  7 33  1  0
  8 34  1  0
  9 35  1  0
  9 36  1  0
 10 37  1  0
 10 38  1  0
 12 39  1  0
 12 40  1  0
 13 41  1  0
 13 42  1  0
 15 43  1  0
 15 44  1  0
 16 45  1  0
 16 46  1  0
 18 47  1  0
 18 48  1  0
 19 49  1  0
 19 50  1  0
 20 51  1  0
 21 52  1  0
 21 53  1  0
 22 54  1  0
 22 55  1  0
 23 56  1  0
 23 57  1  0
 24 58  1  0
 24 59  1  0
 25 60  1  0
M  CHG  1   8   1
M  END
>  <UniqueID>  (16) 
16

>  <SMILES>  (16) 
Cc1cccc(C[NH+]2CCN(CCOCCN3CCNCC3)CC2)c1

>  <Energy>  (16) 
80.91958136510306

>  <Genealogy>  (16) 
Cc1cccc(C[NH+]2CCN(CCOCCN3CCNCC3)CC2)c1 (protonated)
Cc1cccc(C[NH+]2CCN(CCOCCN3CCNCC3)CC2)c1 (3D coordinates assigned)
Cc1cccc(C[NH+]2CCN(CCOCCN3CCNCC3)CC2)c1 (nonaromatic ring conformer: 80.91958136510306 kcal/mol)

>  <smiles>  (16) 
Cc1cccc(CN2CCN(CCOCCN3CCNCC3)CC2)c1

>  <score_type>  (16) 
oracle

>  <origin>  (16) 
adg

>  <m_score__min__energy>  (16) 
-8.7400000000000002

>  <m_primary>  (16) 
energy

$$$$
16:0
     RDKit          3D

 41 43  0  0  0  0  0  0  0  0999 V2000
   -7.0980   24.7567  -30.2552 H   0  0  0  0  0  0  0  0  0  0  0  0
   -6.3030   24.1490  -30.7120 C   0  0  0  0  0  0  0  0  0  0  0  0
   -6.5150   23.6800  -31.9510 C   0  0  0  0  0  0  0  0  0  0  0  0
   -6.7441   24.4061  -32.7449 H   0  0  0  0  0  0  0  0  0  0  0  0
   -6.4600   22.2490  -32.3160 C   0  0  0  0  0  0  0  0  0  0  0  0
   -7.5070   21.3820  -32.2200 N   0  0  0  0  0  0  0  0  0  0  0  0
   -8.8910   21.6930  -31.8550 C   0  0  0  0  0  0  0  0  0  0  0  0
   -8.9853   21.7142  -30.7593 H   0  0  0  0  0  0  0  0  0  0  0  0
   -9.1666   22.6755  -32.2658 H   0  0  0  0  0  0  0  0  0  0  0  0
   -9.5605   20.9229  -32.2658 H   0  0  0  0  0  0  0  0  0  0  0  0
   -7.0070   20.1940  -32.6380 C   0  0  0  0  0  0  0  0  0  0  0  0
   -7.6240   18.9300  -32.7310 C   0  0  0  0  0  0  0  0  0  0  0  0
   -9.0040   18.7230  -32.4270 N   0  0  0  0  0  0  0  0  0  0  0  0
   -9.8750   19.3090  -33.1020 O   0  0  0  0  0  0  0  0  0  0  0  0
   -9.3540   18.1930  -31.2080 O   0  0  0  0  0  0  0  0  0  0  0  0
   -6.8280   17.8440  -33.1510 C   0  0  0  0  0  0  0  0  0  0  0  0
   -7.2705   16.8390  -33.2156 H   0  0  0  0  0  0  0  0  0  0  0  0
   -5.4720   18.0310  -33.4890 C   0  0  0  0  0  0  0  0  0  0  0  0
   -4.8694   17.1736  -33.8234 H   0  0  0  0  0  0  0  0  0  0  0  0
   -4.8860   19.3020  -33.4020 C   0  0  0  0  0  0  0  0  0  0  0  0
   -3.8312   19.4598  -33.6713 H   0  0  0  0  0  0  0  0  0  0  0  0
   -5.6830   20.3610  -32.9630 C   0  0  0  0  0  0  0  0  0  0  0  0
   -5.3300   21.6460  -32.7690 N   0  0  0  0  0  0  0  0  0  0  0  0
   -4.0240   22.2650  -33.0190 C   0  0  0  0  0  0  0  0  0  0  0  0
   -4.1254   23.3592  -32.9692 H   0  0  0  0  0  0  0  0  0  0  0  0
   -3.6704   21.9646  -34.0164 H   0  0  0  0  0  0  0  0  0  0  0  0
   -3.0140   21.8060  -31.9760 C   0  0  0  0  0  0  0  0  0  0  0  0
   -3.4175   21.9894  -30.9692 H   0  0  0  0  0  0  0  0  0  0  0  0
   -2.8190   20.7309  -32.1026 H   0  0  0  0  0  0  0  0  0  0  0  0
   -2.0758   22.3662  -32.1026 H   0  0  0  0  0  0  0  0  0  0  0  0
   -5.0790   23.9100  -29.9130 C   0  0  0  0  0  0  0  0  0  0  0  0
   -3.9690   24.7470  -30.1010 C   0  0  0  0  0  0  0  0  0  0  0  0
   -4.0201   25.5670  -30.8324 H   0  0  0  0  0  0  0  0  0  0  0  0
   -2.7980   24.5450  -29.3640 C   0  0  0  0  0  0  0  0  0  0  0  0
   -1.9363   25.2134  -29.5078 H   0  0  0  0  0  0  0  0  0  0  0  0
   -2.7210   23.4950  -28.4450 C   0  0  0  0  0  0  0  0  0  0  0  0
   -1.8030   23.3436  -27.8582 H   0  0  0  0  0  0  0  0  0  0  0  0
   -3.8100   22.6380  -28.2720 C   0  0  0  0  0  0  0  0  0  0  0  0
   -3.7454   21.8062  -27.5551 H   0  0  0  0  0  0  0  0  0  0  0  0
   -4.9820   22.8350  -29.0080 C   0  0  0  0  0  0  0  0  0  0  0  0
   -5.8315   22.1481  -28.8800 H   0  0  0  0  0  0  0  0  0  0  0  0
  1  2  1  0
  2  3  2  0
  3  4  1  0
  3  5  1  0
  5  6  1  0
  6  7  1  0
  7  8  1  0
  7  9  1  0
  7 10  1  0
  6 11  1  0
 11 12  2  0
 12 13  1  0
 13 14  2  0
 13 15  1  0
 12 16  1  0
 16 17  1  0
 16 18  2  0
 18 19  1  0
 18 20  1  0
 20 21  1  0
 20 22  2  0
 22 23  1  0
 23 24  1  0
 24 25  1  0
 24 26  1  0
 24 27  1  0
 27 28  1  0
 27 29  1  0
 27 30  1  0
  2 31  1  0
 31 32  2  0
 32 33  1  0
 32 34  1  0
 34 35  1  0
 34 36  2  0
 36 37  1  0
 36 38  1  0
 38 39  1  0
 38 40  2  0
 40 41  1  0
 23  5  2  0
 40 31  1  0
 22 11  1  0
M  CHG  3  13   1  15  -1  23   1
M  END
>  <UniqueID>  (17) 
17

>  <SMILES>  (17) 
CC[n+]1c(/C=C\c2ccccc2)n(C)c2c([N+](=O)[O-])cccc21

>  <Energy>  (17) 
97.85464984714322

>  <Genealogy>  (17) 
CC[n+]1c(/C=C\c2ccccc2)n(C)c2c([N+](=O)[O-])cccc21 (cis-trans isomerization)
CC[n+]1c(/C=C\c2ccccc2)n(C)c2c([N+](=O)[O-])cccc21 (3D coordinates assigned)
CC[n+]1c(/C=C\c2ccccc2)n(C)c2c([N+](=O)[O-])cccc21 (optimized conformer: 97.85464984714322 kcal/mol)

>  <smiles>  (17) 
CC[n+]1c(C=Cc2ccccc2)n(C)c2c([N+](=O)[O-])cccc21

>  <score_type>  (17) 
oracle

>  <origin>  (17) 
adg

>  <m_score__min__energy>  (17) 
-7.7599999999999998

>  <m_primary>  (17) 
energy

$$$$
17:0
     RDKit          3D

 50 53  0  0  0  0  0  0  0  0999 V2000
   -4.8110   15.8730  -33.9160 C   0  0  0  0  0  0  0  0  0  0  0  0
   -5.7420   16.5830  -33.0500 N   0  0  0  0  0  0  0  0  0  0  0  0
   -6.8810   17.1810  -33.4410 C   0  0  0  0  0  0  0  0  0  0  0  0
   -7.4390   17.7950  -32.3380 C   0  0  0  0  0  0  0  0  0  0  0  0
   -8.6940   18.6320  -32.2870 C   0  0  0  0  0  0  0  0  0  0  0  0
   -8.5600   20.0230  -32.7860 N   0  0  0  0  0  0  0  0  0  0  0  0
   -7.3390   20.7460  -32.3970 C   0  0  0  0  0  0  0  0  0  0  0  0
   -8.1390   21.8420  -31.6770 C   0  0  0  0  0  0  0  0  0  0  0  0
   -8.0230   23.2250  -32.3430 C   0  0  0  0  0  0  0  0  0  0  0  0
   -6.6670   23.8940  -32.0150 C   0  0  0  0  0  0  0  0  0  0  0  0
   -5.9490   23.2050  -30.9180 N   0  0  0  0  0  0  0  0  0  0  0  0
   -4.7580   23.9780  -30.5110 C   0  0  0  0  0  0  0  0  0  0  0  0
   -3.5080   23.1510  -30.6980 C   0  0  0  0  0  0  0  0  0  0  0  0
   -3.4560   22.1910  -31.7220 C   0  0  0  0  0  0  0  0  0  0  0  0
   -2.3010   21.4290  -31.9220 C   0  0  0  0  0  0  0  0  0  0  0  0
   -1.1870   21.6200  -31.1040 C   0  0  0  0  0  0  0  0  0  0  0  0
   -1.2240   22.5730  -30.0830 C   0  0  0  0  0  0  0  0  0  0  0  0
   -2.3760   23.3410  -29.8730 C   0  0  0  0  0  0  0  0  0  0  0  0
   -2.3650   24.5310  -28.5750 Cl  0  0  0  0  0  0  0  0  0  0  0  0
   -6.8550   22.9630  -29.7750 C   0  0  0  0  0  0  0  0  0  0  0  0
   -7.9150   21.9110  -30.1470 C   0  0  0  0  0  0  0  0  0  0  0  0
   -9.3740   21.0390  -32.0990 C   0  0  0  0  0  0  0  0  0  0  0  0
   -6.5490   17.5560  -31.3040 C   0  0  0  0  0  0  0  0  0  0  0  0
   -5.5220   16.8150  -31.7640 N   0  0  0  0  0  0  0  0  0  0  0  0
   -4.0862   15.3203  -33.3002 H   0  0  0  0  0  0  0  0  0  0  0  0
   -5.3664   15.1671  -34.5509 H   0  0  0  0  0  0  0  0  0  0  0  0
   -4.2771   16.5954  -34.5509 H   0  0  0  0  0  0  0  0  0  0  0  0
   -7.2950   17.1809  -34.4601 H   0  0  0  0  0  0  0  0  0  0  0  0
   -9.4613   18.1280  -32.8929 H   0  0  0  0  0  0  0  0  0  0  0  0
   -8.9534   18.7192  -31.2216 H   0  0  0  0  0  0  0  0  0  0  0  0
   -8.7060   20.0660  -33.8240 H   0  0  0  0  0  0  0  0  0  0  0  0
   -6.6817   20.1706  -31.7285 H   0  0  0  0  0  0  0  0  0  0  0  0
   -6.6172   21.0344  -33.1753 H   0  0  0  0  0  0  0  0  0  0  0  0
   -8.1098   23.1063  -33.4331 H   0  0  0  0  0  0  0  0  0  0  0  0
   -8.8292   23.8657  -31.9563 H   0  0  0  0  0  0  0  0  0  0  0  0
   -6.0367   23.8755  -32.9163 H   0  0  0  0  0  0  0  0  0  0  0  0
   -6.8714   24.9241  -31.6875 H   0  0  0  0  0  0  0  0  0  0  0  0
   -4.6874   24.8869  -31.1266 H   0  0  0  0  0  0  0  0  0  0  0  0
   -4.8526   24.2489  -29.4491 H   0  0  0  0  0  0  0  0  0  0  0  0
   -4.3305   22.0376  -32.3714 H   0  0  0  0  0  0  0  0  0  0  0  0
   -2.2705   20.6780  -32.7252 H   0  0  0  0  0  0  0  0  0  0  0  0
   -0.2790   21.0199  -31.2630 H   0  0  0  0  0  0  0  0  0  0  0  0
   -0.3434   22.7209  -29.4406 H   0  0  0  0  0  0  0  0  0  0  0  0
   -6.2688   22.6001  -28.9178 H   0  0  0  0  0  0  0  0  0  0  0  0
   -7.3611   23.9042  -29.5141 H   0  0  0  0  0  0  0  0  0  0  0  0
   -7.5800   20.9257  -29.7907 H   0  0  0  0  0  0  0  0  0  0  0  0
   -8.8653   22.1986  -29.6734 H   0  0  0  0  0  0  0  0  0  0  0  0
   -9.9493   20.6403  -31.2505 H   0  0  0  0  0  0  0  0  0  0  0  0
  -10.1759   21.5462  -32.6555 H   0  0  0  0  0  0  0  0  0  0  0  0
   -6.6627   17.9146  -30.2703 H   0  0  0  0  0  0  0  0  0  0  0  0
  1  2  1  0
  2  3  1  0
  3  4  2  0
  4  5  1  0
  5  6  1  0
  6  7  1  0
  7  8  1  0
  8  9  1  0
  9 10  1  0
 10 11  1  0
 11 12  1  0
 12 13  1  0
 13 14  2  0
 14 15  1  0
 15 16  2  0
 16 17  1  0
 17 18  2  0
 18 19  1  0
 11 20  1  0
 20 21  1  0
  8 22  1  0
  4 23  1  0
 23 24  2  0
 24  2  1  0
 22  6  1  0
 21  8  1  0
 18 13  1  0
  1 25  1  0
  1 26  1  0
  1 27  1  0
  3 28  1  0
  5 29  1  0
  5 30  1  0
  6 31  1  0
  7 32  1  0
  7 33  1  0
  9 34  1  0
  9 35  1  0
 10 36  1  0
 10 37  1  0
 12 38  1  0
 12 39  1  0
 14 40  1  0
 15 41  1  0
 16 42  1  0
 17 43  1  0
 20 44  1  0
 20 45  1  0
 21 46  1  0
 21 47  1  0
 22 48  1  0
 22 49  1  0
 23 50  1  0
M  CHG  1   6   1
M  END
>  <UniqueID>  (18) 
18

>  <SMILES>  (18) 
Cn1cc(C[NH+]2CC3(CCN(Cc4ccccc4Cl)CC3)C2)cn1

>  <Energy>  (18) 
164.04039945761497

>  <Genealogy>  (18) 
Cn1cc(C[NH+]2CC3(CCN(Cc4ccccc4Cl)CC3)C2)cn1 (protonated)
Cn1cc(C[NH+]2CC3(CCN(Cc4ccccc4Cl)CC3)C2)cn1 (3D coordinates assigned)
Cn1cc(C[NH+]2CC3(CCN(Cc4ccccc4Cl)CC3)C2)cn1 (nonaromatic ring conformer: 164.04039945761497 kcal/mol)

>  <smiles>  (18) 
Cn1cc(CN2CC3(CCN(Cc4ccccc4Cl)CC3)C2)cn1

>  <score_type>  (18) 
oracle

>  <origin>  (18) 
adg

>  <m_score__min__energy>  (18) 
-8.1600000000000001

>  <m_primary>  (18) 
energy

$$$$
18:0
     RDKit          3D

 65 67  0  0  0  0  0  0  0  0999 V2000
   -4.8179   26.5705  -30.1268 H   0  0  0  0  0  0  0  0  0  0  0  0
   -4.8610   25.5260  -30.4690 C   0  0  0  0  0  0  0  0  0  0  0  0
   -3.7930   24.8110  -30.5010 N   0  0  0  0  0  0  0  0  0  0  0  0
   -3.1700   24.3110  -29.2970 C   0  0  0  0  0  0  0  0  0  0  0  0
   -2.5100   25.0850  -28.8783 H   0  0  0  0  0  0  0  0  0  0  0  0
   -2.5808   23.4137  -29.5372 H   0  0  0  0  0  0  0  0  0  0  0  0
   -4.2400   23.9530  -28.2770 C   0  0  0  0  0  0  0  0  0  0  0  0
   -3.8384   24.0874  -27.2618 H   0  0  0  0  0  0  0  0  0  0  0  0
   -5.1127   24.6081  -28.4158 H   0  0  0  0  0  0  0  0  0  0  0  0
   -4.5427   22.9046  -28.4158 H   0  0  0  0  0  0  0  0  0  0  0  0
   -6.1650   24.9270  -30.9010 C   0  0  0  0  0  0  0  0  0  0  0  0
   -6.8252   24.8384  -30.0256 H   0  0  0  0  0  0  0  0  0  0  0  0
   -6.6111   25.5833  -31.6627 H   0  0  0  0  0  0  0  0  0  0  0  0
   -5.9760   23.6000  -31.4910 N   0  0  0  0  0  0  0  0  0  0  0  0
   -5.0530   23.1400  -31.3380 H   0  0  0  0  0  0  0  0  0  0  0  0
   -7.0420   22.7580  -31.9630 C   0  0  0  0  0  0  0  0  0  0  0  0
   -8.3640   23.2170  -31.8440 C   0  0  0  0  0  0  0  0  0  0  0  0
   -8.5566   24.2838  -31.6572 H   0  0  0  0  0  0  0  0  0  0  0  0
   -9.4270   22.3370  -31.9600 C   0  0  0  0  0  0  0  0  0  0  0  0
  -10.4592   22.7167  -31.9427 H   0  0  0  0  0  0  0  0  0  0  0  0
   -9.1910   20.9770  -32.0980 C   0  0  0  0  0  0  0  0  0  0  0  0
  -10.0414   20.2796  -32.1184 H   0  0  0  0  0  0  0  0  0  0  0  0
   -7.8730   20.4720  -32.2130 C   0  0  0  0  0  0  0  0  0  0  0  0
   -6.7980   21.3970  -32.3250 C   0  0  0  0  0  0  0  0  0  0  0  0
   -5.5560   20.9370  -32.8620 C   0  0  0  0  0  0  0  0  0  0  0  0
   -4.5970   21.8710  -33.4420 N   0  0  0  0  0  0  0  0  0  0  0  0
   -4.9260   22.8560  -33.3760 H   0  0  0  0  0  0  0  0  0  0  0  0
   -4.5610   21.7010  -34.4750 H   0  0  0  0  0  0  0  0  0  0  0  0
   -3.2450   21.7630  -32.8510 C   0  0  0  0  0  0  0  0  0  0  0  0
   -2.6859   20.9708  -33.3704 H   0  0  0  0  0  0  0  0  0  0  0  0
   -2.7311   22.7290  -32.9639 H   0  0  0  0  0  0  0  0  0  0  0  0
   -3.3310   21.4280  -31.3850 C   0  0  0  0  0  0  0  0  0  0  0  0
   -4.2924   21.1026  -30.9609 H   0  0  0  0  0  0  0  0  0  0  0  0
   -2.2590   21.5190  -30.5890 C   0  0  0  0  0  0  0  0  0  0  0  0
   -1.5497   22.3486  -30.7255 H   0  0  0  0  0  0  0  0  0  0  0  0
   -2.0110   20.4950  -29.5040 C   0  0  0  0  0  0  0  0  0  0  0  0
   -2.5332   19.5659  -29.7760 H   0  0  0  0  0  0  0  0  0  0  0  0
   -0.9222   20.3557  -29.4329 H   0  0  0  0  0  0  0  0  0  0  0  0
   -2.4830   20.9240  -28.1700 N   0  0  0  0  0  0  0  0  0  0  0  0
   -1.4330   21.6390  -27.4200 C   0  0  0  0  0  0  0  0  0  0  0  0
   -1.6078   21.5199  -26.3405 H   0  0  0  0  0  0  0  0  0  0  0  0
   -0.4486   21.2227  -27.6801 H   0  0  0  0  0  0  0  0  0  0  0  0
   -1.4596   22.7075  -27.6801 H   0  0  0  0  0  0  0  0  0  0  0  0
   -3.0730   19.8190  -27.3830 C   0  0  0  0  0  0  0  0  0  0  0  0
   -3.9666   20.1844  -26.8557 H   0  0  0  0  0  0  0  0  0  0  0  0
   -3.3490   18.9996  -28.0630 H   0  0  0  0  0  0  0  0  0  0  0  0
   -2.0620   19.3040  -26.3650 C   0  0  0  0  0  0  0  0  0  0  0  0
   -2.4360   19.4945  -25.3482 H   0  0  0  0  0  0  0  0  0  0  0  0
   -1.9179   18.2226  -26.5061 H   0  0  0  0  0  0  0  0  0  0  0  0
   -1.1026   19.8232  -26.5061 H   0  0  0  0  0  0  0  0  0  0  0  0
   -5.3930   19.5380  -33.0900 C   0  0  0  0  0  0  0  0  0  0  0  0
   -4.2130   19.0150  -33.6790 C   0  0  0  0  0  0  0  0  0  0  0  0
   -3.4063   19.7029  -33.9723 H   0  0  0  0  0  0  0  0  0  0  0  0
   -4.0560   17.6490  -33.8930 C   0  0  0  0  0  0  0  0  0  0  0  0
   -3.1222   17.2652  -34.3296 H   0  0  0  0  0  0  0  0  0  0  0  0
   -5.0740   16.7720  -33.5570 C   0  0  0  0  0  0  0  0  0  0  0  0
   -4.9466   15.6925  -33.7259 H   0  0  0  0  0  0  0  0  0  0  0  0
   -6.2580   17.2540  -33.0060 C   0  0  0  0  0  0  0  0  0  0  0  0
   -7.0667   16.5486  -32.7644 H   0  0  0  0  0  0  0  0  0  0  0  0
   -6.4420   18.6370  -32.7500 C   0  0  0  0  0  0  0  0  0  0  0  0
   -7.6340   19.1160  -32.2490 N   0  0  0  0  0  0  0  0  0  0  0  0
   -8.6510   18.1740  -31.7250 C   0  0  0  0  0  0  0  0  0  0  0  0
   -8.6336   18.1901  -30.6253 H   0  0  0  0  0  0  0  0  0  0  0  0
   -9.6475   18.4753  -32.0804 H   0  0  0  0  0  0  0  0  0  0  0  0
   -8.4268   17.1574  -32.0804 H   0  0  0  0  0  0  0  0  0  0  0  0
  1  2  1  0
  2  3  2  0
  3  4  1  0
  4  5  1  0
  4  6  1  0
  4  7  1  0
  7  8  1  0
  7  9  1  0
  7 10  1  0
  2 11  1  0
 11 12  1  0
 11 13  1  0
 11 14  1  0
 14 15  1  0
 14 16  1  0
 16 17  2  0
 17 18  1  0
 17 19  1  0
 19 20  1  0
 19 21  2  0
 21 22  1  0
 21 23  1  0
 23 24  2  0
 24 25  1  0
 25 26  1  0
 26 27  1  0
 26 28  1  0
 26 29  1  0
 29 30  1  0
 29 31  1  0
 29 32  1  0
 32 33  1  0
 32 34  2  0
 34 35  1  0
 34 36  1  0
 36 37  1  0
 36 38  1  0
 36 39  1  0
 39 40  1  0
 40 41  1  0
 40 42  1  0
 40 43  1  0
 39 44  1  0
 44 45  1  0
 44 46  1  0
 44 47  1  0
 47 48  1  0
 47 49  1  0
 47 50  1  0
 25 51  2  0
 51 52  1  0
 52 53  1  0
 52 54  2  0
 54 55  1  0
 54 56  1  0
 56 57  1  0
 56 58  2  0
 58 59  1  0
 58 60  1  0
 60 61  2  0
 61 62  1  0
 62 63  1  0
 62 64  1  0
 62 65  1  0
 24 16  1  0
 60 51  1  0
 61 23  1  0
M  CHG  2  26   1  61   1
M  END
>  <UniqueID>  (19) 
19

>  <SMILES>  (19) 
CC/N=C/CNc1cccc2c1c([NH2+]C/C=C/CN(C)CC)c1ccccc1[n+]2C

>  <Energy>  (19) 
98.41670944261236

>  <Genealogy>  (19) 
CCN=CCNc1cccc2c1c([NH2+]CC=CCN(C)CC)c1ccccc1[n+]2C (protonated)
CC/N=C/CNc1cccc2c1c([NH2+]C/C=C/CN(C)CC)c1ccccc1[n+]2C (cis-trans isomerization)
CC/N=C/CNc1cccc2c1c([NH2+]C/C=C/CN(C)CC)c1ccccc1[n+]2C (3D coordinates assigned)
CC/N=C/CNc1cccc2c1c([NH2+]C/C=C/CN(C)CC)c1ccccc1[n+]2C (optimized conformer: 98.41670944261236 kcal/mol)

>  <smiles>  (19) 
CCN=CCNc1cccc2c1c(NCC=CCN(C)CC)c1ccccc1[n+]2C

>  <score_type>  (19) 
oracle

>  <origin>  (19) 
adg

>  <m_score__min__energy>  (19) 
-8.5600000000000005

>  <m_primary>  (19) 
energy

$$$$
19:0
     RDKit          3D

 54 56  0  0  0  0  0  0  0  0999 V2000
   -3.2180   24.1250  -28.2600 C   0  0  0  0  0  0  0  0  0  0  0  0
   -2.7840   24.1400  -29.7210 C   0  0  0  0  0  0  0  0  0  0  0  0
   -3.9290   23.7460  -30.5840 N   0  0  0  0  0  0  0  0  0  0  0  0
   -5.2180   24.2280  -30.0380 C   0  0  0  0  0  0  0  0  0  0  0  0
   -5.5110   25.6560  -30.4960 C   0  0  0  0  0  0  0  0  0  0  0  0
   -3.9740   22.2830  -30.8060 C   0  0  0  0  0  0  0  0  0  0  0  0
   -3.4010   21.9190  -32.1810 C   0  0  0  0  0  0  0  0  0  0  0  0
   -4.4710   21.8430  -33.1750 N   0  0  0  0  0  0  0  0  0  0  0  0
   -5.5920   20.9650  -32.9880 C   0  0  0  0  0  0  0  0  0  0  0  0
   -5.4670   19.6010  -33.2980 C   0  0  0  0  0  0  0  0  0  0  0  0
   -6.5440   18.7280  -33.0300 C   0  0  0  0  0  0  0  0  0  0  0  0
   -7.6700   19.1870  -32.3850 N   0  0  0  0  0  0  0  0  0  0  0  0
   -8.6820   18.2190  -31.9120 C   0  0  0  0  0  0  0  0  0  0  0  0
   -7.8660   20.5430  -32.2030 C   0  0  0  0  0  0  0  0  0  0  0  0
   -6.8200   21.4580  -32.4960 C   0  0  0  0  0  0  0  0  0  0  0  0
   -7.0660   22.9220  -32.3400 C   0  0  0  0  0  0  0  0  0  0  0  0
   -6.2920   23.7750  -32.8500 O   0  0  0  0  0  0  0  0  0  0  0  0
   -8.2720   23.4020  -31.5990 C   0  0  0  0  0  0  0  0  0  0  0  0
   -9.4630   22.5300  -31.9670 C   0  0  0  0  0  0  0  0  0  0  0  0
   -9.1810   21.0650  -31.6250 C   0  0  0  0  0  0  0  0  0  0  0  0
   -6.4220   17.3100  -33.4790 C   0  0  0  0  0  0  0  0  0  0  0  0
   -5.2380   16.7920  -33.8120 C   0  0  0  0  0  0  0  0  0  0  0  0
   -3.9830   17.5930  -33.6390 C   0  0  0  0  0  0  0  0  0  0  0  0
   -4.2290   19.0620  -33.9970 C   0  0  0  0  0  0  0  0  0  0  0  0
   -2.3289   24.1557  -27.6131 H   0  0  0  0  0  0  0  0  0  0  0  0
   -3.8502   25.0018  -28.0563 H   0  0  0  0  0  0  0  0  0  0  0  0
   -3.7881   23.2066  -28.0563 H   0  0  0  0  0  0  0  0  0  0  0  0
   -2.4509   25.1522  -29.9939 H   0  0  0  0  0  0  0  0  0  0  0  0
   -1.9564   23.4297  -29.8642 H   0  0  0  0  0  0  0  0  0  0  0  0
   -6.0251   23.5666  -30.3859 H   0  0  0  0  0  0  0  0  0  0  0  0
   -5.1568   24.2194  -28.9397 H   0  0  0  0  0  0  0  0  0  0  0  0
   -5.6438   26.3032  -29.6165 H   0  0  0  0  0  0  0  0  0  0  0  0
   -4.6703   26.0269  -31.1006 H   0  0  0  0  0  0  0  0  0  0  0  0
   -6.4299   25.6659  -31.1006 H   0  0  0  0  0  0  0  0  0  0  0  0
   -3.3824   21.7822  -30.0255 H   0  0  0  0  0  0  0  0  0  0  0  0
   -5.0228   21.9539  -30.7646 H   0  0  0  0  0  0  0  0  0  0  0  0
   -2.6761   22.6878  -32.4867 H   0  0  0  0  0  0  0  0  0  0  0  0
   -2.9063   20.9389  -32.1134 H   0  0  0  0  0  0  0  0  0  0  0  0
   -4.2640   22.1970  -34.1380 H   0  0  0  0  0  0  0  0  0  0  0  0
   -8.6932   18.2083  -30.8121 H   0  0  0  0  0  0  0  0  0  0  0  0
   -9.6738   18.5132  -32.2859 H   0  0  0  0  0  0  0  0  0  0  0  0
   -8.4321   17.2151  -32.2859 H   0  0  0  0  0  0  0  0  0  0  0  0
   -8.0888   23.3373  -30.5163 H   0  0  0  0  0  0  0  0  0  0  0  0
   -8.4810   24.4475  -31.8695 H   0  0  0  0  0  0  0  0  0  0  0  0
  -10.3467   22.8689  -31.4064 H   0  0  0  0  0  0  0  0  0  0  0  0
   -9.6447   22.6141  -33.0486 H   0  0  0  0  0  0  0  0  0  0  0  0
   -9.1436   20.9646  -30.5302 H   0  0  0  0  0  0  0  0  0  0  0  0
   -9.9892   20.4683  -32.0730 H   0  0  0  0  0  0  0  0  0  0  0  0
   -7.3229   16.6814  -33.5364 H   0  0  0  0  0  0  0  0  0  0  0  0
   -5.1828   15.7704  -34.2161 H   0  0  0  0  0  0  0  0  0  0  0  0
   -3.6527   17.5263  -32.5919 H   0  0  0  0  0  0  0  0  0  0  0  0
   -3.2088   17.1892  -34.3080 H   0  0  0  0  0  0  0  0  0  0  0  0
   -3.3563   19.6568  -33.6894 H   0  0  0  0  0  0  0  0  0  0  0  0
   -4.3850   19.1332  -35.0836 H   0  0  0  0  0  0  0  0  0  0  0  0
  1  2  1  0
  2  3  1  0
  3  4  1  0
  4  5  1  0
  3  6  1  0
  6  7  1  0
  7  8  1  0
  8  9  1  0
  9 10  2  0
 10 11  1  0
 11 12  2  0
 12 13  1  0
 12 14  1  0
 14 15  2  0
 15 16  1  0
 16 17  2  0
 16 18  1  0
 18 19  1  0
 19 20  1  0
 11 21  1  0
 21 22  2  0
 22 23  1  0
 23 24  1  0
 15  9  1  0
 24 10  1  0
 20 14  1  0
  1 25  1  0
  1 26  1  0
  1 27  1  0
  2 28  1  0
  2 29  1  0
  4 30  1  0
  4 31  1  0
  5 32  1  0
  5 33  1  0
  5 34  1  0
  6 35  1  0
  6 36  1  0
  7 37  1  0
  7 38  1  0
  8 39  1  0
 13 40  1  0
 13 41  1  0
 13 42  1  0
 18 43  1  0
 18 44  1  0
 19 45  1  0
 19 46  1  0
 20 47  1  0
 20 48  1  0
 21 49  1  0
 22 50  1  0
 23 51  1  0
 23 52  1  0
 24 53  1  0
 24 54  1  0
M  CHG  1  12   1
M  END
>  <UniqueID>  (20) 
20

>  <SMILES>  (20) 
CCN(CC)CCNc1c2c([n+](C)c3c1C(=O)CCC3)C=CCC2

>  <Energy>  (20) 
69.91124821793089

>  <Genealogy>  (20) 
CCN(CC)CCNc1c2c([n+](C)c3c1C(=O)CCC3)C=CCC2 (3D coordinates assigned)
CCN(CC)CCNc1c2c([n+](C)c3c1C(=O)CCC3)C=CCC2 (nonaromatic ring conformer: 69.91124821793089 kcal/mol)

>  <smiles>  (20) 
CCN(CC)CCNc1c2c([n+](C)c3c1C(=O)CCC3)C=CCC2

>  <score_type>  (20) 
oracle

>  <origin>  (20) 
adg

>  <m_score__min__energy>  (20) 
-8.8000000000000007

>  <m_primary>  (20) 
energy

$$$$
20:0
     RDKit          3D

 50 52  0  0  0  0  0  0  0  0999 V2000
   -3.1530   24.1910  -27.5400 C   0  0  0  0  0  0  0  0  0  0  0  0
   -2.3080   24.8450  -28.6270 C   0  0  0  0  0  0  0  0  0  0  0  0
   -3.1260   25.2630  -29.7190 O   0  0  0  0  0  0  0  0  0  0  0  0
   -4.2340   24.5630  -30.2260 C   0  0  0  0  0  0  0  0  0  0  0  0
   -5.5110   25.0240  -29.8960 C   0  0  0  0  0  0  0  0  0  0  0  0
   -6.6500   24.3710  -30.3730 C   0  0  0  0  0  0  0  0  0  0  0  0
   -6.5410   23.2240  -31.1910 C   0  0  0  0  0  0  0  0  0  0  0  0
   -7.7910   22.5470  -31.6640 C   0  0  0  0  0  0  0  0  0  0  0  0
   -8.6950   23.2600  -32.1900 O   0  0  0  0  0  0  0  0  0  0  0  0
   -8.0660   21.0540  -31.5640 C   0  0  1  0  0  0  0  0  0  0  0  0
   -9.1510   20.5780  -32.5430 C   0  0  0  0  0  0  0  0  0  0  0  0
   -9.4680   19.0850  -32.3530 C   0  0  0  0  0  0  0  0  0  0  0  0
   -8.3290   18.2940  -31.6750 C   0  0  0  0  0  0  0  0  0  0  0  0
   -6.9780   18.7870  -32.0340 N   0  0  1  0  0  0  0  0  0  0  0  0
   -6.6440   18.5790  -33.4690 C   0  0  0  0  0  0  0  0  0  0  0  0
   -5.1510   18.5500  -33.7140 C   0  0  0  0  0  0  0  0  0  0  0  0
   -4.5330   17.3830  -34.1920 C   0  0  0  0  0  0  0  0  0  0  0  0
   -3.1570   17.3610  -34.4350 C   0  0  0  0  0  0  0  0  0  0  0  0
   -2.3870   18.5020  -34.2030 C   0  0  0  0  0  0  0  0  0  0  0  0
   -1.0530   18.4810  -34.4490 F   0  0  0  0  0  0  0  0  0  0  0  0
   -2.9940   19.6690  -33.7260 C   0  0  0  0  0  0  0  0  0  0  0  0
   -4.3710   19.6950  -33.4820 C   0  0  0  0  0  0  0  0  0  0  0  0
   -6.7670   20.2040  -31.6130 C   0  0  0  0  0  0  0  0  0  0  0  0
   -5.2490   22.7590  -31.5100 C   0  0  0  0  0  0  0  0  0  0  0  0
   -4.1110   23.4210  -31.0370 C   0  0  0  0  0  0  0  0  0  0  0  0
   -2.7714   24.4864  -26.5515 H   0  0  0  0  0  0  0  0  0  0  0  0
   -4.1984   24.5176  -27.6420 H   0  0  0  0  0  0  0  0  0  0  0  0
   -3.0990   23.0971  -27.6420 H   0  0  0  0  0  0  0  0  0  0  0  0
   -1.7928   25.7209  -28.2058 H   0  0  0  0  0  0  0  0  0  0  0  0
   -1.5754   24.1114  -28.9946 H   0  0  0  0  0  0  0  0  0  0  0  0
   -5.6206   25.9104  -29.2539 H   0  0  0  0  0  0  0  0  0  0  0  0
   -7.6461   24.7552  -30.1080 H   0  0  0  0  0  0  0  0  0  0  0  0
   -8.4901   20.8845  -30.5633 H   0  0  0  0  0  0  0  0  0  0  0  0
  -10.0673   21.1622  -32.3723 H   0  0  0  0  0  0  0  0  0  0  0  0
   -8.7782   20.7233  -33.5676 H   0  0  0  0  0  0  0  0  0  0  0  0
  -10.3708   18.9974  -31.7307 H   0  0  0  0  0  0  0  0  0  0  0  0
   -9.6082   18.6544  -33.3555 H   0  0  0  0  0  0  0  0  0  0  0  0
   -8.4508   18.3721  -30.5846 H   0  0  0  0  0  0  0  0  0  0  0  0
   -8.4004   17.2542  -32.0267 H   0  0  0  0  0  0  0  0  0  0  0  0
   -6.2960   18.2140  -31.4810 H   0  0  0  0  0  0  0  0  0  0  0  0
   -7.0747   17.6215  -33.7970 H   0  0  0  0  0  0  0  0  0  0  0  0
   -7.0614   19.4235  -34.0370 H   0  0  0  0  0  0  0  0  0  0  0  0
   -5.1354   16.4812  -34.3762 H   0  0  0  0  0  0  0  0  0  0  0  0
   -2.6800   16.4433  -34.8096 H   0  0  0  0  0  0  0  0  0  0  0  0
   -2.3870   20.5678  -33.5425 H   0  0  0  0  0  0  0  0  0  0  0  0
   -4.8444   20.6145  -33.1074 H   0  0  0  0  0  0  0  0  0  0  0  0
   -6.3178   20.2023  -30.6089 H   0  0  0  0  0  0  0  0  0  0  0  0
   -6.1160   20.6651  -32.3704 H   0  0  0  0  0  0  0  0  0  0  0  0
   -5.1342   21.8640  -32.1390 H   0  0  0  0  0  0  0  0  0  0  0  0
   -3.1117   23.0450  -31.3017 H   0  0  0  0  0  0  0  0  0  0  0  0
  1  2  1  0
  2  3  1  0
  3  4  1  0
  4  5  2  0
  5  6  1  0
  6  7  2  0
  7  8  1  0
  8  9  2  0
  8 10  1  0
 10 11  1  0
 11 12  1  0
 12 13  1  0
 13 14  1  0
 14 15  1  0
 15 16  1  0
 16 17  2  0
 17 18  1  0
 18 19  2  0
 19 20  1  0
 19 21  1  0
 21 22  2  0
 14 23  1  0
  7 24  1  0
 24 25  2  0
 25  4  1  0
 23 10  1  0
 22 16  1  0
  1 26  1  0
  1 27  1  0
  1 28  1  0
  2 29  1  0
  2 30  1  0
  5 31  1  0
  6 32  1  0
 10 33  1  1
 11 34  1  0
 11 35  1  0
 12 36  1  0
 12 37  1  0
 13 38  1  0
 13 39  1  0
 14 40  1  1
 15 41  1  0
 15 42  1  0
 17 43  1  0
 18 44  1  0
 21 45  1  0
 22 46  1  0
 23 47  1  0
 23 48  1  0
 24 49  1  0
 25 50  1  0
M  CHG  1  14   1
M  END
>  <UniqueID>  (21) 
21

>  <SMILES>  (21) 
CCOc1ccc(C(=O)[C@H]2CCC[N@@H+](Cc3ccc(F)cc3)C2)cc1

>  <Energy>  (21) 
64.93454462191558

>  <Genealogy>  (21) 
CCOc1ccc(C(=O)C2CCC[NH+](Cc3ccc(F)cc3)C2)cc1 (protonated)
CCOc1ccc(C(=O)[C@H]2CCC[N@@H+](Cc3ccc(F)cc3)C2)cc1 (chirality)
CCOc1ccc(C(=O)[C@H]2CCC[N@@H+](Cc3ccc(F)cc3)C2)cc1 (3D coordinates assigned)
CCOc1ccc(C(=O)[C@H]2CCC[N@@H+](Cc3ccc(F)cc3)C2)cc1 (nonaromatic ring conformer: 64.93454462191558 kcal/mol)

>  <smiles>  (21) 
CCOc1ccc(C(=O)C2CCCN(Cc3ccc(F)cc3)C2)cc1

>  <score_type>  (21) 
oracle

>  <origin>  (21) 
adg

>  <m_score__min__energy>  (21) 
-8.7400000000000002

>  <m_primary>  (21) 
energy

$$$$
21:0
     RDKit          3D

 47 49  0  0  0  0  0  0  0  0999 V2000
   -5.5280   16.8220  -34.2550 C   0  0  0  0  0  0  0  0  0  0  0  0
   -4.7140   18.0790  -34.5730 C   0  0  0  0  0  0  0  0  0  0  0  0
   -3.6780   18.3710  -33.5500 N   0  0  1  0  0  0  0  0  0  0  0  0
   -2.7480   17.2270  -33.4810 C   0  0  0  0  0  0  0  0  0  0  0  0
   -2.9250   19.6270  -33.8440 C   0  0  0  0  0  0  0  0  0  0  0  0
   -3.5770   20.8810  -33.2240 C   0  0  0  0  0  0  0  0  0  0  0  0
   -4.2440   20.5750  -31.9550 N   0  0  0  0  0  0  0  0  0  0  0  0
   -5.4930   21.1830  -31.5910 C   0  0  0  0  0  0  0  0  0  0  0  0
   -6.6870   20.4860  -31.8310 C   0  0  0  0  0  0  0  0  0  0  0  0
   -6.6770   19.1040  -32.1200 C   0  0  0  0  0  0  0  0  0  0  0  0
   -7.8670   18.4130  -32.3320 C   0  0  0  0  0  0  0  0  0  0  0  0
   -9.0830   19.0830  -32.2560 C   0  0  0  0  0  0  0  0  0  0  0  0
   -9.1150   20.4530  -31.9990 C   0  0  0  0  0  0  0  0  0  0  0  0
   -7.9170   21.1890  -31.8180 C   0  0  0  0  0  0  0  0  0  0  0  0
   -7.9230   22.5600  -31.6540 N   0  0  0  0  0  0  0  0  0  0  0  0
   -9.1320   23.3390  -32.0000 C   0  0  0  0  0  0  0  0  0  0  0  0
   -6.7940   23.2030  -31.1800 C   0  0  0  0  0  0  0  0  0  0  0  0
   -6.8460   24.5470  -30.7340 C   0  0  0  0  0  0  0  0  0  0  0  0
   -5.7120   25.1930  -30.2600 C   0  0  0  0  0  0  0  0  0  0  0  0
   -4.5100   24.5110  -30.1590 C   0  0  0  0  0  0  0  0  0  0  0  0
   -4.4160   23.1730  -30.5460 C   0  0  0  0  0  0  0  0  0  0  0  0
   -2.7710   22.3040  -30.0520 Br  0  0  0  0  0  0  0  0  0  0  0  0
   -5.5460   22.5120  -31.1110 C   0  0  0  0  0  0  0  0  0  0  0  0
   -5.6059   16.7018  -33.1644 H   0  0  0  0  0  0  0  0  0  0  0  0
   -6.5354   16.9187  -34.6861 H   0  0  0  0  0  0  0  0  0  0  0  0
   -5.0276   15.9423  -34.6861 H   0  0  0  0  0  0  0  0  0  0  0  0
   -4.2180   17.9394  -35.5449 H   0  0  0  0  0  0  0  0  0  0  0  0
   -5.4119   18.9291  -34.5879 H   0  0  0  0  0  0  0  0  0  0  0  0
   -4.1480   18.4300  -32.6170 H   0  0  0  0  0  0  0  0  0  0  0  0
   -2.5475   16.9804  -32.4279 H   0  0  0  0  0  0  0  0  0  0  0  0
   -3.1986   16.3574  -33.9818 H   0  0  0  0  0  0  0  0  0  0  0  0
   -1.8048   17.4905  -33.9818 H   0  0  0  0  0  0  0  0  0  0  0  0
   -1.9060   19.5269  -33.4421 H   0  0  0  0  0  0  0  0  0  0  0  0
   -2.9248   19.7623  -34.9357 H   0  0  0  0  0  0  0  0  0  0  0  0
   -2.7974   21.6358  -33.0438 H   0  0  0  0  0  0  0  0  0  0  0  0
   -4.3347   21.2565  -33.9275 H   0  0  0  0  0  0  0  0  0  0  0  0
   -3.8290   19.8520  -31.3260 H   0  0  0  0  0  0  0  0  0  0  0  0
   -5.7185   18.5674  -32.1783 H   0  0  0  0  0  0  0  0  0  0  0  0
   -7.8452   17.3370  -32.5596 H   0  0  0  0  0  0  0  0  0  0  0  0
  -10.0232   18.5302  -32.3992 H   0  0  0  0  0  0  0  0  0  0  0  0
  -10.0838   20.9702  -31.9358 H   0  0  0  0  0  0  0  0  0  0  0  0
   -9.6356   23.6635  -31.0774 H   0  0  0  0  0  0  0  0  0  0  0  0
   -8.8433   24.2214  -32.5899 H   0  0  0  0  0  0  0  0  0  0  0  0
   -9.8162   22.7114  -32.5899 H   0  0  0  0  0  0  0  0  0  0  0  0
   -7.8029   25.0888  -30.7639 H   0  0  0  0  0  0  0  0  0  0  0  0
   -5.7681   26.2508  -29.9634 H   0  0  0  0  0  0  0  0  0  0  0  0
   -3.6210   25.0291  -29.7700 H   0  0  0  0  0  0  0  0  0  0  0  0
  1  2  1  0
  2  3  1  0
  3  4  1  0
  3  5  1  0
  5  6  1  0
  6  7  1  0
  7  8  1  0
  8  9  2  0
  9 10  1  0
 10 11  2  0
 11 12  1  0
 12 13  2  0
 13 14  1  0
 14 15  2  0
 15 16  1  0
 15 17  1  0
 17 18  2  0
 18 19  1  0
 19 20  2  0
 20 21  1  0
 21 22  1  0
 21 23  2  0
 23  8  1  0
 14  9  1  0
 23 17  1  0
  1 24  1  0
  1 25  1  0
  1 26  1  0
  2 27  1  0
  2 28  1  0
  3 29  1  1
  4 30  1  0
  4 31  1  0
  4 32  1  0
  5 33  1  0
  5 34  1  0
  6 35  1  0
  6 36  1  0
  7 37  1  0
 10 38  1  0
 11 39  1  0
 12 40  1  0
 13 41  1  0
 16 42  1  0
 16 43  1  0
 16 44  1  0
 18 45  1  0
 19 46  1  0
 20 47  1  0
M  CHG  2   3   1  15   1
M  END
>  <UniqueID>  (22) 
22

>  <SMILES>  (22) 
CC[N@@H+](C)CCNc1c2ccccc2[n+](C)c2cccc(Br)c12

>  <Energy>  (22) 
82.40579069244991

>  <Genealogy>  (22) 
CC[NH+](C)CCNc1c2ccccc2[n+](C)c2cccc(Br)c12 (protonated)
CC[N@@H+](C)CCNc1c2ccccc2[n+](C)c2cccc(Br)c12 (chirality)
CC[N@@H+](C)CCNc1c2ccccc2[n+](C)c2cccc(Br)c12 (3D coordinates assigned)
CC[N@@H+](C)CCNc1c2ccccc2[n+](C)c2cccc(Br)c12 (optimized conformer: 82.40579069244991 kcal/mol)

>  <smiles>  (22) 
CCN(C)CCNc1c2ccccc2[n+](C)c2cccc(Br)c12

>  <score_type>  (22) 
oracle

>  <origin>  (22) 
adg

>  <m_score__min__energy>  (22) 
-7.3300000000000001

>  <m_primary>  (22) 
energy

$$$$
