0:0
     RDKit          3D

 74 77  0  0  0  0  0  0  0  0999 V2000
    0.6320   23.0480  -35.8670 C   0  0  0  0  0  0  0  0  0  0  0  0
    0.7140   21.5460  -35.6080 C   0  0  0  0  0  0  0  0  0  0  0  0
   -0.5760   21.0510  -35.1130 N   0  0  0  0  0  0  0  0  0  0  0  0
   -0.3900   20.2340  -33.9060 C   0  0  0  0  0  0  0  0  0  0  0  0
   -1.6770   20.2320  -33.0420 C   0  0  0  0  0  0  0  0  0  0  0  0
   -2.8060   21.0680  -33.5380 N   0  0  0  0  0  0  0  0  0  0  0  0
   -4.1370   20.6630  -33.1020 C   0  0  0  0  0  0  0  0  0  0  0  0
   -4.6820   19.4340  -33.5750 C   0  0  0  0  0  0  0  0  0  0  0  0
   -3.9240   18.5440  -34.3820 C   0  0  0  0  0  0  0  0  0  0  0  0
   -4.4700   17.3550  -34.8590 C   0  0  0  0  0  0  0  0  0  0  0  0
   -5.7840   17.0230  -34.5590 C   0  0  0  0  0  0  0  0  0  0  0  0
   -6.5450   17.8630  -33.7530 C   0  0  0  0  0  0  0  0  0  0  0  0
   -6.0080   19.0670  -33.2240 C   0  0  0  0  0  0  0  0  0  0  0  0
   -6.7590   19.8820  -32.4090 N   0  0  0  0  0  0  0  0  0  0  0  0
   -8.0210   19.3700  -31.8250 C   0  0  0  0  0  0  0  0  0  0  0  0
   -6.3190   21.1520  -32.0980 C   0  0  0  0  0  0  0  0  0  0  0  0
   -7.2190   22.1180  -31.5970 C   0  0  0  0  0  0  0  0  0  0  0  0
   -6.7900   23.3760  -31.2130 C   0  0  0  0  0  0  0  0  0  0  0  0
   -5.4370   23.7030  -31.2540 C   0  0  0  0  0  0  0  0  0  0  0  0
   -4.9790   24.9680  -30.8540 O   0  0  0  0  0  0  0  0  0  0  0  0
   -5.7300   25.9060  -30.0880 C   0  0  0  0  0  0  0  0  0  0  0  0
   -4.5070   22.7620  -31.7290 C   0  0  0  0  0  0  0  0  0  0  0  0
   -3.1460   23.0840  -31.6090 O   0  0  0  0  0  0  0  0  0  0  0  0
   -2.2400   22.3750  -30.7540 C   0  0  0  0  0  0  0  0  0  0  0  0
   -2.9000   21.9410  -29.4220 C   0  0  0  0  0  0  0  0  0  0  0  0
   -2.6900   22.8500  -28.2440 N   0  0  0  0  0  0  0  0  0  0  0  0
   -2.3740   21.9610  -27.0900 C   0  0  0  0  0  0  0  0  0  0  0  0
   -1.5180   23.7650  -28.4920 C   0  0  0  0  0  0  0  0  0  0  0  0
   -1.7240   25.2200  -28.0130 C   0  0  0  0  0  0  0  0  0  0  0  0
   -2.4530   25.2740  -26.6680 C   0  0  0  0  0  0  0  0  0  0  0  0
   -3.8110   24.5510  -26.7210 C   0  0  0  0  0  0  0  0  0  0  0  0
   -3.9430   23.6100  -27.9410 C   0  0  0  0  0  0  0  0  0  0  0  0
   -4.9580   21.5250  -32.3070 C   0  0  0  0  0  0  0  0  0  0  0  0
    0.6027   23.5845  -34.9072 H   0  0  0  0  0  0  0  0  0  0  0  0
    1.5139   23.3699  -36.4402 H   0  0  0  0  0  0  0  0  0  0  0  0
   -0.2797   23.2720  -36.4402 H   0  0  0  0  0  0  0  0  0  0  0  0
    0.9678   21.0281  -36.5447 H   0  0  0  0  0  0  0  0  0  0  0  0
    1.4894   21.3516  -34.8524 H   0  0  0  0  0  0  0  0  0  0  0  0
   -1.1700   21.8740  -34.8540 H   0  0  0  0  0  0  0  0  0  0  0  0
   -0.1521   19.2016  -34.2019 H   0  0  0  0  0  0  0  0  0  0  0  0
    0.4329   20.6605  -33.3136 H   0  0  0  0  0  0  0  0  0  0  0  0
   -2.0335   19.1936  -32.9740 H   0  0  0  0  0  0  0  0  0  0  0  0
   -1.3845   20.6756  -32.0788 H   0  0  0  0  0  0  0  0  0  0  0  0
   -2.6280   22.0760  -33.3460 H   0  0  0  0  0  0  0  0  0  0  0  0
   -2.7760   21.0820  -34.5820 H   0  0  0  0  0  0  0  0  0  0  0  0
   -2.8844   18.7992  -34.6353 H   0  0  0  0  0  0  0  0  0  0  0  0
   -3.8592   16.6780  -35.4743 H   0  0  0  0  0  0  0  0  0  0  0  0
   -6.2229   16.0967  -34.9582 H   0  0  0  0  0  0  0  0  0  0  0  0
   -7.5847   17.5892  -33.5203 H   0  0  0  0  0  0  0  0  0  0  0  0
   -7.9545   19.3970  -30.7273 H   0  0  0  0  0  0  0  0  0  0  0  0
   -8.8603   19.9987  -32.1571 H   0  0  0  0  0  0  0  0  0  0  0  0
   -8.1850   18.3342  -32.1571 H   0  0  0  0  0  0  0  0  0  0  0  0
   -8.2858   21.8644  -31.5100 H   0  0  0  0  0  0  0  0  0  0  0  0
   -7.5225   24.1229  -30.8730 H   0  0  0  0  0  0  0  0  0  0  0  0
   -5.5748   25.7122  -29.0164 H   0  0  0  0  0  0  0  0  0  0  0  0
   -5.3963   26.9263  -30.3282 H   0  0  0  0  0  0  0  0  0  0  0  0
   -6.7986   25.8036  -30.3282 H   0  0  0  0  0  0  0  0  0  0  0  0
   -1.8864   21.4770  -31.2817 H   0  0  0  0  0  0  0  0  0  0  0  0
   -1.4093   23.0537  -30.5104 H   0  0  0  0  0  0  0  0  0  0  0  0
   -3.9834   21.8630  -29.5954 H   0  0  0  0  0  0  0  0  0  0  0  0
   -2.4123   20.9933  -29.1499 H   0  0  0  0  0  0  0  0  0  0  0  0
   -2.5652   22.4988  -26.1497 H   0  0  0  0  0  0  0  0  0  0  0  0
   -3.0081   21.0632  -27.1344 H   0  0  0  0  0  0  0  0  0  0  0  0
   -1.3155   21.6649  -27.1344 H   0  0  0  0  0  0  0  0  0  0  0  0
   -0.6435   23.3520  -27.9679 H   0  0  0  0  0  0  0  0  0  0  0  0
   -1.3852   23.8122  -29.5829 H   0  0  0  0  0  0  0  0  0  0  0  0
   -0.7414   25.7028  -27.9058 H   0  0  0  0  0  0  0  0  0  0  0  0
   -2.3403   25.7432  -28.7590 H   0  0  0  0  0  0  0  0  0  0  0  0
   -1.8244   24.7942  -25.9034 H   0  0  0  0  0  0  0  0  0  0  0  0
   -2.6388   26.3302  -26.4234 H   0  0  0  0  0  0  0  0  0  0  0  0
   -3.9278   23.9553  -25.8037 H   0  0  0  0  0  0  0  0  0  0  0  0
   -4.5920   25.3204  -26.8108 H   0  0  0  0  0  0  0  0  0  0  0  0
   -4.7483   22.8883  -27.7391 H   0  0  0  0  0  0  0  0  0  0  0  0
   -4.1595   24.2409  -28.8157 H   0  0  0  0  0  0  0  0  0  0  0  0
  1  2  1  0
  2  3  1  0
  3  4  1  0
  4  5  1  0
  5  6  1  0
  6  7  1  0
  7  8  2  0
  8  9  1  0
  9 10  2  0
 10 11  1  0
 11 12  2  0
 12 13  1  0
 13 14  2  0
 14 15  1  0
 14 16  1  0
 16 17  2  0
 17 18  1  0
 18 19  2  0
 19 20  1  0
 20 21  1  0
 19 22  1  0
 22 23  1  0
 23 24  1  0
 24 25  1  0
 25 26  1  0
 26 27  1  0
 26 28  1  0
 28 29  1  0
 29 30  1  0
 30 31  1  0
 31 32  1  0
 22 33  2  0
 33  7  1  0
 13  8  1  0
 33 16  1  0
 32 26  1  0
  1 34  1  0
  1 35  1  0
  1 36  1  0
  2 37  1  0
  2 38  1  0
  3 39  1  0
  4 40  1  0
  4 41  1  0
  5 42  1  0
  5 43  1  0
  6 44  1  0
  6 45  1  0
  9 46  1  0
 10 47  1  0
 11 48  1  0
 12 49  1  0
 15 50  1  0
 15 51  1  0
 15 52  1  0
 17 53  1  0
 18 54  1  0
 21 55  1  0
 21 56  1  0
 21 57  1  0
 24 58  1  0
 24 59  1  0
 25 60  1  0
 25 61  1  0
 27 62  1  0
 27 63  1  0
 27 64  1  0
 28 65  1  0
 28 66  1  0
 29 67  1  0
 29 68  1  0
 30 69  1  0
 30 70  1  0
 31 71  1  0
 31 72  1  0
 32 73  1  0
 32 74  1  0
M  CHG  3   6   1  14   1  26   1
M  END
>  <UniqueID>  (1) 
1

>  <SMILES>  (1) 
CCNCC[NH2+]c1c2ccccc2[n+](C)c2ccc(OC)c(OCC[N+]3(C)CCCCC3)c12

>  <Energy>  (1) 
136.5390883789818

>  <Genealogy>  (1) 
CCNCC[NH2+]c1c2ccccc2[n+](C)c2ccc(OC)c(OCC[N+]3(C)CCCCC3)c12 (protonated)
CCNCC[NH2+]c1c2ccccc2[n+](C)c2ccc(OC)c(OCC[N+]3(C)CCCCC3)c12 (3D coordinates assigned)
CCNCC[NH2+]c1c2ccccc2[n+](C)c2ccc(OC)c(OCC[N+]3(C)CCCCC3)c12 (nonaromatic ring conformer: 136.5390883789818 kcal/mol)

>  <smiles>  (1) 
CCNCCNc1c2ccccc2[n+](C)c2ccc(OC)c(OCC[N+]3(C)CCCCC3)c12

>  <score_type>  (1) 
oracle

>  <origin>  (1) 
adg

>  <m_score__min__energy>  (1) 
-8.2300000000000004

>  <m_primary>  (1) 
energy

$$$$
1:0
     RDKit          3D

 53 55  0  0  0  0  0  0  0  0999 V2000
   -9.1490   19.8260  -32.3870 C   0  0  0  0  0  0  0  0  0  0  0  0
   -8.7720   18.5820  -31.5870 C   0  0  0  0  0  0  0  0  0  0  0  0
   -7.2790   18.2280  -31.6900 C   0  0  0  0  0  0  0  0  0  0  0  0
   -6.8670   17.6920  -33.0780 C   0  0  0  0  0  0  0  0  0  0  0  0
   -5.7310   18.4500  -33.6350 N   0  0  0  0  0  0  0  0  0  0  0  0
   -6.0620   19.8690  -33.8460 C   0  0  0  0  0  0  0  0  0  0  0  0
   -5.2970   20.7720  -32.9080 C   0  0  0  0  0  0  0  0  0  0  0  0
   -3.9470   20.6860  -32.5590 C   0  0  0  0  0  0  0  0  0  0  0  0
   -2.9580   19.7200  -33.1480 C   0  0  0  0  0  0  0  0  0  0  0  0
   -3.6200   21.6750  -31.6820 N   0  0  0  0  0  0  0  0  0  0  0  0
   -2.2820   21.9700  -31.1540 C   0  0  0  0  0  0  0  0  0  0  0  0
   -2.0400   21.2040  -29.8800 C   0  0  0  0  0  0  0  0  0  0  0  0
   -2.9690   21.2610  -28.8260 C   0  0  0  0  0  0  0  0  0  0  0  0
   -2.7480   20.5340  -27.6530 C   0  0  0  0  0  0  0  0  0  0  0  0
   -1.6020   19.7440  -27.5220 C   0  0  0  0  0  0  0  0  0  0  0  0
   -1.3930   19.0370  -26.3840 F   0  0  0  0  0  0  0  0  0  0  0  0
   -0.6750   19.6800  -28.5660 C   0  0  0  0  0  0  0  0  0  0  0  0
   -0.8920   20.4070  -29.7400 C   0  0  0  0  0  0  0  0  0  0  0  0
   -4.7600   22.3730  -31.4670 C   0  0  0  0  0  0  0  0  0  0  0  0
   -4.9450   23.4990  -30.6540 C   0  0  0  0  0  0  0  0  0  0  0  0
   -6.2340   24.0690  -30.5820 C   0  0  0  0  0  0  0  0  0  0  0  0
   -6.4630   25.2990  -29.7550 C   0  0  0  0  0  0  0  0  0  0  0  0
   -7.2920   23.5190  -31.3440 C   0  0  0  0  0  0  0  0  0  0  0  0
   -7.0800   22.3930  -32.1550 C   0  0  0  0  0  0  0  0  0  0  0  0
   -5.7980   21.8440  -32.1930 C   0  0  0  0  0  0  0  0  0  0  0  0
   -9.3972   20.6451  -31.6960 H   0  0  0  0  0  0  0  0  0  0  0  0
   -8.3012   20.1252  -33.0208 H   0  0  0  0  0  0  0  0  0  0  0  0
  -10.0203   19.6043  -33.0208 H   0  0  0  0  0  0  0  0  0  0  0  0
   -9.0179   18.7581  -30.5294 H   0  0  0  0  0  0  0  0  0  0  0  0
   -9.3389   17.7379  -32.0067 H   0  0  0  0  0  0  0  0  0  0  0  0
   -6.6912   19.1333  -31.4779 H   0  0  0  0  0  0  0  0  0  0  0  0
   -7.0861   17.4252  -30.9631 H   0  0  0  0  0  0  0  0  0  0  0  0
   -6.5784   16.6349  -32.9817 H   0  0  0  0  0  0  0  0  0  0  0  0
   -7.7235   17.8037  -33.7591 H   0  0  0  0  0  0  0  0  0  0  0  0
   -4.9100   18.3700  -32.9910 H   0  0  0  0  0  0  0  0  0  0  0  0
   -5.4570   18.0440  -34.5590 H   0  0  0  0  0  0  0  0  0  0  0  0
   -5.8144   20.1415  -34.8826 H   0  0  0  0  0  0  0  0  0  0  0  0
   -7.1356   20.0016  -33.6464 H   0  0  0  0  0  0  0  0  0  0  0  0
   -2.4259   19.2003  -32.3376 H   0  0  0  0  0  0  0  0  0  0  0  0
   -3.4896   18.9838  -33.7688 H   0  0  0  0  0  0  0  0  0  0  0  0
   -2.2345   20.2688  -33.7688 H   0  0  0  0  0  0  0  0  0  0  0  0
   -1.5264   21.6815  -31.8995 H   0  0  0  0  0  0  0  0  0  0  0  0
   -2.2115   23.0470  -30.9418 H   0  0  0  0  0  0  0  0  0  0  0  0
   -3.8729   21.8800  -28.9250 H   0  0  0  0  0  0  0  0  0  0  0  0
   -3.4773   20.5835  -26.8310 H   0  0  0  0  0  0  0  0  0  0  0  0
    0.2259   19.0572  -28.4637 H   0  0  0  0  0  0  0  0  0  0  0  0
   -0.1595   20.3546  -30.5589 H   0  0  0  0  0  0  0  0  0  0  0  0
   -4.1064   23.9281  -30.0860 H   0  0  0  0  0  0  0  0  0  0  0  0
   -6.4143   25.0375  -28.6876 H   0  0  0  0  0  0  0  0  0  0  0  0
   -5.6884   26.0452  -29.9854 H   0  0  0  0  0  0  0  0  0  0  0  0
   -7.4543   25.7164  -29.9854 H   0  0  0  0  0  0  0  0  0  0  0  0
   -8.2905   23.9784  -31.3004 H   0  0  0  0  0  0  0  0  0  0  0  0
   -7.9006   21.9564  -32.7432 H   0  0  0  0  0  0  0  0  0  0  0  0
  1  2  1  0
  2  3  1  0
  3  4  1  0
  4  5  1  0
  5  6  1  0
  6  7  1  0
  7  8  2  0
  8  9  1  0
  8 10  1  0
 10 11  1  0
 11 12  1  0
 12 13  2  0
 13 14  1  0
 14 15  2  0
 15 16  1  0
 15 17  1  0
 17 18  2  0
 10 19  1  0
 19 20  2  0
 20 21  1  0
 21 22  1  0
 21 23  2  0
 23 24  1  0
 24 25  2  0
 25  7  1  0
 18 12  1  0
 25 19  1  0
  1 26  1  0
  1 27  1  0
  1 28  1  0
  2 29  1  0
  2 30  1  0
  3 31  1  0
  3 32  1  0
  4 33  1  0
  4 34  1  0
  5 35  1  0
  5 36  1  0
  6 37  1  0
  6 38  1  0
  9 39  1  0
  9 40  1  0
  9 41  1  0
 11 42  1  0
 11 43  1  0
 13 44  1  0
 14 45  1  0
 17 46  1  0
 18 47  1  0
 20 48  1  0
 22 49  1  0
 22 50  1  0
 22 51  1  0
 23 52  1  0
 24 53  1  0
M  CHG  1   5   1
M  END
>  <UniqueID>  (2) 
2

>  <SMILES>  (2) 
CCCC[NH2+]Cc1c(C)n(Cc2ccc(F)cc2)c2cc(C)ccc12

>  <Energy>  (2) 
81.40796915032018

>  <Genealogy>  (2) 
CCCC[NH2+]Cc1c(C)n(Cc2ccc(F)cc2)c2cc(C)ccc12 (protonated)
CCCC[NH2+]Cc1c(C)n(Cc2ccc(F)cc2)c2cc(C)ccc12 (3D coordinates assigned)
CCCC[NH2+]Cc1c(C)n(Cc2ccc(F)cc2)c2cc(C)ccc12 (optimized conformer: 81.40796915032018 kcal/mol)

>  <smiles>  (2) 
CCCCNCc1c(C)n(Cc2ccc(F)cc2)c2cc(C)ccc12

>  <score_type>  (2) 
oracle

>  <origin>  (2) 
adg

>  <m_score__min__energy>  (2) 
-8.1699999999999999

>  <m_primary>  (2) 
energy

$$$$
2:0
     RDKit          3D

 33 34  0  0  0  0  0  0  0  0999 V2000
   -8.9670   21.1300  -31.5970 C   0  0  0  0  0  0  0  0  0  0  0  0
   -9.1260   19.8140  -32.3560 C   0  0  0  0  0  0  0  0  0  0  0  0
   -8.1600   18.7190  -31.8730 C   0  0  0  0  0  0  0  0  0  0  0  0
   -7.2010   18.2140  -32.9720 C   0  0  0  0  0  0  0  0  0  0  0  0
   -6.7480   19.3140  -33.8440 N   0  0  0  0  0  0  0  0  0  0  0  0
   -5.2860   19.4810  -33.8070 C   0  0  0  0  0  0  0  0  0  0  0  0
   -4.8840   20.7140  -33.0510 C   0  0  0  0  0  0  0  0  0  0  0  0
   -3.6140   21.2410  -32.9720 C   0  0  0  0  0  0  0  0  0  0  0  0
   -3.6900   22.3370  -32.2590 O   0  0  0  0  0  0  0  0  0  0  0  0
   -4.9500   22.4880  -31.9130 C   0  0  0  0  0  0  0  0  0  0  0  0
   -5.4410   23.6080  -31.1050 C   0  0  0  0  0  0  0  0  0  0  0  0
   -6.7580   23.8150  -30.7170 C   0  0  0  0  0  0  0  0  0  0  0  0
   -6.9290   24.9710  -29.9460 C   0  0  0  0  0  0  0  0  0  0  0  0
   -5.7510   25.6730  -29.7250 C   0  0  0  0  0  0  0  0  0  0  0  0
   -4.4960   24.8560  -30.4900 S   0  0  0  0  0  0  0  0  0  0  0  0
   -5.7460   21.5040  -32.3830 N   0  0  0  0  0  0  0  0  0  0  0  0
   -8.9906   20.9343  -30.5148 H   0  0  0  0  0  0  0  0  0  0  0  0
   -8.0063   21.5940  -31.8648 H   0  0  0  0  0  0  0  0  0  0  0  0
   -9.7896   21.8094  -31.8648 H   0  0  0  0  0  0  0  0  0  0  0  0
  -10.1572   19.4551  -32.2224 H   0  0  0  0  0  0  0  0  0  0  0  0
   -8.8935   20.0142  -33.4123 H   0  0  0  0  0  0  0  0  0  0  0  0
   -7.5588   19.1253  -31.0463 H   0  0  0  0  0  0  0  0  0  0  0  0
   -8.7739   17.8613  -31.5608 H   0  0  0  0  0  0  0  0  0  0  0  0
   -6.3239   17.7516  -32.4957 H   0  0  0  0  0  0  0  0  0  0  0  0
   -7.7418   17.4837  -33.5918 H   0  0  0  0  0  0  0  0  0  0  0  0
   -7.1820   20.2120  -33.5280 H   0  0  0  0  0  0  0  0  0  0  0  0
   -7.0560   19.1330  -34.8280 H   0  0  0  0  0  0  0  0  0  0  0  0
   -4.8397   18.6024  -33.3182 H   0  0  0  0  0  0  0  0  0  0  0  0
   -4.9275   19.5828  -34.8419 H   0  0  0  0  0  0  0  0  0  0  0  0
   -2.7041   20.8194  -33.4241 H   0  0  0  0  0  0  0  0  0  0  0  0
   -7.5829   23.1396  -30.9878 H   0  0  0  0  0  0  0  0  0  0  0  0
   -7.9044   25.2930  -29.5523 H   0  0  0  0  0  0  0  0  0  0  0  0
   -5.6554   26.6046  -29.1479 H   0  0  0  0  0  0  0  0  0  0  0  0
  1  2  1  0
  2  3  1  0
  3  4  1  0
  4  5  1  0
  5  6  1  0
  6  7  1  0
  7  8  2  0
  8  9  1  0
  9 10  1  0
 10 11  1  0
 11 12  2  0
 12 13  1  0
 13 14  2  0
 14 15  1  0
 10 16  2  0
 16  7  1  0
 15 11  1  0
  1 17  1  0
  1 18  1  0
  1 19  1  0
  2 20  1  0
  2 21  1  0
  3 22  1  0
  3 23  1  0
  4 24  1  0
  4 25  1  0
  5 26  1  0
  5 27  1  0
  6 28  1  0
  6 29  1  0
  8 30  1  0
 12 31  1  0
 13 32  1  0
 14 33  1  0
M  CHG  1   5   1
M  END
>  <UniqueID>  (3) 
3

>  <SMILES>  (3) 
CCCC[NH2+]Cc1coc(-c2cccs2)n1

>  <Energy>  (3) 
82.72703310493269

>  <Genealogy>  (3) 
CCCC[NH2+]Cc1coc(-c2cccs2)n1 (protonated)
CCCC[NH2+]Cc1coc(-c2cccs2)n1 (3D coordinates assigned)
CCCC[NH2+]Cc1coc(-c2cccs2)n1 (optimized conformer: 82.72703310493269 kcal/mol)

>  <smiles>  (3) 
CCCCNCc1coc(-c2cccs2)n1

>  <score_type>  (3) 
oracle

>  <origin>  (3) 
adg

>  <m_score__min__energy>  (3) 
-5.2800000000000002

>  <m_primary>  (3) 
energy

$$$$
3:0
     RDKit          3D

 55 56  0  0  0  0  0  0  0  0999 V2000
   -5.1787   16.7857  -35.8455 H   0  0  0  0  0  0  0  0  0  0  0  0
   -5.0300   17.5760  -35.0950 C   0  0  0  0  0  0  0  0  0  0  0  0
   -3.7990   17.6850  -34.4310 C   0  0  0  0  0  0  0  0  0  0  0  0
   -2.7040   16.6970  -34.7040 C   0  0  0  0  0  0  0  0  0  0  0  0
   -2.2962   16.3290  -33.7510 H   0  0  0  0  0  0  0  0  0  0  0  0
   -3.1081   15.8519  -35.2806 H   0  0  0  0  0  0  0  0  0  0  0  0
   -1.9047   17.1855  -35.2806 H   0  0  0  0  0  0  0  0  0  0  0  0
   -3.6240   18.6780  -33.4560 C   0  0  0  0  0  0  0  0  0  0  0  0
   -2.6676   18.7567  -32.9184 H   0  0  0  0  0  0  0  0  0  0  0  0
   -4.6660   19.5710  -33.1650 C   0  0  0  0  0  0  0  0  0  0  0  0
   -4.5190   20.5730  -32.2090 C   0  0  0  0  0  0  0  0  0  0  0  0
   -3.5658   20.6750  -31.6696 H   0  0  0  0  0  0  0  0  0  0  0  0
   -5.5470   21.4310  -31.9340 N   0  0  0  0  0  0  0  0  0  0  0  0
   -5.3130   22.4930  -30.9370 C   0  0  0  0  0  0  0  0  0  0  0  0
   -6.0858   22.4308  -30.1567 H   0  0  0  0  0  0  0  0  0  0  0  0
   -4.3133   22.3506  -30.5007 H   0  0  0  0  0  0  0  0  0  0  0  0
   -5.3690   23.8770  -31.5880 C   0  0  0  0  0  0  0  0  0  0  0  0
   -5.0209   23.8034  -32.6289 H   0  0  0  0  0  0  0  0  0  0  0  0
   -6.4059   24.2435  -31.5642 H   0  0  0  0  0  0  0  0  0  0  0  0
   -4.5420   24.7830  -30.8810 O   0  0  0  0  0  0  0  0  0  0  0  0
   -4.6650   24.5880  -29.4860 C   0  0  0  0  0  0  0  0  0  0  0  0
   -5.0869   25.4930  -29.0246 H   0  0  0  0  0  0  0  0  0  0  0  0
   -5.3307   23.7342  -29.2913 H   0  0  0  0  0  0  0  0  0  0  0  0
   -3.2910   24.3080  -28.8920 C   0  0  0  0  0  0  0  0  0  0  0  0
   -3.3550   24.3248  -27.7940 H   0  0  0  0  0  0  0  0  0  0  0  0
   -2.9416   23.3184  -29.2216 H   0  0  0  0  0  0  0  0  0  0  0  0
   -2.3860   25.2970  -29.3260 O   0  0  0  0  0  0  0  0  0  0  0  0
   -1.2270   25.3090  -28.5160 C   0  0  0  0  0  0  0  0  0  0  0  0
   -0.6892   24.3564  -28.6317 H   0  0  0  0  0  0  0  0  0  0  0  0
   -0.5740   26.1391  -28.8235 H   0  0  0  0  0  0  0  0  0  0  0  0
   -1.6270   25.4920  -27.0580 C   0  0  0  0  0  0  0  0  0  0  0  0
   -0.8204   25.1230  -26.4074 H   0  0  0  0  0  0  0  0  0  0  0  0
   -1.8011   26.5593  -26.8567 H   0  0  0  0  0  0  0  0  0  0  0  0
   -2.5484   24.9259  -26.8567 H   0  0  0  0  0  0  0  0  0  0  0  0
   -6.7420   21.3180  -32.6060 C   0  0  0  0  0  0  0  0  0  0  0  0
   -7.7150   22.1470  -32.3300 N   0  0  0  0  0  0  0  0  0  0  0  0
   -9.0310   21.8400  -31.7690 C   0  0  0  0  0  0  0  0  0  0  0  0
   -9.7991   22.0115  -32.5375 H   0  0  0  0  0  0  0  0  0  0  0  0
   -9.2040   22.4928  -30.9007 H   0  0  0  0  0  0  0  0  0  0  0  0
   -9.1010   20.3830  -31.3070 C   0  0  0  0  0  0  0  0  0  0  0  0
  -10.0441   20.2161  -30.7659 H   0  0  0  0  0  0  0  0  0  0  0  0
   -8.2506   20.1708  -30.6423 H   0  0  0  0  0  0  0  0  0  0  0  0
   -9.0440   19.5210  -32.4310 O   0  0  0  0  0  0  0  0  0  0  0  0
   -8.7480   18.2000  -32.0300 C   0  0  0  0  0  0  0  0  0  0  0  0
   -8.7177   17.5459  -32.9139 H   0  0  0  0  0  0  0  0  0  0  0  0
   -9.5247   17.8427  -31.3379 H   0  0  0  0  0  0  0  0  0  0  0  0
   -7.3960   18.1760  -31.3340 C   0  0  0  0  0  0  0  0  0  0  0  0
   -7.5446   18.1786  -30.2441 H   0  0  0  0  0  0  0  0  0  0  0  0
   -6.8487   17.2680  -31.6273 H   0  0  0  0  0  0  0  0  0  0  0  0
   -6.8168   19.0640  -31.6273 H   0  0  0  0  0  0  0  0  0  0  0  0
   -6.8980   20.3390  -33.5540 N   0  0  0  0  0  0  0  0  0  0  0  0
   -7.7910   20.2440  -34.0840 H   0  0  0  0  0  0  0  0  0  0  0  0
   -5.8930   19.4690  -33.8410 C   0  0  0  0  0  0  0  0  0  0  0  0
   -6.0680   18.4660  -34.8080 C   0  0  0  0  0  0  0  0  0  0  0  0
   -7.0261   18.3807  -35.3416 H   0  0  0  0  0  0  0  0  0  0  0  0
  1  2  1  0
  2  3  1  0
  3  4  1  0
  4  5  1  0
  4  6  1  0
  4  7  1  0
  3  8  2  0
  8  9  1  0
  8 10  1  0
 10 11  2  0
 11 12  1  0
 11 13  1  0
 13 14  1  0
 14 15  1  0
 14 16  1  0
 14 17  1  0
 17 18  1  0
 17 19  1  0
 17 20  1  0
 20 21  1  0
 21 22  1  0
 21 23  1  0
 21 24  1  0
 24 25  1  0
 24 26  1  0
 24 27  1  0
 27 28  1  0
 28 29  1  0
 28 30  1  0
 28 31  1  0
 31 32  1  0
 31 33  1  0
 31 34  1  0
 13 35  1  0
 35 36  2  0
 36 37  1  0
 37 38  1  0
 37 39  1  0
 37 40  1  0
 40 41  1  0
 40 42  1  0
 40 43  1  0
 43 44  1  0
 44 45  1  0
 44 46  1  0
 44 47  1  0
 47 48  1  0
 47 49  1  0
 47 50  1  0
 35 51  1  0
 51 52  1  0
 51 53  2  0
 53 54  1  0
 54 55  1  0
 54  2  2  0
 53 10  1  0
M  CHG  1  51   1
M  END
>  <UniqueID>  (4) 
4

>  <SMILES>  (4) 
CCOCC/N=c1\[nH+]c2ccc(C)cc2cn1CCOCCOCC

>  <Energy>  (4) 
51.94598757825726

>  <Genealogy>  (4) 
CCOCCN=c1[nH+]c2ccc(C)cc2cn1CCOCCOCC (protonated)
CCOCC/N=c1\[nH+]c2ccc(C)cc2cn1CCOCCOCC (cis-trans isomerization)
CCOCC/N=c1\[nH+]c2ccc(C)cc2cn1CCOCCOCC (3D coordinates assigned)
CCOCC/N=c1\[nH+]c2ccc(C)cc2cn1CCOCCOCC (optimized conformer: 51.94598757825726 kcal/mol)

>  <smiles>  (4) 
CCOCCN=c1nc2ccc(C)cc2cn1CCOCCOCC

>  <score_type>  (4) 
oracle

>  <origin>  (4) 
adg

>  <m_score__min__energy>  (4) 
-7.2300000000000004

>  <m_primary>  (4) 
energy

$$$$
4:0
     RDKit          3D

 44 46  0  0  0  0  0  0  0  0999 V2000
   -6.7040   24.6390  -30.4030 C   0  0  0  0  0  0  0  0  0  0  0  0
   -5.7370   25.7250  -29.9430 C   0  0  0  0  0  0  0  0  0  0  0  0
   -4.4320   25.5050  -30.4820 O   0  0  0  0  0  0  0  0  0  0  0  0
   -3.7140   24.2950  -30.4670 C   0  0  0  0  0  0  0  0  0  0  0  0
   -4.1740   23.1720  -31.1810 C   0  0  0  0  0  0  0  0  0  0  0  0
   -3.4680   21.9630  -31.1640 C   0  0  0  0  0  0  0  0  0  0  0  0
   -3.9600   20.7750  -31.9090 C   0  0  0  0  0  0  0  0  0  0  0  0
   -3.1610   20.1240  -32.8660 C   0  0  0  0  0  0  0  0  0  0  0  0
   -3.6560   19.0030  -33.5570 C   0  0  0  0  0  0  0  0  0  0  0  0
   -2.8850   18.3260  -34.5160 O   0  0  0  0  0  0  0  0  0  0  0  0
   -1.7830   17.4740  -34.2160 C   0  0  0  0  0  0  0  0  0  0  0  0
   -4.9610   18.5540  -33.2810 C   0  0  0  0  0  0  0  0  0  0  0  0
   -5.5140   17.4390  -33.9390 C   0  0  0  0  0  0  0  0  0  0  0  0
   -6.8150   17.0220  -33.6450 C   0  0  0  0  0  0  0  0  0  0  0  0
   -7.5770   17.7100  -32.6950 C   0  0  0  0  0  0  0  0  0  0  0  0
   -7.0400   18.8180  -32.0360 C   0  0  0  0  0  0  0  0  0  0  0  0
   -5.7380   19.2430  -32.3220 C   0  0  0  0  0  0  0  0  0  0  0  0
   -5.2210   20.3200  -31.6750 N   0  0  0  0  0  0  0  0  0  0  0  0
   -2.2630   21.8910  -30.4570 C   0  0  0  0  0  0  0  0  0  0  0  0
   -1.7660   22.9970  -29.7510 C   0  0  0  0  0  0  0  0  0  0  0  0
   -0.5140   22.8770  -29.0420 N   0  0  0  0  0  0  0  0  0  0  0  0
   -0.1560   21.7750  -28.5750 O   0  0  0  0  0  0  0  0  0  0  0  0
    0.3510   23.9430  -28.9450 O   0  0  0  0  0  0  0  0  0  0  0  0
   -2.5010   24.2060  -29.7330 C   0  0  0  0  0  0  0  0  0  0  0  0
   -1.9910   25.2670  -28.9610 O   0  0  0  0  0  0  0  0  0  0  0  0
   -1.9360   25.3470  -27.5400 C   0  0  0  0  0  0  0  0  0  0  0  0
   -7.1445   24.1443  -29.5248 H   0  0  0  0  0  0  0  0  0  0  0  0
   -7.5032   25.0920  -31.0080 H   0  0  0  0  0  0  0  0  0  0  0  0
   -6.1617   23.8974  -31.0080 H   0  0  0  0  0  0  0  0  0  0  0  0
   -6.1067   26.7040  -30.2820 H   0  0  0  0  0  0  0  0  0  0  0  0
   -5.6737   25.6983  -28.8451 H   0  0  0  0  0  0  0  0  0  0  0  0
   -5.1047   23.2458  -31.7626 H   0  0  0  0  0  0  0  0  0  0  0  0
   -2.1458   20.4925  -33.0749 H   0  0  0  0  0  0  0  0  0  0  0  0
   -1.6722   17.3883  -33.1250 H   0  0  0  0  0  0  0  0  0  0  0  0
   -1.9624   16.4774  -34.6457 H   0  0  0  0  0  0  0  0  0  0  0  0
   -0.8637   17.8985  -34.6457 H   0  0  0  0  0  0  0  0  0  0  0  0
   -4.9198   16.8940  -34.6873 H   0  0  0  0  0  0  0  0  0  0  0  0
   -7.2412   16.1498  -34.1624 H   0  0  0  0  0  0  0  0  0  0  0  0
   -8.6005   17.3779  -32.4667 H   0  0  0  0  0  0  0  0  0  0  0  0
   -7.6421   19.3579  -31.2903 H   0  0  0  0  0  0  0  0  0  0  0  0
   -1.6943   20.9494  -30.4545 H   0  0  0  0  0  0  0  0  0  0  0  0
   -2.5080   24.5150  -27.1035 H   0  0  0  0  0  0  0  0  0  0  0  0
   -0.8886   25.2851  -27.2095 H   0  0  0  0  0  0  0  0  0  0  0  0
   -2.3689   26.3027  -27.2095 H   0  0  0  0  0  0  0  0  0  0  0  0
  1  2  1  0
  2  3  1  0
  3  4  1  0
  4  5  2  0
  5  6  1  0
  6  7  1  0
  7  8  2  0
  8  9  1  0
  9 10  1  0
 10 11  1  0
  9 12  2  0
 12 13  1  0
 13 14  2  0
 14 15  1  0
 15 16  2  0
 16 17  1  0
 17 18  2  0
  6 19  2  0
 19 20  1  0
 20 21  1  0
 21 22  2  0
 21 23  1  0
 20 24  2  0
 24 25  1  0
 25 26  1  0
 24  4  1  0
 18  7  1  0
 17 12  1  0
  1 27  1  0
  1 28  1  0
  1 29  1  0
  2 30  1  0
  2 31  1  0
  5 32  1  0
  8 33  1  0
 11 34  1  0
 11 35  1  0
 11 36  1  0
 13 37  1  0
 14 38  1  0
 15 39  1  0
 16 40  1  0
 19 41  1  0
 26 42  1  0
 26 43  1  0
 26 44  1  0
M  CHG  2  21   1  23  -1
M  END
>  <UniqueID>  (5) 
5

>  <SMILES>  (5) 
CCOc1cc(-c2cc(OC)c3ccccc3n2)cc([N+](=O)[O-])c1OC

>  <Energy>  (5) 
57.74273877700276

>  <Genealogy>  (5) 
CCOc1cc(-c2cc(OC)c3ccccc3n2)cc([N+](=O)[O-])c1OC (3D coordinates assigned)
CCOc1cc(-c2cc(OC)c3ccccc3n2)cc([N+](=O)[O-])c1OC (optimized conformer: 57.74273877700276 kcal/mol)

>  <smiles>  (5) 
CCOc1cc(-c2cc(OC)c3ccccc3n2)cc([N+](=O)[O-])c1OC

>  <score_type>  (5) 
oracle

>  <origin>  (5) 
adg

>  <m_score__min__energy>  (5) 
-8.1500000000000004

>  <m_primary>  (5) 
energy

$$$$
5:0
     RDKit          3D

 53 55  0  0  0  0  0  0  0  0999 V2000
   -1.7830   25.4010  -26.9140 C   0  0  0  0  0  0  0  0  0  0  0  0
   -1.2300   25.6850  -28.3080 C   0  0  0  0  0  0  0  0  0  0  0  0
   -2.1500   25.2780  -29.3060 O   0  0  0  0  0  0  0  0  0  0  0  0
   -2.2530   23.8680  -29.3710 C   0  0  0  0  0  0  0  0  0  0  0  0
   -3.6280   23.3970  -28.8790 C   0  0  0  0  0  0  0  0  0  0  0  0
   -4.4630   24.5460  -28.4900 N   0  0  0  0  0  0  0  0  0  0  0  0
   -5.5550   24.7900  -29.4470 C   0  0  0  0  0  0  0  0  0  0  0  0
   -5.3550   24.0070  -30.7590 C   0  0  0  0  0  0  0  0  0  0  0  0
   -6.6750   23.5060  -31.3600 C   0  0  0  0  0  0  0  0  0  0  0  0
   -6.4370   22.8220  -32.6340 N   0  0  0  0  0  0  0  0  0  0  0  0
   -6.1260   21.4180  -32.6950 C   0  0  0  0  0  0  0  0  0  0  0  0
   -4.7970   20.9900  -32.8890 C   0  0  0  0  0  0  0  0  0  0  0  0
   -3.7570   21.9230  -33.0970 C   0  0  0  0  0  0  0  0  0  0  0  0
   -2.4360   21.4980  -33.2230 C   0  0  0  0  0  0  0  0  0  0  0  0
   -2.1270   20.1470  -33.1420 C   0  0  0  0  0  0  0  0  0  0  0  0
   -3.1430   19.2040  -32.9790 C   0  0  0  0  0  0  0  0  0  0  0  0
   -4.5040   19.5990  -32.8970 C   0  0  0  0  0  0  0  0  0  0  0  0
   -5.5290   18.6700  -32.8260 N   0  0  0  0  0  0  0  0  0  0  0  0
   -5.2530   17.2460  -33.1140 C   0  0  0  0  0  0  0  0  0  0  0  0
   -6.8170   19.0790  -32.5260 C   0  0  0  0  0  0  0  0  0  0  0  0
   -7.8420   18.1490  -32.2030 C   0  0  0  0  0  0  0  0  0  0  0  0
   -9.1500   18.5710  -31.9700 C   0  0  0  0  0  0  0  0  0  0  0  0
   -9.4730   19.9200  -32.0400 C   0  0  0  0  0  0  0  0  0  0  0  0
   -8.4830   20.8610  -32.3070 C   0  0  0  0  0  0  0  0  0  0  0  0
   -7.1430   20.4620  -32.5170 C   0  0  0  0  0  0  0  0  0  0  0  0
   -1.0733   25.7655  -26.1567 H   0  0  0  0  0  0  0  0  0  0  0  0
   -2.7474   25.9154  -26.7903 H   0  0  0  0  0  0  0  0  0  0  0  0
   -1.9268   24.3175  -26.7903 H   0  0  0  0  0  0  0  0  0  0  0  0
   -1.0424   26.7642  -28.4088 H   0  0  0  0  0  0  0  0  0  0  0  0
   -0.2950   25.1204  -28.4386 H   0  0  0  0  0  0  0  0  0  0  0  0
   -2.1128   23.5441  -30.4129 H   0  0  0  0  0  0  0  0  0  0  0  0
   -1.4787   23.4285  -28.7250 H   0  0  0  0  0  0  0  0  0  0  0  0
   -4.1298   22.8426  -29.6858 H   0  0  0  0  0  0  0  0  0  0  0  0
   -3.4868   22.7491  -28.0014 H   0  0  0  0  0  0  0  0  0  0  0  0
   -3.8650   25.4070  -28.4950 H   0  0  0  0  0  0  0  0  0  0  0  0
   -6.5055   24.4792  -28.9888 H   0  0  0  0  0  0  0  0  0  0  0  0
   -5.5633   25.8632  -29.6884 H   0  0  0  0  0  0  0  0  0  0  0  0
   -4.8638   24.6659  -31.4901 H   0  0  0  0  0  0  0  0  0  0  0  0
   -4.7406   23.1244  -30.5274 H   0  0  0  0  0  0  0  0  0  0  0  0
   -7.1490   22.8053  -30.6569 H   0  0  0  0  0  0  0  0  0  0  0  0
   -7.3324   24.3695  -31.5394 H   0  0  0  0  0  0  0  0  0  0  0  0
   -6.7010   23.3130  -33.5180 H   0  0  0  0  0  0  0  0  0  0  0  0
   -3.9923   22.9957  -33.1601 H   0  0  0  0  0  0  0  0  0  0  0  0
   -1.6359   22.2349  -33.3871 H   0  0  0  0  0  0  0  0  0  0  0  0
   -1.0790   19.8190  -33.2064 H   0  0  0  0  0  0  0  0  0  0  0  0
   -2.8847   18.1368  -32.9130 H   0  0  0  0  0  0  0  0  0  0  0  0
   -5.1461   16.6946  -32.1682 H   0  0  0  0  0  0  0  0  0  0  0  0
   -6.0855   16.8212  -33.6940 H   0  0  0  0  0  0  0  0  0  0  0  0
   -4.3220   17.1630  -33.6940 H   0  0  0  0  0  0  0  0  0  0  0  0
   -7.5991   17.0783  -32.1357 H   0  0  0  0  0  0  0  0  0  0  0  0
   -9.9293   17.8328  -31.7298 H   0  0  0  0  0  0  0  0  0  0  0  0
  -10.5123   20.2450  -31.8843 H   0  0  0  0  0  0  0  0  0  0  0  0
   -8.7462   21.9280  -32.3552 H   0  0  0  0  0  0  0  0  0  0  0  0
  1  2  1  0
  2  3  1  0
  3  4  1  0
  4  5  1  0
  5  6  1  0
  6  7  1  0
  7  8  1  0
  8  9  1  0
  9 10  1  0
 10 11  1  0
 11 12  2  0
 12 13  1  0
 13 14  2  0
 14 15  1  0
 15 16  2  0
 16 17  1  0
 17 18  2  0
 18 19  1  0
 18 20  1  0
 20 21  2  0
 21 22  1  0
 22 23  2  0
 23 24  1  0
 24 25  2  0
 25 11  1  0
 17 12  1  0
 25 20  1  0
  1 26  1  0
  1 27  1  0
  1 28  1  0
  2 29  1  0
  2 30  1  0
  4 31  1  0
  4 32  1  0
  5 33  1  0
  5 34  1  0
  6 35  1  0
  7 36  1  0
  7 37  1  0
  8 38  1  0
  8 39  1  0
  9 40  1  0
  9 41  1  0
 10 42  1  0
 13 43  1  0
 14 44  1  0
 15 45  1  0
 16 46  1  0
 19 47  1  0
 19 48  1  0
 19 49  1  0
 21 50  1  0
 22 51  1  0
 23 52  1  0
 24 53  1  0
M  CHG  1  18   1
M  END
>  <UniqueID>  (6) 
6

>  <SMILES>  (6) 
CCOCCNCCCNc1c2ccccc2[n+](C)c2ccccc12

>  <Energy>  (6) 
78.53885415485009

>  <Genealogy>  (6) 
CCOCCNCCCNc1c2ccccc2[n+](C)c2ccccc12 (3D coordinates assigned)
CCOCCNCCCNc1c2ccccc2[n+](C)c2ccccc12 (optimized conformer: 78.53885415485009 kcal/mol)

>  <smiles>  (6) 
CCOCCNCCCNc1c2ccccc2[n+](C)c2ccccc12

>  <score_type>  (6) 
oracle

>  <origin>  (6) 
adg

>  <m_score__min__energy>  (6) 
-9.75

>  <m_primary>  (6) 
energy

$$$$
6:0
     RDKit          3D

 34 35  0  0  0  0  0  0  0  0999 V2000
   -4.4900   19.2070  -33.1650 C   0  0  0  0  0  0  0  0  0  0  0  0
   -5.7760   19.6670  -33.8400 C   0  0  0  0  0  0  0  0  0  0  0  0
   -6.5590   20.4920  -32.9260 N   0  0  0  0  0  0  0  0  0  0  0  0
   -7.8560   20.3250  -32.6730 N   0  0  0  0  0  0  0  0  0  0  0  0
   -8.2610   21.3420  -31.8620 C   0  0  0  0  0  0  0  0  0  0  0  0
   -9.6710   21.5750  -31.4360 C   0  0  0  0  0  0  0  0  0  0  0  0
   -7.1830   22.1730  -31.6440 C   0  0  0  0  0  0  0  0  0  0  0  0
   -6.8950   23.3900  -31.0440 C   0  0  0  0  0  0  0  0  0  0  0  0
   -5.5530   23.7350  -31.2930 C   0  0  0  0  0  0  0  0  0  0  0  0
   -4.9020   24.9640  -30.8230 C   0  0  0  0  0  0  0  0  0  0  0  0
   -5.5550   26.0420  -30.7840 O   0  0  0  0  0  0  0  0  0  0  0  0
   -3.5290   24.9370  -30.4190 N   0  0  0  0  0  0  0  0  0  0  0  0
   -3.0660   24.3660  -29.1580 C   0  0  0  0  0  0  0  0  0  0  0  0
   -1.5640   24.6020  -28.9710 C   0  0  0  0  0  0  0  0  0  0  0  0
   -1.2750   25.9890  -28.9620 O   0  0  0  0  0  0  0  0  0  0  0  0
   -0.8590   26.3970  -27.6780 C   0  0  0  0  0  0  0  0  0  0  0  0
   -4.7790   22.5400  -32.2600 S   0  0  0  0  0  0  0  0  0  0  0  0
   -6.1700   21.6120  -32.3030 C   0  0  0  0  0  0  0  0  0  0  0  0
   -4.6131   19.2510  -32.0728 H   0  0  0  0  0  0  0  0  0  0  0  0
   -4.2667   18.1732  -33.4674 H   0  0  0  0  0  0  0  0  0  0  0  0
   -3.6617   19.8646  -33.4674 H   0  0  0  0  0  0  0  0  0  0  0  0
   -5.5259   20.2545  -34.7357 H   0  0  0  0  0  0  0  0  0  0  0  0
   -6.3681   18.7841  -34.1225 H   0  0  0  0  0  0  0  0  0  0  0  0
   -9.7254   21.5840  -30.3374 H   0  0  0  0  0  0  0  0  0  0  0  0
  -10.0174   22.5426  -31.8282 H   0  0  0  0  0  0  0  0  0  0  0  0
  -10.3103   20.7703  -31.8282 H   0  0  0  0  0  0  0  0  0  0  0  0
   -7.6069   23.9938  -30.4621 H   0  0  0  0  0  0  0  0  0  0  0  0
   -3.6111   24.8378  -28.3272 H   0  0  0  0  0  0  0  0  0  0  0  0
   -3.2527   23.2821  -29.1730 H   0  0  0  0  0  0  0  0  0  0  0  0
   -1.2447   24.1599  -28.0157 H   0  0  0  0  0  0  0  0  0  0  0  0
   -1.0243   24.1325  -29.8066 H   0  0  0  0  0  0  0  0  0  0  0  0
   -1.4251   25.8418  -26.9155 H   0  0  0  0  0  0  0  0  0  0  0  0
    0.2152   26.1925  -27.5584 H   0  0  0  0  0  0  0  0  0  0  0  0
   -1.0426   27.4750  -27.5584 H   0  0  0  0  0  0  0  0  0  0  0  0
  1  2  1  0
  2  3  1  0
  3  4  1  0
  4  5  2  0
  5  6  1  0
  5  7  1  0
  7  8  1  0
  8  9  2  0
  9 10  1  0
 10 11  2  0
 10 12  1  0
 12 13  1  0
 13 14  1  0
 14 15  1  0
 15 16  1  0
  9 17  1  0
 17 18  1  0
 18  3  1  0
 18  7  2  0
  1 19  1  0
  1 20  1  0
  1 21  1  0
  2 22  1  0
  2 23  1  0
  6 24  1  0
  6 25  1  0
  6 26  1  0
  8 27  1  0
 13 28  1  0
 13 29  1  0
 14 30  1  0
 14 31  1  0
 16 32  1  0
 16 33  1  0
 16 34  1  0
M  CHG  1  12  -1
M  END
>  <UniqueID>  (7) 
7

>  <SMILES>  (7) 
CCn1nc(C)c2cc(C(=O)[N-]CCOC)sc21

>  <Energy>  (7) 
107.40734899897019

>  <Genealogy>  (7) 
CCn1nc(C)c2cc(C(=O)[N-]CCOC)sc21 (protonated)
CCn1nc(C)c2cc(C(=O)[N-]CCOC)sc21 (3D coordinates assigned)
CCn1nc(C)c2cc(C(=O)[N-]CCOC)sc21 (optimized conformer: 107.40734899897019 kcal/mol)

>  <smiles>  (7) 
CCn1nc(C)c2cc(C(=O)NCCOC)sc21

>  <score_type>  (7) 
oracle

>  <origin>  (7) 
adg

>  <m_score__min__energy>  (7) 
-9.2300000000000004

>  <m_primary>  (7) 
energy

$$$$
7:0
     RDKit          3D

 54 58  0  0  0  0  0  0  0  0999 V2000
   -4.3390   17.6970  -32.7620 C   0  0  0  0  0  0  0  0  0  0  0  0
   -4.9280   19.0110  -33.0220 N   0  0  0  0  0  0  0  0  0  0  0  0
   -6.2390   19.3260  -33.0820 C   0  0  0  0  0  0  0  0  0  0  0  0
   -7.5890   18.1640  -32.8490 S   0  0  0  0  0  0  0  0  0  0  0  0
   -8.4530   19.1690  -31.5860 C   0  0  0  0  0  0  0  0  0  0  0  0
   -9.2230   20.3530  -32.1900 C   0  0  0  0  0  0  0  0  0  0  0  0
   -9.0420   21.6640  -31.4080 C   0  0  0  0  0  0  0  0  0  0  0  0
   -7.6420   22.1320  -31.4450 N   0  0  0  0  0  0  0  0  0  0  0  0
   -7.4820   23.4010  -32.1730 C   0  0  0  0  0  0  0  0  0  0  0  0
   -6.3760   24.1910  -31.4960 C   0  0  1  0  0  0  0  0  0  0  0  0
   -6.7440   24.9230  -30.2150 C   0  0  0  0  0  0  0  0  0  0  0  0
   -6.1520   23.5210  -30.1580 C   0  0  2  0  0  0  0  0  0  0  0  0
   -4.7100   23.3590  -29.7530 C   0  0  0  0  0  0  0  0  0  0  0  0
   -4.1870   22.0790  -29.5140 C   0  0  0  0  0  0  0  0  0  0  0  0
   -2.8400   21.9190  -29.1750 C   0  0  0  0  0  0  0  0  0  0  0  0
   -2.0030   23.0350  -29.0900 C   0  0  0  0  0  0  0  0  0  0  0  0
   -2.5120   24.3120  -29.3450 C   0  0  0  0  0  0  0  0  0  0  0  0
   -1.6970   25.3940  -29.2690 F   0  0  0  0  0  0  0  0  0  0  0  0
   -3.8590   24.4750  -29.6820 C   0  0  0  0  0  0  0  0  0  0  0  0
   -7.1060   22.3390  -30.0930 C   0  0  0  0  0  0  0  0  0  0  0  0
   -6.4280   20.6330  -33.3410 N   0  0  0  0  0  0  0  0  0  0  0  0
   -5.2220   21.1670  -33.4390 N   0  0  0  0  0  0  0  0  0  0  0  0
   -4.3120   20.1960  -33.2270 C   0  0  0  0  0  0  0  0  0  0  0  0
   -2.8510   20.4320  -33.2260 C   0  0  0  0  0  0  0  0  0  0  0  0
   -2.0410   19.7960  -34.1780 C   0  0  0  0  0  0  0  0  0  0  0  0
   -0.6650   20.0370  -34.1840 C   0  0  0  0  0  0  0  0  0  0  0  0
   -0.1180   20.8930  -33.2810 N   0  0  0  0  0  0  0  0  0  0  0  0
   -0.8810   21.5350  -32.3570 C   0  0  0  0  0  0  0  0  0  0  0  0
   -2.2600   21.3220  -32.3160 C   0  0  0  0  0  0  0  0  0  0  0  0
   -4.2668   17.5359  -31.6763 H   0  0  0  0  0  0  0  0  0  0  0  0
   -4.9733   16.9163  -33.2071 H   0  0  0  0  0  0  0  0  0  0  0  0
   -3.3341   17.6510  -33.2071 H   0  0  0  0  0  0  0  0  0  0  0  0
   -9.1648   18.5237  -31.0504 H   0  0  0  0  0  0  0  0  0  0  0  0
   -7.6880   19.5816  -30.9118 H   0  0  0  0  0  0  0  0  0  0  0  0
   -8.8691   20.5099  -33.2196 H   0  0  0  0  0  0  0  0  0  0  0  0
  -10.2923   20.0977  -32.1512 H   0  0  0  0  0  0  0  0  0  0  0  0
   -9.6880   22.4360  -31.8516 H   0  0  0  0  0  0  0  0  0  0  0  0
   -9.3143   21.4782  -30.3586 H   0  0  0  0  0  0  0  0  0  0  0  0
   -7.2106   23.1997  -33.2198 H   0  0  0  0  0  0  0  0  0  0  0  0
   -8.4227   23.9710  -32.1609 H   0  0  0  0  0  0  0  0  0  0  0  0
   -5.8094   24.5229  -32.3785 H   0  0  0  0  0  0  0  0  0  0  0  0
   -6.1487   25.7864  -29.8833 H   0  0  0  0  0  0  0  0  0  0  0  0
   -7.6538   25.4020  -29.8242 H   0  0  0  0  0  0  0  0  0  0  0  0
   -4.8399   21.1973  -29.5937 H   0  0  0  0  0  0  0  0  0  0  0  0
   -2.4389   20.9144  -28.9751 H   0  0  0  0  0  0  0  0  0  0  0  0
   -0.9435   22.9087  -28.8224 H   0  0  0  0  0  0  0  0  0  0  0  0
   -4.2539   25.4799  -29.8922 H   0  0  0  0  0  0  0  0  0  0  0  0
   -6.5677   21.4393  -29.7602 H   0  0  0  0  0  0  0  0  0  0  0  0
   -7.9192   22.5351  -29.3787 H   0  0  0  0  0  0  0  0  0  0  0  0
   -5.0340   22.1790  -33.6130 H   0  0  0  0  0  0  0  0  0  0  0  0
   -2.4863   19.1118  -34.9152 H   0  0  0  0  0  0  0  0  0  0  0  0
   -0.0228   19.5329  -34.9212 H   0  0  0  0  0  0  0  0  0  0  0  0
   -0.4106   22.2239  -31.6400 H   0  0  0  0  0  0  0  0  0  0  0  0
   -2.8795   21.8485  -31.5750 H   0  0  0  0  0  0  0  0  0  0  0  0
  1  2  1  0
  2  3  1  0
  3  4  1  0
  4  5  1  0
  5  6  1  0
  6  7  1  0
  7  8  1  0
  8  9  1  0
  9 10  1  0
 10 11  1  0
 11 12  1  0
 12 13  1  1
 13 14  2  0
 14 15  1  0
 15 16  2  0
 16 17  1  0
 17 18  1  0
 17 19  2  0
 12 20  1  0
  3 21  2  0
 21 22  1  0
 22 23  2  0
 23 24  1  0
 24 25  2  0
 25 26  1  0
 26 27  2  0
 27 28  1  0
 28 29  2  0
 23  2  1  0
 29 24  1  0
 20  8  1  0
 12 10  1  0
 19 13  1  0
  1 30  1  0
  1 31  1  0
  1 32  1  0
  5 33  1  0
  5 34  1  0
  6 35  1  0
  6 36  1  0
  7 37  1  0
  7 38  1  0
  9 39  1  0
  9 40  1  0
 10 41  1  6
 11 42  1  0
 11 43  1  0
 14 44  1  0
 15 45  1  0
 16 46  1  0
 19 47  1  0
 20 48  1  0
 20 49  1  0
 22 50  1  0
 25 51  1  0
 26 52  1  0
 28 53  1  0
 29 54  1  0
M  CHG  1  22   1
M  END
>  <UniqueID>  (8) 
8

>  <SMILES>  (8) 
Cn1c(SCCCN2C[C@H]3C[C@@]3(c3cccc(F)c3)C2)n[nH+]c1-c1ccncc1

>  <Energy>  (8) 
364.19408653323666

>  <Genealogy>  (8) 
Cn1c(SCCCN2CC3CC3(c3cccc(F)c3)C2)n[nH+]c1-c1ccncc1 (protonated)
Cn1c(SCCCN2C[C@H]3C[C@@]3(c3cccc(F)c3)C2)n[nH+]c1-c1ccncc1 (chirality)
Cn1c(SCCCN2C[C@H]3C[C@@]3(c3cccc(F)c3)C2)n[nH+]c1-c1ccncc1 (3D coordinates assigned)
Cn1c(SCCCN2C[C@H]3C[C@@]3(c3cccc(F)c3)C2)n[nH+]c1-c1ccncc1 (nonaromatic ring conformer: 364.19408653323666 kcal/mol)

>  <smiles>  (8) 
Cn1c(SCCCN2CC3CC3(c3cccc(F)c3)C2)nnc1-c1ccncc1

>  <score_type>  (8) 
oracle

>  <origin>  (8) 
adg

>  <m_score__min__energy>  (8) 
-9.2799999999999994

>  <m_primary>  (8) 
energy

$$$$
8:0
     RDKit          3D

 61 63  0  0  0  0  0  0  0  0999 V2000
   -0.5540   26.5350  -27.4020 C   0  0  0  0  0  0  0  0  0  0  0  0
   -1.6210   25.5650  -27.9140 C   0  0  0  0  0  0  0  0  0  0  0  0
   -1.2840   24.9900  -29.2270 N   0  0  0  0  0  0  0  0  0  0  0  0
   -0.3980   23.8240  -29.1170 C   0  0  0  0  0  0  0  0  0  0  0  0
   -1.1410   22.6370  -28.4890 C   0  0  0  0  0  0  0  0  0  0  0  0
   -2.0520   21.9050  -29.4800 C   0  0  0  0  0  0  0  0  0  0  0  0
   -3.0950   22.7620  -29.8980 O   0  0  0  0  0  0  0  0  0  0  0  0
   -3.8830   23.1480  -28.7910 C   0  0  0  0  0  0  0  0  0  0  0  0
   -4.5330   24.5100  -29.0700 C   0  0  0  0  0  0  0  0  0  0  0  0
   -4.2240   25.0130  -30.3580 O   0  0  0  0  0  0  0  0  0  0  0  0
   -5.3790   25.3100  -31.1270 C   0  0  0  0  0  0  0  0  0  0  0  0
   -5.9810   24.0710  -31.8170 C   0  0  0  0  0  0  0  0  0  0  0  0
   -5.1110   22.9030  -31.6770 N   0  0  0  0  0  0  0  0  0  0  0  0
   -5.4950   21.6280  -32.2080 C   0  0  0  0  0  0  0  0  0  0  0  0
   -4.5420   20.8340  -32.8370 C   0  0  0  0  0  0  0  0  0  0  0  0
   -4.8730   19.6110  -33.3580 C   0  0  0  0  0  0  0  0  0  0  0  0
   -6.1490   19.1110  -33.2840 N   0  0  0  0  0  0  0  0  0  0  0  0
   -6.4550   17.7770  -33.8370 C   0  0  0  0  0  0  0  0  0  0  0  0
   -7.1420   19.8820  -32.7010 C   0  0  0  0  0  0  0  0  0  0  0  0
   -8.4850   19.4390  -32.6340 C   0  0  0  0  0  0  0  0  0  0  0  0
   -9.4770   20.2410  -32.0680 C   0  0  0  0  0  0  0  0  0  0  0  0
   -9.1630   21.4990  -31.5650 C   0  0  0  0  0  0  0  0  0  0  0  0
   -7.8510   21.9650  -31.6130 C   0  0  0  0  0  0  0  0  0  0  0  0
   -6.8260   21.1670  -32.1580 C   0  0  0  0  0  0  0  0  0  0  0  0
   -3.6850   18.9460  -33.9630 C   0  0  0  0  0  0  0  0  0  0  0  0
   -2.5500   19.9730  -33.8180 C   0  0  0  0  0  0  0  0  0  0  0  0
   -3.1000   21.1450  -32.9950 C   0  0  0  0  0  0  0  0  0  0  0  0
   -0.5551   26.5340  -26.3020 H   0  0  0  0  0  0  0  0  0  0  0  0
    0.4342   26.2196  -27.7680 H   0  0  0  0  0  0  0  0  0  0  0  0
   -0.7741   27.5487  -27.7680 H   0  0  0  0  0  0  0  0  0  0  0  0
   -1.7287   24.7455  -27.1882 H   0  0  0  0  0  0  0  0  0  0  0  0
   -2.5566   26.1317  -28.0300 H   0  0  0  0  0  0  0  0  0  0  0  0
   -2.1650   24.7060  -29.7170 H   0  0  0  0  0  0  0  0  0  0  0  0
   -0.0473   23.5408  -30.1204 H   0  0  0  0  0  0  0  0  0  0  0  0
    0.4557   24.0872  -28.4752 H   0  0  0  0  0  0  0  0  0  0  0  0
   -0.3980   21.9232  -28.1037 H   0  0  0  0  0  0  0  0  0  0  0  0
   -1.7814   23.0373  -27.6892 H   0  0  0  0  0  0  0  0  0  0  0  0
   -1.4630   21.5935  -30.3553 H   0  0  0  0  0  0  0  0  0  0  0  0
   -2.4846   21.0208  -28.9891 H   0  0  0  0  0  0  0  0  0  0  0  0
   -4.6677   22.3962  -28.6206 H   0  0  0  0  0  0  0  0  0  0  0  0
   -3.2451   23.2243  -27.8981 H   0  0  0  0  0  0  0  0  0  0  0  0
   -5.6246   24.4018  -28.9877 H   0  0  0  0  0  0  0  0  0  0  0  0
   -4.1365   25.2232  -28.3324 H   0  0  0  0  0  0  0  0  0  0  0  0
   -6.1399   25.7447  -30.4622 H   0  0  0  0  0  0  0  0  0  0  0  0
   -5.0747   26.0107  -31.9185 H   0  0  0  0  0  0  0  0  0  0  0  0
   -6.9565   23.8467  -31.3609 H   0  0  0  0  0  0  0  0  0  0  0  0
   -6.0912   24.2925  -32.8888 H   0  0  0  0  0  0  0  0  0  0  0  0
   -4.3410   22.9120  -30.9720 H   0  0  0  0  0  0  0  0  0  0  0  0
   -6.6179   17.0670  -33.0128 H   0  0  0  0  0  0  0  0  0  0  0  0
   -7.3630   17.8358  -34.4551 H   0  0  0  0  0  0  0  0  0  0  0  0
   -5.6122   17.4342  -34.4551 H   0  0  0  0  0  0  0  0  0  0  0  0
   -8.7502   18.4490  -33.0336 H   0  0  0  0  0  0  0  0  0  0  0  0
  -10.5135   19.8759  -32.0194 H   0  0  0  0  0  0  0  0  0  0  0  0
   -9.9528   22.1278  -31.1281 H   0  0  0  0  0  0  0  0  0  0  0  0
   -7.6133   22.9652  -31.2218 H   0  0  0  0  0  0  0  0  0  0  0  0
   -3.4416   18.0193  -33.4227 H   0  0  0  0  0  0  0  0  0  0  0  0
   -3.8563   18.6587  -35.0109 H   0  0  0  0  0  0  0  0  0  0  0  0
   -1.6937   19.5174  -33.2992 H   0  0  0  0  0  0  0  0  0  0  0  0
   -2.2063   20.3166  -34.8048 H   0  0  0  0  0  0  0  0  0  0  0  0
   -2.6033   21.2006  -32.0151 H   0  0  0  0  0  0  0  0  0  0  0  0
   -2.9295   22.1173  -33.4804 H   0  0  0  0  0  0  0  0  0  0  0  0
  1  2  1  0
  2  3  1  0
  3  4  1  0
  4  5  1  0
  5  6  1  0
  6  7  1  0
  7  8  1  0
  8  9  1  0
  9 10  1  0
 10 11  1  0
 11 12  1  0
 12 13  1  0
 13 14  1  0
 14 15  2  0
 15 16  1  0
 16 17  2  0
 17 18  1  0
 17 19  1  0
 19 20  2  0
 20 21  1  0
 21 22  2  0
 22 23  1  0
 23 24  2  0
 16 25  1  0
 25 26  1  0
 26 27  1  0
 24 14  1  0
 27 15  1  0
 24 19  1  0
  1 28  1  0
  1 29  1  0
  1 30  1  0
  2 31  1  0
  2 32  1  0
  3 33  1  0
  4 34  1  0
  4 35  1  0
  5 36  1  0
  5 37  1  0
  6 38  1  0
  6 39  1  0
  8 40  1  0
  8 41  1  0
  9 42  1  0
  9 43  1  0
 11 44  1  0
 11 45  1  0
 12 46  1  0
 12 47  1  0
 13 48  1  0
 18 49  1  0
 18 50  1  0
 18 51  1  0
 20 52  1  0
 21 53  1  0
 22 54  1  0
 23 55  1  0
 25 56  1  0
 25 57  1  0
 26 58  1  0
 26 59  1  0
 27 60  1  0
 27 61  1  0
M  CHG  1  17   1
M  END
>  <UniqueID>  (9) 
9

>  <SMILES>  (9) 
CCNCCCOCCOCCNc1c2c([n+](C)c3ccccc13)CCC2

>  <Energy>  (9) 
78.51190217020783

>  <Genealogy>  (9) 
CCNCCCOCCOCCNc1c2c([n+](C)c3ccccc13)CCC2 (3D coordinates assigned)
CCNCCCOCCOCCNc1c2c([n+](C)c3ccccc13)CCC2 (nonaromatic ring conformer: 78.51190217020783 kcal/mol)

>  <smiles>  (9) 
CCNCCCOCCOCCNc1c2c([n+](C)c3ccccc13)CCC2

>  <score_type>  (9) 
oracle

>  <origin>  (9) 
adg

>  <m_score__min__energy>  (9) 
-9.0600000000000005

>  <m_primary>  (9) 
energy

$$$$
9:0
     RDKit          3D

 38 39  0  0  0  0  0  0  0  0999 V2000
   -5.7670   17.7280  -32.5240 C   0  0  0  0  0  0  0  0  0  0  0  0
   -6.7770   18.6190  -33.2470 C   0  0  0  0  0  0  0  0  0  0  0  0
   -8.1930   18.5150  -32.6570 C   0  0  0  0  0  0  0  0  0  0  0  0
   -8.7880   19.8930  -32.3040 C   0  0  0  0  0  0  0  0  0  0  0  0
   -8.7650   20.1520  -30.8510 N   0  0  0  0  0  0  0  0  0  0  0  0
   -8.7600   21.5930  -30.5450 C   0  0  0  0  0  0  0  0  0  0  0  0
   -8.2030   22.4270  -31.7120 C   0  0  0  0  0  0  0  0  0  0  0  0
   -6.9080   23.1290  -31.3470 C   0  0  0  0  0  0  0  0  0  0  0  0
   -7.0040   24.3400  -30.6390 C   0  0  0  0  0  0  0  0  0  0  0  0
   -5.8620   25.0530  -30.2750 C   0  0  0  0  0  0  0  0  0  0  0  0
   -4.5980   24.5770  -30.6170 C   0  0  0  0  0  0  0  0  0  0  0  0
   -3.4680   25.2980  -30.2460 O   0  0  0  0  0  0  0  0  0  0  0  0
   -4.4670   23.3830  -31.3330 C   0  0  0  0  0  0  0  0  0  0  0  0
   -3.2500   22.9510  -31.6570 O   0  0  0  0  0  0  0  0  0  0  0  0
   -3.0430   21.8310  -32.3410 C   0  0  0  0  0  0  0  0  0  0  0  0
   -1.8660   21.4780  -32.6160 O   0  0  0  0  0  0  0  0  0  0  0  0
   -4.1200   21.0510  -32.7570 C   0  0  0  0  0  0  0  0  0  0  0  0
   -5.4140   21.4590  -32.4410 C   0  0  0  0  0  0  0  0  0  0  0  0
   -5.6200   22.6450  -31.7110 C   0  0  0  0  0  0  0  0  0  0  0  0
   -5.8926   17.8388  -31.4368 H   0  0  0  0  0  0  0  0  0  0  0  0
   -5.9350   16.6785  -32.8075 H   0  0  0  0  0  0  0  0  0  0  0  0
   -4.7466   18.0256  -32.8075 H   0  0  0  0  0  0  0  0  0  0  0  0
   -6.4409   19.6637  -33.1721 H   0  0  0  0  0  0  0  0  0  0  0  0
   -6.8282   18.2807  -34.2925 H   0  0  0  0  0  0  0  0  0  0  0  0
   -8.8473   18.0265  -33.3941 H   0  0  0  0  0  0  0  0  0  0  0  0
   -8.1256   17.9317  -31.7268 H   0  0  0  0  0  0  0  0  0  0  0  0
   -8.2025   20.6730  -32.8126 H   0  0  0  0  0  0  0  0  0  0  0  0
   -9.8375   19.9033  -32.6333 H   0  0  0  0  0  0  0  0  0  0  0  0
   -9.5850   19.6900  -30.3920 H   0  0  0  0  0  0  0  0  0  0  0  0
   -7.8890   19.7250  -30.4670 H   0  0  0  0  0  0  0  0  0  0  0  0
   -9.7909   21.9158  -30.3378 H   0  0  0  0  0  0  0  0  0  0  0  0
   -8.1104   21.7532  -29.6719 H   0  0  0  0  0  0  0  0  0  0  0  0
   -8.0159   21.7601  -32.5666 H   0  0  0  0  0  0  0  0  0  0  0  0
   -8.9467   23.1980  -31.9617 H   0  0  0  0  0  0  0  0  0  0  0  0
   -7.9957   24.7313  -30.3679 H   0  0  0  0  0  0  0  0  0  0  0  0
   -5.9596   25.9951  -29.7156 H   0  0  0  0  0  0  0  0  0  0  0  0
   -3.9508   20.1256  -33.3272 H   0  0  0  0  0  0  0  0  0  0  0  0
   -6.2750   20.8543  -32.7620 H   0  0  0  0  0  0  0  0  0  0  0  0
  1  2  1  0
  2  3  1  0
  3  4  1  0
  4  5  1  0
  5  6  1  0
  6  7  1  0
  7  8  1  0
  8  9  2  0
  9 10  1  0
 10 11  2  0
 11 12  1  0
 11 13  1  0
 13 14  1  0
 14 15  1  0
 15 16  2  0
 15 17  1  0
 17 18  2  0
 18 19  1  0
 19  8  1  0
 19 13  2  0
  1 20  1  0
  1 21  1  0
  1 22  1  0
  2 23  1  0
  2 24  1  0
  3 25  1  0
  3 26  1  0
  4 27  1  0
  4 28  1  0
  5 29  1  0
  5 30  1  0
  6 31  1  0
  6 32  1  0
  7 33  1  0
  7 34  1  0
  9 35  1  0
 10 36  1  0
 17 37  1  0
 18 38  1  0
M  CHG  2   5   1  12  -1
M  END
>  <UniqueID>  (10) 
10

>  <SMILES>  (10) 
CCCC[NH2+]CCc1ccc([O-])c2oc(=O)ccc12

>  <Energy>  (10) 
38.40015098934579

>  <Genealogy>  (10) 
CCCC[NH2+]CCc1ccc([O-])c2oc(=O)ccc12 (protonated)
CCCC[NH2+]CCc1ccc([O-])c2oc(=O)ccc12 (3D coordinates assigned)
CCCC[NH2+]CCc1ccc([O-])c2oc(=O)ccc12 (optimized conformer: 38.40015098934579 kcal/mol)

>  <smiles>  (10) 
CCCCNCCc1ccc(O)c2oc(=O)ccc12

>  <score_type>  (10) 
oracle

>  <origin>  (10) 
adg

>  <m_score__min__energy>  (10) 
-9.6500000000000004

>  <m_primary>  (10) 
energy

$$$$
10:0
     RDKit          3D

 69 72  0  0  0  0  0  0  0  0999 V2000
   -0.4120   25.7040  -23.8840 C   0  0  0  0  0  0  0  0  0  0  0  0
   -0.4560   25.1070  -25.2970 C   0  0  0  0  0  0  0  0  0  0  0  0
   -1.3210   25.8280  -26.2870 N   0  0  0  0  0  0  0  0  0  0  0  0
   -1.2150   27.2740  -25.9540 C   0  0  0  0  0  0  0  0  0  0  0  0
   -2.7470   25.4520  -26.1070 C   0  0  0  0  0  0  0  0  0  0  0  0
   -0.8340   25.6580  -27.7030 C   0  0  0  0  0  0  0  0  0  0  0  0
   -1.5860   24.6280  -28.5900 C   0  0  0  0  0  0  0  0  0  0  0  0
   -2.6570   25.2000  -29.3220 O   0  0  0  0  0  0  0  0  0  0  0  0
   -3.8040   24.3710  -29.3140 C   0  0  0  0  0  0  0  0  0  0  0  0
   -4.6540   24.6880  -30.5370 C   0  0  0  0  0  0  0  0  0  0  0  0
   -4.5140   23.6540  -31.4890 O   0  0  0  0  0  0  0  0  0  0  0  0
   -3.5670   22.7150  -31.0250 C   0  0  0  0  0  0  0  0  0  0  0  0
   -2.9920   21.9240  -32.2030 C   0  0  0  0  0  0  0  0  0  0  0  0
   -3.9380   21.7890  -33.3320 N   0  0  0  0  0  0  0  0  0  0  0  0
   -4.5800   20.4870  -33.3640 C   0  0  0  0  0  0  0  0  0  0  0  0
   -3.8580   19.3280  -33.7900 C   0  0  0  0  0  0  0  0  0  0  0  0
   -2.4880   19.4000  -34.1450 C   0  0  0  0  0  0  0  0  0  0  0  0
   -1.8000   18.2810  -34.6050 C   0  0  0  0  0  0  0  0  0  0  0  0
   -2.4540   17.0650  -34.7350 C   0  0  0  0  0  0  0  0  0  0  0  0
   -3.7960   16.9500  -34.3860 C   0  0  0  0  0  0  0  0  0  0  0  0
   -4.5230   18.0590  -33.8810 C   0  0  0  0  0  0  0  0  0  0  0  0
   -5.8480   17.9330  -33.5060 N   0  0  0  0  0  0  0  0  0  0  0  0
   -6.5100   16.6130  -33.4640 C   0  0  0  0  0  0  0  0  0  0  0  0
   -6.5450   19.0620  -33.1730 C   0  0  0  0  0  0  0  0  0  0  0  0
   -7.8720   19.1120  -32.9120 N   0  0  0  0  0  0  0  0  0  0  0  0
   -8.1270   20.3880  -32.5910 C   0  0  0  0  0  0  0  0  0  0  0  0
   -9.3670   20.8980  -32.2120 C   0  0  0  0  0  0  0  0  0  0  0  0
   -9.4530   22.2580  -31.8860 C   0  0  0  0  0  0  0  0  0  0  0  0
   -8.3090   23.0720  -31.9420 C   0  0  0  0  0  0  0  0  0  0  0  0
   -7.0670   22.5400  -32.3300 C   0  0  0  0  0  0  0  0  0  0  0  0
   -6.9900   21.1740  -32.6610 C   0  0  0  0  0  0  0  0  0  0  0  0
   -5.9510   20.3140  -33.0610 C   0  0  0  0  0  0  0  0  0  0  0  0
   -0.4717   24.8943  -23.1418 H   0  0  0  0  0  0  0  0  0  0  0  0
    0.5293   26.2568  -23.7487 H   0  0  0  0  0  0  0  0  0  0  0  0
   -1.2621   26.3888  -23.7487 H   0  0  0  0  0  0  0  0  0  0  0  0
    0.5710   25.0978  -25.6909 H   0  0  0  0  0  0  0  0  0  0  0  0
   -0.9028   24.1082  -25.1839 H   0  0  0  0  0  0  0  0  0  0  0  0
   -1.2058   27.3989  -24.8611 H   0  0  0  0  0  0  0  0  0  0  0  0
   -0.2846   27.6805  -26.3773 H   0  0  0  0  0  0  0  0  0  0  0  0
   -2.0761   27.8118  -26.3773 H   0  0  0  0  0  0  0  0  0  0  0  0
   -2.9774   25.3912  -25.0331 H   0  0  0  0  0  0  0  0  0  0  0  0
   -3.3887   26.2116  -26.5773 H   0  0  0  0  0  0  0  0  0  0  0  0
   -2.9307   24.4747  -26.5773 H   0  0  0  0  0  0  0  0  0  0  0  0
   -0.9064   26.6375  -28.1984 H   0  0  0  0  0  0  0  0  0  0  0  0
    0.1871   25.2601  -27.6074 H   0  0  0  0  0  0  0  0  0  0  0  0
   -0.8702   24.1905  -29.3015 H   0  0  0  0  0  0  0  0  0  0  0  0
   -2.0160   23.8700  -27.9188 H   0  0  0  0  0  0  0  0  0  0  0  0
   -3.4961   23.3153  -29.3425 H   0  0  0  0  0  0  0  0  0  0  0  0
   -4.3872   24.5526  -28.3992 H   0  0  0  0  0  0  0  0  0  0  0  0
   -5.7094   24.7709  -30.2384 H   0  0  0  0  0  0  0  0  0  0  0  0
   -4.3216   25.6394  -30.9777 H   0  0  0  0  0  0  0  0  0  0  0  0
   -2.7521   23.2441  -30.5093 H   0  0  0  0  0  0  0  0  0  0  0  0
   -4.0596   22.0194  -30.3296 H   0  0  0  0  0  0  0  0  0  0  0  0
   -2.0895   22.4397  -32.5630 H   0  0  0  0  0  0  0  0  0  0  0  0
   -2.7712   20.9098  -31.8388 H   0  0  0  0  0  0  0  0  0  0  0  0
   -3.4200   21.9270  -34.2300 H   0  0  0  0  0  0  0  0  0  0  0  0
   -4.6220   22.5650  -33.3570 H   0  0  0  0  0  0  0  0  0  0  0  0
   -1.9577   20.3595  -34.0552 H   0  0  0  0  0  0  0  0  0  0  0  0
   -0.7345   18.3613  -34.8662 H   0  0  0  0  0  0  0  0  0  0  0  0
   -1.9097   16.1881  -35.1155 H   0  0  0  0  0  0  0  0  0  0  0  0
   -4.3030   15.9809  -34.5038 H   0  0  0  0  0  0  0  0  0  0  0  0
   -6.6611   16.3117  -32.4169 H   0  0  0  0  0  0  0  0  0  0  0  0
   -7.4838   16.6748  -33.9719 H   0  0  0  0  0  0  0  0  0  0  0  0
   -5.8781   15.8696  -33.9719 H   0  0  0  0  0  0  0  0  0  0  0  0
   -8.5830   18.3510  -32.9650 H   0  0  0  0  0  0  0  0  0  0  0  0
  -10.2549   20.2501  -32.1698 H   0  0  0  0  0  0  0  0  0  0  0  0
  -10.4190   22.6898  -31.5853 H   0  0  0  0  0  0  0  0  0  0  0  0
   -8.3862   24.1374  -31.6793 H   0  0  0  0  0  0  0  0  0  0  0  0
   -6.1726   23.1788  -32.3741 H   0  0  0  0  0  0  0  0  0  0  0  0
  1  2  1  0
  2  3  1  0
  3  4  1  0
  3  5  1  0
  3  6  1  0
  6  7  1  0
  7  8  1  0
  8  9  1  0
  9 10  1  0
 10 11  1  0
 11 12  1  0
 12 13  1  0
 13 14  1  0
 14 15  1  0
 15 16  2  0
 16 17  1  0
 17 18  2  0
 18 19  1  0
 19 20  2  0
 20 21  1  0
 21 22  2  0
 22 23  1  0
 22 24  1  0
 24 25  1  0
 25 26  1  0
 26 27  2  0
 27 28  1  0
 28 29  2  0
 29 30  1  0
 30 31  2  0
 31 32  1  0
 32 15  1  0
 21 16  1  0
 32 24  2  0
 31 26  1  0
  1 33  1  0
  1 34  1  0
  1 35  1  0
  2 36  1  0
  2 37  1  0
  4 38  1  0
  4 39  1  0
  4 40  1  0
  5 41  1  0
  5 42  1  0
  5 43  1  0
  6 44  1  0
  6 45  1  0
  7 46  1  0
  7 47  1  0
  9 48  1  0
  9 49  1  0
 10 50  1  0
 10 51  1  0
 12 52  1  0
 12 53  1  0
 13 54  1  0
 13 55  1  0
 14 56  1  0
 14 57  1  0
 17 58  1  0
 18 59  1  0
 19 60  1  0
 20 61  1  0
 23 62  1  0
 23 63  1  0
 23 64  1  0
 25 65  1  0
 27 66  1  0
 28 67  1  0
 29 68  1  0
 30 69  1  0
M  CHG  3   3   1  14   1  22   1
M  END
>  <UniqueID>  (11) 
11

>  <SMILES>  (11) 
CC[N+](C)(C)CCOCCOCC[NH2+]c1c2ccccc2[n+](C)c2[nH]c3ccccc3c12

>  <Energy>  (11) 
141.21394896324583

>  <Genealogy>  (11) 
CC[N+](C)(C)CCOCCOCC[NH2+]c1c2ccccc2[n+](C)c2[nH]c3ccccc3c12 (protonated)
CC[N+](C)(C)CCOCCOCC[NH2+]c1c2ccccc2[n+](C)c2[nH]c3ccccc3c12 (3D coordinates assigned)
CC[N+](C)(C)CCOCCOCC[NH2+]c1c2ccccc2[n+](C)c2[nH]c3ccccc3c12 (optimized conformer: 141.21394896324583 kcal/mol)

>  <smiles>  (11) 
CC[N+](C)(C)CCOCCOCCNc1c2ccccc2[n+](C)c2[nH]c3ccccc3c12

>  <score_type>  (11) 
oracle

>  <origin>  (11) 
adg

>  <m_score__min__energy>  (11) 
-8.8699999999999992

>  <m_primary>  (11) 
energy

$$$$
11:0
     RDKit          3D

 63 64  0  0  0  0  0  0  0  0999 V2000
   -5.5060   16.5390  -32.0480 C   0  0  0  0  0  0  0  0  0  0  0  0
   -6.5590   16.7890  -33.1250 C   0  0  0  0  0  0  0  0  0  0  0  0
   -7.0620   18.1820  -33.0700 N   0  0  0  0  0  0  0  0  0  0  0  0
   -6.1830   19.1240  -33.8100 C   0  0  0  0  0  0  0  0  0  0  0  0
   -5.4110   18.3650  -34.8830 C   0  0  0  0  0  0  0  0  0  0  0  0
   -7.2700   18.6100  -31.6670 C   0  0  0  0  0  0  0  0  0  0  0  0
   -8.7660   18.8440  -31.3940 C   0  0  0  0  0  0  0  0  0  0  0  0
   -9.4700   19.7120  -32.4610 C   0  0  0  0  0  0  0  0  0  0  0  0
   -9.7540   21.1730  -32.0560 C   0  0  0  0  0  0  0  0  0  0  0  0
   -9.1200   21.5760  -30.7080 C   0  0  0  0  0  0  0  0  0  0  0  0
   -7.7750   22.3020  -30.8690 C   0  0  0  0  0  0  0  0  0  0  0  0
   -7.4740   22.6570  -32.3390 C   0  0  0  0  0  0  0  0  0  0  0  0
   -6.3280   23.5710  -32.4470 N   0  0  0  0  0  0  0  0  0  0  0  0
   -5.1450   22.9380  -31.9140 C   0  0  0  0  0  0  0  0  0  0  0  0
   -4.5050   21.9220  -32.6640 C   0  0  0  0  0  0  0  0  0  0  0  0
   -3.4120   21.2100  -32.1420 C   0  0  0  0  0  0  0  0  0  0  0  0
   -2.9370   21.4860  -30.8540 C   0  0  0  0  0  0  0  0  0  0  0  0
   -3.5700   22.4860  -30.1090 C   0  0  0  0  0  0  0  0  0  0  0  0
   -4.6450   23.1970  -30.6110 C   0  0  0  0  0  0  0  0  0  0  0  0
   -5.0240   24.0900  -29.6020 C   0  0  0  0  0  0  0  0  0  0  0  0
   -6.0360   25.2000  -29.6740 C   0  0  0  0  0  0  0  0  0  0  0  0
   -4.1660   23.8380  -28.5260 C   0  0  0  0  0  0  0  0  0  0  0  0
   -4.2060   24.5440  -27.1980 C   0  0  0  0  0  0  0  0  0  0  0  0
   -3.2550   22.8890  -28.8600 N   0  0  0  0  0  0  0  0  0  0  0  0
   -2.1680   22.3740  -28.0210 C   0  0  0  0  0  0  0  0  0  0  0  0
   -5.9649   16.6479  -31.0542 H   0  0  0  0  0  0  0  0  0  0  0  0
   -5.1047   15.5206  -32.1569 H   0  0  0  0  0  0  0  0  0  0  0  0
   -4.6898   17.2683  -32.1569 H   0  0  0  0  0  0  0  0  0  0  0  0
   -6.1113   16.6080  -34.1133 H   0  0  0  0  0  0  0  0  0  0  0  0
   -7.4040   16.1065  -32.9509 H   0  0  0  0  0  0  0  0  0  0  0  0
   -6.7978   19.9036  -34.2834 H   0  0  0  0  0  0  0  0  0  0  0  0
   -5.4741   19.5898  -33.1097 H   0  0  0  0  0  0  0  0  0  0  0  0
   -4.7047   17.6706  -34.4045 H   0  0  0  0  0  0  0  0  0  0  0  0
   -6.1153   17.7979  -35.5094 H   0  0  0  0  0  0  0  0  0  0  0  0
   -4.8559   19.0788  -35.5094 H   0  0  0  0  0  0  0  0  0  0  0  0
   -6.8960   17.8277  -30.9901 H   0  0  0  0  0  0  0  0  0  0  0  0
   -6.7247   19.5499  -31.4960 H   0  0  0  0  0  0  0  0  0  0  0  0
   -9.2682   17.8660  -31.3570 H   0  0  0  0  0  0  0  0  0  0  0  0
   -8.8346   19.3910  -30.4421 H   0  0  0  0  0  0  0  0  0  0  0  0
   -8.8328   19.7279  -33.3575 H   0  0  0  0  0  0  0  0  0  0  0  0
  -10.4549   19.2491  -32.6209 H   0  0  0  0  0  0  0  0  0  0  0  0
   -9.3553   21.8345  -32.8392 H   0  0  0  0  0  0  0  0  0  0  0  0
  -10.8437   21.2693  -31.9410 H   0  0  0  0  0  0  0  0  0  0  0  0
   -9.8167   22.2425  -30.1785 H   0  0  0  0  0  0  0  0  0  0  0  0
   -8.9285   20.6505  -30.1452 H   0  0  0  0  0  0  0  0  0  0  0  0
   -7.8011   23.2301  -30.2792 H   0  0  0  0  0  0  0  0  0  0  0  0
   -6.9828   21.6247  -30.5173 H   0  0  0  0  0  0  0  0  0  0  0  0
   -7.2478   21.7329  -32.8911 H   0  0  0  0  0  0  0  0  0  0  0  0
   -8.3572   23.1584  -32.7615 H   0  0  0  0  0  0  0  0  0  0  0  0
   -6.5160   24.4700  -31.9560 H   0  0  0  0  0  0  0  0  0  0  0  0
   -6.1760   23.8080  -33.4570 H   0  0  0  0  0  0  0  0  0  0  0  0
   -4.8703   21.6856  -33.6743 H   0  0  0  0  0  0  0  0  0  0  0  0
   -2.9266   20.4313  -32.7486 H   0  0  0  0  0  0  0  0  0  0  0  0
   -2.0850   20.9287  -30.4375 H   0  0  0  0  0  0  0  0  0  0  0  0
   -6.3162   25.5073  -28.6557 H   0  0  0  0  0  0  0  0  0  0  0  0
   -5.6023   26.0574  -30.2095 H   0  0  0  0  0  0  0  0  0  0  0  0
   -6.9297   24.8472  -30.2095 H   0  0  0  0  0  0  0  0  0  0  0  0
   -4.1640   23.8021  -26.3869 H   0  0  0  0  0  0  0  0  0  0  0  0
   -3.3449   25.2238  -27.1181 H   0  0  0  0  0  0  0  0  0  0  0  0
   -5.1383   25.1222  -27.1181 H   0  0  0  0  0  0  0  0  0  0  0  0
   -2.4324   22.4993  -26.9606 H   0  0  0  0  0  0  0  0  0  0  0  0
   -2.0127   21.3066  -28.2365 H   0  0  0  0  0  0  0  0  0  0  0  0
   -1.2436   22.9299  -28.2365 H   0  0  0  0  0  0  0  0  0  0  0  0
  1  2  1  0
  2  3  1  0
  3  4  1  0
  4  5  1  0
  3  6  1  0
  6  7  1  0
  7  8  1  0
  8  9  1  0
  9 10  1  0
 10 11  1  0
 11 12  1  0
 12 13  1  0
 13 14  1  0
 14 15  2  0
 15 16  1  0
 16 17  2  0
 17 18  1  0
 18 19  2  0
 19 20  1  0
 20 21  1  0
 20 22  2  0
 22 23  1  0
 22 24  1  0
 24 25  1  0
 19 14  1  0
 24 18  1  0
  1 26  1  0
  1 27  1  0
  1 28  1  0
  2 29  1  0
  2 30  1  0
  4 31  1  0
  4 32  1  0
  5 33  1  0
  5 34  1  0
  5 35  1  0
  6 36  1  0
  6 37  1  0
  7 38  1  0
  7 39  1  0
  8 40  1  0
  8 41  1  0
  9 42  1  0
  9 43  1  0
 10 44  1  0
 10 45  1  0
 11 46  1  0
 11 47  1  0
 12 48  1  0
 12 49  1  0
 13 50  1  0
 13 51  1  0
 15 52  1  0
 16 53  1  0
 17 54  1  0
 21 55  1  0
 21 56  1  0
 21 57  1  0
 23 58  1  0
 23 59  1  0
 23 60  1  0
 25 61  1  0
 25 62  1  0
 25 63  1  0
M  CHG  1  13   1
M  END
>  <UniqueID>  (12) 
12

>  <SMILES>  (12) 
CCN(CC)CCCCCCC[NH2+]c1cccc2c1c(C)c(C)n2C

>  <Energy>  (12) 
89.02160682080404

>  <Genealogy>  (12) 
CCN(CC)CCCCCCC[NH2+]c1cccc2c1c(C)c(C)n2C (protonated)
CCN(CC)CCCCCCC[NH2+]c1cccc2c1c(C)c(C)n2C (3D coordinates assigned)
CCN(CC)CCCCCCC[NH2+]c1cccc2c1c(C)c(C)n2C (optimized conformer: 89.02160682080404 kcal/mol)

>  <smiles>  (12) 
CCN(CC)CCCCCCCNc1cccc2c1c(C)c(C)n2C

>  <score_type>  (12) 
oracle

>  <origin>  (12) 
adg

>  <m_score__min__energy>  (12) 
-7.9400000000000004

>  <m_primary>  (12) 
energy

$$$$
12:0
     RDKit          3D

 50 53  0  0  0  0  0  0  0  0999 V2000
   -3.7040   23.1860  -28.5440 C   0  0  0  0  0  0  0  0  0  0  0  0
   -3.4940   24.5370  -29.2200 C   0  0  0  0  0  0  0  0  0  0  0  0
   -4.1910   24.6010  -30.5130 N   0  0  0  0  0  0  0  0  0  0  0  0
   -5.3220   25.5480  -30.5110 C   0  0  0  0  0  0  0  0  0  0  0  0
   -6.5870   24.8860  -29.9490 C   0  0  0  0  0  0  0  0  0  0  0  0
   -6.7160   23.4050  -30.3360 C   0  0  0  0  0  0  0  0  0  0  0  0
   -6.0890   23.1250  -31.6280 N   0  0  0  0  0  0  0  0  0  0  0  0
   -6.0170   21.7800  -32.1150 C   0  0  0  0  0  0  0  0  0  0  0  0
   -4.7930   21.2180  -32.4590 C   0  0  0  0  0  0  0  0  0  0  0  0
   -4.7060   19.9160  -32.9230 C   0  0  0  0  0  0  0  0  0  0  0  0
   -5.8240   19.1620  -33.1740 N   0  0  0  0  0  0  0  0  0  0  0  0
   -5.7180   17.9270  -33.9660 C   0  0  0  0  0  0  0  0  0  0  0  0
   -7.0500   19.6340  -32.7290 C   0  0  0  0  0  0  0  0  0  0  0  0
   -8.2120   18.8250  -32.7540 C   0  0  0  0  0  0  0  0  0  0  0  0
   -9.4450   19.3280  -32.3410 C   0  0  0  0  0  0  0  0  0  0  0  0
   -9.5560   20.6380  -31.8850 C   0  0  0  0  0  0  0  0  0  0  0  0
   -8.4280   21.4530  -31.8150 C   0  0  0  0  0  0  0  0  0  0  0  0
   -7.1670   20.9660  -32.2110 C   0  0  0  0  0  0  0  0  0  0  0  0
   -3.2690   19.5990  -33.1040 C   0  0  0  0  0  0  0  0  0  0  0  0
   -2.6540   18.4000  -33.3090 N   0  0  0  0  0  0  0  0  0  0  0  0
   -1.2890   18.3330  -33.3290 C   0  0  0  0  0  0  0  0  0  0  0  0
   -0.5100   19.4810  -33.0800 C   0  0  0  0  0  0  0  0  0  0  0  0
   -1.1400   20.6960  -32.7830 C   0  0  0  0  0  0  0  0  0  0  0  0
   -2.5310   20.7280  -32.7970 C   0  0  0  0  0  0  0  0  0  0  0  0
   -3.4430   21.7770  -32.3770 C   0  0  0  0  0  0  0  0  0  0  0  0
   -3.1210   22.9220  -31.9630 O   0  0  0  0  0  0  0  0  0  0  0  0
   -3.6839   23.3154  -27.4518 H   0  0  0  0  0  0  0  0  0  0  0  0
   -4.6773   22.7721  -28.8463 H   0  0  0  0  0  0  0  0  0  0  0  0
   -2.9023   22.4962  -28.8463 H   0  0  0  0  0  0  0  0  0  0  0  0
   -3.8820   25.3302  -28.5640 H   0  0  0  0  0  0  0  0  0  0  0  0
   -2.4171   24.6723  -29.3988 H   0  0  0  0  0  0  0  0  0  0  0  0
   -3.4940   24.9270  -31.2230 H   0  0  0  0  0  0  0  0  0  0  0  0
   -5.0632   26.4173  -29.8886 H   0  0  0  0  0  0  0  0  0  0  0  0
   -5.5195   25.8630  -31.5463 H   0  0  0  0  0  0  0  0  0  0  0  0
   -6.5627   24.9601  -28.8518 H   0  0  0  0  0  0  0  0  0  0  0  0
   -7.4513   25.4134  -30.3789 H   0  0  0  0  0  0  0  0  0  0  0  0
   -6.2295   22.7913  -29.5635 H   0  0  0  0  0  0  0  0  0  0  0  0
   -7.7863   23.1642  -30.4157 H   0  0  0  0  0  0  0  0  0  0  0  0
   -5.4800   23.8430  -32.0820 H   0  0  0  0  0  0  0  0  0  0  0  0
   -5.6438   17.0628  -33.2895 H   0  0  0  0  0  0  0  0  0  0  0  0
   -6.6103   17.8205  -34.6004 H   0  0  0  0  0  0  0  0  0  0  0  0
   -4.8206   17.9741  -34.6004 H   0  0  0  0  0  0  0  0  0  0  0  0
   -8.1408   17.7847  -33.1043 H   0  0  0  0  0  0  0  0  0  0  0  0
  -10.3365   18.6846  -32.3759 H   0  0  0  0  0  0  0  0  0  0  0  0
  -10.5367   21.0311  -31.5790 H   0  0  0  0  0  0  0  0  0  0  0  0
   -8.5231   22.4854  -31.4474 H   0  0  0  0  0  0  0  0  0  0  0  0
   -3.1910   17.5130  -33.4070 H   0  0  0  0  0  0  0  0  0  0  0  0
   -0.7937   17.3741  -33.5414 H   0  0  0  0  0  0  0  0  0  0  0  0
    0.5878   19.4229  -33.1188 H   0  0  0  0  0  0  0  0  0  0  0  0
   -0.5539   21.5962  -32.5462 H   0  0  0  0  0  0  0  0  0  0  0  0
  1  2  1  0
  2  3  1  0
  3  4  1  0
  4  5  1  0
  5  6  1  0
  6  7  1  0
  7  8  1  0
  8  9  2  0
  9 10  1  0
 10 11  2  0
 11 12  1  0
 11 13  1  0
 13 14  2  0
 14 15  1  0
 15 16  2  0
 16 17  1  0
 17 18  2  0
 10 19  1  0
 19 20  2  0
 20 21  1  0
 21 22  2  0
 22 23  1  0
 23 24  2  0
 24 25  1  0
 25 26  2  0
 18  8  1  0
 24 19  1  0
 25  9  1  0
 18 13  1  0
  1 27  1  0
  1 28  1  0
  1 29  1  0
  2 30  1  0
  2 31  1  0
  3 32  1  0
  4 33  1  0
  4 34  1  0
  5 35  1  0
  5 36  1  0
  6 37  1  0
  6 38  1  0
  7 39  1  0
 12 40  1  0
 12 41  1  0
 12 42  1  0
 14 43  1  0
 15 44  1  0
 16 45  1  0
 17 46  1  0
 20 47  1  0
 21 48  1  0
 22 49  1  0
 23 50  1  0
M  CHG  2  11   1  20   1
M  END
>  <UniqueID>  (13) 
13

>  <SMILES>  (13) 
CCNCCCNc1c2c([n+](C)c3ccccc13)-c1[nH+]cccc1C2=O

>  <Energy>  (13) 
104.6831694081457

>  <Genealogy>  (13) 
CCNCCCNc1c2c([n+](C)c3ccccc13)-c1[nH+]cccc1C2=O (protonated)
CCNCCCNc1c2c([n+](C)c3ccccc13)-c1[nH+]cccc1C2=O (3D coordinates assigned)
CCNCCCNc1c2c([n+](C)c3ccccc13)-c1[nH+]cccc1C2=O (nonaromatic ring conformer: 104.6831694081457 kcal/mol)

>  <smiles>  (13) 
CCNCCCNc1c2c([n+](C)c3ccccc13)-c1ncccc1C2=O

>  <score_type>  (13) 
oracle

>  <origin>  (13) 
adg

>  <m_score__min__energy>  (13) 
-8.6899999999999995

>  <m_primary>  (13) 
energy

$$$$
13:0
     RDKit          3D

 48 49  0  0  0  0  0  0  0  0999 V2000
   -6.7330   17.8610  -31.6670 C   0  0  0  0  0  0  0  0  0  0  0  0
   -7.2770   18.4110  -32.9820 C   0  0  0  0  0  0  0  0  0  0  0  0
   -8.5270   19.0390  -32.7700 O   0  0  0  0  0  0  0  0  0  0  0  0
   -8.7240   19.3030  -31.3970 C   0  0  0  0  0  0  0  0  0  0  0  0
   -9.1130   20.7660  -31.2200 C   0  0  0  0  0  0  0  0  0  0  0  0
   -8.6940   21.4960  -32.3540 O   0  0  0  0  0  0  0  0  0  0  0  0
   -8.6120   22.8670  -32.0260 C   0  0  0  0  0  0  0  0  0  0  0  0
   -7.5030   23.0750  -31.0060 C   0  0  0  0  0  0  0  0  0  0  0  0
   -6.3520   23.6110  -31.6510 O   0  0  0  0  0  0  0  0  0  0  0  0
   -5.0530   23.5670  -31.1230 C   0  0  0  0  0  0  0  0  0  0  0  0
   -4.5580   24.5860  -30.2700 C   0  0  0  0  0  0  0  0  0  0  0  0
   -3.2620   24.4540  -29.7810 C   0  0  0  0  0  0  0  0  0  0  0  0
   -2.6050   25.2920  -28.9670 N   0  0  0  0  0  0  0  0  0  0  0  0
   -1.4080   24.6690  -28.8130 C   0  0  0  0  0  0  0  0  0  0  0  0
   -0.0820   25.3560  -27.8190 S   0  0  0  0  0  0  0  0  0  0  0  0
   -0.6860   24.8340  -26.1550 C   0  0  0  0  0  0  0  0  0  0  0  0
   -0.8630   23.3050  -26.0870 C   0  0  0  0  0  0  0  0  0  0  0  0
    0.2790   25.3080  -25.0530 C   0  0  0  0  0  0  0  0  0  0  0  0
   -2.0540   25.5030  -25.9400 C   0  0  0  0  0  0  0  0  0  0  0  0
   -1.2810   23.5030  -29.4990 N   0  0  0  0  0  0  0  0  0  0  0  0
   -2.4730   23.3920  -30.0980 C   0  0  0  0  0  0  0  0  0  0  0  0
   -2.9150   22.3720  -30.9350 C   0  0  0  0  0  0  0  0  0  0  0  0
   -4.2210   22.4650  -31.4540 C   0  0  0  0  0  0  0  0  0  0  0  0
   -4.8640   21.0780  -32.6050 Br  0  0  0  0  0  0  0  0  0  0  0  0
   -7.2309   18.3643  -30.8251 H   0  0  0  0  0  0  0  0  0  0  0  0
   -6.9265   16.7795  -31.6139 H   0  0  0  0  0  0  0  0  0  0  0  0
   -5.6494   18.0426  -31.6139 H   0  0  0  0  0  0  0  0  0  0  0  0
   -6.5665   19.1448  -33.3904 H   0  0  0  0  0  0  0  0  0  0  0  0
   -7.4087   17.5803  -33.6910 H   0  0  0  0  0  0  0  0  0  0  0  0
   -9.5274   18.6590  -31.0099 H   0  0  0  0  0  0  0  0  0  0  0  0
   -7.7958   19.0973  -30.8437 H   0  0  0  0  0  0  0  0  0  0  0  0
  -10.2048   20.8465  -31.1129 H   0  0  0  0  0  0  0  0  0  0  0  0
   -8.6298   21.1715  -30.3189 H   0  0  0  0  0  0  0  0  0  0  0  0
   -8.3909   23.4491  -32.9328 H   0  0  0  0  0  0  0  0  0  0  0  0
   -9.5700   23.2021  -31.6018 H   0  0  0  0  0  0  0  0  0  0  0  0
   -7.8465   23.7749  -30.2300 H   0  0  0  0  0  0  0  0  0  0  0  0
   -7.2461   22.1097  -30.5453 H   0  0  0  0  0  0  0  0  0  0  0  0
   -5.1792   25.4537  -30.0032 H   0  0  0  0  0  0  0  0  0  0  0  0
   -0.8999   22.9866  -25.0347 H   0  0  0  0  0  0  0  0  0  0  0  0
   -1.7999   23.0217  -26.5889 H   0  0  0  0  0  0  0  0  0  0  0  0
   -0.0156   22.8151  -26.5889 H   0  0  0  0  0  0  0  0  0  0  0  0
   -0.1575   25.0936  -24.0663 H   0  0  0  0  0  0  0  0  0  0  0  0
    1.2379   24.7784  -25.1527 H   0  0  0  0  0  0  0  0  0  0  0  0
    0.4460   26.3907  -25.1527 H   0  0  0  0  0  0  0  0  0  0  0  0
   -2.2499   25.5988  -24.8618 H   0  0  0  0  0  0  0  0  0  0  0  0
   -2.0507   26.5012  -26.4022 H   0  0  0  0  0  0  0  0  0  0  0  0
   -2.8398   24.8875  -26.4022 H   0  0  0  0  0  0  0  0  0  0  0  0
   -2.2650   21.5201  -31.1834 H   0  0  0  0  0  0  0  0  0  0  0  0
  1  2  1  0
  2  3  1  0
  3  4  1  0
  4  5  1  0
  5  6  1  0
  6  7  1  0
  7  8  1  0
  8  9  1  0
  9 10  1  0
 10 11  2  0
 11 12  1  0
 12 13  1  0
 13 14  1  0
 14 15  1  0
 15 16  1  0
 16 17  1  0
 16 18  1  0
 16 19  1  0
 14 20  2  0
 20 21  1  0
 21 22  1  0
 22 23  2  0
 23 24  1  0
 23 10  1  0
 21 12  2  0
  1 25  1  0
  1 26  1  0
  1 27  1  0
  2 28  1  0
  2 29  1  0
  4 30  1  0
  4 31  1  0
  5 32  1  0
  5 33  1  0
  7 34  1  0
  7 35  1  0
  8 36  1  0
  8 37  1  0
 11 38  1  0
 17 39  1  0
 17 40  1  0
 17 41  1  0
 18 42  1  0
 18 43  1  0
 18 44  1  0
 19 45  1  0
 19 46  1  0
 19 47  1  0
 22 48  1  0
M  CHG  1  13  -1
M  END
>  <UniqueID>  (14) 
14

>  <SMILES>  (14) 
CCOCCOCCOc1cc2[n-]c(SC(C)(C)C)nc2cc1Br

>  <Energy>  (14) 
69.95721665987065

>  <Genealogy>  (14) 
CCOCCOCCOc1cc2[n-]c(SC(C)(C)C)nc2cc1Br (protonated)
CCOCCOCCOc1cc2[n-]c(SC(C)(C)C)nc2cc1Br (3D coordinates assigned)
CCOCCOCCOc1cc2[n-]c(SC(C)(C)C)nc2cc1Br (optimized conformer: 69.95721665987065 kcal/mol)

>  <smiles>  (14) 
CCOCCOCCOc1cc2[nH]c(SC(C)(C)C)nc2cc1Br

>  <score_type>  (14) 
oracle

>  <origin>  (14) 
adg

>  <m_score__min__energy>  (14) 
-8.1300000000000008

>  <m_primary>  (14) 
energy

$$$$
14:0
     RDKit          3D

 62 64  0  0  0  0  0  0  0  0999 V2000
   -1.1250   18.6640  -32.8460 C   0  0  0  0  0  0  0  0  0  0  0  0
   -1.3500   19.2790  -34.2350 C   0  0  0  0  0  0  0  0  0  0  0  0
   -1.4510   20.7620  -34.1950 N   0  0  2  0  0  0  0  0  0  0  0  0
   -0.1100   21.3790  -34.2490 C   0  0  0  0  0  0  0  0  0  0  0  0
   -2.1510   21.2100  -32.9620 C   0  0  0  0  0  0  0  0  0  0  0  0
   -3.6050   21.6480  -33.2300 C   0  0  0  0  0  0  0  0  0  0  0  0
   -4.4840   21.2350  -32.1340 N   0  0  0  0  0  0  0  0  0  0  0  0
   -5.7250   20.5660  -32.4010 C   0  0  0  0  0  0  0  0  0  0  0  0
   -5.6990   19.2300  -32.8280 C   0  0  0  0  0  0  0  0  0  0  0  0
   -4.4990   18.6390  -33.2770 C   0  0  0  0  0  0  0  0  0  0  0  0
   -4.4840   17.3270  -33.7470 C   0  0  0  0  0  0  0  0  0  0  0  0
   -5.6630   16.5900  -33.7890 C   0  0  0  0  0  0  0  0  0  0  0  0
   -6.8570   17.1520  -33.3350 C   0  0  0  0  0  0  0  0  0  0  0  0
   -6.8950   18.4720  -32.8150 C   0  0  0  0  0  0  0  0  0  0  0  0
   -8.0530   19.0200  -32.3050 N   0  0  0  0  0  0  0  0  0  0  0  0
   -9.1970   18.1440  -31.9660 C   0  0  0  0  0  0  0  0  0  0  0  0
   -8.1390   20.3870  -32.0970 C   0  0  0  0  0  0  0  0  0  0  0  0
   -9.3830   21.0090  -31.8270 C   0  0  0  0  0  0  0  0  0  0  0  0
   -9.4710   22.3750  -31.5940 C   0  0  0  0  0  0  0  0  0  0  0  0
   -8.3390   23.1700  -31.6760 C   0  0  0  0  0  0  0  0  0  0  0  0
   -7.0980   22.6140  -31.9930 C   0  0  0  0  0  0  0  0  0  0  0  0
   -5.7810   23.7990  -32.3510 S   0  0  0  0  0  0  0  0  0  0  0  0
   -6.0170   24.7700  -30.8170 C   0  0  0  0  0  0  0  0  0  0  0  0
   -4.7310   24.7560  -29.9880 C   0  0  0  0  0  0  0  0  0  0  0  0
   -4.1760   23.3850  -29.9210 N   0  0  0  0  0  0  0  0  0  0  0  0
   -2.7100   23.4000  -30.0760 C   0  0  0  0  0  0  0  0  0  0  0  0
   -4.5250   22.7540  -28.6370 C   0  0  0  0  0  0  0  0  0  0  0  0
   -6.9680   21.2010  -32.1610 C   0  0  0  0  0  0  0  0  0  0  0  0
   -1.3936   19.3981  -32.0721 H   0  0  0  0  0  0  0  0  0  0  0  0
   -1.7536   17.7681  -32.7355 H   0  0  0  0  0  0  0  0  0  0  0  0
   -0.0667   18.3853  -32.7355 H   0  0  0  0  0  0  0  0  0  0  0  0
   -0.5066   19.0008  -34.8841 H   0  0  0  0  0  0  0  0  0  0  0  0
   -2.3043   18.8907  -34.6203 H   0  0  0  0  0  0  0  0  0  0  0  0
   -1.9860   21.0950  -35.0330 H   0  0  0  0  0  0  0  0  0  0  0  0
    0.2573   21.5480  -33.2260 H   0  0  0  0  0  0  0  0  0  0  0  0
    0.5811   20.7083  -34.7806 H   0  0  0  0  0  0  0  0  0  0  0  0
   -0.1698   22.3402  -34.7806 H   0  0  0  0  0  0  0  0  0  0  0  0
   -2.1608   20.3792  -32.2411 H   0  0  0  0  0  0  0  0  0  0  0  0
   -1.6078   22.0823  -32.5694 H   0  0  0  0  0  0  0  0  0  0  0  0
   -3.6395   22.7432  -33.3266 H   0  0  0  0  0  0  0  0  0  0  0  0
   -3.9513   21.1701  -34.1583 H   0  0  0  0  0  0  0  0  0  0  0  0
   -4.3370   21.6520  -31.1850 H   0  0  0  0  0  0  0  0  0  0  0  0
   -3.5652   19.2200  -33.2559 H   0  0  0  0  0  0  0  0  0  0  0  0
   -3.5400   16.8744  -34.0847 H   0  0  0  0  0  0  0  0  0  0  0  0
   -5.6542   15.5622  -34.1808 H   0  0  0  0  0  0  0  0  0  0  0  0
   -7.7842   16.5620  -33.3810 H   0  0  0  0  0  0  0  0  0  0  0  0
   -9.2918   18.0714  -30.8725 H   0  0  0  0  0  0  0  0  0  0  0  0
  -10.1207   18.5679  -32.3868 H   0  0  0  0  0  0  0  0  0  0  0  0
   -9.0286   17.1417  -32.3868 H   0  0  0  0  0  0  0  0  0  0  0  0
  -10.2971   20.3977  -31.8015 H   0  0  0  0  0  0  0  0  0  0  0  0
  -10.4420   22.8273  -31.3436 H   0  0  0  0  0  0  0  0  0  0  0  0
   -8.4189   24.2511  -31.4893 H   0  0  0  0  0  0  0  0  0  0  0  0
   -6.2713   25.8079  -31.0779 H   0  0  0  0  0  0  0  0  0  0  0  0
   -6.8320   24.3239  -30.2281 H   0  0  0  0  0  0  0  0  0  0  0  0
   -3.9918   25.4240  -30.4542 H   0  0  0  0  0  0  0  0  0  0  0  0
   -4.9597   25.0990  -28.9682 H   0  0  0  0  0  0  0  0  0  0  0  0
   -2.2364   23.4048  -29.0832 H   0  0  0  0  0  0  0  0  0  0  0  0
   -2.3907   22.5051  -30.6302 H   0  0  0  0  0  0  0  0  0  0  0  0
   -2.4091   24.3013  -30.6302 H   0  0  0  0  0  0  0  0  0  0  0  0
   -4.1742   23.3882  -27.8095 H   0  0  0  0  0  0  0  0  0  0  0  0
   -5.6167   22.6359  -28.5712 H   0  0  0  0  0  0  0  0  0  0  0  0
   -4.0448   21.7665  -28.5712 H   0  0  0  0  0  0  0  0  0  0  0  0
  1  2  1  0
  2  3  1  0
  3  4  1  0
  3  5  1  0
  5  6  1  0
  6  7  1  0
  7  8  1  0
  8  9  2  0
  9 10  1  0
 10 11  2  0
 11 12  1  0
 12 13  2  0
 13 14  1  0
 14 15  2  0
 15 16  1  0
 15 17  1  0
 17 18  2  0
 18 19  1  0
 19 20  2  0
 20 21  1  0
 21 22  1  0
 22 23  1  0
 23 24  1  0
 24 25  1  0
 25 26  1  0
 25 27  1  0
 21 28  2  0
 28  8  1  0
 14  9  1  0
 28 17  1  0
  1 29  1  0
  1 30  1  0
  1 31  1  0
  2 32  1  0
  2 33  1  0
  3 34  1  6
  4 35  1  0
  4 36  1  0
  4 37  1  0
  5 38  1  0
  5 39  1  0
  6 40  1  0
  6 41  1  0
  7 42  1  0
 10 43  1  0
 11 44  1  0
 12 45  1  0
 13 46  1  0
 16 47  1  0
 16 48  1  0
 16 49  1  0
 18 50  1  0
 19 51  1  0
 20 52  1  0
 23 53  1  0
 23 54  1  0
 24 55  1  0
 24 56  1  0
 26 57  1  0
 26 58  1  0
 26 59  1  0
 27 60  1  0
 27 61  1  0
 27 62  1  0
M  CHG  2   3   1  15   1
M  END
>  <UniqueID>  (15) 
15

>  <SMILES>  (15) 
CC[N@H+](C)CCNc1c2ccccc2[n+](C)c2cccc(SCCN(C)C)c12

>  <Energy>  (15) 
92.26965394679486

>  <Genealogy>  (15) 
CC[NH+](C)CCNc1c2ccccc2[n+](C)c2cccc(SCCN(C)C)c12 (protonated)
CC[N@H+](C)CCNc1c2ccccc2[n+](C)c2cccc(SCCN(C)C)c12 (chirality)
CC[N@H+](C)CCNc1c2ccccc2[n+](C)c2cccc(SCCN(C)C)c12 (3D coordinates assigned)
CC[N@H+](C)CCNc1c2ccccc2[n+](C)c2cccc(SCCN(C)C)c12 (optimized conformer: 92.26965394679486 kcal/mol)

>  <smiles>  (15) 
CCN(C)CCNc1c2ccccc2[n+](C)c2cccc(SCCN(C)C)c12

>  <score_type>  (15) 
oracle

>  <origin>  (15) 
adg

>  <m_score__min__energy>  (15) 
-7.4699999999999998

>  <m_primary>  (15) 
energy

$$$$
15:0
     RDKit          3D

 44 46  0  0  0  0  0  0  0  0999 V2000
   -3.6350   22.8370  -29.2180 C   0  0  0  0  0  0  0  0  0  0  0  0
   -3.3270   24.3360  -29.2910 C   0  0  0  0  0  0  0  0  0  0  0  0
   -3.8080   24.9520  -30.5370 N   0  0  0  0  0  0  0  0  0  0  0  0
   -5.1200   25.5960  -30.3710 C   0  0  0  0  0  0  0  0  0  0  0  0
   -6.2240   24.5420  -30.2300 C   0  0  0  0  0  0  0  0  0  0  0  0
   -6.8250   24.1390  -31.5830 C   0  0  0  0  0  0  0  0  0  0  0  0
   -6.4060   22.7440  -31.9490 C   0  0  0  0  0  0  0  0  0  0  0  0
   -5.0620   22.4350  -32.1570 C   0  0  0  0  0  0  0  0  0  0  0  0
   -4.6750   21.1210  -32.4530 C   0  0  0  0  0  0  0  0  0  0  0  0
   -3.2250   20.8750  -32.5520 C   0  0  0  0  0  0  0  0  0  0  0  0
   -2.4930   20.5120  -31.4090 C   0  0  0  0  0  0  0  0  0  0  0  0
   -1.1110   20.3160  -31.4960 C   0  0  0  0  0  0  0  0  0  0  0  0
   -0.4530   20.4950  -32.7160 C   0  0  0  0  0  0  0  0  0  0  0  0
   -1.1750   20.8750  -33.8510 C   0  0  0  0  0  0  0  0  0  0  0  0
   -2.5570   21.0720  -33.7700 C   0  0  0  0  0  0  0  0  0  0  0  0
   -5.6680   20.1020  -32.5640 C   0  0  0  0  0  0  0  0  0  0  0  0
   -5.4070   18.7440  -32.9280 C   0  0  0  0  0  0  0  0  0  0  0  0
   -3.8380   18.1190  -33.4340 Cl  0  0  0  0  0  0  0  0  0  0  0  0
   -6.4570   17.8180  -32.9640 C   0  0  0  0  0  0  0  0  0  0  0  0
   -7.7620   18.2020  -32.6690 C   0  0  0  0  0  0  0  0  0  0  0  0
   -8.0430   19.5260  -32.3500 C   0  0  0  0  0  0  0  0  0  0  0  0
   -7.0180   20.4740  -32.3040 C   0  0  0  0  0  0  0  0  0  0  0  0
   -7.3370   21.7610  -32.0080 N   0  0  0  0  0  0  0  0  0  0  0  0
   -3.6988   22.5267  -28.1646 H   0  0  0  0  0  0  0  0  0  0  0  0
   -4.5935   22.6348  -29.7185 H   0  0  0  0  0  0  0  0  0  0  0  0
   -2.8339   22.2733  -29.7185 H   0  0  0  0  0  0  0  0  0  0  0  0
   -3.8117   24.8371  -28.4402 H   0  0  0  0  0  0  0  0  0  0  0  0
   -2.2337   24.4534  -29.2616 H   0  0  0  0  0  0  0  0  0  0  0  0
   -3.1120   25.6690  -30.8490 H   0  0  0  0  0  0  0  0  0  0  0  0
   -5.1027   26.2245  -29.4684 H   0  0  0  0  0  0  0  0  0  0  0  0
   -5.3281   26.2112  -31.2588 H   0  0  0  0  0  0  0  0  0  0  0  0
   -5.7990   23.6472  -29.7518 H   0  0  0  0  0  0  0  0  0  0  0  0
   -7.0297   24.9798  -29.6225 H   0  0  0  0  0  0  0  0  0  0  0  0
   -7.9223   24.1826  -31.5193 H   0  0  0  0  0  0  0  0  0  0  0  0
   -6.4625   24.8338  -32.3549 H   0  0  0  0  0  0  0  0  0  0  0  0
   -4.3016   23.2269  -32.0884 H   0  0  0  0  0  0  0  0  0  0  0  0
   -3.0071   20.3819  -30.4453 H   0  0  0  0  0  0  0  0  0  0  0  0
   -0.5410   20.0205  -30.6028 H   0  0  0  0  0  0  0  0  0  0  0  0
    0.6335   20.3368  -32.7830 H   0  0  0  0  0  0  0  0  0  0  0  0
   -0.6551   21.0193  -34.8096 H   0  0  0  0  0  0  0  0  0  0  0  0
   -3.1210   21.3817  -34.6621 H   0  0  0  0  0  0  0  0  0  0  0  0
   -6.2473   16.7713  -33.2294 H   0  0  0  0  0  0  0  0  0  0  0  0
   -8.5716   17.4576  -32.6882 H   0  0  0  0  0  0  0  0  0  0  0  0
   -9.0780   19.8285  -32.1327 H   0  0  0  0  0  0  0  0  0  0  0  0
  1  2  1  0
  2  3  1  0
  3  4  1  0
  4  5  1  0
  5  6  1  0
  6  7  1  0
  7  8  2  0
  8  9  1  0
  9 10  1  0
 10 11  2  0
 11 12  1  0
 12 13  2  0
 13 14  1  0
 14 15  2  0
  9 16  2  0
 16 17  1  0
 17 18  1  0
 17 19  2  0
 19 20  1  0
 20 21  2  0
 21 22  1  0
 22 23  2  0
 23  7  1  0
 15 10  1  0
 22 16  1  0
  1 24  1  0
  1 25  1  0
  1 26  1  0
  2 27  1  0
  2 28  1  0
  3 29  1  0
  4 30  1  0
  4 31  1  0
  5 32  1  0
  5 33  1  0
  6 34  1  0
  6 35  1  0
  8 36  1  0
 11 37  1  0
 12 38  1  0
 13 39  1  0
 14 40  1  0
 15 41  1  0
 19 42  1  0
 20 43  1  0
 21 44  1  0
M  END
>  <UniqueID>  (16) 
16

>  <SMILES>  (16) 
CCNCCCc1cc(-c2ccccc2)c2c(Cl)cccc2n1

>  <Energy>  (16) 
57.8813068816731

>  <Genealogy>  (16) 
CCNCCCc1cc(-c2ccccc2)c2c(Cl)cccc2n1 (3D coordinates assigned)
CCNCCCc1cc(-c2ccccc2)c2c(Cl)cccc2n1 (optimized conformer: 57.8813068816731 kcal/mol)

>  <smiles>  (16) 
CCNCCCc1cc(-c2ccccc2)c2c(Cl)cccc2n1

>  <score_type>  (16) 
oracle

>  <origin>  (16) 
adg

>  <m_score__min__energy>  (16) 
-9.1999999999999993

>  <m_primary>  (16) 
energy

$$$$
16:0
     RDKit          3D

 49 51  0  0  0  0  0  0  0  0999 V2000
   -3.0300   18.9650  -26.4560 C   0  0  0  0  0  0  0  0  0  0  0  0
   -2.2640   20.1590  -27.0140 C   0  0  0  0  0  0  0  0  0  0  0  0
   -3.1160   20.9750  -27.8140 O   0  0  0  0  0  0  0  0  0  0  0  0
   -2.9160   22.3480  -27.9980 C   0  0  0  0  0  0  0  0  0  0  0  0
   -3.2550   23.1740  -27.1070 O   0  0  0  0  0  0  0  0  0  0  0  0
   -2.3110   22.8350  -29.2830 C   0  0  1  0  0  0  0  0  0  0  0  0
   -1.3720   21.7670  -29.9120 C   0  0  0  0  0  0  0  0  0  0  0  0
   -2.0330   21.4500  -31.2080 C   0  0  0  0  0  0  0  0  0  0  0  0
   -1.6550   20.4920  -32.1500 C   0  0  0  0  0  0  0  0  0  0  0  0
   -2.4590   20.3180  -33.2880 C   0  0  0  0  0  0  0  0  0  0  0  0
   -3.6250   21.0880  -33.4560 C   0  0  0  0  0  0  0  0  0  0  0  0
   -3.9870   22.0420  -32.4910 C   0  0  0  0  0  0  0  0  0  0  0  0
   -3.1500   22.2200  -31.3840 C   0  0  0  0  0  0  0  0  0  0  0  0
   -3.3560   23.0920  -30.2810 N   0  0  0  0  0  0  0  0  0  0  0  0
   -4.2340   24.2280  -30.2380 C   0  0  0  0  0  0  0  0  0  0  0  0
   -3.9040   25.2870  -30.8370 O   0  0  0  0  0  0  0  0  0  0  0  0
   -5.5730   24.1560  -29.5530 C   0  0  0  0  0  0  0  0  0  0  0  0
   -6.4810   23.0890  -30.1790 C   0  0  0  0  0  0  0  0  0  0  0  0
   -6.8390   23.4190  -31.6300 C   0  0  0  0  0  0  0  0  0  0  0  0
   -8.5630   22.9330  -31.9730 S   0  0  0  0  0  0  0  0  0  0  0  0
   -8.1630   21.1900  -32.1060 C   0  0  0  0  0  0  0  0  0  0  0  0
   -6.9640   20.7870  -32.7080 C   0  0  0  0  0  0  0  0  0  0  0  0
   -6.6580   19.4270  -32.8180 C   0  0  0  0  0  0  0  0  0  0  0  0
   -7.5480   18.4670  -32.3260 C   0  0  0  0  0  0  0  0  0  0  0  0
   -8.7440   18.8670  -31.7210 C   0  0  0  0  0  0  0  0  0  0  0  0
   -9.0520   20.2270  -31.6110 C   0  0  0  0  0  0  0  0  0  0  0  0
   -3.0093   18.9973  -25.3567 H   0  0  0  0  0  0  0  0  0  0  0  0
   -4.0727   19.0030  -26.8043 H   0  0  0  0  0  0  0  0  0  0  0  0
   -2.5608   18.0331  -26.8043 H   0  0  0  0  0  0  0  0  0  0  0  0
   -1.8704   20.7576  -26.1793 H   0  0  0  0  0  0  0  0  0  0  0  0
   -1.4391   19.7886  -27.6403 H   0  0  0  0  0  0  0  0  0  0  0  0
   -1.7523   23.7490  -29.0330 H   0  0  0  0  0  0  0  0  0  0  0  0
   -0.3634   22.1753  -30.0736 H   0  0  0  0  0  0  0  0  0  0  0  0
   -1.2351   20.8834  -29.2713 H   0  0  0  0  0  0  0  0  0  0  0  0
   -0.7479   19.8871  -32.0043 H   0  0  0  0  0  0  0  0  0  0  0  0
   -2.1765   19.5774  -34.0507 H   0  0  0  0  0  0  0  0  0  0  0  0
   -4.2548   20.9422  -34.3460 H   0  0  0  0  0  0  0  0  0  0  0  0
   -4.9066   22.6351  -32.6028 H   0  0  0  0  0  0  0  0  0  0  0  0
   -5.4167   23.9115  -28.4920 H   0  0  0  0  0  0  0  0  0  0  0  0
   -6.0666   25.1324  -29.6672 H   0  0  0  0  0  0  0  0  0  0  0  0
   -5.9603   22.1204  -30.1533 H   0  0  0  0  0  0  0  0  0  0  0  0
   -7.4147   23.0549  -29.5984 H   0  0  0  0  0  0  0  0  0  0  0  0
   -6.7254   24.5004  -31.7963 H   0  0  0  0  0  0  0  0  0  0  0  0
   -6.1672   22.8655  -32.3025 H   0  0  0  0  0  0  0  0  0  0  0  0
   -6.2626   21.5411  -33.0945 H   0  0  0  0  0  0  0  0  0  0  0  0
   -5.7166   19.1120  -33.2919 H   0  0  0  0  0  0  0  0  0  0  0  0
   -7.3075   17.3973  -32.4148 H   0  0  0  0  0  0  0  0  0  0  0  0
   -9.4426   18.1118  -31.3316 H   0  0  0  0  0  0  0  0  0  0  0  0
   -9.9930   20.5406  -31.1354 H   0  0  0  0  0  0  0  0  0  0  0  0
  1  2  1  0
  2  3  1  0
  3  4  1  0
  4  5  2  0
  4  6  1  0
  6  7  1  0
  7  8  1  0
  8  9  2  0
  9 10  1  0
 10 11  2  0
 11 12  1  0
 12 13  2  0
 13 14  1  0
 14 15  1  0
 15 16  2  0
 15 17  1  0
 17 18  1  0
 18 19  1  0
 19 20  1  0
 20 21  1  0
 21 22  2  0
 22 23  1  0
 23 24  2  0
 24 25  1  0
 25 26  2  0
 14  6  1  0
 26 21  1  0
 13  8  1  0
  1 27  1  0
  1 28  1  0
  1 29  1  0
  2 30  1  0
  2 31  1  0
  6 32  1  1
  7 33  1  0
  7 34  1  0
  9 35  1  0
 10 36  1  0
 11 37  1  0
 12 38  1  0
 17 39  1  0
 17 40  1  0
 18 41  1  0
 18 42  1  0
 19 43  1  0
 19 44  1  0
 22 45  1  0
 23 46  1  0
 24 47  1  0
 25 48  1  0
 26 49  1  0
M  END
>  <UniqueID>  (17) 
17

>  <SMILES>  (17) 
CCOC(=O)[C@H]1Cc2ccccc2N1C(=O)CCCSc1ccccc1

>  <Energy>  (17) 
55.60441397001524

>  <Genealogy>  (17) 
CCOC(=O)[C@H]1Cc2ccccc2N1C(=O)CCCSc1ccccc1 (chirality)
CCOC(=O)[C@H]1Cc2ccccc2N1C(=O)CCCSc1ccccc1 (3D coordinates assigned)
CCOC(=O)[C@H]1Cc2ccccc2N1C(=O)CCCSc1ccccc1 (nonaromatic ring conformer: 55.60441397001524 kcal/mol)

>  <smiles>  (17) 
CCOC(=O)C1Cc2ccccc2N1C(=O)CCCSc1ccccc1

>  <score_type>  (17) 
oracle

>  <origin>  (17) 
adg

>  <m_score__min__energy>  (17) 
-9.0099999999999998

>  <m_primary>  (17) 
energy

$$$$
17:0
     RDKit          3D

 57 61  0  0  0  0  0  0  0  0999 V2000
   -2.2780   21.6460  -30.4170 C   0  0  0  0  0  0  0  0  0  0  0  0
   -3.1740   21.8620  -31.5520 N   0  0  0  0  0  0  0  0  0  0  0  0
   -3.2520   21.2060  -32.7350 C   0  0  0  0  0  0  0  0  0  0  0  0
   -2.3540   20.1290  -33.1880 C   0  0  0  0  0  0  0  0  0  0  0  0
   -2.4430   18.8340  -32.6560 C   0  0  0  0  0  0  0  0  0  0  0  0
   -1.5540   17.8500  -33.0920 C   0  0  0  0  0  0  0  0  0  0  0  0
   -0.5810   18.1650  -34.0440 C   0  0  0  0  0  0  0  0  0  0  0  0
   -0.5060   19.4680  -34.5370 C   0  0  0  0  0  0  0  0  0  0  0  0
   -1.3800   20.4140  -34.0980 N   0  0  0  0  0  0  0  0  0  0  0  0
   -4.2820   21.6560  -33.4820 N   0  0  0  0  0  0  0  0  0  0  0  0
   -4.8580   22.6190  -32.7820 N   0  0  0  0  0  0  0  0  0  0  0  0
   -4.1900   22.7420  -31.6190 C   0  0  0  0  0  0  0  0  0  0  0  0
   -4.6050   23.9370  -30.3430 S   0  0  0  0  0  0  0  0  0  0  0  0
   -6.1930   23.1440  -29.9060 C   0  0  0  0  0  0  0  0  0  0  0  0
   -7.3370   23.7790  -30.7010 C   0  0  0  0  0  0  0  0  0  0  0  0
   -7.7450   22.9140  -31.9000 C   0  0  0  0  0  0  0  0  0  0  0  0
   -8.0950   21.5410  -31.4780 N   0  0  0  0  0  0  0  0  0  0  0  0
   -9.1200   20.9490  -32.3520 C   0  0  0  0  0  0  0  0  0  0  0  0
   -8.8180   19.4710  -32.5080 C   0  0  2  0  0  0  0  0  0  0  0  0
   -8.6630   18.6690  -31.2230 C   0  0  0  0  0  0  0  0  0  0  0  0
   -7.4430   19.2580  -31.9210 C   0  0  1  0  0  0  0  0  0  0  0  0
   -6.5450   18.3350  -32.6990 C   0  0  0  0  0  0  0  0  0  0  0  0
   -6.1120   17.1310  -32.1280 C   0  0  0  0  0  0  0  0  0  0  0  0
   -5.2500   16.2840  -32.8350 C   0  0  0  0  0  0  0  0  0  0  0  0
   -4.7910   16.6450  -34.1140 C   0  0  0  0  0  0  0  0  0  0  0  0
   -3.9070   15.7000  -34.8890 C   0  0  0  0  0  0  0  0  0  0  0  0
   -2.7640   15.4080  -34.1680 F   0  0  0  0  0  0  0  0  0  0  0  0
   -3.5210   16.2500  -36.1000 F   0  0  0  0  0  0  0  0  0  0  0  0
   -4.5990   14.5300  -35.1300 F   0  0  0  0  0  0  0  0  0  0  0  0
   -5.2230   17.8570  -34.6810 C   0  0  0  0  0  0  0  0  0  0  0  0
   -6.0850   18.6990  -33.9730 C   0  0  0  0  0  0  0  0  0  0  0  0
   -6.9410   20.6260  -31.4920 C   0  0  0  0  0  0  0  0  0  0  0  0
   -2.8360   21.7805  -29.4786 H   0  0  0  0  0  0  0  0  0  0  0  0
   -1.8725   20.6244  -30.4592 H   0  0  0  0  0  0  0  0  0  0  0  0
   -1.4515   22.3706  -30.4592 H   0  0  0  0  0  0  0  0  0  0  0  0
   -3.2071   18.5959  -31.9014 H   0  0  0  0  0  0  0  0  0  0  0  0
   -1.6193   16.8293  -32.6871 H   0  0  0  0  0  0  0  0  0  0  0  0
    0.1181   17.3943  -34.4008 H   0  0  0  0  0  0  0  0  0  0  0  0
    0.2603   19.7308  -35.2812 H   0  0  0  0  0  0  0  0  0  0  0  0
   -5.6790   23.1800  -33.0970 H   0  0  0  0  0  0  0  0  0  0  0  0
   -6.1397   22.0705  -30.1402 H   0  0  0  0  0  0  0  0  0  0  0  0
   -6.3810   23.2849  -28.8314 H   0  0  0  0  0  0  0  0  0  0  0  0
   -8.2062   23.9018  -30.0381 H   0  0  0  0  0  0  0  0  0  0  0  0
   -6.9906   24.7510  -31.0822 H   0  0  0  0  0  0  0  0  0  0  0  0
   -8.6167   23.3710  -32.3913 H   0  0  0  0  0  0  0  0  0  0  0  0
   -6.8927   22.8574  -32.5931 H   0  0  0  0  0  0  0  0  0  0  0  0
  -10.1144   21.0797  -31.9002 H   0  0  0  0  0  0  0  0  0  0  0  0
   -9.1110   21.4431  -33.3347 H   0  0  0  0  0  0  0  0  0  0  0  0
   -9.3794   19.2592  -33.4300 H   0  0  0  0  0  0  0  0  0  0  0  0
   -9.0071   19.0885  -30.2661 H   0  0  0  0  0  0  0  0  0  0  0  0
   -8.9623   17.6650  -30.8879 H   0  0  0  0  0  0  0  0  0  0  0  0
   -6.4508   16.8500  -31.1199 H   0  0  0  0  0  0  0  0  0  0  0  0
   -4.9303   15.3313  -32.3876 H   0  0  0  0  0  0  0  0  0  0  0  0
   -4.8810   18.1438  -35.6864 H   0  0  0  0  0  0  0  0  0  0  0  0
   -6.4046   19.6530  -34.4176 H   0  0  0  0  0  0  0  0  0  0  0  0
   -6.4990   20.5647  -30.4866 H   0  0  0  0  0  0  0  0  0  0  0  0
   -6.1693   20.9890  -32.1867 H   0  0  0  0  0  0  0  0  0  0  0  0
  1  2  1  0
  2  3  1  0
  3  4  1  0
  4  5  2  0
  5  6  1  0
  6  7  2  0
  7  8  1  0
  8  9  2  0
  3 10  2  0
 10 11  1  0
 11 12  2  0
 12 13  1  0
 13 14  1  0
 14 15  1  0
 15 16  1  0
 16 17  1  0
 17 18  1  0
 18 19  1  0
 19 20  1  0
 20 21  1  0
 21 22  1  6
 22 23  2  0
 23 24  1  0
 24 25  2  0
 25 26  1  0
 26 27  1  0
 26 28  1  0
 26 29  1  0
 25 30  1  0
 30 31  2  0
 21 32  1  0
 12  2  1  0
 32 17  1  0
  9  4  1  0
 21 19  1  0
 31 22  1  0
  1 33  1  0
  1 34  1  0
  1 35  1  0
  5 36  1  0
  6 37  1  0
  7 38  1  0
  8 39  1  0
 11 40  1  0
 14 41  1  0
 14 42  1  0
 15 43  1  0
 15 44  1  0
 16 45  1  0
 16 46  1  0
 18 47  1  0
 18 48  1  0
 19 49  1  6
 20 50  1  0
 20 51  1  0
 23 52  1  0
 24 53  1  0
 30 54  1  0
 31 55  1  0
 32 56  1  0
 32 57  1  0
M  CHG  1  11   1
M  END
>  <UniqueID>  (18) 
18

>  <SMILES>  (18) 
Cn1c(-c2ccccn2)n[nH+]c1SCCCN1C[C@@H]2C[C@]2(c2ccc(C(F)(F)F)cc2)C1

>  <Energy>  (18) 
365.6348876206168

>  <Genealogy>  (18) 
Cn1c(-c2ccccn2)n[nH+]c1SCCCN1CC2CC2(c2ccc(C(F)(F)F)cc2)C1 (protonated)
Cn1c(-c2ccccn2)n[nH+]c1SCCCN1C[C@@H]2C[C@]2(c2ccc(C(F)(F)F)cc2)C1 (chirality)
Cn1c(-c2ccccn2)n[nH+]c1SCCCN1C[C@@H]2C[C@]2(c2ccc(C(F)(F)F)cc2)C1 (3D coordinates assigned)
Cn1c(-c2ccccn2)n[nH+]c1SCCCN1C[C@@H]2C[C@]2(c2ccc(C(F)(F)F)cc2)C1 (nonaromatic ring conformer: 365.6348876206168 kcal/mol)

>  <smiles>  (18) 
Cn1c(SCCCN2CC3CC3(c3ccc(C(F)(F)F)cc3)C2)nnc1-c1ccccn1

>  <score_type>  (18) 
oracle

>  <origin>  (18) 
adg

>  <m_score__min__energy>  (18) 
-9.9000000000000004

>  <m_primary>  (18) 
energy

$$$$
