0:0
     RDKit          3D

 70 71  0  0  0  0  0  0  0  0999 V2000
   -7.7043   20.1460  -33.0529 H   0  0  0  0  0  0  0  0  0  0  0  0
   -7.8000   20.1010  -31.9580 C   0  0  0  0  0  0  0  0  0  0  0  0
   -8.0850   21.2180  -31.2750 C   0  0  0  0  0  0  0  0  0  0  0  0
   -8.0941   21.1866  -30.1755 H   0  0  0  0  0  0  0  0  0  0  0  0
   -8.3940   22.5190  -31.9770 C   0  0  0  0  0  0  0  0  0  0  0  0
   -8.3104   22.3630  -33.0627 H   0  0  0  0  0  0  0  0  0  0  0  0
   -9.4121   22.8210  -31.6901 H   0  0  0  0  0  0  0  0  0  0  0  0
   -7.4700   23.6100  -31.5800 N   0  0  0  0  0  0  0  0  0  0  0  0
   -7.9240   24.5210  -31.8350 H   0  0  0  0  0  0  0  0  0  0  0  0
   -6.2000   23.5270  -32.3540 C   0  0  0  0  0  0  0  0  0  0  0  0
   -6.3800   22.9430  -33.2686 H   0  0  0  0  0  0  0  0  0  0  0  0
   -5.8808   24.5528  -32.5905 H   0  0  0  0  0  0  0  0  0  0  0  0
   -5.0750   22.8560  -31.5520 C   0  0  0  0  0  0  0  0  0  0  0  0
   -5.3959   21.8450  -31.2605 H   0  0  0  0  0  0  0  0  0  0  0  0
   -4.1760   22.8103  -32.1842 H   0  0  0  0  0  0  0  0  0  0  0  0
   -4.7510   23.6320  -30.3300 N   0  0  0  0  0  0  0  0  0  0  0  0
   -4.0560   22.7930  -29.3290 C   0  0  0  0  0  0  0  0  0  0  0  0
   -4.8053   22.2697  -28.7168 H   0  0  0  0  0  0  0  0  0  0  0  0
   -3.4182   22.0717  -29.8609 H   0  0  0  0  0  0  0  0  0  0  0  0
   -3.1800   23.6330  -28.4260 C   0  0  0  0  0  0  0  0  0  0  0  0
   -3.7240   24.1860  -27.2610 C   0  0  0  0  0  0  0  0  0  0  0  0
   -4.7846   24.0183  -27.0222 H   0  0  0  0  0  0  0  0  0  0  0  0
   -2.9370   24.9450  -26.4030 C   0  0  0  0  0  0  0  0  0  0  0  0
   -3.3782   25.3648  -25.4869 H   0  0  0  0  0  0  0  0  0  0  0  0
   -1.5830   25.1810  -26.6950 C   0  0  0  0  0  0  0  0  0  0  0  0
   -0.7560   25.8930  -25.8120 O   0  0  0  0  0  0  0  0  0  0  0  0
   -1.1740   26.4230  -24.5580 C   0  0  0  0  0  0  0  0  0  0  0  0
   -0.7161   25.8424  -23.7436 H   0  0  0  0  0  0  0  0  0  0  0  0
   -0.8592   27.4742  -24.4809 H   0  0  0  0  0  0  0  0  0  0  0  0
   -2.2696   26.3618  -24.4809 H   0  0  0  0  0  0  0  0  0  0  0  0
   -1.0300   24.6620  -27.8870 C   0  0  0  0  0  0  0  0  0  0  0  0
    0.3070   24.9200  -28.2120 O   0  0  0  0  0  0  0  0  0  0  0  0
    1.4090   24.4290  -27.4500 C   0  0  0  0  0  0  0  0  0  0  0  0
    1.1863   24.5282  -26.3774 H   0  0  0  0  0  0  0  0  0  0  0  0
    1.5796   23.3697  -27.6926 H   0  0  0  0  0  0  0  0  0  0  0  0
    2.3106   25.0105  -27.6926 H   0  0  0  0  0  0  0  0  0  0  0  0
   -1.8260   23.8570  -28.7460 C   0  0  0  0  0  0  0  0  0  0  0  0
   -1.3370   23.2620  -29.9270 O   0  0  0  0  0  0  0  0  0  0  0  0
   -0.8520   21.9320  -30.0740 C   0  0  0  0  0  0  0  0  0  0  0  0
   -0.6904   21.4887  -29.0803 H   0  0  0  0  0  0  0  0  0  0  0  0
   -1.5892   21.3320  -30.6276 H   0  0  0  0  0  0  0  0  0  0  0  0
    0.0984   21.9474  -30.6276 H   0  0  0  0  0  0  0  0  0  0  0  0
   -5.9300   24.3140  -29.7400 C   0  0  0  0  0  0  0  0  0  0  0  0
   -5.8258   24.3179  -28.6450 H   0  0  0  0  0  0  0  0  0  0  0  0
   -5.9648   25.3372  -30.1424 H   0  0  0  0  0  0  0  0  0  0  0  0
   -7.2480   23.6170  -30.1090 C   0  0  0  0  0  0  0  0  0  0  0  0
   -7.2161   22.5785  -29.7477 H   0  0  0  0  0  0  0  0  0  0  0  0
   -8.0738   24.1710  -29.6388 H   0  0  0  0  0  0  0  0  0  0  0  0
   -7.6090   18.7880  -31.2530 C   0  0  0  0  0  0  0  0  0  0  0  0
   -8.5139   18.5542  -30.6729 H   0  0  0  0  0  0  0  0  0  0  0  0
   -6.7386   18.8676  -30.5851 H   0  0  0  0  0  0  0  0  0  0  0  0
   -7.3740   17.7500  -32.1870 O   0  0  0  0  0  0  0  0  0  0  0  0
   -6.1770   17.0520  -31.8930 C   0  0  0  0  0  0  0  0  0  0  0  0
   -6.3895   15.9729  -31.8762 H   0  0  0  0  0  0  0  0  0  0  0  0
   -5.8110   17.3992  -30.9155 H   0  0  0  0  0  0  0  0  0  0  0  0
   -5.0780   17.3280  -32.9410 C   0  0  0  0  0  0  0  0  0  0  0  0
   -5.2286   16.6329  -33.7801 H   0  0  0  0  0  0  0  0  0  0  0  0
   -4.1211   17.1916  -32.4159 H   0  0  0  0  0  0  0  0  0  0  0  0
   -5.0460   18.7080  -33.4910 N   0  0  0  0  0  0  0  0  0  0  0  0
   -5.9840   18.9010  -34.6100 C   0  0  0  0  0  0  0  0  0  0  0  0
   -6.9893   19.1078  -34.2143 H   0  0  0  0  0  0  0  0  0  0  0  0
   -5.6506   19.7494  -35.2257 H   0  0  0  0  0  0  0  0  0  0  0  0
   -6.0126   17.9899  -35.2257 H   0  0  0  0  0  0  0  0  0  0  0  0
   -3.7020   19.2240  -33.8270 C   0  0  0  0  0  0  0  0  0  0  0  0
   -3.6283   19.3440  -34.9179 H   0  0  0  0  0  0  0  0  0  0  0  0
   -2.9556   18.5044  -33.4593 H   0  0  0  0  0  0  0  0  0  0  0  0
   -3.4340   20.5720  -33.1610 C   0  0  0  0  0  0  0  0  0  0  0  0
   -3.4578   20.4521  -32.0678 H   0  0  0  0  0  0  0  0  0  0  0  0
   -2.4447   20.9423  -33.4677 H   0  0  0  0  0  0  0  0  0  0  0  0
   -4.2065   21.2926  -33.4677 H   0  0  0  0  0  0  0  0  0  0  0  0
  1  2  1  0
  2  3  2  0
  3  4  1  0
  3  5  1  0
  5  6  1  0
  5  7  1  0
  5  8  1  0
  8  9  1  0
  8 10  1  0
 10 11  1  0
 10 12  1  0
 10 13  1  0
 13 14  1  0
 13 15  1  0
 13 16  1  0
 16 17  1  0
 17 18  1  0
 17 19  1  0
 17 20  1  0
 20 21  2  0
 21 22  1  0
 21 23  1  0
 23 24  1  0
 23 25  2  0
 25 26  1  0
 26 27  1  0
 27 28  1  0
 27 29  1  0
 27 30  1  0
 25 31  1  0
 31 32  1  0
 32 33  1  0
 33 34  1  0
 33 35  1  0
 33 36  1  0
 31 37  2  0
 37 38  1  0
 38 39  1  0
 39 40  1  0
 39 41  1  0
 39 42  1  0
 16 43  1  0
 43 44  1  0
 43 45  1  0
 43 46  1  0
 46 47  1  0
 46 48  1  0
  2 49  1  0
 49 50  1  0
 49 51  1  0
 49 52  1  0
 52 53  1  0
 53 54  1  0
 53 55  1  0
 53 56  1  0
 56 57  1  0
 56 58  1  0
 56 59  1  0
 59 60  1  0
 60 61  1  0
 60 62  1  0
 60 63  1  0
 59 64  1  0
 64 65  1  0
 64 66  1  0
 64 67  1  0
 67 68  1  0
 67 69  1  0
 67 70  1  0
 46  8  1  0
 37 20  1  0
M  CHG  1   8   1
M  END
>  <UniqueID>  (1) 
1

>  <SMILES>  (1) 
CCN(C)CCOC/C=C/C[NH+]1CCN(Cc2ccc(OC)c(OC)c2OC)CC1

>  <Energy>  (1) 
90.38699003733329

>  <Genealogy>  (1) 
CCN(C)CCOCC=CC[NH+]1CCN(Cc2ccc(OC)c(OC)c2OC)CC1 (protonated)
CCN(C)CCOC/C=C/C[NH+]1CCN(Cc2ccc(OC)c(OC)c2OC)CC1 (cis-trans isomerization)
CCN(C)CCOC/C=C/C[NH+]1CCN(Cc2ccc(OC)c(OC)c2OC)CC1 (3D coordinates assigned)
CCN(C)CCOC/C=C/C[NH+]1CCN(Cc2ccc(OC)c(OC)c2OC)CC1 (nonaromatic ring conformer: 90.38699003733329 kcal/mol)

>  <smiles>  (1) 
CCN(C)CCOCC=CCN1CCN(Cc2ccc(OC)c(OC)c2OC)CC1

>  <score_type>  (1) 
oracle

>  <origin>  (1) 
adg

>  <m_score__min__energy>  (1) 
-6.7699999999999996

>  <m_primary>  (1) 
energy

$$$$
1:0
     RDKit          3D

 45 46  0  0  0  0  0  0  0  0999 V2000
   -1.0120   22.6440  -30.0990 C   0  0  0  0  0  0  0  0  0  0  0  0
   -0.6780   23.6240  -28.9750 C   0  0  0  0  0  0  0  0  0  0  0  0
   -1.6610   24.7310  -28.9240 N   0  0  0  0  0  0  0  0  0  0  0  0
   -1.2210   25.7750  -27.9810 C   0  0  0  0  0  0  0  0  0  0  0  0
   -3.0010   24.2330  -28.5360 C   0  0  0  0  0  0  0  0  0  0  0  0
   -3.9060   24.0790  -29.7650 C   0  0  0  0  0  0  0  0  0  0  0  0
   -3.9780   25.3000  -30.4780 O   0  0  0  0  0  0  0  0  0  0  0  0
   -5.3190   25.7220  -30.6140 C   0  0  0  0  0  0  0  0  0  0  0  0
   -6.2450   24.5420  -30.3360 C   0  0  0  0  0  0  0  0  0  0  0  0
   -6.6700   23.9390  -31.5590 O   0  0  0  0  0  0  0  0  0  0  0  0
   -6.2680   22.6750  -32.0330 C   0  0  0  0  0  0  0  0  0  0  0  0
   -4.9370   22.4040  -32.4070 C   0  0  0  0  0  0  0  0  0  0  0  0
   -4.5920   21.1390  -32.9010 C   0  0  0  0  0  0  0  0  0  0  0  0
   -3.1810   20.8280  -33.2870 C   0  0  0  0  0  0  0  0  0  0  0  0
   -5.5360   20.1650  -32.9850 N   0  0  0  0  0  0  0  0  0  0  0  0
   -6.8280   20.3820  -32.6280 C   0  0  0  0  0  0  0  0  0  0  0  0
   -7.7630   19.3470  -32.7390 C   0  0  0  0  0  0  0  0  0  0  0  0
   -9.0950   19.5630  -32.3760 C   0  0  0  0  0  0  0  0  0  0  0  0
   -9.4980   20.8130  -31.9000 C   0  0  0  0  0  0  0  0  0  0  0  0
   -8.5720   21.8550  -31.7830 C   0  0  0  0  0  0  0  0  0  0  0  0
   -7.2270   21.6490  -32.1450 C   0  0  0  0  0  0  0  0  0  0  0  0
   -1.3382   21.6868  -29.6660 H   0  0  0  0  0  0  0  0  0  0  0  0
   -1.8192   23.0596  -30.7200 H   0  0  0  0  0  0  0  0  0  0  0  0
   -0.1190   22.4801  -30.7200 H   0  0  0  0  0  0  0  0  0  0  0  0
   -0.6908   23.0875  -28.0148 H   0  0  0  0  0  0  0  0  0  0  0  0
    0.3182   24.0494  -29.1665 H   0  0  0  0  0  0  0  0  0  0  0  0
   -1.3692   25.4233  -26.9493 H   0  0  0  0  0  0  0  0  0  0  0  0
   -0.1551   25.9916  -28.1450 H   0  0  0  0  0  0  0  0  0  0  0  0
   -1.8104   26.6892  -28.1450 H   0  0  0  0  0  0  0  0  0  0  0  0
   -2.8930   23.2552  -28.0438 H   0  0  0  0  0  0  0  0  0  0  0  0
   -3.4607   24.9602  -27.8505 H   0  0  0  0  0  0  0  0  0  0  0  0
   -3.4955   23.2985  -30.4225 H   0  0  0  0  0  0  0  0  0  0  0  0
   -4.9164   23.7985  -29.4326 H   0  0  0  0  0  0  0  0  0  0  0  0
   -5.5256   26.5293  -29.8960 H   0  0  0  0  0  0  0  0  0  0  0  0
   -5.4886   26.0932  -31.6355 H   0  0  0  0  0  0  0  0  0  0  0  0
   -5.7084   23.7955  -29.7320 H   0  0  0  0  0  0  0  0  0  0  0  0
   -7.1299   24.9052  -29.7928 H   0  0  0  0  0  0  0  0  0  0  0  0
   -4.1687   23.1854  -32.3112 H   0  0  0  0  0  0  0  0  0  0  0  0
   -2.5737   20.6941  -32.3797 H   0  0  0  0  0  0  0  0  0  0  0  0
   -3.1591   19.9035  -33.8826 H   0  0  0  0  0  0  0  0  0  0  0  0
   -2.7724   21.6576  -33.8826 H   0  0  0  0  0  0  0  0  0  0  0  0
   -7.4489   18.3613  -33.1128 H   0  0  0  0  0  0  0  0  0  0  0  0
   -9.8275   18.7473  -32.4652 H   0  0  0  0  0  0  0  0  0  0  0  0
  -10.5477   20.9786  -31.6160 H   0  0  0  0  0  0  0  0  0  0  0  0
   -8.8952   22.8371  -31.4075 H   0  0  0  0  0  0  0  0  0  0  0  0
  1  2  1  0
  2  3  1  0
  3  4  1  0
  3  5  1  0
  5  6  1  0
  6  7  1  0
  7  8  1  0
  8  9  1  0
  9 10  1  0
 10 11  1  0
 11 12  2  0
 12 13  1  0
 13 14  1  0
 13 15  2  0
 15 16  1  0
 16 17  2  0
 17 18  1  0
 18 19  2  0
 19 20  1  0
 20 21  2  0
 21 11  1  0
 21 16  1  0
  1 22  1  0
  1 23  1  0
  1 24  1  0
  2 25  1  0
  2 26  1  0
  4 27  1  0
  4 28  1  0
  4 29  1  0
  5 30  1  0
  5 31  1  0
  6 32  1  0
  6 33  1  0
  8 34  1  0
  8 35  1  0
  9 36  1  0
  9 37  1  0
 12 38  1  0
 14 39  1  0
 14 40  1  0
 14 41  1  0
 17 42  1  0
 18 43  1  0
 19 44  1  0
 20 45  1  0
M  END
>  <UniqueID>  (2) 
2

>  <SMILES>  (2) 
CCN(C)CCOCCOc1cc(C)nc2ccccc12

>  <Energy>  (2) 
43.549925617425686

>  <Genealogy>  (2) 
CCN(C)CCOCCOc1cc(C)nc2ccccc12 (3D coordinates assigned)
CCN(C)CCOCCOc1cc(C)nc2ccccc12 (optimized conformer: 43.549925617425686 kcal/mol)

>  <smiles>  (2) 
CCN(C)CCOCCOc1cc(C)nc2ccccc12

>  <score_type>  (2) 
oracle

>  <origin>  (2) 
adg

>  <m_score__min__energy>  (2) 
-7.7400000000000002

>  <m_primary>  (2) 
energy

$$$$
2:0
     RDKit          3D

 49 51  0  0  0  0  0  0  0  0999 V2000
   -3.9160   22.6720  -28.3670 C   0  0  0  0  0  0  0  0  0  0  0  0
   -2.7010   23.3700  -28.9730 C   0  0  0  0  0  0  0  0  0  0  0  0
   -2.5720   23.0320  -30.3960 N   0  0  0  0  0  0  0  0  0  0  0  0
   -2.4190   21.5850  -30.5950 C   0  0  0  0  0  0  0  0  0  0  0  0
   -2.6090   21.2340  -32.0720 C   0  0  0  0  0  0  0  0  0  0  0  0
   -3.8170   21.8590  -32.6130 N   0  0  0  0  0  0  0  0  0  0  0  0
   -5.0310   21.1060  -32.7150 C   0  0  0  0  0  0  0  0  0  0  0  0
   -4.9870   19.8130  -33.2670 C   0  0  0  0  0  0  0  0  0  0  0  0
   -3.7960   19.3140  -33.8390 C   0  0  0  0  0  0  0  0  0  0  0  0
   -3.7620   18.0510  -34.4240 C   0  0  0  0  0  0  0  0  0  0  0  0
   -4.9130   17.2720  -34.4640 C   0  0  0  0  0  0  0  0  0  0  0  0
   -6.0960   17.7420  -33.8980 C   0  0  0  0  0  0  0  0  0  0  0  0
   -6.1520   19.0080  -33.2600 C   0  0  0  0  0  0  0  0  0  0  0  0
   -7.3020   19.4650  -32.6490 N   0  0  0  0  0  0  0  0  0  0  0  0
   -8.4020   18.5220  -32.3530 C   0  0  0  0  0  0  0  0  0  0  0  0
   -7.4170   20.7990  -32.2990 C   0  0  0  0  0  0  0  0  0  0  0  0
   -8.6730   21.3540  -31.9510 C   0  0  0  0  0  0  0  0  0  0  0  0
   -8.7880   22.6750  -31.5430 C   0  0  0  0  0  0  0  0  0  0  0  0
   -7.6710   23.4940  -31.5020 C   0  0  0  0  0  0  0  0  0  0  0  0
   -6.4160   23.0170  -31.9050 C   0  0  0  0  0  0  0  0  0  0  0  0
   -5.2930   23.9150  -31.8950 N   0  0  0  0  0  0  0  0  0  0  0  0
   -4.9900   24.8640  -30.8650 C   0  0  0  0  0  0  0  0  0  0  0  0
   -5.9730   25.1010  -29.7690 C   0  0  0  0  0  0  0  0  0  0  0  0
   -3.8680   25.4380  -30.8290 O   0  0  0  0  0  0  0  0  0  0  0  0
   -6.2710   21.6500  -32.2980 C   0  0  0  0  0  0  0  0  0  0  0  0
   -3.8509   22.7094  -27.2696 H   0  0  0  0  0  0  0  0  0  0  0  0
   -4.8337   23.1806  -28.6974 H   0  0  0  0  0  0  0  0  0  0  0  0
   -3.9389   21.6230  -28.6974 H   0  0  0  0  0  0  0  0  0  0  0  0
   -2.8192   24.4586  -28.8685 H   0  0  0  0  0  0  0  0  0  0  0  0
   -1.7968   23.0348  -28.4438 H   0  0  0  0  0  0  0  0  0  0  0  0
   -3.4590   23.3190  -30.8740 H   0  0  0  0  0  0  0  0  0  0  0  0
   -1.4123   21.2782  -30.2748 H   0  0  0  0  0  0  0  0  0  0  0  0
   -3.1785   21.0575  -29.9992 H   0  0  0  0  0  0  0  0  0  0  0  0
   -1.7363   21.5883  -32.6402 H   0  0  0  0  0  0  0  0  0  0  0  0
   -2.7119   20.1424  -32.1604 H   0  0  0  0  0  0  0  0  0  0  0  0
   -3.7820   22.8090  -33.0480 H   0  0  0  0  0  0  0  0  0  0  0  0
   -2.8849   19.9302  -33.8221 H   0  0  0  0  0  0  0  0  0  0  0  0
   -2.8244   17.6694  -34.8546 H   0  0  0  0  0  0  0  0  0  0  0  0
   -4.8894   16.2824  -34.9436 H   0  0  0  0  0  0  0  0  0  0  0  0
   -7.0025   17.1207  -33.9466 H   0  0  0  0  0  0  0  0  0  0  0  0
   -8.5171   18.4233  -31.2635 H   0  0  0  0  0  0  0  0  0  0  0  0
   -9.3381   18.9025  -32.7877 H   0  0  0  0  0  0  0  0  0  0  0  0
   -8.1690   17.5388  -32.7877 H   0  0  0  0  0  0  0  0  0  0  0  0
   -9.5742   20.7257  -32.0053 H   0  0  0  0  0  0  0  0  0  0  0  0
   -9.7705   23.0741  -31.2507 H   0  0  0  0  0  0  0  0  0  0  0  0
   -7.7703   24.5310  -31.1489 H   0  0  0  0  0  0  0  0  0  0  0  0
   -5.4737   24.9806  -28.7963 H   0  0  0  0  0  0  0  0  0  0  0  0
   -6.3747   26.1217  -29.8511 H   0  0  0  0  0  0  0  0  0  0  0  0
   -6.7957   24.3755  -29.8511 H   0  0  0  0  0  0  0  0  0  0  0  0
  1  2  1  0
  2  3  1  0
  3  4  1  0
  4  5  1  0
  5  6  1  0
  6  7  1  0
  7  8  2  0
  8  9  1  0
  9 10  2  0
 10 11  1  0
 11 12  2  0
 12 13  1  0
 13 14  2  0
 14 15  1  0
 14 16  1  0
 16 17  2  0
 17 18  1  0
 18 19  2  0
 19 20  1  0
 20 21  1  0
 21 22  1  0
 22 23  1  0
 22 24  2  0
 20 25  2  0
 25  7  1  0
 13  8  1  0
 25 16  1  0
  1 26  1  0
  1 27  1  0
  1 28  1  0
  2 29  1  0
  2 30  1  0
  3 31  1  0
  4 32  1  0
  4 33  1  0
  5 34  1  0
  5 35  1  0
  6 36  1  0
  9 37  1  0
 10 38  1  0
 11 39  1  0
 12 40  1  0
 15 41  1  0
 15 42  1  0
 15 43  1  0
 17 44  1  0
 18 45  1  0
 19 46  1  0
 23 47  1  0
 23 48  1  0
 23 49  1  0
M  CHG  2  14   1  21  -1
M  END
>  <UniqueID>  (3) 
3

>  <SMILES>  (3) 
CCNCCNc1c2ccccc2[n+](C)c2cccc([N-]C(C)=O)c12

>  <Energy>  (3) 
76.37237477966724

>  <Genealogy>  (3) 
CCNCCNc1c2ccccc2[n+](C)c2cccc([N-]C(C)=O)c12 (protonated)
CCNCCNc1c2ccccc2[n+](C)c2cccc([N-]C(C)=O)c12 (3D coordinates assigned)
CCNCCNc1c2ccccc2[n+](C)c2cccc([N-]C(C)=O)c12 (optimized conformer: 76.37237477966724 kcal/mol)

>  <smiles>  (3) 
CCNCCNc1c2ccccc2[n+](C)c2cccc(NC(C)=O)c12

>  <score_type>  (3) 
oracle

>  <origin>  (3) 
adg

>  <m_score__min__energy>  (3) 
-9.1300000000000008

>  <m_primary>  (3) 
energy

$$$$
3:0
     RDKit          3D

 47 47  0  0  0  0  0  0  0  0999 V2000
   -7.4600   18.0471  -30.5716 H   0  0  0  0  0  0  0  0  0  0  0  0
   -7.8350   18.2430  -31.5870 C   0  0  0  0  0  0  0  0  0  0  0  0
   -9.0930   18.6920  -31.7130 C   0  0  0  0  0  0  0  0  0  0  0  0
   -9.8660   18.2303  -31.0810 H   0  0  0  0  0  0  0  0  0  0  0  0
   -9.5220   19.7830  -32.6580 C   0  0  0  0  0  0  0  0  0  0  0  0
  -10.5919   19.9897  -32.5076 H   0  0  0  0  0  0  0  0  0  0  0  0
   -9.3367   19.4478  -33.6892 H   0  0  0  0  0  0  0  0  0  0  0  0
   -8.7860   20.9660  -32.4290 O   0  0  0  0  0  0  0  0  0  0  0  0
   -9.0360   21.4670  -31.1310 C   0  0  0  0  0  0  0  0  0  0  0  0
   -9.2441   20.6316  -30.4464 H   0  0  0  0  0  0  0  0  0  0  0  0
   -9.9060   22.1398  -31.1521 H   0  0  0  0  0  0  0  0  0  0  0  0
   -7.7960   22.2340  -30.6470 C   0  0  0  0  0  0  0  0  0  0  0  0
   -7.3179   21.6557  -29.8426 H   0  0  0  0  0  0  0  0  0  0  0  0
   -8.1346   23.2206  -30.2977 H   0  0  0  0  0  0  0  0  0  0  0  0
   -6.7980   22.4620  -31.7240 N   0  0  0  0  0  0  0  0  0  0  0  0
   -7.2670   22.1790  -32.6190 H   0  0  0  0  0  0  0  0  0  0  0  0
   -5.5750   21.6110  -31.6090 C   0  0  0  0  0  0  0  0  0  0  0  0
   -5.9031   20.5611  -31.6075 H   0  0  0  0  0  0  0  0  0  0  0  0
   -5.0825   21.9515  -30.6862 H   0  0  0  0  0  0  0  0  0  0  0  0
   -4.4950   21.7580  -32.7100 C   0  0  0  0  0  0  0  0  0  0  0  0
   -4.0003   22.7313  -32.5761 H   0  0  0  0  0  0  0  0  0  0  0  0
   -5.0198   21.6662  -33.6724 H   0  0  0  0  0  0  0  0  0  0  0  0
   -3.4200   20.6740  -32.7020 C   0  0  0  0  0  0  0  0  0  0  0  0
   -3.1656   20.4175  -31.6630 H   0  0  0  0  0  0  0  0  0  0  0  0
   -3.7976   19.7793  -33.2186 H   0  0  0  0  0  0  0  0  0  0  0  0
   -2.5222   21.0442  -33.2186 H   0  0  0  0  0  0  0  0  0  0  0  0
   -6.5270   23.9190  -31.8650 C   0  0  0  0  0  0  0  0  0  0  0  0
   -6.0351   24.0895  -32.8340 H   0  0  0  0  0  0  0  0  0  0  0  0
   -7.4948   24.4367  -31.7916 H   0  0  0  0  0  0  0  0  0  0  0  0
   -5.6230   24.4870  -30.7520 C   0  0  0  0  0  0  0  0  0  0  0  0
   -5.1418   23.6526  -30.2207 H   0  0  0  0  0  0  0  0  0  0  0  0
   -4.8690   25.1394  -31.2166 H   0  0  0  0  0  0  0  0  0  0  0  0
   -6.4270   25.3160  -29.7520 C   0  0  0  0  0  0  0  0  0  0  0  0
   -6.1473   25.0276  -28.7280 H   0  0  0  0  0  0  0  0  0  0  0  0
   -6.2116   26.3839  -29.9040 H   0  0  0  0  0  0  0  0  0  0  0  0
   -7.5010   25.1334  -29.9040 H   0  0  0  0  0  0  0  0  0  0  0  0
   -6.9200   17.9940  -32.7180 C   0  0  0  0  0  0  0  0  0  0  0  0
   -6.5180   19.0700  -33.5230 C   0  0  0  0  0  0  0  0  0  0  0  0
   -6.8713   20.0864  -33.2945 H   0  0  0  0  0  0  0  0  0  0  0  0
   -5.6700   18.8570  -34.6150 C   0  0  0  0  0  0  0  0  0  0  0  0
   -5.3480   19.7065  -35.2352 H   0  0  0  0  0  0  0  0  0  0  0  0
   -5.2320   17.5650  -34.9180 C   0  0  0  0  0  0  0  0  0  0  0  0
   -4.5519   17.4004  -35.7667 H   0  0  0  0  0  0  0  0  0  0  0  0
   -5.6570   16.4820  -34.1440 C   0  0  0  0  0  0  0  0  0  0  0  0
   -5.3225   15.4639  -34.3923 H   0  0  0  0  0  0  0  0  0  0  0  0
   -6.5080   16.6920  -33.0530 C   0  0  0  0  0  0  0  0  0  0  0  0
   -6.8556   15.8361  -32.4558 H   0  0  0  0  0  0  0  0  0  0  0  0
  1  2  1  0
  2  3  2  0
  3  4  1  0
  3  5  1  0
  5  6  1  0
  5  7  1  0
  5  8  1  0
  8  9  1  0
  9 10  1  0
  9 11  1  0
  9 12  1  0
 12 13  1  0
 12 14  1  0
 12 15  1  0
 15 16  1  0
 15 17  1  0
 17 18  1  0
 17 19  1  0
 17 20  1  0
 20 21  1  0
 20 22  1  0
 20 23  1  0
 23 24  1  0
 23 25  1  0
 23 26  1  0
 15 27  1  0
 27 28  1  0
 27 29  1  0
 27 30  1  0
 30 31  1  0
 30 32  1  0
 30 33  1  0
 33 34  1  0
 33 35  1  0
 33 36  1  0
  2 37  1  0
 37 38  2  0
 38 39  1  0
 38 40  1  0
 40 41  1  0
 40 42  2  0
 42 43  1  0
 42 44  1  0
 44 45  1  0
 44 46  2  0
 46 47  1  0
 46 37  1  0
M  CHG  1  15   1
M  END
>  <UniqueID>  (4) 
4

>  <SMILES>  (4) 
CCC[NH+](CCC)CCOC/C=C\c1ccccc1

>  <Energy>  (4) 
54.87534217403381

>  <Genealogy>  (4) 
CCC[NH+](CCC)CCOCC=Cc1ccccc1 (protonated)
CCC[NH+](CCC)CCOC/C=C\c1ccccc1 (cis-trans isomerization)
CCC[NH+](CCC)CCOC/C=C\c1ccccc1 (3D coordinates assigned)
CCC[NH+](CCC)CCOC/C=C\c1ccccc1 (optimized conformer: 54.87534217403381 kcal/mol)

>  <smiles>  (4) 
CCCN(CCC)CCOCC=Cc1ccccc1

>  <score_type>  (4) 
oracle

>  <origin>  (4) 
adg

>  <m_score__min__energy>  (4) 
-5.6100000000000003

>  <m_primary>  (4) 
energy

$$$$
4:0
     RDKit          3D

 49 51  0  0  0  0  0  0  0  0999 V2000
   -0.5300   21.5120  -33.3480 C   0  0  0  0  0  0  0  0  0  0  0  0
    0.2360   20.3570  -33.9870 C   0  0  0  0  0  0  0  0  0  0  0  0
   -0.5520   19.7100  -35.0470 N   0  0  0  0  0  0  0  0  0  0  0  0
   -0.0620   18.3750  -35.4360 C   0  0  0  0  0  0  0  0  0  0  0  0
   -0.7370   17.2230  -34.6620 C   0  0  0  0  0  0  0  0  0  0  0  0
   -2.1580   17.1040  -34.9920 N   0  0  0  0  0  0  0  0  0  0  0  0
   -3.1590   17.8630  -34.3070 C   0  0  0  0  0  0  0  0  0  0  0  0
   -2.9470   19.0260  -33.6490 N   0  0  0  0  0  0  0  0  0  0  0  0
   -4.0990   19.5310  -33.1030 C   0  0  0  0  0  0  0  0  0  0  0  0
   -4.0990   20.8400  -32.4120 C   0  0  0  0  0  0  0  0  0  0  0  0
   -3.1640   21.1180  -31.4030 C   0  0  0  0  0  0  0  0  0  0  0  0
   -3.1730   22.3550  -30.7500 C   0  0  0  0  0  0  0  0  0  0  0  0
   -4.1280   23.3290  -31.0910 C   0  0  0  0  0  0  0  0  0  0  0  0
   -4.1780   24.5860  -30.4690 O   0  0  0  0  0  0  0  0  0  0  0  0
   -5.3810   25.2420  -30.0790 C   0  0  0  0  0  0  0  0  0  0  0  0
   -5.0700   23.0430  -32.0860 C   0  0  0  0  0  0  0  0  0  0  0  0
   -5.0610   21.8070  -32.7380 C   0  0  0  0  0  0  0  0  0  0  0  0
   -5.2290   18.7820  -33.3030 N   0  0  0  0  0  0  0  0  0  0  0  0
   -6.5500   18.9850  -32.7730 C   0  0  0  0  0  0  0  0  0  0  0  0
   -7.0280   18.1580  -31.7440 C   0  0  0  0  0  0  0  0  0  0  0  0
   -8.3080   18.3550  -31.2170 C   0  0  0  0  0  0  0  0  0  0  0  0
   -9.1150   19.3870  -31.7060 C   0  0  0  0  0  0  0  0  0  0  0  0
   -8.6400   20.2250  -32.7160 C   0  0  0  0  0  0  0  0  0  0  0  0
   -7.3610   20.0320  -33.2450 C   0  0  0  0  0  0  0  0  0  0  0  0
   -4.7690   17.4600  -34.2020 S   0  0  0  0  0  0  0  0  0  0  0  0
   -0.4740   21.4276  -32.2527 H   0  0  0  0  0  0  0  0  0  0  0  0
   -0.0855   22.4668  -33.6654 H   0  0  0  0  0  0  0  0  0  0  0  0
   -1.5825   21.4740  -33.6654 H   0  0  0  0  0  0  0  0  0  0  0  0
    1.1698   20.7439  -34.4211 H   0  0  0  0  0  0  0  0  0  0  0  0
    0.4471   19.6095  -33.2081 H   0  0  0  0  0  0  0  0  0  0  0  0
   -0.5480   20.3310  -35.8910 H   0  0  0  0  0  0  0  0  0  0  0  0
   -0.2539   18.2327  -36.5097 H   0  0  0  0  0  0  0  0  0  0  0  0
    1.0111   18.3412  -35.1965 H   0  0  0  0  0  0  0  0  0  0  0  0
   -0.2323   16.2794  -34.9168 H   0  0  0  0  0  0  0  0  0  0  0  0
   -0.6532   17.4391  -33.5867 H   0  0  0  0  0  0  0  0  0  0  0  0
   -2.4740   16.4470  -35.7400 H   0  0  0  0  0  0  0  0  0  0  0  0
   -2.0190   19.5020  -33.5870 H   0  0  0  0  0  0  0  0  0  0  0  0
   -2.4192   20.3582  -31.1238 H   0  0  0  0  0  0  0  0  0  0  0  0
   -2.4302   22.5666  -29.9668 H   0  0  0  0  0  0  0  0  0  0  0  0
   -5.4414   25.2749  -28.9812 H   0  0  0  0  0  0  0  0  0  0  0  0
   -5.3853   26.2673  -30.4774 H   0  0  0  0  0  0  0  0  0  0  0  0
   -6.2452   24.6903  -30.4774 H   0  0  0  0  0  0  0  0  0  0  0  0
   -5.8235   23.7972  -32.3569 H   0  0  0  0  0  0  0  0  0  0  0  0
   -5.8128   21.5913  -33.5114 H   0  0  0  0  0  0  0  0  0  0  0  0
   -6.3923   17.3511  -31.3505 H   0  0  0  0  0  0  0  0  0  0  0  0
   -8.6804   17.6978  -30.4173 H   0  0  0  0  0  0  0  0  0  0  0  0
  -10.1239   19.5383  -31.2947 H   0  0  0  0  0  0  0  0  0  0  0  0
   -9.2740   21.0394  -33.0966 H   0  0  0  0  0  0  0  0  0  0  0  0
   -6.9874   20.7017  -34.0336 H   0  0  0  0  0  0  0  0  0  0  0  0
  1  2  1  0
  2  3  1  0
  3  4  1  0
  4  5  1  0
  5  6  1  0
  6  7  1  0
  7  8  2  0
  8  9  1  0
  9 10  1  0
 10 11  2  0
 11 12  1  0
 12 13  2  0
 13 14  1  0
 14 15  1  0
 13 16  1  0
 16 17  2  0
  9 18  2  0
 18 19  1  0
 19 20  2  0
 20 21  1  0
 21 22  2  0
 22 23  1  0
 23 24  2  0
 18 25  1  0
 25  7  1  0
 17 10  1  0
 24 19  1  0
  1 26  1  0
  1 27  1  0
  1 28  1  0
  2 29  1  0
  2 30  1  0
  3 31  1  0
  4 32  1  0
  4 33  1  0
  5 34  1  0
  5 35  1  0
  6 36  1  0
  8 37  1  0
 11 38  1  0
 12 39  1  0
 15 40  1  0
 15 41  1  0
 15 42  1  0
 16 43  1  0
 17 44  1  0
 20 45  1  0
 21 46  1  0
 22 47  1  0
 23 48  1  0
 24 49  1  0
M  CHG  2   8   1  18   1
M  END
>  <UniqueID>  (5) 
5

>  <SMILES>  (5) 
CCNCCNc1[nH+]c(-c2ccc(OC)cc2)[n+](-c2ccccc2)s1

>  <Energy>  (5) 
94.94245743686218

>  <Genealogy>  (5) 
CCNCCNc1[nH+]c(-c2ccc(OC)cc2)[n+](-c2ccccc2)s1 (protonated)
CCNCCNc1[nH+]c(-c2ccc(OC)cc2)[n+](-c2ccccc2)s1 (3D coordinates assigned)
CCNCCNc1[nH+]c(-c2ccc(OC)cc2)[n+](-c2ccccc2)s1 (optimized conformer: 94.94245743686218 kcal/mol)

>  <smiles>  (5) 
CCNCCNc1nc(-c2ccc(OC)cc2)[n+](-c2ccccc2)s1

>  <score_type>  (5) 
oracle

>  <origin>  (5) 
adg

>  <m_score__min__energy>  (5) 
-6.6799999999999997

>  <m_primary>  (5) 
energy

$$$$
5:0
     RDKit          3D

 68 70  0  0  0  0  0  0  0  0999 V2000
   -0.5020   22.3430  -25.2210 C   0  0  0  0  0  0  0  0  0  0  0  0
   -1.3380   22.5430  -26.5110 C   0  0  0  0  0  0  0  0  0  0  0  0
   -1.6800   21.3160  -27.3130 N   0  0  0  0  0  0  0  0  0  0  0  0
   -3.0920   21.3570  -27.8460 C   0  0  0  0  0  0  0  0  0  0  0  0
   -3.7980   22.7250  -27.8960 C   0  0  0  0  0  0  0  0  0  0  0  0
   -1.6060   20.1000  -26.4150 C   0  0  0  0  0  0  0  0  0  0  0  0
   -2.7120   19.0320  -26.5890 C   0  0  0  0  0  0  0  0  0  0  0  0
   -0.7330   21.0650  -28.4690 C   0  0  0  0  0  0  0  0  0  0  0  0
   -1.2660   21.2690  -29.9210 C   0  0  0  0  0  0  0  0  0  0  0  0
   -1.3050   20.0400  -30.7230 N   0  0  0  0  0  0  0  0  0  0  0  0
   -0.1040   19.8850  -31.5580 C   0  0  0  0  0  0  0  0  0  0  0  0
   -0.3310   20.4390  -32.9740 C   0  0  0  0  0  0  0  0  0  0  0  0
   -1.5230   19.7830  -33.7090 C   0  0  0  0  0  0  0  0  0  0  0  0
   -2.6140   19.4160  -32.7720 N   0  0  0  0  0  0  0  0  0  0  0  0
   -3.8000   18.9440  -33.4690 C   0  0  0  0  0  0  0  0  0  0  0  0
   -3.6970   17.8030  -34.2940 C   0  0  0  0  0  0  0  0  0  0  0  0
   -4.8340   17.0980  -34.6850 C   0  0  0  0  0  0  0  0  0  0  0  0
   -6.0900   17.5100  -34.2520 C   0  0  0  0  0  0  0  0  0  0  0  0
   -6.2300   18.6990  -33.5230 C   0  0  0  0  0  0  0  0  0  0  0  0
   -7.4910   19.0890  -33.0730 C   0  0  0  0  0  0  0  0  0  0  0  0
   -7.6380   20.2670  -32.3450 C   0  0  0  0  0  0  0  0  0  0  0  0
   -8.8910   20.6160  -31.8100 C   0  0  0  0  0  0  0  0  0  0  0  0
   -9.0450   21.8050  -31.0990 C   0  0  0  0  0  0  0  0  0  0  0  0
   -7.9570   22.6620  -30.9280 C   0  0  0  0  0  0  0  0  0  0  0  0
   -6.7090   22.3340  -31.4670 C   0  0  0  0  0  0  0  0  0  0  0  0
   -6.5240   21.1290  -32.1880 C   0  0  0  0  0  0  0  0  0  0  0  0
   -5.3060   20.7910  -32.7490 N   0  0  0  0  0  0  0  0  0  0  0  0
   -4.3420   21.8740  -33.0470 C   0  0  0  0  0  0  0  0  0  0  0  0
   -5.0980   19.5090  -33.2330 C   0  0  0  0  0  0  0  0  0  0  0  0
   -1.1436   22.4965  -24.3408 H   0  0  0  0  0  0  0  0  0  0  0  0
   -0.0935   21.3218  -25.2034 H   0  0  0  0  0  0  0  0  0  0  0  0
    0.3244   23.0688  -25.2034 H   0  0  0  0  0  0  0  0  0  0  0  0
   -2.2849   23.0210  -26.2195 H   0  0  0  0  0  0  0  0  0  0  0  0
   -0.6943   23.1409  -27.1730 H   0  0  0  0  0  0  0  0  0  0  0  0
   -3.0675   20.9620  -28.8724 H   0  0  0  0  0  0  0  0  0  0  0  0
   -3.6785   20.7671  -27.1262 H   0  0  0  0  0  0  0  0  0  0  0  0
   -3.9815   23.0806  -26.8714 H   0  0  0  0  0  0  0  0  0  0  0  0
   -3.1602   23.4476  -28.4262 H   0  0  0  0  0  0  0  0  0  0  0  0
   -4.7565   22.6238  -28.4262 H   0  0  0  0  0  0  0  0  0  0  0  0
   -0.6387   19.6095  -26.5990 H   0  0  0  0  0  0  0  0  0  0  0  0
   -1.7411   20.4887  -25.3949 H   0  0  0  0  0  0  0  0  0  0  0  0
   -3.0580   18.6979  -25.5997 H   0  0  0  0  0  0  0  0  0  0  0  0
   -3.5560   19.4655  -27.1455 H   0  0  0  0  0  0  0  0  0  0  0  0
   -2.3083   18.1733  -27.1455 H   0  0  0  0  0  0  0  0  0  0  0  0
    0.1251   21.7409  -28.3394 H   0  0  0  0  0  0  0  0  0  0  0  0
   -0.5127   19.9889  -28.4100 H   0  0  0  0  0  0  0  0  0  0  0  0
   -2.2867   21.6747  -29.8606 H   0  0  0  0  0  0  0  0  0  0  0  0
   -0.5661   21.9533  -30.4228 H   0  0  0  0  0  0  0  0  0  0  0  0
   -1.3380   19.2370  -30.0470 H   0  0  0  0  0  0  0  0  0  0  0  0
    0.7299   20.4288  -31.0902 H   0  0  0  0  0  0  0  0  0  0  0  0
    0.1262   18.8124  -31.6383 H   0  0  0  0  0  0  0  0  0  0  0  0
   -0.5205   21.5199  -32.8988 H   0  0  0  0  0  0  0  0  0  0  0  0
    0.5732   20.2138  -33.5585 H   0  0  0  0  0  0  0  0  0  0  0  0
   -1.9160   20.4915  -34.4531 H   0  0  0  0  0  0  0  0  0  0  0  0
   -1.1625   18.8625  -34.1913 H   0  0  0  0  0  0  0  0  0  0  0  0
   -2.2490   18.6710  -32.1480 H   0  0  0  0  0  0  0  0  0  0  0  0
   -2.8700   20.2490  -32.1920 H   0  0  0  0  0  0  0  0  0  0  0  0
   -2.7062   17.4659  -34.6327 H   0  0  0  0  0  0  0  0  0  0  0  0
   -4.7381   16.2163  -35.3357 H   0  0  0  0  0  0  0  0  0  0  0  0
   -6.9764   16.9007  -34.4824 H   0  0  0  0  0  0  0  0  0  0  0  0
   -8.3702   18.4657  -33.2933 H   0  0  0  0  0  0  0  0  0  0  0  0
   -9.7530   19.9479  -31.9532 H   0  0  0  0  0  0  0  0  0  0  0  0
  -10.0243   22.0678  -30.6726 H   0  0  0  0  0  0  0  0  0  0  0  0
   -8.0816   23.5998  -30.3667 H   0  0  0  0  0  0  0  0  0  0  0  0
   -5.8605   23.0203  -31.3293 H   0  0  0  0  0  0  0  0  0  0  0  0
   -3.9644   22.2982  -32.1050 H   0  0  0  0  0  0  0  0  0  0  0  0
   -3.5017   21.4671  -33.6287 H   0  0  0  0  0  0  0  0  0  0  0  0
   -4.8435   22.6615  -33.6287 H   0  0  0  0  0  0  0  0  0  0  0  0
  1  2  1  0
  2  3  1  0
  3  4  1  0
  4  5  1  0
  3  6  1  0
  6  7  1  0
  3  8  1  0
  8  9  1  0
  9 10  1  0
 10 11  1  0
 11 12  1  0
 12 13  1  0
 13 14  1  0
 14 15  1  0
 15 16  2  0
 16 17  1  0
 17 18  2  0
 18 19  1  0
 19 20  2  0
 20 21  1  0
 21 22  2  0
 22 23  1  0
 23 24  2  0
 24 25  1  0
 25 26  2  0
 26 27  1  0
 27 28  1  0
 27 29  2  0
 29 15  1  0
 29 19  1  0
 26 21  1  0
  1 30  1  0
  1 31  1  0
  1 32  1  0
  2 33  1  0
  2 34  1  0
  4 35  1  0
  4 36  1  0
  5 37  1  0
  5 38  1  0
  5 39  1  0
  6 40  1  0
  6 41  1  0
  7 42  1  0
  7 43  1  0
  7 44  1  0
  8 45  1  0
  8 46  1  0
  9 47  1  0
  9 48  1  0
 10 49  1  0
 11 50  1  0
 11 51  1  0
 12 52  1  0
 12 53  1  0
 13 54  1  0
 13 55  1  0
 14 56  1  0
 14 57  1  0
 16 58  1  0
 17 59  1  0
 18 60  1  0
 20 61  1  0
 22 62  1  0
 23 63  1  0
 24 64  1  0
 25 65  1  0
 28 66  1  0
 28 67  1  0
 28 68  1  0
M  CHG  3   3   1  14   1  27   1
M  END
>  <UniqueID>  (6) 
6

>  <SMILES>  (6) 
CC[N+](CC)(CC)CCNCCC[NH2+]c1cccc2cc3ccccc3[n+](C)c12

>  <Energy>  (6) 
125.56344756005677

>  <Genealogy>  (6) 
CC[N+](CC)(CC)CCNCCC[NH2+]c1cccc2cc3ccccc3[n+](C)c12 (protonated)
CC[N+](CC)(CC)CCNCCC[NH2+]c1cccc2cc3ccccc3[n+](C)c12 (3D coordinates assigned)
CC[N+](CC)(CC)CCNCCC[NH2+]c1cccc2cc3ccccc3[n+](C)c12 (optimized conformer: 125.56344756005677 kcal/mol)

>  <smiles>  (6) 
CC[N+](CC)(CC)CCNCCCNc1cccc2cc3ccccc3[n+](C)c12

>  <score_type>  (6) 
oracle

>  <origin>  (6) 
adg

>  <m_score__min__energy>  (6) 
-7.5499999999999998

>  <m_primary>  (6) 
energy

$$$$
6:0
     RDKit          3D

 64 66  0  0  0  0  0  0  0  0999 V2000
   -0.2200   20.9200  -30.0870 C   0  0  0  0  0  0  0  0  0  0  0  0
   -1.4820   21.7680  -30.2410 C   0  0  0  0  0  0  0  0  0  0  0  0
   -1.5610   22.8830  -29.1870 C   0  0  0  0  0  0  0  0  0  0  0  0
   -2.7950   22.7960  -28.3660 N   0  0  0  0  0  0  0  0  0  0  0  0
   -3.1150   21.3760  -28.0830 C   0  0  0  0  0  0  0  0  0  0  0  0
   -2.0680   20.7410  -27.1550 C   0  0  0  0  0  0  0  0  0  0  0  0
   -2.4480   19.3080  -26.7920 C   0  0  0  0  0  0  0  0  0  0  0  0
   -3.9380   23.5000  -29.0110 C   0  0  0  0  0  0  0  0  0  0  0  0
   -3.4370   24.5010  -30.0580 C   0  0  0  0  0  0  0  0  0  0  0  0
   -4.4070   24.6260  -31.1500 N   0  0  0  0  0  0  0  0  0  0  0  0
   -5.7810   24.6110  -30.6320 C   0  0  0  0  0  0  0  0  0  0  0  0
   -6.6450   23.5940  -31.4040 C   0  0  0  0  0  0  0  0  0  0  0  0
   -6.0290   23.1340  -32.6670 N   0  0  0  0  0  0  0  0  0  0  0  0
   -5.8790   21.6840  -32.7240 C   0  0  0  0  0  0  0  0  0  0  0  0
   -6.9910   20.8070  -32.5290 C   0  0  0  0  0  0  0  0  0  0  0  0
   -8.2910   21.2790  -32.2030 C   0  0  0  0  0  0  0  0  0  0  0  0
   -9.3460   20.4000  -31.9800 C   0  0  0  0  0  0  0  0  0  0  0  0
   -9.1450   19.0330  -32.0600 C   0  0  0  0  0  0  0  0  0  0  0  0
   -7.8930   18.5350  -32.4010 C   0  0  0  0  0  0  0  0  0  0  0  0
   -6.8050   19.4010  -32.6850 C   0  0  0  0  0  0  0  0  0  0  0  0
   -5.5910   18.8980  -33.0980 N   0  0  0  0  0  0  0  0  0  0  0  0
   -5.4970   17.5030  -33.5890 C   0  0  0  0  0  0  0  0  0  0  0  0
   -4.4700   19.6980  -33.0880 C   0  0  0  0  0  0  0  0  0  0  0  0
   -3.1710   19.1390  -33.2000 C   0  0  0  0  0  0  0  0  0  0  0  0
   -2.0410   19.9470  -33.2740 C   0  0  0  0  0  0  0  0  0  0  0  0
   -2.1700   21.3260  -33.2230 C   0  0  0  0  0  0  0  0  0  0  0  0
   -3.4260   21.9050  -33.0570 C   0  0  0  0  0  0  0  0  0  0  0  0
   -4.5970   21.1080  -32.9560 C   0  0  0  0  0  0  0  0  0  0  0  0
   -0.0040   20.7748  -29.0182 H   0  0  0  0  0  0  0  0  0  0  0  0
   -0.3748   19.9419  -30.5660 H   0  0  0  0  0  0  0  0  0  0  0  0
    0.6271   21.4329  -30.5660 H   0  0  0  0  0  0  0  0  0  0  0  0
   -1.4824   22.2250  -31.2416 H   0  0  0  0  0  0  0  0  0  0  0  0
   -2.3519   21.1091  -30.1030 H   0  0  0  0  0  0  0  0  0  0  0  0
   -0.6878   22.8042  -28.5226 H   0  0  0  0  0  0  0  0  0  0  0  0
   -1.5768   23.8467  -29.7172 H   0  0  0  0  0  0  0  0  0  0  0  0
   -4.1019   21.3206  -27.6004 H   0  0  0  0  0  0  0  0  0  0  0  0
   -3.1151   20.8242  -29.0346 H   0  0  0  0  0  0  0  0  0  0  0  0
   -1.0932   20.7354  -27.6647 H   0  0  0  0  0  0  0  0  0  0  0  0
   -2.0186   21.3331  -26.2293 H   0  0  0  0  0  0  0  0  0  0  0  0
   -2.4761   19.2022  -25.6975 H   0  0  0  0  0  0  0  0  0  0  0  0
   -3.4390   19.0748  -27.2085 H   0  0  0  0  0  0  0  0  0  0  0  0
   -1.7028   18.6143  -27.2085 H   0  0  0  0  0  0  0  0  0  0  0  0
   -4.5878   22.7599  -29.5010 H   0  0  0  0  0  0  0  0  0  0  0  0
   -4.4977   24.0472  -28.2381 H   0  0  0  0  0  0  0  0  0  0  0  0
   -3.2974   25.4832  -29.5829 H   0  0  0  0  0  0  0  0  0  0  0  0
   -2.4821   24.1407  -30.4682 H   0  0  0  0  0  0  0  0  0  0  0  0
   -4.2360   25.5510  -31.6000 H   0  0  0  0  0  0  0  0  0  0  0  0
   -5.7623   24.3341  -29.5676 H   0  0  0  0  0  0  0  0  0  0  0  0
   -6.2170   25.6129  -30.7589 H   0  0  0  0  0  0  0  0  0  0  0  0
   -6.8118   22.7186  -30.7591 H   0  0  0  0  0  0  0  0  0  0  0  0
   -7.5837   24.1026  -31.6688 H   0  0  0  0  0  0  0  0  0  0  0  0
   -6.6190   23.4520  -33.4680 H   0  0  0  0  0  0  0  0  0  0  0  0
   -5.1520   23.6610  -32.8350 H   0  0  0  0  0  0  0  0  0  0  0  0
   -8.4669   22.3621  -32.1253 H   0  0  0  0  0  0  0  0  0  0  0  0
  -10.3446   20.7933  -31.7390 H   0  0  0  0  0  0  0  0  0  0  0  0
   -9.9752   18.3414  -31.8539 H   0  0  0  0  0  0  0  0  0  0  0  0
   -7.7422   17.4466  -32.4518 H   0  0  0  0  0  0  0  0  0  0  0  0
   -5.4506   16.8150  -32.7320 H   0  0  0  0  0  0  0  0  0  0  0  0
   -6.3814   17.2689  -34.1997 H   0  0  0  0  0  0  0  0  0  0  0  0
   -4.5892   17.3896  -34.1997 H   0  0  0  0  0  0  0  0  0  0  0  0
   -3.0550   18.0455  -33.2289 H   0  0  0  0  0  0  0  0  0  0  0  0
   -1.0448   19.4913  -33.3730 H   0  0  0  0  0  0  0  0  0  0  0  0
   -1.2789   21.9645  -33.3138 H   0  0  0  0  0  0  0  0  0  0  0  0
   -3.5124   23.0003  -33.0031 H   0  0  0  0  0  0  0  0  0  0  0  0
  1  2  1  0
  2  3  1  0
  3  4  1  0
  4  5  1  0
  5  6  1  0
  6  7  1  0
  4  8  1  0
  8  9  1  0
  9 10  1  0
 10 11  1  0
 11 12  1  0
 12 13  1  0
 13 14  1  0
 14 15  2  0
 15 16  1  0
 16 17  2  0
 17 18  1  0
 18 19  2  0
 19 20  1  0
 20 21  2  0
 21 22  1  0
 21 23  1  0
 23 24  2  0
 24 25  1  0
 25 26  2  0
 26 27  1  0
 27 28  2  0
 28 14  1  0
 20 15  1  0
 28 23  1  0
  1 29  1  0
  1 30  1  0
  1 31  1  0
  2 32  1  0
  2 33  1  0
  3 34  1  0
  3 35  1  0
  5 36  1  0
  5 37  1  0
  6 38  1  0
  6 39  1  0
  7 40  1  0
  7 41  1  0
  7 42  1  0
  8 43  1  0
  8 44  1  0
  9 45  1  0
  9 46  1  0
 10 47  1  0
 11 48  1  0
 11 49  1  0
 12 50  1  0
 12 51  1  0
 13 52  1  0
 13 53  1  0
 16 54  1  0
 17 55  1  0
 18 56  1  0
 19 57  1  0
 22 58  1  0
 22 59  1  0
 22 60  1  0
 24 61  1  0
 25 62  1  0
 26 63  1  0
 27 64  1  0
M  CHG  2  13   1  21   1
M  END
>  <UniqueID>  (7) 
7

>  <SMILES>  (7) 
CCCN(CCC)CCNCC[NH2+]c1c2ccccc2[n+](C)c2ccccc12

>  <Energy>  (7) 
84.40321546922202

>  <Genealogy>  (7) 
CCCN(CCC)CCNCC[NH2+]c1c2ccccc2[n+](C)c2ccccc12 (protonated)
CCCN(CCC)CCNCC[NH2+]c1c2ccccc2[n+](C)c2ccccc12 (3D coordinates assigned)
CCCN(CCC)CCNCC[NH2+]c1c2ccccc2[n+](C)c2ccccc12 (optimized conformer: 84.40321546922202 kcal/mol)

>  <smiles>  (7) 
CCCN(CCC)CCNCCNc1c2ccccc2[n+](C)c2ccccc12

>  <score_type>  (7) 
oracle

>  <origin>  (7) 
adg

>  <m_score__min__energy>  (7) 
-8.3100000000000005

>  <m_primary>  (7) 
energy

$$$$
7:0
     RDKit          3D

 52 54  0  0  0  0  0  0  0  0999 V2000
   -6.3830   25.3520  -29.6520 C   0  0  0  0  0  0  0  0  0  0  0  0
   -5.4360   25.3020  -30.8540 C   0  0  0  0  0  0  0  0  0  0  0  0
   -4.0190   25.3150  -30.4490 N   0  0  0  0  0  0  0  0  0  0  0  0
   -3.7740   24.5600  -29.2090 C   0  0  0  0  0  0  0  0  0  0  0  0
   -3.0190   23.2570  -29.5000 C   0  0  0  0  0  0  0  0  0  0  0  0
   -2.9930   22.9330  -31.0040 C   0  0  0  0  0  0  0  0  0  0  0  0
   -3.5660   21.5440  -31.3190 C   0  0  0  0  0  0  0  0  0  0  0  0
   -3.2840   21.0990  -32.7580 C   0  0  0  0  0  0  0  0  0  0  0  0
   -4.5160   21.1190  -33.5480 N   0  0  0  0  0  0  0  0  0  0  0  0
   -5.6940   20.4120  -33.1170 C   0  0  0  0  0  0  0  0  0  0  0  0
   -6.7770   21.1140  -32.5580 C   0  0  0  0  0  0  0  0  0  0  0  0
   -6.7120   22.5100  -32.3610 C   0  0  0  0  0  0  0  0  0  0  0  0
   -7.8110   23.2140  -31.8750 C   0  0  0  0  0  0  0  0  0  0  0  0
   -8.9920   22.5430  -31.5810 C   0  0  0  0  0  0  0  0  0  0  0  0
   -9.0670   21.1580  -31.7300 C   0  0  0  0  0  0  0  0  0  0  0  0
   -7.9490   20.4060  -32.1750 C   0  0  0  0  0  0  0  0  0  0  0  0
   -7.9820   19.0260  -32.2460 N   0  0  0  0  0  0  0  0  0  0  0  0
   -9.0740   18.2780  -31.5840 C   0  0  0  0  0  0  0  0  0  0  0  0
   -6.9730   18.3410  -32.9000 C   0  0  0  0  0  0  0  0  0  0  0  0
   -7.0890   16.9610  -33.2090 C   0  0  0  0  0  0  0  0  0  0  0  0
   -6.0440   16.2690  -33.8220 C   0  0  0  0  0  0  0  0  0  0  0  0
   -4.8690   16.9310  -34.1540 C   0  0  0  0  0  0  0  0  0  0  0  0
   -4.7420   18.2950  -33.9070 C   0  0  0  0  0  0  0  0  0  0  0  0
   -5.7920   19.0210  -33.3020 C   0  0  0  0  0  0  0  0  0  0  0  0
   -5.7967   25.3210  -28.7218 H   0  0  0  0  0  0  0  0  0  0  0  0
   -6.9690   26.2823  -29.6853 H   0  0  0  0  0  0  0  0  0  0  0  0
   -7.0637   24.4885  -29.6853 H   0  0  0  0  0  0  0  0  0  0  0  0
   -5.6334   24.3809  -31.4221 H   0  0  0  0  0  0  0  0  0  0  0  0
   -5.6200   26.1976  -31.4656 H   0  0  0  0  0  0  0  0  0  0  0  0
   -3.4290   24.9160  -31.2180 H   0  0  0  0  0  0  0  0  0  0  0  0
   -3.1748   25.1778  -28.5239 H   0  0  0  0  0  0  0  0  0  0  0  0
   -4.7434   24.3095  -28.7534 H   0  0  0  0  0  0  0  0  0  0  0  0
   -1.9845   23.3573  -29.1398 H   0  0  0  0  0  0  0  0  0  0  0  0
   -3.5408   22.4378  -28.9836 H   0  0  0  0  0  0  0  0  0  0  0  0
   -3.5881   23.6888  -31.5375 H   0  0  0  0  0  0  0  0  0  0  0  0
   -1.9419   22.9410  -31.3283 H   0  0  0  0  0  0  0  0  0  0  0  0
   -3.1161   20.8136  -30.6305 H   0  0  0  0  0  0  0  0  0  0  0  0
   -4.6578   21.6001  -31.1971 H   0  0  0  0  0  0  0  0  0  0  0  0
   -2.5511   21.7823  -33.2118 H   0  0  0  0  0  0  0  0  0  0  0  0
   -2.8857   20.0738  -32.7433 H   0  0  0  0  0  0  0  0  0  0  0  0
   -4.6170   21.8590  -34.2780 H   0  0  0  0  0  0  0  0  0  0  0  0
   -5.7817   23.0487  -32.5942 H   0  0  0  0  0  0  0  0  0  0  0  0
   -7.7442   24.3015  -31.7238 H   0  0  0  0  0  0  0  0  0  0  0  0
   -9.8698   23.1054  -31.2299 H   0  0  0  0  0  0  0  0  0  0  0  0
  -10.0093   20.6398  -31.4985 H   0  0  0  0  0  0  0  0  0  0  0  0
   -8.9618   18.3548  -30.4924 H   0  0  0  0  0  0  0  0  0  0  0  0
  -10.0435   18.7026  -31.8838 H   0  0  0  0  0  0  0  0  0  0  0  0
   -9.0284   17.2206  -31.8838 H   0  0  0  0  0  0  0  0  0  0  0  0
   -8.0186   16.4277  -32.9611 H   0  0  0  0  0  0  0  0  0  0  0  0
   -6.1509   15.1967  -34.0428 H   0  0  0  0  0  0  0  0  0  0  0  0
   -4.0373   16.3764  -34.6130 H   0  0  0  0  0  0  0  0  0  0  0  0
   -3.8130   18.8137  -34.1862 H   0  0  0  0  0  0  0  0  0  0  0  0
  1  2  1  0
  2  3  1  0
  3  4  1  0
  4  5  1  0
  5  6  1  0
  6  7  1  0
  7  8  1  0
  8  9  1  0
  9 10  1  0
 10 11  2  0
 11 12  1  0
 12 13  2  0
 13 14  1  0
 14 15  2  0
 15 16  1  0
 16 17  2  0
 17 18  1  0
 17 19  1  0
 19 20  2  0
 20 21  1  0
 21 22  2  0
 22 23  1  0
 23 24  2  0
 24 10  1  0
 16 11  1  0
 24 19  1  0
  1 25  1  0
  1 26  1  0
  1 27  1  0
  2 28  1  0
  2 29  1  0
  3 30  1  0
  4 31  1  0
  4 32  1  0
  5 33  1  0
  5 34  1  0
  6 35  1  0
  6 36  1  0
  7 37  1  0
  7 38  1  0
  8 39  1  0
  8 40  1  0
  9 41  1  0
 12 42  1  0
 13 43  1  0
 14 44  1  0
 15 45  1  0
 18 46  1  0
 18 47  1  0
 18 48  1  0
 20 49  1  0
 21 50  1  0
 22 51  1  0
 23 52  1  0
M  CHG  1  17   1
M  END
>  <UniqueID>  (8) 
8

>  <SMILES>  (8) 
CCNCCCCCNc1c2ccccc2[n+](C)c2ccccc12

>  <Energy>  (8) 
71.82252682189718

>  <Genealogy>  (8) 
CCNCCCCCNc1c2ccccc2[n+](C)c2ccccc12 (3D coordinates assigned)
CCNCCCCCNc1c2ccccc2[n+](C)c2ccccc12 (optimized conformer: 71.82252682189718 kcal/mol)

>  <smiles>  (8) 
CCNCCCCCNc1c2ccccc2[n+](C)c2ccccc12

>  <score_type>  (8) 
oracle

>  <origin>  (8) 
adg

>  <m_score__min__energy>  (8) 
-9.4399999999999995

>  <m_primary>  (8) 
energy

$$$$
8:0
     RDKit          3D

 37 40  0  0  0  0  0  0  0  0999 V2000
   -4.9430   23.4060  -30.9550 C   0  0  0  0  0  0  0  0  0  0  0  0
   -5.4960   22.6550  -32.0320 O   0  0  0  0  0  0  0  0  0  0  0  0
   -6.8280   22.2360  -32.1220 C   0  0  0  0  0  0  0  0  0  0  0  0
   -7.8800   23.1550  -31.9230 C   0  0  0  0  0  0  0  0  0  0  0  0
   -9.2040   22.7280  -31.8660 C   0  0  0  0  0  0  0  0  0  0  0  0
   -9.5080   21.3760  -31.9840 C   0  0  0  0  0  0  0  0  0  0  0  0
   -8.4950   20.4430  -32.2080 C   0  0  0  0  0  0  0  0  0  0  0  0
   -8.8270   19.1210  -32.2880 N   0  0  0  0  0  0  0  0  0  0  0  0
   -7.9030   18.1470  -32.4980 C   0  0  0  0  0  0  0  0  0  0  0  0
   -6.5730   18.5230  -32.6670 C   0  0  0  0  0  0  0  0  0  0  0  0
   -6.1930   19.8490  -32.6540 C   0  0  0  0  0  0  0  0  0  0  0  0
   -4.8540   19.8050  -33.0790 C   0  0  0  0  0  0  0  0  0  0  0  0
   -3.9400   20.9220  -33.4640 C   0  0  0  0  0  0  0  0  0  0  0  0
   -4.4910   18.5160  -33.2740 N   0  0  0  0  0  0  0  0  0  0  0  0
   -5.5300   17.7390  -33.0060 N   0  0  0  0  0  0  0  0  0  0  0  0
   -5.4940   16.3080  -33.1300 C   0  0  0  0  0  0  0  0  0  0  0  0
   -6.2950   15.6670  -34.0880 C   0  0  0  0  0  0  0  0  0  0  0  0
   -6.2480   14.2780  -34.2340 C   0  0  0  0  0  0  0  0  0  0  0  0
   -5.3890   13.5190  -33.4350 C   0  0  0  0  0  0  0  0  0  0  0  0
   -4.5710   14.1500  -32.4930 C   0  0  0  0  0  0  0  0  0  0  0  0
   -4.6160   15.5400  -32.3450 C   0  0  0  0  0  0  0  0  0  0  0  0
   -7.1370   20.8690  -32.3480 C   0  0  0  0  0  0  0  0  0  0  0  0
   -5.2655   22.9680  -29.9989 H   0  0  0  0  0  0  0  0  0  0  0  0
   -3.8450   23.3824  -31.0173 H   0  0  0  0  0  0  0  0  0  0  0  0
   -5.2915   24.4475  -31.0173 H   0  0  0  0  0  0  0  0  0  0  0  0
   -7.6506   24.2250  -31.8112 H   0  0  0  0  0  0  0  0  0  0  0  0
  -10.0116   23.4618  -31.7273 H   0  0  0  0  0  0  0  0  0  0  0  0
  -10.5523   21.0405  -31.9003 H   0  0  0  0  0  0  0  0  0  0  0  0
   -8.1983   17.0880  -32.5336 H   0  0  0  0  0  0  0  0  0  0  0  0
   -3.5464   21.4031  -32.5565 H   0  0  0  0  0  0  0  0  0  0  0  0
   -3.1052   20.5240  -34.0595 H   0  0  0  0  0  0  0  0  0  0  0  0
   -4.4954   21.6615  -34.0595 H   0  0  0  0  0  0  0  0  0  0  0  0
   -6.9638   16.2616  -34.7277 H   0  0  0  0  0  0  0  0  0  0  0  0
   -6.8878   13.7817  -34.9786 H   0  0  0  0  0  0  0  0  0  0  0  0
   -5.3564   12.4252  -33.5471 H   0  0  0  0  0  0  0  0  0  0  0  0
   -3.8913   13.5526  -31.8676 H   0  0  0  0  0  0  0  0  0  0  0  0
   -3.9620   16.0343  -31.6116 H   0  0  0  0  0  0  0  0  0  0  0  0
  1  2  1  0
  2  3  1  0
  3  4  2  0
  4  5  1  0
  5  6  2  0
  6  7  1  0
  7  8  2  0
  8  9  1  0
  9 10  2  0
 10 11  1  0
 11 12  1  0
 12 13  1  0
 12 14  2  0
 14 15  1  0
 15 16  1  0
 16 17  2  0
 17 18  1  0
 18 19  2  0
 19 20  1  0
 20 21  2  0
 11 22  2  0
 22  3  1  0
 22  7  1  0
 15 10  1  0
 21 16  1  0
  1 23  1  0
  1 24  1  0
  1 25  1  0
  4 26  1  0
  5 27  1  0
  6 28  1  0
  9 29  1  0
 13 30  1  0
 13 31  1  0
 13 32  1  0
 17 33  1  0
 18 34  1  0
 19 35  1  0
 20 36  1  0
 21 37  1  0
M  END
>  <UniqueID>  (9) 
9

>  <SMILES>  (9) 
COc1cccc2ncc3c(c(C)nn3-c3ccccc3)c12

>  <Energy>  (9) 
97.90058511358055

>  <Genealogy>  (9) 
COc1cccc2ncc3c(c(C)nn3-c3ccccc3)c12 (3D coordinates assigned)
COc1cccc2ncc3c(c(C)nn3-c3ccccc3)c12 (optimized conformer: 97.90058511358055 kcal/mol)

>  <smiles>  (9) 
COc1cccc2ncc3c(c(C)nn3-c3ccccc3)c12

>  <score_type>  (9) 
oracle

>  <origin>  (9) 
adg

>  <m_score__min__energy>  (9) 
-7.4299999999999997

>  <m_primary>  (9) 
energy

$$$$
9:0
     RDKit          3D

 55 57  0  0  0  0  0  0  0  0999 V2000
   -3.4660   19.9390  -33.4640 C   0  0  0  0  0  0  0  0  0  0  0  0
   -4.1170   18.7040  -32.8050 C   0  0  0  0  0  0  0  0  0  0  0  0
   -4.8940   17.7870  -33.7120 N   0  0  0  0  0  0  0  0  0  0  0  0
   -4.0410   17.5040  -34.9020 C   0  0  0  0  0  0  0  0  0  0  0  0
   -5.2750   16.4830  -33.0720 C   0  0  0  0  0  0  0  0  0  0  0  0
   -6.2470   15.6140  -33.8910 C   0  0  0  0  0  0  0  0  0  0  0  0
   -6.1200   18.4670  -34.2540 C   0  0  0  0  0  0  0  0  0  0  0  0
   -6.9790   19.1900  -33.2360 C   0  0  0  0  0  0  0  0  0  0  0  0
   -7.9460   18.4940  -32.4930 C   0  0  0  0  0  0  0  0  0  0  0  0
   -8.7450   19.1670  -31.5680 C   0  0  0  0  0  0  0  0  0  0  0  0
   -8.6040   20.5440  -31.3890 C   0  0  0  0  0  0  0  0  0  0  0  0
   -7.6720   21.2670  -32.1520 C   0  0  0  0  0  0  0  0  0  0  0  0
   -7.5170   22.7640  -31.9590 C   0  0  0  0  0  0  0  0  0  0  0  0
   -6.2770   23.1720  -31.2330 N   0  0  0  0  0  0  0  0  0  0  0  0
   -5.0490   22.6720  -31.9140 C   0  0  0  0  0  0  0  0  0  0  0  0
   -3.7840   23.1660  -31.1670 C   0  0  0  0  0  0  0  0  0  0  0  0
   -4.1620   23.9870  -29.9970 N   0  0  0  0  0  0  0  0  0  0  0  0
   -5.0040   23.1780  -29.0890 C   0  0  0  0  0  0  0  0  0  0  0  0
   -6.2740   22.6820  -29.8260 C   0  0  0  0  0  0  0  0  0  0  0  0
   -4.9490   25.1460  -30.4660 C   0  0  0  0  0  0  0  0  0  0  0  0
   -6.2200   24.6630  -31.2070 C   0  0  0  0  0  0  0  0  0  0  0  0
   -6.8610   20.5820  -33.0720 C   0  0  0  0  0  0  0  0  0  0  0  0
   -3.1049   20.6239  -32.6827 H   0  0  0  0  0  0  0  0  0  0  0  0
   -2.6201   19.6177  -34.0894 H   0  0  0  0  0  0  0  0  0  0  0  0
   -4.2091   20.4553  -34.0894 H   0  0  0  0  0  0  0  0  0  0  0  0
   -3.3149   18.1122  -32.3398 H   0  0  0  0  0  0  0  0  0  0  0  0
   -4.8568   19.1084  -32.0985 H   0  0  0  0  0  0  0  0  0  0  0  0
   -3.0458   17.1738  -34.5696 H   0  0  0  0  0  0  0  0  0  0  0  0
   -4.5068   16.7123  -35.5071 H   0  0  0  0  0  0  0  0  0  0  0  0
   -3.9412   18.4172  -35.5071 H   0  0  0  0  0  0  0  0  0  0  0  0
   -4.3552   15.9027  -32.9068 H   0  0  0  0  0  0  0  0  0  0  0  0
   -5.8029   16.7404  -32.1419 H   0  0  0  0  0  0  0  0  0  0  0  0
   -6.8897   15.0394  -33.2078 H   0  0  0  0  0  0  0  0  0  0  0  0
   -6.8715   16.2605  -34.5251 H   0  0  0  0  0  0  0  0  0  0  0  0
   -5.6742   14.9213  -34.5251 H   0  0  0  0  0  0  0  0  0  0  0  0
   -5.7939   19.2030  -35.0037 H   0  0  0  0  0  0  0  0  0  0  0  0
   -6.7517   17.6634  -34.6604 H   0  0  0  0  0  0  0  0  0  0  0  0
   -8.0745   17.4116  -32.6410 H   0  0  0  0  0  0  0  0  0  0  0  0
   -9.4883   18.6106  -30.9781 H   0  0  0  0  0  0  0  0  0  0  0  0
   -9.2258   21.0658  -30.6467 H   0  0  0  0  0  0  0  0  0  0  0  0
   -7.5055   23.2386  -32.9513 H   0  0  0  0  0  0  0  0  0  0  0  0
   -8.3639   23.0875  -31.3360 H   0  0  0  0  0  0  0  0  0  0  0  0
   -5.0601   21.5721  -31.9218 H   0  0  0  0  0  0  0  0  0  0  0  0
   -5.0293   23.0546  -32.9451 H   0  0  0  0  0  0  0  0  0  0  0  0
   -3.2019   22.2969  -30.8267 H   0  0  0  0  0  0  0  0  0  0  0  0
   -3.1822   23.7799  -31.8533 H   0  0  0  0  0  0  0  0  0  0  0  0
   -4.4270   22.3100  -28.7374 H   0  0  0  0  0  0  0  0  0  0  0  0
   -5.3082   23.8015  -28.2354 H   0  0  0  0  0  0  0  0  0  0  0  0
   -6.2888   21.5821  -29.8243 H   0  0  0  0  0  0  0  0  0  0  0  0
   -7.1637   23.0704  -29.3088 H   0  0  0  0  0  0  0  0  0  0  0  0
   -5.2431   25.7595  -29.6017 H   0  0  0  0  0  0  0  0  0  0  0  0
   -4.3346   25.7418  -31.1570 H   0  0  0  0  0  0  0  0  0  0  0  0
   -7.1098   25.0500  -30.6888 H   0  0  0  0  0  0  0  0  0  0  0  0
   -6.1908   25.0353  -32.2417 H   0  0  0  0  0  0  0  0  0  0  0  0
   -6.1259   21.1401  -33.6705 H   0  0  0  0  0  0  0  0  0  0  0  0
  1  2  1  0
  2  3  1  0
  3  4  1  0
  3  5  1  0
  5  6  1  0
  3  7  1  0
  7  8  1  0
  8  9  2  0
  9 10  1  0
 10 11  2  0
 11 12  1  0
 12 13  1  0
 13 14  1  0
 14 15  1  0
 15 16  1  0
 16 17  1  0
 17 18  1  0
 18 19  1  0
 17 20  1  0
 20 21  1  0
 12 22  2  0
 22  8  1  0
 19 14  1  0
 21 14  1  0
  1 23  1  0
  1 24  1  0
  1 25  1  0
  2 26  1  0
  2 27  1  0
  4 28  1  0
  4 29  1  0
  4 30  1  0
  5 31  1  0
  5 32  1  0
  6 33  1  0
  6 34  1  0
  6 35  1  0
  7 36  1  0
  7 37  1  0
  9 38  1  0
 10 39  1  0
 11 40  1  0
 13 41  1  0
 13 42  1  0
 15 43  1  0
 15 44  1  0
 16 45  1  0
 16 46  1  0
 18 47  1  0
 18 48  1  0
 19 49  1  0
 19 50  1  0
 20 51  1  0
 20 52  1  0
 21 53  1  0
 21 54  1  0
 22 55  1  0
M  CHG  2   3   1  14   1
M  END
>  <UniqueID>  (10) 
10

>  <SMILES>  (10) 
CC[N+](C)(CC)Cc1cccc(C[N+]23CCN(CC2)CC3)c1

>  <Energy>  (10) 
91.91563077507587

>  <Genealogy>  (10) 
CC[N+](C)(CC)Cc1cccc(C[N+]23CCN(CC2)CC3)c1 (3D coordinates assigned)
CC[N+](C)(CC)Cc1cccc(C[N+]23CCN(CC2)CC3)c1 (nonaromatic ring conformer: 91.91563077507587 kcal/mol)

>  <smiles>  (10) 
CC[N+](C)(CC)Cc1cccc(C[N+]23CCN(CC2)CC3)c1

>  <score_type>  (10) 
oracle

>  <origin>  (10) 
adg

>  <m_score__min__energy>  (10) 
-6.0499999999999998

>  <m_primary>  (10) 
energy

$$$$
10:0
     RDKit          3D

 50 52  0  0  0  0  0  0  0  0999 V2000
    0.2720   20.8110  -36.4490 C   0  0  0  0  0  0  0  0  0  0  0  0
    1.1790   21.3400  -35.3490 C   0  0  0  0  0  0  0  0  0  0  0  0
    0.3860   21.9290  -34.3410 O   0  0  0  0  0  0  0  0  0  0  0  0
    0.2520   21.0280  -33.2610 C   0  0  0  0  0  0  0  0  0  0  0  0
   -1.1130   20.3400  -33.3350 C   0  0  0  0  0  0  0  0  0  0  0  0
   -2.0610   21.1180  -34.1450 N   0  0  0  0  0  0  0  0  0  0  0  0
   -3.3710   21.0410  -33.5640 C   0  0  0  0  0  0  0  0  0  0  0  0
   -3.7880   22.0040  -32.6890 N   0  0  0  0  0  0  0  0  0  0  0  0
   -5.0100   21.9550  -32.0850 C   0  0  0  0  0  0  0  0  0  0  0  0
   -5.3750   22.9980  -31.1740 N   0  0  0  0  0  0  0  0  0  0  0  0
   -5.1150   22.7850  -29.7440 C   0  0  0  0  0  0  0  0  0  0  0  0
   -4.9620   24.1150  -28.9770 C   0  0  0  0  0  0  0  0  0  0  0  0
   -5.6980   25.3010  -29.6260 C   0  0  0  0  0  0  0  0  0  0  0  0
   -6.8910   24.8380  -30.4620 C   0  0  0  0  0  0  0  0  0  0  0  0
   -6.4140   23.9430  -31.6100 C   0  0  0  0  0  0  0  0  0  0  0  0
   -5.8600   20.8700  -32.3730 C   0  0  0  0  0  0  0  0  0  0  0  0
   -7.1570   20.5780  -31.8880 C   0  0  0  0  0  0  0  0  0  0  0  0
   -7.9320   21.4450  -30.9360 C   0  0  0  0  0  0  0  0  0  0  0  0
   -7.6650   19.3850  -32.4310 C   0  0  0  0  0  0  0  0  0  0  0  0
   -9.0050   18.7790  -32.1520 C   0  0  0  0  0  0  0  0  0  0  0  0
   -6.5290   18.7000  -33.4780 S   0  0  0  0  0  0  0  0  0  0  0  0
   -5.3970   19.9100  -33.2570 C   0  0  0  0  0  0  0  0  0  0  0  0
   -4.1800   19.9800  -33.8430 N   0  0  0  0  0  0  0  0  0  0  0  0
   -0.5947   20.3055  -35.9981 H   0  0  0  0  0  0  0  0  0  0  0  0
   -0.0752   21.6483  -37.0723 H   0  0  0  0  0  0  0  0  0  0  0  0
    0.8298   20.0966  -37.0723 H   0  0  0  0  0  0  0  0  0  0  0  0
    1.7622   20.5109  -34.9217 H   0  0  0  0  0  0  0  0  0  0  0  0
    1.8677   22.0902  -35.7649 H   0  0  0  0  0  0  0  0  0  0  0  0
    1.0476   20.2703  -33.3151 H   0  0  0  0  0  0  0  0  0  0  0  0
    0.3332   21.5790  -32.3124 H   0  0  0  0  0  0  0  0  0  0  0  0
   -0.9884   19.3448  -33.7868 H   0  0  0  0  0  0  0  0  0  0  0  0
   -1.5153   20.2571  -32.3146 H   0  0  0  0  0  0  0  0  0  0  0  0
   -1.7640   22.1210  -34.1810 H   0  0  0  0  0  0  0  0  0  0  0  0
   -2.0930   20.7390  -35.1200 H   0  0  0  0  0  0  0  0  0  0  0  0
   -5.9541   22.2206  -29.3112 H   0  0  0  0  0  0  0  0  0  0  0  0
   -4.1700   22.2298  -29.6508 H   0  0  0  0  0  0  0  0  0  0  0  0
   -5.3593   23.9758  -27.9607 H   0  0  0  0  0  0  0  0  0  0  0  0
   -3.8906   24.3640  -28.9829 H   0  0  0  0  0  0  0  0  0  0  0  0
   -6.0578   25.9738  -28.8336 H   0  0  0  0  0  0  0  0  0  0  0  0
   -4.9926   25.8184  -30.2928 H   0  0  0  0  0  0  0  0  0  0  0  0
   -7.5848   24.2717  -29.8234 H   0  0  0  0  0  0  0  0  0  0  0  0
   -7.4009   25.7185  -30.8801 H   0  0  0  0  0  0  0  0  0  0  0  0
   -7.2721   23.3741  -31.9974 H   0  0  0  0  0  0  0  0  0  0  0  0
   -5.9820   24.5889  -32.3886 H   0  0  0  0  0  0  0  0  0  0  0  0
   -7.6833   21.1667  -29.9013 H   0  0  0  0  0  0  0  0  0  0  0  0
   -7.6704   22.5000  -31.1050 H   0  0  0  0  0  0  0  0  0  0  0  0
   -9.0096   21.3029  -31.1050 H   0  0  0  0  0  0  0  0  0  0  0  0
   -9.1571   18.7102  -31.0647 H   0  0  0  0  0  0  0  0  0  0  0  0
   -9.7914   19.4091  -32.5931 H   0  0  0  0  0  0  0  0  0  0  0  0
   -9.0512   17.7724  -32.5931 H   0  0  0  0  0  0  0  0  0  0  0  0
  1  2  1  0
  2  3  1  0
  3  4  1  0
  4  5  1  0
  5  6  1  0
  6  7  1  0
  7  8  2  0
  8  9  1  0
  9 10  1  0
 10 11  1  0
 11 12  1  0
 12 13  1  0
 13 14  1  0
 14 15  1  0
  9 16  2  0
 16 17  1  0
 17 18  1  0
 17 19  2  0
 19 20  1  0
 19 21  1  0
 21 22  1  0
 22 23  2  0
 23  7  1  0
 15 10  1  0
 22 16  1  0
  1 24  1  0
  1 25  1  0
  1 26  1  0
  2 27  1  0
  2 28  1  0
  4 29  1  0
  4 30  1  0
  5 31  1  0
  5 32  1  0
  6 33  1  0
  6 34  1  0
 11 35  1  0
 11 36  1  0
 12 37  1  0
 12 38  1  0
 13 39  1  0
 13 40  1  0
 14 41  1  0
 14 42  1  0
 15 43  1  0
 15 44  1  0
 18 45  1  0
 18 46  1  0
 18 47  1  0
 20 48  1  0
 20 49  1  0
 20 50  1  0
M  CHG  1   6   1
M  END
>  <UniqueID>  (11) 
11

>  <SMILES>  (11) 
CCOCC[NH2+]c1nc(N2CCCCC2)c2c(C)c(C)sc2n1

>  <Energy>  (11) 
84.90342980407362

>  <Genealogy>  (11) 
CCOCC[NH2+]c1nc(N2CCCCC2)c2c(C)c(C)sc2n1 (protonated)
CCOCC[NH2+]c1nc(N2CCCCC2)c2c(C)c(C)sc2n1 (3D coordinates assigned)
CCOCC[NH2+]c1nc(N2CCCCC2)c2c(C)c(C)sc2n1 (nonaromatic ring conformer: 84.90342980407362 kcal/mol)

>  <smiles>  (11) 
CCOCCNc1nc(N2CCCCC2)c2c(C)c(C)sc2n1

>  <score_type>  (11) 
oracle

>  <origin>  (11) 
adg

>  <m_score__min__energy>  (11) 
-7.7199999999999998

>  <m_primary>  (11) 
energy

$$$$
11:0
     RDKit          3D

 57 59  0  0  0  0  0  0  0  0999 V2000
   -3.1720   17.5980  -34.0830 C   0  0  0  0  0  0  0  0  0  0  0  0
   -1.7790   18.2110  -34.2040 C   0  0  0  0  0  0  0  0  0  0  0  0
   -1.6090   19.3110  -33.2240 N   0  0  0  0  0  0  0  0  0  0  0  0
   -0.4410   19.0940  -32.3390 C   0  0  0  0  0  0  0  0  0  0  0  0
   -0.4990   19.9750  -31.0910 C   0  0  0  0  0  0  0  0  0  0  0  0
   -1.6450   20.6490  -33.8680 C   0  0  0  0  0  0  0  0  0  0  0  0
   -2.8530   21.5230  -33.4580 C   0  0  0  0  0  0  0  0  0  0  0  0
   -3.6230   20.8920  -32.3850 N   0  0  0  0  0  0  0  0  0  0  0  0
   -4.4730   21.6800  -31.5350 C   0  0  0  0  0  0  0  0  0  0  0  0
   -3.8910   22.6120  -30.6610 C   0  0  0  0  0  0  0  0  0  0  0  0
   -2.5130   22.5600  -30.3600 C   0  0  0  0  0  0  0  0  0  0  0  0
   -1.9440   23.4640  -29.4670 C   0  0  0  0  0  0  0  0  0  0  0  0
   -2.7390   24.4230  -28.8480 C   0  0  0  0  0  0  0  0  0  0  0  0
   -4.1020   24.4950  -29.1360 C   0  0  0  0  0  0  0  0  0  0  0  0
   -4.7000   23.6120  -30.0680 C   0  0  0  0  0  0  0  0  0  0  0  0
   -6.0330   23.7070  -30.4110 N   0  0  0  0  0  0  0  0  0  0  0  0
   -6.7890   24.9380  -30.0910 C   0  0  0  0  0  0  0  0  0  0  0  0
   -6.6530   22.6600  -31.0690 C   0  0  0  0  0  0  0  0  0  0  0  0
   -8.0610   22.6020  -31.1790 C   0  0  0  0  0  0  0  0  0  0  0  0
   -8.6900   21.5770  -31.8710 C   0  0  0  0  0  0  0  0  0  0  0  0
   -7.9540   20.5420  -32.4500 C   0  0  0  0  0  0  0  0  0  0  0  0
   -8.6620   19.4530  -33.0880 N   0  0  0  0  0  0  0  0  0  0  0  0
   -9.2440   18.5610  -32.0820 C   0  0  0  0  0  0  0  0  0  0  0  0
   -6.5460   20.5330  -32.3120 C   0  0  0  0  0  0  0  0  0  0  0  0
   -5.8200   19.3760  -32.7450 N   0  0  0  0  0  0  0  0  0  0  0  0
   -5.8890   18.9940  -33.9320 O   0  0  0  0  0  0  0  0  0  0  0  0
   -5.1030   18.6370  -31.8340 O   0  0  0  0  0  0  0  0  0  0  0  0
   -5.8820   21.6070  -31.6410 C   0  0  0  0  0  0  0  0  0  0  0  0
   -3.4313   17.4839  -33.0201 H   0  0  0  0  0  0  0  0  0  0  0  0
   -3.9059   18.2563  -34.5709 H   0  0  0  0  0  0  0  0  0  0  0  0
   -3.1824   16.6122  -34.5709 H   0  0  0  0  0  0  0  0  0  0  0  0
   -1.0239   17.4347  -34.0115 H   0  0  0  0  0  0  0  0  0  0  0  0
   -1.6556   18.6165  -35.2191 H   0  0  0  0  0  0  0  0  0  0  0  0
   -0.4213   18.0389  -32.0287 H   0  0  0  0  0  0  0  0  0  0  0  0
    0.4664   19.3594  -32.9014 H   0  0  0  0  0  0  0  0  0  0  0  0
   -0.4573   19.3415  -30.1927 H   0  0  0  0  0  0  0  0  0  0  0  0
    0.3555   20.6677  -31.0911 H   0  0  0  0  0  0  0  0  0  0  0  0
   -1.4369   20.5497  -31.0911 H   0  0  0  0  0  0  0  0  0  0  0  0
   -0.7241   21.1861  -33.5971 H   0  0  0  0  0  0  0  0  0  0  0  0
   -1.7369   20.4742  -34.9501 H   0  0  0  0  0  0  0  0  0  0  0  0
   -2.4871   22.5003  -33.1102 H   0  0  0  0  0  0  0  0  0  0  0  0
   -3.5088   21.6433  -34.3329 H   0  0  0  0  0  0  0  0  0  0  0  0
   -3.3730   19.9220  -32.0900 H   0  0  0  0  0  0  0  0  0  0  0  0
   -1.8811   21.7961  -30.8366 H   0  0  0  0  0  0  0  0  0  0  0  0
   -0.8663   23.4199  -29.2511 H   0  0  0  0  0  0  0  0  0  0  0  0
   -2.2919   25.1261  -28.1298 H   0  0  0  0  0  0  0  0  0  0  0  0
   -4.7225   25.2499  -28.6310 H   0  0  0  0  0  0  0  0  0  0  0  0
   -6.8590   25.0519  -28.9992 H   0  0  0  0  0  0  0  0  0  0  0  0
   -6.2697   25.8086  -30.5180 H   0  0  0  0  0  0  0  0  0  0  0  0
   -7.8004   24.8686  -30.5180 H   0  0  0  0  0  0  0  0  0  0  0  0
   -8.6708   23.3859  -30.7061 H   0  0  0  0  0  0  0  0  0  0  0  0
   -9.7860   21.5801  -31.9648 H   0  0  0  0  0  0  0  0  0  0  0  0
   -8.0330   18.9080  -33.7170 H   0  0  0  0  0  0  0  0  0  0  0  0
   -9.4330   19.8330  -33.6870 H   0  0  0  0  0  0  0  0  0  0  0  0
   -9.0005   18.9342  -31.0763 H   0  0  0  0  0  0  0  0  0  0  0  0
  -10.3364   18.5303  -32.2072 H   0  0  0  0  0  0  0  0  0  0  0  0
   -8.8320   17.5488  -32.2072 H   0  0  0  0  0  0  0  0  0  0  0  0
  1  2  1  0
  2  3  1  0
  3  4  1  0
  4  5  1  0
  3  6  1  0
  6  7  1  0
  7  8  1  0
  8  9  1  0
  9 10  2  0
 10 11  1  0
 11 12  2  0
 12 13  1  0
 13 14  2  0
 14 15  1  0
 15 16  2  0
 16 17  1  0
 16 18  1  0
 18 19  2  0
 19 20  1  0
 20 21  2  0
 21 22  1  0
 22 23  1  0
 21 24  1  0
 24 25  1  0
 25 26  2  0
 25 27  1  0
 24 28  2  0
 28  9  1  0
 15 10  1  0
 28 18  1  0
  1 29  1  0
  1 30  1  0
  1 31  1  0
  2 32  1  0
  2 33  1  0
  4 34  1  0
  4 35  1  0
  5 36  1  0
  5 37  1  0
  5 38  1  0
  6 39  1  0
  6 40  1  0
  7 41  1  0
  7 42  1  0
  8 43  1  0
 11 44  1  0
 12 45  1  0
 13 46  1  0
 14 47  1  0
 17 48  1  0
 17 49  1  0
 17 50  1  0
 19 51  1  0
 20 52  1  0
 22 53  1  0
 22 54  1  0
 23 55  1  0
 23 56  1  0
 23 57  1  0
M  CHG  4  16   1  22   1  25   1  27  -1
M  END
>  <UniqueID>  (12) 
12

>  <SMILES>  (12) 
CCN(CC)CCNc1c2ccccc2[n+](C)c2ccc([NH2+]C)c([N+](=O)[O-])c12

>  <Energy>  (12) 
99.5414666365769

>  <Genealogy>  (12) 
CCN(CC)CCNc1c2ccccc2[n+](C)c2ccc([NH2+]C)c([N+](=O)[O-])c12 (protonated)
CCN(CC)CCNc1c2ccccc2[n+](C)c2ccc([NH2+]C)c([N+](=O)[O-])c12 (3D coordinates assigned)
CCN(CC)CCNc1c2ccccc2[n+](C)c2ccc([NH2+]C)c([N+](=O)[O-])c12 (optimized conformer: 99.5414666365769 kcal/mol)

>  <smiles>  (12) 
CCN(CC)CCNc1c2ccccc2[n+](C)c2ccc(NC)c([N+](=O)[O-])c12

>  <score_type>  (12) 
oracle

>  <origin>  (12) 
adg

>  <m_score__min__energy>  (12) 
-7.8099999999999996

>  <m_primary>  (12) 
energy

$$$$
12:0
     RDKit          3D

 50 49  0  0  0  0  0  0  0  0999 V2000
   -1.2800   18.9460  -34.1990 C   0  0  0  0  0  0  0  0  0  0  0  0
   -2.5130   18.1740  -33.7560 C   0  0  0  0  0  0  0  0  0  0  0  0
   -3.5830   19.0770  -33.5700 O   0  0  0  0  0  0  0  0  0  0  0  0
   -3.1380   20.4120  -33.7200 C   0  0  0  0  0  0  0  0  0  0  0  0
   -4.0020   21.3700  -32.8980 C   0  0  0  0  0  0  0  0  0  0  0  0
   -4.9900   20.6480  -32.1820 O   0  0  0  0  0  0  0  0  0  0  0  0
   -5.8210   21.5090  -31.4260 C   0  0  0  0  0  0  0  0  0  0  0  0
   -7.2060   21.6340  -32.0680 C   0  0  0  0  0  0  0  0  0  0  0  0
   -7.3590   20.6480  -33.1440 N   0  0  0  0  0  0  0  0  0  0  0  0
   -8.6930   20.0350  -33.0910 C   0  0  0  0  0  0  0  0  0  0  0  0
   -8.8620   19.2270  -31.7990 C   0  0  0  0  0  0  0  0  0  0  0  0
   -8.0300   17.9360  -31.8200 C   0  0  0  0  0  0  0  0  0  0  0  0
   -6.6310   18.1720  -31.2270 C   0  0  0  0  0  0  0  0  0  0  0  0
   -5.5780   18.1910  -32.2590 N   0  0  0  0  0  0  0  0  0  0  0  0
   -5.4360   16.8900  -32.9390 C   0  0  0  0  0  0  0  0  0  0  0  0
   -6.0810   16.8950  -34.3380 C   0  0  0  0  0  0  0  0  0  0  0  0
   -5.5300   17.9840  -35.2700 C   0  0  0  0  0  0  0  0  0  0  0  0
   -6.0840   19.2930  -34.9310 N   0  0  0  0  0  0  0  0  0  0  0  0
   -0.7266   19.2925  -33.3137 H   0  0  0  0  0  0  0  0  0  0  0  0
   -0.6341   18.2907  -34.8019 H   0  0  0  0  0  0  0  0  0  0  0  0
   -1.5874   19.8132  -34.8019 H   0  0  0  0  0  0  0  0  0  0  0  0
   -2.7828   17.4373  -34.5271 H   0  0  0  0  0  0  0  0  0  0  0  0
   -2.3023   17.6504  -32.8119 H   0  0  0  0  0  0  0  0  0  0  0  0
   -2.0948   20.4846  -33.3787 H   0  0  0  0  0  0  0  0  0  0  0  0
   -3.2149   20.6914  -34.7812 H   0  0  0  0  0  0  0  0  0  0  0  0
   -3.3639   21.9152  -32.1869 H   0  0  0  0  0  0  0  0  0  0  0  0
   -4.4980   22.0784  -33.5778 H   0  0  0  0  0  0  0  0  0  0  0  0
   -5.9305   21.1030  -30.4095 H   0  0  0  0  0  0  0  0  0  0  0  0
   -5.3573   22.5060  -31.3935 H   0  0  0  0  0  0  0  0  0  0  0  0
   -7.9775   21.4596  -31.3035 H   0  0  0  0  0  0  0  0  0  0  0  0
   -7.3152   22.6440  -32.4898 H   0  0  0  0  0  0  0  0  0  0  0  0
   -6.6520   19.8900  -32.9890 H   0  0  0  0  0  0  0  0  0  0  0  0
   -9.4565   20.8261  -33.1256 H   0  0  0  0  0  0  0  0  0  0  0  0
   -8.8081   19.3588  -33.9510 H   0  0  0  0  0  0  0  0  0  0  0  0
   -8.5391   19.8447  -30.9480 H   0  0  0  0  0  0  0  0  0  0  0  0
   -9.9222   18.9488  -31.7062 H   0  0  0  0  0  0  0  0  0  0  0  0
   -8.5462   17.1657  -31.2282 H   0  0  0  0  0  0  0  0  0  0  0  0
   -7.9173   17.6088  -32.8641 H   0  0  0  0  0  0  0  0  0  0  0  0
   -6.6285   19.1387  -30.7021 H   0  0  0  0  0  0  0  0  0  0  0  0
   -6.4131   17.3399  -30.5413 H   0  0  0  0  0  0  0  0  0  0  0  0
   -4.6750   18.4330  -31.7880 H   0  0  0  0  0  0  0  0  0  0  0  0
   -5.7940   18.9400  -32.9580 H   0  0  0  0  0  0  0  0  0  0  0  0
   -4.3656   16.6587  -33.0426 H   0  0  0  0  0  0  0  0  0  0  0  0
   -5.9507   16.1315  -32.3309 H   0  0  0  0  0  0  0  0  0  0  0  0
   -5.9028   15.9154  -34.8057 H   0  0  0  0  0  0  0  0  0  0  0  0
   -7.1514   17.1053  -34.1968 H   0  0  0  0  0  0  0  0  0  0  0  0
   -4.4349   18.0206  -35.1725 H   0  0  0  0  0  0  0  0  0  0  0  0
   -5.8169   17.7390  -36.3033 H   0  0  0  0  0  0  0  0  0  0  0  0
   -5.6000   19.6390  -34.0710 H   0  0  0  0  0  0  0  0  0  0  0  0
   -7.0880   19.1560  -34.6740 H   0  0  0  0  0  0  0  0  0  0  0  0
  1  2  1  0
  2  3  1  0
  3  4  1  0
  4  5  1  0
  5  6  1  0
  6  7  1  0
  7  8  1  0
  8  9  1  0
  9 10  1  0
 10 11  1  0
 11 12  1  0
 12 13  1  0
 13 14  1  0
 14 15  1  0
 15 16  1  0
 16 17  1  0
 17 18  1  0
  1 19  1  0
  1 20  1  0
  1 21  1  0
  2 22  1  0
  2 23  1  0
  4 24  1  0
  4 25  1  0
  5 26  1  0
  5 27  1  0
  7 28  1  0
  7 29  1  0
  8 30  1  0
  8 31  1  0
  9 32  1  0
 10 33  1  0
 10 34  1  0
 11 35  1  0
 11 36  1  0
 12 37  1  0
 12 38  1  0
 13 39  1  0
 13 40  1  0
 14 41  1  0
 14 42  1  0
 15 43  1  0
 15 44  1  0
 16 45  1  0
 16 46  1  0
 17 47  1  0
 17 48  1  0
 18 49  1  0
 18 50  1  0
M  CHG  1  14   1
M  END
>  <UniqueID>  (13) 
13

>  <SMILES>  (13) 
CCOCCOCCNCCCC[NH2+]CCCN

>  <Energy>  (13) 
31.48630631714291

>  <Genealogy>  (13) 
CCOCCOCCNCCCC[NH2+]CCCN (protonated)
CCOCCOCCNCCCC[NH2+]CCCN (3D coordinates assigned)
CCOCCOCCNCCCC[NH2+]CCCN (optimized conformer: 31.48630631714291 kcal/mol)

>  <smiles>  (13) 
CCOCCOCCNCCCCNCCCN

>  <score_type>  (13) 
oracle

>  <origin>  (13) 
adg

>  <m_score__min__energy>  (13) 
-3.6099999999999999

>  <m_primary>  (13) 
energy

$$$$
13:0
     RDKit          3D

 54 56  0  0  0  0  0  0  0  0999 V2000
   -6.8740   23.2420  -30.0350 C   0  0  0  0  0  0  0  0  0  0  0  0
   -7.0160   23.7730  -31.4530 C   0  0  0  0  0  0  0  0  0  0  0  0
   -7.1550   22.6860  -32.3490 O   0  0  0  0  0  0  0  0  0  0  0  0
   -7.0730   21.4520  -31.6580 C   0  0  0  0  0  0  0  0  0  0  0  0
   -8.3620   20.6550  -31.8900 C   0  0  0  0  0  0  0  0  0  0  0  0
   -8.1270   19.4760  -32.7550 N   0  0  0  0  0  0  0  0  0  0  0  0
   -8.1740   18.2080  -31.9800 C   0  0  0  0  0  0  0  0  0  0  0  0
   -6.7760   17.6350  -31.7120 C   0  0  0  0  0  0  0  0  0  0  0  0
   -6.0820   17.3060  -32.9790 N   0  0  0  0  0  0  0  0  0  0  0  0
   -4.6310   17.1400  -32.7480 C   0  0  0  0  0  0  0  0  0  0  0  0
   -3.8770   17.0480  -34.0830 C   0  0  0  0  0  0  0  0  0  0  0  0
   -3.0520   18.1980  -34.2750 O   0  0  0  0  0  0  0  0  0  0  0  0
   -3.0350   19.3410  -33.4580 C   0  0  0  0  0  0  0  0  0  0  0  0
   -3.8690   20.4520  -33.6820 C   0  0  0  0  0  0  0  0  0  0  0  0
   -3.8220   21.5600  -32.8290 C   0  0  0  0  0  0  0  0  0  0  0  0
   -4.6160   22.6280  -33.1040 F   0  0  0  0  0  0  0  0  0  0  0  0
   -2.9420   21.5740  -31.7290 C   0  0  0  0  0  0  0  0  0  0  0  0
   -2.8620   22.7340  -30.8100 C   0  0  0  0  0  0  0  0  0  0  0  0
   -1.7880   22.8940  -29.9210 C   0  0  0  0  0  0  0  0  0  0  0  0
   -1.7690   24.0150  -29.0900 C   0  0  0  0  0  0  0  0  0  0  0  0
   -2.7710   24.9280  -29.1590 N   0  0  0  0  0  0  0  0  0  0  0  0
   -3.7980   24.7700  -30.0330 C   0  0  0  0  0  0  0  0  0  0  0  0
   -3.8350   23.6850  -30.8500 N   0  0  0  0  0  0  0  0  0  0  0  0
   -2.1010   20.4690  -31.5190 C   0  0  0  0  0  0  0  0  0  0  0  0
   -2.1530   19.3610  -32.3710 C   0  0  0  0  0  0  0  0  0  0  0  0
   -1.3520   18.2940  -32.1330 F   0  0  0  0  0  0  0  0  0  0  0  0
   -6.3740   18.2710  -34.0730 C   0  0  0  0  0  0  0  0  0  0  0  0
   -6.8810   19.6250  -33.5520 C   0  0  0  0  0  0  0  0  0  0  0  0
   -7.0896   24.0481  -29.3183 H   0  0  0  0  0  0  0  0  0  0  0  0
   -7.5825   22.4149  -29.8805 H   0  0  0  0  0  0  0  0  0  0  0  0
   -5.8472   22.8789  -29.8805 H   0  0  0  0  0  0  0  0  0  0  0  0
   -7.9053   24.4173  -31.5165 H   0  0  0  0  0  0  0  0  0  0  0  0
   -6.1224   24.3568  -31.7185 H   0  0  0  0  0  0  0  0  0  0  0  0
   -6.2132   20.8774  -32.0328 H   0  0  0  0  0  0  0  0  0  0  0  0
   -6.9445   21.6400  -30.5818 H   0  0  0  0  0  0  0  0  0  0  0  0
   -8.7499   20.3135  -30.9190 H   0  0  0  0  0  0  0  0  0  0  0  0
   -9.0862   21.3120  -32.3939 H   0  0  0  0  0  0  0  0  0  0  0  0
   -8.6676   18.4010  -31.0161 H   0  0  0  0  0  0  0  0  0  0  0  0
   -8.7305   17.4703  -32.5767 H   0  0  0  0  0  0  0  0  0  0  0  0
   -6.1827   18.3789  -31.1602 H   0  0  0  0  0  0  0  0  0  0  0  0
   -6.8839   16.7122  -31.1231 H   0  0  0  0  0  0  0  0  0  0  0  0
   -4.2546   18.0030  -32.1792 H   0  0  0  0  0  0  0  0  0  0  0  0
   -4.4663   16.2104  -32.1834 H   0  0  0  0  0  0  0  0  0  0  0  0
   -3.2461   16.1469  -34.0804 H   0  0  0  0  0  0  0  0  0  0  0  0
   -4.6102   16.9970  -34.9014 H   0  0  0  0  0  0  0  0  0  0  0  0
   -4.5637   20.4493  -34.5349 H   0  0  0  0  0  0  0  0  0  0  0  0
   -0.9778   22.1511  -29.8800 H   0  0  0  0  0  0  0  0  0  0  0  0
   -0.9420   24.1587  -28.3791 H   0  0  0  0  0  0  0  0  0  0  0  0
   -4.6005   25.5208  -30.0797 H   0  0  0  0  0  0  0  0  0  0  0  0
   -1.3943   20.4750  -30.6760 H   0  0  0  0  0  0  0  0  0  0  0  0
   -5.4521   18.4388  -34.6492 H   0  0  0  0  0  0  0  0  0  0  0  0
   -7.1700   17.8360  -34.6952 H   0  0  0  0  0  0  0  0  0  0  0  0
   -6.1040   20.0765  -32.9177 H   0  0  0  0  0  0  0  0  0  0  0  0
   -7.1030   20.2646  -34.4190 H   0  0  0  0  0  0  0  0  0  0  0  0
  1  2  1  0
  2  3  1  0
  3  4  1  0
  4  5  1  0
  5  6  1  0
  6  7  1  0
  7  8  1  0
  8  9  1  0
  9 10  1  0
 10 11  1  0
 11 12  1  0
 12 13  1  0
 13 14  2  0
 14 15  1  0
 15 16  1  0
 15 17  2  0
 17 18  1  0
 18 19  2  0
 19 20  1  0
 20 21  2  0
 21 22  1  0
 22 23  2  0
 17 24  1  0
 24 25  2  0
 25 26  1  0
  9 27  1  0
 27 28  1  0
 28  6  1  0
 25 13  1  0
 23 18  1  0
  1 29  1  0
  1 30  1  0
  1 31  1  0
  2 32  1  0
  2 33  1  0
  4 34  1  0
  4 35  1  0
  5 36  1  0
  5 37  1  0
  7 38  1  0
  7 39  1  0
  8 40  1  0
  8 41  1  0
 10 42  1  0
 10 43  1  0
 11 44  1  0
 11 45  1  0
 14 46  1  0
 19 47  1  0
 20 48  1  0
 22 49  1  0
 24 50  1  0
 27 51  1  0
 27 52  1  0
 28 53  1  0
 28 54  1  0
M  END
>  <UniqueID>  (14) 
14

>  <SMILES>  (14) 
CCOCCN1CCN(CCOc2cc(F)c(-c3ccncn3)cc2F)CC1

>  <Energy>  (14) 
72.91019881901643

>  <Genealogy>  (14) 
CCOCCN1CCN(CCOc2cc(F)c(-c3ccncn3)cc2F)CC1 (3D coordinates assigned)
CCOCCN1CCN(CCOc2cc(F)c(-c3ccncn3)cc2F)CC1 (nonaromatic ring conformer: 72.91019881901643 kcal/mol)

>  <smiles>  (14) 
CCOCCN1CCN(CCOc2cc(F)c(-c3ccncn3)cc2F)CC1

>  <score_type>  (14) 
oracle

>  <origin>  (14) 
adg

>  <m_score__min__energy>  (14) 
-8.3800000000000008

>  <m_primary>  (14) 
energy

$$$$
14:0
     RDKit          3D

 46 49  0  0  0  0  0  0  0  0999 V2000
   -5.7150   17.7770  -34.6610 C   0  0  0  0  0  0  0  0  0  0  0  0
   -5.8580   19.2310  -34.2160 C   0  0  0  0  0  0  0  0  0  0  0  0
   -6.6730   19.3410  -32.9290 C   0  0  0  0  0  0  0  0  0  0  0  0
   -7.2570   18.1460  -32.4690 C   0  0  0  0  0  0  0  0  0  0  0  0
   -8.3300   18.1820  -31.5940 C   0  0  0  0  0  0  0  0  0  0  0  0
   -8.8720   19.4030  -31.2290 C   0  0  0  0  0  0  0  0  0  0  0  0
   -8.2630   20.5890  -31.6570 C   0  0  0  0  0  0  0  0  0  0  0  0
   -8.8770   21.8090  -31.3440 C   0  0  0  0  0  0  0  0  0  0  0  0
   -8.2900   22.9950  -31.7500 C   0  0  0  0  0  0  0  0  0  0  0  0
   -7.0370   22.9700  -32.3420 C   0  0  0  0  0  0  0  0  0  0  0  0
   -6.3790   21.7420  -32.5500 C   0  0  0  0  0  0  0  0  0  0  0  0
   -4.8720   21.7670  -32.7640 C   0  0  0  0  0  0  0  0  0  0  0  0
   -4.0890   22.1250  -31.5100 C   0  0  0  0  0  0  0  0  0  0  0  0
   -4.6910   22.9880  -30.5790 C   0  0  0  0  0  0  0  0  0  0  0  0
   -4.0210   23.3250  -29.4020 C   0  0  0  0  0  0  0  0  0  0  0  0
   -4.6070   24.1850  -28.4590 C   0  0  0  0  0  0  0  0  0  0  0  0
   -3.9200   24.5100  -27.2850 C   0  0  0  0  0  0  0  0  0  0  0  0
   -2.6490   23.9810  -27.0460 C   0  0  0  0  0  0  0  0  0  0  0  0
   -2.0580   23.1240  -27.9780 C   0  0  0  0  0  0  0  0  0  0  0  0
   -2.7400   22.7910  -29.1590 C   0  0  0  0  0  0  0  0  0  0  0  0
   -2.1690   21.9330  -30.1060 C   0  0  0  0  0  0  0  0  0  0  0  0
   -2.8370   21.6050  -31.2560 N   0  0  0  0  0  0  0  0  0  0  0  0
   -2.1770   20.7010  -32.2130 C   0  0  0  0  0  0  0  0  0  0  0  0
   -7.0840   20.5550  -32.3880 N   0  0  0  0  0  0  0  0  0  0  0  0
   -5.6511   17.1272  -33.7757 H   0  0  0  0  0  0  0  0  0  0  0  0
   -6.5893   17.4904  -35.2639 H   0  0  0  0  0  0  0  0  0  0  0  0
   -4.8016   17.6662  -35.2639 H   0  0  0  0  0  0  0  0  0  0  0  0
   -4.8569   19.6527  -34.0431 H   0  0  0  0  0  0  0  0  0  0  0  0
   -6.3832   19.7858  -35.0075 H   0  0  0  0  0  0  0  0  0  0  0  0
   -6.8589   17.1777  -32.8064 H   0  0  0  0  0  0  0  0  0  0  0  0
   -8.7486   17.2476  -31.1919 H   0  0  0  0  0  0  0  0  0  0  0  0
   -9.7773   19.4410  -30.6053 H   0  0  0  0  0  0  0  0  0  0  0  0
   -9.8205   21.8242  -30.7786 H   0  0  0  0  0  0  0  0  0  0  0  0
   -8.8144   23.9509  -31.6038 H   0  0  0  0  0  0  0  0  0  0  0  0
   -6.5559   23.9101  -32.6497 H   0  0  0  0  0  0  0  0  0  0  0  0
   -4.5514   20.7707  -33.1025 H   0  0  0  0  0  0  0  0  0  0  0  0
   -4.6632   22.5473  -33.5107 H   0  0  0  0  0  0  0  0  0  0  0  0
   -5.6919   23.3987  -30.7781 H   0  0  0  0  0  0  0  0  0  0  0  0
   -5.6074   24.6034  -28.6440 H   0  0  0  0  0  0  0  0  0  0  0  0
   -4.3814   25.1837  -26.5479 H   0  0  0  0  0  0  0  0  0  0  0  0
   -2.1121   24.2400  -26.1215 H   0  0  0  0  0  0  0  0  0  0  0  0
   -1.0572   22.7098  -27.7861 H   0  0  0  0  0  0  0  0  0  0  0  0
   -1.1678   21.5154  -29.9238 H   0  0  0  0  0  0  0  0  0  0  0  0
   -1.6153   19.9316  -31.6630 H   0  0  0  0  0  0  0  0  0  0  0  0
   -2.9368   20.2185  -32.8454 H   0  0  0  0  0  0  0  0  0  0  0  0
   -1.4860   21.2777  -32.8454 H   0  0  0  0  0  0  0  0  0  0  0  0
  1  2  1  0
  2  3  1  0
  3  4  2  0
  4  5  1  0
  5  6  2  0
  6  7  1  0
  7  8  2  0
  8  9  1  0
  9 10  2  0
 10 11  1  0
 11 12  1  0
 12 13  1  0
 13 14  2  0
 14 15  1  0
 15 16  2  0
 16 17  1  0
 17 18  2  0
 18 19  1  0
 19 20  2  0
 20 21  1  0
 21 22  2  0
 22 23  1  0
 11 24  2  0
 24  3  1  0
 24  7  1  0
 22 13  1  0
 20 15  1  0
  1 25  1  0
  1 26  1  0
  1 27  1  0
  2 28  1  0
  2 29  1  0
  4 30  1  0
  5 31  1  0
  6 32  1  0
  8 33  1  0
  9 34  1  0
 10 35  1  0
 12 36  1  0
 12 37  1  0
 14 38  1  0
 16 39  1  0
 17 40  1  0
 18 41  1  0
 19 42  1  0
 21 43  1  0
 23 44  1  0
 23 45  1  0
 23 46  1  0
M  CHG  2  22   1  24   1
M  END
>  <UniqueID>  (15) 
15

>  <SMILES>  (15) 
CCc1cccc2cccc(Cc3cc4ccccc4c[n+]3C)[n+]12

>  <Energy>  (15) 
80.29628168177672

>  <Genealogy>  (15) 
CCc1cccc2cccc(Cc3cc4ccccc4c[n+]3C)[n+]12 (3D coordinates assigned)
CCc1cccc2cccc(Cc3cc4ccccc4c[n+]3C)[n+]12 (optimized conformer: 80.29628168177672 kcal/mol)

>  <smiles>  (15) 
CCc1cccc2cccc(Cc3cc4ccccc4c[n+]3C)[n+]12

>  <score_type>  (15) 
oracle

>  <origin>  (15) 
adg

>  <m_score__min__energy>  (15) 
-7.6600000000000001

>  <m_primary>  (15) 
energy

$$$$
15:0
     RDKit          3D

 60 62  0  0  0  0  0  0  0  0999 V2000
   -6.8550   25.2910  -29.7200 C   0  0  0  0  0  0  0  0  0  0  0  0
   -5.3950   25.2840  -30.1720 C   0  0  0  0  0  0  0  0  0  0  0  0
   -4.4950   24.4990  -29.2050 C   0  0  0  0  0  0  0  0  0  0  0  0
   -3.1000   24.3880  -29.6940 N   0  0  0  0  0  0  0  0  0  0  0  0
   -2.1160   24.8310  -28.6840 C   0  0  0  0  0  0  0  0  0  0  0  0
   -2.4420   24.2040  -27.3260 C   0  0  0  0  0  0  0  0  0  0  0  0
   -2.7310   25.2780  -26.2810 C   0  0  0  0  0  0  0  0  0  0  0  0
   -2.7460   23.1080  -30.3670 C   0  0  0  0  0  0  0  0  0  0  0  0
   -3.8990   22.3700  -31.0930 C   0  0  0  0  0  0  0  0  0  0  0  0
   -3.5160   21.6710  -32.4090 C   0  0  0  0  0  0  0  0  0  0  0  0
   -4.5790   21.7800  -33.4240 N   0  0  0  0  0  0  0  0  0  0  0  0
   -5.7080   20.9370  -33.0750 C   0  0  0  0  0  0  0  0  0  0  0  0
   -6.8590   21.4990  -32.5060 C   0  0  0  0  0  0  0  0  0  0  0  0
   -7.9280   20.7210  -32.1430 C   0  0  0  0  0  0  0  0  0  0  0  0
   -7.9360   19.3610  -32.3240 N   0  0  0  0  0  0  0  0  0  0  0  0
   -9.1060   18.5660  -31.9010 C   0  0  0  0  0  0  0  0  0  0  0  0
   -6.8460   18.7550  -32.9240 C   0  0  0  0  0  0  0  0  0  0  0  0
   -6.8260   17.3600  -33.1760 C   0  0  0  0  0  0  0  0  0  0  0  0
   -5.7310   16.7560  -33.7890 C   0  0  0  0  0  0  0  0  0  0  0  0
   -4.6350   17.5160  -34.1740 C   0  0  0  0  0  0  0  0  0  0  0  0
   -4.6190   18.8910  -33.9460 C   0  0  0  0  0  0  0  0  0  0  0  0
   -5.7090   19.5350  -33.3170 C   0  0  0  0  0  0  0  0  0  0  0  0
   -9.0260   21.5420  -31.5530 C   0  0  0  0  0  0  0  0  0  0  0  0
   -8.5180   22.9870  -31.6300 C   0  0  0  0  0  0  0  0  0  0  0  0
   -7.1050   22.9410  -32.2260 C   0  0  0  0  0  0  0  0  0  0  0  0
   -6.8986   25.2912  -28.6209 H   0  0  0  0  0  0  0  0  0  0  0  0
   -7.3543   26.1915  -30.1069 H   0  0  0  0  0  0  0  0  0  0  0  0
   -7.3629   24.3953  -30.1069 H   0  0  0  0  0  0  0  0  0  0  0  0
   -5.3342   24.8213  -31.1681 H   0  0  0  0  0  0  0  0  0  0  0  0
   -5.0419   26.3255  -30.1939 H   0  0  0  0  0  0  0  0  0  0  0  0
   -4.4884   25.0132  -28.2326 H   0  0  0  0  0  0  0  0  0  0  0  0
   -4.9023   23.4807  -29.1203 H   0  0  0  0  0  0  0  0  0  0  0  0
   -1.1081   24.5201  -28.9963 H   0  0  0  0  0  0  0  0  0  0  0  0
   -2.1575   25.9266  -28.5954 H   0  0  0  0  0  0  0  0  0  0  0  0
   -3.3260   23.5579  -27.4314 H   0  0  0  0  0  0  0  0  0  0  0  0
   -1.5726   23.6178  -26.9937 H   0  0  0  0  0  0  0  0  0  0  0  0
   -2.6159   24.8503  -25.2741 H   0  0  0  0  0  0  0  0  0  0  0  0
   -2.0254   26.1123  -26.4078 H   0  0  0  0  0  0  0  0  0  0  0  0
   -3.7600   25.6455  -26.4078 H   0  0  0  0  0  0  0  0  0  0  0  0
   -1.9665   23.3259  -31.1119 H   0  0  0  0  0  0  0  0  0  0  0  0
   -2.4281   22.4315  -29.5600 H   0  0  0  0  0  0  0  0  0  0  0  0
   -4.2969   21.6070  -30.4078 H   0  0  0  0  0  0  0  0  0  0  0  0
   -4.6288   23.1465  -31.3659 H   0  0  0  0  0  0  0  0  0  0  0  0
   -2.5999   22.1348  -32.8035 H   0  0  0  0  0  0  0  0  0  0  0  0
   -3.3616   20.6035  -32.1933 H   0  0  0  0  0  0  0  0  0  0  0  0
   -4.2000   21.5010  -34.3540 H   0  0  0  0  0  0  0  0  0  0  0  0
   -4.8910   22.7700  -33.5440 H   0  0  0  0  0  0  0  0  0  0  0  0
   -9.1508   18.5356  -30.8023 H   0  0  0  0  0  0  0  0  0  0  0  0
  -10.0242   19.0279  -32.2928 H   0  0  0  0  0  0  0  0  0  0  0  0
   -9.0147   17.5422  -32.2928 H   0  0  0  0  0  0  0  0  0  0  0  0
   -7.6893   16.7447  -32.8826 H   0  0  0  0  0  0  0  0  0  0  0  0
   -5.7346   15.6708  -33.9691 H   0  0  0  0  0  0  0  0  0  0  0  0
   -3.7759   17.0313  -34.6608 H   0  0  0  0  0  0  0  0  0  0  0  0
   -3.7465   19.4829  -34.2597 H   0  0  0  0  0  0  0  0  0  0  0  0
   -9.9526   21.4253  -32.1343 H   0  0  0  0  0  0  0  0  0  0  0  0
   -9.2636   21.2393  -30.5225 H   0  0  0  0  0  0  0  0  0  0  0  0
   -9.1793   23.5850  -32.2743 H   0  0  0  0  0  0  0  0  0  0  0  0
   -8.5056   23.4498  -30.6322 H   0  0  0  0  0  0  0  0  0  0  0  0
   -7.0560   23.5301  -33.1537 H   0  0  0  0  0  0  0  0  0  0  0  0
   -6.3526   23.3670  -31.5460 H   0  0  0  0  0  0  0  0  0  0  0  0
  1  2  1  0
  2  3  1  0
  3  4  1  0
  4  5  1  0
  5  6  1  0
  6  7  1  0
  4  8  1  0
  8  9  1  0
  9 10  1  0
 10 11  1  0
 11 12  1  0
 12 13  2  0
 13 14  1  0
 14 15  2  0
 15 16  1  0
 15 17  1  0
 17 18  2  0
 18 19  1  0
 19 20  2  0
 20 21  1  0
 21 22  2  0
 14 23  1  0
 23 24  1  0
 24 25  1  0
 22 12  1  0
 25 13  1  0
 22 17  1  0
  1 26  1  0
  1 27  1  0
  1 28  1  0
  2 29  1  0
  2 30  1  0
  3 31  1  0
  3 32  1  0
  5 33  1  0
  5 34  1  0
  6 35  1  0
  6 36  1  0
  7 37  1  0
  7 38  1  0
  7 39  1  0
  8 40  1  0
  8 41  1  0
  9 42  1  0
  9 43  1  0
 10 44  1  0
 10 45  1  0
 11 46  1  0
 11 47  1  0
 16 48  1  0
 16 49  1  0
 16 50  1  0
 18 51  1  0
 19 52  1  0
 20 53  1  0
 21 54  1  0
 23 55  1  0
 23 56  1  0
 24 57  1  0
 24 58  1  0
 25 59  1  0
 25 60  1  0
M  CHG  2  11   1  15   1
M  END
>  <UniqueID>  (16) 
16

>  <SMILES>  (16) 
CCCN(CCC)CCC[NH2+]c1c2c([n+](C)c3ccccc13)CCC2

>  <Energy>  (16) 
77.24203543511418

>  <Genealogy>  (16) 
CCCN(CCC)CCC[NH2+]c1c2c([n+](C)c3ccccc13)CCC2 (protonated)
CCCN(CCC)CCC[NH2+]c1c2c([n+](C)c3ccccc13)CCC2 (3D coordinates assigned)
CCCN(CCC)CCC[NH2+]c1c2c([n+](C)c3ccccc13)CCC2 (nonaromatic ring conformer: 77.24203543511418 kcal/mol)

>  <smiles>  (16) 
CCCN(CCC)CCCNc1c2c([n+](C)c3ccccc13)CCC2

>  <score_type>  (16) 
oracle

>  <origin>  (16) 
adg

>  <m_score__min__energy>  (16) 
-8.1899999999999995

>  <m_primary>  (16) 
energy

$$$$
16:0
     RDKit          3D

 44 47  0  0  0  0  0  0  0  0999 V2000
   -5.2609   19.4363  -31.5347 H   0  0  0  0  0  0  0  0  0  0  0  0
   -6.2960   19.7520  -31.7320 C   0  0  0  0  0  0  0  0  0  0  0  0
   -6.8110   20.9730  -31.6360 C   0  0  0  0  0  0  0  0  0  0  0  0
   -8.1550   20.9310  -31.9790 C   0  0  0  0  0  0  0  0  0  0  0  0
   -8.9450   22.0780  -31.9660 C   0  0  0  0  0  0  0  0  0  0  0  0
  -10.0083   22.0298  -32.2435 H   0  0  0  0  0  0  0  0  0  0  0  0
   -8.3580   23.2960  -31.5920 C   0  0  0  0  0  0  0  0  0  0  0  0
   -8.9671   24.2118  -31.5743 H   0  0  0  0  0  0  0  0  0  0  0  0
   -6.9920   23.3570  -31.2380 C   0  0  0  0  0  0  0  0  0  0  0  0
   -6.4120   24.5790  -30.8640 C   0  0  0  0  0  0  0  0  0  0  0  0
   -7.0245   25.4925  -30.8432 H   0  0  0  0  0  0  0  0  0  0  0  0
   -5.0600   24.6400  -30.5180 C   0  0  0  0  0  0  0  0  0  0  0  0
   -4.6119   25.6013  -30.2263 H   0  0  0  0  0  0  0  0  0  0  0  0
   -4.2750   23.4850  -30.5410 C   0  0  0  0  0  0  0  0  0  0  0  0
   -3.2107   23.5415  -30.2687 H   0  0  0  0  0  0  0  0  0  0  0  0
   -4.8340   22.2580  -30.9080 C   0  0  0  0  0  0  0  0  0  0  0  0
   -4.2095   21.3526  -30.9214 H   0  0  0  0  0  0  0  0  0  0  0  0
   -6.1920   22.1780  -31.2600 C   0  0  0  0  0  0  0  0  0  0  0  0
   -8.5750   19.7510  -32.3020 N   0  0  0  0  0  0  0  0  0  0  0  0
   -7.4190   18.9280  -32.1590 C   0  0  0  0  0  0  0  0  0  0  0  0
   -7.3660   17.6240  -32.4380 C   0  0  0  0  0  0  0  0  0  0  0  0
   -8.2090   16.9806  -32.1459 H   0  0  0  0  0  0  0  0  0  0  0  0
   -6.2410   17.0370  -33.1080 N   0  0  0  0  0  0  0  0  0  0  0  0
   -5.3530   16.1580  -32.3490 C   0  0  0  0  0  0  0  0  0  0  0  0
   -5.8912   15.2332  -32.0941 H   0  0  0  0  0  0  0  0  0  0  0  0
   -5.0364   16.6789  -31.4333 H   0  0  0  0  0  0  0  0  0  0  0  0
   -4.1050   15.8050  -33.1750 C   0  0  0  0  0  0  0  0  0  0  0  0
   -4.3501   14.9744  -33.8533 H   0  0  0  0  0  0  0  0  0  0  0  0
   -3.3022   15.5224  -32.4781 H   0  0  0  0  0  0  0  0  0  0  0  0
   -3.6330   16.9580  -33.9790 N   0  0  0  0  0  0  0  0  0  0  0  0
   -2.8030   16.6110  -34.5160 H   0  0  0  0  0  0  0  0  0  0  0  0
   -3.1790   18.0740  -33.1070 C   0  0  0  0  0  0  0  0  0  0  0  0
   -2.0896   17.9990  -32.9744 H   0  0  0  0  0  0  0  0  0  0  0  0
   -3.7069   17.9870  -32.1459 H   0  0  0  0  0  0  0  0  0  0  0  0
   -3.5100   19.4470  -33.7020 C   0  0  0  0  0  0  0  0  0  0  0  0
   -3.6836   20.1669  -32.8886 H   0  0  0  0  0  0  0  0  0  0  0  0
   -2.6689   19.7903  -34.3222 H   0  0  0  0  0  0  0  0  0  0  0  0
   -4.4151   19.3693  -34.3222 H   0  0  0  0  0  0  0  0  0  0  0  0
   -4.6570   17.4030  -34.9720 C   0  0  0  0  0  0  0  0  0  0  0  0
   -4.4468   16.9064  -35.9307 H   0  0  0  0  0  0  0  0  0  0  0  0
   -4.5820   18.4986  -35.0348 H   0  0  0  0  0  0  0  0  0  0  0  0
   -6.1100   17.0800  -34.5680 C   0  0  0  0  0  0  0  0  0  0  0  0
   -6.3928   16.1024  -34.9855 H   0  0  0  0  0  0  0  0  0  0  0  0
   -6.7711   17.8665  -34.9609 H   0  0  0  0  0  0  0  0  0  0  0  0
  1  2  1  0
  2  3  2  0
  3  4  1  0
  4  5  1  0
  5  6  1  0
  5  7  2  0
  7  8  1  0
  7  9  1  0
  9 10  2  0
 10 11  1  0
 10 12  1  0
 12 13  1  0
 12 14  2  0
 14 15  1  0
 14 16  1  0
 16 17  1  0
 16 18  2  0
  4 19  2  0
 19 20  1  0
 20 21  2  0
 21 22  1  0
 21 23  1  0
 23 24  1  0
 24 25  1  0
 24 26  1  0
 24 27  1  0
 27 28  1  0
 27 29  1  0
 27 30  1  0
 30 31  1  0
 30 32  1  0
 32 33  1  0
 32 34  1  0
 32 35  1  0
 35 36  1  0
 35 37  1  0
 35 38  1  0
 30 39  1  0
 39 40  1  0
 39 41  1  0
 39 42  1  0
 42 43  1  0
 42 44  1  0
 20  2  1  0
 42 23  1  0
 18  3  1  0
 18  9  1  0
M  CHG  1  30   1
M  END
>  <UniqueID>  (17) 
17

>  <SMILES>  (17) 
CC[NH+]1CCN(/C=C2/C=c3c(ccc4ccccc34)=N2)CC1

>  <Energy>  (17) 
90.95575527649406

>  <Genealogy>  (17) 
CC[NH+]1CCN(C=C2C=c3c(ccc4ccccc34)=N2)CC1 (protonated)
CC[NH+]1CCN(/C=C2/C=c3c(ccc4ccccc34)=N2)CC1 (cis-trans isomerization)
CC[NH+]1CCN(/C=C2/C=c3c(ccc4ccccc34)=N2)CC1 (3D coordinates assigned)
CC[NH+]1CCN(/C=C2/C=c3c(ccc4ccccc34)=N2)CC1 (nonaromatic ring conformer: 90.95575527649406 kcal/mol)

>  <smiles>  (17) 
CCN1CCN(C=C2C=c3c(ccc4ccccc34)=N2)CC1

>  <score_type>  (17) 
oracle

>  <origin>  (17) 
adg

>  <m_score__min__energy>  (17) 
-7.46

>  <m_primary>  (17) 
energy

$$$$
17:0
     RDKit          3D

 50 53  0  0  0  0  0  0  0  0999 V2000
   -6.7790   25.1370  -29.7300 C   0  0  0  0  0  0  0  0  0  0  0  0
   -5.5320   25.6730  -30.4510 C   0  0  0  0  0  0  0  0  0  0  0  0
   -4.5580   24.6290  -30.8470 N   0  0  0  0  0  0  0  0  0  0  0  0
   -3.5920   24.3070  -29.7840 C   0  0  0  0  0  0  0  0  0  0  0  0
   -5.1860   23.4180  -31.4190 C   0  0  0  0  0  0  0  0  0  0  0  0
   -4.1300   22.3360  -31.6710 C   0  0  0  0  0  0  0  0  0  0  0  0
   -4.2210   21.8130  -33.0340 N   0  0  0  0  0  0  0  0  0  0  0  0
   -4.0450   20.4160  -33.2810 C   0  0  0  0  0  0  0  0  0  0  0  0
   -2.8210   19.9000  -33.7600 C   0  0  0  0  0  0  0  0  0  0  0  0
   -1.7460   20.7630  -34.0480 C   0  0  0  0  0  0  0  0  0  0  0  0
   -0.5480   20.2600  -34.5510 C   0  0  0  0  0  0  0  0  0  0  0  0
   -0.4050   18.8970  -34.7870 C   0  0  0  0  0  0  0  0  0  0  0  0
   -1.4530   18.0170  -34.5090 C   0  0  0  0  0  0  0  0  0  0  0  0
   -2.6760   18.4870  -33.9720 C   0  0  0  0  0  0  0  0  0  0  0  0
   -3.7190   17.6220  -33.6670 N   0  0  0  0  0  0  0  0  0  0  0  0
   -3.5600   16.1600  -33.7820 C   0  0  0  0  0  0  0  0  0  0  0  0
   -4.9160   18.1610  -33.2710 C   0  0  0  0  0  0  0  0  0  0  0  0
   -6.0700   17.4860  -33.0360 N   0  0  0  0  0  0  0  0  0  0  0  0
   -6.9630   18.4330  -32.6820 C   0  0  0  0  0  0  0  0  0  0  0  0
   -8.3050   18.2350  -32.3550 C   0  0  0  0  0  0  0  0  0  0  0  0
   -9.0800   19.3610  -32.0320 C   0  0  0  0  0  0  0  0  0  0  0  0
   -8.5090   20.6530  -32.0510 C   0  0  0  0  0  0  0  0  0  0  0  0
   -9.4960   22.0480  -31.6570 Cl  0  0  0  0  0  0  0  0  0  0  0  0
   -7.1550   20.8280  -32.3900 C   0  0  0  0  0  0  0  0  0  0  0  0
   -6.4020   19.6910  -32.6930 C   0  0  0  0  0  0  0  0  0  0  0  0
   -5.0850   19.5160  -33.0750 C   0  0  0  0  0  0  0  0  0  0  0  0
   -6.6295   25.2013  -28.6421 H   0  0  0  0  0  0  0  0  0  0  0  0
   -7.6547   25.7382  -30.0159 H   0  0  0  0  0  0  0  0  0  0  0  0
   -6.9453   24.0879  -30.0159 H   0  0  0  0  0  0  0  0  0  0  0  0
   -5.8596   26.2001  -31.3592 H   0  0  0  0  0  0  0  0  0  0  0  0
   -5.0146   26.3304  -29.7368 H   0  0  0  0  0  0  0  0  0  0  0  0
   -4.0619   24.4636  -28.8018 H   0  0  0  0  0  0  0  0  0  0  0  0
   -3.2801   23.2563  -29.8779 H   0  0  0  0  0  0  0  0  0  0  0  0
   -2.7121   24.9604  -29.8779 H   0  0  0  0  0  0  0  0  0  0  0  0
   -5.9384   23.0330  -30.7149 H   0  0  0  0  0  0  0  0  0  0  0  0
   -5.6622   23.6810  -32.3751 H   0  0  0  0  0  0  0  0  0  0  0  0
   -3.1301   22.7686  -31.5190 H   0  0  0  0  0  0  0  0  0  0  0  0
   -4.3062   21.5081  -30.9685 H   0  0  0  0  0  0  0  0  0  0  0  0
   -4.3590   22.4510  -33.8500 H   0  0  0  0  0  0  0  0  0  0  0  0
   -1.8531   21.8439  -33.8743 H   0  0  0  0  0  0  0  0  0  0  0  0
    0.2877   20.9434  -34.7622 H   0  0  0  0  0  0  0  0  0  0  0  0
    0.5400   18.5095  -35.1954 H   0  0  0  0  0  0  0  0  0  0  0  0
   -1.3266   16.9430  -34.7101 H   0  0  0  0  0  0  0  0  0  0  0  0
   -3.5117   15.7162  -32.7767 H   0  0  0  0  0  0  0  0  0  0  0  0
   -4.4177   15.7397  -34.3276 H   0  0  0  0  0  0  0  0  0  0  0  0
   -2.6320   15.9339  -34.3276 H   0  0  0  0  0  0  0  0  0  0  0  0
   -6.2730   16.4680  -33.1360 H   0  0  0  0  0  0  0  0  0  0  0  0
   -8.7434   17.2261  -32.3503 H   0  0  0  0  0  0  0  0  0  0  0  0
  -10.1391   19.2359  -31.7623 H   0  0  0  0  0  0  0  0  0  0  0  0
   -6.7026   21.8303  -32.4157 H   0  0  0  0  0  0  0  0  0  0  0  0
  1  2  1  0
  2  3  1  0
  3  4  1  0
  3  5  1  0
  5  6  1  0
  6  7  1  0
  7  8  1  0
  8  9  2  0
  9 10  1  0
 10 11  2  0
 11 12  1  0
 12 13  2  0
 13 14  1  0
 14 15  2  0
 15 16  1  0
 15 17  1  0
 17 18  1  0
 18 19  1  0
 19 20  2  0
 20 21  1  0
 21 22  2  0
 22 23  1  0
 22 24  1  0
 24 25  2  0
 25 26  1  0
 26  8  1  0
 14  9  1  0
 26 17  2  0
 25 19  1  0
  1 27  1  0
  1 28  1  0
  1 29  1  0
  2 30  1  0
  2 31  1  0
  4 32  1  0
  4 33  1  0
  4 34  1  0
  5 35  1  0
  5 36  1  0
  6 37  1  0
  6 38  1  0
  7 39  1  0
 10 40  1  0
 11 41  1  0
 12 42  1  0
 13 43  1  0
 16 44  1  0
 16 45  1  0
 16 46  1  0
 18 47  1  0
 20 48  1  0
 21 49  1  0
 24 50  1  0
M  CHG  1  15   1
M  END
>  <UniqueID>  (18) 
18

>  <SMILES>  (18) 
CCN(C)CCNc1c2ccccc2[n+](C)c2[nH]c3ccc(Cl)cc3c12

>  <Energy>  (18) 
110.52754465041713

>  <Genealogy>  (18) 
CCN(C)CCNc1c2ccccc2[n+](C)c2[nH]c3ccc(Cl)cc3c12 (3D coordinates assigned)
CCN(C)CCNc1c2ccccc2[n+](C)c2[nH]c3ccc(Cl)cc3c12 (optimized conformer: 110.52754465041713 kcal/mol)

>  <smiles>  (18) 
CCN(C)CCNc1c2ccccc2[n+](C)c2[nH]c3ccc(Cl)cc3c12

>  <score_type>  (18) 
oracle

>  <origin>  (18) 
adg

>  <m_score__min__energy>  (18) 
-9.1899999999999995

>  <m_primary>  (18) 
energy

$$$$
18:0
     RDKit          3D

 44 45  0  0  0  0  0  0  0  0999 V2000
   -6.1770   24.9630  -29.7050 C   0  0  0  0  0  0  0  0  0  0  0  0
   -4.9720   25.3810  -30.5400 C   0  0  0  0  0  0  0  0  0  0  0  0
   -3.9230   24.3310  -30.4620 N   0  0  0  0  0  0  0  0  0  0  0  0
   -3.0160   24.5460  -29.3100 C   0  0  0  0  0  0  0  0  0  0  0  0
   -3.4400   23.7090  -28.1020 C   0  0  0  0  0  0  0  0  0  0  0  0
   -4.5050   22.9680  -30.4210 C   0  0  0  0  0  0  0  0  0  0  0  0
   -4.2160   22.1990  -31.7220 C   0  0  0  0  0  0  0  0  0  0  0  0
   -5.2780   22.3730  -32.7170 N   0  0  0  0  0  0  0  0  0  0  0  0
   -6.6800   22.1250  -32.4640 C   0  0  0  0  0  0  0  0  0  0  0  0
   -7.5530   23.2010  -32.2330 C   0  0  0  0  0  0  0  0  0  0  0  0
   -8.8940   22.9670  -31.9410 C   0  0  0  0  0  0  0  0  0  0  0  0
   -9.3730   21.7000  -31.8720 N   0  0  0  0  0  0  0  0  0  0  0  0
   -8.5710   20.6210  -32.0980 C   0  0  0  0  0  0  0  0  0  0  0  0
   -9.1070   19.3280  -32.0280 C   0  0  0  0  0  0  0  0  0  0  0  0
   -8.3040   18.2160  -32.2730 C   0  0  0  0  0  0  0  0  0  0  0  0
   -6.9570   18.3710  -32.6040 C   0  0  0  0  0  0  0  0  0  0  0  0
   -6.2000   17.2130  -32.8460 O   0  0  0  0  0  0  0  0  0  0  0  0
   -5.7530   16.7940  -34.1310 C   0  0  0  0  0  0  0  0  0  0  0  0
   -6.4070   19.6650  -32.6820 C   0  0  0  0  0  0  0  0  0  0  0  0
   -7.1980   20.8030  -32.4100 C   0  0  0  0  0  0  0  0  0  0  0  0
   -5.9301   25.0486  -28.6365 H   0  0  0  0  0  0  0  0  0  0  0  0
   -7.0295   25.6179  -29.9380 H   0  0  0  0  0  0  0  0  0  0  0  0
   -6.4408   23.9208  -29.9380 H   0  0  0  0  0  0  0  0  0  0  0  0
   -5.2806   25.5131  -31.5875 H   0  0  0  0  0  0  0  0  0  0  0  0
   -4.5699   26.3286  -30.1523 H   0  0  0  0  0  0  0  0  0  0  0  0
   -1.9940   24.2619  -29.6013 H   0  0  0  0  0  0  0  0  0  0  0  0
   -3.0605   25.6083  -29.0279 H   0  0  0  0  0  0  0  0  0  0  0  0
   -3.1715   24.2390  -27.1763 H   0  0  0  0  0  0  0  0  0  0  0  0
   -4.5279   23.5489  -28.1305 H   0  0  0  0  0  0  0  0  0  0  0  0
   -2.9255   22.7372  -28.1305 H   0  0  0  0  0  0  0  0  0  0  0  0
   -4.0690   22.4172  -29.5745 H   0  0  0  0  0  0  0  0  0  0  0  0
   -5.5951   23.0586  -30.3053 H   0  0  0  0  0  0  0  0  0  0  0  0
   -3.2696   22.5649  -32.1467 H   0  0  0  0  0  0  0  0  0  0  0  0
   -4.1575   21.1287  -31.4751 H   0  0  0  0  0  0  0  0  0  0  0  0
   -4.9680   22.6110  -33.6850 H   0  0  0  0  0  0  0  0  0  0  0  0
   -7.1754   24.2330  -32.2830 H   0  0  0  0  0  0  0  0  0  0  0  0
   -9.5704   23.8164  -31.7649 H   0  0  0  0  0  0  0  0  0  0  0  0
  -10.3840   21.5650  -31.6450 H   0  0  0  0  0  0  0  0  0  0  0  0
  -10.1693   19.1900  -31.7778 H   0  0  0  0  0  0  0  0  0  0  0  0
   -8.7357   17.2065  -32.2049 H   0  0  0  0  0  0  0  0  0  0  0  0
   -4.9549   16.0459  -34.0156 H   0  0  0  0  0  0  0  0  0  0  0  0
   -6.5936   16.3509  -34.6851 H   0  0  0  0  0  0  0  0  0  0  0  0
   -5.3651   17.6615  -34.6851 H   0  0  0  0  0  0  0  0  0  0  0  0
   -5.3496   19.7909  -32.9578 H   0  0  0  0  0  0  0  0  0  0  0  0
  1  2  1  0
  2  3  1  0
  3  4  1  0
  4  5  1  0
  3  6  1  0
  6  7  1  0
  7  8  1  0
  8  9  1  0
  9 10  2  0
 10 11  1  0
 11 12  2  0
 12 13  1  0
 13 14  2  0
 14 15  1  0
 15 16  2  0
 16 17  1  0
 17 18  1  0
 16 19  1  0
 19 20  2  0
 20  9  1  0
 20 13  1  0
  1 21  1  0
  1 22  1  0
  1 23  1  0
  2 24  1  0
  2 25  1  0
  4 26  1  0
  4 27  1  0
  5 28  1  0
  5 29  1  0
  5 30  1  0
  6 31  1  0
  6 32  1  0
  7 33  1  0
  7 34  1  0
  8 35  1  0
 10 36  1  0
 11 37  1  0
 12 38  1  0
 14 39  1  0
 15 40  1  0
 18 41  1  0
 18 42  1  0
 18 43  1  0
 19 44  1  0
M  CHG  1  12   1
M  END
>  <UniqueID>  (19) 
19

>  <SMILES>  (19) 
CCN(CC)CCNc1cc[nH+]c2ccc(OC)cc12

>  <Energy>  (19) 
47.56977386127485

>  <Genealogy>  (19) 
CCN(CC)CCNc1cc[nH+]c2ccc(OC)cc12 (protonated)
CCN(CC)CCNc1cc[nH+]c2ccc(OC)cc12 (3D coordinates assigned)
CCN(CC)CCNc1cc[nH+]c2ccc(OC)cc12 (optimized conformer: 47.56977386127485 kcal/mol)

>  <smiles>  (19) 
CCN(CC)CCNc1ccnc2ccc(OC)cc12

>  <score_type>  (19) 
oracle

>  <origin>  (19) 
adg

>  <m_score__min__energy>  (19) 
-6.6399999999999997

>  <m_primary>  (19) 
energy

$$$$
