0:0
     RDKit          3D

 43 46  0  0  0  0  0  0  0  0999 V2000
   -6.3950   25.9980  -29.3430 C   0  0  0  0  0  0  0  0  0  0  0  0
   -5.8100   25.6210  -30.5850 O   0  0  0  0  0  0  0  0  0  0  0  0
   -5.7960   24.3120  -31.0940 C   0  0  0  0  0  0  0  0  0  0  0  0
   -6.8780   23.7880  -31.8250 C   0  0  0  0  0  0  0  0  0  0  0  0
   -6.8350   22.4840  -32.3210 C   0  0  0  0  0  0  0  0  0  0  0  0
   -5.7160   21.6730  -32.0890 C   0  0  0  0  0  0  0  0  0  0  0  0
   -5.6850   20.2880  -32.6050 C   0  0  0  0  0  0  0  0  0  0  0  0
   -6.7530   19.4450  -32.5590 N   0  0  0  0  0  0  0  0  0  0  0  0
   -6.2570   18.3330  -33.1290 C   0  0  0  0  0  0  0  0  0  0  0  0
   -6.9150   17.1290  -33.3610 C   0  0  0  0  0  0  0  0  0  0  0  0
   -6.1890   16.0980  -33.9940 C   0  0  0  0  0  0  0  0  0  0  0  0
   -6.8280   14.8370  -34.2650 C   0  0  0  0  0  0  0  0  0  0  0  0
   -7.3410   13.8240  -34.4830 N   0  0  0  0  0  0  0  0  0  0  0  0
   -4.8390   16.3010  -34.3690 C   0  0  0  0  0  0  0  0  0  0  0  0
   -4.1970   17.5320  -34.1030 C   0  0  0  0  0  0  0  0  0  0  0  0
   -2.7830   17.7840  -34.5300 C   0  0  0  0  0  0  0  0  0  0  0  0
   -4.9590   18.5280  -33.4880 C   0  0  0  0  0  0  0  0  0  0  0  0
   -4.6130   19.7440  -33.1590 O   0  0  0  0  0  0  0  0  0  0  0  0
   -4.6360   22.1900  -31.3580 C   0  0  0  0  0  0  0  0  0  0  0  0
   -4.6600   23.5090  -30.8710 C   0  0  0  0  0  0  0  0  0  0  0  0
   -3.5600   24.0260  -30.1010 N   0  0  0  0  0  0  0  0  0  0  0  0
   -3.4860   23.9410  -28.6680 C   0  0  0  0  0  0  0  0  0  0  0  0
   -4.2240   23.1290  -28.0460 O   0  0  0  0  0  0  0  0  0  0  0  0
   -2.5280   24.7630  -27.9080 C   0  0  0  0  0  0  0  0  0  0  0  0
   -2.5130   24.9690  -26.5310 C   0  0  0  0  0  0  0  0  0  0  0  0
   -1.4610   25.7910  -26.1060 C   0  0  0  0  0  0  0  0  0  0  0  0
   -0.6440   26.2310  -27.1390 C   0  0  0  0  0  0  0  0  0  0  0  0
   -1.2290   25.5950  -28.5800 S   0  0  0  0  0  0  0  0  0  0  0  0
   -5.7852   25.6050  -28.5162 H   0  0  0  0  0  0  0  0  0  0  0  0
   -6.4394   27.0951  -29.2766 H   0  0  0  0  0  0  0  0  0  0  0  0
   -7.4124   25.5852  -29.2766 H   0  0  0  0  0  0  0  0  0  0  0  0
   -7.7657   24.4115  -32.0072 H   0  0  0  0  0  0  0  0  0  0  0  0
   -7.6850   22.0904  -32.8977 H   0  0  0  0  0  0  0  0  0  0  0  0
   -7.9638   16.9861  -33.0616 H   0  0  0  0  0  0  0  0  0  0  0  0
   -4.2852   15.4943  -34.8714 H   0  0  0  0  0  0  0  0  0  0  0  0
   -2.1460   17.8975  -33.6404 H   0  0  0  0  0  0  0  0  0  0  0  0
   -2.4249   16.9355  -35.1315 H   0  0  0  0  0  0  0  0  0  0  0  0
   -2.7400   18.7040  -35.1315 H   0  0  0  0  0  0  0  0  0  0  0  0
   -3.7589   21.5553  -31.1632 H   0  0  0  0  0  0  0  0  0  0  0  0
   -2.7310   24.3970  -30.6170 H   0  0  0  0  0  0  0  0  0  0  0  0
   -3.2530   24.5303  -25.8455 H   0  0  0  0  0  0  0  0  0  0  0  0
   -1.2976   26.0624  -25.0526 H   0  0  0  0  0  0  0  0  0  0  0  0
    0.2350   26.8837  -27.0323 H   0  0  0  0  0  0  0  0  0  0  0  0
  1  2  1  0
  2  3  1  0
  3  4  2  0
  4  5  1  0
  5  6  2  0
  6  7  1  0
  7  8  2  0
  8  9  1  0
  9 10  2  0
 10 11  1  0
 11 12  1  0
 12 13  3  0
 11 14  2  0
 14 15  1  0
 15 16  1  0
 15 17  2  0
 17 18  1  0
  6 19  1  0
 19 20  2  0
 20 21  1  0
 21 22  1  0
 22 23  2  0
 22 24  1  0
 24 25  2  0
 25 26  1  0
 26 27  2  0
 27 28  1  0
 20  3  1  0
 28 24  1  0
 18  7  1  0
 17  9  1  0
  1 29  1  0
  1 30  1  0
  1 31  1  0
  4 32  1  0
  5 33  1  0
 10 34  1  0
 14 35  1  0
 16 36  1  0
 16 37  1  0
 16 38  1  0
 19 39  1  0
 21 40  1  0
 25 41  1  0
 26 42  1  0
 27 43  1  0
M  END
>  <UniqueID>  (1) 
1

>  <SMILES>  (1) 
COc1ccc(-c2nc3cc(C#N)cc(C)c3o2)cc1NC(=O)c1cccs1

>  <Energy>  (1) 
112.28414306371381

>  <Genealogy>  (1) 
COc1ccc(-c2nc3cc(C#N)cc(C)c3o2)cc1NC(=O)c1cccs1 (3D coordinates assigned)
COc1ccc(-c2nc3cc(C#N)cc(C)c3o2)cc1NC(=O)c1cccs1 (optimized conformer: 112.28414306371381 kcal/mol)

>  <smiles>  (1) 
COc1ccc(-c2nc3cc(C#N)cc(C)c3o2)cc1NC(=O)c1cccs1

>  <score_type>  (1) 
oracle

>  <origin>  (1) 
adg

>  <m_score__min__energy>  (1) 
-8.4800000000000004

>  <m_primary>  (1) 
energy

$$$$
1:0
     RDKit          3D

 52 55  0  0  0  0  0  0  0  0999 V2000
   -2.0790   24.6500  -28.4890 C   0  0  0  0  0  0  0  0  0  0  0  0
   -2.6830   24.9230  -29.7520 O   0  0  0  0  0  0  0  0  0  0  0  0
   -3.5020   24.0230  -30.4500 C   0  0  0  0  0  0  0  0  0  0  0  0
   -3.0130   22.8060  -30.9720 C   0  0  0  0  0  0  0  0  0  0  0  0
   -3.8680   21.9210  -31.6430 C   0  0  0  0  0  0  0  0  0  0  0  0
   -5.2050   22.2870  -31.8660 C   0  0  0  0  0  0  0  0  0  0  0  0
   -5.6940   23.4900  -31.3370 C   0  0  0  0  0  0  0  0  0  0  0  0
   -4.8520   24.3550  -30.6160 C   0  0  0  0  0  0  0  0  0  0  0  0
   -5.3220   25.5520  -30.0410 O   0  0  0  0  0  0  0  0  0  0  0  0
   -6.5570   25.6810  -29.3380 C   0  0  0  0  0  0  0  0  0  0  0  0
   -6.1540   21.3440  -32.5570 C   0  0  0  0  0  0  0  0  0  0  0  0
   -5.4450   20.3530  -33.3940 N   0  0  2  0  0  0  0  0  0  0  0  0
   -6.4220   19.4170  -33.9870 C   0  0  0  0  0  0  0  0  0  0  0  0
   -5.7470   18.5320  -35.0330 C   0  0  0  0  0  0  0  0  0  0  0  0
   -4.5020   17.8890  -34.4830 C   0  0  0  0  0  0  0  0  0  0  0  0
   -3.9880   16.7570  -35.1250 C   0  0  0  0  0  0  0  0  0  0  0  0
   -2.8430   16.1030  -34.6310 C   0  0  0  0  0  0  0  0  0  0  0  0
   -2.3000   14.9750  -35.2640 O   0  0  0  0  0  0  0  0  0  0  0  0
   -3.0820   13.9020  -35.7900 C   0  0  0  0  0  0  0  0  0  0  0  0
   -2.2310   16.5770  -33.4690 C   0  0  0  0  0  0  0  0  0  0  0  0
   -1.1470   15.8570  -32.9440 O   0  0  0  0  0  0  0  0  0  0  0  0
   -1.2550   14.5460  -32.3860 C   0  0  0  0  0  0  0  0  0  0  0  0
   -2.7270   17.7260  -32.8330 C   0  0  0  0  0  0  0  0  0  0  0  0
   -3.8500   18.4140  -33.3450 C   0  0  0  0  0  0  0  0  0  0  0  0
   -4.4340   19.6200  -32.5870 C   0  0  1  0  0  0  0  0  0  0  0  0
   -3.3240   20.5990  -32.1340 C   0  0  0  0  0  0  0  0  0  0  0  0
   -2.7605   24.9580  -27.6824 H   0  0  0  0  0  0  0  0  0  0  0  0
   -1.8752   23.5723  -28.4053 H   0  0  0  0  0  0  0  0  0  0  0  0
   -1.1354   25.2091  -28.4053 H   0  0  0  0  0  0  0  0  0  0  0  0
   -1.9502   22.5496  -30.8509 H   0  0  0  0  0  0  0  0  0  0  0  0
   -6.7495   23.7604  -31.4880 H   0  0  0  0  0  0  0  0  0  0  0  0
   -6.3662   25.6611  -28.2549 H   0  0  0  0  0  0  0  0  0  0  0  0
   -7.0351   26.6340  -29.6086 H   0  0  0  0  0  0  0  0  0  0  0  0
   -7.2218   24.8474  -29.6086 H   0  0  0  0  0  0  0  0  0  0  0  0
   -6.7401   20.8096  -31.7949 H   0  0  0  0  0  0  0  0  0  0  0  0
   -6.8029   21.9400  -33.2155 H   0  0  0  0  0  0  0  0  0  0  0  0
   -4.9620   20.8650  -34.1710 H   0  0  0  0  0  0  0  0  0  0  0  0
   -6.8434   18.7825  -33.1934 H   0  0  0  0  0  0  0  0  0  0  0  0
   -7.2207   19.9966  -34.4729 H   0  0  0  0  0  0  0  0  0  0  0  0
   -6.4496   17.7448  -35.3439 H   0  0  0  0  0  0  0  0  0  0  0  0
   -5.4639   19.1609  -35.8899 H   0  0  0  0  0  0  0  0  0  0  0  0
   -4.4851   16.3727  -36.0279 H   0  0  0  0  0  0  0  0  0  0  0  0
   -3.5078   13.3178  -34.9609 H   0  0  0  0  0  0  0  0  0  0  0  0
   -3.8961   14.3098  -36.4071 H   0  0  0  0  0  0  0  0  0  0  0  0
   -2.4445   13.2519  -36.4071 H   0  0  0  0  0  0  0  0  0  0  0  0
   -1.2495   14.6132  -31.2881 H   0  0  0  0  0  0  0  0  0  0  0  0
   -2.1945   14.0815  -32.7202 H   0  0  0  0  0  0  0  0  0  0  0  0
   -0.4042   13.9340  -32.7202 H   0  0  0  0  0  0  0  0  0  0  0  0
   -2.2339   18.0964  -31.9221 H   0  0  0  0  0  0  0  0  0  0  0  0
   -4.9334   19.2098  -31.6968 H   0  0  0  0  0  0  0  0  0  0  0  0
   -2.7539   20.1298  -31.3186 H   0  0  0  0  0  0  0  0  0  0  0  0
   -2.6915   20.8078  -33.0094 H   0  0  0  0  0  0  0  0  0  0  0  0
  1  2  1  0
  2  3  1  0
  3  4  2  0
  4  5  1  0
  5  6  2  0
  6  7  1  0
  7  8  2  0
  8  9  1  0
  9 10  1  0
  6 11  1  0
 11 12  1  0
 12 13  1  0
 13 14  1  0
 14 15  1  0
 15 16  2  0
 16 17  1  0
 17 18  1  0
 18 19  1  0
 17 20  2  0
 20 21  1  0
 21 22  1  0
 20 23  1  0
 23 24  2  0
 24 25  1  0
 25 26  1  0
  8  3  1  0
 25 12  1  0
 26  5  1  0
 24 15  1  0
  1 27  1  0
  1 28  1  0
  1 29  1  0
  4 30  1  0
  7 31  1  0
 10 32  1  0
 10 33  1  0
 10 34  1  0
 11 35  1  0
 11 36  1  0
 12 37  1  6
 13 38  1  0
 13 39  1  0
 14 40  1  0
 14 41  1  0
 16 42  1  0
 19 43  1  0
 19 44  1  0
 19 45  1  0
 22 46  1  0
 22 47  1  0
 22 48  1  0
 23 49  1  0
 25 50  1  1
 26 51  1  0
 26 52  1  0
M  CHG  1  12   1
M  END
>  <UniqueID>  (2) 
2

>  <SMILES>  (2) 
COc1cc2c(cc1OC)C[N@@H+]1CCc3cc(OC)c(OC)cc3[C@H]1C2

>  <Energy>  (2) 
67.90251752832535

>  <Genealogy>  (2) 
COc1cc2c(cc1OC)C[NH+]1CCc3cc(OC)c(OC)cc3C1C2 (protonated)
COc1cc2c(cc1OC)C[N@@H+]1CCc3cc(OC)c(OC)cc3[C@H]1C2 (chirality)
COc1cc2c(cc1OC)C[N@@H+]1CCc3cc(OC)c(OC)cc3[C@H]1C2 (3D coordinates assigned)
COc1cc2c(cc1OC)C[N@@H+]1CCc3cc(OC)c(OC)cc3[C@H]1C2 (nonaromatic ring conformer: 67.90251752832535 kcal/mol)

>  <smiles>  (2) 
COc1cc2c(cc1OC)CN1CCc3cc(OC)c(OC)cc3C1C2

>  <score_type>  (2) 
oracle

>  <origin>  (2) 
adg

>  <m_score__min__energy>  (2) 
-6.6299999999999999

>  <m_primary>  (2) 
energy

$$$$
2:0
     RDKit          3D

 50 52  0  0  0  0  0  0  0  0999 V2000
   -6.8540   16.2240  -34.0600 C   0  0  0  0  0  0  0  0  0  0  0  0
   -6.7350   17.6100  -33.4950 C   0  0  0  0  0  0  0  0  0  0  0  0
   -7.7750   18.0970  -32.7700 N   0  0  0  0  0  0  0  0  0  0  0  0
   -7.7260   19.3230  -32.1950 C   0  0  0  0  0  0  0  0  0  0  0  0
   -9.1050   19.9040  -31.2150 S   0  0  0  0  0  0  0  0  0  0  0  0
   -9.1200   21.5750  -31.9550 C   0  0  0  0  0  0  0  0  0  0  0  0
   -7.9350   22.3770  -31.4920 C   0  0  0  0  0  0  0  0  0  0  0  0
   -7.1700   23.1140  -32.4100 C   0  0  0  0  0  0  0  0  0  0  0  0
   -6.0300   23.8030  -31.9860 C   0  0  0  0  0  0  0  0  0  0  0  0
   -5.6450   23.7770  -30.6360 C   0  0  0  0  0  0  0  0  0  0  0  0
   -4.4260   24.4840  -30.1850 C   0  0  0  0  0  0  0  0  0  0  0  0
   -4.2250   25.6670  -30.5770 O   0  0  0  0  0  0  0  0  0  0  0  0
   -3.4600   23.8460  -29.3270 N   0  0  0  0  0  0  0  0  0  0  0  0
   -2.7190   24.6420  -28.3390 C   0  0  0  0  0  0  0  0  0  0  0  0
   -1.2200   24.6320  -28.6750 C   0  0  0  0  0  0  0  0  0  0  0  0
   -0.6860   23.2300  -29.0520 C   0  0  0  0  0  0  0  0  0  0  0  0
   -1.7290   22.1140  -28.8820 C   0  0  0  0  0  0  0  0  0  0  0  0
   -3.0290   22.4680  -29.6200 C   0  0  0  0  0  0  0  0  0  0  0  0
   -6.4050   23.0300  -29.7210 C   0  0  0  0  0  0  0  0  0  0  0  0
   -7.5430   22.3390  -30.1460 C   0  0  0  0  0  0  0  0  0  0  0  0
   -6.6190   20.0910  -32.3310 N   0  0  0  0  0  0  0  0  0  0  0  0
   -5.5450   19.6700  -33.0490 C   0  0  0  0  0  0  0  0  0  0  0  0
   -4.3510   20.5760  -33.1390 C   0  0  0  0  0  0  0  0  0  0  0  0
   -5.5800   18.4080  -33.6880 C   0  0  0  0  0  0  0  0  0  0  0  0
   -4.3910   17.8930  -34.4660 C   0  0  0  0  0  0  0  0  0  0  0  0
   -6.9164   15.4967  -33.2371 H   0  0  0  0  0  0  0  0  0  0  0  0
   -7.7612   16.1568  -34.6784 H   0  0  0  0  0  0  0  0  0  0  0  0
   -5.9715   16.0031  -34.6784 H   0  0  0  0  0  0  0  0  0  0  0  0
   -9.0875   21.4841  -33.0508 H   0  0  0  0  0  0  0  0  0  0  0  0
  -10.0388   22.0911  -31.6397 H   0  0  0  0  0  0  0  0  0  0  0  0
   -7.4691   23.1494  -33.4680 H   0  0  0  0  0  0  0  0  0  0  0  0
   -5.4309   24.3690  -32.7145 H   0  0  0  0  0  0  0  0  0  0  0  0
   -3.0889   25.6778  -28.3541 H   0  0  0  0  0  0  0  0  0  0  0  0
   -2.8683   24.2075  -27.3395 H   0  0  0  0  0  0  0  0  0  0  0  0
   -1.0480   25.3107  -29.5234 H   0  0  0  0  0  0  0  0  0  0  0  0
   -0.6817   24.9531  -27.7710 H   0  0  0  0  0  0  0  0  0  0  0  0
   -0.3652   23.2503  -30.1040 H   0  0  0  0  0  0  0  0  0  0  0  0
    0.1456   23.0044  -28.3682 H   0  0  0  0  0  0  0  0  0  0  0  0
   -1.3249   21.1767  -29.2920 H   0  0  0  0  0  0  0  0  0  0  0  0
   -1.9510   21.9979  -27.8109 H   0  0  0  0  0  0  0  0  0  0  0  0
   -2.8635   22.3682  -30.7029 H   0  0  0  0  0  0  0  0  0  0  0  0
   -3.8170   21.7807  -29.2785 H   0  0  0  0  0  0  0  0  0  0  0  0
   -6.1028   22.9886  -28.6641 H   0  0  0  0  0  0  0  0  0  0  0  0
   -8.1348   21.7618  -29.4204 H   0  0  0  0  0  0  0  0  0  0  0  0
   -4.0099   20.8348  -32.1258 H   0  0  0  0  0  0  0  0  0  0  0  0
   -3.5413   20.0630  -33.6786 H   0  0  0  0  0  0  0  0  0  0  0  0
   -4.6271   21.4939  -33.6786 H   0  0  0  0  0  0  0  0  0  0  0  0
   -3.6127   17.5559  -33.7656 H   0  0  0  0  0  0  0  0  0  0  0  0
   -4.7045   17.0500  -35.0993 H   0  0  0  0  0  0  0  0  0  0  0  0
   -3.9905   18.6983  -35.0993 H   0  0  0  0  0  0  0  0  0  0  0  0
  1  2  1  0
  2  3  2  0
  3  4  1  0
  4  5  1  0
  5  6  1  0
  6  7  1  0
  7  8  2  0
  8  9  1  0
  9 10  2  0
 10 11  1  0
 11 12  2  0
 11 13  1  0
 13 14  1  0
 14 15  1  0
 15 16  1  0
 16 17  1  0
 17 18  1  0
 10 19  1  0
 19 20  2  0
  4 21  2  0
 21 22  1  0
 22 23  1  0
 22 24  2  0
 24 25  1  0
 24  2  1  0
 20  7  1  0
 18 13  1  0
  1 26  1  0
  1 27  1  0
  1 28  1  0
  6 29  1  0
  6 30  1  0
  8 31  1  0
  9 32  1  0
 14 33  1  0
 14 34  1  0
 15 35  1  0
 15 36  1  0
 16 37  1  0
 16 38  1  0
 17 39  1  0
 17 40  1  0
 18 41  1  0
 18 42  1  0
 19 43  1  0
 20 44  1  0
 23 45  1  0
 23 46  1  0
 23 47  1  0
 25 48  1  0
 25 49  1  0
 25 50  1  0
M  END
>  <UniqueID>  (3) 
3

>  <SMILES>  (3) 
Cc1nc(SCc2ccc(C(=O)N3CCCCC3)cc2)nc(C)c1C

>  <Energy>  (3) 
52.7851515975519

>  <Genealogy>  (3) 
Cc1nc(SCc2ccc(C(=O)N3CCCCC3)cc2)nc(C)c1C (3D coordinates assigned)
Cc1nc(SCc2ccc(C(=O)N3CCCCC3)cc2)nc(C)c1C (nonaromatic ring conformer: 52.7851515975519 kcal/mol)

>  <smiles>  (3) 
Cc1nc(SCc2ccc(C(=O)N3CCCCC3)cc2)nc(C)c1C

>  <score_type>  (3) 
oracle

>  <origin>  (3) 
adg

>  <m_score__min__energy>  (3) 
-9.9299999999999997

>  <m_primary>  (3) 
energy

$$$$
3:0
     RDKit          3D

 52 56  0  0  0  0  0  0  0  0999 V2000
   -6.9209   24.0324  -33.0959 H   0  0  0  0  0  0  0  0  0  0  0  0
   -6.8150   23.4250  -32.1850 C   0  0  0  0  0  0  0  0  0  0  0  0
   -7.6590   22.3960  -32.0080 C   0  0  0  0  0  0  0  0  0  0  0  0
   -7.3850   21.0030  -32.3220 C   0  0  0  0  0  0  0  0  0  0  0  0
   -8.4840   20.2440  -32.1910 N   0  0  0  0  0  0  0  0  0  0  0  0
   -8.4680   18.9060  -32.4340 C   0  0  0  0  0  0  0  0  0  0  0  0
   -9.5220   18.2250  -32.3030 O   0  0  0  0  0  0  0  0  0  0  0  0
   -7.2590   18.3050  -32.8330 C   0  0  0  0  0  0  0  0  0  0  0  0
   -7.1620   16.9300  -33.1020 C   0  0  0  0  0  0  0  0  0  0  0  0
   -8.0494   16.2877  -33.0016 H   0  0  0  0  0  0  0  0  0  0  0  0
   -5.9410   16.3750  -33.4970 C   0  0  0  0  0  0  0  0  0  0  0  0
   -5.8737   15.2973  -33.7070 H   0  0  0  0  0  0  0  0  0  0  0  0
   -4.7970   17.1850  -33.6280 C   0  0  0  0  0  0  0  0  0  0  0  0
   -3.5530   16.6690  -34.0220 O   0  0  0  0  0  0  0  0  0  0  0  0
   -2.4790   17.4550  -34.5260 C   0  0  0  0  0  0  0  0  0  0  0  0
   -1.9059   17.8744  -33.6860 H   0  0  0  0  0  0  0  0  0  0  0  0
   -1.8201   16.8243  -35.1408 H   0  0  0  0  0  0  0  0  0  0  0  0
   -2.8809   18.2738  -35.1408 H   0  0  0  0  0  0  0  0  0  0  0  0
   -4.8920   18.5560  -33.3600 C   0  0  0  0  0  0  0  0  0  0  0  0
   -4.0008   19.1928  -33.4611 H   0  0  0  0  0  0  0  0  0  0  0  0
   -6.1110   19.1270  -32.9640 C   0  0  0  0  0  0  0  0  0  0  0  0
   -6.1950   20.4650  -32.7030 N   0  0  0  0  0  0  0  0  0  0  0  0
   -5.3460   21.0680  -32.7910 H   0  0  0  0  0  0  0  0  0  0  0  0
   -9.6370   21.0390  -31.7820 C   0  0  0  0  0  0  0  0  0  0  0  0
  -10.0475   20.6611  -30.8340 H   0  0  0  0  0  0  0  0  0  0  0  0
  -10.4478   20.9928  -32.5239 H   0  0  0  0  0  0  0  0  0  0  0  0
   -9.1050   22.4790  -31.6040 C   0  0  0  0  0  0  0  0  0  0  0  0
   -9.1986   22.8019  -30.5566 H   0  0  0  0  0  0  0  0  0  0  0  0
   -9.6666   23.2106  -32.2035 H   0  0  0  0  0  0  0  0  0  0  0  0
   -5.7530   23.7870  -31.2260 C   0  0  0  0  0  0  0  0  0  0  0  0
   -4.4780   23.2280  -31.3740 C   0  0  0  0  0  0  0  0  0  0  0  0
   -4.2756   22.5448  -32.2120 H   0  0  0  0  0  0  0  0  0  0  0  0
   -3.4610   23.5310  -30.4660 C   0  0  0  0  0  0  0  0  0  0  0  0
   -2.4600   23.0964  -30.6047 H   0  0  0  0  0  0  0  0  0  0  0  0
   -3.7040   24.3870  -29.3750 C   0  0  0  0  0  0  0  0  0  0  0  0
   -2.6520   24.6980  -28.4300 N   0  0  0  0  0  0  0  0  0  0  0  0
   -1.2510   24.8580  -28.7940 C   0  0  0  0  0  0  0  0  0  0  0  0
   -0.8277   23.8957  -29.1176 H   0  0  0  0  0  0  0  0  0  0  0  0
   -1.1292   25.5644  -29.6284 H   0  0  0  0  0  0  0  0  0  0  0  0
   -0.5470   25.3500  -27.5400 C   0  0  0  0  0  0  0  0  0  0  0  0
    0.4107   24.8253  -27.4077 H   0  0  0  0  0  0  0  0  0  0  0  0
   -0.3225   26.4253  -27.5976 H   0  0  0  0  0  0  0  0  0  0  0  0
   -1.4890   25.0350  -26.3830 C   0  0  0  0  0  0  0  0  0  0  0  0
   -1.1934   24.0959  -25.8924 H   0  0  0  0  0  0  0  0  0  0  0  0
   -1.4656   25.8217  -25.6145 H   0  0  0  0  0  0  0  0  0  0  0  0
   -2.8720   24.8970  -27.0040 C   0  0  0  0  0  0  0  0  0  0  0  0
   -3.3998   24.0329  -26.5742 H   0  0  0  0  0  0  0  0  0  0  0  0
   -3.4914   25.7854  -26.8113 H   0  0  0  0  0  0  0  0  0  0  0  0
   -4.9970   24.9220  -29.2150 C   0  0  0  0  0  0  0  0  0  0  0  0
   -5.2100   25.5859  -28.3642 H   0  0  0  0  0  0  0  0  0  0  0  0
   -6.0120   24.6180  -30.1260 C   0  0  0  0  0  0  0  0  0  0  0  0
   -7.0202   25.0329  -29.9797 H   0  0  0  0  0  0  0  0  0  0  0  0
  1  2  1  0
  2  3  2  0
  3  4  1  0
  4  5  1  0
  5  6  1  0
  6  7  2  0
  6  8  1  0
  8  9  2  0
  9 10  1  0
  9 11  1  0
 11 12  1  0
 11 13  2  0
 13 14  1  0
 14 15  1  0
 15 16  1  0
 15 17  1  0
 15 18  1  0
 13 19  1  0
 19 20  1  0
 19 21  2  0
 21 22  1  0
 22 23  1  0
  5 24  1  0
 24 25  1  0
 24 26  1  0
 24 27  1  0
 27 28  1  0
 27 29  1  0
  2 30  1  0
 30 31  2  0
 31 32  1  0
 31 33  1  0
 33 34  1  0
 33 35  2  0
 35 36  1  0
 36 37  1  0
 37 38  1  0
 37 39  1  0
 37 40  1  0
 40 41  1  0
 40 42  1  0
 40 43  1  0
 43 44  1  0
 43 45  1  0
 43 46  1  0
 46 47  1  0
 46 48  1  0
 35 49  1  0
 49 50  1  0
 49 51  2  0
 51 52  1  0
 27  3  1  0
 51 30  1  0
 22  4  2  0
 46 36  1  0
 21  8  1  0
M  CHG  1  22   1
M  END
>  <UniqueID>  (4) 
4

>  <SMILES>  (4) 
COc1ccc2c(=O)n3c([nH+]c2c1)/C(=C/c1ccc(N2CCCC2)cc1)CC3

>  <Energy>  (4) 
81.76614319439685

>  <Genealogy>  (4) 
COc1ccc2c(=O)n3c([nH+]c2c1)C(=Cc1ccc(N2CCCC2)cc1)CC3 (protonated)
COc1ccc2c(=O)n3c([nH+]c2c1)/C(=C/c1ccc(N2CCCC2)cc1)CC3 (cis-trans isomerization)
COc1ccc2c(=O)n3c([nH+]c2c1)/C(=C/c1ccc(N2CCCC2)cc1)CC3 (3D coordinates assigned)
COc1ccc2c(=O)n3c([nH+]c2c1)/C(=C/c1ccc(N2CCCC2)cc1)CC3 (nonaromatic ring conformer: 81.76614319439685 kcal/mol)

>  <smiles>  (4) 
COc1ccc2c(=O)n3c(nc2c1)C(=Cc1ccc(N2CCCC2)cc1)CC3

>  <score_type>  (4) 
oracle

>  <origin>  (4) 
adg

>  <m_score__min__energy>  (4) 
-8.9800000000000004

>  <m_primary>  (4) 
energy

$$$$
4:0
     RDKit          3D

 52 54  0  0  0  0  0  0  0  0999 V2000
   -9.1820   20.8360  -31.4780 C   0  0  0  0  0  0  0  0  0  0  0  0
   -8.6170   19.5000  -31.8420 C   0  0  0  0  0  0  0  0  0  0  0  0
   -9.1400   18.3220  -31.4520 N   0  0  0  0  0  0  0  0  0  0  0  0
   -8.4560   17.3680  -32.0110 O   0  0  0  0  0  0  0  0  0  0  0  0
   -7.5030   17.8670  -32.7670 C   0  0  0  0  0  0  0  0  0  0  0  0
   -6.5400   17.0460  -33.5610 C   0  0  0  0  0  0  0  0  0  0  0  0
   -7.5640   19.2490  -32.7020 C   0  0  0  0  0  0  0  0  0  0  0  0
   -6.7030   20.2520  -33.4170 C   0  0  0  0  0  0  0  0  0  0  0  0
   -5.6260   20.7360  -32.5260 N   0  0  0  0  0  0  0  0  0  0  0  0
   -6.0310   21.9670  -31.7990 C   0  0  0  0  0  0  0  0  0  0  0  0
   -5.1420   23.2140  -32.0330 C   0  0  0  0  0  0  0  0  0  0  0  0
   -3.7890   23.1500  -31.4320 N   0  0  0  0  0  0  0  0  0  0  0  0
   -3.6880   24.2200  -30.0540 S   0  0  0  0  0  0  0  0  0  0  0  0
   -4.6570   23.5850  -28.7010 C   0  0  0  0  0  0  0  0  0  0  0  0
   -4.2280   25.5710  -30.4300 O   0  0  0  0  0  0  0  0  0  0  0  0
   -2.2560   24.3630  -29.6170 O   0  0  0  0  0  0  0  0  0  0  0  0
   -3.3720   21.7810  -31.0670 C   0  0  0  0  0  0  0  0  0  0  0  0
   -3.0610   20.9340  -32.3520 C   0  0  0  0  0  0  0  0  0  0  0  0
   -2.5380   19.5340  -31.9270 C   0  0  0  0  0  0  0  0  0  0  0  0
   -1.9980   18.7060  -33.1180 C   0  0  0  0  0  0  0  0  0  0  0  0
   -1.7590   19.4700  -34.2870 O   0  0  0  0  0  0  0  0  0  0  0  0
   -1.0500   20.6460  -33.9650 C   0  0  0  0  0  0  0  0  0  0  0  0
   -1.9390   21.6390  -33.1910 C   0  0  0  0  0  0  0  0  0  0  0  0
   -4.3400   20.7980  -33.2580 C   0  0  0  0  0  0  0  0  0  0  0  0
   -9.2222   20.9311  -30.3829 H   0  0  0  0  0  0  0  0  0  0  0  0
   -8.5425   21.6296  -31.8917 H   0  0  0  0  0  0  0  0  0  0  0  0
  -10.1969   20.9300  -31.8917 H   0  0  0  0  0  0  0  0  0  0  0  0
   -9.9590   18.1780  -30.8200 H   0  0  0  0  0  0  0  0  0  0  0  0
   -5.8842   16.4869  -32.8774 H   0  0  0  0  0  0  0  0  0  0  0  0
   -7.0961   16.3398  -34.1951 H   0  0  0  0  0  0  0  0  0  0  0  0
   -5.9307   17.7068  -34.1951 H   0  0  0  0  0  0  0  0  0  0  0  0
   -6.2549   19.7786  -34.3031 H   0  0  0  0  0  0  0  0  0  0  0  0
   -7.3267   21.1062  -33.7192 H   0  0  0  0  0  0  0  0  0  0  0  0
   -7.0554   22.2203  -32.1095 H   0  0  0  0  0  0  0  0  0  0  0  0
   -5.9326   21.7275  -30.7299 H   0  0  0  0  0  0  0  0  0  0  0  0
   -5.0255   23.3492  -33.1184 H   0  0  0  0  0  0  0  0  0  0  0  0
   -5.6556   24.0507  -31.5368 H   0  0  0  0  0  0  0  0  0  0  0  0
   -4.1976   23.8861  -27.7480 H   0  0  0  0  0  0  0  0  0  0  0  0
   -5.6782   23.9896  -28.7597 H   0  0  0  0  0  0  0  0  0  0  0  0
   -4.6936   22.4872  -28.7597 H   0  0  0  0  0  0  0  0  0  0  0  0
   -2.4685   21.8334  -30.4418 H   0  0  0  0  0  0  0  0  0  0  0  0
   -4.1911   21.2974  -30.5146 H   0  0  0  0  0  0  0  0  0  0  0  0
   -1.7264   19.6692  -31.1969 H   0  0  0  0  0  0  0  0  0  0  0  0
   -3.3865   18.9808  -31.4980 H   0  0  0  0  0  0  0  0  0  0  0  0
   -1.0518   18.2358  -32.8121 H   0  0  0  0  0  0  0  0  0  0  0  0
   -2.7736   17.9684  -33.3717 H   0  0  0  0  0  0  0  0  0  0  0  0
   -0.1814   20.3824  -33.3436 H   0  0  0  0  0  0  0  0  0  0  0  0
   -0.7265   21.1248  -34.9010 H   0  0  0  0  0  0  0  0  0  0  0  0
   -1.3024   22.2193  -32.5069 H   0  0  0  0  0  0  0  0  0  0  0  0
   -2.4376   22.2804  -33.9326 H   0  0  0  0  0  0  0  0  0  0  0  0
   -4.3735   21.6664  -33.9324 H   0  0  0  0  0  0  0  0  0  0  0  0
   -4.2411   19.8373  -33.7845 H   0  0  0  0  0  0  0  0  0  0  0  0
  1  2  1  0
  2  3  2  0
  3  4  1  0
  4  5  1  0
  5  6  1  0
  5  7  2  0
  7  8  1  0
  8  9  1  0
  9 10  1  0
 10 11  1  0
 11 12  1  0
 12 13  1  0
 13 14  1  0
 13 15  2  0
 13 16  2  0
 12 17  1  0
 17 18  1  0
 18 19  1  0
 19 20  1  0
 20 21  1  0
 21 22  1  0
 22 23  1  0
 18 24  1  0
  7  2  1  0
 24  9  1  0
 23 18  1  0
  1 25  1  0
  1 26  1  0
  1 27  1  0
  3 28  1  0
  6 29  1  0
  6 30  1  0
  6 31  1  0
  8 32  1  0
  8 33  1  0
 10 34  1  0
 10 35  1  0
 11 36  1  0
 11 37  1  0
 14 38  1  0
 14 39  1  0
 14 40  1  0
 17 41  1  0
 17 42  1  0
 19 43  1  0
 19 44  1  0
 20 45  1  0
 20 46  1  0
 22 47  1  0
 22 48  1  0
 23 49  1  0
 23 50  1  0
 24 51  1  0
 24 52  1  0
M  CHG  1   3   1
M  END
>  <UniqueID>  (5) 
5

>  <SMILES>  (5) 
Cc1[nH+]oc(C)c1CN1CCN(S(C)(=O)=O)CC2(CCOCC2)C1

>  <Energy>  (5) 
105.22614812644534

>  <Genealogy>  (5) 
Cc1[nH+]oc(C)c1CN1CCN(S(C)(=O)=O)CC2(CCOCC2)C1 (protonated)
Cc1[nH+]oc(C)c1CN1CCN(S(C)(=O)=O)CC2(CCOCC2)C1 (3D coordinates assigned)
Cc1[nH+]oc(C)c1CN1CCN(S(C)(=O)=O)CC2(CCOCC2)C1 (nonaromatic ring conformer: 105.22614812644534 kcal/mol)

>  <smiles>  (5) 
Cc1noc(C)c1CN1CCN(S(C)(=O)=O)CC2(CCOCC2)C1

>  <score_type>  (5) 
oracle

>  <origin>  (5) 
adg

>  <m_score__min__energy>  (5) 
-6.7300000000000004

>  <m_primary>  (5) 
energy

$$$$
5:0
     RDKit          3D

 56 59  0  0  0  0  0  0  0  0999 V2000
   -5.7490   18.5460  -34.5820 C   0  0  0  0  0  0  0  0  0  0  0  0
   -5.0790   18.8620  -33.2410 C   0  0  0  0  0  0  0  0  0  0  0  0
   -4.8200   20.3160  -33.1140 N   0  0  0  0  0  0  0  0  0  0  0  0
   -3.4270   20.6930  -33.4740 C   0  0  0  0  0  0  0  0  0  0  0  0
   -2.4140   19.5320  -33.4110 C   0  0  0  0  0  0  0  0  0  0  0  0
   -5.2370   20.8480  -31.7960 C   0  0  0  0  0  0  0  0  0  0  0  0
   -6.6830   21.3030  -31.8420 C   0  0  0  0  0  0  0  0  0  0  0  0
   -7.6830   20.3160  -31.7630 C   0  0  0  0  0  0  0  0  0  0  0  0
   -9.0340   20.6670  -31.7660 C   0  0  0  0  0  0  0  0  0  0  0  0
   -9.4080   22.0100  -31.8410 C   0  0  0  0  0  0  0  0  0  0  0  0
   -8.4330   23.0060  -31.9220 C   0  0  0  0  0  0  0  0  0  0  0  0
   -7.0650   22.6730  -31.9380 C   0  0  0  0  0  0  0  0  0  0  0  0
   -6.0500   23.7890  -31.9750 C   0  0  0  0  0  0  0  0  0  0  0  0
   -5.3950   23.8670  -30.6780 N   0  0  0  0  0  0  0  0  0  0  0  0
   -4.0800   24.3920  -30.4680 C   0  0  0  0  0  0  0  0  0  0  0  0
   -3.8760   25.6320  -30.6240 O   0  0  0  0  0  0  0  0  0  0  0  0
   -2.9630   23.4910  -30.0520 C   0  0  0  0  0  0  0  0  0  0  0  0
   -2.6260   22.3990  -30.8750 C   0  0  0  0  0  0  0  0  0  0  0  0
   -1.5700   21.5500  -30.5480 C   0  0  0  0  0  0  0  0  0  0  0  0
   -0.8170   21.7690  -29.3960 C   0  0  0  0  0  0  0  0  0  0  0  0
    0.2060   20.9130  -29.1260 F   0  0  0  0  0  0  0  0  0  0  0  0
   -1.1320   22.8450  -28.5330 C   0  0  0  0  0  0  0  0  0  0  0  0
   -0.3890   23.1050  -27.3560 C   0  0  0  0  0  0  0  0  0  0  0  0
    0.6110   22.3920  -27.0630 O   0  0  0  0  0  0  0  0  0  0  0  0
   -0.7590   24.1750  -26.5110 C   0  0  0  0  0  0  0  0  0  0  0  0
   -0.0490   24.4790  -25.3320 C   0  0  0  0  0  0  0  0  0  0  0  0
   -0.4490   25.5530  -24.5220 C   0  0  0  0  0  0  0  0  0  0  0  0
   -1.5540   26.3340  -24.8780 C   0  0  0  0  0  0  0  0  0  0  0  0
   -2.2620   26.0460  -26.0490 C   0  0  0  0  0  0  0  0  0  0  0  0
   -1.8680   24.9740  -26.8650 C   0  0  0  0  0  0  0  0  0  0  0  0
   -2.5450   24.7170  -28.0120 N   0  0  0  0  0  0  0  0  0  0  0  0
   -2.2230   23.6990  -28.8570 C   0  0  0  0  0  0  0  0  0  0  0  0
   -6.7304   18.0831  -34.4015 H   0  0  0  0  0  0  0  0  0  0  0  0
   -5.8820   19.4763  -35.1537 H   0  0  0  0  0  0  0  0  0  0  0  0
   -5.1157   17.8517  -35.1537 H   0  0  0  0  0  0  0  0  0  0  0  0
   -5.7398   18.5402  -32.4226 H   0  0  0  0  0  0  0  0  0  0  0  0
   -4.1196   18.3263  -33.1903 H   0  0  0  0  0  0  0  0  0  0  0  0
   -3.4325   21.0889  -34.5003 H   0  0  0  0  0  0  0  0  0  0  0  0
   -3.1008   21.4337  -32.7291 H   0  0  0  0  0  0  0  0  0  0  0  0
   -2.2010   19.2879  -32.3598 H   0  0  0  0  0  0  0  0  0  0  0  0
   -2.8360   18.6495  -33.9141 H   0  0  0  0  0  0  0  0  0  0  0  0
   -1.4825   19.8305  -33.9141 H   0  0  0  0  0  0  0  0  0  0  0  0
   -5.1293   20.0596  -31.0365 H   0  0  0  0  0  0  0  0  0  0  0  0
   -4.6006   21.7083  -31.5413 H   0  0  0  0  0  0  0  0  0  0  0  0
   -7.3968   19.2559  -31.6982 H   0  0  0  0  0  0  0  0  0  0  0  0
   -9.8050   19.8845  -31.7092 H   0  0  0  0  0  0  0  0  0  0  0  0
  -10.4733   22.2840  -31.8363 H   0  0  0  0  0  0  0  0  0  0  0  0
   -8.7367   24.0620  -31.9739 H   0  0  0  0  0  0  0  0  0  0  0  0
   -5.3025   23.5838  -32.7554 H   0  0  0  0  0  0  0  0  0  0  0  0
   -6.5496   24.7427  -32.2006 H   0  0  0  0  0  0  0  0  0  0  0  0
   -3.2058   22.2130  -31.7911 H   0  0  0  0  0  0  0  0  0  0  0  0
   -1.3292   20.7007  -31.2042 H   0  0  0  0  0  0  0  0  0  0  0  0
    0.8224   23.8719  -25.0455 H   0  0  0  0  0  0  0  0  0  0  0  0
    0.1092   25.7820  -23.6023 H   0  0  0  0  0  0  0  0  0  0  0  0
   -1.8652   27.1728  -24.2380 H   0  0  0  0  0  0  0  0  0  0  0  0
   -3.1294   26.6608  -26.3312 H   0  0  0  0  0  0  0  0  0  0  0  0
  1  2  1  0
  2  3  1  0
  3  4  1  0
  4  5  1  0
  3  6  1  0
  6  7  1  0
  7  8  2  0
  8  9  1  0
  9 10  2  0
 10 11  1  0
 11 12  2  0
 12 13  1  0
 13 14  1  0
 14 15  1  0
 15 16  2  0
 15 17  1  0
 17 18  2  0
 18 19  1  0
 19 20  2  0
 20 21  1  0
 20 22  1  0
 22 23  1  0
 23 24  2  0
 23 25  1  0
 25 26  2  0
 26 27  1  0
 27 28  2  0
 28 29  1  0
 29 30  2  0
 30 31  1  0
 31 32  1  0
 12  7  1  0
 32 17  1  0
 32 22  2  0
 30 25  1  0
  1 33  1  0
  1 34  1  0
  1 35  1  0
  2 36  1  0
  2 37  1  0
  4 38  1  0
  4 39  1  0
  5 40  1  0
  5 41  1  0
  5 42  1  0
  6 43  1  0
  6 44  1  0
  8 45  1  0
  9 46  1  0
 10 47  1  0
 11 48  1  0
 13 49  1  0
 13 50  1  0
 18 51  1  0
 19 52  1  0
 26 53  1  0
 27 54  1  0
 28 55  1  0
 29 56  1  0
M  CHG  2  14  -1  31  -1
M  END
>  <UniqueID>  (6) 
6

>  <SMILES>  (6) 
CCN(CC)Cc1ccccc1C[N-]C(=O)c1ccc(F)c2c(=O)c3ccccc3[n-]c12

>  <Energy>  (6) 
71.7154978084231

>  <Genealogy>  (6) 
CCN(CC)Cc1ccccc1C[N-]C(=O)c1ccc(F)c2c(=O)c3ccccc3[n-]c12 (protonated)
CCN(CC)Cc1ccccc1C[N-]C(=O)c1ccc(F)c2c(=O)c3ccccc3[n-]c12 (3D coordinates assigned)
CCN(CC)Cc1ccccc1C[N-]C(=O)c1ccc(F)c2c(=O)c3ccccc3[n-]c12 (optimized conformer: 71.7154978084231 kcal/mol)

>  <smiles>  (6) 
CCN(CC)Cc1ccccc1CNC(=O)c1ccc(F)c2c(=O)c3ccccc3[nH]c12

>  <score_type>  (6) 
oracle

>  <origin>  (6) 
adg

>  <m_score__min__energy>  (6) 
-11.640000000000001

>  <m_primary>  (6) 
energy

$$$$
6:0
     RDKit          3D

 37 42  0  0  0  0  0  0  0  0999 V2000
   -5.9880   13.8010  -34.6250 C   0  0  0  0  0  0  0  0  0  0  0  0
   -4.6660   14.2180  -34.6270 C   0  0  0  0  0  0  0  0  0  0  0  0
   -4.6600   15.5170  -34.1680 C   0  0  0  0  0  0  0  0  0  0  0  0
   -3.5890   16.3720  -33.9870 C   0  0  0  0  0  0  0  0  0  0  0  0
   -3.8500   17.6570  -33.5020 C   0  0  0  0  0  0  0  0  0  0  0  0
   -5.1720   18.1030  -33.1950 C   0  0  0  0  0  0  0  0  0  0  0  0
   -5.2850   19.3840  -32.7290 N   0  0  0  0  0  0  0  0  0  0  0  0
   -6.3820   20.0940  -32.3550 C   0  0  0  0  0  0  0  0  0  0  0  0
   -7.7130   19.7030  -32.3420 C   0  0  0  0  0  0  0  0  0  0  0  0
   -8.2560   18.4890  -32.7090 C   0  0  0  0  0  0  0  0  0  0  0  0
   -7.5710   17.4230  -33.1650 N   0  0  0  0  0  0  0  0  0  0  0  0
   -6.2580   17.1850  -33.3970 C   0  0  0  0  0  0  0  0  0  0  0  0
   -5.9430   15.9060  -33.8850 C   0  0  0  0  0  0  0  0  0  0  0  0
   -6.7820   14.8430  -34.1670 C   0  0  0  0  0  0  0  0  0  0  0  0
   -8.6010   20.8200  -31.8470 C   0  0  0  0  0  0  0  0  0  0  0  0
   -7.6150   21.8980  -31.5770 C   0  0  0  0  0  0  0  0  0  0  0  0
   -7.8740   23.1900  -31.0900 C   0  0  0  0  0  0  0  0  0  0  0  0
   -6.7640   24.0220  -30.9220 C   0  0  0  0  0  0  0  0  0  0  0  0
   -5.4940   23.6100  -31.2110 C   0  0  0  0  0  0  0  0  0  0  0  0
   -5.2170   22.3290  -31.6960 C   0  0  0  0  0  0  0  0  0  0  0  0
   -6.3260   21.4740  -31.8720 C   0  0  0  0  0  0  0  0  0  0  0  0
   -4.6100   24.6380  -30.9480 O   0  0  0  0  0  0  0  0  0  0  0  0
   -5.3610   25.7610  -30.4650 C   0  0  0  0  0  0  0  0  0  0  0  0
   -6.7290   25.3260  -30.4640 O   0  0  0  0  0  0  0  0  0  0  0  0
   -6.3480   12.8089  -34.9350 H   0  0  0  0  0  0  0  0  0  0  0  0
   -3.7913   13.6265  -34.9353 H   0  0  0  0  0  0  0  0  0  0  0  0
   -2.5624   16.0510  -34.2176 H   0  0  0  0  0  0  0  0  0  0  0  0
   -3.0081   18.3487  -33.3515 H   0  0  0  0  0  0  0  0  0  0  0  0
   -4.3900   19.9140  -32.6430 H   0  0  0  0  0  0  0  0  0  0  0  0
   -9.3473   18.3821  -32.6212 H   0  0  0  0  0  0  0  0  0  0  0  0
   -7.8756   14.8266  -34.0499 H   0  0  0  0  0  0  0  0  0  0  0  0
   -9.3267   21.1247  -32.6155 H   0  0  0  0  0  0  0  0  0  0  0  0
   -9.2127   20.5481  -30.9741 H   0  0  0  0  0  0  0  0  0  0  0  0
   -8.8939   23.5279  -30.8540 H   0  0  0  0  0  0  0  0  0  0  0  0
   -4.1916   22.0051  -31.9277 H   0  0  0  0  0  0  0  0  0  0  0  0
   -5.0410   26.0303  -29.4476 H   0  0  0  0  0  0  0  0  0  0  0  0
   -5.2138   26.6539  -31.0903 H   0  0  0  0  0  0  0  0  0  0  0  0
  1  2  2  0
  2  3  1  0
  3  4  2  0
  4  5  1  0
  5  6  2  0
  6  7  1  0
  7  8  2  0
  8  9  1  0
  9 10  2  0
 10 11  1  0
 11 12  2  0
 12 13  1  0
 13 14  2  0
  9 15  1  0
 15 16  1  0
 16 17  2  0
 17 18  1  0
 18 19  2  0
 19 20  1  0
 20 21  2  0
 19 22  1  0
 22 23  1  0
 23 24  1  0
 14  1  1  0
 21 16  1  0
 13  3  1  0
 24 18  1  0
 12  6  1  0
 21  8  1  0
  1 25  1  0
  2 26  1  0
  4 27  1  0
  5 28  1  0
  7 29  1  0
 10 30  1  0
 14 31  1  0
 15 32  1  0
 15 33  1  0
 17 34  1  0
 20 35  1  0
 23 36  1  0
 23 37  1  0
M  CHG  1   7   1
M  END
>  <UniqueID>  (7) 
7

>  <SMILES>  (7) 
c1cc2ccc3[nH+]c4c(cnc3c2c1)Cc1cc2c(cc1-4)OCO2

>  <Energy>  (7) 
142.48520923514783

>  <Genealogy>  (7) 
c1cc2ccc3[nH+]c4c(cnc3c2c1)Cc1cc2c(cc1-4)OCO2 (protonated)
c1cc2ccc3[nH+]c4c(cnc3c2c1)Cc1cc2c(cc1-4)OCO2 (3D coordinates assigned)
c1cc2ccc3[nH+]c4c(cnc3c2c1)Cc1cc2c(cc1-4)OCO2 (nonaromatic ring conformer: 142.48520923514783 kcal/mol)

>  <smiles>  (7) 
c1cc2ccc3nc4c(cnc3c2c1)Cc1cc2c(cc1-4)OCO2

>  <score_type>  (7) 
oracle

>  <origin>  (7) 
adg

>  <m_score__min__energy>  (7) 
-8.1799999999999997

>  <m_primary>  (7) 
energy

$$$$
7:0
     RDKit          3D

 45 47  0  0  0  0  0  0  0  0999 V2000
   -2.0470   21.5560  -32.5620 C   0  0  0  0  0  0  0  0  0  0  0  0
   -3.2800   22.2290  -32.3230 O   0  0  0  0  0  0  0  0  0  0  0  0
   -4.5410   21.6090  -32.2910 C   0  0  0  0  0  0  0  0  0  0  0  0
   -4.6730   20.2240  -32.4840 C   0  0  0  0  0  0  0  0  0  0  0  0
   -5.9230   19.6180  -32.4560 C   0  0  0  0  0  0  0  0  0  0  0  0
   -7.0740   20.3770  -32.2290 C   0  0  0  0  0  0  0  0  0  0  0  0
   -8.3260   19.7410  -32.2010 C   0  0  0  0  0  0  0  0  0  0  0  0
   -9.4850   20.4770  -31.9690 C   0  0  0  0  0  0  0  0  0  0  0  0
   -9.4080   21.8510  -31.7600 C   0  0  0  0  0  0  0  0  0  0  0  0
   -8.1730   22.5010  -31.7870 C   0  0  0  0  0  0  0  0  0  0  0  0
   -6.9770   21.7810  -32.0250 C   0  0  0  0  0  0  0  0  0  0  0  0
   -5.6910   22.4040  -32.0620 C   0  0  0  0  0  0  0  0  0  0  0  0
   -5.4870   23.9040  -31.8590 C   0  0  0  0  0  0  0  0  0  0  0  0
   -4.4670   24.2030  -30.8370 N   0  0  0  0  0  0  0  0  0  0  0  0
   -5.0320   24.5100  -29.5130 C   0  0  0  0  0  0  0  0  0  0  0  0
   -4.2850   23.7580  -28.3840 C   0  0  0  0  0  0  0  0  0  0  0  0
   -3.0020   24.4950  -27.9490 C   0  0  0  0  0  0  0  0  0  0  0  0
   -1.8870   24.4180  -29.0150 C   0  0  0  0  0  0  0  0  0  0  0  0
   -1.8820   23.1620  -29.7920 N   0  0  0  0  0  0  0  0  0  0  0  0
   -2.4840   22.0390  -29.0650 C   0  0  0  0  0  0  0  0  0  0  0  0
   -3.9770   22.2900  -28.7870 C   0  0  0  0  0  0  0  0  0  0  0  0
   -1.5770   21.2995  -31.6011 H   0  0  0  0  0  0  0  0  0  0  0  0
   -2.2364   20.6361  -33.1347 H   0  0  0  0  0  0  0  0  0  0  0  0
   -1.3758   22.2128  -33.1347 H   0  0  0  0  0  0  0  0  0  0  0  0
   -3.7761   19.6118  -32.6594 H   0  0  0  0  0  0  0  0  0  0  0  0
   -6.0071   18.5326  -32.6137 H   0  0  0  0  0  0  0  0  0  0  0  0
   -8.3913   18.6550  -32.3633 H   0  0  0  0  0  0  0  0  0  0  0  0
  -10.4622   19.9722  -31.9509 H   0  0  0  0  0  0  0  0  0  0  0  0
  -10.3256   22.4279  -31.5725 H   0  0  0  0  0  0  0  0  0  0  0  0
   -8.1282   23.5875  -31.6211 H   0  0  0  0  0  0  0  0  0  0  0  0
   -5.1705   24.3492  -32.8138 H   0  0  0  0  0  0  0  0  0  0  0  0
   -6.4413   24.3266  -31.5117 H   0  0  0  0  0  0  0  0  0  0  0  0
   -3.8240   23.3840  -30.7420 H   0  0  0  0  0  0  0  0  0  0  0  0
   -4.9527   25.5924  -29.3337 H   0  0  0  0  0  0  0  0  0  0  0  0
   -6.0830   24.1854  -29.5046 H   0  0  0  0  0  0  0  0  0  0  0  0
   -4.9589   23.7355  -27.5149 H   0  0  0  0  0  0  0  0  0  0  0  0
   -3.2460   25.5524  -27.7692 H   0  0  0  0  0  0  0  0  0  0  0  0
   -2.6279   24.0063  -27.0373 H   0  0  0  0  0  0  0  0  0  0  0  0
   -2.0192   25.2565  -29.7145 H   0  0  0  0  0  0  0  0  0  0  0  0
   -0.9291   24.4617  -28.4761 H   0  0  0  0  0  0  0  0  0  0  0  0
   -2.4080   23.3020  -30.6870 H   0  0  0  0  0  0  0  0  0  0  0  0
   -2.3803   21.1248  -29.6679 H   0  0  0  0  0  0  0  0  0  0  0  0
   -1.9645   21.9302  -28.1015 H   0  0  0  0  0  0  0  0  0  0  0  0
   -4.5473   22.0499  -29.6965 H   0  0  0  0  0  0  0  0  0  0  0  0
   -4.2640   21.6507  -27.9391 H   0  0  0  0  0  0  0  0  0  0  0  0
  1  2  1  0
  2  3  1  0
  3  4  2  0
  4  5  1  0
  5  6  2  0
  6  7  1  0
  7  8  2  0
  8  9  1  0
  9 10  2  0
 10 11  1  0
 11 12  2  0
 12 13  1  0
 13 14  1  0
 14 15  1  0
 15 16  1  0
 16 17  1  0
 17 18  1  0
 18 19  1  0
 19 20  1  0
 20 21  1  0
 12  3  1  0
 21 16  1  0
 11  6  1  0
  1 22  1  0
  1 23  1  0
  1 24  1  0
  4 25  1  0
  5 26  1  0
  7 27  1  0
  8 28  1  0
  9 29  1  0
 10 30  1  0
 13 31  1  0
 13 32  1  0
 14 33  1  0
 15 34  1  0
 15 35  1  0
 16 36  1  0
 17 37  1  0
 17 38  1  0
 18 39  1  0
 18 40  1  0
 19 41  1  0
 20 42  1  0
 20 43  1  0
 21 44  1  0
 21 45  1  0
M  END
>  <UniqueID>  (8) 
8

>  <SMILES>  (8) 
COc1ccc2ccccc2c1CNCC1CCNCC1

>  <Energy>  (8) 
59.60938555854345

>  <Genealogy>  (8) 
COc1ccc2ccccc2c1CNCC1CCNCC1 (3D coordinates assigned)
COc1ccc2ccccc2c1CNCC1CCNCC1 (nonaromatic ring conformer: 59.60938555854345 kcal/mol)

>  <smiles>  (8) 
COc1ccc2ccccc2c1CNCC1CCNCC1

>  <score_type>  (8) 
oracle

>  <origin>  (8) 
adg

>  <m_score__min__energy>  (8) 
-7.3399999999999999

>  <m_primary>  (8) 
energy

$$$$
8:0
     RDKit          3D

 52 54  0  0  0  0  0  0  0  0999 V2000
   -6.4490   17.5340  -31.5930 C   0  0  0  0  0  0  0  0  0  0  0  0
   -7.2760   18.0190  -32.7790 C   0  0  0  0  0  0  0  0  0  0  0  0
   -7.8490   19.3340  -32.4980 N   0  0  0  0  0  0  0  0  0  0  0  0
   -9.0850   19.5010  -32.0540 N   0  0  0  0  0  0  0  0  0  0  0  0
   -9.2870   20.8210  -31.8810 C   0  0  0  0  0  0  0  0  0  0  0  0
   -8.1430   21.5150  -32.2200 C   0  0  0  0  0  0  0  0  0  0  0  0
   -7.2400   20.5380  -32.5910 C   0  0  0  0  0  0  0  0  0  0  0  0
   -5.8450   20.7900  -33.0940 C   0  0  0  0  0  0  0  0  0  0  0  0
   -4.8640   20.4750  -32.0360 N   0  0  0  0  0  0  0  0  0  0  0  0
   -3.4640   20.5230  -32.4860 C   0  0  0  0  0  0  0  0  0  0  0  0
   -2.9230   21.9570  -32.5740 C   0  0  0  0  0  0  0  0  0  0  0  0
   -3.1570   22.7320  -31.3400 N   0  0  0  0  0  0  0  0  0  0  0  0
   -2.0260   22.8080  -30.3890 C   0  0  0  0  0  0  0  0  0  0  0  0
   -1.9600   21.6430  -29.4320 C   0  0  0  0  0  0  0  0  0  0  0  0
   -2.8600   21.5490  -28.3600 C   0  0  0  0  0  0  0  0  0  0  0  0
   -2.7950   20.4640  -27.4850 C   0  0  0  0  0  0  0  0  0  0  0  0
   -1.8370   19.4710  -27.6980 C   0  0  0  0  0  0  0  0  0  0  0  0
   -0.9830   19.5610  -28.7540 N   0  0  0  0  0  0  0  0  0  0  0  0
   -1.0290   20.6100  -29.6200 C   0  0  0  0  0  0  0  0  0  0  0  0
   -4.5140   22.6460  -30.7550 C   0  0  1  0  0  0  0  0  0  0  0  0
   -5.4240   23.6900  -31.4420 C   0  0  0  0  0  0  0  0  0  0  0  0
   -5.3670   25.0970  -30.8260 C   0  0  0  0  0  0  0  0  0  0  0  0
   -4.0630   25.6120  -30.8510 O   0  0  0  0  0  0  0  0  0  0  0  0
   -5.0690   21.1940  -30.7660 C   0  0  0  0  0  0  0  0  0  0  0  0
   -6.9459   17.8254  -30.6559 H   0  0  0  0  0  0  0  0  0  0  0  0
   -6.3567   16.4386  -31.6338 H   0  0  0  0  0  0  0  0  0  0  0  0
   -5.4480   17.9881  -31.6338 H   0  0  0  0  0  0  0  0  0  0  0  0
   -6.6305   18.0874  -33.6670 H   0  0  0  0  0  0  0  0  0  0  0  0
   -8.0933   17.3052  -32.9593 H   0  0  0  0  0  0  0  0  0  0  0  0
  -10.2220   21.2772  -31.5237 H   0  0  0  0  0  0  0  0  0  0  0  0
   -7.9856   22.6035  -32.1993 H   0  0  0  0  0  0  0  0  0  0  0  0
   -5.6529   20.1537  -33.9705 H   0  0  0  0  0  0  0  0  0  0  0  0
   -5.7472   21.8491  -33.3745 H   0  0  0  0  0  0  0  0  0  0  0  0
   -2.8454   19.9557  -31.7750 H   0  0  0  0  0  0  0  0  0  0  0  0
   -3.4225   20.0879  -33.4954 H   0  0  0  0  0  0  0  0  0  0  0  0
   -1.8400   21.9134  -32.7619 H   0  0  0  0  0  0  0  0  0  0  0  0
   -3.4581   22.4639  -33.3906 H   0  0  0  0  0  0  0  0  0  0  0  0
   -1.0893   22.8381  -30.9649 H   0  0  0  0  0  0  0  0  0  0  0  0
   -2.1751   23.7141  -29.7833 H   0  0  0  0  0  0  0  0  0  0  0  0
   -3.6180   22.3317  -28.2090 H   0  0  0  0  0  0  0  0  0  0  0  0
   -3.4912   20.3918  -26.6364 H   0  0  0  0  0  0  0  0  0  0  0  0
   -1.7723   18.6143  -27.0111 H   0  0  0  0  0  0  0  0  0  0  0  0
   -0.2770   18.8050  -28.9050 H   0  0  0  0  0  0  0  0  0  0  0  0
   -0.3332   20.6482  -30.4711 H   0  0  0  0  0  0  0  0  0  0  0  0
   -4.4775   22.8995  -29.6852 H   0  0  0  0  0  0  0  0  0  0  0  0
   -5.1226   23.7656  -32.4972 H   0  0  0  0  0  0  0  0  0  0  0  0
   -6.4570   23.3354  -31.3110 H   0  0  0  0  0  0  0  0  0  0  0  0
   -6.0272   25.7655  -31.3980 H   0  0  0  0  0  0  0  0  0  0  0  0
   -5.6938   25.0304  -29.7778 H   0  0  0  0  0  0  0  0  0  0  0  0
   -3.4890   24.9110  -31.2570 H   0  0  0  0  0  0  0  0  0  0  0  0
   -4.5695   20.6284  -29.9656 H   0  0  0  0  0  0  0  0  0  0  0  0
   -6.1566   21.2718  -30.6206 H   0  0  0  0  0  0  0  0  0  0  0  0
  1  2  1  0
  2  3  1  0
  3  4  1  0
  4  5  2  0
  5  6  1  0
  6  7  2  0
  7  8  1  0
  8  9  1  0
  9 10  1  0
 10 11  1  0
 11 12  1  0
 12 13  1  0
 13 14  1  0
 14 15  2  0
 15 16  1  0
 16 17  2  0
 17 18  1  0
 18 19  2  0
 12 20  1  0
 20 21  1  0
 21 22  1  0
 22 23  1  0
 20 24  1  0
  7  3  1  0
 24  9  1  0
 19 14  1  0
  1 25  1  0
  1 26  1  0
  1 27  1  0
  2 28  1  0
  2 29  1  0
  5 30  1  0
  6 31  1  0
  8 32  1  0
  8 33  1  0
 10 34  1  0
 10 35  1  0
 11 36  1  0
 11 37  1  0
 13 38  1  0
 13 39  1  0
 15 40  1  0
 16 41  1  0
 17 42  1  0
 18 43  1  0
 19 44  1  0
 20 45  1  1
 21 46  1  0
 21 47  1  0
 22 48  1  0
 22 49  1  0
 23 50  1  0
 24 51  1  0
 24 52  1  0
M  CHG  1  18   1
M  END
>  <UniqueID>  (9) 
9

>  <SMILES>  (9) 
CCn1nccc1CN1CCN(Cc2ccc[nH+]c2)[C@@H](CCO)C1

>  <Energy>  (9) 
92.07200998655553

>  <Genealogy>  (9) 
CCn1nccc1CN1CCN(Cc2ccc[nH+]c2)C(CCO)C1 (protonated)
CCn1nccc1CN1CCN(Cc2ccc[nH+]c2)[C@@H](CCO)C1 (chirality)
CCn1nccc1CN1CCN(Cc2ccc[nH+]c2)[C@@H](CCO)C1 (3D coordinates assigned)
CCn1nccc1CN1CCN(Cc2ccc[nH+]c2)[C@@H](CCO)C1 (nonaromatic ring conformer: 92.07200998655553 kcal/mol)

>  <smiles>  (9) 
CCn1nccc1CN1CCN(Cc2cccnc2)C(CCO)C1

>  <score_type>  (9) 
oracle

>  <origin>  (9) 
adg

>  <m_score__min__energy>  (9) 
-7.2800000000000002

>  <m_primary>  (9) 
energy

$$$$
9:0
     RDKit          3D

 32 34  0  0  0  0  0  0  0  0999 V2000
   -2.4150   24.5300  -28.9650 C   0  0  0  0  0  0  0  0  0  0  0  0
   -3.1960   24.9250  -30.0870 O   0  0  0  0  0  0  0  0  0  0  0  0
   -4.4070   24.3250  -30.4630 C   0  0  0  0  0  0  0  0  0  0  0  0
   -5.5970   24.9720  -30.1300 C   0  0  0  0  0  0  0  0  0  0  0  0
   -6.8260   24.4140  -30.4750 C   0  0  0  0  0  0  0  0  0  0  0  0
   -6.8950   23.2020  -31.1720 C   0  0  0  0  0  0  0  0  0  0  0  0
   -5.6960   22.5290  -31.5270 C   0  0  0  0  0  0  0  0  0  0  0  0
   -4.4620   23.0980  -31.1480 C   0  0  0  0  0  0  0  0  0  0  0  0
   -5.6900   21.1100  -32.0630 C   0  0  2  0  0  0  0  0  0  0  0  0
   -4.6020   20.9120  -32.9460 O   0  0  0  0  0  0  0  0  0  0  0  0
   -4.3420   19.5260  -33.1480 C   0  0  0  0  0  0  0  0  0  0  0  0
   -5.5790   18.5980  -33.0540 C   0  0  0  0  0  0  0  0  0  0  0  0
   -6.8700   19.3270  -33.4480 C   0  0  0  0  0  0  0  0  0  0  0  0
   -6.9800   20.7410  -32.8140 C   0  0  1  0  0  0  0  0  0  0  0  0
   -8.1800   20.8840  -31.8770 C   0  0  0  0  0  0  0  0  0  0  0  0
   -8.5470   22.6510  -31.6650 S   0  0  0  0  0  0  0  0  0  0  0  0
   -2.9435   24.7973  -28.0380 H   0  0  0  0  0  0  0  0  0  0  0  0
   -2.2542   23.4422  -28.9948 H   0  0  0  0  0  0  0  0  0  0  0  0
   -1.4435   25.0452  -28.9948 H   0  0  0  0  0  0  0  0  0  0  0  0
   -5.5648   25.9302  -29.5908 H   0  0  0  0  0  0  0  0  0  0  0  0
   -7.7549   24.9329  -30.1959 H   0  0  0  0  0  0  0  0  0  0  0  0
   -3.5268   22.5730  -31.3925 H   0  0  0  0  0  0  0  0  0  0  0  0
   -5.6036   20.4623  -31.1781 H   0  0  0  0  0  0  0  0  0  0  0  0
   -3.9024   19.4054  -34.1491 H   0  0  0  0  0  0  0  0  0  0  0  0
   -3.6711   19.2210  -32.3314 H   0  0  0  0  0  0  0  0  0  0  0  0
   -5.4336   17.7416  -33.7289 H   0  0  0  0  0  0  0  0  0  0  0  0
   -5.6789   18.2664  -32.0099 H   0  0  0  0  0  0  0  0  0  0  0  0
   -6.8955   19.4297  -34.5429 H   0  0  0  0  0  0  0  0  0  0  0  0
   -7.7149   18.7298  -33.0745 H   0  0  0  0  0  0  0  0  0  0  0  0
   -7.1311   21.4379  -33.6515 H   0  0  0  0  0  0  0  0  0  0  0  0
   -9.0523   20.3745  -32.3124 H   0  0  0  0  0  0  0  0  0  0  0  0
   -7.9502   20.4295  -30.9020 H   0  0  0  0  0  0  0  0  0  0  0  0
  1  2  1  0
  2  3  1  0
  3  4  2  0
  4  5  1  0
  5  6  2  0
  6  7  1  0
  7  8  2  0
  7  9  1  0
  9 10  1  0
 10 11  1  0
 11 12  1  0
 12 13  1  0
 13 14  1  0
 14 15  1  0
 15 16  1  0
  8  3  1  0
 14  9  1  0
 16  6  1  0
  1 17  1  0
  1 18  1  0
  1 19  1  0
  4 20  1  0
  5 21  1  0
  8 22  1  0
  9 23  1  1
 11 24  1  0
 11 25  1  0
 12 26  1  0
 12 27  1  0
 13 28  1  0
 13 29  1  0
 14 30  1  6
 15 31  1  0
 15 32  1  0
M  END
>  <UniqueID>  (10) 
10

>  <SMILES>  (10) 
COc1ccc2c(c1)[C@@H]1OCCC[C@H]1CS2

>  <Energy>  (10) 
53.46395698244654

>  <Genealogy>  (10) 
COc1ccc2c(c1)[C@@H]1OCCC[C@H]1CS2 (chirality)
COc1ccc2c(c1)[C@@H]1OCCC[C@H]1CS2 (3D coordinates assigned)
COc1ccc2c(c1)[C@@H]1OCCC[C@H]1CS2 (nonaromatic ring conformer: 53.46395698244654 kcal/mol)

>  <smiles>  (10) 
COc1ccc2c(c1)C1OCCCC1CS2

>  <score_type>  (10) 
oracle

>  <origin>  (10) 
adg

>  <m_score__min__energy>  (10) 
-7.7400000000000002

>  <m_primary>  (10) 
energy

$$$$
10:0
     RDKit          3D

 40 42  0  0  0  0  0  0  0  0999 V2000
   -2.5630   25.3050  -25.9740 C   0  0  0  0  0  0  0  0  0  0  0  0
   -1.1900   24.8070  -26.3380 C   0  0  0  0  0  0  0  0  0  0  0  0
   -0.4980   23.9750  -25.4440 C   0  0  0  0  0  0  0  0  0  0  0  0
    0.7670   23.4860  -25.7700 C   0  0  0  0  0  0  0  0  0  0  0  0
    1.3360   23.8330  -26.9930 C   0  0  0  0  0  0  0  0  0  0  0  0
    0.6670   24.6490  -27.8470 N   0  0  0  0  0  0  0  0  0  0  0  0
   -0.5610   25.1640  -27.5550 C   0  0  0  0  0  0  0  0  0  0  0  0
   -1.2420   26.0230  -28.5920 C   0  0  0  0  0  0  0  0  0  0  0  0
   -2.2590   25.2570  -29.3020 N   0  0  0  0  0  0  0  0  0  0  0  0
   -2.0840   23.8980  -29.7150 C   0  0  0  0  0  0  0  0  0  0  0  0
   -0.9520   23.3510  -29.6240 O   0  0  0  0  0  0  0  0  0  0  0  0
   -3.2190   23.1390  -30.2740 C   0  0  0  0  0  0  0  0  0  0  0  0
   -4.3980   23.6860  -30.7400 C   0  0  0  0  0  0  0  0  0  0  0  0
   -5.1430   22.5940  -31.1430 C   0  0  0  0  0  0  0  0  0  0  0  0
   -6.8950   22.6580  -31.8890 Br  0  0  0  0  0  0  0  0  0  0  0  0
   -4.4490   21.4570  -30.9430 N   0  0  0  0  0  0  0  0  0  0  0  0
   -3.2850   21.7950  -30.4140 N   0  0  0  0  0  0  0  0  0  0  0  0
   -2.2440   20.8480  -30.1440 C   0  0  0  0  0  0  0  0  0  0  0  0
   -1.4880   20.3120  -31.2000 C   0  0  0  0  0  0  0  0  0  0  0  0
   -1.8460   20.7290  -32.8700 Cl  0  0  0  0  0  0  0  0  0  0  0  0
   -0.4380   19.4270  -30.9300 C   0  0  0  0  0  0  0  0  0  0  0  0
   -0.1220   19.0770  -29.6070 C   0  0  0  0  0  0  0  0  0  0  0  0
    0.9890   18.0950  -29.3280 C   0  0  0  0  0  0  0  0  0  0  0  0
    0.6610   17.2830  -28.2570 F   0  0  0  0  0  0  0  0  0  0  0  0
    2.1460   18.7900  -29.0310 F   0  0  0  0  0  0  0  0  0  0  0  0
    1.2190   17.2850  -30.4280 F   0  0  0  0  0  0  0  0  0  0  0  0
   -0.9090   19.5840  -28.5580 C   0  0  0  0  0  0  0  0  0  0  0  0
   -1.9590   20.4700  -28.8220 C   0  0  0  0  0  0  0  0  0  0  0  0
   -2.8920   21.1160  -27.4790 Cl  0  0  0  0  0  0  0  0  0  0  0  0
   -2.6617   25.3408  -24.8790 H   0  0  0  0  0  0  0  0  0  0  0  0
   -2.7091   26.3134  -26.3885 H   0  0  0  0  0  0  0  0  0  0  0  0
   -3.3216   24.6247  -26.3885 H   0  0  0  0  0  0  0  0  0  0  0  0
   -0.9561   23.7070  -24.4805 H   0  0  0  0  0  0  0  0  0  0  0  0
    1.3089   22.8339  -25.0693 H   0  0  0  0  0  0  0  0  0  0  0  0
    2.3283   23.4455  -27.2671 H   0  0  0  0  0  0  0  0  0  0  0  0
   -1.7169   26.8819  -28.0953 H   0  0  0  0  0  0  0  0  0  0  0  0
   -0.4897   26.3712  -29.3151 H   0  0  0  0  0  0  0  0  0  0  0  0
   -4.6799   24.7485  -30.7811 H   0  0  0  0  0  0  0  0  0  0  0  0
    0.1445   19.0021  -31.7607 H   0  0  0  0  0  0  0  0  0  0  0  0
   -0.6975   19.2817  -27.5217 H   0  0  0  0  0  0  0  0  0  0  0  0
  1  2  1  0
  2  3  2  0
  3  4  1  0
  4  5  2  0
  5  6  1  0
  6  7  2  0
  7  8  1  0
  8  9  1  0
  9 10  1  0
 10 11  2  0
 10 12  1  0
 12 13  2  0
 13 14  1  0
 14 15  1  0
 14 16  2  0
 16 17  1  0
 17 18  1  0
 18 19  2  0
 19 20  1  0
 19 21  1  0
 21 22  2  0
 22 23  1  0
 23 24  1  0
 23 25  1  0
 23 26  1  0
 22 27  1  0
 27 28  2  0
 28 29  1  0
  7  2  1  0
 17 12  1  0
 28 18  1  0
  1 30  1  0
  1 31  1  0
  1 32  1  0
  3 33  1  0
  4 34  1  0
  5 35  1  0
  8 36  1  0
  8 37  1  0
 13 38  1  0
 21 39  1  0
 27 40  1  0
M  CHG  1   9  -1
M  END
>  <UniqueID>  (11) 
11

>  <SMILES>  (11) 
Cc1cccnc1C[N-]C(=O)c1cc(Br)nn1-c1c(Cl)cc(C(F)(F)F)cc1Cl

>  <Energy>  (11) 
79.01273926643906

>  <Genealogy>  (11) 
Cc1cccnc1C[N-]C(=O)c1cc(Br)nn1-c1c(Cl)cc(C(F)(F)F)cc1Cl (protonated)
Cc1cccnc1C[N-]C(=O)c1cc(Br)nn1-c1c(Cl)cc(C(F)(F)F)cc1Cl (3D coordinates assigned)
Cc1cccnc1C[N-]C(=O)c1cc(Br)nn1-c1c(Cl)cc(C(F)(F)F)cc1Cl (optimized conformer: 79.01273926643906 kcal/mol)

>  <smiles>  (11) 
Cc1cccnc1CNC(=O)c1cc(Br)nn1-c1c(Cl)cc(C(F)(F)F)cc1Cl

>  <score_type>  (11) 
oracle

>  <origin>  (11) 
adg

>  <m_score__min__energy>  (11) 
-9.5500000000000007

>  <m_primary>  (11) 
energy

$$$$
11:0
     RDKit          3D

 50 53  0  0  0  0  0  0  0  0999 V2000
   -3.9590   24.7520  -26.9900 C   0  0  0  0  0  0  0  0  0  0  0  0
   -3.9660   23.8790  -28.1990 C   0  0  0  0  0  0  0  0  0  0  0  0
   -3.9560   22.4920  -28.1980 C   0  0  0  0  0  0  0  0  0  0  0  0
   -3.8740   21.9390  -29.4810 C   0  0  0  0  0  0  0  0  0  0  0  0
   -3.8120   22.8930  -30.5040 C   0  0  0  0  0  0  0  0  0  0  0  0
   -3.6730   22.6940  -32.0130 C   0  0  1  0  0  0  0  0  0  0  0  0
   -2.5710   21.8020  -32.4820 C   0  0  1  0  0  0  0  0  0  0  0  0
   -1.6330   21.2080  -31.4430 C   0  0  0  0  0  0  0  0  0  0  0  0
   -1.3890   19.8220  -31.3350 C   0  0  0  0  0  0  0  0  0  0  0  0
   -0.5150   19.3330  -30.3590 C   0  0  0  0  0  0  0  0  0  0  0  0
    0.1330   20.2140  -29.4910 C   0  0  0  0  0  0  0  0  0  0  0  0
   -0.0890   21.5880  -29.5990 C   0  0  0  0  0  0  0  0  0  0  0  0
   -0.9610   22.0840  -30.5720 C   0  0  0  0  0  0  0  0  0  0  0  0
   -3.6080   20.8540  -33.0930 C   0  0  0  0  0  0  0  0  0  0  0  0
   -3.5680   19.8070  -33.7190 O   0  0  0  0  0  0  0  0  0  0  0  0
   -4.6400   21.8340  -32.7020 N   0  0  1  0  0  0  0  0  0  0  0  0
   -5.7780   21.2410  -31.9420 C   0  0  0  0  0  0  0  0  0  0  0  0
   -6.6660   20.3420  -32.8580 C   0  0  0  0  0  0  0  0  0  0  0  0
   -7.7110   19.5060  -32.0950 C   0  0  0  0  0  0  0  0  0  0  0  0
   -9.1140   20.1270  -31.9610 C   0  0  0  0  0  0  0  0  0  0  0  0
   -9.1260   21.5550  -31.3920 C   0  0  0  0  0  0  0  0  0  0  0  0
   -8.0570   22.4540  -32.0390 C   0  0  0  0  0  0  0  0  0  0  0  0
   -6.6860   22.3650  -31.3570 C   0  0  0  0  0  0  0  0  0  0  0  0
   -3.8340   24.4170  -29.7820 S   0  0  0  0  0  0  0  0  0  0  0  0
   -3.9640   24.1259  -26.0856 H   0  0  0  0  0  0  0  0  0  0  0  0
   -3.0558   25.3798  -26.9963 H   0  0  0  0  0  0  0  0  0  0  0  0
   -4.8520   25.3942  -26.9963 H   0  0  0  0  0  0  0  0  0  0  0  0
   -4.0074   21.8872  -27.2806 H   0  0  0  0  0  0  0  0  0  0  0  0
   -3.8596   20.8552  -29.6684 H   0  0  0  0  0  0  0  0  0  0  0  0
   -3.6601   23.7740  -32.2214 H   0  0  0  0  0  0  0  0  0  0  0  0
   -1.7577   22.2220  -33.0921 H   0  0  0  0  0  0  0  0  0  0  0  0
   -1.8887   19.1231  -32.0219 H   0  0  0  0  0  0  0  0  0  0  0  0
   -0.3374   18.2507  -30.2748 H   0  0  0  0  0  0  0  0  0  0  0  0
    0.8178   19.8258  -28.7227 H   0  0  0  0  0  0  0  0  0  0  0  0
    0.4237   22.2819  -28.9166 H   0  0  0  0  0  0  0  0  0  0  0  0
   -1.1231   23.1687  -30.6572 H   0  0  0  0  0  0  0  0  0  0  0  0
   -4.9960   22.3030  -33.5700 H   0  0  0  0  0  0  0  0  0  0  0  0
   -5.3432   20.6335  -31.1346 H   0  0  0  0  0  0  0  0  0  0  0  0
   -7.1961   20.9914  -33.5702 H   0  0  0  0  0  0  0  0  0  0  0  0
   -5.9907   19.6297  -33.3545 H   0  0  0  0  0  0  0  0  0  0  0  0
   -7.8184   18.5445  -32.6184 H   0  0  0  0  0  0  0  0  0  0  0  0
   -7.3272   19.4225  -31.0675 H   0  0  0  0  0  0  0  0  0  0  0  0
   -9.5763   20.1506  -32.9589 H   0  0  0  0  0  0  0  0  0  0  0  0
   -9.6672   19.5001  -31.2461 H   0  0  0  0  0  0  0  0  0  0  0  0
  -10.1164   21.9985  -31.5719 H   0  0  0  0  0  0  0  0  0  0  0  0
   -8.9027   21.4893  -30.3169 H   0  0  0  0  0  0  0  0  0  0  0  0
   -7.9420   22.1555  -33.0915 H   0  0  0  0  0  0  0  0  0  0  0  0
   -8.4027   23.4930  -31.9345 H   0  0  0  0  0  0  0  0  0  0  0  0
   -6.1713   23.3293  -31.4806 H   0  0  0  0  0  0  0  0  0  0  0  0
   -6.8637   22.1226  -30.2989 H   0  0  0  0  0  0  0  0  0  0  0  0
  1  2  1  0
  2  3  2  0
  3  4  1  0
  4  5  2  0
  5  6  1  0
  6  7  1  0
  7  8  1  0
  8  9  2  0
  9 10  1  0
 10 11  2  0
 11 12  1  0
 12 13  2  0
  7 14  1  0
 14 15  2  0
 14 16  1  0
 16 17  1  0
 17 18  1  0
 18 19  1  0
 19 20  1  0
 20 21  1  0
 21 22  1  0
 22 23  1  0
  5 24  1  0
 24  2  1  0
 16  6  1  0
 23 17  1  0
 13  8  1  0
  1 25  1  0
  1 26  1  0
  1 27  1  0
  3 28  1  0
  4 29  1  0
  6 30  1  6
  7 31  1  6
  9 32  1  0
 10 33  1  0
 11 34  1  0
 12 35  1  0
 13 36  1  0
 16 37  1  6
 17 38  1  0
 18 39  1  0
 18 40  1  0
 19 41  1  0
 19 42  1  0
 20 43  1  0
 20 44  1  0
 21 45  1  0
 21 46  1  0
 22 47  1  0
 22 48  1  0
 23 49  1  0
 23 50  1  0
M  CHG  1  16   1
M  END
>  <UniqueID>  (12) 
12

>  <SMILES>  (12) 
Cc1ccc([C@H]2[C@@H](c3ccccc3)C(=O)[NH+]2C2CCCCCC2)s1

>  <Energy>  (12) 
146.5008923184861

>  <Genealogy>  (12) 
Cc1ccc(C2C(c3ccccc3)C(=O)[NH+]2C2CCCCCC2)s1 (protonated)
Cc1ccc([C@H]2[C@@H](c3ccccc3)C(=O)[NH+]2C2CCCCCC2)s1 (chirality)
Cc1ccc([C@H]2[C@@H](c3ccccc3)C(=O)[NH+]2C2CCCCCC2)s1 (3D coordinates assigned)
Cc1ccc([C@H]2[C@@H](c3ccccc3)C(=O)[NH+]2C2CCCCCC2)s1 (nonaromatic ring conformer: 146.5008923184861 kcal/mol)

>  <smiles>  (12) 
Cc1ccc(C2C(c3ccccc3)C(=O)N2C2CCCCCC2)s1

>  <score_type>  (12) 
oracle

>  <origin>  (12) 
adg

>  <m_score__min__energy>  (12) 
-6.0700000000000003

>  <m_primary>  (12) 
energy

$$$$
12:0
     RDKit          3D

 43 45  0  0  0  0  0  0  0  0999 V2000
  -10.3241   22.4473  -31.1692 H   0  0  0  0  0  0  0  0  0  0  0  0
   -9.4710   21.8920  -31.5860 C   0  0  0  0  0  0  0  0  0  0  0  0
   -9.6840   20.6700  -32.2290 C   0  0  0  0  0  0  0  0  0  0  0  0
  -10.7042   20.2681  -32.3169 H   0  0  0  0  0  0  0  0  0  0  0  0
   -8.6070   19.9560  -32.7610 C   0  0  0  0  0  0  0  0  0  0  0  0
   -8.7804   18.9939  -33.2652 H   0  0  0  0  0  0  0  0  0  0  0  0
   -7.3020   20.4670  -32.6520 C   0  0  0  0  0  0  0  0  0  0  0  0
   -7.0850   21.7080  -31.9990 C   0  0  0  0  0  0  0  0  0  0  0  0
   -8.1790   22.4120  -31.4700 C   0  0  0  0  0  0  0  0  0  0  0  0
   -8.0186   23.3750  -30.9631 H   0  0  0  0  0  0  0  0  0  0  0  0
   -5.8140   22.2090  -31.8910 N   0  0  0  0  0  0  0  0  0  0  0  0
   -5.6810   23.1240  -31.4060 H   0  0  0  0  0  0  0  0  0  0  0  0
   -4.7340   21.5320  -32.4030 C   0  0  0  0  0  0  0  0  0  0  0  0
   -3.5200   21.9930  -32.3160 N   0  0  0  0  0  0  0  0  0  0  0  0
   -2.7010   22.0430  -31.1080 C   0  0  0  0  0  0  0  0  0  0  0  0
   -1.6469   21.8786  -31.3760 H   0  0  0  0  0  0  0  0  0  0  0  0
   -3.0368   21.2597  -30.4126 H   0  0  0  0  0  0  0  0  0  0  0  0
   -2.8450   23.4140  -30.4290 C   0  0  0  0  0  0  0  0  0  0  0  0
   -2.5042   24.1859  -31.1347 H   0  0  0  0  0  0  0  0  0  0  0  0
   -2.2390   23.3776  -29.5117 H   0  0  0  0  0  0  0  0  0  0  0  0
   -4.2270   23.7430  -30.0130 N   0  0  0  0  0  0  0  0  0  0  0  0
   -4.7050   25.0670  -30.4700 C   0  0  0  0  0  0  0  0  0  0  0  0
   -4.6295   25.1190  -31.5662 H   0  0  0  0  0  0  0  0  0  0  0  0
   -4.0824   25.8461  -30.0060 H   0  0  0  0  0  0  0  0  0  0  0  0
   -6.1580   25.2910  -30.0570 C   0  0  0  0  0  0  0  0  0  0  0  0
   -6.2297   25.3020  -28.9594 H   0  0  0  0  0  0  0  0  0  0  0  0
   -6.5086   26.2538  -30.4571 H   0  0  0  0  0  0  0  0  0  0  0  0
   -6.7823   24.4785  -30.4571 H   0  0  0  0  0  0  0  0  0  0  0  0
   -4.5950   23.3270  -28.6370 C   0  0  0  0  0  0  0  0  0  0  0  0
   -5.6819   23.4509  -28.5218 H   0  0  0  0  0  0  0  0  0  0  0  0
   -4.2617   22.2841  -28.5306 H   0  0  0  0  0  0  0  0  0  0  0  0
   -3.9030   24.1170  -27.5150 C   0  0  0  0  0  0  0  0  0  0  0  0
   -4.2368   23.7359  -26.5386 H   0  0  0  0  0  0  0  0  0  0  0  0
   -2.8128   23.9985  -27.6017 H   0  0  0  0  0  0  0  0  0  0  0  0
   -4.1641   25.1821  -27.6017 H   0  0  0  0  0  0  0  0  0  0  0  0
   -4.9670   20.3110  -33.0430 C   0  0  0  0  0  0  0  0  0  0  0  0
   -4.0510   19.4640  -33.6390 C   0  0  0  0  0  0  0  0  0  0  0  0
   -2.9623   19.6050  -33.7083 H   0  0  0  0  0  0  0  0  0  0  0  0
   -4.7910   18.4000  -34.1310 C   0  0  0  0  0  0  0  0  0  0  0  0
   -4.3980   17.5256  -34.6705 H   0  0  0  0  0  0  0  0  0  0  0  0
   -6.1190   18.6440  -33.8160 C   0  0  0  0  0  0  0  0  0  0  0  0
   -6.9640   17.9861  -34.0672 H   0  0  0  0  0  0  0  0  0  0  0  0
   -6.2120   19.8170  -33.1520 N   0  0  0  0  0  0  0  0  0  0  0  0
  1  2  1  0
  2  3  2  0
  3  4  1  0
  3  5  1  0
  5  6  1  0
  5  7  2  0
  7  8  1  0
  8  9  2  0
  9 10  1  0
  8 11  1  0
 11 12  1  0
 11 13  1  0
 13 14  2  0
 14 15  1  0
 15 16  1  0
 15 17  1  0
 15 18  1  0
 18 19  1  0
 18 20  1  0
 18 21  1  0
 21 22  1  0
 22 23  1  0
 22 24  1  0
 22 25  1  0
 25 26  1  0
 25 27  1  0
 25 28  1  0
 21 29  1  0
 29 30  1  0
 29 31  1  0
 29 32  1  0
 32 33  1  0
 32 34  1  0
 32 35  1  0
 13 36  1  0
 36 37  2  0
 37 38  1  0
 37 39  1  0
 39 40  1  0
 39 41  2  0
 41 42  1  0
 41 43  1  0
  9  2  1  0
 43 36  1  0
 43  7  1  0
M  END
>  <UniqueID>  (13) 
13

>  <SMILES>  (13) 
CCN(CC)CC/N=c1\[nH]c2ccccc2n2cccc12

>  <Energy>  (13) 
86.31106228841243

>  <Genealogy>  (13) 
CCN(CC)CC/N=c1\[nH]c2ccccc2n2cccc12 (cis-trans isomerization)
CCN(CC)CC/N=c1\[nH]c2ccccc2n2cccc12 (3D coordinates assigned)
CCN(CC)CC/N=c1\[nH]c2ccccc2n2cccc12 (optimized conformer: 86.31106228841243 kcal/mol)

>  <smiles>  (13) 
CCN(CC)CCN=c1[nH]c2ccccc2n2cccc12

>  <score_type>  (13) 
oracle

>  <origin>  (13) 
adg

>  <m_score__min__energy>  (13) 
-7.4800000000000004

>  <m_primary>  (13) 
energy

$$$$
13:0
     RDKit          3D

 28 29  0  0  0  0  0  0  0  0999 V2000
   -5.9828   24.6551  -31.9897 H   0  0  0  0  0  0  0  0  0  0  0  0
   -5.6260   23.7710  -31.4410 C   0  0  0  0  0  0  0  0  0  0  0  0
   -4.6820   24.0020  -30.3360 C   0  0  0  0  0  0  0  0  0  0  0  0
   -3.5660   24.6790  -30.4740 O   0  0  0  0  0  0  0  0  0  0  0  0
   -2.9170   24.6610  -29.3310 C   0  0  0  0  0  0  0  0  0  0  0  0
   -1.9520   25.1541  -29.1421 H   0  0  0  0  0  0  0  0  0  0  0  0
   -3.6310   23.9290  -28.4040 C   0  0  0  0  0  0  0  0  0  0  0  0
   -3.3499   23.7326  -27.3588 H   0  0  0  0  0  0  0  0  0  0  0  0
   -4.7660   23.4940  -29.0510 C   0  0  0  0  0  0  0  0  0  0  0  0
   -5.5717   22.8722  -28.6336 H   0  0  0  0  0  0  0  0  0  0  0  0
   -6.0900   22.5740  -31.8380 C   0  0  0  0  0  0  0  0  0  0  0  0
   -5.0930   21.2940  -32.2430 S   0  0  0  0  0  0  0  0  0  0  0  0
   -6.3410   20.2160  -32.6210 C   0  0  0  0  0  0  0  0  0  0  0  0
   -6.1020   18.9300  -32.9920 C   0  0  0  0  0  0  0  0  0  0  0  0
   -6.1040   17.8750  -32.0040 C   0  0  0  0  0  0  0  0  0  0  0  0
   -6.1050   17.0310  -31.2130 N   0  0  0  0  0  0  0  0  0  0  0  0
   -5.8730   18.4910  -34.3430 C   0  0  0  0  0  0  0  0  0  0  0  0
   -5.6740   18.1340  -35.4260 N   0  0  0  0  0  0  0  0  0  0  0  0
   -7.5540   20.8500  -32.4740 N   0  0  0  0  0  0  0  0  0  0  0  0
   -8.8930   20.2840  -32.7200 C   0  0  0  0  0  0  0  0  0  0  0  0
   -8.9843   20.0215  -33.7843 H   0  0  0  0  0  0  0  0  0  0  0  0
   -9.6501   21.0335  -32.4461 H   0  0  0  0  0  0  0  0  0  0  0  0
   -9.1120   19.0320  -31.8740 C   0  0  0  0  0  0  0  0  0  0  0  0
   -9.0656   19.2974  -30.8075 H   0  0  0  0  0  0  0  0  0  0  0  0
  -10.0988   18.6031  -32.1025 H   0  0  0  0  0  0  0  0  0  0  0  0
   -8.3294   18.2936  -32.1025 H   0  0  0  0  0  0  0  0  0  0  0  0
   -7.4080   22.1460  -32.0390 C   0  0  0  0  0  0  0  0  0  0  0  0
   -8.4020   22.9060  -31.8780 O   0  0  0  0  0  0  0  0  0  0  0  0
  1  2  1  0
  2  3  1  0
  3  4  1  0
  4  5  1  0
  5  6  1  0
  5  7  2  0
  7  8  1  0
  7  9  1  0
  9 10  1  0
  2 11  2  0
 11 12  1  0
 12 13  1  0
 13 14  2  3
 14 15  1  0
 15 16  3  0
 14 17  1  0
 17 18  3  0
 13 19  1  0
 19 20  1  0
 20 21  1  0
 20 22  1  0
 20 23  1  0
 23 24  1  0
 23 25  1  0
 23 26  1  0
 19 27  1  0
 27 28  2  0
  9  3  2  0
 27 11  1  0
M  END
>  <UniqueID>  (14) 
14

>  <SMILES>  (14) 
CCn1c(=C(C#N)C#N)s/c(=C/c2ccco2)c1=O

>  <Energy>  (14) 
98.42639521655667

>  <Genealogy>  (14) 
CCn1c(=C(C#N)C#N)s/c(=C/c2ccco2)c1=O (cis-trans isomerization)
CCn1c(=C(C#N)C#N)s/c(=C/c2ccco2)c1=O (3D coordinates assigned)
CCn1c(=C(C#N)C#N)s/c(=C/c2ccco2)c1=O (optimized conformer: 98.42639521655667 kcal/mol)

>  <smiles>  (14) 
CCn1c(=C(C#N)C#N)sc(=Cc2ccco2)c1=O

>  <score_type>  (14) 
oracle

>  <origin>  (14) 
adg

>  <m_score__min__energy>  (14) 
-6.7599999999999998

>  <m_primary>  (14) 
energy

$$$$
14:0
     RDKit          3D

 54 56  0  0  0  0  0  0  0  0999 V2000
   -8.5990   20.3090  -32.1600 C   0  0  0  0  0  0  0  0  0  0  0  0
   -7.9910   21.5880  -32.3190 O   0  0  0  0  0  0  0  0  0  0  0  0
   -6.6480   21.8700  -32.0210 C   0  0  0  0  0  0  0  0  0  0  0  0
   -5.6280   20.9170  -32.1710 C   0  0  0  0  0  0  0  0  0  0  0  0
   -4.3080   21.2380  -31.8540 C   0  0  0  0  0  0  0  0  0  0  0  0
   -3.9840   22.5170  -31.3690 C   0  0  0  0  0  0  0  0  0  0  0  0
   -2.6330   22.8930  -31.0690 N   0  0  0  0  0  0  0  0  0  0  0  0
   -1.5330   22.0340  -30.7450 C   0  0  0  0  0  0  0  0  0  0  0  0
   -0.6220   21.8400  -31.5970 O   0  0  0  0  0  0  0  0  0  0  0  0
   -1.4720   21.3380  -29.4270 C   0  0  0  0  0  0  0  0  0  0  0  0
   -1.0350   19.9950  -29.3920 C   0  0  0  0  0  0  0  0  0  0  0  0
   -0.9330   19.3040  -28.1830 C   0  0  0  0  0  0  0  0  0  0  0  0
   -1.2600   19.9350  -26.9860 C   0  0  0  0  0  0  0  0  0  0  0  0
   -1.6970   21.2590  -26.9930 C   0  0  0  0  0  0  0  0  0  0  0  0
   -1.8080   21.9720  -28.1970 C   0  0  0  0  0  0  0  0  0  0  0  0
   -2.2690   23.3300  -28.1380 N   0  0  0  0  0  0  0  0  0  0  0  0
   -3.6550   23.5820  -27.7470 C   0  0  0  0  0  0  0  0  0  0  0  0
   -1.1040   24.6210  -28.2210 S   0  0  0  0  0  0  0  0  0  0  0  0
    0.2200   24.0920  -28.7130 O   0  0  0  0  0  0  0  0  0  0  0  0
   -1.5820   25.6700  -29.1910 O   0  0  0  0  0  0  0  0  0  0  0  0
   -0.8900   25.3420  -26.6280 C   0  0  0  0  0  0  0  0  0  0  0  0
   -0.6740   24.5180  -25.5130 C   0  0  0  0  0  0  0  0  0  0  0  0
   -0.4320   25.0800  -24.2560 C   0  0  0  0  0  0  0  0  0  0  0  0
   -0.4280   26.4760  -24.0920 C   0  0  0  0  0  0  0  0  0  0  0  0
   -0.1110   27.0780  -22.7540 C   0  0  0  0  0  0  0  0  0  0  0  0
   -0.6520   27.3010  -25.2080 C   0  0  0  0  0  0  0  0  0  0  0  0
   -0.8840   26.7370  -26.4680 C   0  0  0  0  0  0  0  0  0  0  0  0
   -4.9890   23.4900  -31.2580 C   0  0  0  0  0  0  0  0  0  0  0  0
   -4.6230   24.7840  -30.8530 O   0  0  0  0  0  0  0  0  0  0  0  0
   -5.4710   25.6740  -30.1360 C   0  0  0  0  0  0  0  0  0  0  0  0
   -6.3210   23.1510  -31.5670 C   0  0  0  0  0  0  0  0  0  0  0  0
   -8.7058   20.0844  -31.0885 H   0  0  0  0  0  0  0  0  0  0  0  0
   -9.5914   20.3133  -32.6344 H   0  0  0  0  0  0  0  0  0  0  0  0
   -7.9691   19.5421  -32.6344 H   0  0  0  0  0  0  0  0  0  0  0  0
   -5.8714   19.9101  -32.5411 H   0  0  0  0  0  0  0  0  0  0  0  0
   -3.5160   20.4859  -31.9843 H   0  0  0  0  0  0  0  0  0  0  0  0
   -0.7712   19.4862  -30.3309 H   0  0  0  0  0  0  0  0  0  0  0  0
   -0.5932   18.2578  -28.1764 H   0  0  0  0  0  0  0  0  0  0  0  0
   -1.1736   19.3892  -26.0349 H   0  0  0  0  0  0  0  0  0  0  0  0
   -1.9578   21.7505  -26.0441 H   0  0  0  0  0  0  0  0  0  0  0  0
   -3.7297   23.5956  -26.6496 H   0  0  0  0  0  0  0  0  0  0  0  0
   -3.9784   24.5537  -28.1486 H   0  0  0  0  0  0  0  0  0  0  0  0
   -4.2997   22.7864  -28.1486 H   0  0  0  0  0  0  0  0  0  0  0  0
   -0.6952   23.4243  -25.6285 H   0  0  0  0  0  0  0  0  0  0  0  0
   -0.2438   24.4267  -23.3913 H   0  0  0  0  0  0  0  0  0  0  0  0
   -0.4643   26.4071  -21.9571 H   0  0  0  0  0  0  0  0  0  0  0  0
    0.9765   27.2156  -22.6622 H   0  0  0  0  0  0  0  0  0  0  0  0
   -0.6129   28.0525  -22.6622 H   0  0  0  0  0  0  0  0  0  0  0  0
   -0.6449   28.3947  -25.0906 H   0  0  0  0  0  0  0  0  0  0  0  0
   -1.0622   27.3889  -27.3359 H   0  0  0  0  0  0  0  0  0  0  0  0
   -5.3290   25.5250  -29.0554 H   0  0  0  0  0  0  0  0  0  0  0  0
   -5.2195   26.7120  -30.3992 H   0  0  0  0  0  0  0  0  0  0  0  0
   -6.5199   25.4729  -30.3992 H   0  0  0  0  0  0  0  0  0  0  0  0
   -7.1141   23.9042  -31.4495 H   0  0  0  0  0  0  0  0  0  0  0  0
  1  2  1  0
  2  3  1  0
  3  4  2  0
  4  5  1  0
  5  6  2  0
  6  7  1  0
  7  8  1  0
  8  9  2  0
  8 10  1  0
 10 11  2  0
 11 12  1  0
 12 13  2  0
 13 14  1  0
 14 15  2  0
 15 16  1  0
 16 17  1  0
 16 18  1  0
 18 19  2  0
 18 20  2  0
 18 21  1  0
 21 22  2  0
 22 23  1  0
 23 24  2  0
 24 25  1  0
 24 26  1  0
 26 27  2  0
  6 28  1  0
 28 29  1  0
 29 30  1  0
 28 31  2  0
 31  3  1  0
 15 10  1  0
 27 21  1  0
  1 32  1  0
  1 33  1  0
  1 34  1  0
  4 35  1  0
  5 36  1  0
 11 37  1  0
 12 38  1  0
 13 39  1  0
 14 40  1  0
 17 41  1  0
 17 42  1  0
 17 43  1  0
 22 44  1  0
 23 45  1  0
 25 46  1  0
 25 47  1  0
 25 48  1  0
 26 49  1  0
 27 50  1  0
 30 51  1  0
 30 52  1  0
 30 53  1  0
 31 54  1  0
M  CHG  1   7  -1
M  END
>  <UniqueID>  (15) 
15

>  <SMILES>  (15) 
COc1ccc([N-]C(=O)c2ccccc2N(C)S(=O)(=O)c2ccc(C)cc2)c(OC)c1

>  <Energy>  (15) 
61.430558398727726

>  <Genealogy>  (15) 
COc1ccc([N-]C(=O)c2ccccc2N(C)S(=O)(=O)c2ccc(C)cc2)c(OC)c1 (protonated)
COc1ccc([N-]C(=O)c2ccccc2N(C)S(=O)(=O)c2ccc(C)cc2)c(OC)c1 (3D coordinates assigned)
COc1ccc([N-]C(=O)c2ccccc2N(C)S(=O)(=O)c2ccc(C)cc2)c(OC)c1 (optimized conformer: 61.430558398727726 kcal/mol)

>  <smiles>  (15) 
COc1ccc(NC(=O)c2ccccc2N(C)S(=O)(=O)c2ccc(C)cc2)c(OC)c1

>  <score_type>  (15) 
oracle

>  <origin>  (15) 
adg

>  <m_score__min__energy>  (15) 
-10.390000000000001

>  <m_primary>  (15) 
energy

$$$$
15:0
     RDKit          3D

 24 25  0  0  0  0  0  0  0  0999 V2000
   -3.3670   18.9630  -26.1270 N   0  0  0  0  0  0  0  0  0  0  0  0
   -2.4850   19.7280  -27.0060 C   0  0  0  0  0  0  0  0  0  0  0  0
   -3.1650   21.0140  -27.4950 C   0  0  0  0  0  0  0  0  0  0  0  0
   -2.1600   22.1300  -27.6160 C   0  0  0  0  0  0  0  0  0  0  0  0
   -0.9550   22.1010  -26.8820 C   0  0  0  0  0  0  0  0  0  0  0  0
   -0.0300   23.1620  -26.9730 C   0  0  0  0  0  0  0  0  0  0  0  0
   -0.2980   24.2730  -27.7900 C   0  0  0  0  0  0  0  0  0  0  0  0
   -1.4970   24.2920  -28.4980 C   0  0  0  0  0  0  0  0  0  0  0  0
   -1.9290   25.2730  -29.3120 N   0  0  0  0  0  0  0  0  0  0  0  0
   -3.1340   24.8320  -29.7420 C   0  0  0  0  0  0  0  0  0  0  0  0
   -3.9330   25.5610  -30.6170 O   0  0  0  0  0  0  0  0  0  0  0  0
   -3.4690   23.5940  -29.2130 C   0  0  0  0  0  0  0  0  0  0  0  0
   -2.3990   23.2590  -28.4120 C   0  0  0  0  0  0  0  0  0  0  0  0
   -2.8970   18.8410  -25.2000 H   0  0  0  0  0  0  0  0  0  0  0  0
   -4.2450   19.5100  -25.9690 H   0  0  0  0  0  0  0  0  0  0  0  0
   -1.5712   19.9933  -26.4541 H   0  0  0  0  0  0  0  0  0  0  0  0
   -2.2440   19.1077  -27.8819 H   0  0  0  0  0  0  0  0  0  0  0  0
   -3.6219   20.8302  -28.4786 H   0  0  0  0  0  0  0  0  0  0  0  0
   -3.9359   21.3073  -26.7672 H   0  0  0  0  0  0  0  0  0  0  0  0
   -0.7347   21.2415  -26.2318 H   0  0  0  0  0  0  0  0  0  0  0  0
    0.9080   23.1192  -26.4001 H   0  0  0  0  0  0  0  0  0  0  0  0
    0.4186   25.1039  -27.8682 H   0  0  0  0  0  0  0  0  0  0  0  0
   -3.6910   25.6400  -31.5970 H   0  0  0  0  0  0  0  0  0  0  0  0
   -4.3840   23.0105  -29.3928 H   0  0  0  0  0  0  0  0  0  0  0  0
  1  2  1  0
  2  3  1  0
  3  4  1  0
  4  5  2  0
  5  6  1  0
  6  7  2  0
  7  8  1  0
  8  9  1  0
  9 10  1  0
 10 11  1  0
 10 12  2  0
 12 13  1  0
 13  4  1  0
 13  8  2  0
  1 14  1  0
  1 15  1  0
  2 16  1  0
  2 17  1  0
  3 18  1  0
  3 19  1  0
  5 20  1  0
  6 21  1  0
  7 22  1  0
 11 23  1  0
 12 24  1  0
M  CHG  1   9  -1
M  END
>  <UniqueID>  (16) 
16

>  <SMILES>  (16) 
NCCc1cccc2[n-]c(O)cc12

>  <Energy>  (16) 
51.91935759015842

>  <Genealogy>  (16) 
NCCc1cccc2[n-]c(O)cc12 (protonated)
NCCc1cccc2[n-]c(O)cc12 (3D coordinates assigned)
NCCc1cccc2[n-]c(O)cc12 (optimized conformer: 51.91935759015842 kcal/mol)

>  <smiles>  (16) 
NCCc1cccc2[nH]c(O)cc12

>  <score_type>  (16) 
oracle

>  <origin>  (16) 
adg

>  <m_score__min__energy>  (16) 
-7.8799999999999999

>  <m_primary>  (16) 
energy

$$$$
16:0
     RDKit          3D

 39 39  0  0  0  0  0  0  0  0999 V2000
   -2.8170   20.6740  -33.4490 C   0  0  0  0  0  0  0  0  0  0  0  0
   -3.6900   19.4830  -33.8420 C   0  0  0  0  0  0  0  0  0  0  0  0
   -4.4300   18.8690  -32.6420 C   0  0  0  0  0  0  0  0  0  0  0  0
   -5.2400   17.6240  -33.0300 C   0  0  0  0  0  0  0  0  0  0  0  0
   -6.4600   17.4510  -32.1190 C   0  0  0  0  0  0  0  0  0  0  0  0
   -7.6820   17.8530  -32.8390 N   0  0  0  0  0  0  0  0  0  0  0  0
   -8.7860   18.2410  -31.9440 C   0  0  0  0  0  0  0  0  0  0  0  0
   -8.8020   19.7580  -31.6880 C   0  0  0  0  0  0  0  0  0  0  0  0
   -7.7820   20.4540  -32.4780 N   0  0  0  0  0  0  0  0  0  0  0  0
   -7.1130   21.6490  -32.0330 C   0  0  0  0  0  0  0  0  0  0  0  0
   -5.7690   21.9110  -32.3560 C   0  0  0  0  0  0  0  0  0  0  0  0
   -5.1420   23.0700  -31.8880 C   0  0  0  0  0  0  0  0  0  0  0  0
   -5.8460   23.9930  -31.0940 C   0  0  0  0  0  0  0  0  0  0  0  0
   -5.2010   25.1840  -30.6050 N   0  0  0  0  0  0  0  0  0  0  0  0
   -5.8740   26.1400  -30.1680 O   0  0  0  0  0  0  0  0  0  0  0  0
   -3.8290   25.2900  -30.6160 O   0  0  0  0  0  0  0  0  0  0  0  0
   -7.1910   23.7350  -30.7840 C   0  0  0  0  0  0  0  0  0  0  0  0
   -7.8170   22.5760  -31.2520 C   0  0  0  0  0  0  0  0  0  0  0  0
   -2.7652   20.7447  -32.3525 H   0  0  0  0  0  0  0  0  0  0  0  0
   -1.8043   20.5364  -33.8558 H   0  0  0  0  0  0  0  0  0  0  0  0
   -3.2531   21.5983  -33.8558 H   0  0  0  0  0  0  0  0  0  0  0  0
   -4.4336   19.8197  -34.5794 H   0  0  0  0  0  0  0  0  0  0  0  0
   -3.0284   18.7082  -34.2566 H   0  0  0  0  0  0  0  0  0  0  0  0
   -3.6909   18.5859  -31.8781 H   0  0  0  0  0  0  0  0  0  0  0  0
   -5.1346   19.6227  -32.2605 H   0  0  0  0  0  0  0  0  0  0  0  0
   -5.5810   17.7277  -34.0707 H   0  0  0  0  0  0  0  0  0  0  0  0
   -4.5946   16.7401  -32.9198 H   0  0  0  0  0  0  0  0  0  0  0  0
   -6.5440   16.3965  -31.8175 H   0  0  0  0  0  0  0  0  0  0  0  0
   -6.3396   18.0831  -31.2269 H   0  0  0  0  0  0  0  0  0  0  0  0
   -8.0120   17.0300  -33.3980 H   0  0  0  0  0  0  0  0  0  0  0  0
   -9.7400   17.9470  -32.4059 H   0  0  0  0  0  0  0  0  0  0  0  0
   -8.6423   17.7312  -30.9799 H   0  0  0  0  0  0  0  0  0  0  0  0
   -9.7923   20.1541  -31.9570 H   0  0  0  0  0  0  0  0  0  0  0  0
   -8.5844   19.9274  -30.6231 H   0  0  0  0  0  0  0  0  0  0  0  0
   -7.5310   20.0810  -33.4220 H   0  0  0  0  0  0  0  0  0  0  0  0
   -5.2081   21.2000  -32.9803 H   0  0  0  0  0  0  0  0  0  0  0  0
   -4.0892   23.2614  -32.1430 H   0  0  0  0  0  0  0  0  0  0  0  0
   -7.7562   24.4502  -30.1683 H   0  0  0  0  0  0  0  0  0  0  0  0
   -8.8726   22.3896  -31.0049 H   0  0  0  0  0  0  0  0  0  0  0  0
  1  2  1  0
  2  3  1  0
  3  4  1  0
  4  5  1  0
  5  6  1  0
  6  7  1  0
  7  8  1  0
  8  9  1  0
  9 10  1  0
 10 11  2  0
 11 12  1  0
 12 13  2  0
 13 14  1  0
 14 15  2  0
 14 16  1  0
 13 17  1  0
 17 18  2  0
 18 10  1  0
  1 19  1  0
  1 20  1  0
  1 21  1  0
  2 22  1  0
  2 23  1  0
  3 24  1  0
  3 25  1  0
  4 26  1  0
  4 27  1  0
  5 28  1  0
  5 29  1  0
  6 30  1  0
  7 31  1  0
  7 32  1  0
  8 33  1  0
  8 34  1  0
  9 35  1  0
 11 36  1  0
 12 37  1  0
 17 38  1  0
 18 39  1  0
M  CHG  2  14   1  16  -1
M  END
>  <UniqueID>  (17) 
17

>  <SMILES>  (17) 
CCCCCNCCNc1ccc([N+](=O)[O-])cc1

>  <Energy>  (17) 
28.12302006840948

>  <Genealogy>  (17) 
CCCCCNCCNc1ccc([N+](=O)[O-])cc1 (3D coordinates assigned)
CCCCCNCCNc1ccc([N+](=O)[O-])cc1 (optimized conformer: 28.12302006840948 kcal/mol)

>  <smiles>  (17) 
CCCCCNCCNc1ccc([N+](=O)[O-])cc1

>  <score_type>  (17) 
oracle

>  <origin>  (17) 
adg

>  <m_score__min__energy>  (17) 
-6.7300000000000004

>  <m_primary>  (17) 
energy

$$$$
17:0
     RDKit          3D

 50 52  0  0  0  0  0  0  0  0999 V2000
   -4.2950   24.4470  -28.4590 O   0  0  0  0  0  0  0  0  0  0  0  0
   -3.7080   24.5870  -29.5650 C   0  0  0  0  0  0  0  0  0  0  0  0
   -2.4760   23.8910  -29.7850 N   0  0  0  0  0  0  0  0  0  0  0  0
   -2.1440   22.5850  -29.2950 C   0  0  0  0  0  0  0  0  0  0  0  0
   -2.5560   22.2200  -28.0070 C   0  0  0  0  0  0  0  0  0  0  0  0
   -2.2770   20.9430  -27.5100 C   0  0  0  0  0  0  0  0  0  0  0  0
   -1.6010   20.0140  -28.3060 C   0  0  0  0  0  0  0  0  0  0  0  0
   -1.3330   18.7760  -27.8250 F   0  0  0  0  0  0  0  0  0  0  0  0
   -1.2110   20.3600  -29.6030 C   0  0  0  0  0  0  0  0  0  0  0  0
   -1.4870   21.6360  -30.1010 C   0  0  0  0  0  0  0  0  0  0  0  0
   -4.2400   25.4800  -30.5560 N   0  0  0  0  0  0  0  0  0  0  0  0
   -5.5930   26.0300  -30.4890 C   0  0  0  0  0  0  0  0  0  0  0  0
   -6.6020   24.9440  -30.0950 C   0  0  0  0  0  0  0  0  0  0  0  0
   -6.8400   23.9340  -31.2300 C   0  0  0  0  0  0  0  0  0  0  0  0
   -6.4060   22.5730  -30.8410 N   0  0  0  0  0  0  0  0  0  0  0  0
   -5.1830   22.1550  -31.5800 C   0  0  0  0  0  0  0  0  0  0  0  0
   -5.0630   20.6330  -31.7190 C   0  0  0  0  0  0  0  0  0  0  0  0
   -6.2520   20.0990  -32.3930 N   0  0  0  0  0  0  0  0  0  0  0  0
   -6.1830   18.8520  -33.1170 C   0  0  0  0  0  0  0  0  0  0  0  0
   -5.3120   18.7200  -34.2150 C   0  0  0  0  0  0  0  0  0  0  0  0
   -5.2330   17.5140  -34.9180 C   0  0  0  0  0  0  0  0  0  0  0  0
   -6.0230   16.4290  -34.5360 C   0  0  0  0  0  0  0  0  0  0  0  0
   -6.8950   16.5470  -33.4530 C   0  0  0  0  0  0  0  0  0  0  0  0
   -6.9800   17.7500  -32.7430 C   0  0  0  0  0  0  0  0  0  0  0  0
   -7.8630   17.8430  -31.7200 F   0  0  0  0  0  0  0  0  0  0  0  0
   -7.5310   20.8010  -32.2280 C   0  0  0  0  0  0  0  0  0  0  0  0
   -7.5280   21.6010  -30.9210 C   0  0  0  0  0  0  0  0  0  0  0  0
   -3.1024   22.9423  -27.3826 H   0  0  0  0  0  0  0  0  0  0  0  0
   -2.5899   20.6693  -26.4916 H   0  0  0  0  0  0  0  0  0  0  0  0
   -0.6860   19.6266  -30.2326 H   0  0  0  0  0  0  0  0  0  0  0  0
   -1.1898   21.9000  -31.1267 H   0  0  0  0  0  0  0  0  0  0  0  0
   -3.6590   25.7170  -31.3920 H   0  0  0  0  0  0  0  0  0  0  0  0
   -5.6186   26.8352  -29.7400 H   0  0  0  0  0  0  0  0  0  0  0  0
   -5.8646   26.4215  -31.4804 H   0  0  0  0  0  0  0  0  0  0  0  0
   -6.2179   24.4054  -29.2161 H   0  0  0  0  0  0  0  0  0  0  0  0
   -7.5604   25.4369  -29.8747 H   0  0  0  0  0  0  0  0  0  0  0  0
   -7.9131   23.9124  -31.4709 H   0  0  0  0  0  0  0  0  0  0  0  0
   -6.2505   24.2492  -32.1035 H   0  0  0  0  0  0  0  0  0  0  0  0
   -5.2118   22.5985  -32.5862 H   0  0  0  0  0  0  0  0  0  0  0  0
   -4.3131   22.5042  -31.0044 H   0  0  0  0  0  0  0  0  0  0  0  0
   -4.1681   20.3900  -32.3106 H   0  0  0  0  0  0  0  0  0  0  0  0
   -4.9802   20.1829  -30.7187 H   0  0  0  0  0  0  0  0  0  0  0  0
   -4.6885   19.5725  -34.5224 H   0  0  0  0  0  0  0  0  0  0  0  0
   -4.5474   17.4204  -35.7731 H   0  0  0  0  0  0  0  0  0  0  0  0
   -5.9583   15.4802  -35.0889 H   0  0  0  0  0  0  0  0  0  0  0  0
   -7.5183   15.6907  -33.1560 H   0  0  0  0  0  0  0  0  0  0  0  0
   -7.6811   21.4874  -33.0743 H   0  0  0  0  0  0  0  0  0  0  0  0
   -8.3455   20.0624  -32.1961 H   0  0  0  0  0  0  0  0  0  0  0  0
   -8.4766   22.1527  -30.8449 H   0  0  0  0  0  0  0  0  0  0  0  0
   -7.4041   20.8847  -30.0955 H   0  0  0  0  0  0  0  0  0  0  0  0
  1  2  2  0
  2  3  1  0
  3  4  1  0
  4  5  2  0
  5  6  1  0
  6  7  2  0
  7  8  1  0
  7  9  1  0
  9 10  2  0
  2 11  1  0
 11 12  1  0
 12 13  1  0
 13 14  1  0
 14 15  1  0
 15 16  1  0
 16 17  1  0
 17 18  1  0
 18 19  1  0
 19 20  2  0
 20 21  1  0
 21 22  2  0
 22 23  1  0
 23 24  2  0
 24 25  1  0
 18 26  1  0
 26 27  1  0
 10  4  1  0
 27 15  1  0
 24 19  1  0
  5 28  1  0
  6 29  1  0
  9 30  1  0
 10 31  1  0
 11 32  1  0
 12 33  1  0
 12 34  1  0
 13 35  1  0
 13 36  1  0
 14 37  1  0
 14 38  1  0
 16 39  1  0
 16 40  1  0
 17 41  1  0
 17 42  1  0
 20 43  1  0
 21 44  1  0
 22 45  1  0
 23 46  1  0
 26 47  1  0
 26 48  1  0
 27 49  1  0
 27 50  1  0
M  CHG  1   3  -1
M  END
>  <UniqueID>  (18) 
18

>  <SMILES>  (18) 
O=C([N-]c1ccc(F)cc1)NCCCN1CCN(c2ccccc2F)CC1

>  <Energy>  (18) 
62.520895229931966

>  <Genealogy>  (18) 
O=C([N-]c1ccc(F)cc1)NCCCN1CCN(c2ccccc2F)CC1 (protonated)
O=C([N-]c1ccc(F)cc1)NCCCN1CCN(c2ccccc2F)CC1 (3D coordinates assigned)
O=C([N-]c1ccc(F)cc1)NCCCN1CCN(c2ccccc2F)CC1 (nonaromatic ring conformer: 62.520895229931966 kcal/mol)

>  <smiles>  (18) 
O=C(NCCCN1CCN(c2ccccc2F)CC1)Nc1ccc(F)cc1

>  <score_type>  (18) 
oracle

>  <origin>  (18) 
adg

>  <m_score__min__energy>  (18) 
-10.07

>  <m_primary>  (18) 
energy

$$$$
18:0
     RDKit          3D

 54 56  0  0  0  0  0  0  0  0999 V2000
   -2.6860   20.6910  -32.3860 C   0  0  0  0  0  0  0  0  0  0  0  0
   -2.9780   21.4720  -31.1390 C   0  0  0  0  0  0  0  0  0  0  0  0
   -2.9120   20.8490  -29.8850 C   0  0  0  0  0  0  0  0  0  0  0  0
   -3.1470   21.5850  -28.7220 C   0  0  0  0  0  0  0  0  0  0  0  0
   -3.4370   22.9490  -28.8000 C   0  0  0  0  0  0  0  0  0  0  0  0
   -3.4880   23.5960  -30.0500 C   0  0  0  0  0  0  0  0  0  0  0  0
   -3.7740   25.0030  -30.1650 N   0  0  0  0  0  0  0  0  0  0  0  0
   -4.9710   25.5270  -30.8260 C   0  0  0  0  0  0  0  0  0  0  0  0
   -6.2330   24.8110  -30.3240 C   0  0  0  0  0  0  0  0  0  0  0  0
   -6.7230   23.7530  -31.3200 C   0  0  0  0  0  0  0  0  0  0  0  0
   -6.7570   22.4160  -30.6850 N   0  0  0  0  0  0  0  0  0  0  0  0
   -6.1340   21.3610  -31.5110 C   0  0  0  0  0  0  0  0  0  0  0  0
   -7.0180   20.9600  -32.7000 C   0  0  0  0  0  0  0  0  0  0  0  0
   -8.4190   20.5050  -32.2420 C   0  0  0  0  0  0  0  0  0  0  0  0
   -8.4220   19.1180  -31.5530 C   0  0  0  0  0  0  0  0  0  0  0  0
   -7.3380   18.2130  -32.0830 C   0  0  0  0  0  0  0  0  0  0  0  0
   -7.1720   18.0340  -33.4670 C   0  0  0  0  0  0  0  0  0  0  0  0
   -6.1780   17.1780  -33.9530 C   0  0  0  0  0  0  0  0  0  0  0  0
   -5.3460   16.4950  -33.0620 C   0  0  0  0  0  0  0  0  0  0  0  0
   -5.5070   16.6640  -31.6850 C   0  0  0  0  0  0  0  0  0  0  0  0
   -6.5000   17.5190  -31.1950 C   0  0  0  0  0  0  0  0  0  0  0  0
   -9.0460   21.5820  -31.3390 C   0  0  0  0  0  0  0  0  0  0  0  0
   -8.1010   22.0240  -30.2040 C   0  0  0  0  0  0  0  0  0  0  0  0
   -3.2510   22.8460  -31.2150 C   0  0  0  0  0  0  0  0  0  0  0  0
   -2.3127   19.6926  -32.1143 H   0  0  0  0  0  0  0  0  0  0  0  0
   -3.6069   20.5893  -32.9790 H   0  0  0  0  0  0  0  0  0  0  0  0
   -1.9243   21.2184  -32.9790 H   0  0  0  0  0  0  0  0  0  0  0  0
   -2.6744   19.7771  -29.8170 H   0  0  0  0  0  0  0  0  0  0  0  0
   -3.1036   21.0890  -27.7412 H   0  0  0  0  0  0  0  0  0  0  0  0
   -3.6267   23.5212  -27.8799 H   0  0  0  0  0  0  0  0  0  0  0  0
   -3.0920   25.6790  -29.7500 H   0  0  0  0  0  0  0  0  0  0  0  0
   -5.0584   26.6026  -30.6126 H   0  0  0  0  0  0  0  0  0  0  0  0
   -4.8775   25.3560  -31.9086 H   0  0  0  0  0  0  0  0  0  0  0  0
   -6.0064   24.3200  -29.3661 H   0  0  0  0  0  0  0  0  0  0  0  0
   -7.0276   25.5624  -30.2055 H   0  0  0  0  0  0  0  0  0  0  0  0
   -7.7351   24.0177  -31.6599 H   0  0  0  0  0  0  0  0  0  0  0  0
   -6.0307   23.7225  -32.1743 H   0  0  0  0  0  0  0  0  0  0  0  0
   -5.1719   21.7323  -31.8938 H   0  0  0  0  0  0  0  0  0  0  0  0
   -5.9958   20.4726  -30.8773 H   0  0  0  0  0  0  0  0  0  0  0  0
   -7.1259   21.8246  -33.3715 H   0  0  0  0  0  0  0  0  0  0  0  0
   -6.5358   20.1171  -33.2167 H   0  0  0  0  0  0  0  0  0  0  0  0
   -9.0331   20.3829  -33.1464 H   0  0  0  0  0  0  0  0  0  0  0  0
   -8.2682   19.2592  -30.4730 H   0  0  0  0  0  0  0  0  0  0  0  0
   -9.3908   18.6407  -31.7619 H   0  0  0  0  0  0  0  0  0  0  0  0
   -7.8263   18.5691  -34.1709 H   0  0  0  0  0  0  0  0  0  0  0  0
   -6.0513   17.0425  -35.0372 H   0  0  0  0  0  0  0  0  0  0  0  0
   -4.5635   15.8236  -33.4455 H   0  0  0  0  0  0  0  0  0  0  0  0
   -4.8523   16.1242  -30.9850 H   0  0  0  0  0  0  0  0  0  0  0  0
   -6.6249   17.6482  -30.1098 H   0  0  0  0  0  0  0  0  0  0  0  0
   -9.2920   22.4595  -31.9551 H   0  0  0  0  0  0  0  0  0  0  0  0
   -9.9446   21.1483  -30.8760 H   0  0  0  0  0  0  0  0  0  0  0  0
   -8.5525   22.8841  -29.6879 H   0  0  0  0  0  0  0  0  0  0  0  0
   -7.9701   21.1624  -29.5329 H   0  0  0  0  0  0  0  0  0  0  0  0
   -3.2799   23.3416  -32.1966 H   0  0  0  0  0  0  0  0  0  0  0  0
  1  2  1  0
  2  3  2  0
  3  4  1  0
  4  5  2  0
  5  6  1  0
  6  7  1  0
  7  8  1  0
  8  9  1  0
  9 10  1  0
 10 11  1  0
 11 12  1  0
 12 13  1  0
 13 14  1  0
 14 15  1  0
 15 16  1  0
 16 17  2  0
 17 18  1  0
 18 19  2  0
 19 20  1  0
 20 21  2  0
 14 22  1  0
 22 23  1  0
  6 24  2  0
 24  2  1  0
 23 11  1  0
 21 16  1  0
  1 25  1  0
  1 26  1  0
  1 27  1  0
  3 28  1  0
  4 29  1  0
  5 30  1  0
  7 31  1  0
  8 32  1  0
  8 33  1  0
  9 34  1  0
  9 35  1  0
 10 36  1  0
 10 37  1  0
 12 38  1  0
 12 39  1  0
 13 40  1  0
 13 41  1  0
 14 42  1  0
 15 43  1  0
 15 44  1  0
 17 45  1  0
 18 46  1  0
 19 47  1  0
 20 48  1  0
 21 49  1  0
 22 50  1  0
 22 51  1  0
 23 52  1  0
 23 53  1  0
 24 54  1  0
M  END
>  <UniqueID>  (19) 
19

>  <SMILES>  (19) 
Cc1cccc(NCCCN2CCC(Cc3ccccc3)CC2)c1

>  <Energy>  (19) 
51.211804710351814

>  <Genealogy>  (19) 
Cc1cccc(NCCCN2CCC(Cc3ccccc3)CC2)c1 (3D coordinates assigned)
Cc1cccc(NCCCN2CCC(Cc3ccccc3)CC2)c1 (nonaromatic ring conformer: 51.211804710351814 kcal/mol)

>  <smiles>  (19) 
Cc1cccc(NCCCN2CCC(Cc3ccccc3)CC2)c1

>  <score_type>  (19) 
oracle

>  <origin>  (19) 
adg

>  <m_score__min__energy>  (19) 
-9.8100000000000005

>  <m_primary>  (19) 
energy

$$$$
19:0
     RDKit          3D

 60 63  0  0  0  0  0  0  0  0999 V2000
   -0.4330   21.5220  -34.2020 C   0  0  0  0  0  0  0  0  0  0  0  0
   -1.2510   20.8420  -33.2590 O   0  0  0  0  0  0  0  0  0  0  0  0
   -1.2600   19.4500  -33.0570 C   0  0  0  0  0  0  0  0  0  0  0  0
   -0.2210   18.7820  -32.3730 C   0  0  0  0  0  0  0  0  0  0  0  0
   -0.2760   17.3990  -32.1880 C   0  0  0  0  0  0  0  0  0  0  0  0
   -1.3690   16.6720  -32.6630 C   0  0  0  0  0  0  0  0  0  0  0  0
   -2.4050   17.3190  -33.3400 C   0  0  0  0  0  0  0  0  0  0  0  0
   -2.3480   18.7110  -33.5590 C   0  0  0  0  0  0  0  0  0  0  0  0
   -3.3500   19.4100  -34.2540 O   0  0  0  0  0  0  0  0  0  0  0  0
   -4.6890   19.6300  -33.8170 C   0  0  0  0  0  0  0  0  0  0  0  0
   -4.7530   20.8130  -32.8920 C   0  0  0  0  0  0  0  0  0  0  0  0
   -3.7060   21.6180  -32.6200 N   0  0  0  0  0  0  0  0  0  0  0  0
   -4.1540   22.6700  -31.9560 N   0  0  0  0  0  0  0  0  0  0  0  0
   -5.4820   22.4890  -31.8150 C   0  0  0  0  0  0  0  0  0  0  0  0
   -6.5760   23.7580  -31.1530 S   0  0  0  0  0  0  0  0  0  0  0  0
   -5.5630   24.1180  -29.6740 C   0  0  0  0  0  0  0  0  0  0  0  0
   -4.2640   24.7950  -30.0020 C   0  0  0  0  0  0  0  0  0  0  0  0
   -4.2540   25.6860  -30.8930 O   0  0  0  0  0  0  0  0  0  0  0  0
   -3.0390   24.3660  -29.3870 N   0  0  0  0  0  0  0  0  0  0  0  0
   -2.4720   23.0460  -29.4330 C   0  0  0  0  0  0  0  0  0  0  0  0
   -3.1190   22.0130  -28.7340 C   0  0  0  0  0  0  0  0  0  0  0  0
   -2.5800   20.7230  -28.7240 C   0  0  0  0  0  0  0  0  0  0  0  0
   -1.3830   20.4570  -29.4020 C   0  0  0  0  0  0  0  0  0  0  0  0
   -0.7200   21.4840  -30.0810 C   0  0  0  0  0  0  0  0  0  0  0  0
   -1.2500   22.7750  -30.0870 C   0  0  0  0  0  0  0  0  0  0  0  0
   -5.8920   21.3390  -32.3970 N   0  0  0  0  0  0  0  0  0  0  0  0
   -7.2650   20.8380  -32.5390 C   0  0  0  0  0  0  0  0  0  0  0  0
   -7.5280   19.6630  -31.5940 C   0  0  0  0  0  0  0  0  0  0  0  0
   -6.9020   18.3850  -32.0970 C   0  0  0  0  0  0  0  0  0  0  0  0
   -7.1930   17.9100  -33.3880 C   0  0  0  0  0  0  0  0  0  0  0  0
   -6.6100   16.7290  -33.8510 C   0  0  0  0  0  0  0  0  0  0  0  0
   -5.7420   16.0050  -33.0270 C   0  0  0  0  0  0  0  0  0  0  0  0
   -5.4620   16.4590  -31.7340 C   0  0  0  0  0  0  0  0  0  0  0  0
   -6.0450   17.6410  -31.2680 C   0  0  0  0  0  0  0  0  0  0  0  0
    0.3070   22.1372  -33.6692 H   0  0  0  0  0  0  0  0  0  0  0  0
    0.0876   20.7868  -34.8333 H   0  0  0  0  0  0  0  0  0  0  0  0
   -1.0607   22.1682  -34.8333 H   0  0  0  0  0  0  0  0  0  0  0  0
    0.6350   19.3532  -31.9844 H   0  0  0  0  0  0  0  0  0  0  0  0
    0.5432   16.8816  -31.6672 H   0  0  0  0  0  0  0  0  0  0  0  0
   -1.4144   15.5846  -32.5033 H   0  0  0  0  0  0  0  0  0  0  0  0
   -3.2677   16.7414  -33.7034 H   0  0  0  0  0  0  0  0  0  0  0  0
   -5.3288   19.8193  -34.6916 H   0  0  0  0  0  0  0  0  0  0  0  0
   -5.0385   18.7373  -33.2777 H   0  0  0  0  0  0  0  0  0  0  0  0
   -2.7130   21.4860  -32.9110 H   0  0  0  0  0  0  0  0  0  0  0  0
   -6.1403   24.7731  -29.0050 H   0  0  0  0  0  0  0  0  0  0  0  0
   -5.3212   23.1557  -29.1992 H   0  0  0  0  0  0  0  0  0  0  0  0
   -4.0537   22.2201  -28.1923 H   0  0  0  0  0  0  0  0  0  0  0  0
   -3.0962   19.9160  -28.1833 H   0  0  0  0  0  0  0  0  0  0  0  0
   -0.9646   19.4397  -29.4001 H   0  0  0  0  0  0  0  0  0  0  0  0
    0.2207   21.2740  -30.6112 H   0  0  0  0  0  0  0  0  0  0  0  0
   -0.7137   23.5849  -30.6033 H   0  0  0  0  0  0  0  0  0  0  0  0
   -7.9689   21.6503  -32.3054 H   0  0  0  0  0  0  0  0  0  0  0  0
   -7.4026   20.4897  -33.5733 H   0  0  0  0  0  0  0  0  0  0  0  0
   -7.1070   19.9003  -30.6058 H   0  0  0  0  0  0  0  0  0  0  0  0
   -8.6157   19.5097  -31.5353 H   0  0  0  0  0  0  0  0  0  0  0  0
   -7.8827   18.4711  -34.0357 H   0  0  0  0  0  0  0  0  0  0  0  0
   -6.8336   16.3672  -34.8655 H   0  0  0  0  0  0  0  0  0  0  0  0
   -5.2792   15.0779  -33.3962 H   0  0  0  0  0  0  0  0  0  0  0  0
   -4.7836   15.8864  -31.0844 H   0  0  0  0  0  0  0  0  0  0  0  0
   -5.8319   17.9906  -30.2471 H   0  0  0  0  0  0  0  0  0  0  0  0
  1  2  1  0
  2  3  1  0
  3  4  2  0
  4  5  1  0
  5  6  2  0
  6  7  1  0
  7  8  2  0
  8  9  1  0
  9 10  1  0
 10 11  1  0
 11 12  2  0
 12 13  1  0
 13 14  2  0
 14 15  1  0
 15 16  1  0
 16 17  1  0
 17 18  2  0
 17 19  1  0
 19 20  1  0
 20 21  2  0
 21 22  1  0
 22 23  2  0
 23 24  1  0
 24 25  2  0
 14 26  1  0
 26 27  1  0
 27 28  1  0
 28 29  1  0
 29 30  2  0
 30 31  1  0
 31 32  2  0
 32 33  1  0
 33 34  2  0
  8  3  1  0
 26 11  1  0
 34 29  1  0
 25 20  1  0
  1 35  1  0
  1 36  1  0
  1 37  1  0
  4 38  1  0
  5 39  1  0
  6 40  1  0
  7 41  1  0
 10 42  1  0
 10 43  1  0
 12 44  1  0
 16 45  1  0
 16 46  1  0
 21 47  1  0
 22 48  1  0
 23 49  1  0
 24 50  1  0
 25 51  1  0
 27 52  1  0
 27 53  1  0
 28 54  1  0
 28 55  1  0
 30 56  1  0
 31 57  1  0
 32 58  1  0
 33 59  1  0
 34 60  1  0
M  CHG  2  12   1  19  -1
M  END
>  <UniqueID>  (20) 
20

>  <SMILES>  (20) 
COc1ccccc1OCc1[nH+]nc(SCC(=O)[N-]c2ccccc2)n1CCc1ccccc1

>  <Energy>  (20) 
97.08796622837806

>  <Genealogy>  (20) 
COc1ccccc1OCc1[nH+]nc(SCC(=O)[N-]c2ccccc2)n1CCc1ccccc1 (protonated)
COc1ccccc1OCc1[nH+]nc(SCC(=O)[N-]c2ccccc2)n1CCc1ccccc1 (3D coordinates assigned)
COc1ccccc1OCc1[nH+]nc(SCC(=O)[N-]c2ccccc2)n1CCc1ccccc1 (optimized conformer: 97.08796622837806 kcal/mol)

>  <smiles>  (20) 
COc1ccccc1OCc1nnc(SCC(=O)Nc2ccccc2)n1CCc1ccccc1

>  <score_type>  (20) 
oracle

>  <origin>  (20) 
adg

>  <m_score__min__energy>  (20) 
-10.130000000000001

>  <m_primary>  (20) 
energy

$$$$
20:0
     RDKit          3D

 33 34  0  0  0  0  0  0  0  0999 V2000
   -8.6090   18.9330  -31.5810 C   0  0  0  0  0  0  0  0  0  0  0  0
   -7.3520   19.3770  -32.2510 C   0  0  0  0  0  0  0  0  0  0  0  0
   -7.2390   20.0590  -33.4470 C   0  0  0  0  0  0  0  0  0  0  0  0
   -5.9380   20.3150  -33.6870 N   0  0  0  0  0  0  0  0  0  0  0  0
   -5.2410   19.8340  -32.6680 N   0  0  0  0  0  0  0  0  0  0  0  0
   -3.7820   19.8590  -32.5970 C   0  0  0  0  0  0  0  0  0  0  0  0
   -3.2290   20.9960  -33.4540 C   0  0  0  0  0  0  0  0  0  0  0  0
   -3.8860   22.2600  -33.0840 N   0  0  0  0  0  0  0  0  0  0  0  0
   -3.7280   22.5680  -31.6570 C   0  0  0  0  0  0  0  0  0  0  0  0
   -4.9160   23.3520  -31.1630 C   0  0  0  0  0  0  0  0  0  0  0  0
   -6.2090   22.8070  -31.2390 C   0  0  0  0  0  0  0  0  0  0  0  0
   -7.3050   23.5170  -30.7400 C   0  0  0  0  0  0  0  0  0  0  0  0
   -7.1200   24.7760  -30.1640 C   0  0  0  0  0  0  0  0  0  0  0  0
   -5.8380   25.3250  -30.0810 C   0  0  0  0  0  0  0  0  0  0  0  0
   -4.7370   24.6180  -30.5740 C   0  0  0  0  0  0  0  0  0  0  0  0
   -3.4970   25.1590  -30.4670 F   0  0  0  0  0  0  0  0  0  0  0  0
   -6.0660   19.2580  -31.7740 C   0  0  0  0  0  0  0  0  0  0  0  0
   -8.4788   18.9790  -30.4897 H   0  0  0  0  0  0  0  0  0  0  0  0
   -9.4366   19.5932  -31.8797 H   0  0  0  0  0  0  0  0  0  0  0  0
   -8.8383   17.8995  -31.8797 H   0  0  0  0  0  0  0  0  0  0  0  0
   -8.0768   20.3470  -34.0990 H   0  0  0  0  0  0  0  0  0  0  0  0
   -3.4720   20.0083  -31.5522 H   0  0  0  0  0  0  0  0  0  0  0  0
   -3.3890   18.9032  -32.9738 H   0  0  0  0  0  0  0  0  0  0  0  0
   -2.1452   21.0850  -33.2885 H   0  0  0  0  0  0  0  0  0  0  0  0
   -3.4239   20.7808  -34.5150 H   0  0  0  0  0  0  0  0  0  0  0  0
   -4.9090   22.1700  -33.2900 H   0  0  0  0  0  0  0  0  0  0  0  0
   -3.6493   21.6295  -31.0886 H   0  0  0  0  0  0  0  0  0  0  0  0
   -2.8166   23.1677  -31.5164 H   0  0  0  0  0  0  0  0  0  0  0  0
   -6.3595   21.8166  -31.6935 H   0  0  0  0  0  0  0  0  0  0  0  0
   -8.3142   23.0837  -30.8010 H   0  0  0  0  0  0  0  0  0  0  0  0
   -7.9839   25.3353  -29.7757 H   0  0  0  0  0  0  0  0  0  0  0  0
   -5.6943   26.3164  -29.6265 H   0  0  0  0  0  0  0  0  0  0  0  0
   -5.7663   18.7779  -30.8308 H   0  0  0  0  0  0  0  0  0  0  0  0
  1  2  1  0
  2  3  1  0
  3  4  2  0
  4  5  1  0
  5  6  1  0
  6  7  1  0
  7  8  1  0
  8  9  1  0
  9 10  1  0
 10 11  2  0
 11 12  1  0
 12 13  2  0
 13 14  1  0
 14 15  2  0
 15 16  1  0
  5 17  1  0
 17  2  2  0
 15 10  1  0
  1 18  1  0
  1 19  1  0
  1 20  1  0
  3 21  1  0
  6 22  1  0
  6 23  1  0
  7 24  1  0
  7 25  1  0
  8 26  1  0
  9 27  1  0
  9 28  1  0
 11 29  1  0
 12 30  1  0
 13 31  1  0
 14 32  1  0
 17 33  1  0
M  END
>  <UniqueID>  (21) 
21

>  <SMILES>  (21) 
Cc1cnn(CCNCc2ccccc2F)c1

>  <Energy>  (21) 
54.699071555900254

>  <Genealogy>  (21) 
Cc1cnn(CCNCc2ccccc2F)c1 (3D coordinates assigned)
Cc1cnn(CCNCc2ccccc2F)c1 (optimized conformer: 54.699071555900254 kcal/mol)

>  <smiles>  (21) 
Cc1cnn(CCNCc2ccccc2F)c1

>  <score_type>  (21) 
oracle

>  <origin>  (21) 
adg

>  <m_score__min__energy>  (21) 
-6.4900000000000002

>  <m_primary>  (21) 
energy

$$$$
21:0
     RDKit          3D

 48 51  0  0  0  0  0  0  0  0999 V2000
   -1.6700   25.2790  -29.0030 O   0  0  0  0  0  0  0  0  0  0  0  0
   -2.3870   24.5490  -27.9020 S   0  0  0  0  0  0  0  0  0  0  0  0
   -2.0710   25.2080  -26.5900 O   0  0  0  0  0  0  0  0  0  0  0  0
   -4.1060   24.5900  -28.1740 N   0  0  0  0  0  0  0  0  0  0  0  0
   -4.4310   24.4870  -29.6080 C   0  0  0  0  0  0  0  0  0  0  0  0
   -5.9580   24.3470  -29.8530 C   0  0  0  0  0  0  0  0  0  0  0  0
   -6.3770   22.8770  -29.9990 C   0  0  0  0  0  0  0  0  0  0  0  0
   -5.6780   22.1840  -31.1160 N   0  0  0  0  0  0  0  0  0  0  0  0
   -6.5200   22.0810  -32.3260 C   0  0  0  0  0  0  0  0  0  0  0  0
   -7.1730   20.7210  -32.4020 C   0  0  0  0  0  0  0  0  0  0  0  0
   -6.4410   19.6260  -32.8960 C   0  0  0  0  0  0  0  0  0  0  0  0
   -7.0300   18.3620  -32.9830 C   0  0  0  0  0  0  0  0  0  0  0  0
   -8.3530   18.1760  -32.5760 C   0  0  0  0  0  0  0  0  0  0  0  0
   -9.0900   19.2540  -32.0820 C   0  0  0  0  0  0  0  0  0  0  0  0
   -8.5100   20.5250  -31.9910 C   0  0  0  0  0  0  0  0  0  0  0  0
   -9.4850   21.8460  -31.3540 Cl  0  0  0  0  0  0  0  0  0  0  0  0
   -4.3520   22.7590  -31.4520 C   0  0  0  0  0  0  0  0  0  0  0  0
   -3.6440   23.3050  -30.2090 C   0  0  0  0  0  0  0  0  0  0  0  0
   -1.8440   22.8820  -27.8500 C   0  0  0  0  0  0  0  0  0  0  0  0
   -0.5330   22.4640  -28.0630 C   0  0  0  0  0  0  0  0  0  0  0  0
   -0.3920   21.0810  -27.9110 C   0  0  0  0  0  0  0  0  0  0  0  0
    0.7920   20.3530  -28.0520 C   0  0  0  0  0  0  0  0  0  0  0  0
    0.7580   18.9610  -27.8550 C   0  0  0  0  0  0  0  0  0  0  0  0
    2.2290   18.0210  -28.0250 Cl  0  0  0  0  0  0  0  0  0  0  0  0
   -0.4520   18.3170  -27.5220 C   0  0  0  0  0  0  0  0  0  0  0  0
   -1.6340   19.0600  -27.3810 C   0  0  0  0  0  0  0  0  0  0  0  0
   -1.5760   20.4360  -27.5810 C   0  0  0  0  0  0  0  0  0  0  0  0
   -2.8220   21.5560  -27.4680 S   0  0  0  0  0  0  0  0  0  0  0  0
   -4.4830   25.4800  -27.7720 H   0  0  0  0  0  0  0  0  0  0  0  0
   -4.1322   25.4183  -30.1114 H   0  0  0  0  0  0  0  0  0  0  0  0
   -6.4976   24.7887  -29.0023 H   0  0  0  0  0  0  0  0  0  0  0  0
   -6.2044   24.8686  -30.7896 H   0  0  0  0  0  0  0  0  0  0  0  0
   -6.1464   22.3514  -29.0606 H   0  0  0  0  0  0  0  0  0  0  0  0
   -7.4539   22.8612  -30.2228 H   0  0  0  0  0  0  0  0  0  0  0  0
   -7.3002   22.8557  -32.2911 H   0  0  0  0  0  0  0  0  0  0  0  0
   -5.8857   22.2212  -33.2137 H   0  0  0  0  0  0  0  0  0  0  0  0
   -5.3979   19.7658  -33.2159 H   0  0  0  0  0  0  0  0  0  0  0  0
   -6.4507   17.5119  -33.3727 H   0  0  0  0  0  0  0  0  0  0  0  0
   -8.8145   17.1799  -32.6447 H   0  0  0  0  0  0  0  0  0  0  0  0
  -10.1319   19.1039  -31.7626 H   0  0  0  0  0  0  0  0  0  0  0  0
   -3.7267   21.9747  -31.9036 H   0  0  0  0  0  0  0  0  0  0  0  0
   -4.5056   23.5915  -32.1545 H   0  0  0  0  0  0  0  0  0  0  0  0
   -3.5647   22.5051  -29.4581 H   0  0  0  0  0  0  0  0  0  0  0  0
   -2.6431   23.6576  -30.4986 H   0  0  0  0  0  0  0  0  0  0  0  0
    0.2943   23.1417  -28.3205 H   0  0  0  0  0  0  0  0  0  0  0  0
    1.7333   20.8592  -28.3123 H   0  0  0  0  0  0  0  0  0  0  0  0
   -0.4691   17.2274  -27.3722 H   0  0  0  0  0  0  0  0  0  0  0  0
   -2.5821   18.5675  -27.1191 H   0  0  0  0  0  0  0  0  0  0  0  0
  1  2  2  0
  2  3  2  0
  2  4  1  0
  4  5  1  0
  5  6  1  0
  6  7  1  0
  7  8  1  0
  8  9  1  0
  9 10  1  0
 10 11  2  0
 11 12  1  0
 12 13  2  0
 13 14  1  0
 14 15  2  0
 15 16  1  0
  8 17  1  0
 17 18  1  0
  2 19  1  0
 19 20  2  0
 20 21  1  0
 21 22  2  0
 22 23  1  0
 23 24  1  0
 23 25  2  0
 25 26  1  0
 26 27  2  0
 27 28  1  0
 18  5  1  0
 28 19  1  0
 15 10  1  0
 27 21  1  0
  4 29  1  0
  5 30  1  0
  6 31  1  0
  6 32  1  0
  7 33  1  0
  7 34  1  0
  9 35  1  0
  9 36  1  0
 11 37  1  0
 12 38  1  0
 13 39  1  0
 14 40  1  0
 17 41  1  0
 17 42  1  0
 18 43  1  0
 18 44  1  0
 20 45  1  0
 22 46  1  0
 25 47  1  0
 26 48  1  0
M  END
>  <UniqueID>  (22) 
22

>  <SMILES>  (22) 
O=S(=O)(NC1CCN(Cc2ccccc2Cl)CC1)c1cc2cc(Cl)ccc2s1

>  <Energy>  (22) 
90.88704657266175

>  <Genealogy>  (22) 
O=S(=O)(NC1CCN(Cc2ccccc2Cl)CC1)c1cc2cc(Cl)ccc2s1 (3D coordinates assigned)
O=S(=O)(NC1CCN(Cc2ccccc2Cl)CC1)c1cc2cc(Cl)ccc2s1 (nonaromatic ring conformer: 90.88704657266175 kcal/mol)

>  <smiles>  (22) 
O=S(=O)(NC1CCN(Cc2ccccc2Cl)CC1)c1cc2cc(Cl)ccc2s1

>  <score_type>  (22) 
oracle

>  <origin>  (22) 
adg

>  <m_score__min__energy>  (22) 
-11.029999999999999

>  <m_primary>  (22) 
energy

$$$$
22:0
     RDKit          3D

 50 53  0  0  0  0  0  0  0  0999 V2000
   -9.7580   19.6750  -32.7230 C   0  0  0  0  0  0  0  0  0  0  0  0
   -8.6360   18.7920  -32.1910 C   0  0  0  0  0  0  0  0  0  0  0  0
   -7.3440   19.2360  -32.7220 N   0  0  0  0  0  0  0  0  0  0  0  0
   -6.7840   20.4650  -32.5880 C   0  0  0  0  0  0  0  0  0  0  0  0
   -5.5010   20.4770  -33.0960 C   0  0  0  0  0  0  0  0  0  0  0  0
   -5.2700   19.2130  -33.5880 C   0  0  0  0  0  0  0  0  0  0  0  0
   -4.1470   18.6590  -34.2020 C   0  0  0  0  0  0  0  0  0  0  0  0
   -4.2020   17.3020  -34.5630 C   0  0  0  0  0  0  0  0  0  0  0  0
   -5.3590   16.5370  -34.3000 C   0  0  0  0  0  0  0  0  0  0  0  0
   -6.4770   17.1220  -33.6760 C   0  0  0  0  0  0  0  0  0  0  0  0
   -6.4040   18.4760  -33.3350 C   0  0  0  0  0  0  0  0  0  0  0  0
   -4.6150   21.6870  -33.0940 C   0  0  0  0  0  0  0  0  0  0  0  0
   -5.0760   22.6950  -32.1030 N   0  0  2  0  0  0  0  0  0  0  0  0
   -4.6440   22.3780  -30.7550 C   0  0  0  0  0  0  0  0  0  0  0  0
   -5.4420   22.4670  -29.7810 O   0  0  0  0  0  0  0  0  0  0  0  0
   -3.2360   22.0370  -30.4840 C   0  0  0  0  0  0  0  0  0  0  0  0
   -2.7720   20.7730  -30.8800 C   0  0  0  0  0  0  0  0  0  0  0  0
   -1.4560   20.3890  -30.6200 C   0  0  0  0  0  0  0  0  0  0  0  0
   -0.5890   21.2630  -29.9640 C   0  0  0  0  0  0  0  0  0  0  0  0
   -1.0340   22.5280  -29.5760 C   0  0  0  0  0  0  0  0  0  0  0  0
   -2.3510   22.9380  -29.8410 C   0  0  0  0  0  0  0  0  0  0  0  0
   -2.8390   24.5680  -29.3490 S   0  0  0  0  0  0  0  0  0  0  0  0
   -3.7290   24.5050  -27.8100 C   0  0  0  0  0  0  0  0  0  0  0  0
   -3.6940   25.2090  -30.4060 O   0  0  0  0  0  0  0  0  0  0  0  0
   -1.6140   25.4180  -29.1610 O   0  0  0  0  0  0  0  0  0  0  0  0
   -6.5450   22.9160  -32.1640 C   0  0  0  0  0  0  0  0  0  0  0  0
   -7.3680   21.6410  -31.8650 C   0  0  0  0  0  0  0  0  0  0  0  0
  -10.3126   20.1114  -31.8792 H   0  0  0  0  0  0  0  0  0  0  0  0
   -9.3303   20.4813  -33.3369 H   0  0  0  0  0  0  0  0  0  0  0  0
  -10.4412   19.0697  -33.3369 H   0  0  0  0  0  0  0  0  0  0  0  0
   -8.6169   18.8518  -31.0928 H   0  0  0  0  0  0  0  0  0  0  0  0
   -8.8160   17.7544  -32.5088 H   0  0  0  0  0  0  0  0  0  0  0  0
   -3.2490   19.2636  -34.3970 H   0  0  0  0  0  0  0  0  0  0  0  0
   -3.3371   16.8323  -35.0542 H   0  0  0  0  0  0  0  0  0  0  0  0
   -5.3871   15.4750  -34.5851 H   0  0  0  0  0  0  0  0  0  0  0  0
   -7.3806   16.5319  -33.4631 H   0  0  0  0  0  0  0  0  0  0  0  0
   -3.5896   21.3794  -32.8411 H   0  0  0  0  0  0  0  0  0  0  0  0
   -4.6500   22.1435  -34.0942 H   0  0  0  0  0  0  0  0  0  0  0  0
   -4.6270   23.6030  -32.3700 H   0  0  0  0  0  0  0  0  0  0  0  0
   -3.4506   20.0801  -31.3990 H   0  0  0  0  0  0  0  0  0  0  0  0
   -1.1017   19.3957  -30.9328 H   0  0  0  0  0  0  0  0  0  0  0  0
    0.4457   20.9553  -29.7524 H   0  0  0  0  0  0  0  0  0  0  0  0
   -0.3456   23.2112  -29.0570 H   0  0  0  0  0  0  0  0  0  0  0  0
   -3.0175   24.5554  -26.9726 H   0  0  0  0  0  0  0  0  0  0  0  0
   -4.4234   25.3562  -27.7529 H   0  0  0  0  0  0  0  0  0  0  0  0
   -4.2965   23.5644  -27.7529 H   0  0  0  0  0  0  0  0  0  0  0  0
   -6.8133   23.6860  -31.4256 H   0  0  0  0  0  0  0  0  0  0  0  0
   -6.7857   23.2258  -33.1917 H   0  0  0  0  0  0  0  0  0  0  0  0
   -7.3541   21.4453  -30.7826 H   0  0  0  0  0  0  0  0  0  0  0  0
   -8.4025   21.7939  -32.2063 H   0  0  0  0  0  0  0  0  0  0  0  0
  1  2  1  0
  2  3  1  0
  3  4  1  0
  4  5  2  0
  5  6  1  0
  6  7  2  0
  7  8  1  0
  8  9  2  0
  9 10  1  0
 10 11  2  0
  5 12  1  0
 12 13  1  0
 13 14  1  0
 14 15  2  0
 14 16  1  0
 16 17  2  0
 17 18  1  0
 18 19  2  0
 19 20  1  0
 20 21  2  0
 21 22  1  0
 22 23  1  0
 22 24  2  0
 22 25  2  0
 13 26  1  0
 26 27  1  0
 11  3  1  0
 21 16  1  0
 27  4  1  0
 11  6  1  0
  1 28  1  0
  1 29  1  0
  1 30  1  0
  2 31  1  0
  2 32  1  0
  7 33  1  0
  8 34  1  0
  9 35  1  0
 10 36  1  0
 12 37  1  0
 12 38  1  0
 13 39  1  6
 17 40  1  0
 18 41  1  0
 19 42  1  0
 20 43  1  0
 23 44  1  0
 23 45  1  0
 23 46  1  0
 26 47  1  0
 26 48  1  0
 27 49  1  0
 27 50  1  0
M  CHG  1  13   1
M  END
>  <UniqueID>  (23) 
23

>  <SMILES>  (23) 
CCn1c2c(c3ccccc31)C[N@H+](C(=O)c1ccccc1S(C)(=O)=O)CC2

>  <Energy>  (23) 
97.87492726280985

>  <Genealogy>  (23) 
CCn1c2c(c3ccccc31)C[NH+](C(=O)c1ccccc1S(C)(=O)=O)CC2 (protonated)
CCn1c2c(c3ccccc31)C[N@H+](C(=O)c1ccccc1S(C)(=O)=O)CC2 (chirality)
CCn1c2c(c3ccccc31)C[N@H+](C(=O)c1ccccc1S(C)(=O)=O)CC2 (3D coordinates assigned)
CCn1c2c(c3ccccc31)C[N@H+](C(=O)c1ccccc1S(C)(=O)=O)CC2 (nonaromatic ring conformer: 97.87492726280985 kcal/mol)

>  <smiles>  (23) 
CCn1c2c(c3ccccc31)CN(C(=O)c1ccccc1S(C)(=O)=O)CC2

>  <score_type>  (23) 
oracle

>  <origin>  (23) 
adg

>  <m_score__min__energy>  (23) 
-9.1500000000000004

>  <m_primary>  (23) 
energy

$$$$
23:0
     RDKit          3D

 31 33  0  0  1  0  0  0  0  0999 V2000
   -1.2370   23.1700  -29.4960 C   0  0  0  0  0  0  0  0  0  0  0  0
   -2.6450   23.5720  -29.7520 C   0  0  0  0  0  0  0  0  0  0  0  0
   -3.4670   23.1620  -30.8210 C   0  0  0  0  0  0  0  0  0  0  0  0
   -4.6460   23.8030  -30.6020 C   0  0  0  0  0  0  0  0  0  0  0  0
   -5.8120   23.8010  -31.2930 C   0  0  0  0  0  0  0  0  0  0  0  0
   -6.0270   23.1480  -32.3520 N   0  0  0  0  0  0  0  0  0  0  0  0
   -6.2520   21.7820  -32.3990 C   0  0  0  0  0  0  0  0  0  0  0  0
   -7.4950   21.2680  -32.0040 C   0  0  0  0  0  0  0  0  0  0  0  0
   -7.7140   19.9100  -32.1120 C   0  0  0  0  0  0  0  0  0  0  0  0
   -6.7410   19.0540  -32.5980 C   0  0  0  0  0  0  0  0  0  0  0  0
   -7.0420   17.5800  -32.6910 C   0  0  0  0  0  0  0  0  0  0  0  0
   -6.8670   17.1540  -33.9720 F   0  0  0  0  0  0  0  0  0  0  0  0
   -6.1840   16.8780  -31.8700 F   0  0  0  0  0  0  0  0  0  0  0  0
   -8.3740   17.3970  -32.3270 F   0  0  0  0  0  0  0  0  0  0  0  0
   -5.5240   19.5710  -32.9840 C   0  0  0  0  0  0  0  0  0  0  0  0
   -5.2540   20.9300  -32.8950 C   0  0  0  0  0  0  0  0  0  0  0  0
   -6.8620   24.5540  -30.8350 N   0  0  0  0  0  0  0  0  0  0  0  0
   -6.7080   25.2700  -29.7210 C   0  0  0  0  0  0  0  0  0  0  0  0
   -5.5640   25.2860  -29.0230 N   0  0  0  0  0  0  0  0  0  0  0  0
   -4.5700   24.5510  -29.4880 N   0  0  0  0  0  0  0  0  0  0  0  0
   -3.3500   24.4130  -28.9660 N   0  0  0  0  0  0  0  0  0  0  0  0
   -1.0614   23.1199  -28.4113 H   0  0  0  0  0  0  0  0  0  0  0  0
   -1.0504   22.1827  -29.9437 H   0  0  0  0  0  0  0  0  0  0  0  0
   -0.5572   23.9100  -29.9437 H   0  0  0  0  0  0  0  0  0  0  0  0
   -3.2127   22.4790  -31.6449 H   0  0  0  0  0  0  0  0  0  0  0  0
   -8.2798   21.9338  -31.6158 H   0  0  0  0  0  0  0  0  0  0  0  0
   -8.6861   19.4974  -31.8042 H   0  0  0  0  0  0  0  0  0  0  0  0
   -4.7494   18.8926  -33.3711 H   0  0  0  0  0  0  0  0  0  0  0  0
   -4.2780   21.3302  -33.2069 H   0  0  0  0  0  0  0  0  0  0  0  0
   -7.5546   25.8724  -29.3599 H   0  0  0  0  0  0  0  0  0  0  0  0
   -5.4760   25.8650  -28.1450 H   0  0  0  0  0  0  0  0  0  0  0  0
  1  2  1  0
  2  3  1  0
  3  4  2  0
  4  5  1  0
  5  6  2  0
  6  7  1  0
  7  8  2  0
  8  9  1  0
  9 10  2  0
 10 11  1  0
 11 12  1  0
 11 13  1  0
 11 14  1  0
 10 15  1  0
 15 16  2  0
  5 17  1  0
 17 18  2  0
 18 19  1  0
 19 20  1  0
 20 21  1  0
 21  2  2  0
 20  4  1  0
 16  7  1  0
  1 22  1  0
  1 23  1  0
  1 24  1  0
  3 25  1  0
  8 26  1  0
  9 27  1  0
 15 28  1  0
 16 29  1  0
 18 30  1  0
 19 31  1  0
M  END
>  <smiles>  (24) 
Cc1cc2c(=Nc3ccc(C(F)(F)F)cc3)nc[nH]n2n1

>  <score_type>  (24) 
oracle

>  <origin>  (24) 
adg

>  <m_score__min__energy>  (24) 
-6.8799999999999999

>  <m_primary>  (24) 
energy

$$$$
24:0
     RDKit          3D

 58 61  0  0  0  0  0  0  0  0999 V2000
   -2.6570   21.5700  -32.6550 C   0  0  0  0  0  0  0  0  0  0  0  0
   -3.8870   22.2770  -32.5580 O   0  0  0  0  0  0  0  0  0  0  0  0
   -5.1500   21.6740  -32.4230 C   0  0  0  0  0  0  0  0  0  0  0  0
   -5.3110   20.2780  -32.4940 C   0  0  0  0  0  0  0  0  0  0  0  0
   -6.5800   19.6960  -32.3610 C   0  0  0  0  0  0  0  0  0  0  0  0
   -6.7410   18.3030  -32.4300 C   0  0  0  0  0  0  0  0  0  0  0  0
   -8.0110   17.7350  -32.2990 C   0  0  0  0  0  0  0  0  0  0  0  0
   -9.1270   18.5500  -32.0980 C   0  0  0  0  0  0  0  0  0  0  0  0
   -8.9810   19.9390  -32.0280 C   0  0  0  0  0  0  0  0  0  0  0  0
   -7.7100   20.5200  -32.1570 C   0  0  0  0  0  0  0  0  0  0  0  0
   -7.5520   21.9100  -32.0880 C   0  0  0  0  0  0  0  0  0  0  0  0
   -6.2810   22.4930  -32.2160 C   0  0  0  0  0  0  0  0  0  0  0  0
   -6.1610   23.9990  -32.1640 C   0  0  0  0  0  0  0  0  0  0  0  0
   -6.4150   24.5100  -30.7970 N   0  0  0  0  0  0  0  0  0  0  0  0
   -5.4380   25.5310  -30.3590 C   0  0  0  0  0  0  0  0  0  0  0  0
   -4.0340   24.9420  -30.1000 C   0  0  0  0  0  0  0  0  0  0  0  0
   -4.0680   23.4730  -29.9500 N   0  0  0  0  0  0  0  0  0  0  0  0
   -2.7880   22.9740  -29.4110 C   0  0  0  0  0  0  0  0  0  0  0  0
   -2.2180   23.9670  -28.4350 C   0  0  0  0  0  0  0  0  0  0  0  0
   -1.0370   24.6660  -28.7290 C   0  0  0  0  0  0  0  0  0  0  0  0
   -0.5270   25.6000  -27.8210 C   0  0  0  0  0  0  0  0  0  0  0  0
   -1.1940   25.8480  -26.6140 C   0  0  0  0  0  0  0  0  0  0  0  0
   -0.5330   27.0130  -25.4720 S   0  0  0  0  0  0  0  0  0  0  0  0
   -0.7920   26.4250  -23.8150 C   0  0  0  0  0  0  0  0  0  0  0  0
   -1.2110   28.3440  -25.6410 O   0  0  0  0  0  0  0  0  0  0  0  0
    0.9390   27.1850  -25.7240 O   0  0  0  0  0  0  0  0  0  0  0  0
   -2.3720   25.1480  -26.3170 C   0  0  0  0  0  0  0  0  0  0  0  0
   -2.8830   24.2170  -27.2230 C   0  0  0  0  0  0  0  0  0  0  0  0
   -5.2050   23.0710  -29.1050 C   0  0  0  0  0  0  0  0  0  0  0  0
   -6.5380   23.4180  -29.8020 C   0  0  0  0  0  0  0  0  0  0  0  0
   -2.2785   21.3524  -31.6453 H   0  0  0  0  0  0  0  0  0  0  0  0
   -2.8181   20.6267  -33.1973 H   0  0  0  0  0  0  0  0  0  0  0  0
   -1.9229   22.1840  -33.1973 H   0  0  0  0  0  0  0  0  0  0  0  0
   -4.4322   19.6364  -32.6555 H   0  0  0  0  0  0  0  0  0  0  0  0
   -5.8649   17.6568  -32.5876 H   0  0  0  0  0  0  0  0  0  0  0  0
   -8.1320   16.6431  -32.3544 H   0  0  0  0  0  0  0  0  0  0  0  0
  -10.1244   18.0978  -31.9944 H   0  0  0  0  0  0  0  0  0  0  0  0
   -9.8634   20.5770  -31.8716 H   0  0  0  0  0  0  0  0  0  0  0  0
   -8.4321   22.5511  -31.9320 H   0  0  0  0  0  0  0  0  0  0  0  0
   -5.1457   24.2889  -32.4725 H   0  0  0  0  0  0  0  0  0  0  0  0
   -6.9110   24.4317  -32.8424 H   0  0  0  0  0  0  0  0  0  0  0  0
   -5.3579   26.2997  -31.1417 H   0  0  0  0  0  0  0  0  0  0  0  0
   -5.8013   25.9521  -29.4099 H   0  0  0  0  0  0  0  0  0  0  0  0
   -3.3803   25.1972  -30.9471 H   0  0  0  0  0  0  0  0  0  0  0  0
   -3.6545   25.3702  -29.1605 H   0  0  0  0  0  0  0  0  0  0  0  0
   -2.9576   22.0157  -28.8983 H   0  0  0  0  0  0  0  0  0  0  0  0
   -2.0779   22.8337  -30.2393 H   0  0  0  0  0  0  0  0  0  0  0  0
   -0.5107   24.4788  -29.6766 H   0  0  0  0  0  0  0  0  0  0  0  0
    0.4012   26.1418  -28.0555 H   0  0  0  0  0  0  0  0  0  0  0  0
   -0.4557   27.1886  -23.0982 H   0  0  0  0  0  0  0  0  0  0  0  0
   -1.8623   26.2233  -23.6606 H   0  0  0  0  0  0  0  0  0  0  0  0
   -0.2184   25.4992  -23.6606 H   0  0  0  0  0  0  0  0  0  0  0  0
   -2.8951   25.3330  -25.3672 H   0  0  0  0  0  0  0  0  0  0  0  0
   -3.8113   23.6762  -26.9867 H   0  0  0  0  0  0  0  0  0  0  0  0
   -5.1597   21.9864  -28.9274 H   0  0  0  0  0  0  0  0  0  0  0  0
   -5.1494   23.6116  -28.1486 H   0  0  0  0  0  0  0  0  0  0  0  0
   -6.9075   22.5182  -30.3156 H   0  0  0  0  0  0  0  0  0  0  0  0
   -7.2315   23.7657  -29.0221 H   0  0  0  0  0  0  0  0  0  0  0  0
  1  2  1  0
  2  3  1  0
  3  4  2  0
  4  5  1  0
  5  6  2  0
  6  7  1  0
  7  8  2  0
  8  9  1  0
  9 10  2  0
 10 11  1  0
 11 12  2  0
 12 13  1  0
 13 14  1  0
 14 15  1  0
 15 16  1  0
 16 17  1  0
 17 18  1  0
 18 19  1  0
 19 20  2  0
 20 21  1  0
 21 22  2  0
 22 23  1  0
 23 24  1  0
 23 25  2  0
 23 26  2  0
 22 27  1  0
 27 28  2  0
 17 29  1  0
 29 30  1  0
 12  3  1  0
 30 14  1  0
 10  5  1  0
 28 19  1  0
  1 31  1  0
  1 32  1  0
  1 33  1  0
  4 34  1  0
  6 35  1  0
  7 36  1  0
  8 37  1  0
  9 38  1  0
 11 39  1  0
 13 40  1  0
 13 41  1  0
 15 42  1  0
 15 43  1  0
 16 44  1  0
 16 45  1  0
 18 46  1  0
 18 47  1  0
 20 48  1  0
 21 49  1  0
 24 50  1  0
 24 51  1  0
 24 52  1  0
 27 53  1  0
 28 54  1  0
 29 55  1  0
 29 56  1  0
 30 57  1  0
 30 58  1  0
M  END
>  <UniqueID>  (25) 
24

>  <SMILES>  (25) 
COc1cc2ccccc2cc1CN1CCN(Cc2ccc(S(C)(=O)=O)cc2)CC1

>  <Energy>  (25) 
72.0223315565527

>  <Genealogy>  (25) 
COc1cc2ccccc2cc1CN1CCN(Cc2ccc(S(C)(=O)=O)cc2)CC1 (3D coordinates assigned)
COc1cc2ccccc2cc1CN1CCN(Cc2ccc(S(C)(=O)=O)cc2)CC1 (nonaromatic ring conformer: 72.0223315565527 kcal/mol)

>  <smiles>  (25) 
COc1cc2ccccc2cc1CN1CCN(Cc2ccc(S(C)(=O)=O)cc2)CC1

>  <score_type>  (25) 
oracle

>  <origin>  (25) 
adg

>  <m_score__min__energy>  (25) 
-9.9700000000000006

>  <m_primary>  (25) 
energy

$$$$
25:0
     RDKit          3D

 32 34  0  0  0  0  0  0  0  0999 V2000
   -2.3950   24.9070  -26.8830 C   0  0  0  0  0  0  0  0  0  0  0  0
   -1.3620   25.2240  -27.9580 C   0  0  0  0  0  0  0  0  0  0  0  0
   -1.9760   25.3080  -29.2440 O   0  0  0  0  0  0  0  0  0  0  0  0
   -2.9830   24.4560  -29.7270 C   0  0  0  0  0  0  0  0  0  0  0  0
   -4.2670   24.9140  -30.0760 C   0  0  0  0  0  0  0  0  0  0  0  0
   -5.2310   24.0190  -30.5540 C   0  0  0  0  0  0  0  0  0  0  0  0
   -4.9320   22.6520  -30.6930 C   0  0  0  0  0  0  0  0  0  0  0  0
   -5.9410   21.6870  -31.1970 C   0  0  0  0  0  0  0  0  0  0  0  0
   -7.2820   21.9500  -31.4700 C   0  0  0  0  0  0  0  0  0  0  0  0
   -7.8230   20.8040  -31.9020 N   0  0  0  0  0  0  0  0  0  0  0  0
   -9.0940   20.5330  -32.2930 C   0  0  0  0  0  0  0  0  0  0  0  0
   -9.3940   19.2260  -32.7050 C   0  0  0  0  0  0  0  0  0  0  0  0
   -8.3810   18.2470  -32.6980 C   0  0  0  0  0  0  0  0  0  0  0  0
   -7.0800   18.5760  -32.2830 C   0  0  0  0  0  0  0  0  0  0  0  0
   -6.8410   19.8890  -31.8870 C   0  0  0  0  0  0  0  0  0  0  0  0
   -5.6630   20.3850  -31.4600 N   0  0  0  0  0  0  0  0  0  0  0  0
   -3.6460   22.2030  -30.3450 C   0  0  0  0  0  0  0  0  0  0  0  0
   -2.6850   23.0980  -29.8680 C   0  0  0  0  0  0  0  0  0  0  0  0
   -1.9442   25.0453  -25.8892 H   0  0  0  0  0  0  0  0  0  0  0  0
   -3.2566   25.5821  -26.9920 H   0  0  0  0  0  0  0  0  0  0  0  0
   -2.7296   23.8648  -26.9920 H   0  0  0  0  0  0  0  0  0  0  0  0
   -0.8822   26.1858  -27.7242 H   0  0  0  0  0  0  0  0  0  0  0  0
   -0.6147   24.4170  -27.9768 H   0  0  0  0  0  0  0  0  0  0  0  0
   -4.5143   25.9808  -29.9726 H   0  0  0  0  0  0  0  0  0  0  0  0
   -6.2316   24.3882  -30.8234 H   0  0  0  0  0  0  0  0  0  0  0  0
   -7.7975   22.9147  -31.3530 H   0  0  0  0  0  0  0  0  0  0  0  0
   -9.8668   21.3158  -32.2870 H   0  0  0  0  0  0  0  0  0  0  0  0
  -10.4123   18.9676  -33.0310 H   0  0  0  0  0  0  0  0  0  0  0  0
   -8.6099   17.2201  -33.0190 H   0  0  0  0  0  0  0  0  0  0  0  0
   -6.2784   17.8228  -32.2713 H   0  0  0  0  0  0  0  0  0  0  0  0
   -3.3941   21.1373  -30.4492 H   0  0  0  0  0  0  0  0  0  0  0  0
   -1.6835   22.7299  -29.6007 H   0  0  0  0  0  0  0  0  0  0  0  0
  1  2  1  0
  2  3  1  0
  3  4  1  0
  4  5  2  0
  5  6  1  0
  6  7  2  0
  7  8  1  0
  8  9  2  0
  9 10  1  0
 10 11  1  0
 11 12  2  0
 12 13  1  0
 13 14  2  0
 14 15  1  0
 15 16  2  0
  7 17  1  0
 17 18  2  0
 18  4  1  0
 16  8  1  0
 15 10  1  0
  1 19  1  0
  1 20  1  0
  1 21  1  0
  2 22  1  0
  2 23  1  0
  5 24  1  0
  6 25  1  0
  9 26  1  0
 11 27  1  0
 12 28  1  0
 13 29  1  0
 14 30  1  0
 17 31  1  0
 18 32  1  0
M  END
>  <UniqueID>  (26) 
25

>  <SMILES>  (26) 
CCOc1ccc(-c2cn3ccccc3n2)cc1

>  <Energy>  (26) 
68.39941932340301

>  <Genealogy>  (26) 
CCOc1ccc(-c2cn3ccccc3n2)cc1 (3D coordinates assigned)
CCOc1ccc(-c2cn3ccccc3n2)cc1 (optimized conformer: 68.39941932340301 kcal/mol)

>  <smiles>  (26) 
CCOc1ccc(-c2cn3ccccc3n2)cc1

>  <score_type>  (26) 
oracle

>  <origin>  (26) 
adg

>  <m_score__min__energy>  (26) 
-6.6900000000000004

>  <m_primary>  (26) 
energy

$$$$
26:0
     RDKit          3D

 29 30  0  0  0  0  0  0  0  0999 V2000
   -5.9948   25.8862  -30.3300 H   0  0  0  0  0  0  0  0  0  0  0  0
   -5.3110   25.0940  -30.6690 C   0  0  0  0  0  0  0  0  0  0  0  0
   -3.8990   25.2960  -30.5260 N   0  0  0  0  0  0  0  0  0  0  0  0
   -3.2000   24.8890  -29.5080 C   0  0  0  0  0  0  0  0  0  0  0  0
   -1.9330   25.2840  -29.2890 N   0  0  0  0  0  0  0  0  0  0  0  0
   -1.5320   24.6810  -28.1810 N   0  0  0  0  0  0  0  0  0  0  0  0
   -0.1860   24.8070  -27.6310 C   0  0  0  0  0  0  0  0  0  0  0  0
   -0.1778   25.6000  -26.8688 H   0  0  0  0  0  0  0  0  0  0  0  0
    0.5113   25.0595  -28.4434 H   0  0  0  0  0  0  0  0  0  0  0  0
    0.2480   23.4920  -26.9940 C   0  0  0  0  0  0  0  0  0  0  0  0
    0.2166   23.5872  -25.8986 H   0  0  0  0  0  0  0  0  0  0  0  0
   -0.4326   22.6884  -27.3119 H   0  0  0  0  0  0  0  0  0  0  0  0
    1.2732   23.2514  -27.3119 H   0  0  0  0  0  0  0  0  0  0  0  0
   -2.5130   23.8930  -27.6970 C   0  0  0  0  0  0  0  0  0  0  0  0
   -2.4487   23.2688  -26.7936 H   0  0  0  0  0  0  0  0  0  0  0  0
   -3.6110   24.0010  -28.5250 C   0  0  0  0  0  0  0  0  0  0  0  0
   -4.5854   23.4997  -28.4282 H   0  0  0  0  0  0  0  0  0  0  0  0
   -5.8320   23.9770  -31.2000 C   0  0  0  0  0  0  0  0  0  0  0  0
   -5.1140   22.8980  -31.8510 C   0  0  0  0  0  0  0  0  0  0  0  0
   -3.8620   22.8290  -31.9720 O   0  0  0  0  0  0  0  0  0  0  0  0
   -6.0350   21.8520  -32.3450 C   0  0  0  0  0  0  0  0  0  0  0  0
   -5.7543   20.8668  -31.9443 H   0  0  0  0  0  0  0  0  0  0  0  0
   -6.0120   21.7600  -33.4409 H   0  0  0  0  0  0  0  0  0  0  0  0
   -7.4180   22.2750  -31.8250 C   0  0  0  0  0  0  0  0  0  0  0  0
   -7.7694   21.5539  -31.0723 H   0  0  0  0  0  0  0  0  0  0  0  0
   -8.1431   22.3015  -32.6518 H   0  0  0  0  0  0  0  0  0  0  0  0
   -7.2860   23.6710  -31.1880 C   0  0  0  0  0  0  0  0  0  0  0  0
   -7.6682   23.6606  -30.1566 H   0  0  0  0  0  0  0  0  0  0  0  0
   -7.8666   24.4268  -31.7373 H   0  0  0  0  0  0  0  0  0  0  0  0
  1  2  1  0
  2  3  1  0
  3  4  2  0
  4  5  1  0
  5  6  1  0
  6  7  1  0
  7  8  1  0
  7  9  1  0
  7 10  1  0
 10 11  1  0
 10 12  1  0
 10 13  1  0
  6 14  1  0
 14 15  1  0
 14 16  2  0
 16 17  1  0
  2 18  2  0
 18 19  1  0
 19 20  2  0
 19 21  1  0
 21 22  1  0
 21 23  1  0
 21 24  1  0
 24 25  1  0
 24 26  1  0
 24 27  1  0
 27 28  1  0
 27 29  1  0
 16  4  1  0
 27 18  1  0
M  CHG  1   5  -1
M  END
>  <UniqueID>  (27) 
26

>  <SMILES>  (27) 
CCn1cc/c(=N\C=C2CCCC2=O)[n-]1

>  <Energy>  (27) 
69.783283938819

>  <Genealogy>  (27) 
CCn1ccc(=NC=C2CCCC2=O)[n-]1 (protonated)
CCn1cc/c(=N\C=C2CCCC2=O)[n-]1 (cis-trans isomerization)
CCn1cc/c(=N\C=C2CCCC2=O)[n-]1 (3D coordinates assigned)
CCn1cc/c(=N\C=C2CCCC2=O)[n-]1 (nonaromatic ring conformer: 69.783283938819 kcal/mol)

>  <smiles>  (27) 
CCn1ccc(=NC=C2CCCC2=O)[nH]1

>  <score_type>  (27) 
oracle

>  <origin>  (27) 
adg

>  <m_score__min__energy>  (27) 
-7.71

>  <m_primary>  (27) 
energy

$$$$
27:0
     RDKit          3D

 22 24  0  0  0  0  0  0  0  0999 V2000
   -5.6730   16.8880  -34.2240 C   0  0  0  0  0  0  0  0  0  0  0  0
   -6.5660   16.6950  -33.1670 C   0  0  0  0  0  0  0  0  0  0  0  0
   -7.2330   17.7860  -32.6040 C   0  0  0  0  0  0  0  0  0  0  0  0
   -7.0080   19.0880  -33.0910 C   0  0  0  0  0  0  0  0  0  0  0  0
   -7.7200   20.2430  -32.4940 C   0  0  0  0  0  0  0  0  0  0  0  0
   -9.0730   20.2350  -32.1050 C   0  0  0  0  0  0  0  0  0  0  0  0
   -9.4870   21.7610  -31.4450 S   0  0  0  0  0  0  0  0  0  0  0  0
   -7.9350   22.3420  -31.6910 C   0  0  0  0  0  0  0  0  0  0  0  0
   -7.2360   23.4900  -31.4260 C   0  0  0  0  0  0  0  0  0  0  0  0
   -5.9480   23.1640  -31.8720 C   0  0  0  0  0  0  0  0  0  0  0  0
   -5.9120   21.8950  -32.3610 N   0  0  0  0  0  0  0  0  0  0  0  0
   -7.1470   21.4450  -32.2400 N   0  0  0  0  0  0  0  0  0  0  0  0
   -6.1120   19.2690  -34.1600 C   0  0  0  0  0  0  0  0  0  0  0  0
   -5.4490   18.1740  -34.7210 C   0  0  0  0  0  0  0  0  0  0  0  0
   -5.1469   16.0282  -34.6643 H   0  0  0  0  0  0  0  0  0  0  0  0
   -6.7443   15.6820  -32.7772 H   0  0  0  0  0  0  0  0  0  0  0  0
   -7.9384   17.6269  -31.7751 H   0  0  0  0  0  0  0  0  0  0  0  0
   -9.7585   19.3810  -32.2088 H   0  0  0  0  0  0  0  0  0  0  0  0
   -7.5943   24.4284  -30.9775 H   0  0  0  0  0  0  0  0  0  0  0  0
   -5.0831   23.8425  -31.8321 H   0  0  0  0  0  0  0  0  0  0  0  0
   -5.9319   20.2789  -34.5571 H   0  0  0  0  0  0  0  0  0  0  0  0
   -4.7491   18.3253  -35.5560 H   0  0  0  0  0  0  0  0  0  0  0  0
  1  2  2  0
  2  3  1  0
  3  4  2  0
  4  5  1  0
  5  6  2  0
  6  7  1  0
  7  8  1  0
  8  9  2  0
  9 10  1  0
 10 11  2  0
 11 12  1  0
  4 13  1  0
 13 14  2  0
 14  1  1  0
 12  5  1  0
 12  8  1  0
  1 15  1  0
  2 16  1  0
  3 17  1  0
  6 18  1  0
  9 19  1  0
 10 20  1  0
 13 21  1  0
 14 22  1  0
M  END
>  <UniqueID>  (28) 
27

>  <SMILES>  (28) 
c1ccc(-c2csc3ccnn23)cc1

>  <Energy>  (28) 
106.94908797504583

>  <Genealogy>  (28) 
c1ccc(-c2csc3ccnn23)cc1 (3D coordinates assigned)
c1ccc(-c2csc3ccnn23)cc1 (optimized conformer: 106.94908797504583 kcal/mol)

>  <smiles>  (28) 
c1ccc(-c2csc3ccnn23)cc1

>  <score_type>  (28) 
oracle

>  <origin>  (28) 
adg

>  <m_score__min__energy>  (28) 
-6.3700000000000001

>  <m_primary>  (28) 
energy

$$$$
28:0
     RDKit          3D

 37 39  0  0  0  0  0  0  0  0999 V2000
   -9.0600   18.3990  -31.5890 Cl  0  0  0  0  0  0  0  0  0  0  0  0
   -7.5640   18.9470  -32.3410 C   0  0  0  0  0  0  0  0  0  0  0  0
   -6.6110   17.9780  -32.6810 C   0  0  0  0  0  0  0  0  0  0  0  0
   -5.4050   18.3500  -33.2760 C   0  0  0  0  0  0  0  0  0  0  0  0
   -5.1430   19.6940  -33.5410 C   0  0  0  0  0  0  0  0  0  0  0  0
   -6.0870   20.6700  -33.2110 C   0  0  0  0  0  0  0  0  0  0  0  0
   -7.3050   20.3120  -32.6060 C   0  0  0  0  0  0  0  0  0  0  0  0
   -8.3030   21.4050  -32.3000 C   0  0  0  0  0  0  0  0  0  0  0  0
   -8.5450   21.4770  -30.8530 N   0  0  0  0  0  0  0  0  0  0  0  0
   -7.5800   22.3590  -30.1750 C   0  0  0  0  0  0  0  0  0  0  0  0
   -7.0800   23.4280  -31.1470 C   0  0  0  0  0  0  0  0  0  0  0  0
   -5.7000   23.8910  -30.7760 C   0  0  0  0  0  0  0  0  0  0  0  0
   -5.3240   25.1890  -30.4380 C   0  0  0  0  0  0  0  0  0  0  0  0
   -4.0250   25.2220  -30.0630 N   0  0  0  0  0  0  0  0  0  0  0  0
   -3.5810   23.9560  -30.1500 C   0  0  0  0  0  0  0  0  0  0  0  0
   -2.3090   23.4840  -29.8270 C   0  0  0  0  0  0  0  0  0  0  0  0
   -2.0700   22.1040  -29.9480 C   0  0  0  0  0  0  0  0  0  0  0  0
   -3.0950   21.2350  -30.3830 C   0  0  0  0  0  0  0  0  0  0  0  0
   -4.3690   21.7390  -30.7030 C   0  0  0  0  0  0  0  0  0  0  0  0
   -4.5750   23.1140  -30.5760 C   0  0  0  0  0  0  0  0  0  0  0  0
   -6.8150   16.9164  -32.4774 H   0  0  0  0  0  0  0  0  0  0  0  0
   -4.6606   17.5830  -33.5362 H   0  0  0  0  0  0  0  0  0  0  0  0
   -4.1920   19.9861  -34.0104 H   0  0  0  0  0  0  0  0  0  0  0  0
   -5.8755   21.7278  -33.4264 H   0  0  0  0  0  0  0  0  0  0  0  0
   -7.9058   22.3689  -32.6508 H   0  0  0  0  0  0  0  0  0  0  0  0
   -9.2502   21.1815  -32.8127 H   0  0  0  0  0  0  0  0  0  0  0  0
   -9.5060   21.8630  -30.6990 H   0  0  0  0  0  0  0  0  0  0  0  0
   -8.0697   22.8453  -29.3184 H   0  0  0  0  0  0  0  0  0  0  0  0
   -6.7263   21.7603  -29.8246 H   0  0  0  0  0  0  0  0  0  0  0  0
   -7.0571   23.0075  -32.1632 H   0  0  0  0  0  0  0  0  0  0  0  0
   -7.7624   24.2895  -31.1012 H   0  0  0  0  0  0  0  0  0  0  0  0
   -5.9899   26.0639  -30.4714 H   0  0  0  0  0  0  0  0  0  0  0  0
   -3.4880   26.0590  -29.7460 H   0  0  0  0  0  0  0  0  0  0  0  0
   -1.5182   24.1695  -29.4884 H   0  0  0  0  0  0  0  0  0  0  0  0
   -1.0777   21.6980  -29.7022 H   0  0  0  0  0  0  0  0  0  0  0  0
   -2.8958   20.1569  -30.4722 H   0  0  0  0  0  0  0  0  0  0  0  0
   -5.1756   21.0722  -31.0418 H   0  0  0  0  0  0  0  0  0  0  0  0
  1  2  1  0
  2  3  2  0
  3  4  1  0
  4  5  2  0
  5  6  1  0
  6  7  2  0
  7  8  1  0
  8  9  1  0
  9 10  1  0
 10 11  1  0
 11 12  1  0
 12 13  2  0
 13 14  1  0
 14 15  1  0
 15 16  2  0
 16 17  1  0
 17 18  2  0
 18 19  1  0
 19 20  2  0
  7  2  1  0
 20 12  1  0
 20 15  1  0
  3 21  1  0
  4 22  1  0
  5 23  1  0
  6 24  1  0
  8 25  1  0
  8 26  1  0
  9 27  1  0
 10 28  1  0
 10 29  1  0
 11 30  1  0
 11 31  1  0
 13 32  1  0
 14 33  1  0
 16 34  1  0
 17 35  1  0
 18 36  1  0
 19 37  1  0
M  END
>  <UniqueID>  (29) 
28

>  <SMILES>  (29) 
Clc1ccccc1CNCCc1c[nH]c2ccccc12

>  <Energy>  (29) 
64.9588813182132

>  <Genealogy>  (29) 
Clc1ccccc1CNCCc1c[nH]c2ccccc12 (3D coordinates assigned)
Clc1ccccc1CNCCc1c[nH]c2ccccc12 (optimized conformer: 64.9588813182132 kcal/mol)

>  <smiles>  (29) 
Clc1ccccc1CNCCc1c[nH]c2ccccc12

>  <score_type>  (29) 
oracle

>  <origin>  (29) 
adg

>  <m_score__min__energy>  (29) 
-8.4299999999999997

>  <m_primary>  (29) 
energy

$$$$
29:0
     RDKit          3D

 30 30  0  0  0  0  0  0  0  0999 V2000
   -6.6268   23.6351  -29.5837 H   0  0  0  0  0  0  0  0  0  0  0  0
   -6.3480   23.4160  -30.6250 C   0  0  0  0  0  0  0  0  0  0  0  0
   -7.4110   23.3110  -31.6380 C   0  0  0  0  0  0  0  0  0  0  0  0
   -7.2480   23.7840  -32.7960 O   0  0  0  0  0  0  0  0  0  0  0  0
   -8.6120   22.6830  -31.2900 O   0  0  0  0  0  0  0  0  0  0  0  0
   -8.7630   21.2670  -31.2020 C   0  0  0  0  0  0  0  0  0  0  0  0
   -9.8334   21.0154  -31.2322 H   0  0  0  0  0  0  0  0  0  0  0  0
   -8.3164   20.9216  -30.2580 H   0  0  0  0  0  0  0  0  0  0  0  0
   -8.0540   20.5770  -32.3610 C   0  0  0  0  0  0  0  0  0  0  0  0
   -7.3181   19.8608  -31.9666 H   0  0  0  0  0  0  0  0  0  0  0  0
   -8.7924   20.0424  -32.9765 H   0  0  0  0  0  0  0  0  0  0  0  0
   -7.5396   21.3297  -32.9765 H   0  0  0  0  0  0  0  0  0  0  0  0
   -5.0530   23.2540  -30.9270 C   0  0  0  0  0  0  0  0  0  0  0  0
   -4.7652   22.4516  -31.6223 H   0  0  0  0  0  0  0  0  0  0  0  0
   -3.9970   24.1190  -30.3560 C   0  0  0  0  0  0  0  0  0  0  0  0
   -3.9300   25.3330  -30.6940 O   0  0  0  0  0  0  0  0  0  0  0  0
   -3.0430   23.5970  -29.3500 C   0  0  0  0  0  0  0  0  0  0  0  0
   -3.2480   22.3130  -28.8190 C   0  0  0  0  0  0  0  0  0  0  0  0
   -4.1108   21.7169  -29.1511 H   0  0  0  0  0  0  0  0  0  0  0  0
   -2.3650   21.7860  -27.8720 C   0  0  0  0  0  0  0  0  0  0  0  0
   -2.6560   20.0340  -27.1690 Br  0  0  0  0  0  0  0  0  0  0  0  0
   -1.2700   22.5370  -27.4410 C   0  0  0  0  0  0  0  0  0  0  0  0
   -0.5748   22.1155  -26.7000 H   0  0  0  0  0  0  0  0  0  0  0  0
   -1.0520   23.8260  -27.9480 C   0  0  0  0  0  0  0  0  0  0  0  0
    0.1060   24.6460  -27.4510 C   0  0  0  0  0  0  0  0  0  0  0  0
    0.1086   24.6479  -26.3510 H   0  0  0  0  0  0  0  0  0  0  0  0
    1.0474   24.2121  -27.8192 H   0  0  0  0  0  0  0  0  0  0  0  0
    0.0093   25.6780  -27.8192 H   0  0  0  0  0  0  0  0  0  0  0  0
   -1.9510   24.3650  -28.8900 C   0  0  0  0  0  0  0  0  0  0  0  0
   -1.7690   25.6710  -29.3380 O   0  0  0  0  0  0  0  0  0  0  0  0
  1  2  1  0
  2  3  1  0
  3  4  2  0
  3  5  1  0
  5  6  1  0
  6  7  1  0
  6  8  1  0
  6  9  1  0
  9 10  1  0
  9 11  1  0
  9 12  1  0
  2 13  2  0
 13 14  1  0
 13 15  1  0
 15 16  2  0
 15 17  1  0
 17 18  2  0
 18 19  1  0
 18 20  1  0
 20 21  1  0
 20 22  2  0
 22 23  1  0
 22 24  1  0
 24 25  1  0
 25 26  1  0
 25 27  1  0
 25 28  1  0
 24 29  2  0
 29 30  1  0
 29 17  1  0
M  CHG  1  30  -1
M  END
>  <UniqueID>  (30) 
29

>  <SMILES>  (30) 
CCOC(=O)/C=C/C(=O)c1cc(Br)cc(C)c1[O-]

>  <Energy>  (30) 
27.333090324555915

>  <Genealogy>  (30) 
CCOC(=O)C=CC(=O)c1cc(Br)cc(C)c1[O-] (protonated)
CCOC(=O)/C=C/C(=O)c1cc(Br)cc(C)c1[O-] (cis-trans isomerization)
CCOC(=O)/C=C/C(=O)c1cc(Br)cc(C)c1[O-] (3D coordinates assigned)
CCOC(=O)/C=C/C(=O)c1cc(Br)cc(C)c1[O-] (optimized conformer: 27.333090324555915 kcal/mol)

>  <smiles>  (30) 
CCOC(=O)C=CC(=O)c1cc(Br)cc(C)c1O

>  <score_type>  (30) 
oracle

>  <origin>  (30) 
adg

>  <m_score__min__energy>  (30) 
-10.039999999999999

>  <m_primary>  (30) 
energy

$$$$
30:0
     RDKit          3D

 33 34  0  0  0  0  0  0  0  0999 V2000
   -3.0750   21.0640  -32.8230 C   0  0  0  0  0  0  0  0  0  0  0  0
   -4.2170   21.0890  -31.9730 O   0  0  0  0  0  0  0  0  0  0  0  0
   -4.9000   22.2550  -31.5870 C   0  0  0  0  0  0  0  0  0  0  0  0
   -4.2100   23.4230  -31.2040 C   0  0  0  0  0  0  0  0  0  0  0  0
   -4.9130   24.5570  -30.7910 C   0  0  0  0  0  0  0  0  0  0  0  0
   -4.2390   25.6750  -30.4200 F   0  0  0  0  0  0  0  0  0  0  0  0
   -6.3070   24.5410  -30.7540 C   0  0  0  0  0  0  0  0  0  0  0  0
   -7.0050   23.3950  -31.1360 C   0  0  0  0  0  0  0  0  0  0  0  0
   -6.3130   22.2480  -31.5650 C   0  0  0  0  0  0  0  0  0  0  0  0
   -7.0850   21.0500  -31.9740 C   0  0  0  0  0  0  0  0  0  0  0  0
   -8.4300   20.9160  -31.6080 C   0  0  0  0  0  0  0  0  0  0  0  0
   -9.1170   19.7700  -31.9930 C   0  0  0  0  0  0  0  0  0  0  0  0
   -8.4800   18.8070  -32.7040 N   0  0  0  0  0  0  0  0  0  0  0  0
   -7.1690   18.9290  -33.0550 C   0  0  0  0  0  0  0  0  0  0  0  0
   -6.5340   17.8720  -33.8120 N   0  0  0  0  0  0  0  0  0  0  0  0
   -5.6590   18.2260  -34.9360 C   0  0  0  0  0  0  0  0  0  0  0  0
   -6.7530   16.4600  -33.4790 C   0  0  0  0  0  0  0  0  0  0  0  0
   -6.4800   20.0520  -32.6820 N   0  0  0  0  0  0  0  0  0  0  0  0
   -2.1619   21.0440  -32.2099 H   0  0  0  0  0  0  0  0  0  0  0  0
   -3.1101   20.1664  -33.4579 H   0  0  0  0  0  0  0  0  0  0  0  0
   -3.0707   21.9623  -33.4579 H   0  0  0  0  0  0  0  0  0  0  0  0
   -3.1105   23.4415  -31.2306 H   0  0  0  0  0  0  0  0  0  0  0  0
   -6.8574   25.4340  -30.4229 H   0  0  0  0  0  0  0  0  0  0  0  0
   -8.1044   23.3884  -31.1014 H   0  0  0  0  0  0  0  0  0  0  0  0
   -8.9336   21.7025  -31.0268 H   0  0  0  0  0  0  0  0  0  0  0  0
  -10.1755   19.6448  -31.7212 H   0  0  0  0  0  0  0  0  0  0  0  0
   -4.7042   18.6123  -34.5498 H   0  0  0  0  0  0  0  0  0  0  0  0
   -5.4717   17.3329  -35.5503 H   0  0  0  0  0  0  0  0  0  0  0  0
   -6.1454   18.9981  -35.5503 H   0  0  0  0  0  0  0  0  0  0  0  0
   -6.7717   16.3397  -32.3858 H   0  0  0  0  0  0  0  0  0  0  0  0
   -7.7133   16.1285  -33.9008 H   0  0  0  0  0  0  0  0  0  0  0  0
   -5.9382   15.8532  -33.9008 H   0  0  0  0  0  0  0  0  0  0  0  0
   -5.4800   20.1720  -32.9510 H   0  0  0  0  0  0  0  0  0  0  0  0
  1  2  1  0
  2  3  1  0
  3  4  2  0
  4  5  1  0
  5  6  1  0
  5  7  2  0
  7  8  1  0
  8  9  2  0
  9 10  1  0
 10 11  2  0
 11 12  1  0
 12 13  2  0
 13 14  1  0
 14 15  1  0
 15 16  1  0
 15 17  1  0
 14 18  2  0
  9  3  1  0
 18 10  1  0
  1 19  1  0
  1 20  1  0
  1 21  1  0
  4 22  1  0
  7 23  1  0
  8 24  1  0
 11 25  1  0
 12 26  1  0
 16 27  1  0
 16 28  1  0
 16 29  1  0
 17 30  1  0
 17 31  1  0
 17 32  1  0
 18 33  1  0
M  CHG  1  18   1
M  END
>  <UniqueID>  (31) 
30

>  <SMILES>  (31) 
COc1cc(F)ccc1-c1ccnc(N(C)C)[nH+]1

>  <Energy>  (31) 
38.075355739540825

>  <Genealogy>  (31) 
COc1cc(F)ccc1-c1ccnc(N(C)C)[nH+]1 (protonated)
COc1cc(F)ccc1-c1ccnc(N(C)C)[nH+]1 (3D coordinates assigned)
COc1cc(F)ccc1-c1ccnc(N(C)C)[nH+]1 (optimized conformer: 38.075355739540825 kcal/mol)

>  <smiles>  (31) 
COc1cc(F)ccc1-c1ccnc(N(C)C)n1

>  <score_type>  (31) 
oracle

>  <origin>  (31) 
adg

>  <m_score__min__energy>  (31) 
-5.6399999999999997

>  <m_primary>  (31) 
energy

$$$$
31:0
     RDKit          3D

 43 45  0  0  0  0  0  0  0  0999 V2000
   -9.1090   19.9080  -31.9860 C   0  0  0  0  0  0  0  0  0  0  0  0
   -9.0640   21.4320  -31.8760 C   0  0  0  0  0  0  0  0  0  0  0  0
   -8.1020   21.9250  -30.7800 C   0  0  0  0  0  0  0  0  0  0  0  0
   -7.2620   23.1340  -31.2270 C   0  0  0  0  0  0  0  0  0  0  0  0
   -5.8610   23.2360  -30.6320 C   0  0  0  0  0  0  0  0  0  0  0  0
   -5.6530   23.8160  -29.4050 N   0  0  0  0  0  0  0  0  0  0  0  0
   -4.4190   23.8820  -28.8300 C   0  0  0  0  0  0  0  0  0  0  0  0
   -4.2490   24.4740  -27.5660 C   0  0  0  0  0  0  0  0  0  0  0  0
   -2.9830   24.5260  -26.9770 C   0  0  0  0  0  0  0  0  0  0  0  0
   -2.8270   25.0960  -25.7570 F   0  0  0  0  0  0  0  0  0  0  0  0
   -1.8770   23.9910  -27.6430 C   0  0  0  0  0  0  0  0  0  0  0  0
   -2.0310   23.4050  -28.9020 C   0  0  0  0  0  0  0  0  0  0  0  0
   -3.3000   23.3480  -29.4990 C   0  0  0  0  0  0  0  0  0  0  0  0
   -3.4760   22.7700  -30.7550 C   0  0  0  0  0  0  0  0  0  0  0  0
   -4.7470   22.7140  -31.3470 C   0  0  0  0  0  0  0  0  0  0  0  0
   -4.8520   22.1010  -32.7300 C   0  0  0  0  0  0  0  0  0  0  0  0
   -5.3810   20.6910  -32.6560 C   0  0  0  0  0  0  0  0  0  0  0  0
   -5.9390   20.0820  -33.7940 C   0  0  0  0  0  0  0  0  0  0  0  0
   -6.4150   18.7680  -33.7280 C   0  0  0  0  0  0  0  0  0  0  0  0
   -6.3300   18.0510  -32.5300 C   0  0  0  0  0  0  0  0  0  0  0  0
   -5.7670   18.6460  -31.3960 C   0  0  0  0  0  0  0  0  0  0  0  0
   -5.2910   19.9590  -31.4580 C   0  0  0  0  0  0  0  0  0  0  0  0
   -9.1220   19.4679  -30.9780 H   0  0  0  0  0  0  0  0  0  0  0  0
  -10.0164   19.6062  -32.5296 H   0  0  0  0  0  0  0  0  0  0  0  0
   -8.2209   19.5532  -32.5296 H   0  0  0  0  0  0  0  0  0  0  0  0
   -8.7366   21.8442  -32.8419 H   0  0  0  0  0  0  0  0  0  0  0  0
  -10.0743   21.7736  -31.6067 H   0  0  0  0  0  0  0  0  0  0  0  0
   -8.6920   22.2134  -29.8976 H   0  0  0  0  0  0  0  0  0  0  0  0
   -7.4069   21.1030  -30.5537 H   0  0  0  0  0  0  0  0  0  0  0  0
   -7.1595   23.0857  -32.3211 H   0  0  0  0  0  0  0  0  0  0  0  0
   -7.8026   24.0198  -30.8623 H   0  0  0  0  0  0  0  0  0  0  0  0
   -6.4490   24.2250  -28.8700 H   0  0  0  0  0  0  0  0  0  0  0  0
   -5.1163   24.8980  -27.0386 H   0  0  0  0  0  0  0  0  0  0  0  0
   -0.8825   24.0313  -27.1747 H   0  0  0  0  0  0  0  0  0  0  0  0
   -1.1577   22.9883  -29.4253 H   0  0  0  0  0  0  0  0  0  0  0  0
   -2.6089   22.3531  -31.2881 H   0  0  0  0  0  0  0  0  0  0  0  0
   -5.5335   22.7095  -33.3426 H   0  0  0  0  0  0  0  0  0  0  0  0
   -3.8486   22.0762  -33.1800 H   0  0  0  0  0  0  0  0  0  0  0  0
   -6.0015   20.6407  -34.7395 H   0  0  0  0  0  0  0  0  0  0  0  0
   -6.8566   18.2982  -34.6193 H   0  0  0  0  0  0  0  0  0  0  0  0
   -6.7061   17.0185  -32.4795 H   0  0  0  0  0  0  0  0  0  0  0  0
   -5.6988   18.0804  -30.4550 H   0  0  0  0  0  0  0  0  0  0  0  0
   -4.8440   20.4219  -30.5659 H   0  0  0  0  0  0  0  0  0  0  0  0
  1  2  1  0
  2  3  1  0
  3  4  1  0
  4  5  1  0
  5  6  2  0
  6  7  1  0
  7  8  2  0
  8  9  1  0
  9 10  1  0
  9 11  2  0
 11 12  1  0
 12 13  2  0
 13 14  1  0
 14 15  2  0
 15 16  1  0
 16 17  1  0
 17 18  2  0
 18 19  1  0
 19 20  2  0
 20 21  1  0
 21 22  2  0
 15  5  1  0
 22 17  1  0
 13  7  1  0
  1 23  1  0
  1 24  1  0
  1 25  1  0
  2 26  1  0
  2 27  1  0
  3 28  1  0
  3 29  1  0
  4 30  1  0
  4 31  1  0
  6 32  1  0
  8 33  1  0
 11 34  1  0
 12 35  1  0
 14 36  1  0
 16 37  1  0
 16 38  1  0
 18 39  1  0
 19 40  1  0
 20 41  1  0
 21 42  1  0
 22 43  1  0
M  CHG  1   6   1
M  END
>  <UniqueID>  (32) 
31

>  <SMILES>  (32) 
CCCCc1[nH+]c2cc(F)ccc2cc1Cc1ccccc1

>  <Energy>  (32) 
47.69462575783082

>  <Genealogy>  (32) 
CCCCc1[nH+]c2cc(F)ccc2cc1Cc1ccccc1 (protonated)
CCCCc1[nH+]c2cc(F)ccc2cc1Cc1ccccc1 (3D coordinates assigned)
CCCCc1[nH+]c2cc(F)ccc2cc1Cc1ccccc1 (optimized conformer: 47.69462575783082 kcal/mol)

>  <smiles>  (32) 
CCCCc1nc2cc(F)ccc2cc1Cc1ccccc1

>  <score_type>  (32) 
oracle

>  <origin>  (32) 
adg

>  <m_score__min__energy>  (32) 
-6.9299999999999997

>  <m_primary>  (32) 
energy

$$$$
32:0
     RDKit          3D

 44 46  0  0  0  0  0  0  0  0999 V2000
   -2.8460   18.9080  -26.3580 C   0  0  0  0  0  0  0  0  0  0  0  0
   -2.7520   19.8270  -27.3230 C   0  0  0  0  0  0  0  0  0  0  0  0
   -1.8660   21.0330  -27.1820 C   0  0  0  0  0  0  0  0  0  0  0  0
   -2.3700   22.1670  -28.0340 C   0  0  0  0  0  0  0  0  0  0  0  0
   -2.7950   23.3640  -27.4420 C   0  0  0  0  0  0  0  0  0  0  0  0
   -3.2900   24.4030  -28.2300 C   0  0  0  0  0  0  0  0  0  0  0  0
   -3.3800   24.2590  -29.6280 C   0  0  0  0  0  0  0  0  0  0  0  0
   -3.8800   25.2780  -30.4580 O   0  0  0  0  0  0  0  0  0  0  0  0
   -5.2450   25.4330  -30.8470 C   0  0  0  0  0  0  0  0  0  0  0  0
   -5.9820   24.1380  -30.6960 C   0  0  0  0  0  0  0  0  0  0  0  0
   -5.9140   23.0380  -31.5240 C   0  0  0  0  0  0  0  0  0  0  0  0
   -6.7580   22.1190  -31.0070 N   0  0  0  0  0  0  0  0  0  0  0  0
   -7.0770   20.8180  -31.5380 C   0  0  0  0  0  0  0  0  0  0  0  0
   -6.0370   19.9240  -31.8510 C   0  0  0  0  0  0  0  0  0  0  0  0
   -6.3230   18.6550  -32.3630 C   0  0  0  0  0  0  0  0  0  0  0  0
   -7.6470   18.2680  -32.5760 C   0  0  0  0  0  0  0  0  0  0  0  0
   -7.9220   17.0370  -33.0760 F   0  0  0  0  0  0  0  0  0  0  0  0
   -8.6880   19.1520  -32.2860 C   0  0  0  0  0  0  0  0  0  0  0  0
   -8.4110   20.4230  -31.7720 C   0  0  0  0  0  0  0  0  0  0  0  0
   -9.4440   21.2740  -31.5500 F   0  0  0  0  0  0  0  0  0  0  0  0
   -7.3200   22.6350  -29.9230 N   0  0  0  0  0  0  0  0  0  0  0  0
   -6.8550   23.8560  -29.7130 N   0  0  0  0  0  0  0  0  0  0  0  0
   -2.9610   23.0620  -30.2280 C   0  0  0  0  0  0  0  0  0  0  0  0
   -3.0620   22.9460  -31.6240 O   0  0  0  0  0  0  0  0  0  0  0  0
   -2.9140   21.7270  -32.3460 C   0  0  0  0  0  0  0  0  0  0  0  0
   -2.4600   22.0170  -29.4270 C   0  0  0  0  0  0  0  0  0  0  0  0
   -3.5034   18.0361  -26.4910 H   0  0  0  0  0  0  0  0  0  0  0  0
   -2.2660   19.0232  -25.4304 H   0  0  0  0  0  0  0  0  0  0  0  0
   -3.3382   19.6978  -28.2448 H   0  0  0  0  0  0  0  0  0  0  0  0
   -1.8536   21.3506  -26.1289 H   0  0  0  0  0  0  0  0  0  0  0  0
   -0.8513   20.7665  -27.5127 H   0  0  0  0  0  0  0  0  0  0  0  0
   -2.7379   23.4848  -26.3501 H   0  0  0  0  0  0  0  0  0  0  0  0
   -3.6125   25.3418  -27.7560 H   0  0  0  0  0  0  0  0  0  0  0  0
   -5.7185   26.1956  -30.2113 H   0  0  0  0  0  0  0  0  0  0  0  0
   -5.2821   25.7434  -31.9017 H   0  0  0  0  0  0  0  0  0  0  0  0
   -5.2950   22.9301  -32.4269 H   0  0  0  0  0  0  0  0  0  0  0  0
   -4.9912   20.2256  -31.6917 H   0  0  0  0  0  0  0  0  0  0  0  0
   -5.5032   17.9603  -32.5984 H   0  0  0  0  0  0  0  0  0  0  0  0
   -9.7302   18.8477  -32.4625 H   0  0  0  0  0  0  0  0  0  0  0  0
   -7.1430   24.4770  -28.9250 H   0  0  0  0  0  0  0  0  0  0  0  0
   -2.8126   20.8914  -31.6378 H   0  0  0  0  0  0  0  0  0  0  0  0
   -3.7992   21.5659  -32.9789 H   0  0  0  0  0  0  0  0  0  0  0  0
   -2.0160   21.7824  -32.9789 H   0  0  0  0  0  0  0  0  0  0  0  0
   -2.1368   21.0762  -29.8966 H   0  0  0  0  0  0  0  0  0  0  0  0
  1  2  2  0
  2  3  1  0
  3  4  1  0
  4  5  2  0
  5  6  1  0
  6  7  2  0
  7  8  1  0
  8  9  1  0
  9 10  1  0
 10 11  2  0
 11 12  1  0
 12 13  1  0
 13 14  2  0
 14 15  1  0
 15 16  2  0
 16 17  1  0
 16 18  1  0
 18 19  2  0
 19 20  1  0
 12 21  1  0
 21 22  2  0
  7 23  1  0
 23 24  1  0
 24 25  1  0
 23 26  2  0
 26  4  1  0
 22 10  1  0
 19 13  1  0
  1 27  1  0
  1 28  1  0
  2 29  1  0
  3 30  1  0
  3 31  1  0
  5 32  1  0
  6 33  1  0
  9 34  1  0
  9 35  1  0
 11 36  1  0
 14 37  1  0
 15 38  1  0
 18 39  1  0
 22 40  1  0
 25 41  1  0
 25 42  1  0
 25 43  1  0
 26 44  1  0
M  CHG  1  22   1
M  END
>  <UniqueID>  (33) 
32

>  <SMILES>  (33) 
C=CCc1ccc(OCc2cn(-c3ccc(F)cc3F)n[nH+]2)c(OC)c1

>  <Energy>  (33) 
81.06348524742046

>  <Genealogy>  (33) 
C=CCc1ccc(OCc2cn(-c3ccc(F)cc3F)n[nH+]2)c(OC)c1 (protonated)
C=CCc1ccc(OCc2cn(-c3ccc(F)cc3F)n[nH+]2)c(OC)c1 (3D coordinates assigned)
C=CCc1ccc(OCc2cn(-c3ccc(F)cc3F)n[nH+]2)c(OC)c1 (optimized conformer: 81.06348524742046 kcal/mol)

>  <smiles>  (33) 
C=CCc1ccc(OCc2cn(-c3ccc(F)cc3F)nn2)c(OC)c1

>  <score_type>  (33) 
oracle

>  <origin>  (33) 
adg

>  <m_score__min__energy>  (33) 
-9.0500000000000007

>  <m_primary>  (33) 
energy

$$$$
33:0
     RDKit          3D

 34 36  0  0  1  0  0  0  0  0999 V2000
   -8.4280   18.8800  -31.6150 C   0  0  0  0  0  0  0  0  0  0  0  0
   -9.0150   19.9210  -32.5540 C   0  0  0  0  0  0  0  0  0  0  0  0
   -8.3630   21.1830  -32.2410 N   0  0  0  0  0  0  0  0  0  0  0  0
   -8.9840   22.2950  -31.7970 C   0  0  0  0  0  0  0  0  0  0  0  0
   -8.0550   23.2780  -31.6120 N   0  0  0  0  0  0  0  0  0  0  0  0
   -6.8590   22.7760  -31.9410 C   0  0  0  0  0  0  0  0  0  0  0  0
   -5.5900   23.3280  -31.9430 C   0  0  0  0  0  0  0  0  0  0  0  0
   -5.3850   24.5500  -31.5790 N   0  0  0  0  0  0  0  0  0  0  0  0
   -5.5180   24.9030  -30.1880 C   0  0  0  0  0  0  0  0  0  0  0  0
   -4.4440   24.1770  -29.4130 C   0  0  0  0  0  0  0  0  0  0  0  0
   -4.6040   23.0660  -28.5960 C   0  0  0  0  0  0  0  0  0  0  0  0
   -3.4800   22.6050  -28.0130 C   0  0  0  0  0  0  0  0  0  0  0  0
   -2.3260   23.2260  -28.2500 C   0  0  0  0  0  0  0  0  0  0  0  0
   -0.9600   22.8920  -27.7130 C   0  0  0  0  0  0  0  0  0  0  0  0
   -2.7400   24.5420  -29.3410 S   0  0  0  0  0  0  0  0  0  0  0  0
   -4.5380   22.5780  -32.3300 N   0  0  0  0  0  0  0  0  0  0  0  0
   -4.7460   21.2970  -32.7120 C   0  0  0  0  0  0  0  0  0  0  0  0
   -3.3930   20.2840  -33.2280 Cl  0  0  0  0  0  0  0  0  0  0  0  0
   -5.9630   20.7270  -32.7250 N   0  0  0  0  0  0  0  0  0  0  0  0
   -7.0290   21.4520  -32.3420 C   0  0  0  0  0  0  0  0  0  0  0  0
   -8.6011   19.1870  -30.5730 H   0  0  0  0  0  0  0  0  0  0  0  0
   -8.9114   17.9086  -31.7962 H   0  0  0  0  0  0  0  0  0  0  0  0
   -7.3467   18.7909  -31.7962 H   0  0  0  0  0  0  0  0  0  0  0  0
   -8.8182   19.6420  -33.5997 H   0  0  0  0  0  0  0  0  0  0  0  0
  -10.1050   19.9973  -32.4275 H   0  0  0  0  0  0  0  0  0  0  0  0
  -10.0641   22.3938  -31.6137 H   0  0  0  0  0  0  0  0  0  0  0  0
   -5.3956   25.9893  -30.0660 H   0  0  0  0  0  0  0  0  0  0  0  0
   -6.5134   24.6179  -29.8168 H   0  0  0  0  0  0  0  0  0  0  0  0
   -5.5840   22.5931  -28.4351 H   0  0  0  0  0  0  0  0  0  0  0  0
   -3.5152   21.7277  -27.3504 H   0  0  0  0  0  0  0  0  0  0  0  0
   -0.9867   22.8985  -26.6133 H   0  0  0  0  0  0  0  0  0  0  0  0
   -0.6609   21.8943  -28.0666 H   0  0  0  0  0  0  0  0  0  0  0  0
   -0.2342   23.6391  -28.0666 H   0  0  0  0  0  0  0  0  0  0  0  0
   -3.5600   22.9220  -32.3570 H   0  0  0  0  0  0  0  0  0  0  0  0
  1  2  1  0
  2  3  1  0
  3  4  1  0
  4  5  2  0
  5  6  1  0
  6  7  1  0
  7  8  2  0
  8  9  1  0
  9 10  1  0
 10 11  2  0
 11 12  1  0
 12 13  2  0
 13 14  1  0
 13 15  1  0
  7 16  1  0
 16 17  1  0
 17 18  1  0
 17 19  2  0
 19 20  1  0
 20  3  1  0
 20  6  2  0
 15 10  1  0
  1 21  1  0
  1 22  1  0
  1 23  1  0
  2 24  1  0
  2 25  1  0
  4 26  1  0
  9 27  1  0
  9 28  1  0
 11 29  1  0
 12 30  1  0
 14 31  1  0
 14 32  1  0
 14 33  1  0
 16 34  1  0
M  END
>  <smiles>  (34) 
CCn1cnc2c(=NCc3ccc(C)s3)[nH]c(Cl)nc21

>  <score_type>  (34) 
oracle

>  <origin>  (34) 
adg

>  <m_score__min__energy>  (34) 
-7.2599999999999998

>  <m_primary>  (34) 
energy

$$$$
34:0
     RDKit          3D

 51 53  0  0  0  0  0  0  0  0999 V2000
   -2.2650   25.6396  -26.8787 H   0  0  0  0  0  0  0  0  0  0  0  0
   -1.7300   24.8850  -27.4740 C   0  0  0  0  0  0  0  0  0  0  0  0
   -1.0220   23.9340  -26.8480 C   0  0  0  0  0  0  0  0  0  0  0  0
   -0.0643   24.2029  -26.3785 H   0  0  0  0  0  0  0  0  0  0  0  0
   -1.5010   22.5060  -26.7690 C   0  0  0  0  0  0  0  0  0  0  0  0
   -0.6928   21.8764  -26.3685 H   0  0  0  0  0  0  0  0  0  0  0  0
   -2.3809   22.4657  -26.1101 H   0  0  0  0  0  0  0  0  0  0  0  0
   -1.8890   22.0040  -28.1110 N   0  0  1  0  0  0  0  0  0  0  0  0
   -2.1210   22.8480  -28.6920 H   0  0  0  0  0  0  0  0  0  0  0  0
   -0.8500   21.2490  -28.8320 C   0  0  1  0  0  0  0  0  0  0  0  0
    0.0195   21.8787  -29.0717 H   0  0  0  0  0  0  0  0  0  0  0  0
   -0.3130   20.0630  -27.9830 C   0  0  0  0  0  0  0  0  0  0  0  0
    0.3815   20.4547  -27.2252 H   0  0  0  0  0  0  0  0  0  0  0  0
    0.1931   19.3611  -28.6621 H   0  0  0  0  0  0  0  0  0  0  0  0
   -1.4290   19.3140  -27.2830 C   0  0  0  0  0  0  0  0  0  0  0  0
   -1.1780   18.2570  -26.7250 O   0  0  0  0  0  0  0  0  0  0  0  0
   -2.8380   19.8690  -27.2130 C   0  0  0  0  0  0  0  0  0  0  0  0
   -3.0410   20.1936  -26.1818 H   0  0  0  0  0  0  0  0  0  0  0  0
   -3.5320   19.0742  -27.5239 H   0  0  0  0  0  0  0  0  0  0  0  0
   -3.0350   21.0780  -28.1670 C   0  0  2  0  0  0  0  0  0  0  0  0
   -3.9717   21.5656  -27.8590 H   0  0  0  0  0  0  0  0  0  0  0  0
   -3.0420   20.5890  -29.6270 C   0  0  0  0  0  0  0  0  0  0  0  0
   -3.6896   21.2254  -30.2479 H   0  0  0  0  0  0  0  0  0  0  0  0
   -3.4318   19.5651  -29.7253 H   0  0  0  0  0  0  0  0  0  0  0  0
   -1.5810   20.7040  -30.0720 C   0  0  0  0  0  0  0  0  0  0  0  0
   -1.4847   21.3996  -30.9187 H   0  0  0  0  0  0  0  0  0  0  0  0
   -1.1687   19.7440  -30.4159 H   0  0  0  0  0  0  0  0  0  0  0  0
   -1.8060   24.9390  -28.9710 C   0  0  0  0  0  0  0  0  0  0  0  0
   -0.8524   24.5946  -29.3977 H   0  0  0  0  0  0  0  0  0  0  0  0
   -2.0015   25.9742  -29.2876 H   0  0  0  0  0  0  0  0  0  0  0  0
   -2.8850   24.0800  -29.4420 N   0  0  0  0  0  0  0  0  0  0  0  0
   -3.9890   24.5430  -30.2280 C   0  0  0  0  0  0  0  0  0  0  0  0
   -3.8800   25.6370  -30.8420 O   0  0  0  0  0  0  0  0  0  0  0  0
   -5.2780   23.7750  -30.2900 C   0  0  0  0  0  0  0  0  0  0  0  0
   -6.1075   24.4316  -29.9887 H   0  0  0  0  0  0  0  0  0  0  0  0
   -5.2165   22.9131  -29.6093 H   0  0  0  0  0  0  0  0  0  0  0  0
   -5.5060   23.3060  -31.6170 O   0  0  0  0  0  0  0  0  0  0  0  0
   -5.8120   21.9840  -31.9890 C   0  0  0  0  0  0  0  0  0  0  0  0
   -4.8660   21.0740  -32.5370 C   0  0  0  0  0  0  0  0  0  0  0  0
   -3.0690   21.5370  -33.0240 Br  0  0  0  0  0  0  0  0  0  0  0  0
   -5.2580   19.7620  -32.8320 C   0  0  0  0  0  0  0  0  0  0  0  0
   -4.5229   19.0554  -33.2447 H   0  0  0  0  0  0  0  0  0  0  0  0
   -6.5690   19.3400  -32.6090 C   0  0  0  0  0  0  0  0  0  0  0  0
   -7.0790   17.5460  -33.0160 Br  0  0  0  0  0  0  0  0  0  0  0  0
   -7.5110   20.2350  -32.1040 C   0  0  0  0  0  0  0  0  0  0  0  0
   -8.5469   19.9037  -31.9391 H   0  0  0  0  0  0  0  0  0  0  0  0
   -7.1450   21.5560  -31.8050 C   0  0  0  0  0  0  0  0  0  0  0  0
   -8.1700   22.5010  -31.2370 C   0  0  0  0  0  0  0  0  0  0  0  0
   -8.1320   22.4659  -30.1382 H   0  0  0  0  0  0  0  0  0  0  0  0
   -7.9547   23.5241  -31.5789 H   0  0  0  0  0  0  0  0  0  0  0  0
   -9.1723   22.2035  -31.5789 H   0  0  0  0  0  0  0  0  0  0  0  0
  1  2  1  0
  2  3  2  0
  3  4  1  0
  3  5  1  0
  5  6  1  0
  5  7  1  0
  5  8  1  0
  8  9  1  6
  8 10  1  0
 10 11  1  6
 10 12  1  0
 12 13  1  0
 12 14  1  0
 12 15  1  0
 15 16  2  0
 15 17  1  0
 17 18  1  0
 17 19  1  0
 17 20  1  0
 20 21  1  1
 20 22  1  0
 22 23  1  0
 22 24  1  0
 22 25  1  0
 25 26  1  0
 25 27  1  0
  2 28  1  0
 28 29  1  0
 28 30  1  0
 28 31  1  0
 31 32  1  0
 32 33  2  0
 32 34  1  0
 34 35  1  0
 34 36  1  0
 34 37  1  0
 37 38  1  0
 38 39  2  0
 39 40  1  0
 39 41  1  0
 41 42  1  0
 41 43  2  0
 43 44  1  0
 43 45  1  0
 45 46  1  0
 45 47  2  0
 47 48  1  0
 48 49  1  0
 48 50  1  0
 48 51  1  0
 20  8  1  0
 47 38  1  0
 25 10  1  0
M  CHG  2   8   1  31  -1
M  END
>  <UniqueID>  (35) 
33

>  <SMILES>  (35) 
Cc1cc(Br)cc(Br)c1OCC(=O)[N-]C/C=C/C[NH+]1[C@@H]2CC[C@H]1CC(=O)C2

>  <Energy>  (35) 
67.44692005265442

>  <Genealogy>  (35) 
Cc1cc(Br)cc(Br)c1OCC(=O)[N-]CC=CC[NH+]1C2CCC1CC(=O)C2 (protonated)
Cc1cc(Br)cc(Br)c1OCC(=O)[N-]CC=CC[NH+]1[C@@H]2CC[C@H]1CC(=O)C2 (chirality)
Cc1cc(Br)cc(Br)c1OCC(=O)[N-]C/C=C/C[NH+]1[C@@H]2CC[C@H]1CC(=O)C2 (cis-trans isomerization)
Cc1cc(Br)cc(Br)c1OCC(=O)[N-]C/C=C/C[NH+]1[C@@H]2CC[C@H]1CC(=O)C2 (3D coordinates assigned)
Cc1cc(Br)cc(Br)c1OCC(=O)[N-]C/C=C/C[NH+]1[C@@H]2CC[C@H]1CC(=O)C2 (nonaromatic ring conformer: 67.44692005265442 kcal/mol)

>  <smiles>  (35) 
Cc1cc(Br)cc(Br)c1OCC(=O)NCC=CCN1C2CCC1CC(=O)C2

>  <score_type>  (35) 
oracle

>  <origin>  (35) 
adg

>  <m_score__min__energy>  (35) 
-10.56

>  <m_primary>  (35) 
energy

$$$$
35:0
     RDKit          3D

 39 41  0  0  0  0  0  0  0  0999 V2000
   -8.7730   18.5730  -31.5190 C   0  0  0  0  0  0  0  0  0  0  0  0
   -8.2890   19.1560  -32.7250 O   0  0  0  0  0  0  0  0  0  0  0  0
   -6.9330   19.2390  -33.0840 C   0  0  0  0  0  0  0  0  0  0  0  0
   -6.2430   20.4620  -33.0920 C   0  0  0  0  0  0  0  0  0  0  0  0
   -4.8910   20.5190  -33.4520 C   0  0  0  0  0  0  0  0  0  0  0  0
   -4.2010   21.7860  -33.4950 N   0  0  0  0  0  0  0  0  0  0  0  0
   -3.4580   21.9730  -32.2740 C   0  0  0  0  0  0  0  0  0  0  0  0
   -2.4640   21.0530  -31.8710 C   0  0  0  0  0  0  0  0  0  0  0  0
   -1.7720   21.2280  -30.6550 C   0  0  0  0  0  0  0  0  0  0  0  0
   -2.0790   22.3230  -29.8350 C   0  0  0  0  0  0  0  0  0  0  0  0
   -3.0430   23.1780  -30.2570 N   0  0  0  0  0  0  0  0  0  0  0  0
   -3.5630   24.2900  -29.7180 C   0  0  0  0  0  0  0  0  0  0  0  0
   -3.2050   24.7820  -28.6160 O   0  0  0  0  0  0  0  0  0  0  0  0
   -4.5210   24.8200  -30.5060 N   0  0  0  0  0  0  0  0  0  0  0  0
   -4.6200   24.0320  -31.5740 N   0  0  0  0  0  0  0  0  0  0  0  0
   -3.7180   23.0430  -31.4060 C   0  0  0  0  0  0  0  0  0  0  0  0
   -4.2300   19.3390  -33.8150 C   0  0  0  0  0  0  0  0  0  0  0  0
   -4.9010   18.1010  -33.8170 C   0  0  0  0  0  0  0  0  0  0  0  0
   -4.2320   16.9230  -34.1850 O   0  0  0  0  0  0  0  0  0  0  0  0
   -2.9490   16.5270  -33.7110 C   0  0  0  0  0  0  0  0  0  0  0  0
   -6.2690   18.0540  -33.4430 C   0  0  0  0  0  0  0  0  0  0  0  0
   -7.0300   16.8690  -33.4090 O   0  0  0  0  0  0  0  0  0  0  0  0
   -6.8290   15.7070  -34.2060 C   0  0  0  0  0  0  0  0  0  0  0  0
   -8.3367   19.0986  -30.6568 H   0  0  0  0  0  0  0  0  0  0  0  0
   -9.8691   18.6588  -31.4844 H   0  0  0  0  0  0  0  0  0  0  0  0
   -8.4870   17.5114  -31.4844 H   0  0  0  0  0  0  0  0  0  0  0  0
   -6.7706   21.3858  -32.8123 H   0  0  0  0  0  0  0  0  0  0  0  0
   -3.5500   21.8120  -34.3140 H   0  0  0  0  0  0  0  0  0  0  0  0
   -4.8830   22.5690  -33.6280 H   0  0  0  0  0  0  0  0  0  0  0  0
   -2.2276   20.1913  -32.5126 H   0  0  0  0  0  0  0  0  0  0  0  0
   -0.9960   20.5098  -30.3516 H   0  0  0  0  0  0  0  0  0  0  0  0
   -1.5552   22.4831  -28.8810 H   0  0  0  0  0  0  0  0  0  0  0  0
   -3.1692   19.3799  -34.1033 H   0  0  0  0  0  0  0  0  0  0  0  0
   -2.9485   16.5268  -32.6110 H   0  0  0  0  0  0  0  0  0  0  0  0
   -2.7186   15.5159  -34.0779 H   0  0  0  0  0  0  0  0  0  0  0  0
   -2.1888   17.2323  -34.0779 H   0  0  0  0  0  0  0  0  0  0  0  0
   -6.6782   14.8354  -33.5521 H   0  0  0  0  0  0  0  0  0  0  0  0
   -7.7117   15.5407  -34.8409 H   0  0  0  0  0  0  0  0  0  0  0  0
   -5.9417   15.8469  -34.8409 H   0  0  0  0  0  0  0  0  0  0  0  0
  1  2  1  0
  2  3  1  0
  3  4  2  0
  4  5  1  0
  5  6  1  0
  6  7  1  0
  7  8  2  0
  8  9  1  0
  9 10  2  0
 10 11  1  0
 11 12  1  0
 12 13  2  0
 12 14  1  0
 14 15  1  0
 15 16  2  0
  5 17  2  0
 17 18  1  0
 18 19  1  0
 19 20  1  0
 18 21  2  0
 21 22  1  0
 22 23  1  0
 21  3  1  0
 16  7  1  0
 16 11  1  0
  1 24  1  0
  1 25  1  0
  1 26  1  0
  4 27  1  0
  6 28  1  0
  6 29  1  0
  8 30  1  0
  9 31  1  0
 10 32  1  0
 17 33  1  0
 20 34  1  0
 20 35  1  0
 20 36  1  0
 23 37  1  0
 23 38  1  0
 23 39  1  0
M  CHG  2   6   1  14  -1
M  END
>  <UniqueID>  (36) 
34

>  <SMILES>  (36) 
COc1cc([NH2+]c2cccn3c(=O)[n-]nc23)cc(OC)c1OC

>  <Energy>  (36) 
86.87619399915766

>  <Genealogy>  (36) 
COc1cc([NH2+]c2cccn3c(=O)[n-]nc23)cc(OC)c1OC (protonated)
COc1cc([NH2+]c2cccn3c(=O)[n-]nc23)cc(OC)c1OC (3D coordinates assigned)
COc1cc([NH2+]c2cccn3c(=O)[n-]nc23)cc(OC)c1OC (optimized conformer: 86.87619399915766 kcal/mol)

>  <smiles>  (36) 
COc1cc(Nc2cccn3c(=O)[nH]nc23)cc(OC)c1OC

>  <score_type>  (36) 
oracle

>  <origin>  (36) 
adg

>  <m_score__min__energy>  (36) 
-7.1500000000000004

>  <m_primary>  (36) 
energy

$$$$
36:0
     RDKit          3D

 52 54  0  0  0  0  0  0  0  0999 V2000
   -5.4170   25.8970  -30.5080 C   0  0  0  0  0  0  0  0  0  0  0  0
   -4.0260   25.5920  -30.4770 O   0  0  0  0  0  0  0  0  0  0  0  0
   -3.4880   24.3870  -29.9980 C   0  0  0  0  0  0  0  0  0  0  0  0
   -4.1470   23.1550  -30.1650 C   0  0  0  0  0  0  0  0  0  0  0  0
   -3.5810   21.9780  -29.6740 C   0  0  0  0  0  0  0  0  0  0  0  0
   -2.3530   22.0110  -28.9990 C   0  0  0  0  0  0  0  0  0  0  0  0
   -1.7280   20.7350  -28.5010 C   0  0  0  0  0  0  0  0  0  0  0  0
   -0.7850   20.1490  -29.5540 C   0  0  0  0  0  0  0  0  0  0  0  0
   -0.9620   20.8310  -30.8350 N   0  0  0  0  0  0  0  0  0  0  0  0
   -1.8820   20.3720  -31.8340 C   0  0  0  0  0  0  0  0  0  0  0  0
   -2.5400   19.3100  -31.6580 O   0  0  0  0  0  0  0  0  0  0  0  0
   -2.0260   21.1220  -33.1230 C   0  0  0  0  0  0  0  0  0  0  0  0
   -3.4620   21.6200  -33.2980 C   0  0  0  0  0  0  0  0  0  0  0  0
   -4.3930   20.4800  -33.3620 N   0  0  0  0  0  0  0  0  0  0  0  0
   -3.9890   19.2740  -34.0470 C   0  0  0  0  0  0  0  0  0  0  0  0
   -2.8350   19.1730  -34.5470 O   0  0  0  0  0  0  0  0  0  0  0  0
   -4.9660   18.1530  -34.2420 C   0  0  0  0  0  0  0  0  0  0  0  0
   -5.9650   18.1580  -33.2270 O   0  0  0  0  0  0  0  0  0  0  0  0
   -6.4670   19.3420  -32.6820 C   0  0  0  0  0  0  0  0  0  0  0  0
   -7.7100   19.3320  -32.0420 C   0  0  0  0  0  0  0  0  0  0  0  0
   -8.2380   20.5130  -31.5200 C   0  0  0  0  0  0  0  0  0  0  0  0
   -7.5250   21.7070  -31.6330 C   0  0  0  0  0  0  0  0  0  0  0  0
   -6.2710   21.7210  -32.2520 C   0  0  0  0  0  0  0  0  0  0  0  0
   -5.7160   20.5310  -32.7700 C   0  0  0  0  0  0  0  0  0  0  0  0
   -1.6850   23.2340  -28.8440 C   0  0  0  0  0  0  0  0  0  0  0  0
   -2.2500   24.4270  -29.3360 C   0  0  0  0  0  0  0  0  0  0  0  0
   -1.6130   25.6690  -29.1900 O   0  0  0  0  0  0  0  0  0  0  0  0
   -0.9250   26.0900  -28.0170 C   0  0  0  0  0  0  0  0  0  0  0  0
   -5.7971   25.9803  -29.4791 H   0  0  0  0  0  0  0  0  0  0  0  0
   -5.5717   26.8504  -31.0344 H   0  0  0  0  0  0  0  0  0  0  0  0
   -5.9564   25.0958  -31.0344 H   0  0  0  0  0  0  0  0  0  0  0  0
   -5.1150   23.1196  -30.6862 H   0  0  0  0  0  0  0  0  0  0  0  0
   -4.1011   21.0194  -29.8173 H   0  0  0  0  0  0  0  0  0  0  0  0
   -1.1589   20.9455  -27.5835 H   0  0  0  0  0  0  0  0  0  0  0  0
   -2.5261   20.0064  -28.2957 H   0  0  0  0  0  0  0  0  0  0  0  0
    0.2550   20.2735  -29.2181 H   0  0  0  0  0  0  0  0  0  0  0  0
   -1.0159   19.0814  -29.6841 H   0  0  0  0  0  0  0  0  0  0  0  0
   -0.3540   21.6540  -31.0470 H   0  0  0  0  0  0  0  0  0  0  0  0
   -1.3424   21.9838  -33.1183 H   0  0  0  0  0  0  0  0  0  0  0  0
   -1.7806   20.4466  -33.9559 H   0  0  0  0  0  0  0  0  0  0  0  0
   -3.7306   22.2607  -32.4452 H   0  0  0  0  0  0  0  0  0  0  0  0
   -3.5312   22.1922  -34.2349 H   0  0  0  0  0  0  0  0  0  0  0  0
   -5.4506   18.2660  -35.2230 H   0  0  0  0  0  0  0  0  0  0  0  0
   -4.4186   17.2004  -34.1872 H   0  0  0  0  0  0  0  0  0  0  0  0
   -8.2726   18.3912  -31.9499 H   0  0  0  0  0  0  0  0  0  0  0  0
   -9.2172   20.5029  -31.0189 H   0  0  0  0  0  0  0  0  0  0  0  0
   -7.9503   22.6398  -31.2342 H   0  0  0  0  0  0  0  0  0  0  0  0
   -5.7135   22.6656  -32.3357 H   0  0  0  0  0  0  0  0  0  0  0  0
   -0.7110   23.2622  -28.3336 H   0  0  0  0  0  0  0  0  0  0  0  0
   -1.4767   25.7524  -27.1273 H   0  0  0  0  0  0  0  0  0  0  0  0
    0.0855   25.6554  -28.0087 H   0  0  0  0  0  0  0  0  0  0  0  0
   -0.8521   27.1876  -28.0087 H   0  0  0  0  0  0  0  0  0  0  0  0
  1  2  1  0
  2  3  1  0
  3  4  2  0
  4  5  1  0
  5  6  2  0
  6  7  1  0
  7  8  1  0
  8  9  1  0
  9 10  1  0
 10 11  2  0
 10 12  1  0
 12 13  1  0
 13 14  1  0
 14 15  1  0
 15 16  2  0
 15 17  1  0
 17 18  1  0
 18 19  1  0
 19 20  2  0
 20 21  1  0
 21 22  2  0
 22 23  1  0
 23 24  2  0
  6 25  1  0
 25 26  2  0
 26 27  1  0
 27 28  1  0
 26  3  1  0
 24 14  1  0
 24 19  1  0
  1 29  1  0
  1 30  1  0
  1 31  1  0
  4 32  1  0
  5 33  1  0
  7 34  1  0
  7 35  1  0
  8 36  1  0
  8 37  1  0
  9 38  1  0
 12 39  1  0
 12 40  1  0
 13 41  1  0
 13 42  1  0
 17 43  1  0
 17 44  1  0
 20 45  1  0
 21 46  1  0
 22 47  1  0
 23 48  1  0
 25 49  1  0
 28 50  1  0
 28 51  1  0
 28 52  1  0
M  END
>  <UniqueID>  (37) 
35

>  <SMILES>  (37) 
COc1ccc(CCNC(=O)CCN2C(=O)COc3ccccc32)cc1OC

>  <Energy>  (37) 
48.72056062421887

>  <Genealogy>  (37) 
COc1ccc(CCNC(=O)CCN2C(=O)COc3ccccc32)cc1OC (3D coordinates assigned)
COc1ccc(CCNC(=O)CCN2C(=O)COc3ccccc32)cc1OC (nonaromatic ring conformer: 48.72056062421887 kcal/mol)

>  <smiles>  (37) 
COc1ccc(CCNC(=O)CCN2C(=O)COc3ccccc32)cc1OC

>  <score_type>  (37) 
oracle

>  <origin>  (37) 
adg

>  <m_score__min__energy>  (37) 
-8.5

>  <m_primary>  (37) 
energy

$$$$
37:0
     RDKit          3D

 33 35  0  0  0  0  0  0  0  0999 V2000
    1.0660   21.4740  -35.0790 C   0  0  0  0  0  0  0  0  0  0  0  0
    1.1000   20.5930  -33.4860 S   0  0  0  0  0  0  0  0  0  0  0  0
   -0.6580   20.8020  -33.1970 C   0  0  0  0  0  0  0  0  0  0  0  0
   -1.5850   20.2240  -34.0700 C   0  0  0  0  0  0  0  0  0  0  0  0
   -2.9560   20.3820  -33.8430 C   0  0  0  0  0  0  0  0  0  0  0  0
   -3.4130   21.1220  -32.7390 C   0  0  0  0  0  0  0  0  0  0  0  0
   -4.8230   21.2870  -32.5060 N   0  0  0  0  0  0  0  0  0  0  0  0
   -5.5120   22.4790  -32.1190 C   0  0  0  0  0  0  0  0  0  0  0  0
   -4.9630   23.6030  -31.9650 O   0  0  0  0  0  0  0  0  0  0  0  0
   -6.9390   22.2130  -31.9910 C   0  0  0  0  0  0  0  0  0  0  0  0
   -7.9850   23.0640  -31.6430 C   0  0  0  0  0  0  0  0  0  0  0  0
   -9.2830   22.5310  -31.5990 C   0  0  0  0  0  0  0  0  0  0  0  0
   -9.5120   21.1730  -31.9020 C   0  0  0  0  0  0  0  0  0  0  0  0
   -8.4390   20.3240  -32.2560 C   0  0  0  0  0  0  0  0  0  0  0  0
   -8.6740   18.8770  -32.5800 C   0  0  0  0  0  0  0  0  0  0  0  0
   -7.1540   20.8830  -32.2920 C   0  0  0  0  0  0  0  0  0  0  0  0
   -5.8510   20.2950  -32.6100 C   0  0  0  0  0  0  0  0  0  0  0  0
   -5.6400   19.0840  -32.8860 O   0  0  0  0  0  0  0  0  0  0  0  0
   -2.4750   21.6960  -31.8650 C   0  0  0  0  0  0  0  0  0  0  0  0
   -1.1050   21.5350  -32.0930 C   0  0  0  0  0  0  0  0  0  0  0  0
    1.0242   22.5581  -34.8976 H   0  0  0  0  0  0  0  0  0  0  0  0
    1.9741   21.2327  -35.6509 H   0  0  0  0  0  0  0  0  0  0  0  0
    0.1792   21.1634  -35.6509 H   0  0  0  0  0  0  0  0  0  0  0  0
   -1.2353   19.6440  -34.9368 H   0  0  0  0  0  0  0  0  0  0  0  0
   -3.6808   19.9245  -34.5325 H   0  0  0  0  0  0  0  0  0  0  0  0
   -7.7996   24.1228  -31.4094 H   0  0  0  0  0  0  0  0  0  0  0  0
  -10.1291   23.1786  -31.3257 H   0  0  0  0  0  0  0  0  0  0  0  0
  -10.5351   20.7708  -31.8625 H   0  0  0  0  0  0  0  0  0  0  0  0
   -8.7673   18.3027  -31.6465 H   0  0  0  0  0  0  0  0  0  0  0  0
   -9.6000   18.7780  -33.1655 H   0  0  0  0  0  0  0  0  0  0  0  0
   -7.8269   18.4901  -33.1655 H   0  0  0  0  0  0  0  0  0  0  0  0
   -2.8203   22.2755  -30.9962 H   0  0  0  0  0  0  0  0  0  0  0  0
   -0.3771   21.9859  -31.4025 H   0  0  0  0  0  0  0  0  0  0  0  0
  1  2  1  0
  2  3  1  0
  3  4  2  0
  4  5  1  0
  5  6  2  0
  6  7  1  0
  7  8  1  0
  8  9  2  0
  8 10  1  0
 10 11  2  0
 11 12  1  0
 12 13  2  0
 13 14  1  0
 14 15  1  0
 14 16  2  0
 16 17  1  0
 17 18  2  0
  6 19  1  0
 19 20  2  0
 20  3  1  0
 17  7  1  0
 16 10  1  0
  1 21  1  0
  1 22  1  0
  1 23  1  0
  4 24  1  0
  5 25  1  0
 11 26  1  0
 12 27  1  0
 13 28  1  0
 15 29  1  0
 15 30  1  0
 15 31  1  0
 19 32  1  0
 20 33  1  0
M  END
>  <UniqueID>  (38) 
36

>  <SMILES>  (38) 
CSc1ccc(N2C(=O)c3cccc(C)c3C2=O)cc1

>  <Energy>  (38) 
67.641718232667

>  <Genealogy>  (38) 
CSc1ccc(N2C(=O)c3cccc(C)c3C2=O)cc1 (3D coordinates assigned)
CSc1ccc(N2C(=O)c3cccc(C)c3C2=O)cc1 (nonaromatic ring conformer: 67.641718232667 kcal/mol)

>  <smiles>  (38) 
CSc1ccc(N2C(=O)c3cccc(C)c3C2=O)cc1

>  <score_type>  (38) 
oracle

>  <origin>  (38) 
adg

>  <m_score__min__energy>  (38) 
-7.3899999999999997

>  <m_primary>  (38) 
energy

$$$$
38:0
     RDKit          3D

 32 32  0  0  0  0  0  0  0  0999 V2000
   -6.1040   19.1210  -34.1340 C   0  0  0  0  0  0  0  0  0  0  0  0
   -6.4920   19.5110  -32.7090 C   0  0  0  0  0  0  0  0  0  0  0  0
   -7.2360   18.3880  -31.9700 C   0  0  0  0  0  0  0  0  0  0  0  0
   -8.7060   18.7420  -31.6850 C   0  0  0  0  0  0  0  0  0  0  0  0
   -9.2920   19.7470  -32.6930 C   0  0  0  0  0  0  0  0  0  0  0  0
   -9.8540   21.0220  -32.0430 C   0  0  0  0  0  0  0  0  0  0  0  0
   -8.7830   21.9320  -31.6220 C   0  0  0  0  0  0  0  0  0  0  0  0
   -7.9080   22.6830  -31.2710 C   0  0  0  0  0  0  0  0  0  0  0  0
   -6.8610   23.5690  -30.8510 C   0  0  0  0  0  0  0  0  0  0  0  0
   -7.0910   24.7360  -30.2110 N   0  0  0  0  0  0  0  0  0  0  0  0
   -5.9340   25.3880  -29.9210 C   0  0  0  0  0  0  0  0  0  0  0  0
   -4.7860   24.7300  -30.3340 C   0  0  0  0  0  0  0  0  0  0  0  0
   -3.4880   25.2100  -30.1440 O   0  0  0  0  0  0  0  0  0  0  0  0
   -2.5380   24.5480  -29.3190 C   0  0  0  0  0  0  0  0  0  0  0  0
   -5.2190   23.2850  -31.0880 S   0  0  0  0  0  0  0  0  0  0  0  0
   -5.3285   18.3415  -34.1025 H   0  0  0  0  0  0  0  0  0  0  0  0
   -6.9888   18.7369  -34.6628 H   0  0  0  0  0  0  0  0  0  0  0  0
   -5.7153   20.0038  -34.6628 H   0  0  0  0  0  0  0  0  0  0  0  0
   -5.5771   19.7551  -32.1492 H   0  0  0  0  0  0  0  0  0  0  0  0
   -7.1711   20.3739  -32.7733 H   0  0  0  0  0  0  0  0  0  0  0  0
   -7.2058   17.4787  -32.5883 H   0  0  0  0  0  0  0  0  0  0  0  0
   -6.7355   18.2365  -31.0023 H   0  0  0  0  0  0  0  0  0  0  0  0
   -9.3024   17.8185  -31.7245 H   0  0  0  0  0  0  0  0  0  0  0  0
   -8.7429   19.2142  -30.6922 H   0  0  0  0  0  0  0  0  0  0  0  0
   -8.4968   20.0374  -33.3953 H   0  0  0  0  0  0  0  0  0  0  0  0
  -10.1332   19.2451  -33.1935 H   0  0  0  0  0  0  0  0  0  0  0  0
  -10.4967   21.5397  -32.7703 H   0  0  0  0  0  0  0  0  0  0  0  0
  -10.4265   20.7290  -31.1506 H   0  0  0  0  0  0  0  0  0  0  0  0
   -5.9107   26.3574  -29.4016 H   0  0  0  0  0  0  0  0  0  0  0  0
   -2.7867   24.7213  -28.2616 H   0  0  0  0  0  0  0  0  0  0  0  0
   -2.5596   23.4684  -29.5285 H   0  0  0  0  0  0  0  0  0  0  0  0
   -1.5326   24.9421  -29.5285 H   0  0  0  0  0  0  0  0  0  0  0  0
  1  2  1  0
  2  3  1  0
  3  4  1  0
  4  5  1  0
  5  6  1  0
  6  7  1  0
  7  8  3  0
  8  9  1  0
  9 10  2  0
 10 11  1  0
 11 12  2  0
 12 13  1  0
 13 14  1  0
 12 15  1  0
 15  9  1  0
  1 16  1  0
  1 17  1  0
  1 18  1  0
  2 19  1  0
  2 20  1  0
  3 21  1  0
  3 22  1  0
  4 23  1  0
  4 24  1  0
  5 25  1  0
  5 26  1  0
  6 27  1  0
  6 28  1  0
 11 29  1  0
 14 30  1  0
 14 31  1  0
 14 32  1  0
M  END
>  <UniqueID>  (39) 
37

>  <SMILES>  (39) 
CCCCCCC#Cc1ncc(OC)s1

>  <Energy>  (39) 
45.055927762341184

>  <Genealogy>  (39) 
CCCCCCC#Cc1ncc(OC)s1 (3D coordinates assigned)
CCCCCCC#Cc1ncc(OC)s1 (optimized conformer: 45.055927762341184 kcal/mol)

>  <smiles>  (39) 
CCCCCCC#Cc1ncc(OC)s1

>  <score_type>  (39) 
oracle

>  <origin>  (39) 
adg

>  <m_score__min__energy>  (39) 
-6.2300000000000004

>  <m_primary>  (39) 
energy

$$$$
39:0
     RDKit          3D

 38 41  0  0  1  0  0  0  0  0999 V2000
   -5.1310   17.7970  -33.4920 C   0  0  0  0  0  0  0  0  0  0  0  0
   -6.3530   18.3460  -32.9370 C   0  0  0  0  0  0  0  0  0  0  0  0
   -7.2750   17.9030  -31.9910 C   0  0  0  0  0  0  0  0  0  0  0  0
   -8.2660   18.7300  -31.7770 N   0  0  0  0  0  0  0  0  0  0  0  0
   -8.5180   19.7790  -32.2360 C   0  0  0  0  0  0  0  0  0  0  0  0
   -9.5390   20.8490  -32.1530 C   0  0  0  0  0  0  0  0  0  0  0  0
   -9.1480   21.9250  -31.3070 N   0  0  0  0  0  0  0  0  0  0  0  0
   -8.0100   22.5050  -31.2640 C   0  0  0  0  0  0  0  0  0  0  0  0
   -7.5780   23.2030  -32.3660 C   0  0  0  0  0  0  0  0  0  0  0  0
   -6.3540   23.8160  -32.2890 C   0  0  0  0  0  0  0  0  0  0  0  0
   -5.5890   23.7390  -31.1630 N   0  0  0  0  0  0  0  0  0  0  0  0
   -4.4220   24.2040  -30.8100 N   0  0  0  0  0  0  0  0  0  0  0  0
   -4.0920   23.8430  -29.5580 C   0  0  0  0  0  0  0  0  0  0  0  0
   -2.8940   24.1450  -28.7830 C   0  0  0  0  0  0  0  0  0  0  0  0
   -1.6260   24.0510  -29.3100 C   0  0  0  0  0  0  0  0  0  0  0  0
   -0.4830   24.3300  -28.6020 C   0  0  0  0  0  0  0  0  0  0  0  0
   -0.6130   24.7320  -27.2710 C   0  0  0  0  0  0  0  0  0  0  0  0
   -1.8800   24.8280  -26.7360 C   0  0  0  0  0  0  0  0  0  0  0  0
   -2.0150   25.2210  -25.4340 F   0  0  0  0  0  0  0  0  0  0  0  0
   -3.0270   24.5470  -27.4520 C   0  0  0  0  0  0  0  0  0  0  0  0
   -5.1430   23.0790  -29.0660 C   0  0  0  0  0  0  0  0  0  0  0  0
   -6.0590   23.0380  -30.0980 C   0  0  0  0  0  0  0  0  0  0  0  0
   -7.2700   22.4210  -30.1490 N   0  0  0  0  0  0  0  0  0  0  0  0
   -7.0650   20.0140  -33.4390 S   0  0  0  0  0  0  0  0  0  0  0  0
   -4.4599   17.4955  -32.6742 H   0  0  0  0  0  0  0  0  0  0  0  0
   -5.3711   16.9202  -34.1114 H   0  0  0  0  0  0  0  0  0  0  0  0
   -4.6350   18.5588  -34.1114 H   0  0  0  0  0  0  0  0  0  0  0  0
   -7.1780   16.9399  -31.4685 H   0  0  0  0  0  0  0  0  0  0  0  0
   -9.7158   21.2443  -33.1642 H   0  0  0  0  0  0  0  0  0  0  0  0
  -10.4480   20.4043  -31.7218 H   0  0  0  0  0  0  0  0  0  0  0  0
   -8.1917   23.2676  -33.2766 H   0  0  0  0  0  0  0  0  0  0  0  0
   -5.9809   24.3825  -33.1549 H   0  0  0  0  0  0  0  0  0  0  0  0
   -1.5223   23.7343  -30.3583 H   0  0  0  0  0  0  0  0  0  0  0  0
    0.5081   24.2393  -29.0705 H   0  0  0  0  0  0  0  0  0  0  0  0
    0.2740   24.9664  -26.6641 H   0  0  0  0  0  0  0  0  0  0  0  0
   -4.0194   24.6374  -26.9862 H   0  0  0  0  0  0  0  0  0  0  0  0
   -5.2267   22.6107  -28.0742 H   0  0  0  0  0  0  0  0  0  0  0  0
   -7.5930   21.8910  -29.3080 H   0  0  0  0  0  0  0  0  0  0  0  0
  1  2  1  0
  2  3  2  0
  3  4  1  0
  4  5  2  0
  5  6  1  0
  6  7  1  0
  7  8  2  0
  8  9  1  0
  9 10  2  0
 10 11  1  0
 11 12  1  0
 12 13  2  0
 13 14  1  0
 14 15  2  0
 15 16  1  0
 16 17  2  0
 17 18  1  0
 18 19  1  0
 18 20  2  0
 13 21  1  0
 21 22  2  0
 22 23  1  0
  5 24  1  0
 24  2  1  0
 23  8  1  0
 22 11  1  0
 20 14  1  0
  1 25  1  0
  1 26  1  0
  1 27  1  0
  3 28  1  0
  6 29  1  0
  6 30  1  0
  9 31  1  0
 10 32  1  0
 15 33  1  0
 16 34  1  0
 17 35  1  0
 20 36  1  0
 21 37  1  0
 23 38  1  0
M  END
>  <smiles>  (40) 
Cc1cnc(CN=c2ccn3nc(-c4cccc(F)c4)cc3[nH]2)s1

>  <score_type>  (40) 
oracle

>  <origin>  (40) 
adg

>  <m_score__min__energy>  (40) 
-8.0800000000000001

>  <m_primary>  (40) 
energy

$$$$
40:0
     RDKit          3D

 27 27  0  0  0  0  0  0  0  0999 V2000
   -6.3018   23.3571  -28.6933 H   0  0  0  0  0  0  0  0  0  0  0  0
   -6.6700   23.2220  -29.7210 C   0  0  0  0  0  0  0  0  0  0  0  0
   -7.6890   22.3010  -29.9820 C   0  0  0  0  0  0  0  0  0  0  0  0
   -8.1150   21.7078  -29.1594 H   0  0  0  0  0  0  0  0  0  0  0  0
   -8.1710   22.1300  -31.2900 C   0  0  0  0  0  0  0  0  0  0  0  0
   -9.2380   21.1110  -31.5780 C   0  0  0  0  0  0  0  0  0  0  0  0
   -9.9004   21.4910  -32.3697 H   0  0  0  0  0  0  0  0  0  0  0  0
   -9.8186   20.9274  -30.6619 H   0  0  0  0  0  0  0  0  0  0  0  0
   -8.6090   19.8210  -32.0310 C   0  0  0  0  0  0  0  0  0  0  0  0
   -8.7970   18.6470  -31.2240 N   0  0  0  0  0  0  0  0  0  0  0  0
   -9.3690   18.7000  -30.3530 H   0  0  0  0  0  0  0  0  0  0  0  0
   -8.3660   17.7250  -31.4510 H   0  0  0  0  0  0  0  0  0  0  0  0
   -7.9600   19.7830  -33.1680 N   0  0  0  0  0  0  0  0  0  0  0  0
   -8.5010   19.8730  -34.0590 H   0  0  0  0  0  0  0  0  0  0  0  0
   -6.5100   19.6280  -33.3060 C   0  0  0  0  0  0  0  0  0  0  0  0
   -6.1216   20.4293  -33.9518 H   0  0  0  0  0  0  0  0  0  0  0  0
   -6.3014   18.6434  -33.7498 H   0  0  0  0  0  0  0  0  0  0  0  0
   -5.8240   19.7060  -31.9440 C   0  0  0  0  0  0  0  0  0  0  0  0
   -6.5784   19.6202  -31.1480 H   0  0  0  0  0  0  0  0  0  0  0  0
   -5.0983   18.8846  -31.8514 H   0  0  0  0  0  0  0  0  0  0  0  0
   -5.3012   20.6694  -31.8514 H   0  0  0  0  0  0  0  0  0  0  0  0
   -7.6040   22.8780  -32.3360 C   0  0  0  0  0  0  0  0  0  0  0  0
   -7.9637   22.7395  -33.3663 H   0  0  0  0  0  0  0  0  0  0  0  0
   -6.5850   23.7970  -32.0720 C   0  0  0  0  0  0  0  0  0  0  0  0
   -6.1491   24.3841  -32.8937 H   0  0  0  0  0  0  0  0  0  0  0  0
   -6.1180   23.9720  -30.7650 C   0  0  0  0  0  0  0  0  0  0  0  0
   -4.8380   25.1250  -30.4360 Cl  0  0  0  0  0  0  0  0  0  0  0  0
  1  2  1  0
  2  3  2  0
  3  4  1  0
  3  5  1  0
  5  6  1  0
  6  7  1  0
  6  8  1  0
  6  9  1  0
  9 10  1  0
 10 11  1  0
 10 12  1  0
  9 13  2  0
 13 14  1  0
 13 15  1  0
 15 16  1  0
 15 17  1  0
 15 18  1  0
 18 19  1  0
 18 20  1  0
 18 21  1  0
  5 22  2  0
 22 23  1  0
 22 24  1  0
 24 25  1  0
 24 26  2  0
 26 27  1  0
 26  2  1  0
M  CHG  1  13   1
M  END
>  <UniqueID>  (41) 
38

>  <SMILES>  (41) 
CC/[NH+]=C(\N)Cc1ccc(Cl)cc1

>  <Energy>  (41) 
20.006786257267855

>  <Genealogy>  (41) 
CC[NH+]=C(N)Cc1ccc(Cl)cc1 (protonated)
CC/[NH+]=C(\N)Cc1ccc(Cl)cc1 (cis-trans isomerization)
CC/[NH+]=C(\N)Cc1ccc(Cl)cc1 (3D coordinates assigned)
CC/[NH+]=C(\N)Cc1ccc(Cl)cc1 (optimized conformer: 20.006786257267855 kcal/mol)

>  <smiles>  (41) 
CCN=C(N)Cc1ccc(Cl)cc1

>  <score_type>  (41) 
oracle

>  <origin>  (41) 
adg

>  <m_score__min__energy>  (41) 
-5.3799999999999999

>  <m_primary>  (41) 
energy

$$$$
41:0
     RDKit          3D

 36 39  0  0  0  0  0  0  0  0999 V2000
   -6.4760   16.6800  -34.2740 C   0  0  0  0  0  0  0  0  0  0  0  0
   -6.5930   17.9420  -33.4700 C   0  0  0  0  0  0  0  0  0  0  0  0
   -7.7140   18.1520  -32.6480 C   0  0  0  0  0  0  0  0  0  0  0  0
   -7.8150   19.3080  -31.8680 C   0  0  0  0  0  0  0  0  0  0  0  0
   -6.7870   20.2590  -31.8960 C   0  0  0  0  0  0  0  0  0  0  0  0
   -5.6460   20.0480  -32.7090 C   0  0  0  0  0  0  0  0  0  0  0  0
   -4.6230   21.0250  -32.7060 C   0  0  0  0  0  0  0  0  0  0  0  0
   -4.7370   22.1480  -31.9370 N   0  0  0  0  0  0  0  0  0  0  0  0
   -5.8490   22.3040  -31.1790 C   0  0  0  0  0  0  0  0  0  0  0  0
   -6.1990   23.3190  -30.3280 C   0  0  0  0  0  0  0  0  0  0  0  0
   -5.2860   24.7660  -29.9450 S   0  0  0  0  0  0  0  0  0  0  0  0
   -6.1490   25.7210  -29.1690 O   0  0  0  0  0  0  0  0  0  0  0  0
   -4.8510   25.4340  -31.2190 O   0  0  0  0  0  0  0  0  0  0  0  0
   -3.8890   24.3300  -28.9680 C   0  0  0  0  0  0  0  0  0  0  0  0
   -2.7440   23.8020  -29.5820 C   0  0  0  0  0  0  0  0  0  0  0  0
   -1.6210   23.4760  -28.8160 C   0  0  0  0  0  0  0  0  0  0  0  0
   -1.6350   23.6810  -27.4330 C   0  0  0  0  0  0  0  0  0  0  0  0
   -2.7700   24.2130  -26.8160 C   0  0  0  0  0  0  0  0  0  0  0  0
   -3.8950   24.5390  -27.5810 C   0  0  0  0  0  0  0  0  0  0  0  0
   -7.4050   22.9860  -29.8120 N   0  0  0  0  0  0  0  0  0  0  0  0
   -7.7740   21.8160  -30.3280 N   0  0  0  0  0  0  0  0  0  0  0  0
   -6.8310   21.3980  -31.1590 N   0  0  0  0  0  0  0  0  0  0  0  0
   -5.5530   18.8860  -33.4870 C   0  0  0  0  0  0  0  0  0  0  0  0
   -6.3961   15.8185  -33.5947 H   0  0  0  0  0  0  0  0  0  0  0  0
   -7.3674   16.5654  -34.9083 H   0  0  0  0  0  0  0  0  0  0  0  0
   -5.5787   16.7312  -34.9083 H   0  0  0  0  0  0  0  0  0  0  0  0
   -8.5175   17.4014  -32.6183 H   0  0  0  0  0  0  0  0  0  0  0  0
   -8.6993   19.4702  -31.2342 H   0  0  0  0  0  0  0  0  0  0  0  0
   -3.7279   20.8790  -33.3284 H   0  0  0  0  0  0  0  0  0  0  0  0
   -2.7295   23.6438  -30.6705 H   0  0  0  0  0  0  0  0  0  0  0  0
   -0.7265   23.0583  -29.3012 H   0  0  0  0  0  0  0  0  0  0  0  0
   -0.7517   23.4232  -26.8303 H   0  0  0  0  0  0  0  0  0  0  0  0
   -2.7791   24.3756  -25.7281 H   0  0  0  0  0  0  0  0  0  0  0  0
   -4.7866   24.9603  -27.0936 H   0  0  0  0  0  0  0  0  0  0  0  0
   -7.9670   23.5350  -29.1260 H   0  0  0  0  0  0  0  0  0  0  0  0
   -4.6644   18.7130  -34.1118 H   0  0  0  0  0  0  0  0  0  0  0  0
  1  2  1  0
  2  3  2  0
  3  4  1  0
  4  5  2  0
  5  6  1  0
  6  7  1  0
  7  8  2  0
  8  9  1  0
  9 10  2  0
 10 11  1  0
 11 12  2  0
 11 13  2  0
 11 14  1  0
 14 15  2  0
 15 16  1  0
 16 17  2  0
 17 18  1  0
 18 19  2  0
 10 20  1  0
 20 21  2  0
 21 22  1  0
  6 23  2  0
 23  2  1  0
 22  5  1  0
 22  9  1  0
 19 14  1  0
  1 24  1  0
  1 25  1  0
  1 26  1  0
  3 27  1  0
  4 28  1  0
  7 29  1  0
 15 30  1  0
 16 31  1  0
 17 32  1  0
 18 33  1  0
 19 34  1  0
 20 35  1  0
 23 36  1  0
M  CHG  1  20   1
M  END
>  <UniqueID>  (42) 
39

>  <SMILES>  (42) 
Cc1ccc2c(cnc3c(S(=O)(=O)c4ccccc4)[nH+]nn32)c1

>  <Energy>  (42) 
89.79029739641682

>  <Genealogy>  (42) 
Cc1ccc2c(cnc3c(S(=O)(=O)c4ccccc4)[nH+]nn32)c1 (protonated)
Cc1ccc2c(cnc3c(S(=O)(=O)c4ccccc4)[nH+]nn32)c1 (3D coordinates assigned)
Cc1ccc2c(cnc3c(S(=O)(=O)c4ccccc4)[nH+]nn32)c1 (optimized conformer: 89.79029739641682 kcal/mol)

>  <smiles>  (42) 
Cc1ccc2c(cnc3c(S(=O)(=O)c4ccccc4)nnn32)c1

>  <score_type>  (42) 
oracle

>  <origin>  (42) 
adg

>  <m_score__min__energy>  (42) 
-8.6099999999999994

>  <m_primary>  (42) 
energy

$$$$
42:0
     RDKit          3D

 55 59  0  0  0  0  0  0  0  0999 V2000
   -0.4220   26.7540  -23.2600 C   0  0  0  0  0  0  0  0  0  0  0  0
   -0.3430   27.1740  -24.6180 O   0  0  0  0  0  0  0  0  0  0  0  0
   -0.8920   26.4700  -25.7000 C   0  0  0  0  0  0  0  0  0  0  0  0
   -0.1460   26.3840  -26.8810 C   0  0  0  0  0  0  0  0  0  0  0  0
   -0.6420   25.6950  -27.9900 C   0  0  0  0  0  0  0  0  0  0  0  0
   -1.9000   25.0790  -27.9330 C   0  0  0  0  0  0  0  0  0  0  0  0
   -2.4070   24.3850  -29.0420 C   0  0  0  0  0  0  0  0  0  0  0  0
   -3.6630   23.7590  -28.9770 C   0  0  0  0  0  0  0  0  0  0  0  0
   -4.1920   23.0410  -30.1560 C   0  0  0  0  0  0  0  0  0  0  0  0
   -5.5120   23.0540  -30.5970 C   0  0  0  0  0  0  0  0  0  0  0  0
   -5.6510   22.2860  -31.7030 N   0  0  0  0  0  0  0  0  0  0  0  0
   -6.8890   22.1220  -32.4670 C   0  0  0  0  0  0  0  0  0  0  0  0
   -7.2110   20.6290  -32.6620 C   0  0  2  0  0  0  0  0  0  0  0  0
   -8.7020   20.3390  -32.5770 C   0  0  0  0  0  0  0  0  0  0  0  0
   -8.7770   18.9050  -32.0940 C   0  0  0  0  0  0  0  0  0  0  0  0
   -7.3720   18.5660  -31.6030 C   0  0  0  0  0  0  0  0  0  0  0  0
   -6.5620   19.7820  -31.6600 N   0  0  0  0  0  0  0  0  0  0  0  0
   -4.4210   21.7980  -31.9820 C   0  0  0  0  0  0  0  0  0  0  0  0
   -4.0380   20.9800  -33.0500 C   0  0  0  0  0  0  0  0  0  0  0  0
   -2.6830   20.6250  -33.1750 C   0  0  0  0  0  0  0  0  0  0  0  0
   -2.3110   19.8030  -34.2490 O   0  0  0  0  0  0  0  0  0  0  0  0
   -2.3120   18.3800  -34.2070 C   0  0  0  0  0  0  0  0  0  0  0  0
   -1.7410   21.1060  -32.2270 C   0  0  0  0  0  0  0  0  0  0  0  0
   -2.1510   21.9270  -31.1630 C   0  0  0  0  0  0  0  0  0  0  0  0
   -3.5060   22.2410  -31.0570 C   0  0  0  0  0  0  0  0  0  0  0  0
   -4.4210   23.8570  -27.7980 C   0  0  0  0  0  0  0  0  0  0  0  0
   -3.9240   24.5470  -26.6900 C   0  0  0  0  0  0  0  0  0  0  0  0
   -2.6630   25.1590  -26.7450 C   0  0  0  0  0  0  0  0  0  0  0  0
   -2.1560   25.8540  -25.6360 C   0  0  0  0  0  0  0  0  0  0  0  0
   -0.2595   27.6180  -22.5989 H   0  0  0  0  0  0  0  0  0  0  0  0
   -1.4164   26.3257  -23.0659 H   0  0  0  0  0  0  0  0  0  0  0  0
    0.3489   25.9937  -23.0659 H   0  0  0  0  0  0  0  0  0  0  0  0
    0.8420   26.8644  -26.9364 H   0  0  0  0  0  0  0  0  0  0  0  0
   -0.0436   25.6355  -28.9111 H   0  0  0  0  0  0  0  0  0  0  0  0
   -1.8170   24.3307  -29.9688 H   0  0  0  0  0  0  0  0  0  0  0  0
   -6.3286   23.6108  -30.1141 H   0  0  0  0  0  0  0  0  0  0  0  0
   -7.7158   22.6022  -31.9232 H   0  0  0  0  0  0  0  0  0  0  0  0
   -6.7612   22.5894  -33.4545 H   0  0  0  0  0  0  0  0  0  0  0  0
   -6.8310   20.3966  -33.6678 H   0  0  0  0  0  0  0  0  0  0  0  0
   -9.1908   21.0171  -31.8620 H   0  0  0  0  0  0  0  0  0  0  0  0
   -9.2144   20.4859  -33.5392 H   0  0  0  0  0  0  0  0  0  0  0  0
   -9.5036   18.8133  -31.2732 H   0  0  0  0  0  0  0  0  0  0  0  0
   -9.1064   18.2225  -32.8913 H   0  0  0  0  0  0  0  0  0  0  0  0
   -7.4182   18.1977  -30.5675 H   0  0  0  0  0  0  0  0  0  0  0  0
   -6.9272   17.7834  -32.2352 H   0  0  0  0  0  0  0  0  0  0  0  0
   -6.6440   20.2460  -30.7240 H   0  0  0  0  0  0  0  0  0  0  0  0
   -4.7815   20.6217  -33.7773 H   0  0  0  0  0  0  0  0  0  0  0  0
   -2.3122   18.0441  -33.1595 H   0  0  0  0  0  0  0  0  0  0  0  0
   -3.2104   17.9988  -34.7145 H   0  0  0  0  0  0  0  0  0  0  0  0
   -1.4141   17.9976  -34.7145 H   0  0  0  0  0  0  0  0  0  0  0  0
   -0.6801   20.8331  -32.3268 H   0  0  0  0  0  0  0  0  0  0  0  0
   -1.4232   22.3117  -30.4334 H   0  0  0  0  0  0  0  0  0  0  0  0
   -5.4140   23.3864  -27.7472 H   0  0  0  0  0  0  0  0  0  0  0  0
   -4.5240   24.6108  -25.7703 H   0  0  0  0  0  0  0  0  0  0  0  0
   -2.7495   25.9176  -24.7121 H   0  0  0  0  0  0  0  0  0  0  0  0
  1  2  1  0
  2  3  1  0
  3  4  2  0
  4  5  1  0
  5  6  2  0
  6  7  1  0
  7  8  2  0
  8  9  1  0
  9 10  2  0
 10 11  1  0
 11 12  1  0
 12 13  1  0
 13 14  1  0
 14 15  1  0
 15 16  1  0
 16 17  1  0
 11 18  1  0
 18 19  2  0
 19 20  1  0
 20 21  1  0
 21 22  1  0
 20 23  2  0
 23 24  1  0
 24 25  2  0
  8 26  1  0
 26 27  2  0
 27 28  1  0
 28 29  2  0
 29  3  1  0
 28  6  1  0
 25  9  1  0
 17 13  1  0
 25 18  1  0
  1 30  1  0
  1 31  1  0
  1 32  1  0
  4 33  1  0
  5 34  1  0
  7 35  1  0
 10 36  1  0
 12 37  1  0
 12 38  1  0
 13 39  1  6
 14 40  1  0
 14 41  1  0
 15 42  1  0
 15 43  1  0
 16 44  1  0
 16 45  1  0
 17 46  1  0
 19 47  1  0
 22 48  1  0
 22 49  1  0
 22 50  1  0
 23 51  1  0
 24 52  1  0
 26 53  1  0
 27 54  1  0
 29 55  1  0
M  END
>  <UniqueID>  (43) 
40

>  <SMILES>  (43) 
COc1ccc2cc(-c3cn(C[C@@H]4CCCN4)c4cc(OC)ccc34)ccc2c1

>  <Energy>  (43) 
98.27039558074075

>  <Genealogy>  (43) 
COc1ccc2cc(-c3cn(C[C@@H]4CCCN4)c4cc(OC)ccc34)ccc2c1 (chirality)
COc1ccc2cc(-c3cn(C[C@@H]4CCCN4)c4cc(OC)ccc34)ccc2c1 (3D coordinates assigned)
COc1ccc2cc(-c3cn(C[C@@H]4CCCN4)c4cc(OC)ccc34)ccc2c1 (nonaromatic ring conformer: 98.27039558074075 kcal/mol)

>  <smiles>  (43) 
COc1ccc2cc(-c3cn(CC4CCCN4)c4cc(OC)ccc34)ccc2c1

>  <score_type>  (43) 
oracle

>  <origin>  (43) 
adg

>  <m_score__min__energy>  (43) 
-8.8900000000000006

>  <m_primary>  (43) 
energy

$$$$
43:0
     RDKit          3D

 24 25  0  0  0  0  0  0  0  0999 V2000
   -6.1090   17.4620  -34.4890 C   0  0  0  0  0  0  0  0  0  0  0  0
   -6.8310   17.4600  -33.1480 C   0  0  0  0  0  0  0  0  0  0  0  0
   -7.1930   18.8240  -32.7650 N   0  0  0  0  0  0  0  0  0  0  0  0
   -6.4350   19.9430  -32.8220 C   0  0  0  0  0  0  0  0  0  0  0  0
   -5.2280   19.9680  -33.1830 O   0  0  0  0  0  0  0  0  0  0  0  0
   -7.1380   21.0260  -32.4400 N   0  0  0  0  0  0  0  0  0  0  0  0
   -8.3610   20.6220  -32.1490 N   0  0  0  0  0  0  0  0  0  0  0  0
   -8.3900   19.2870  -32.3380 C   0  0  0  0  0  0  0  0  0  0  0  0
   -9.4020   18.5640  -32.1310 O   0  0  0  0  0  0  0  0  0  0  0  0
   -9.3720   21.4970  -31.5560 C   0  0  0  0  0  0  0  0  0  0  0  0
   -9.1080   22.9600  -31.9740 C   0  0  0  0  0  0  0  0  0  0  0  0
   -7.6350   23.3080  -31.9960 C   0  0  0  0  0  0  0  0  0  0  0  0
   -6.7180   22.3840  -32.2980 C   0  0  0  0  0  0  0  0  0  0  0  0
   -5.0220   17.4650  -34.3202 H   0  0  0  0  0  0  0  0  0  0  0  0
   -6.3893   16.5631  -35.0577 H   0  0  0  0  0  0  0  0  0  0  0  0
   -6.3942   18.3594  -35.0577 H   0  0  0  0  0  0  0  0  0  0  0  0
   -7.7436   16.8512  -33.2281 H   0  0  0  0  0  0  0  0  0  0  0  0
   -6.1630   17.0385  -32.3824 H   0  0  0  0  0  0  0  0  0  0  0  0
  -10.3694   21.1917  -31.9053 H   0  0  0  0  0  0  0  0  0  0  0  0
   -9.3229   21.4180  -30.4599 H   0  0  0  0  0  0  0  0  0  0  0  0
   -9.5213   23.1176  -32.9812 H   0  0  0  0  0  0  0  0  0  0  0  0
   -9.5902   23.6092  -31.2284 H   0  0  0  0  0  0  0  0  0  0  0  0
   -7.3155   24.3339  -31.7605 H   0  0  0  0  0  0  0  0  0  0  0  0
   -5.6627   22.6630  -32.4343 H   0  0  0  0  0  0  0  0  0  0  0  0
  1  2  1  0
  2  3  1  0
  3  4  1  0
  4  5  2  0
  4  6  1  0
  6  7  1  0
  7  8  1  0
  8  9  2  0
  7 10  1  0
 10 11  1  0
 11 12  1  0
 12 13  2  0
  8  3  1  0
 13  6  1  0
  1 14  1  0
  1 15  1  0
  1 16  1  0
  2 17  1  0
  2 18  1  0
 10 19  1  0
 10 20  1  0
 11 21  1  0
 11 22  1  0
 12 23  1  0
 13 24  1  0
M  END
>  <UniqueID>  (44) 
41

>  <SMILES>  (44) 
CCn1c(=O)n2n(c1=O)CCC=C2

>  <Energy>  (44) 
62.819499633532004

>  <Genealogy>  (44) 
CCn1c(=O)n2n(c1=O)CCC=C2 (3D coordinates assigned)
CCn1c(=O)n2n(c1=O)CCC=C2 (nonaromatic ring conformer: 62.819499633532004 kcal/mol)

>  <smiles>  (44) 
CCn1c(=O)n2n(c1=O)CCC=C2

>  <score_type>  (44) 
oracle

>  <origin>  (44) 
adg

>  <m_score__min__energy>  (44) 
-5.2999999999999998

>  <m_primary>  (44) 
energy

$$$$
44:0
     RDKit          3D

 41 42  0  0  0  0  0  0  0  0999 V2000
   -3.7990   24.9230  -26.3690 C   0  0  0  0  0  0  0  0  0  0  0  0
   -3.9020   23.7840  -27.3840 C   0  0  0  0  0  0  0  0  0  0  0  0
   -2.6650   23.7000  -28.2890 C   0  0  0  0  0  0  0  0  0  0  0  0
   -2.5140   24.9260  -29.1550 C   0  0  0  0  0  0  0  0  0  0  0  0
   -1.5210   25.6820  -28.9830 O   0  0  0  0  0  0  0  0  0  0  0  0
   -3.4990   25.2920  -30.1290 N   0  0  0  0  0  0  0  0  0  0  0  0
   -4.6890   24.5580  -30.4480 C   0  0  0  0  0  0  0  0  0  0  0  0
   -5.9340   25.1400  -30.1880 C   0  0  0  0  0  0  0  0  0  0  0  0
   -7.1110   24.4640  -30.5210 C   0  0  0  0  0  0  0  0  0  0  0  0
   -7.0520   23.2040  -31.1220 C   0  0  0  0  0  0  0  0  0  0  0  0
   -5.8080   22.6090  -31.3950 C   0  0  0  0  0  0  0  0  0  0  0  0
   -5.7160   21.3320  -32.0460 N   0  0  0  0  0  0  0  0  0  0  0  0
   -6.8460   20.6110  -32.5670 C   0  0  0  0  0  0  0  0  0  0  0  0
   -7.9970   21.1250  -32.5520 O   0  0  0  0  0  0  0  0  0  0  0  0
   -6.6730   19.2580  -33.1360 C   0  0  0  0  0  0  0  0  0  0  0  0
   -5.7580   19.0910  -34.1900 C   0  0  0  0  0  0  0  0  0  0  0  0
   -5.5350   17.8290  -34.7420 C   0  0  0  0  0  0  0  0  0  0  0  0
   -6.2250   16.7200  -34.2550 C   0  0  0  0  0  0  0  0  0  0  0  0
   -7.1540   16.8720  -33.2230 C   0  0  0  0  0  0  0  0  0  0  0  0
   -7.4080   18.1380  -32.6680 C   0  0  0  0  0  0  0  0  0  0  0  0
   -8.4530   18.2540  -31.5890 C   0  0  0  0  0  0  0  0  0  0  0  0
   -4.6320   23.3050  -31.0840 C   0  0  0  0  0  0  0  0  0  0  0  0
   -3.8363   24.5105  -25.3500 H   0  0  0  0  0  0  0  0  0  0  0  0
   -2.8488   25.4580  -26.5134 H   0  0  0  0  0  0  0  0  0  0  0  0
   -4.6378   25.6198  -26.5134 H   0  0  0  0  0  0  0  0  0  0  0  0
   -4.0084   22.8336  -26.8404 H   0  0  0  0  0  0  0  0  0  0  0  0
   -4.7755   23.9795  -28.0234 H   0  0  0  0  0  0  0  0  0  0  0  0
   -1.7697   23.5984  -27.6581 H   0  0  0  0  0  0  0  0  0  0  0  0
   -2.7865   22.8296  -28.9506 H   0  0  0  0  0  0  0  0  0  0  0  0
   -5.9869   26.1338  -29.7195 H   0  0  0  0  0  0  0  0  0  0  0  0
   -8.0869   24.9253  -30.3093 H   0  0  0  0  0  0  0  0  0  0  0  0
   -7.9814   22.6763  -31.3822 H   0  0  0  0  0  0  0  0  0  0  0  0
   -4.7850   20.8590  -32.0510 H   0  0  0  0  0  0  0  0  0  0  0  0
   -5.2134   19.9622  -34.5828 H   0  0  0  0  0  0  0  0  0  0  0  0
   -4.8131   17.7090  -35.5633 H   0  0  0  0  0  0  0  0  0  0  0  0
   -6.0378   15.7244  -34.6837 H   0  0  0  0  0  0  0  0  0  0  0  0
   -7.6922   15.9920  -32.8409 H   0  0  0  0  0  0  0  0  0  0  0  0
   -7.9691   18.2003  -30.6026 H   0  0  0  0  0  0  0  0  0  0  0  0
   -8.9774   19.2159  -31.6883 H   0  0  0  0  0  0  0  0  0  0  0  0
   -9.1755   17.4305  -31.6883 H   0  0  0  0  0  0  0  0  0  0  0  0
   -3.6557   22.8673  -31.3396 H   0  0  0  0  0  0  0  0  0  0  0  0
  1  2  1  0
  2  3  1  0
  3  4  1  0
  4  5  2  0
  4  6  1  0
  6  7  1  0
  7  8  2  0
  8  9  1  0
  9 10  2  0
 10 11  1  0
 11 12  1  0
 12 13  1  0
 13 14  2  0
 13 15  1  0
 15 16  2  0
 16 17  1  0
 17 18  2  0
 18 19  1  0
 19 20  2  0
 20 21  1  0
 11 22  2  0
 22  7  1  0
 20 15  1  0
  1 23  1  0
  1 24  1  0
  1 25  1  0
  2 26  1  0
  2 27  1  0
  3 28  1  0
  3 29  1  0
  8 30  1  0
  9 31  1  0
 10 32  1  0
 12 33  1  0
 16 34  1  0
 17 35  1  0
 18 36  1  0
 19 37  1  0
 21 38  1  0
 21 39  1  0
 21 40  1  0
 22 41  1  0
M  CHG  1   6  -1
M  END
>  <UniqueID>  (45) 
42

>  <SMILES>  (45) 
CCCC(=O)[N-]c1cccc(NC(=O)c2ccccc2C)c1

>  <Energy>  (45) 
50.79647254734852

>  <Genealogy>  (45) 
CCCC(=O)[N-]c1cccc(NC(=O)c2ccccc2C)c1 (protonated)
CCCC(=O)[N-]c1cccc(NC(=O)c2ccccc2C)c1 (3D coordinates assigned)
CCCC(=O)[N-]c1cccc(NC(=O)c2ccccc2C)c1 (optimized conformer: 50.79647254734852 kcal/mol)

>  <smiles>  (45) 
CCCC(=O)Nc1cccc(NC(=O)c2ccccc2C)c1

>  <score_type>  (45) 
oracle

>  <origin>  (45) 
adg

>  <m_score__min__energy>  (45) 
-10.57

>  <m_primary>  (45) 
energy

$$$$
45:0
     RDKit          3D

 47 49  0  0  0  0  0  0  0  0999 V2000
   -1.9310   24.9220  -28.2130 C   0  0  0  0  0  0  0  0  0  0  0  0
   -2.6870   25.2910  -29.3610 O   0  0  0  0  0  0  0  0  0  0  0  0
   -3.8910   24.6820  -29.7460 C   0  0  0  0  0  0  0  0  0  0  0  0
   -4.3880   23.5260  -29.1140 C   0  0  0  0  0  0  0  0  0  0  0  0
   -5.5930   22.9550  -29.5360 C   0  0  0  0  0  0  0  0  0  0  0  0
   -6.3180   23.5260  -30.5930 C   0  0  0  0  0  0  0  0  0  0  0  0
   -7.6190   22.9010  -31.0480 C   0  0  0  0  0  0  0  0  0  0  0  0
   -7.4210   21.9490  -32.1690 N   0  0  0  0  0  0  0  0  0  0  0  0
   -6.0670   21.3420  -32.0790 C   0  0  0  0  0  0  0  0  0  0  0  0
   -6.0080   19.9980  -32.8140 C   0  0  0  0  0  0  0  0  0  0  0  0
   -6.8970   19.0010  -32.1760 N   0  0  0  0  0  0  0  0  0  0  0  0
   -7.2270   17.9160  -33.1230 C   0  0  0  0  0  0  0  0  0  0  0  0
   -5.9700   17.2660  -33.6390 C   0  0  0  0  0  0  0  0  0  0  0  0
   -5.3650   16.2310  -32.9070 C   0  0  0  0  0  0  0  0  0  0  0  0
   -4.2030   15.6170  -33.3840 C   0  0  0  0  0  0  0  0  0  0  0  0
   -3.6360   16.0320  -34.5930 C   0  0  0  0  0  0  0  0  0  0  0  0
   -4.2320   17.0620  -35.3260 C   0  0  0  0  0  0  0  0  0  0  0  0
   -5.3950   17.6790  -34.8530 C   0  0  0  0  0  0  0  0  0  0  0  0
   -8.1120   19.6030  -31.5650 C   0  0  0  0  0  0  0  0  0  0  0  0
   -8.5080   20.9300  -32.2340 C   0  0  0  0  0  0  0  0  0  0  0  0
   -5.8240   24.6820  -31.2180 C   0  0  0  0  0  0  0  0  0  0  0  0
   -4.6190   25.2520  -30.7970 C   0  0  0  0  0  0  0  0  0  0  0  0
   -2.4880   25.1939  -27.3042 H   0  0  0  0  0  0  0  0  0  0  0  0
   -1.7543   23.8363  -28.2237 H   0  0  0  0  0  0  0  0  0  0  0  0
   -0.9664   25.4506  -28.2237 H   0  0  0  0  0  0  0  0  0  0  0  0
   -3.8264   23.0703  -28.2852 H   0  0  0  0  0  0  0  0  0  0  0  0
   -5.9748   22.0526  -29.0361 H   0  0  0  0  0  0  0  0  0  0  0  0
   -8.0687   22.3623  -30.2009 H   0  0  0  0  0  0  0  0  0  0  0  0
   -8.2761   23.7087  -31.4027 H   0  0  0  0  0  0  0  0  0  0  0  0
   -7.4480   22.4920  -33.0660 H   0  0  0  0  0  0  0  0  0  0  0  0
   -5.3358   22.0291  -32.5298 H   0  0  0  0  0  0  0  0  0  0  0  0
   -5.8351   21.1674  -31.0180 H   0  0  0  0  0  0  0  0  0  0  0  0
   -6.3239   20.1452  -33.8573 H   0  0  0  0  0  0  0  0  0  0  0  0
   -4.9751   19.6222  -32.7716 H   0  0  0  0  0  0  0  0  0  0  0  0
   -7.8403   17.1611  -32.6092 H   0  0  0  0  0  0  0  0  0  0  0  0
   -7.7820   18.3414  -33.9721 H   0  0  0  0  0  0  0  0  0  0  0  0
   -5.8071   15.9023  -31.9549 H   0  0  0  0  0  0  0  0  0  0  0  0
   -3.7340   14.8061  -32.8073 H   0  0  0  0  0  0  0  0  0  0  0  0
   -2.7216   15.5482  -34.9669 H   0  0  0  0  0  0  0  0  0  0  0  0
   -3.7856   17.3882  -36.2769 H   0  0  0  0  0  0  0  0  0  0  0  0
   -5.8606   18.4895  -35.4328 H   0  0  0  0  0  0  0  0  0  0  0  0
   -8.9467   18.8936  -31.6657 H   0  0  0  0  0  0  0  0  0  0  0  0
   -7.8874   19.8135  -30.5089 H   0  0  0  0  0  0  0  0  0  0  0  0
   -8.7463   20.7353  -33.2901 H   0  0  0  0  0  0  0  0  0  0  0  0
   -9.3760   21.3321  -31.6910 H   0  0  0  0  0  0  0  0  0  0  0  0
   -6.3880   25.1415  -32.0431 H   0  0  0  0  0  0  0  0  0  0  0  0
   -4.2397   26.1561  -31.2958 H   0  0  0  0  0  0  0  0  0  0  0  0
  1  2  1  0
  2  3  1  0
  3  4  2  0
  4  5  1  0
  5  6  2  0
  6  7  1  0
  7  8  1  0
  8  9  1  0
  9 10  1  0
 10 11  1  0
 11 12  1  0
 12 13  1  0
 13 14  2  0
 14 15  1  0
 15 16  2  0
 16 17  1  0
 17 18  2  0
 11 19  1  0
 19 20  1  0
  6 21  1  0
 21 22  2  0
 22  3  1  0
 20  8  1  0
 18 13  1  0
  1 23  1  0
  1 24  1  0
  1 25  1  0
  4 26  1  0
  5 27  1  0
  7 28  1  0
  7 29  1  0
  8 30  1  0
  9 31  1  0
  9 32  1  0
 10 33  1  0
 10 34  1  0
 12 35  1  0
 12 36  1  0
 14 37  1  0
 15 38  1  0
 16 39  1  0
 17 40  1  0
 18 41  1  0
 19 42  1  0
 19 43  1  0
 20 44  1  0
 20 45  1  0
 21 46  1  0
 22 47  1  0
M  CHG  1   8   1
M  END
>  <UniqueID>  (46) 
43

>  <SMILES>  (46) 
COc1ccc(C[NH+]2CCN(Cc3ccccc3)CC2)cc1

>  <Energy>  (46) 
61.473967167266295

>  <Genealogy>  (46) 
COc1ccc(C[NH+]2CCN(Cc3ccccc3)CC2)cc1 (protonated)
COc1ccc(C[NH+]2CCN(Cc3ccccc3)CC2)cc1 (3D coordinates assigned)
COc1ccc(C[NH+]2CCN(Cc3ccccc3)CC2)cc1 (nonaromatic ring conformer: 61.473967167266295 kcal/mol)

>  <smiles>  (46) 
COc1ccc(CN2CCN(Cc3ccccc3)CC2)cc1

>  <score_type>  (46) 
oracle

>  <origin>  (46) 
adg

>  <m_score__min__energy>  (46) 
-7.8200000000000003

>  <m_primary>  (46) 
energy

$$$$
46:0
     RDKit          3D

 58 60  0  0  0  0  0  0  0  0999 V2000
   -2.3730   25.6680  -25.9320 C   0  0  0  0  0  0  0  0  0  0  0  0
   -1.5340   25.6710  -27.2080 C   0  0  0  0  0  0  0  0  0  0  0  0
   -1.2690   24.2400  -27.6970 C   0  0  0  0  0  0  0  0  0  0  0  0
   -2.4470   23.2940  -27.3940 C   0  0  0  0  0  0  0  0  0  0  0  0
   -2.9010   22.5420  -28.5990 N   0  0  0  0  0  0  0  0  0  0  0  0
   -2.5480   21.0920  -28.5280 C   0  0  0  0  0  0  0  0  0  0  0  0
   -2.1220   20.5190  -27.1450 C   0  0  0  0  0  0  0  0  0  0  0  0
   -2.3130   19.0020  -26.9690 C   0  0  0  0  0  0  0  0  0  0  0  0
   -3.4660   18.6500  -26.0290 C   0  0  0  0  0  0  0  0  0  0  0  0
   -4.3260   22.8320  -28.9300 C   0  0  0  0  0  0  0  0  0  0  0  0
   -4.5030   23.5690  -30.2890 C   0  0  1  0  0  0  0  0  0  0  0  0
   -3.4610   24.4900  -30.4740 O   0  0  0  0  0  0  0  0  0  0  0  0
   -4.5080   22.5840  -31.4580 C   0  0  0  0  0  0  0  0  0  0  0  0
   -3.2680   22.3110  -32.0510 C   0  0  0  0  0  0  0  0  0  0  0  0
   -3.0500   21.1430  -32.7780 C   0  0  0  0  0  0  0  0  0  0  0  0
   -1.7810   20.8920  -33.3190 C   0  0  0  0  0  0  0  0  0  0  0  0
   -1.5300   19.7250  -34.0350 C   0  0  0  0  0  0  0  0  0  0  0  0
   -2.5450   18.7880  -34.2110 C   0  0  0  0  0  0  0  0  0  0  0  0
   -3.8110   19.0170  -33.6720 C   0  0  0  0  0  0  0  0  0  0  0  0
   -4.0920   20.1920  -32.9290 C   0  0  0  0  0  0  0  0  0  0  0  0
   -5.3790   20.4790  -32.3800 C   0  0  0  0  0  0  0  0  0  0  0  0
   -6.4350   19.5370  -32.4120 C   0  0  0  0  0  0  0  0  0  0  0  0
   -7.7160   19.8760  -31.9850 C   0  0  0  0  0  0  0  0  0  0  0  0
   -9.0060   18.6890  -32.0340 Cl  0  0  0  0  0  0  0  0  0  0  0  0
   -7.9900   21.1770  -31.5810 C   0  0  0  0  0  0  0  0  0  0  0  0
   -6.9670   22.1250  -31.4960 C   0  0  0  0  0  0  0  0  0  0  0  0
   -7.5010   23.8010  -31.3650 Cl  0  0  0  0  0  0  0  0  0  0  0  0
   -5.6210   21.7500  -31.7670 C   0  0  0  0  0  0  0  0  0  0  0  0
   -1.7079   25.6704  -25.0559 H   0  0  0  0  0  0  0  0  0  0  0  0
   -3.0109   26.5639  -25.9105 H   0  0  0  0  0  0  0  0  0  0  0  0
   -3.0045   24.7676  -25.9105 H   0  0  0  0  0  0  0  0  0  0  0  0
   -2.0727   26.2246  -27.9912 H   0  0  0  0  0  0  0  0  0  0  0  0
   -0.5684   26.1510  -26.9908 H   0  0  0  0  0  0  0  0  0  0  0  0
   -1.1030   24.2622  -28.7842 H   0  0  0  0  0  0  0  0  0  0  0  0
   -0.3847   23.8595  -27.1648 H   0  0  0  0  0  0  0  0  0  0  0  0
   -2.1312   22.5723  -26.6262 H   0  0  0  0  0  0  0  0  0  0  0  0
   -3.2898   23.9104  -27.0480 H   0  0  0  0  0  0  0  0  0  0  0  0
   -2.3490   22.9030  -29.4070 H   0  0  0  0  0  0  0  0  0  0  0  0
   -3.4277   20.5227  -28.8628 H   0  0  0  0  0  0  0  0  0  0  0  0
   -1.6522   20.9923  -29.1586 H   0  0  0  0  0  0  0  0  0  0  0  0
   -1.0556   20.7456  -26.9982 H   0  0  0  0  0  0  0  0  0  0  0  0
   -2.7823   20.9944  -26.4048 H   0  0  0  0  0  0  0  0  0  0  0  0
   -2.5161   18.5576  -27.9545 H   0  0  0  0  0  0  0  0  0  0  0  0
   -1.3904   18.6041  -26.5213 H   0  0  0  0  0  0  0  0  0  0  0  0
   -3.1326   18.7518  -24.9857 H   0  0  0  0  0  0  0  0  0  0  0  0
   -4.3098   19.3315  -26.2125 H   0  0  0  0  0  0  0  0  0  0  0  0
   -3.7853   17.6135  -26.2125 H   0  0  0  0  0  0  0  0  0  0  0  0
   -4.8751   21.8799  -28.9748 H   0  0  0  0  0  0  0  0  0  0  0  0
   -4.7146   23.4972  -28.1449 H   0  0  0  0  0  0  0  0  0  0  0  0
   -5.4703   24.0922  -30.2627 H   0  0  0  0  0  0  0  0  0  0  0  0
   -3.6100   24.9240  -31.3560 H   0  0  0  0  0  0  0  0  0  0  0  0
   -2.4480   23.0357  -31.9398 H   0  0  0  0  0  0  0  0  0  0  0  0
   -0.9743   21.6260  -33.1759 H   0  0  0  0  0  0  0  0  0  0  0  0
   -0.5322   19.5433  -34.4608 H   0  0  0  0  0  0  0  0  0  0  0  0
   -2.3480   17.8652  -34.7763 H   0  0  0  0  0  0  0  0  0  0  0  0
   -4.6061   18.2726  -33.8260 H   0  0  0  0  0  0  0  0  0  0  0  0
   -6.2401   18.5191  -32.7807 H   0  0  0  0  0  0  0  0  0  0  0  0
   -9.0211   21.4630  -31.3259 H   0  0  0  0  0  0  0  0  0  0  0  0
  1  2  1  0
  2  3  1  0
  3  4  1  0
  4  5  1  0
  5  6  1  0
  6  7  1  0
  7  8  1  0
  8  9  1  0
  5 10  1  0
 10 11  1  0
 11 12  1  0
 11 13  1  0
 13 14  2  0
 14 15  1  0
 15 16  2  0
 16 17  1  0
 17 18  2  0
 18 19  1  0
 19 20  2  0
 20 21  1  0
 21 22  2  0
 22 23  1  0
 23 24  1  0
 23 25  2  0
 25 26  1  0
 26 27  1  0
 26 28  2  0
 28 13  1  0
 20 15  1  0
 28 21  1  0
  1 29  1  0
  1 30  1  0
  1 31  1  0
  2 32  1  0
  2 33  1  0
  3 34  1  0
  3 35  1  0
  4 36  1  0
  4 37  1  0
  5 38  1  0
  6 39  1  0
  6 40  1  0
  7 41  1  0
  7 42  1  0
  8 43  1  0
  8 44  1  0
  9 45  1  0
  9 46  1  0
  9 47  1  0
 10 48  1  0
 10 49  1  0
 11 50  1  1
 12 51  1  0
 14 52  1  0
 16 53  1  0
 17 54  1  0
 18 55  1  0
 19 56  1  0
 22 57  1  0
 25 58  1  0
M  CHG  1   5   1
M  END
>  <UniqueID>  (47) 
44

>  <SMILES>  (47) 
CCCC[NH+](CCCC)C[C@@H](O)c1cc2ccccc2c2cc(Cl)cc(Cl)c12

>  <Energy>  (47) 
91.37366686763295

>  <Genealogy>  (47) 
CCCC[NH+](CCCC)CC(O)c1cc2ccccc2c2cc(Cl)cc(Cl)c12 (protonated)
CCCC[NH+](CCCC)C[C@@H](O)c1cc2ccccc2c2cc(Cl)cc(Cl)c12 (chirality)
CCCC[NH+](CCCC)C[C@@H](O)c1cc2ccccc2c2cc(Cl)cc(Cl)c12 (3D coordinates assigned)
CCCC[NH+](CCCC)C[C@@H](O)c1cc2ccccc2c2cc(Cl)cc(Cl)c12 (optimized conformer: 91.37366686763295 kcal/mol)

>  <smiles>  (47) 
CCCCN(CCCC)CC(O)c1cc2ccccc2c2cc(Cl)cc(Cl)c12

>  <score_type>  (47) 
oracle

>  <origin>  (47) 
adg

>  <m_score__min__energy>  (47) 
-8.6899999999999995

>  <m_primary>  (47) 
energy

$$$$
47:0
     RDKit          3D

 32 34  0  0  0  0  0  0  0  0999 V2000
   -1.3160   20.9720  -29.9860 C   0  0  0  0  0  0  0  0  0  0  0  0
   -2.0900   22.2650  -30.0400 C   0  0  0  0  0  0  0  0  0  0  0  0
   -1.6390   23.3410  -29.2610 C   0  0  0  0  0  0  0  0  0  0  0  0
   -2.3300   24.5510  -29.2880 C   0  0  0  0  0  0  0  0  0  0  0  0
   -1.9310   25.5190  -28.5910 O   0  0  0  0  0  0  0  0  0  0  0  0
   -3.4080   24.6900  -30.0470 O   0  0  0  0  0  0  0  0  0  0  0  0
   -3.8840   23.7100  -30.8070 C   0  0  0  0  0  0  0  0  0  0  0  0
   -4.9890   23.9390  -31.5540 N   0  0  0  0  0  0  0  0  0  0  0  0
   -5.5200   22.9780  -32.3470 C   0  0  0  0  0  0  0  0  0  0  0  0
   -4.9520   21.7380  -32.4110 N   0  0  0  0  0  0  0  0  0  0  0  0
   -5.5430   20.7340  -33.3120 C   0  0  0  0  0  0  0  0  0  0  0  0
   -6.7690   20.1240  -32.6830 C   0  0  0  0  0  0  0  0  0  0  0  0
   -6.8470   18.7370  -32.4720 C   0  0  0  0  0  0  0  0  0  0  0  0
   -8.0000   18.1730  -31.9190 C   0  0  0  0  0  0  0  0  0  0  0  0
   -9.0850   18.9870  -31.5800 C   0  0  0  0  0  0  0  0  0  0  0  0
   -9.0180   20.3650  -31.7940 C   0  0  0  0  0  0  0  0  0  0  0  0
   -7.8660   20.9340  -32.3470 C   0  0  0  0  0  0  0  0  0  0  0  0
   -3.8250   21.4560  -31.6800 C   0  0  0  0  0  0  0  0  0  0  0  0
   -3.3050   20.3090  -31.7610 O   0  0  0  0  0  0  0  0  0  0  0  0
   -3.2510   22.4460  -30.8430 C   0  0  0  0  0  0  0  0  0  0  0  0
   -1.1469   20.6895  -28.9364 H   0  0  0  0  0  0  0  0  0  0  0  0
   -1.8889   20.1804  -30.4911 H   0  0  0  0  0  0  0  0  0  0  0  0
   -0.3476   21.1030  -30.4911 H   0  0  0  0  0  0  0  0  0  0  0  0
   -0.7438   23.2301  -28.6315 H   0  0  0  0  0  0  0  0  0  0  0  0
   -6.4167   23.1984  -32.9447 H   0  0  0  0  0  0  0  0  0  0  0  0
   -5.8235   21.2172  -34.2596 H   0  0  0  0  0  0  0  0  0  0  0  0
   -4.8039   19.9408  -33.4978 H   0  0  0  0  0  0  0  0  0  0  0  0
   -5.9976   18.0928  -32.7430 H   0  0  0  0  0  0  0  0  0  0  0  0
   -8.0539   17.0874  -31.7503 H   0  0  0  0  0  0  0  0  0  0  0  0
   -9.9917   18.5416  -31.1446 H   0  0  0  0  0  0  0  0  0  0  0  0
   -9.8725   21.0043  -31.5273 H   0  0  0  0  0  0  0  0  0  0  0  0
   -7.8191   22.0194  -32.5193 H   0  0  0  0  0  0  0  0  0  0  0  0
  1  2  1  0
  2  3  2  0
  3  4  1  0
  4  5  2  0
  4  6  1  0
  6  7  1  0
  7  8  1  0
  8  9  2  0
  9 10  1  0
 10 11  1  0
 11 12  1  0
 12 13  2  0
 13 14  1  0
 14 15  2  0
 15 16  1  0
 16 17  2  0
 10 18  1  0
 18 19  2  0
 18 20  1  0
 20  2  1  0
 20  7  2  0
 17 12  1  0
  1 21  1  0
  1 22  1  0
  1 23  1  0
  3 24  1  0
  9 25  1  0
 11 26  1  0
 11 27  1  0
 13 28  1  0
 14 29  1  0
 15 30  1  0
 16 31  1  0
 17 32  1  0
M  END
>  <UniqueID>  (48) 
45

>  <SMILES>  (48) 
Cc1cc(=O)oc2ncn(Cc3ccccc3)c(=O)c12

>  <Energy>  (48) 
45.28819586819932

>  <Genealogy>  (48) 
Cc1cc(=O)oc2ncn(Cc3ccccc3)c(=O)c12 (3D coordinates assigned)
Cc1cc(=O)oc2ncn(Cc3ccccc3)c(=O)c12 (optimized conformer: 45.28819586819932 kcal/mol)

>  <smiles>  (48) 
Cc1cc(=O)oc2ncn(Cc3ccccc3)c(=O)c12

>  <score_type>  (48) 
oracle

>  <origin>  (48) 
adg

>  <m_score__min__energy>  (48) 
-7.46

>  <m_primary>  (48) 
energy

$$$$
