0:0
     RDKit          3D

 44 46  0  0  0  0  0  0  0  0999 V2000
   -1.5910   15.1360  -36.3800 C   0  0  0  0  0  0  0  0  0  0  0  0
   -0.7670   15.7540  -35.3960 O   0  0  0  0  0  0  0  0  0  0  0  0
   -1.0800   16.9540  -34.7340 C   0  0  0  0  0  0  0  0  0  0  0  0
   -0.4500   18.1710  -35.0670 C   0  0  0  0  0  0  0  0  0  0  0  0
   -0.7920   19.3500  -34.4010 C   0  0  0  0  0  0  0  0  0  0  0  0
   -1.7540   19.3310  -33.3920 C   0  0  0  0  0  0  0  0  0  0  0  0
   -2.3810   18.1330  -33.0470 C   0  0  0  0  0  0  0  0  0  0  0  0
   -2.0630   16.9400  -33.7200 C   0  0  0  0  0  0  0  0  0  0  0  0
   -2.7510   15.6800  -33.3470 C   0  0  0  0  0  0  0  0  0  0  0  0
   -2.1810   14.8820  -32.5580 O   0  0  0  0  0  0  0  0  0  0  0  0
   -4.0680   15.3560  -33.8200 N   0  0  0  0  0  0  0  0  0  0  0  0
   -5.1220   16.1040  -33.6900 C   0  0  0  0  0  0  0  0  0  0  0  0
   -6.3680   15.6810  -33.9660 N   0  0  0  0  0  0  0  0  0  0  0  0
   -7.1630   16.7100  -33.7170 N   0  0  0  0  0  0  0  0  0  0  0  0
   -6.3660   17.7190  -33.3030 C   0  0  0  0  0  0  0  0  0  0  0  0
   -6.8420   19.0570  -32.9030 C   0  0  0  0  0  0  0  0  0  0  0  0
   -5.9850   20.1660  -33.0030 C   0  0  0  0  0  0  0  0  0  0  0  0
   -6.4230   21.4350  -32.6150 C   0  0  0  0  0  0  0  0  0  0  0  0
   -7.7190   21.6080  -32.1130 C   0  0  0  0  0  0  0  0  0  0  0  0
   -8.2770   23.2400  -31.6140 S   0  0  0  0  0  0  0  0  0  0  0  0
   -7.0730   23.4190  -30.2510 C   0  0  0  0  0  0  0  0  0  0  0  0
   -6.2650   24.7090  -30.4020 C   0  0  0  0  0  0  0  0  0  0  0  0
   -4.8680   24.4010  -30.8430 C   0  0  0  0  0  0  0  0  0  0  0  0
   -3.8070   25.3040  -30.5360 N   0  0  0  0  0  0  0  0  0  0  0  0
   -4.6330   23.3640  -31.5190 O   0  0  0  0  0  0  0  0  0  0  0  0
   -8.5820   20.5100  -32.0240 C   0  0  0  0  0  0  0  0  0  0  0  0
   -8.1460   19.2390  -32.4120 C   0  0  0  0  0  0  0  0  0  0  0  0
   -5.1080   17.3530  -33.2910 O   0  0  0  0  0  0  0  0  0  0  0  0
   -2.3762   14.5471  -35.8834 H   0  0  0  0  0  0  0  0  0  0  0  0
   -2.0554   15.9104  -37.0082 H   0  0  0  0  0  0  0  0  0  0  0  0
   -0.9777   14.4733  -37.0082 H   0  0  0  0  0  0  0  0  0  0  0  0
    0.3157   18.1918  -35.8564 H   0  0  0  0  0  0  0  0  0  0  0  0
   -0.3011   20.2960  -34.6732 H   0  0  0  0  0  0  0  0  0  0  0  0
   -2.0189   20.2609  -32.8675 H   0  0  0  0  0  0  0  0  0  0  0  0
   -3.1303   18.1218  -32.2418 H   0  0  0  0  0  0  0  0  0  0  0  0
   -4.9634   20.0345  -33.3890 H   0  0  0  0  0  0  0  0  0  0  0  0
   -5.7487   22.2995  -32.7040 H   0  0  0  0  0  0  0  0  0  0  0  0
   -7.6139   23.4429  -29.2935 H   0  0  0  0  0  0  0  0  0  0  0  0
   -6.3802   22.5651  -30.2798 H   0  0  0  0  0  0  0  0  0  0  0  0
   -6.7478   25.3535  -31.1513 H   0  0  0  0  0  0  0  0  0  0  0  0
   -6.2273   25.2224  -29.4299 H   0  0  0  0  0  0  0  0  0  0  0  0
   -3.5190   26.0420  -31.2170 H   0  0  0  0  0  0  0  0  0  0  0  0
   -9.6065   20.6470  -31.6477 H   0  0  0  0  0  0  0  0  0  0  0  0
   -8.8265   18.3784  -32.3325 H   0  0  0  0  0  0  0  0  0  0  0  0
  1  2  1  0
  2  3  1  0
  3  4  2  0
  4  5  1  0
  5  6  2  0
  6  7  1  0
  7  8  2  0
  8  9  1  0
  9 10  2  0
  9 11  1  0
 11 12  2  3
 12 13  1  0
 13 14  1  0
 14 15  2  0
 15 16  1  0
 16 17  2  0
 17 18  1  0
 18 19  2  0
 19 20  1  0
 20 21  1  0
 21 22  1  0
 22 23  1  0
 23 24  1  0
 23 25  2  0
 19 26  1  0
 26 27  2  0
 15 28  1  0
  8  3  1  0
 28 12  1  0
 27 16  1  0
  1 29  1  0
  1 30  1  0
  1 31  1  0
  4 32  1  0
  5 33  1  0
  6 34  1  0
  7 35  1  0
 17 36  1  0
 18 37  1  0
 21 38  1  0
 21 39  1  0
 22 40  1  0
 22 41  1  0
 24 42  1  0
 26 43  1  0
 27 44  1  0
M  CHG  2  13  -1  24  -1
M  END
>  <UniqueID>  (1) 
1

>  <SMILES>  (1) 
COc1ccccc1C(=O)N=c1[n-]nc(-c2ccc(SCCC([NH-])=O)cc2)o1

>  <Energy>  (1) 
80.26768112607667

>  <Genealogy>  (1) 
COc1ccccc1C(=O)N=c1[n-]nc(-c2ccc(SCCC([NH-])=O)cc2)o1 (protonated)
COc1ccccc1C(=O)N=c1[n-]nc(-c2ccc(SCCC([NH-])=O)cc2)o1 (3D coordinates assigned)
COc1ccccc1C(=O)N=c1[n-]nc(-c2ccc(SCCC([NH-])=O)cc2)o1 (optimized conformer: 80.26768112607667 kcal/mol)

>  <smiles>  (1) 
COc1ccccc1C(=O)N=c1[nH]nc(-c2ccc(SCCC(N)=O)cc2)o1

>  <score_type>  (1) 
oracle

>  <origin>  (1) 
adg

>  <m_score__min__energy>  (1) 
-10.960000000000001

>  <m_primary>  (1) 
energy

$$$$
1:0
     RDKit          3D

 30 32  0  0  0  0  0  0  0  0999 V2000
   -5.6800   18.7550  -33.7670 F   0  0  0  0  0  0  0  0  0  0  0  0
   -6.7740   19.1320  -33.0590 C   0  0  0  0  0  0  0  0  0  0  0  0
   -7.7250   18.1730  -32.6910 C   0  0  0  0  0  0  0  0  0  0  0  0
   -8.8580   18.5520  -31.9660 C   0  0  0  0  0  0  0  0  0  0  0  0
   -9.0460   19.8920  -31.6140 C   0  0  0  0  0  0  0  0  0  0  0  0
   -8.0990   20.8520  -31.9800 C   0  0  0  0  0  0  0  0  0  0  0  0
   -6.9450   20.4740  -32.6930 C   0  0  0  0  0  0  0  0  0  0  0  0
   -5.9810   21.4110  -33.0940 O   0  0  0  0  0  0  0  0  0  0  0  0
   -4.6250   21.3800  -32.7350 C   0  0  0  0  0  0  0  0  0  0  0  0
   -3.7840   20.4690  -33.3120 N   0  0  0  0  0  0  0  0  0  0  0  0
   -2.4600   20.4220  -33.0110 C   0  0  0  0  0  0  0  0  0  0  0  0
   -1.9170   21.3240  -32.1010 C   0  0  0  0  0  0  0  0  0  0  0  0
   -2.7400   22.2780  -31.5100 C   0  0  0  0  0  0  0  0  0  0  0  0
   -4.1130   22.3280  -31.8160 C   0  0  0  0  0  0  0  0  0  0  0  0
   -4.9760   23.3520  -31.1630 C   0  0  0  0  0  0  0  0  0  0  0  0
   -6.2020   23.0070  -30.6860 N   0  0  0  0  0  0  0  0  0  0  0  0
   -6.9980   23.9340  -30.0960 C   0  0  0  0  0  0  0  0  0  0  0  0
   -6.5740   25.2170  -29.9820 N   0  0  0  0  0  0  0  0  0  0  0  0
   -5.3550   25.5710  -30.4560 C   0  0  0  0  0  0  0  0  0  0  0  0
   -4.5610   24.6420  -31.0450 N   0  0  0  0  0  0  0  0  0  0  0  0
   -7.5803   17.1196  -32.9729 H   0  0  0  0  0  0  0  0  0  0  0  0
   -9.6016   17.7964  -31.6724 H   0  0  0  0  0  0  0  0  0  0  0  0
   -9.9407   20.1909  -31.0481 H   0  0  0  0  0  0  0  0  0  0  0  0
   -8.2555   21.9069  -31.7102 H   0  0  0  0  0  0  0  0  0  0  0  0
   -4.1480   19.8030  -34.0290 H   0  0  0  0  0  0  0  0  0  0  0  0
   -1.8155   19.6689  -33.4879 H   0  0  0  0  0  0  0  0  0  0  0  0
   -0.8466   21.2833  -31.8510 H   0  0  0  0  0  0  0  0  0  0  0  0
   -2.3137   22.9994  -30.7974 H   0  0  0  0  0  0  0  0  0  0  0  0
   -7.9868   23.6449  -29.7103 H   0  0  0  0  0  0  0  0  0  0  0  0
   -5.0094   26.6112  -30.3633 H   0  0  0  0  0  0  0  0  0  0  0  0
  1  2  1  0
  2  3  2  0
  3  4  1  0
  4  5  2  0
  5  6  1  0
  6  7  2  0
  7  8  1  0
  8  9  1  0
  9 10  2  0
 10 11  1  0
 11 12  2  0
 12 13  1  0
 13 14  2  0
 14 15  1  0
 15 16  2  0
 16 17  1  0
 17 18  2  0
 18 19  1  0
 19 20  2  0
  7  2  1  0
 14  9  1  0
 20 15  1  0
  3 21  1  0
  4 22  1  0
  5 23  1  0
  6 24  1  0
 10 25  1  0
 11 26  1  0
 12 27  1  0
 13 28  1  0
 17 29  1  0
 19 30  1  0
M  CHG  1  10   1
M  END
>  <UniqueID>  (2) 
2

>  <SMILES>  (2) 
Fc1ccccc1Oc1[nH+]cccc1-c1ncncn1

>  <Energy>  (2) 
43.38812822579653

>  <Genealogy>  (2) 
Fc1ccccc1Oc1[nH+]cccc1-c1ncncn1 (protonated)
Fc1ccccc1Oc1[nH+]cccc1-c1ncncn1 (3D coordinates assigned)
Fc1ccccc1Oc1[nH+]cccc1-c1ncncn1 (optimized conformer: 43.38812822579653 kcal/mol)

>  <smiles>  (2) 
Fc1ccccc1Oc1ncccc1-c1ncncn1

>  <score_type>  (2) 
oracle

>  <origin>  (2) 
adg

>  <m_score__min__energy>  (2) 
-6.4199999999999999

>  <m_primary>  (2) 
energy

$$$$
2:0
     RDKit          3D

 45 47  0  0  0  0  0  0  0  0999 V2000
   -1.6910   21.2740  -30.8800 C   0  0  0  0  0  0  0  0  0  0  0  0
   -2.4390   21.6430  -29.7260 O   0  0  0  0  0  0  0  0  0  0  0  0
   -2.0320   21.4060  -28.4010 C   0  0  0  0  0  0  0  0  0  0  0  0
   -2.1880   20.1450  -27.7910 C   0  0  0  0  0  0  0  0  0  0  0  0
   -1.7850   19.9440  -26.4690 C   0  0  0  0  0  0  0  0  0  0  0  0
   -1.2280   20.9930  -25.7400 C   0  0  0  0  0  0  0  0  0  0  0  0
   -1.0660   22.2480  -26.3300 C   0  0  0  0  0  0  0  0  0  0  0  0
   -1.4550   22.4620  -27.6630 C   0  0  0  0  0  0  0  0  0  0  0  0
   -1.3090   23.8380  -28.2660 C   0  0  0  0  0  0  0  0  0  0  0  0
   -2.6550   24.5680  -28.2700 C   0  0  0  0  0  0  0  0  0  0  0  0
   -3.6690   23.7650  -28.9510 N   0  0  0  0  0  0  0  0  0  0  0  0
   -4.3270   24.2150  -30.1480 C   0  0  0  0  0  0  0  0  0  0  0  0
   -3.9240   25.2640  -30.7210 O   0  0  0  0  0  0  0  0  0  0  0  0
   -5.4710   23.4670  -30.7290 C   0  0  0  0  0  0  0  0  0  0  0  0
   -6.6620   24.1430  -31.0430 C   0  0  0  0  0  0  0  0  0  0  0  0
   -7.7600   23.4490  -31.5550 C   0  0  0  0  0  0  0  0  0  0  0  0
   -7.6940   22.0670  -31.7530 C   0  0  0  0  0  0  0  0  0  0  0  0
   -6.4800   21.3870  -31.5120 C   0  0  0  0  0  0  0  0  0  0  0  0
   -5.3970   22.0810  -30.9600 C   0  0  0  0  0  0  0  0  0  0  0  0
   -6.3100   20.0360  -31.8430 O   0  0  0  0  0  0  0  0  0  0  0  0
   -6.9530   19.4300  -32.9640 C   0  0  0  0  0  0  0  0  0  0  0  0
   -8.3960   19.0340  -32.6530 C   0  0  0  0  0  0  0  0  0  0  0  0
   -9.1290   20.0420  -31.7640 C   0  0  0  0  0  0  0  0  0  0  0  0
   -8.8580   21.3910  -32.1450 O   0  0  0  0  0  0  0  0  0  0  0  0
   -0.7446   20.8071  -30.5697 H   0  0  0  0  0  0  0  0  0  0  0  0
   -2.2726   20.5594  -31.4809 H   0  0  0  0  0  0  0  0  0  0  0  0
   -1.4779   22.1704  -31.4809 H   0  0  0  0  0  0  0  0  0  0  0  0
   -2.6300   19.3138  -28.3599 H   0  0  0  0  0  0  0  0  0  0  0  0
   -1.9075   18.9555  -26.0022 H   0  0  0  0  0  0  0  0  0  0  0  0
   -0.9154   20.8319  -24.6977 H   0  0  0  0  0  0  0  0  0  0  0  0
   -0.6313   23.0739  -25.7479 H   0  0  0  0  0  0  0  0  0  0  0  0
   -0.5849   24.4174  -27.6744 H   0  0  0  0  0  0  0  0  0  0  0  0
   -0.9568   23.7361  -29.3031 H   0  0  0  0  0  0  0  0  0  0  0  0
   -2.9724   24.7484  -27.2324 H   0  0  0  0  0  0  0  0  0  0  0  0
   -2.5406   25.5238  -28.8022 H   0  0  0  0  0  0  0  0  0  0  0  0
   -3.8860   22.8250  -28.5540 H   0  0  0  0  0  0  0  0  0  0  0  0
   -6.7300   25.2293  -30.8839 H   0  0  0  0  0  0  0  0  0  0  0  0
   -8.6828   23.9933  -31.8041 H   0  0  0  0  0  0  0  0  0  0  0  0
   -4.4765   21.5360  -30.7036 H   0  0  0  0  0  0  0  0  0  0  0  0
   -6.9534   20.1434  -33.8013 H   0  0  0  0  0  0  0  0  0  0  0  0
   -6.3979   18.5154  -33.2198 H   0  0  0  0  0  0  0  0  0  0  0  0
   -8.9444   18.9440  -33.6023 H   0  0  0  0  0  0  0  0  0  0  0  0
   -8.3583   18.0836  -32.1005 H   0  0  0  0  0  0  0  0  0  0  0  0
  -10.2114   19.8621  -31.8418 H   0  0  0  0  0  0  0  0  0  0  0  0
   -8.7745   19.9039  -30.7319 H   0  0  0  0  0  0  0  0  0  0  0  0
  1  2  1  0
  2  3  1  0
  3  4  2  0
  4  5  1  0
  5  6  2  0
  6  7  1  0
  7  8  2  0
  8  9  1  0
  9 10  1  0
 10 11  1  0
 11 12  1  0
 12 13  2  0
 12 14  1  0
 14 15  2  0
 15 16  1  0
 16 17  2  0
 17 18  1  0
 18 19  2  0
 18 20  1  0
 20 21  1  0
 21 22  1  0
 22 23  1  0
 23 24  1  0
  8  3  1  0
 19 14  1  0
 24 17  1  0
  1 25  1  0
  1 26  1  0
  1 27  1  0
  4 28  1  0
  5 29  1  0
  6 30  1  0
  7 31  1  0
  9 32  1  0
  9 33  1  0
 10 34  1  0
 10 35  1  0
 11 36  1  0
 15 37  1  0
 16 38  1  0
 19 39  1  0
 21 40  1  0
 21 41  1  0
 22 42  1  0
 22 43  1  0
 23 44  1  0
 23 45  1  0
M  END
>  <UniqueID>  (3) 
3

>  <SMILES>  (3) 
COc1ccccc1CCNC(=O)c1ccc2c(c1)OCCCO2

>  <Energy>  (3) 
51.08910769537768

>  <Genealogy>  (3) 
COc1ccccc1CCNC(=O)c1ccc2c(c1)OCCCO2 (3D coordinates assigned)
COc1ccccc1CCNC(=O)c1ccc2c(c1)OCCCO2 (nonaromatic ring conformer: 51.08910769537768 kcal/mol)

>  <smiles>  (3) 
COc1ccccc1CCNC(=O)c1ccc2c(c1)OCCCO2

>  <score_type>  (3) 
oracle

>  <origin>  (3) 
adg

>  <m_score__min__energy>  (3) 
-6.0899999999999999

>  <m_primary>  (3) 
energy

$$$$
3:0
     RDKit          3D

 45 48  0  0  0  0  0  0  0  0999 V2000
   -3.1160   14.5780  -35.3210 C   0  0  0  0  0  0  0  0  0  0  0  0
   -3.8840   15.7280  -34.7380 C   0  0  0  0  0  0  0  0  0  0  0  0
   -3.6080   17.0410  -35.1450 C   0  0  0  0  0  0  0  0  0  0  0  0
   -4.2980   18.1150  -34.5760 C   0  0  0  0  0  0  0  0  0  0  0  0
   -5.2560   17.8960  -33.5740 C   0  0  0  0  0  0  0  0  0  0  0  0
   -5.9930   19.0470  -32.9960 C   0  0  0  0  0  0  0  0  0  0  0  0
   -7.3420   19.0600  -33.0940 N   0  0  0  0  0  0  0  0  0  0  0  0
   -8.0830   20.0460  -32.5440 C   0  0  0  0  0  0  0  0  0  0  0  0
   -9.4780   19.9760  -32.6080 C   0  0  0  0  0  0  0  0  0  0  0  0
  -10.2370   20.9070  -31.9770 N   0  0  0  0  0  0  0  0  0  0  0  0
   -9.6740   21.9170  -31.2690 C   0  0  0  0  0  0  0  0  0  0  0  0
   -8.2840   22.0360  -31.1870 C   0  0  0  0  0  0  0  0  0  0  0  0
   -7.4500   21.1190  -31.8740 C   0  0  0  0  0  0  0  0  0  0  0  0
   -6.0640   21.2050  -31.8930 N   0  0  0  0  0  0  0  0  0  0  0  0
   -5.3510   22.4330  -31.4260 C   0  0  0  0  0  0  0  0  0  0  0  0
   -5.9510   23.7130  -32.0590 C   0  0  0  0  0  0  0  0  0  0  0  0
   -5.7370   24.9710  -31.1920 C   0  0  0  0  0  0  0  0  0  0  0  0
   -4.4100   24.9140  -30.4240 C   0  0  0  0  0  0  0  0  0  0  0  0
   -4.3410   23.7060  -29.4620 C   0  0  0  0  0  0  0  0  0  0  0  0
   -5.2550   22.5350  -29.8830 C   0  0  0  0  0  0  0  0  0  0  0  0
   -5.3410   20.1290  -32.3740 C   0  0  0  0  0  0  0  0  0  0  0  0
   -4.0840   20.1040  -32.2710 O   0  0  0  0  0  0  0  0  0  0  0  0
   -5.5310   16.5780  -33.1690 C   0  0  0  0  0  0  0  0  0  0  0  0
   -4.8420   15.5030  -33.7380 C   0  0  0  0  0  0  0  0  0  0  0  0
   -2.7046   13.9620  -34.5078 H   0  0  0  0  0  0  0  0  0  0  0  0
   -3.7871   13.9657  -35.9413 H   0  0  0  0  0  0  0  0  0  0  0  0
   -2.2933   14.9633  -35.9413 H   0  0  0  0  0  0  0  0  0  0  0  0
   -2.8451   17.2266  -35.9154 H   0  0  0  0  0  0  0  0  0  0  0  0
   -4.0886   19.1399  -34.9162 H   0  0  0  0  0  0  0  0  0  0  0  0
   -9.9613   19.1642  -33.1713 H   0  0  0  0  0  0  0  0  0  0  0  0
  -10.3159   22.6479  -30.7555 H   0  0  0  0  0  0  0  0  0  0  0  0
   -7.8364   22.8429  -30.5881 H   0  0  0  0  0  0  0  0  0  0  0  0
   -4.3139   22.3416  -31.7812 H   0  0  0  0  0  0  0  0  0  0  0  0
   -5.4754   23.8764  -33.0373 H   0  0  0  0  0  0  0  0  0  0  0  0
   -7.0360   23.5573  -32.1510 H   0  0  0  0  0  0  0  0  0  0  0  0
   -5.7332   25.8567  -31.8443 H   0  0  0  0  0  0  0  0  0  0  0  0
   -6.5549   25.0241  -30.4584 H   0  0  0  0  0  0  0  0  0  0  0  0
   -3.5853   24.8375  -31.1478 H   0  0  0  0  0  0  0  0  0  0  0  0
   -4.3306   25.8302  -29.8204 H   0  0  0  0  0  0  0  0  0  0  0  0
   -3.3027   23.3441  -29.4303 H   0  0  0  0  0  0  0  0  0  0  0  0
   -4.6900   24.0534  -28.4784 H   0  0  0  0  0  0  0  0  0  0  0  0
   -4.8428   21.5959  -29.4853 H   0  0  0  0  0  0  0  0  0  0  0  0
   -6.2627   22.7145  -29.4801 H   0  0  0  0  0  0  0  0  0  0  0  0
   -6.2939   16.3914  -32.3988 H   0  0  0  0  0  0  0  0  0  0  0  0
   -5.0516   14.4772  -33.4006 H   0  0  0  0  0  0  0  0  0  0  0  0
  1  2  1  0
  2  3  2  0
  3  4  1  0
  4  5  2  0
  5  6  1  0
  6  7  2  0
  7  8  1  0
  8  9  2  0
  9 10  1  0
 10 11  2  0
 11 12  1  0
 12 13  2  0
 13 14  1  0
 14 15  1  0
 15 16  1  0
 16 17  1  0
 17 18  1  0
 18 19  1  0
 19 20  1  0
 14 21  1  0
 21 22  2  0
  5 23  1  0
 23 24  2  0
 24  2  1  0
 21  6  1  0
 13  8  1  0
 20 15  1  0
  1 25  1  0
  1 26  1  0
  1 27  1  0
  3 28  1  0
  4 29  1  0
  9 30  1  0
 11 31  1  0
 12 32  1  0
 15 33  1  0
 16 34  1  0
 16 35  1  0
 17 36  1  0
 17 37  1  0
 18 38  1  0
 18 39  1  0
 19 40  1  0
 19 41  1  0
 20 42  1  0
 20 43  1  0
 23 44  1  0
 24 45  1  0
M  END
>  <UniqueID>  (4) 
4

>  <SMILES>  (4) 
Cc1ccc(-c2nc3cnccc3n(C3CCCCC3)c2=O)cc1

>  <Energy>  (4) 
74.95169831201015

>  <Genealogy>  (4) 
Cc1ccc(-c2nc3cnccc3n(C3CCCCC3)c2=O)cc1 (3D coordinates assigned)
Cc1ccc(-c2nc3cnccc3n(C3CCCCC3)c2=O)cc1 (nonaromatic ring conformer: 74.95169831201015 kcal/mol)

>  <smiles>  (4) 
Cc1ccc(-c2nc3cnccc3n(C3CCCCC3)c2=O)cc1

>  <score_type>  (4) 
oracle

>  <origin>  (4) 
adg

>  <m_score__min__energy>  (4) 
-8.1500000000000004

>  <m_primary>  (4) 
energy

$$$$
4:0
     RDKit          3D

 25 25  0  0  0  0  0  0  0  0999 V2000
   -9.1340   20.8740  -32.0230 C   0  0  0  0  0  0  0  0  0  0  0  0
   -9.1750   19.5840  -32.3640 C   0  0  0  0  0  0  0  0  0  0  0  0
   -7.9190   18.8030  -32.6200 C   0  0  0  0  0  0  0  0  0  0  0  0
   -6.7440   19.6580  -32.4610 N   0  0  0  0  0  0  0  0  0  0  0  0
   -5.6820   19.6850  -33.4250 C   0  0  0  0  0  0  0  0  0  0  0  0
   -5.6750   18.8680  -34.3860 O   0  0  0  0  0  0  0  0  0  0  0  0
   -4.5690   20.6800  -33.3000 C   0  0  0  0  0  0  0  0  0  0  0  0
   -3.9410   20.7340  -31.5870 S   0  0  0  0  0  0  0  0  0  0  0  0
   -4.8090   22.2400  -31.1550 C   0  0  0  0  0  0  0  0  0  0  0  0
   -4.1430   23.4240  -31.1200 N   0  0  0  0  0  0  0  0  0  0  0  0
   -4.7900   24.5790  -30.8180 C   0  0  0  0  0  0  0  0  0  0  0  0
   -4.1580   25.6680  -30.8040 O   0  0  0  0  0  0  0  0  0  0  0  0
   -6.1560   24.5580  -30.5320 C   0  0  0  0  0  0  0  0  0  0  0  0
   -6.8240   23.3340  -30.5760 C   0  0  0  0  0  0  0  0  0  0  0  0
   -6.1420   22.2010  -30.8910 N   0  0  0  0  0  0  0  0  0  0  0  0
  -10.0686   21.4247  -31.8406 H   0  0  0  0  0  0  0  0  0  0  0  0
   -8.1656   21.3863  -31.9244 H   0  0  0  0  0  0  0  0  0  0  0  0
  -10.1496   19.0829  -32.4594 H   0  0  0  0  0  0  0  0  0  0  0  0
   -7.8593   17.9689  -31.9054 H   0  0  0  0  0  0  0  0  0  0  0  0
   -7.9427   18.4183  -33.6503 H   0  0  0  0  0  0  0  0  0  0  0  0
   -6.7100   20.3100  -31.6450 H   0  0  0  0  0  0  0  0  0  0  0  0
   -3.7501   20.3926  -33.9759 H   0  0  0  0  0  0  0  0  0  0  0  0
   -4.9530   21.6755  -33.5674 H   0  0  0  0  0  0  0  0  0  0  0  0
   -6.6928   25.4840  -30.2781 H   0  0  0  0  0  0  0  0  0  0  0  0
   -7.9007   23.2858  -30.3562 H   0  0  0  0  0  0  0  0  0  0  0  0
  1  2  2  0
  2  3  1  0
  3  4  1  0
  4  5  1  0
  5  6  2  0
  5  7  1  0
  7  8  1  0
  8  9  1  0
  9 10  2  0
 10 11  1  0
 11 12  2  0
 11 13  1  0
 13 14  2  0
 14 15  1  0
 15  9  1  0
  1 16  1  0
  1 17  1  0
  2 18  1  0
  3 19  1  0
  3 20  1  0
  4 21  1  0
  7 22  1  0
  7 23  1  0
 13 24  1  0
 14 25  1  0
M  CHG  1  15  -1
M  END
>  <UniqueID>  (5) 
5

>  <SMILES>  (5) 
C=CCNC(=O)CSc1nc(=O)cc[n-]1

>  <Energy>  (5) 
13.281507619786316

>  <Genealogy>  (5) 
C=CCNC(=O)CSc1nc(=O)cc[n-]1 (protonated)
C=CCNC(=O)CSc1nc(=O)cc[n-]1 (3D coordinates assigned)
C=CCNC(=O)CSc1nc(=O)cc[n-]1 (optimized conformer: 13.281507619786316 kcal/mol)

>  <smiles>  (5) 
C=CCNC(=O)CSc1nc(=O)cc[nH]1

>  <score_type>  (5) 
oracle

>  <origin>  (5) 
adg

>  <m_score__min__energy>  (5) 
-6.2000000000000002

>  <m_primary>  (5) 
energy

$$$$
5:0
     RDKit          3D

 34 35  0  0  0  0  0  0  0  0999 V2000
    0.8670   19.9310  -34.1880 C   0  0  0  0  0  0  0  0  0  0  0  0
   -0.4030   20.7260  -34.2370 C   0  0  0  0  0  0  0  0  0  0  0  0
   -0.3420   21.9340  -34.5960 O   0  0  0  0  0  0  0  0  0  0  0  0
   -1.6810   20.1410  -33.9060 N   0  0  0  0  0  0  0  0  0  0  0  0
   -2.8180   21.0380  -33.6390 C   0  0  0  0  0  0  0  0  0  0  0  0
   -3.9910   20.2910  -32.9990 C   0  0  0  0  0  0  0  0  0  0  0  0
   -4.2920   19.0750  -33.7640 N   0  0  0  0  0  0  0  0  0  0  0  0
   -5.6460   18.7570  -34.1350 C   0  0  0  0  0  0  0  0  0  0  0  0
   -5.8830   18.2890  -35.2810 O   0  0  0  0  0  0  0  0  0  0  0  0
   -6.7720   18.9820  -33.2130 C   0  0  0  0  0  0  0  0  0  0  0  0
   -7.7940   19.8220  -33.4660 N   0  0  0  0  0  0  0  0  0  0  0  0
   -8.6550   19.7500  -32.4640 N   0  0  0  0  0  0  0  0  0  0  0  0
   -9.8590   20.5640  -32.3520 C   0  0  0  0  0  0  0  0  0  0  0  0
   -8.2050   18.8730  -31.5470 C   0  0  0  0  0  0  0  0  0  0  0  0
   -7.0070   18.3530  -31.9980 C   0  0  0  0  0  0  0  0  0  0  0  0
   -6.1010   17.0510  -31.2520 Cl  0  0  0  0  0  0  0  0  0  0  0  0
   -3.2010   18.2230  -34.2540 C   0  0  0  0  0  0  0  0  0  0  0  0
   -1.8360   18.6870  -33.7280 C   0  0  0  0  0  0  0  0  0  0  0  0
    1.1489   19.7545  -33.1395 H   0  0  0  0  0  0  0  0  0  0  0  0
    0.7154   18.9663  -34.6943 H   0  0  0  0  0  0  0  0  0  0  0  0
    1.6686   20.4888  -34.6943 H   0  0  0  0  0  0  0  0  0  0  0  0
   -2.4896   21.8365  -32.9575 H   0  0  0  0  0  0  0  0  0  0  0  0
   -3.1591   21.4539  -34.5985 H   0  0  0  0  0  0  0  0  0  0  0  0
   -3.7276   20.0158  -31.9671 H   0  0  0  0  0  0  0  0  0  0  0  0
   -4.8762   20.9440  -32.9978 H   0  0  0  0  0  0  0  0  0  0  0  0
   -7.9020   20.4370  -34.3050 H   0  0  0  0  0  0  0  0  0  0  0  0
  -10.0958   20.7241  -31.2898 H   0  0  0  0  0  0  0  0  0  0  0  0
   -9.6918   21.5351  -32.8408 H   0  0  0  0  0  0  0  0  0  0  0  0
  -10.6979   20.0470  -32.8408 H   0  0  0  0  0  0  0  0  0  0  0  0
   -8.7049   18.6149  -30.6017 H   0  0  0  0  0  0  0  0  0  0  0  0
   -3.3787   17.1899  -33.9206 H   0  0  0  0  0  0  0  0  0  0  0  0
   -3.1841   18.2865  -35.3520 H   0  0  0  0  0  0  0  0  0  0  0  0
   -1.7585   18.4431  -32.6582 H   0  0  0  0  0  0  0  0  0  0  0  0
   -1.0441   18.1733  -34.2927 H   0  0  0  0  0  0  0  0  0  0  0  0
  1  2  1  0
  2  3  2  0
  2  4  1  0
  4  5  1  0
  5  6  1  0
  6  7  1  0
  7  8  1  0
  8  9  2  0
  8 10  1  0
 10 11  2  0
 11 12  1  0
 12 13  1  0
 12 14  1  0
 14 15  2  0
 15 16  1  0
  7 17  1  0
 17 18  1  0
 18  4  1  0
 15 10  1  0
  1 19  1  0
  1 20  1  0
  1 21  1  0
  5 22  1  0
  5 23  1  0
  6 24  1  0
  6 25  1  0
 11 26  1  0
 13 27  1  0
 13 28  1  0
 13 29  1  0
 14 30  1  0
 17 31  1  0
 17 32  1  0
 18 33  1  0
 18 34  1  0
M  CHG  1  11   1
M  END
>  <UniqueID>  (6) 
6

>  <SMILES>  (6) 
CC(=O)N1CCN(C(=O)c2[nH+]n(C)cc2Cl)CC1

>  <Energy>  (6) 
66.72970364618581

>  <Genealogy>  (6) 
CC(=O)N1CCN(C(=O)c2[nH+]n(C)cc2Cl)CC1 (protonated)
CC(=O)N1CCN(C(=O)c2[nH+]n(C)cc2Cl)CC1 (3D coordinates assigned)
CC(=O)N1CCN(C(=O)c2[nH+]n(C)cc2Cl)CC1 (nonaromatic ring conformer: 66.72970364618581 kcal/mol)

>  <smiles>  (6) 
CC(=O)N1CCN(C(=O)c2nn(C)cc2Cl)CC1

>  <score_type>  (6) 
oracle

>  <origin>  (6) 
adg

>  <m_score__min__energy>  (6) 
-6.2599999999999998

>  <m_primary>  (6) 
energy

$$$$
6:0
     RDKit          3D

 40 41  0  0  0  0  0  0  0  0999 V2000
   -3.7720   24.5270  -27.2650 C   0  0  0  0  0  0  0  0  0  0  0  0
   -4.0800   23.9920  -28.4500 C   0  0  0  0  0  0  0  0  0  0  0  0
   -3.2500   24.2640  -29.6730 C   0  0  0  0  0  0  0  0  0  0  0  0
   -3.8460   25.3290  -30.4730 N   0  0  0  0  0  0  0  0  0  0  0  0
   -5.2420   25.6420  -30.4540 C   0  0  0  0  0  0  0  0  0  0  0  0
   -5.6340   26.8010  -30.1460 O   0  0  0  0  0  0  0  0  0  0  0  0
   -6.2370   24.6030  -30.8490 C   0  0  0  0  0  0  0  0  0  0  0  0
   -5.4740   23.4550  -32.0390 S   0  0  0  0  0  0  0  0  0  0  0  0
   -6.7810   22.2380  -31.8670 C   0  0  0  0  0  0  0  0  0  0  0  0
   -8.0820   22.5630  -31.7550 N   0  0  0  0  0  0  0  0  0  0  0  0
   -8.7550   21.4260  -31.6480 N   0  0  0  0  0  0  0  0  0  0  0  0
   -7.8520   20.4260  -31.6860 C   0  0  0  0  0  0  0  0  0  0  0  0
   -8.2220   18.9710  -31.6380 C   0  0  0  0  0  0  0  0  0  0  0  0
   -8.0180   18.3430  -32.9430 N   0  0  0  0  0  0  0  0  0  0  0  0
   -6.7590   17.8080  -33.3980 C   0  0  0  0  0  0  0  0  0  0  0  0
   -6.1680   16.7490  -32.6880 C   0  0  0  0  0  0  0  0  0  0  0  0
   -4.9480   16.2090  -33.1030 C   0  0  0  0  0  0  0  0  0  0  0  0
   -4.3020   16.7190  -34.2320 C   0  0  0  0  0  0  0  0  0  0  0  0
   -2.6370   15.9770  -34.8000 Br  0  0  0  0  0  0  0  0  0  0  0  0
   -4.8800   17.7720  -34.9470 C   0  0  0  0  0  0  0  0  0  0  0  0
   -6.1010   18.3160  -34.5360 C   0  0  0  0  0  0  0  0  0  0  0  0
   -6.6010   20.9030  -31.8440 N   0  0  0  0  0  0  0  0  0  0  0  0
   -5.3500   20.1490  -31.9170 C   0  0  0  0  0  0  0  0  0  0  0  0
   -4.3964   24.3117  -26.3853 H   0  0  0  0  0  0  0  0  0  0  0  0
   -2.8941   25.1828  -27.1691 H   0  0  0  0  0  0  0  0  0  0  0  0
   -4.9606   23.3380  -28.5322 H   0  0  0  0  0  0  0  0  0  0  0  0
   -2.2390   24.5673  -29.3634 H   0  0  0  0  0  0  0  0  0  0  0  0
   -3.2038   23.3482  -30.2806 H   0  0  0  0  0  0  0  0  0  0  0  0
   -6.5595   24.0460  -29.9570 H   0  0  0  0  0  0  0  0  0  0  0  0
   -7.1088   25.0872  -31.3133 H   0  0  0  0  0  0  0  0  0  0  0  0
   -7.5945   18.4632  -30.8907 H   0  0  0  0  0  0  0  0  0  0  0  0
   -9.2843   18.8848  -31.3659 H   0  0  0  0  0  0  0  0  0  0  0  0
   -8.8440   18.2950  -33.5840 H   0  0  0  0  0  0  0  0  0  0  0  0
   -6.6701   16.3418  -31.7980 H   0  0  0  0  0  0  0  0  0  0  0  0
   -4.4949   15.3801  -32.5393 H   0  0  0  0  0  0  0  0  0  0  0  0
   -4.3725   18.1742  -35.8362 H   0  0  0  0  0  0  0  0  0  0  0  0
   -6.5500   19.1444  -35.1037 H   0  0  0  0  0  0  0  0  0  0  0  0
   -4.9920   19.9332  -30.8995 H   0  0  0  0  0  0  0  0  0  0  0  0
   -5.5221   19.2041  -32.4532 H   0  0  0  0  0  0  0  0  0  0  0  0
   -4.5949   20.7425  -32.4532 H   0  0  0  0  0  0  0  0  0  0  0  0
  1  2  2  0
  2  3  1  0
  3  4  1  0
  4  5  1  0
  5  6  2  0
  5  7  1  0
  7  8  1  0
  8  9  1  0
  9 10  2  0
 10 11  1  0
 11 12  2  0
 12 13  1  0
 13 14  1  0
 14 15  1  0
 15 16  2  0
 16 17  1  0
 17 18  2  0
 18 19  1  0
 18 20  1  0
 20 21  2  0
 12 22  1  0
 22 23  1  0
 22  9  1  0
 21 15  1  0
  1 24  1  0
  1 25  1  0
  2 26  1  0
  3 27  1  0
  3 28  1  0
  7 29  1  0
  7 30  1  0
 13 31  1  0
 13 32  1  0
 14 33  1  0
 16 34  1  0
 17 35  1  0
 20 36  1  0
 21 37  1  0
 23 38  1  0
 23 39  1  0
 23 40  1  0
M  CHG  1   4  -1
M  END
>  <UniqueID>  (7) 
7

>  <SMILES>  (7) 
C=CC[N-]C(=O)CSc1nnc(CNc2ccc(Br)cc2)n1C

>  <Energy>  (7) 
62.69640717380055

>  <Genealogy>  (7) 
C=CC[N-]C(=O)CSc1nnc(CNc2ccc(Br)cc2)n1C (protonated)
C=CC[N-]C(=O)CSc1nnc(CNc2ccc(Br)cc2)n1C (3D coordinates assigned)
C=CC[N-]C(=O)CSc1nnc(CNc2ccc(Br)cc2)n1C (optimized conformer: 62.69640717380055 kcal/mol)

>  <smiles>  (7) 
C=CCNC(=O)CSc1nnc(CNc2ccc(Br)cc2)n1C

>  <score_type>  (7) 
oracle

>  <origin>  (7) 
adg

>  <m_score__min__energy>  (7) 
-9.5099999999999998

>  <m_primary>  (7) 
energy

$$$$
7:0
     RDKit          3D

 39 42  0  0  0  0  0  0  0  0999 V2000
   -5.5690   16.4960  -34.2010 C   0  0  0  0  0  0  0  0  0  0  0  0
   -4.3590   17.8550  -34.2400 S   0  0  0  0  0  0  0  0  0  0  0  0
   -5.4720   19.0260  -33.4630 C   0  0  0  0  0  0  0  0  0  0  0  0
   -6.8640   18.7810  -33.4620 C   0  0  0  0  0  0  0  0  0  0  0  0
   -7.7530   19.6930  -32.8630 C   0  0  0  0  0  0  0  0  0  0  0  0
   -7.2190   20.8380  -32.2650 C   0  0  0  0  0  0  0  0  0  0  0  0
   -5.8580   21.0750  -32.2770 C   0  0  0  0  0  0  0  0  0  0  0  0
   -4.9560   20.1930  -32.8680 C   0  0  0  0  0  0  0  0  0  0  0  0
   -5.6700   22.2870  -31.6540 C   0  0  0  0  0  0  0  0  0  0  0  0
   -4.5140   23.0210  -31.4020 C   0  0  0  0  0  0  0  0  0  0  0  0
   -4.6510   24.2760  -30.7690 C   0  0  0  0  0  0  0  0  0  0  0  0
   -3.5080   25.0840  -30.4550 N   0  0  0  0  0  0  0  0  0  0  0  0
   -2.6310   24.9230  -29.3330 C   0  0  0  0  0  0  0  0  0  0  0  0
   -1.5730   25.6080  -29.2940 O   0  0  0  0  0  0  0  0  0  0  0  0
   -2.9160   23.8980  -28.2620 C   0  0  0  0  0  0  0  0  0  0  0  0
   -4.1190   24.2250  -27.3890 C   0  0  0  0  0  0  0  0  0  0  0  0
   -2.7180   24.3320  -26.8140 C   0  0  0  0  0  0  0  0  0  0  0  0
   -5.9320   24.7280  -30.3760 C   0  0  0  0  0  0  0  0  0  0  0  0
   -7.0830   23.9650  -30.6440 C   0  0  0  0  0  0  0  0  0  0  0  0
   -6.9230   22.7360  -31.2880 C   0  0  0  0  0  0  0  0  0  0  0  0
   -7.8830   21.8450  -31.6430 N   0  0  0  0  0  0  0  0  0  0  0  0
   -9.3320   21.9950  -31.4950 C   0  0  0  0  0  0  0  0  0  0  0  0
   -5.7980   16.2388  -33.1563 H   0  0  0  0  0  0  0  0  0  0  0  0
   -6.4910   16.8112  -34.7116 H   0  0  0  0  0  0  0  0  0  0  0  0
   -5.1494   15.6167  -34.7116 H   0  0  0  0  0  0  0  0  0  0  0  0
   -7.2565   17.8683  -33.9342 H   0  0  0  0  0  0  0  0  0  0  0  0
   -8.8376   19.5098  -32.8654 H   0  0  0  0  0  0  0  0  0  0  0  0
   -3.8760   20.4016  -32.8697 H   0  0  0  0  0  0  0  0  0  0  0  0
   -3.5242   22.6351  -31.6873 H   0  0  0  0  0  0  0  0  0  0  0  0
   -2.5719   23.0383  -28.8557 H   0  0  0  0  0  0  0  0  0  0  0  0
   -4.7054   25.1358  -27.5804 H   0  0  0  0  0  0  0  0  0  0  0  0
   -5.0378   23.6928  -27.1018 H   0  0  0  0  0  0  0  0  0  0  0  0
   -2.2896   25.3200  -26.5897 H   0  0  0  0  0  0  0  0  0  0  0  0
   -2.2021   23.9096  -25.9391 H   0  0  0  0  0  0  0  0  0  0  0  0
   -6.0299   25.6907  -29.8529 H   0  0  0  0  0  0  0  0  0  0  0  0
   -8.0809   24.3261  -30.3545 H   0  0  0  0  0  0  0  0  0  0  0  0
   -9.5906   22.0218  -30.4262 H   0  0  0  0  0  0  0  0  0  0  0  0
   -9.6545   22.9313  -31.9738 H   0  0  0  0  0  0  0  0  0  0  0  0
   -9.8395   21.1446  -31.9738 H   0  0  0  0  0  0  0  0  0  0  0  0
  1  2  1  0
  2  3  1  0
  3  4  2  0
  4  5  1  0
  5  6  2  0
  6  7  1  0
  7  8  2  0
  7  9  1  0
  9 10  2  0
 10 11  1  0
 11 12  1  0
 12 13  1  0
 13 14  2  0
 13 15  1  0
 15 16  1  0
 16 17  1  0
 11 18  2  0
 18 19  1  0
 19 20  2  0
 20 21  1  0
 21 22  1  0
  8  3  1  0
 20  9  1  0
 21  6  1  0
 17 15  1  0
  1 23  1  0
  1 24  1  0
  1 25  1  0
  4 26  1  0
  5 27  1  0
  8 28  1  0
 10 29  1  0
 15 30  1  0
 16 31  1  0
 16 32  1  0
 17 33  1  0
 17 34  1  0
 18 35  1  0
 19 36  1  0
 22 37  1  0
 22 38  1  0
 22 39  1  0
M  CHG  1  12  -1
M  END
>  <UniqueID>  (8) 
8

>  <SMILES>  (8) 
CSc1ccc2c(c1)c1cc([N-]C(=O)C3CC3)ccc1n2C

>  <Energy>  (8) 
347.81191357983994

>  <Genealogy>  (8) 
CSc1ccc2c(c1)c1cc([N-]C(=O)C3CC3)ccc1n2C (protonated)
CSc1ccc2c(c1)c1cc([N-]C(=O)C3CC3)ccc1n2C (3D coordinates assigned)
CSc1ccc2c(c1)c1cc([N-]C(=O)C3CC3)ccc1n2C (nonaromatic ring conformer: 347.81191357983994 kcal/mol)

>  <smiles>  (8) 
CSc1ccc2c(c1)c1cc(NC(=O)C3CC3)ccc1n2C

>  <score_type>  (8) 
oracle

>  <origin>  (8) 
adg

>  <m_score__min__energy>  (8) 
-11.029999999999999

>  <m_primary>  (8) 
energy

$$$$
8:0
     RDKit          3D

 26 26  0  0  0  0  0  0  0  0999 V2000
   -9.1130   21.5530  -31.1600 C   0  0  0  0  0  0  0  0  0  0  0  0
   -8.4940   22.7000  -31.9550 C   0  0  0  0  0  0  0  0  0  0  0  0
   -7.0200   22.7090  -31.7990 N   0  0  0  0  0  0  0  0  0  0  0  0
   -6.4590   21.4070  -32.2350 C   0  0  0  0  0  0  0  0  0  0  0  0
   -5.0110   21.5290  -32.7100 C   0  0  0  0  0  0  0  0  0  0  0  0
   -6.6490   23.0280  -30.3960 C   0  0  0  0  0  0  0  0  0  0  0  0
   -5.4780   23.9630  -30.3440 C   0  0  0  0  0  0  0  0  0  0  0  0
   -5.2800   24.9790  -31.2160 N   0  0  0  0  0  0  0  0  0  0  0  0
   -4.1400   25.5190  -30.8830 O   0  0  0  0  0  0  0  0  0  0  0  0
   -3.5870   24.9230  -29.8700 N   0  0  0  0  0  0  0  0  0  0  0  0
   -2.3770   25.2670  -29.3150 O   0  0  0  0  0  0  0  0  0  0  0  0
   -4.3910   23.9220  -29.4920 C   0  0  0  0  0  0  0  0  0  0  0  0
   -4.1240   22.9970  -28.4230 C   0  0  0  0  0  0  0  0  0  0  0  0
   -3.9050   22.2500  -27.5670 N   0  0  0  0  0  0  0  0  0  0  0  0
   -9.0052   21.7528  -30.0837 H   0  0  0  0  0  0  0  0  0  0  0  0
  -10.1803   21.4664  -31.4118 H   0  0  0  0  0  0  0  0  0  0  0  0
   -8.5995   20.6133  -31.4118 H   0  0  0  0  0  0  0  0  0  0  0  0
   -8.7439   22.5780  -33.0193 H   0  0  0  0  0  0  0  0  0  0  0  0
   -8.8959   23.6511  -31.5756 H   0  0  0  0  0  0  0  0  0  0  0  0
   -6.4958   20.7049  -31.3890 H   0  0  0  0  0  0  0  0  0  0  0  0
   -7.0618   21.0475  -33.0820 H   0  0  0  0  0  0  0  0  0  0  0  0
   -4.3426   21.5853  -31.8382 H   0  0  0  0  0  0  0  0  0  0  0  0
   -4.7488   20.6498  -33.3168 H   0  0  0  0  0  0  0  0  0  0  0  0
   -4.8997   22.4397  -33.3168 H   0  0  0  0  0  0  0  0  0  0  0  0
   -7.5077   23.5002  -29.8963 H   0  0  0  0  0  0  0  0  0  0  0  0
   -6.3708   22.0928  -29.8880 H   0  0  0  0  0  0  0  0  0  0  0  0
  1  2  1  0
  2  3  1  0
  3  4  1  0
  4  5  1  0
  3  6  1  0
  6  7  1  0
  7  8  2  0
  8  9  1  0
  9 10  1  0
 10 11  1  0
 10 12  2  0
 12 13  1  0
 13 14  3  0
 12  7  1  0
  1 15  1  0
  1 16  1  0
  1 17  1  0
  2 18  1  0
  2 19  1  0
  4 20  1  0
  4 21  1  0
  5 22  1  0
  5 23  1  0
  5 24  1  0
  6 25  1  0
  6 26  1  0
M  CHG  2  10   1  11  -1
M  END
>  <UniqueID>  (9) 
9

>  <SMILES>  (9) 
CCN(CC)Cc1no[n+]([O-])c1C#N

>  <Energy>  (9) 
60.03828270688788

>  <Genealogy>  (9) 
CCN(CC)Cc1no[n+]([O-])c1C#N (3D coordinates assigned)
CCN(CC)Cc1no[n+]([O-])c1C#N (optimized conformer: 60.03828270688788 kcal/mol)

>  <smiles>  (9) 
CCN(CC)Cc1no[n+]([O-])c1C#N

>  <score_type>  (9) 
oracle

>  <origin>  (9) 
adg

>  <m_score__min__energy>  (9) 
-6.8099999999999996

>  <m_primary>  (9) 
energy

$$$$
9:0
     RDKit          3D

 17 16  0  0  0  0  0  0  0  0999 V2000
   -5.1300   20.5400  -32.9870 C   0  0  0  0  0  0  0  0  0  0  0  0
   -6.5090   19.6190  -33.6310 S   0  0  0  0  0  0  0  0  0  0  0  0
   -6.1170   18.9260  -35.1100 O   0  0  0  0  0  0  0  0  0  0  0  0
   -7.1070   18.4010  -32.4660 C   0  0  0  0  0  0  0  0  0  0  0  0
   -8.4760   18.7640  -31.8770 C   0  0  0  0  0  0  0  0  0  0  0  0
   -9.1620   19.9020  -32.6350 C   0  0  0  0  0  0  0  0  0  0  0  0
   -9.1080   21.5270  -31.5830 Br  0  0  0  0  0  0  0  0  0  0  0  0
   -5.1580   20.5213  -31.8875 H   0  0  0  0  0  0  0  0  0  0  0  0
   -4.1908   20.0872  -33.3376 H   0  0  0  0  0  0  0  0  0  0  0  0
   -5.1885   21.5810  -33.3376 H   0  0  0  0  0  0  0  0  0  0  0  0
   -6.8590   19.1870  -35.7110 H   0  0  0  0  0  0  0  0  0  0  0  0
   -7.1917   17.4331  -32.9818 H   0  0  0  0  0  0  0  0  0  0  0  0
   -6.3891   18.3582  -31.6337 H   0  0  0  0  0  0  0  0  0  0  0  0
   -9.1228   17.8751  -31.9160 H   0  0  0  0  0  0  0  0  0  0  0  0
   -8.3135   19.1038  -30.8435 H   0  0  0  0  0  0  0  0  0  0  0  0
   -8.6420   20.0689  -33.5898 H   0  0  0  0  0  0  0  0  0  0  0  0
  -10.2108   19.6291  -32.8236 H   0  0  0  0  0  0  0  0  0  0  0  0
  1  2  1  0
  2  3  1  6
  2  4  1  0
  4  5  1  0
  5  6  1  0
  6  7  1  0
  1  8  1  0
  1  9  1  0
  1 10  1  0
  3 11  1  0
  4 12  1  0
  4 13  1  0
  5 14  1  0
  5 15  1  0
  6 16  1  0
  6 17  1  0
M  CHG  1   2   1
M  END
>  <UniqueID>  (10) 
10

>  <SMILES>  (10) 
C[S@@+](O)CCCBr

>  <Energy>  (10) 
2.6319866737401276

>  <Genealogy>  (10) 
C[S+](O)CCCBr (protonated)
C[S@@+](O)CCCBr (chirality)
C[S@@+](O)CCCBr (3D coordinates assigned)
C[S@@+](O)CCCBr (optimized conformer: 2.6319866737401276 kcal/mol)

>  <smiles>  (10) 
C[S+]([O-])CCCBr

>  <score_type>  (10) 
oracle

>  <origin>  (10) 
adg

>  <m_score__min__energy>  (10) 
-4

>  <m_primary>  (10) 
energy

$$$$
10:0
     RDKit          3D

 50 49  0  0  0  0  0  0  0  0999 V2000
   -4.3130   21.5340  -31.8010 C   0  0  0  0  0  0  0  0  0  0  0  0
   -4.5170   21.0020  -33.2190 C   0  0  0  0  0  0  0  0  0  0  0  0
   -5.2720   19.6650  -33.2470 C   0  0  0  0  0  0  0  0  0  0  0  0
   -5.5280   19.1010  -31.8360 C   0  0  0  0  0  0  0  0  0  0  0  0
   -6.3080   17.7770  -31.8650 C   0  0  0  0  0  0  0  0  0  0  0  0
   -7.5900   17.8680  -32.7090 C   0  0  0  0  0  0  0  0  0  0  0  0
   -8.7530   18.4290  -31.8780 C   0  0  0  0  0  0  0  0  0  0  0  0
   -9.4460   19.6310  -32.5470 C   0  0  0  0  0  0  0  0  0  0  0  0
   -9.2040   20.9950  -31.8670 C   0  0  0  0  0  0  0  0  0  0  0  0
   -7.7680   21.5370  -31.9780 C   0  0  0  0  0  0  0  0  0  0  0  0
   -7.7080   23.0710  -32.0530 C   0  0  0  0  0  0  0  0  0  0  0  0
   -6.9730   23.6920  -30.8530 C   0  0  0  0  0  0  0  0  0  0  0  0
   -6.1110   24.9230  -31.2220 C   0  0  0  0  0  0  0  0  0  0  0  0
   -5.1590   25.3310  -30.0930 C   0  0  0  0  0  0  0  0  0  0  0  0
   -3.8140   25.0400  -30.4560 O   0  0  0  0  0  0  0  0  0  0  0  0
   -2.8690   24.5540  -29.5500 C   0  0  0  0  0  0  0  0  0  0  0  0
   -3.0750   23.2170  -28.9220 C   0  0  0  0  0  0  0  0  0  0  0  0
   -1.8580   25.2400  -29.2410 O   0  0  0  0  0  0  0  0  0  0  0  0
   -4.6086   20.7631  -31.0741 H   0  0  0  0  0  0  0  0  0  0  0  0
   -3.2532   21.7893  -31.6541 H   0  0  0  0  0  0  0  0  0  0  0  0
   -4.9304   22.4325  -31.6541 H   0  0  0  0  0  0  0  0  0  0  0  0
   -5.0920   21.7430  -33.7936 H   0  0  0  0  0  0  0  0  0  0  0  0
   -3.5222   20.8313  -33.6563 H   0  0  0  0  0  0  0  0  0  0  0  0
   -6.2400   19.8171  -33.7469 H   0  0  0  0  0  0  0  0  0  0  0  0
   -4.6464   18.9397  -33.7879 H   0  0  0  0  0  0  0  0  0  0  0  0
   -4.5595   18.9294  -31.3435 H   0  0  0  0  0  0  0  0  0  0  0  0
   -6.1358   19.8355  -31.2872 H   0  0  0  0  0  0  0  0  0  0  0  0
   -5.6608   16.9954  -32.2895 H   0  0  0  0  0  0  0  0  0  0  0  0
   -6.6035   17.5402  -30.8322 H   0  0  0  0  0  0  0  0  0  0  0  0
   -7.4092   18.5299  -33.5687 H   0  0  0  0  0  0  0  0  0  0  0  0
   -7.8578   16.8578  -33.0523 H   0  0  0  0  0  0  0  0  0  0  0  0
   -9.4968   17.6317  -31.7330 H   0  0  0  0  0  0  0  0  0  0  0  0
   -8.3355   18.7798  -30.9227 H   0  0  0  0  0  0  0  0  0  0  0  0
   -9.0831   19.6989  -33.5832 H   0  0  0  0  0  0  0  0  0  0  0  0
  -10.5266   19.4404  -32.4697 H   0  0  0  0  0  0  0  0  0  0  0  0
   -9.8814   21.7295  -32.3270 H   0  0  0  0  0  0  0  0  0  0  0  0
   -9.3889   20.8382  -30.7941 H   0  0  0  0  0  0  0  0  0  0  0  0
   -7.1998   21.2069  -31.0959 H   0  0  0  0  0  0  0  0  0  0  0  0
   -7.3404   21.1454  -32.9128 H   0  0  0  0  0  0  0  0  0  0  0  0
   -7.1826   23.3586  -32.9756 H   0  0  0  0  0  0  0  0  0  0  0  0
   -8.7419   23.4465  -32.0420 H   0  0  0  0  0  0  0  0  0  0  0  0
   -7.7219   24.0025  -30.1096 H   0  0  0  0  0  0  0  0  0  0  0  0
   -6.2881   22.9247  -30.4628 H   0  0  0  0  0  0  0  0  0  0  0  0
   -5.5163   24.6824  -32.1155 H   0  0  0  0  0  0  0  0  0  0  0  0
   -6.7930   25.7662  -31.4058 H   0  0  0  0  0  0  0  0  0  0  0  0
   -5.2594   26.4102  -29.9050 H   0  0  0  0  0  0  0  0  0  0  0  0
   -5.4161   24.7664  -29.1846 H   0  0  0  0  0  0  0  0  0  0  0  0
   -3.0591   23.3199  -27.8269 H   0  0  0  0  0  0  0  0  0  0  0  0
   -4.0466   22.8093  -29.2379 H   0  0  0  0  0  0  0  0  0  0  0  0
   -2.2712   22.5357  -29.2379 H   0  0  0  0  0  0  0  0  0  0  0  0
  1  2  1  0
  2  3  1  0
  3  4  1  0
  4  5  1  0
  5  6  1  0
  6  7  1  0
  7  8  1  0
  8  9  1  0
  9 10  1  0
 10 11  1  0
 11 12  1  0
 12 13  1  0
 13 14  1  0
 14 15  1  0
 15 16  1  0
 16 17  1  0
 16 18  2  0
  1 19  1  0
  1 20  1  0
  1 21  1  0
  2 22  1  0
  2 23  1  0
  3 24  1  0
  3 25  1  0
  4 26  1  0
  4 27  1  0
  5 28  1  0
  5 29  1  0
  6 30  1  0
  6 31  1  0
  7 32  1  0
  7 33  1  0
  8 34  1  0
  8 35  1  0
  9 36  1  0
  9 37  1  0
 10 38  1  0
 10 39  1  0
 11 40  1  0
 11 41  1  0
 12 42  1  0
 12 43  1  0
 13 44  1  0
 13 45  1  0
 14 46  1  0
 14 47  1  0
 17 48  1  0
 17 49  1  0
 17 50  1  0
M  END
>  <UniqueID>  (11) 
11

>  <SMILES>  (11) 
CCCCCCCCCCCCCCOC(C)=O

>  <Energy>  (11) 
20.254562513703206

>  <Genealogy>  (11) 
CCCCCCCCCCCCCCOC(C)=O (3D coordinates assigned)
CCCCCCCCCCCCCCOC(C)=O (optimized conformer: 20.254562513703206 kcal/mol)

>  <smiles>  (11) 
CCCCCCCCCCCCCCOC(C)=O

>  <score_type>  (11) 
oracle

>  <origin>  (11) 
adg

>  <m_score__min__energy>  (11) 
-6.9299999999999997

>  <m_primary>  (11) 
energy

$$$$
11:0
     RDKit          3D

 47 48  0  0  0  0  0  0  0  0999 V2000
   -9.7000   21.6980  -31.9530 C   0  0  0  0  0  0  0  0  0  0  0  0
   -8.3190   21.1880  -31.8500 N   0  0  0  0  0  0  0  0  0  0  0  0
   -7.5570   21.9490  -30.8360 C   0  0  0  0  0  0  0  0  0  0  0  0
   -7.4780   23.4270  -31.2390 C   0  0  0  0  0  0  0  0  0  0  0  0
   -6.3260   23.7030  -32.2160 C   0  0  0  0  0  0  0  0  0  0  0  0
   -5.0300   23.8850  -31.5260 N   0  0  0  0  0  0  0  0  0  0  0  0
   -4.2960   22.6120  -31.5280 C   0  0  0  0  0  0  0  0  0  0  0  0
   -5.1950   24.3780  -30.1340 C   0  0  0  0  0  0  0  0  0  0  0  0
   -4.0590   23.9040  -29.2660 C   0  0  0  0  0  0  0  0  0  0  0  0
   -2.8080   24.5460  -29.3180 C   0  0  0  0  0  0  0  0  0  0  0  0
   -1.7720   24.1400  -28.4710 C   0  0  0  0  0  0  0  0  0  0  0  0
   -1.9740   23.0870  -27.5700 C   0  0  0  0  0  0  0  0  0  0  0  0
   -0.5530   22.5150  -26.4280 Br  0  0  0  0  0  0  0  0  0  0  0  0
   -3.2210   22.4530  -27.5010 C   0  0  0  0  0  0  0  0  0  0  0  0
   -4.2630   22.8690  -28.3370 C   0  0  0  0  0  0  0  0  0  0  0  0
   -8.3240   19.7400  -31.5490 C   0  0  0  0  0  0  0  0  0  0  0  0
   -7.4120   19.0200  -32.4990 C   0  0  0  0  0  0  0  0  0  0  0  0
   -6.6620   19.7230  -33.4520 C   0  0  0  0  0  0  0  0  0  0  0  0
   -5.7980   19.0270  -34.2990 C   0  0  0  0  0  0  0  0  0  0  0  0
   -5.6820   17.6740  -34.1940 N   0  0  0  0  0  0  0  0  0  0  0  0
   -6.4000   16.9690  -33.2770 C   0  0  0  0  0  0  0  0  0  0  0  0
   -7.2760   17.6280  -32.4130 C   0  0  0  0  0  0  0  0  0  0  0  0
  -10.1110   21.8498  -30.9440 H   0  0  0  0  0  0  0  0  0  0  0  0
   -9.6980   22.6547  -32.4959 H   0  0  0  0  0  0  0  0  0  0  0  0
  -10.3203   20.9696  -32.4959 H   0  0  0  0  0  0  0  0  0  0  0  0
   -8.0608   21.8635  -29.8619 H   0  0  0  0  0  0  0  0  0  0  0  0
   -6.5387   21.5388  -30.7667 H   0  0  0  0  0  0  0  0  0  0  0  0
   -8.4253   23.7141  -31.7187 H   0  0  0  0  0  0  0  0  0  0  0  0
   -7.2951   24.0153  -30.3277 H   0  0  0  0  0  0  0  0  0  0  0  0
   -6.2403   22.8535  -32.9095 H   0  0  0  0  0  0  0  0  0  0  0  0
   -6.5556   24.6378  -32.7484 H   0  0  0  0  0  0  0  0  0  0  0  0
   -4.1121   22.2931  -30.4914 H   0  0  0  0  0  0  0  0  0  0  0  0
   -4.8913   21.8463  -32.0470 H   0  0  0  0  0  0  0  0  0  0  0  0
   -3.3351   22.7436  -32.0470 H   0  0  0  0  0  0  0  0  0  0  0  0
   -5.2113   25.4779  -30.1395 H   0  0  0  0  0  0  0  0  0  0  0  0
   -6.1392   23.9857  -29.7282 H   0  0  0  0  0  0  0  0  0  0  0  0
   -2.6443   25.3704  -30.0276 H   0  0  0  0  0  0  0  0  0  0  0  0
   -0.7973   24.6483  -28.5125 H   0  0  0  0  0  0  0  0  0  0  0  0
   -3.3810   21.6288  -26.7903 H   0  0  0  0  0  0  0  0  0  0  0  0
   -5.2475   22.3833  -28.2668 H   0  0  0  0  0  0  0  0  0  0  0  0
   -7.9767   19.5802  -30.5176 H   0  0  0  0  0  0  0  0  0  0  0  0
   -9.3462   19.3494  -31.6606 H   0  0  0  0  0  0  0  0  0  0  0  0
   -6.7538   20.8163  -33.5319 H   0  0  0  0  0  0  0  0  0  0  0  0
   -5.2100   19.5719  -35.0522 H   0  0  0  0  0  0  0  0  0  0  0  0
   -5.0290   17.1680  -34.8320 H   0  0  0  0  0  0  0  0  0  0  0  0
   -6.2894   15.8762  -33.2168 H   0  0  0  0  0  0  0  0  0  0  0  0
   -7.8550   17.0592  -31.6705 H   0  0  0  0  0  0  0  0  0  0  0  0
  1  2  1  0
  2  3  1  0
  3  4  1  0
  4  5  1  0
  5  6  1  0
  6  7  1  0
  6  8  1  0
  8  9  1  0
  9 10  2  0
 10 11  1  0
 11 12  2  0
 12 13  1  0
 12 14  1  0
 14 15  2  0
  2 16  1  0
 16 17  1  0
 17 18  2  0
 18 19  1  0
 19 20  2  0
 20 21  1  0
 21 22  2  0
 15  9  1  0
 22 17  1  0
  1 23  1  0
  1 24  1  0
  1 25  1  0
  3 26  1  0
  3 27  1  0
  4 28  1  0
  4 29  1  0
  5 30  1  0
  5 31  1  0
  7 32  1  0
  7 33  1  0
  7 34  1  0
  8 35  1  0
  8 36  1  0
 10 37  1  0
 11 38  1  0
 14 39  1  0
 15 40  1  0
 16 41  1  0
 16 42  1  0
 18 43  1  0
 19 44  1  0
 20 45  1  0
 21 46  1  0
 22 47  1  0
M  CHG  1  20   1
M  END
>  <UniqueID>  (12) 
12

>  <SMILES>  (12) 
CN(CCCN(C)Cc1ccc(Br)cc1)Cc1cc[nH+]cc1

>  <Energy>  (12) 
44.17888635408957

>  <Genealogy>  (12) 
CN(CCCN(C)Cc1ccc(Br)cc1)Cc1cc[nH+]cc1 (protonated)
CN(CCCN(C)Cc1ccc(Br)cc1)Cc1cc[nH+]cc1 (3D coordinates assigned)
CN(CCCN(C)Cc1ccc(Br)cc1)Cc1cc[nH+]cc1 (optimized conformer: 44.17888635408957 kcal/mol)

>  <smiles>  (12) 
CN(CCCN(C)Cc1ccc(Br)cc1)Cc1ccncc1

>  <score_type>  (12) 
oracle

>  <origin>  (12) 
adg

>  <m_score__min__energy>  (12) 
-8.3699999999999992

>  <m_primary>  (12) 
energy

$$$$
12:0
     RDKit          3D

 37 39  0  0  0  0  0  0  0  0999 V2000
   -9.3144   20.5142  -32.6612 H   0  0  0  0  0  0  0  0  0  0  0  0
   -8.2420   20.3170  -32.5160 C   0  0  0  0  0  0  0  0  0  0  0  0
   -7.3120   21.3450  -32.6990 C   0  0  0  0  0  0  0  0  0  0  0  0
   -7.6575   22.3487  -32.9873 H   0  0  0  0  0  0  0  0  0  0  0  0
   -5.9370   21.1050  -32.5170 C   0  0  0  0  0  0  0  0  0  0  0  0
   -4.9520   22.1940  -32.7050 C   0  0  0  0  0  0  0  0  0  0  0  0
   -3.9180   21.9950  -33.4000 O   0  0  0  0  0  0  0  0  0  0  0  0
   -5.1110   23.4400  -32.0090 N   0  0  0  0  0  0  0  0  0  0  0  0
   -4.6920   23.7820  -30.8210 C   0  0  0  0  0  0  0  0  0  0  0  0
   -3.3500   23.9110  -30.6450 N   0  0  0  0  0  0  0  0  0  0  0  0
   -2.8100   24.2770  -29.4580 C   0  0  0  0  0  0  0  0  0  0  0  0
   -1.4640   24.4070  -29.3270 N   0  0  0  0  0  0  0  0  0  0  0  0
   -0.8920   24.7820  -28.1480 C   0  0  0  0  0  0  0  0  0  0  0  0
    0.4950   24.9100  -28.0330 O   0  0  0  0  0  0  0  0  0  0  0  0
    1.2830   24.0480  -27.2190 C   0  0  0  0  0  0  0  0  0  0  0  0
    1.0858   24.2637  -26.1585 H   0  0  0  0  0  0  0  0  0  0  0  0
    1.0231   23.0011  -27.4348 H   0  0  0  0  0  0  0  0  0  0  0  0
    2.3489   24.2131  -27.4348 H   0  0  0  0  0  0  0  0  0  0  0  0
   -1.6990   25.0430  -27.0360 C   0  0  0  0  0  0  0  0  0  0  0  0
   -1.2444   25.3464  -26.0814 H   0  0  0  0  0  0  0  0  0  0  0  0
   -3.0870   24.9160  -27.1450 C   0  0  0  0  0  0  0  0  0  0  0  0
   -3.7302   25.1183  -26.2759 H   0  0  0  0  0  0  0  0  0  0  0  0
   -3.6550   24.5300  -28.3660 C   0  0  0  0  0  0  0  0  0  0  0  0
   -4.9990   24.3800  -28.5110 N   0  0  0  0  0  0  0  0  0  0  0  0
   -5.6100   24.5530  -27.6820 H   0  0  0  0  0  0  0  0  0  0  0  0
   -5.5490   23.9880  -29.7030 C   0  0  0  0  0  0  0  0  0  0  0  0
   -6.9260   23.7400  -29.8070 O   0  0  0  0  0  0  0  0  0  0  0  0
   -7.5240   22.4500  -29.7580 C   0  0  0  0  0  0  0  0  0  0  0  0
   -7.6631   22.1499  -28.7089 H   0  0  0  0  0  0  0  0  0  0  0  0
   -8.5005   22.4791  -30.2636 H   0  0  0  0  0  0  0  0  0  0  0  0
   -6.8708   21.7236  -30.2636 H   0  0  0  0  0  0  0  0  0  0  0  0
   -5.5160   19.8140  -32.1450 C   0  0  0  0  0  0  0  0  0  0  0  0
   -4.4453   19.6099  -31.9966 H   0  0  0  0  0  0  0  0  0  0  0  0
   -6.4500   18.7900  -31.9630 C   0  0  0  0  0  0  0  0  0  0  0  0
   -6.1118   17.7844  -31.6724 H   0  0  0  0  0  0  0  0  0  0  0  0
   -7.8110   19.0400  -32.1490 C   0  0  0  0  0  0  0  0  0  0  0  0
   -8.7150   18.0450  -31.9730 F   0  0  0  0  0  0  0  0  0  0  0  0
  1  2  1  0
  2  3  2  0
  3  4  1  0
  3  5  1  0
  5  6  1  0
  6  7  2  0
  6  8  1  0
  8  9  2  0
  9 10  1  0
 10 11  1  0
 11 12  2  0
 12 13  1  0
 13 14  1  0
 14 15  1  0
 15 16  1  0
 15 17  1  0
 15 18  1  0
 13 19  2  0
 19 20  1  0
 19 21  1  0
 21 22  1  0
 21 23  2  0
 23 24  1  0
 24 25  1  0
 24 26  2  0
 26 27  1  0
 27 28  1  0
 28 29  1  0
 28 30  1  0
 28 31  1  0
  5 32  2  0
 32 33  1  0
 32 34  1  0
 34 35  1  0
 34 36  2  0
 36 37  1  0
 36  2  1  0
 26  9  1  0
 23 11  1  0
M  CHG  2  10  -1  24   1
M  END
>  <UniqueID>  (13) 
13

>  <SMILES>  (13) 
COc1ccc2[nH+]c(OC)/c(=N\C(=O)c3ccc(F)cc3)[n-]c2n1

>  <Energy>  (13) 
53.65935771898278

>  <Genealogy>  (13) 
COc1ccc2[nH+]c(OC)c(=NC(=O)c3ccc(F)cc3)[n-]c2n1 (protonated)
COc1ccc2[nH+]c(OC)/c(=N\C(=O)c3ccc(F)cc3)[n-]c2n1 (cis-trans isomerization)
COc1ccc2[nH+]c(OC)/c(=N\C(=O)c3ccc(F)cc3)[n-]c2n1 (3D coordinates assigned)
COc1ccc2[nH+]c(OC)/c(=N\C(=O)c3ccc(F)cc3)[n-]c2n1 (optimized conformer: 53.65935771898278 kcal/mol)

>  <smiles>  (13) 
COc1ccc2nc(OC)c(=NC(=O)c3ccc(F)cc3)[nH]c2n1

>  <score_type>  (13) 
oracle

>  <origin>  (13) 
adg

>  <m_score__min__energy>  (13) 
-7.6500000000000004

>  <m_primary>  (13) 
energy

$$$$
13:0
     RDKit          3D

 54 56  0  0  0  0  0  0  0  0999 V2000
    1.7530   25.5120  -27.0690 C   0  0  0  0  0  0  0  0  0  0  0  0
    0.5740   25.1090  -27.8570 N   0  0  0  0  0  0  0  0  0  0  0  0
    0.2390   23.7080  -27.5600 C   0  0  0  0  0  0  0  0  0  0  0  0
   -0.5810   25.9790  -27.5530 C   0  0  0  0  0  0  0  0  0  0  0  0
   -1.8770   25.2640  -27.8180 C   0  0  0  0  0  0  0  0  0  0  0  0
   -2.7310   24.9190  -26.7630 C   0  0  0  0  0  0  0  0  0  0  0  0
   -3.9020   24.2090  -27.0360 C   0  0  0  0  0  0  0  0  0  0  0  0
   -4.2050   23.8420  -28.3480 C   0  0  0  0  0  0  0  0  0  0  0  0
   -3.3220   24.1890  -29.3810 C   0  0  0  0  0  0  0  0  0  0  0  0
   -3.6050   23.7890  -30.8110 C   0  0  0  0  0  0  0  0  0  0  0  0
   -5.0190   23.9870  -31.2180 N   0  0  0  0  0  0  0  0  0  0  0  0
   -5.5370   25.2460  -30.6380 C   0  0  0  0  0  0  0  0  0  0  0  0
   -5.9260   22.8440  -30.9070 C   0  0  1  0  0  0  0  0  0  0  0  0
   -7.4090   23.2990  -30.8680 C   0  0  0  0  0  0  0  0  0  0  0  0
   -8.2340   22.2500  -31.6260 C   0  0  0  0  0  0  0  0  0  0  0  0
   -7.2790   21.5130  -32.4270 N   0  0  0  0  0  0  0  0  0  0  0  0
   -7.6390   20.4200  -33.3300 C   0  0  0  0  0  0  0  0  0  0  0  0
   -6.9480   19.1480  -32.9210 C   0  0  0  0  0  0  0  0  0  0  0  0
   -7.1500   18.6080  -31.6400 C   0  0  0  0  0  0  0  0  0  0  0  0
   -6.5140   17.4190  -31.2700 C   0  0  0  0  0  0  0  0  0  0  0  0
   -5.6890   16.7520  -32.1790 C   0  0  0  0  0  0  0  0  0  0  0  0
   -5.4930   17.2760  -33.4610 C   0  0  0  0  0  0  0  0  0  0  0  0
   -4.4610   16.4360  -34.6030 Cl  0  0  0  0  0  0  0  0  0  0  0  0
   -6.1200   18.4710  -33.8310 C   0  0  0  0  0  0  0  0  0  0  0  0
   -5.9670   21.7890  -31.9700 C   0  0  0  0  0  0  0  0  0  0  0  0
   -4.9780   21.0940  -32.3220 O   0  0  0  0  0  0  0  0  0  0  0  0
   -2.1890   24.8810  -29.0870 N   0  0  0  0  0  0  0  0  0  0  0  0
    1.5217   25.4329  -25.9965 H   0  0  0  0  0  0  0  0  0  0  0  0
    2.5990   24.8520  -27.3113 H   0  0  0  0  0  0  0  0  0  0  0  0
    2.0180   26.5517  -27.3113 H   0  0  0  0  0  0  0  0  0  0  0  0
    0.2042   23.5624  -26.4702 H   0  0  0  0  0  0  0  0  0  0  0  0
   -0.7424   23.4658  -27.9938 H   0  0  0  0  0  0  0  0  0  0  0  0
    1.0047   23.0480  -27.9938 H   0  0  0  0  0  0  0  0  0  0  0  0
   -0.5418   26.2722  -26.4935 H   0  0  0  0  0  0  0  0  0  0  0  0
   -0.5314   26.8672  -28.2001 H   0  0  0  0  0  0  0  0  0  0  0  0
   -2.4819   25.2043  -25.7302 H   0  0  0  0  0  0  0  0  0  0  0  0
   -4.5853   23.9391  -26.2174 H   0  0  0  0  0  0  0  0  0  0  0  0
   -5.1277   23.2858  -28.5698 H   0  0  0  0  0  0  0  0  0  0  0  0
   -2.9656   24.3914  -31.4730 H   0  0  0  0  0  0  0  0  0  0  0  0
   -3.3956   22.7121  -30.8908 H   0  0  0  0  0  0  0  0  0  0  0  0
   -5.5107   25.1820  -29.5402 H   0  0  0  0  0  0  0  0  0  0  0  0
   -4.9121   26.0876  -30.9713 H   0  0  0  0  0  0  0  0  0  0  0  0
   -6.5733   25.4042  -30.9713 H   0  0  0  0  0  0  0  0  0  0  0  0
   -5.5260   22.4652  -29.9549 H   0  0  0  0  0  0  0  0  0  0  0  0
   -7.7538   23.3663  -29.8256 H   0  0  0  0  0  0  0  0  0  0  0  0
   -7.5223   24.2899  -31.3319 H   0  0  0  0  0  0  0  0  0  0  0  0
   -8.7436   21.5779  -30.9199 H   0  0  0  0  0  0  0  0  0  0  0  0
   -9.0149   22.7145  -32.2460 H   0  0  0  0  0  0  0  0  0  0  0  0
   -8.7278   20.2670  -33.2968 H   0  0  0  0  0  0  0  0  0  0  0  0
   -7.3234   20.6835  -34.3503 H   0  0  0  0  0  0  0  0  0  0  0  0
   -7.8103   19.1220  -30.9260 H   0  0  0  0  0  0  0  0  0  0  0  0
   -6.6636   17.0078  -30.2608 H   0  0  0  0  0  0  0  0  0  0  0  0
   -5.1934   15.8145  -31.8865 H   0  0  0  0  0  0  0  0  0  0  0  0
   -5.9636   18.8820  -34.8393 H   0  0  0  0  0  0  0  0  0  0  0  0
  1  2  1  0
  2  3  1  0
  2  4  1  0
  4  5  1  0
  5  6  2  0
  6  7  1  0
  7  8  2  0
  8  9  1  0
  9 10  1  0
 10 11  1  0
 11 12  1  0
 11 13  1  0
 13 14  1  0
 14 15  1  0
 15 16  1  0
 16 17  1  0
 17 18  1  0
 18 19  2  0
 19 20  1  0
 20 21  2  0
 21 22  1  0
 22 23  1  0
 22 24  2  0
 16 25  1  0
 25 26  2  0
  9 27  2  0
 27  5  1  0
 25 13  1  0
 24 18  1  0
  1 28  1  0
  1 29  1  0
  1 30  1  0
  3 31  1  0
  3 32  1  0
  3 33  1  0
  4 34  1  0
  4 35  1  0
  6 36  1  0
  7 37  1  0
  8 38  1  0
 10 39  1  0
 10 40  1  0
 12 41  1  0
 12 42  1  0
 12 43  1  0
 13 44  1  1
 14 45  1  0
 14 46  1  0
 15 47  1  0
 15 48  1  0
 17 49  1  0
 17 50  1  0
 19 51  1  0
 20 52  1  0
 21 53  1  0
 24 54  1  0
M  END
>  <UniqueID>  (14) 
14

>  <SMILES>  (14) 
CN(C)Cc1cccc(CN(C)[C@H]2CCN(Cc3cccc(Cl)c3)C2=O)n1

>  <Energy>  (14) 
65.32590441946678

>  <Genealogy>  (14) 
CN(C)Cc1cccc(CN(C)[C@H]2CCN(Cc3cccc(Cl)c3)C2=O)n1 (chirality)
CN(C)Cc1cccc(CN(C)[C@H]2CCN(Cc3cccc(Cl)c3)C2=O)n1 (3D coordinates assigned)
CN(C)Cc1cccc(CN(C)[C@H]2CCN(Cc3cccc(Cl)c3)C2=O)n1 (nonaromatic ring conformer: 65.32590441946678 kcal/mol)

>  <smiles>  (14) 
CN(C)Cc1cccc(CN(C)C2CCN(Cc3cccc(Cl)c3)C2=O)n1

>  <score_type>  (14) 
oracle

>  <origin>  (14) 
adg

>  <m_score__min__energy>  (14) 
-9.1099999999999994

>  <m_primary>  (14) 
energy

$$$$
14:0
     RDKit          3D

 41 42  0  0  0  0  0  0  0  0999 V2000
   -6.4640   14.8100  -34.1860 C   0  0  0  0  0  0  0  0  0  0  0  0
   -7.2000   15.9910  -33.8850 O   0  0  0  0  0  0  0  0  0  0  0  0
   -6.6260   17.2590  -33.7080 C   0  0  0  0  0  0  0  0  0  0  0  0
   -5.5470   17.6190  -34.5270 C   0  0  0  0  0  0  0  0  0  0  0  0
   -4.9370   18.8690  -34.3920 C   0  0  0  0  0  0  0  0  0  0  0  0
   -5.4000   19.7770  -33.4370 C   0  0  0  0  0  0  0  0  0  0  0  0
   -4.8130   20.9620  -33.3070 O   0  0  0  0  0  0  0  0  0  0  0  0
   -5.2090   21.8710  -32.4220 C   0  0  0  0  0  0  0  0  0  0  0  0
   -4.5900   22.9660  -32.3550 O   0  0  0  0  0  0  0  0  0  0  0  0
   -6.3110   21.6140  -31.5750 C   0  0  0  0  0  0  0  0  0  0  0  0
   -6.7700   22.6150  -30.5320 C   0  0  0  0  0  0  0  0  0  0  0  0
   -5.6820   23.5220  -30.0690 N   0  0  0  0  0  0  0  0  0  0  0  0
   -6.2250   24.8610  -29.7140 C   0  0  0  0  0  0  0  0  0  0  0  0
   -5.5700   26.0330  -30.4660 C   0  0  0  0  0  0  0  0  0  0  0  0
   -4.2720   25.6700  -30.8430 O   0  0  0  0  0  0  0  0  0  0  0  0
   -4.8880   22.9500  -28.9430 C   0  0  0  0  0  0  0  0  0  0  0  0
   -3.3720   22.8800  -29.2320 C   0  0  0  0  0  0  0  0  0  0  0  0
   -3.0020   23.8050  -30.2160 O   0  0  0  0  0  0  0  0  0  0  0  0
   -6.9290   20.3580  -31.6650 C   0  0  0  0  0  0  0  0  0  0  0  0
   -6.4860   19.4290  -32.6100 C   0  0  0  0  0  0  0  0  0  0  0  0
   -7.0960   18.1720  -32.7440 C   0  0  0  0  0  0  0  0  0  0  0  0
   -6.1585   14.3198  -33.2499 H   0  0  0  0  0  0  0  0  0  0  0  0
   -7.0947   14.1239  -34.7703 H   0  0  0  0  0  0  0  0  0  0  0  0
   -5.5702   15.0739  -34.7703 H   0  0  0  0  0  0  0  0  0  0  0  0
   -5.1769   16.9109  -35.2831 H   0  0  0  0  0  0  0  0  0  0  0  0
   -4.0898   19.1386  -35.0397 H   0  0  0  0  0  0  0  0  0  0  0  0
   -7.5746   23.2272  -30.9654 H   0  0  0  0  0  0  0  0  0  0  0  0
   -7.1117   22.0419  -29.6575 H   0  0  0  0  0  0  0  0  0  0  0  0
   -5.0330   23.7110  -30.8680 H   0  0  0  0  0  0  0  0  0  0  0  0
   -7.3016   24.8664  -29.9396 H   0  0  0  0  0  0  0  0  0  0  0  0
   -6.0095   25.0138  -28.6462 H   0  0  0  0  0  0  0  0  0  0  0  0
   -6.1607   26.2707  -31.3630 H   0  0  0  0  0  0  0  0  0  0  0  0
   -5.5314   26.9164  -29.8117 H   0  0  0  0  0  0  0  0  0  0  0  0
   -4.3720   24.9640  -31.5330 H   0  0  0  0  0  0  0  0  0  0  0  0
   -5.0443   23.5770  -28.0528 H   0  0  0  0  0  0  0  0  0  0  0  0
   -5.2369   21.9178  -28.7923 H   0  0  0  0  0  0  0  0  0  0  0  0
   -2.8196   23.1000  -28.3066 H   0  0  0  0  0  0  0  0  0  0  0  0
   -3.1324   21.8697  -29.5952 H   0  0  0  0  0  0  0  0  0  0  0  0
   -3.5580   23.6110  -31.0160 H   0  0  0  0  0  0  0  0  0  0  0  0
   -7.7616   20.1046  -30.9923 H   0  0  0  0  0  0  0  0  0  0  0  0
   -7.9418   17.8997  -32.0956 H   0  0  0  0  0  0  0  0  0  0  0  0
  1  2  1  0
  2  3  1  0
  3  4  2  0
  4  5  1  0
  5  6  2  0
  6  7  1  0
  7  8  1  0
  8  9  2  0
  8 10  1  0
 10 11  1  0
 11 12  1  0
 12 13  1  0
 13 14  1  0
 14 15  1  0
 12 16  1  0
 16 17  1  0
 17 18  1  0
 10 19  2  0
 19 20  1  0
 20 21  2  0
 21  3  1  0
 20  6  1  0
  1 22  1  0
  1 23  1  0
  1 24  1  0
  4 25  1  0
  5 26  1  0
 11 27  1  0
 11 28  1  0
 12 29  1  0
 13 30  1  0
 13 31  1  0
 14 32  1  0
 14 33  1  0
 15 34  1  0
 16 35  1  0
 16 36  1  0
 17 37  1  0
 17 38  1  0
 18 39  1  0
 19 40  1  0
 21 41  1  0
M  CHG  1  12   1
M  END
>  <UniqueID>  (15) 
15

>  <SMILES>  (15) 
COc1ccc2oc(=O)c(C[NH+](CCO)CCO)cc2c1

>  <Energy>  (15) 
51.3780638609341

>  <Genealogy>  (15) 
COc1ccc2oc(=O)c(C[NH+](CCO)CCO)cc2c1 (protonated)
COc1ccc2oc(=O)c(C[NH+](CCO)CCO)cc2c1 (3D coordinates assigned)
COc1ccc2oc(=O)c(C[NH+](CCO)CCO)cc2c1 (optimized conformer: 51.3780638609341 kcal/mol)

>  <smiles>  (15) 
COc1ccc2oc(=O)c(CN(CCO)CCO)cc2c1

>  <score_type>  (15) 
oracle

>  <origin>  (15) 
adg

>  <m_score__min__energy>  (15) 
-5.4900000000000002

>  <m_primary>  (15) 
energy

$$$$
15:0
     RDKit          3D

 66 69  0  0  0  0  0  0  0  0999 V2000
   -3.0940   21.0610  -32.5860 C   0  0  0  0  0  0  0  0  0  0  0  0
   -4.3020   20.1590  -32.7800 C   0  0  0  0  0  0  0  0  0  0  0  0
   -5.2660   20.3880  -31.7550 O   0  0  0  0  0  0  0  0  0  0  0  0
   -6.6150   20.0670  -31.9240 C   0  0  0  0  0  0  0  0  0  0  0  0
   -7.0360   18.7150  -31.9340 C   0  0  0  0  0  0  0  0  0  0  0  0
   -6.0860   17.5830  -31.5860 C   0  0  0  0  0  0  0  0  0  0  0  0
   -5.9740   16.5500  -32.6430 N   0  0  0  0  0  0  0  0  0  0  0  0
   -4.8830   15.5670  -32.4810 C   0  0  0  0  0  0  0  0  0  0  0  0
   -3.6670   15.8520  -33.3840 C   0  0  0  0  0  0  0  0  0  0  0  0
   -3.6930   17.2400  -33.8720 N   0  0  0  0  0  0  0  0  0  0  0  0
   -2.4610   17.5530  -34.6140 C   0  0  0  0  0  0  0  0  0  0  0  0
   -4.8720   17.4550  -34.7260 C   0  0  0  0  0  0  0  0  0  0  0  0
   -6.1770   17.0210  -34.0270 C   0  0  0  0  0  0  0  0  0  0  0  0
   -8.3810   18.4190  -32.2120 C   0  0  0  0  0  0  0  0  0  0  0  0
   -9.3060   19.4430  -32.4150 C   0  0  0  0  0  0  0  0  0  0  0  0
   -8.9020   20.7760  -32.3370 C   0  0  0  0  0  0  0  0  0  0  0  0
   -7.5620   21.1000  -32.0890 C   0  0  0  0  0  0  0  0  0  0  0  0
   -7.1720   22.4810  -31.9790 N   0  0  0  0  0  0  0  0  0  0  0  0
   -7.9790   23.4290  -31.2070 C   0  0  0  0  0  0  0  0  0  0  0  0
   -7.1800   23.9470  -29.9970 C   0  0  0  0  0  0  0  0  0  0  0  0
   -5.7130   24.0360  -30.2310 N   0  0  0  0  0  0  0  0  0  0  0  0
   -4.9700   22.9690  -29.5240 C   0  0  0  0  0  0  0  0  0  0  0  0
   -3.7050   23.5030  -28.9040 C   0  0  0  0  0  0  0  0  0  0  0  0
   -2.4750   23.3980  -29.5760 C   0  0  0  0  0  0  0  0  0  0  0  0
   -1.3040   23.8750  -28.9790 C   0  0  0  0  0  0  0  0  0  0  0  0
   -1.3530   24.4620  -27.7110 C   0  0  0  0  0  0  0  0  0  0  0  0
    0.1190   25.0550  -26.9620 Cl  0  0  0  0  0  0  0  0  0  0  0  0
   -2.5740   24.5790  -27.0410 C   0  0  0  0  0  0  0  0  0  0  0  0
   -3.7470   24.0980  -27.6310 C   0  0  0  0  0  0  0  0  0  0  0  0
   -5.3610   24.1330  -31.6680 C   0  0  0  0  0  0  0  0  0  0  0  0
   -5.8590   22.9150  -32.4660 C   0  0  0  0  0  0  0  0  0  0  0  0
   -2.9087   21.1994  -31.5106 H   0  0  0  0  0  0  0  0  0  0  0  0
   -2.2122   20.5985  -33.0535 H   0  0  0  0  0  0  0  0  0  0  0  0
   -3.2869   22.0378  -33.0535 H   0  0  0  0  0  0  0  0  0  0  0  0
   -4.7575   20.3696  -33.7589 H   0  0  0  0  0  0  0  0  0  0  0  0
   -3.9741   19.1101  -32.7320 H   0  0  0  0  0  0  0  0  0  0  0  0
   -5.0874   18.0097  -31.4108 H   0  0  0  0  0  0  0  0  0  0  0  0
   -6.4936   17.0855  -30.6936 H   0  0  0  0  0  0  0  0  0  0  0  0
   -4.5508   15.5836  -31.4325 H   0  0  0  0  0  0  0  0  0  0  0  0
   -5.2831   14.5849  -32.7734 H   0  0  0  0  0  0  0  0  0  0  0  0
   -2.7440   15.6893  -32.8081 H   0  0  0  0  0  0  0  0  0  0  0  0
   -3.7030   15.1732  -34.2489 H   0  0  0  0  0  0  0  0  0  0  0  0
   -1.6474   17.7597  -33.9032 H   0  0  0  0  0  0  0  0  0  0  0  0
   -2.1863   16.6961  -35.2467 H   0  0  0  0  0  0  0  0  0  0  0  0
   -2.6286   18.4371  -35.2467 H   0  0  0  0  0  0  0  0  0  0  0  0
   -4.9406   18.5244  -34.9745 H   0  0  0  0  0  0  0  0  0  0  0  0
   -4.7518   16.8435  -35.6325 H   0  0  0  0  0  0  0  0  0  0  0  0
   -6.8631   17.8806  -34.0053 H   0  0  0  0  0  0  0  0  0  0  0  0
   -6.5859   16.1758  -34.6001 H   0  0  0  0  0  0  0  0  0  0  0  0
   -8.7075   17.3702  -32.2701 H   0  0  0  0  0  0  0  0  0  0  0  0
  -10.3554   19.1992  -32.6369 H   0  0  0  0  0  0  0  0  0  0  0  0
   -9.6417   21.5790  -32.4713 H   0  0  0  0  0  0  0  0  0  0  0  0
   -8.2560   24.2777  -31.8496 H   0  0  0  0  0  0  0  0  0  0  0  0
   -8.8846   22.9188  -30.8468 H   0  0  0  0  0  0  0  0  0  0  0  0
   -7.5508   24.9508  -29.7422 H   0  0  0  0  0  0  0  0  0  0  0  0
   -7.3282   23.2206  -29.1843 H   0  0  0  0  0  0  0  0  0  0  0  0
   -5.6090   22.5516  -28.7319 H   0  0  0  0  0  0  0  0  0  0  0  0
   -4.6984   22.1922  -30.2539 H   0  0  0  0  0  0  0  0  0  0  0  0
   -2.4334   22.9391  -30.5748 H   0  0  0  0  0  0  0  0  0  0  0  0
   -0.3432   23.7883  -29.5075 H   0  0  0  0  0  0  0  0  0  0  0  0
   -2.6123   25.0503  -26.0478 H   0  0  0  0  0  0  0  0  0  0  0  0
   -4.7051   24.1854  -27.0977 H   0  0  0  0  0  0  0  0  0  0  0  0
   -5.8183   25.0423  -32.0852 H   0  0  0  0  0  0  0  0  0  0  0  0
   -4.2644   24.1670  -31.7481 H   0  0  0  0  0  0  0  0  0  0  0  0
   -5.9395   23.1874  -33.5287 H   0  0  0  0  0  0  0  0  0  0  0  0
   -5.1427   22.0900  -32.3379 H   0  0  0  0  0  0  0  0  0  0  0  0
  1  2  1  0
  2  3  1  0
  3  4  1  0
  4  5  2  0
  5  6  1  0
  6  7  1  0
  7  8  1  0
  8  9  1  0
  9 10  1  0
 10 11  1  0
 10 12  1  0
 12 13  1  0
  5 14  1  0
 14 15  2  0
 15 16  1  0
 16 17  2  0
 17 18  1  0
 18 19  1  0
 19 20  1  0
 20 21  1  0
 21 22  1  0
 22 23  1  0
 23 24  2  0
 24 25  1  0
 25 26  2  0
 26 27  1  0
 26 28  1  0
 28 29  2  0
 21 30  1  0
 30 31  1  0
 17  4  1  0
 31 18  1  0
 13  7  1  0
 29 23  1  0
  1 32  1  0
  1 33  1  0
  1 34  1  0
  2 35  1  0
  2 36  1  0
  6 37  1  0
  6 38  1  0
  8 39  1  0
  8 40  1  0
  9 41  1  0
  9 42  1  0
 11 43  1  0
 11 44  1  0
 11 45  1  0
 12 46  1  0
 12 47  1  0
 13 48  1  0
 13 49  1  0
 14 50  1  0
 15 51  1  0
 16 52  1  0
 19 53  1  0
 19 54  1  0
 20 55  1  0
 20 56  1  0
 22 57  1  0
 22 58  1  0
 24 59  1  0
 25 60  1  0
 28 61  1  0
 29 62  1  0
 30 63  1  0
 30 64  1  0
 31 65  1  0
 31 66  1  0
M  END
>  <UniqueID>  (16) 
16

>  <SMILES>  (16) 
CCOc1c(CN2CCN(C)CC2)cccc1N1CCN(Cc2ccc(Cl)cc2)CC1

>  <Energy>  (16) 
95.8913784282943

>  <Genealogy>  (16) 
CCOc1c(CN2CCN(C)CC2)cccc1N1CCN(Cc2ccc(Cl)cc2)CC1 (3D coordinates assigned)
CCOc1c(CN2CCN(C)CC2)cccc1N1CCN(Cc2ccc(Cl)cc2)CC1 (nonaromatic ring conformer: 95.8913784282943 kcal/mol)

>  <smiles>  (16) 
CCOc1c(CN2CCN(C)CC2)cccc1N1CCN(Cc2ccc(Cl)cc2)CC1

>  <score_type>  (16) 
oracle

>  <origin>  (16) 
adg

>  <m_score__min__energy>  (16) 
-8.7200000000000006

>  <m_primary>  (16) 
energy

$$$$
16:0
     RDKit          3D

 44 47  0  0  0  0  0  0  0  0999 V2000
   -2.1690   21.0210  -32.8710 N   0  0  0  0  0  0  0  0  0  0  0  0
   -1.9000   21.9080  -31.7430 C   0  0  0  0  0  0  0  0  0  0  0  0
   -2.6210   21.4200  -30.4800 C   0  0  0  0  0  0  0  0  0  0  0  0
   -4.0740   21.6940  -30.5530 N   0  0  0  0  0  0  0  0  0  0  0  0
   -4.6070   22.7640  -29.8720 C   0  0  0  0  0  0  0  0  0  0  0  0
   -3.7990   23.5840  -29.0150 N   0  0  0  0  0  0  0  0  0  0  0  0
   -3.8640   23.6230  -27.6700 C   0  0  0  0  0  0  0  0  0  0  0  0
   -2.8640   24.4410  -27.1820 C   0  0  0  0  0  0  0  0  0  0  0  0
   -2.1560   24.8960  -28.2790 C   0  0  0  0  0  0  0  0  0  0  0  0
   -2.7510   24.3400  -29.3930 C   0  0  0  0  0  0  0  0  0  0  0  0
   -5.9550   23.0910  -30.0130 C   0  0  0  0  0  0  0  0  0  0  0  0
   -6.7850   22.3170  -30.8190 C   0  0  0  0  0  0  0  0  0  0  0  0
   -8.1370   22.6660  -30.9540 C   0  0  0  0  0  0  0  0  0  0  0  0
   -8.9820   21.9110  -31.7590 C   0  0  0  0  0  0  0  0  0  0  0  0
   -8.4950   20.7900  -32.4240 C   0  0  0  0  0  0  0  0  0  0  0  0
   -7.1500   20.4070  -32.2980 C   0  0  0  0  0  0  0  0  0  0  0  0
   -6.7420   19.1660  -32.9890 C   0  0  0  0  0  0  0  0  0  0  0  0
   -7.0460   17.9150  -32.4300 C   0  0  0  0  0  0  0  0  0  0  0  0
   -6.6750   16.7410  -33.0940 C   0  0  0  0  0  0  0  0  0  0  0  0
   -6.0090   16.8100  -34.3200 C   0  0  0  0  0  0  0  0  0  0  0  0
   -5.7150   18.0540  -34.8870 C   0  0  0  0  0  0  0  0  0  0  0  0
   -6.0840   19.2300  -34.2270 C   0  0  0  0  0  0  0  0  0  0  0  0
   -6.2630   21.1900  -31.4980 C   0  0  0  0  0  0  0  0  0  0  0  0
   -4.8720   20.9190  -31.3670 C   0  0  0  0  0  0  0  0  0  0  0  0
   -4.3530   19.9720  -32.0200 O   0  0  0  0  0  0  0  0  0  0  0  0
   -3.1110   21.2620  -33.2580 H   0  0  0  0  0  0  0  0  0  0  0  0
   -2.2410   20.0460  -32.4990 H   0  0  0  0  0  0  0  0  0  0  0  0
   -0.8167   21.9312  -31.5533 H   0  0  0  0  0  0  0  0  0  0  0  0
   -2.2678   22.9145  -31.9914 H   0  0  0  0  0  0  0  0  0  0  0  0
   -2.4652   20.3363  -30.3741 H   0  0  0  0  0  0  0  0  0  0  0  0
   -2.2083   21.9578  -29.6137 H   0  0  0  0  0  0  0  0  0  0  0  0
   -4.6007   23.0857  -27.0547 H   0  0  0  0  0  0  0  0  0  0  0  0
   -2.6689   24.6832  -26.1269 H   0  0  0  0  0  0  0  0  0  0  0  0
   -1.2870   25.5704  -28.2662 H   0  0  0  0  0  0  0  0  0  0  0  0
   -2.4198   24.4913  -30.4310 H   0  0  0  0  0  0  0  0  0  0  0  0
   -6.3645   23.9647  -29.4849 H   0  0  0  0  0  0  0  0  0  0  0  0
   -8.5310   23.5429  -30.4193 H   0  0  0  0  0  0  0  0  0  0  0  0
  -10.0374   22.2002  -31.8705 H   0  0  0  0  0  0  0  0  0  0  0  0
   -9.1719   20.1966  -33.0561 H   0  0  0  0  0  0  0  0  0  0  0  0
   -7.5768   17.8576  -31.4683 H   0  0  0  0  0  0  0  0  0  0  0  0
   -6.9081   15.7619  -32.6500 H   0  0  0  0  0  0  0  0  0  0  0  0
   -5.7158   15.8857  -34.8394 H   0  0  0  0  0  0  0  0  0  0  0  0
   -5.1927   18.1074  -35.8536 H   0  0  0  0  0  0  0  0  0  0  0  0
   -5.8582   20.2072  -34.6789 H   0  0  0  0  0  0  0  0  0  0  0  0
  1  2  1  0
  2  3  1  0
  3  4  1  0
  4  5  1  0
  5  6  1  0
  6  7  1  0
  7  8  2  0
  8  9  1  0
  9 10  2  0
  5 11  2  0
 11 12  1  0
 12 13  2  0
 13 14  1  0
 14 15  2  0
 15 16  1  0
 16 17  1  0
 17 18  2  0
 18 19  1  0
 19 20  2  0
 20 21  1  0
 21 22  2  0
 16 23  2  0
 23 24  1  0
 24 25  2  0
 24  4  1  0
 10  6  1  0
 23 12  1  0
 22 17  1  0
  1 26  1  0
  1 27  1  0
  2 28  1  0
  2 29  1  0
  3 30  1  0
  3 31  1  0
  7 32  1  0
  8 33  1  0
  9 34  1  0
 10 35  1  0
 11 36  1  0
 13 37  1  0
 14 38  1  0
 15 39  1  0
 18 40  1  0
 19 41  1  0
 20 42  1  0
 21 43  1  0
 22 44  1  0
M  END
>  <UniqueID>  (17) 
17

>  <SMILES>  (17) 
NCCn1c(-n2cccc2)cc2cccc(-c3ccccc3)c2c1=O

>  <Energy>  (17) 
97.51865132732257

>  <Genealogy>  (17) 
NCCn1c(-n2cccc2)cc2cccc(-c3ccccc3)c2c1=O (3D coordinates assigned)
NCCn1c(-n2cccc2)cc2cccc(-c3ccccc3)c2c1=O (optimized conformer: 97.51865132732257 kcal/mol)

>  <smiles>  (17) 
NCCn1c(-n2cccc2)cc2cccc(-c3ccccc3)c2c1=O

>  <score_type>  (17) 
oracle

>  <origin>  (17) 
adg

>  <m_score__min__energy>  (17) 
-8.2300000000000004

>  <m_primary>  (17) 
energy

$$$$
17:0
     RDKit          3D

 68 71  0  0  0  0  0  0  0  0999 V2000
   -1.2280   18.4670  -26.9240 O   0  0  0  0  0  0  0  0  0  0  0  0
   -1.2500   19.6180  -27.4410 C   0  0  0  0  0  0  0  0  0  0  0  0
   -2.4050   20.5330  -27.1740 C   0  0  0  0  0  0  0  0  0  0  0  0
   -1.9960   21.9780  -27.3070 C   0  0  0  0  0  0  0  0  0  0  0  0
   -1.0740   22.5310  -26.4030 C   0  0  0  0  0  0  0  0  0  0  0  0
   -0.6870   23.8680  -26.5250 C   0  0  0  0  0  0  0  0  0  0  0  0
   -1.2320   24.6660  -27.5360 C   0  0  0  0  0  0  0  0  0  0  0  0
   -2.1780   24.1390  -28.4220 C   0  0  0  0  0  0  0  0  0  0  0  0
   -2.7180   24.9840  -29.4470 N   0  0  0  0  0  0  0  0  0  0  0  0
   -4.0190   24.8900  -30.0400 C   0  0  0  0  0  0  0  0  0  0  0  0
   -4.1800   25.3320  -31.2090 O   0  0  0  0  0  0  0  0  0  0  0  0
   -5.2180   24.4020  -29.2520 C   0  0  0  0  0  0  0  0  0  0  0  0
   -6.5060   25.0810  -29.7140 C   0  0  0  0  0  0  0  0  0  0  0  0
   -7.1100   24.1710  -30.7760 C   0  0  0  0  0  0  0  0  0  0  0  0
   -6.5610   22.7680  -30.5120 C   0  0  0  0  0  0  0  0  0  0  0  0
   -5.4580   22.9020  -29.4610 C   0  0  0  0  0  0  0  0  0  0  0  0
   -2.5410   22.7850  -28.3230 C   0  0  0  0  0  0  0  0  0  0  0  0
   -0.1410   20.0960  -28.2130 N   0  0  0  0  0  0  0  0  0  0  0  0
   -0.0840   20.2070  -29.6420 C   0  0  0  0  0  0  0  0  0  0  0  0
    0.3230   19.1390  -30.4620 C   0  0  0  0  0  0  0  0  0  0  0  0
    0.3130   19.2760  -31.8540 C   0  0  0  0  0  0  0  0  0  0  0  0
   -0.0870   20.4850  -32.4460 C   0  0  0  0  0  0  0  0  0  0  0  0
   -0.1330   20.6290  -33.9460 C   0  0  0  0  0  0  0  0  0  0  0  0
   -1.3260   19.8470  -34.5280 C   0  0  0  0  0  0  0  0  0  0  0  0
   -2.6190   20.4790  -34.2280 N   0  0  0  0  0  0  0  0  0  0  0  0
   -3.1720   20.0410  -32.9320 C   0  0  0  0  0  0  0  0  0  0  0  0
   -4.3120   20.9730  -32.4740 C   0  0  1  0  0  0  0  0  0  0  0  0
   -4.3230   22.1590  -33.2340 O   0  0  0  0  0  0  0  0  0  0  0  0
   -5.6660   20.2730  -32.4660 C   0  0  0  0  0  0  0  0  0  0  0  0
   -5.8100   19.0470  -31.7950 C   0  0  0  0  0  0  0  0  0  0  0  0
   -7.0410   18.3900  -31.7830 C   0  0  0  0  0  0  0  0  0  0  0  0
   -8.1320   18.9700  -32.4310 C   0  0  0  0  0  0  0  0  0  0  0  0
   -7.9960   20.1680  -33.0580 N   0  0  0  0  0  0  0  0  0  0  0  0
   -6.8060   20.8270  -33.0880 C   0  0  0  0  0  0  0  0  0  0  0  0
   -0.4700   21.5600  -31.6230 C   0  0  0  0  0  0  0  0  0  0  0  0
   -0.4880   21.4100  -30.2350 C   0  0  0  0  0  0  0  0  0  0  0  0
   -3.2070   20.3189  -27.8958 H   0  0  0  0  0  0  0  0  0  0  0  0
   -2.7546   20.3626  -26.1450 H   0  0  0  0  0  0  0  0  0  0  0  0
   -0.6557   21.9100  -25.5972 H   0  0  0  0  0  0  0  0  0  0  0  0
    0.0472   24.2934  -25.8250 H   0  0  0  0  0  0  0  0  0  0  0  0
   -0.9149   25.7146  -27.6352 H   0  0  0  0  0  0  0  0  0  0  0  0
   -4.9895   24.6340  -28.2013 H   0  0  0  0  0  0  0  0  0  0  0  0
   -7.2012   25.1946  -28.8692 H   0  0  0  0  0  0  0  0  0  0  0  0
   -6.3075   26.0863  -30.1139 H   0  0  0  0  0  0  0  0  0  0  0  0
   -8.2071   24.1706  -30.6963 H   0  0  0  0  0  0  0  0  0  0  0  0
   -6.8501   24.5150  -31.7880 H   0  0  0  0  0  0  0  0  0  0  0  0
   -7.3622   22.1148  -30.1358 H   0  0  0  0  0  0  0  0  0  0  0  0
   -6.1655   22.3239  -31.4374 H   0  0  0  0  0  0  0  0  0  0  0  0
   -5.7767   22.4353  -28.5173 H   0  0  0  0  0  0  0  0  0  0  0  0
   -4.5372   22.3994  -29.7919 H   0  0  0  0  0  0  0  0  0  0  0  0
   -3.2535   22.3545  -29.0420 H   0  0  0  0  0  0  0  0  0  0  0  0
    0.6503   18.1926  -30.0069 H   0  0  0  0  0  0  0  0  0  0  0  0
    0.6203   18.4318  -32.4887 H   0  0  0  0  0  0  0  0  0  0  0  0
   -0.2374   21.6931  -34.2042 H   0  0  0  0  0  0  0  0  0  0  0  0
    0.7978   20.2247  -34.3704 H   0  0  0  0  0  0  0  0  0  0  0  0
   -1.2085   19.7871  -35.6201 H   0  0  0  0  0  0  0  0  0  0  0  0
   -1.3279   18.8497  -34.0639 H   0  0  0  0  0  0  0  0  0  0  0  0
   -2.4910   21.5210  -34.2180 H   0  0  0  0  0  0  0  0  0  0  0  0
   -3.5632   19.0181  -33.0351 H   0  0  0  0  0  0  0  0  0  0  0  0
   -2.3698   20.0730  -32.1800 H   0  0  0  0  0  0  0  0  0  0  0  0
   -4.1147   21.2518  -31.4284 H   0  0  0  0  0  0  0  0  0  0  0  0
   -4.2360   21.9130  -34.1900 H   0  0  0  0  0  0  0  0  0  0  0  0
   -4.9477   18.6027  -31.2763 H   0  0  0  0  0  0  0  0  0  0  0  0
   -7.1502   17.4243  -31.2677 H   0  0  0  0  0  0  0  0  0  0  0  0
   -9.1047   18.4563  -32.4344 H   0  0  0  0  0  0  0  0  0  0  0  0
   -6.7316   21.7977  -33.6002 H   0  0  0  0  0  0  0  0  0  0  0  0
   -0.7561   22.5214  -32.0744 H   0  0  0  0  0  0  0  0  0  0  0  0
   -0.8226   22.2444  -29.6011 H   0  0  0  0  0  0  0  0  0  0  0  0
  1  2  2  0
  2  3  1  0
  3  4  1  0
  4  5  2  0
  5  6  1  0
  6  7  2  0
  7  8  1  0
  8  9  1  0
  9 10  1  0
 10 11  2  0
 10 12  1  0
 12 13  1  0
 13 14  1  0
 14 15  1  0
 15 16  1  0
  8 17  2  0
  2 18  1  0
 18 19  1  0
 19 20  2  0
 20 21  1  0
 21 22  2  0
 22 23  1  0
 23 24  1  0
 24 25  1  0
 25 26  1  0
 26 27  1  0
 27 28  1  0
 27 29  1  0
 29 30  2  0
 30 31  1  0
 31 32  2  0
 32 33  1  0
 33 34  2  0
 22 35  1  0
 35 36  2  0
 17  4  1  0
 36 19  1  0
 16 12  1  0
 34 29  1  0
  3 37  1  0
  3 38  1  0
  5 39  1  0
  6 40  1  0
  7 41  1  0
 12 42  1  0
 13 43  1  0
 13 44  1  0
 14 45  1  0
 14 46  1  0
 15 47  1  0
 15 48  1  0
 16 49  1  0
 16 50  1  0
 17 51  1  0
 20 52  1  0
 21 53  1  0
 23 54  1  0
 23 55  1  0
 24 56  1  0
 24 57  1  0
 25 58  1  0
 26 59  1  0
 26 60  1  0
 27 61  1  1
 28 62  1  0
 30 63  1  0
 31 64  1  0
 32 65  1  0
 34 66  1  0
 35 67  1  0
 36 68  1  0
M  CHG  2   9  -1  18  -1
M  END
>  <UniqueID>  (18) 
18

>  <SMILES>  (18) 
O=C(Cc1cccc([N-]C(=O)C2CCCC2)c1)[N-]c1ccc(CCNC[C@@H](O)c2cccnc2)cc1

>  <Energy>  (18) 
80.69557823315834

>  <Genealogy>  (18) 
O=C(Cc1cccc([N-]C(=O)C2CCCC2)c1)[N-]c1ccc(CCNCC(O)c2cccnc2)cc1 (protonated)
O=C(Cc1cccc([N-]C(=O)C2CCCC2)c1)[N-]c1ccc(CCNC[C@@H](O)c2cccnc2)cc1 (chirality)
O=C(Cc1cccc([N-]C(=O)C2CCCC2)c1)[N-]c1ccc(CCNC[C@@H](O)c2cccnc2)cc1 (3D coordinates assigned)
O=C(Cc1cccc([N-]C(=O)C2CCCC2)c1)[N-]c1ccc(CCNC[C@@H](O)c2cccnc2)cc1 (nonaromatic ring conformer: 80.69557823315834 kcal/mol)

>  <smiles>  (18) 
O=C(Cc1cccc(NC(=O)C2CCCC2)c1)Nc1ccc(CCNCC(O)c2cccnc2)cc1

>  <score_type>  (18) 
oracle

>  <origin>  (18) 
adg

>  <m_score__min__energy>  (18) 
-12.56

>  <m_primary>  (18) 
energy

$$$$
18:0
     RDKit          3D

 33 34  0  0  0  0  0  0  0  0999 V2000
   -9.4700   20.4490  -32.3290 C   0  0  0  0  0  0  0  0  0  0  0  0
   -9.2320   21.8520  -32.3300 O   0  0  0  0  0  0  0  0  0  0  0  0
   -8.1110   22.4670  -31.7510 C   0  0  0  0  0  0  0  0  0  0  0  0
   -7.8520   22.2390  -30.3970 C   0  0  0  0  0  0  0  0  0  0  0  0
   -6.7480   22.8280  -29.7750 C   0  0  0  0  0  0  0  0  0  0  0  0
   -5.8840   23.6690  -30.4980 C   0  0  0  0  0  0  0  0  0  0  0  0
   -4.7160   24.2810  -29.8190 C   0  0  0  0  0  0  0  0  0  0  0  0
   -3.9320   25.0060  -30.4900 O   0  0  0  0  0  0  0  0  0  0  0  0
   -4.4730   24.0690  -28.4150 N   0  0  0  0  0  0  0  0  0  0  0  0
   -3.3080   24.5500  -27.7220 C   0  0  0  0  0  0  0  0  0  0  0  0
   -3.4350   25.0080  -26.4030 C   0  0  0  0  0  0  0  0  0  0  0  0
   -2.3150   25.4580  -25.6970 C   0  0  0  0  0  0  0  0  0  0  0  0
   -1.0460   25.4320  -26.2940 C   0  0  0  0  0  0  0  0  0  0  0  0
    0.1500   25.9520  -25.5510 C   0  0  0  0  0  0  0  0  0  0  0  0
   -0.9140   24.9680  -27.6110 C   0  0  0  0  0  0  0  0  0  0  0  0
   -2.0350   24.5180  -28.3160 C   0  0  0  0  0  0  0  0  0  0  0  0
   -6.1370   23.8870  -31.8640 C   0  0  0  0  0  0  0  0  0  0  0  0
   -7.2410   23.2950  -32.4850 C   0  0  0  0  0  0  0  0  0  0  0  0
   -9.5312   20.0882  -31.2916 H   0  0  0  0  0  0  0  0  0  0  0  0
  -10.4169   20.2373  -32.8473 H   0  0  0  0  0  0  0  0  0  0  0  0
   -8.6459   19.9369  -32.8473 H   0  0  0  0  0  0  0  0  0  0  0  0
   -8.5232   21.5900  -29.8154 H   0  0  0  0  0  0  0  0  0  0  0  0
   -6.5532   22.6319  -28.7103 H   0  0  0  0  0  0  0  0  0  0  0  0
   -5.1950   23.5820  -27.8400 H   0  0  0  0  0  0  0  0  0  0  0  0
   -4.4232   25.0134  -25.9198 H   0  0  0  0  0  0  0  0  0  0  0  0
   -2.4296   25.8338  -24.6696 H   0  0  0  0  0  0  0  0  0  0  0  0
   -0.0286   25.8743  -24.4684 H   0  0  0  0  0  0  0  0  0  0  0  0
    1.0357   25.3577  -25.8200 H   0  0  0  0  0  0  0  0  0  0  0  0
    0.3195   27.0050  -25.8200 H   0  0  0  0  0  0  0  0  0  0  0  0
    0.0755   24.9580  -28.0915 H   0  0  0  0  0  0  0  0  0  0  0  0
   -1.9194   24.1368  -29.3414 H   0  0  0  0  0  0  0  0  0  0  0  0
   -5.4610   24.5283  -32.4486 H   0  0  0  0  0  0  0  0  0  0  0  0
   -7.4307   23.4773  -33.5531 H   0  0  0  0  0  0  0  0  0  0  0  0
  1  2  1  0
  2  3  1  0
  3  4  2  0
  4  5  1  0
  5  6  2  0
  6  7  1  0
  7  8  2  0
  7  9  1  0
  9 10  1  0
 10 11  2  0
 11 12  1  0
 12 13  2  0
 13 14  1  0
 13 15  1  0
 15 16  2  0
  6 17  1  0
 17 18  2  0
 18  3  1  0
 16 10  1  0
  1 19  1  0
  1 20  1  0
  1 21  1  0
  4 22  1  0
  5 23  1  0
  9 24  1  0
 11 25  1  0
 12 26  1  0
 14 27  1  0
 14 28  1  0
 14 29  1  0
 15 30  1  0
 16 31  1  0
 17 32  1  0
 18 33  1  0
M  END
>  <UniqueID>  (19) 
19

>  <SMILES>  (19) 
COc1ccc(C(=O)Nc2ccc(C)cc2)cc1

>  <Energy>  (19) 
38.99416395072966

>  <Genealogy>  (19) 
COc1ccc(C(=O)Nc2ccc(C)cc2)cc1 (3D coordinates assigned)
COc1ccc(C(=O)Nc2ccc(C)cc2)cc1 (optimized conformer: 38.99416395072966 kcal/mol)

>  <smiles>  (19) 
COc1ccc(C(=O)Nc2ccc(C)cc2)cc1

>  <score_type>  (19) 
oracle

>  <origin>  (19) 
adg

>  <m_score__min__energy>  (19) 
-6.8899999999999997

>  <m_primary>  (19) 
energy

$$$$
19:0
     RDKit          3D

 35 37  0  0  0  0  0  0  0  0999 V2000
   -3.0990   21.3090  -33.4600 C   0  0  0  0  0  0  0  0  0  0  0  0
   -3.7900   20.0250  -33.0150 C   0  0  0  0  0  0  0  0  0  0  0  0
   -5.2830   20.1950  -33.0250 C   0  0  0  0  0  0  0  0  0  0  0  0
   -6.2400   19.2680  -33.4400 C   0  0  0  0  0  0  0  0  0  0  0  0
   -5.9550   17.9240  -34.0320 C   0  0  0  0  0  0  0  0  0  0  0  0
   -7.4900   19.7510  -33.2460 N   0  0  0  0  0  0  0  0  0  0  0  0
   -7.3310   20.9670  -32.6960 C   0  0  0  0  0  0  0  0  0  0  0  0
   -8.3340   21.8510  -32.3050 C   0  0  0  0  0  0  0  0  0  0  0  0
   -7.9480   23.0760  -31.7330 C   0  0  0  0  0  0  0  0  0  0  0  0
   -6.5760   23.3920  -31.5520 C   0  0  0  0  0  0  0  0  0  0  0  0
   -6.1910   24.6630  -30.9950 N   0  0  0  0  0  0  0  0  0  0  0  0
   -4.9910   24.5000  -30.2250 C   0  0  0  0  0  0  0  0  0  0  0  0
   -4.8650   23.6770  -29.1220 C   0  0  0  0  0  0  0  0  0  0  0  0
   -3.5860   23.8760  -28.6520 C   0  0  0  0  0  0  0  0  0  0  0  0
   -3.0140   24.8110  -29.4890 C   0  0  0  0  0  0  0  0  0  0  0  0
   -1.7540   25.2940  -29.3620 F   0  0  0  0  0  0  0  0  0  0  0  0
   -3.8670   25.2100  -30.4520 N   0  0  0  0  0  0  0  0  0  0  0  0
   -5.5860   22.4710  -31.9700 C   0  0  0  0  0  0  0  0  0  0  0  0
   -6.0030   21.2680  -32.5390 C   0  0  0  0  0  0  0  0  0  0  0  0
   -2.7893   21.8844  -32.5751 H   0  0  0  0  0  0  0  0  0  0  0  0
   -2.2136   21.0589  -34.0630 H   0  0  0  0  0  0  0  0  0  0  0  0
   -3.7954   21.9102  -34.0630 H   0  0  0  0  0  0  0  0  0  0  0  0
   -3.5146   19.2103  -33.7009 H   0  0  0  0  0  0  0  0  0  0  0  0
   -3.4678   19.7865  -31.9906 H   0  0  0  0  0  0  0  0  0  0  0  0
   -5.8000   17.1931  -33.2247 H   0  0  0  0  0  0  0  0  0  0  0  0
   -6.8063   17.6090  -34.6533 H   0  0  0  0  0  0  0  0  0  0  0  0
   -5.0491   17.9816  -34.6533 H   0  0  0  0  0  0  0  0  0  0  0  0
   -8.3920   19.2750  -33.4710 H   0  0  0  0  0  0  0  0  0  0  0  0
   -9.3961   21.5983  -32.4397 H   0  0  0  0  0  0  0  0  0  0  0  0
   -8.7178   23.7976  -31.4223 H   0  0  0  0  0  0  0  0  0  0  0  0
   -6.9520   25.0330  -30.3780 H   0  0  0  0  0  0  0  0  0  0  0  0
   -6.0300   25.3620  -31.7570 H   0  0  0  0  0  0  0  0  0  0  0  0
   -5.6281   23.0028  -28.7058 H   0  0  0  0  0  0  0  0  0  0  0  0
   -3.1161   23.3883  -27.7852 H   0  0  0  0  0  0  0  0  0  0  0  0
   -4.5165   22.6980  -31.8493 H   0  0  0  0  0  0  0  0  0  0  0  0
  1  2  1  0
  2  3  1  0
  3  4  2  0
  4  5  1  0
  4  6  1  0
  6  7  1  0
  7  8  2  0
  8  9  1  0
  9 10  2  0
 10 11  1  0
 11 12  1  0
 12 13  2  0
 13 14  1  0
 14 15  2  0
 15 16  1  0
 15 17  1  0
 10 18  1  0
 18 19  2  0
 19  3  1  0
 19  7  1  0
 17 12  1  0
  1 20  1  0
  1 21  1  0
  1 22  1  0
  2 23  1  0
  2 24  1  0
  5 25  1  0
  5 26  1  0
  5 27  1  0
  6 28  1  0
  8 29  1  0
  9 30  1  0
 11 31  1  0
 11 32  1  0
 13 33  1  0
 14 34  1  0
 18 35  1  0
M  CHG  2  11   1  17  -1
M  END
>  <UniqueID>  (20) 
20

>  <SMILES>  (20) 
CCc1c(C)[nH]c2ccc([NH2+]c3ccc(F)[n-]3)cc12

>  <Energy>  (20) 
90.72694512810853

>  <Genealogy>  (20) 
CCc1c(C)[nH]c2ccc([NH2+]c3ccc(F)[n-]3)cc12 (protonated)
CCc1c(C)[nH]c2ccc([NH2+]c3ccc(F)[n-]3)cc12 (3D coordinates assigned)
CCc1c(C)[nH]c2ccc([NH2+]c3ccc(F)[n-]3)cc12 (optimized conformer: 90.72694512810853 kcal/mol)

>  <smiles>  (20) 
CCc1c(C)[nH]c2ccc(Nc3ccc(F)[nH]3)cc12

>  <score_type>  (20) 
oracle

>  <origin>  (20) 
adg

>  <m_score__min__energy>  (20) 
-8.5399999999999991

>  <m_primary>  (20) 
energy

$$$$
20:0
     RDKit          3D

 44 46  0  0  0  0  0  0  0  0999 V2000
   -6.8610   24.6528  -30.6295 H   0  0  0  0  0  0  0  0  0  0  0  0
   -6.5280   23.7190  -31.1060 C   0  0  0  0  0  0  0  0  0  0  0  0
   -7.4720   22.8160  -31.5990 C   0  0  0  0  0  0  0  0  0  0  0  0
   -8.5448   23.0333  -31.4899 H   0  0  0  0  0  0  0  0  0  0  0  0
   -7.0600   21.6290  -32.2350 C   0  0  0  0  0  0  0  0  0  0  0  0
   -7.9840   20.6880  -32.7170 O   0  0  0  0  0  0  0  0  0  0  0  0
   -8.7870   19.8490  -31.8930 C   0  0  0  0  0  0  0  0  0  0  0  0
   -8.5788   20.0665  -30.8350 H   0  0  0  0  0  0  0  0  0  0  0  0
   -9.8501   20.0372  -32.1037 H   0  0  0  0  0  0  0  0  0  0  0  0
   -8.5524   18.7952  -32.1037 H   0  0  0  0  0  0  0  0  0  0  0  0
   -5.6820   21.3700  -32.3840 C   0  0  0  0  0  0  0  0  0  0  0  0
   -5.2260   20.1870  -33.0660 N   0  0  0  0  0  0  0  0  0  0  0  0
   -5.9690   19.6490  -34.2080 C   0  0  0  0  0  0  0  0  0  0  0  0
   -6.8320   20.2982  -34.4173 H   0  0  0  0  0  0  0  0  0  0  0  0
   -5.3024   19.6128  -35.0823 H   0  0  0  0  0  0  0  0  0  0  0  0
   -6.4680   18.2250  -33.9010 C   0  0  0  0  0  0  0  0  0  0  0  0
   -7.4584   18.3003  -33.4284 H   0  0  0  0  0  0  0  0  0  0  0  0
   -6.4945   17.6846  -34.8587 H   0  0  0  0  0  0  0  0  0  0  0  0
   -5.5770   17.4520  -32.9970 N   0  0  0  0  0  0  0  0  0  0  0  0
   -6.1320   17.3450  -31.6370 C   0  0  0  0  0  0  0  0  0  0  0  0
   -5.3298   17.4997  -30.9004 H   0  0  0  0  0  0  0  0  0  0  0  0
   -6.9104   18.1096  -31.4974 H   0  0  0  0  0  0  0  0  0  0  0  0
   -6.5703   16.3458  -31.4974 H   0  0  0  0  0  0  0  0  0  0  0  0
   -4.1830   17.9470  -32.9830 C   0  0  0  0  0  0  0  0  0  0  0  0
   -3.5921   17.3268  -32.2929 H   0  0  0  0  0  0  0  0  0  0  0  0
   -3.7884   17.8849  -34.0079 H   0  0  0  0  0  0  0  0  0  0  0  0
   -4.1010   19.4140  -32.5280 C   0  0  0  0  0  0  0  0  0  0  0  0
   -4.1285   19.4534  -31.4290 H   0  0  0  0  0  0  0  0  0  0  0  0
   -3.1622   19.8485  -32.9019 H   0  0  0  0  0  0  0  0  0  0  0  0
   -4.7430   22.2850  -31.8800 C   0  0  0  0  0  0  0  0  0  0  0  0
   -3.6685   22.0889  -32.0100 H   0  0  0  0  0  0  0  0  0  0  0  0
   -5.1590   23.4420  -31.2150 C   0  0  0  0  0  0  0  0  0  0  0  0
   -4.1720   24.3840  -30.7680 N   0  0  0  0  0  0  0  0  0  0  0  0
   -3.6480   24.4710  -29.5760 C   0  0  0  0  0  0  0  0  0  0  0  0
   -4.3250   23.8720  -28.5050 C   0  0  0  0  0  0  0  0  0  0  0  0
   -5.2727   23.3409  -28.6775 H   0  0  0  0  0  0  0  0  0  0  0  0
   -3.7900   23.9530  -27.2180 C   0  0  0  0  0  0  0  0  0  0  0  0
   -4.3095   23.4762  -26.3738 H   0  0  0  0  0  0  0  0  0  0  0  0
   -2.5970   24.6390  -27.0060 C   0  0  0  0  0  0  0  0  0  0  0  0
   -2.1641   24.7019  -25.9967 H   0  0  0  0  0  0  0  0  0  0  0  0
   -1.9560   25.2460  -28.0870 C   0  0  0  0  0  0  0  0  0  0  0  0
   -1.0168   25.7960  -27.9276 H   0  0  0  0  0  0  0  0  0  0  0  0
   -2.4870   25.1610  -29.3380 N   0  0  0  0  0  0  0  0  0  0  0  0
   -1.9920   25.6720  -30.1010 H   0  0  0  0  0  0  0  0  0  0  0  0
  1  2  1  0
  2  3  2  0
  3  4  1  0
  3  5  1  0
  5  6  1  0
  6  7  1  0
  7  8  1  0
  7  9  1  0
  7 10  1  0
  5 11  2  0
 11 12  1  0
 12 13  1  0
 13 14  1  0
 13 15  1  0
 13 16  1  0
 16 17  1  0
 16 18  1  0
 16 19  1  0
 19 20  1  0
 20 21  1  0
 20 22  1  0
 20 23  1  0
 19 24  1  0
 24 25  1  0
 24 26  1  0
 24 27  1  0
 27 28  1  0
 27 29  1  0
 11 30  1  0
 30 31  1  0
 30 32  2  0
 32 33  1  0
 33 34  2  0
 34 35  1  0
 35 36  1  0
 35 37  2  0
 37 38  1  0
 37 39  1  0
 39 40  1  0
 39 41  2  0
 41 42  1  0
 41 43  1  0
 43 44  1  0
 32  2  1  0
 43 34  1  0
 27 12  1  0
M  END
>  <UniqueID>  (21) 
21

>  <SMILES>  (21) 
COc1ccc(/N=c2/cccc[nH]2)cc1N1CCN(C)CC1

>  <Energy>  (21) 
66.03285837934145

>  <Genealogy>  (21) 
COc1ccc(/N=c2/cccc[nH]2)cc1N1CCN(C)CC1 (cis-trans isomerization)
COc1ccc(/N=c2/cccc[nH]2)cc1N1CCN(C)CC1 (3D coordinates assigned)
COc1ccc(/N=c2/cccc[nH]2)cc1N1CCN(C)CC1 (nonaromatic ring conformer: 66.03285837934145 kcal/mol)

>  <smiles>  (21) 
COc1ccc(N=c2cccc[nH]2)cc1N1CCN(C)CC1

>  <score_type>  (21) 
oracle

>  <origin>  (21) 
adg

>  <m_score__min__energy>  (21) 
-8.1699999999999999

>  <m_primary>  (21) 
energy

$$$$
21:0
     RDKit          3D

 50 52  0  0  0  0  0  0  0  0999 V2000
   -2.8940   24.5620  -27.9180 C   0  0  0  0  0  0  0  0  0  0  0  0
   -2.5880   24.4630  -29.3050 O   0  0  0  0  0  0  0  0  0  0  0  0
   -2.2420   23.2680  -29.9560 C   0  0  0  0  0  0  0  0  0  0  0  0
   -0.9290   22.8020  -29.8320 C   0  0  0  0  0  0  0  0  0  0  0  0
   -0.5340   21.6200  -30.4630 C   0  0  0  0  0  0  0  0  0  0  0  0
   -1.4510   20.8910  -31.2250 C   0  0  0  0  0  0  0  0  0  0  0  0
   -2.7740   21.3400  -31.3610 C   0  0  0  0  0  0  0  0  0  0  0  0
   -3.7390   20.5690  -32.1690 C   0  0  0  0  0  0  0  0  0  0  0  0
   -4.9750   21.0150  -32.4860 N   0  0  0  0  0  0  0  0  0  0  0  0
   -5.4930   20.0150  -33.2220 C   0  0  0  0  0  0  0  0  0  0  0  0
   -6.8590   20.0630  -33.8540 C   0  0  0  0  0  0  0  0  0  0  0  0
   -7.9230   19.6550  -32.9050 N   0  0  1  0  0  0  0  0  0  0  0  0
   -7.3600   18.8060  -31.8390 C   0  0  0  0  0  0  0  0  0  0  0  0
   -8.6970   20.8000  -32.3540 C   0  0  0  0  0  0  0  0  0  0  0  0
   -7.8460   21.9080  -31.7600 C   0  0  0  0  0  0  0  0  0  0  0  0
   -7.6160   21.9630  -30.3760 C   0  0  0  0  0  0  0  0  0  0  0  0
   -6.8360   22.9850  -29.8260 C   0  0  0  0  0  0  0  0  0  0  0  0
   -6.2970   23.9840  -30.6500 C   0  0  0  0  0  0  0  0  0  0  0  0
   -5.4290   25.0580  -30.0650 C   0  0  0  0  0  0  0  0  0  0  0  0
   -6.5260   23.9340  -32.0320 C   0  0  0  0  0  0  0  0  0  0  0  0
   -7.3050   22.9120  -32.5810 C   0  0  0  0  0  0  0  0  0  0  0  0
   -4.5590   19.0040  -33.3250 C   0  0  0  0  0  0  0  0  0  0  0  0
   -4.6850   17.7150  -34.0690 C   0  0  0  0  0  0  0  0  0  0  0  0
   -3.4890   19.3770  -32.6680 O   0  0  0  0  0  0  0  0  0  0  0  0
   -3.1650   22.5320  -30.7230 C   0  0  0  0  0  0  0  0  0  0  0  0
   -2.0116   24.2765  -27.3265 H   0  0  0  0  0  0  0  0  0  0  0  0
   -3.1769   25.5975  -27.6779 H   0  0  0  0  0  0  0  0  0  0  0  0
   -3.7299   23.8885  -27.6779 H   0  0  0  0  0  0  0  0  0  0  0  0
   -0.2022   23.3705  -29.2332 H   0  0  0  0  0  0  0  0  0  0  0  0
    0.5011   21.2623  -30.3599 H   0  0  0  0  0  0  0  0  0  0  0  0
   -1.1346   19.9612  -31.7204 H   0  0  0  0  0  0  0  0  0  0  0  0
   -7.0586   21.0908  -34.1914 H   0  0  0  0  0  0  0  0  0  0  0  0
   -6.8681   19.3589  -34.6991 H   0  0  0  0  0  0  0  0  0  0  0  0
   -8.6050   19.0530  -33.4250 H   0  0  0  0  0  0  0  0  0  0  0  0
   -7.6344   19.2197  -30.8574 H   0  0  0  0  0  0  0  0  0  0  0  0
   -7.7613   17.7861  -31.9322 H   0  0  0  0  0  0  0  0  0  0  0  0
   -6.2643   18.7788  -31.9322 H   0  0  0  0  0  0  0  0  0  0  0  0
   -9.3011   21.2292  -33.1669 H   0  0  0  0  0  0  0  0  0  0  0  0
   -9.3063   20.3983  -31.5309 H   0  0  0  0  0  0  0  0  0  0  0  0
   -8.0528   21.1962  -29.7193 H   0  0  0  0  0  0  0  0  0  0  0  0
   -6.6444   23.0056  -28.7430 H   0  0  0  0  0  0  0  0  0  0  0  0
   -5.4711   25.0059  -28.9670 H   0  0  0  0  0  0  0  0  0  0  0  0
   -4.3911   24.9134  -30.3994 H   0  0  0  0  0  0  0  0  0  0  0  0
   -5.7882   26.0425  -30.3994 H   0  0  0  0  0  0  0  0  0  0  0  0
   -6.0905   24.7027  -32.6873 H   0  0  0  0  0  0  0  0  0  0  0  0
   -7.4962   22.8933  -33.6641 H   0  0  0  0  0  0  0  0  0  0  0  0
   -4.7662   16.8844  -33.3524 H   0  0  0  0  0  0  0  0  0  0  0  0
   -5.5847   17.7430  -34.7013 H   0  0  0  0  0  0  0  0  0  0  0  0
   -3.7969   17.5683  -34.7013 H   0  0  0  0  0  0  0  0  0  0  0  0
   -4.1997   22.8913  -30.8244 H   0  0  0  0  0  0  0  0  0  0  0  0
  1  2  1  0
  2  3  1  0
  3  4  2  0
  4  5  1  0
  5  6  2  0
  6  7  1  0
  7  8  1  0
  8  9  2  0
  9 10  1  0
 10 11  1  0
 11 12  1  0
 12 13  1  0
 12 14  1  0
 14 15  1  0
 15 16  2  0
 16 17  1  0
 17 18  2  0
 18 19  1  0
 18 20  1  0
 20 21  2  0
 10 22  2  0
 22 23  1  0
 22 24  1  0
  7 25  2  0
 25  3  1  0
 24  8  1  0
 21 15  1  0
  1 26  1  0
  1 27  1  0
  1 28  1  0
  4 29  1  0
  5 30  1  0
  6 31  1  0
 11 32  1  0
 11 33  1  0
 12 34  1  6
 13 35  1  0
 13 36  1  0
 13 37  1  0
 14 38  1  0
 14 39  1  0
 16 40  1  0
 17 41  1  0
 19 42  1  0
 19 43  1  0
 19 44  1  0
 20 45  1  0
 21 46  1  0
 23 47  1  0
 23 48  1  0
 23 49  1  0
 25 50  1  0
M  CHG  1  12   1
M  END
>  <UniqueID>  (22) 
22

>  <SMILES>  (22) 
COc1cccc(-c2nc(C[N@@H+](C)Cc3ccc(C)cc3)c(C)o2)c1

>  <Energy>  (22) 
81.42645522444073

>  <Genealogy>  (22) 
COc1cccc(-c2nc(C[NH+](C)Cc3ccc(C)cc3)c(C)o2)c1 (protonated)
COc1cccc(-c2nc(C[N@@H+](C)Cc3ccc(C)cc3)c(C)o2)c1 (chirality)
COc1cccc(-c2nc(C[N@@H+](C)Cc3ccc(C)cc3)c(C)o2)c1 (3D coordinates assigned)
COc1cccc(-c2nc(C[N@@H+](C)Cc3ccc(C)cc3)c(C)o2)c1 (optimized conformer: 81.42645522444073 kcal/mol)

>  <smiles>  (22) 
COc1cccc(-c2nc(CN(C)Cc3ccc(C)cc3)c(C)o2)c1

>  <score_type>  (22) 
oracle

>  <origin>  (22) 
adg

>  <m_score__min__energy>  (22) 
-8.0199999999999996

>  <m_primary>  (22) 
energy

$$$$
22:0
     RDKit          3D

 17 18  0  0  0  0  0  0  0  0999 V2000
   -7.2480   22.6290  -31.7930 Br  0  0  0  0  0  0  0  0  0  0  0  0
   -6.9510   23.5110  -30.0950 C   0  0  0  0  0  0  0  0  0  0  0  0
   -5.5910   24.1300  -30.0780 C   0  0  0  0  0  0  0  0  0  0  0  0
   -5.1500   25.2040  -30.8470 C   0  0  0  0  0  0  0  0  0  0  0  0
   -3.8680   25.4340  -30.6150 O   0  0  0  0  0  0  0  0  0  0  0  0
   -3.4650   24.5460  -29.7390 C   0  0  0  0  0  0  0  0  0  0  0  0
   -2.2120   24.4210  -29.2340 N   0  0  0  0  0  0  0  0  0  0  0  0
   -1.9580   23.4250  -28.3320 C   0  0  0  0  0  0  0  0  0  0  0  0
   -2.9830   22.5360  -27.9350 C   0  0  0  0  0  0  0  0  0  0  0  0
   -4.2770   22.6770  -28.4680 C   0  0  0  0  0  0  0  0  0  0  0  0
   -4.4820   23.7110  -29.3760 C   0  0  0  0  0  0  0  0  0  0  0  0
   -7.7105   24.2938  -29.9522 H   0  0  0  0  0  0  0  0  0  0  0  0
   -7.0241   22.7718  -29.2837 H   0  0  0  0  0  0  0  0  0  0  0  0
   -5.7765   25.7777  -31.5458 H   0  0  0  0  0  0  0  0  0  0  0  0
   -0.9475   23.3146  -27.9118 H   0  0  0  0  0  0  0  0  0  0  0  0
   -2.7691   21.7359  -27.2110 H   0  0  0  0  0  0  0  0  0  0  0  0
   -5.0928   21.9981  -28.1790 H   0  0  0  0  0  0  0  0  0  0  0  0
  1  2  1  0
  2  3  1  0
  3  4  2  0
  4  5  1  0
  5  6  1  0
  6  7  2  0
  7  8  1  0
  8  9  2  0
  9 10  1  0
 10 11  2  0
 11  3  1  0
 11  6  1  0
  2 12  1  0
  2 13  1  0
  4 14  1  0
  8 15  1  0
  9 16  1  0
 10 17  1  0
M  END
>  <UniqueID>  (23) 
23

>  <SMILES>  (23) 
BrCc1coc2ncccc12

>  <Energy>  (23) 
52.38230743947137

>  <Genealogy>  (23) 
BrCc1coc2ncccc12 (3D coordinates assigned)
BrCc1coc2ncccc12 (optimized conformer: 52.38230743947137 kcal/mol)

>  <smiles>  (23) 
BrCc1coc2ncccc12

>  <score_type>  (23) 
oracle

>  <origin>  (23) 
adg

>  <m_score__min__energy>  (23) 
-5.6699999999999999

>  <m_primary>  (23) 
energy

$$$$
23:0
     RDKit          3D

 41 43  0  0  0  0  0  0  0  0999 V2000
   -4.3860   19.1160  -33.1420 C   0  0  0  0  0  0  0  0  0  0  0  0
   -5.7290   19.5860  -32.6810 C   0  0  0  0  0  0  0  0  0  0  0  0
   -6.7370   18.6540  -32.3380 C   0  0  0  0  0  0  0  0  0  0  0  0
   -8.0070   19.1070  -31.9290 C   0  0  0  0  0  0  0  0  0  0  0  0
   -9.1170   18.1500  -31.6120 C   0  0  0  0  0  0  0  0  0  0  0  0
   -8.2020   20.4870  -31.9120 C   0  0  0  0  0  0  0  0  0  0  0  0
   -9.3310   21.1640  -31.6230 N   0  0  0  0  0  0  0  0  0  0  0  0
   -9.0430   22.4550  -31.7880 N   0  0  0  0  0  0  0  0  0  0  0  0
   -7.7450   22.5400  -32.1640 C   0  0  0  0  0  0  0  0  0  0  0  0
   -7.0590   23.8110  -32.5620 C   0  0  0  0  0  0  0  0  0  0  0  0
   -6.1220   24.3130  -31.4590 C   0  0  0  0  0  0  0  0  0  0  0  0
   -5.1430   23.2870  -31.1010 N   0  0  0  0  0  0  0  0  0  0  0  0
   -3.8440   23.6100  -30.5700 C   0  0  0  0  0  0  0  0  0  0  0  0
   -3.5000   24.8180  -30.4510 O   0  0  0  0  0  0  0  0  0  0  0  0
   -2.9120   22.5470  -30.1290 C   0  0  0  0  0  0  0  0  0  0  0  0
   -2.9310   22.0980  -28.7980 C   0  0  0  0  0  0  0  0  0  0  0  0
   -2.0550   21.0960  -28.3810 C   0  0  0  0  0  0  0  0  0  0  0  0
   -1.1490   20.5470  -29.2950 C   0  0  0  0  0  0  0  0  0  0  0  0
   -0.1940   19.4720  -28.8660 C   0  0  0  0  0  0  0  0  0  0  0  0
    0.1820   18.7200  -29.9640 F   0  0  0  0  0  0  0  0  0  0  0  0
    0.9300   20.0460  -28.3020 F   0  0  0  0  0  0  0  0  0  0  0  0
   -0.7860   18.6390  -27.9320 F   0  0  0  0  0  0  0  0  0  0  0  0
   -1.1320   21.0030  -30.5770 N   0  0  0  0  0  0  0  0  0  0  0  0
   -1.9790   21.9750  -31.0100 C   0  0  0  0  0  0  0  0  0  0  0  0
   -7.2140   21.3130  -32.2500 N   0  0  0  0  0  0  0  0  0  0  0  0
   -6.0040   20.9220  -32.6390 N   0  0  0  0  0  0  0  0  0  0  0  0
   -3.7551   18.8952  -32.2684 H   0  0  0  0  0  0  0  0  0  0  0  0
   -4.5043   18.2058  -33.7483 H   0  0  0  0  0  0  0  0  0  0  0  0
   -3.9109   19.9013  -33.7483 H   0  0  0  0  0  0  0  0  0  0  0  0
   -6.5290   17.5751  -32.3907 H   0  0  0  0  0  0  0  0  0  0  0  0
   -9.2224   18.0592  -30.5208 H   0  0  0  0  0  0  0  0  0  0  0  0
  -10.0579   18.5246  -32.0413 H   0  0  0  0  0  0  0  0  0  0  0  0
   -8.8850   17.1642  -32.0413 H   0  0  0  0  0  0  0  0  0  0  0  0
   -6.4720   23.6297  -33.4744 H   0  0  0  0  0  0  0  0  0  0  0  0
   -7.8280   24.5779  -32.7368 H   0  0  0  0  0  0  0  0  0  0  0  0
   -5.5918   25.2081  -31.8162 H   0  0  0  0  0  0  0  0  0  0  0  0
   -6.7224   24.5527  -30.5690 H   0  0  0  0  0  0  0  0  0  0  0  0
   -5.4830   22.3000  -31.0630 H   0  0  0  0  0  0  0  0  0  0  0  0
   -3.6399   22.5386  -28.0815 H   0  0  0  0  0  0  0  0  0  0  0  0
   -2.0763   20.7397  -27.3405 H   0  0  0  0  0  0  0  0  0  0  0  0
   -1.9333   22.3150  -32.0551 H   0  0  0  0  0  0  0  0  0  0  0  0
  1  2  1  0
  2  3  1  0
  3  4  2  0
  4  5  1  0
  4  6  1  0
  6  7  2  0
  7  8  1  0
  8  9  2  0
  9 10  1  0
 10 11  1  0
 11 12  1  0
 12 13  1  0
 13 14  2  0
 13 15  1  0
 15 16  2  0
 16 17  1  0
 17 18  2  0
 18 19  1  0
 19 20  1  0
 19 21  1  0
 19 22  1  0
 18 23  1  0
 23 24  2  0
  9 25  1  0
 25 26  1  0
 26  2  2  0
 25  6  1  0
 24 15  1  0
  1 27  1  0
  1 28  1  0
  1 29  1  0
  3 30  1  0
  5 31  1  0
  5 32  1  0
  5 33  1  0
 10 34  1  0
 10 35  1  0
 11 36  1  0
 11 37  1  0
 12 38  1  0
 16 39  1  0
 17 40  1  0
 24 41  1  0
M  END
>  <UniqueID>  (24) 
24

>  <SMILES>  (24) 
Cc1cc(C)c2nnc(CCNC(=O)c3ccc(C(F)(F)F)nc3)n2n1

>  <Energy>  (24) 
81.32762063509564

>  <Genealogy>  (24) 
Cc1cc(C)c2nnc(CCNC(=O)c3ccc(C(F)(F)F)nc3)n2n1 (3D coordinates assigned)
Cc1cc(C)c2nnc(CCNC(=O)c3ccc(C(F)(F)F)nc3)n2n1 (optimized conformer: 81.32762063509564 kcal/mol)

>  <smiles>  (24) 
Cc1cc(C)c2nnc(CCNC(=O)c3ccc(C(F)(F)F)nc3)n2n1

>  <score_type>  (24) 
oracle

>  <origin>  (24) 
adg

>  <m_score__min__energy>  (24) 
-8.5199999999999996

>  <m_primary>  (24) 
energy

$$$$
24:0
     RDKit          3D

 58 61  0  0  0  0  0  0  0  0999 V2000
  -10.8446   21.7628  -31.9832 H   0  0  0  0  0  0  0  0  0  0  0  0
   -9.8750   21.2510  -32.0720 C   0  0  0  0  0  0  0  0  0  0  0  0
   -9.7090   19.9550  -32.4000 N   0  0  0  0  0  0  0  0  0  0  0  0
   -8.4080   19.7030  -32.4090 N   0  0  0  0  0  0  0  0  0  0  0  0
   -7.8610   18.3800  -32.6910 C   0  0  0  0  0  0  0  0  0  0  0  0
   -7.6470   17.8623  -31.7443 H   0  0  0  0  0  0  0  0  0  0  0  0
   -8.5918   17.7970  -33.2706 H   0  0  0  0  0  0  0  0  0  0  0  0
   -6.9318   18.4833  -33.2706 H   0  0  0  0  0  0  0  0  0  0  0  0
   -7.7270   20.8310  -32.1010 C   0  0  0  0  0  0  0  0  0  0  0  0
   -6.2570   20.9680  -31.9840 C   0  0  0  0  0  0  0  0  0  0  0  0
   -5.4750   19.8500  -31.6560 C   0  0  0  0  0  0  0  0  0  0  0  0
   -5.9559   18.8721  -31.5065 H   0  0  0  0  0  0  0  0  0  0  0  0
   -4.0910   19.9700  -31.5180 C   0  0  0  0  0  0  0  0  0  0  0  0
   -3.4879   19.0831  -31.2736 H   0  0  0  0  0  0  0  0  0  0  0  0
   -3.4620   21.2160  -31.6890 C   0  0  0  0  0  0  0  0  0  0  0  0
   -2.0290   21.3390  -31.5290 N   0  0  0  0  0  0  0  0  0  0  0  0
   -1.5410   21.1390  -32.4350 H   0  0  0  0  0  0  0  0  0  0  0  0
   -1.8240   22.3370  -31.2870 H   0  0  0  0  0  0  0  0  0  0  0  0
   -1.5180   20.4420  -30.4620 C   0  0  0  0  0  0  0  0  0  0  0  0
   -1.5670   19.4081  -30.8345 H   0  0  0  0  0  0  0  0  0  0  0  0
   -2.4080   20.5350  -29.2010 C   0  0  0  0  0  0  0  0  0  0  0  0
   -3.4634   20.4605  -29.5018 H   0  0  0  0  0  0  0  0  0  0  0  0
   -2.1354   19.7119  -28.5240 H   0  0  0  0  0  0  0  0  0  0  0  0
   -2.1930   21.8610  -28.4590 C   0  0  0  0  0  0  0  0  0  0  0  0
   -2.6352   22.6761  -29.0507 H   0  0  0  0  0  0  0  0  0  0  0  0
   -2.6738   21.7834  -27.4727 H   0  0  0  0  0  0  0  0  0  0  0  0
   -0.7640   22.1440  -28.2510 N   0  0  0  0  0  0  0  0  0  0  0  0
   -0.3570   23.3340  -27.5360 C   0  0  0  0  0  0  0  0  0  0  0  0
    0.8240   23.4240  -27.0970 O   0  0  0  0  0  0  0  0  0  0  0  0
   -1.3240   24.4780  -27.3220 C   0  0  0  0  0  0  0  0  0  0  0  0
   -2.2845   24.0623  -26.9834 H   0  0  0  0  0  0  0  0  0  0  0  0
   -0.8706   25.1474  -26.5761 H   0  0  0  0  0  0  0  0  0  0  0  0
   -1.5760   25.3160  -28.5830 C   0  0  0  0  0  0  0  0  0  0  0  0
   -2.1423   26.2194  -28.3125 H   0  0  0  0  0  0  0  0  0  0  0  0
   -0.6101   25.5991  -29.0266 H   0  0  0  0  0  0  0  0  0  0  0  0
   -2.3420   24.5380  -29.5580 N   0  0  0  0  0  0  0  0  0  0  0  0
   -3.6310   24.5980  -29.7460 C   0  0  0  0  0  0  0  0  0  0  0  0
   -4.1210   25.5410  -30.5970 N   0  0  0  0  0  0  0  0  0  0  0  0
   -5.4520   25.6680  -30.8530 C   0  0  0  0  0  0  0  0  0  0  0  0
   -5.8071   26.4443  -31.5467 H   0  0  0  0  0  0  0  0  0  0  0  0
   -6.3660   24.8130  -30.2350 C   0  0  0  0  0  0  0  0  0  0  0  0
   -7.4424   24.9075  -30.4410 H   0  0  0  0  0  0  0  0  0  0  0  0
   -5.9000   23.8370  -29.3530 C   0  0  0  0  0  0  0  0  0  0  0  0
   -6.6106   23.1610  -28.8549 H   0  0  0  0  0  0  0  0  0  0  0  0
   -4.5310   23.7190  -29.1030 C   0  0  0  0  0  0  0  0  0  0  0  0
   -4.1571   22.9491  -28.4121 H   0  0  0  0  0  0  0  0  0  0  0  0
    0.2350   21.1530  -28.6800 C   0  0  0  0  0  0  0  0  0  0  0  0
    1.2398   21.5934  -28.6003 H   0  0  0  0  0  0  0  0  0  0  0  0
    0.1585   20.2663  -28.0335 H   0  0  0  0  0  0  0  0  0  0  0  0
   -0.0190   20.7320  -30.1350 C   0  0  0  0  0  0  0  0  0  0  0  0
    0.3282   21.5411  -30.7944 H   0  0  0  0  0  0  0  0  0  0  0  0
    0.5281   19.7909  -30.2932 H   0  0  0  0  0  0  0  0  0  0  0  0
   -4.2500   22.3390  -31.9950 C   0  0  0  0  0  0  0  0  0  0  0  0
   -3.7729   23.3222  -32.1206 H   0  0  0  0  0  0  0  0  0  0  0  0
   -5.6340   22.2170  -32.1410 C   0  0  0  0  0  0  0  0  0  0  0  0
   -6.2391   23.1039  -32.3802 H   0  0  0  0  0  0  0  0  0  0  0  0
   -8.6420   21.8400  -31.8640 C   0  0  0  0  0  0  0  0  0  0  0  0
   -8.4347   22.8807  -31.5742 H   0  0  0  0  0  0  0  0  0  0  0  0
  1  2  1  0
  2  3  2  0
  3  4  1  0
  4  5  1  0
  5  6  1  0
  5  7  1  0
  5  8  1  0
  4  9  1  0
  9 10  1  0
 10 11  2  0
 11 12  1  0
 11 13  1  0
 13 14  1  0
 13 15  2  0
 15 16  1  0
 16 17  1  0
 16 18  1  0
 16 19  1  0
 19 20  1  0
 19 21  1  0
 21 22  1  0
 21 23  1  0
 21 24  1  0
 24 25  1  0
 24 26  1  0
 24 27  1  0
 27 28  1  0
 28 29  2  0
 28 30  1  0
 30 31  1  0
 30 32  1  0
 30 33  1  0
 33 34  1  0
 33 35  1  0
 33 36  1  0
 36 37  2  0
 37 38  1  0
 38 39  1  0
 39 40  1  0
 39 41  2  0
 41 42  1  0
 41 43  1  0
 43 44  1  0
 43 45  2  0
 45 46  1  0
 27 47  1  0
 47 48  1  0
 47 49  1  0
 47 50  1  0
 50 51  1  0
 50 52  1  0
 15 53  1  0
 53 54  1  0
 53 55  2  0
 55 56  1  0
  9 57  2  0
 57 58  1  0
 57  2  1  0
 55 10  1  0
 50 19  1  0
 45 37  1  0
M  CHG  2  16   1  38  -1
M  END
>  <UniqueID>  (25) 
25

>  <SMILES>  (25) 
Cn1nccc1-c1ccc([NH2+]C2CCN(C(=O)CC/N=c3\cccc[n-]3)CC2)cc1

>  <Energy>  (25) 
101.92173243696399

>  <Genealogy>  (25) 
Cn1nccc1-c1ccc([NH2+]C2CCN(C(=O)CCN=c3cccc[n-]3)CC2)cc1 (protonated)
Cn1nccc1-c1ccc([NH2+]C2CCN(C(=O)CC/N=c3\cccc[n-]3)CC2)cc1 (cis-trans isomerization)
Cn1nccc1-c1ccc([NH2+]C2CCN(C(=O)CC/N=c3\cccc[n-]3)CC2)cc1 (3D coordinates assigned)
Cn1nccc1-c1ccc([NH2+]C2CCN(C(=O)CC/N=c3\cccc[n-]3)CC2)cc1 (nonaromatic ring conformer: 101.92173243696399 kcal/mol)

>  <smiles>  (25) 
Cn1nccc1-c1ccc(NC2CCN(C(=O)CCN=c3cccc[nH]3)CC2)cc1

>  <score_type>  (25) 
oracle

>  <origin>  (25) 
adg

>  <m_score__min__energy>  (25) 
-10.76

>  <m_primary>  (25) 
energy

$$$$
25:0
     RDKit          3D

 60 64  0  0  0  0  0  0  0  0999 V2000
   -5.3414   14.8364  -33.7118 H   0  0  0  0  0  0  0  0  0  0  0  0
   -5.4950   15.9110  -33.5340 C   0  0  0  0  0  0  0  0  0  0  0  0
   -5.5150   16.8010  -34.6120 C   0  0  0  0  0  0  0  0  0  0  0  0
   -5.3727   16.4268  -35.6366 H   0  0  0  0  0  0  0  0  0  0  0  0
   -5.7160   18.1680  -34.3880 C   0  0  0  0  0  0  0  0  0  0  0  0
   -5.7202   18.8695  -35.2352 H   0  0  0  0  0  0  0  0  0  0  0  0
   -5.9120   18.6430  -33.0830 C   0  0  0  0  0  0  0  0  0  0  0  0
   -6.0850   20.0460  -32.8480 N   0  0  0  0  0  0  0  0  0  0  0  0
   -5.2170   21.0890  -33.0200 C   0  0  0  0  0  0  0  0  0  0  0  0
   -3.9850   21.0020  -33.4380 N   0  0  0  0  0  0  0  0  0  0  0  0
   -2.8100   20.5840  -32.6770 C   0  0  0  0  0  0  0  0  0  0  0  0
   -1.9017   20.9460  -33.1810 H   0  0  0  0  0  0  0  0  0  0  0  0
   -2.7904   19.4858  -32.6168 H   0  0  0  0  0  0  0  0  0  0  0  0
   -2.8700   21.1640  -31.2620 C   0  0  0  0  0  0  0  0  0  0  0  0
   -1.9067   20.9818  -30.7631 H   0  0  0  0  0  0  0  0  0  0  0  0
   -3.6959   20.6704  -30.7288 H   0  0  0  0  0  0  0  0  0  0  0  0
   -3.1470   22.6750  -31.2670 C   0  0  0  0  0  0  0  0  0  0  0  0
   -4.2135   22.8482  -31.4735 H   0  0  0  0  0  0  0  0  0  0  0  0
   -2.5317   23.1501  -32.0453 H   0  0  0  0  0  0  0  0  0  0  0  0
   -2.8020   23.2620  -29.9540 N   0  0  0  0  0  0  0  0  0  0  0  0
   -2.1980   22.2640  -29.0500 C   0  0  0  0  0  0  0  0  0  0  0  0
   -1.4318   21.6903  -29.5921 H   0  0  0  0  0  0  0  0  0  0  0  0
   -2.9728   21.5736  -28.6854 H   0  0  0  0  0  0  0  0  0  0  0  0
   -1.5530   22.9940  -27.8660 C   0  0  0  0  0  0  0  0  0  0  0  0
   -0.5496   23.3388  -28.1563 H   0  0  0  0  0  0  0  0  0  0  0  0
   -1.4838   22.3005  -27.0150 H   0  0  0  0  0  0  0  0  0  0  0  0
   -2.3670   24.1520  -27.4710 N   0  0  0  0  0  0  0  0  0  0  0  0
   -1.7540   25.2760  -26.8120 C   0  0  0  0  0  0  0  0  0  0  0  0
   -1.7220   25.3360  -25.4080 C   0  0  0  0  0  0  0  0  0  0  0  0
   -2.1530   24.5151  -24.8161 H   0  0  0  0  0  0  0  0  0  0  0  0
   -1.1460   26.4320  -24.7590 C   0  0  0  0  0  0  0  0  0  0  0  0
   -1.1242   26.4710  -23.6599 H   0  0  0  0  0  0  0  0  0  0  0  0
   -0.5980   27.4780  -25.5060 C   0  0  0  0  0  0  0  0  0  0  0  0
   -0.1452   28.3403  -24.9948 H   0  0  0  0  0  0  0  0  0  0  0  0
   -0.6250   27.4290  -26.9020 C   0  0  0  0  0  0  0  0  0  0  0  0
   -0.1920   28.2533  -27.4877 H   0  0  0  0  0  0  0  0  0  0  0  0
   -1.2010   26.3350  -27.5580 C   0  0  0  0  0  0  0  0  0  0  0  0
   -1.1910   26.2970  -28.9130 F   0  0  0  0  0  0  0  0  0  0  0  0
   -3.7900   24.1750  -27.8230 C   0  0  0  0  0  0  0  0  0  0  0  0
   -4.2038   25.1663  -27.5862 H   0  0  0  0  0  0  0  0  0  0  0  0
   -4.3080   23.3951  -27.2456 H   0  0  0  0  0  0  0  0  0  0  0  0
   -3.9890   23.8900  -29.3280 C   0  0  0  0  0  0  0  0  0  0  0  0
   -4.1960   24.8405  -29.8416 H   0  0  0  0  0  0  0  0  0  0  0  0
   -4.8272   23.1841  -29.4240 H   0  0  0  0  0  0  0  0  0  0  0  0
   -5.7720   22.2860  -32.7070 N   0  0  0  0  0  0  0  0  0  0  0  0
   -5.3280   23.2310  -32.7540 H   0  0  0  0  0  0  0  0  0  0  0  0
   -7.0250   21.9840  -32.3330 C   0  0  0  0  0  0  0  0  0  0  0  0
   -8.0350   22.8520  -31.9230 C   0  0  0  0  0  0  0  0  0  0  0  0
   -7.8634   23.9368  -31.8618 H   0  0  0  0  0  0  0  0  0  0  0  0
   -9.2820   22.2920  -31.5900 C   0  0  0  0  0  0  0  0  0  0  0  0
  -10.1037   22.9449  -31.2606 H   0  0  0  0  0  0  0  0  0  0  0  0
   -9.4860   20.8950  -31.6760 C   0  0  0  0  0  0  0  0  0  0  0  0
  -10.4654   20.4690  -31.4127 H   0  0  0  0  0  0  0  0  0  0  0  0
   -8.4450   20.0460  -32.0960 C   0  0  0  0  0  0  0  0  0  0  0  0
   -8.5918   18.9583  -32.1689 H   0  0  0  0  0  0  0  0  0  0  0  0
   -7.2190   20.6330  -32.4170 C   0  0  0  0  0  0  0  0  0  0  0  0
   -5.8710   17.7500  -32.0040 C   0  0  0  0  0  0  0  0  0  0  0  0
   -5.9972   18.1236  -30.9771 H   0  0  0  0  0  0  0  0  0  0  0  0
   -5.6700   16.3850  -32.2300 C   0  0  0  0  0  0  0  0  0  0  0  0
   -5.6495   15.6841  -31.3824 H   0  0  0  0  0  0  0  0  0  0  0  0
  1  2  1  0
  2  3  2  0
  3  4  1  0
  3  5  1  0
  5  6  1  0
  5  7  2  0
  7  8  1  0
  8  9  1  0
  9 10  2  0
 10 11  1  0
 11 12  1  0
 11 13  1  0
 11 14  1  0
 14 15  1  0
 14 16  1  0
 14 17  1  0
 17 18  1  0
 17 19  1  0
 17 20  1  0
 20 21  1  0
 21 22  1  0
 21 23  1  0
 21 24  1  0
 24 25  1  0
 24 26  1  0
 24 27  1  0
 27 28  1  0
 28 29  2  0
 29 30  1  0
 29 31  1  0
 31 32  1  0
 31 33  2  0
 33 34  1  0
 33 35  1  0
 35 36  1  0
 35 37  2  0
 37 38  1  0
 27 39  1  0
 39 40  1  0
 39 41  1  0
 39 42  1  0
 42 43  1  0
 42 44  1  0
  9 45  1  0
 45 46  1  0
 45 47  1  0
 47 48  2  0
 48 49  1  0
 48 50  1  0
 50 51  1  0
 50 52  2  0
 52 53  1  0
 52 54  1  0
 54 55  1  0
 54 56  2  0
  7 57  1  0
 57 58  1  0
 57 59  2  0
 59 60  1  0
 59  2  1  0
 56  8  1  0
 42 20  1  0
 56 47  1  0
 37 28  1  0
M  END
>  <UniqueID>  (26) 
26

>  <SMILES>  (26) 
Fc1ccccc1N1CCN(CCC/N=c2/[nH]c3ccccc3n2-c2ccccc2)CC1

>  <Energy>  (26) 
123.12775328083427

>  <Genealogy>  (26) 
Fc1ccccc1N1CCN(CCC/N=c2/[nH]c3ccccc3n2-c2ccccc2)CC1 (cis-trans isomerization)
Fc1ccccc1N1CCN(CCC/N=c2/[nH]c3ccccc3n2-c2ccccc2)CC1 (3D coordinates assigned)
Fc1ccccc1N1CCN(CCC/N=c2/[nH]c3ccccc3n2-c2ccccc2)CC1 (nonaromatic ring conformer: 123.12775328083427 kcal/mol)

>  <smiles>  (26) 
Fc1ccccc1N1CCN(CCCN=c2[nH]c3ccccc3n2-c2ccccc2)CC1

>  <score_type>  (26) 
oracle

>  <origin>  (26) 
adg

>  <m_score__min__energy>  (26) 
-9.7200000000000006

>  <m_primary>  (26) 
energy

$$$$
26:0
     RDKit          3D

 28 30  0  0  0  0  0  0  0  0999 V2000
   -0.0980   23.0880  -25.3490 Br  0  0  0  0  0  0  0  0  0  0  0  0
   -1.1490   23.7540  -26.7970 C   0  0  0  0  0  0  0  0  0  0  0  0
   -0.7150   24.8670  -27.5250 C   0  0  0  0  0  0  0  0  0  0  0  0
   -1.4830   25.3550  -28.5860 C   0  0  0  0  0  0  0  0  0  0  0  0
   -2.6930   24.7240  -28.9340 C   0  0  0  0  0  0  0  0  0  0  0  0
   -3.4990   25.1870  -29.9850 O   0  0  0  0  0  0  0  0  0  0  0  0
   -4.6700   24.5590  -30.4370 C   0  0  0  0  0  0  0  0  0  0  0  0
   -5.9010   25.0890  -30.0450 C   0  0  0  0  0  0  0  0  0  0  0  0
   -7.0930   24.5080  -30.4770 C   0  0  0  0  0  0  0  0  0  0  0  0
   -7.0790   23.3730  -31.2950 C   0  0  0  0  0  0  0  0  0  0  0  0
   -8.7700   22.6460  -31.8410 Br  0  0  0  0  0  0  0  0  0  0  0  0
   -5.8440   22.8030  -31.6760 C   0  0  0  0  0  0  0  0  0  0  0  0
   -5.7680   21.6470  -32.4730 C   0  0  0  0  0  0  0  0  0  0  0  0
   -4.5260   21.1020  -32.8010 C   0  0  0  0  0  0  0  0  0  0  0  0
   -3.3640   21.7090  -32.3290 C   0  0  0  0  0  0  0  0  0  0  0  0
   -3.4420   22.8280  -31.5640 N   0  0  0  0  0  0  0  0  0  0  0  0
   -4.6340   23.3980  -31.2340 C   0  0  0  0  0  0  0  0  0  0  0  0
   -3.1290   23.6200  -28.1890 C   0  0  0  0  0  0  0  0  0  0  0  0
   -2.3580   23.1340  -27.1290 C   0  0  0  0  0  0  0  0  0  0  0  0
    0.2329   25.3592  -27.2618 H   0  0  0  0  0  0  0  0  0  0  0  0
   -1.1412   26.2347  -29.1510 H   0  0  0  0  0  0  0  0  0  0  0  0
   -5.9308   25.9722  -29.3900 H   0  0  0  0  0  0  0  0  0  0  0  0
   -8.0543   24.9467  -30.1714 H   0  0  0  0  0  0  0  0  0  0  0  0
   -6.6898   21.1712  -32.8388 H   0  0  0  0  0  0  0  0  0  0  0  0
   -4.4647   20.1999  -33.4275 H   0  0  0  0  0  0  0  0  0  0  0  0
   -2.3815   21.2808  -32.5766 H   0  0  0  0  0  0  0  0  0  0  0  0
   -4.0831   23.1332  -28.4397 H   0  0  0  0  0  0  0  0  0  0  0  0
   -2.7030   22.2617  -26.5545 H   0  0  0  0  0  0  0  0  0  0  0  0
  1  2  1  0
  2  3  2  0
  3  4  1  0
  4  5  2  0
  5  6  1  0
  6  7  1  0
  7  8  2  0
  8  9  1  0
  9 10  2  0
 10 11  1  0
 10 12  1  0
 12 13  2  0
 13 14  1  0
 14 15  2  0
 15 16  1  0
 16 17  2  0
  5 18  1  0
 18 19  2  0
 19  2  1  0
 17  7  1  0
 17 12  1  0
  3 20  1  0
  4 21  1  0
  8 22  1  0
  9 23  1  0
 13 24  1  0
 14 25  1  0
 15 26  1  0
 18 27  1  0
 19 28  1  0
M  END
>  <UniqueID>  (27) 
27

>  <SMILES>  (27) 
Brc1ccc(Oc2ccc(Br)c3cccnc23)cc1

>  <Energy>  (27) 
43.636028003923535

>  <Genealogy>  (27) 
Brc1ccc(Oc2ccc(Br)c3cccnc23)cc1 (3D coordinates assigned)
Brc1ccc(Oc2ccc(Br)c3cccnc23)cc1 (optimized conformer: 43.636028003923535 kcal/mol)

>  <smiles>  (27) 
Brc1ccc(Oc2ccc(Br)c3cccnc23)cc1

>  <score_type>  (27) 
oracle

>  <origin>  (27) 
adg

>  <m_score__min__energy>  (27) 
-8.1699999999999999

>  <m_primary>  (27) 
energy

$$$$
27:0
     RDKit          3D

 39 42  0  0  0  0  0  0  0  0999 V2000
   -3.7530   20.4760  -27.1690 N   0  0  0  0  0  0  0  0  0  0  0  0
   -3.1860   21.4820  -27.2370 C   0  0  0  0  0  0  0  0  0  0  0  0
   -2.4640   22.7650  -27.3220 C   0  0  2  0  0  0  0  0  0  0  0  0
   -3.2190   23.6890  -28.2560 C   0  0  0  0  0  0  0  0  0  0  0  0
   -4.1600   24.4630  -27.8140 N   0  0  0  0  0  0  0  0  0  0  0  0
   -2.8960   23.6640  -29.6930 C   0  0  0  0  0  0  0  0  0  0  0  0
   -3.4840   24.4450  -30.4910 O   0  0  0  0  0  0  0  0  0  0  0  0
   -1.9110   22.6760  -30.1840 C   0  0  0  0  0  0  0  0  0  0  0  0
   -1.9150   22.2980  -31.5370 C   0  0  0  0  0  0  0  0  0  0  0  0
   -1.1400   21.2230  -31.9680 C   0  0  0  0  0  0  0  0  0  0  0  0
   -0.3900   20.4940  -31.0490 C   0  0  0  0  0  0  0  0  0  0  0  0
   -0.3620   20.8710  -29.7050 C   0  0  0  0  0  0  0  0  0  0  0  0
   -1.0600   22.0150  -29.2570 C   0  0  0  0  0  0  0  0  0  0  0  0
   -0.9780   22.5730  -27.8090 C   0  0  2  0  0  0  0  0  0  0  0  0
   -0.2210   21.6730  -26.7630 C   0  0  0  0  0  0  0  0  0  0  0  0
   -0.4570   22.0070  -25.2790 C   0  0  0  0  0  0  0  0  0  0  0  0
    0.6370   23.3420  -24.7130 S   0  0  0  0  0  0  0  0  0  0  0  0
   -0.2500   24.7560  -25.4060 C   0  0  0  0  0  0  0  0  0  0  0  0
   -0.6680   25.7200  -24.4770 C   0  0  0  0  0  0  0  0  0  0  0  0
   -1.2640   26.9100  -24.8970 C   0  0  0  0  0  0  0  0  0  0  0  0
   -1.4570   27.1490  -26.2550 C   0  0  0  0  0  0  0  0  0  0  0  0
   -1.0760   26.1910  -27.1930 C   0  0  0  0  0  0  0  0  0  0  0  0
   -0.4730   24.9830  -26.7920 C   0  0  0  0  0  0  0  0  0  0  0  0
   -0.2930   23.9440  -27.8360 C   0  0  0  0  0  0  0  0  0  0  0  0
    0.4220   24.2520  -28.8330 O   0  0  0  0  0  0  0  0  0  0  0  0
   -2.4122   23.2078  -26.3164 H   0  0  0  0  0  0  0  0  0  0  0  0
   -4.5190   25.2700  -28.3720 H   0  0  0  0  0  0  0  0  0  0  0  0
   -2.5323   22.8527  -32.2590 H   0  0  0  0  0  0  0  0  0  0  0  0
   -1.1208   20.9506  -33.0336 H   0  0  0  0  0  0  0  0  0  0  0  0
    0.1833   19.6168  -31.3835 H   0  0  0  0  0  0  0  0  0  0  0  0
    0.2115   20.2690  -28.9848 H   0  0  0  0  0  0  0  0  0  0  0  0
   -0.5361   20.6318  -26.9265 H   0  0  0  0  0  0  0  0  0  0  0  0
    0.8493   21.8563  -26.9384 H   0  0  0  0  0  0  0  0  0  0  0  0
   -1.5026   22.3214  -25.1456 H   0  0  0  0  0  0  0  0  0  0  0  0
   -0.2388   21.1075  -24.6846 H   0  0  0  0  0  0  0  0  0  0  0  0
   -0.5240   25.5355  -23.4022 H   0  0  0  0  0  0  0  0  0  0  0  0
   -1.5810   27.6584  -24.1558 H   0  0  0  0  0  0  0  0  0  0  0  0
   -1.9104   28.0943  -26.5878 H   0  0  0  0  0  0  0  0  0  0  0  0
   -1.2489   26.3813  -28.2625 H   0  0  0  0  0  0  0  0  0  0  0  0
  1  2  3  0
  2  3  1  0
  3  4  1  0
  4  5  2  3
  4  6  1  0
  6  7  2  0
  6  8  1  0
  8  9  2  0
  9 10  1  0
 10 11  2  0
 11 12  1  0
 12 13  2  0
 13 14  1  0
 14 15  1  1
 15 16  1  0
 16 17  1  0
 17 18  1  0
 18 19  2  0
 19 20  1  0
 20 21  2  0
 21 22  1  0
 22 23  2  0
 23 24  1  0
 24 25  2  0
 14  3  1  0
 23 18  1  0
 13  8  1  0
 24 14  1  0
  3 26  1  1
  5 27  1  0
  9 28  1  0
 10 29  1  0
 11 30  1  0
 12 31  1  0
 15 32  1  0
 15 33  1  0
 16 34  1  0
 16 35  1  0
 19 36  1  0
 20 37  1  0
 21 38  1  0
 22 39  1  0
M  END
>  <UniqueID>  (28) 
28

>  <SMILES>  (28) 
N#C[C@@H]1C(=N)C(=O)c2ccccc2[C@]12CCSc1ccccc1C2=O

>  <Energy>  (28) 
77.65183095590152

>  <Genealogy>  (28) 
N#C[C@@H]1C(=N)C(=O)c2ccccc2[C@]12CCSc1ccccc1C2=O (chirality)
N#C[C@@H]1C(=N)C(=O)c2ccccc2[C@]12CCSc1ccccc1C2=O (3D coordinates assigned)
N#C[C@@H]1C(=N)C(=O)c2ccccc2[C@]12CCSc1ccccc1C2=O (nonaromatic ring conformer: 77.65183095590152 kcal/mol)

>  <smiles>  (28) 
N#CC1C(=N)C(=O)c2ccccc2C12CCSc1ccccc1C2=O

>  <score_type>  (28) 
oracle

>  <origin>  (28) 
adg

>  <m_score__min__energy>  (28) 
-5.7699999999999996

>  <m_primary>  (28) 
energy

$$$$
28:0
     RDKit          3D

 33 34  0  0  0  0  0  0  0  0999 V2000
   -1.0140   25.3190  -29.1120 N   0  0  0  0  0  0  0  0  0  0  0  0
   -1.7570   24.9280  -27.9540 C   0  0  0  0  0  0  0  0  0  0  0  0
   -1.3080   25.4910  -26.4840 S   0  0  0  0  0  0  0  0  0  0  0  0
   -2.9550   24.1460  -28.0740 N   0  0  0  0  0  0  0  0  0  0  0  0
   -3.2400   23.3020  -29.2010 C   0  0  0  0  0  0  0  0  0  0  0  0
   -3.2950   21.9080  -29.0390 C   0  0  0  0  0  0  0  0  0  0  0  0
   -3.6210   21.0790  -30.1150 C   0  0  0  0  0  0  0  0  0  0  0  0
   -3.9070   21.6330  -31.3750 C   0  0  0  0  0  0  0  0  0  0  0  0
   -4.2350   20.8470  -32.4920 O   0  0  0  0  0  0  0  0  0  0  0  0
   -4.7950   19.5360  -32.4430 C   0  0  0  0  0  0  0  0  0  0  0  0
   -6.2960   19.5980  -32.3280 C   0  0  0  0  0  0  0  0  0  0  0  0
   -6.9610   20.8280  -32.4520 C   0  0  0  0  0  0  0  0  0  0  0  0
   -8.3540   20.8920  -32.3390 C   0  0  0  0  0  0  0  0  0  0  0  0
   -9.0890   19.7300  -32.0910 C   0  0  0  0  0  0  0  0  0  0  0  0
   -8.4340   18.5040  -31.9530 C   0  0  0  0  0  0  0  0  0  0  0  0
   -7.0410   18.4360  -32.0660 C   0  0  0  0  0  0  0  0  0  0  0  0
   -3.8690   23.0230  -31.5330 C   0  0  0  0  0  0  0  0  0  0  0  0
   -3.5360   23.8600  -30.4620 C   0  0  0  0  0  0  0  0  0  0  0  0
   -3.4870   25.2380  -30.6860 O   0  0  0  0  0  0  0  0  0  0  0  0
   -0.1380   25.8790  -29.0150 H   0  0  0  0  0  0  0  0  0  0  0  0
   -1.3570   25.1020  -30.0720 H   0  0  0  0  0  0  0  0  0  0  0  0
   -3.6320   24.1520  -27.2770 H   0  0  0  0  0  0  0  0  0  0  0  0
   -3.0793   21.4648  -28.0556 H   0  0  0  0  0  0  0  0  0  0  0  0
   -3.6541   19.9883  -29.9758 H   0  0  0  0  0  0  0  0  0  0  0  0
   -4.5260   18.9946  -33.3620 H   0  0  0  0  0  0  0  0  0  0  0  0
   -4.3955   19.0153  -31.5603 H   0  0  0  0  0  0  0  0  0  0  0  0
   -6.3842   21.7458  -32.6389 H   0  0  0  0  0  0  0  0  0  0  0  0
   -8.8706   21.8573  -32.4454 H   0  0  0  0  0  0  0  0  0  0  0  0
  -10.1844   19.7806  -32.0043 H   0  0  0  0  0  0  0  0  0  0  0  0
   -9.0142   17.5906  -31.7552 H   0  0  0  0  0  0  0  0  0  0  0  0
   -6.5278   17.4701  -31.9494 H   0  0  0  0  0  0  0  0  0  0  0  0
   -4.1042   23.4639  -32.5129 H   0  0  0  0  0  0  0  0  0  0  0  0
   -3.6680   25.6540  -31.5900 H   0  0  0  0  0  0  0  0  0  0  0  0
  1  2  1  0
  2  3  2  0
  2  4  1  0
  4  5  1  0
  5  6  2  0
  6  7  1  0
  7  8  2  0
  8  9  1  0
  9 10  1  0
 10 11  1  0
 11 12  2  0
 12 13  1  0
 13 14  2  0
 14 15  1  0
 15 16  2  0
  8 17  1  0
 17 18  2  0
 18 19  1  0
 18  5  1  0
 16 11  1  0
  1 20  1  0
  1 21  1  0
  4 22  1  0
  6 23  1  0
  7 24  1  0
 10 25  1  0
 10 26  1  0
 12 27  1  0
 13 28  1  0
 14 29  1  0
 15 30  1  0
 16 31  1  0
 17 32  1  0
 19 33  1  0
M  END
>  <UniqueID>  (29) 
29

>  <SMILES>  (29) 
NC(=S)Nc1ccc(OCc2ccccc2)cc1O

>  <Energy>  (29) 
37.010441801220416

>  <Genealogy>  (29) 
NC(=S)Nc1ccc(OCc2ccccc2)cc1O (3D coordinates assigned)
NC(=S)Nc1ccc(OCc2ccccc2)cc1O (optimized conformer: 37.010441801220416 kcal/mol)

>  <smiles>  (29) 
NC(=S)Nc1ccc(OCc2ccccc2)cc1O

>  <score_type>  (29) 
oracle

>  <origin>  (29) 
adg

>  <m_score__min__energy>  (29) 
-8.3100000000000005

>  <m_primary>  (29) 
energy

$$$$
29:0
     RDKit          3D

 39 41  0  0  0  0  0  0  0  0999 V2000
   -6.8050   25.5240  -29.7070 C   0  0  0  0  0  0  0  0  0  0  0  0
   -5.6050   24.6940  -30.0300 C   0  0  0  0  0  0  0  0  0  0  0  0
   -4.5640   24.5650  -29.2470 O   0  0  0  0  0  0  0  0  0  0  0  0
   -3.7060   23.7830  -29.8700 C   0  0  0  0  0  0  0  0  0  0  0  0
   -2.3950   23.3860  -29.3120 C   0  0  0  0  0  0  0  0  0  0  0  0
   -2.1290   22.0320  -29.0320 C   0  0  0  0  0  0  0  0  0  0  0  0
   -0.8940   21.6470  -28.5040 C   0  0  0  0  0  0  0  0  0  0  0  0
    0.0890   22.6060  -28.2500 C   0  0  0  0  0  0  0  0  0  0  0  0
   -0.1620   23.9510  -28.5240 C   0  0  0  0  0  0  0  0  0  0  0  0
   -1.3960   24.3460  -29.0520 C   0  0  0  0  0  0  0  0  0  0  0  0
   -1.6070   25.6620  -29.3070 F   0  0  0  0  0  0  0  0  0  0  0  0
   -4.1580   23.3800  -31.0800 N   0  0  0  0  0  0  0  0  0  0  0  0
   -5.3700   23.9600  -31.1750 C   0  0  0  0  0  0  0  0  0  0  0  0
   -6.2840   23.8070  -32.3640 C   0  0  0  0  0  0  0  0  0  0  0  0
   -7.1150   22.5850  -32.3190 N   0  0  0  0  0  0  0  0  0  0  0  0
   -8.0990   22.5980  -31.2130 C   0  0  0  0  0  0  0  0  0  0  0  0
   -8.8520   21.2540  -31.0880 C   0  0  0  0  0  0  0  0  0  0  0  0
   -8.7090   20.4020  -32.3540 C   0  0  0  0  0  0  0  0  0  0  0  0
   -7.2280   20.1430  -32.6850 C   0  0  0  0  0  0  0  0  0  0  0  0
   -6.3250   21.3390  -32.3290 C   0  0  0  0  0  0  0  0  0  0  0  0
   -6.9151   25.6001  -28.6152 H   0  0  0  0  0  0  0  0  0  0  0  0
   -6.6807   26.5301  -30.1340 H   0  0  0  0  0  0  0  0  0  0  0  0
   -7.7025   25.0527  -30.1340 H   0  0  0  0  0  0  0  0  0  0  0  0
   -2.8990   21.2719  -29.2303 H   0  0  0  0  0  0  0  0  0  0  0  0
   -0.6956   20.5868  -28.2880 H   0  0  0  0  0  0  0  0  0  0  0  0
    1.0607   22.3012  -27.8341 H   0  0  0  0  0  0  0  0  0  0  0  0
    0.6141   24.7044  -28.3239 H   0  0  0  0  0  0  0  0  0  0  0  0
   -6.9517   24.6802  -32.4039 H   0  0  0  0  0  0  0  0  0  0  0  0
   -5.6436   23.7287  -33.2549 H   0  0  0  0  0  0  0  0  0  0  0  0
   -7.5694   22.7968  -30.2696 H   0  0  0  0  0  0  0  0  0  0  0  0
   -8.8397   23.3822  -31.4282 H   0  0  0  0  0  0  0  0  0  0  0  0
   -8.4425   20.6945  -30.2340 H   0  0  0  0  0  0  0  0  0  0  0  0
   -9.9201   21.4726  -30.9416 H   0  0  0  0  0  0  0  0  0  0  0  0
   -9.2157   19.4383  -32.1973 H   0  0  0  0  0  0  0  0  0  0  0  0
   -9.1641   20.9468  -33.1943 H   0  0  0  0  0  0  0  0  0  0  0  0
   -6.8885   19.2638  -32.1178 H   0  0  0  0  0  0  0  0  0  0  0  0
   -7.1523   19.9789  -33.7701 H   0  0  0  0  0  0  0  0  0  0  0  0
   -5.8850   21.1791  -31.3336 H   0  0  0  0  0  0  0  0  0  0  0  0
   -5.5271   21.4244  -33.0814 H   0  0  0  0  0  0  0  0  0  0  0  0
  1  2  1  0
  2  3  1  0
  3  4  1  0
  4  5  1  0
  5  6  2  0
  6  7  1  0
  7  8  2  0
  8  9  1  0
  9 10  2  0
 10 11  1  0
  4 12  2  0
 12 13  1  0
 13 14  1  0
 14 15  1  0
 15 16  1  0
 16 17  1  0
 17 18  1  0
 18 19  1  0
 19 20  1  0
 13  2  2  0
 20 15  1  0
 10  5  1  0
  1 21  1  0
  1 22  1  0
  1 23  1  0
  6 24  1  0
  7 25  1  0
  8 26  1  0
  9 27  1  0
 14 28  1  0
 14 29  1  0
 16 30  1  0
 16 31  1  0
 17 32  1  0
 17 33  1  0
 18 34  1  0
 18 35  1  0
 19 36  1  0
 19 37  1  0
 20 38  1  0
 20 39  1  0
M  END
>  <UniqueID>  (30) 
30

>  <SMILES>  (30) 
Cc1oc(-c2ccccc2F)nc1CN1CCCCC1

>  <Energy>  (30) 
75.53762650320577

>  <Genealogy>  (30) 
Cc1oc(-c2ccccc2F)nc1CN1CCCCC1 (3D coordinates assigned)
Cc1oc(-c2ccccc2F)nc1CN1CCCCC1 (nonaromatic ring conformer: 75.53762650320577 kcal/mol)

>  <smiles>  (30) 
Cc1oc(-c2ccccc2F)nc1CN1CCCCC1

>  <score_type>  (30) 
oracle

>  <origin>  (30) 
adg

>  <m_score__min__energy>  (30) 
-7.4100000000000001

>  <m_primary>  (30) 
energy

$$$$
30:0
     RDKit          3D

 26 27  0  0  0  0  0  0  0  0999 V2000
   -3.3220   24.2660  -28.0690 O   0  0  0  0  0  0  0  0  0  0  0  0
   -2.6850   24.5470  -29.4000 S   0  0  0  0  0  0  0  0  0  0  0  0
   -1.5450   25.5050  -29.1920 O   0  0  0  0  0  0  0  0  0  0  0  0
   -3.8670   25.2570  -30.4590 N   0  0  0  0  0  0  0  0  0  0  0  0
   -5.1930   24.6610  -30.2650 C   0  0  0  0  0  0  0  0  0  0  0  0
   -5.9550   24.5680  -31.5910 C   0  0  0  0  0  0  0  0  0  0  0  0
   -6.5050   23.1920  -31.8130 C   0  0  0  0  0  0  0  0  0  0  0  0
   -5.7670   22.0670  -32.1550 C   0  0  0  0  0  0  0  0  0  0  0  0
   -6.5410   20.9040  -32.2330 C   0  0  0  0  0  0  0  0  0  0  0  0
   -7.8840   21.1090  -31.9420 C   0  0  0  0  0  0  0  0  0  0  0  0
   -8.1080   22.7370  -31.5850 S   0  0  0  0  0  0  0  0  0  0  0  0
   -2.0790   23.0420  -30.0660 C   0  0  0  0  0  0  0  0  0  0  0  0
   -2.6560   22.3180  -31.0980 C   0  0  0  0  0  0  0  0  0  0  0  0
   -1.9690   21.1330  -31.3820 C   0  0  0  0  0  0  0  0  0  0  0  0
   -0.8580   20.9250  -30.5740 C   0  0  0  0  0  0  0  0  0  0  0  0
   -0.7300   22.2170  -29.5030 S   0  0  0  0  0  0  0  0  0  0  0  0
   -5.0750   23.6505  -29.8467 H   0  0  0  0  0  0  0  0  0  0  0  0
   -5.7660   25.2997  -29.5767 H   0  0  0  0  0  0  0  0  0  0  0  0
   -6.7870   25.2874  -31.5763 H   0  0  0  0  0  0  0  0  0  0  0  0
   -5.2547   24.7957  -32.4082 H   0  0  0  0  0  0  0  0  0  0  0  0
   -4.6838   22.0878  -32.3453 H   0  0  0  0  0  0  0  0  0  0  0  0
   -6.1257   19.9209  -32.4994 H   0  0  0  0  0  0  0  0  0  0  0  0
   -8.6679   20.3373  -31.9447 H   0  0  0  0  0  0  0  0  0  0  0  0
   -3.5589   22.6413  -31.6367 H   0  0  0  0  0  0  0  0  0  0  0  0
   -2.2792   20.4318  -32.1708 H   0  0  0  0  0  0  0  0  0  0  0  0
   -0.1775   20.0623  -30.6255 H   0  0  0  0  0  0  0  0  0  0  0  0
  1  2  2  0
  2  3  2  0
  2  4  1  0
  4  5  1  0
  5  6  1  0
  6  7  1  0
  7  8  2  0
  8  9  1  0
  9 10  2  0
 10 11  1  0
  2 12  1  0
 12 13  2  0
 13 14  1  0
 14 15  2  0
 15 16  1  0
 11  7  1  0
 16 12  1  0
  5 17  1  0
  5 18  1  0
  6 19  1  0
  6 20  1  0
  8 21  1  0
  9 22  1  0
 10 23  1  0
 13 24  1  0
 14 25  1  0
 15 26  1  0
M  CHG  1   4  -1
M  END
>  <UniqueID>  (31) 
31

>  <SMILES>  (31) 
O=S(=O)([N-]CCc1cccs1)c1cccs1

>  <Energy>  (31) 
73.73729997430264

>  <Genealogy>  (31) 
O=S(=O)([N-]CCc1cccs1)c1cccs1 (protonated)
O=S(=O)([N-]CCc1cccs1)c1cccs1 (3D coordinates assigned)
O=S(=O)([N-]CCc1cccs1)c1cccs1 (optimized conformer: 73.73729997430264 kcal/mol)

>  <smiles>  (31) 
O=S(=O)(NCCc1cccs1)c1cccs1

>  <score_type>  (31) 
oracle

>  <origin>  (31) 
adg

>  <m_score__min__energy>  (31) 
-7.6100000000000003

>  <m_primary>  (31) 
energy

$$$$
31:0
     RDKit          3D

 28 29  0  0  0  0  0  0  0  0999 V2000
   -4.9980   21.1090  -33.4730 N   0  0  0  0  0  0  0  0  0  0  0  0
   -5.8350   21.2380  -32.4910 C   0  0  0  0  0  0  0  0  0  0  0  0
   -5.7940   22.4160  -31.6780 N   0  0  0  0  0  0  0  0  0  0  0  0
   -4.8780   23.3910  -31.9090 O   0  0  0  0  0  0  0  0  0  0  0  0
   -4.8140   24.3060  -30.4900 S   0  0  0  0  0  0  0  0  0  0  0  0
   -4.2760   25.6790  -30.7840 O   0  0  0  0  0  0  0  0  0  0  0  0
   -6.1900   24.4140  -29.8940 O   0  0  0  0  0  0  0  0  0  0  0  0
   -3.7540   23.5070  -29.3460 C   0  0  0  0  0  0  0  0  0  0  0  0
   -4.0360   22.3320  -28.6670 C   0  0  0  0  0  0  0  0  0  0  0  0
   -2.9920   21.9270  -27.8260 C   0  0  0  0  0  0  0  0  0  0  0  0
   -1.8950   22.7810  -27.8480 C   0  0  0  0  0  0  0  0  0  0  0  0
   -2.2220   24.0400  -28.9150 S   0  0  0  0  0  0  0  0  0  0  0  0
   -6.8580   20.2020  -32.2310 C   0  0  0  0  0  0  0  0  0  0  0  0
   -6.4850   18.8480  -32.2830 C   0  0  0  0  0  0  0  0  0  0  0  0
   -7.4250   17.8440  -32.0330 C   0  0  0  0  0  0  0  0  0  0  0  0
   -8.7470   18.1820  -31.7390 C   0  0  0  0  0  0  0  0  0  0  0  0
   -9.1350   19.5220  -31.7010 C   0  0  0  0  0  0  0  0  0  0  0  0
   -8.2020   20.5360  -31.9480 C   0  0  0  0  0  0  0  0  0  0  0  0
   -8.7700   22.2040  -31.9660 Cl  0  0  0  0  0  0  0  0  0  0  0  0
   -4.5680   21.9320  -33.9510 H   0  0  0  0  0  0  0  0  0  0  0  0
   -6.5130   22.5630  -30.9330 H   0  0  0  0  0  0  0  0  0  0  0  0
   -4.9792   21.7768  -28.7770 H   0  0  0  0  0  0  0  0  0  0  0  0
   -3.0357   21.0190  -27.2066 H   0  0  0  0  0  0  0  0  0  0  0  0
   -0.9700   22.6548  -27.2663 H   0  0  0  0  0  0  0  0  0  0  0  0
   -5.4462   18.5764  -32.5221 H   0  0  0  0  0  0  0  0  0  0  0  0
   -7.1227   16.7869  -32.0680 H   0  0  0  0  0  0  0  0  0  0  0  0
   -9.4841   17.3909  -31.5369 H   0  0  0  0  0  0  0  0  0  0  0  0
  -10.1796   19.7828  -31.4757 H   0  0  0  0  0  0  0  0  0  0  0  0
  1  2  2  3
  2  3  1  0
  3  4  1  0
  4  5  1  0
  5  6  2  0
  5  7  2  0
  5  8  1  0
  8  9  2  0
  9 10  1  0
 10 11  2  0
 11 12  1  0
  2 13  1  0
 13 14  2  0
 14 15  1  0
 15 16  2  0
 16 17  1  0
 17 18  2  0
 18 19  1  0
 12  8  1  0
 18 13  1  0
  1 20  1  0
  3 21  1  0
  9 22  1  0
 10 23  1  0
 11 24  1  0
 14 25  1  0
 15 26  1  0
 16 27  1  0
 17 28  1  0
M  END
>  <UniqueID>  (32) 
32

>  <SMILES>  (32) 
N=C(NOS(=O)(=O)c1cccs1)c1ccccc1Cl

>  <Energy>  (32) 
60.0209339435032

>  <Genealogy>  (32) 
N=C(NOS(=O)(=O)c1cccs1)c1ccccc1Cl (3D coordinates assigned)
N=C(NOS(=O)(=O)c1cccs1)c1ccccc1Cl (optimized conformer: 60.0209339435032 kcal/mol)

>  <smiles>  (32) 
N=C(NOS(=O)(=O)c1cccs1)c1ccccc1Cl

>  <score_type>  (32) 
oracle

>  <origin>  (32) 
adg

>  <m_score__min__energy>  (32) 
-7.9800000000000004

>  <m_primary>  (32) 
energy

$$$$
32:0
     RDKit          3D

 51 52  0  0  0  0  0  0  0  0999 V2000
   -3.0710   25.3100  -26.1730 C   0  0  0  0  0  0  0  0  0  0  0  0
   -4.0770   24.5350  -26.8150 O   0  0  0  0  0  0  0  0  0  0  0  0
   -3.8920   23.8400  -28.0200 C   0  0  0  0  0  0  0  0  0  0  0  0
   -3.8900   22.4410  -27.9870 C   0  0  0  0  0  0  0  0  0  0  0  0
   -3.7110   21.7030  -29.1590 C   0  0  0  0  0  0  0  0  0  0  0  0
   -3.5170   22.3500  -30.3920 C   0  0  0  0  0  0  0  0  0  0  0  0
   -3.3300   21.5480  -31.6280 C   0  0  0  0  0  0  0  0  0  0  0  0
   -2.1010   21.5090  -32.3080 C   0  0  0  0  0  0  0  0  0  0  0  0
   -1.9900   20.7260  -33.4630 C   0  0  0  0  0  0  0  0  0  0  0  0
   -0.6900   20.6490  -34.2080 C   0  0  0  0  0  0  0  0  0  0  0  0
    0.3540   20.5030  -33.3130 F   0  0  0  0  0  0  0  0  0  0  0  0
   -0.7120   19.5620  -35.0640 F   0  0  0  0  0  0  0  0  0  0  0  0
   -0.4850   21.8000  -34.9480 F   0  0  0  0  0  0  0  0  0  0  0  0
   -3.0640   20.0100  -33.8910 N   0  0  0  0  0  0  0  0  0  0  0  0
   -4.2450   20.0480  -33.2220 C   0  0  0  0  0  0  0  0  0  0  0  0
   -5.6060   19.1120  -33.7940 S   0  0  0  0  0  0  0  0  0  0  0  0
   -5.1520   18.0890  -35.0490 O   0  0  0  0  0  0  0  0  0  0  0  0
   -6.3980   18.2250  -32.4680 C   0  0  0  0  0  0  0  0  0  0  0  0
   -7.5960   18.9880  -32.0010 C   0  0  0  0  0  0  0  0  0  0  0  0
   -8.7020   18.3950  -31.8780 O   0  0  0  0  0  0  0  0  0  0  0  0
   -7.4930   20.3930  -31.7340 N   0  0  0  0  0  0  0  0  0  0  0  0
   -8.6570   21.1760  -31.3160 C   0  0  0  0  0  0  0  0  0  0  0  0
   -8.3690   22.6890  -31.3350 C   0  0  0  0  0  0  0  0  0  0  0  0
   -6.9330   22.9780  -31.1140 N   0  0  0  0  0  0  0  0  0  0  0  0
   -6.2740   23.4180  -32.3570 C   0  0  0  0  0  0  0  0  0  0  0  0
   -6.7890   24.0270  -30.0910 C   0  0  0  0  0  0  0  0  0  0  0  0
   -4.3690   20.8080  -32.1040 N   0  0  0  0  0  0  0  0  0  0  0  0
   -3.5310   23.7580  -30.4250 C   0  0  0  0  0  0  0  0  0  0  0  0
   -3.7140   24.4960  -29.2520 C   0  0  0  0  0  0  0  0  0  0  0  0
   -3.1824   25.2241  -25.0820 H   0  0  0  0  0  0  0  0  0  0  0  0
   -2.0783   24.9410  -26.4703 H   0  0  0  0  0  0  0  0  0  0  0  0
   -3.1746   26.3640  -26.4703 H   0  0  0  0  0  0  0  0  0  0  0  0
   -4.0307   21.9180  -27.0295 H   0  0  0  0  0  0  0  0  0  0  0  0
   -3.7219   20.6039  -29.1170 H   0  0  0  0  0  0  0  0  0  0  0  0
   -1.2396   22.0847  -31.9385 H   0  0  0  0  0  0  0  0  0  0  0  0
   -4.1950   18.2910  -35.2060 H   0  0  0  0  0  0  0  0  0  0  0  0
   -6.7120   17.2337  -32.8267 H   0  0  0  0  0  0  0  0  0  0  0  0
   -5.6912   18.1071  -31.6334 H   0  0  0  0  0  0  0  0  0  0  0  0
   -6.5650   20.8570  -31.8710 H   0  0  0  0  0  0  0  0  0  0  0  0
   -9.4921   20.9644  -32.0000 H   0  0  0  0  0  0  0  0  0  0  0  0
   -8.9073   20.8898  -30.2838 H   0  0  0  0  0  0  0  0  0  0  0  0
   -8.6680   23.0962  -32.3121 H   0  0  0  0  0  0  0  0  0  0  0  0
   -8.9414   23.1565  -30.5202 H   0  0  0  0  0  0  0  0  0  0  0  0
   -5.3828   24.0130  -32.1087 H   0  0  0  0  0  0  0  0  0  0  0  0
   -5.9750   22.5377  -32.9449 H   0  0  0  0  0  0  0  0  0  0  0  0
   -6.9725   24.0316  -32.9449 H   0  0  0  0  0  0  0  0  0  0  0  0
   -6.8511   23.5743  -29.0904 H   0  0  0  0  0  0  0  0  0  0  0  0
   -5.8143   24.5231  -30.2092 H   0  0  0  0  0  0  0  0  0  0  0  0
   -7.5939   24.7673  -30.2092 H   0  0  0  0  0  0  0  0  0  0  0  0
   -3.3967   24.2819  -31.3829 H   0  0  0  0  0  0  0  0  0  0  0  0
   -3.7189   25.5953  -29.2923 H   0  0  0  0  0  0  0  0  0  0  0  0
  1  2  1  0
  2  3  1  0
  3  4  2  0
  4  5  1  0
  5  6  2  0
  6  7  1  0
  7  8  2  0
  8  9  1  0
  9 10  1  0
 10 11  1  0
 10 12  1  0
 10 13  1  0
  9 14  2  0
 14 15  1  0
 15 16  1  0
 16 17  1  6
 16 18  1  0
 18 19  1  0
 19 20  2  0
 19 21  1  0
 21 22  1  0
 22 23  1  0
 23 24  1  0
 24 25  1  0
 24 26  1  0
 15 27  2  0
  6 28  1  0
 28 29  2  0
 29  3  1  0
 27  7  1  0
  1 30  1  0
  1 31  1  0
  1 32  1  0
  4 33  1  0
  5 34  1  0
  8 35  1  0
 17 36  1  0
 18 37  1  0
 18 38  1  0
 21 39  1  0
 22 40  1  0
 22 41  1  0
 23 42  1  0
 23 43  1  0
 25 44  1  0
 25 45  1  0
 25 46  1  0
 26 47  1  0
 26 48  1  0
 26 49  1  0
 28 50  1  0
 29 51  1  0
M  CHG  1  16   1
M  END
>  <UniqueID>  (33) 
33

>  <SMILES>  (33) 
COc1ccc(-c2cc(C(F)(F)F)nc([S@@+](O)CC(=O)NCCN(C)C)n2)cc1

>  <Energy>  (33) 
46.181694046817555

>  <Genealogy>  (33) 
COc1ccc(-c2cc(C(F)(F)F)nc([S+](O)CC(=O)NCCN(C)C)n2)cc1 (protonated)
COc1ccc(-c2cc(C(F)(F)F)nc([S@@+](O)CC(=O)NCCN(C)C)n2)cc1 (chirality)
COc1ccc(-c2cc(C(F)(F)F)nc([S@@+](O)CC(=O)NCCN(C)C)n2)cc1 (3D coordinates assigned)
COc1ccc(-c2cc(C(F)(F)F)nc([S@@+](O)CC(=O)NCCN(C)C)n2)cc1 (optimized conformer: 46.181694046817555 kcal/mol)

>  <smiles>  (33) 
COc1ccc(-c2cc(C(F)(F)F)nc([S+]([O-])CC(=O)NCCN(C)C)n2)cc1

>  <score_type>  (33) 
oracle

>  <origin>  (33) 
adg

>  <m_score__min__energy>  (33) 
-6.7199999999999998

>  <m_primary>  (33) 
energy

$$$$
33:0
     RDKit          3D

 56 57  0  0  0  0  0  0  0  0999 V2000
   -6.0880   18.8930  -34.8180 C   0  0  0  0  0  0  0  0  0  0  0  0
   -5.0980   17.7360  -34.7070 C   0  0  0  0  0  0  0  0  0  0  0  0
   -4.5080   17.6960  -33.3500 N   0  0  0  0  0  0  0  0  0  0  0  0
   -5.3810   16.9620  -32.4050 C   0  0  0  0  0  0  0  0  0  0  0  0
   -5.3580   15.4680  -32.7200 C   0  0  0  0  0  0  0  0  0  0  0  0
   -3.1410   17.1240  -33.3750 C   0  0  0  0  0  0  0  0  0  0  0  0
   -2.1090   18.2310  -33.1400 C   0  0  0  0  0  0  0  0  0  0  0  0
   -2.2670   19.3690  -34.1600 C   0  0  0  0  0  0  0  0  0  0  0  0
   -2.7230   20.6760  -33.4880 C   0  0  2  0  0  0  0  0  0  0  0  0
   -1.5460   21.3700  -32.7990 C   0  0  0  0  0  0  0  0  0  0  0  0
   -3.7660   20.3900  -32.4970 N   0  0  0  0  0  0  0  0  0  0  0  0
   -4.6770   21.3960  -32.0230 C   0  0  0  0  0  0  0  0  0  0  0  0
   -4.1910   22.6790  -31.7220 C   0  0  0  0  0  0  0  0  0  0  0  0
   -5.0470   23.6780  -31.2280 C   0  0  0  0  0  0  0  0  0  0  0  0
   -4.5940   24.9690  -30.9160 O   0  0  0  0  0  0  0  0  0  0  0  0
   -5.4260   26.0240  -30.4450 C   0  0  0  0  0  0  0  0  0  0  0  0
   -6.3980   23.3870  -31.0320 C   0  0  0  0  0  0  0  0  0  0  0  0
   -6.9030   22.1140  -31.3240 C   0  0  0  0  0  0  0  0  0  0  0  0
   -8.2600   21.8290  -31.1300 C   0  0  0  0  0  0  0  0  0  0  0  0
   -8.7580   20.5680  -31.4460 C   0  0  0  0  0  0  0  0  0  0  0  0
   -7.8970   19.5950  -31.9690 C   0  0  0  0  0  0  0  0  0  0  0  0
   -8.4200   18.2270  -32.2980 C   0  0  0  0  0  0  0  0  0  0  0  0
   -6.5710   19.8750  -32.1330 N   0  0  0  0  0  0  0  0  0  0  0  0
   -6.0480   21.1030  -31.8240 C   0  0  0  0  0  0  0  0  0  0  0  0
   -6.3748   19.2281  -33.8103 H   0  0  0  0  0  0  0  0  0  0  0  0
   -5.6188   19.7261  -35.3618 H   0  0  0  0  0  0  0  0  0  0  0  0
   -6.9837   18.5583  -35.3618 H   0  0  0  0  0  0  0  0  0  0  0  0
   -5.6223   16.7891  -34.9032 H   0  0  0  0  0  0  0  0  0  0  0  0
   -4.2939   17.8799  -35.4437 H   0  0  0  0  0  0  0  0  0  0  0  0
   -5.0213   17.1227  -31.3780 H   0  0  0  0  0  0  0  0  0  0  0  0
   -6.4113   17.3345  -32.5039 H   0  0  0  0  0  0  0  0  0  0  0  0
   -5.3492   14.8954  -31.7809 H   0  0  0  0  0  0  0  0  0  0  0  0
   -6.2522   15.2024  -33.3030 H   0  0  0  0  0  0  0  0  0  0  0  0
   -4.4561   15.2300  -33.3030 H   0  0  0  0  0  0  0  0  0  0  0  0
   -3.0485   16.3651  -32.5841 H   0  0  0  0  0  0  0  0  0  0  0  0
   -2.9595   16.6617  -34.3565 H   0  0  0  0  0  0  0  0  0  0  0  0
   -2.2440   18.6371  -32.1267 H   0  0  0  0  0  0  0  0  0  0  0  0
   -1.1043   17.7985  -33.2560 H   0  0  0  0  0  0  0  0  0  0  0  0
   -1.2998   19.5411  -34.6548 H   0  0  0  0  0  0  0  0  0  0  0  0
   -3.0353   19.0720  -34.8891 H   0  0  0  0  0  0  0  0  0  0  0  0
   -3.1231   21.3429  -34.2659 H   0  0  0  0  0  0  0  0  0  0  0  0
   -1.6662   21.2991  -31.7079 H   0  0  0  0  0  0  0  0  0  0  0  0
   -0.6067   20.8812  -33.0969 H   0  0  0  0  0  0  0  0  0  0  0  0
   -1.5190   22.4285  -33.0969 H   0  0  0  0  0  0  0  0  0  0  0  0
   -3.8840   19.4030  -32.1740 H   0  0  0  0  0  0  0  0  0  0  0  0
   -3.1254   22.9050  -31.8751 H   0  0  0  0  0  0  0  0  0  0  0  0
   -5.4278   26.0263  -29.3450 H   0  0  0  0  0  0  0  0  0  0  0  0
   -5.0413   26.9866  -30.8130 H   0  0  0  0  0  0  0  0  0  0  0  0
   -6.4517   25.8742  -30.8130 H   0  0  0  0  0  0  0  0  0  0  0  0
   -7.0723   24.1650  -30.6445 H   0  0  0  0  0  0  0  0  0  0  0  0
   -8.9324   22.6012  -30.7280 H   0  0  0  0  0  0  0  0  0  0  0  0
   -9.8215   20.3371  -31.2859 H   0  0  0  0  0  0  0  0  0  0  0  0
   -8.6289   17.6805  -31.3665 H   0  0  0  0  0  0  0  0  0  0  0  0
   -9.3461   18.3197  -32.8843 H   0  0  0  0  0  0  0  0  0  0  0  0
   -7.6682   17.6783  -32.8843 H   0  0  0  0  0  0  0  0  0  0  0  0
   -5.9630   19.1210  -32.5210 H   0  0  0  0  0  0  0  0  0  0  0  0
  1  2  1  0
  2  3  1  0
  3  4  1  0
  4  5  1  0
  3  6  1  0
  6  7  1  0
  7  8  1  0
  8  9  1  0
  9 10  1  0
  9 11  1  0
 11 12  1  0
 12 13  2  0
 13 14  1  0
 14 15  1  0
 15 16  1  0
 14 17  2  0
 17 18  1  0
 18 19  2  0
 19 20  1  0
 20 21  2  0
 21 22  1  0
 21 23  1  0
 23 24  2  0
 24 12  1  0
 24 18  1  0
  1 25  1  0
  1 26  1  0
  1 27  1  0
  2 28  1  0
  2 29  1  0
  4 30  1  0
  4 31  1  0
  5 32  1  0
  5 33  1  0
  5 34  1  0
  6 35  1  0
  6 36  1  0
  7 37  1  0
  7 38  1  0
  8 39  1  0
  8 40  1  0
  9 41  1  6
 10 42  1  0
 10 43  1  0
 10 44  1  0
 11 45  1  0
 13 46  1  0
 16 47  1  0
 16 48  1  0
 16 49  1  0
 17 50  1  0
 19 51  1  0
 20 52  1  0
 22 53  1  0
 22 54  1  0
 22 55  1  0
 23 56  1  0
M  CHG  1  23   1
M  END
>  <UniqueID>  (34) 
34

>  <SMILES>  (34) 
CCN(CC)CCC[C@H](C)Nc1cc(OC)cc2ccc(C)[nH+]c12

>  <Energy>  (34) 
50.15530589080459

>  <Genealogy>  (34) 
CCN(CC)CCCC(C)Nc1cc(OC)cc2ccc(C)[nH+]c12 (protonated)
CCN(CC)CCC[C@H](C)Nc1cc(OC)cc2ccc(C)[nH+]c12 (chirality)
CCN(CC)CCC[C@H](C)Nc1cc(OC)cc2ccc(C)[nH+]c12 (3D coordinates assigned)
CCN(CC)CCC[C@H](C)Nc1cc(OC)cc2ccc(C)[nH+]c12 (optimized conformer: 50.15530589080459 kcal/mol)

>  <smiles>  (34) 
CCN(CC)CCCC(C)Nc1cc(OC)cc2ccc(C)nc12

>  <score_type>  (34) 
oracle

>  <origin>  (34) 
adg

>  <m_score__min__energy>  (34) 
-7.6200000000000001

>  <m_primary>  (34) 
energy

$$$$
34:0
     RDKit          3D

 34 35  0  0  0  0  0  0  0  0999 V2000
   -2.4280   24.6290  -28.0710 C   0  0  0  0  0  0  0  0  0  0  0  0
   -2.7710   25.0870  -29.3750 O   0  0  0  0  0  0  0  0  0  0  0  0
   -3.8650   24.6200  -30.1200 C   0  0  0  0  0  0  0  0  0  0  0  0
   -5.0580   25.3570  -30.2400 C   0  0  0  0  0  0  0  0  0  0  0  0
   -6.1260   24.8570  -30.9900 C   0  0  0  0  0  0  0  0  0  0  0  0
   -6.0280   23.6090  -31.6300 C   0  0  0  0  0  0  0  0  0  0  0  0
   -7.1120   23.0610  -32.4020 N   0  0  0  0  0  0  0  0  0  0  0  0
   -8.2000   21.8430  -31.8160 S   0  0  0  0  0  0  0  0  0  0  0  0
   -9.5770   22.1080  -32.3540 O   0  0  0  0  0  0  0  0  0  0  0  0
   -8.2410   21.9020  -30.3150 O   0  0  0  0  0  0  0  0  0  0  0  0
   -7.6760   20.2530  -32.3640 C   0  0  0  0  0  0  0  0  0  0  0  0
   -8.3150   19.1030  -31.8850 C   0  0  0  0  0  0  0  0  0  0  0  0
   -7.9150   17.8380  -32.3260 C   0  0  0  0  0  0  0  0  0  0  0  0
   -6.8580   17.7110  -33.2410 C   0  0  0  0  0  0  0  0  0  0  0  0
   -6.4550   16.3570  -33.7450 C   0  0  0  0  0  0  0  0  0  0  0  0
   -6.2260   18.8650  -33.7290 C   0  0  0  0  0  0  0  0  0  0  0  0
   -6.6280   20.1290  -33.2870 C   0  0  0  0  0  0  0  0  0  0  0  0
   -4.8350   22.8810  -31.5140 C   0  0  0  0  0  0  0  0  0  0  0  0
   -3.7630   23.3790  -30.7650 C   0  0  0  0  0  0  0  0  0  0  0  0
   -2.2890   22.4290  -30.6410 Cl  0  0  0  0  0  0  0  0  0  0  0  0
   -2.9090   25.2712  -27.3185 H   0  0  0  0  0  0  0  0  0  0  0  0
   -2.7739   23.5926  -27.9436 H   0  0  0  0  0  0  0  0  0  0  0  0
   -1.3361   24.6694  -27.9436 H   0  0  0  0  0  0  0  0  0  0  0  0
   -5.1504   26.3326  -29.7404 H   0  0  0  0  0  0  0  0  0  0  0  0
   -7.0513   25.4449  -31.0804 H   0  0  0  0  0  0  0  0  0  0  0  0
   -7.2160   23.3460  -33.4020 H   0  0  0  0  0  0  0  0  0  0  0  0
   -9.1356   19.1952  -31.1583 H   0  0  0  0  0  0  0  0  0  0  0  0
   -8.4300   16.9397  -31.9549 H   0  0  0  0  0  0  0  0  0  0  0  0
   -6.2571   15.6920  -32.8914 H   0  0  0  0  0  0  0  0  0  0  0  0
   -7.2670   15.9368  -34.3566 H   0  0  0  0  0  0  0  0  0  0  0  0
   -5.5454   16.4492  -34.3566 H   0  0  0  0  0  0  0  0  0  0  0  0
   -5.4110   18.7747  -34.4622 H   0  0  0  0  0  0  0  0  0  0  0  0
   -6.1205   21.0289  -33.6646 H   0  0  0  0  0  0  0  0  0  0  0  0
   -4.7409   21.9075  -32.0175 H   0  0  0  0  0  0  0  0  0  0  0  0
  1  2  1  0
  2  3  1  0
  3  4  2  0
  4  5  1  0
  5  6  2  0
  6  7  1  0
  7  8  1  0
  8  9  2  0
  8 10  2  0
  8 11  1  0
 11 12  2  0
 12 13  1  0
 13 14  2  0
 14 15  1  0
 14 16  1  0
 16 17  2  0
  6 18  1  0
 18 19  2  0
 19 20  1  0
 19  3  1  0
 17 11  1  0
  1 21  1  0
  1 22  1  0
  1 23  1  0
  4 24  1  0
  5 25  1  0
  7 26  1  0
 12 27  1  0
 13 28  1  0
 15 29  1  0
 15 30  1  0
 15 31  1  0
 16 32  1  0
 17 33  1  0
 18 34  1  0
M  END
>  <UniqueID>  (35) 
35

>  <SMILES>  (35) 
COc1ccc(NS(=O)(=O)c2ccc(C)cc2)cc1Cl

>  <Energy>  (35) 
35.80731173169198

>  <Genealogy>  (35) 
COc1ccc(NS(=O)(=O)c2ccc(C)cc2)cc1Cl (3D coordinates assigned)
COc1ccc(NS(=O)(=O)c2ccc(C)cc2)cc1Cl (optimized conformer: 35.80731173169198 kcal/mol)

>  <smiles>  (35) 
COc1ccc(NS(=O)(=O)c2ccc(C)cc2)cc1Cl

>  <score_type>  (35) 
oracle

>  <origin>  (35) 
adg

>  <m_score__min__energy>  (35) 
-8.7400000000000002

>  <m_primary>  (35) 
energy

$$$$
35:0
     RDKit          3D

 38 39  0  0  1  0  0  0  0  0999 V2000
   -9.4440   19.6130  -32.6630 C   0  0  0  0  0  0  0  0  0  0  0  0
   -8.6170   20.0100  -31.4430 C   0  0  0  0  0  0  0  0  0  0  0  0
   -9.0560   21.3340  -30.8880 C   0  0  0  0  0  0  0  0  0  0  0  0
   -9.1160   22.4350  -31.9570 C   0  0  0  0  0  0  0  0  0  0  0  0
   -7.9940   23.4070  -31.8520 C   0  0  0  0  0  0  0  0  0  0  0  0
   -6.7940   22.9690  -31.1320 C   0  0  0  0  0  0  0  0  0  0  0  0
   -5.4570   23.4980  -31.3710 C   0  0  1  0  0  0  0  0  0  0  0  0
   -4.7800   24.3590  -30.4200 C   0  0  0  0  0  0  0  0  0  0  0  0
   -4.0370   25.2830  -30.8370 O   0  0  0  0  0  0  0  0  0  0  0  0
   -4.5110   22.4270  -31.8060 N   0  0  0  0  0  0  0  0  0  0  0  0
   -3.2120   22.3430  -31.5450 C   0  0  0  0  0  0  0  0  0  0  0  0
   -2.7730   21.2130  -32.1400 N   0  0  0  0  0  0  0  0  0  0  0  0
   -3.7820   20.5970  -32.7650 C   0  0  0  0  0  0  0  0  0  0  0  0
   -3.9550   19.4520  -33.5170 C   0  0  0  0  0  0  0  0  0  0  0  0
   -2.9280   18.6970  -33.7370 N   0  0  0  0  0  0  0  0  0  0  0  0
   -5.1410   19.0800  -34.0330 N   0  0  0  0  0  0  0  0  0  0  0  0
   -6.2030   19.8740  -33.7970 C   0  0  0  0  0  0  0  0  0  0  0  0
   -6.1100   21.0120  -33.0700 N   0  0  0  0  0  0  0  0  0  0  0  0
   -4.9170   21.3730  -32.5580 C   0  0  0  0  0  0  0  0  0  0  0  0
  -10.3899   19.1589  -32.3328 H   0  0  0  0  0  0  0  0  0  0  0  0
   -9.6577   20.5067  -33.2677 H   0  0  0  0  0  0  0  0  0  0  0  0
   -8.8803   18.8873  -33.2677 H   0  0  0  0  0  0  0  0  0  0  0  0
   -8.7340   19.2402  -30.6660 H   0  0  0  0  0  0  0  0  0  0  0  0
   -7.5651   20.0972  -31.7526 H   0  0  0  0  0  0  0  0  0  0  0  0
  -10.0571   21.2163  -30.4476 H   0  0  0  0  0  0  0  0  0  0  0  0
   -8.3141   21.6413  -30.1363 H   0  0  0  0  0  0  0  0  0  0  0  0
   -9.0791   21.9625  -32.9497 H   0  0  0  0  0  0  0  0  0  0  0  0
  -10.0513   22.9932  -31.8033 H   0  0  0  0  0  0  0  0  0  0  0  0
   -7.6882   23.6714  -32.8750 H   0  0  0  0  0  0  0  0  0  0  0  0
   -8.3948   24.2398  -31.2555 H   0  0  0  0  0  0  0  0  0  0  0  0
   -7.0014   23.1548  -30.0678 H   0  0  0  0  0  0  0  0  0  0  0  0
   -6.6835   21.9447  -31.5174 H   0  0  0  0  0  0  0  0  0  0  0  0
   -5.7283   24.2200  -32.1553 H   0  0  0  0  0  0  0  0  0  0  0  0
   -4.9162   24.2041  -29.3395 H   0  0  0  0  0  0  0  0  0  0  0  0
   -2.6112   23.0542  -30.9591 H   0  0  0  0  0  0  0  0  0  0  0  0
   -1.9910   18.9090  -33.3280 H   0  0  0  0  0  0  0  0  0  0  0  0
   -5.2460   18.2120  -34.5970 H   0  0  0  0  0  0  0  0  0  0  0  0
   -7.1814   19.5873  -34.2100 H   0  0  0  0  0  0  0  0  0  0  0  0
  1  2  1  0
  2  3  1  0
  3  4  1  0
  4  5  1  0
  5  6  1  0
  6  7  1  0
  7  8  1  0
  8  9  2  0
  7 10  1  0
 10 11  1  0
 11 12  2  0
 12 13  1  0
 13 14  1  0
 14 15  2  3
 14 16  1  0
 16 17  1  0
 17 18  2  0
 18 19  1  0
 19 10  1  0
 19 13  2  0
  1 20  1  0
  1 21  1  0
  1 22  1  0
  2 23  1  0
  2 24  1  0
  3 25  1  0
  3 26  1  0
  4 27  1  0
  4 28  1  0
  5 29  1  0
  5 30  1  0
  6 31  1  0
  6 32  1  0
  7 33  1  6
  8 34  1  0
 11 35  1  0
 15 36  1  0
 16 37  1  0
 17 38  1  0
M  END
>  <smiles>  (36) 
CCCCCCC(C=O)n1cnc2c(=N)[nH]cnc21

>  <score_type>  (36) 
oracle

>  <origin>  (36) 
adg

>  <m_score__min__energy>  (36) 
-7.0300000000000002

>  <m_primary>  (36) 
energy

$$$$
36:0
     RDKit          3D

 49 51  0  0  0  0  0  0  0  0999 V2000
   -6.0720   25.6560  -29.8000 C   0  0  0  0  0  0  0  0  0  0  0  0
   -5.0340   24.9640  -30.6290 C   0  0  0  0  0  0  0  0  0  0  0  0
   -3.9320   25.5410  -30.8250 O   0  0  0  0  0  0  0  0  0  0  0  0
   -5.2880   23.6540  -31.2770 C   0  0  0  0  0  0  0  0  0  0  0  0
   -6.3260   23.4240  -32.1060 C   0  0  0  0  0  0  0  0  0  0  0  0
   -7.2080   22.2400  -32.0550 C   0  0  0  0  0  0  0  0  0  0  0  0
   -8.3770   22.2340  -31.2710 C   0  0  0  0  0  0  0  0  0  0  0  0
   -9.1760   21.0890  -31.2080 C   0  0  0  0  0  0  0  0  0  0  0  0
   -8.8060   19.9370  -31.9080 C   0  0  0  0  0  0  0  0  0  0  0  0
   -7.6300   19.9260  -32.6630 C   0  0  0  0  0  0  0  0  0  0  0  0
   -6.8290   21.0690  -32.7290 C   0  0  0  0  0  0  0  0  0  0  0  0
   -4.3050   22.5660  -31.0470 C   0  0  0  0  0  0  0  0  0  0  0  0
   -3.6410   21.9350  -32.1180 C   0  0  0  0  0  0  0  0  0  0  0  0
   -3.9900   22.2890  -33.4710 N   0  0  0  0  0  0  0  0  0  0  0  0
   -2.6850   20.9770  -31.8590 N   0  0  0  0  0  0  0  0  0  0  0  0
   -1.9550   20.3210  -32.9690 C   0  0  0  0  0  0  0  0  0  0  0  0
   -2.7720   19.2120  -33.5890 C   0  0  0  0  0  0  0  0  0  0  0  0
   -4.1750   19.2440  -33.5160 C   0  0  0  0  0  0  0  0  0  0  0  0
   -4.9360   18.2080  -34.0640 C   0  0  0  0  0  0  0  0  0  0  0  0
   -4.3050   17.1230  -34.6760 C   0  0  0  0  0  0  0  0  0  0  0  0
   -2.9100   17.0690  -34.7340 C   0  0  0  0  0  0  0  0  0  0  0  0
   -2.1450   18.1040  -34.1880 C   0  0  0  0  0  0  0  0  0  0  0  0
   -2.3980   20.6260  -30.5590 C   0  0  0  0  0  0  0  0  0  0  0  0
   -1.4930   19.7750  -30.3230 O   0  0  0  0  0  0  0  0  0  0  0  0
   -3.0770   21.1910  -29.5100 N   0  0  0  0  0  0  0  0  0  0  0  0
   -2.7440   20.8060  -28.1270 C   0  0  0  0  0  0  0  0  0  0  0  0
   -3.9980   22.1730  -29.7400 C   0  0  0  0  0  0  0  0  0  0  0  0
   -4.5700   22.7480  -28.7700 O   0  0  0  0  0  0  0  0  0  0  0  0
   -5.8485   25.5070  -28.7333 H   0  0  0  0  0  0  0  0  0  0  0  0
   -6.0667   26.7319  -30.0289 H   0  0  0  0  0  0  0  0  0  0  0  0
   -7.0631   25.2373  -30.0289 H   0  0  0  0  0  0  0  0  0  0  0  0
   -6.5323   24.1769  -32.8810 H   0  0  0  0  0  0  0  0  0  0  0  0
   -8.6627   23.1335  -30.7060 H   0  0  0  0  0  0  0  0  0  0  0  0
  -10.0972   21.0944  -30.6068 H   0  0  0  0  0  0  0  0  0  0  0  0
   -9.4403   19.0394  -31.8646 H   0  0  0  0  0  0  0  0  0  0  0  0
   -7.3345   19.0162  -33.2061 H   0  0  0  0  0  0  0  0  0  0  0  0
   -5.8966   21.0508  -33.3123 H   0  0  0  0  0  0  0  0  0  0  0  0
   -4.8560   22.8140  -33.7140 H   0  0  0  0  0  0  0  0  0  0  0  0
   -3.3770   22.0340  -34.2760 H   0  0  0  0  0  0  0  0  0  0  0  0
   -1.7275   21.0716  -33.7403 H   0  0  0  0  0  0  0  0  0  0  0  0
   -1.0305   19.8838  -32.5637 H   0  0  0  0  0  0  0  0  0  0  0  0
   -4.6774   20.0900  -33.0243 H   0  0  0  0  0  0  0  0  0  0  0  0
   -6.0341   18.2473  -34.0132 H   0  0  0  0  0  0  0  0  0  0  0  0
   -4.9058   16.3113  -35.1122 H   0  0  0  0  0  0  0  0  0  0  0  0
   -2.4129   16.2109  -35.2100 H   0  0  0  0  0  0  0  0  0  0  0  0
   -1.0469   18.0518  -34.2269 H   0  0  0  0  0  0  0  0  0  0  0  0
   -3.2978   21.4463  -27.4247 H   0  0  0  0  0  0  0  0  0  0  0  0
   -3.0221   19.7546  -27.9620 H   0  0  0  0  0  0  0  0  0  0  0  0
   -1.6635   20.9297  -27.9620 H   0  0  0  0  0  0  0  0  0  0  0  0
  1  2  1  0
  2  3  2  0
  2  4  1  0
  4  5  2  3
  5  6  1  0
  6  7  2  0
  7  8  1  0
  8  9  2  0
  9 10  1  0
 10 11  2  0
  4 12  1  0
 12 13  2  0
 13 14  1  0
 13 15  1  0
 15 16  1  0
 16 17  1  0
 17 18  2  0
 18 19  1  0
 19 20  2  0
 20 21  1  0
 21 22  2  0
 15 23  1  0
 23 24  2  0
 23 25  1  0
 25 26  1  0
 25 27  1  0
 27 28  2  0
 11  6  1  0
 27 12  1  0
 22 17  1  0
  1 29  1  0
  1 30  1  0
  1 31  1  0
  5 32  1  0
  7 33  1  0
  8 34  1  0
  9 35  1  0
 10 36  1  0
 11 37  1  0
 14 38  1  0
 14 39  1  0
 16 40  1  0
 16 41  1  0
 18 42  1  0
 19 43  1  0
 20 44  1  0
 21 45  1  0
 22 46  1  0
 26 47  1  0
 26 48  1  0
 26 49  1  0
M  END
>  <UniqueID>  (37) 
36

>  <SMILES>  (37) 
CC(=O)C(=Cc1ccccc1)c1c(N)n(Cc2ccccc2)c(=O)n(C)c1=O

>  <Energy>  (37) 
78.27603868022898

>  <Genealogy>  (37) 
CC(=O)C(=Cc1ccccc1)c1c(N)n(Cc2ccccc2)c(=O)n(C)c1=O (3D coordinates assigned)
CC(=O)C(=Cc1ccccc1)c1c(N)n(Cc2ccccc2)c(=O)n(C)c1=O (optimized conformer: 78.27603868022898 kcal/mol)

>  <smiles>  (37) 
CC(=O)C(=Cc1ccccc1)c1c(N)n(Cc2ccccc2)c(=O)n(C)c1=O

>  <score_type>  (37) 
oracle

>  <origin>  (37) 
adg

>  <m_score__min__energy>  (37) 
-9.8200000000000003

>  <m_primary>  (37) 
energy

$$$$
37:0
     RDKit          3D

 54 55  0  0  0  0  0  0  0  0999 V2000
   -8.4640   21.2098  -30.1259 H   0  0  0  0  0  0  0  0  0  0  0  0
   -7.9920   21.8070  -30.9200 C   0  0  0  0  0  0  0  0  0  0  0  0
   -7.6370   23.0330  -30.6800 N   0  0  0  0  0  0  0  0  0  0  0  0
   -6.3250   23.4870  -30.3070 C   0  0  0  0  0  0  0  0  0  0  0  0
   -5.8600   24.6890  -30.8560 C   0  0  0  0  0  0  0  0  0  0  0  0
   -6.4964   25.2491  -31.5569 H   0  0  0  0  0  0  0  0  0  0  0  0
   -4.5970   25.1840  -30.5230 C   0  0  0  0  0  0  0  0  0  0  0  0
   -4.2422   26.1235  -30.9718 H   0  0  0  0  0  0  0  0  0  0  0  0
   -3.7760   24.4880  -29.6170 C   0  0  0  0  0  0  0  0  0  0  0  0
   -2.4680   24.9660  -29.2480 N   0  0  0  0  0  0  0  0  0  0  0  0
   -2.0080   25.6730  -29.8660 H   0  0  0  0  0  0  0  0  0  0  0  0
   -1.7030   24.5000  -28.0890 C   0  0  0  0  0  0  0  0  0  0  0  0
   -2.4040   24.2258  -27.2869 H   0  0  0  0  0  0  0  0  0  0  0  0
   -1.0357   25.3145  -27.7706 H   0  0  0  0  0  0  0  0  0  0  0  0
   -0.8350   23.2780  -28.4300 C   0  0  0  0  0  0  0  0  0  0  0  0
    0.2225   23.5576  -28.3132 H   0  0  0  0  0  0  0  0  0  0  0  0
   -1.0755   22.9861  -29.4629 H   0  0  0  0  0  0  0  0  0  0  0  0
   -1.1190   22.0610  -27.5360 C   0  0  0  0  0  0  0  0  0  0  0  0
   -1.9429   22.3031  -26.8486 H   0  0  0  0  0  0  0  0  0  0  0  0
   -0.2070   21.8186  -26.9708 H   0  0  0  0  0  0  0  0  0  0  0  0
   -1.4980   20.8840  -28.3530 N   0  0  0  0  0  0  0  0  0  0  0  0
   -2.7540   20.2440  -27.8850 C   0  0  0  0  0  0  0  0  0  0  0  0
   -3.1910   19.6879  -28.7275 H   0  0  0  0  0  0  0  0  0  0  0  0
   -3.4027   21.0552  -27.5228 H   0  0  0  0  0  0  0  0  0  0  0  0
   -2.5730   19.2710  -26.7100 C   0  0  0  0  0  0  0  0  0  0  0  0
   -2.6749   19.8186  -25.7614 H   0  0  0  0  0  0  0  0  0  0  0  0
   -3.3403   18.4846  -26.7636 H   0  0  0  0  0  0  0  0  0  0  0  0
   -1.5743   18.8131  -26.7636 H   0  0  0  0  0  0  0  0  0  0  0  0
   -1.4470   21.1730  -29.8050 C   0  0  0  0  0  0  0  0  0  0  0  0
   -1.2839   22.2514  -29.9478 H   0  0  0  0  0  0  0  0  0  0  0  0
   -0.6244   20.5873  -30.2413 H   0  0  0  0  0  0  0  0  0  0  0  0
   -2.7420   20.7710  -30.5100 C   0  0  0  0  0  0  0  0  0  0  0  0
   -3.5096   20.5327  -29.7590 H   0  0  0  0  0  0  0  0  0  0  0  0
   -3.0905   21.6032  -31.1392 H   0  0  0  0  0  0  0  0  0  0  0  0
   -2.5580   19.8877  -31.1392 H   0  0  0  0  0  0  0  0  0  0  0  0
   -4.2430   23.2870  -29.0640 C   0  0  0  0  0  0  0  0  0  0  0  0
   -3.6083   22.7293  -28.3597 H   0  0  0  0  0  0  0  0  0  0  0  0
   -5.5060   22.7910  -29.3980 C   0  0  0  0  0  0  0  0  0  0  0  0
   -5.8619   21.8522  -28.9485 H   0  0  0  0  0  0  0  0  0  0  0  0
   -7.7630   21.1990  -32.2730 C   0  0  0  0  0  0  0  0  0  0  0  0
   -8.0696   21.9184  -33.0466 H   0  0  0  0  0  0  0  0  0  0  0  0
   -8.6240   19.9680  -32.4580 C   0  0  0  0  0  0  0  0  0  0  0  0
   -9.8180   20.1080  -32.6760 O   0  0  0  0  0  0  0  0  0  0  0  0
   -8.0600   18.5710  -32.3840 C   0  0  0  0  0  0  0  0  0  0  0  0
   -8.7296   17.9509  -31.7700 H   0  0  0  0  0  0  0  0  0  0  0  0
   -7.9838   18.1831  -33.4105 H   0  0  0  0  0  0  0  0  0  0  0  0
   -6.6600   18.5440  -31.7670 C   0  0  0  0  0  0  0  0  0  0  0  0
   -6.7343   18.8089  -30.7020 H   0  0  0  0  0  0  0  0  0  0  0  0
   -6.2485   17.5317  -31.8927 H   0  0  0  0  0  0  0  0  0  0  0  0
   -5.7200   19.5310  -32.4590 C   0  0  0  0  0  0  0  0  0  0  0  0
   -4.7642   19.5523  -31.9150 H   0  0  0  0  0  0  0  0  0  0  0  0
   -5.5791   19.1957  -33.4971 H   0  0  0  0  0  0  0  0  0  0  0  0
   -6.2920   20.9250  -32.4930 C   0  0  0  0  0  0  0  0  0  0  0  0
   -5.5410   21.8630  -32.7160 O   0  0  0  0  0  0  0  0  0  0  0  0
  1  2  1  0
  2  3  2  0
  3  4  1  0
  4  5  2  0
  5  6  1  0
  5  7  1  0
  7  8  1  0
  7  9  2  0
  9 10  1  0
 10 11  1  0
 10 12  1  0
 12 13  1  0
 12 14  1  0
 12 15  1  0
 15 16  1  0
 15 17  1  0
 15 18  1  0
 18 19  1  0
 18 20  1  0
 18 21  1  0
 21 22  1  0
 22 23  1  0
 22 24  1  0
 22 25  1  0
 25 26  1  0
 25 27  1  0
 25 28  1  0
 21 29  1  0
 29 30  1  0
 29 31  1  0
 29 32  1  0
 32 33  1  0
 32 34  1  0
 32 35  1  0
  9 36  1  0
 36 37  1  0
 36 38  2  0
 38 39  1  0
  2 40  1  0
 40 41  1  0
 40 42  1  0
 42 43  2  0
 42 44  1  0
 44 45  1  0
 44 46  1  0
 44 47  1  0
 47 48  1  0
 47 49  1  0
 47 50  1  0
 50 51  1  0
 50 52  1  0
 50 53  1  0
 53 54  2  0
 38  4  1  0
 53 40  1  0
M  END
>  <UniqueID>  (38) 
37

>  <SMILES>  (38) 
CCN(CC)CCCNc1ccc(/N=C/C2C(=O)CCCC2=O)cc1

>  <Energy>  (38) 
50.11929513341905

>  <Genealogy>  (38) 
CCN(CC)CCCNc1ccc(/N=C/C2C(=O)CCCC2=O)cc1 (cis-trans isomerization)
CCN(CC)CCCNc1ccc(/N=C/C2C(=O)CCCC2=O)cc1 (3D coordinates assigned)
CCN(CC)CCCNc1ccc(/N=C/C2C(=O)CCCC2=O)cc1 (nonaromatic ring conformer: 50.11929513341905 kcal/mol)

>  <smiles>  (38) 
CCN(CC)CCCNc1ccc(N=CC2C(=O)CCCC2=O)cc1

>  <score_type>  (38) 
oracle

>  <origin>  (38) 
adg

>  <m_score__min__energy>  (38) 
-8.4299999999999997

>  <m_primary>  (38) 
energy

$$$$
38:0
     RDKit          3D

 61 63  0  0  0  0  0  0  0  0999 V2000
    0.6020   17.5000  -31.7970 C   0  0  0  0  0  0  0  0  0  0  0  0
   -0.8660   17.1400  -31.9670 C   0  0  0  0  0  0  0  0  0  0  0  0
   -1.3170   17.5940  -33.2370 O   0  0  0  0  0  0  0  0  0  0  0  0
   -0.9010   18.7830  -33.8610 C   0  0  0  0  0  0  0  0  0  0  0  0
   -1.0910   20.0410  -33.2560 C   0  0  0  0  0  0  0  0  0  0  0  0
   -0.6330   21.2040  -33.8800 C   0  0  0  0  0  0  0  0  0  0  0  0
    0.0150   21.1290  -35.1090 C   0  0  0  0  0  0  0  0  0  0  0  0
    0.1990   19.8920  -35.7280 C   0  0  0  0  0  0  0  0  0  0  0  0
   -0.2680   18.7120  -35.1220 C   0  0  0  0  0  0  0  0  0  0  0  0
   -0.0910   17.3930  -35.8430 C   0  0  0  0  0  0  0  0  0  0  0  0
    0.2980   16.3100  -34.9210 N   0  0  0  0  0  0  0  0  0  0  0  0
   -0.0750   14.9520  -35.3510 C   0  0  0  0  0  0  0  0  0  0  0  0
   -1.5700   14.5590  -35.1690 C   0  0  0  0  0  0  0  0  0  0  0  0
   -2.4940   15.5920  -34.6230 N   0  0  0  0  0  0  0  0  0  0  0  0
   -3.3180   15.1070  -33.4940 C   0  0  0  0  0  0  0  0  0  0  0  0
   -4.0480   16.2770  -32.8180 C   0  0  0  0  0  0  0  0  0  0  0  0
   -4.7470   17.0970  -33.8150 N   0  0  0  0  0  0  0  0  0  0  0  0
   -5.8450   17.9070  -33.3710 C   0  0  0  0  0  0  0  0  0  0  0  0
   -6.8170   17.3650  -32.5210 C   0  0  0  0  0  0  0  0  0  0  0  0
   -7.8840   18.1530  -32.0800 C   0  0  0  0  0  0  0  0  0  0  0  0
   -7.9770   19.4980  -32.4650 C   0  0  0  0  0  0  0  0  0  0  0  0
   -9.1380   20.3430  -32.0170 C   0  0  0  0  0  0  0  0  0  0  0  0
   -8.6590   21.7120  -31.5440 C   0  0  0  0  0  0  0  0  0  0  0  0
   -7.0040   20.0340  -33.3210 C   0  0  0  0  0  0  0  0  0  0  0  0
   -5.9470   19.2430  -33.7740 C   0  0  0  0  0  0  0  0  0  0  0  0
   -4.0560   17.4570  -35.0540 C   0  0  0  0  0  0  0  0  0  0  0  0
   -3.3400   16.2400  -35.6480 C   0  0  0  0  0  0  0  0  0  0  0  0
    0.8433   17.5592  -30.7254 H   0  0  0  0  0  0  0  0  0  0  0  0
    1.2261   16.7283  -32.2713 H   0  0  0  0  0  0  0  0  0  0  0  0
    0.7983   18.4729  -32.2713 H   0  0  0  0  0  0  0  0  0  0  0  0
   -0.9865   16.0485  -31.9029 H   0  0  0  0  0  0  0  0  0  0  0  0
   -1.4574   17.6193  -31.1729 H   0  0  0  0  0  0  0  0  0  0  0  0
   -1.6038   20.1080  -32.2851 H   0  0  0  0  0  0  0  0  0  0  0  0
   -0.7850   22.1813  -33.3986 H   0  0  0  0  0  0  0  0  0  0  0  0
    0.3826   22.0458  -35.5932 H   0  0  0  0  0  0  0  0  0  0  0  0
    0.7139   19.8394  -36.6986 H   0  0  0  0  0  0  0  0  0  0  0  0
   -1.0404   17.1229  -36.3284 H   0  0  0  0  0  0  0  0  0  0  0  0
    0.7128   17.5148  -36.5840 H   0  0  0  0  0  0  0  0  0  0  0  0
   -0.0630   16.5000  -33.9600 H   0  0  0  0  0  0  0  0  0  0  0  0
    0.1683   14.8599  -36.4198 H   0  0  0  0  0  0  0  0  0  0  0  0
    0.4897   14.2711  -34.6972 H   0  0  0  0  0  0  0  0  0  0  0  0
   -1.9546   14.2623  -36.1559 H   0  0  0  0  0  0  0  0  0  0  0  0
   -1.5589   13.7646  -34.4082 H   0  0  0  0  0  0  0  0  0  0  0  0
   -1.8630   16.3340  -34.2300 H   0  0  0  0  0  0  0  0  0  0  0  0
   -4.0595   14.3869  -33.8704 H   0  0  0  0  0  0  0  0  0  0  0  0
   -2.6606   14.6243  -32.7559 H   0  0  0  0  0  0  0  0  0  0  0  0
   -4.7802   15.8794  -32.0998 H   0  0  0  0  0  0  0  0  0  0  0  0
   -3.3077   16.9043  -32.2999 H   0  0  0  0  0  0  0  0  0  0  0  0
   -6.7406   16.3159  -32.1993 H   0  0  0  0  0  0  0  0  0  0  0  0
   -8.6544   17.7158  -31.4278 H   0  0  0  0  0  0  0  0  0  0  0  0
   -9.8341   20.4751  -32.8584 H   0  0  0  0  0  0  0  0  0  0  0  0
   -9.6415   19.8365  -31.1804 H   0  0  0  0  0  0  0  0  0  0  0  0
   -8.6501   21.7375  -30.4443 H   0  0  0  0  0  0  0  0  0  0  0  0
   -7.6430   21.8962  -31.9233 H   0  0  0  0  0  0  0  0  0  0  0  0
   -9.3385   22.4894  -31.9233 H   0  0  0  0  0  0  0  0  0  0  0  0
   -7.0743   21.0851  -33.6376 H   0  0  0  0  0  0  0  0  0  0  0  0
   -5.1920   19.6712  -34.4498 H   0  0  0  0  0  0  0  0  0  0  0  0
   -4.7907   17.8340  -35.7807 H   0  0  0  0  0  0  0  0  0  0  0  0
   -3.3086   18.2323  -34.8296 H   0  0  0  0  0  0  0  0  0  0  0  0
   -4.0883   15.5194  -36.0095 H   0  0  0  0  0  0  0  0  0  0  0  0
   -2.7026   16.5710  -36.4812 H   0  0  0  0  0  0  0  0  0  0  0  0
  1  2  1  0
  2  3  1  0
  3  4  1  0
  4  5  2  0
  5  6  1  0
  6  7  2  0
  7  8  1  0
  8  9  2  0
  9 10  1  0
 10 11  1  0
 11 12  1  0
 12 13  1  0
 13 14  1  0
 14 15  1  0
 15 16  1  0
 16 17  1  0
 17 18  1  0
 18 19  2  0
 19 20  1  0
 20 21  2  0
 21 22  1  0
 22 23  1  0
 21 24  1  0
 24 25  2  0
 17 26  1  0
 26 27  1  0
  9  4  1  0
 27 14  1  0
 25 18  1  0
  1 28  1  0
  1 29  1  0
  1 30  1  0
  2 31  1  0
  2 32  1  0
  5 33  1  0
  6 34  1  0
  7 35  1  0
  8 36  1  0
 10 37  1  0
 10 38  1  0
 11 39  1  0
 12 40  1  0
 12 41  1  0
 13 42  1  0
 13 43  1  0
 14 44  1  0
 15 45  1  0
 15 46  1  0
 16 47  1  0
 16 48  1  0
 19 49  1  0
 20 50  1  0
 22 51  1  0
 22 52  1  0
 23 53  1  0
 23 54  1  0
 23 55  1  0
 24 56  1  0
 25 57  1  0
 26 58  1  0
 26 59  1  0
 27 60  1  0
 27 61  1  0
M  CHG  1  14   1
M  END
>  <UniqueID>  (39) 
38

>  <SMILES>  (39) 
CCOc1ccccc1CNCC[NH+]1CCN(c2ccc(CC)cc2)CC1

>  <Energy>  (39) 
69.4440357775424

>  <Genealogy>  (39) 
CCOc1ccccc1CNCC[NH+]1CCN(c2ccc(CC)cc2)CC1 (protonated)
CCOc1ccccc1CNCC[NH+]1CCN(c2ccc(CC)cc2)CC1 (3D coordinates assigned)
CCOc1ccccc1CNCC[NH+]1CCN(c2ccc(CC)cc2)CC1 (nonaromatic ring conformer: 69.4440357775424 kcal/mol)

>  <smiles>  (39) 
CCOc1ccccc1CNCCN1CCN(c2ccc(CC)cc2)CC1

>  <score_type>  (39) 
oracle

>  <origin>  (39) 
adg

>  <m_score__min__energy>  (39) 
-8.5600000000000005

>  <m_primary>  (39) 
energy

$$$$
39:0
     RDKit          3D

 48 50  0  0  0  0  0  0  0  0999 V2000
   -6.1480   17.9790  -33.8640 C   0  0  0  0  0  0  0  0  0  0  0  0
   -6.2530   18.0850  -32.3460 C   0  0  0  0  0  0  0  0  0  0  0  0
   -7.1400   19.2120  -31.9720 N   0  0  0  0  0  0  0  0  0  0  0  0
   -8.5310   18.7510  -31.7600 C   0  0  0  0  0  0  0  0  0  0  0  0
   -9.4800   19.4780  -32.7090 C   0  0  0  0  0  0  0  0  0  0  0  0
   -7.0720   20.3120  -32.9660 C   0  0  0  0  0  0  0  0  0  0  0  0
   -6.8460   21.6460  -32.2560 C   0  0  0  0  0  0  0  0  0  0  0  0
   -5.5550   22.1600  -32.5720 O   0  0  0  0  0  0  0  0  0  0  0  0
   -4.6510   22.6710  -31.6310 C   0  0  0  0  0  0  0  0  0  0  0  0
   -3.3660   22.1320  -31.4480 C   0  0  0  0  0  0  0  0  0  0  0  0
   -2.4990   22.6810  -30.4970 C   0  0  0  0  0  0  0  0  0  0  0  0
   -2.9000   23.7770  -29.7120 C   0  0  0  0  0  0  0  0  0  0  0  0
   -1.9810   24.3590  -28.7020 C   0  0  0  0  0  0  0  0  0  0  0  0
   -0.5920   24.3850  -28.9240 C   0  0  0  0  0  0  0  0  0  0  0  0
    0.2450   24.9220  -27.9980 N   0  0  0  0  0  0  0  0  0  0  0  0
   -0.2160   25.4450  -26.8320 C   0  0  0  0  0  0  0  0  0  0  0  0
    0.6800   25.9870  -25.9020 C   0  0  0  0  0  0  0  0  0  0  0  0
    0.2010   26.5250  -24.7030 C   0  0  0  0  0  0  0  0  0  0  0  0
   -1.1700   26.5240  -24.4290 C   0  0  0  0  0  0  0  0  0  0  0  0
   -2.0720   25.9860  -25.3530 C   0  0  0  0  0  0  0  0  0  0  0  0
   -1.6000   25.4450  -26.5600 C   0  0  0  0  0  0  0  0  0  0  0  0
   -2.4790   24.8980  -27.5030 C   0  0  0  0  0  0  0  0  0  0  0  0
   -4.1880   24.3110  -29.9000 C   0  0  0  0  0  0  0  0  0  0  0  0
   -5.0510   23.7610  -30.8520 C   0  0  0  0  0  0  0  0  0  0  0  0
   -5.3964   17.2203  -34.1275 H   0  0  0  0  0  0  0  0  0  0  0  0
   -7.1240   17.6881  -34.2796 H   0  0  0  0  0  0  0  0  0  0  0  0
   -5.8479   18.9522  -34.2796 H   0  0  0  0  0  0  0  0  0  0  0  0
   -6.6665   17.1483  -31.9440 H   0  0  0  0  0  0  0  0  0  0  0  0
   -5.2510   18.2628  -31.9283 H   0  0  0  0  0  0  0  0  0  0  0  0
   -8.5875   17.6688  -31.9488 H   0  0  0  0  0  0  0  0  0  0  0  0
   -8.8260   18.9682  -30.7228 H   0  0  0  0  0  0  0  0  0  0  0  0
  -10.2198   20.0448  -32.1247 H   0  0  0  0  0  0  0  0  0  0  0  0
   -8.9058   20.1696  -33.3431 H   0  0  0  0  0  0  0  0  0  0  0  0
   -9.9982   18.7436  -33.3431 H   0  0  0  0  0  0  0  0  0  0  0  0
   -6.2403   20.1239  -33.6609 H   0  0  0  0  0  0  0  0  0  0  0  0
   -8.0204   20.3552  -33.5215 H   0  0  0  0  0  0  0  0  0  0  0  0
   -7.6126   22.3648  -32.5809 H   0  0  0  0  0  0  0  0  0  0  0  0
   -6.9136   21.4898  -31.1693 H   0  0  0  0  0  0  0  0  0  0  0  0
   -3.0404   21.2745  -32.0553 H   0  0  0  0  0  0  0  0  0  0  0  0
   -1.4952   22.2518  -30.3621 H   0  0  0  0  0  0  0  0  0  0  0  0
   -0.1803   23.9673  -29.8546 H   0  0  0  0  0  0  0  0  0  0  0  0
    1.7593   25.9896  -26.1143 H   0  0  0  0  0  0  0  0  0  0  0  0
    0.9055   26.9504  -23.9731 H   0  0  0  0  0  0  0  0  0  0  0  0
   -1.5405   26.9476  -23.4839 H   0  0  0  0  0  0  0  0  0  0  0  0
   -3.1501   25.9867  -25.1344 H   0  0  0  0  0  0  0  0  0  0  0  0
   -3.5610   24.8901  -27.3052 H   0  0  0  0  0  0  0  0  0  0  0  0
   -4.5181   25.1673  -29.2936 H   0  0  0  0  0  0  0  0  0  0  0  0
   -6.0546   24.1898  -30.9897 H   0  0  0  0  0  0  0  0  0  0  0  0
  1  2  1  0
  2  3  1  0
  3  4  1  0
  4  5  1  0
  3  6  1  0
  6  7  1  0
  7  8  1  0
  8  9  1  0
  9 10  2  0
 10 11  1  0
 11 12  2  0
 12 13  1  0
 13 14  2  0
 14 15  1  0
 15 16  2  0
 16 17  1  0
 17 18  2  0
 18 19  1  0
 19 20  2  0
 20 21  1  0
 21 22  2  0
 12 23  1  0
 23 24  2  0
 24  9  1  0
 22 13  1  0
 21 16  1  0
  1 25  1  0
  1 26  1  0
  1 27  1  0
  2 28  1  0
  2 29  1  0
  4 30  1  0
  4 31  1  0
  5 32  1  0
  5 33  1  0
  5 34  1  0
  6 35  1  0
  6 36  1  0
  7 37  1  0
  7 38  1  0
 10 39  1  0
 11 40  1  0
 14 41  1  0
 17 42  1  0
 18 43  1  0
 19 44  1  0
 20 45  1  0
 22 46  1  0
 23 47  1  0
 24 48  1  0
M  END
>  <UniqueID>  (40) 
39

>  <SMILES>  (40) 
CCN(CC)CCOc1ccc(-c2cnc3ccccc3c2)cc1

>  <Energy>  (40) 
55.460078482148596

>  <Genealogy>  (40) 
CCN(CC)CCOc1ccc(-c2cnc3ccccc3c2)cc1 (3D coordinates assigned)
CCN(CC)CCOc1ccc(-c2cnc3ccccc3c2)cc1 (optimized conformer: 55.460078482148596 kcal/mol)

>  <smiles>  (40) 
CCN(CC)CCOc1ccc(-c2cnc3ccccc3c2)cc1

>  <score_type>  (40) 
oracle

>  <origin>  (40) 
adg

>  <m_score__min__energy>  (40) 
-7.4100000000000001

>  <m_primary>  (40) 
energy

$$$$
40:0
     RDKit          3D

 73 77  0  0  0  0  0  0  0  0999 V2000
    0.7660   18.4050  -28.8770 C   0  0  0  0  0  0  0  0  0  0  0  0
    0.9850   19.5750  -29.6600 O   0  0  0  0  0  0  0  0  0  0  0  0
    1.0640   19.6090  -31.0620 C   0  0  0  0  0  0  0  0  0  0  0  0
    2.0360   18.8570  -31.7390 C   0  0  0  0  0  0  0  0  0  0  0  0
    2.1510   18.9200  -33.1190 C   0  0  0  0  0  0  0  0  0  0  0  0
    1.3500   19.7930  -33.8560 C   0  0  0  0  0  0  0  0  0  0  0  0
    1.5400   19.8930  -35.2430 C   0  0  0  0  0  0  0  0  0  0  0  0
    0.8010   20.8050  -35.9930 C   0  0  0  0  0  0  0  0  0  0  0  0
   -0.1190   21.6380  -35.3640 C   0  0  0  0  0  0  0  0  0  0  0  0
   -0.3280   21.5460  -33.9850 C   0  0  0  0  0  0  0  0  0  0  0  0
    0.3710   20.5910  -33.2010 C   0  0  0  0  0  0  0  0  0  0  0  0
    0.1560   20.4230  -31.7930 C   0  0  0  0  0  0  0  0  0  0  0  0
   -1.0270   21.0840  -31.0620 C   0  0  0  0  0  0  0  0  0  0  0  0
   -0.6150   21.7530  -29.7270 C   0  0  0  0  0  0  0  0  0  0  0  0
   -1.2380   21.1030  -28.4760 C   0  0  0  0  0  0  0  0  0  0  0  0
   -2.6990   20.8420  -28.5780 N   0  0  0  0  0  0  0  0  0  0  0  0
   -3.5240   21.6830  -27.6790 C   0  0  0  0  0  0  0  0  0  0  0  0
   -2.9100   23.0880  -27.5560 C   0  0  0  0  0  0  0  0  0  0  0  0
   -3.7230   24.1600  -28.3000 C   0  0  0  0  0  0  0  0  0  0  0  0
   -2.9170   24.8280  -29.4210 C   0  0  0  0  0  0  0  0  0  0  0  0
   -3.8130   25.3040  -30.4710 N   0  0  0  0  0  0  0  0  0  0  0  0
   -5.1640   24.8600  -30.6440 C   0  0  0  0  0  0  0  0  0  0  0  0
   -6.1200   25.6250  -30.3340 O   0  0  0  0  0  0  0  0  0  0  0  0
   -5.4350   23.5100  -31.1850 C   0  0  0  0  0  0  0  0  0  0  0  0
   -4.5540   22.9160  -32.1060 C   0  0  0  0  0  0  0  0  0  0  0  0
   -4.8060   21.6350  -32.6040 C   0  0  0  0  0  0  0  0  0  0  0  0
   -5.9440   20.9180  -32.1920 C   0  0  0  0  0  0  0  0  0  0  0  0
   -6.2210   19.5630  -32.7310 C   0  0  0  0  0  0  0  0  0  0  0  0
   -5.5640   19.1030  -33.8890 C   0  0  0  0  0  0  0  0  0  0  0  0
   -5.8140   17.8190  -34.3820 C   0  0  0  0  0  0  0  0  0  0  0  0
   -6.7220   16.9770  -33.7270 C   0  0  0  0  0  0  0  0  0  0  0  0
   -6.9660   15.6490  -34.2250 C   0  0  0  0  0  0  0  0  0  0  0  0
   -7.1620   14.5800  -34.6240 N   0  0  0  0  0  0  0  0  0  0  0  0
   -7.3790   17.4250  -32.5750 C   0  0  0  0  0  0  0  0  0  0  0  0
   -7.1310   18.7100  -32.0800 C   0  0  0  0  0  0  0  0  0  0  0  0
   -6.8190   21.5100  -31.2670 C   0  0  0  0  0  0  0  0  0  0  0  0
   -6.5670   22.7890  -30.7670 C   0  0  0  0  0  0  0  0  0  0  0  0
   -3.2450   20.7900  -29.9510 C   0  0  0  0  0  0  0  0  0  0  0  0
   -2.2470   20.1530  -30.9150 C   0  0  0  0  0  0  0  0  0  0  0  0
    0.8145   18.6641  -27.8091 H   0  0  0  0  0  0  0  0  0  0  0  0
   -0.2256   17.9890  -29.1087 H   0  0  0  0  0  0  0  0  0  0  0  0
    1.5400   17.6585  -29.1087 H   0  0  0  0  0  0  0  0  0  0  0  0
    2.7160   18.2087  -31.1669 H   0  0  0  0  0  0  0  0  0  0  0  0
    2.8786   18.2775  -33.6365 H   0  0  0  0  0  0  0  0  0  0  0  0
    2.2776   19.2467  -35.7412 H   0  0  0  0  0  0  0  0  0  0  0  0
    0.9447   20.8666  -37.0818 H   0  0  0  0  0  0  0  0  0  0  0  0
   -0.6850   22.3730  -35.9552 H   0  0  0  0  0  0  0  0  0  0  0  0
   -1.0453   22.2242  -33.4997 H   0  0  0  0  0  0  0  0  0  0  0  0
   -1.3576   21.9023  -31.7185 H   0  0  0  0  0  0  0  0  0  0  0  0
    0.4798   21.6964  -29.6362 H   0  0  0  0  0  0  0  0  0  0  0  0
   -0.9867   22.7877  -29.7640 H   0  0  0  0  0  0  0  0  0  0  0  0
   -0.7295   20.1440  -28.2980 H   0  0  0  0  0  0  0  0  0  0  0  0
   -1.1055   21.8201  -27.6525 H   0  0  0  0  0  0  0  0  0  0  0  0
   -4.5410   21.7654  -28.0901 H   0  0  0  0  0  0  0  0  0  0  0  0
   -3.5587   21.2175  -26.6830 H   0  0  0  0  0  0  0  0  0  0  0  0
   -2.8626   23.3589  -26.4909 H   0  0  0  0  0  0  0  0  0  0  0  0
   -1.9100   23.0539  -28.0130 H   0  0  0  0  0  0  0  0  0  0  0  0
   -4.6142   23.6872  -28.7385 H   0  0  0  0  0  0  0  0  0  0  0  0
   -3.9979   24.9386  -27.5732 H   0  0  0  0  0  0  0  0  0  0  0  0
   -2.3566   25.6796  -29.0078 H   0  0  0  0  0  0  0  0  0  0  0  0
   -2.2203   24.0926  -29.8496 H   0  0  0  0  0  0  0  0  0  0  0  0
   -3.6595   23.4640  -32.4370 H   0  0  0  0  0  0  0  0  0  0  0  0
   -4.1084   21.1832  -33.3246 H   0  0  0  0  0  0  0  0  0  0  0  0
   -4.8496   19.7584  -34.4087 H   0  0  0  0  0  0  0  0  0  0  0  0
   -5.2961   17.4687  -35.2871 H   0  0  0  0  0  0  0  0  0  0  0  0
   -8.0916   16.7656  -32.0579 H   0  0  0  0  0  0  0  0  0  0  0  0
   -7.6515   19.0560  -31.1748 H   0  0  0  0  0  0  0  0  0  0  0  0
   -7.7117   20.9608  -30.9331 H   0  0  0  0  0  0  0  0  0  0  0  0
   -7.2604   23.2364  -30.0396 H   0  0  0  0  0  0  0  0  0  0  0  0
   -4.1706   20.1957  -29.9474 H   0  0  0  0  0  0  0  0  0  0  0  0
   -3.4473   21.8180  -30.2860 H   0  0  0  0  0  0  0  0  0  0  0  0
   -1.9223   19.1792  -30.5195 H   0  0  0  0  0  0  0  0  0  0  0  0
   -2.7213   20.0041  -31.8963 H   0  0  0  0  0  0  0  0  0  0  0  0
  1  2  1  0
  2  3  1  0
  3  4  2  0
  4  5  1  0
  5  6  2  0
  6  7  1  0
  7  8  2  0
  8  9  1  0
  9 10  2  0
 10 11  1  0
 11 12  2  0
 12 13  1  0
 13 14  1  0
 14 15  1  0
 15 16  1  0
 16 17  1  0
 17 18  1  0
 18 19  1  0
 19 20  1  0
 20 21  1  0
 21 22  1  0
 22 23  2  0
 22 24  1  0
 24 25  2  0
 25 26  1  0
 26 27  2  0
 27 28  1  0
 28 29  2  0
 29 30  1  0
 30 31  2  0
 31 32  1  0
 32 33  3  0
 31 34  1  0
 34 35  2  0
 27 36  1  0
 36 37  2  0
 16 38  1  0
 38 39  1  0
 12  3  1  0
 39 13  1  0
 11  6  1  0
 37 24  1  0
 35 28  1  0
  1 40  1  0
  1 41  1  0
  1 42  1  0
  4 43  1  0
  5 44  1  0
  7 45  1  0
  8 46  1  0
  9 47  1  0
 10 48  1  0
 13 49  1  0
 14 50  1  0
 14 51  1  0
 15 52  1  0
 15 53  1  0
 17 54  1  0
 17 55  1  0
 18 56  1  0
 18 57  1  0
 19 58  1  0
 19 59  1  0
 20 60  1  0
 20 61  1  0
 25 62  1  0
 26 63  1  0
 29 64  1  0
 30 65  1  0
 34 66  1  0
 35 67  1  0
 36 68  1  0
 37 69  1  0
 38 70  1  0
 38 71  1  0
 39 72  1  0
 39 73  1  0
M  CHG  1  21  -1
M  END
>  <UniqueID>  (41) 
40

>  <SMILES>  (41) 
COc1ccc2ccccc2c1C1CCN(CCCC[N-]C(=O)c2ccc(-c3ccc(C#N)cc3)cc2)CC1

>  <Energy>  (41) 
103.68823152784444

>  <Genealogy>  (41) 
COc1ccc2ccccc2c1C1CCN(CCCC[N-]C(=O)c2ccc(-c3ccc(C#N)cc3)cc2)CC1 (protonated)
COc1ccc2ccccc2c1C1CCN(CCCC[N-]C(=O)c2ccc(-c3ccc(C#N)cc3)cc2)CC1 (3D coordinates assigned)
COc1ccc2ccccc2c1C1CCN(CCCC[N-]C(=O)c2ccc(-c3ccc(C#N)cc3)cc2)CC1 (nonaromatic ring conformer: 103.68823152784444 kcal/mol)

>  <smiles>  (41) 
COc1ccc2ccccc2c1C1CCN(CCCCNC(=O)c2ccc(-c3ccc(C#N)cc3)cc2)CC1

>  <score_type>  (41) 
oracle

>  <origin>  (41) 
adg

>  <m_score__min__energy>  (41) 
-11.98

>  <m_primary>  (41) 
energy

$$$$
41:0
     RDKit          3D

 48 50  0  0  0  0  0  0  0  0999 V2000
   -0.3790   22.0180  -28.4680 C   0  0  0  0  0  0  0  0  0  0  0  0
   -1.1370   22.7930  -27.4740 N   0  0  0  0  0  0  0  0  0  0  0  0
   -0.8430   22.3520  -26.1030 C   0  0  0  0  0  0  0  0  0  0  0  0
   -1.0430   24.2610  -27.6610 C   0  0  0  0  0  0  0  0  0  0  0  0
   -2.0680   24.8760  -28.6400 C   0  0  0  0  0  0  0  0  0  0  0  0
   -2.9240   23.8650  -29.2580 N   0  0  0  0  0  0  0  0  0  0  0  0
   -3.8000   24.1590  -30.3600 C   0  0  0  0  0  0  0  0  0  0  0  0
   -3.8590   25.3350  -30.8140 O   0  0  0  0  0  0  0  0  0  0  0  0
   -4.6600   23.1100  -30.9580 C   0  0  0  0  0  0  0  0  0  0  0  0
   -4.1250   22.1280  -31.8100 C   0  0  0  0  0  0  0  0  0  0  0  0
   -4.9480   21.1470  -32.3680 C   0  0  0  0  0  0  0  0  0  0  0  0
   -6.3250   21.1220  -32.0800 C   0  0  0  0  0  0  0  0  0  0  0  0
   -6.8670   22.1160  -31.2450 C   0  0  0  0  0  0  0  0  0  0  0  0
   -6.0410   23.1040  -30.6950 C   0  0  0  0  0  0  0  0  0  0  0  0
   -8.2770   22.1220  -30.9790 N   0  0  0  0  0  0  0  0  0  0  0  0
   -9.1170   20.9930  -31.3720 C   0  0  0  0  0  0  0  0  0  0  0  0
   -8.6490   20.4230  -32.7110 C   0  0  0  0  0  0  0  0  0  0  0  0
   -7.2080   20.1340  -32.6610 N   0  0  0  0  0  0  0  0  0  0  0  0
   -6.7130   18.8980  -33.2100 C   0  0  0  0  0  0  0  0  0  0  0  0
   -6.9700   17.6790  -32.5600 C   0  0  0  0  0  0  0  0  0  0  0  0
   -6.5000   16.4790  -33.1000 C   0  0  0  0  0  0  0  0  0  0  0  0
   -5.7740   16.4850  -34.2950 C   0  0  0  0  0  0  0  0  0  0  0  0
   -5.5190   17.6930  -34.9520 C   0  0  0  0  0  0  0  0  0  0  0  0
   -5.9890   18.8950  -34.4140 C   0  0  0  0  0  0  0  0  0  0  0  0
    0.3000   21.3237  -27.9514 H   0  0  0  0  0  0  0  0  0  0  0  0
   -1.0772   21.4473  -29.0980 H   0  0  0  0  0  0  0  0  0  0  0  0
    0.2070   22.7033  -29.0980 H   0  0  0  0  0  0  0  0  0  0  0  0
   -1.3062   23.0469  -25.3870 H   0  0  0  0  0  0  0  0  0  0  0  0
   -1.2487   21.3414  -25.9480 H   0  0  0  0  0  0  0  0  0  0  0  0
    0.2459   22.3378  -25.9480 H   0  0  0  0  0  0  0  0  0  0  0  0
   -1.1846   24.7370  -26.6795 H   0  0  0  0  0  0  0  0  0  0  0  0
   -0.0539   24.4451  -28.1058 H   0  0  0  0  0  0  0  0  0  0  0  0
   -2.7016   25.5860  -28.0882 H   0  0  0  0  0  0  0  0  0  0  0  0
   -1.5067   25.3765  -29.4428 H   0  0  0  0  0  0  0  0  0  0  0  0
   -2.8690   22.8950  -28.8780 H   0  0  0  0  0  0  0  0  0  0  0  0
   -3.0491   22.1322  -32.0391 H   0  0  0  0  0  0  0  0  0  0  0  0
   -4.5164   20.3884  -33.0375 H   0  0  0  0  0  0  0  0  0  0  0  0
   -6.4766   23.8824  -30.0514 H   0  0  0  0  0  0  0  0  0  0  0  0
   -8.7070   22.9100  -30.4460 H   0  0  0  0  0  0  0  0  0  0  0  0
   -9.0546   20.2094  -30.6026 H   0  0  0  0  0  0  0  0  0  0  0  0
  -10.1560   21.3393  -31.4746 H   0  0  0  0  0  0  0  0  0  0  0  0
   -9.1992   19.4945  -32.9234 H   0  0  0  0  0  0  0  0  0  0  0  0
   -8.8409   21.1613  -33.5035 H   0  0  0  0  0  0  0  0  0  0  0  0
   -7.5439   17.6694  -31.6216 H   0  0  0  0  0  0  0  0  0  0  0  0
   -6.7014   15.5284  -32.5844 H   0  0  0  0  0  0  0  0  0  0  0  0
   -5.4035   15.5397  -34.7183 H   0  0  0  0  0  0  0  0  0  0  0  0
   -4.9484   17.6975  -35.8924 H   0  0  0  0  0  0  0  0  0  0  0  0
   -5.7909   19.8428  -34.9360 H   0  0  0  0  0  0  0  0  0  0  0  0
  1  2  1  0
  2  3  1  0
  2  4  1  0
  4  5  1  0
  5  6  1  0
  6  7  1  0
  7  8  2  0
  7  9  1  0
  9 10  2  0
 10 11  1  0
 11 12  2  0
 12 13  1  0
 13 14  2  0
 13 15  1  0
 15 16  1  0
 16 17  1  0
 17 18  1  0
 18 19  1  0
 19 20  2  0
 20 21  1  0
 21 22  2  0
 22 23  1  0
 23 24  2  0
 14  9  1  0
 24 19  1  0
 18 12  1  0
  1 25  1  0
  1 26  1  0
  1 27  1  0
  3 28  1  0
  3 29  1  0
  3 30  1  0
  4 31  1  0
  4 32  1  0
  5 33  1  0
  5 34  1  0
  6 35  1  0
 10 36  1  0
 11 37  1  0
 14 38  1  0
 15 39  1  0
 16 40  1  0
 16 41  1  0
 17 42  1  0
 17 43  1  0
 20 44  1  0
 21 45  1  0
 22 46  1  0
 23 47  1  0
 24 48  1  0
M  END
>  <UniqueID>  (42) 
41

>  <SMILES>  (42) 
CN(C)CCNC(=O)c1ccc2c(c1)NCCN2c1ccccc1

>  <Energy>  (42) 
59.452235537726466

>  <Genealogy>  (42) 
CN(C)CCNC(=O)c1ccc2c(c1)NCCN2c1ccccc1 (3D coordinates assigned)
CN(C)CCNC(=O)c1ccc2c(c1)NCCN2c1ccccc1 (nonaromatic ring conformer: 59.452235537726466 kcal/mol)

>  <smiles>  (42) 
CN(C)CCNC(=O)c1ccc2c(c1)NCCN2c1ccccc1

>  <score_type>  (42) 
oracle

>  <origin>  (42) 
adg

>  <m_score__min__energy>  (42) 
-8.5399999999999991

>  <m_primary>  (42) 
energy

$$$$
42:0
     RDKit          3D

 33 35  0  0  0  0  0  0  0  0999 V2000
   -2.8340   19.8300  -27.2490 C   0  0  0  0  0  0  0  0  0  0  0  0
   -1.5690   21.0670  -26.8230 S   0  0  0  0  0  0  0  0  0  0  0  0
   -2.2430   22.3110  -27.9260 C   0  0  0  0  0  0  0  0  0  0  0  0
   -1.7570   22.4270  -29.2340 C   0  0  0  0  0  0  0  0  0  0  0  0
   -2.2790   23.3980  -30.0940 C   0  0  0  0  0  0  0  0  0  0  0  0
   -3.2920   24.2700  -29.6480 C   0  0  0  0  0  0  0  0  0  0  0  0
   -3.8490   25.2670  -30.4670 O   0  0  0  0  0  0  0  0  0  0  0  0
   -5.2460   25.4660  -30.6840 C   0  0  0  0  0  0  0  0  0  0  0  0
   -5.8980   24.1920  -31.1220 C   0  0  0  0  0  0  0  0  0  0  0  0
   -7.2150   23.8340  -30.8790 C   0  0  0  0  0  0  0  0  0  0  0  0
   -7.4010   22.6400  -31.4570 N   0  0  0  0  0  0  0  0  0  0  0  0
   -8.5080   21.8570  -31.5050 C   0  0  0  0  0  0  0  0  0  0  0  0
   -8.4250   20.6360  -32.1900 C   0  0  0  0  0  0  0  0  0  0  0  0
   -7.2100   20.2640  -32.8000 C   0  0  0  0  0  0  0  0  0  0  0  0
   -6.0900   21.1090  -32.7230 C   0  0  0  0  0  0  0  0  0  0  0  0
   -6.2310   22.3090  -32.0300 C   0  0  0  0  0  0  0  0  0  0  0  0
   -5.2710   23.2390  -31.8550 N   0  0  0  0  0  0  0  0  0  0  0  0
   -3.7700   24.1470  -28.3380 C   0  0  0  0  0  0  0  0  0  0  0  0
   -3.2490   23.1740  -27.4800 C   0  0  0  0  0  0  0  0  0  0  0  0
   -3.2624   19.4110  -26.3266 H   0  0  0  0  0  0  0  0  0  0  0  0
   -3.6300   20.3078  -27.8390 H   0  0  0  0  0  0  0  0  0  0  0  0
   -2.3742   19.0235  -27.8390 H   0  0  0  0  0  0  0  0  0  0  0  0
   -0.9625   21.7525  -29.5859 H   0  0  0  0  0  0  0  0  0  0  0  0
   -1.8975   23.4815  -31.1224 H   0  0  0  0  0  0  0  0  0  0  0  0
   -5.7122   25.8074  -29.7480 H   0  0  0  0  0  0  0  0  0  0  0  0
   -5.3782   26.2213  -31.4727 H   0  0  0  0  0  0  0  0  0  0  0  0
   -7.9620   24.4170  -30.3203 H   0  0  0  0  0  0  0  0  0  0  0  0
   -9.4442   22.1710  -31.0203 H   0  0  0  0  0  0  0  0  0  0  0  0
   -9.3013   19.9738  -32.2507 H   0  0  0  0  0  0  0  0  0  0  0  0
   -7.1383   19.3077  -33.3388 H   0  0  0  0  0  0  0  0  0  0  0  0
   -5.1350   20.8324  -33.1937 H   0  0  0  0  0  0  0  0  0  0  0  0
   -4.5621   24.8215  -27.9808 H   0  0  0  0  0  0  0  0  0  0  0  0
   -3.6311   23.0870  -26.4522 H   0  0  0  0  0  0  0  0  0  0  0  0
  1  2  1  0
  2  3  1  0
  3  4  2  0
  4  5  1  0
  5  6  2  0
  6  7  1  0
  7  8  1  0
  8  9  1  0
  9 10  2  0
 10 11  1  0
 11 12  1  0
 12 13  2  0
 13 14  1  0
 14 15  2  0
 15 16  1  0
 16 17  2  0
  6 18  1  0
 18 19  2  0
 19  3  1  0
 17  9  1  0
 16 11  1  0
  1 20  1  0
  1 21  1  0
  1 22  1  0
  4 23  1  0
  5 24  1  0
  8 25  1  0
  8 26  1  0
 10 27  1  0
 12 28  1  0
 13 29  1  0
 14 30  1  0
 15 31  1  0
 18 32  1  0
 19 33  1  0
M  END
>  <UniqueID>  (43) 
42

>  <SMILES>  (43) 
CSc1ccc(OCc2cn3ccccc3n2)cc1

>  <Energy>  (43) 
64.67969404213535

>  <Genealogy>  (43) 
CSc1ccc(OCc2cn3ccccc3n2)cc1 (3D coordinates assigned)
CSc1ccc(OCc2cn3ccccc3n2)cc1 (optimized conformer: 64.67969404213535 kcal/mol)

>  <smiles>  (43) 
CSc1ccc(OCc2cn3ccccc3n2)cc1

>  <score_type>  (43) 
oracle

>  <origin>  (43) 
adg

>  <m_score__min__energy>  (43) 
-7.5599999999999996

>  <m_primary>  (43) 
energy

$$$$
43:0
     RDKit          3D

 35 38  0  0  0  0  0  0  0  0999 V2000
   -1.5130   20.8250  -31.4460 C   0  0  0  0  0  0  0  0  0  0  0  0
   -2.9210   20.7190  -31.6320 O   0  0  0  0  0  0  0  0  0  0  0  0
   -3.8360   21.7680  -31.4280 C   0  0  0  0  0  0  0  0  0  0  0  0
   -3.3960   23.0460  -31.0010 C   0  0  0  0  0  0  0  0  0  0  0  0
   -4.3530   24.0360  -30.8440 C   0  0  0  0  0  0  0  0  0  0  0  0
   -4.1700   25.2770  -30.4630 O   0  0  0  0  0  0  0  0  0  0  0  0
   -5.3510   25.8690  -30.4500 C   0  0  0  0  0  0  0  0  0  0  0  0
   -6.3430   24.9750  -30.8380 C   0  0  0  0  0  0  0  0  0  0  0  0
   -5.6690   23.8010  -31.0870 C   0  0  0  0  0  0  0  0  0  0  0  0
   -6.1090   22.5490  -31.5000 C   0  0  0  0  0  0  0  0  0  0  0  0
   -7.3380   22.3450  -31.7060 O   0  0  0  0  0  0  0  0  0  0  0  0
   -5.1810   21.5430  -31.6640 N   0  0  0  0  0  0  0  0  0  0  0  0
   -5.6190   20.2390  -32.0950 C   0  0  0  0  0  0  0  0  0  0  0  0
   -6.8710   19.7500  -31.6960 C   0  0  0  0  0  0  0  0  0  0  0  0
   -7.2910   18.4920  -32.1250 C   0  0  0  0  0  0  0  0  0  0  0  0
   -6.4620   17.7260  -32.9510 C   0  0  0  0  0  0  0  0  0  0  0  0
   -6.8590   16.4560  -33.3970 C   0  0  0  0  0  0  0  0  0  0  0  0
   -6.0130   15.7090  -34.2230 C   0  0  0  0  0  0  0  0  0  0  0  0
   -4.7710   16.2240  -34.6060 C   0  0  0  0  0  0  0  0  0  0  0  0
   -4.3670   17.4870  -34.1660 C   0  0  0  0  0  0  0  0  0  0  0  0
   -5.2070   18.2480  -33.3380 C   0  0  0  0  0  0  0  0  0  0  0  0
   -4.8200   19.4830  -32.9030 N   0  0  0  0  0  0  0  0  0  0  0  0
   -1.2856   20.8421  -30.3699 H   0  0  0  0  0  0  0  0  0  0  0  0
   -1.0155   19.9618  -31.9122 H   0  0  0  0  0  0  0  0  0  0  0  0
   -1.1504   21.7530  -31.9122 H   0  0  0  0  0  0  0  0  0  0  0  0
   -2.3327   23.2449  -30.8013 H   0  0  0  0  0  0  0  0  0  0  0  0
   -5.5248   26.9190  -30.1720 H   0  0  0  0  0  0  0  0  0  0  0  0
   -7.4231   25.1636  -30.9261 H   0  0  0  0  0  0  0  0  0  0  0  0
   -7.5194   20.3568  -31.0469 H   0  0  0  0  0  0  0  0  0  0  0  0
   -8.2719   18.1027  -31.8147 H   0  0  0  0  0  0  0  0  0  0  0  0
   -7.8355   16.0481  -33.0969 H   0  0  0  0  0  0  0  0  0  0  0  0
   -6.3256   14.7138  -34.5722 H   0  0  0  0  0  0  0  0  0  0  0  0
   -4.1094   15.6327  -35.2561 H   0  0  0  0  0  0  0  0  0  0  0  0
   -3.3879   17.8862  -34.4693 H   0  0  0  0  0  0  0  0  0  0  0  0
   -3.8870   19.8620  -33.1850 H   0  0  0  0  0  0  0  0  0  0  0  0
  1  2  1  0
  2  3  1  0
  3  4  2  0
  4  5  1  0
  5  6  1  0
  6  7  1  0
  7  8  2  0
  8  9  1  0
  9 10  1  0
 10 11  2  0
 10 12  1  0
 12 13  1  0
 13 14  2  0
 14 15  1  0
 15 16  2  0
 16 17  1  0
 17 18  2  0
 18 19  1  0
 19 20  2  0
 20 21  1  0
 21 22  2  0
 12  3  1  0
 22 13  1  0
  9  5  2  0
 21 16  1  0
  1 23  1  0
  1 24  1  0
  1 25  1  0
  4 26  1  0
  7 27  1  0
  8 28  1  0
 14 29  1  0
 15 30  1  0
 17 31  1  0
 18 32  1  0
 19 33  1  0
 20 34  1  0
 22 35  1  0
M  CHG  1  22   1
M  END
>  <UniqueID>  (44) 
43

>  <SMILES>  (44) 
COc1cc2occc2c(=O)n1-c1ccc2ccccc2[nH+]1

>  <Energy>  (44) 
86.00750683805776

>  <Genealogy>  (44) 
COc1cc2occc2c(=O)n1-c1ccc2ccccc2[nH+]1 (protonated)
COc1cc2occc2c(=O)n1-c1ccc2ccccc2[nH+]1 (3D coordinates assigned)
COc1cc2occc2c(=O)n1-c1ccc2ccccc2[nH+]1 (optimized conformer: 86.00750683805776 kcal/mol)

>  <smiles>  (44) 
COc1cc2occc2c(=O)n1-c1ccc2ccccc2n1

>  <score_type>  (44) 
oracle

>  <origin>  (44) 
adg

>  <m_score__min__energy>  (44) 
-6.8300000000000001

>  <m_primary>  (44) 
energy

$$$$
44:0
     RDKit          3D

 71 75  0  0  0  0  0  0  0  0999 V2000
   -0.1410   22.7280  -24.1300 C   0  0  0  0  0  0  0  0  0  0  0  0
   -0.3080   23.6000  -25.2420 O   0  0  0  0  0  0  0  0  0  0  0  0
   -0.1960   24.9990  -25.1780 C   0  0  0  0  0  0  0  0  0  0  0  0
    0.7580   25.6390  -24.3620 C   0  0  0  0  0  0  0  0  0  0  0  0
    0.8310   27.0350  -24.3220 C   0  0  0  0  0  0  0  0  0  0  0  0
   -0.0430   27.8040  -25.0960 C   0  0  0  0  0  0  0  0  0  0  0  0
   -0.9970   27.1780  -25.9060 C   0  0  0  0  0  0  0  0  0  0  0  0
   -1.0730   25.7810  -25.9540 C   0  0  0  0  0  0  0  0  0  0  0  0
   -2.0490   25.1510  -26.7980 N   0  0  0  0  0  0  0  0  0  0  0  0
   -3.4120   24.9920  -26.2880 C   0  0  0  0  0  0  0  0  0  0  0  0
   -4.2480   24.1230  -27.2280 C   0  0  0  0  0  0  0  0  0  0  0  0
   -3.9990   24.5420  -28.6200 N   0  0  0  0  0  0  0  0  0  0  0  0
   -4.9760   23.9350  -29.5510 C   0  0  0  0  0  0  0  0  0  0  0  0
   -4.3420   23.6810  -30.9270 C   0  0  0  0  0  0  0  0  0  0  0  0
   -5.3920   23.8100  -32.0340 C   0  0  0  0  0  0  0  0  0  0  0  0
   -6.7350   23.6040  -31.5120 N   0  0  0  0  0  0  0  0  0  0  0  0
   -7.1950   22.3880  -30.9130 C   0  0  0  0  0  0  0  0  0  0  0  0
   -7.5040   22.3690  -29.6880 O   0  0  0  0  0  0  0  0  0  0  0  0
   -7.2820   21.1490  -31.7180 C   0  0  0  0  0  0  0  0  0  0  0  0
   -8.4260   20.5430  -32.2350 C   0  0  0  0  0  0  0  0  0  0  0  0
   -9.8500   20.9690  -32.0440 C   0  0  0  0  0  0  0  0  0  0  0  0
   -8.0680   19.4770  -32.9770 N   0  0  0  0  0  0  0  0  0  0  0  0
   -6.7520   19.3500  -32.9390 N   0  0  0  0  0  0  0  0  0  0  0  0
   -6.0340   18.2830  -33.5860 C   0  0  0  0  0  0  0  0  0  0  0  0
   -5.9300   17.0280  -32.9640 C   0  0  0  0  0  0  0  0  0  0  0  0
   -5.2120   15.9930  -33.5740 C   0  0  0  0  0  0  0  0  0  0  0  0
   -4.5900   16.2030  -34.8060 C   0  0  0  0  0  0  0  0  0  0  0  0
   -3.8760   15.2020  -35.3830 F   0  0  0  0  0  0  0  0  0  0  0  0
   -4.6800   17.4510  -35.4300 C   0  0  0  0  0  0  0  0  0  0  0  0
   -5.3920   18.4890  -34.8180 C   0  0  0  0  0  0  0  0  0  0  0  0
   -6.2410   20.3460  -32.1770 C   0  0  0  0  0  0  0  0  0  0  0  0
   -4.8390   20.5770  -31.9930 N   0  0  0  0  0  0  0  0  0  0  0  0
   -3.9570   20.8860  -32.9620 C   0  0  0  0  0  0  0  0  0  0  0  0
   -2.6840   20.9360  -32.4340 C   0  0  0  0  0  0  0  0  0  0  0  0
   -2.8040   20.6410  -31.0880 C   0  0  0  0  0  0  0  0  0  0  0  0
   -4.1450   20.4180  -30.8490 C   0  0  0  0  0  0  0  0  0  0  0  0
   -2.6130   24.2320  -29.0460 C   0  0  0  0  0  0  0  0  0  0  0  0
   -1.5740   24.3160  -27.9070 C   0  0  0  0  0  0  0  0  0  0  0  0
   -0.2504   23.2993  -23.1964 H   0  0  0  0  0  0  0  0  0  0  0  0
   -0.9039   21.9364  -24.1670 H   0  0  0  0  0  0  0  0  0  0  0  0
    0.8604   22.2742  -24.1670 H   0  0  0  0  0  0  0  0  0  0  0  0
    1.4490   25.0374  -23.7532 H   0  0  0  0  0  0  0  0  0  0  0  0
    1.5766   27.5283  -23.6811 H   0  0  0  0  0  0  0  0  0  0  0  0
    0.0193   28.9019  -25.0683 H   0  0  0  0  0  0  0  0  0  0  0  0
   -1.6895   27.7856  -26.5070 H   0  0  0  0  0  0  0  0  0  0  0  0
   -3.3726   24.5160  -25.2971 H   0  0  0  0  0  0  0  0  0  0  0  0
   -3.8795   25.9853  -26.2186 H   0  0  0  0  0  0  0  0  0  0  0  0
   -3.9639   23.0675  -27.1044 H   0  0  0  0  0  0  0  0  0  0  0  0
   -5.3156   24.2404  -26.9905 H   0  0  0  0  0  0  0  0  0  0  0  0
   -5.3243   22.9788  -29.1335 H   0  0  0  0  0  0  0  0  0  0  0  0
   -5.8187   24.6308  -29.6768 H   0  0  0  0  0  0  0  0  0  0  0  0
   -3.5428   24.4171  -31.0987 H   0  0  0  0  0  0  0  0  0  0  0  0
   -3.9293   22.6615  -30.9455 H   0  0  0  0  0  0  0  0  0  0  0  0
   -5.3283   24.8164  -32.4735 H   0  0  0  0  0  0  0  0  0  0  0  0
   -5.1923   23.0412  -32.7949 H   0  0  0  0  0  0  0  0  0  0  0  0
  -10.0718   21.0353  -30.9686 H   0  0  0  0  0  0  0  0  0  0  0  0
  -10.0043   21.9526  -32.5116 H   0  0  0  0  0  0  0  0  0  0  0  0
  -10.5192   20.2317  -32.5116 H   0  0  0  0  0  0  0  0  0  0  0  0
   -8.7170   18.8300  -33.4800 H   0  0  0  0  0  0  0  0  0  0  0  0
   -6.4157   16.8576  -31.9918 H   0  0  0  0  0  0  0  0  0  0  0  0
   -5.1377   15.0121  -33.0817 H   0  0  0  0  0  0  0  0  0  0  0  0
   -4.1914   17.6170  -36.4015 H   0  0  0  0  0  0  0  0  0  0  0  0
   -5.4492   19.4734  -35.3056 H   0  0  0  0  0  0  0  0  0  0  0  0
   -4.2130   21.0707  -34.0157 H   0  0  0  0  0  0  0  0  0  0  0  0
   -1.7552   21.1655  -32.9769 H   0  0  0  0  0  0  0  0  0  0  0  0
   -1.9888   20.5934  -30.3510 H   0  0  0  0  0  0  0  0  0  0  0  0
   -4.5802   20.1515  -29.8745 H   0  0  0  0  0  0  0  0  0  0  0  0
   -2.5967   23.2109  -29.4549 H   0  0  0  0  0  0  0  0  0  0  0  0
   -2.3312   24.9904  -29.7913 H   0  0  0  0  0  0  0  0  0  0  0  0
   -1.3760   23.3018  -27.5299 H   0  0  0  0  0  0  0  0  0  0  0  0
   -0.6586   24.7725  -28.3116 H   0  0  0  0  0  0  0  0  0  0  0  0
  1  2  1  0
  2  3  1  0
  3  4  2  0
  4  5  1  0
  5  6  2  0
  6  7  1  0
  7  8  2  0
  8  9  1  0
  9 10  1  0
 10 11  1  0
 11 12  1  0
 12 13  1  0
 13 14  1  0
 14 15  1  0
 15 16  1  0
 16 17  1  0
 17 18  2  0
 17 19  1  0
 19 20  1  0
 20 21  1  0
 20 22  2  0
 22 23  1  0
 23 24  1  0
 24 25  2  0
 25 26  1  0
 26 27  2  0
 27 28  1  0
 27 29  1  0
 29 30  2  0
 23 31  1  0
 31 32  1  0
 32 33  1  0
 33 34  2  0
 34 35  1  0
 35 36  2  0
 12 37  1  0
 37 38  1  0
  8  3  1  0
 38  9  1  0
 31 19  2  0
 36 32  1  0
 30 24  1  0
  1 39  1  0
  1 40  1  0
  1 41  1  0
  4 42  1  0
  5 43  1  0
  6 44  1  0
  7 45  1  0
 10 46  1  0
 10 47  1  0
 11 48  1  0
 11 49  1  0
 13 50  1  0
 13 51  1  0
 14 52  1  0
 14 53  1  0
 15 54  1  0
 15 55  1  0
 21 56  1  0
 21 57  1  0
 21 58  1  0
 22 59  1  0
 25 60  1  0
 26 61  1  0
 29 62  1  0
 30 63  1  0
 33 64  1  0
 34 65  1  0
 35 66  1  0
 36 67  1  0
 37 68  1  0
 37 69  1  0
 38 70  1  0
 38 71  1  0
M  CHG  2  16  -1  22   1
M  END
>  <UniqueID>  (45) 
44

>  <SMILES>  (45) 
COc1ccccc1N1CCN(CCC[N-]C(=O)c2c(C)[nH+]n(-c3ccc(F)cc3)c2-n2cccc2)CC1

>  <Energy>  (45) 
150.00502311574073

>  <Genealogy>  (45) 
COc1ccccc1N1CCN(CCC[N-]C(=O)c2c(C)[nH+]n(-c3ccc(F)cc3)c2-n2cccc2)CC1 (protonated)
COc1ccccc1N1CCN(CCC[N-]C(=O)c2c(C)[nH+]n(-c3ccc(F)cc3)c2-n2cccc2)CC1 (3D coordinates assigned)
COc1ccccc1N1CCN(CCC[N-]C(=O)c2c(C)[nH+]n(-c3ccc(F)cc3)c2-n2cccc2)CC1 (nonaromatic ring conformer: 150.00502311574073 kcal/mol)

>  <smiles>  (45) 
COc1ccccc1N1CCN(CCCNC(=O)c2c(C)nn(-c3ccc(F)cc3)c2-n2cccc2)CC1

>  <score_type>  (45) 
oracle

>  <origin>  (45) 
adg

>  <m_score__min__energy>  (45) 
-9.6600000000000001

>  <m_primary>  (45) 
energy

$$$$
45:0
     RDKit          3D

 68 72  0  0  0  0  0  0  0  0999 V2000
   -6.9350   17.8280  -31.3020 C   0  0  0  0  0  0  0  0  0  0  0  0
   -5.7070   17.1300  -31.9050 C   0  0  0  0  0  0  0  0  0  0  0  0
   -6.0260   16.1450  -32.9680 N   0  0  0  0  0  0  0  0  0  0  0  0
   -4.9070   15.2130  -33.2290 C   0  0  0  0  0  0  0  0  0  0  0  0
   -4.5920   14.4030  -31.9750 C   0  0  0  0  0  0  0  0  0  0  0  0
   -6.5550   16.7480  -34.2150 C   0  0  0  0  0  0  0  0  0  0  0  0
   -5.5540   17.7360  -34.8380 C   0  0  0  0  0  0  0  0  0  0  0  0
   -5.9830   19.1270  -34.6850 N   0  0  0  0  0  0  0  0  0  0  0  0
   -5.3270   20.0000  -33.7560 C   0  0  0  0  0  0  0  0  0  0  0  0
   -3.9680   20.1280  -33.7880 N   0  0  0  0  0  0  0  0  0  0  0  0
   -3.2960   20.8650  -32.8920 N   0  0  0  0  0  0  0  0  0  0  0  0
   -3.9240   21.5390  -31.8850 C   0  0  0  0  0  0  0  0  0  0  0  0
   -3.1250   22.3310  -30.9190 C   0  0  0  0  0  0  0  0  0  0  0  0
   -3.6450   23.4860  -30.3090 C   0  0  0  0  0  0  0  0  0  0  0  0
   -2.8650   24.2320  -29.4210 C   0  0  0  0  0  0  0  0  0  0  0  0
   -1.5470   23.8440  -29.1260 C   0  0  0  0  0  0  0  0  0  0  0  0
   -0.7380   24.6210  -28.2140 N   0  0  0  0  0  0  0  0  0  0  0  0
   -1.2890   25.8070  -27.5480 C   0  0  0  0  0  0  0  0  0  0  0  0
   -0.1660   26.8010  -27.2180 C   0  0  0  0  0  0  0  0  0  0  0  0
    0.9350   26.2000  -26.4200 N   0  0  0  0  0  0  0  0  0  0  0  0
    0.8600   26.6120  -25.0100 C   0  0  0  0  0  0  0  0  0  0  0  0
    1.0450   24.7260  -26.5230 C   0  0  0  0  0  0  0  0  0  0  0  0
    0.6390   24.2120  -27.9080 C   0  0  0  0  0  0  0  0  0  0  0  0
   -1.0250   22.6940  -29.7450 C   0  0  0  0  0  0  0  0  0  0  0  0
   -1.8030   21.9500  -30.6340 C   0  0  0  0  0  0  0  0  0  0  0  0
   -5.3150   21.4330  -31.8190 C   0  0  0  0  0  0  0  0  0  0  0  0
   -6.1220   21.9760  -30.9320 O   0  0  0  0  0  0  0  0  0  0  0  0
   -7.3460   21.6300  -31.2690 C   0  0  0  0  0  0  0  0  0  0  0  0
   -8.5250   21.9990  -30.6260 C   0  0  0  0  0  0  0  0  0  0  0  0
   -9.7400   21.5560  -31.1740 C   0  0  0  0  0  0  0  0  0  0  0  0
   -9.7530   20.7710  -32.3460 C   0  0  0  0  0  0  0  0  0  0  0  0
   -8.5490   20.4090  -32.9780 C   0  0  0  0  0  0  0  0  0  0  0  0
   -7.3490   20.8370  -32.4010 C   0  0  0  0  0  0  0  0  0  0  0  0
   -6.0140   20.6890  -32.7480 C   0  0  0  0  0  0  0  0  0  0  0  0
   -6.8742   17.7934  -30.2042 H   0  0  0  0  0  0  0  0  0  0  0  0
   -6.9613   18.8761  -31.6349 H   0  0  0  0  0  0  0  0  0  0  0  0
   -7.8490   17.3144  -31.6349 H   0  0  0  0  0  0  0  0  0  0  0  0
   -5.0493   17.8999  -32.3347 H   0  0  0  0  0  0  0  0  0  0  0  0
   -5.2304   16.5688  -31.0878 H   0  0  0  0  0  0  0  0  0  0  0  0
   -5.1869   14.5282  -34.0430 H   0  0  0  0  0  0  0  0  0  0  0  0
   -4.0167   15.7924  -33.5149 H   0  0  0  0  0  0  0  0  0  0  0  0
   -4.8252   15.0028  -31.0829 H   0  0  0  0  0  0  0  0  0  0  0  0
   -5.1989   13.4856  -31.9690 H   0  0  0  0  0  0  0  0  0  0  0  0
   -3.5248   14.1367  -31.9690 H   0  0  0  0  0  0  0  0  0  0  0  0
   -6.7619   15.9461  -34.9389 H   0  0  0  0  0  0  0  0  0  0  0  0
   -7.4729   17.3008  -33.9662 H   0  0  0  0  0  0  0  0  0  0  0  0
   -4.5785   17.6098  -34.3456 H   0  0  0  0  0  0  0  0  0  0  0  0
   -5.4899   17.5185  -35.9144 H   0  0  0  0  0  0  0  0  0  0  0  0
   -6.8710   19.4380  -35.1310 H   0  0  0  0  0  0  0  0  0  0  0  0
   -4.6737   23.8051  -30.5323 H   0  0  0  0  0  0  0  0  0  0  0  0
   -3.2868   25.1314  -28.9486 H   0  0  0  0  0  0  0  0  0  0  0  0
   -2.0186   26.2913  -28.2137 H   0  0  0  0  0  0  0  0  0  0  0  0
   -1.7800   25.4977  -26.6135 H   0  0  0  0  0  0  0  0  0  0  0  0
    0.2533   27.1801  -28.1617 H   0  0  0  0  0  0  0  0  0  0  0  0
   -0.6091   27.6033  -26.6097 H   0  0  0  0  0  0  0  0  0  0  0  0
    1.0194   25.7366  -24.3632 H   0  0  0  0  0  0  0  0  0  0  0  0
    1.6359   27.3646  -24.8061 H   0  0  0  0  0  0  0  0  0  0  0  0
   -0.1313   27.0429  -24.8061 H   0  0  0  0  0  0  0  0  0  0  0  0
    2.0874   24.4338  -26.3280 H   0  0  0  0  0  0  0  0  0  0  0  0
    0.3609   24.2833  -25.7840 H   0  0  0  0  0  0  0  0  0  0  0  0
    1.3193   24.6295  -28.6649 H   0  0  0  0  0  0  0  0  0  0  0  0
    0.6988   23.1137  -27.9164 H   0  0  0  0  0  0  0  0  0  0  0  0
    0.0057   22.3779  -29.5267 H   0  0  0  0  0  0  0  0  0  0  0  0
   -1.3771   21.0575  -31.1157 H   0  0  0  0  0  0  0  0  0  0  0  0
   -8.5053   22.6182  -29.7171 H   0  0  0  0  0  0  0  0  0  0  0  0
  -10.6887   21.8232  -30.6855 H   0  0  0  0  0  0  0  0  0  0  0  0
  -10.7124   20.4391  -32.7694 H   0  0  0  0  0  0  0  0  0  0  0  0
   -8.5515   19.8071  -33.8987 H   0  0  0  0  0  0  0  0  0  0  0  0
  1  2  1  0
  2  3  1  0
  3  4  1  0
  4  5  1  0
  3  6  1  0
  6  7  1  0
  7  8  1  0
  8  9  1  0
  9 10  2  0
 10 11  1  0
 11 12  2  0
 12 13  1  0
 13 14  2  0
 14 15  1  0
 15 16  2  0
 16 17  1  0
 17 18  1  0
 18 19  1  0
 19 20  1  0
 20 21  1  0
 20 22  1  0
 22 23  1  0
 16 24  1  0
 24 25  2  0
 12 26  1  0
 26 27  1  0
 27 28  1  0
 28 29  2  0
 29 30  1  0
 30 31  2  0
 31 32  1  0
 32 33  2  0
 33 34  1  0
 34  9  1  0
 25 13  1  0
 34 26  2  0
 23 17  1  0
 33 28  1  0
  1 35  1  0
  1 36  1  0
  1 37  1  0
  2 38  1  0
  2 39  1  0
  4 40  1  0
  4 41  1  0
  5 42  1  0
  5 43  1  0
  5 44  1  0
  6 45  1  0
  6 46  1  0
  7 47  1  0
  7 48  1  0
  8 49  1  0
 14 50  1  0
 15 51  1  0
 18 52  1  0
 18 53  1  0
 19 54  1  0
 19 55  1  0
 21 56  1  0
 21 57  1  0
 21 58  1  0
 22 59  1  0
 22 60  1  0
 23 61  1  0
 23 62  1  0
 24 63  1  0
 25 64  1  0
 29 65  1  0
 30 66  1  0
 31 67  1  0
 32 68  1  0
M  END
>  <UniqueID>  (46) 
45

>  <SMILES>  (46) 
CCN(CC)CCNc1nnc(-c2ccc(N3CCN(C)CC3)cc2)c2oc3ccccc3c12

>  <Energy>  (46) 
132.93147790978412

>  <Genealogy>  (46) 
CCN(CC)CCNc1nnc(-c2ccc(N3CCN(C)CC3)cc2)c2oc3ccccc3c12 (3D coordinates assigned)
CCN(CC)CCNc1nnc(-c2ccc(N3CCN(C)CC3)cc2)c2oc3ccccc3c12 (nonaromatic ring conformer: 132.93147790978412 kcal/mol)

>  <smiles>  (46) 
CCN(CC)CCNc1nnc(-c2ccc(N3CCN(C)CC3)cc2)c2oc3ccccc3c12

>  <score_type>  (46) 
oracle

>  <origin>  (46) 
adg

>  <m_score__min__energy>  (46) 
-9.2599999999999998

>  <m_primary>  (46) 
energy

$$$$
46:0
     RDKit          3D

 63 66  0  0  0  0  0  0  0  0999 V2000
   -0.8690   20.2260  -27.3670 C   0  0  0  0  0  0  0  0  0  0  0  0
   -1.6040   21.3980  -26.7000 C   0  0  0  0  0  0  0  0  0  0  0  0
   -1.5970   22.6300  -27.5350 N   0  0  0  0  0  0  0  0  0  0  0  0
   -0.4400   22.6510  -28.4680 C   0  0  0  0  0  0  0  0  0  0  0  0
    0.5060   23.8380  -28.2320 C   0  0  0  0  0  0  0  0  0  0  0  0
   -1.7300   23.8660  -26.7070 C   0  0  0  0  0  0  0  0  0  0  0  0
   -3.1080   24.5880  -26.7200 C   0  0  0  0  0  0  0  0  0  0  0  0
   -4.1100   24.1550  -27.7960 C   0  0  0  0  0  0  0  0  0  0  0  0
   -3.5130   24.2120  -29.1270 N   0  0  0  0  0  0  0  0  0  0  0  0
   -4.2490   24.2580  -30.3580 C   0  0  0  0  0  0  0  0  0  0  0  0
   -4.2000   25.3080  -31.0490 O   0  0  0  0  0  0  0  0  0  0  0  0
   -4.9400   23.0250  -30.9010 C   0  0  1  0  0  0  0  0  0  0  0  0
   -5.8590   23.3420  -32.1000 C   0  0  0  0  0  0  0  0  0  0  0  0
   -7.1070   22.5030  -32.0680 C   0  0  0  0  0  0  0  0  0  0  0  0
   -8.3650   22.9180  -31.6380 C   0  0  0  0  0  0  0  0  0  0  0  0
   -9.2130   21.8660  -31.5700 N   0  0  0  0  0  0  0  0  0  0  0  0
   -8.5000   20.7900  -31.9450 C   0  0  0  0  0  0  0  0  0  0  0  0
   -8.9280   19.4620  -31.9710 C   0  0  0  0  0  0  0  0  0  0  0  0
   -7.9920   18.4750  -32.3340 C   0  0  0  0  0  0  0  0  0  0  0  0
   -6.6640   18.8340  -32.6560 C   0  0  0  0  0  0  0  0  0  0  0  0
   -6.2610   20.1810  -32.6220 C   0  0  0  0  0  0  0  0  0  0  0  0
   -7.2110   21.1380  -32.2580 C   0  0  0  0  0  0  0  0  0  0  0  0
   -3.9320   22.0260  -31.2750 N   0  0  0  0  0  0  0  0  0  0  0  0
   -3.4060   21.7890  -32.5850 C   0  0  0  0  0  0  0  0  0  0  0  0
   -3.8630   22.3060  -33.6390 O   0  0  0  0  0  0  0  0  0  0  0  0
   -2.2630   20.8850  -32.5100 C   0  0  0  0  0  0  0  0  0  0  0  0
   -1.4290   20.3860  -33.5090 C   0  0  0  0  0  0  0  0  0  0  0  0
   -0.3710   19.5440  -33.1260 C   0  0  0  0  0  0  0  0  0  0  0  0
   -0.1650   19.2250  -31.7660 C   0  0  0  0  0  0  0  0  0  0  0  0
   -1.0190   19.7440  -30.7760 C   0  0  0  0  0  0  0  0  0  0  0  0
   -2.0640   20.5710  -31.1820 C   0  0  0  0  0  0  0  0  0  0  0  0
   -3.0780   21.2730  -30.4040 C   0  0  0  0  0  0  0  0  0  0  0  0
   -3.1790   21.2510  -29.1490 O   0  0  0  0  0  0  0  0  0  0  0  0
   -0.4542   19.5646  -26.5921 H   0  0  0  0  0  0  0  0  0  0  0  0
   -1.5741   19.6598  -27.9933 H   0  0  0  0  0  0  0  0  0  0  0  0
   -0.0523   20.6142  -27.9933 H   0  0  0  0  0  0  0  0  0  0  0  0
   -2.6477   21.1016  -26.5188 H   0  0  0  0  0  0  0  0  0  0  0  0
   -1.0782   21.6293  -25.7619 H   0  0  0  0  0  0  0  0  0  0  0  0
   -2.4620   22.6030  -28.1280 H   0  0  0  0  0  0  0  0  0  0  0  0
    0.1298   21.7189  -28.3395 H   0  0  0  0  0  0  0  0  0  0  0  0
   -0.8431   22.7517  -29.4865 H   0  0  0  0  0  0  0  0  0  0  0  0
    0.6325   23.9967  -27.1509 H   0  0  0  0  0  0  0  0  0  0  0  0
    1.4838   23.6239  -28.6881 H   0  0  0  0  0  0  0  0  0  0  0  0
    0.0791   24.7434  -28.6881 H   0  0  0  0  0  0  0  0  0  0  0  0
   -1.5109   23.5908  -25.6648 H   0  0  0  0  0  0  0  0  0  0  0  0
   -1.0300   24.5849  -27.1578 H   0  0  0  0  0  0  0  0  0  0  0  0
   -3.5797   24.4204  -25.7405 H   0  0  0  0  0  0  0  0  0  0  0  0
   -2.8779   25.6388  -26.9500 H   0  0  0  0  0  0  0  0  0  0  0  0
   -4.4328   23.1235  -27.5914 H   0  0  0  0  0  0  0  0  0  0  0  0
   -4.9683   24.8425  -27.7695 H   0  0  0  0  0  0  0  0  0  0  0  0
   -5.5868   22.6247  -30.1064 H   0  0  0  0  0  0  0  0  0  0  0  0
   -6.1406   24.4048  -32.0647 H   0  0  0  0  0  0  0  0  0  0  0  0
   -5.3116   23.1154  -33.0268 H   0  0  0  0  0  0  0  0  0  0  0  0
   -8.6317   23.9556  -31.3886 H   0  0  0  0  0  0  0  0  0  0  0  0
  -10.2070   21.8850  -31.2510 H   0  0  0  0  0  0  0  0  0  0  0  0
   -9.9641   19.1948  -31.7159 H   0  0  0  0  0  0  0  0  0  0  0  0
   -8.2963   17.4184  -32.3671 H   0  0  0  0  0  0  0  0  0  0  0  0
   -5.9400   18.0543  -32.9353 H   0  0  0  0  0  0  0  0  0  0  0  0
   -5.2305   20.4716  -32.8741 H   0  0  0  0  0  0  0  0  0  0  0  0
   -1.5940   20.6435  -34.5656 H   0  0  0  0  0  0  0  0  0  0  0  0
    0.3018   19.1303  -33.8916 H   0  0  0  0  0  0  0  0  0  0  0  0
    0.6682   18.5667  -31.4790 H   0  0  0  0  0  0  0  0  0  0  0  0
   -0.8663   19.5041  -29.7134 H   0  0  0  0  0  0  0  0  0  0  0  0
  1  2  1  0
  2  3  1  0
  3  4  1  0
  4  5  1  0
  3  6  1  0
  6  7  1  0
  7  8  1  0
  8  9  1  0
  9 10  1  0
 10 11  2  0
 10 12  1  0
 12 13  1  0
 13 14  1  0
 14 15  2  0
 15 16  1  0
 16 17  1  0
 17 18  2  0
 18 19  1  0
 19 20  2  0
 20 21  1  0
 21 22  2  0
 12 23  1  0
 23 24  1  0
 24 25  2  0
 24 26  1  0
 26 27  2  0
 27 28  1  0
 28 29  2  0
 29 30  1  0
 30 31  2  0
 31 32  1  0
 32 33  2  0
 22 14  1  0
 32 23  1  0
 22 17  1  0
 31 26  1  0
  1 34  1  0
  1 35  1  0
  1 36  1  0
  2 37  1  0
  2 38  1  0
  3 39  1  0
  4 40  1  0
  4 41  1  0
  5 42  1  0
  5 43  1  0
  5 44  1  0
  6 45  1  0
  6 46  1  0
  7 47  1  0
  7 48  1  0
  8 49  1  0
  8 50  1  0
 12 51  1  1
 13 52  1  0
 13 53  1  0
 15 54  1  0
 16 55  1  0
 18 56  1  0
 19 57  1  0
 20 58  1  0
 21 59  1  0
 27 60  1  0
 28 61  1  0
 29 62  1  0
 30 63  1  0
M  CHG  2   3   1   9  -1
M  END
>  <UniqueID>  (47) 
46

>  <SMILES>  (47) 
CC[NH+](CC)CCC[N-]C(=O)[C@@H](Cc1c[nH]c2ccccc12)N1C(=O)c2ccccc2C1=O

>  <Energy>  (47) 
131.02653061008337

>  <Genealogy>  (47) 
CC[NH+](CC)CCC[N-]C(=O)C(Cc1c[nH]c2ccccc12)N1C(=O)c2ccccc2C1=O (protonated)
CC[NH+](CC)CCC[N-]C(=O)[C@@H](Cc1c[nH]c2ccccc12)N1C(=O)c2ccccc2C1=O (chirality)
CC[NH+](CC)CCC[N-]C(=O)[C@@H](Cc1c[nH]c2ccccc12)N1C(=O)c2ccccc2C1=O (3D coordinates assigned)
CC[NH+](CC)CCC[N-]C(=O)[C@@H](Cc1c[nH]c2ccccc12)N1C(=O)c2ccccc2C1=O (nonaromatic ring conformer: 131.02653061008337 kcal/mol)

>  <smiles>  (47) 
CCN(CC)CCCNC(=O)C(Cc1c[nH]c2ccccc12)N1C(=O)c2ccccc2C1=O

>  <score_type>  (47) 
oracle

>  <origin>  (47) 
adg

>  <m_score__min__energy>  (47) 
-10.880000000000001

>  <m_primary>  (47) 
energy

$$$$
47:0
     RDKit          3D

 34 36  0  0  0  0  0  0  0  0999 V2000
   -2.0485   20.5984  -33.3832 H   0  0  0  0  0  0  0  0  0  0  0  0
   -2.8120   21.1820  -32.8480 C   0  0  0  0  0  0  0  0  0  0  0  0
   -2.8560   21.3570  -31.5480 O   0  0  0  0  0  0  0  0  0  0  0  0
   -3.9000   22.1000  -31.2620 C   0  0  0  0  0  0  0  0  0  0  0  0
   -4.2580   22.5420  -29.8790 C   0  0  0  0  0  0  0  0  0  0  0  0
   -3.3430   22.8264  -29.3388 H   0  0  0  0  0  0  0  0  0  0  0  0
   -4.7590   21.7157  -29.3534 H   0  0  0  0  0  0  0  0  0  0  0  0
   -5.1630   23.6930  -29.9410 N   0  0  0  0  0  0  0  0  0  0  0  0
   -4.7520   24.9680  -30.2120 C   0  0  0  0  0  0  0  0  0  0  0  0
   -3.4150   25.2960  -30.4030 O   0  0  0  0  0  0  0  0  0  0  0  0
   -5.7640   25.9170  -30.2960 C   0  0  0  0  0  0  0  0  0  0  0  0
   -5.6311   26.9913  -30.4915 H   0  0  0  0  0  0  0  0  0  0  0  0
   -7.2290   25.1280  -30.0450 S   0  0  0  0  0  0  0  0  0  0  0  0
   -6.5130   23.6160  -29.8200 C   0  0  0  0  0  0  0  0  0  0  0  0
   -7.1420   22.4900  -29.6370 N   0  0  0  0  0  0  0  0  0  0  0  0
   -7.7240   21.6590  -30.6530 C   0  0  0  0  0  0  0  0  0  0  0  0
   -9.0350   21.9210  -31.0680 C   0  0  0  0  0  0  0  0  0  0  0  0
   -9.6071   22.7329  -30.5951 H   0  0  0  0  0  0  0  0  0  0  0  0
   -9.6200   21.1560  -32.0800 C   0  0  0  0  0  0  0  0  0  0  0  0
  -10.6564   21.3557  -32.3899 H   0  0  0  0  0  0  0  0  0  0  0  0
   -8.8910   20.1380  -32.6990 C   0  0  0  0  0  0  0  0  0  0  0  0
   -9.3611   19.5315  -33.4871 H   0  0  0  0  0  0  0  0  0  0  0  0
   -7.5670   19.8840  -32.3240 C   0  0  0  0  0  0  0  0  0  0  0  0
   -6.8710   18.8640  -32.9890 O   0  0  0  0  0  0  0  0  0  0  0  0
   -5.7840   19.0810  -33.8820 C   0  0  0  0  0  0  0  0  0  0  0  0
   -4.8659   19.2643  -33.3044 H   0  0  0  0  0  0  0  0  0  0  0  0
   -5.6472   18.1924  -34.5158 H   0  0  0  0  0  0  0  0  0  0  0  0
   -5.9988   19.9540  -34.5158 H   0  0  0  0  0  0  0  0  0  0  0  0
   -6.9800   20.6580  -31.3040 C   0  0  0  0  0  0  0  0  0  0  0  0
   -5.9339   20.4788  -31.0148 H   0  0  0  0  0  0  0  0  0  0  0  0
   -4.5720   22.4380  -32.4180 C   0  0  0  0  0  0  0  0  0  0  0  0
   -5.4789   23.0546  -32.5041 H   0  0  0  0  0  0  0  0  0  0  0  0
   -3.8700   21.8420  -33.4420 C   0  0  0  0  0  0  0  0  0  0  0  0
   -4.1045   21.8832  -34.5159 H   0  0  0  0  0  0  0  0  0  0  0  0
  1  2  1  0
  2  3  1  0
  3  4  1  0
  4  5  1  0
  5  6  1  0
  5  7  1  0
  5  8  1  0
  8  9  1  0
  9 10  1  0
  9 11  2  0
 11 12  1  0
 11 13  1  0
 13 14  1  0
 14 15  2  0
 15 16  1  0
 16 17  2  0
 17 18  1  0
 17 19  1  0
 19 20  1  0
 19 21  2  0
 21 22  1  0
 21 23  1  0
 23 24  1  0
 24 25  1  0
 25 26  1  0
 25 27  1  0
 25 28  1  0
 23 29  2  0
 29 30  1  0
  4 31  2  0
 31 32  1  0
 31 33  1  0
 33 34  1  0
 33  2  2  0
 14  8  1  0
 29 16  1  0
M  CHG  1  10  -1
M  END
>  <UniqueID>  (48) 
47

>  <SMILES>  (48) 
COc1cccc(/N=c2\scc([O-])n2Cc2ccco2)c1

>  <Energy>  (48) 
97.61799389158912

>  <Genealogy>  (48) 
COc1cccc(N=c2scc([O-])n2Cc2ccco2)c1 (protonated)
COc1cccc(/N=c2\scc([O-])n2Cc2ccco2)c1 (cis-trans isomerization)
COc1cccc(/N=c2\scc([O-])n2Cc2ccco2)c1 (3D coordinates assigned)
COc1cccc(/N=c2\scc([O-])n2Cc2ccco2)c1 (optimized conformer: 97.61799389158912 kcal/mol)

>  <smiles>  (48) 
COc1cccc(N=c2scc(O)n2Cc2ccco2)c1

>  <score_type>  (48) 
oracle

>  <origin>  (48) 
adg

>  <m_score__min__energy>  (48) 
-10.050000000000001

>  <m_primary>  (48) 
energy

$$$$
