0:0
     RDKit          3D

 77 80  0  0  0  0  0  0  0  0999 V2000
   -6.0470   25.2590  -29.4600 C   0  0  0  0  0  0  0  0  0  0  0  0
   -5.1740   25.7650  -30.6010 C   0  0  0  0  0  0  0  0  0  0  0  0
   -3.9210   24.9970  -30.6670 N   0  0  0  0  0  0  0  0  0  0  0  0
   -3.7060   24.1440  -29.4810 C   0  0  0  0  0  0  0  0  0  0  0  0
   -2.5250   23.1700  -29.6470 C   0  0  0  0  0  0  0  0  0  0  0  0
   -2.8700   21.9760  -30.5480 C   0  0  0  0  0  0  0  0  0  0  0  0
   -3.7730   22.3650  -31.6390 N   0  0  0  0  0  0  0  0  0  0  0  0
   -4.7780   21.5320  -32.2680 C   0  0  0  0  0  0  0  0  0  0  0  0
   -6.1700   21.7730  -32.0790 C   0  0  0  0  0  0  0  0  0  0  0  0
   -6.6870   23.0140  -31.6360 C   0  0  0  0  0  0  0  0  0  0  0  0
   -8.0590   23.2470  -31.5640 C   0  0  0  0  0  0  0  0  0  0  0  0
   -8.9540   22.2510  -31.9220 C   0  0  0  0  0  0  0  0  0  0  0  0
   -8.4810   20.9980  -32.2930 C   0  0  0  0  0  0  0  0  0  0  0  0
   -7.0920   20.7180  -32.3240 C   0  0  0  0  0  0  0  0  0  0  0  0
   -6.6320   19.4400  -32.5460 N   0  0  0  0  0  0  0  0  0  0  0  0
   -7.5390   18.2860  -32.3450 C   0  0  0  0  0  0  0  0  0  0  0  0
   -5.3250   19.2370  -32.9350 C   0  0  0  0  0  0  0  0  0  0  0  0
   -4.9080   17.9750  -33.4220 C   0  0  0  0  0  0  0  0  0  0  0  0
   -3.6020   17.7510  -33.8200 C   0  0  0  0  0  0  0  0  0  0  0  0
   -2.6940   18.7910  -33.8300 C   0  0  0  0  0  0  0  0  0  0  0  0
   -3.0630   20.0850  -33.4250 C   0  0  0  0  0  0  0  0  0  0  0  0
   -2.1630   21.1650  -33.7830 N   0  0  0  0  0  0  0  0  0  0  0  0
   -0.7400   20.8060  -33.6030 C   0  0  0  0  0  0  0  0  0  0  0  0
   -0.2640   20.8370  -32.1320 C   0  0  0  0  0  0  0  0  0  0  0  0
   -0.3260   19.4390  -31.4580 C   0  0  0  0  0  0  0  0  0  0  0  0
    0.3950   19.2980  -30.1460 N   0  0  0  0  0  0  0  0  0  0  0  0
    1.8650   19.2800  -30.3750 C   0  0  0  0  0  0  0  0  0  0  0  0
   -0.0000   17.9650  -29.5630 C   0  0  0  0  0  0  0  0  0  0  0  0
    0.0600   17.9310  -28.0260 C   0  0  0  0  0  0  0  0  0  0  0  0
   -0.9250   18.9460  -27.4180 C   0  0  0  0  0  0  0  0  0  0  0  0
   -1.1730   20.1490  -28.3420 C   0  0  0  0  0  0  0  0  0  0  0  0
    0.0620   20.4310  -29.2120 C   0  0  0  0  0  0  0  0  0  0  0  0
   -4.3760   20.3030  -32.8720 C   0  0  0  0  0  0  0  0  0  0  0  0
   -5.5850   25.5268  -28.4983 H   0  0  0  0  0  0  0  0  0  0  0  0
   -7.0436   25.7195  -29.5288 H   0  0  0  0  0  0  0  0  0  0  0  0
   -6.1428   24.1653  -29.5288 H   0  0  0  0  0  0  0  0  0  0  0  0
   -5.7180   25.6535  -31.5506 H   0  0  0  0  0  0  0  0  0  0  0  0
   -4.9347   26.8241  -30.4248 H   0  0  0  0  0  0  0  0  0  0  0  0
   -3.1230   25.6610  -30.8060 H   0  0  0  0  0  0  0  0  0  0  0  0
   -3.5070   24.7919  -28.6146 H   0  0  0  0  0  0  0  0  0  0  0  0
   -4.6142   23.5394  -29.3414 H   0  0  0  0  0  0  0  0  0  0  0  0
   -1.6786   23.7143  -30.0913 H   0  0  0  0  0  0  0  0  0  0  0  0
   -2.2743   22.7758  -28.6511 H   0  0  0  0  0  0  0  0  0  0  0  0
   -1.9413   21.5743  -30.9794 H   0  0  0  0  0  0  0  0  0  0  0  0
   -3.3784   21.2176  -29.9345 H   0  0  0  0  0  0  0  0  0  0  0  0
   -3.6350   23.3120  -32.0570 H   0  0  0  0  0  0  0  0  0  0  0  0
   -5.9900   23.8125  -31.3419 H   0  0  0  0  0  0  0  0  0  0  0  0
   -8.4326   24.2236  -31.2223 H   0  0  0  0  0  0  0  0  0  0  0  0
  -10.0355   22.4517  -31.9125 H   0  0  0  0  0  0  0  0  0  0  0  0
   -9.1973   20.2096  -32.5674 H   0  0  0  0  0  0  0  0  0  0  0  0
   -7.6765   18.1110  -31.2678 H   0  0  0  0  0  0  0  0  0  0  0  0
   -8.5131   18.5001  -32.8090 H   0  0  0  0  0  0  0  0  0  0  0  0
   -7.1008   17.3901  -32.8090 H   0  0  0  0  0  0  0  0  0  0  0  0
   -5.6381   17.1547  -33.4854 H   0  0  0  0  0  0  0  0  0  0  0  0
   -3.2868   16.7434  -34.1287 H   0  0  0  0  0  0  0  0  0  0  0  0
   -1.6621   18.6031  -34.1613 H   0  0  0  0  0  0  0  0  0  0  0  0
   -2.3590   22.0210  -33.2150 H   0  0  0  0  0  0  0  0  0  0  0  0
   -2.3490   21.4770  -34.7540 H   0  0  0  0  0  0  0  0  0  0  0  0
   -0.5877   19.7893  -33.9943 H   0  0  0  0  0  0  0  0  0  0  0  0
   -0.1507   21.5611  -34.1439 H   0  0  0  0  0  0  0  0  0  0  0  0
    0.7754   21.1961  -32.1049 H   0  0  0  0  0  0  0  0  0  0  0  0
   -0.9373   21.5064  -31.5765 H   0  0  0  0  0  0  0  0  0  0  0  0
   -1.3851   19.1969  -31.2858 H   0  0  0  0  0  0  0  0  0  0  0  0
    0.1898   18.7572  -32.1502 H   0  0  0  0  0  0  0  0  0  0  0  0
    2.3869   19.2736  -29.4067 H   0  0  0  0  0  0  0  0  0  0  0  0
    2.1365   18.3785  -30.9438 H   0  0  0  0  0  0  0  0  0  0  0  0
    2.1585   20.1746  -30.9438 H   0  0  0  0  0  0  0  0  0  0  0  0
   -1.0293   17.7377  -29.8773 H   0  0  0  0  0  0  0  0  0  0  0  0
    0.7205   17.2210  -29.9336 H   0  0  0  0  0  0  0  0  0  0  0  0
   -0.2016   16.9211  -27.6771 H   0  0  0  0  0  0  0  0  0  0  0  0
    1.0793   18.1942  -27.7070 H   0  0  0  0  0  0  0  0  0  0  0  0
   -1.8838   18.4398  -27.2323 H   0  0  0  0  0  0  0  0  0  0  0  0
   -0.4818   19.3256  -26.4855 H   0  0  0  0  0  0  0  0  0  0  0  0
   -2.0319   19.9321  -28.9941 H   0  0  0  0  0  0  0  0  0  0  0  0
   -1.3777   21.0342  -27.7219 H   0  0  0  0  0  0  0  0  0  0  0  0
   -0.1296   21.3338  -29.8105 H   0  0  0  0  0  0  0  0  0  0  0  0
    0.9188   20.5615  -28.5346 H   0  0  0  0  0  0  0  0  0  0  0  0
  1  2  1  0
  2  3  1  0
  3  4  1  0
  4  5  1  0
  5  6  1  0
  6  7  1  0
  7  8  1  0
  8  9  2  0
  9 10  1  0
 10 11  2  0
 11 12  1  0
 12 13  2  0
 13 14  1  0
 14 15  2  0
 15 16  1  0
 15 17  1  0
 17 18  2  0
 18 19  1  0
 19 20  2  0
 20 21  1  0
 21 22  1  0
 22 23  1  0
 23 24  1  0
 24 25  1  0
 25 26  1  0
 26 27  1  0
 26 28  1  0
 28 29  1  0
 29 30  1  0
 30 31  1  0
 31 32  1  0
 21 33  2  0
 33  8  1  0
 14  9  1  0
 33 17  1  0
 32 26  1  0
  1 34  1  0
  1 35  1  0
  1 36  1  0
  2 37  1  0
  2 38  1  0
  3 39  1  0
  4 40  1  0
  4 41  1  0
  5 42  1  0
  5 43  1  0
  6 44  1  0
  6 45  1  0
  7 46  1  0
 10 47  1  0
 11 48  1  0
 12 49  1  0
 13 50  1  0
 16 51  1  0
 16 52  1  0
 16 53  1  0
 18 54  1  0
 19 55  1  0
 20 56  1  0
 22 57  1  0
 22 58  1  0
 23 59  1  0
 23 60  1  0
 24 61  1  0
 24 62  1  0
 25 63  1  0
 25 64  1  0
 27 65  1  0
 27 66  1  0
 27 67  1  0
 28 68  1  0
 28 69  1  0
 29 70  1  0
 29 71  1  0
 30 72  1  0
 30 73  1  0
 31 74  1  0
 31 75  1  0
 32 76  1  0
 32 77  1  0
M  CHG  3  15   1  22   1  26   1
M  END
>  <UniqueID>  (1) 
1

>  <SMILES>  (1) 
CCNCCCNc1c2ccccc2[n+](C)c2cccc([NH2+]CCC[N+]3(C)CCCCC3)c12

>  <Energy>  (1) 
138.45909497014858

>  <Genealogy>  (1) 
CCNCCCNc1c2ccccc2[n+](C)c2cccc([NH2+]CCC[N+]3(C)CCCCC3)c12 (protonated)
CCNCCCNc1c2ccccc2[n+](C)c2cccc([NH2+]CCC[N+]3(C)CCCCC3)c12 (3D coordinates assigned)
CCNCCCNc1c2ccccc2[n+](C)c2cccc([NH2+]CCC[N+]3(C)CCCCC3)c12 (nonaromatic ring conformer: 138.45909497014858 kcal/mol)

>  <smiles>  (1) 
CCNCCCNc1c2ccccc2[n+](C)c2cccc(NCCC[N+]3(C)CCCCC3)c12

>  <score_type>  (1) 
oracle

>  <origin>  (1) 
adg

>  <m_score__min__energy>  (1) 
-8.5800000000000001

>  <m_primary>  (1) 
energy

$$$$
1:0
     RDKit          3D

 36 37  0  0  0  0  0  0  0  0999 V2000
   -7.9670   18.6580  -32.2960 C   0  0  0  0  0  0  0  0  0  0  0  0
   -7.9470   20.0580  -32.9010 C   0  0  0  0  0  0  0  0  0  0  0  0
   -6.7440   20.2320  -33.7210 N   0  0  0  0  0  0  0  0  0  0  0  0
   -5.5700   19.6880  -33.0290 C   0  0  0  0  0  0  0  0  0  0  0  0
   -4.4860   20.7680  -32.8660 C   0  0  0  0  0  0  0  0  0  0  0  0
   -5.0000   22.1320  -33.0730 N   0  0  0  0  0  0  0  0  0  0  0  0
   -4.9400   22.9010  -31.8600 C   0  0  0  0  0  0  0  0  0  0  0  0
   -3.8390   23.1510  -31.1960 O   0  0  0  0  0  0  0  0  0  0  0  0
   -4.1930   23.8580  -30.1440 C   0  0  0  0  0  0  0  0  0  0  0  0
   -3.2470   24.3390  -29.1340 C   0  0  0  0  0  0  0  0  0  0  0  0
   -3.1510   23.8820  -27.8360 C   0  0  0  0  0  0  0  0  0  0  0  0
   -2.1390   24.6200  -27.2590 C   0  0  0  0  0  0  0  0  0  0  0  0
   -1.6830   25.4770  -28.2390 C   0  0  0  0  0  0  0  0  0  0  0  0
   -2.3620   25.2850  -29.3460 O   0  0  0  0  0  0  0  0  0  0  0  0
   -5.5230   24.0930  -30.0830 N   0  0  0  0  0  0  0  0  0  0  0  0
   -5.9920   23.4790  -31.1860 C   0  0  0  0  0  0  0  0  0  0  0  0
   -7.7260   23.4260  -31.6400 S   0  0  0  0  0  0  0  0  0  0  0  0
   -8.1160   22.1150  -30.4420 C   0  0  0  0  0  0  0  0  0  0  0  0
   -7.9659   18.7328  -31.1985 H   0  0  0  0  0  0  0  0  0  0  0  0
   -8.8728   18.1286  -32.6266 H   0  0  0  0  0  0  0  0  0  0  0  0
   -7.0767   18.1030  -32.6266 H   0  0  0  0  0  0  0  0  0  0  0  0
   -8.8393   20.1963  -33.5292 H   0  0  0  0  0  0  0  0  0  0  0  0
   -7.9427   20.8019  -32.0907 H   0  0  0  0  0  0  0  0  0  0  0  0
   -6.8750   19.6900  -34.6070 H   0  0  0  0  0  0  0  0  0  0  0  0
   -5.8721   19.3266  -32.0349 H   0  0  0  0  0  0  0  0  0  0  0  0
   -5.1586   18.8613  -33.6268 H   0  0  0  0  0  0  0  0  0  0  0  0
   -4.0724   20.6994  -31.8490 H   0  0  0  0  0  0  0  0  0  0  0  0
   -3.7193   20.5844  -33.6331 H   0  0  0  0  0  0  0  0  0  0  0  0
   -4.3970   22.6080  -33.7830 H   0  0  0  0  0  0  0  0  0  0  0  0
   -5.9750   22.1050  -33.4480 H   0  0  0  0  0  0  0  0  0  0  0  0
   -3.7547   23.0946  -27.3611 H   0  0  0  0  0  0  0  0  0  0  0  0
   -1.7699   24.5412  -26.2258 H   0  0  0  0  0  0  0  0  0  0  0  0
   -0.8730   26.2103  -28.1121 H   0  0  0  0  0  0  0  0  0  0  0  0
   -7.9998   22.5056  -29.4203 H   0  0  0  0  0  0  0  0  0  0  0  0
   -9.1529   21.7792  -30.5905 H   0  0  0  0  0  0  0  0  0  0  0  0
   -7.4312   21.2671  -30.5905 H   0  0  0  0  0  0  0  0  0  0  0  0
  1  2  1  0
  2  3  1  0
  3  4  1  0
  4  5  1  0
  5  6  1  0
  6  7  1  0
  7  8  1  0
  8  9  1  0
  9 10  1  0
 10 11  2  0
 11 12  1  0
 12 13  2  0
 13 14  1  0
  9 15  2  0
 15 16  1  0
 16 17  1  0
 17 18  1  0
 16  7  2  0
 14 10  1  0
  1 19  1  0
  1 20  1  0
  1 21  1  0
  2 22  1  0
  2 23  1  0
  3 24  1  0
  4 25  1  0
  4 26  1  0
  5 27  1  0
  5 28  1  0
  6 29  1  0
  6 30  1  0
 11 31  1  0
 12 32  1  0
 13 33  1  0
 18 34  1  0
 18 35  1  0
 18 36  1  0
M  CHG  1   6   1
M  END
>  <UniqueID>  (2) 
2

>  <SMILES>  (2) 
CCNCC[NH2+]c1oc(-c2ccco2)nc1SC

>  <Energy>  (2) 
80.19962214799224

>  <Genealogy>  (2) 
CCNCC[NH2+]c1oc(-c2ccco2)nc1SC (protonated)
CCNCC[NH2+]c1oc(-c2ccco2)nc1SC (3D coordinates assigned)
CCNCC[NH2+]c1oc(-c2ccco2)nc1SC (optimized conformer: 80.19962214799224 kcal/mol)

>  <smiles>  (2) 
CCNCCNc1oc(-c2ccco2)nc1SC

>  <score_type>  (2) 
oracle

>  <origin>  (2) 
adg

>  <m_score__min__energy>  (2) 
-6.1799999999999997

>  <m_primary>  (2) 
energy

$$$$
2:0
     RDKit          3D

 47 50  0  0  0  0  0  0  0  0999 V2000
   -2.8750   17.2700  -34.8820 C   0  0  0  0  0  0  0  0  0  0  0  0
   -3.7150   18.0810  -34.0000 N   0  0  0  0  0  0  0  0  0  0  0  0
   -4.9800   17.8040  -33.5890 C   0  0  0  0  0  0  0  0  0  0  0  0
   -5.4730   18.8240  -32.7830 C   0  0  0  0  0  0  0  0  0  0  0  0
   -4.4810   19.7820  -32.7530 C   0  0  0  0  0  0  0  0  0  0  0  0
   -4.4440   21.0360  -32.1520 C   0  0  0  0  0  0  0  0  0  0  0  0
   -3.2850   21.8140  -32.3170 C   0  0  0  0  0  0  0  0  0  0  0  0
   -3.2140   23.0460  -31.7500 F   0  0  0  0  0  0  0  0  0  0  0  0
   -2.2020   21.3280  -33.0800 C   0  0  0  0  0  0  0  0  0  0  0  0
   -2.2680   20.0610  -33.6890 C   0  0  0  0  0  0  0  0  0  0  0  0
   -3.4300   19.3030  -33.5010 C   0  0  0  0  0  0  0  0  0  0  0  0
   -6.8510   18.8530  -32.1650 C   0  0  1  0  0  0  0  0  0  0  0  0
   -7.6550   19.9020  -32.8270 N   0  0  0  0  0  0  0  0  0  0  0  0
   -9.0360   20.0030  -32.3170 C   0  0  0  0  0  0  0  0  0  0  0  0
   -9.3940   21.4520  -31.9430 C   0  0  0  0  0  0  0  0  0  0  0  0
   -8.2090   22.2740  -31.4810 C   0  0  0  0  0  0  0  0  0  0  0  0
   -7.8150   22.2820  -30.1270 C   0  0  0  0  0  0  0  0  0  0  0  0
   -6.7350   23.0650  -29.7100 C   0  0  0  0  0  0  0  0  0  0  0  0
   -6.0590   23.8770  -30.6270 C   0  0  0  0  0  0  0  0  0  0  0  0
   -4.6870   24.8410  -30.1010 Cl  0  0  0  0  0  0  0  0  0  0  0  0
   -6.4750   23.9160  -31.9620 C   0  0  0  0  0  0  0  0  0  0  0  0
   -7.5560   23.1320  -32.3850 C   0  0  0  0  0  0  0  0  0  0  0  0
   -7.4990   17.4350  -32.2650 C   0  0  0  0  0  0  0  0  0  0  0  0
   -7.2360   16.7370  -33.6140 C   0  0  0  0  0  0  0  0  0  0  0  0
   -5.7320   16.5320  -33.8540 C   0  0  0  0  0  0  0  0  0  0  0  0
   -2.2148   16.6326  -34.2755 H   0  0  0  0  0  0  0  0  0  0  0  0
   -3.5132   16.6377  -35.5168 H   0  0  0  0  0  0  0  0  0  0  0  0
   -2.2655   17.9300  -35.5168 H   0  0  0  0  0  0  0  0  0  0  0  0
   -5.2967   21.4078  -31.5649 H   0  0  0  0  0  0  0  0  0  0  0  0
   -1.2989   21.9445  -33.1997 H   0  0  0  0  0  0  0  0  0  0  0  0
   -1.4327   19.6782  -34.2938 H   0  0  0  0  0  0  0  0  0  0  0  0
   -6.7971   19.1052  -31.0957 H   0  0  0  0  0  0  0  0  0  0  0  0
   -7.6810   19.7150  -33.8590 H   0  0  0  0  0  0  0  0  0  0  0  0
   -9.7308   19.6524  -33.0944 H   0  0  0  0  0  0  0  0  0  0  0  0
   -9.1161   19.3829  -31.4120 H   0  0  0  0  0  0  0  0  0  0  0  0
   -9.8317   21.9402  -32.8262 H   0  0  0  0  0  0  0  0  0  0  0  0
  -10.0973   21.4008  -31.0988 H   0  0  0  0  0  0  0  0  0  0  0  0
   -8.3607   21.6686  -29.3949 H   0  0  0  0  0  0  0  0  0  0  0  0
   -6.4156   23.0427  -28.6576 H   0  0  0  0  0  0  0  0  0  0  0  0
   -5.9521   24.5637  -32.6811 H   0  0  0  0  0  0  0  0  0  0  0  0
   -7.8962   23.1874  -33.4296 H   0  0  0  0  0  0  0  0  0  0  0  0
   -7.0887   16.8063  -31.4610 H   0  0  0  0  0  0  0  0  0  0  0  0
   -8.5872   17.5674  -32.1739 H   0  0  0  0  0  0  0  0  0  0  0  0
   -7.7354   15.7569  -33.6135 H   0  0  0  0  0  0  0  0  0  0  0  0
   -7.6315   17.3755  -34.4177 H   0  0  0  0  0  0  0  0  0  0  0  0
   -5.3617   15.7453  -33.1803 H   0  0  0  0  0  0  0  0  0  0  0  0
   -5.5755   16.2376  -34.9022 H   0  0  0  0  0  0  0  0  0  0  0  0
  1  2  1  0
  2  3  1  0
  3  4  2  0
  4  5  1  0
  5  6  2  0
  6  7  1  0
  7  8  1  0
  7  9  2  0
  9 10  1  0
 10 11  2  0
  4 12  1  0
 12 13  1  0
 13 14  1  0
 14 15  1  0
 15 16  1  0
 16 17  2  0
 17 18  1  0
 18 19  2  0
 19 20  1  0
 19 21  1  0
 21 22  2  0
 12 23  1  0
 23 24  1  0
 24 25  1  0
 11  2  1  0
 22 16  1  0
 25  3  1  0
 11  5  1  0
  1 26  1  0
  1 27  1  0
  1 28  1  0
  6 29  1  0
  9 30  1  0
 10 31  1  0
 12 32  1  1
 13 33  1  0
 14 34  1  0
 14 35  1  0
 15 36  1  0
 15 37  1  0
 17 38  1  0
 18 39  1  0
 21 40  1  0
 22 41  1  0
 23 42  1  0
 23 43  1  0
 24 44  1  0
 24 45  1  0
 25 46  1  0
 25 47  1  0
M  END
>  <UniqueID>  (3) 
3

>  <SMILES>  (3) 
Cn1c2c(c3cc(F)ccc31)[C@@H](NCCc1ccc(Cl)cc1)CCC2

>  <Energy>  (3) 
85.45202131743297

>  <Genealogy>  (3) 
Cn1c2c(c3cc(F)ccc31)[C@@H](NCCc1ccc(Cl)cc1)CCC2 (chirality)
Cn1c2c(c3cc(F)ccc31)[C@@H](NCCc1ccc(Cl)cc1)CCC2 (3D coordinates assigned)
Cn1c2c(c3cc(F)ccc31)[C@@H](NCCc1ccc(Cl)cc1)CCC2 (nonaromatic ring conformer: 85.45202131743297 kcal/mol)

>  <smiles>  (3) 
Cn1c2c(c3cc(F)ccc31)C(NCCc1ccc(Cl)cc1)CCC2

>  <score_type>  (3) 
oracle

>  <origin>  (3) 
adg

>  <m_score__min__energy>  (3) 
-9.3399999999999999

>  <m_primary>  (3) 
energy

$$$$
3:0
     RDKit          3D

 46 49  0  0  0  0  0  0  0  0999 V2000
   -1.2500   20.7800  -34.2680 C   0  0  0  0  0  0  0  0  0  0  0  0
   -2.5340   20.4990  -33.6060 N   0  0  0  0  0  0  0  0  0  0  0  0
   -2.9520   19.1010  -33.8390 C   0  0  0  0  0  0  0  0  0  0  0  0
   -4.3620   18.8630  -33.3580 C   0  0  0  0  0  0  0  0  0  0  0  0
   -4.7580   17.5800  -32.9480 C   0  0  0  0  0  0  0  0  0  0  0  0
   -6.0580   17.3500  -32.4900 C   0  0  0  0  0  0  0  0  0  0  0  0
   -6.9780   18.4060  -32.4210 C   0  0  0  0  0  0  0  0  0  0  0  0
   -8.2870   18.1870  -31.9630 C   0  0  0  0  0  0  0  0  0  0  0  0
   -9.1930   19.2490  -31.8950 C   0  0  0  0  0  0  0  0  0  0  0  0
   -8.8010   20.5340  -32.2810 C   0  0  0  0  0  0  0  0  0  0  0  0
   -7.5010   20.7660  -32.7380 C   0  0  0  0  0  0  0  0  0  0  0  0
   -6.5810   19.7080  -32.8130 C   0  0  0  0  0  0  0  0  0  0  0  0
   -5.2740   19.9280  -33.2720 C   0  0  0  0  0  0  0  0  0  0  0  0
   -2.5300   20.8960  -32.1770 C   0  0  0  0  0  0  0  0  0  0  0  0
   -3.5160   21.9910  -31.8340 C   0  0  0  0  0  0  0  0  0  0  0  0
   -4.2680   22.6260  -32.7530 N   0  0  0  0  0  0  0  0  0  0  0  0
   -5.0410   23.4980  -32.1280 N   0  0  0  0  0  0  0  0  0  0  0  0
   -4.7350   23.4020  -30.8190 C   0  0  0  0  0  0  0  0  0  0  0  0
   -5.4390   24.1770  -29.7420 C   0  0  0  0  0  0  0  0  0  0  0  0
   -6.8450   24.6440  -30.0900 C   0  0  0  0  0  0  0  0  0  0  0  0
   -5.6960   25.6350  -30.0890 C   0  0  0  0  0  0  0  0  0  0  0  0
   -3.7770   22.4740  -30.5970 N   0  0  0  0  0  0  0  0  0  0  0  0
   -3.2510   22.0410  -29.3010 C   0  0  0  0  0  0  0  0  0  0  0  0
   -0.4744   20.9497  -33.5067 H   0  0  0  0  0  0  0  0  0  0  0  0
   -0.9659   19.9228  -34.8961 H   0  0  0  0  0  0  0  0  0  0  0  0
   -1.3500   21.6775  -34.8961 H   0  0  0  0  0  0  0  0  0  0  0  0
   -2.9000   18.8863  -34.9166 H   0  0  0  0  0  0  0  0  0  0  0  0
   -2.2771   18.4386  -33.2772 H   0  0  0  0  0  0  0  0  0  0  0  0
   -4.0388   16.7487  -32.9876 H   0  0  0  0  0  0  0  0  0  0  0  0
   -6.3604   16.3380  -32.1828 H   0  0  0  0  0  0  0  0  0  0  0  0
   -8.6000   17.1778  -31.6572 H   0  0  0  0  0  0  0  0  0  0  0  0
  -10.2180   19.0731  -31.5365 H   0  0  0  0  0  0  0  0  0  0  0  0
   -9.5186   21.3658  -32.2248 H   0  0  0  0  0  0  0  0  0  0  0  0
   -7.1978   21.7795  -33.0396 H   0  0  0  0  0  0  0  0  0  0  0  0
   -4.9612   20.9407  -33.5664 H   0  0  0  0  0  0  0  0  0  0  0  0
   -2.7743   20.0102  -31.5723 H   0  0  0  0  0  0  0  0  0  0  0  0
   -1.5276   21.2953  -31.9630 H   0  0  0  0  0  0  0  0  0  0  0  0
   -4.2630   22.4750  -33.7840 H   0  0  0  0  0  0  0  0  0  0  0  0
   -4.9892   23.6367  -28.8960 H   0  0  0  0  0  0  0  0  0  0  0  0
   -7.3065   24.3381  -31.0405 H   0  0  0  0  0  0  0  0  0  0  0  0
   -7.8265   24.5909  -29.5962 H   0  0  0  0  0  0  0  0  0  0  0  0
   -5.3251   26.0476  -31.0389 H   0  0  0  0  0  0  0  0  0  0  0  0
   -5.5006   26.5977  -29.5940 H   0  0  0  0  0  0  0  0  0  0  0  0
   -3.8280   22.5160  -28.4939 H   0  0  0  0  0  0  0  0  0  0  0  0
   -3.3357   20.9474  -29.2177 H   0  0  0  0  0  0  0  0  0  0  0  0
   -2.1941   22.3343  -29.2177 H   0  0  0  0  0  0  0  0  0  0  0  0
  1  2  1  0
  2  3  1  0
  3  4  1  0
  4  5  2  0
  5  6  1  0
  6  7  2  0
  7  8  1  0
  8  9  2  0
  9 10  1  0
 10 11  2  0
 11 12  1  0
 12 13  2  0
  2 14  1  0
 14 15  1  0
 15 16  2  0
 16 17  1  0
 17 18  2  0
 18 19  1  0
 19 20  1  0
 20 21  1  0
 18 22  1  0
 22 23  1  0
 13  4  1  0
 22 15  1  0
 12  7  1  0
 21 19  1  0
  1 24  1  0
  1 25  1  0
  1 26  1  0
  3 27  1  0
  3 28  1  0
  5 29  1  0
  6 30  1  0
  8 31  1  0
  9 32  1  0
 10 33  1  0
 11 34  1  0
 13 35  1  0
 14 36  1  0
 14 37  1  0
 16 38  1  0
 19 39  1  0
 20 40  1  0
 20 41  1  0
 21 42  1  0
 21 43  1  0
 23 44  1  0
 23 45  1  0
 23 46  1  0
M  CHG  1  16   1
M  END
>  <UniqueID>  (4) 
4

>  <SMILES>  (4) 
CN(Cc1ccc2ccccc2c1)Cc1[nH+]nc(C2CC2)n1C

>  <Energy>  (4) 
352.67139078068686

>  <Genealogy>  (4) 
CN(Cc1ccc2ccccc2c1)Cc1[nH+]nc(C2CC2)n1C (protonated)
CN(Cc1ccc2ccccc2c1)Cc1[nH+]nc(C2CC2)n1C (3D coordinates assigned)
CN(Cc1ccc2ccccc2c1)Cc1[nH+]nc(C2CC2)n1C (nonaromatic ring conformer: 352.67139078068686 kcal/mol)

>  <smiles>  (4) 
CN(Cc1ccc2ccccc2c1)Cc1nnc(C2CC2)n1C

>  <score_type>  (4) 
oracle

>  <origin>  (4) 
adg

>  <m_score__min__energy>  (4) 
-7.9299999999999997

>  <m_primary>  (4) 
energy

$$$$
4:0
     RDKit          3D

 36 38  0  0  0  0  0  0  0  0999 V2000
    1.0610   24.7690  -26.8820 C   0  0  0  0  0  0  0  0  0  0  0  0
    0.5780   24.8890  -28.2150 O   0  0  0  0  0  0  0  0  0  0  0  0
   -0.5390   24.2050  -28.7200 C   0  0  0  0  0  0  0  0  0  0  0  0
   -0.4160   22.8350  -28.9770 C   0  0  0  0  0  0  0  0  0  0  0  0
   -1.4950   22.1030  -29.4800 C   0  0  0  0  0  0  0  0  0  0  0  0
   -2.7190   22.7360  -29.7350 C   0  0  0  0  0  0  0  0  0  0  0  0
   -3.8080   22.0090  -30.2390 C   0  0  0  0  0  0  0  0  0  0  0  0
   -5.0330   22.6510  -30.5010 C   0  0  0  0  0  0  0  0  0  0  0  0
   -6.1680   21.9210  -30.9970 N   0  0  0  0  0  0  0  0  0  0  0  0
   -6.1040   20.9810  -32.0800 C   0  0  0  0  0  0  0  0  0  0  0  0
   -5.1600   21.0440  -32.9130 O   0  0  0  0  0  0  0  0  0  0  0  0
   -7.1690   19.9700  -32.2570 C   0  0  0  0  0  0  0  0  0  0  0  0
   -8.5320   20.1730  -32.1180 C   0  0  0  0  0  0  0  0  0  0  0  0
   -9.4680   21.7530  -31.5870 Br  0  0  0  0  0  0  0  0  0  0  0  0
   -9.1020   18.9360  -32.3420 C   0  0  0  0  0  0  0  0  0  0  0  0
   -8.1350   18.0360  -32.6040 N   0  0  0  0  0  0  0  0  0  0  0  0
   -6.9710   18.6640  -32.5530 N   0  0  0  0  0  0  0  0  0  0  0  0
   -5.6960   17.9930  -32.7820 C   0  0  0  0  0  0  0  0  0  0  0  0
   -5.1650   24.0190  -30.2200 C   0  0  0  0  0  0  0  0  0  0  0  0
   -4.0860   24.7500  -29.7190 C   0  0  0  0  0  0  0  0  0  0  0  0
   -2.8570   24.1190  -29.4760 C   0  0  0  0  0  0  0  0  0  0  0  0
   -1.7680   24.8470  -28.9700 C   0  0  0  0  0  0  0  0  0  0  0  0
    0.2425   24.9723  -26.1758 H   0  0  0  0  0  0  0  0  0  0  0  0
    1.4404   23.7493  -26.7199 H   0  0  0  0  0  0  0  0  0  0  0  0
    1.8735   25.4926  -26.7199 H   0  0  0  0  0  0  0  0  0  0  0  0
    0.5406   22.3286  -28.7809 H   0  0  0  0  0  0  0  0  0  0  0  0
   -1.3832   21.0265  -29.6764 H   0  0  0  0  0  0  0  0  0  0  0  0
   -3.7039   20.9308  -30.4306 H   0  0  0  0  0  0  0  0  0  0  0  0
   -7.1130   22.1650  -30.6210 H   0  0  0  0  0  0  0  0  0  0  0  0
  -10.1799   18.7188  -32.3113 H   0  0  0  0  0  0  0  0  0  0  0  0
   -5.2315   17.7485  -31.8153 H   0  0  0  0  0  0  0  0  0  0  0  0
   -5.8659   17.0675  -33.3517 H   0  0  0  0  0  0  0  0  0  0  0  0
   -5.0293   18.6571  -33.3517 H   0  0  0  0  0  0  0  0  0  0  0  0
   -6.1279   24.5207  -30.3961 H   0  0  0  0  0  0  0  0  0  0  0  0
   -4.2001   25.8247  -29.5141 H   0  0  0  0  0  0  0  0  0  0  0  0
   -1.8749   25.9230  -28.7680 H   0  0  0  0  0  0  0  0  0  0  0  0
  1  2  1  0
  2  3  1  0
  3  4  2  0
  4  5  1  0
  5  6  2  0
  6  7  1  0
  7  8  2  0
  8  9  1  0
  9 10  1  0
 10 11  2  0
 10 12  1  0
 12 13  2  0
 13 14  1  0
 13 15  1  0
 15 16  2  0
 16 17  1  0
 17 18  1  0
  8 19  1  0
 19 20  2  0
 20 21  1  0
 21 22  2  0
 22  3  1  0
 21  6  1  0
 17 12  1  0
  1 23  1  0
  1 24  1  0
  1 25  1  0
  4 26  1  0
  5 27  1  0
  7 28  1  0
  9 29  1  0
 15 30  1  0
 18 31  1  0
 18 32  1  0
 18 33  1  0
 19 34  1  0
 20 35  1  0
 22 36  1  0
M  END
>  <UniqueID>  (5) 
5

>  <SMILES>  (5) 
COc1ccc2cc(NC(=O)c3c(Br)cnn3C)ccc2c1

>  <Energy>  (5) 
76.65846741762684

>  <Genealogy>  (5) 
COc1ccc2cc(NC(=O)c3c(Br)cnn3C)ccc2c1 (3D coordinates assigned)
COc1ccc2cc(NC(=O)c3c(Br)cnn3C)ccc2c1 (optimized conformer: 76.65846741762684 kcal/mol)

>  <smiles>  (5) 
COc1ccc2cc(NC(=O)c3c(Br)cnn3C)ccc2c1

>  <score_type>  (5) 
oracle

>  <origin>  (5) 
adg

>  <m_score__min__energy>  (5) 
-7.7000000000000002

>  <m_primary>  (5) 
energy

$$$$
5:0
     RDKit          3D

 91 93  0  0  0  0  0  0  0  0999 V2000
   -9.8600   21.1720  -31.9640 C   0  0  0  0  0  0  0  0  0  0  0  0
   -9.3480   19.8150  -32.4420 C   0  0  0  0  0  0  0  0  0  0  0  0
   -8.1740   19.3330  -31.5800 C   0  0  0  0  0  0  0  0  0  0  0  0
   -6.9110   19.9780  -32.0150 N   0  0  0  0  0  0  0  0  0  0  0  0
   -6.6600   21.2420  -31.2720 C   0  0  0  0  0  0  0  0  0  0  0  0
   -6.9020   22.4520  -32.1830 C   0  0  0  0  0  0  0  0  0  0  0  0
   -6.7020   23.7860  -31.4620 C   0  0  0  0  0  0  0  0  0  0  0  0
   -6.8770   20.1810  -33.4860 C   0  0  0  0  0  0  0  0  0  0  0  0
   -6.1350   19.0270  -34.1790 C   0  0  0  0  0  0  0  0  0  0  0  0
   -5.5590   18.1300  -33.2310 O   0  0  0  0  0  0  0  0  0  0  0  0
   -5.7090   16.7390  -33.2920 C   0  0  0  0  0  0  0  0  0  0  0  0
   -6.7010   16.2260  -33.8790 O   0  0  0  0  0  0  0  0  0  0  0  0
   -4.6150   15.8670  -32.7550 C   0  0  0  0  0  0  0  0  0  0  0  0
   -3.6170   15.3910  -33.8320 C   0  0  0  0  0  0  0  0  0  0  0  0
   -2.2130   15.7420  -33.5400 N   0  0  0  0  0  0  0  0  0  0  0  0
   -1.7350   16.9230  -34.2740 C   0  0  0  0  0  0  0  0  0  0  0  0
   -1.9260   18.1870  -33.4750 C   0  0  0  0  0  0  0  0  0  0  0  0
   -1.2130   18.3850  -32.2710 C   0  0  0  0  0  0  0  0  0  0  0  0
   -1.4080   19.5510  -31.5120 C   0  0  0  0  0  0  0  0  0  0  0  0
   -2.3250   20.5010  -31.9750 C   0  0  0  0  0  0  0  0  0  0  0  0
   -3.0010   20.3200  -33.1500 C   0  0  0  0  0  0  0  0  0  0  0  0
   -2.8260   19.1750  -33.9240 C   0  0  0  0  0  0  0  0  0  0  0  0
   -3.8880   21.4820  -33.4320 C   0  0  0  0  0  0  0  0  0  0  0  0
   -3.6370   22.4240  -32.2290 C   0  0  0  0  0  0  0  0  0  0  0  0
   -2.6690   21.7390  -31.3730 N   0  0  0  0  0  0  0  0  0  0  0  0
   -2.1930   22.2630  -30.0900 C   0  0  0  0  0  0  0  0  0  0  0  0
   -3.2940   23.0670  -29.3750 C   0  0  0  0  0  0  0  0  0  0  0  0
   -3.3620   24.5330  -29.8210 C   0  0  0  0  0  0  0  0  0  0  0  0
   -2.2370   25.2940  -29.2840 N   0  0  0  0  0  0  0  0  0  0  0  0
   -1.2170   24.7160  -28.4630 C   0  0  0  0  0  0  0  0  0  0  0  0
   -0.0520   24.5480  -28.9220 O   0  0  0  0  0  0  0  0  0  0  0  0
   -1.5690   24.2320  -27.0870 C   0  0  0  0  0  0  0  0  0  0  0  0
   -0.4340   23.3880  -26.4620 C   0  0  0  0  0  0  0  0  0  0  0  0
   -0.5320   21.9330  -26.7250 N   0  0  0  0  0  0  0  0  0  0  0  0
   -1.9220   21.4360  -26.7630 C   0  0  0  0  0  0  0  0  0  0  0  0
   -1.9210   19.9030  -26.7560 C   0  0  0  0  0  0  0  0  0  0  0  0
   -1.1080   19.3600  -27.9380 C   0  0  0  0  0  0  0  0  0  0  0  0
    0.2980   19.9720  -27.9640 C   0  0  0  0  0  0  0  0  0  0  0  0
    0.2240   21.5040  -27.9190 C   0  0  0  0  0  0  0  0  0  0  0  0
   -9.8683   21.1941  -30.8643 H   0  0  0  0  0  0  0  0  0  0  0  0
   -9.1999   21.9667  -32.3417 H   0  0  0  0  0  0  0  0  0  0  0  0
  -10.8806   21.3326  -32.3417 H   0  0  0  0  0  0  0  0  0  0  0  0
  -10.1646   19.0807  -32.3799 H   0  0  0  0  0  0  0  0  0  0  0  0
   -8.9997   19.9188  -33.4802 H   0  0  0  0  0  0  0  0  0  0  0  0
   -8.3679   19.5896  -30.5281 H   0  0  0  0  0  0  0  0  0  0  0  0
   -8.0740   18.2433  -31.6922 H   0  0  0  0  0  0  0  0  0  0  0  0
   -7.3392   21.2963  -30.4085 H   0  0  0  0  0  0  0  0  0  0  0  0
   -5.6145   21.2547  -30.9304 H   0  0  0  0  0  0  0  0  0  0  0  0
   -6.2006   22.4010  -33.0288 H   0  0  0  0  0  0  0  0  0  0  0  0
   -7.9489   22.4103  -32.5180 H   0  0  0  0  0  0  0  0  0  0  0  0
   -6.7265   23.6223  -30.3745 H   0  0  0  0  0  0  0  0  0  0  0  0
   -5.7296   24.2144  -31.7465 H   0  0  0  0  0  0  0  0  0  0  0  0
   -7.5060   24.4807  -31.7465 H   0  0  0  0  0  0  0  0  0  0  0  0
   -7.9076   20.2278  -33.8675 H   0  0  0  0  0  0  0  0  0  0  0  0
   -6.3465   21.1205  -33.7002 H   0  0  0  0  0  0  0  0  0  0  0  0
   -6.8460   18.4725  -34.8091 H   0  0  0  0  0  0  0  0  0  0  0  0
   -5.3234   19.4545  -34.7861 H   0  0  0  0  0  0  0  0  0  0  0  0
   -4.0600   16.4350  -31.9938 H   0  0  0  0  0  0  0  0  0  0  0  0
   -5.0943   14.9679  -32.3405 H   0  0  0  0  0  0  0  0  0  0  0  0
   -3.6910   14.2966  -33.9140 H   0  0  0  0  0  0  0  0  0  0  0  0
   -3.8872   15.9025  -34.7676 H   0  0  0  0  0  0  0  0  0  0  0  0
   -1.5850   14.9320  -33.7560 H   0  0  0  0  0  0  0  0  0  0  0  0
   -0.6645   16.7978  -34.4937 H   0  0  0  0  0  0  0  0  0  0  0  0
   -2.3185   17.0109  -35.2023 H   0  0  0  0  0  0  0  0  0  0  0  0
   -0.5007   17.6211  -31.9259 H   0  0  0  0  0  0  0  0  0  0  0  0
   -0.8531   19.7132  -30.5762 H   0  0  0  0  0  0  0  0  0  0  0  0
   -3.3786   19.0444  -34.8661 H   0  0  0  0  0  0  0  0  0  0  0  0
   -3.6100   21.9691  -34.3783 H   0  0  0  0  0  0  0  0  0  0  0  0
   -4.9451   21.1988  -33.5430 H   0  0  0  0  0  0  0  0  0  0  0  0
   -3.2280   23.3847  -32.5751 H   0  0  0  0  0  0  0  0  0  0  0  0
   -4.5694   22.6416  -31.6874 H   0  0  0  0  0  0  0  0  0  0  0  0
   -1.8891   21.4221  -29.4493 H   0  0  0  0  0  0  0  0  0  0  0  0
   -1.3410   22.9321  -30.2811 H   0  0  0  0  0  0  0  0  0  0  0  0
   -4.2643   22.5930  -29.5846 H   0  0  0  0  0  0  0  0  0  0  0  0
   -3.0543   23.0640  -28.3014 H   0  0  0  0  0  0  0  0  0  0  0  0
   -3.3346   24.5768  -30.9198 H   0  0  0  0  0  0  0  0  0  0  0  0
   -4.2964   24.9726  -29.4420 H   0  0  0  0  0  0  0  0  0  0  0  0
   -1.7604   25.1026  -26.4424 H   0  0  0  0  0  0  0  0  0  0  0  0
   -2.4613   23.5939  -27.1691 H   0  0  0  0  0  0  0  0  0  0  0  0
    0.5236   23.7464  -26.8676 H   0  0  0  0  0  0  0  0  0  0  0  0
   -0.5147   23.5144  -25.3723 H   0  0  0  0  0  0  0  0  0  0  0  0
   -2.4671   21.8057  -25.8819 H   0  0  0  0  0  0  0  0  0  0  0  0
   -2.4137   21.7966  -27.6785 H   0  0  0  0  0  0  0  0  0  0  0  0
   -1.4754   19.5458  -25.8159 H   0  0  0  0  0  0  0  0  0  0  0  0
   -2.9579   19.5465  -26.8443 H   0  0  0  0  0  0  0  0  0  0  0  0
   -1.0232   18.2672  -27.8447 H   0  0  0  0  0  0  0  0  0  0  0  0
   -1.6245   19.6277  -28.8716 H   0  0  0  0  0  0  0  0  0  0  0  0
    0.8645   19.6122  -27.0925 H   0  0  0  0  0  0  0  0  0  0  0  0
    0.7980   19.6695  -28.8959 H   0  0  0  0  0  0  0  0  0  0  0  0
    1.2423   21.9177  -27.8747 H   0  0  0  0  0  0  0  0  0  0  0  0
   -0.2855   21.8699  -28.8226 H   0  0  0  0  0  0  0  0  0  0  0  0
  1  2  1  0
  2  3  1  0
  3  4  1  0
  4  5  1  0
  5  6  1  0
  6  7  1  0
  4  8  1  0
  8  9  1  0
  9 10  1  0
 10 11  1  0
 11 12  2  0
 11 13  1  0
 13 14  1  0
 14 15  1  0
 15 16  1  0
 16 17  1  0
 17 18  2  0
 18 19  1  0
 19 20  2  0
 20 21  1  0
 21 22  2  0
 21 23  1  0
 23 24  1  0
 24 25  1  0
 25 26  1  0
 26 27  1  0
 27 28  1  0
 28 29  1  0
 29 30  1  0
 30 31  2  0
 30 32  1  0
 32 33  1  0
 33 34  1  0
 34 35  1  0
 35 36  1  0
 36 37  1  0
 37 38  1  0
 38 39  1  0
 22 17  1  0
 39 34  1  0
 25 20  1  0
  1 40  1  0
  1 41  1  0
  1 42  1  0
  2 43  1  0
  2 44  1  0
  3 45  1  0
  3 46  1  0
  5 47  1  0
  5 48  1  0
  6 49  1  0
  6 50  1  0
  7 51  1  0
  7 52  1  0
  7 53  1  0
  8 54  1  0
  8 55  1  0
  9 56  1  0
  9 57  1  0
 13 58  1  0
 13 59  1  0
 14 60  1  0
 14 61  1  0
 15 62  1  0
 16 63  1  0
 16 64  1  0
 18 65  1  0
 19 66  1  0
 22 67  1  0
 23 68  1  0
 23 69  1  0
 24 70  1  0
 24 71  1  0
 26 72  1  0
 26 73  1  0
 27 74  1  0
 27 75  1  0
 28 76  1  0
 28 77  1  0
 32 78  1  0
 32 79  1  0
 33 80  1  0
 33 81  1  0
 35 82  1  0
 35 83  1  0
 36 84  1  0
 36 85  1  0
 37 86  1  0
 37 87  1  0
 38 88  1  0
 38 89  1  0
 39 90  1  0
 39 91  1  0
M  CHG  1  29  -1
M  END
>  <UniqueID>  (6) 
6

>  <SMILES>  (6) 
CCCN(CCC)CCOC(=O)CCNCc1ccc2c(c1)CCN2CCC[N-]C(=O)CCN1CCCCC1

>  <Energy>  (6) 
87.2981226020071

>  <Genealogy>  (6) 
CCCN(CCC)CCOC(=O)CCNCc1ccc2c(c1)CCN2CCC[N-]C(=O)CCN1CCCCC1 (protonated)
CCCN(CCC)CCOC(=O)CCNCc1ccc2c(c1)CCN2CCC[N-]C(=O)CCN1CCCCC1 (3D coordinates assigned)
CCCN(CCC)CCOC(=O)CCNCc1ccc2c(c1)CCN2CCC[N-]C(=O)CCN1CCCCC1 (nonaromatic ring conformer: 87.2981226020071 kcal/mol)

>  <smiles>  (6) 
CCCN(CCC)CCOC(=O)CCNCc1ccc2c(c1)CCN2CCCNC(=O)CCN1CCCCC1

>  <score_type>  (6) 
oracle

>  <origin>  (6) 
adg

>  <m_score__min__energy>  (6) 
-11.210000000000001

>  <m_primary>  (6) 
energy

$$$$
6:0
     RDKit          3D

 73 76  0  0  0  0  0  0  0  0999 V2000
    2.5400   24.5270  -26.4290 C   0  0  0  0  0  0  0  0  0  0  0  0
    1.7640   25.3210  -25.3640 C   0  0  0  0  0  0  0  0  0  0  0  0
    0.2940   25.4500  -25.5880 N   0  0  0  0  0  0  0  0  0  0  0  0
   -0.5020   25.3400  -24.3370 C   0  0  0  0  0  0  0  0  0  0  0  0
   -0.8220   26.6770  -23.6590 C   0  0  0  0  0  0  0  0  0  0  0  0
   -0.1280   26.6030  -26.4260 C   0  0  0  0  0  0  0  0  0  0  0  0
   -0.7610   26.1570  -27.7570 C   0  0  0  0  0  0  0  0  0  0  0  0
   -0.1540   24.9570  -28.2020 O   0  0  0  0  0  0  0  0  0  0  0  0
   -1.1230   24.0740  -28.7290 C   0  0  0  0  0  0  0  0  0  0  0  0
   -2.5130   24.4530  -28.2080 C   0  0  0  0  0  0  0  0  0  0  0  0
   -3.6440   24.0940  -29.1830 C   0  0  0  0  0  0  0  0  0  0  0  0
   -3.8750   25.1820  -30.1450 N   0  0  0  0  0  0  0  0  0  0  0  0
   -5.3090   25.4070  -30.3700 C   0  0  0  0  0  0  0  0  0  0  0  0
   -5.8500   24.4170  -31.4040 C   0  0  0  0  0  0  0  0  0  0  0  0
   -6.1180   23.1260  -30.7720 N   0  0  0  0  0  0  0  0  0  0  0  0
   -6.0340   21.9000  -31.5140 C   0  0  0  0  0  0  0  0  0  0  0  0
   -4.7990   21.4510  -31.9700 C   0  0  0  0  0  0  0  0  0  0  0  0
   -4.6870   20.2550  -32.6500 C   0  0  0  0  0  0  0  0  0  0  0  0
   -5.7570   19.4130  -32.8200 N   0  0  0  0  0  0  0  0  0  0  0  0
   -5.5430   18.0190  -33.2440 C   0  0  0  0  0  0  0  0  0  0  0  0
   -7.0240   19.8910  -32.5240 C   0  0  0  0  0  0  0  0  0  0  0  0
   -8.1920   19.1830  -32.8980 C   0  0  0  0  0  0  0  0  0  0  0  0
   -9.4600   19.6750  -32.5890 C   0  0  0  0  0  0  0  0  0  0  0  0
   -9.6000   20.8890  -31.9230 C   0  0  0  0  0  0  0  0  0  0  0  0
   -8.4740   21.6260  -31.5650 C   0  0  0  0  0  0  0  0  0  0  0  0
   -7.1810   21.1450  -31.8500 C   0  0  0  0  0  0  0  0  0  0  0  0
   -3.2790   20.0940  -33.0380 C   0  0  0  0  0  0  0  0  0  0  0  0
   -2.6530   19.1900  -33.9100 C   0  0  0  0  0  0  0  0  0  0  0  0
   -1.2800   19.3360  -34.1590 C   0  0  0  0  0  0  0  0  0  0  0  0
   -0.5580   20.3940  -33.5780 C   0  0  0  0  0  0  0  0  0  0  0  0
   -1.2110   21.3290  -32.7630 C   0  0  0  0  0  0  0  0  0  0  0  0
   -2.5750   21.1670  -32.5150 C   0  0  0  0  0  0  0  0  0  0  0  0
   -3.4660   22.1160  -31.7820 C   0  0  0  0  0  0  0  0  0  0  0  0
    3.2267   23.8243  -25.9344 H   0  0  0  0  0  0  0  0  0  0  0  0
    1.8317   23.9667  -27.0570 H   0  0  0  0  0  0  0  0  0  0  0  0
    3.1164   25.2222  -27.0570 H   0  0  0  0  0  0  0  0  0  0  0  0
    1.9146   24.8217  -24.3955 H   0  0  0  0  0  0  0  0  0  0  0  0
    2.1623   26.3454  -25.4082 H   0  0  0  0  0  0  0  0  0  0  0  0
    0.0200   24.5910  -26.1250 H   0  0  0  0  0  0  0  0  0  0  0  0
   -1.4529   24.8429  -24.5791 H   0  0  0  0  0  0  0  0  0  0  0  0
    0.1159   24.7722  -23.6258 H   0  0  0  0  0  0  0  0  0  0  0  0
   -0.7918   26.5507  -22.5667 H   0  0  0  0  0  0  0  0  0  0  0  0
   -0.0785   27.4289  -23.9619 H   0  0  0  0  0  0  0  0  0  0  0  0
   -1.8254   27.0108  -23.9619 H   0  0  0  0  0  0  0  0  0  0  0  0
   -0.8648   27.1970  -25.8653 H   0  0  0  0  0  0  0  0  0  0  0  0
    0.7692   27.1943  -26.6614 H   0  0  0  0  0  0  0  0  0  0  0  0
   -1.8380   25.9881  -27.6101 H   0  0  0  0  0  0  0  0  0  0  0  0
   -0.6070   26.9420  -28.5120 H   0  0  0  0  0  0  0  0  0  0  0  0
   -1.1154   24.1376  -29.8271 H   0  0  0  0  0  0  0  0  0  0  0  0
   -0.8861   23.0470  -28.4140 H   0  0  0  0  0  0  0  0  0  0  0  0
   -2.6874   23.9229  -27.2601 H   0  0  0  0  0  0  0  0  0  0  0  0
   -2.5270   25.5454  -28.0797 H   0  0  0  0  0  0  0  0  0  0  0  0
   -3.3698   23.1808  -29.7316 H   0  0  0  0  0  0  0  0  0  0  0  0
   -4.5668   23.9342  -28.6061 H   0  0  0  0  0  0  0  0  0  0  0  0
   -3.4900   26.0590  -29.7220 H   0  0  0  0  0  0  0  0  0  0  0  0
   -5.8499   25.2721  -29.4218 H   0  0  0  0  0  0  0  0  0  0  0  0
   -5.4542   26.4303  -30.7466 H   0  0  0  0  0  0  0  0  0  0  0  0
   -6.7825   24.8125  -31.8331 H   0  0  0  0  0  0  0  0  0  0  0  0
   -5.1008   24.2804  -32.1978 H   0  0  0  0  0  0  0  0  0  0  0  0
   -6.6850   23.1330  -29.8930 H   0  0  0  0  0  0  0  0  0  0  0  0
   -5.4444   17.3768  -32.3564 H   0  0  0  0  0  0  0  0  0  0  0  0
   -6.4001   17.6832  -33.8462 H   0  0  0  0  0  0  0  0  0  0  0  0
   -4.6246   17.9558  -33.8462 H   0  0  0  0  0  0  0  0  0  0  0  0
   -8.0978   18.2307  -33.4404 H   0  0  0  0  0  0  0  0  0  0  0  0
  -10.3540   19.1005  -32.8732 H   0  0  0  0  0  0  0  0  0  0  0  0
  -10.6035   21.2676  -31.6786 H   0  0  0  0  0  0  0  0  0  0  0  0
   -8.5954   22.5929  -31.0548 H   0  0  0  0  0  0  0  0  0  0  0  0
   -3.2273   18.3831  -34.3887 H   0  0  0  0  0  0  0  0  0  0  0  0
   -0.7644   18.6177  -34.8134 H   0  0  0  0  0  0  0  0  0  0  0  0
    0.5221   20.4880  -33.7637 H   0  0  0  0  0  0  0  0  0  0  0  0
   -0.6588   22.1746  -32.3270 H   0  0  0  0  0  0  0  0  0  0  0  0
   -3.1950   22.1864  -30.7182 H   0  0  0  0  0  0  0  0  0  0  0  0
   -3.4200   23.1545  -32.1416 H   0  0  0  0  0  0  0  0  0  0  0  0
  1  2  1  0
  2  3  1  0
  3  4  1  0
  4  5  1  0
  3  6  1  0
  6  7  1  0
  7  8  1  0
  8  9  1  0
  9 10  1  0
 10 11  1  0
 11 12  1  0
 12 13  1  0
 13 14  1  0
 14 15  1  0
 15 16  1  0
 16 17  2  0
 17 18  1  0
 18 19  2  0
 19 20  1  0
 19 21  1  0
 21 22  2  0
 22 23  1  0
 23 24  2  0
 24 25  1  0
 25 26  2  0
 18 27  1  0
 27 28  2  0
 28 29  1  0
 29 30  2  0
 30 31  1  0
 31 32  2  0
 32 33  1  0
 26 16  1  0
 32 27  1  0
 33 17  1  0
 26 21  1  0
  1 34  1  0
  1 35  1  0
  1 36  1  0
  2 37  1  0
  2 38  1  0
  3 39  1  0
  4 40  1  0
  4 41  1  0
  5 42  1  0
  5 43  1  0
  5 44  1  0
  6 45  1  0
  6 46  1  0
  7 47  1  0
  7 48  1  0
  9 49  1  0
  9 50  1  0
 10 51  1  0
 10 52  1  0
 11 53  1  0
 11 54  1  0
 12 55  1  0
 13 56  1  0
 13 57  1  0
 14 58  1  0
 14 59  1  0
 15 60  1  0
 20 61  1  0
 20 62  1  0
 20 63  1  0
 22 64  1  0
 23 65  1  0
 24 66  1  0
 25 67  1  0
 28 68  1  0
 29 69  1  0
 30 70  1  0
 31 71  1  0
 33 72  1  0
 33 73  1  0
M  CHG  2   3   1  19   1
M  END
>  <UniqueID>  (7) 
7

>  <SMILES>  (7) 
CC[NH+](CC)CCOCCCNCCNc1c2c([n+](C)c3ccccc13)-c1ccccc1C2

>  <Energy>  (7) 
120.10361390881134

>  <Genealogy>  (7) 
CC[NH+](CC)CCOCCCNCCNc1c2c([n+](C)c3ccccc13)-c1ccccc1C2 (protonated)
CC[NH+](CC)CCOCCCNCCNc1c2c([n+](C)c3ccccc13)-c1ccccc1C2 (3D coordinates assigned)
CC[NH+](CC)CCOCCCNCCNc1c2c([n+](C)c3ccccc13)-c1ccccc1C2 (nonaromatic ring conformer: 120.10361390881134 kcal/mol)

>  <smiles>  (7) 
CCN(CC)CCOCCCNCCNc1c2c([n+](C)c3ccccc13)-c1ccccc1C2

>  <score_type>  (7) 
oracle

>  <origin>  (7) 
adg

>  <m_score__min__energy>  (7) 
-9.5800000000000001

>  <m_primary>  (7) 
energy

$$$$
7:0
     RDKit          3D

 82 87  0  0  0  0  0  0  0  0999 V2000
    0.2280   17.4160  -27.1200 C   0  0  0  0  0  0  0  0  0  0  0  0
   -0.6640   18.5390  -27.4520 N   0  0  0  0  0  0  0  0  0  0  0  0
   -1.9160   18.5350  -26.8990 C   0  0  0  0  0  0  0  0  0  0  0  0
   -2.8130   19.5660  -27.1390 C   0  0  0  0  0  0  0  0  0  0  0  0
   -2.4370   20.6370  -27.9460 C   0  0  0  0  0  0  0  0  0  0  0  0
   -3.3330   21.6960  -28.1670 C   0  0  0  0  0  0  0  0  0  0  0  0
   -2.9580   22.7820  -28.9570 C   0  0  0  0  0  0  0  0  0  0  0  0
   -4.1800   24.2210  -29.2470 Br  0  0  0  0  0  0  0  0  0  0  0  0
   -1.6850   22.8230  -29.5260 C   0  0  0  0  0  0  0  0  0  0  0  0
   -0.7850   21.7740  -29.3190 C   0  0  0  0  0  0  0  0  0  0  0  0
   -1.1500   20.6540  -28.5350 C   0  0  0  0  0  0  0  0  0  0  0  0
   -0.2730   19.5510  -28.3100 C   0  0  0  0  0  0  0  0  0  0  0  0
    1.0910   19.5110  -28.9880 C   0  0  0  0  0  0  0  0  0  0  0  0
    0.9990   18.7880  -30.2630 N   0  0  0  0  0  0  0  0  0  0  0  0
    2.2700   18.8810  -30.9920 C   0  0  0  0  0  0  0  0  0  0  0  0
    2.0160   18.7760  -32.5010 C   0  0  0  0  0  0  0  0  0  0  0  0
    0.9410   19.7630  -32.9890 C   0  0  0  0  0  0  0  0  0  0  0  0
   -0.3510   19.0500  -33.4390 C   0  0  0  0  0  0  0  0  0  0  0  0
   -1.1800   18.6320  -32.2950 N   0  0  0  0  0  0  0  0  0  0  0  0
   -2.0020   19.7200  -31.7470 C   0  0  0  0  0  0  0  0  0  0  0  0
   -1.8060   21.0340  -32.5220 C   0  0  0  0  0  0  0  0  0  0  0  0
   -2.9920   22.0120  -32.4020 C   0  0  0  0  0  0  0  0  0  0  0  0
   -3.9360   21.8880  -33.5310 N   0  0  0  0  0  0  0  0  0  0  0  0
   -5.0550   21.0400  -33.1690 C   0  0  0  0  0  0  0  0  0  0  0  0
   -5.0430   19.6810  -33.5050 C   0  0  0  0  0  0  0  0  0  0  0  0
   -6.0930   18.8520  -33.1600 C   0  0  0  0  0  0  0  0  0  0  0  0
   -7.2400   19.3320  -32.5820 N   0  0  0  0  0  0  0  0  0  0  0  0
   -8.4520   18.4970  -32.5400 C   0  0  0  0  0  0  0  0  0  0  0  0
   -7.2430   20.6320  -32.1010 C   0  0  0  0  0  0  0  0  0  0  0  0
   -8.2950   21.1130  -31.2840 C   0  0  0  0  0  0  0  0  0  0  0  0
   -8.3030   22.4280  -30.8220 C   0  0  0  0  0  0  0  0  0  0  0  0
   -7.2630   23.2910  -31.1450 C   0  0  0  0  0  0  0  0  0  0  0  0
   -6.1970   22.8450  -31.9200 C   0  0  0  0  0  0  0  0  0  0  0  0
   -6.1560   21.5180  -32.4030 C   0  0  0  0  0  0  0  0  0  0  0  0
   -5.7410   17.4850  -33.5680 C   0  0  0  0  0  0  0  0  0  0  0  0
   -6.3270   16.2450  -33.2700 C   0  0  0  0  0  0  0  0  0  0  0  0
   -5.7040   15.0760  -33.7330 C   0  0  0  0  0  0  0  0  0  0  0  0
   -4.4900   15.1480  -34.4390 C   0  0  0  0  0  0  0  0  0  0  0  0
   -3.8790   16.3890  -34.6680 C   0  0  0  0  0  0  0  0  0  0  0  0
   -4.5170   17.5440  -34.2150 C   0  0  0  0  0  0  0  0  0  0  0  0
   -3.9720   18.9340  -34.2490 C   0  0  0  0  0  0  0  0  0  0  0  0
    0.3047   17.3194  -26.0269 H   0  0  0  0  0  0  0  0  0  0  0  0
   -0.1804   16.4861  -27.5425 H   0  0  0  0  0  0  0  0  0  0  0  0
    1.2262   17.6033  -27.5425 H   0  0  0  0  0  0  0  0  0  0  0  0
   -2.2169   17.6981  -26.2517 H   0  0  0  0  0  0  0  0  0  0  0  0
   -3.8182   19.5375  -26.6932 H   0  0  0  0  0  0  0  0  0  0  0  0
   -4.3353   21.6684  -27.7146 H   0  0  0  0  0  0  0  0  0  0  0  0
   -1.3880   23.6854  -30.1408 H   0  0  0  0  0  0  0  0  0  0  0  0
    0.2172   21.8195  -29.7701 H   0  0  0  0  0  0  0  0  0  0  0  0
    1.4340   20.5390  -29.1765 H   0  0  0  0  0  0  0  0  0  0  0  0
    1.8050   18.9931  -28.3308 H   0  0  0  0  0  0  0  0  0  0  0  0
    0.2620   19.2540  -30.8460 H   0  0  0  0  0  0  0  0  0  0  0  0
    2.7484   19.8461  -30.7691 H   0  0  0  0  0  0  0  0  0  0  0  0
    2.9285   18.0578  -30.6777 H   0  0  0  0  0  0  0  0  0  0  0  0
    2.9558   18.9873  -33.0322 H   0  0  0  0  0  0  0  0  0  0  0  0
    1.6534   17.7584  -32.7083 H   0  0  0  0  0  0  0  0  0  0  0  0
    0.6961   20.4530  -32.1681 H   0  0  0  0  0  0  0  0  0  0  0  0
    1.3483   20.2997  -33.8586 H   0  0  0  0  0  0  0  0  0  0  0  0
   -0.9352   19.7379  -34.0679 H   0  0  0  0  0  0  0  0  0  0  0  0
   -0.0630   18.1468  -33.9968 H   0  0  0  0  0  0  0  0  0  0  0  0
   -0.5710   18.2490  -31.5360 H   0  0  0  0  0  0  0  0  0  0  0  0
   -3.0612   19.4285  -31.8036 H   0  0  0  0  0  0  0  0  0  0  0  0
   -1.6921   19.8895  -30.7052 H   0  0  0  0  0  0  0  0  0  0  0  0
   -0.9050   21.5330  -32.1358 H   0  0  0  0  0  0  0  0  0  0  0  0
   -1.7176   20.7677  -33.5856 H   0  0  0  0  0  0  0  0  0  0  0  0
   -3.5303   21.8023  -31.4659 H   0  0  0  0  0  0  0  0  0  0  0  0
   -2.5875   23.0349  -32.4118 H   0  0  0  0  0  0  0  0  0  0  0  0
   -3.4350   21.4780  -34.3490 H   0  0  0  0  0  0  0  0  0  0  0  0
   -4.2820   22.8200  -33.8530 H   0  0  0  0  0  0  0  0  0  0  0  0
   -8.7295   18.3058  -31.4929 H   0  0  0  0  0  0  0  0  0  0  0  0
   -9.2756   19.0203  -33.0479 H   0  0  0  0  0  0  0  0  0  0  0  0
   -8.2565   17.5411  -33.0479 H   0  0  0  0  0  0  0  0  0  0  0  0
   -9.1190   20.4380  -31.0096 H   0  0  0  0  0  0  0  0  0  0  0  0
   -9.1365   22.7842  -30.1988 H   0  0  0  0  0  0  0  0  0  0  0  0
   -7.2825   24.3308  -30.7866 H   0  0  0  0  0  0  0  0  0  0  0  0
   -5.3748   23.5352  -32.1600 H   0  0  0  0  0  0  0  0  0  0  0  0
   -7.2568   16.1906  -32.6847 H   0  0  0  0  0  0  0  0  0  0  0  0
   -6.1682   14.0971  -33.5425 H   0  0  0  0  0  0  0  0  0  0  0  0
   -4.0180   14.2274  -34.8129 H   0  0  0  0  0  0  0  0  0  0  0  0
   -2.9152   16.4507  -35.1946 H   0  0  0  0  0  0  0  0  0  0  0  0
   -3.0019   19.0001  -33.7347 H   0  0  0  0  0  0  0  0  0  0  0  0
   -3.7712   19.3174  -35.2603 H   0  0  0  0  0  0  0  0  0  0  0  0
  1  2  1  0
  2  3  2  0
  3  4  1  0
  4  5  2  0
  5  6  1  0
  6  7  2  0
  7  8  1  0
  7  9  1  0
  9 10  2  0
 10 11  1  0
 11 12  2  0
 12 13  1  0
 13 14  1  0
 14 15  1  0
 15 16  1  0
 16 17  1  0
 17 18  1  0
 18 19  1  0
 19 20  1  0
 20 21  1  0
 21 22  1  0
 22 23  1  0
 23 24  1  0
 24 25  2  0
 25 26  1  0
 26 27  2  0
 27 28  1  0
 27 29  1  0
 29 30  2  0
 30 31  1  0
 31 32  2  0
 32 33  1  0
 33 34  2  0
 26 35  1  0
 35 36  2  0
 36 37  1  0
 37 38  2  0
 38 39  1  0
 39 40  2  0
 40 41  1  0
 12  2  1  0
 34 24  1  0
 40 35  1  0
 11  5  1  0
 41 25  1  0
 34 29  1  0
  1 42  1  0
  1 43  1  0
  1 44  1  0
  3 45  1  0
  4 46  1  0
  6 47  1  0
  9 48  1  0
 10 49  1  0
 13 50  1  0
 13 51  1  0
 14 52  1  0
 15 53  1  0
 15 54  1  0
 16 55  1  0
 16 56  1  0
 17 57  1  0
 17 58  1  0
 18 59  1  0
 18 60  1  0
 19 61  1  0
 20 62  1  0
 20 63  1  0
 21 64  1  0
 21 65  1  0
 22 66  1  0
 22 67  1  0
 23 68  1  0
 23 69  1  0
 28 70  1  0
 28 71  1  0
 28 72  1  0
 30 73  1  0
 31 74  1  0
 32 75  1  0
 33 76  1  0
 36 77  1  0
 37 78  1  0
 38 79  1  0
 39 80  1  0
 41 81  1  0
 41 82  1  0
M  CHG  3   2   1  23   1  27   1
M  END
>  <UniqueID>  (8) 
8

>  <SMILES>  (8) 
C[n+]1ccc2cc(Br)ccc2c1CNCCCCNCCC[NH2+]c1c2c([n+](C)c3ccccc13)-c1ccccc1C2

>  <Energy>  (8) 
132.7124855969892

>  <Genealogy>  (8) 
C[n+]1ccc2cc(Br)ccc2c1CNCCCCNCCC[NH2+]c1c2c([n+](C)c3ccccc13)-c1ccccc1C2 (protonated)
C[n+]1ccc2cc(Br)ccc2c1CNCCCCNCCC[NH2+]c1c2c([n+](C)c3ccccc13)-c1ccccc1C2 (3D coordinates assigned)
C[n+]1ccc2cc(Br)ccc2c1CNCCCCNCCC[NH2+]c1c2c([n+](C)c3ccccc13)-c1ccccc1C2 (nonaromatic ring conformer: 132.7124855969892 kcal/mol)

>  <smiles>  (8) 
C[n+]1ccc2cc(Br)ccc2c1CNCCCCNCCCNc1c2c([n+](C)c3ccccc13)-c1ccccc1C2

>  <score_type>  (8) 
oracle

>  <origin>  (8) 
adg

>  <m_score__min__energy>  (8) 
-9.6099999999999994

>  <m_primary>  (8) 
energy

$$$$
8:0
     RDKit          3D

 89 92  0  0  0  0  0  0  0  0999 V2000
   -6.8410   25.6510  -29.4280 C   0  0  0  0  0  0  0  0  0  0  0  0
   -5.4710   25.1220  -29.8930 C   0  0  0  0  0  0  0  0  0  0  0  0
   -5.0140   23.8470  -29.2630 N   0  0  0  0  0  0  0  0  0  0  0  0
   -3.8030   24.0150  -28.4160 C   0  0  0  0  0  0  0  0  0  0  0  0
   -4.0740   24.5380  -27.0000 C   0  0  0  0  0  0  0  0  0  0  0  0
   -4.8940   22.6880  -30.1840 C   0  0  0  0  0  0  0  0  0  0  0  0
   -4.1470   23.0420  -31.4820 C   0  0  0  0  0  0  0  0  0  0  0  0
   -4.8490   22.5070  -32.6500 N   0  0  0  0  0  0  0  0  0  0  0  0
   -5.6450   21.3140  -32.5530 C   0  0  0  0  0  0  0  0  0  0  0  0
   -7.0180   21.4260  -32.2720 C   0  0  0  0  0  0  0  0  0  0  0  0
   -7.5930   22.6710  -31.9340 C   0  0  0  0  0  0  0  0  0  0  0  0
   -8.9530   22.7740  -31.6510 C   0  0  0  0  0  0  0  0  0  0  0  0
   -9.7630   21.6440  -31.6990 C   0  0  0  0  0  0  0  0  0  0  0  0
   -9.2140   20.4030  -32.0180 C   0  0  0  0  0  0  0  0  0  0  0  0
   -7.8300   20.2650  -32.2960 C   0  0  0  0  0  0  0  0  0  0  0  0
   -7.2740   19.0390  -32.5940 N   0  0  0  0  0  0  0  0  0  0  0  0
   -7.9810   17.8120  -32.1710 C   0  0  0  0  0  0  0  0  0  0  0  0
   -5.9880   18.9650  -33.0960 C   0  0  0  0  0  0  0  0  0  0  0  0
   -5.5170   17.8470  -33.8400 C   0  0  0  0  0  0  0  0  0  0  0  0
   -6.4380   16.8740  -34.5350 C   0  0  0  0  0  0  0  0  0  0  0  0
   -4.1480   17.7060  -34.0810 C   0  0  0  0  0  0  0  0  0  0  0  0
   -3.2240   18.6740  -33.6630 C   0  0  0  0  0  0  0  0  0  0  0  0
   -1.8460   18.5000  -33.8810 O   0  0  0  0  0  0  0  0  0  0  0  0
   -1.1860   17.2730  -34.2010 C   0  0  0  0  0  0  0  0  0  0  0  0
   -1.1000   16.3220  -32.9760 C   0  0  0  0  0  0  0  0  0  0  0  0
   -1.3620   14.8710  -33.2510 N   0  0  0  0  0  0  0  0  0  0  0  0
   -0.3270   14.3440  -34.1820 C   0  0  0  0  0  0  0  0  0  0  0  0
   -1.3430   14.0870  -31.9730 C   0  0  0  0  0  0  0  0  0  0  0  0
   -2.2440   12.8400  -32.0360 C   0  0  0  0  0  0  0  0  0  0  0  0
   -3.6870   13.1970  -32.2220 N   0  0  0  0  0  0  0  0  0  0  0  0
   -4.3590   12.1120  -32.9780 C   0  0  0  0  0  0  0  0  0  0  0  0
   -4.3480   13.3070  -30.8990 C   0  0  0  0  0  0  0  0  0  0  0  0
   -3.8510   14.4950  -32.9530 C   0  0  0  0  0  0  0  0  0  0  0  0
   -2.6950   14.7550  -33.9390 C   0  0  0  0  0  0  0  0  0  0  0  0
   -3.6990   19.8630  -33.0620 C   0  0  0  0  0  0  0  0  0  0  0  0
   -2.8340   20.8800  -32.6080 O   0  0  0  0  0  0  0  0  0  0  0  0
   -1.6030   20.7230  -31.9090 C   0  0  0  0  0  0  0  0  0  0  0  0
   -5.1000   20.0540  -32.8960 C   0  0  0  0  0  0  0  0  0  0  0  0
   -6.8751   25.6641  -28.3286 H   0  0  0  0  0  0  0  0  0  0  0  0
   -6.9896   26.6712  -29.8117 H   0  0  0  0  0  0  0  0  0  0  0  0
   -7.6366   24.9954  -29.8117 H   0  0  0  0  0  0  0  0  0  0  0  0
   -5.5236   24.9606  -30.9798 H   0  0  0  0  0  0  0  0  0  0  0  0
   -4.7390   25.8837  -29.5864 H   0  0  0  0  0  0  0  0  0  0  0  0
   -5.7640   23.5900  -28.5770 H   0  0  0  0  0  0  0  0  0  0  0  0
   -3.3075   23.0367  -28.3301 H   0  0  0  0  0  0  0  0  0  0  0  0
   -3.1818   24.7751  -28.9124 H   0  0  0  0  0  0  0  0  0  0  0  0
   -3.6983   23.8129  -26.2631 H   0  0  0  0  0  0  0  0  0  0  0  0
   -3.5616   25.5013  -26.8606 H   0  0  0  0  0  0  0  0  0  0  0  0
   -5.1565   24.6749  -26.8606 H   0  0  0  0  0  0  0  0  0  0  0  0
   -4.3467   21.8841  -29.6700 H   0  0  0  0  0  0  0  0  0  0  0  0
   -5.9113   22.3728  -30.4590 H   0  0  0  0  0  0  0  0  0  0  0  0
   -4.0796   24.1362  -31.5720 H   0  0  0  0  0  0  0  0  0  0  0  0
   -3.1415   22.5977  -31.4417 H   0  0  0  0  0  0  0  0  0  0  0  0
   -4.6070   22.8690  -33.6000 H   0  0  0  0  0  0  0  0  0  0  0  0
   -6.9597   23.5695  -31.8938 H   0  0  0  0  0  0  0  0  0  0  0  0
   -9.3871   23.7502  -31.3892 H   0  0  0  0  0  0  0  0  0  0  0  0
  -10.8385   21.7299  -31.4849 H   0  0  0  0  0  0  0  0  0  0  0  0
   -9.8645   19.5167  -32.0547 H   0  0  0  0  0  0  0  0  0  0  0  0
   -8.0082   17.7648  -31.0724 H   0  0  0  0  0  0  0  0  0  0  0  0
   -9.0087   17.8274  -32.5629 H   0  0  0  0  0  0  0  0  0  0  0  0
   -7.4523   16.9306  -32.5629 H   0  0  0  0  0  0  0  0  0  0  0  0
   -6.9900   16.2908  -33.7832 H   0  0  0  0  0  0  0  0  0  0  0  0
   -7.1499   17.4284  -35.1641 H   0  0  0  0  0  0  0  0  0  0  0  0
   -5.8453   16.1936  -35.1641 H   0  0  0  0  0  0  0  0  0  0  0  0
   -3.7861   16.8132  -34.6120 H   0  0  0  0  0  0  0  0  0  0  0  0
   -1.7438   16.7686  -35.0038 H   0  0  0  0  0  0  0  0  0  0  0  0
   -0.1602   17.5117  -34.5186 H   0  0  0  0  0  0  0  0  0  0  0  0
   -0.0877   16.4072  -32.5541 H   0  0  0  0  0  0  0  0  0  0  0  0
   -1.9004   16.6440  -32.2936 H   0  0  0  0  0  0  0  0  0  0  0  0
    0.5060   13.9199  -33.6021 H   0  0  0  0  0  0  0  0  0  0  0  0
   -0.7686   13.5610  -34.8159 H   0  0  0  0  0  0  0  0  0  0  0  0
    0.0465   15.1617  -34.8159 H   0  0  0  0  0  0  0  0  0  0  0  0
   -0.3103   13.7668  -31.7703 H   0  0  0  0  0  0  0  0  0  0  0  0
   -1.7272   14.7384  -31.1742 H   0  0  0  0  0  0  0  0  0  0  0  0
   -1.9222   12.2120  -32.8799 H   0  0  0  0  0  0  0  0  0  0  0  0
   -2.1479   12.3037  -31.0804 H   0  0  0  0  0  0  0  0  0  0  0  0
   -4.8034   11.3945  -32.2726 H   0  0  0  0  0  0  0  0  0  0  0  0
   -5.1495   12.5414  -33.6110 H   0  0  0  0  0  0  0  0  0  0  0  0
   -3.6224   11.5956  -33.6110 H   0  0  0  0  0  0  0  0  0  0  0  0
   -3.5988   13.1823  -30.1033 H   0  0  0  0  0  0  0  0  0  0  0  0
   -4.8203   14.2961  -30.8062 H   0  0  0  0  0  0  0  0  0  0  0  0
   -5.1152   12.5242  -30.8062 H   0  0  0  0  0  0  0  0  0  0  0  0
   -4.7968   14.4691  -33.5141 H   0  0  0  0  0  0  0  0  0  0  0  0
   -3.8505   15.3053  -32.2090 H   0  0  0  0  0  0  0  0  0  0  0  0
   -2.6499   13.9222  -34.6563 H   0  0  0  0  0  0  0  0  0  0  0  0
   -2.8949   15.7130  -34.4412 H   0  0  0  0  0  0  0  0  0  0  0  0
   -1.7910   20.7470  -30.8254 H   0  0  0  0  0  0  0  0  0  0  0  0
   -1.1473   19.7595  -32.1809 H   0  0  0  0  0  0  0  0  0  0  0  0
   -0.9200   21.5413  -32.1809 H   0  0  0  0  0  0  0  0  0  0  0  0
  1  2  1  0
  2  3  1  0
  3  4  1  0
  4  5  1  0
  3  6  1  0
  6  7  1  0
  7  8  1  0
  8  9  1  0
  9 10  2  0
 10 11  1  0
 11 12  2  0
 12 13  1  0
 13 14  2  0
 14 15  1  0
 15 16  2  0
 16 17  1  0
 16 18  1  0
 18 19  2  0
 19 20  1  0
 19 21  1  0
 21 22  2  0
 22 23  1  0
 23 24  1  0
 24 25  1  0
 25 26  1  0
 26 27  1  0
 26 28  1  0
 28 29  1  0
 29 30  1  0
 30 31  1  0
 30 32  1  0
 30 33  1  0
 33 34  1  0
 22 35  1  0
 35 36  1  0
 36 37  1  0
 35 38  2  0
 38  9  1  0
 15 10  1  0
 38 18  1  0
 34 26  1  0
  1 39  1  0
  1 40  1  0
  1 41  1  0
  2 42  1  0
  2 43  1  0
  3 44  1  0
  4 45  1  0
  4 46  1  0
  5 47  1  0
  5 48  1  0
  5 49  1  0
  6 50  1  0
  6 51  1  0
  7 52  1  0
  7 53  1  0
  8 54  1  0
 11 55  1  0
 12 56  1  0
 13 57  1  0
 14 58  1  0
 17 59  1  0
 17 60  1  0
 17 61  1  0
 20 62  1  0
 20 63  1  0
 20 64  1  0
 21 65  1  0
 24 66  1  0
 24 67  1  0
 25 68  1  0
 25 69  1  0
 27 70  1  0
 27 71  1  0
 27 72  1  0
 28 73  1  0
 28 74  1  0
 29 75  1  0
 29 76  1  0
 31 77  1  0
 31 78  1  0
 31 79  1  0
 32 80  1  0
 32 81  1  0
 32 82  1  0
 33 83  1  0
 33 84  1  0
 34 85  1  0
 34 86  1  0
 37 87  1  0
 37 88  1  0
 37 89  1  0
M  CHG  4   3   1  16   1  26   1  30   1
M  END
>  <UniqueID>  (9) 
9

>  <SMILES>  (9) 
CC[NH+](CC)CCNc1c2ccccc2[n+](C)c2c(C)cc(OCC[N+]3(C)CC[N+](C)(C)CC3)c(OC)c12

>  <Energy>  (9) 
163.86896372713173

>  <Genealogy>  (9) 
CC[NH+](CC)CCNc1c2ccccc2[n+](C)c2c(C)cc(OCC[N+]3(C)CC[N+](C)(C)CC3)c(OC)c12 (protonated)
CC[NH+](CC)CCNc1c2ccccc2[n+](C)c2c(C)cc(OCC[N+]3(C)CC[N+](C)(C)CC3)c(OC)c12 (3D coordinates assigned)
CC[NH+](CC)CCNc1c2ccccc2[n+](C)c2c(C)cc(OCC[N+]3(C)CC[N+](C)(C)CC3)c(OC)c12 (nonaromatic ring conformer: 163.86896372713173 kcal/mol)

>  <smiles>  (9) 
CCN(CC)CCNc1c2ccccc2[n+](C)c2c(C)cc(OCC[N+]3(C)CC[N+](C)(C)CC3)c(OC)c12

>  <score_type>  (9) 
oracle

>  <origin>  (9) 
adg

>  <m_score__min__energy>  (9) 
-7.29

>  <m_primary>  (9) 
energy

$$$$
9:0
     RDKit          3D

 58 61  0  0  0  0  0  0  0  0999 V2000
   -1.7130   20.7870  -29.8180 C   0  0  0  0  0  0  0  0  0  0  0  0
   -3.0360   21.5160  -29.5640 C   0  0  0  0  0  0  0  0  0  0  0  0
   -2.9460   22.9590  -29.8400 N   0  0  0  0  0  0  0  0  0  0  0  0
   -3.6640   23.7930  -28.8590 C   0  0  0  0  0  0  0  0  0  0  0  0
   -4.8570   24.5310  -29.4790 C   0  0  0  0  0  0  0  0  0  0  0  0
   -4.6100   24.7130  -30.8550 O   0  0  0  0  0  0  0  0  0  0  0  0
   -5.8280   24.7260  -31.5720 C   0  0  0  0  0  0  0  0  0  0  0  0
   -6.3450   23.2880  -31.7290 C   0  0  0  0  0  0  0  0  0  0  0  0
   -5.3470   22.2570  -31.3710 N   0  0  0  0  0  0  0  0  0  0  0  0
   -5.5160   21.0280  -32.1310 C   0  0  0  0  0  0  0  0  0  0  0  0
   -4.4210   20.4690  -32.8040 C   0  0  0  0  0  0  0  0  0  0  0  0
   -4.4910   19.2300  -33.4250 C   0  0  0  0  0  0  0  0  0  0  0  0
   -5.6710   18.5270  -33.4980 N   0  0  0  0  0  0  0  0  0  0  0  0
   -5.7620   17.3170  -34.3380 C   0  0  0  0  0  0  0  0  0  0  0  0
   -5.5180   16.0550  -33.5060 C   0  0  0  0  0  0  0  0  0  0  0  0
   -6.7780   19.0070  -32.8090 C   0  0  0  0  0  0  0  0  0  0  0  0
   -7.9770   18.2500  -32.7190 C   0  0  0  0  0  0  0  0  0  0  0  0
   -9.0940   18.7350  -32.0490 C   0  0  0  0  0  0  0  0  0  0  0  0
   -9.0620   19.9830  -31.4510 C   0  0  0  0  0  0  0  0  0  0  0  0
   -7.9040   20.7500  -31.4920 C   0  0  0  0  0  0  0  0  0  0  0  0
   -6.7330   20.2810  -32.1400 C   0  0  0  0  0  0  0  0  0  0  0  0
   -3.1320   18.9100  -33.9690 C   0  0  0  0  0  0  0  0  0  0  0  0
   -2.5760   17.7510  -34.5440 C   0  0  0  0  0  0  0  0  0  0  0  0
   -1.2200   17.7560  -34.9140 C   0  0  0  0  0  0  0  0  0  0  0  0
   -0.4190   18.8870  -34.6830 C   0  0  0  0  0  0  0  0  0  0  0  0
   -0.9620   20.0170  -34.0610 C   0  0  0  0  0  0  0  0  0  0  0  0
   -2.3110   19.9970  -33.7100 C   0  0  0  0  0  0  0  0  0  0  0  0
   -3.0630   20.9960  -32.9840 C   0  0  0  0  0  0  0  0  0  0  0  0
   -2.6120   22.1040  -32.5890 O   0  0  0  0  0  0  0  0  0  0  0  0
   -1.2457   20.5295  -28.8561 H   0  0  0  0  0  0  0  0  0  0  0  0
   -1.9051   19.8674  -30.3902 H   0  0  0  0  0  0  0  0  0  0  0  0
   -1.0382   21.4406  -30.3902 H   0  0  0  0  0  0  0  0  0  0  0  0
   -3.8094   21.0801  -30.2135 H   0  0  0  0  0  0  0  0  0  0  0  0
   -3.2861   21.3940  -28.4998 H   0  0  0  0  0  0  0  0  0  0  0  0
   -3.2510   23.1560  -30.8210 H   0  0  0  0  0  0  0  0  0  0  0  0
   -4.0313   23.1469  -28.0480 H   0  0  0  0  0  0  0  0  0  0  0  0
   -2.9598   24.5504  -28.4843 H   0  0  0  0  0  0  0  0  0  0  0  0
   -5.7720   23.9358  -29.3427 H   0  0  0  0  0  0  0  0  0  0  0  0
   -4.9895   25.5071  -28.9895 H   0  0  0  0  0  0  0  0  0  0  0  0
   -6.5701   25.3246  -31.0234 H   0  0  0  0  0  0  0  0  0  0  0  0
   -5.6636   25.1672  -32.5661 H   0  0  0  0  0  0  0  0  0  0  0  0
   -7.2237   23.1616  -31.0794 H   0  0  0  0  0  0  0  0  0  0  0  0
   -6.5869   23.1468  -32.7927 H   0  0  0  0  0  0  0  0  0  0  0  0
   -5.4470   22.0420  -30.3540 H   0  0  0  0  0  0  0  0  0  0  0  0
   -4.3870   22.6560  -31.4360 H   0  0  0  0  0  0  0  0  0  0  0  0
   -6.7651   17.2644  -34.7864 H   0  0  0  0  0  0  0  0  0  0  0  0
   -4.9931   17.3750  -35.1225 H   0  0  0  0  0  0  0  0  0  0  0  0
   -5.5665   16.3061  -32.4361 H   0  0  0  0  0  0  0  0  0  0  0  0
   -6.2879   15.3056  -33.7421 H   0  0  0  0  0  0  0  0  0  0  0  0
   -4.5243   15.6466  -33.7421 H   0  0  0  0  0  0  0  0  0  0  0  0
   -8.0223   17.2572  -33.1905 H   0  0  0  0  0  0  0  0  0  0  0  0
  -10.0074   18.1245  -31.9937 H   0  0  0  0  0  0  0  0  0  0  0  0
   -9.9570   20.3692  -30.9412 H   0  0  0  0  0  0  0  0  0  0  0  0
   -7.8955   21.7400  -31.0126 H   0  0  0  0  0  0  0  0  0  0  0  0
   -3.1940   16.8547  -34.7013 H   0  0  0  0  0  0  0  0  0  0  0  0
   -0.7817   16.8659  -35.3890 H   0  0  0  0  0  0  0  0  0  0  0  0
    0.6368   18.8843  -34.9916 H   0  0  0  0  0  0  0  0  0  0  0  0
   -0.3393   20.8998  -33.8540 H   0  0  0  0  0  0  0  0  0  0  0  0
  1  2  1  0
  2  3  1  0
  3  4  1  0
  4  5  1  0
  5  6  1  0
  6  7  1  0
  7  8  1  0
  8  9  1  0
  9 10  1  0
 10 11  2  0
 11 12  1  0
 12 13  2  0
 13 14  1  0
 14 15  1  0
 13 16  1  0
 16 17  2  0
 17 18  1  0
 18 19  2  0
 19 20  1  0
 20 21  2  0
 12 22  1  0
 22 23  2  0
 23 24  1  0
 24 25  2  0
 25 26  1  0
 26 27  2  0
 27 28  1  0
 28 29  2  0
 21 10  1  0
 27 22  1  0
 28 11  1  0
 21 16  1  0
  1 30  1  0
  1 31  1  0
  1 32  1  0
  2 33  1  0
  2 34  1  0
  3 35  1  0
  4 36  1  0
  4 37  1  0
  5 38  1  0
  5 39  1  0
  7 40  1  0
  7 41  1  0
  8 42  1  0
  8 43  1  0
  9 44  1  0
  9 45  1  0
 14 46  1  0
 14 47  1  0
 15 48  1  0
 15 49  1  0
 15 50  1  0
 17 51  1  0
 18 52  1  0
 19 53  1  0
 20 54  1  0
 23 55  1  0
 24 56  1  0
 25 57  1  0
 26 58  1  0
M  CHG  2   9   1  13   1
M  END
>  <UniqueID>  (10) 
10

>  <SMILES>  (10) 
CCNCCOCC[NH2+]c1c2c([n+](CC)c3ccccc13)-c1ccccc1C2=O

>  <Energy>  (10) 
111.82145707914482

>  <Genealogy>  (10) 
CCNCCOCC[NH2+]c1c2c([n+](CC)c3ccccc13)-c1ccccc1C2=O (protonated)
CCNCCOCC[NH2+]c1c2c([n+](CC)c3ccccc13)-c1ccccc1C2=O (3D coordinates assigned)
CCNCCOCC[NH2+]c1c2c([n+](CC)c3ccccc13)-c1ccccc1C2=O (nonaromatic ring conformer: 111.82145707914482 kcal/mol)

>  <smiles>  (10) 
CCNCCOCCNc1c2c([n+](CC)c3ccccc13)-c1ccccc1C2=O

>  <score_type>  (10) 
oracle

>  <origin>  (10) 
adg

>  <m_score__min__energy>  (10) 
-8.5999999999999996

>  <m_primary>  (10) 
energy

$$$$
10:0
     RDKit          3D

 55 56  0  0  0  0  0  0  0  0999 V2000
   -0.4743   20.0488  -32.9110 H   0  0  0  0  0  0  0  0  0  0  0  0
   -1.5260   20.0210  -33.2320 C   0  0  0  0  0  0  0  0  0  0  0  0
   -1.8640   19.1230  -34.1710 C   0  0  0  0  0  0  0  0  0  0  0  0
   -1.6389   19.3733  -35.2182 H   0  0  0  0  0  0  0  0  0  0  0  0
   -2.5330   17.7890  -33.8970 C   0  0  0  0  0  0  0  0  0  0  0  0
   -1.9713   17.2761  -33.1024 H   0  0  0  0  0  0  0  0  0  0  0  0
   -2.5301   17.2287  -34.8436 H   0  0  0  0  0  0  0  0  0  0  0  0
   -3.9500   17.9060  -33.4680 N   0  0  0  0  0  0  0  0  0  0  0  0
   -3.9740   18.7030  -32.7870 H   0  0  0  0  0  0  0  0  0  0  0  0
   -4.4340   16.7050  -32.7540 C   0  0  0  0  0  0  0  0  0  0  0  0
   -3.7268   16.4549  -31.9494 H   0  0  0  0  0  0  0  0  0  0  0  0
   -4.5079   15.8750  -33.4721 H   0  0  0  0  0  0  0  0  0  0  0  0
   -5.8330   16.9540  -32.1400 C   0  0  0  0  0  0  0  0  0  0  0  0
   -5.7236   17.1150  -31.0574 H   0  0  0  0  0  0  0  0  0  0  0  0
   -6.4596   16.0738  -32.3463 H   0  0  0  0  0  0  0  0  0  0  0  0
   -6.4910   18.1400  -32.7380 N   0  0  0  0  0  0  0  0  0  0  0  0
   -7.9150   18.2220  -32.3460 C   0  0  0  0  0  0  0  0  0  0  0  0
   -8.0204   17.9056  -31.2978 H   0  0  0  0  0  0  0  0  0  0  0  0
   -8.5025   17.5635  -33.0026 H   0  0  0  0  0  0  0  0  0  0  0  0
   -8.4370   19.6700  -32.4950 C   0  0  0  0  0  0  0  0  0  0  0  0
   -9.3450   19.7785  -31.8836 H   0  0  0  0  0  0  0  0  0  0  0  0
   -8.6351   19.8367  -33.5641 H   0  0  0  0  0  0  0  0  0  0  0  0
   -7.4110   20.7400  -32.0460 C   0  0  0  0  0  0  0  0  0  0  0  0
   -6.7871   20.9945  -32.9155 H   0  0  0  0  0  0  0  0  0  0  0  0
   -6.8549   20.2876  -31.2117 H   0  0  0  0  0  0  0  0  0  0  0  0
   -8.0130   22.0700  -31.4820 C   0  0  0  0  0  0  0  0  0  0  0  0
   -9.5510   21.9370  -31.4800 C   0  0  0  0  0  0  0  0  0  0  0  0
   -9.9150   21.9055  -30.4424 H   0  0  0  0  0  0  0  0  0  0  0  0
   -9.9944   22.8002  -31.9981 H   0  0  0  0  0  0  0  0  0  0  0  0
   -9.8396   21.0105  -31.9981 H   0  0  0  0  0  0  0  0  0  0  0  0
   -7.5490   22.3130  -30.0300 C   0  0  0  0  0  0  0  0  0  0  0  0
   -8.3030   21.9181  -29.3332 H   0  0  0  0  0  0  0  0  0  0  0  0
   -6.5900   21.8014  -29.8610 H   0  0  0  0  0  0  0  0  0  0  0  0
   -7.4234   23.3927  -29.8610 H   0  0  0  0  0  0  0  0  0  0  0  0
   -7.6340   23.2900  -32.3500 C   0  0  0  0  0  0  0  0  0  0  0  0
   -7.3711   24.1362  -31.6982 H   0  0  0  0  0  0  0  0  0  0  0  0
   -6.7728   23.0349  -32.9850 H   0  0  0  0  0  0  0  0  0  0  0  0
   -8.4882   23.5678  -32.9850 H   0  0  0  0  0  0  0  0  0  0  0  0
   -6.3410   18.1240  -34.2040 C   0  0  0  0  0  0  0  0  0  0  0  0
   -6.9038   18.9649  -34.6354 H   0  0  0  0  0  0  0  0  0  0  0  0
   -6.7295   17.1711  -34.5927 H   0  0  0  0  0  0  0  0  0  0  0  0
   -4.8510   18.2550  -34.5930 C   0  0  0  0  0  0  0  0  0  0  0  0
   -4.6534   19.2935  -34.8971 H   0  0  0  0  0  0  0  0  0  0  0  0
   -4.6523   17.5541  -35.4172 H   0  0  0  0  0  0  0  0  0  0  0  0
   -2.4570   20.9730  -32.5980 C   0  0  0  0  0  0  0  0  0  0  0  0
   -3.6400   21.3240  -33.2650 C   0  0  0  0  0  0  0  0  0  0  0  0
   -3.8342   20.9361  -34.2758 H   0  0  0  0  0  0  0  0  0  0  0  0
   -4.5750   22.1660  -32.6500 C   0  0  0  0  0  0  0  0  0  0  0  0
   -5.4991   22.4412  -33.1794 H   0  0  0  0  0  0  0  0  0  0  0  0
   -4.3340   22.6570  -31.3630 C   0  0  0  0  0  0  0  0  0  0  0  0
   -5.0613   23.3306  -30.8864 H   0  0  0  0  0  0  0  0  0  0  0  0
   -3.1690   22.2920  -30.6820 C   0  0  0  0  0  0  0  0  0  0  0  0
   -2.9829   22.6736  -29.6672 H   0  0  0  0  0  0  0  0  0  0  0  0
   -2.2390   21.4410  -31.2910 C   0  0  0  0  0  0  0  0  0  0  0  0
   -1.3340   21.1375  -30.7443 H   0  0  0  0  0  0  0  0  0  0  0  0
  1  2  1  0
  2  3  2  0
  3  4  1  0
  3  5  1  0
  5  6  1  0
  5  7  1  0
  5  8  1  0
  8  9  1  0
  8 10  1  0
 10 11  1  0
 10 12  1  0
 10 13  1  0
 13 14  1  0
 13 15  1  0
 13 16  1  0
 16 17  1  0
 17 18  1  0
 17 19  1  0
 17 20  1  0
 20 21  1  0
 20 22  1  0
 20 23  1  0
 23 24  1  0
 23 25  1  0
 23 26  1  0
 26 27  1  0
 27 28  1  0
 27 29  1  0
 27 30  1  0
 26 31  1  0
 31 32  1  0
 31 33  1  0
 31 34  1  0
 26 35  1  0
 35 36  1  0
 35 37  1  0
 35 38  1  0
 16 39  1  0
 39 40  1  0
 39 41  1  0
 39 42  1  0
 42 43  1  0
 42 44  1  0
  2 45  1  0
 45 46  2  0
 46 47  1  0
 46 48  1  0
 48 49  1  0
 48 50  2  0
 50 51  1  0
 50 52  1  0
 52 53  1  0
 52 54  2  0
 54 55  1  0
 42  8  1  0
 54 45  1  0
M  CHG  1   8   1
M  END
>  <UniqueID>  (11) 
11

>  <SMILES>  (11) 
CC(C)(C)CCCN1CC[NH+](C/C=C\c2ccccc2)CC1

>  <Energy>  (11) 
70.42637724536013

>  <Genealogy>  (11) 
CC(C)(C)CCCN1CC[NH+](CC=Cc2ccccc2)CC1 (protonated)
CC(C)(C)CCCN1CC[NH+](C/C=C\c2ccccc2)CC1 (cis-trans isomerization)
CC(C)(C)CCCN1CC[NH+](C/C=C\c2ccccc2)CC1 (3D coordinates assigned)
CC(C)(C)CCCN1CC[NH+](C/C=C\c2ccccc2)CC1 (nonaromatic ring conformer: 70.42637724536013 kcal/mol)

>  <smiles>  (11) 
CC(C)(C)CCCN1CCN(CC=Cc2ccccc2)CC1

>  <score_type>  (11) 
oracle

>  <origin>  (11) 
adg

>  <m_score__min__energy>  (11) 
-7.04

>  <m_primary>  (11) 
energy

$$$$
11:0
     RDKit          3D

 44 47  0  0  0  0  0  0  0  0999 V2000
   -2.6870   23.9380  -29.6020 C   0  0  0  0  0  0  0  0  0  0  0  0
   -3.5530   24.7350  -30.4750 N   0  0  0  0  0  0  0  0  0  0  0  0
   -4.9030   24.9040  -29.9140 C   0  0  0  0  0  0  0  0  0  0  0  0
   -5.9580   24.0620  -30.6510 C   0  0  0  0  0  0  0  0  0  0  0  0
   -5.3660   23.3840  -31.8020 N   0  0  0  0  0  0  0  0  0  0  0  0
   -5.7810   22.0600  -32.1530 C   0  0  0  0  0  0  0  0  0  0  0  0
   -4.8540   21.1200  -32.5840 C   0  0  0  0  0  0  0  0  0  0  0  0
   -5.2430   19.8430  -32.9510 C   0  0  0  0  0  0  0  0  0  0  0  0
   -6.5320   19.4040  -32.7800 N   0  0  0  0  0  0  0  0  0  0  0  0
   -6.8380   17.9670  -32.8590 C   0  0  0  0  0  0  0  0  0  0  0  0
   -7.5080   20.3360  -32.4600 C   0  0  0  0  0  0  0  0  0  0  0  0
   -8.8860   20.0090  -32.4790 C   0  0  0  0  0  0  0  0  0  0  0  0
   -9.8530   20.9490  -32.1240 C   0  0  0  0  0  0  0  0  0  0  0  0
   -9.4790   22.2380  -31.7550 C   0  0  0  0  0  0  0  0  0  0  0  0
   -8.1360   22.6060  -31.7540 C   0  0  0  0  0  0  0  0  0  0  0  0
   -7.1400   21.6780  -32.1140 C   0  0  0  0  0  0  0  0  0  0  0  0
   -4.0300   19.1200  -33.4010 C   0  0  0  0  0  0  0  0  0  0  0  0
   -3.9130   17.9440  -34.0810 N   0  0  0  0  0  0  0  0  0  0  0  0
   -2.6810   17.5200  -34.4910 C   0  0  0  0  0  0  0  0  0  0  0  0
   -1.5380   18.3130  -34.2720 C   0  0  0  0  0  0  0  0  0  0  0  0
   -1.6680   19.5620  -33.6490 C   0  0  0  0  0  0  0  0  0  0  0  0
   -2.9370   19.9480  -33.2290 C   0  0  0  0  0  0  0  0  0  0  0  0
   -3.4000   21.2230  -32.7050 C   0  0  0  0  0  0  0  0  0  0  0  0
   -2.6820   22.2140  -32.4080 O   0  0  0  0  0  0  0  0  0  0  0  0
   -2.9249   24.1570  -28.5506 H   0  0  0  0  0  0  0  0  0  0  0  0
   -2.8512   22.8685  -29.8000 H   0  0  0  0  0  0  0  0  0  0  0  0
   -1.6348   24.1902  -29.8000 H   0  0  0  0  0  0  0  0  0  0  0  0
   -3.1110   25.6710  -30.6260 H   0  0  0  0  0  0  0  0  0  0  0  0
   -4.8859   24.6010  -28.8567 H   0  0  0  0  0  0  0  0  0  0  0  0
   -5.1816   25.9621  -30.0277 H   0  0  0  0  0  0  0  0  0  0  0  0
   -6.3669   23.3101  -29.9600 H   0  0  0  0  0  0  0  0  0  0  0  0
   -6.7575   24.7288  -31.0062 H   0  0  0  0  0  0  0  0  0  0  0  0
   -4.5130   23.7730  -32.2650 H   0  0  0  0  0  0  0  0  0  0  0  0
   -6.9259   17.5544  -31.8431 H   0  0  0  0  0  0  0  0  0  0  0  0
   -7.7869   17.8232  -33.3965 H   0  0  0  0  0  0  0  0  0  0  0  0
   -6.0300   17.4491  -33.3965 H   0  0  0  0  0  0  0  0  0  0  0  0
   -9.1983   18.9977  -32.7785 H   0  0  0  0  0  0  0  0  0  0  0  0
  -10.9171   20.6703  -32.1356 H   0  0  0  0  0  0  0  0  0  0  0  0
  -10.2475   22.9689  -31.4630 H   0  0  0  0  0  0  0  0  0  0  0  0
   -7.8509   23.6297  -31.4698 H   0  0  0  0  0  0  0  0  0  0  0  0
   -4.7450   17.3740  -34.3400 H   0  0  0  0  0  0  0  0  0  0  0  0
   -2.5806   16.5488  -34.9976 H   0  0  0  0  0  0  0  0  0  0  0  0
   -0.5476   17.9539  -34.5884 H   0  0  0  0  0  0  0  0  0  0  0  0
   -0.7959   20.2150  -33.4973 H   0  0  0  0  0  0  0  0  0  0  0  0
  1  2  1  0
  2  3  1  0
  3  4  1  0
  4  5  1  0
  5  6  1  0
  6  7  2  0
  7  8  1  0
  8  9  2  0
  9 10  1  0
  9 11  1  0
 11 12  2  0
 12 13  1  0
 13 14  2  0
 14 15  1  0
 15 16  2  0
  8 17  1  0
 17 18  2  0
 18 19  1  0
 19 20  2  0
 20 21  1  0
 21 22  2  0
 22 23  1  0
 23 24  2  0
 16  6  1  0
 22 17  1  0
 23  7  1  0
 16 11  1  0
  1 25  1  0
  1 26  1  0
  1 27  1  0
  2 28  1  0
  3 29  1  0
  3 30  1  0
  4 31  1  0
  4 32  1  0
  5 33  1  0
 10 34  1  0
 10 35  1  0
 10 36  1  0
 12 37  1  0
 13 38  1  0
 14 39  1  0
 15 40  1  0
 18 41  1  0
 19 42  1  0
 20 43  1  0
 21 44  1  0
M  CHG  2   9   1  18   1
M  END
>  <UniqueID>  (12) 
12

>  <SMILES>  (12) 
CNCCNc1c2c([n+](C)c3ccccc13)-c1[nH+]cccc1C2=O

>  <Energy>  (12) 
101.86652400143073

>  <Genealogy>  (12) 
CNCCNc1c2c([n+](C)c3ccccc13)-c1[nH+]cccc1C2=O (protonated)
CNCCNc1c2c([n+](C)c3ccccc13)-c1[nH+]cccc1C2=O (3D coordinates assigned)
CNCCNc1c2c([n+](C)c3ccccc13)-c1[nH+]cccc1C2=O (nonaromatic ring conformer: 101.86652400143073 kcal/mol)

>  <smiles>  (12) 
CNCCNc1c2c([n+](C)c3ccccc13)-c1ncccc1C2=O

>  <score_type>  (12) 
oracle

>  <origin>  (12) 
adg

>  <m_score__min__energy>  (12) 
-8.4000000000000004

>  <m_primary>  (12) 
energy

$$$$
12:0
     RDKit          3D

 50 52  0  0  0  0  0  0  0  0999 V2000
   -1.9530   26.0180  -25.6650 C   0  0  0  0  0  0  0  0  0  0  0  0
   -1.9140   25.0430  -26.8400 C   0  0  0  0  0  0  0  0  0  0  0  0
   -1.0730   25.5800  -28.0070 C   0  0  0  0  0  0  0  0  0  0  0  0
   -1.5810   25.1110  -29.3070 N   0  0  0  0  0  0  0  0  0  0  0  0
   -1.7500   23.6480  -29.3620 C   0  0  0  0  0  0  0  0  0  0  0  0
   -3.2340   23.3120  -29.5050 C   0  0  0  0  0  0  0  0  0  0  0  0
   -4.1160   24.5460  -29.2970 C   0  0  0  0  0  0  0  0  0  0  0  0
   -4.1410   25.3500  -30.5330 N   0  0  0  0  0  0  0  0  0  0  0  0
   -5.4690   25.3740  -31.1650 C   0  0  0  0  0  0  0  0  0  0  0  0
   -6.0330   23.9830  -31.3000 C   0  0  0  0  0  0  0  0  0  0  0  0
   -7.3170   23.6850  -30.8080 C   0  0  0  0  0  0  0  0  0  0  0  0
   -7.8620   22.4090  -30.9800 C   0  0  0  0  0  0  0  0  0  0  0  0
   -7.1350   21.4240  -31.6530 C   0  0  0  0  0  0  0  0  0  0  0  0
   -7.6600   20.1840  -31.8400 N   0  0  0  0  0  0  0  0  0  0  0  0
   -6.9660   19.2220  -32.5040 C   0  0  0  0  0  0  0  0  0  0  0  0
   -7.5170   17.9520  -32.6930 C   0  0  0  0  0  0  0  0  0  0  0  0
   -6.7940   16.9740  -33.3850 C   0  0  0  0  0  0  0  0  0  0  0  0
   -5.5210   17.2630  -33.9040 C   0  0  0  0  0  0  0  0  0  0  0  0
   -4.7340   16.2000  -34.6110 C   0  0  0  0  0  0  0  0  0  0  0  0
   -4.9610   18.5350  -33.6980 C   0  0  0  0  0  0  0  0  0  0  0  0
   -5.6810   19.5150  -33.0070 C   0  0  0  0  0  0  0  0  0  0  0  0
   -5.1550   20.7540  -32.8170 N   0  0  0  0  0  0  0  0  0  0  0  0
   -5.8490   21.7160  -32.1530 C   0  0  0  0  0  0  0  0  0  0  0  0
   -5.3000   22.9900  -31.9710 C   0  0  0  0  0  0  0  0  0  0  0  0
   -1.9305   25.4549  -24.7204 H   0  0  0  0  0  0  0  0  0  0  0  0
   -1.0809   26.6866  -25.7142 H   0  0  0  0  0  0  0  0  0  0  0  0
   -2.8757   26.6148  -25.7142 H   0  0  0  0  0  0  0  0  0  0  0  0
   -1.4798   24.0920  -26.4978 H   0  0  0  0  0  0  0  0  0  0  0  0
   -2.9441   24.9042  -27.1999 H   0  0  0  0  0  0  0  0  0  0  0  0
   -1.1004   26.6795  -27.9895 H   0  0  0  0  0  0  0  0  0  0  0  0
   -0.0445   25.2087  -27.8872 H   0  0  0  0  0  0  0  0  0  0  0  0
   -0.8830   25.3900  -30.0350 H   0  0  0  0  0  0  0  0  0  0  0  0
   -1.1984   23.2473  -30.2253 H   0  0  0  0  0  0  0  0  0  0  0  0
   -1.3596   23.1986  -28.4370 H   0  0  0  0  0  0  0  0  0  0  0  0
   -3.4133   22.9114  -30.5137 H   0  0  0  0  0  0  0  0  0  0  0  0
   -3.4938   22.5708  -28.7349 H   0  0  0  0  0  0  0  0  0  0  0  0
   -5.1386   24.2271  -29.0469 H   0  0  0  0  0  0  0  0  0  0  0  0
   -3.7080   25.1524  -28.4749 H   0  0  0  0  0  0  0  0  0  0  0  0
   -3.4800   24.9150  -31.2190 H   0  0  0  0  0  0  0  0  0  0  0  0
   -6.1494   25.9788  -30.5476 H   0  0  0  0  0  0  0  0  0  0  0  0
   -5.3686   25.8085  -32.1706 H   0  0  0  0  0  0  0  0  0  0  0  0
   -7.8956   24.4606  -30.2849 H   0  0  0  0  0  0  0  0  0  0  0  0
   -8.8631   22.1807  -30.5855 H   0  0  0  0  0  0  0  0  0  0  0  0
   -8.5176   17.7213  -32.2984 H   0  0  0  0  0  0  0  0  0  0  0  0
   -7.2255   15.9717  -33.5236 H   0  0  0  0  0  0  0  0  0  0  0  0
   -4.2507   15.5472  -33.8692 H   0  0  0  0  0  0  0  0  0  0  0  0
   -5.4089   15.6022  -35.2412 H   0  0  0  0  0  0  0  0  0  0  0  0
   -3.9652   16.6710  -35.2412 H   0  0  0  0  0  0  0  0  0  0  0  0
   -3.9547   18.7605  -34.0808 H   0  0  0  0  0  0  0  0  0  0  0  0
   -4.2934   23.2143  -32.3537 H   0  0  0  0  0  0  0  0  0  0  0  0
  1  2  1  0
  2  3  1  0
  3  4  1  0
  4  5  1  0
  5  6  1  0
  6  7  1  0
  7  8  1  0
  8  9  1  0
  9 10  1  0
 10 11  2  0
 11 12  1  0
 12 13  2  0
 13 14  1  0
 14 15  2  0
 15 16  1  0
 16 17  2  0
 17 18  1  0
 18 19  1  0
 18 20  2  0
 20 21  1  0
 21 22  2  0
 22 23  1  0
 23 24  2  0
 24 10  1  0
 23 13  1  0
 21 15  1  0
  1 25  1  0
  1 26  1  0
  1 27  1  0
  2 28  1  0
  2 29  1  0
  3 30  1  0
  3 31  1  0
  4 32  1  0
  5 33  1  0
  5 34  1  0
  6 35  1  0
  6 36  1  0
  7 37  1  0
  7 38  1  0
  8 39  1  0
  9 40  1  0
  9 41  1  0
 11 42  1  0
 12 43  1  0
 16 44  1  0
 17 45  1  0
 19 46  1  0
 19 47  1  0
 19 48  1  0
 20 49  1  0
 24 50  1  0
M  END
>  <UniqueID>  (13) 
13

>  <SMILES>  (13) 
CCCNCCCNCc1ccc2nc3ccc(C)cc3nc2c1

>  <Energy>  (13) 
45.55269148291017

>  <Genealogy>  (13) 
CCCNCCCNCc1ccc2nc3ccc(C)cc3nc2c1 (3D coordinates assigned)
CCCNCCCNCc1ccc2nc3ccc(C)cc3nc2c1 (optimized conformer: 45.55269148291017 kcal/mol)

>  <smiles>  (13) 
CCCNCCCNCc1ccc2nc3ccc(C)cc3nc2c1

>  <score_type>  (13) 
oracle

>  <origin>  (13) 
adg

>  <m_score__min__energy>  (13) 
-9.2899999999999991

>  <m_primary>  (13) 
energy

$$$$
13:0
     RDKit          3D

 40 42  0  0  0  0  0  0  0  0999 V2000
   -3.5400   22.2910  -27.9600 C   0  0  0  0  0  0  0  0  0  0  0  0
   -3.6990   23.6580  -27.2850 C   0  0  0  0  0  0  0  0  0  0  0  0
   -4.6270   24.5420  -28.0130 N   0  0  0  0  0  0  0  0  0  0  0  0
   -4.2910   24.6430  -29.4450 C   0  0  0  0  0  0  0  0  0  0  0  0
   -5.5520   24.8240  -30.2990 C   0  0  0  0  0  0  0  0  0  0  0  0
   -6.6470   23.9950  -29.7760 N   0  0  0  0  0  0  0  0  0  0  0  0
   -7.6010   23.6410  -30.8350 C   0  0  0  0  0  0  0  0  0  0  0  0
   -7.1770   22.3690  -31.5190 C   0  0  0  0  0  0  0  0  0  0  0  0
   -5.9720   22.3130  -32.2590 C   0  0  0  0  0  0  0  0  0  0  0  0
   -5.5770   21.1510  -32.8570 N   0  0  0  0  0  0  0  0  0  0  0  0
   -6.3400   20.0340  -32.7450 C   0  0  0  0  0  0  0  0  0  0  0  0
   -7.5260   20.0510  -32.0270 C   0  0  0  0  0  0  0  0  0  0  0  0
   -7.9680   21.2100  -31.4020 C   0  0  0  0  0  0  0  0  0  0  0  0
   -8.2490   18.5250  -32.0580 S   0  0  0  0  0  0  0  0  0  0  0  0
   -7.0270   17.8360  -33.0050 C   0  0  0  0  0  0  0  0  0  0  0  0
   -6.9350   16.5250  -33.4620 C   0  0  0  0  0  0  0  0  0  0  0  0
   -5.8230   16.1670  -34.2400 C   0  0  0  0  0  0  0  0  0  0  0  0
   -4.8300   17.1200  -34.5450 C   0  0  0  0  0  0  0  0  0  0  0  0
   -4.9400   18.4400  -34.0750 C   0  0  0  0  0  0  0  0  0  0  0  0
   -6.0520   18.7860  -33.3020 C   0  0  0  0  0  0  0  0  0  0  0  0
   -3.4492   21.5104  -27.1903 H   0  0  0  0  0  0  0  0  0  0  0  0
   -4.4205   22.0871  -28.5870 H   0  0  0  0  0  0  0  0  0  0  0  0
   -2.6362   22.2946  -28.5870 H   0  0  0  0  0  0  0  0  0  0  0  0
   -4.0834   23.5056  -26.2657 H   0  0  0  0  0  0  0  0  0  0  0  0
   -2.7120   24.1436  -27.2764 H   0  0  0  0  0  0  0  0  0  0  0  0
   -4.5630   25.4930  -27.5800 H   0  0  0  0  0  0  0  0  0  0  0  0
   -5.6110   24.1990  -27.8990 H   0  0  0  0  0  0  0  0  0  0  0  0
   -3.6272   25.5067  -29.5978 H   0  0  0  0  0  0  0  0  0  0  0  0
   -3.7927   23.7118  -29.7524 H   0  0  0  0  0  0  0  0  0  0  0  0
   -5.8556   25.8811  -30.2780 H   0  0  0  0  0  0  0  0  0  0  0  0
   -5.3317   24.5150  -31.3315 H   0  0  0  0  0  0  0  0  0  0  0  0
   -7.1620   24.5600  -29.0610 H   0  0  0  0  0  0  0  0  0  0  0  0
   -8.5980   23.4996  -30.3923 H   0  0  0  0  0  0  0  0  0  0  0  0
   -7.6286   24.4530  -31.5766 H   0  0  0  0  0  0  0  0  0  0  0  0
   -5.3479   23.2139  -32.3532 H   0  0  0  0  0  0  0  0  0  0  0  0
   -8.9088   21.2221  -30.8321 H   0  0  0  0  0  0  0  0  0  0  0  0
   -7.7143   15.7875  -33.2196 H   0  0  0  0  0  0  0  0  0  0  0  0
   -5.7258   15.1370  -34.6138 H   0  0  0  0  0  0  0  0  0  0  0  0
   -3.9626   16.8284  -35.1554 H   0  0  0  0  0  0  0  0  0  0  0  0
   -4.1666   19.1858  -34.3107 H   0  0  0  0  0  0  0  0  0  0  0  0
  1  2  1  0
  2  3  1  0
  3  4  1  0
  4  5  1  0
  5  6  1  0
  6  7  1  0
  7  8  1  0
  8  9  2  0
  9 10  1  0
 10 11  2  0
 11 12  1  0
 12 13  2  0
 12 14  1  0
 14 15  1  0
 15 16  2  0
 16 17  1  0
 17 18  2  0
 18 19  1  0
 19 20  2  0
 13  8  1  0
 20 15  1  0
 20 11  1  0
  1 21  1  0
  1 22  1  0
  1 23  1  0
  2 24  1  0
  2 25  1  0
  3 26  1  0
  3 27  1  0
  4 28  1  0
  4 29  1  0
  5 30  1  0
  5 31  1  0
  6 32  1  0
  7 33  1  0
  7 34  1  0
  9 35  1  0
 13 36  1  0
 16 37  1  0
 17 38  1  0
 18 39  1  0
 19 40  1  0
M  CHG  1   3   1
M  END
>  <UniqueID>  (14) 
14

>  <SMILES>  (14) 
CC[NH2+]CCNCc1cnc2c(c1)sc1ccccc12

>  <Energy>  (14) 
73.57856551989863

>  <Genealogy>  (14) 
CC[NH2+]CCNCc1cnc2c(c1)sc1ccccc12 (protonated)
CC[NH2+]CCNCc1cnc2c(c1)sc1ccccc12 (3D coordinates assigned)
CC[NH2+]CCNCc1cnc2c(c1)sc1ccccc12 (optimized conformer: 73.57856551989863 kcal/mol)

>  <smiles>  (14) 
CCNCCNCc1cnc2c(c1)sc1ccccc12

>  <score_type>  (14) 
oracle

>  <origin>  (14) 
adg

>  <m_score__min__energy>  (14) 
-7.2599999999999998

>  <m_primary>  (14) 
energy

$$$$
14:0
     RDKit          3D

 70 72  0  0  0  0  0  0  0  0999 V2000
   -3.8700   17.0330  -35.4260 C   0  0  0  0  0  0  0  0  0  0  0  0
   -4.0320   16.9320  -34.2360 C   0  0  0  0  0  0  0  0  0  0  0  0
   -4.2480   16.8200  -32.7950 C   0  0  0  0  0  0  0  0  0  0  0  0
   -4.6000   18.0940  -32.2540 O   0  0  0  0  0  0  0  0  0  0  0  0
   -5.8810   18.6710  -32.3260 C   0  0  0  0  0  0  0  0  0  0  0  0
   -6.9680   17.8780  -32.7390 C   0  0  0  0  0  0  0  0  0  0  0  0
   -8.2600   18.3660  -32.7020 C   0  0  0  0  0  0  0  0  0  0  0  0
   -8.5110   19.6260  -32.1870 C   0  0  0  0  0  0  0  0  0  0  0  0
   -7.4600   20.4560  -31.7290 C   0  0  0  0  0  0  0  0  0  0  0  0
   -6.1090   20.0320  -31.9290 C   0  0  0  0  0  0  0  0  0  0  0  0
   -5.0620   20.9890  -31.7240 C   0  0  0  0  0  0  0  0  0  0  0  0
   -3.6860   20.7040  -32.1050 N   0  0  0  0  0  0  0  0  0  0  0  0
   -3.3800   21.2930  -33.4210 C   0  0  0  0  0  0  0  0  0  0  0  0
   -2.3220   20.4650  -34.1600 C   0  0  0  0  0  0  0  0  0  0  0  0
   -0.6360   21.1270  -33.8940 S   0  0  0  0  0  0  0  0  0  0  0  0
    0.0910   19.6610  -33.0760 C   0  0  0  0  0  0  0  0  0  0  0  0
   -1.0170   18.8020  -32.4770 C   0  0  0  0  0  0  0  0  0  0  0  0
   -1.5140   19.4320  -31.3140 O   0  0  0  0  0  0  0  0  0  0  0  0
   -0.5580   19.3770  -30.2690 C   0  0  0  0  0  0  0  0  0  0  0  0
   -0.8380   20.4490  -29.2090 C   0  0  0  0  0  0  0  0  0  0  0  0
   -1.9060   21.3680  -29.6670 N   0  0  0  0  0  0  0  0  0  0  0  0
   -1.3470   22.6720  -30.0870 C   0  0  0  0  0  0  0  0  0  0  0  0
   -1.6340   23.7420  -29.0370 C   0  0  0  0  0  0  0  0  0  0  0  0
   -2.9450   21.5480  -28.6270 C   0  0  0  0  0  0  0  0  0  0  0  0
   -2.7670   20.5100  -27.5230 C   0  0  0  0  0  0  0  0  0  0  0  0
   -5.3980   22.2850  -31.2320 C   0  0  0  0  0  0  0  0  0  0  0  0
   -4.4080   23.2750  -30.9920 C   0  0  0  0  0  0  0  0  0  0  0  0
   -4.7520   24.5540  -30.5660 C   0  0  0  0  0  0  0  0  0  0  0  0
   -6.0830   24.8900  -30.3780 C   0  0  0  0  0  0  0  0  0  0  0  0
   -7.0740   23.9380  -30.5790 C   0  0  0  0  0  0  0  0  0  0  0  0
   -6.7550   22.6090  -30.9680 C   0  0  0  0  0  0  0  0  0  0  0  0
   -7.7380   21.6570  -31.1150 N   0  0  0  0  0  0  0  0  0  0  0  0
   -9.0900   21.9030  -30.5570 C   0  0  0  0  0  0  0  0  0  0  0  0
   -3.7221   17.1252  -36.5121 H   0  0  0  0  0  0  0  0  0  0  0  0
   -5.0617   16.1052  -32.6030 H   0  0  0  0  0  0  0  0  0  0  0  0
   -3.3219   16.4678  -32.3171 H   0  0  0  0  0  0  0  0  0  0  0  0
   -6.7860   16.8538  -33.0968 H   0  0  0  0  0  0  0  0  0  0  0  0
   -9.0901   17.7525  -33.0822 H   0  0  0  0  0  0  0  0  0  0  0  0
   -9.5478   19.9895  -32.1326 H   0  0  0  0  0  0  0  0  0  0  0  0
   -3.0070   21.0120  -31.3780 H   0  0  0  0  0  0  0  0  0  0  0  0
   -3.5210   19.6740  -32.1230 H   0  0  0  0  0  0  0  0  0  0  0  0
   -4.2993   21.3232  -34.0243 H   0  0  0  0  0  0  0  0  0  0  0  0
   -2.9865   22.3087  -33.2678 H   0  0  0  0  0  0  0  0  0  0  0  0
   -2.3600   19.4288  -33.7929 H   0  0  0  0  0  0  0  0  0  0  0  0
   -2.5420   20.5103  -35.2368 H   0  0  0  0  0  0  0  0  0  0  0  0
    0.6516   19.0705  -33.8156 H   0  0  0  0  0  0  0  0  0  0  0  0
    0.7687   19.9907  -32.2747 H   0  0  0  0  0  0  0  0  0  0  0  0
   -1.8298   18.6865  -33.2091 H   0  0  0  0  0  0  0  0  0  0  0  0
   -0.6178   17.8100  -32.2188 H   0  0  0  0  0  0  0  0  0  0  0  0
   -0.5990   18.3846  -29.7962 H   0  0  0  0  0  0  0  0  0  0  0  0
    0.4387   19.5600  -30.6968 H   0  0  0  0  0  0  0  0  0  0  0  0
   -1.1566   19.9607  -28.2762 H   0  0  0  0  0  0  0  0  0  0  0  0
    0.0810   21.0293  -29.0398 H   0  0  0  0  0  0  0  0  0  0  0  0
   -0.2589   22.5744  -30.2159 H   0  0  0  0  0  0  0  0  0  0  0  0
   -1.8169   22.9706  -31.0357 H   0  0  0  0  0  0  0  0  0  0  0  0
   -1.5181   23.3100  -28.0321 H   0  0  0  0  0  0  0  0  0  0  0  0
   -0.9279   24.5763  -29.1611 H   0  0  0  0  0  0  0  0  0  0  0  0
   -2.6628   24.1109  -29.1611 H   0  0  0  0  0  0  0  0  0  0  0  0
   -2.8575   22.5562  -28.1960 H   0  0  0  0  0  0  0  0  0  0  0  0
   -3.9376   21.4211  -29.0839 H   0  0  0  0  0  0  0  0  0  0  0  0
   -2.8511   21.0002  -26.5418 H   0  0  0  0  0  0  0  0  0  0  0  0
   -3.5460   19.7389  -27.6156 H   0  0  0  0  0  0  0  0  0  0  0  0
   -1.7756   20.0425  -27.6156 H   0  0  0  0  0  0  0  0  0  0  0  0
   -3.3478   23.0253  -31.1461 H   0  0  0  0  0  0  0  0  0  0  0  0
   -3.9657   25.3000  -30.3781 H   0  0  0  0  0  0  0  0  0  0  0  0
   -6.3547   25.9104  -30.0697 H   0  0  0  0  0  0  0  0  0  0  0  0
   -8.1277   24.2186  -30.4341 H   0  0  0  0  0  0  0  0  0  0  0  0
   -9.0404   21.8940  -29.4582 H   0  0  0  0  0  0  0  0  0  0  0  0
   -9.4554   22.8824  -30.8995 H   0  0  0  0  0  0  0  0  0  0  0  0
   -9.7770   21.1151  -30.8995 H   0  0  0  0  0  0  0  0  0  0  0  0
  1  2  3  0
  2  3  1  0
  3  4  1  0
  4  5  1  0
  5  6  2  0
  6  7  1  0
  7  8  2  0
  8  9  1  0
  9 10  2  0
 10 11  1  0
 11 12  1  0
 12 13  1  0
 13 14  1  0
 14 15  1  0
 15 16  1  0
 16 17  1  0
 17 18  1  0
 18 19  1  0
 19 20  1  0
 20 21  1  0
 21 22  1  0
 22 23  1  0
 21 24  1  0
 24 25  1  0
 11 26  2  0
 26 27  1  0
 27 28  2  0
 28 29  1  0
 29 30  2  0
 30 31  1  0
 31 32  2  0
 32 33  1  0
 10  5  1  0
 31 26  1  0
 32  9  1  0
  1 34  1  0
  3 35  1  0
  3 36  1  0
  6 37  1  0
  7 38  1  0
  8 39  1  0
 12 40  1  0
 12 41  1  0
 13 42  1  0
 13 43  1  0
 14 44  1  0
 14 45  1  0
 16 46  1  0
 16 47  1  0
 17 48  1  0
 17 49  1  0
 19 50  1  0
 19 51  1  0
 20 52  1  0
 20 53  1  0
 22 54  1  0
 22 55  1  0
 23 56  1  0
 23 57  1  0
 23 58  1  0
 24 59  1  0
 24 60  1  0
 25 61  1  0
 25 62  1  0
 25 63  1  0
 27 64  1  0
 28 65  1  0
 29 66  1  0
 30 67  1  0
 33 68  1  0
 33 69  1  0
 33 70  1  0
M  CHG  2  12   1  32   1
M  END
>  <UniqueID>  (15) 
15

>  <SMILES>  (15) 
C#CCOc1cccc2c1c([NH2+]CCSCCOCCN(CC)CC)c1ccccc1[n+]2C

>  <Energy>  (15) 
90.8024940997484

>  <Genealogy>  (15) 
C#CCOc1cccc2c1c([NH2+]CCSCCOCCN(CC)CC)c1ccccc1[n+]2C (protonated)
C#CCOc1cccc2c1c([NH2+]CCSCCOCCN(CC)CC)c1ccccc1[n+]2C (3D coordinates assigned)
C#CCOc1cccc2c1c([NH2+]CCSCCOCCN(CC)CC)c1ccccc1[n+]2C (optimized conformer: 90.8024940997484 kcal/mol)

>  <smiles>  (15) 
C#CCOc1cccc2c1c(NCCSCCOCCN(CC)CC)c1ccccc1[n+]2C

>  <score_type>  (15) 
oracle

>  <origin>  (15) 
adg

>  <m_score__min__energy>  (15) 
-7.9800000000000004

>  <m_primary>  (15) 
energy

$$$$
15:0
     RDKit          3D

 57 59  0  0  0  0  0  0  0  0999 V2000
   -2.4650   25.3370  -26.0630 C   0  0  0  0  0  0  0  0  0  0  0  0
   -3.0160   24.3790  -27.1230 C   0  0  0  0  0  0  0  0  0  0  0  0
   -4.4340   24.6390  -27.4360 N   0  0  0  0  0  0  0  0  0  0  0  0
   -4.8280   24.0870  -28.7450 C   0  0  0  0  0  0  0  0  0  0  0  0
   -5.8880   24.9560  -29.4410 C   0  0  0  0  0  0  0  0  0  0  0  0
   -6.0750   24.5870  -30.9210 C   0  0  0  0  0  0  0  0  0  0  0  0
   -5.0890   23.5020  -31.3690 C   0  0  0  0  0  0  0  0  0  0  0  0
   -5.5670   22.8080  -32.5640 N   0  0  0  0  0  0  0  0  0  0  0  0
   -5.5470   21.3740  -32.6220 C   0  0  0  0  0  0  0  0  0  0  0  0
   -6.6720   20.6380  -32.2270 C   0  0  0  0  0  0  0  0  0  0  0  0
   -6.6310   19.2320  -32.2440 C   0  0  0  0  0  0  0  0  0  0  0  0
   -5.5340   18.5630  -32.7590 N   0  0  0  0  0  0  0  0  0  0  0  0
   -5.6060   17.1000  -32.9850 C   0  0  0  0  0  0  0  0  0  0  0  0
   -6.4740   16.7710  -34.2000 C   0  0  0  0  0  0  0  0  0  0  0  0
   -4.3900   19.2740  -33.0930 C   0  0  0  0  0  0  0  0  0  0  0  0
   -3.1820   18.6260  -33.4660 C   0  0  0  0  0  0  0  0  0  0  0  0
   -2.0470   19.3580  -33.8150 C   0  0  0  0  0  0  0  0  0  0  0  0
   -2.0720   20.7460  -33.7890 C   0  0  0  0  0  0  0  0  0  0  0  0
   -3.2300   21.4140  -33.4010 C   0  0  0  0  0  0  0  0  0  0  0  0
   -4.3920   20.6960  -33.0450 C   0  0  0  0  0  0  0  0  0  0  0  0
   -7.8200   18.5340  -31.5930 C   0  0  0  0  0  0  0  0  0  0  0  0
   -9.1470   19.0680  -32.1530 C   0  0  0  0  0  0  0  0  0  0  0  0
   -9.1760   20.6040  -32.3380 C   0  0  0  0  0  0  0  0  0  0  0  0
   -7.9440   21.3190  -31.7640 C   0  0  0  0  0  0  0  0  0  0  0  0
   -2.6910   24.9441  -25.0607 H   0  0  0  0  0  0  0  0  0  0  0  0
   -1.3756   25.4297  -26.1834 H   0  0  0  0  0  0  0  0  0  0  0  0
   -2.9327   26.3253  -26.1834 H   0  0  0  0  0  0  0  0  0  0  0  0
   -2.4247   24.4933  -28.0435 H   0  0  0  0  0  0  0  0  0  0  0  0
   -2.9440   23.3577  -26.7207 H   0  0  0  0  0  0  0  0  0  0  0  0
   -4.6070   25.6710  -27.4140 H   0  0  0  0  0  0  0  0  0  0  0  0
   -5.0110   24.1920  -26.6860 H   0  0  0  0  0  0  0  0  0  0  0  0
   -3.9378   24.0292  -29.3886 H   0  0  0  0  0  0  0  0  0  0  0  0
   -5.2626   23.0906  -28.5767 H   0  0  0  0  0  0  0  0  0  0  0  0
   -6.8483   24.8245  -28.9210 H   0  0  0  0  0  0  0  0  0  0  0  0
   -5.5436   25.9998  -29.3986 H   0  0  0  0  0  0  0  0  0  0  0  0
   -7.1008   24.2182  -31.0686 H   0  0  0  0  0  0  0  0  0  0  0  0
   -5.8869   25.4881  -31.5232 H   0  0  0  0  0  0  0  0  0  0  0  0
   -4.1184   23.9698  -31.5908 H   0  0  0  0  0  0  0  0  0  0  0  0
   -4.9910   22.7664  -30.5571 H   0  0  0  0  0  0  0  0  0  0  0  0
   -5.6330   23.3320  -33.4660 H   0  0  0  0  0  0  0  0  0  0  0  0
   -4.5905   16.7125  -33.1539 H   0  0  0  0  0  0  0  0  0  0  0  0
   -6.0568   16.6319  -32.0975 H   0  0  0  0  0  0  0  0  0  0  0  0
   -7.4528   16.4000  -33.8617 H   0  0  0  0  0  0  0  0  0  0  0  0
   -6.6152   17.6780  -34.8062 H   0  0  0  0  0  0  0  0  0  0  0  0
   -5.9785   15.9983  -34.8062 H   0  0  0  0  0  0  0  0  0  0  0  0
   -3.1409   17.5269  -33.4799 H   0  0  0  0  0  0  0  0  0  0  0  0
   -1.1273   18.8328  -34.1124 H   0  0  0  0  0  0  0  0  0  0  0  0
   -1.1768   21.3177  -34.0750 H   0  0  0  0  0  0  0  0  0  0  0  0
   -3.2397   22.5136  -33.3715 H   0  0  0  0  0  0  0  0  0  0  0  0
   -7.7551   17.4538  -31.7905 H   0  0  0  0  0  0  0  0  0  0  0  0
   -7.7921   18.7307  -30.5111 H   0  0  0  0  0  0  0  0  0  0  0  0
   -9.3243   18.5978  -33.1315 H   0  0  0  0  0  0  0  0  0  0  0  0
   -9.9269   18.8199  -31.4180 H   0  0  0  0  0  0  0  0  0  0  0  0
   -9.2343   20.8230  -33.4144 H   0  0  0  0  0  0  0  0  0  0  0  0
  -10.0506   20.9776  -31.7853 H   0  0  0  0  0  0  0  0  0  0  0  0
   -7.9401   22.3645  -32.1060 H   0  0  0  0  0  0  0  0  0  0  0  0
   -7.9892   21.2797  -30.6656 H   0  0  0  0  0  0  0  0  0  0  0  0
  1  2  1  0
  2  3  1  0
  3  4  1  0
  4  5  1  0
  5  6  1  0
  6  7  1  0
  7  8  1  0
  8  9  1  0
  9 10  2  0
 10 11  1  0
 11 12  2  0
 12 13  1  0
 13 14  1  0
 12 15  1  0
 15 16  2  0
 16 17  1  0
 17 18  2  0
 18 19  1  0
 19 20  2  0
 11 21  1  0
 21 22  1  0
 22 23  1  0
 23 24  1  0
 20  9  1  0
 24 10  1  0
 20 15  1  0
  1 25  1  0
  1 26  1  0
  1 27  1  0
  2 28  1  0
  2 29  1  0
  3 30  1  0
  3 31  1  0
  4 32  1  0
  4 33  1  0
  5 34  1  0
  5 35  1  0
  6 36  1  0
  6 37  1  0
  7 38  1  0
  7 39  1  0
  8 40  1  0
 13 41  1  0
 13 42  1  0
 14 43  1  0
 14 44  1  0
 14 45  1  0
 16 46  1  0
 17 47  1  0
 18 48  1  0
 19 49  1  0
 21 50  1  0
 21 51  1  0
 22 52  1  0
 22 53  1  0
 23 54  1  0
 23 55  1  0
 24 56  1  0
 24 57  1  0
M  CHG  2   3   1  12   1
M  END
>  <UniqueID>  (16) 
16

>  <SMILES>  (16) 
CC[NH2+]CCCCNc1c2c([n+](CC)c3ccccc13)CCCC2

>  <Energy>  (16) 
74.20358640679255

>  <Genealogy>  (16) 
CC[NH2+]CCCCNc1c2c([n+](CC)c3ccccc13)CCCC2 (protonated)
CC[NH2+]CCCCNc1c2c([n+](CC)c3ccccc13)CCCC2 (3D coordinates assigned)
CC[NH2+]CCCCNc1c2c([n+](CC)c3ccccc13)CCCC2 (nonaromatic ring conformer: 74.20358640679255 kcal/mol)

>  <smiles>  (16) 
CCNCCCCNc1c2c([n+](CC)c3ccccc13)CCCC2

>  <score_type>  (16) 
oracle

>  <origin>  (16) 
adg

>  <m_score__min__energy>  (16) 
-8.0600000000000005

>  <m_primary>  (16) 
energy

$$$$
16:0
     RDKit          3D

 58 60  0  0  0  0  0  0  0  0999 V2000
   -1.9590   19.2890  -32.8400 C   0  0  0  0  0  0  0  0  0  0  0  0
   -2.9620   19.1290  -33.9830 C   0  0  0  0  0  0  0  0  0  0  0  0
   -3.8410   17.9570  -33.8060 N   0  0  0  0  0  0  0  0  0  0  0  0
   -5.1370   18.3150  -33.2630 C   0  0  0  0  0  0  0  0  0  0  0  0
   -5.3490   19.6400  -32.8260 C   0  0  0  0  0  0  0  0  0  0  0  0
   -6.6000   20.0620  -32.3450 C   0  0  0  0  0  0  0  0  0  0  0  0
   -6.7950   21.4200  -31.8920 N   0  0  0  0  0  0  0  0  0  0  0  0
   -7.7240   21.7190  -30.7960 C   0  0  0  0  0  0  0  0  0  0  0  0
   -7.2720   22.9840  -30.0570 C   0  0  0  0  0  0  0  0  0  0  0  0
   -7.1650   24.1670  -30.9530 N   0  0  0  0  0  0  0  0  0  0  0  0
   -6.2010   25.1620  -30.4310 C   0  0  0  0  0  0  0  0  0  0  0  0
   -5.1130   24.4970  -29.5840 C   0  0  0  0  0  0  0  0  0  0  0  0
   -3.8920   24.4700  -30.3180 O   0  0  0  0  0  0  0  0  0  0  0  0
   -2.7310   23.7500  -29.9810 C   0  0  0  0  0  0  0  0  0  0  0  0
   -2.7150   22.3900  -30.3220 C   0  0  0  0  0  0  0  0  0  0  0  0
   -1.6080   21.5910  -30.0330 C   0  0  0  0  0  0  0  0  0  0  0  0
   -0.4990   22.1420  -29.3980 C   0  0  0  0  0  0  0  0  0  0  0  0
   -0.4920   23.4930  -29.0470 C   0  0  0  0  0  0  0  0  0  0  0  0
   -1.6020   24.3170  -29.3300 C   0  0  0  0  0  0  0  0  0  0  0  0
   -1.5990   25.6760  -28.9790 O   0  0  0  0  0  0  0  0  0  0  0  0
   -1.1370   26.1980  -27.7380 C   0  0  0  0  0  0  0  0  0  0  0  0
   -6.8850   23.8340  -32.3740 C   0  0  0  0  0  0  0  0  0  0  0  0
   -6.0880   22.5320  -32.5400 C   0  0  0  0  0  0  0  0  0  0  0  0
   -7.6600   19.1440  -32.3210 C   0  0  0  0  0  0  0  0  0  0  0  0
   -7.4760   17.8370  -32.7700 C   0  0  0  0  0  0  0  0  0  0  0  0
   -6.2270   17.4020  -33.2360 C   0  0  0  0  0  0  0  0  0  0  0  0
   -6.1060   16.0510  -33.7060 N   0  0  0  0  0  0  0  0  0  0  0  0
   -7.1260   15.3880  -33.9860 O   0  0  0  0  0  0  0  0  0  0  0  0
   -4.8780   15.5770  -34.1040 O   0  0  0  0  0  0  0  0  0  0  0  0
   -2.4840   19.2052  -31.8770 H   0  0  0  0  0  0  0  0  0  0  0  0
   -1.1942   18.5015  -32.9104 H   0  0  0  0  0  0  0  0  0  0  0  0
   -1.4772   20.2754  -32.9104 H   0  0  0  0  0  0  0  0  0  0  0  0
   -3.5863   20.0333  -34.0332 H   0  0  0  0  0  0  0  0  0  0  0  0
   -2.3896   18.9795  -34.9104 H   0  0  0  0  0  0  0  0  0  0  0  0
   -3.9960   17.5260  -34.7480 H   0  0  0  0  0  0  0  0  0  0  0  0
   -3.3550   17.2300  -33.2370 H   0  0  0  0  0  0  0  0  0  0  0  0
   -4.5166   20.3582  -32.8627 H   0  0  0  0  0  0  0  0  0  0  0  0
   -8.7324   21.8771  -31.2059 H   0  0  0  0  0  0  0  0  0  0  0  0
   -7.7362   20.8740  -30.0919 H   0  0  0  0  0  0  0  0  0  0  0  0
   -8.0014   23.2079  -29.2646 H   0  0  0  0  0  0  0  0  0  0  0  0
   -6.2708   22.7879  -29.6458 H   0  0  0  0  0  0  0  0  0  0  0  0
   -5.7279   25.6802  -31.2782 H   0  0  0  0  0  0  0  0  0  0  0  0
   -6.7485   25.8725  -29.7943 H   0  0  0  0  0  0  0  0  0  0  0  0
   -4.9703   25.0688  -28.6552 H   0  0  0  0  0  0  0  0  0  0  0  0
   -5.4164   23.4688  -29.3377 H   0  0  0  0  0  0  0  0  0  0  0  0
   -3.5874   21.9467  -30.8244 H   0  0  0  0  0  0  0  0  0  0  0  0
   -1.6120   20.5257  -30.3071 H   0  0  0  0  0  0  0  0  0  0  0  0
    0.3738   21.5117  -29.1722 H   0  0  0  0  0  0  0  0  0  0  0  0
    0.3884   23.9199  -28.5443 H   0  0  0  0  0  0  0  0  0  0  0  0
   -1.6173   25.6554  -26.9104 H   0  0  0  0  0  0  0  0  0  0  0  0
   -0.0458   26.0758  -27.6723 H   0  0  0  0  0  0  0  0  0  0  0  0
   -1.3909   27.2663  -27.6723 H   0  0  0  0  0  0  0  0  0  0  0  0
   -7.8428   23.7286  -32.9045 H   0  0  0  0  0  0  0  0  0  0  0  0
   -6.2733   24.6490  -32.7883 H   0  0  0  0  0  0  0  0  0  0  0  0
   -5.9694   22.3124  -33.6113 H   0  0  0  0  0  0  0  0  0  0  0  0
   -5.1006   22.6526  -32.0704 H   0  0  0  0  0  0  0  0  0  0  0  0
   -8.6449   19.4578  -31.9447 H   0  0  0  0  0  0  0  0  0  0  0  0
   -8.3237   17.1361  -32.7585 H   0  0  0  0  0  0  0  0  0  0  0  0
  1  2  1  0
  2  3  1  0
  3  4  1  0
  4  5  2  0
  5  6  1  0
  6  7  1  0
  7  8  1  0
  8  9  1  0
  9 10  1  0
 10 11  1  0
 11 12  1  0
 12 13  1  0
 13 14  1  0
 14 15  2  0
 15 16  1  0
 16 17  2  0
 17 18  1  0
 18 19  2  0
 19 20  1  0
 20 21  1  0
 10 22  1  0
 22 23  1  0
  6 24  2  0
 24 25  1  0
 25 26  2  0
 26 27  1  0
 27 28  2  0
 27 29  1  0
 26  4  1  0
 23  7  1  0
 19 14  1  0
  1 30  1  0
  1 31  1  0
  1 32  1  0
  2 33  1  0
  2 34  1  0
  3 35  1  0
  3 36  1  0
  5 37  1  0
  8 38  1  0
  8 39  1  0
  9 40  1  0
  9 41  1  0
 11 42  1  0
 11 43  1  0
 12 44  1  0
 12 45  1  0
 15 46  1  0
 16 47  1  0
 17 48  1  0
 18 49  1  0
 21 50  1  0
 21 51  1  0
 21 52  1  0
 22 53  1  0
 22 54  1  0
 23 55  1  0
 23 56  1  0
 24 57  1  0
 25 58  1  0
M  CHG  3   3   1  27   1  29  -1
M  END
>  <UniqueID>  (17) 
17

>  <SMILES>  (17) 
CC[NH2+]c1cc(N2CCN(CCOc3ccccc3OC)CC2)ccc1[N+](=O)[O-]

>  <Energy>  (17) 
76.89573049837318

>  <Genealogy>  (17) 
CC[NH2+]c1cc(N2CCN(CCOc3ccccc3OC)CC2)ccc1[N+](=O)[O-] (protonated)
CC[NH2+]c1cc(N2CCN(CCOc3ccccc3OC)CC2)ccc1[N+](=O)[O-] (3D coordinates assigned)
CC[NH2+]c1cc(N2CCN(CCOc3ccccc3OC)CC2)ccc1[N+](=O)[O-] (nonaromatic ring conformer: 76.89573049837318 kcal/mol)

>  <smiles>  (17) 
CCNc1cc(N2CCN(CCOc3ccccc3OC)CC2)ccc1[N+](=O)[O-]

>  <score_type>  (17) 
oracle

>  <origin>  (17) 
adg

>  <m_score__min__energy>  (17) 
-8.8399999999999999

>  <m_primary>  (17) 
energy

$$$$
17:0
     RDKit          3D

 43 45  0  0  0  0  0  0  0  0999 V2000
   -4.9140   25.1640  -30.3790 C   0  0  0  0  0  0  0  0  0  0  0  0
   -3.5080   24.9770  -30.2550 O   0  0  0  0  0  0  0  0  0  0  0  0
   -2.8810   24.2990  -29.1970 C   0  0  0  0  0  0  0  0  0  0  0  0
   -2.3520   24.9910  -28.0890 C   0  0  0  0  0  0  0  0  0  0  0  0
   -1.7490   24.2930  -27.0400 C   0  0  0  0  0  0  0  0  0  0  0  0
   -1.6680   22.9020  -27.0790 C   0  0  0  0  0  0  0  0  0  0  0  0
   -2.1840   22.2030  -28.1710 C   0  0  0  0  0  0  0  0  0  0  0  0
   -2.7830   22.8900  -29.2420 C   0  0  0  0  0  0  0  0  0  0  0  0
   -3.3150   22.1000  -30.4220 C   0  0  0  0  0  0  0  0  0  0  0  0
   -2.8810   22.6560  -31.7160 N   0  0  0  0  0  0  0  0  0  0  0  0
   -3.4070   21.9180  -32.8750 C   0  0  0  0  0  0  0  0  0  0  0  0
   -4.8890   21.6120  -32.7220 C   0  0  0  0  0  0  0  0  0  0  0  0
   -5.7260   22.6770  -32.3680 C   0  0  0  0  0  0  0  0  0  0  0  0
   -7.0750   22.4660  -32.1310 C   0  0  0  0  0  0  0  0  0  0  0  0
   -7.8060   23.4450  -31.8170 O   0  0  0  0  0  0  0  0  0  0  0  0
   -7.6010   21.1720  -32.2240 C   0  0  0  0  0  0  0  0  0  0  0  0
   -8.9590   20.9260  -31.9390 C   0  0  0  0  0  0  0  0  0  0  0  0
   -9.4710   19.6320  -32.0030 C   0  0  0  0  0  0  0  0  0  0  0  0
   -8.6410   18.5690  -32.3450 C   0  0  0  0  0  0  0  0  0  0  0  0
   -7.2940   18.7920  -32.6370 C   0  0  0  0  0  0  0  0  0  0  0  0
   -6.7460   20.1000  -32.6040 C   0  0  0  0  0  0  0  0  0  0  0  0
   -5.4170   20.3480  -32.9140 N   0  0  0  0  0  0  0  0  0  0  0  0
   -4.5710   19.2530  -33.4370 C   0  0  0  0  0  0  0  0  0  0  0  0
   -5.3656   25.2241  -29.3778 H   0  0  0  0  0  0  0  0  0  0  0  0
   -5.1129   26.0965  -30.9275 H   0  0  0  0  0  0  0  0  0  0  0  0
   -5.3497   24.3159  -30.9275 H   0  0  0  0  0  0  0  0  0  0  0  0
   -2.4144   26.0885  -28.0500 H   0  0  0  0  0  0  0  0  0  0  0  0
   -1.3369   24.8425  -26.1808 H   0  0  0  0  0  0  0  0  0  0  0  0
   -1.1972   22.3551  -26.2488 H   0  0  0  0  0  0  0  0  0  0  0  0
   -2.1217   21.1050  -28.1943 H   0  0  0  0  0  0  0  0  0  0  0  0
   -2.9537   21.0639  -30.3444 H   0  0  0  0  0  0  0  0  0  0  0  0
   -4.4134   22.1493  -30.3889 H   0  0  0  0  0  0  0  0  0  0  0  0
   -3.1940   23.6520  -31.7880 H   0  0  0  0  0  0  0  0  0  0  0  0
   -3.2600   22.5249  -33.7806 H   0  0  0  0  0  0  0  0  0  0  0  0
   -2.8656   20.9632  -32.9479 H   0  0  0  0  0  0  0  0  0  0  0  0
   -5.3089   23.6908  -32.2771 H   0  0  0  0  0  0  0  0  0  0  0  0
   -9.6194   21.7616  -31.6641 H   0  0  0  0  0  0  0  0  0  0  0  0
  -10.5333   19.4503  -31.7828 H   0  0  0  0  0  0  0  0  0  0  0  0
   -9.0480   17.5479  -32.3855 H   0  0  0  0  0  0  0  0  0  0  0  0
   -6.6479   17.9404  -32.8966 H   0  0  0  0  0  0  0  0  0  0  0  0
   -4.1371   18.6914  -32.5965 H   0  0  0  0  0  0  0  0  0  0  0  0
   -5.1841   18.5775  -34.0517 H   0  0  0  0  0  0  0  0  0  0  0  0
   -3.7627   19.6758  -34.0517 H   0  0  0  0  0  0  0  0  0  0  0  0
  1  2  1  0
  2  3  1  0
  3  4  2  0
  4  5  1  0
  5  6  2  0
  6  7  1  0
  7  8  2  0
  8  9  1  0
  9 10  1  0
 10 11  1  0
 11 12  1  0
 12 13  2  0
 13 14  1  0
 14 15  2  0
 14 16  1  0
 16 17  2  0
 17 18  1  0
 18 19  2  0
 19 20  1  0
 20 21  2  0
 21 22  1  0
 22 23  1  0
  8  3  1  0
 22 12  1  0
 21 16  1  0
  1 24  1  0
  1 25  1  0
  1 26  1  0
  4 27  1  0
  5 28  1  0
  6 29  1  0
  7 30  1  0
  9 31  1  0
  9 32  1  0
 10 33  1  0
 11 34  1  0
 11 35  1  0
 13 36  1  0
 17 37  1  0
 18 38  1  0
 19 39  1  0
 20 40  1  0
 23 41  1  0
 23 42  1  0
 23 43  1  0
M  END
>  <UniqueID>  (18) 
18

>  <SMILES>  (18) 
COc1ccccc1CNCc1cc(=O)c2ccccc2n1C

>  <Energy>  (18) 
58.73538643798525

>  <Genealogy>  (18) 
COc1ccccc1CNCc1cc(=O)c2ccccc2n1C (3D coordinates assigned)
COc1ccccc1CNCc1cc(=O)c2ccccc2n1C (optimized conformer: 58.73538643798525 kcal/mol)

>  <smiles>  (18) 
COc1ccccc1CNCc1cc(=O)c2ccccc2n1C

>  <score_type>  (18) 
oracle

>  <origin>  (18) 
adg

>  <m_score__min__energy>  (18) 
-9.25

>  <m_primary>  (18) 
energy

$$$$
18:0
     RDKit          3D

 59 62  0  0  0  0  0  0  0  0999 V2000
   -9.4940   19.2600  -32.7220 C   0  0  0  0  0  0  0  0  0  0  0  0
   -8.1770   19.8470  -32.2720 C   0  0  0  0  0  0  0  0  0  0  0  0
   -8.0760   21.2480  -32.1830 C   0  0  0  0  0  0  0  0  0  0  0  0
   -6.8720   21.8570  -31.8350 C   0  0  0  0  0  0  0  0  0  0  0  0
   -5.7450   21.0810  -31.5830 C   0  0  0  0  0  0  0  0  0  0  0  0
   -5.8250   19.6890  -31.6490 C   0  0  0  0  0  0  0  0  0  0  0  0
   -7.0450   19.0450  -31.9420 C   0  0  0  0  0  0  0  0  0  0  0  0
   -7.0620   17.5240  -31.9670 C   0  0  0  0  0  0  0  0  0  0  0  0
   -6.2790   16.9130  -33.0670 N   0  0  0  0  0  0  0  0  0  0  0  0
   -5.0660   16.1700  -32.6890 C   0  0  0  0  0  0  0  0  0  0  0  0
   -3.8060   17.0430  -32.7800 C   0  0  0  0  0  0  0  0  0  0  0  0
   -3.6770   17.6350  -34.1300 N   0  0  0  0  0  0  0  0  0  0  0  0
   -2.4450   18.4550  -34.2390 C   0  0  0  0  0  0  0  0  0  0  0  0
   -2.4270   19.5990  -33.2510 C   0  0  0  0  0  0  0  0  0  0  0  0
   -3.0240   20.8270  -33.5810 C   0  0  0  0  0  0  0  0  0  0  0  0
   -3.0090   21.8870  -32.6700 C   0  0  0  0  0  0  0  0  0  0  0  0
   -2.4090   21.7360  -31.4080 C   0  0  0  0  0  0  0  0  0  0  0  0
   -2.3990   22.8330  -30.4720 N   0  0  0  0  0  0  0  0  0  0  0  0
   -1.1490   23.2340  -29.8160 C   0  0  0  0  0  0  0  0  0  0  0  0
   -1.4610   23.8240  -28.4360 C   0  0  0  0  0  0  0  0  0  0  0  0
   -2.4220   24.8590  -28.5400 O   0  0  0  0  0  0  0  0  0  0  0  0
   -3.6540   24.3260  -28.9870 C   0  0  0  0  0  0  0  0  0  0  0  0
   -3.5260   23.7690  -30.4070 C   0  0  0  0  0  0  0  0  0  0  0  0
   -1.8090   20.5060  -31.0820 C   0  0  0  0  0  0  0  0  0  0  0  0
   -1.8160   19.4490  -31.9960 C   0  0  0  0  0  0  0  0  0  0  0  0
   -4.8560   18.4790  -34.4190 C   0  0  0  0  0  0  0  0  0  0  0  0
   -6.1660   17.6740  -34.3260 C   0  0  0  0  0  0  0  0  0  0  0  0
  -10.0959   18.9917  -31.8412 H   0  0  0  0  0  0  0  0  0  0  0  0
  -10.0382   20.0007  -33.3262 H   0  0  0  0  0  0  0  0  0  0  0  0
   -9.3070   18.3600  -33.3262 H   0  0  0  0  0  0  0  0  0  0  0  0
   -8.9590   21.8702  -32.3908 H   0  0  0  0  0  0  0  0  0  0  0  0
   -6.8125   22.9528  -31.7594 H   0  0  0  0  0  0  0  0  0  0  0  0
   -4.7898   21.5650  -31.3315 H   0  0  0  0  0  0  0  0  0  0  0  0
   -4.9231   19.0854  -31.4698 H   0  0  0  0  0  0  0  0  0  0  0  0
   -6.6526   17.1612  -31.0127 H   0  0  0  0  0  0  0  0  0  0  0  0
   -8.1089   17.2281  -32.1298 H   0  0  0  0  0  0  0  0  0  0  0  0
   -5.1764   15.8122  -31.6547 H   0  0  0  0  0  0  0  0  0  0  0  0
   -4.9493   15.3302  -33.3898 H   0  0  0  0  0  0  0  0  0  0  0  0
   -3.8717   17.8507  -32.0362 H   0  0  0  0  0  0  0  0  0  0  0  0
   -2.9249   16.4144  -32.5835 H   0  0  0  0  0  0  0  0  0  0  0  0
   -3.6390   16.8680  -34.8430 H   0  0  0  0  0  0  0  0  0  0  0  0
   -1.5736   17.8108  -34.0500 H   0  0  0  0  0  0  0  0  0  0  0  0
   -2.4156   18.8845  -35.2512 H   0  0  0  0  0  0  0  0  0  0  0  0
   -3.5058   20.9551  -34.5615 H   0  0  0  0  0  0  0  0  0  0  0  0
   -3.4706   22.8474  -32.9430 H   0  0  0  0  0  0  0  0  0  0  0  0
   -0.4977   22.3551  -29.7000 H   0  0  0  0  0  0  0  0  0  0  0  0
   -0.6392   23.9904  -30.4308 H   0  0  0  0  0  0  0  0  0  0  0  0
   -1.8545   23.0300  -27.7843 H   0  0  0  0  0  0  0  0  0  0  0  0
   -0.5357   24.2416  -28.0124 H   0  0  0  0  0  0  0  0  0  0  0  0
   -3.9631   23.5166  -28.3093 H   0  0  0  0  0  0  0  0  0  0  0  0
   -4.4037   25.1309  -28.9918 H   0  0  0  0  0  0  0  0  0  0  0  0
   -4.4535   23.2437  -30.6785 H   0  0  0  0  0  0  0  0  0  0  0  0
   -3.3515   24.5980  -31.1087 H   0  0  0  0  0  0  0  0  0  0  0  0
   -1.3307   20.3753  -30.1001 H   0  0  0  0  0  0  0  0  0  0  0  0
   -1.3399   18.4936  -31.7305 H   0  0  0  0  0  0  0  0  0  0  0  0
   -4.8914   19.3038  -33.6920 H   0  0  0  0  0  0  0  0  0  0  0  0
   -4.7606   18.8637  -35.4451 H   0  0  0  0  0  0  0  0  0  0  0  0
   -7.0134   18.3722  -34.3924 H   0  0  0  0  0  0  0  0  0  0  0  0
   -6.1699   16.9493  -35.1535 H   0  0  0  0  0  0  0  0  0  0  0  0
  1  2  1  0
  2  3  2  0
  3  4  1  0
  4  5  2  0
  5  6  1  0
  6  7  2  0
  7  8  1  0
  8  9  1  0
  9 10  1  0
 10 11  1  0
 11 12  1  0
 12 13  1  0
 13 14  1  0
 14 15  2  0
 15 16  1  0
 16 17  2  0
 17 18  1  0
 18 19  1  0
 19 20  1  0
 20 21  1  0
 21 22  1  0
 22 23  1  0
 17 24  1  0
 24 25  2  0
 12 26  1  0
 26 27  1  0
  7  2  1  0
 27  9  1  0
 25 14  1  0
 23 18  1  0
  1 28  1  0
  1 29  1  0
  1 30  1  0
  3 31  1  0
  4 32  1  0
  5 33  1  0
  6 34  1  0
  8 35  1  0
  8 36  1  0
 10 37  1  0
 10 38  1  0
 11 39  1  0
 11 40  1  0
 12 41  1  0
 13 42  1  0
 13 43  1  0
 15 44  1  0
 16 45  1  0
 19 46  1  0
 19 47  1  0
 20 48  1  0
 20 49  1  0
 22 50  1  0
 22 51  1  0
 23 52  1  0
 23 53  1  0
 24 54  1  0
 25 55  1  0
 26 56  1  0
 26 57  1  0
 27 58  1  0
 27 59  1  0
M  CHG  1  12   1
M  END
>  <UniqueID>  (19) 
19

>  <SMILES>  (19) 
Cc1ccccc1CN1CC[NH+](Cc2ccc(N3CCOCC3)cc2)CC1

>  <Energy>  (19) 
79.28936042540218

>  <Genealogy>  (19) 
Cc1ccccc1CN1CC[NH+](Cc2ccc(N3CCOCC3)cc2)CC1 (protonated)
Cc1ccccc1CN1CC[NH+](Cc2ccc(N3CCOCC3)cc2)CC1 (3D coordinates assigned)
Cc1ccccc1CN1CC[NH+](Cc2ccc(N3CCOCC3)cc2)CC1 (nonaromatic ring conformer: 79.28936042540218 kcal/mol)

>  <smiles>  (19) 
Cc1ccccc1CN1CCN(Cc2ccc(N3CCOCC3)cc2)CC1

>  <score_type>  (19) 
oracle

>  <origin>  (19) 
adg

>  <m_score__min__energy>  (19) 
-8

>  <m_primary>  (19) 
energy

$$$$
19:0
     RDKit          3D

 77 80  0  0  0  0  0  0  0  0999 V2000
   -1.8330   26.0480  -25.4360 C   0  0  0  0  0  0  0  0  0  0  0  0
   -1.9870   25.4070  -26.5990 C   0  0  0  0  0  0  0  0  0  0  0  0
   -1.2760   25.8500  -27.8490 C   0  0  0  0  0  0  0  0  0  0  0  0
   -1.6870   25.0420  -29.0060 N   0  0  0  0  0  0  0  0  0  0  0  0
   -2.7600   24.0840  -28.6820 C   0  0  0  0  0  0  0  0  0  0  0  0
   -3.8050   23.9620  -29.7960 C   0  0  0  0  0  0  0  0  0  0  0  0
   -3.9030   25.2090  -30.4500 O   0  0  0  0  0  0  0  0  0  0  0  0
   -5.2580   25.5200  -30.6900 C   0  0  0  0  0  0  0  0  0  0  0  0
   -6.1090   24.2670  -30.4830 C   0  0  0  0  0  0  0  0  0  0  0  0
   -7.0940   24.1540  -31.4950 O   0  0  0  0  0  0  0  0  0  0  0  0
   -7.2790   22.8090  -31.8980 C   0  0  0  0  0  0  0  0  0  0  0  0
   -8.6940   22.3330  -31.5720 C   0  0  0  0  0  0  0  0  0  0  0  0
   -8.6480   20.9590  -31.2470 O   0  0  0  0  0  0  0  0  0  0  0  0
   -9.2790   20.2030  -32.2550 C   0  0  0  0  0  0  0  0  0  0  0  0
   -8.4130   18.9850  -32.5810 C   0  0  0  0  0  0  0  0  0  0  0  0
   -6.9960   19.2800  -32.3580 N   0  0  0  0  0  0  0  0  0  0  0  0
   -5.9110   18.6420  -33.0630 C   0  0  0  0  0  0  0  0  0  0  0  0
   -6.2020   17.7770  -34.1190 C   0  0  0  0  0  0  0  0  0  0  0  0
   -5.1840   17.1000  -34.7870 C   0  0  0  0  0  0  0  0  0  0  0  0
   -3.8280   17.2970  -34.4390 C   0  0  0  0  0  0  0  0  0  0  0  0
   -3.5130   18.2690  -33.4470 C   0  0  0  0  0  0  0  0  0  0  0  0
   -4.5670   18.8630  -32.7180 C   0  0  0  0  0  0  0  0  0  0  0  0
   -2.1480   18.5330  -33.1460 C   0  0  0  0  0  0  0  0  0  0  0  0
   -1.2000   17.5680  -33.5540 C   0  0  0  0  0  0  0  0  0  0  0  0
    0.0720   17.5310  -32.9660 C   0  0  0  0  0  0  0  0  0  0  0  0
    0.3990   18.4250  -31.9510 C   0  0  0  0  0  0  0  0  0  0  0  0
   -0.4700   19.4750  -31.6380 C   0  0  0  0  0  0  0  0  0  0  0  0
   -0.1280   20.4010  -30.6480 C   0  0  0  0  0  0  0  0  0  0  0  0
   -0.9530   21.4920  -30.4140 C   0  0  0  0  0  0  0  0  0  0  0  0
   -2.0360   21.7240  -31.2590 C   0  0  0  0  0  0  0  0  0  0  0  0
   -2.3220   20.8650  -32.2890 N   0  0  0  0  0  0  0  0  0  0  0  0
   -3.0930   21.4260  -33.4210 C   0  0  0  0  0  0  0  0  0  0  0  0
   -4.3000   22.2190  -32.9190 C   0  0  0  0  0  0  0  0  0  0  0  0
   -1.6850   19.6360  -32.3520 C   0  0  0  0  0  0  0  0  0  0  0  0
   -1.5510   16.6140  -34.5130 C   0  0  0  0  0  0  0  0  0  0  0  0
   -2.8230   16.5390  -35.0030 N   0  0  0  0  0  0  0  0  0  0  0  0
   -3.0980   15.5510  -36.0580 C   0  0  0  0  0  0  0  0  0  0  0  0
   -2.3674   25.6984  -24.5403 H   0  0  0  0  0  0  0  0  0  0  0  0
   -1.1719   26.9250  -25.3747 H   0  0  0  0  0  0  0  0  0  0  0  0
   -2.6517   24.5317  -26.6434 H   0  0  0  0  0  0  0  0  0  0  0  0
   -1.5165   26.9055  -28.0442 H   0  0  0  0  0  0  0  0  0  0  0  0
   -0.1938   25.7214  -27.6997 H   0  0  0  0  0  0  0  0  0  0  0  0
   -2.0060   25.6840  -29.7670 H   0  0  0  0  0  0  0  0  0  0  0  0
   -2.3088   23.0950  -28.5138 H   0  0  0  0  0  0  0  0  0  0  0  0
   -3.2755   24.4560  -27.7843 H   0  0  0  0  0  0  0  0  0  0  0  0
   -3.4946   23.1887  -30.5141 H   0  0  0  0  0  0  0  0  0  0  0  0
   -4.7797   23.6787  -29.3721 H   0  0  0  0  0  0  0  0  0  0  0  0
   -5.5840   26.3049  -29.9917 H   0  0  0  0  0  0  0  0  0  0  0  0
   -5.3760   25.8787  -31.7231 H   0  0  0  0  0  0  0  0  0  0  0  0
   -5.4585   23.3805  -30.5126 H   0  0  0  0  0  0  0  0  0  0  0  0
   -6.6127   24.3405  -29.5079 H   0  0  0  0  0  0  0  0  0  0  0  0
   -7.1138   22.7319  -32.9828 H   0  0  0  0  0  0  0  0  0  0  0  0
   -6.5611   22.1769  -31.3547 H   0  0  0  0  0  0  0  0  0  0  0  0
   -9.0879   22.9022  -30.7171 H   0  0  0  0  0  0  0  0  0  0  0  0
   -9.3508   22.4901  -32.4403 H   0  0  0  0  0  0  0  0  0  0  0  0
  -10.2662   19.8697  -31.9024 H   0  0  0  0  0  0  0  0  0  0  0  0
   -9.4067   20.8199  -33.1568 H   0  0  0  0  0  0  0  0  0  0  0  0
   -8.7127   18.1462  -31.9356 H   0  0  0  0  0  0  0  0  0  0  0  0
   -8.5564   18.7235  -33.6398 H   0  0  0  0  0  0  0  0  0  0  0  0
   -6.7670   19.9610  -31.5990 H   0  0  0  0  0  0  0  0  0  0  0  0
   -7.2473   17.6281  -34.4274 H   0  0  0  0  0  0  0  0  0  0  0  0
   -5.4392   16.4015  -35.5976 H   0  0  0  0  0  0  0  0  0  0  0  0
   -4.3306   19.5123  -31.8621 H   0  0  0  0  0  0  0  0  0  0  0  0
    0.8133   16.7936  -33.3077 H   0  0  0  0  0  0  0  0  0  0  0  0
    1.3407   18.3058  -31.3951 H   0  0  0  0  0  0  0  0  0  0  0  0
    0.7902   20.2655  -30.0577 H   0  0  0  0  0  0  0  0  0  0  0  0
   -0.7536   22.1675  -29.5690 H   0  0  0  0  0  0  0  0  0  0  0  0
   -2.6703   22.6081  -31.0978 H   0  0  0  0  0  0  0  0  0  0  0  0
   -2.4417   22.0927  -34.0051 H   0  0  0  0  0  0  0  0  0  0  0  0
   -3.4532   20.5960  -34.0466 H   0  0  0  0  0  0  0  0  0  0  0  0
   -4.3049   22.2222  -31.8190 H   0  0  0  0  0  0  0  0  0  0  0  0
   -4.2386   23.2533  -33.2884 H   0  0  0  0  0  0  0  0  0  0  0  0
   -5.2249   21.7520  -33.2884 H   0  0  0  0  0  0  0  0  0  0  0  0
   -0.7886   15.9109  -34.8796 H   0  0  0  0  0  0  0  0  0  0  0  0
   -3.3659   14.5884  -35.5980 H   0  0  0  0  0  0  0  0  0  0  0  0
   -3.9321   15.9038  -36.6824 H   0  0  0  0  0  0  0  0  0  0  0  0
   -2.2016   15.4221  -36.6824 H   0  0  0  0  0  0  0  0  0  0  0  0
  1  2  2  0
  2  3  1  0
  3  4  1  0
  4  5  1  0
  5  6  1  0
  6  7  1  0
  7  8  1  0
  8  9  1  0
  9 10  1  0
 10 11  1  0
 11 12  1  0
 12 13  1  0
 13 14  1  0
 14 15  1  0
 15 16  1  0
 16 17  1  0
 17 18  2  0
 18 19  1  0
 19 20  2  0
 20 21  1  0
 21 22  2  0
 21 23  1  0
 23 24  2  0
 24 25  1  0
 25 26  2  0
 26 27  1  0
 27 28  2  0
 28 29  1  0
 29 30  2  0
 30 31  1  0
 31 32  1  0
 32 33  1  0
 31 34  2  0
 24 35  1  0
 35 36  2  0
 36 37  1  0
 22 17  1  0
 34 23  1  0
 36 20  1  0
 34 27  1  0
  1 38  1  0
  1 39  1  0
  2 40  1  0
  3 41  1  0
  3 42  1  0
  4 43  1  0
  5 44  1  0
  5 45  1  0
  6 46  1  0
  6 47  1  0
  8 48  1  0
  8 49  1  0
  9 50  1  0
  9 51  1  0
 11 52  1  0
 11 53  1  0
 12 54  1  0
 12 55  1  0
 14 56  1  0
 14 57  1  0
 15 58  1  0
 15 59  1  0
 16 60  1  0
 18 61  1  0
 19 62  1  0
 22 63  1  0
 25 64  1  0
 26 65  1  0
 28 66  1  0
 29 67  1  0
 30 68  1  0
 32 69  1  0
 32 70  1  0
 33 71  1  0
 33 72  1  0
 33 73  1  0
 35 74  1  0
 37 75  1  0
 37 76  1  0
 37 77  1  0
M  CHG  2  31   1  36   1
M  END
>  <UniqueID>  (20) 
20

>  <SMILES>  (20) 
C=CCNCCOCCOCCOCCNc1ccc2c(c1)c1c(ccc3ccc[n+](CC)c31)c[n+]2C

>  <Energy>  (20) 
114.46264079115511

>  <Genealogy>  (20) 
C=CCNCCOCCOCCOCCNc1ccc2c(c1)c1c(ccc3ccc[n+](CC)c31)c[n+]2C (3D coordinates assigned)
C=CCNCCOCCOCCOCCNc1ccc2c(c1)c1c(ccc3ccc[n+](CC)c31)c[n+]2C (optimized conformer: 114.46264079115511 kcal/mol)

>  <smiles>  (20) 
C=CCNCCOCCOCCOCCNc1ccc2c(c1)c1c(ccc3ccc[n+](CC)c31)c[n+]2C

>  <score_type>  (20) 
oracle

>  <origin>  (20) 
adg

>  <m_score__min__energy>  (20) 
-9.8599999999999994

>  <m_primary>  (20) 
energy

$$$$
20:0
     RDKit          3D

 50 52  0  0  0  0  0  0  0  0999 V2000
  -10.0756   20.5881  -31.6066 H   0  0  0  0  0  0  0  0  0  0  0  0
   -9.0140   20.8490  -31.7290 C   0  0  0  0  0  0  0  0  0  0  0  0
   -8.6110   22.0640  -31.3440 C   0  0  0  0  0  0  0  0  0  0  0  0
   -8.7358   22.9127  -32.0326 H   0  0  0  0  0  0  0  0  0  0  0  0
   -7.9900   22.3020  -29.9910 C   0  0  0  0  0  0  0  0  0  0  0  0
   -7.8047   21.3331  -29.5043 H   0  0  0  0  0  0  0  0  0  0  0  0
   -8.6821   22.9085  -29.3884 H   0  0  0  0  0  0  0  0  0  0  0  0
   -6.7090   23.0330  -30.1190 N   0  0  0  0  0  0  0  0  0  0  0  0
   -6.4070   23.2950  -29.1520 H   0  0  0  0  0  0  0  0  0  0  0  0
   -6.8940   24.2740  -30.8900 C   0  0  0  0  0  0  0  0  0  0  0  0
   -7.7507   24.8308  -30.4826 H   0  0  0  0  0  0  0  0  0  0  0  0
   -7.0797   24.0182  -31.9436 H   0  0  0  0  0  0  0  0  0  0  0  0
   -5.6300   25.1480  -30.8000 C   0  0  0  0  0  0  0  0  0  0  0  0
   -5.6589   25.7100  -29.8548 H   0  0  0  0  0  0  0  0  0  0  0  0
   -5.6282   25.8155  -31.6743 H   0  0  0  0  0  0  0  0  0  0  0  0
   -4.3790   24.3600  -30.8420 N   0  0  0  0  0  0  0  0  0  0  0  0
   -3.4460   24.5500  -29.7070 C   0  0  0  0  0  0  0  0  0  0  0  0
   -3.9372   25.1859  -28.9557 H   0  0  0  0  0  0  0  0  0  0  0  0
   -2.5335   25.0110  -30.1131 H   0  0  0  0  0  0  0  0  0  0  0  0
   -3.0310   23.2560  -29.0410 C   0  0  0  0  0  0  0  0  0  0  0  0
   -1.8260   22.6310  -29.3950 C   0  0  0  0  0  0  0  0  0  0  0  0
   -1.1589   23.1081  -30.1280 H   0  0  0  0  0  0  0  0  0  0  0  0
   -1.4660   21.4070  -28.8240 C   0  0  0  0  0  0  0  0  0  0  0  0
   -0.5313   20.9143  -29.1299 H   0  0  0  0  0  0  0  0  0  0  0  0
   -2.2930   20.8020  -27.8600 C   0  0  0  0  0  0  0  0  0  0  0  0
   -1.9450   19.4690  -27.2480 C   0  0  0  0  0  0  0  0  0  0  0  0
   -1.3190   19.6660  -26.0290 F   0  0  0  0  0  0  0  0  0  0  0  0
   -1.0960   18.7370  -28.0620 F   0  0  0  0  0  0  0  0  0  0  0  0
   -3.1030   18.7410  -27.0460 F   0  0  0  0  0  0  0  0  0  0  0  0
   -3.4840   21.4420  -27.4870 C   0  0  0  0  0  0  0  0  0  0  0  0
   -4.1389   20.9793  -26.7340 H   0  0  0  0  0  0  0  0  0  0  0  0
   -3.8460   22.6630  -28.0640 C   0  0  0  0  0  0  0  0  0  0  0  0
   -4.7749   23.1619  -27.7505 H   0  0  0  0  0  0  0  0  0  0  0  0
   -4.4960   22.9860  -31.3640 C   0  0  0  0  0  0  0  0  0  0  0  0
   -3.5573   22.4529  -31.1527 H   0  0  0  0  0  0  0  0  0  0  0  0
   -4.6982   23.0673  -32.4422 H   0  0  0  0  0  0  0  0  0  0  0  0
   -5.6650   22.1830  -30.7430 C   0  0  0  0  0  0  0  0  0  0  0  0
   -5.2554   21.5141  -29.9718 H   0  0  0  0  0  0  0  0  0  0  0  0
   -6.1478   21.6324  -31.5638 H   0  0  0  0  0  0  0  0  0  0  0  0
   -8.1040   19.8360  -32.3120 C   0  0  0  0  0  0  0  0  0  0  0  0
   -8.1900   18.4690  -31.9810 C   0  0  0  0  0  0  0  0  0  0  0  0
   -8.9641   18.1240  -31.2798 H   0  0  0  0  0  0  0  0  0  0  0  0
   -7.2980   17.5490  -32.5380 C   0  0  0  0  0  0  0  0  0  0  0  0
   -7.3777   16.4825  -32.2808 H   0  0  0  0  0  0  0  0  0  0  0  0
   -6.3050   17.9810  -33.4210 C   0  0  0  0  0  0  0  0  0  0  0  0
   -5.6081   17.2543  -33.8639 H   0  0  0  0  0  0  0  0  0  0  0  0
   -6.1980   19.3370  -33.7410 C   0  0  0  0  0  0  0  0  0  0  0  0
   -5.4124   19.6780  -34.4313 H   0  0  0  0  0  0  0  0  0  0  0  0
   -7.0880   20.2610  -33.1850 C   0  0  0  0  0  0  0  0  0  0  0  0
   -6.9922   21.3285  -33.4327 H   0  0  0  0  0  0  0  0  0  0  0  0
  1  2  1  0
  2  3  2  0
  3  4  1  0
  3  5  1  0
  5  6  1  0
  5  7  1  0
  5  8  1  0
  8  9  1  0
  8 10  1  0
 10 11  1  0
 10 12  1  0
 10 13  1  0
 13 14  1  0
 13 15  1  0
 13 16  1  0
 16 17  1  0
 17 18  1  0
 17 19  1  0
 17 20  1  0
 20 21  2  0
 21 22  1  0
 21 23  1  0
 23 24  1  0
 23 25  2  0
 25 26  1  0
 26 27  1  0
 26 28  1  0
 26 29  1  0
 25 30  1  0
 30 31  1  0
 30 32  2  0
 32 33  1  0
 16 34  1  0
 34 35  1  0
 34 36  1  0
 34 37  1  0
 37 38  1  0
 37 39  1  0
  2 40  1  0
 40 41  2  0
 41 42  1  0
 41 43  1  0
 43 44  1  0
 43 45  2  0
 45 46  1  0
 45 47  1  0
 47 48  1  0
 47 49  2  0
 49 50  1  0
 37  8  1  0
 49 40  1  0
 32 20  1  0
M  CHG  1   8   1
M  END
>  <UniqueID>  (21) 
21

>  <SMILES>  (21) 
FC(F)(F)c1ccc(CN2CC[NH+](C/C=C/c3ccccc3)CC2)cc1

>  <Energy>  (21) 
67.2670449236923

>  <Genealogy>  (21) 
FC(F)(F)c1ccc(CN2CC[NH+](CC=Cc3ccccc3)CC2)cc1 (protonated)
FC(F)(F)c1ccc(CN2CC[NH+](C/C=C/c3ccccc3)CC2)cc1 (cis-trans isomerization)
FC(F)(F)c1ccc(CN2CC[NH+](C/C=C/c3ccccc3)CC2)cc1 (3D coordinates assigned)
FC(F)(F)c1ccc(CN2CC[NH+](C/C=C/c3ccccc3)CC2)cc1 (nonaromatic ring conformer: 67.2670449236923 kcal/mol)

>  <smiles>  (21) 
FC(F)(F)c1ccc(CN2CCN(CC=Cc3ccccc3)CC2)cc1

>  <score_type>  (21) 
oracle

>  <origin>  (21) 
adg

>  <m_score__min__energy>  (21) 
-7.7999999999999998

>  <m_primary>  (21) 
energy

$$$$
21:0
     RDKit          3D

 54 57  0  0  0  0  0  0  0  0999 V2000
   -6.5740   16.1840  -34.1230 C   0  0  0  0  0  0  0  0  0  0  0  0
   -5.2430   16.9060  -33.9800 C   0  0  0  0  0  0  0  0  0  0  0  0
   -5.2170   17.6030  -32.7410 O   0  0  0  0  0  0  0  0  0  0  0  0
   -5.5220   18.9470  -32.5890 N   0  0  0  0  0  0  0  0  0  0  0  0
   -4.7480   20.0530  -32.7840 C   0  0  0  0  0  0  0  0  0  0  0  0
   -3.3520   20.0340  -33.3490 C   0  0  0  0  0  0  0  0  0  0  0  0
   -5.5050   21.2130  -32.5290 C   0  0  0  0  0  0  0  0  0  0  0  0
   -5.0670   22.6650  -32.6180 C   0  0  0  0  0  0  0  0  0  0  0  0
   -4.4630   23.2040  -31.3710 N   0  0  0  0  0  0  0  0  0  0  0  0
   -3.1950   22.5210  -31.0020 C   0  0  0  0  0  0  0  0  0  0  0  0
   -2.8140   22.6650  -29.5100 C   0  0  0  0  0  0  0  0  0  0  0  0
   -3.4400   23.8390  -28.8930 N   0  0  0  0  0  0  0  0  0  0  0  0
   -2.7510   24.5570  -27.8520 C   0  0  0  0  0  0  0  0  0  0  0  0
   -1.4090   24.9350  -28.0190 C   0  0  0  0  0  0  0  0  0  0  0  0
   -0.7410   25.6320  -27.0080 C   0  0  0  0  0  0  0  0  0  0  0  0
   -1.4080   25.9590  -25.8240 C   0  0  0  0  0  0  0  0  0  0  0  0
   -0.7570   26.6350  -24.8450 F   0  0  0  0  0  0  0  0  0  0  0  0
   -2.7420   25.5870  -25.6490 C   0  0  0  0  0  0  0  0  0  0  0  0
   -3.4120   24.8860  -26.6550 C   0  0  0  0  0  0  0  0  0  0  0  0
   -4.8650   24.1090  -29.1140 C   0  0  0  0  0  0  0  0  0  0  0  0
   -5.4230   23.2410  -30.2490 C   0  0  0  0  0  0  0  0  0  0  0  0
   -6.7800   20.7600  -32.2220 C   0  0  0  0  0  0  0  0  0  0  0  0
   -7.9690   21.4510  -31.9670 C   0  0  0  0  0  0  0  0  0  0  0  0
   -9.1280   20.7000  -31.7070 C   0  0  0  0  0  0  0  0  0  0  0  0
   -9.0850   19.2910  -31.7230 C   0  0  0  0  0  0  0  0  0  0  0  0
   -7.8840   18.6200  -32.0100 C   0  0  0  0  0  0  0  0  0  0  0  0
   -6.7470   19.3900  -32.2600 C   0  0  0  0  0  0  0  0  0  0  0  0
   -6.9806   15.9635  -33.1250 H   0  0  0  0  0  0  0  0  0  0  0  0
   -7.2803   16.8227  -34.6737 H   0  0  0  0  0  0  0  0  0  0  0  0
   -6.4238   15.2437  -34.6737 H   0  0  0  0  0  0  0  0  0  0  0  0
   -4.4229   16.1734  -34.0067 H   0  0  0  0  0  0  0  0  0  0  0  0
   -5.1208   17.6206  -34.8073 H   0  0  0  0  0  0  0  0  0  0  0  0
   -2.6231   20.0241  -32.5252 H   0  0  0  0  0  0  0  0  0  0  0  0
   -3.2189   19.1340  -33.9672 H   0  0  0  0  0  0  0  0  0  0  0  0
   -3.1944   20.9301  -33.9672 H   0  0  0  0  0  0  0  0  0  0  0  0
   -4.3241   22.7510  -33.4247 H   0  0  0  0  0  0  0  0  0  0  0  0
   -5.9761   23.2552  -32.8059 H   0  0  0  0  0  0  0  0  0  0  0  0
   -4.2150   24.2000  -31.5920 H   0  0  0  0  0  0  0  0  0  0  0  0
   -3.2998   21.4501  -31.2304 H   0  0  0  0  0  0  0  0  0  0  0  0
   -2.3940   23.0016  -31.5828 H   0  0  0  0  0  0  0  0  0  0  0  0
   -3.1418   21.7637  -28.9713 H   0  0  0  0  0  0  0  0  0  0  0  0
   -1.7229   22.7908  -29.4490 H   0  0  0  0  0  0  0  0  0  0  0  0
   -0.8808   24.6814  -28.9499 H   0  0  0  0  0  0  0  0  0  0  0  0
    0.3109   25.9235  -27.1444 H   0  0  0  0  0  0  0  0  0  0  0  0
   -3.2666   25.8462  -24.7176 H   0  0  0  0  0  0  0  0  0  0  0  0
   -4.4615   24.5900  -26.5101 H   0  0  0  0  0  0  0  0  0  0  0  0
   -5.4194   23.8909  -28.1893 H   0  0  0  0  0  0  0  0  0  0  0  0
   -4.9804   25.1664  -29.3943 H   0  0  0  0  0  0  0  0  0  0  0  0
   -5.5905   22.2190  -29.8782 H   0  0  0  0  0  0  0  0  0  0  0  0
   -6.3736   23.6695  -30.5993 H   0  0  0  0  0  0  0  0  0  0  0  0
   -7.9961   22.5507  -31.9699 H   0  0  0  0  0  0  0  0  0  0  0  0
  -10.0753   21.2151  -31.4895 H   0  0  0  0  0  0  0  0  0  0  0  0
   -9.9966   18.7136  -31.5096 H   0  0  0  0  0  0  0  0  0  0  0  0
   -7.8413   17.5212  -32.0368 H   0  0  0  0  0  0  0  0  0  0  0  0
  1  2  1  0
  2  3  1  0
  3  4  1  0
  4  5  1  0
  5  6  1  0
  5  7  2  0
  7  8  1  0
  8  9  1  0
  9 10  1  0
 10 11  1  0
 11 12  1  0
 12 13  1  0
 13 14  2  0
 14 15  1  0
 15 16  2  0
 16 17  1  0
 16 18  1  0
 18 19  2  0
 12 20  1  0
 20 21  1  0
  7 22  1  0
 22 23  2  0
 23 24  1  0
 24 25  2  0
 25 26  1  0
 26 27  2  0
 27  4  1  0
 21  9  1  0
 27 22  1  0
 19 13  1  0
  1 28  1  0
  1 29  1  0
  1 30  1  0
  2 31  1  0
  2 32  1  0
  6 33  1  0
  6 34  1  0
  6 35  1  0
  8 36  1  0
  8 37  1  0
  9 38  1  0
 10 39  1  0
 10 40  1  0
 11 41  1  0
 11 42  1  0
 14 43  1  0
 15 44  1  0
 18 45  1  0
 19 46  1  0
 20 47  1  0
 20 48  1  0
 21 49  1  0
 21 50  1  0
 23 51  1  0
 24 52  1  0
 25 53  1  0
 26 54  1  0
M  CHG  1   9   1
M  END
>  <UniqueID>  (22) 
22

>  <SMILES>  (22) 
CCOn1c(C)c(C[NH+]2CCN(c3ccc(F)cc3)CC2)c2ccccc21

>  <Energy>  (22) 
104.88313614297334

>  <Genealogy>  (22) 
CCOn1c(C)c(C[NH+]2CCN(c3ccc(F)cc3)CC2)c2ccccc21 (protonated)
CCOn1c(C)c(C[NH+]2CCN(c3ccc(F)cc3)CC2)c2ccccc21 (3D coordinates assigned)
CCOn1c(C)c(C[NH+]2CCN(c3ccc(F)cc3)CC2)c2ccccc21 (nonaromatic ring conformer: 104.88313614297334 kcal/mol)

>  <smiles>  (22) 
CCOn1c(C)c(CN2CCN(c3ccc(F)cc3)CC2)c2ccccc21

>  <score_type>  (22) 
oracle

>  <origin>  (22) 
adg

>  <m_score__min__energy>  (22) 
-7.8600000000000003

>  <m_primary>  (22) 
energy

$$$$
22:0
     RDKit          3D

 74 77  0  0  0  0  0  0  0  0999 V2000
   -5.2700   17.9600  -34.9710 C   0  0  0  0  0  0  0  0  0  0  0  0
   -4.1830   17.3690  -34.0870 C   0  0  0  0  0  0  0  0  0  0  0  0
   -3.9220   18.2590  -33.0230 O   0  0  0  0  0  0  0  0  0  0  0  0
   -3.1250   19.3270  -33.4880 C   0  0  0  0  0  0  0  0  0  0  0  0
   -3.2600   20.5090  -32.5320 C   0  0  0  0  0  0  0  0  0  0  0  0
   -4.3340   20.2900  -31.5620 N   0  0  0  0  0  0  0  0  0  0  0  0
   -5.5390   21.0620  -31.6470 C   0  0  0  0  0  0  0  0  0  0  0  0
   -6.7450   20.4430  -32.0110 C   0  0  0  0  0  0  0  0  0  0  0  0
   -6.7770   19.0720  -32.3450 C   0  0  0  0  0  0  0  0  0  0  0  0
   -7.9820   18.4440  -32.6510 C   0  0  0  0  0  0  0  0  0  0  0  0
   -9.1710   19.1630  -32.6150 C   0  0  0  0  0  0  0  0  0  0  0  0
   -9.1610   20.5210  -32.2930 C   0  0  0  0  0  0  0  0  0  0  0  0
   -7.9470   21.2020  -32.0180 C   0  0  0  0  0  0  0  0  0  0  0  0
   -7.9170   22.5530  -31.7280 N   0  0  0  0  0  0  0  0  0  0  0  0
   -9.1080   23.3910  -31.9850 C   0  0  0  0  0  0  0  0  0  0  0  0
   -6.7620   23.1310  -31.2320 C   0  0  0  0  0  0  0  0  0  0  0  0
   -6.7530   24.4350  -30.6810 C   0  0  0  0  0  0  0  0  0  0  0  0
   -5.5640   25.0360  -30.2620 C   0  0  0  0  0  0  0  0  0  0  0  0
   -4.3460   24.3550  -30.3850 C   0  0  0  0  0  0  0  0  0  0  0  0
   -3.1140   24.9300  -30.0430 O   0  0  0  0  0  0  0  0  0  0  0  0
   -2.4830   24.8420  -28.7650 C   0  0  0  0  0  0  0  0  0  0  0  0
   -2.7920   23.4560  -28.1430 C   0  0  0  0  0  0  0  0  0  0  0  0
   -1.6560   22.4760  -28.1010 N   0  0  0  0  0  0  0  0  0  0  0  0
   -0.4110   23.1510  -28.5590 C   0  0  0  0  0  0  0  0  0  0  0  0
   -1.4660   22.0660  -26.6660 C   0  0  0  0  0  0  0  0  0  0  0  0
   -0.8990   20.6390  -26.5210 C   0  0  0  0  0  0  0  0  0  0  0  0
   -1.8150   19.6040  -27.1000 N   0  0  0  0  0  0  0  0  0  0  0  0
   -1.0020   18.4620  -27.5850 C   0  0  0  0  0  0  0  0  0  0  0  0
   -2.7270   19.0990  -26.0450 C   0  0  0  0  0  0  0  0  0  0  0  0
   -2.6360   20.1500  -28.2250 C   0  0  0  0  0  0  0  0  0  0  0  0
   -1.9110   21.2800  -28.9740 C   0  0  0  0  0  0  0  0  0  0  0  0
   -4.3440   23.0470  -30.8690 C   0  0  0  0  0  0  0  0  0  0  0  0
   -5.5420   22.4090  -31.2520 C   0  0  0  0  0  0  0  0  0  0  0  0
   -6.0618   18.3905  -34.3403 H   0  0  0  0  0  0  0  0  0  0  0  0
   -4.8383   18.7476  -35.6061 H   0  0  0  0  0  0  0  0  0  0  0  0
   -5.6963   17.1695  -35.6061 H   0  0  0  0  0  0  0  0  0  0  0  0
   -4.5197   16.4021  -33.6849 H   0  0  0  0  0  0  0  0  0  0  0  0
   -3.2670   17.2154  -34.6764 H   0  0  0  0  0  0  0  0  0  0  0  0
   -2.0731   19.0085  -33.5326 H   0  0  0  0  0  0  0  0  0  0  0  0
   -3.4579   19.6254  -34.4931 H   0  0  0  0  0  0  0  0  0  0  0  0
   -2.3112   20.6427  -31.9917 H   0  0  0  0  0  0  0  0  0  0  0  0
   -3.5026   21.4056  -33.1213 H   0  0  0  0  0  0  0  0  0  0  0  0
   -4.1870   19.6720  -30.7280 H   0  0  0  0  0  0  0  0  0  0  0  0
   -5.8413   18.4939  -32.3638 H   0  0  0  0  0  0  0  0  0  0  0  0
   -7.9927   17.3778  -32.9215 H   0  0  0  0  0  0  0  0  0  0  0  0
  -10.1229   18.6601  -32.8410 H   0  0  0  0  0  0  0  0  0  0  0  0
  -10.1114   21.0733  -32.2517 H   0  0  0  0  0  0  0  0  0  0  0  0
   -9.5507   23.7025  -31.0274 H   0  0  0  0  0  0  0  0  0  0  0  0
   -8.8128   24.2815  -32.5594 H   0  0  0  0  0  0  0  0  0  0  0  0
   -9.8464   22.8124  -32.5594 H   0  0  0  0  0  0  0  0  0  0  0  0
   -7.7003   24.9852  -30.5810 H   0  0  0  0  0  0  0  0  0  0  0  0
   -5.5840   26.0489  -29.8334 H   0  0  0  0  0  0  0  0  0  0  0  0
   -1.3956   24.9594  -28.8819 H   0  0  0  0  0  0  0  0  0  0  0  0
   -2.8638   25.6373  -28.1074 H   0  0  0  0  0  0  0  0  0  0  0  0
   -3.1304   23.6208  -27.1094 H   0  0  0  0  0  0  0  0  0  0  0  0
   -3.5464   23.0013  -28.8019 H   0  0  0  0  0  0  0  0  0  0  0  0
    0.1762   23.4694  -27.6851 H   0  0  0  0  0  0  0  0  0  0  0  0
    0.1835   22.4517  -29.1652 H   0  0  0  0  0  0  0  0  0  0  0  0
   -0.6726   24.0308  -29.1652 H   0  0  0  0  0  0  0  0  0  0  0  0
   -0.7695   22.7709  -26.1886 H   0  0  0  0  0  0  0  0  0  0  0  0
   -2.4549   22.0794  -26.1845 H   0  0  0  0  0  0  0  0  0  0  0  0
    0.0682   20.5875  -27.0424 H   0  0  0  0  0  0  0  0  0  0  0  0
   -0.7869   20.4278  -25.4473 H   0  0  0  0  0  0  0  0  0  0  0  0
   -0.6044   17.9035  -26.7248 H   0  0  0  0  0  0  0  0  0  0  0  0
   -1.6310   17.7969  -28.1949 H   0  0  0  0  0  0  0  0  0  0  0  0
   -0.1677   18.8387  -28.1949 H   0  0  0  0  0  0  0  0  0  0  0  0
   -2.3071   19.3315  -25.0552 H   0  0  0  0  0  0  0  0  0  0  0  0
   -3.7102   19.5812  -26.1487 H   0  0  0  0  0  0  0  0  0  0  0  0
   -2.8401   18.0097  -26.1487 H   0  0  0  0  0  0  0  0  0  0  0  0
   -2.8526   19.3368  -28.9333 H   0  0  0  0  0  0  0  0  0  0  0  0
   -3.5614   20.5650  -27.7990 H   0  0  0  0  0  0  0  0  0  0  0  0
   -0.9466   20.8985  -29.3407 H   0  0  0  0  0  0  0  0  0  0  0  0
   -2.5590   21.6022  -29.8024 H   0  0  0  0  0  0  0  0  0  0  0  0
   -3.3914   22.5035  -30.9535 H   0  0  0  0  0  0  0  0  0  0  0  0
  1  2  1  0
  2  3  1  0
  3  4  1  0
  4  5  1  0
  5  6  1  0
  6  7  1  0
  7  8  2  0
  8  9  1  0
  9 10  2  0
 10 11  1  0
 11 12  2  0
 12 13  1  0
 13 14  2  0
 14 15  1  0
 14 16  1  0
 16 17  2  0
 17 18  1  0
 18 19  2  0
 19 20  1  0
 20 21  1  0
 21 22  1  0
 22 23  1  0
 23 24  1  0
 23 25  1  0
 25 26  1  0
 26 27  1  0
 27 28  1  0
 27 29  1  0
 27 30  1  0
 30 31  1  0
 19 32  1  0
 32 33  2  0
 33  7  1  0
 13  8  1  0
 33 16  1  0
 31 23  1  0
  1 34  1  0
  1 35  1  0
  1 36  1  0
  2 37  1  0
  2 38  1  0
  4 39  1  0
  4 40  1  0
  5 41  1  0
  5 42  1  0
  6 43  1  0
  9 44  1  0
 10 45  1  0
 11 46  1  0
 12 47  1  0
 15 48  1  0
 15 49  1  0
 15 50  1  0
 17 51  1  0
 18 52  1  0
 21 53  1  0
 21 54  1  0
 22 55  1  0
 22 56  1  0
 24 57  1  0
 24 58  1  0
 24 59  1  0
 25 60  1  0
 25 61  1  0
 26 62  1  0
 26 63  1  0
 28 64  1  0
 28 65  1  0
 28 66  1  0
 29 67  1  0
 29 68  1  0
 29 69  1  0
 30 70  1  0
 30 71  1  0
 31 72  1  0
 31 73  1  0
 32 74  1  0
M  CHG  3  14   1  23   1  27   1
M  END
>  <UniqueID>  (23) 
23

>  <SMILES>  (23) 
CCOCCNc1c2ccccc2[n+](C)c2ccc(OCC[N+]3(C)CC[N+](C)(C)CC3)cc12

>  <Energy>  (23) 
127.2105612912969

>  <Genealogy>  (23) 
CCOCCNc1c2ccccc2[n+](C)c2ccc(OCC[N+]3(C)CC[N+](C)(C)CC3)cc12 (3D coordinates assigned)
CCOCCNc1c2ccccc2[n+](C)c2ccc(OCC[N+]3(C)CC[N+](C)(C)CC3)cc12 (nonaromatic ring conformer: 127.2105612912969 kcal/mol)

>  <smiles>  (23) 
CCOCCNc1c2ccccc2[n+](C)c2ccc(OCC[N+]3(C)CC[N+](C)(C)CC3)cc12

>  <score_type>  (23) 
oracle

>  <origin>  (23) 
adg

>  <m_score__min__energy>  (23) 
-8.2899999999999991

>  <m_primary>  (23) 
energy

$$$$
23:0
     RDKit          3D

 54 56  0  0  0  0  0  0  0  0999 V2000
   -1.9400   25.8300  -25.9290 C   0  0  0  0  0  0  0  0  0  0  0  0
   -0.8750   26.3300  -26.9030 C   0  0  0  0  0  0  0  0  0  0  0  0
   -0.8020   25.4630  -28.1650 C   0  0  0  0  0  0  0  0  0  0  0  0
   -2.1270   25.3760  -28.7980 N   0  0  0  0  0  0  0  0  0  0  0  0
   -2.6970   24.0210  -28.7300 C   0  0  0  0  0  0  0  0  0  0  0  0
   -3.0300   23.4470  -30.1120 C   0  0  0  0  0  0  0  0  0  0  0  0
   -3.6810   24.4430  -30.8730 O   0  0  0  0  0  0  0  0  0  0  0  0
   -5.0060   24.6350  -30.4140 C   0  0  0  0  0  0  0  0  0  0  0  0
   -5.9810   23.6430  -31.0690 C   0  0  0  0  0  0  0  0  0  0  0  0
   -5.5720   23.3170  -32.4460 N   0  0  0  0  0  0  0  0  0  0  0  0
   -5.5940   21.8790  -32.6630 C   0  0  0  0  0  0  0  0  0  0  0  0
   -6.7960   21.1390  -32.5070 C   0  0  0  0  0  0  0  0  0  0  0  0
   -7.9650   21.7230  -31.9590 C   0  0  0  0  0  0  0  0  0  0  0  0
   -9.1240   20.9730  -31.7750 C   0  0  0  0  0  0  0  0  0  0  0  0
   -9.1450   19.6290  -32.1160 C   0  0  0  0  0  0  0  0  0  0  0  0
   -8.0140   19.0270  -32.6610 C   0  0  0  0  0  0  0  0  0  0  0  0
   -6.8300   19.7710  -32.8970 C   0  0  0  0  0  0  0  0  0  0  0  0
   -5.7210   19.1880  -33.4780 N   0  0  0  0  0  0  0  0  0  0  0  0
   -5.8500   17.8970  -34.1930 C   0  0  0  0  0  0  0  0  0  0  0  0
   -4.4930   19.8130  -33.4020 C   0  0  0  0  0  0  0  0  0  0  0  0
   -3.2920   19.1170  -33.7010 C   0  0  0  0  0  0  0  0  0  0  0  0
   -2.0550   19.7570  -33.6550 C   0  0  0  0  0  0  0  0  0  0  0  0
   -0.5910   18.8710  -34.0410 Cl  0  0  0  0  0  0  0  0  0  0  0  0
   -1.9790   21.0940  -33.2890 C   0  0  0  0  0  0  0  0  0  0  0  0
   -3.1360   21.7970  -32.9610 C   0  0  0  0  0  0  0  0  0  0  0  0
   -4.4080   21.1770  -33.0070 C   0  0  0  0  0  0  0  0  0  0  0  0
   -1.5970   25.9910  -24.8963 H   0  0  0  0  0  0  0  0  0  0  0  0
   -2.8767   26.3824  -26.0946 H   0  0  0  0  0  0  0  0  0  0  0  0
   -2.1133   24.7564  -26.0946 H   0  0  0  0  0  0  0  0  0  0  0  0
   -1.1166   27.3628  -27.1946 H   0  0  0  0  0  0  0  0  0  0  0  0
    0.1005   26.2785  -26.3972 H   0  0  0  0  0  0  0  0  0  0  0  0
   -0.0895   25.9112  -28.8732 H   0  0  0  0  0  0  0  0  0  0  0  0
   -0.4693   24.4519  -27.8875 H   0  0  0  0  0  0  0  0  0  0  0  0
   -2.0490   25.6690  -29.8010 H   0  0  0  0  0  0  0  0  0  0  0  0
   -1.9692   23.3576  -28.2399 H   0  0  0  0  0  0  0  0  0  0  0  0
   -3.6371   24.0851  -28.1625 H   0  0  0  0  0  0  0  0  0  0  0  0
   -2.1027   23.1414  -30.6188 H   0  0  0  0  0  0  0  0  0  0  0  0
   -3.6854   22.5701  -30.0048 H   0  0  0  0  0  0  0  0  0  0  0  0
   -5.0303   24.4922  -29.3236 H   0  0  0  0  0  0  0  0  0  0  0  0
   -5.3193   25.6544  -30.6837 H   0  0  0  0  0  0  0  0  0  0  0  0
   -6.0039   22.7181  -30.4740 H   0  0  0  0  0  0  0  0  0  0  0  0
   -6.9768   24.1090  -31.1048 H   0  0  0  0  0  0  0  0  0  0  0  0
   -4.6250   23.7090  -32.6460 H   0  0  0  0  0  0  0  0  0  0  0  0
   -6.1890   23.7950  -33.1390 H   0  0  0  0  0  0  0  0  0  0  0  0
   -7.9569   22.7855  -31.6744 H   0  0  0  0  0  0  0  0  0  0  0  0
  -10.0246   21.4477  -31.3583 H   0  0  0  0  0  0  0  0  0  0  0  0
  -10.0579   19.0367  -31.9554 H   0  0  0  0  0  0  0  0  0  0  0  0
   -8.0393   17.9565  -32.9127 H   0  0  0  0  0  0  0  0  0  0  0  0
   -5.9317   17.0794  -33.4617 H   0  0  0  0  0  0  0  0  0  0  0  0
   -6.7507   17.9158  -34.8241 H   0  0  0  0  0  0  0  0  0  0  0  0
   -4.9634   17.7372  -34.8241 H   0  0  0  0  0  0  0  0  0  0  0  0
   -3.3389   18.0525  -33.9741 H   0  0  0  0  0  0  0  0  0  0  0  0
   -1.0026   21.5996  -33.2579 H   0  0  0  0  0  0  0  0  0  0  0  0
   -3.0600   22.8526  -32.6609 H   0  0  0  0  0  0  0  0  0  0  0  0
  1  2  1  0
  2  3  1  0
  3  4  1  0
  4  5  1  0
  5  6  1  0
  6  7  1  0
  7  8  1  0
  8  9  1  0
  9 10  1  0
 10 11  1  0
 11 12  2  0
 12 13  1  0
 13 14  2  0
 14 15  1  0
 15 16  2  0
 16 17  1  0
 17 18  2  0
 18 19  1  0
 18 20  1  0
 20 21  2  0
 21 22  1  0
 22 23  1  0
 22 24  2  0
 24 25  1  0
 25 26  2  0
 26 11  1  0
 17 12  1  0
 26 20  1  0
  1 27  1  0
  1 28  1  0
  1 29  1  0
  2 30  1  0
  2 31  1  0
  3 32  1  0
  3 33  1  0
  4 34  1  0
  5 35  1  0
  5 36  1  0
  6 37  1  0
  6 38  1  0
  8 39  1  0
  8 40  1  0
  9 41  1  0
  9 42  1  0
 10 43  1  0
 10 44  1  0
 13 45  1  0
 14 46  1  0
 15 47  1  0
 16 48  1  0
 19 49  1  0
 19 50  1  0
 19 51  1  0
 21 52  1  0
 24 53  1  0
 25 54  1  0
M  CHG  2  10   1  18   1
M  END
>  <UniqueID>  (24) 
24

>  <SMILES>  (24) 
CCCNCCOCC[NH2+]c1c2ccccc2[n+](C)c2cc(Cl)ccc12

>  <Energy>  (24) 
75.88735529819296

>  <Genealogy>  (24) 
CCCNCCOCC[NH2+]c1c2ccccc2[n+](C)c2cc(Cl)ccc12 (protonated)
CCCNCCOCC[NH2+]c1c2ccccc2[n+](C)c2cc(Cl)ccc12 (3D coordinates assigned)
CCCNCCOCC[NH2+]c1c2ccccc2[n+](C)c2cc(Cl)ccc12 (optimized conformer: 75.88735529819296 kcal/mol)

>  <smiles>  (24) 
CCCNCCOCCNc1c2ccccc2[n+](C)c2cc(Cl)ccc12

>  <score_type>  (24) 
oracle

>  <origin>  (24) 
adg

>  <m_score__min__energy>  (24) 
-8.6300000000000008

>  <m_primary>  (24) 
energy

$$$$
24:0
     RDKit          3D

 47 50  0  0  0  0  0  0  0  0999 V2000
   -1.9880   25.6720  -29.7490 H   0  0  0  0  0  0  0  0  0  0  0  0
   -2.5450   24.9640  -29.2260 N   0  0  0  0  0  0  0  0  0  0  0  0
   -3.5840   24.3600  -29.7130 C   0  0  0  0  0  0  0  0  0  0  0  0
   -3.5790   23.2740  -30.5840 C   0  0  0  0  0  0  0  0  0  0  0  0
   -2.4690   22.7170  -31.1940 C   0  0  0  0  0  0  0  0  0  0  0  0
   -1.5127   23.2466  -31.0712 H   0  0  0  0  0  0  0  0  0  0  0  0
   -2.4520   21.5490  -31.9480 C   0  0  0  0  0  0  0  0  0  0  0  0
   -1.1870   21.1640  -32.5090 N   0  0  0  0  0  0  0  0  0  0  0  0
   -0.4090   20.9350  -31.8490 H   0  0  0  0  0  0  0  0  0  0  0  0
   -1.0140   20.8250  -33.9270 C   0  0  0  0  0  0  0  0  0  0  0  0
   -1.7671   21.3820  -34.5037 H   0  0  0  0  0  0  0  0  0  0  0  0
   -1.2520   19.3310  -34.1680 C   0  0  0  0  0  0  0  0  0  0  0  0
   -1.3346   18.8123  -33.2015 H   0  0  0  0  0  0  0  0  0  0  0  0
   -2.1831   19.1953  -34.7378 H   0  0  0  0  0  0  0  0  0  0  0  0
   -0.4092   18.9127  -34.7378 H   0  0  0  0  0  0  0  0  0  0  0  0
    0.3710   21.2510  -34.4260 C   0  0  0  0  0  0  0  0  0  0  0  0
    1.0251   21.4522  -33.5648 H   0  0  0  0  0  0  0  0  0  0  0  0
    0.8050   20.4448  -35.0357 H   0  0  0  0  0  0  0  0  0  0  0  0
    0.2769   22.1617  -35.0357 H   0  0  0  0  0  0  0  0  0  0  0  0
   -3.4910   20.6090  -32.0440 C   0  0  0  0  0  0  0  0  0  0  0  0
   -3.1655   19.6057  -32.3562 H   0  0  0  0  0  0  0  0  0  0  0  0
   -4.8860   20.7230  -31.8100 C   0  0  0  0  0  0  0  0  0  0  0  0
   -5.6740   19.5480  -31.9550 C   0  0  0  0  0  0  0  0  0  0  0  0
   -5.0480   18.2510  -31.9710 N   0  0  0  0  0  0  0  0  0  0  0  0
   -4.2500   18.0490  -32.6130 H   0  0  0  0  0  0  0  0  0  0  0  0
   -5.3950   17.4720  -31.3720 H   0  0  0  0  0  0  0  0  0  0  0  0
   -7.0770   19.6450  -32.0460 C   0  0  0  0  0  0  0  0  0  0  0  0
   -7.8990   18.4960  -32.0950 C   0  0  0  0  0  0  0  0  0  0  0  0
   -7.4444   17.4983  -32.0056 H   0  0  0  0  0  0  0  0  0  0  0  0
   -9.2770   18.6120  -32.2550 C   0  0  0  0  0  0  0  0  0  0  0  0
   -9.9027   17.7083  -32.2977 H   0  0  0  0  0  0  0  0  0  0  0  0
   -9.8640   19.8680  -32.3610 C   0  0  0  0  0  0  0  0  0  0  0  0
  -10.9514   19.9560  -32.5018 H   0  0  0  0  0  0  0  0  0  0  0  0
   -9.0760   21.0160  -32.2890 C   0  0  0  0  0  0  0  0  0  0  0  0
   -9.5507   22.0053  -32.3660 H   0  0  0  0  0  0  0  0  0  0  0  0
   -7.6720   20.9260  -32.1180 C   0  0  0  0  0  0  0  0  0  0  0  0
   -6.8900   22.0520  -31.9890 N   0  0  0  0  0  0  0  0  0  0  0  0
   -7.4250   23.3590  -32.4290 C   0  0  0  0  0  0  0  0  0  0  0  0
   -7.6745   23.9685  -31.5479 H   0  0  0  0  0  0  0  0  0  0  0  0
   -6.6680   23.8805  -33.0331 H   0  0  0  0  0  0  0  0  0  0  0  0
   -8.3304   23.2000  -33.0331 H   0  0  0  0  0  0  0  0  0  0  0  0
   -5.5700   21.9470  -31.5920 C   0  0  0  0  0  0  0  0  0  0  0  0
   -4.9860   22.9860  -30.8390 C   0  0  0  0  0  0  0  0  0  0  0  0
   -5.6780   23.9040  -30.0480 C   0  0  0  0  0  0  0  0  0  0  0  0
   -6.7742   23.9520  -29.9697 H   0  0  0  0  0  0  0  0  0  0  0  0
   -4.8360   24.7220  -29.3940 N   0  0  0  0  0  0  0  0  0  0  0  0
   -5.1120   25.4830  -28.7340 H   0  0  0  0  0  0  0  0  0  0  0  0
  1  2  1  0
  2  3  2  0
  3  4  1  0
  4  5  2  0
  5  6  1  0
  5  7  1  0
  7  8  1  0
  8  9  1  0
  8 10  1  0
 10 11  1  0
 10 12  1  0
 12 13  1  0
 12 14  1  0
 12 15  1  0
 10 16  1  0
 16 17  1  0
 16 18  1  0
 16 19  1  0
  7 20  2  0
 20 21  1  0
 20 22  1  0
 22 23  2  0
 23 24  1  0
 24 25  1  0
 24 26  1  0
 23 27  1  0
 27 28  2  0
 28 29  1  0
 28 30  1  0
 30 31  1  0
 30 32  2  0
 32 33  1  0
 32 34  1  0
 34 35  1  0
 34 36  2  0
 36 37  1  0
 37 38  1  0
 38 39  1  0
 38 40  1  0
 38 41  1  0
 37 42  2  0
 42 43  1  0
 43 44  2  0
 44 45  1  0
 44 46  1  0
 46 47  1  0
 46  3  1  0
 43  4  1  0
 42 22  1  0
 36 27  1  0
M  CHG  1  37   1
M  END
>  <UniqueID>  (25) 
25

>  <SMILES>  (25) 
[H]/N=c1/[nH]cc2c3c(cc(NC(C)C)cc1-2)c(N)c1ccccc1[n+]3C

>  <Energy>  (25) 
137.6129464918977

>  <Genealogy>  (25) 
[H]/N=c1/[nH]cc2c3c(cc(NC(C)C)cc1-2)c(N)c1ccccc1[n+]3C (cis-trans isomerization)
[H]/N=c1/[nH]cc2c3c(cc(NC(C)C)cc1-2)c(N)c1ccccc1[n+]3C (3D coordinates assigned)
[H]/N=c1/[nH]cc2c3c(cc(NC(C)C)cc1-2)c(N)c1ccccc1[n+]3C (optimized conformer: 137.6129464918977 kcal/mol)

>  <smiles>  (25) 
CC(C)Nc1cc2c(=N)[nH]cc-2c2c(c1)c(N)c1ccccc1[n+]2C

>  <score_type>  (25) 
oracle

>  <origin>  (25) 
adg

>  <m_score__min__energy>  (25) 
-7.6799999999999997

>  <m_primary>  (25) 
energy

$$$$
25:0
     RDKit          3D

 52 53  0  0  0  0  0  0  0  0999 V2000
   -6.0170   25.0560  -29.4210 C   0  0  0  0  0  0  0  0  0  0  0  0
   -5.2310   25.6920  -30.5640 C   0  0  0  0  0  0  0  0  0  0  0  0
   -3.8720   25.2910  -30.5140 O   0  0  0  0  0  0  0  0  0  0  0  0
   -3.6160   24.4660  -29.3910 C   0  0  0  0  0  0  0  0  0  0  0  0
   -2.9700   23.1470  -29.8290 C   0  0  0  0  0  0  0  0  0  0  0  0
   -2.7980   23.1120  -31.2340 O   0  0  0  0  0  0  0  0  0  0  0  0
   -2.7580   21.7830  -31.7250 C   0  0  0  0  0  0  0  0  0  0  0  0
   -3.4790   21.6870  -33.0750 C   0  0  0  0  0  0  0  0  0  0  0  0
   -4.8810   21.2500  -32.9010 N   0  0  0  0  0  0  0  0  0  0  0  0
   -5.2970   20.0190  -33.3570 C   0  0  0  0  0  0  0  0  0  0  0  0
   -4.1530   18.8380  -34.1070 S   0  0  0  0  0  0  0  0  0  0  0  0
   -5.4300   17.8720  -34.9930 C   0  0  0  0  0  0  0  0  0  0  0  0
   -5.8990   16.6550  -34.1940 C   0  0  0  0  0  0  0  0  0  0  0  0
   -6.7520   17.0730  -33.1510 O   0  0  0  0  0  0  0  0  0  0  0  0
   -6.0830   16.9500  -31.9150 C   0  0  0  0  0  0  0  0  0  0  0  0
   -4.9780   15.9110  -32.0450 C   0  0  0  0  0  0  0  0  0  0  0  0
   -6.6080   19.6630  -33.2830 N   0  0  0  0  0  0  0  0  0  0  0  0
   -7.5370   20.4870  -32.7340 C   0  0  0  0  0  0  0  0  0  0  0  0
   -8.8830   20.0930  -32.6560 C   0  0  0  0  0  0  0  0  0  0  0  0
   -9.8310   20.9400  -32.0770 C   0  0  0  0  0  0  0  0  0  0  0  0
   -9.4460   22.1870  -31.5800 C   0  0  0  0  0  0  0  0  0  0  0  0
   -8.1100   22.5920  -31.6590 C   0  0  0  0  0  0  0  0  0  0  0  0
   -7.1460   21.7430  -32.2340 C   0  0  0  0  0  0  0  0  0  0  0  0
   -5.7950   22.1080  -32.3350 C   0  0  0  0  0  0  0  0  0  0  0  0
   -5.4250   23.2380  -31.9050 O   0  0  0  0  0  0  0  0  0  0  0  0
   -5.6020   25.3918  -28.4592 H   0  0  0  0  0  0  0  0  0  0  0  0
   -7.0727   25.3571  -29.4899 H   0  0  0  0  0  0  0  0  0  0  0  0
   -5.9428   23.9607  -29.4899 H   0  0  0  0  0  0  0  0  0  0  0  0
   -5.6669   25.3759  -31.5232 H   0  0  0  0  0  0  0  0  0  0  0  0
   -5.2833   26.7864  -30.4667 H   0  0  0  0  0  0  0  0  0  0  0  0
   -2.9364   24.9911  -28.7037 H   0  0  0  0  0  0  0  0  0  0  0  0
   -4.5688   24.2452  -28.8877 H   0  0  0  0  0  0  0  0  0  0  0  0
   -1.9881   23.0478  -29.3432 H   0  0  0  0  0  0  0  0  0  0  0  0
   -3.6293   22.3173  -29.5344 H   0  0  0  0  0  0  0  0  0  0  0  0
   -1.7095   21.4755  -31.8520 H   0  0  0  0  0  0  0  0  0  0  0  0
   -3.2625   21.1224  -31.0046 H   0  0  0  0  0  0  0  0  0  0  0  0
   -3.4682   22.6748  -33.5589 H   0  0  0  0  0  0  0  0  0  0  0  0
   -2.9570   20.9453  -33.6974 H   0  0  0  0  0  0  0  0  0  0  0  0
   -6.2954   18.5232  -35.1854 H   0  0  0  0  0  0  0  0  0  0  0  0
   -4.9843   17.5067  -35.9300 H   0  0  0  0  0  0  0  0  0  0  0  0
   -6.4433   15.9683  -34.8589 H   0  0  0  0  0  0  0  0  0  0  0  0
   -5.0258   16.1399  -33.7672 H   0  0  0  0  0  0  0  0  0  0  0  0
   -5.6452   17.9197  -31.6356 H   0  0  0  0  0  0  0  0  0  0  0  0
   -6.7961   16.6359  -31.1385 H   0  0  0  0  0  0  0  0  0  0  0  0
   -4.6473   15.6001  -31.0430 H   0  0  0  0  0  0  0  0  0  0  0  0
   -5.3594   15.0368  -32.5930 H   0  0  0  0  0  0  0  0  0  0  0  0
   -4.1289   16.3454  -32.5930 H   0  0  0  0  0  0  0  0  0  0  0  0
   -6.8990   18.7290  -33.6520 H   0  0  0  0  0  0  0  0  0  0  0  0
   -9.1916   19.1143  -33.0521 H   0  0  0  0  0  0  0  0  0  0  0  0
  -10.8827   20.6242  -32.0124 H   0  0  0  0  0  0  0  0  0  0  0  0
  -10.1952   22.8519  -31.1255 H   0  0  0  0  0  0  0  0  0  0  0  0
   -7.8116   23.5770  -31.2706 H   0  0  0  0  0  0  0  0  0  0  0  0
  1  2  1  0
  2  3  1  0
  3  4  1  0
  4  5  1  0
  5  6  1  0
  6  7  1  0
  7  8  1  0
  8  9  1  0
  9 10  1  0
 10 11  1  0
 11 12  1  0
 12 13  1  0
 13 14  1  0
 14 15  1  0
 15 16  1  0
 10 17  2  0
 17 18  1  0
 18 19  2  0
 19 20  1  0
 20 21  2  0
 21 22  1  0
 22 23  2  0
 23 24  1  0
 24 25  2  0
 24  9  1  0
 23 18  1  0
  1 26  1  0
  1 27  1  0
  1 28  1  0
  2 29  1  0
  2 30  1  0
  4 31  1  0
  4 32  1  0
  5 33  1  0
  5 34  1  0
  7 35  1  0
  7 36  1  0
  8 37  1  0
  8 38  1  0
 12 39  1  0
 12 40  1  0
 13 41  1  0
 13 42  1  0
 15 43  1  0
 15 44  1  0
 16 45  1  0
 16 46  1  0
 16 47  1  0
 17 48  1  0
 19 49  1  0
 20 50  1  0
 21 51  1  0
 22 52  1  0
M  CHG  1  17   1
M  END
>  <UniqueID>  (26) 
26

>  <SMILES>  (26) 
CCOCCOCCn1c(SCCOCC)[nH+]c2ccccc2c1=O

>  <Energy>  (26) 
50.718691104809004

>  <Genealogy>  (26) 
CCOCCOCCn1c(SCCOCC)[nH+]c2ccccc2c1=O (protonated)
CCOCCOCCn1c(SCCOCC)[nH+]c2ccccc2c1=O (3D coordinates assigned)
CCOCCOCCn1c(SCCOCC)[nH+]c2ccccc2c1=O (optimized conformer: 50.718691104809004 kcal/mol)

>  <smiles>  (26) 
CCOCCOCCn1c(SCCOCC)nc2ccccc2c1=O

>  <score_type>  (26) 
oracle

>  <origin>  (26) 
adg

>  <m_score__min__energy>  (26) 
-7.1799999999999997

>  <m_primary>  (26) 
energy

$$$$
26:0
     RDKit          3D

 85 87  0  0  0  0  0  0  0  0999 V2000
   -8.9300   18.8640  -32.3560 C   0  0  0  0  0  0  0  0  0  0  0  0
   -7.6230   19.5600  -32.4360 N   0  0  0  0  0  0  0  0  0  0  0  0
   -6.4900   18.8560  -32.7880 C   0  0  0  0  0  0  0  0  0  0  0  0
   -6.5740   17.5610  -33.3630 C   0  0  0  0  0  0  0  0  0  0  0  0
   -5.4310   16.8110  -33.6260 C   0  0  0  0  0  0  0  0  0  0  0  0
   -4.1800   17.3260  -33.3240 C   0  0  0  0  0  0  0  0  0  0  0  0
   -4.0580   18.6160  -32.8170 C   0  0  0  0  0  0  0  0  0  0  0  0
   -5.2000   19.4250  -32.5930 C   0  0  0  0  0  0  0  0  0  0  0  0
   -5.0860   20.7840  -32.1970 C   0  0  0  0  0  0  0  0  0  0  0  0
   -3.7830   21.4290  -32.1400 N   0  0  0  0  0  0  0  0  0  0  0  0
   -3.0830   21.2720  -33.4260 C   0  0  0  0  0  0  0  0  0  0  0  0
   -1.5620   21.1400  -33.2490 C   0  0  0  0  0  0  0  0  0  0  0  0
   -1.1540   20.0390  -32.2550 C   0  0  0  0  0  0  0  0  0  0  0  0
    0.2910   20.0390  -31.9770 N   0  0  0  0  0  0  0  0  0  0  0  0
    1.0640   19.4970  -33.1100 C   0  0  0  0  0  0  0  0  0  0  0  0
    0.2070   18.5900  -34.0060 C   0  0  0  0  0  0  0  0  0  0  0  0
    0.4320   17.0860  -33.7860 C   0  0  0  0  0  0  0  0  0  0  0  0
   -0.3380   16.5340  -32.5750 C   0  0  0  0  0  0  0  0  0  0  0  0
    0.5200   16.5730  -31.3010 C   0  0  0  0  0  0  0  0  0  0  0  0
   -0.1020   17.4260  -30.2810 N   0  0  0  0  0  0  0  0  0  0  0  0
    0.6200   17.3270  -29.0050 C   0  0  0  0  0  0  0  0  0  0  0  0
    1.7180   18.3970  -28.9280 C   0  0  0  0  0  0  0  0  0  0  0  0
    1.1540   19.8060  -28.6420 C   0  0  0  0  0  0  0  0  0  0  0  0
   -0.1760   20.0110  -29.2400 N   0  0  0  0  0  0  0  0  0  0  0  0
   -1.2290   20.3910  -28.2790 C   0  0  0  0  0  0  0  0  0  0  0  0
   -2.2560   21.4070  -28.8150 C   0  0  0  0  0  0  0  0  0  0  0  0
   -1.6560   22.4130  -29.8080 C   0  0  0  0  0  0  0  0  0  0  0  0
   -2.6920   23.0750  -30.6030 N   0  0  0  0  0  0  0  0  0  0  0  0
   -3.3460   24.4890  -29.8230 S   0  0  0  0  0  0  0  0  0  0  0  0
   -4.4430   24.0710  -28.4820 C   0  0  0  0  0  0  0  0  0  0  0  0
   -4.0850   25.3280  -30.8290 O   0  0  0  0  0  0  0  0  0  0  0  0
   -2.2050   25.2960  -29.2700 O   0  0  0  0  0  0  0  0  0  0  0  0
   -6.2710   21.5160  -31.9210 C   0  0  0  0  0  0  0  0  0  0  0  0
   -6.2280   22.8590  -31.4660 C   0  0  0  0  0  0  0  0  0  0  0  0
   -7.3940   23.6000  -31.3050 C   0  0  0  0  0  0  0  0  0  0  0  0
   -8.6260   23.0300  -31.5890 C   0  0  0  0  0  0  0  0  0  0  0  0
   -8.7040   21.6990  -31.9870 C   0  0  0  0  0  0  0  0  0  0  0  0
   -7.5390   20.8980  -32.1100 C   0  0  0  0  0  0  0  0  0  0  0  0
   -9.2038   18.7182  -31.3006 H   0  0  0  0  0  0  0  0  0  0  0  0
   -9.7000   19.4715  -32.8540 H   0  0  0  0  0  0  0  0  0  0  0  0
   -8.8557   17.8860  -32.8540 H   0  0  0  0  0  0  0  0  0  0  0  0
   -7.5616   17.1418  -33.6056 H   0  0  0  0  0  0  0  0  0  0  0  0
   -5.5206   15.8101  -34.0733 H   0  0  0  0  0  0  0  0  0  0  0  0
   -3.2810   16.7130  -33.4856 H   0  0  0  0  0  0  0  0  0  0  0  0
   -3.0590   19.0144  -32.5863 H   0  0  0  0  0  0  0  0  0  0  0  0
   -3.8740   22.4390  -31.8880 H   0  0  0  0  0  0  0  0  0  0  0  0
   -3.2110   21.0460  -31.3570 H   0  0  0  0  0  0  0  0  0  0  0  0
   -3.4608   20.3682  -33.9265 H   0  0  0  0  0  0  0  0  0  0  0  0
   -3.2753   22.1734  -34.0264 H   0  0  0  0  0  0  0  0  0  0  0  0
   -1.1162   20.9084  -34.2276 H   0  0  0  0  0  0  0  0  0  0  0  0
   -1.1992   22.0951  -32.8413 H   0  0  0  0  0  0  0  0  0  0  0  0
   -1.6951   20.1981  -31.3106 H   0  0  0  0  0  0  0  0  0  0  0  0
   -1.4076   19.0690  -32.7076 H   0  0  0  0  0  0  0  0  0  0  0  0
    0.4340   19.4100  -31.1510 H   0  0  0  0  0  0  0  0  0  0  0  0
    1.4459   20.3341  -33.7128 H   0  0  0  0  0  0  0  0  0  0  0  0
    1.8884   18.8933  -32.7027 H   0  0  0  0  0  0  0  0  0  0  0  0
   -0.8520   18.8121  -33.8080 H   0  0  0  0  0  0  0  0  0  0  0  0
    0.5029   18.8035  -35.0437 H   0  0  0  0  0  0  0  0  0  0  0  0
    0.1023   16.5469  -34.6864 H   0  0  0  0  0  0  0  0  0  0  0  0
    1.5042   16.9391  -33.5889 H   0  0  0  0  0  0  0  0  0  0  0  0
   -1.2410   17.1421  -32.4173 H   0  0  0  0  0  0  0  0  0  0  0  0
   -0.6043   15.4869  -32.7816 H   0  0  0  0  0  0  0  0  0  0  0  0
    0.6231   15.5523  -30.9040 H   0  0  0  0  0  0  0  0  0  0  0  0
    1.5076   16.9867  -31.5529 H   0  0  0  0  0  0  0  0  0  0  0  0
   -0.0550   18.4240  -30.5960 H   0  0  0  0  0  0  0  0  0  0  0  0
   -0.0877   17.4733  -28.1757 H   0  0  0  0  0  0  0  0  0  0  0  0
    1.0847   16.3325  -28.9338 H   0  0  0  0  0  0  0  0  0  0  0  0
    2.4173   18.1272  -28.1229 H   0  0  0  0  0  0  0  0  0  0  0  0
    2.2199   18.4309  -29.9062 H   0  0  0  0  0  0  0  0  0  0  0  0
    1.0762   19.9409  -27.5531 H   0  0  0  0  0  0  0  0  0  0  0  0
    1.8400   20.5391  -29.0913 H   0  0  0  0  0  0  0  0  0  0  0  0
   -0.1020   20.7500  -29.9770 H   0  0  0  0  0  0  0  0  0  0  0  0
   -1.7703   19.4793  -27.9860 H   0  0  0  0  0  0  0  0  0  0  0  0
   -0.7181   20.8814  -27.4373 H   0  0  0  0  0  0  0  0  0  0  0  0
   -3.0613   20.8548  -29.3215 H   0  0  0  0  0  0  0  0  0  0  0  0
   -2.6252   21.9818  -27.9529 H   0  0  0  0  0  0  0  0  0  0  0  0
   -1.0954   23.1756  -29.2475 H   0  0  0  0  0  0  0  0  0  0  0  0
   -0.9961   21.8634  -30.4953 H   0  0  0  0  0  0  0  0  0  0  0  0
   -3.9395   24.2629  -27.5230 H   0  0  0  0  0  0  0  0  0  0  0  0
   -5.3531   24.6854  -28.5477 H   0  0  0  0  0  0  0  0  0  0  0  0
   -4.7135   23.0068  -28.5477 H   0  0  0  0  0  0  0  0  0  0  0  0
   -5.2568   23.3218  -31.2368 H   0  0  0  0  0  0  0  0  0  0  0  0
   -7.3389   24.6403  -30.9517 H   0  0  0  0  0  0  0  0  0  0  0  0
   -9.5429   23.6311  -31.4995 H   0  0  0  0  0  0  0  0  0  0  0  0
   -9.6872   21.2593  -32.2105 H   0  0  0  0  0  0  0  0  0  0  0  0
  1  2  1  0
  2  3  2  0
  3  4  1  0
  4  5  2  0
  5  6  1  0
  6  7  2  0
  7  8  1  0
  8  9  2  0
  9 10  1  0
 10 11  1  0
 11 12  1  0
 12 13  1  0
 13 14  1  0
 14 15  1  0
 15 16  1  0
 16 17  1  0
 17 18  1  0
 18 19  1  0
 19 20  1  0
 20 21  1  0
 21 22  1  0
 22 23  1  0
 23 24  1  0
 24 25  1  0
 25 26  1  0
 26 27  1  0
 27 28  1  0
 28 29  1  0
 29 30  1  0
 29 31  2  0
 29 32  2  0
  9 33  1  0
 33 34  2  0
 34 35  1  0
 35 36  2  0
 36 37  1  0
 37 38  2  0
 38  2  1  0
  8  3  1  0
 38 33  1  0
  1 39  1  0
  1 40  1  0
  1 41  1  0
  4 42  1  0
  5 43  1  0
  6 44  1  0
  7 45  1  0
 10 46  1  0
 10 47  1  0
 11 48  1  0
 11 49  1  0
 12 50  1  0
 12 51  1  0
 13 52  1  0
 13 53  1  0
 14 54  1  0
 15 55  1  0
 15 56  1  0
 16 57  1  0
 16 58  1  0
 17 59  1  0
 17 60  1  0
 18 61  1  0
 18 62  1  0
 19 63  1  0
 19 64  1  0
 20 65  1  0
 21 66  1  0
 21 67  1  0
 22 68  1  0
 22 69  1  0
 23 70  1  0
 23 71  1  0
 24 72  1  0
 25 73  1  0
 25 74  1  0
 26 75  1  0
 26 76  1  0
 27 77  1  0
 27 78  1  0
 30 79  1  0
 30 80  1  0
 30 81  1  0
 34 82  1  0
 35 83  1  0
 36 84  1  0
 37 85  1  0
M  CHG  3   2   1  10   1  28  -1
M  END
>  <UniqueID>  (27) 
27

>  <SMILES>  (27) 
C[n+]1c2ccccc2c([NH2+]CCCNCCCCCNCCCNCCC[N-]S(C)(=O)=O)c2ccccc21

>  <Energy>  (27) 
88.9447615643971

>  <Genealogy>  (27) 
C[n+]1c2ccccc2c([NH2+]CCCNCCCCCNCCCNCCC[N-]S(C)(=O)=O)c2ccccc21 (protonated)
C[n+]1c2ccccc2c([NH2+]CCCNCCCCCNCCCNCCC[N-]S(C)(=O)=O)c2ccccc21 (3D coordinates assigned)
C[n+]1c2ccccc2c([NH2+]CCCNCCCCCNCCCNCCC[N-]S(C)(=O)=O)c2ccccc21 (optimized conformer: 88.9447615643971 kcal/mol)

>  <smiles>  (27) 
C[n+]1c2ccccc2c(NCCCNCCCCCNCCCNCCCNS(C)(=O)=O)c2ccccc21

>  <score_type>  (27) 
oracle

>  <origin>  (27) 
adg

>  <m_score__min__energy>  (27) 
-9.9499999999999993

>  <m_primary>  (27) 
energy

$$$$
27:0
     RDKit          3D

 42 43  0  0  0  0  0  0  0  0999 V2000
   -6.1560   25.6940  -29.4440 C   0  0  0  0  0  0  0  0  0  0  0  0
   -5.4110   24.8960  -30.4690 C   0  0  0  0  0  0  0  0  0  0  0  0
   -4.2790   25.3000  -30.8470 O   0  0  0  0  0  0  0  0  0  0  0  0
   -5.9870   23.6910  -31.0960 C   0  0  0  0  0  0  0  0  0  0  0  0
   -7.6250   23.2740  -30.9790 S   0  0  0  0  0  0  0  0  0  0  0  0
   -7.4710   21.7960  -31.7560 C   0  0  0  0  0  0  0  0  0  0  0  0
   -8.4680   20.8660  -32.0470 C   0  0  0  0  0  0  0  0  0  0  0  0
   -8.1030   19.6970  -32.7330 C   0  0  0  0  0  0  0  0  0  0  0  0
   -6.7620   19.4810  -33.1060 C   0  0  0  0  0  0  0  0  0  0  0  0
   -5.7760   20.4330  -32.8010 C   0  0  0  0  0  0  0  0  0  0  0  0
   -6.1490   21.5980  -32.1220 C   0  0  0  0  0  0  0  0  0  0  0  0
   -5.3140   22.6700  -31.7860 C   0  0  0  0  0  0  0  0  0  0  0  0
   -3.9700   22.7140  -32.1720 O   0  0  0  0  0  0  0  0  0  0  0  0
   -2.9340   22.0470  -31.4480 C   0  0  0  0  0  0  0  0  0  0  0  0
   -3.1750   22.1320  -29.9410 C   0  0  0  0  0  0  0  0  0  0  0  0
   -2.9130   23.4480  -29.4970 O   0  0  0  0  0  0  0  0  0  0  0  0
   -3.3490   23.6250  -28.1620 C   0  0  0  0  0  0  0  0  0  0  0  0
   -2.4310   24.6180  -27.4420 C   0  0  0  0  0  0  0  0  0  0  0  0
   -1.3990   25.1500  -28.3590 N   0  0  0  0  0  0  0  0  0  0  0  0
   -0.3020   24.1820  -28.5370 C   0  0  0  0  0  0  0  0  0  0  0  0
   -0.8530   26.4090  -27.8280 C   0  0  0  0  0  0  0  0  0  0  0  0
   -5.8540   25.3705  -28.4370 H   0  0  0  0  0  0  0  0  0  0  0  0
   -5.9241   26.7617  -29.5711 H   0  0  0  0  0  0  0  0  0  0  0  0
   -7.2371   25.5359  -29.5711 H   0  0  0  0  0  0  0  0  0  0  0  0
   -9.5115   21.0433  -31.7474 H   0  0  0  0  0  0  0  0  0  0  0  0
   -8.8678   18.9461  -32.9805 H   0  0  0  0  0  0  0  0  0  0  0  0
   -6.4853   18.5600  -33.6400 H   0  0  0  0  0  0  0  0  0  0  0  0
   -4.7282   20.2657  -33.0910 H   0  0  0  0  0  0  0  0  0  0  0  0
   -2.9088   20.9893  -31.7489 H   0  0  0  0  0  0  0  0  0  0  0  0
   -1.9760   22.5365  -31.6773 H   0  0  0  0  0  0  0  0  0  0  0  0
   -4.2210   21.8721  -29.7214 H   0  0  0  0  0  0  0  0  0  0  0  0
   -2.5067   21.4293  -29.4219 H   0  0  0  0  0  0  0  0  0  0  0  0
   -4.3780   24.0138  -28.1627 H   0  0  0  0  0  0  0  0  0  0  0  0
   -3.3178   22.6577  -27.6392 H   0  0  0  0  0  0  0  0  0  0  0  0
   -3.0355   25.4530  -27.0582 H   0  0  0  0  0  0  0  0  0  0  0  0
   -1.9280   24.0935  -26.6162 H   0  0  0  0  0  0  0  0  0  0  0  0
    0.0648   23.8583  -27.5518 H   0  0  0  0  0  0  0  0  0  0  0  0
   -0.6703   23.3092  -29.0960 H   0  0  0  0  0  0  0  0  0  0  0  0
    0.5182   24.6561  -29.0960 H   0  0  0  0  0  0  0  0  0  0  0  0
   -0.8659   26.3794  -26.7285 H   0  0  0  0  0  0  0  0  0  0  0  0
    0.1815   26.5371  -28.1793 H   0  0  0  0  0  0  0  0  0  0  0  0
   -1.4665   27.2518  -28.1793 H   0  0  0  0  0  0  0  0  0  0  0  0
  1  2  1  0
  2  3  2  0
  2  4  1  0
  4  5  1  0
  5  6  1  0
  6  7  2  0
  7  8  1  0
  8  9  2  0
  9 10  1  0
 10 11  2  0
 11 12  1  0
 12 13  1  0
 13 14  1  0
 14 15  1  0
 15 16  1  0
 16 17  1  0
 17 18  1  0
 18 19  1  0
 19 20  1  0
 19 21  1  0
 12  4  2  0
 11  6  1  0
  1 22  1  0
  1 23  1  0
  1 24  1  0
  7 25  1  0
  8 26  1  0
  9 27  1  0
 10 28  1  0
 14 29  1  0
 14 30  1  0
 15 31  1  0
 15 32  1  0
 17 33  1  0
 17 34  1  0
 18 35  1  0
 18 36  1  0
 20 37  1  0
 20 38  1  0
 20 39  1  0
 21 40  1  0
 21 41  1  0
 21 42  1  0
M  END
>  <UniqueID>  (28) 
28

>  <SMILES>  (28) 
CC(=O)c1sc2ccccc2c1OCCOCCN(C)C

>  <Energy>  (28) 
74.87688145967658

>  <Genealogy>  (28) 
CC(=O)c1sc2ccccc2c1OCCOCCN(C)C (3D coordinates assigned)
CC(=O)c1sc2ccccc2c1OCCOCCN(C)C (optimized conformer: 74.87688145967658 kcal/mol)

>  <smiles>  (28) 
CC(=O)c1sc2ccccc2c1OCCOCCN(C)C

>  <score_type>  (28) 
oracle

>  <origin>  (28) 
adg

>  <m_score__min__energy>  (28) 
-7.9800000000000004

>  <m_primary>  (28) 
energy

$$$$
