0:0
     RDKit          3D

 51 52  0  0  0  0  0  0  0  0999 V2000
   -3.4880   18.5740  -34.1920 C   0  0  0  0  0  0  0  0  0  0  0  0
   -3.3430   17.3910  -33.2420 C   0  0  0  0  0  0  0  0  0  0  0  0
   -4.3640   16.3670  -33.5600 N   0  0  0  0  0  0  0  0  0  0  0  0
   -4.6880   15.5080  -32.3930 C   0  0  0  0  0  0  0  0  0  0  0  0
   -4.0810   14.0980  -32.4530 C   0  0  0  0  0  0  0  0  0  0  0  0
   -5.5380   16.9410  -34.2560 C   0  0  0  0  0  0  0  0  0  0  0  0
   -6.8550   16.3810  -33.7120 C   0  0  0  0  0  0  0  0  0  0  0  0
   -7.1960   17.0620  -32.5080 O   0  0  0  0  0  0  0  0  0  0  0  0
   -7.4030   18.4470  -32.4100 C   0  0  0  0  0  0  0  0  0  0  0  0
   -8.6790   18.9030  -32.0820 C   0  0  0  0  0  0  0  0  0  0  0  0
   -8.9360   20.2690  -31.9620 C   0  0  0  0  0  0  0  0  0  0  0  0
   -7.9160   21.2160  -32.1590 C   0  0  0  0  0  0  0  0  0  0  0  0
   -6.6260   20.7630  -32.5270 C   0  0  0  0  0  0  0  0  0  0  0  0
   -6.3770   19.3820  -32.6330 C   0  0  0  0  0  0  0  0  0  0  0  0
   -5.5010   21.7280  -32.7660 C   0  0  0  0  0  0  0  0  0  0  0  0
   -5.2110   22.6000  -31.5250 C   0  0  0  0  0  0  0  0  0  0  0  0
   -6.0500   23.8270  -31.4080 N   0  0  2  0  0  0  0  0  0  0  0  0
   -5.4520   24.8980  -30.6220 C   0  0  0  0  0  0  0  0  0  0  0  0
   -6.2280   25.5670  -29.5230 C   0  0  0  0  0  0  0  0  0  0  0  0
   -4.3060   25.2730  -30.8320 O   0  0  0  0  0  0  0  0  0  0  0  0
   -7.4550   23.5480  -31.0190 C   0  0  0  0  0  0  0  0  0  0  0  0
   -8.2770   22.6850  -32.0140 C   0  0  0  0  0  0  0  0  0  0  0  0
   -3.6015   19.5002  -33.6096 H   0  0  0  0  0  0  0  0  0  0  0  0
   -2.5921   18.6471  -34.8260 H   0  0  0  0  0  0  0  0  0  0  0  0
   -4.3750   18.4285  -34.8260 H   0  0  0  0  0  0  0  0  0  0  0  0
   -2.3398   16.9538  -33.3531 H   0  0  0  0  0  0  0  0  0  0  0  0
   -3.4833   17.7359  -32.2069 H   0  0  0  0  0  0  0  0  0  0  0  0
   -4.3138   16.0050  -31.4859 H   0  0  0  0  0  0  0  0  0  0  0  0
   -5.7804   15.3790  -32.3926 H   0  0  0  0  0  0  0  0  0  0  0  0
   -3.9201   13.7243  -31.4310 H   0  0  0  0  0  0  0  0  0  0  0  0
   -4.7691   13.4249  -32.9855 H   0  0  0  0  0  0  0  0  0  0  0  0
   -3.1192   14.1352  -32.9855 H   0  0  0  0  0  0  0  0  0  0  0  0
   -5.5329   18.0326  -34.1206 H   0  0  0  0  0  0  0  0  0  0  0  0
   -5.4677   16.6729  -35.3205 H   0  0  0  0  0  0  0  0  0  0  0  0
   -7.6519   16.5287  -34.4557 H   0  0  0  0  0  0  0  0  0  0  0  0
   -6.7412   15.3062  -33.5072 H   0  0  0  0  0  0  0  0  0  0  0  0
   -9.4905   18.1792  -31.9163 H   0  0  0  0  0  0  0  0  0  0  0  0
   -9.9510   20.6097  -31.7097 H   0  0  0  0  0  0  0  0  0  0  0  0
   -5.3679   19.0300  -32.8934 H   0  0  0  0  0  0  0  0  0  0  0  0
   -4.5941   21.1598  -33.0202 H   0  0  0  0  0  0  0  0  0  0  0  0
   -5.7965   22.3962  -33.5883 H   0  0  0  0  0  0  0  0  0  0  0  0
   -5.3790   21.9848  -30.6287 H   0  0  0  0  0  0  0  0  0  0  0  0
   -4.1720   22.9463  -31.6281 H   0  0  0  0  0  0  0  0  0  0  0  0
   -6.0980   24.2090  -32.3830 H   0  0  0  0  0  0  0  0  0  0  0  0
   -5.8428   25.2349  -28.5476 H   0  0  0  0  0  0  0  0  0  0  0  0
   -6.1182   26.6582  -29.6084 H   0  0  0  0  0  0  0  0  0  0  0  0
   -7.2911   25.2977  -29.6084 H   0  0  0  0  0  0  0  0  0  0  0  0
   -7.4390   23.0237  -30.0521 H   0  0  0  0  0  0  0  0  0  0  0  0
   -7.9555   24.5271  -30.9912 H   0  0  0  0  0  0  0  0  0  0  0  0
   -9.3287   22.7324  -31.6951 H   0  0  0  0  0  0  0  0  0  0  0  0
   -8.0539   23.1190  -32.9998 H   0  0  0  0  0  0  0  0  0  0  0  0
  1  2  1  0
  2  3  1  0
  3  4  1  0
  4  5  1  0
  3  6  1  0
  6  7  1  0
  7  8  1  0
  8  9  1  0
  9 10  2  0
 10 11  1  0
 11 12  2  0
 12 13  1  0
 13 14  2  0
 13 15  1  0
 15 16  1  0
 16 17  1  0
 17 18  1  0
 18 19  1  0
 18 20  2  0
 17 21  1  0
 21 22  1  0
 14  9  1  0
 22 12  1  0
  1 23  1  0
  1 24  1  0
  1 25  1  0
  2 26  1  0
  2 27  1  0
  4 28  1  0
  4 29  1  0
  5 30  1  0
  5 31  1  0
  5 32  1  0
  6 33  1  0
  6 34  1  0
  7 35  1  0
  7 36  1  0
 10 37  1  0
 11 38  1  0
 14 39  1  0
 15 40  1  0
 15 41  1  0
 16 42  1  0
 16 43  1  0
 17 44  1  6
 19 45  1  0
 19 46  1  0
 19 47  1  0
 21 48  1  0
 21 49  1  0
 22 50  1  0
 22 51  1  0
M  CHG  1  17   1
M  END
>  <UniqueID>  (1) 
1

>  <SMILES>  (1) 
CCN(CC)CCOc1ccc2c(c1)CC[N@H+](C(C)=O)CC2

>  <Energy>  (1) 
68.30950705711237

>  <Genealogy>  (1) 
CCN(CC)CCOc1ccc2c(c1)CC[NH+](C(C)=O)CC2 (protonated)
CCN(CC)CCOc1ccc2c(c1)CC[N@H+](C(C)=O)CC2 (chirality)
CCN(CC)CCOc1ccc2c(c1)CC[N@H+](C(C)=O)CC2 (3D coordinates assigned)
CCN(CC)CCOc1ccc2c(c1)CC[N@H+](C(C)=O)CC2 (nonaromatic ring conformer: 68.30950705711237 kcal/mol)

>  <smiles>  (1) 
CCN(CC)CCOc1ccc2c(c1)CCN(C(C)=O)CC2

>  <score_type>  (1) 
oracle

>  <origin>  (1) 
adg

>  <m_score__min__energy>  (1) 
-5.7699999999999996

>  <m_primary>  (1) 
energy

$$$$
1:0
     RDKit          3D

 55 57  0  0  0  0  0  0  0  0999 V2000
   -4.0750   20.9040  -33.0990 C   0  0  0  0  0  0  0  0  0  0  0  0
   -5.4810   21.1220  -33.0780 O   0  0  0  0  0  0  0  0  0  0  0  0
   -6.4360   20.1560  -32.7170 C   0  0  0  0  0  0  0  0  0  0  0  0
   -6.1840   18.7740  -32.8520 C   0  0  0  0  0  0  0  0  0  0  0  0
   -7.1440   17.8390  -32.4690 C   0  0  0  0  0  0  0  0  0  0  0  0
   -8.3710   18.2640  -31.9570 C   0  0  0  0  0  0  0  0  0  0  0  0
   -8.6390   19.6270  -31.8220 C   0  0  0  0  0  0  0  0  0  0  0  0
   -7.6810   20.5840  -32.2030 C   0  0  0  0  0  0  0  0  0  0  0  0
   -7.9820   22.0580  -32.0190 C   0  0  0  0  0  0  0  0  0  0  0  0
   -6.7550   22.8720  -31.9310 N   0  0  0  0  0  0  0  0  0  0  0  0
   -6.9770   24.1530  -31.2360 C   0  0  0  0  0  0  0  0  0  0  0  0
   -5.6460   24.8080  -30.8450 C   0  0  0  0  0  0  0  0  0  0  0  0
   -4.5730   23.9440  -31.2060 O   0  0  0  0  0  0  0  0  0  0  0  0
   -3.6010   23.5290  -30.2970 C   0  0  0  0  0  0  0  0  0  0  0  0
   -3.6890   23.9640  -28.9710 C   0  0  0  0  0  0  0  0  0  0  0  0
   -2.7350   23.5710  -28.0330 C   0  0  0  0  0  0  0  0  0  0  0  0
   -1.6360   22.7800  -28.4200 C   0  0  0  0  0  0  0  0  0  0  0  0
   -0.5520   22.4160  -27.4160 C   0  0  0  0  0  0  0  0  0  0  0  0
   -0.6170   21.0130  -26.9370 N   0  0  0  0  0  0  0  0  0  0  0  0
   -1.9950   20.4880  -26.8080 C   0  0  0  0  0  0  0  0  0  0  0  0
   -1.9800   18.9630  -26.5690 C   0  0  0  0  0  0  0  0  0  0  0  0
   -1.2450   18.2010  -27.5250 O   0  0  0  0  0  0  0  0  0  0  0  0
   -0.4270   18.9830  -28.3790 C   0  0  0  0  0  0  0  0  0  0  0  0
    0.3190   20.0870  -27.6150 C   0  0  0  0  0  0  0  0  0  0  0  0
   -1.5550   22.3380  -29.7580 C   0  0  0  0  0  0  0  0  0  0  0  0
   -0.5150   21.5680  -30.1690 F   0  0  0  0  0  0  0  0  0  0  0  0
   -2.5330   22.7070  -30.6850 C   0  0  0  0  0  0  0  0  0  0  0  0
   -3.6976   20.8455  -32.0674 H   0  0  0  0  0  0  0  0  0  0  0  0
   -3.8579   19.9615  -33.6229 H   0  0  0  0  0  0  0  0  0  0  0  0
   -3.5826   21.7365  -33.6229 H   0  0  0  0  0  0  0  0  0  0  0  0
   -5.2225   18.4321  -33.2627 H   0  0  0  0  0  0  0  0  0  0  0  0
   -6.9343   16.7639  -32.5704 H   0  0  0  0  0  0  0  0  0  0  0  0
   -9.1280   17.5234  -31.6594 H   0  0  0  0  0  0  0  0  0  0  0  0
   -9.6066   19.9554  -31.4146 H   0  0  0  0  0  0  0  0  0  0  0  0
   -8.5778   22.4072  -32.8752 H   0  0  0  0  0  0  0  0  0  0  0  0
   -8.5321   22.1742  -31.0735 H   0  0  0  0  0  0  0  0  0  0  0  0
   -6.0110   22.3230  -31.4380 H   0  0  0  0  0  0  0  0  0  0  0  0
   -6.4230   23.0620  -32.9080 H   0  0  0  0  0  0  0  0  0  0  0  0
   -7.5294   24.8320  -31.9022 H   0  0  0  0  0  0  0  0  0  0  0  0
   -7.5525   23.9575  -30.3191 H   0  0  0  0  0  0  0  0  0  0  0  0
   -5.5392   25.7671  -31.3730 H   0  0  0  0  0  0  0  0  0  0  0  0
   -5.6272   24.9856  -29.7596 H   0  0  0  0  0  0  0  0  0  0  0  0
   -4.5167   24.6209  -28.6656 H   0  0  0  0  0  0  0  0  0  0  0  0
   -2.8416   23.8811  -26.9830 H   0  0  0  0  0  0  0  0  0  0  0  0
    0.4270   22.5736  -27.8922 H   0  0  0  0  0  0  0  0  0  0  0  0
   -0.7049   23.0590  -26.5367 H   0  0  0  0  0  0  0  0  0  0  0  0
   -2.4909   20.9813  -25.9591 H   0  0  0  0  0  0  0  0  0  0  0  0
   -2.5396   20.6935  -27.7414 H   0  0  0  0  0  0  0  0  0  0  0  0
   -1.5399   18.7792  -25.5778 H   0  0  0  0  0  0  0  0  0  0  0  0
   -3.0254   18.6322  -26.6569 H   0  0  0  0  0  0  0  0  0  0  0  0
    0.3109   18.3258  -28.8624 H   0  0  0  0  0  0  0  0  0  0  0  0
   -1.0786   19.4668  -29.1215 H   0  0  0  0  0  0  0  0  0  0  0  0
    0.9689   19.6210  -26.8597 H   0  0  0  0  0  0  0  0  0  0  0  0
    0.9094   20.6665  -28.3400 H   0  0  0  0  0  0  0  0  0  0  0  0
   -2.4650   22.3513  -31.7237 H   0  0  0  0  0  0  0  0  0  0  0  0
  1  2  1  0
  2  3  1  0
  3  4  2  0
  4  5  1  0
  5  6  2  0
  6  7  1  0
  7  8  2  0
  8  9  1  0
  9 10  1  0
 10 11  1  0
 11 12  1  0
 12 13  1  0
 13 14  1  0
 14 15  2  0
 15 16  1  0
 16 17  2  0
 17 18  1  0
 18 19  1  0
 19 20  1  0
 20 21  1  0
 21 22  1  0
 22 23  1  0
 23 24  1  0
 17 25  1  0
 25 26  1  0
 25 27  2  0
  8  3  1  0
 27 14  1  0
 24 19  1  0
  1 28  1  0
  1 29  1  0
  1 30  1  0
  4 31  1  0
  5 32  1  0
  6 33  1  0
  7 34  1  0
  9 35  1  0
  9 36  1  0
 10 37  1  0
 10 38  1  0
 11 39  1  0
 11 40  1  0
 12 41  1  0
 12 42  1  0
 15 43  1  0
 16 44  1  0
 18 45  1  0
 18 46  1  0
 20 47  1  0
 20 48  1  0
 21 49  1  0
 21 50  1  0
 23 51  1  0
 23 52  1  0
 24 53  1  0
 24 54  1  0
 27 55  1  0
M  CHG  1  10   1
M  END
>  <UniqueID>  (2) 
2

>  <SMILES>  (2) 
COc1ccccc1C[NH2+]CCOc1ccc(CN2CCOCC2)c(F)c1

>  <Energy>  (2) 
76.12980739505193

>  <Genealogy>  (2) 
COc1ccccc1C[NH2+]CCOc1ccc(CN2CCOCC2)c(F)c1 (protonated)
COc1ccccc1C[NH2+]CCOc1ccc(CN2CCOCC2)c(F)c1 (3D coordinates assigned)
COc1ccccc1C[NH2+]CCOc1ccc(CN2CCOCC2)c(F)c1 (nonaromatic ring conformer: 76.12980739505193 kcal/mol)

>  <smiles>  (2) 
COc1ccccc1CNCCOc1ccc(CN2CCOCC2)c(F)c1

>  <score_type>  (2) 
oracle

>  <origin>  (2) 
adg

>  <m_score__min__energy>  (2) 
-7.4299999999999997

>  <m_primary>  (2) 
energy

$$$$
2:0
     RDKit          3D

 46 47  0  0  0  0  0  0  0  0999 V2000
   -1.6060   25.8920  -26.6360 C   0  0  0  0  0  0  0  0  0  0  0  0
   -2.8700   25.1450  -26.2010 C   0  0  0  0  0  0  0  0  0  0  0  0
   -3.5800   24.5380  -27.3390 N   0  0  0  0  0  0  0  0  0  0  0  0
   -2.7570   23.5520  -28.0580 C   0  0  0  0  0  0  0  0  0  0  0  0
   -2.1690   24.1680  -29.3250 C   0  0  0  0  0  0  0  0  0  0  0  0
   -3.1720   24.9250  -29.9960 O   0  0  0  0  0  0  0  0  0  0  0  0
   -4.4580   24.4800  -30.3470 C   0  0  0  0  0  0  0  0  0  0  0  0
   -5.5490   25.2170  -29.8540 C   0  0  0  0  0  0  0  0  0  0  0  0
   -6.8690   24.8460  -30.1560 C   0  0  0  0  0  0  0  0  0  0  0  0
   -7.1210   23.7270  -30.9570 C   0  0  0  0  0  0  0  0  0  0  0  0
   -6.0340   22.9960  -31.4430 C   0  0  0  0  0  0  0  0  0  0  0  0
   -4.7360   23.3480  -31.1510 C   0  0  0  0  0  0  0  0  0  0  0  0
   -3.8070   22.3350  -31.7500 C   0  0  0  0  0  0  0  0  0  0  0  0
   -4.7430   21.3270  -32.4550 C   0  0  0  0  0  0  0  0  0  0  0  0
   -6.0960   21.8190  -32.2300 N   0  0  0  0  0  0  0  0  0  0  0  0
   -7.3070   21.1610  -32.7200 C   0  0  0  0  0  0  0  0  0  0  0  0
   -8.0480   20.4840  -31.5630 C   0  0  0  0  0  0  0  0  0  0  0  0
   -9.0300   19.4280  -32.0760 C   0  0  0  0  0  0  0  0  0  0  0  0
   -8.5860   18.1340  -31.7140 O   0  0  0  0  0  0  0  0  0  0  0  0
   -7.3680   17.8300  -32.3590 C   0  0  0  0  0  0  0  0  0  0  0  0
   -1.0497   26.2208  -25.7458 H   0  0  0  0  0  0  0  0  0  0  0  0
   -0.9732   25.2227  -27.2373 H   0  0  0  0  0  0  0  0  0  0  0  0
   -1.8871   26.7691  -27.2373 H   0  0  0  0  0  0  0  0  0  0  0  0
   -2.5859   24.3495  -25.4963 H   0  0  0  0  0  0  0  0  0  0  0  0
   -3.5472   25.8741  -25.7322 H   0  0  0  0  0  0  0  0  0  0  0  0
   -3.8790   25.2870  -28.0070 H   0  0  0  0  0  0  0  0  0  0  0  0
   -1.9379   23.2185  -27.4039 H   0  0  0  0  0  0  0  0  0  0  0  0
   -3.3902   22.6975  -28.3389 H   0  0  0  0  0  0  0  0  0  0  0  0
   -1.3304   24.8274  -29.0568 H   0  0  0  0  0  0  0  0  0  0  0  0
   -1.8093   23.3676  -29.9883 H   0  0  0  0  0  0  0  0  0  0  0  0
   -5.3656   26.0982  -29.2217 H   0  0  0  0  0  0  0  0  0  0  0  0
   -7.7083   25.4374  -29.7613 H   0  0  0  0  0  0  0  0  0  0  0  0
   -8.1520   23.4293  -31.1988 H   0  0  0  0  0  0  0  0  0  0  0  0
   -3.1286   22.8091  -32.4745 H   0  0  0  0  0  0  0  0  0  0  0  0
   -3.1655   21.8558  -30.9958 H   0  0  0  0  0  0  0  0  0  0  0  0
   -4.5233   21.2887  -33.5322 H   0  0  0  0  0  0  0  0  0  0  0  0
   -4.6115   20.3082  -32.0616 H   0  0  0  0  0  0  0  0  0  0  0  0
   -7.9652   21.9105  -33.1836 H   0  0  0  0  0  0  0  0  0  0  0  0
   -7.0255   20.3979  -33.4606 H   0  0  0  0  0  0  0  0  0  0  0  0
   -7.3143   20.0002  -30.9014 H   0  0  0  0  0  0  0  0  0  0  0  0
   -8.6162   21.2516  -31.0171 H   0  0  0  0  0  0  0  0  0  0  0  0
  -10.0216   19.6088  -31.6355 H   0  0  0  0  0  0  0  0  0  0  0  0
   -9.0896   19.4944  -33.1724 H   0  0  0  0  0  0  0  0  0  0  0  0
   -6.5917   17.6362  -31.6041 H   0  0  0  0  0  0  0  0  0  0  0  0
   -7.4990   16.9370  -32.9878 H   0  0  0  0  0  0  0  0  0  0  0  0
   -7.0640   18.6798  -32.9878 H   0  0  0  0  0  0  0  0  0  0  0  0
  1  2  1  0
  2  3  1  0
  3  4  1  0
  4  5  1  0
  5  6  1  0
  6  7  1  0
  7  8  2  0
  8  9  1  0
  9 10  2  0
 10 11  1  0
 11 12  2  0
 12 13  1  0
 13 14  1  0
 14 15  1  0
 15 16  1  0
 16 17  1  0
 17 18  1  0
 18 19  1  0
 19 20  1  0
 12  7  1  0
 15 11  1  0
  1 21  1  0
  1 22  1  0
  1 23  1  0
  2 24  1  0
  2 25  1  0
  3 26  1  0
  4 27  1  0
  4 28  1  0
  5 29  1  0
  5 30  1  0
  8 31  1  0
  9 32  1  0
 10 33  1  0
 13 34  1  0
 13 35  1  0
 14 36  1  0
 14 37  1  0
 16 38  1  0
 16 39  1  0
 17 40  1  0
 17 41  1  0
 18 42  1  0
 18 43  1  0
 20 44  1  0
 20 45  1  0
 20 46  1  0
M  END
>  <UniqueID>  (3) 
3

>  <SMILES>  (3) 
CCNCCOc1cccc2c1CCN2CCCOC

>  <Energy>  (3) 
54.51264921693097

>  <Genealogy>  (3) 
CCNCCOc1cccc2c1CCN2CCCOC (3D coordinates assigned)
CCNCCOc1cccc2c1CCN2CCCOC (nonaromatic ring conformer: 54.51264921693097 kcal/mol)

>  <smiles>  (3) 
CCNCCOc1cccc2c1CCN2CCCOC

>  <score_type>  (3) 
oracle

>  <origin>  (3) 
adg

>  <m_score__min__energy>  (3) 
-7.25

>  <m_primary>  (3) 
energy

$$$$
3:0
     RDKit          3D

 51 53  0  0  0  0  0  0  0  0999 V2000
   -1.1950   27.1100  -25.7560 C   0  0  0  0  0  0  0  0  0  0  0  0
   -0.7550   26.2320  -24.5850 C   0  0  0  0  0  0  0  0  0  0  0  0
   -0.0600   25.0100  -25.0380 N   0  0  0  0  0  0  0  0  0  0  0  0
    1.2480   25.3270  -25.6350 C   0  0  0  0  0  0  0  0  0  0  0  0
   -0.8680   24.0760  -25.8640 C   0  0  0  0  0  0  0  0  0  0  0  0
   -0.3400   23.8000  -27.2920 C   0  0  0  0  0  0  0  0  0  0  0  0
   -1.4150   23.7020  -28.2910 N   0  0  0  0  0  0  0  0  0  0  0  0
   -1.9260   24.7350  -28.9960 C   0  0  0  0  0  0  0  0  0  0  0  0
   -1.4730   26.0460  -28.9090 O   0  0  0  0  0  0  0  0  0  0  0  0
   -2.9470   24.3060  -29.8090 C   0  0  0  0  0  0  0  0  0  0  0  0
   -3.7150   25.0930  -30.6620 O   0  0  0  0  0  0  0  0  0  0  0  0
   -3.0640   22.9430  -29.6310 C   0  0  0  0  0  0  0  0  0  0  0  0
   -4.0550   22.0720  -30.2920 C   0  0  0  0  0  0  0  0  0  0  0  0
   -3.8020   20.8440  -30.4150 O   0  0  0  0  0  0  0  0  0  0  0  0
   -5.3380   22.5940  -30.7940 C   0  0  0  0  0  0  0  0  0  0  0  0
   -6.2090   23.4160  -30.0880 C   0  0  0  0  0  0  0  0  0  0  0  0
   -7.3360   23.7940  -30.8270 C   0  0  0  0  0  0  0  0  0  0  0  0
   -7.3520   23.2890  -32.1200 C   0  0  0  0  0  0  0  0  0  0  0  0
   -5.9600   22.3730  -32.3440 S   0  0  0  0  0  0  0  0  0  0  0  0
   -2.0950   22.5920  -28.6890 C   0  0  0  0  0  0  0  0  0  0  0  0
   -1.9070   21.2390  -28.1250 C   0  0  0  0  0  0  0  0  0  0  0  0
   -2.9430   20.6290  -27.4010 C   0  0  0  0  0  0  0  0  0  0  0  0
   -2.7770   19.3420  -26.8870 C   0  0  0  0  0  0  0  0  0  0  0  0
   -1.5820   18.6520  -27.0970 C   0  0  0  0  0  0  0  0  0  0  0  0
   -0.5420   19.2380  -27.8270 C   0  0  0  0  0  0  0  0  0  0  0  0
    0.6360   18.5010  -28.0180 O   0  0  0  0  0  0  0  0  0  0  0  0
    1.9110   19.0780  -28.2790 C   0  0  0  0  0  0  0  0  0  0  0  0
   -0.7110   20.5370  -28.3440 C   0  0  0  0  0  0  0  0  0  0  0  0
   -1.6566   28.0311  -25.3705 H   0  0  0  0  0  0  0  0  0  0  0  0
   -0.3196   27.3678  -26.3702 H   0  0  0  0  0  0  0  0  0  0  0  0
   -1.9255   26.5630  -26.3702 H   0  0  0  0  0  0  0  0  0  0  0  0
   -0.0737   26.8107  -23.9440 H   0  0  0  0  0  0  0  0  0  0  0  0
   -1.6563   25.9249  -24.0342 H   0  0  0  0  0  0  0  0  0  0  0  0
    1.9824   25.5050  -24.8357 H   0  0  0  0  0  0  0  0  0  0  0  0
    1.5809   24.4835  -26.2577 H   0  0  0  0  0  0  0  0  0  0  0  0
    1.1579   26.2293  -26.2577 H   0  0  0  0  0  0  0  0  0  0  0  0
   -0.9180   23.1143  -25.3324 H   0  0  0  0  0  0  0  0  0  0  0  0
   -1.8425   24.5681  -25.9990 H   0  0  0  0  0  0  0  0  0  0  0  0
    0.3343   24.6195  -27.5813 H   0  0  0  0  0  0  0  0  0  0  0  0
    0.1795   22.8306  -27.2701 H   0  0  0  0  0  0  0  0  0  0  0  0
   -3.4640   26.0560  -30.8480 H   0  0  0  0  0  0  0  0  0  0  0  0
   -6.0302   23.7375  -29.0513 H   0  0  0  0  0  0  0  0  0  0  0  0
   -8.1348   24.4320  -30.4209 H   0  0  0  0  0  0  0  0  0  0  0  0
   -8.1396   23.4588  -32.8689 H   0  0  0  0  0  0  0  0  0  0  0  0
   -3.8887   21.1668  -27.2381 H   0  0  0  0  0  0  0  0  0  0  0  0
   -3.5898   18.8704  -26.3151 H   0  0  0  0  0  0  0  0  0  0  0  0
   -1.4568   17.6396  -26.6854 H   0  0  0  0  0  0  0  0  0  0  0  0
    2.4126   19.3050  -27.3267 H   0  0  0  0  0  0  0  0  0  0  0  0
    2.5231   18.3692  -28.8560 H   0  0  0  0  0  0  0  0  0  0  0  0
    1.7825   20.0057  -28.8560 H   0  0  0  0  0  0  0  0  0  0  0  0
    0.0991   21.0045  -28.9230 H   0  0  0  0  0  0  0  0  0  0  0  0
  1  2  1  0
  2  3  1  0
  3  4  1  0
  3  5  1  0
  5  6  1  0
  6  7  1  0
  7  8  1  0
  8  9  1  0
  8 10  2  0
 10 11  1  0
 10 12  1  0
 12 13  1  0
 13 14  2  0
 13 15  1  0
 15 16  2  0
 16 17  1  0
 17 18  2  0
 18 19  1  0
 12 20  2  0
 20 21  1  0
 21 22  2  0
 22 23  1  0
 23 24  2  0
 24 25  1  0
 25 26  1  0
 26 27  1  0
 25 28  2  0
 20  7  1  0
 28 21  1  0
 19 15  1  0
  1 29  1  0
  1 30  1  0
  1 31  1  0
  2 32  1  0
  2 33  1  0
  4 34  1  0
  4 35  1  0
  4 36  1  0
  5 37  1  0
  5 38  1  0
  6 39  1  0
  6 40  1  0
 11 41  1  0
 16 42  1  0
 17 43  1  0
 18 44  1  0
 22 45  1  0
 23 46  1  0
 24 47  1  0
 27 48  1  0
 27 49  1  0
 27 50  1  0
 28 51  1  0
M  CHG  1   9  -1
M  END
>  <UniqueID>  (4) 
4

>  <SMILES>  (4) 
CCN(C)CCn1c([O-])c(O)c(C(=O)c2cccs2)c1-c1cccc(OC)c1

>  <Energy>  (4) 
116.55325841994576

>  <Genealogy>  (4) 
CCN(C)CCn1c([O-])c(O)c(C(=O)c2cccs2)c1-c1cccc(OC)c1 (protonated)
CCN(C)CCn1c([O-])c(O)c(C(=O)c2cccs2)c1-c1cccc(OC)c1 (3D coordinates assigned)
CCN(C)CCn1c([O-])c(O)c(C(=O)c2cccs2)c1-c1cccc(OC)c1 (optimized conformer: 116.55325841994576 kcal/mol)

>  <smiles>  (4) 
CCN(C)CCn1c(O)c(O)c(C(=O)c2cccs2)c1-c1cccc(OC)c1

>  <score_type>  (4) 
oracle

>  <origin>  (4) 
adg

>  <m_score__min__energy>  (4) 
-11.19

>  <m_primary>  (4) 
energy

$$$$
4:0
     RDKit          3D

 38 39  0  0  0  0  0  0  0  0999 V2000
   -1.5840   25.5780  -27.1730 C   0  0  0  0  0  0  0  0  0  0  0  0
   -2.1190   24.5680  -28.1820 C   0  0  0  0  0  0  0  0  0  0  0  0
   -2.6470   25.2330  -29.3280 O   0  0  0  0  0  0  0  0  0  0  0  0
   -3.8870   24.9220  -29.8950 C   0  0  0  0  0  0  0  0  0  0  0  0
   -4.3410   25.5930  -30.8620 O   0  0  0  0  0  0  0  0  0  0  0  0
   -4.6630   23.7520  -29.3710 C   0  0  0  0  0  0  0  0  0  0  0  0
   -4.7180   22.6170  -30.3980 C   0  0  0  0  0  0  0  0  0  0  0  0
   -6.0960   22.3100  -30.7860 N   0  0  0  0  0  0  0  0  0  0  0  0
   -6.8850   23.2430  -31.5330 C   0  0  0  0  0  0  0  0  0  0  0  0
   -6.4160   24.3760  -31.8350 O   0  0  0  0  0  0  0  0  0  0  0  0
   -8.2670   22.8740  -31.9780 C   0  0  0  0  0  0  0  0  0  0  0  0
   -8.9370   21.5160  -30.9570 S   0  0  0  0  0  0  0  0  0  0  0  0
   -8.1020   20.2180  -31.8670 C   0  0  0  0  0  0  0  0  0  0  0  0
   -7.2040   20.4180  -32.9110 C   0  0  0  0  0  0  0  0  0  0  0  0
   -6.7230   19.2110  -33.4280 C   0  0  0  0  0  0  0  0  0  0  0  0
   -5.8060   19.0680  -34.4730 C   0  0  0  0  0  0  0  0  0  0  0  0
   -5.4280   17.7730  -34.8680 C   0  0  0  0  0  0  0  0  0  0  0  0
   -5.9660   16.6430  -34.2220 C   0  0  0  0  0  0  0  0  0  0  0  0
   -6.8870   16.7970  -33.1730 C   0  0  0  0  0  0  0  0  0  0  0  0
   -7.2450   18.0890  -32.7980 C   0  0  0  0  0  0  0  0  0  0  0  0
   -8.3120   18.5620  -31.5900 S   0  0  0  0  0  0  0  0  0  0  0  0
   -1.7766   25.2144  -26.1529 H   0  0  0  0  0  0  0  0  0  0  0  0
   -0.5010   25.7038  -27.3191 H   0  0  0  0  0  0  0  0  0  0  0  0
   -2.0884   26.5446  -27.3191 H   0  0  0  0  0  0  0  0  0  0  0  0
   -1.3011   23.9025  -28.4954 H   0  0  0  0  0  0  0  0  0  0  0  0
   -2.9235   23.9863  -27.7082 H   0  0  0  0  0  0  0  0  0  0  0  0
   -4.1798   23.3829  -28.4543 H   0  0  0  0  0  0  0  0  0  0  0  0
   -5.6913   24.0822  -29.1624 H   0  0  0  0  0  0  0  0  0  0  0  0
   -4.1532   22.9172  -31.2929 H   0  0  0  0  0  0  0  0  0  0  0  0
   -4.2797   21.7173  -29.9415 H   0  0  0  0  0  0  0  0  0  0  0  0
   -6.5170   21.3850  -30.5410 H   0  0  0  0  0  0  0  0  0  0  0  0
   -8.9224   23.7525  -31.8846 H   0  0  0  0  0  0  0  0  0  0  0  0
   -8.2223   22.5388  -33.0247 H   0  0  0  0  0  0  0  0  0  0  0  0
   -6.9074   21.4089  -33.2855 H   0  0  0  0  0  0  0  0  0  0  0  0
   -5.3880   19.9520  -34.9768 H   0  0  0  0  0  0  0  0  0  0  0  0
   -4.7066   17.6412  -35.6878 H   0  0  0  0  0  0  0  0  0  0  0  0
   -5.6633   15.6347  -34.5407 H   0  0  0  0  0  0  0  0  0  0  0  0
   -7.3136   15.9213  -32.6620 H   0  0  0  0  0  0  0  0  0  0  0  0
  1  2  1  0
  2  3  1  0
  3  4  1  0
  4  5  2  0
  4  6  1  0
  6  7  1  0
  7  8  1  0
  8  9  1  0
  9 10  2  0
  9 11  1  0
 11 12  1  0
 12 13  1  0
 13 14  2  0
 14 15  1  0
 15 16  2  0
 16 17  1  0
 17 18  2  0
 18 19  1  0
 19 20  2  0
 20 21  1  0
 21 13  1  0
 20 15  1  0
  1 22  1  0
  1 23  1  0
  1 24  1  0
  2 25  1  0
  2 26  1  0
  6 27  1  0
  6 28  1  0
  7 29  1  0
  7 30  1  0
  8 31  1  0
 11 32  1  0
 11 33  1  0
 14 34  1  0
 16 35  1  0
 17 36  1  0
 18 37  1  0
 19 38  1  0
M  END
>  <UniqueID>  (5) 
5

>  <SMILES>  (5) 
CCOC(=O)CCNC(=O)CSc1cc2ccccc2s1

>  <Energy>  (5) 
53.975352134163735

>  <Genealogy>  (5) 
CCOC(=O)CCNC(=O)CSc1cc2ccccc2s1 (3D coordinates assigned)
CCOC(=O)CCNC(=O)CSc1cc2ccccc2s1 (optimized conformer: 53.975352134163735 kcal/mol)

>  <smiles>  (5) 
CCOC(=O)CCNC(=O)CSc1cc2ccccc2s1

>  <score_type>  (5) 
oracle

>  <origin>  (5) 
adg

>  <m_score__min__energy>  (5) 
-8.9499999999999993

>  <m_primary>  (5) 
energy

$$$$
5:0
     RDKit          3D

 45 46  0  0  0  0  0  0  0  0999 V2000
   -9.1180   21.4960  -31.9350 C   0  0  0  0  0  0  0  0  0  0  0  0
   -8.2390   21.9040  -30.7430 C   0  0  0  0  0  0  0  0  0  0  0  0
   -7.2000   22.9180  -31.0580 N   0  0  0  0  0  0  0  0  0  0  0  0
   -7.3050   23.3970  -32.4460 C   0  0  0  0  0  0  0  0  0  0  0  0
   -7.1380   24.0580  -30.1170 C   0  0  0  0  0  0  0  0  0  0  0  0
   -5.7380   24.2230  -29.5040 C   0  0  0  0  0  0  0  0  0  0  0  0
   -4.8860   25.1750  -30.3050 C   0  0  0  0  0  0  0  0  0  0  0  0
   -5.4110   26.1980  -30.8210 O   0  0  0  0  0  0  0  0  0  0  0  0
   -3.4870   24.9410  -30.5070 N   0  0  0  0  0  0  0  0  0  0  0  0
   -2.6060   24.2650  -29.5980 C   0  0  0  0  0  0  0  0  0  0  0  0
   -2.1240   24.9050  -28.4420 C   0  0  0  0  0  0  0  0  0  0  0  0
   -1.2470   24.2380  -27.5820 C   0  0  0  0  0  0  0  0  0  0  0  0
   -0.8330   22.9380  -27.8750 C   0  0  0  0  0  0  0  0  0  0  0  0
   -1.2890   22.3030  -29.0320 C   0  0  0  0  0  0  0  0  0  0  0  0
   -2.1680   22.9650  -29.9010 C   0  0  0  0  0  0  0  0  0  0  0  0
   -2.6340   22.3080  -31.0850 N   0  0  0  0  0  0  0  0  0  0  0  0
   -4.0640   22.0470  -31.2440 C   0  0  0  0  0  0  0  0  0  0  0  0
   -4.3960   21.8980  -32.7330 C   0  0  0  0  0  0  0  0  0  0  0  0
   -3.5370   20.9570  -33.3500 O   0  0  0  0  0  0  0  0  0  0  0  0
   -2.2060   21.4400  -33.3320 C   0  0  0  0  0  0  0  0  0  0  0  0
   -1.6870   21.5420  -31.8950 C   0  0  0  0  0  0  0  0  0  0  0  0
  -10.0577   21.0598  -31.5653 H   0  0  0  0  0  0  0  0  0  0  0  0
   -9.3410   22.3827  -32.5466 H   0  0  0  0  0  0  0  0  0  0  0  0
   -8.5847   20.7534  -32.5466 H   0  0  0  0  0  0  0  0  0  0  0  0
   -8.8928   22.3149  -29.9596 H   0  0  0  0  0  0  0  0  0  0  0  0
   -7.7030   20.9970  -30.4266 H   0  0  0  0  0  0  0  0  0  0  0  0
   -7.5405   24.4715  -32.4462 H   0  0  0  0  0  0  0  0  0  0  0  0
   -6.3491   23.2310  -32.9645 H   0  0  0  0  0  0  0  0  0  0  0  0
   -8.1038   22.8464  -32.9645 H   0  0  0  0  0  0  0  0  0  0  0  0
   -7.3998   24.9795  -30.6577 H   0  0  0  0  0  0  0  0  0  0  0  0
   -7.8464   23.8620  -29.2986 H   0  0  0  0  0  0  0  0  0  0  0  0
   -5.8409   24.6121  -28.4803 H   0  0  0  0  0  0  0  0  0  0  0  0
   -5.2457   23.2393  -29.5048 H   0  0  0  0  0  0  0  0  0  0  0  0
   -2.4384   25.9342  -28.2139 H   0  0  0  0  0  0  0  0  0  0  0  0
   -0.8826   24.7386  -26.6728 H   0  0  0  0  0  0  0  0  0  0  0  0
   -0.1469   22.4131  -27.1940 H   0  0  0  0  0  0  0  0  0  0  0  0
   -0.9575   21.2798  -29.2625 H   0  0  0  0  0  0  0  0  0  0  0  0
   -4.3280   21.1192  -30.7153 H   0  0  0  0  0  0  0  0  0  0  0  0
   -4.6379   22.8860  -30.8235 H   0  0  0  0  0  0  0  0  0  0  0  0
   -5.4370   21.5583  -32.8377 H   0  0  0  0  0  0  0  0  0  0  0  0
   -4.2592   22.8732  -33.2231 H   0  0  0  0  0  0  0  0  0  0  0  0
   -1.5639   20.7506  -33.8998 H   0  0  0  0  0  0  0  0  0  0  0  0
   -2.1868   22.4413  -33.7870 H   0  0  0  0  0  0  0  0  0  0  0  0
   -1.5771   20.5322  -31.4728 H   0  0  0  0  0  0  0  0  0  0  0  0
   -0.7111   22.0495  -31.8940 H   0  0  0  0  0  0  0  0  0  0  0  0
  1  2  1  0
  2  3  1  0
  3  4  1  0
  3  5  1  0
  5  6  1  0
  6  7  1  0
  7  8  2  0
  7  9  1  0
  9 10  1  0
 10 11  2  0
 11 12  1  0
 12 13  2  0
 13 14  1  0
 14 15  2  0
 15 16  1  0
 16 17  1  0
 17 18  1  0
 18 19  1  0
 19 20  1  0
 20 21  1  0
 15 10  1  0
 21 16  1  0
  1 22  1  0
  1 23  1  0
  1 24  1  0
  2 25  1  0
  2 26  1  0
  4 27  1  0
  4 28  1  0
  4 29  1  0
  5 30  1  0
  5 31  1  0
  6 32  1  0
  6 33  1  0
 11 34  1  0
 12 35  1  0
 13 36  1  0
 14 37  1  0
 17 38  1  0
 17 39  1  0
 18 40  1  0
 18 41  1  0
 20 42  1  0
 20 43  1  0
 21 44  1  0
 21 45  1  0
M  CHG  1   9  -1
M  END
>  <UniqueID>  (6) 
6

>  <SMILES>  (6) 
CCN(C)CCC(=O)[N-]c1ccccc1N1CCOCC1

>  <Energy>  (6) 
55.61420862083989

>  <Genealogy>  (6) 
CCN(C)CCC(=O)[N-]c1ccccc1N1CCOCC1 (protonated)
CCN(C)CCC(=O)[N-]c1ccccc1N1CCOCC1 (3D coordinates assigned)
CCN(C)CCC(=O)[N-]c1ccccc1N1CCOCC1 (nonaromatic ring conformer: 55.61420862083989 kcal/mol)

>  <smiles>  (6) 
CCN(C)CCC(=O)Nc1ccccc1N1CCOCC1

>  <score_type>  (6) 
oracle

>  <origin>  (6) 
adg

>  <m_score__min__energy>  (6) 
-8.1999999999999993

>  <m_primary>  (6) 
energy

$$$$
6:0
     RDKit          3D

 43 45  0  0  0  0  0  0  0  0999 V2000
   -0.5810   21.0470  -29.4630 C   0  0  0  0  0  0  0  0  0  0  0  0
   -1.8540   21.6020  -29.9990 N   0  0  0  0  0  0  0  0  0  0  0  0
   -2.9730   21.0970  -29.1600 C   0  0  0  0  0  0  0  0  0  0  0  0
   -1.8130   23.1000  -29.9910 C   0  0  0  0  0  0  0  0  0  0  0  0
   -3.0340   23.8040  -29.3630 C   0  0  0  0  0  0  0  0  0  0  0  0
   -3.0690   25.1410  -29.7190 F   0  0  0  0  0  0  0  0  0  0  0  0
   -1.9840   21.0950  -31.4070 C   0  0  0  0  0  0  0  0  0  0  0  0
   -2.9120   21.8920  -32.3690 C   0  0  0  0  0  0  0  0  0  0  0  0
   -4.3360   21.5360  -32.2440 N   0  0  0  0  0  0  0  0  0  0  0  0
   -4.7500   20.1560  -32.2750 C   0  0  0  0  0  0  0  0  0  0  0  0
   -3.8880   19.2350  -32.2840 O   0  0  0  0  0  0  0  0  0  0  0  0
   -6.1910   19.8150  -32.2740 C   0  0  0  0  0  0  0  0  0  0  0  0
   -6.6100   18.4810  -32.4230 C   0  0  0  0  0  0  0  0  0  0  0  0
   -7.9680   18.1610  -32.4220 C   0  0  0  0  0  0  0  0  0  0  0  0
   -8.9280   19.1610  -32.2690 C   0  0  0  0  0  0  0  0  0  0  0  0
   -8.5340   20.4980  -32.1150 C   0  0  0  0  0  0  0  0  0  0  0  0
   -9.4980   21.5040  -31.9530 C   0  0  0  0  0  0  0  0  0  0  0  0
   -9.1060   22.8330  -31.7930 C   0  0  0  0  0  0  0  0  0  0  0  0
   -7.7530   23.1730  -31.7950 C   0  0  0  0  0  0  0  0  0  0  0  0
   -6.7670   22.1830  -31.9580 C   0  0  0  0  0  0  0  0  0  0  0  0
   -7.1560   20.8350  -32.1200 C   0  0  0  0  0  0  0  0  0  0  0  0
   -5.3320   22.5460  -31.9770 C   0  0  0  0  0  0  0  0  0  0  0  0
   -4.9860   23.7430  -31.7760 O   0  0  0  0  0  0  0  0  0  0  0  0
   -0.6098   21.0595  -28.3634 H   0  0  0  0  0  0  0  0  0  0  0  0
   -0.4552   20.0124  -29.8147 H   0  0  0  0  0  0  0  0  0  0  0  0
    0.2627   21.6590  -29.8147 H   0  0  0  0  0  0  0  0  0  0  0  0
   -2.7156   21.2132  -28.0969 H   0  0  0  0  0  0  0  0  0  0  0  0
   -3.8851   21.6708  -29.3812 H   0  0  0  0  0  0  0  0  0  0  0  0
   -3.1462   20.0335  -29.3812 H   0  0  0  0  0  0  0  0  0  0  0  0
   -0.9195   23.4097  -29.4292 H   0  0  0  0  0  0  0  0  0  0  0  0
   -1.8056   23.4033  -31.0483 H   0  0  0  0  0  0  0  0  0  0  0  0
   -3.9534   23.3132  -29.7149 H   0  0  0  0  0  0  0  0  0  0  0  0
   -2.9564   23.7333  -28.2680 H   0  0  0  0  0  0  0  0  0  0  0  0
   -0.9771   21.0874  -31.8499 H   0  0  0  0  0  0  0  0  0  0  0  0
   -2.4591   20.1077  -31.3092 H   0  0  0  0  0  0  0  0  0  0  0  0
   -2.8011   22.9643  -32.1502 H   0  0  0  0  0  0  0  0  0  0  0  0
   -2.6054   21.6405  -33.3950 H   0  0  0  0  0  0  0  0  0  0  0  0
   -5.8614   17.6837  -32.5412 H   0  0  0  0  0  0  0  0  0  0  0  0
   -8.2833   17.1141  -32.5426 H   0  0  0  0  0  0  0  0  0  0  0  0
   -9.9967   18.9004  -32.2691 H   0  0  0  0  0  0  0  0  0  0  0  0
  -10.5668   21.2439  -31.9521 H   0  0  0  0  0  0  0  0  0  0  0  0
   -9.8672   23.6166  -31.6646 H   0  0  0  0  0  0  0  0  0  0  0  0
   -7.4547   24.2241  -31.6680 H   0  0  0  0  0  0  0  0  0  0  0  0
  1  2  1  0
  2  3  1  0
  2  4  1  0
  4  5  1  0
  5  6  1  0
  2  7  1  0
  7  8  1  0
  8  9  1  0
  9 10  1  0
 10 11  2  0
 10 12  1  0
 12 13  1  0
 13 14  2  0
 14 15  1  0
 15 16  2  0
 16 17  1  0
 17 18  2  0
 18 19  1  0
 19 20  2  0
 20 21  1  0
 20 22  1  0
 22 23  2  0
 22  9  1  0
 21 12  2  0
 21 16  1  0
  1 24  1  0
  1 25  1  0
  1 26  1  0
  3 27  1  0
  3 28  1  0
  3 29  1  0
  4 30  1  0
  4 31  1  0
  5 32  1  0
  5 33  1  0
  7 34  1  0
  7 35  1  0
  8 36  1  0
  8 37  1  0
 13 38  1  0
 14 39  1  0
 15 40  1  0
 17 41  1  0
 18 42  1  0
 19 43  1  0
M  CHG  1   2   1
M  END
>  <UniqueID>  (7) 
7

>  <SMILES>  (7) 
C[N+](C)(CCF)CCN1C(=O)c2cccc3cccc(c23)C1=O

>  <Energy>  (7) 
63.76568731171343

>  <Genealogy>  (7) 
C[N+](C)(CCF)CCN1C(=O)c2cccc3cccc(c23)C1=O (3D coordinates assigned)
C[N+](C)(CCF)CCN1C(=O)c2cccc3cccc(c23)C1=O (nonaromatic ring conformer: 63.76568731171343 kcal/mol)

>  <smiles>  (7) 
C[N+](C)(CCF)CCN1C(=O)c2cccc3cccc(c23)C1=O

>  <score_type>  (7) 
oracle

>  <origin>  (7) 
adg

>  <m_score__min__energy>  (7) 
-7.1500000000000004

>  <m_primary>  (7) 
energy

$$$$
7:0
     RDKit          3D

 49 51  0  0  0  0  0  0  0  0999 V2000
   -4.2170   24.3660  -26.9440 C   0  0  0  0  0  0  0  0  0  0  0  0
   -4.2230   23.3610  -28.0910 C   0  0  0  0  0  0  0  0  0  0  0  0
   -3.7610   23.9950  -29.3350 N   0  0  0  0  0  0  0  0  0  0  0  0
   -2.3560   23.8640  -29.7290 C   0  0  0  0  0  0  0  0  0  0  0  0
   -1.4960   24.6740  -28.8150 C   0  0  0  0  0  0  0  0  0  0  0  0
   -0.4940   24.1790  -28.0020 C   0  0  0  0  0  0  0  0  0  0  0  0
    0.0380   25.2760  -27.3560 C   0  0  0  0  0  0  0  0  0  0  0  0
   -0.6680   26.3660  -27.8270 C   0  0  0  0  0  0  0  0  0  0  0  0
   -0.4780   27.7770  -27.3870 C   0  0  0  0  0  0  0  0  0  0  0  0
   -1.5730   25.9790  -28.6960 O   0  0  0  0  0  0  0  0  0  0  0  0
   -4.6690   24.7210  -30.1910 C   0  0  0  0  0  0  0  0  0  0  0  0
   -4.2390   25.6750  -30.8940 O   0  0  0  0  0  0  0  0  0  0  0  0
   -6.1180   24.3480  -30.2970 C   0  0  0  0  0  0  0  0  0  0  0  0
   -6.3750   23.7430  -31.5620 O   0  0  0  0  0  0  0  0  0  0  0  0
   -7.1730   22.6060  -31.7780 C   0  0  0  0  0  0  0  0  0  0  0  0
   -8.5800   22.6730  -31.7680 C   0  0  0  0  0  0  0  0  0  0  0  0
   -9.3450   21.5230  -31.9720 C   0  0  0  0  0  0  0  0  0  0  0  0
   -8.7200   20.2980  -32.1980 C   0  0  0  0  0  0  0  0  0  0  0  0
   -7.3270   20.2200  -32.2370 C   0  0  0  0  0  0  0  0  0  0  0  0
   -6.5410   21.3660  -32.0220 C   0  0  0  0  0  0  0  0  0  0  0  0
   -5.0650   21.2640  -32.0970 C   0  0  0  0  0  0  0  0  0  0  0  0
   -4.2940   21.0900  -30.9330 C   0  0  0  0  0  0  0  0  0  0  0  0
   -2.9010   21.0140  -31.0140 C   0  0  0  0  0  0  0  0  0  0  0  0
   -2.2650   21.1060  -32.2550 C   0  0  0  0  0  0  0  0  0  0  0  0
   -3.0220   21.2670  -33.4170 C   0  0  0  0  0  0  0  0  0  0  0  0
   -4.4160   21.3430  -33.3410 C   0  0  0  0  0  0  0  0  0  0  0  0
   -4.2202   23.8276  -25.9848 H   0  0  0  0  0  0  0  0  0  0  0  0
   -3.3151   24.9923  -27.0100 H   0  0  0  0  0  0  0  0  0  0  0  0
   -5.1114   25.0030  -27.0100 H   0  0  0  0  0  0  0  0  0  0  0  0
   -3.5547   22.5236  -27.8418 H   0  0  0  0  0  0  0  0  0  0  0  0
   -5.2502   22.9961  -28.2384 H   0  0  0  0  0  0  0  0  0  0  0  0
   -2.0573   22.8070  -29.6699 H   0  0  0  0  0  0  0  0  0  0  0  0
   -2.2328   24.2272  -30.7600 H   0  0  0  0  0  0  0  0  0  0  0  0
   -0.1849   23.1290  -27.8927 H   0  0  0  0  0  0  0  0  0  0  0  0
    0.8546   25.2815  -26.6191 H   0  0  0  0  0  0  0  0  0  0  0  0
   -0.4721   27.8207  -26.2879 H   0  0  0  0  0  0  0  0  0  0  0  0
    0.4793   28.1561  -27.7742 H   0  0  0  0  0  0  0  0  0  0  0  0
   -1.3009   28.3958  -27.7742 H   0  0  0  0  0  0  0  0  0  0  0  0
   -6.3709   23.6381  -29.4957 H   0  0  0  0  0  0  0  0  0  0  0  0
   -6.7322   25.2553  -30.1995 H   0  0  0  0  0  0  0  0  0  0  0  0
   -9.0796   23.6382  -31.5983 H   0  0  0  0  0  0  0  0  0  0  0  0
  -10.4432   21.5840  -31.9543 H   0  0  0  0  0  0  0  0  0  0  0  0
   -9.3253   19.3915  -32.3458 H   0  0  0  0  0  0  0  0  0  0  0  0
   -6.8401   19.2542  -32.4375 H   0  0  0  0  0  0  0  0  0  0  0  0
   -4.7902   21.0134  -29.9543 H   0  0  0  0  0  0  0  0  0  0  0  0
   -2.3042   20.8816  -30.0995 H   0  0  0  0  0  0  0  0  0  0  0  0
   -1.1681   21.0516  -32.3163 H   0  0  0  0  0  0  0  0  0  0  0  0
   -2.5209   21.3342  -34.3939 H   0  0  0  0  0  0  0  0  0  0  0  0
   -5.0080   21.4653  -34.2600 H   0  0  0  0  0  0  0  0  0  0  0  0
  1  2  1  0
  2  3  1  0
  3  4  1  0
  4  5  1  0
  5  6  2  0
  6  7  1  0
  7  8  2  0
  8  9  1  0
  8 10  1  0
  3 11  1  0
 11 12  2  0
 11 13  1  0
 13 14  1  0
 14 15  1  0
 15 16  2  0
 16 17  1  0
 17 18  2  0
 18 19  1  0
 19 20  2  0
 20 21  1  0
 21 22  2  0
 22 23  1  0
 23 24  2  0
 24 25  1  0
 25 26  2  0
 10  5  1  0
 20 15  1  0
 26 21  1  0
  1 27  1  0
  1 28  1  0
  1 29  1  0
  2 30  1  0
  2 31  1  0
  4 32  1  0
  4 33  1  0
  6 34  1  0
  7 35  1  0
  9 36  1  0
  9 37  1  0
  9 38  1  0
 13 39  1  0
 13 40  1  0
 16 41  1  0
 17 42  1  0
 18 43  1  0
 19 44  1  0
 22 45  1  0
 23 46  1  0
 24 47  1  0
 25 48  1  0
 26 49  1  0
M  END
>  <UniqueID>  (8) 
8

>  <SMILES>  (8) 
CCN(Cc1ccc(C)o1)C(=O)COc1ccccc1-c1ccccc1

>  <Energy>  (8) 
70.7756898367113

>  <Genealogy>  (8) 
CCN(Cc1ccc(C)o1)C(=O)COc1ccccc1-c1ccccc1 (3D coordinates assigned)
CCN(Cc1ccc(C)o1)C(=O)COc1ccccc1-c1ccccc1 (optimized conformer: 70.7756898367113 kcal/mol)

>  <smiles>  (8) 
CCN(Cc1ccc(C)o1)C(=O)COc1ccccc1-c1ccccc1

>  <score_type>  (8) 
oracle

>  <origin>  (8) 
adg

>  <m_score__min__energy>  (8) 
-9.0500000000000007

>  <m_primary>  (8) 
energy

$$$$
8:0
     RDKit          3D

 38 41  0  0  0  0  0  0  0  0999 V2000
   -1.0710   24.6630  -27.8480 F   0  0  0  0  0  0  0  0  0  0  0  0
   -2.2800   24.1410  -27.4240 C   0  0  0  0  0  0  0  0  0  0  0  0
   -2.0880   22.8320  -27.0170 F   0  0  0  0  0  0  0  0  0  0  0  0
   -2.7290   24.8720  -26.3360 F   0  0  0  0  0  0  0  0  0  0  0  0
   -3.2730   24.2060  -28.5540 C   0  0  0  0  0  0  0  0  0  0  0  0
   -4.6200   24.5190  -28.3100 C   0  0  0  0  0  0  0  0  0  0  0  0
   -5.5400   24.5280  -29.3580 C   0  0  0  0  0  0  0  0  0  0  0  0
   -5.1110   24.2140  -30.6540 C   0  0  0  0  0  0  0  0  0  0  0  0
   -6.0840   24.1750  -31.7940 C   0  0  0  0  0  0  0  0  0  0  0  0
   -6.8780   22.9030  -31.7460 C   0  0  0  0  0  0  0  0  0  0  0  0
   -8.1700   22.8850  -31.2060 C   0  0  0  0  0  0  0  0  0  0  0  0
   -8.9000   21.6960  -31.2130 C   0  0  0  0  0  0  0  0  0  0  0  0
   -8.3450   20.5350  -31.7650 C   0  0  0  0  0  0  0  0  0  0  0  0
   -9.0620   19.3330  -31.7830 C   0  0  0  0  0  0  0  0  0  0  0  0
   -8.5000   18.1860  -32.3430 C   0  0  0  0  0  0  0  0  0  0  0  0
   -7.2110   18.2230  -32.8940 C   0  0  0  0  0  0  0  0  0  0  0  0
   -6.6500   17.0650  -33.4580 C   0  0  0  0  0  0  0  0  0  0  0  0
   -5.3680   17.1020  -34.0090 C   0  0  0  0  0  0  0  0  0  0  0  0
   -4.6340   18.2900  -34.0020 C   0  0  0  0  0  0  0  0  0  0  0  0
   -5.1780   19.4500  -33.4450 C   0  0  0  0  0  0  0  0  0  0  0  0
   -6.4700   19.4330  -32.8850 C   0  0  0  0  0  0  0  0  0  0  0  0
   -7.0420   20.5910  -32.3150 C   0  0  0  0  0  0  0  0  0  0  0  0
   -6.3570   21.7690  -32.2900 N   0  0  0  0  0  0  0  0  0  0  0  0
   -3.8100   23.8760  -30.8680 N   0  0  0  0  0  0  0  0  0  0  0  0
   -2.8950   23.8620  -29.8630 C   0  0  0  0  0  0  0  0  0  0  0  0
   -4.9507   24.7580  -27.2885 H   0  0  0  0  0  0  0  0  0  0  0  0
   -6.5939   24.7796  -29.1685 H   0  0  0  0  0  0  0  0  0  0  0  0
   -6.7670   25.0341  -31.7198 H   0  0  0  0  0  0  0  0  0  0  0  0
   -5.5305   24.2202  -32.7435 H   0  0  0  0  0  0  0  0  0  0  0  0
   -8.6057   23.8007  -30.7798 H   0  0  0  0  0  0  0  0  0  0  0  0
   -9.9127   21.6706  -30.7844 H   0  0  0  0  0  0  0  0  0  0  0  0
  -10.0738   19.2929  -31.3533 H   0  0  0  0  0  0  0  0  0  0  0  0
   -9.0716   17.2462  -32.3525 H   0  0  0  0  0  0  0  0  0  0  0  0
   -7.2229   16.1260  -33.4654 H   0  0  0  0  0  0  0  0  0  0  0  0
   -4.9345   16.1924  -34.4502 H   0  0  0  0  0  0  0  0  0  0  0  0
   -3.6238   18.3125  -34.4367 H   0  0  0  0  0  0  0  0  0  0  0  0
   -4.5937   20.3820  -33.4439 H   0  0  0  0  0  0  0  0  0  0  0  0
   -1.8532   23.5799  -30.0754 H   0  0  0  0  0  0  0  0  0  0  0  0
  1  2  1  0
  2  3  1  0
  2  4  1  0
  2  5  1  0
  5  6  2  0
  6  7  1  0
  7  8  2  0
  8  9  1  0
  9 10  1  0
 10 11  2  0
 11 12  1  0
 12 13  2  0
 13 14  1  0
 14 15  2  0
 15 16  1  0
 16 17  2  0
 17 18  1  0
 18 19  2  0
 19 20  1  0
 20 21  2  0
 21 22  1  0
 22 23  2  0
  8 24  1  0
 24 25  2  0
 25  5  1  0
 23 10  1  0
 22 13  1  0
 21 16  1  0
  6 26  1  0
  7 27  1  0
  9 28  1  0
  9 29  1  0
 11 30  1  0
 12 31  1  0
 14 32  1  0
 15 33  1  0
 17 34  1  0
 18 35  1  0
 19 36  1  0
 20 37  1  0
 25 38  1  0
M  END
>  <UniqueID>  (9) 
9

>  <SMILES>  (9) 
FC(F)(F)c1ccc(Cc2ccc3ccc4ccccc4c3n2)nc1

>  <Energy>  (9) 
49.11023429434941

>  <Genealogy>  (9) 
FC(F)(F)c1ccc(Cc2ccc3ccc4ccccc4c3n2)nc1 (3D coordinates assigned)
FC(F)(F)c1ccc(Cc2ccc3ccc4ccccc4c3n2)nc1 (optimized conformer: 49.11023429434941 kcal/mol)

>  <smiles>  (9) 
FC(F)(F)c1ccc(Cc2ccc3ccc4ccccc4c3n2)nc1

>  <score_type>  (9) 
oracle

>  <origin>  (9) 
adg

>  <m_score__min__energy>  (9) 
-9.1300000000000008

>  <m_primary>  (9) 
energy

$$$$
9:0
     RDKit          3D

 48 50  0  0  0  0  0  0  0  0999 V2000
   -8.2610   20.4880  -32.3730 C   0  0  0  0  0  0  0  0  0  0  0  0
   -8.2260   19.0300  -32.5930 N   0  0  0  0  0  0  0  0  0  0  0  0
   -9.0960   18.3510  -31.6120 C   0  0  0  0  0  0  0  0  0  0  0  0
   -6.8460   18.4490  -32.6270 C   0  0  2  0  0  0  0  0  0  0  0  0
   -5.9610   18.8230  -31.3970 C   0  0  0  0  0  0  0  0  0  0  0  0
   -5.1520   20.1360  -31.5270 C   0  0  0  0  0  0  0  0  0  0  0  0
   -4.9990   20.5950  -32.9230 N   0  0  0  0  0  0  0  0  0  0  0  0
   -3.9020   21.5780  -33.0290 C   0  0  0  0  0  0  0  0  0  0  0  0
   -4.0810   22.6640  -32.0120 C   0  0  0  0  0  0  0  0  0  0  0  0
   -3.0640   23.2240  -31.3130 N   0  0  0  0  0  0  0  0  0  0  0  0
   -3.5860   24.0950  -30.4890 O   0  0  0  0  0  0  0  0  0  0  0  0
   -4.8900   24.1180  -30.6190 C   0  0  0  0  0  0  0  0  0  0  0  0
   -5.8180   24.8910  -29.9300 C   0  0  0  0  0  0  0  0  0  0  0  0
   -7.1790   24.7160  -30.2490 C   0  0  0  0  0  0  0  0  0  0  0  0
   -7.5680   23.7820  -31.2390 C   0  0  0  0  0  0  0  0  0  0  0  0
   -6.6010   23.0170  -31.9180 C   0  0  0  0  0  0  0  0  0  0  0  0
   -5.2650   23.2220  -31.5770 C   0  0  0  0  0  0  0  0  0  0  0  0
   -4.7940   19.4530  -33.8280 C   0  0  0  0  0  0  0  0  0  0  0  0
   -6.1310   18.7170  -34.0050 C   0  0  1  0  0  0  0  0  0  0  0  0
   -5.9100   17.4230  -34.8260 C   0  0  0  0  0  0  0  0  0  0  0  0
   -4.5070   16.8230  -34.6430 C   0  0  0  0  0  0  0  0  0  0  0  0
   -3.6590   17.1960  -35.6950 O   0  0  0  0  0  0  0  0  0  0  0  0
   -8.2660   20.6958  -31.2928 H   0  0  0  0  0  0  0  0  0  0  0  0
   -7.3737   20.9493  -32.8311 H   0  0  0  0  0  0  0  0  0  0  0  0
   -9.1694   20.9062  -32.8311 H   0  0  0  0  0  0  0  0  0  0  0  0
   -8.6700   18.8530  -33.5260 H   0  0  0  0  0  0  0  0  0  0  0  0
   -8.7689   18.6063  -30.5933 H   0  0  0  0  0  0  0  0  0  0  0  0
  -10.1362   18.6785  -31.7560 H   0  0  0  0  0  0  0  0  0  0  0  0
   -9.0310   17.2624  -31.7560 H   0  0  0  0  0  0  0  0  0  0  0  0
   -6.9817   17.3609  -32.5398 H   0  0  0  0  0  0  0  0  0  0  0  0
   -6.6210   18.9178  -30.5221 H   0  0  0  0  0  0  0  0  0  0  0  0
   -5.2156   18.0190  -31.3083 H   0  0  0  0  0  0  0  0  0  0  0  0
   -5.6685   20.9218  -30.9562 H   0  0  0  0  0  0  0  0  0  0  0  0
   -4.1426   19.9354  -31.1386 H   0  0  0  0  0  0  0  0  0  0  0  0
   -2.9416   21.0711  -32.8542 H   0  0  0  0  0  0  0  0  0  0  0  0
   -3.9140   22.0225  -34.0351 H   0  0  0  0  0  0  0  0  0  0  0  0
   -5.5008   25.6133  -29.1634 H   0  0  0  0  0  0  0  0  0  0  0  0
   -7.9438   25.3086  -29.7257 H   0  0  0  0  0  0  0  0  0  0  0  0
   -8.6336   23.6531  -31.4794 H   0  0  0  0  0  0  0  0  0  0  0  0
   -6.8884   22.2858  -32.6879 H   0  0  0  0  0  0  0  0  0  0  0  0
   -4.4383   19.8139  -34.8043 H   0  0  0  0  0  0  0  0  0  0  0  0
   -4.0437   18.7694  -33.4040 H   0  0  0  0  0  0  0  0  0  0  0  0
   -6.8180   19.3643  -34.5698 H   0  0  0  0  0  0  0  0  0  0  0  0
   -6.6536   16.6767  -34.5095 H   0  0  0  0  0  0  0  0  0  0  0  0
   -6.0168   17.6873  -35.8884 H   0  0  0  0  0  0  0  0  0  0  0  0
   -4.0828   17.1834  -33.6942 H   0  0  0  0  0  0  0  0  0  0  0  0
   -4.5936   15.7264  -34.6352 H   0  0  0  0  0  0  0  0  0  0  0  0
   -3.4730   16.3710  -36.2150 H   0  0  0  0  0  0  0  0  0  0  0  0
  1  2  1  0
  2  3  1  0
  2  4  1  0
  4  5  1  0
  5  6  1  0
  6  7  1  0
  7  8  1  0
  8  9  1  0
  9 10  2  0
 10 11  1  0
 11 12  1  0
 12 13  2  0
 13 14  1  0
 14 15  2  0
 15 16  1  0
 16 17  2  0
  7 18  1  0
 18 19  1  0
 19 20  1  0
 20 21  1  0
 21 22  1  0
 19  4  1  0
 17  9  1  0
 17 12  1  0
  1 23  1  0
  1 24  1  0
  1 25  1  0
  2 26  1  0
  3 27  1  0
  3 28  1  0
  3 29  1  0
  4 30  1  1
  5 31  1  0
  5 32  1  0
  6 33  1  0
  6 34  1  0
  8 35  1  0
  8 36  1  0
 13 37  1  0
 14 38  1  0
 15 39  1  0
 16 40  1  0
 18 41  1  0
 18 42  1  0
 19 43  1  6
 20 44  1  0
 20 45  1  0
 21 46  1  0
 21 47  1  0
 22 48  1  0
M  CHG  1   2   1
M  END
>  <UniqueID>  (10) 
10

>  <SMILES>  (10) 
C[NH+](C)[C@@H]1CCN(Cc2noc3ccccc23)C[C@H]1CCO

>  <Energy>  (10) 
101.11559522256263

>  <Genealogy>  (10) 
C[NH+](C)C1CCN(Cc2noc3ccccc23)CC1CCO (protonated)
C[NH+](C)[C@@H]1CCN(Cc2noc3ccccc23)C[C@H]1CCO (chirality)
C[NH+](C)[C@@H]1CCN(Cc2noc3ccccc23)C[C@H]1CCO (3D coordinates assigned)
C[NH+](C)[C@@H]1CCN(Cc2noc3ccccc23)C[C@H]1CCO (nonaromatic ring conformer: 101.11559522256263 kcal/mol)

>  <smiles>  (10) 
CN(C)C1CCN(Cc2noc3ccccc23)CC1CCO

>  <score_type>  (10) 
oracle

>  <origin>  (10) 
adg

>  <m_score__min__energy>  (10) 
-7.8300000000000001

>  <m_primary>  (10) 
energy

$$$$
10:0
     RDKit          3D

 24 24  0  0  0  0  0  0  0  0999 V2000
   -7.7753   24.3108  -30.6690 H   0  0  0  0  0  0  0  0  0  0  0  0
   -7.1350   23.5580  -31.1520 C   0  0  0  0  0  0  0  0  0  0  0  0
   -5.8340   23.8630  -31.3150 C   0  0  0  0  0  0  0  0  0  0  0  0
   -4.9320   22.9730  -32.0060 C   0  0  0  0  0  0  0  0  0  0  0  0
   -4.2110   22.2590  -32.5630 N   0  0  0  0  0  0  0  0  0  0  0  0
   -5.2740   25.0560  -30.6390 C   0  0  0  0  0  0  0  0  0  0  0  0
   -6.0610   25.9270  -30.1810 O   0  0  0  0  0  0  0  0  0  0  0  0
   -3.8620   25.2640  -30.4840 N   0  0  0  0  0  0  0  0  0  0  0  0
   -2.9680   24.5400  -29.5830 C   0  0  0  0  0  0  0  0  0  0  0  0
   -2.1377   25.2005  -29.2926 H   0  0  0  0  0  0  0  0  0  0  0  0
   -2.5874   23.6505  -30.1065 H   0  0  0  0  0  0  0  0  0  0  0  0
   -3.7070   24.0870  -28.3290 C   0  0  0  0  0  0  0  0  0  0  0  0
   -3.1574   24.4239  -27.4377 H   0  0  0  0  0  0  0  0  0  0  0  0
   -4.7178   24.5208  -28.3222 H   0  0  0  0  0  0  0  0  0  0  0  0
   -3.7790   22.9894  -28.3222 H   0  0  0  0  0  0  0  0  0  0  0  0
   -7.7710   22.2910  -31.5710 C   0  0  0  0  0  0  0  0  0  0  0  0
   -9.1040   21.9900  -31.3790 C   0  0  0  0  0  0  0  0  0  0  0  0
   -9.8493   22.6048  -30.8530 H   0  0  0  0  0  0  0  0  0  0  0  0
   -9.3170   20.7640  -31.9780 C   0  0  0  0  0  0  0  0  0  0  0  0
  -10.2629   20.2036  -32.0117 H   0  0  0  0  0  0  0  0  0  0  0  0
   -8.1100   20.3800  -32.5260 C   0  0  0  0  0  0  0  0  0  0  0  0
   -7.9391   19.4454  -33.0804 H   0  0  0  0  0  0  0  0  0  0  0  0
   -7.1730   21.3140  -32.2840 N   0  0  0  0  0  0  0  0  0  0  0  0
   -6.1930   21.2950  -32.6430 H   0  0  0  0  0  0  0  0  0  0  0  0
  1  2  1  0
  2  3  2  0
  3  4  1  0
  4  5  3  0
  3  6  1  0
  6  7  2  0
  6  8  1  0
  8  9  1  0
  9 10  1  0
  9 11  1  0
  9 12  1  0
 12 13  1  0
 12 14  1  0
 12 15  1  0
  2 16  1  0
 16 17  2  0
 17 18  1  0
 17 19  1  0
 19 20  1  0
 19 21  2  0
 21 22  1  0
 21 23  1  0
 23 24  1  0
 23 16  1  0
M  CHG  1   8  -1
M  END
>  <UniqueID>  (11) 
11

>  <SMILES>  (11) 
CC[N-]C(=O)/C(C#N)=C/c1ccc[nH]1

>  <Energy>  (11) 
50.87001237838157

>  <Genealogy>  (11) 
CC[N-]C(=O)C(C#N)=Cc1ccc[nH]1 (protonated)
CC[N-]C(=O)/C(C#N)=C/c1ccc[nH]1 (cis-trans isomerization)
CC[N-]C(=O)/C(C#N)=C/c1ccc[nH]1 (3D coordinates assigned)
CC[N-]C(=O)/C(C#N)=C/c1ccc[nH]1 (optimized conformer: 50.87001237838157 kcal/mol)

>  <smiles>  (11) 
CCNC(=O)C(C#N)=Cc1ccc[nH]1

>  <score_type>  (11) 
oracle

>  <origin>  (11) 
adg

>  <m_score__min__energy>  (11) 
-6.9299999999999997

>  <m_primary>  (11) 
energy

$$$$
11:0
     RDKit          3D

 47 50  0  0  0  0  0  0  0  0999 V2000
    2.2200   24.5440  -27.8470 C   0  0  0  0  0  0  0  0  0  0  0  0
    0.8460   24.7450  -28.1580 O   0  0  0  0  0  0  0  0  0  0  0  0
   -0.1590   24.9840  -27.2050 C   0  0  0  0  0  0  0  0  0  0  0  0
    0.1250   25.0920  -25.8300 C   0  0  0  0  0  0  0  0  0  0  0  0
   -0.9030   25.3360  -24.9150 C   0  0  0  0  0  0  0  0  0  0  0  0
   -2.2170   25.4810  -25.3610 C   0  0  0  0  0  0  0  0  0  0  0  0
   -2.5090   25.3750  -26.7220 C   0  0  0  0  0  0  0  0  0  0  0  0
   -1.4840   25.1100  -27.6500 C   0  0  0  0  0  0  0  0  0  0  0  0
   -1.7480   25.0160  -29.0260 O   0  0  0  0  0  0  0  0  0  0  0  0
   -2.7550   24.2340  -29.6100 C   0  0  0  0  0  0  0  0  0  0  0  0
   -2.3910   23.0660  -30.2860 C   0  0  0  0  0  0  0  0  0  0  0  0
   -3.3640   22.2500  -30.8690 C   0  0  0  0  0  0  0  0  0  0  0  0
   -4.7290   22.5840  -30.7720 C   0  0  0  0  0  0  0  0  0  0  0  0
   -5.7640   21.7190  -31.3900 C   0  0  0  0  0  0  0  0  0  0  0  0
   -5.4070   20.5790  -32.0410 N   0  0  0  0  0  0  0  0  0  0  0  0
   -6.3280   19.7620  -32.6210 C   0  0  0  0  0  0  0  0  0  0  0  0
   -5.8710   18.5290  -33.3130 C   0  0  0  0  0  0  0  0  0  0  0  0
   -6.5030   17.3000  -33.0530 C   0  0  0  0  0  0  0  0  0  0  0  0
   -6.0740   16.1370  -33.6950 C   0  0  0  0  0  0  0  0  0  0  0  0
   -5.0070   16.2040  -34.5900 C   0  0  0  0  0  0  0  0  0  0  0  0
   -4.3920   17.3920  -34.8250 N   0  0  0  0  0  0  0  0  0  0  0  0
   -4.7910   18.5410  -34.2170 C   0  0  0  0  0  0  0  0  0  0  0  0
   -7.6870   20.1020  -32.5300 C   0  0  0  0  0  0  0  0  0  0  0  0
   -8.0460   21.2780  -31.8640 C   0  0  0  0  0  0  0  0  0  0  0  0
   -9.4900   21.6710  -31.7390 C   0  0  0  0  0  0  0  0  0  0  0  0
  -10.3010   20.7420  -32.3690 F   0  0  0  0  0  0  0  0  0  0  0  0
   -9.8420   21.7390  -30.4040 F   0  0  0  0  0  0  0  0  0  0  0  0
   -9.6860   22.9080  -32.3250 F   0  0  0  0  0  0  0  0  0  0  0  0
   -7.0790   22.0560  -31.3100 N   0  0  0  0  0  0  0  0  0  0  0  0
   -5.0920   23.7500  -30.0730 C   0  0  0  0  0  0  0  0  0  0  0  0
   -4.1150   24.5640  -29.4920 C   0  0  0  0  0  0  0  0  0  0  0  0
    2.3498   24.5250  -26.7548 H   0  0  0  0  0  0  0  0  0  0  0  0
    2.5562   23.5871  -28.2729 H   0  0  0  0  0  0  0  0  0  0  0  0
    2.8162   25.3645  -28.2729 H   0  0  0  0  0  0  0  0  0  0  0  0
    1.1603   24.9839  -25.4745 H   0  0  0  0  0  0  0  0  0  0  0  0
   -0.6757   25.4138  -23.8416 H   0  0  0  0  0  0  0  0  0  0  0  0
   -3.0235   25.6790  -24.6397 H   0  0  0  0  0  0  0  0  0  0  0  0
   -3.5448   25.4991  -27.0710 H   0  0  0  0  0  0  0  0  0  0  0  0
   -1.3296   22.7868  -30.3597 H   0  0  0  0  0  0  0  0  0  0  0  0
   -3.0617   21.3399  -31.4078 H   0  0  0  0  0  0  0  0  0  0  0  0
   -7.3396   17.2548  -32.3402 H   0  0  0  0  0  0  0  0  0  0  0  0
   -6.5730   15.1769  -33.4967 H   0  0  0  0  0  0  0  0  0  0  0  0
   -4.6634   15.2951  -35.1056 H   0  0  0  0  0  0  0  0  0  0  0  0
   -4.2678   19.4844  -34.4322 H   0  0  0  0  0  0  0  0  0  0  0  0
   -8.4566   19.4542  -32.9751 H   0  0  0  0  0  0  0  0  0  0  0  0
   -6.1537   24.0234  -29.9829 H   0  0  0  0  0  0  0  0  0  0  0  0
   -4.4130   25.4674  -28.9397 H   0  0  0  0  0  0  0  0  0  0  0  0
  1  2  1  0
  2  3  1  0
  3  4  2  0
  4  5  1  0
  5  6  2  0
  6  7  1  0
  7  8  2  0
  8  9  1  0
  9 10  1  0
 10 11  2  0
 11 12  1  0
 12 13  2  0
 13 14  1  0
 14 15  2  0
 15 16  1  0
 16 17  1  0
 17 18  2  0
 18 19  1  0
 19 20  2  0
 20 21  1  0
 21 22  2  0
 16 23  2  0
 23 24  1  0
 24 25  1  0
 25 26  1  0
 25 27  1  0
 25 28  1  0
 24 29  2  0
 13 30  1  0
 30 31  2  0
  8  3  1  0
 31 10  1  0
 29 14  1  0
 22 17  1  0
  1 32  1  0
  1 33  1  0
  1 34  1  0
  4 35  1  0
  5 36  1  0
  6 37  1  0
  7 38  1  0
 11 39  1  0
 12 40  1  0
 18 41  1  0
 19 42  1  0
 20 43  1  0
 22 44  1  0
 23 45  1  0
 30 46  1  0
 31 47  1  0
M  END
>  <UniqueID>  (12) 
12

>  <SMILES>  (12) 
COc1ccccc1Oc1ccc(-c2nc(-c3cccnc3)cc(C(F)(F)F)n2)cc1

>  <Energy>  (12) 
64.01250905427706

>  <Genealogy>  (12) 
COc1ccccc1Oc1ccc(-c2nc(-c3cccnc3)cc(C(F)(F)F)n2)cc1 (3D coordinates assigned)
COc1ccccc1Oc1ccc(-c2nc(-c3cccnc3)cc(C(F)(F)F)n2)cc1 (optimized conformer: 64.01250905427706 kcal/mol)

>  <smiles>  (12) 
COc1ccccc1Oc1ccc(-c2nc(-c3cccnc3)cc(C(F)(F)F)n2)cc1

>  <score_type>  (12) 
oracle

>  <origin>  (12) 
adg

>  <m_score__min__energy>  (12) 
-8.8000000000000007

>  <m_primary>  (12) 
energy

$$$$
12:0
     RDKit          3D

 40 40  0  0  0  0  0  0  0  0999 V2000
   -3.4050   21.8780  -29.7480 C   0  0  0  0  0  0  0  0  0  0  0  0
   -2.5800   23.0460  -30.2800 C   0  0  0  0  0  0  0  0  0  0  0  0
   -2.9800   24.3010  -29.6030 N   0  0  0  0  0  0  0  0  0  0  0  0
   -1.9800   24.7090  -28.5890 C   0  0  0  0  0  0  0  0  0  0  0  0
   -2.5550   24.5730  -27.1800 C   0  0  0  0  0  0  0  0  0  0  0  0
   -4.3280   24.1770  -29.0000 C   0  0  0  0  0  0  0  0  0  0  0  0
   -5.3400   25.0370  -29.7610 C   0  0  0  0  0  0  0  0  0  0  0  0
   -5.1230   24.9110  -31.2130 N   0  0  0  0  0  0  0  0  0  0  0  0
   -6.1700   24.1280  -31.8950 C   0  0  0  0  0  0  0  0  0  0  0  0
   -5.7340   22.6820  -32.2050 C   0  0  0  0  0  0  0  0  0  0  0  0
   -6.8920   21.7130  -32.1670 C   0  0  0  0  0  0  0  0  0  0  0  0
   -8.1130   22.1220  -31.6020 C   0  0  0  0  0  0  0  0  0  0  0  0
   -9.2150   21.2630  -31.5950 C   0  0  0  0  0  0  0  0  0  0  0  0
   -9.1120   19.9890  -32.1530 C   0  0  0  0  0  0  0  0  0  0  0  0
   -7.9070   19.5690  -32.7190 C   0  0  0  0  0  0  0  0  0  0  0  0
   -6.7960   20.4210  -32.7320 C   0  0  0  0  0  0  0  0  0  0  0  0
   -5.3050   19.8320  -33.4610 Cl  0  0  0  0  0  0  0  0  0  0  0  0
   -3.3946   21.8927  -28.6481 H   0  0  0  0  0  0  0  0  0  0  0  0
   -4.4412   21.9678  -30.1061 H   0  0  0  0  0  0  0  0  0  0  0  0
   -2.9740   20.9315  -30.1061 H   0  0  0  0  0  0  0  0  0  0  0  0
   -1.5135   22.8543  -30.0907 H   0  0  0  0  0  0  0  0  0  0  0  0
   -2.7555   23.1481  -31.3611 H   0  0  0  0  0  0  0  0  0  0  0  0
   -1.0909   24.0677  -28.6799 H   0  0  0  0  0  0  0  0  0  0  0  0
   -1.7100   25.7613  -28.7613 H   0  0  0  0  0  0  0  0  0  0  0  0
   -1.7623   24.7605  -26.4408 H   0  0  0  0  0  0  0  0  0  0  0  0
   -3.3651   25.3043  -27.0424 H   0  0  0  0  0  0  0  0  0  0  0  0
   -2.9516   23.5563  -27.0424 H   0  0  0  0  0  0  0  0  0  0  0  0
   -4.6461   23.1247  -29.0391 H   0  0  0  0  0  0  0  0  0  0  0  0
   -4.2828   24.5224  -27.9566 H   0  0  0  0  0  0  0  0  0  0  0  0
   -6.3588   24.7027  -29.5153 H   0  0  0  0  0  0  0  0  0  0  0  0
   -5.2098   26.0892  -29.4681 H   0  0  0  0  0  0  0  0  0  0  0  0
   -4.1790   24.4980  -31.3940 H   0  0  0  0  0  0  0  0  0  0  0  0
   -7.0599   24.0951  -31.2493 H   0  0  0  0  0  0  0  0  0  0  0  0
   -6.3780   24.6224  -32.8554 H   0  0  0  0  0  0  0  0  0  0  0  0
   -5.2837   22.6558  -33.2083 H   0  0  0  0  0  0  0  0  0  0  0  0
   -5.0132   22.3752  -31.4328 H   0  0  0  0  0  0  0  0  0  0  0  0
   -8.2013   23.1263  -31.1620 H   0  0  0  0  0  0  0  0  0  0  0  0
  -10.1651   21.5920  -31.1488 H   0  0  0  0  0  0  0  0  0  0  0  0
   -9.9810   19.3146  -32.1471 H   0  0  0  0  0  0  0  0  0  0  0  0
   -7.8299   18.5630  -33.1573 H   0  0  0  0  0  0  0  0  0  0  0  0
  1  2  1  0
  2  3  1  0
  3  4  1  0
  4  5  1  0
  3  6  1  0
  6  7  1  0
  7  8  1  0
  8  9  1  0
  9 10  1  0
 10 11  1  0
 11 12  2  0
 12 13  1  0
 13 14  2  0
 14 15  1  0
 15 16  2  0
 16 17  1  0
 16 11  1  0
  1 18  1  0
  1 19  1  0
  1 20  1  0
  2 21  1  0
  2 22  1  0
  4 23  1  0
  4 24  1  0
  5 25  1  0
  5 26  1  0
  5 27  1  0
  6 28  1  0
  6 29  1  0
  7 30  1  0
  7 31  1  0
  8 32  1  0
  9 33  1  0
  9 34  1  0
 10 35  1  0
 10 36  1  0
 12 37  1  0
 13 38  1  0
 14 39  1  0
 15 40  1  0
M  END
>  <UniqueID>  (13) 
13

>  <SMILES>  (13) 
CCN(CC)CCNCCc1ccccc1Cl

>  <Energy>  (13) 
34.19729237277636

>  <Genealogy>  (13) 
CCN(CC)CCNCCc1ccccc1Cl (3D coordinates assigned)
CCN(CC)CCNCCc1ccccc1Cl (optimized conformer: 34.19729237277636 kcal/mol)

>  <smiles>  (13) 
CCN(CC)CCNCCc1ccccc1Cl

>  <score_type>  (13) 
oracle

>  <origin>  (13) 
adg

>  <m_score__min__energy>  (13) 
-6.5700000000000003

>  <m_primary>  (13) 
energy

$$$$
13:0
     RDKit          3D

 72 74  0  0  0  0  0  0  0  0999 V2000
   -5.7790   20.6330  -32.2880 C   0  0  0  0  0  0  0  0  0  0  0  0
   -6.6870   21.8700  -32.3840 C   0  0  0  0  0  0  0  0  0  0  0  0
   -7.3700   22.2420  -31.1180 N   0  0  0  0  0  0  0  0  0  0  0  0
   -8.7430   21.6940  -30.9760 C   0  0  0  0  0  0  0  0  0  0  0  0
   -9.1730   20.7530  -32.1070 C   0  0  0  0  0  0  0  0  0  0  0  0
   -7.1700   23.6510  -30.7020 C   0  0  0  0  0  0  0  0  0  0  0  0
   -5.8890   24.2640  -31.2880 C   0  0  0  0  0  0  0  0  0  0  0  0
   -5.0410   24.9130  -30.1830 C   0  0  0  0  0  0  0  0  0  0  0  0
   -3.6100   24.7860  -30.4680 N   0  0  0  0  0  0  0  0  0  0  0  0
   -2.8320   23.5890  -30.2420 C   0  0  0  0  0  0  0  0  0  0  0  0
   -3.1780   22.4140  -30.9200 C   0  0  0  0  0  0  0  0  0  0  0  0
   -2.5560   21.2120  -30.6280 C   0  0  0  0  0  0  0  0  0  0  0  0
   -1.6280   21.1140  -29.5880 C   0  0  0  0  0  0  0  0  0  0  0  0
   -0.9650   19.8540  -29.3760 N   0  0  0  0  0  0  0  0  0  0  0  0
   -0.2090   19.1380  -30.4090 C   0  0  0  0  0  0  0  0  0  0  0  0
    0.8630   18.2280  -29.7900 C   0  0  0  0  0  0  0  0  0  0  0  0
    0.9630   18.4220  -28.3230 N   0  0  0  0  0  0  0  0  0  0  0  0
    2.3810   18.4930  -27.8970 C   0  0  0  0  0  0  0  0  0  0  0  0
    2.9600   19.8730  -28.2070 C   0  0  0  0  0  0  0  0  0  0  0  0
    0.2440   17.3470  -27.5970 C   0  0  0  0  0  0  0  0  0  0  0  0
    1.2100   16.2580  -27.1240 C   0  0  0  0  0  0  0  0  0  0  0  0
   -1.2700   22.2840  -28.8540 C   0  0  0  0  0  0  0  0  0  0  0  0
   -0.4360   22.2160  -27.7030 C   0  0  0  0  0  0  0  0  0  0  0  0
   -0.1690   20.9630  -27.1380 O   0  0  0  0  0  0  0  0  0  0  0  0
    0.0590   23.4060  -27.1130 C   0  0  0  0  0  0  0  0  0  0  0  0
    0.9760   23.3840  -26.0350 C   0  0  0  0  0  0  0  0  0  0  0  0
    1.4600   24.5720  -25.4810 C   0  0  0  0  0  0  0  0  0  0  0  0
    1.0540   25.8000  -25.9930 C   0  0  0  0  0  0  0  0  0  0  0  0
    0.1670   25.8490  -27.0650 C   0  0  0  0  0  0  0  0  0  0  0  0
   -0.3410   24.6620  -27.6350 C   0  0  0  0  0  0  0  0  0  0  0  0
   -1.2450   24.7270  -28.7070 C   0  0  0  0  0  0  0  0  0  0  0  0
   -1.5380   25.9720  -29.2580 O   0  0  0  0  0  0  0  0  0  0  0  0
   -1.7950   23.5470  -29.2620 C   0  0  0  0  0  0  0  0  0  0  0  0
   -5.6008   20.3902  -31.2300 H   0  0  0  0  0  0  0  0  0  0  0  0
   -6.2673   19.7804  -32.7826 H   0  0  0  0  0  0  0  0  0  0  0  0
   -4.8193   20.8434  -32.7826 H   0  0  0  0  0  0  0  0  0  0  0  0
   -6.0703   22.7230  -32.7035 H   0  0  0  0  0  0  0  0  0  0  0  0
   -7.4815   21.6157  -33.1010 H   0  0  0  0  0  0  0  0  0  0  0  0
   -8.7944   21.1379  -30.0283 H   0  0  0  0  0  0  0  0  0  0  0  0
   -9.4276   22.5544  -31.0081 H   0  0  0  0  0  0  0  0  0  0  0  0
   -9.5939   19.8319  -31.6775 H   0  0  0  0  0  0  0  0  0  0  0  0
   -9.9337   21.2492  -32.7275 H   0  0  0  0  0  0  0  0  0  0  0  0
   -8.2999   20.5026  -32.7275 H   0  0  0  0  0  0  0  0  0  0  0  0
   -8.0318   24.2443  -31.0417 H   0  0  0  0  0  0  0  0  0  0  0  0
   -7.0747   23.6645  -29.6062 H   0  0  0  0  0  0  0  0  0  0  0  0
   -5.3011   23.4729  -31.7763 H   0  0  0  0  0  0  0  0  0  0  0  0
   -6.1697   25.0376  -32.0179 H   0  0  0  0  0  0  0  0  0  0  0  0
   -5.2993   25.9799  -30.1129 H   0  0  0  0  0  0  0  0  0  0  0  0
   -5.2535   24.3985  -29.2342 H   0  0  0  0  0  0  0  0  0  0  0  0
   -3.1120   25.6690  -30.7310 H   0  0  0  0  0  0  0  0  0  0  0  0
   -3.9562   22.4463  -31.6968 H   0  0  0  0  0  0  0  0  0  0  0  0
   -2.7963   20.3196  -31.2245 H   0  0  0  0  0  0  0  0  0  0  0  0
   -0.9680   19.4420  -28.4120 H   0  0  0  0  0  0  0  0  0  0  0  0
   -0.9039   18.5223  -30.9989 H   0  0  0  0  0  0  0  0  0  0  0  0
    0.2933   19.8800  -31.0471 H   0  0  0  0  0  0  0  0  0  0  0  0
    0.6023   17.1791  -29.9944 H   0  0  0  0  0  0  0  0  0  0  0  0
    1.8339   18.4860  -30.2382 H   0  0  0  0  0  0  0  0  0  0  0  0
    2.4443   18.3078  -26.8145 H   0  0  0  0  0  0  0  0  0  0  0  0
    2.9573   17.7323  -28.4440 H   0  0  0  0  0  0  0  0  0  0  0  0
    3.1803   20.3981  -27.2658 H   0  0  0  0  0  0  0  0  0  0  0  0
    3.8864   19.7596  -28.7891 H   0  0  0  0  0  0  0  0  0  0  0  0
    2.2300   20.4546  -28.7891 H   0  0  0  0  0  0  0  0  0  0  0  0
   -0.2632   17.7813  -26.7229 H   0  0  0  0  0  0  0  0  0  0  0  0
   -0.4864   16.8917  -28.2821 H   0  0  0  0  0  0  0  0  0  0  0  0
    1.2287   16.2369  -26.0244 H   0  0  0  0  0  0  0  0  0  0  0  0
    0.8759   15.2812  -27.5039 H   0  0  0  0  0  0  0  0  0  0  0  0
    2.2196   16.4733  -27.5039 H   0  0  0  0  0  0  0  0  0  0  0  0
    0.3570   20.2240  -27.5790 H   0  0  0  0  0  0  0  0  0  0  0  0
    1.3121   22.4189  -25.6280 H   0  0  0  0  0  0  0  0  0  0  0  0
    2.1646   24.5360  -24.6370 H   0  0  0  0  0  0  0  0  0  0  0  0
    1.4339   26.7328  -25.5507 H   0  0  0  0  0  0  0  0  0  0  0  0
   -0.1412   26.8233  -27.4721 H   0  0  0  0  0  0  0  0  0  0  0  0
  1  2  1  0
  2  3  1  0
  3  4  1  0
  4  5  1  0
  3  6  1  0
  6  7  1  0
  7  8  1  0
  8  9  1  0
  9 10  1  0
 10 11  2  0
 11 12  1  0
 12 13  2  0
 13 14  1  0
 14 15  1  0
 15 16  1  0
 16 17  1  0
 17 18  1  0
 18 19  1  0
 17 20  1  0
 20 21  1  0
 13 22  1  0
 22 23  2  0
 23 24  1  0
 23 25  1  0
 25 26  2  0
 26 27  1  0
 27 28  2  0
 28 29  1  0
 29 30  2  0
 30 31  1  0
 31 32  1  0
 31 33  2  0
 33 10  1  0
 33 22  1  0
 30 25  1  0
  1 34  1  0
  1 35  1  0
  1 36  1  0
  2 37  1  0
  2 38  1  0
  4 39  1  0
  4 40  1  0
  5 41  1  0
  5 42  1  0
  5 43  1  0
  6 44  1  0
  6 45  1  0
  7 46  1  0
  7 47  1  0
  8 48  1  0
  8 49  1  0
  9 50  1  0
 11 51  1  0
 12 52  1  0
 14 53  1  0
 15 54  1  0
 15 55  1  0
 16 56  1  0
 16 57  1  0
 18 58  1  0
 18 59  1  0
 19 60  1  0
 19 61  1  0
 19 62  1  0
 20 63  1  0
 20 64  1  0
 21 65  1  0
 21 66  1  0
 21 67  1  0
 24 68  1  0
 26 69  1  0
 27 70  1  0
 28 71  1  0
 29 72  1  0
M  CHG  1  32  -1
M  END
>  <UniqueID>  (14) 
14

>  <SMILES>  (14) 
CCN(CC)CCCNc1ccc(NCCN(CC)CC)c2c(O)c3ccccc3c([O-])c12

>  <Energy>  (14) 
99.43179184461442

>  <Genealogy>  (14) 
CCN(CC)CCCNc1ccc(NCCN(CC)CC)c2c(O)c3ccccc3c([O-])c12 (protonated)
CCN(CC)CCCNc1ccc(NCCN(CC)CC)c2c(O)c3ccccc3c([O-])c12 (3D coordinates assigned)
CCN(CC)CCCNc1ccc(NCCN(CC)CC)c2c(O)c3ccccc3c([O-])c12 (optimized conformer: 99.43179184461442 kcal/mol)

>  <smiles>  (14) 
CCN(CC)CCCNc1ccc(NCCN(CC)CC)c2c(O)c3ccccc3c(O)c12

>  <score_type>  (14) 
oracle

>  <origin>  (14) 
adg

>  <m_score__min__energy>  (14) 
-9.8399999999999999

>  <m_primary>  (14) 
energy

$$$$
14:0
     RDKit          3D

 41 43  0  0  0  0  0  0  0  0999 V2000
   -2.2790   24.2300  -29.2750 C   0  0  0  0  0  0  0  0  0  0  0  0
   -3.1530   24.9200  -30.1600 O   0  0  0  0  0  0  0  0  0  0  0  0
   -4.4800   24.5290  -30.3660 C   0  0  0  0  0  0  0  0  0  0  0  0
   -5.5160   25.3490  -29.9150 C   0  0  0  0  0  0  0  0  0  0  0  0
   -6.8390   24.9580  -30.1220 C   0  0  0  0  0  0  0  0  0  0  0  0
   -7.1170   23.7560  -30.7750 C   0  0  0  0  0  0  0  0  0  0  0  0
   -6.0540   22.9520  -31.2190 C   0  0  0  0  0  0  0  0  0  0  0  0
   -6.3030   21.6780  -31.9120 C   0  0  0  0  0  0  0  0  0  0  0  0
   -7.4780   21.0110  -31.8690 N   0  0  0  0  0  0  0  0  0  0  0  0
   -7.4480   19.8580  -32.5940 C   0  0  0  0  0  0  0  0  0  0  0  0
   -8.6530   18.9740  -32.6710 C   0  0  0  0  0  0  0  0  0  0  0  0
   -6.2250   19.5940  -33.2310 C   0  0  0  0  0  0  0  0  0  0  0  0
   -5.8770   18.4300  -34.0760 C   0  0  0  0  0  0  0  0  0  0  0  0
   -5.9770   18.5120  -35.3300 O   0  0  0  0  0  0  0  0  0  0  0  0
   -5.4260   17.2030  -33.4790 N   0  0  0  0  0  0  0  0  0  0  0  0
   -5.1640   16.0010  -34.2680 C   0  0  0  0  0  0  0  0  0  0  0  0
   -5.1600   14.7850  -33.3780 C   0  0  0  0  0  0  0  0  0  0  0  0
   -4.5840   14.8450  -32.0980 C   0  0  0  0  0  0  0  0  0  0  0  0
   -4.5610   13.7100  -31.2820 C   0  0  0  0  0  0  0  0  0  0  0  0
   -5.1070   12.5080  -31.7380 C   0  0  0  0  0  0  0  0  0  0  0  0
   -5.6770   12.4380  -33.0120 C   0  0  0  0  0  0  0  0  0  0  0  0
   -5.7030   13.5690  -33.8330 C   0  0  0  0  0  0  0  0  0  0  0  0
   -6.2540   13.4810  -35.0710 F   0  0  0  0  0  0  0  0  0  0  0  0
   -5.1770   20.8590  -32.8530 S   0  0  0  0  0  0  0  0  0  0  0  0
   -4.7720   23.3600  -31.0020 N   0  0  0  0  0  0  0  0  0  0  0  0
   -2.5602   24.4520  -28.2350 H   0  0  0  0  0  0  0  0  0  0  0  0
   -2.3570   23.1473  -29.4528 H   0  0  0  0  0  0  0  0  0  0  0  0
   -1.2439   24.5571  -29.4528 H   0  0  0  0  0  0  0  0  0  0  0  0
   -5.2910   26.2951  -29.4009 H   0  0  0  0  0  0  0  0  0  0  0  0
   -7.6629   25.5967  -29.7708 H   0  0  0  0  0  0  0  0  0  0  0  0
   -8.1580   23.4415  -30.9403 H   0  0  0  0  0  0  0  0  0  0  0  0
   -8.9913   18.7258  -31.6542 H   0  0  0  0  0  0  0  0  0  0  0  0
   -9.4580   19.4974  -33.2077 H   0  0  0  0  0  0  0  0  0  0  0  0
   -8.3955   18.0490  -33.2077 H   0  0  0  0  0  0  0  0  0  0  0  0
   -5.2690   17.1540  -32.4490 H   0  0  0  0  0  0  0  0  0  0  0  0
   -5.9478   15.8897  -35.0318 H   0  0  0  0  0  0  0  0  0  0  0  0
   -4.1801   16.0958  -34.7506 H   0  0  0  0  0  0  0  0  0  0  0  0
   -4.1494   15.7886  -31.7364 H   0  0  0  0  0  0  0  0  0  0  0  0
   -4.1122   13.7637  -30.2792 H   0  0  0  0  0  0  0  0  0  0  0  0
   -5.0883   11.6163  -31.0942 H   0  0  0  0  0  0  0  0  0  0  0  0
   -6.1063   11.4905  -33.3696 H   0  0  0  0  0  0  0  0  0  0  0  0
  1  2  1  0
  2  3  1  0
  3  4  2  0
  4  5  1  0
  5  6  2  0
  6  7  1  0
  7  8  1  0
  8  9  2  0
  9 10  1  0
 10 11  1  0
 10 12  2  0
 12 13  1  0
 13 14  2  0
 13 15  1  0
 15 16  1  0
 16 17  1  0
 17 18  2  0
 18 19  1  0
 19 20  2  0
 20 21  1  0
 21 22  2  0
 22 23  1  0
 12 24  1  0
  7 25  2  0
 25  3  1  0
 24  8  1  0
 22 17  1  0
  1 26  1  0
  1 27  1  0
  1 28  1  0
  4 29  1  0
  5 30  1  0
  6 31  1  0
 11 32  1  0
 11 33  1  0
 11 34  1  0
 15 35  1  0
 16 36  1  0
 16 37  1  0
 18 38  1  0
 19 39  1  0
 20 40  1  0
 21 41  1  0
M  END
>  <UniqueID>  (15) 
15

>  <SMILES>  (15) 
COc1cccc(-c2nc(C)c(C(=O)NCc3ccccc3F)s2)n1

>  <Energy>  (15) 
68.64859446086047

>  <Genealogy>  (15) 
COc1cccc(-c2nc(C)c(C(=O)NCc3ccccc3F)s2)n1 (3D coordinates assigned)
COc1cccc(-c2nc(C)c(C(=O)NCc3ccccc3F)s2)n1 (optimized conformer: 68.64859446086047 kcal/mol)

>  <smiles>  (15) 
COc1cccc(-c2nc(C)c(C(=O)NCc3ccccc3F)s2)n1

>  <score_type>  (15) 
oracle

>  <origin>  (15) 
adg

>  <m_score__min__energy>  (15) 
-8.3399999999999999

>  <m_primary>  (15) 
energy

$$$$
15:0
     RDKit          3D

 48 49  0  0  0  0  0  0  0  0999 V2000
   -7.5820   22.5230  -29.8550 C   0  0  0  0  0  0  0  0  0  0  0  0
   -7.2300   23.4580  -31.0230 C   0  0  0  0  0  0  0  0  0  0  0  0
   -6.3630   24.6050  -30.6710 N   0  0  0  0  0  0  0  0  0  0  0  0
   -6.8600   25.4330  -29.5640 C   0  0  0  0  0  0  0  0  0  0  0  0
   -4.6920   24.1480  -30.4280 S   0  0  0  0  0  0  0  0  0  0  0  0
   -3.8060   25.2960  -30.8220 O   0  0  0  0  0  0  0  0  0  0  0  0
   -4.4590   23.8670  -28.9690 O   0  0  0  0  0  0  0  0  0  0  0  0
   -4.2380   22.7200  -31.3580 C   0  0  0  0  0  0  0  0  0  0  0  0
   -3.5120   21.6870  -30.7500 C   0  0  0  0  0  0  0  0  0  0  0  0
   -3.1580   20.5510  -31.4820 C   0  0  0  0  0  0  0  0  0  0  0  0
   -3.5280   20.4340  -32.8320 C   0  0  0  0  0  0  0  0  0  0  0  0
   -3.1190   19.2240  -33.6330 C   0  0  0  0  0  0  0  0  0  0  0  0
   -3.7860   17.9400  -33.1150 C   0  0  0  0  0  0  0  0  0  0  0  0
   -4.8070   17.4420  -34.0500 N   0  0  0  0  0  0  0  0  0  0  0  0
   -5.6750   18.5380  -34.5030 C   0  0  0  0  0  0  0  0  0  0  0  0
   -6.7070   18.8610  -33.4520 C   0  0  0  0  0  0  0  0  0  0  0  0
   -7.1270   17.8750  -32.5450 C   0  0  0  0  0  0  0  0  0  0  0  0
   -8.1120   18.1660  -31.5950 C   0  0  0  0  0  0  0  0  0  0  0  0
   -8.6900   19.4380  -31.5540 C   0  0  0  0  0  0  0  0  0  0  0  0
   -8.2890   20.4190  -32.4640 C   0  0  0  0  0  0  0  0  0  0  0  0
   -8.8580   21.6490  -32.4290 F   0  0  0  0  0  0  0  0  0  0  0  0
   -7.3040   20.1320  -33.4150 C   0  0  0  0  0  0  0  0  0  0  0  0
   -4.2450   21.4750  -33.4420 C   0  0  0  0  0  0  0  0  0  0  0  0
   -4.5990   22.6110  -32.7080 C   0  0  0  0  0  0  0  0  0  0  0  0
   -7.3883   23.0375  -28.9022 H   0  0  0  0  0  0  0  0  0  0  0  0
   -8.6454   22.2476  -29.9134 H   0  0  0  0  0  0  0  0  0  0  0  0
   -6.9643   21.6147  -29.9134 H   0  0  0  0  0  0  0  0  0  0  0  0
   -6.7135   22.8638  -31.7912 H   0  0  0  0  0  0  0  0  0  0  0  0
   -8.1817   23.8884  -31.3678 H   0  0  0  0  0  0  0  0  0  0  0  0
   -6.5818   24.9696  -28.6059 H   0  0  0  0  0  0  0  0  0  0  0  0
   -6.4151   26.4369  -29.6286 H   0  0  0  0  0  0  0  0  0  0  0  0
   -7.9552   25.5125  -29.6286 H   0  0  0  0  0  0  0  0  0  0  0  0
   -3.2199   21.7709  -29.6928 H   0  0  0  0  0  0  0  0  0  0  0  0
   -2.5869   19.7444  -30.9990 H   0  0  0  0  0  0  0  0  0  0  0  0
   -3.4105   19.3774  -34.6825 H   0  0  0  0  0  0  0  0  0  0  0  0
   -2.0298   19.1044  -33.5367 H   0  0  0  0  0  0  0  0  0  0  0  0
   -3.0154   17.1661  -32.9833 H   0  0  0  0  0  0  0  0  0  0  0  0
   -4.2796   18.1714  -32.1596 H   0  0  0  0  0  0  0  0  0  0  0  0
   -5.3920   16.7150  -33.5720 H   0  0  0  0  0  0  0  0  0  0  0  0
   -4.3380   17.0170  -34.8840 H   0  0  0  0  0  0  0  0  0  0  0  0
   -5.0614   19.4306  -34.6946 H   0  0  0  0  0  0  0  0  0  0  0  0
   -6.1896   18.2277  -35.4244 H   0  0  0  0  0  0  0  0  0  0  0  0
   -6.6802   16.8705  -32.5814 H   0  0  0  0  0  0  0  0  0  0  0  0
   -8.4317   17.3935  -30.8801 H   0  0  0  0  0  0  0  0  0  0  0  0
   -9.4616   19.6668  -30.8042 H   0  0  0  0  0  0  0  0  0  0  0  0
   -6.9961   20.9038  -34.1358 H   0  0  0  0  0  0  0  0  0  0  0  0
   -4.5295   21.3968  -34.5017 H   0  0  0  0  0  0  0  0  0  0  0  0
   -5.1629   23.4222  -33.1917 H   0  0  0  0  0  0  0  0  0  0  0  0
  1  2  1  0
  2  3  1  0
  3  4  1  0
  3  5  1  0
  5  6  2  0
  5  7  2  0
  5  8  1  0
  8  9  2  0
  9 10  1  0
 10 11  2  0
 11 12  1  0
 12 13  1  0
 13 14  1  0
 14 15  1  0
 15 16  1  0
 16 17  2  0
 17 18  1  0
 18 19  2  0
 19 20  1  0
 20 21  1  0
 20 22  2  0
 11 23  1  0
 23 24  2  0
 24  8  1  0
 22 16  1  0
  1 25  1  0
  1 26  1  0
  1 27  1  0
  2 28  1  0
  2 29  1  0
  4 30  1  0
  4 31  1  0
  4 32  1  0
  9 33  1  0
 10 34  1  0
 12 35  1  0
 12 36  1  0
 13 37  1  0
 13 38  1  0
 14 39  1  0
 14 40  1  0
 15 41  1  0
 15 42  1  0
 17 43  1  0
 18 44  1  0
 19 45  1  0
 22 46  1  0
 23 47  1  0
 24 48  1  0
M  CHG  1  14   1
M  END
>  <UniqueID>  (16) 
16

>  <SMILES>  (16) 
CCN(C)S(=O)(=O)c1ccc(CC[NH2+]Cc2cccc(F)c2)cc1

>  <Energy>  (16) 
45.38439288330306

>  <Genealogy>  (16) 
CCN(C)S(=O)(=O)c1ccc(CC[NH2+]Cc2cccc(F)c2)cc1 (protonated)
CCN(C)S(=O)(=O)c1ccc(CC[NH2+]Cc2cccc(F)c2)cc1 (3D coordinates assigned)
CCN(C)S(=O)(=O)c1ccc(CC[NH2+]Cc2cccc(F)c2)cc1 (optimized conformer: 45.38439288330306 kcal/mol)

>  <smiles>  (16) 
CCN(C)S(=O)(=O)c1ccc(CCNCc2cccc(F)c2)cc1

>  <score_type>  (16) 
oracle

>  <origin>  (16) 
adg

>  <m_score__min__energy>  (16) 
-8.1400000000000006

>  <m_primary>  (16) 
energy

$$$$
16:0
     RDKit          3D

 71 75  0  0  0  0  0  0  0  0999 V2000
   -5.3630   16.2830  -31.5980 C   0  0  0  0  0  0  0  0  0  0  0  0
   -6.1150   17.5490  -31.1680 C   0  0  0  0  0  0  0  0  0  0  0  0
   -7.1320   17.9840  -32.1620 N   0  0  0  0  0  0  0  0  0  0  0  0
   -8.3550   18.5030  -31.4930 C   0  0  0  0  0  0  0  0  0  0  0  0
   -9.0510   19.6190  -32.2810 C   0  0  0  0  0  0  0  0  0  0  0  0
   -7.3930   16.9170  -33.1690 C   0  0  0  0  0  0  0  0  0  0  0  0
   -6.5070   16.9550  -34.4380 C   0  0  0  0  0  0  0  0  0  0  0  0
   -6.0440   18.3070  -34.7550 N   0  0  0  0  0  0  0  0  0  0  0  0
   -4.7590   18.7460  -34.2920 C   0  0  0  0  0  0  0  0  0  0  0  0
   -3.5710   18.0520  -34.5950 C   0  0  0  0  0  0  0  0  0  0  0  0
   -3.6020   16.8120  -35.2610 C   0  0  0  0  0  0  0  0  0  0  0  0
   -2.4200   16.1460  -35.5780 C   0  0  0  0  0  0  0  0  0  0  0  0
   -1.1900   16.6980  -35.2300 C   0  0  0  0  0  0  0  0  0  0  0  0
   -1.1320   17.9180  -34.5550 C   0  0  0  0  0  0  0  0  0  0  0  0
   -2.3140   18.6220  -34.2200 C   0  0  0  0  0  0  0  0  0  0  0  0
   -2.2660   19.8350  -33.5540 N   0  0  0  0  0  0  0  0  0  0  0  0
   -1.0390   20.6480  -33.6410 C   0  0  0  0  0  0  0  0  0  0  0  0
   -3.4340   20.3590  -33.0400 C   0  0  0  0  0  0  0  0  0  0  0  0
   -4.6590   19.8790  -33.4940 C   0  0  0  0  0  0  0  0  0  0  0  0
   -5.9140   20.8740  -32.9850 S   0  0  0  0  0  0  0  0  0  0  0  0
   -4.9250   21.8980  -32.0850 C   0  0  0  0  0  0  0  0  0  0  0  0
   -5.3240   22.9900  -31.3040 C   0  0  0  0  0  0  0  0  0  0  0  0
   -6.6490   23.4610  -31.2910 C   0  0  0  0  0  0  0  0  0  0  0  0
   -6.9930   24.5650  -30.5070 C   0  0  0  0  0  0  0  0  0  0  0  0
   -6.0250   25.2050  -29.7300 C   0  0  0  0  0  0  0  0  0  0  0  0
   -4.7070   24.7410  -29.7260 C   0  0  0  0  0  0  0  0  0  0  0  0
   -4.3450   23.6320  -30.5070 C   0  0  0  0  0  0  0  0  0  0  0  0
   -3.0330   23.1280  -30.4650 C   0  0  0  0  0  0  0  0  0  0  0  0
   -2.6610   21.9960  -31.2270 C   0  0  0  0  0  0  0  0  0  0  0  0
   -1.4300   21.3540  -31.0290 O   0  0  0  0  0  0  0  0  0  0  0  0
   -0.5510   21.5340  -29.9160 C   0  0  0  0  0  0  0  0  0  0  0  0
   -0.5950   20.3280  -28.9660 C   0  0  0  0  0  0  0  0  0  0  0  0
   -0.1230   19.0240  -29.6230 C   0  0  0  0  0  0  0  0  0  0  0  0
   -0.5010   18.9790  -31.0340 N   0  0  0  0  0  0  0  0  0  0  0  0
   -3.5960   21.4590  -32.1420 C   0  0  0  0  0  0  0  0  0  0  0  0
   -5.0348   15.7305  -30.7053 H   0  0  0  0  0  0  0  0  0  0  0  0
   -6.0297   15.6467  -32.1985 H   0  0  0  0  0  0  0  0  0  0  0  0
   -4.4853   16.5640  -32.1985 H   0  0  0  0  0  0  0  0  0  0  0  0
   -6.6215   17.3488  -30.2123 H   0  0  0  0  0  0  0  0  0  0  0  0
   -5.3749   18.3578  -31.0776 H   0  0  0  0  0  0  0  0  0  0  0  0
   -6.7150   18.7820  -32.7000 H   0  0  0  0  0  0  0  0  0  0  0  0
   -9.0634   17.6710  -31.3666 H   0  0  0  0  0  0  0  0  0  0  0  0
   -8.0420   18.9314  -30.5294 H   0  0  0  0  0  0  0  0  0  0  0  0
   -9.4995   20.3381  -31.5798 H   0  0  0  0  0  0  0  0  0  0  0  0
   -8.3143   20.1350  -32.9143 H   0  0  0  0  0  0  0  0  0  0  0  0
   -9.8385   19.1845  -32.9143 H   0  0  0  0  0  0  0  0  0  0  0  0
   -7.2377   15.9449  -32.6782 H   0  0  0  0  0  0  0  0  0  0  0  0
   -8.4225   17.0829  -33.5191 H   0  0  0  0  0  0  0  0  0  0  0  0
   -5.6305   16.3103  -34.2763 H   0  0  0  0  0  0  0  0  0  0  0  0
   -7.1164   16.6024  -35.2832 H   0  0  0  0  0  0  0  0  0  0  0  0
   -6.4190   18.7710  -35.6130 H   0  0  0  0  0  0  0  0  0  0  0  0
   -4.5691   16.3645  -35.5338 H   0  0  0  0  0  0  0  0  0  0  0  0
   -2.4586   15.1811  -36.1048 H   0  0  0  0  0  0  0  0  0  0  0  0
   -0.2601   16.1702  -35.4882 H   0  0  0  0  0  0  0  0  0  0  0  0
   -0.1538   18.3389  -34.2792 H   0  0  0  0  0  0  0  0  0  0  0  0
   -0.6829   20.8840  -32.6273 H   0  0  0  0  0  0  0  0  0  0  0  0
   -0.2633   20.0846  -34.1803 H   0  0  0  0  0  0  0  0  0  0  0  0
   -1.2555   21.5820  -34.1803 H   0  0  0  0  0  0  0  0  0  0  0  0
   -7.4160   22.9592  -31.8992 H   0  0  0  0  0  0  0  0  0  0  0  0
   -8.0301   24.9315  -30.5017 H   0  0  0  0  0  0  0  0  0  0  0  0
   -6.3010   26.0772  -29.1192 H   0  0  0  0  0  0  0  0  0  0  0  0
   -3.9501   25.2467  -29.1085 H   0  0  0  0  0  0  0  0  0  0  0  0
   -2.2837   23.6222  -29.8291 H   0  0  0  0  0  0  0  0  0  0  0  0
    0.4766   21.6591  -30.2881 H   0  0  0  0  0  0  0  0  0  0  0  0
   -0.8758   22.4253  -29.3591 H   0  0  0  0  0  0  0  0  0  0  0  0
    0.0531   20.5391  -28.1026 H   0  0  0  0  0  0  0  0  0  0  0  0
   -1.6443   20.1836  -28.6692 H   0  0  0  0  0  0  0  0  0  0  0  0
    0.9720   18.9568  -29.5421 H   0  0  0  0  0  0  0  0  0  0  0  0
   -0.6015   18.1791  -29.1060 H   0  0  0  0  0  0  0  0  0  0  0  0
   -0.0200   19.7670  -31.5270 H   0  0  0  0  0  0  0  0  0  0  0  0
   -1.5240   19.1840  -31.0960 H   0  0  0  0  0  0  0  0  0  0  0  0
  1  2  1  0
  2  3  1  0
  3  4  1  0
  4  5  1  0
  3  6  1  0
  6  7  1  0
  7  8  1  0
  8  9  1  0
  9 10  2  0
 10 11  1  0
 11 12  2  0
 12 13  1  0
 13 14  2  0
 14 15  1  0
 15 16  2  0
 16 17  1  0
 16 18  1  0
 18 19  2  0
 19 20  1  0
 20 21  1  0
 21 22  2  0
 22 23  1  0
 23 24  2  0
 24 25  1  0
 25 26  2  0
 26 27  1  0
 27 28  2  0
 28 29  1  0
 29 30  1  0
 30 31  1  0
 31 32  1  0
 32 33  1  0
 33 34  1  0
 29 35  2  0
 19  9  1  0
 35 21  1  0
 15 10  1  0
 35 18  1  0
 27 22  1  0
  1 36  1  0
  1 37  1  0
  1 38  1  0
  2 39  1  0
  2 40  1  0
  3 41  1  0
  4 42  1  0
  4 43  1  0
  5 44  1  0
  5 45  1  0
  5 46  1  0
  6 47  1  0
  6 48  1  0
  7 49  1  0
  7 50  1  0
  8 51  1  0
 11 52  1  0
 12 53  1  0
 13 54  1  0
 14 55  1  0
 17 56  1  0
 17 57  1  0
 17 58  1  0
 23 59  1  0
 24 60  1  0
 25 61  1  0
 26 62  1  0
 28 63  1  0
 31 64  1  0
 31 65  1  0
 32 66  1  0
 32 67  1  0
 33 68  1  0
 33 69  1  0
 34 70  1  0
 34 71  1  0
M  CHG  2   3   1  16   1
M  END
>  <UniqueID>  (17) 
17

>  <SMILES>  (17) 
CC[NH+](CC)CCNc1c2ccccc2[n+](C)c2c1sc1c3ccccc3cc(OCCCN)c12

>  <Energy>  (17) 
144.7528856681223

>  <Genealogy>  (17) 
CC[NH+](CC)CCNc1c2ccccc2[n+](C)c2c1sc1c3ccccc3cc(OCCCN)c12 (protonated)
CC[NH+](CC)CCNc1c2ccccc2[n+](C)c2c1sc1c3ccccc3cc(OCCCN)c12 (3D coordinates assigned)
CC[NH+](CC)CCNc1c2ccccc2[n+](C)c2c1sc1c3ccccc3cc(OCCCN)c12 (optimized conformer: 144.7528856681223 kcal/mol)

>  <smiles>  (17) 
CCN(CC)CCNc1c2ccccc2[n+](C)c2c1sc1c3ccccc3cc(OCCCN)c12

>  <score_type>  (17) 
oracle

>  <origin>  (17) 
adg

>  <m_score__min__energy>  (17) 
-8.5500000000000007

>  <m_primary>  (17) 
energy

$$$$
17:0
     RDKit          3D

 47 49  0  0  0  0  0  0  0  0999 V2000
   -6.2960   25.3760  -29.6560 C   0  0  0  0  0  0  0  0  0  0  0  0
   -5.3580   25.6670  -30.8210 C   0  0  0  0  0  0  0  0  0  0  0  0
   -3.9820   25.2790  -30.4590 N   0  0  0  0  0  0  0  0  0  0  0  0
   -3.9380   24.2090  -29.4500 C   0  0  0  0  0  0  0  0  0  0  0  0
   -3.9020   22.8260  -30.1060 C   0  0  0  0  0  0  0  0  0  0  0  0
   -3.4730   22.9440  -31.4510 O   0  0  0  0  0  0  0  0  0  0  0  0
   -2.5430   21.9350  -31.7970 C   0  0  0  0  0  0  0  0  0  0  0  0
   -2.9930   21.1800  -33.0530 C   0  0  0  0  0  0  0  0  0  0  0  0
   -4.3390   21.5910  -33.4530 N   0  0  0  0  0  0  0  0  0  0  0  0
   -5.4980   20.8220  -33.0880 C   0  0  0  0  0  0  0  0  0  0  0  0
   -5.5990   19.4370  -33.3430 C   0  0  0  0  0  0  0  0  0  0  0  0
   -4.5070   18.7160  -33.8640 C   0  0  0  0  0  0  0  0  0  0  0  0
   -4.6340   17.3650  -34.1790 C   0  0  0  0  0  0  0  0  0  0  0  0
   -5.8440   16.7110  -33.9750 C   0  0  0  0  0  0  0  0  0  0  0  0
   -6.9270   17.3890  -33.4170 C   0  0  0  0  0  0  0  0  0  0  0  0
   -6.8240   18.7520  -33.0470 C   0  0  0  0  0  0  0  0  0  0  0  0
   -7.8690   19.4200  -32.4200 N   0  0  0  0  0  0  0  0  0  0  0  0
   -9.0850   18.6950  -31.9980 C   0  0  0  0  0  0  0  0  0  0  0  0
   -7.7560   20.7730  -32.1980 C   0  0  0  0  0  0  0  0  0  0  0  0
   -8.7600   21.6310  -31.6950 C   0  0  0  0  0  0  0  0  0  0  0  0
   -8.3550   22.9600  -31.6040 C   0  0  0  0  0  0  0  0  0  0  0  0
   -6.7710   23.0870  -32.1570 S   0  0  0  0  0  0  0  0  0  0  0  0
   -6.5900   21.4530  -32.5090 C   0  0  0  0  0  0  0  0  0  0  0  0
   -5.7644   25.5409  -28.7072 H   0  0  0  0  0  0  0  0  0  0  0  0
   -7.1665   26.0463  -29.7099 H   0  0  0  0  0  0  0  0  0  0  0  0
   -6.6343   24.3307  -29.7099 H   0  0  0  0  0  0  0  0  0  0  0  0
   -5.6801   25.0928  -31.7022 H   0  0  0  0  0  0  0  0  0  0  0  0
   -5.3851   26.7423  -31.0512 H   0  0  0  0  0  0  0  0  0  0  0  0
   -3.5070   24.9180  -31.3190 H   0  0  0  0  0  0  0  0  0  0  0  0
   -3.0367   24.3360  -28.8323 H   0  0  0  0  0  0  0  0  0  0  0  0
   -4.8460   24.2767  -28.8328 H   0  0  0  0  0  0  0  0  0  0  0  0
   -3.2036   22.1787  -29.5554 H   0  0  0  0  0  0  0  0  0  0  0  0
   -4.9103   22.3869  -30.0835 H   0  0  0  0  0  0  0  0  0  0  0  0
   -1.5637   22.3984  -31.9875 H   0  0  0  0  0  0  0  0  0  0  0  0
   -2.4756   21.2200  -30.9638 H   0  0  0  0  0  0  0  0  0  0  0  0
   -2.2920   21.3945  -33.8731 H   0  0  0  0  0  0  0  0  0  0  0  0
   -3.0051   20.1027  -32.8310 H   0  0  0  0  0  0  0  0  0  0  0  0
   -4.4110   22.1960  -34.3030 H   0  0  0  0  0  0  0  0  0  0  0  0
   -3.5448   19.2245  -34.0237 H   0  0  0  0  0  0  0  0  0  0  0  0
   -3.7751   16.8143  -34.5901 H   0  0  0  0  0  0  0  0  0  0  0  0
   -5.9474   15.6524  -34.2555 H   0  0  0  0  0  0  0  0  0  0  0  0
   -7.8769   16.8565  -33.2617 H   0  0  0  0  0  0  0  0  0  0  0  0
   -9.1324   18.6668  -30.8994 H   0  0  0  0  0  0  0  0  0  0  0  0
   -9.9740   19.2106  -32.3902 H   0  0  0  0  0  0  0  0  0  0  0  0
   -9.0541   17.6678  -32.3902 H   0  0  0  0  0  0  0  0  0  0  0  0
   -9.7622   21.2833  -31.4042 H   0  0  0  0  0  0  0  0  0  0  0  0
   -8.9706   23.7919  -31.2311 H   0  0  0  0  0  0  0  0  0  0  0  0
  1  2  1  0
  2  3  1  0
  3  4  1  0
  4  5  1  0
  5  6  1  0
  6  7  1  0
  7  8  1  0
  8  9  1  0
  9 10  1  0
 10 11  2  0
 11 12  1  0
 12 13  2  0
 13 14  1  0
 14 15  2  0
 15 16  1  0
 16 17  2  0
 17 18  1  0
 17 19  1  0
 19 20  1  0
 20 21  2  0
 21 22  1  0
 22 23  1  0
 23 10  1  0
 16 11  1  0
 23 19  2  0
  1 24  1  0
  1 25  1  0
  1 26  1  0
  2 27  1  0
  2 28  1  0
  3 29  1  0
  4 30  1  0
  4 31  1  0
  5 32  1  0
  5 33  1  0
  7 34  1  0
  7 35  1  0
  8 36  1  0
  8 37  1  0
  9 38  1  0
 12 39  1  0
 13 40  1  0
 14 41  1  0
 15 42  1  0
 18 43  1  0
 18 44  1  0
 18 45  1  0
 20 46  1  0
 21 47  1  0
M  CHG  1  17   1
M  END
>  <UniqueID>  (18) 
18

>  <SMILES>  (18) 
CCNCCOCCNc1c2ccccc2[n+](C)c2ccsc12

>  <Energy>  (18) 
91.57183242287464

>  <Genealogy>  (18) 
CCNCCOCCNc1c2ccccc2[n+](C)c2ccsc12 (3D coordinates assigned)
CCNCCOCCNc1c2ccccc2[n+](C)c2ccsc12 (optimized conformer: 91.57183242287464 kcal/mol)

>  <smiles>  (18) 
CCNCCOCCNc1c2ccccc2[n+](C)c2ccsc12

>  <score_type>  (18) 
oracle

>  <origin>  (18) 
adg

>  <m_score__min__energy>  (18) 
-8.7699999999999996

>  <m_primary>  (18) 
energy

$$$$
18:0
     RDKit          3D

 41 43  0  0  0  0  0  0  0  0999 V2000
   -4.0780   21.8160  -30.5220 C   0  0  0  0  0  0  0  0  0  0  0  0
   -3.4180   23.0180  -31.1940 C   0  0  0  0  0  0  0  0  0  0  0  0
   -3.8690   24.2770  -30.5630 N   0  0  0  0  0  0  0  0  0  0  0  0
   -3.1200   24.5150  -29.3160 C   0  0  0  0  0  0  0  0  0  0  0  0
   -5.3280   24.2630  -30.3000 C   0  0  0  0  0  0  0  0  0  0  0  0
   -6.0990   24.5320  -31.5970 C   0  0  0  0  0  0  0  0  0  0  0  0
   -6.2760   23.2970  -32.3610 N   0  0  0  0  0  0  0  0  0  0  0  0
   -7.3020   22.3120  -32.1040 C   0  0  0  0  0  0  0  0  0  0  0  0
   -8.5130   22.6580  -31.4730 C   0  0  0  0  0  0  0  0  0  0  0  0
   -9.4810   21.6810  -31.2360 C   0  0  0  0  0  0  0  0  0  0  0  0
   -9.2630   20.3930  -31.6070 N   0  0  0  0  0  0  0  0  0  0  0  0
   -8.1080   20.0150  -32.2150 C   0  0  0  0  0  0  0  0  0  0  0  0
   -7.9120   18.6820  -32.5870 C   0  0  0  0  0  0  0  0  0  0  0  0
   -6.7190   18.3040  -33.2160 C   0  0  0  0  0  0  0  0  0  0  0  0
   -6.4910   16.9760  -33.6030 C   0  0  0  0  0  0  0  0  0  0  0  0
   -5.2900   16.6280  -34.2310 C   0  0  0  0  0  0  0  0  0  0  0  0
   -4.3150   17.6020  -34.4750 C   0  0  0  0  0  0  0  0  0  0  0  0
   -4.5360   18.9280  -34.0920 C   0  0  0  0  0  0  0  0  0  0  0  0
   -5.7340   19.2870  -33.4640 C   0  0  0  0  0  0  0  0  0  0  0  0
   -5.9500   20.5760  -33.0920 N   0  0  0  0  0  0  0  0  0  0  0  0
   -7.1000   20.9680  -32.4770 C   0  0  0  0  0  0  0  0  0  0  0  0
   -4.0168   21.9274  -29.4294 H   0  0  0  0  0  0  0  0  0  0  0  0
   -5.1336   21.7596  -30.8263 H   0  0  0  0  0  0  0  0  0  0  0  0
   -3.5590   20.8951  -30.8263 H   0  0  0  0  0  0  0  0  0  0  0  0
   -2.3258   22.9340  -31.0939 H   0  0  0  0  0  0  0  0  0  0  0  0
   -3.7017   23.0314  -32.2567 H   0  0  0  0  0  0  0  0  0  0  0  0
   -3.7699   24.3085  -28.4528 H   0  0  0  0  0  0  0  0  0  0  0  0
   -2.2436   23.8511  -29.2823 H   0  0  0  0  0  0  0  0  0  0  0  0
   -2.7876   25.5630  -29.2823 H   0  0  0  0  0  0  0  0  0  0  0  0
   -5.6167   23.2788  -29.9025 H   0  0  0  0  0  0  0  0  0  0  0  0
   -5.5696   25.0476  -29.5679 H   0  0  0  0  0  0  0  0  0  0  0  0
   -7.0868   24.9480  -31.3498 H   0  0  0  0  0  0  0  0  0  0  0  0
   -5.5253   25.2452  -32.2071 H   0  0  0  0  0  0  0  0  0  0  0  0
   -5.5930   23.1270  -33.1350 H   0  0  0  0  0  0  0  0  0  0  0  0
   -8.6957   23.6986  -31.1670 H   0  0  0  0  0  0  0  0  0  0  0  0
  -10.4265   21.9560  -30.7456 H   0  0  0  0  0  0  0  0  0  0  0  0
   -8.6918   17.9326  -32.3865 H   0  0  0  0  0  0  0  0  0  0  0  0
   -7.2556   16.2083  -33.4131 H   0  0  0  0  0  0  0  0  0  0  0  0
   -5.1116   15.5857  -34.5339 H   0  0  0  0  0  0  0  0  0  0  0  0
   -3.3726   17.3234  -34.9693 H   0  0  0  0  0  0  0  0  0  0  0  0
   -3.7670   19.6906  -34.2845 H   0  0  0  0  0  0  0  0  0  0  0  0
  1  2  1  0
  2  3  1  0
  3  4  1  0
  3  5  1  0
  5  6  1  0
  6  7  1  0
  7  8  1  0
  8  9  2  0
  9 10  1  0
 10 11  2  0
 11 12  1  0
 12 13  2  0
 13 14  1  0
 14 15  2  0
 15 16  1  0
 16 17  2  0
 17 18  1  0
 18 19  2  0
 19 20  1  0
 20 21  2  0
 21  8  1  0
 21 12  1  0
 19 14  1  0
  1 22  1  0
  1 23  1  0
  1 24  1  0
  2 25  1  0
  2 26  1  0
  4 27  1  0
  4 28  1  0
  4 29  1  0
  5 30  1  0
  5 31  1  0
  6 32  1  0
  6 33  1  0
  7 34  1  0
  9 35  1  0
 10 36  1  0
 13 37  1  0
 15 38  1  0
 16 39  1  0
 17 40  1  0
 18 41  1  0
M  END
>  <UniqueID>  (19) 
19

>  <SMILES>  (19) 
CCN(C)CCNc1ccnc2cc3ccccc3nc12

>  <Energy>  (19) 
47.61311089433608

>  <Genealogy>  (19) 
CCN(C)CCNc1ccnc2cc3ccccc3nc12 (3D coordinates assigned)
CCN(C)CCNc1ccnc2cc3ccccc3nc12 (optimized conformer: 47.61311089433608 kcal/mol)

>  <smiles>  (19) 
CCN(C)CCNc1ccnc2cc3ccccc3nc12

>  <score_type>  (19) 
oracle

>  <origin>  (19) 
adg

>  <m_score__min__energy>  (19) 
-8.1300000000000008

>  <m_primary>  (19) 
energy

$$$$
19:0
     RDKit          3D

 38 39  0  0  0  0  0  0  0  0999 V2000
   -4.2810   17.2280  -35.2740 C   0  0  0  0  0  0  0  0  0  0  0  0
   -5.7220   17.5650  -34.8950 C   0  0  0  0  0  0  0  0  0  0  0  0
   -5.8150   17.9190  -33.4590 N   0  0  0  0  0  0  0  0  0  0  0  0
   -4.5120   17.7070  -32.7950 C   0  0  0  0  0  0  0  0  0  0  0  0
   -6.8780   17.1280  -32.7970 C   0  0  0  0  0  0  0  0  0  0  0  0
   -7.5170   17.9020  -31.6330 C   0  0  0  0  0  0  0  0  0  0  0  0
   -8.5870   18.8850  -32.1410 C   0  0  0  0  0  0  0  0  0  0  0  0
   -8.0580   19.8070  -33.1620 N   0  0  0  0  0  0  0  0  0  0  0  0
   -7.5130   21.0040  -32.5670 C   0  0  0  0  0  0  0  0  0  0  0  0
   -8.3170   21.8770  -31.7980 C   0  0  0  0  0  0  0  0  0  0  0  0
   -7.7620   23.0350  -31.2050 C   0  0  0  0  0  0  0  0  0  0  0  0
   -6.3900   23.3450  -31.3640 C   0  0  0  0  0  0  0  0  0  0  0  0
   -5.8190   24.5200  -30.7610 N   0  0  0  0  0  0  0  0  0  0  0  0
   -4.6170   24.8080  -30.9330 O   0  0  0  0  0  0  0  0  0  0  0  0
   -6.5950   25.3490  -29.9830 O   0  0  0  0  0  0  0  0  0  0  0  0
   -5.6300   22.4530  -32.1310 C   0  0  0  0  0  0  0  0  0  0  0  0
   -4.3240   22.4950  -32.4400 N   0  0  0  0  0  0  0  0  0  0  0  0
   -4.1230   21.4270  -33.1720 O   0  0  0  0  0  0  0  0  0  0  0  0
   -5.1930   20.6960  -33.3620 N   0  0  0  0  0  0  0  0  0  0  0  0
   -6.1630   21.3430  -32.7010 C   0  0  0  0  0  0  0  0  0  0  0  0
   -3.6846   17.0885  -34.3603 H   0  0  0  0  0  0  0  0  0  0  0  0
   -4.2649   16.3019  -35.8673 H   0  0  0  0  0  0  0  0  0  0  0  0
   -3.8559   18.0510  -35.8673 H   0  0  0  0  0  0  0  0  0  0  0  0
   -6.0651   18.4171  -35.5002 H   0  0  0  0  0  0  0  0  0  0  0  0
   -6.3535   16.6845  -35.0846 H   0  0  0  0  0  0  0  0  0  0  0  0
   -4.6487   17.7292  -31.7037 H   0  0  0  0  0  0  0  0  0  0  0  0
   -4.1029   16.7305  -33.0935 H   0  0  0  0  0  0  0  0  0  0  0  0
   -3.8145   18.5035  -33.0935 H   0  0  0  0  0  0  0  0  0  0  0  0
   -7.6566   16.8874  -33.5359 H   0  0  0  0  0  0  0  0  0  0  0  0
   -6.4237   16.2114  -32.3926 H   0  0  0  0  0  0  0  0  0  0  0  0
   -7.9859   17.1871  -30.9409 H   0  0  0  0  0  0  0  0  0  0  0  0
   -6.7301   18.4762  -31.1221 H   0  0  0  0  0  0  0  0  0  0  0  0
   -9.4164   18.3102  -32.5788 H   0  0  0  0  0  0  0  0  0  0  0  0
   -8.9246   19.4877  -31.2850 H   0  0  0  0  0  0  0  0  0  0  0  0
   -7.3010   19.3190  -33.6940 H   0  0  0  0  0  0  0  0  0  0  0  0
   -8.8100   20.0490  -33.8490 H   0  0  0  0  0  0  0  0  0  0  0  0
   -9.3851   21.6532  -31.6596 H   0  0  0  0  0  0  0  0  0  0  0  0
   -8.4046   23.7031  -30.6128 H   0  0  0  0  0  0  0  0  0  0  0  0
  1  2  1  0
  2  3  1  0
  3  4  1  0
  3  5  1  0
  5  6  1  0
  6  7  1  0
  7  8  1  0
  8  9  1  0
  9 10  2  0
 10 11  1  0
 11 12  2  0
 12 13  1  0
 13 14  2  0
 13 15  1  0
 12 16  1  0
 16 17  2  0
 17 18  1  0
 18 19  1  0
 19 20  2  0
 20  9  1  0
 20 16  1  0
  1 21  1  0
  1 22  1  0
  1 23  1  0
  2 24  1  0
  2 25  1  0
  4 26  1  0
  4 27  1  0
  4 28  1  0
  5 29  1  0
  5 30  1  0
  6 31  1  0
  6 32  1  0
  7 33  1  0
  7 34  1  0
  8 35  1  0
  8 36  1  0
 10 37  1  0
 11 38  1  0
M  CHG  3   8   1  13   1  15  -1
M  END
>  <UniqueID>  (20) 
20

>  <SMILES>  (20) 
CCN(C)CCC[NH2+]c1ccc([N+](=O)[O-])c2nonc12

>  <Energy>  (20) 
80.41200342662509

>  <Genealogy>  (20) 
CCN(C)CCC[NH2+]c1ccc([N+](=O)[O-])c2nonc12 (protonated)
CCN(C)CCC[NH2+]c1ccc([N+](=O)[O-])c2nonc12 (3D coordinates assigned)
CCN(C)CCC[NH2+]c1ccc([N+](=O)[O-])c2nonc12 (optimized conformer: 80.41200342662509 kcal/mol)

>  <smiles>  (20) 
CCN(C)CCCNc1ccc([N+](=O)[O-])c2nonc12

>  <score_type>  (20) 
oracle

>  <origin>  (20) 
adg

>  <m_score__min__energy>  (20) 
-7.2800000000000002

>  <m_primary>  (20) 
energy

$$$$
20:0
     RDKit          3D

 37 38  0  0  0  0  0  0  0  0999 V2000
   -8.5150   20.6590  -31.8390 C   0  0  0  0  0  0  0  0  0  0  0  0
   -8.9400   21.7720  -30.8860 C   0  0  0  0  0  0  0  0  0  0  0  0
   -7.8220   22.2570  -30.1470 O   0  0  0  0  0  0  0  0  0  0  0  0
   -6.7980   23.0230  -30.7160 C   0  0  0  0  0  0  0  0  0  0  0  0
   -6.8550   23.3690  -31.9290 O   0  0  0  0  0  0  0  0  0  0  0  0
   -5.5930   23.3790  -29.8790 C   0  0  2  0  0  0  0  0  0  0  0  0
   -4.9400   24.6930  -30.2800 C   0  0  0  0  0  0  0  0  0  0  0  0
   -5.7340   25.8370  -30.8440 C   0  0  0  0  0  0  0  0  0  0  0  0
   -3.6980   24.9120  -29.9640 N   0  0  0  0  0  0  0  0  0  0  0  0
   -2.8560   23.9400  -29.3230 C   0  0  0  0  0  0  0  0  0  0  0  0
   -1.2590   24.4880  -28.7010 S   0  0  0  0  0  0  0  0  0  0  0  0
   -1.9340   25.0230  -27.0980 C   0  0  0  0  0  0  0  0  0  0  0  0
   -3.2660   22.6630  -29.2000 C   0  0  0  0  0  0  0  0  0  0  0  0
   -2.4380   21.6680  -28.5590 C   0  0  0  0  0  0  0  0  0  0  0  0
   -1.7760   20.8700  -28.0440 N   0  0  0  0  0  0  0  0  0  0  0  0
   -4.5550   22.2210  -29.8530 C   0  0  2  0  0  0  0  0  0  0  0  0
   -4.2560   21.6660  -31.2280 C   0  0  0  0  0  0  0  0  0  0  0  0
   -3.1980   22.0560  -32.0400 C   0  0  0  0  0  0  0  0  0  0  0  0
   -3.1250   21.3380  -33.2400 C   0  0  0  0  0  0  0  0  0  0  0  0
   -4.1170   20.3770  -33.3780 C   0  0  0  0  0  0  0  0  0  0  0  0
   -5.0830   20.4180  -32.0040 S   0  0  0  0  0  0  0  0  0  0  0  0
   -8.1818   19.7863  -31.2582 H   0  0  0  0  0  0  0  0  0  0  0  0
   -9.3675   20.3737  -32.4730 H   0  0  0  0  0  0  0  0  0  0  0  0
   -7.6894   21.0145  -32.4730 H   0  0  0  0  0  0  0  0  0  0  0  0
   -9.3747   22.5986  -31.4672 H   0  0  0  0  0  0  0  0  0  0  0  0
   -9.6822   21.3695  -30.1809 H   0  0  0  0  0  0  0  0  0  0  0  0
   -5.9735   23.5275  -28.8576 H   0  0  0  0  0  0  0  0  0  0  0  0
   -6.1498   26.4360  -30.0204 H   0  0  0  0  0  0  0  0  0  0  0  0
   -5.0789   26.4684  -31.4623 H   0  0  0  0  0  0  0  0  0  0  0  0
   -6.5546   25.4442  -31.4623 H   0  0  0  0  0  0  0  0  0  0  0  0
   -1.3541   24.5633  -26.2841 H   0  0  0  0  0  0  0  0  0  0  0  0
   -1.8701   26.1184  -27.0204 H   0  0  0  0  0  0  0  0  0  0  0  0
   -2.9859   24.7107  -27.0204 H   0  0  0  0  0  0  0  0  0  0  0  0
   -5.0152   21.4165  -29.2605 H   0  0  0  0  0  0  0  0  0  0  0  0
   -2.4878   22.8504  -31.7671 H   0  0  0  0  0  0  0  0  0  0  0  0
   -2.3531   21.5188  -34.0026 H   0  0  0  0  0  0  0  0  0  0  0  0
   -4.2481   19.7045  -34.2386 H   0  0  0  0  0  0  0  0  0  0  0  0
  1  2  1  0
  2  3  1  0
  3  4  1  0
  4  5  2  0
  4  6  1  0
  6  7  1  0
  7  8  1  0
  7  9  2  0
  9 10  1  0
 10 11  1  0
 11 12  1  0
 10 13  2  0
 13 14  1  0
 14 15  3  0
 13 16  1  0
 16 17  1  0
 17 18  2  0
 18 19  1  0
 19 20  2  0
 20 21  1  0
 16  6  1  0
 21 17  1  0
  1 22  1  0
  1 23  1  0
  1 24  1  0
  2 25  1  0
  2 26  1  0
  6 27  1  1
  8 28  1  0
  8 29  1  0
  8 30  1  0
 12 31  1  0
 12 32  1  0
 12 33  1  0
 16 34  1  1
 18 35  1  0
 19 36  1  0
 20 37  1  0
M  END
>  <UniqueID>  (21) 
21

>  <SMILES>  (21) 
CCOC(=O)[C@@H]1C(C)=NC(SC)=C(C#N)[C@@H]1c1cccs1

>  <Energy>  (21) 
55.91356790028563

>  <Genealogy>  (21) 
CCOC(=O)[C@@H]1C(C)=NC(SC)=C(C#N)[C@@H]1c1cccs1 (chirality)
CCOC(=O)[C@@H]1C(C)=NC(SC)=C(C#N)[C@@H]1c1cccs1 (3D coordinates assigned)
CCOC(=O)[C@@H]1C(C)=NC(SC)=C(C#N)[C@@H]1c1cccs1 (nonaromatic ring conformer: 55.91356790028563 kcal/mol)

>  <smiles>  (21) 
CCOC(=O)C1C(C)=NC(SC)=C(C#N)C1c1cccs1

>  <score_type>  (21) 
oracle

>  <origin>  (21) 
adg

>  <m_score__min__energy>  (21) 
-6.6600000000000001

>  <m_primary>  (21) 
energy

$$$$
21:0
     RDKit          3D

 40 42  0  0  0  0  0  0  0  0999 V2000
   -5.5060   19.1060  -32.4030 C   0  0  0  0  0  0  0  0  0  0  0  0
   -5.4830   20.4930  -33.0370 C   0  0  0  0  0  0  0  0  0  0  0  0
   -6.3860   21.3890  -32.3200 N   0  0  0  0  0  0  0  0  0  0  0  0
   -7.7100   21.2580  -32.3170 N   0  0  0  0  0  0  0  0  0  0  0  0
   -8.2390   22.2900  -31.6150 C   0  0  0  0  0  0  0  0  0  0  0  0
   -7.2070   23.0930  -31.1810 C   0  0  0  0  0  0  0  0  0  0  0  0
   -7.1920   24.2730  -30.4480 C   0  0  0  0  0  0  0  0  0  0  0  0
   -5.9420   24.8670  -30.1930 C   0  0  0  0  0  0  0  0  0  0  0  0
   -4.7490   24.2870  -30.6920 C   0  0  0  0  0  0  0  0  0  0  0  0
   -3.4950   24.9190  -30.4000 N   0  0  0  0  0  0  0  0  0  0  0  0
   -2.5960   24.5570  -29.3430 C   0  0  0  0  0  0  0  0  0  0  0  0
   -1.5960   25.2930  -29.1170 O   0  0  0  0  0  0  0  0  0  0  0  0
   -2.7590   23.2780  -28.5610 C   0  0  0  0  0  0  0  0  0  0  0  0
   -2.1140   22.0880  -29.2840 C   0  0  0  0  0  0  0  0  0  0  0  0
   -2.0330   20.8730  -28.3910 C   0  0  0  0  0  0  0  0  0  0  0  0
   -0.8620   20.0980  -28.3560 C   0  0  0  0  0  0  0  0  0  0  0  0
   -0.7860   18.9760  -27.5220 C   0  0  0  0  0  0  0  0  0  0  0  0
   -1.8700   18.6280  -26.7120 C   0  0  0  0  0  0  0  0  0  0  0  0
   -3.0330   19.4040  -26.7320 C   0  0  0  0  0  0  0  0  0  0  0  0
   -3.1140   20.5260  -27.5640 C   0  0  0  0  0  0  0  0  0  0  0  0
   -4.8070   23.0700  -31.4120 C   0  0  0  0  0  0  0  0  0  0  0  0
   -6.0630   22.5080  -31.6420 C   0  0  0  0  0  0  0  0  0  0  0  0
   -5.5044   19.2036  -31.3073 H   0  0  0  0  0  0  0  0  0  0  0  0
   -6.4131   18.5719  -32.7222 H   0  0  0  0  0  0  0  0  0  0  0  0
   -4.6171   18.5421  -32.7222 H   0  0  0  0  0  0  0  0  0  0  0  0
   -4.4604   20.8959  -32.9931 H   0  0  0  0  0  0  0  0  0  0  0  0
   -5.8106   20.4150  -34.0842 H   0  0  0  0  0  0  0  0  0  0  0  0
   -9.3093   22.4576  -31.4244 H   0  0  0  0  0  0  0  0  0  0  0  0
   -8.1240   24.7269  -30.0800 H   0  0  0  0  0  0  0  0  0  0  0  0
   -5.8903   25.7919  -29.5997 H   0  0  0  0  0  0  0  0  0  0  0  0
   -2.2831   23.3983  -27.5766 H   0  0  0  0  0  0  0  0  0  0  0  0
   -3.8347   23.0742  -28.4549 H   0  0  0  0  0  0  0  0  0  0  0  0
   -2.7160   21.8400  -30.1706 H   0  0  0  0  0  0  0  0  0  0  0  0
   -1.0911   22.3730  -29.5711 H   0  0  0  0  0  0  0  0  0  0  0  0
   -0.0028   20.3732  -28.9853 H   0  0  0  0  0  0  0  0  0  0  0  0
    0.1297   18.3667  -27.5044 H   0  0  0  0  0  0  0  0  0  0  0  0
   -1.8086   17.7446  -26.0594 H   0  0  0  0  0  0  0  0  0  0  0  0
   -3.8857   19.1319  -26.0925 H   0  0  0  0  0  0  0  0  0  0  0  0
   -4.0276   21.1386  -27.5705 H   0  0  0  0  0  0  0  0  0  0  0  0
   -3.8913   22.5829  -31.7784 H   0  0  0  0  0  0  0  0  0  0  0  0
  1  2  1  0
  2  3  1  0
  3  4  1  0
  4  5  2  0
  5  6  1  0
  6  7  2  0
  7  8  1  0
  8  9  2  0
  9 10  1  0
 10 11  1  0
 11 12  2  0
 11 13  1  0
 13 14  1  0
 14 15  1  0
 15 16  2  0
 16 17  1  0
 17 18  2  0
 18 19  1  0
 19 20  2  0
  9 21  1  0
 21 22  2  0
 22  3  1  0
 22  6  1  0
 20 15  1  0
  1 23  1  0
  1 24  1  0
  1 25  1  0
  2 26  1  0
  2 27  1  0
  5 28  1  0
  7 29  1  0
  8 30  1  0
 13 31  1  0
 13 32  1  0
 14 33  1  0
 14 34  1  0
 16 35  1  0
 17 36  1  0
 18 37  1  0
 19 38  1  0
 20 39  1  0
 21 40  1  0
M  CHG  1  10  -1
M  END
>  <UniqueID>  (22) 
22

>  <SMILES>  (22) 
CCn1ncc2ccc([N-]C(=O)CCc3ccccc3)cc21

>  <Energy>  (22) 
78.36698052055955

>  <Genealogy>  (22) 
CCn1ncc2ccc([N-]C(=O)CCc3ccccc3)cc21 (protonated)
CCn1ncc2ccc([N-]C(=O)CCc3ccccc3)cc21 (3D coordinates assigned)
CCn1ncc2ccc([N-]C(=O)CCc3ccccc3)cc21 (optimized conformer: 78.36698052055955 kcal/mol)

>  <smiles>  (22) 
CCn1ncc2ccc(NC(=O)CCc3ccccc3)cc21

>  <score_type>  (22) 
oracle

>  <origin>  (22) 
adg

>  <m_score__min__energy>  (22) 
-9.8300000000000001

>  <m_primary>  (22) 
energy

$$$$
22:0
     RDKit          3D

 50 50  0  0  0  0  0  0  0  0999 V2000
   -3.8810   23.7730  -27.5420 C   0  0  0  0  0  0  0  0  0  0  0  0
   -3.8790   22.4100  -28.2500 C   0  0  0  0  0  0  0  0  0  0  0  0
   -4.2250   22.5130  -29.6780 N   0  0  0  0  0  0  0  0  0  0  0  0
   -3.0370   22.5850  -30.5380 C   0  0  0  0  0  0  0  0  0  0  0  0
   -3.4340   22.2910  -31.9910 C   0  0  0  0  0  0  0  0  0  0  0  0
   -4.8760   21.9700  -32.1060 N   0  0  0  0  0  0  0  0  0  0  0  0
   -5.1400   20.8750  -33.0790 C   0  0  0  0  0  0  0  0  0  0  0  0
   -6.2550   19.9260  -32.6710 C   0  0  0  0  0  0  0  0  0  0  0  0
   -5.9780   18.7800  -31.9080 C   0  0  0  0  0  0  0  0  0  0  0  0
   -7.0080   17.9110  -31.5410 C   0  0  0  0  0  0  0  0  0  0  0  0
   -8.3220   18.1680  -31.9410 C   0  0  0  0  0  0  0  0  0  0  0  0
   -8.6060   19.2890  -32.7210 C   0  0  0  0  0  0  0  0  0  0  0  0
   -7.5780   20.1620  -33.0900 C   0  0  0  0  0  0  0  0  0  0  0  0
   -5.7330   23.1660  -32.3200 C   0  0  0  0  0  0  0  0  0  0  0  0
   -6.9030   23.2410  -31.2850 C   0  0  0  0  0  0  0  0  0  0  0  0
   -6.8500   22.1300  -30.4230 O   0  0  0  0  0  0  0  0  0  0  0  0
   -6.7600   24.5250  -30.4150 C   0  0  0  0  0  0  0  0  0  0  0  0
   -5.4450   25.2850  -30.6120 C   0  0  0  0  0  0  0  0  0  0  0  0
   -8.2730   23.2770  -32.0310 C   0  0  0  0  0  0  0  0  0  0  0  0
   -9.3040   22.2710  -31.5080 C   0  0  0  0  0  0  0  0  0  0  0  0
   -3.8808   23.6203  -26.4526 H   0  0  0  0  0  0  0  0  0  0  0  0
   -2.9837   24.3387  -27.8331 H   0  0  0  0  0  0  0  0  0  0  0  0
   -4.7800   24.3361  -27.8331 H   0  0  0  0  0  0  0  0  0  0  0  0
   -2.8753   21.9686  -28.1616 H   0  0  0  0  0  0  0  0  0  0  0  0
   -4.6422   21.7824  -27.7667 H   0  0  0  0  0  0  0  0  0  0  0  0
   -4.7950   21.6780  -29.9550 H   0  0  0  0  0  0  0  0  0  0  0  0
   -2.5999   23.5924  -30.4747 H   0  0  0  0  0  0  0  0  0  0  0  0
   -2.2987   21.8413  -30.2037 H   0  0  0  0  0  0  0  0  0  0  0  0
   -3.2145   23.1753  -32.6074 H   0  0  0  0  0  0  0  0  0  0  0  0
   -2.8580   21.4198  -32.3365 H   0  0  0  0  0  0  0  0  0  0  0  0
   -5.4113   21.3298  -34.0431 H   0  0  0  0  0  0  0  0  0  0  0  0
   -4.2203   20.2738  -33.1313 H   0  0  0  0  0  0  0  0  0  0  0  0
   -4.9446   18.5657  -31.5978 H   0  0  0  0  0  0  0  0  0  0  0  0
   -6.7840   17.0209  -30.9348 H   0  0  0  0  0  0  0  0  0  0  0  0
   -9.1319   17.4867  -31.6410 H   0  0  0  0  0  0  0  0  0  0  0  0
   -9.6383   19.4862  -33.0457 H   0  0  0  0  0  0  0  0  0  0  0  0
   -7.8049   21.0400  -33.7126 H   0  0  0  0  0  0  0  0  0  0  0  0
   -5.1131   24.0693  -32.2214 H   0  0  0  0  0  0  0  0  0  0  0  0
   -6.1730   23.0933  -33.3255 H   0  0  0  0  0  0  0  0  0  0  0  0
   -5.9930   21.6530  -30.5820 H   0  0  0  0  0  0  0  0  0  0  0  0
   -7.5891   25.2032  -30.6653 H   0  0  0  0  0  0  0  0  0  0  0  0
   -6.7750   24.1943  -29.3660 H   0  0  0  0  0  0  0  0  0  0  0  0
   -5.0147   25.5337  -29.6307 H   0  0  0  0  0  0  0  0  0  0  0  0
   -4.7385   24.6560  -31.1734 H   0  0  0  0  0  0  0  0  0  0  0  0
   -5.6373   26.2112  -31.1734 H   0  0  0  0  0  0  0  0  0  0  0  0
   -8.6949   24.2876  -31.9275 H   0  0  0  0  0  0  0  0  0  0  0  0
   -8.0689   23.0032  -33.0766 H   0  0  0  0  0  0  0  0  0  0  0  0
   -9.2974   22.2775  -30.4080 H   0  0  0  0  0  0  0  0  0  0  0  0
  -10.3046   22.5495  -31.8703 H   0  0  0  0  0  0  0  0  0  0  0  0
   -9.0501   21.2639  -31.8703 H   0  0  0  0  0  0  0  0  0  0  0  0
  1  2  1  0
  2  3  1  0
  3  4  1  0
  4  5  1  0
  5  6  1  0
  6  7  1  0
  7  8  1  0
  8  9  2  0
  9 10  1  0
 10 11  2  0
 11 12  1  0
 12 13  2  0
  6 14  1  0
 14 15  1  0
 15 16  1  0
 15 17  1  0
 17 18  1  0
 15 19  1  0
 19 20  1  0
 13  8  1  0
  1 21  1  0
  1 22  1  0
  1 23  1  0
  2 24  1  0
  2 25  1  0
  3 26  1  0
  4 27  1  0
  4 28  1  0
  5 29  1  0
  5 30  1  0
  7 31  1  0
  7 32  1  0
  9 33  1  0
 10 34  1  0
 11 35  1  0
 12 36  1  0
 13 37  1  0
 14 38  1  0
 14 39  1  0
 16 40  1  0
 17 41  1  0
 17 42  1  0
 18 43  1  0
 18 44  1  0
 18 45  1  0
 19 46  1  0
 19 47  1  0
 20 48  1  0
 20 49  1  0
 20 50  1  0
M  END
>  <UniqueID>  (23) 
23

>  <SMILES>  (23) 
CCNCCN(Cc1ccccc1)CC(O)(CC)CC

>  <Energy>  (23) 
48.15067241052997

>  <Genealogy>  (23) 
CCNCCN(Cc1ccccc1)CC(O)(CC)CC (3D coordinates assigned)
CCNCCN(Cc1ccccc1)CC(O)(CC)CC (optimized conformer: 48.15067241052997 kcal/mol)

>  <smiles>  (23) 
CCNCCN(Cc1ccccc1)CC(O)(CC)CC

>  <score_type>  (23) 
oracle

>  <origin>  (23) 
adg

>  <m_score__min__energy>  (23) 
-6.1600000000000001

>  <m_primary>  (23) 
energy

$$$$
23:0
     RDKit          3D

 41 44  0  0  0  0  0  0  0  0999 V2000
   -9.1060   22.8050  -32.0070 C   0  0  0  0  0  0  0  0  0  0  0  0
   -7.8890   22.5680  -31.1050 C   0  0  1  0  0  0  0  0  0  0  0  0
   -7.6230   21.0450  -30.9750 C   0  0  0  0  0  0  0  0  0  0  0  0
   -6.8910   20.5860  -32.1410 N   0  0  0  0  0  0  0  0  0  0  0  0
   -5.9050   21.3050  -32.6930 C   0  0  0  0  0  0  0  0  0  0  0  0
   -5.2050   20.6200  -33.6310 N   0  0  0  0  0  0  0  0  0  0  0  0
   -5.8030   19.4130  -33.6520 C   0  0  0  0  0  0  0  0  0  0  0  0
   -5.4550   18.2900  -34.3990 C   0  0  0  0  0  0  0  0  0  0  0  0
   -6.1980   17.1120  -34.1900 C   0  0  0  0  0  0  0  0  0  0  0  0
   -7.2450   17.0820  -33.2400 C   0  0  0  0  0  0  0  0  0  0  0  0
   -7.5630   18.2290  -32.4890 C   0  0  0  0  0  0  0  0  0  0  0  0
   -6.8210   19.3840  -32.7350 C   0  0  0  0  0  0  0  0  0  0  0  0
   -5.5330   22.6230  -32.1110 C   0  0  0  0  0  0  0  0  0  0  0  0
   -6.7360   23.3650  -31.6540 N   0  0  0  0  0  0  0  0  0  0  0  0
   -6.3480   24.4860  -30.7720 C   0  0  0  0  0  0  0  0  0  0  0  0
   -5.1360   24.1240  -29.9560 C   0  0  0  0  0  0  0  0  0  0  0  0
   -5.1980   23.1050  -28.9910 C   0  0  0  0  0  0  0  0  0  0  0  0
   -4.0740   22.7970  -28.2190 C   0  0  0  0  0  0  0  0  0  0  0  0
   -2.8820   23.5040  -28.4040 C   0  0  0  0  0  0  0  0  0  0  0  0
   -2.8130   24.5200  -29.3600 C   0  0  0  0  0  0  0  0  0  0  0  0
   -3.9360   24.8320  -30.1340 C   0  0  0  0  0  0  0  0  0  0  0  0
   -9.9959   22.9783  -31.3841 H   0  0  0  0  0  0  0  0  0  0  0  0
   -8.9259   23.6849  -32.6420 H   0  0  0  0  0  0  0  0  0  0  0  0
   -9.2693   21.9218  -32.6420 H   0  0  0  0  0  0  0  0  0  0  0  0
   -8.0589   22.9200  -30.0768 H   0  0  0  0  0  0  0  0  0  0  0  0
   -7.0301   20.8513  -30.0689 H   0  0  0  0  0  0  0  0  0  0  0  0
   -8.5804   20.5078  -30.9052 H   0  0  0  0  0  0  0  0  0  0  0  0
   -4.3610   20.9310  -34.1610 H   0  0  0  0  0  0  0  0  0  0  0  0
   -4.6299   18.3221  -35.1257 H   0  0  0  0  0  0  0  0  0  0  0  0
   -5.9620   16.2079  -34.7705 H   0  0  0  0  0  0  0  0  0  0  0  0
   -7.8158   16.1543  -33.0867 H   0  0  0  0  0  0  0  0  0  0  0  0
   -8.3657   18.2151  -31.7371 H   0  0  0  0  0  0  0  0  0  0  0  0
   -4.8637   22.4608  -31.2533 H   0  0  0  0  0  0  0  0  0  0  0  0
   -5.0297   23.2180  -32.8873 H   0  0  0  0  0  0  0  0  0  0  0  0
   -6.1186   25.3679  -31.3881 H   0  0  0  0  0  0  0  0  0  0  0  0
   -7.1823   24.7049  -30.0893 H   0  0  0  0  0  0  0  0  0  0  0  0
   -6.1345   22.5474  -28.8423 H   0  0  0  0  0  0  0  0  0  0  0  0
   -4.1274   21.9976  -27.4652 H   0  0  0  0  0  0  0  0  0  0  0  0
   -1.9981   23.2600  -27.7964 H   0  0  0  0  0  0  0  0  0  0  0  0
   -1.8746   25.0755  -29.5045 H   0  0  0  0  0  0  0  0  0  0  0  0
   -3.8790   25.6343  -30.8843 H   0  0  0  0  0  0  0  0  0  0  0  0
  1  2  1  0
  2  3  1  0
  3  4  1  0
  4  5  1  0
  5  6  2  0
  6  7  1  0
  7  8  2  0
  8  9  1  0
  9 10  2  0
 10 11  1  0
 11 12  2  0
  5 13  1  0
 13 14  1  0
 14 15  1  0
 15 16  1  0
 16 17  2  0
 17 18  1  0
 18 19  2  0
 19 20  1  0
 20 21  2  0
 14  2  1  0
 21 16  1  0
 12  4  1  0
 12  7  1  0
  1 22  1  0
  1 23  1  0
  1 24  1  0
  2 25  1  1
  3 26  1  0
  3 27  1  0
  6 28  1  0
  8 29  1  0
  9 30  1  0
 10 31  1  0
 11 32  1  0
 13 33  1  0
 13 34  1  0
 15 35  1  0
 15 36  1  0
 17 37  1  0
 18 38  1  0
 19 39  1  0
 20 40  1  0
 21 41  1  0
M  CHG  1   6   1
M  END
>  <UniqueID>  (24) 
24

>  <SMILES>  (24) 
C[C@H]1Cn2c([nH+]c3ccccc32)CN1Cc1ccccc1

>  <Energy>  (24) 
94.63401891536651

>  <Genealogy>  (24) 
CC1Cn2c([nH+]c3ccccc32)CN1Cc1ccccc1 (protonated)
C[C@H]1Cn2c([nH+]c3ccccc32)CN1Cc1ccccc1 (chirality)
C[C@H]1Cn2c([nH+]c3ccccc32)CN1Cc1ccccc1 (3D coordinates assigned)
C[C@H]1Cn2c([nH+]c3ccccc32)CN1Cc1ccccc1 (nonaromatic ring conformer: 94.63401891536651 kcal/mol)

>  <smiles>  (24) 
CC1Cn2c(nc3ccccc32)CN1Cc1ccccc1

>  <score_type>  (24) 
oracle

>  <origin>  (24) 
adg

>  <m_score__min__energy>  (24) 
-7.3899999999999997

>  <m_primary>  (24) 
energy

$$$$
24:0
     RDKit          3D

 35 35  0  0  0  0  0  0  0  0999 V2000
   -3.2340   24.3080  -29.1350 C   0  0  0  0  0  0  0  0  0  0  0  0
   -3.6920   24.4420  -30.4780 O   0  0  0  0  0  0  0  0  0  0  0  0
   -4.3500   23.4330  -31.1980 C   0  0  0  0  0  0  0  0  0  0  0  0
   -3.6980   22.2540  -31.5990 C   0  0  0  0  0  0  0  0  0  0  0  0
   -4.3810   21.2680  -32.3170 C   0  0  0  0  0  0  0  0  0  0  0  0
   -3.4110   19.6950  -32.8360 Br  0  0  0  0  0  0  0  0  0  0  0  0
   -5.7400   21.4470  -32.6400 C   0  0  0  0  0  0  0  0  0  0  0  0
   -6.5010   20.4120  -33.4340 C   0  0  0  0  0  0  0  0  0  0  0  0
   -7.9300   20.4440  -33.0950 N   0  0  0  0  0  0  0  0  0  0  0  0
   -8.1880   19.7920  -31.8040 C   0  0  0  0  0  0  0  0  0  0  0  0
   -8.5880   18.3350  -32.0290 C   0  0  0  0  0  0  0  0  0  0  0  0
   -7.2310   17.4060  -32.8270 S   0  0  0  0  0  0  0  0  0  0  0  0
   -6.1320   17.3830  -31.3730 C   0  0  0  0  0  0  0  0  0  0  0  0
   -6.3890   22.6260  -32.2430 C   0  0  0  0  0  0  0  0  0  0  0  0
   -5.7010   23.6220  -31.5220 C   0  0  0  0  0  0  0  0  0  0  0  0
   -6.3250   24.8110  -31.1140 O   0  0  0  0  0  0  0  0  0  0  0  0
   -6.4910   25.2120  -29.7570 C   0  0  0  0  0  0  0  0  0  0  0  0
   -4.0541   24.5479  -28.4423 H   0  0  0  0  0  0  0  0  0  0  0  0
   -2.8994   23.2743  -28.9631 H   0  0  0  0  0  0  0  0  0  0  0  0
   -2.3950   24.9983  -28.9631 H   0  0  0  0  0  0  0  0  0  0  0  0
   -2.6381   22.1055  -31.3449 H   0  0  0  0  0  0  0  0  0  0  0  0
   -6.3799   20.6197  -34.5074 H   0  0  0  0  0  0  0  0  0  0  0  0
   -6.1022   19.4162  -33.1903 H   0  0  0  0  0  0  0  0  0  0  0  0
   -8.4380   19.9010  -33.8320 H   0  0  0  0  0  0  0  0  0  0  0  0
   -7.2775   19.8294  -31.1879 H   0  0  0  0  0  0  0  0  0  0  0  0
   -9.0063   20.3173  -31.2898 H   0  0  0  0  0  0  0  0  0  0  0  0
   -8.8213   17.8711  -31.0593 H   0  0  0  0  0  0  0  0  0  0  0  0
   -9.4687   18.3085  -32.6875 H   0  0  0  0  0  0  0  0  0  0  0  0
   -6.7380   17.3957  -30.4551 H   0  0  0  0  0  0  0  0  0  0  0  0
   -5.5162   16.4718  -31.3932 H   0  0  0  0  0  0  0  0  0  0  0  0
   -5.4786   18.2677  -31.3932 H   0  0  0  0  0  0  0  0  0  0  0  0
   -7.4487   22.7746  -32.4980 H   0  0  0  0  0  0  0  0  0  0  0  0
   -6.1559   24.4025  -29.0918 H   0  0  0  0  0  0  0  0  0  0  0  0
   -5.8928   26.1151  -29.5657 H   0  0  0  0  0  0  0  0  0  0  0  0
   -7.5525   25.4280  -29.5657 H   0  0  0  0  0  0  0  0  0  0  0  0
  1  2  1  0
  2  3  1  0
  3  4  2  0
  4  5  1  0
  5  6  1  0
  5  7  2  0
  7  8  1  0
  8  9  1  0
  9 10  1  0
 10 11  1  0
 11 12  1  0
 12 13  1  0
  7 14  1  0
 14 15  2  0
 15 16  1  0
 16 17  1  0
 15  3  1  0
  1 18  1  0
  1 19  1  0
  1 20  1  0
  4 21  1  0
  8 22  1  0
  8 23  1  0
  9 24  1  0
 10 25  1  0
 10 26  1  0
 11 27  1  0
 11 28  1  0
 13 29  1  0
 13 30  1  0
 13 31  1  0
 14 32  1  0
 17 33  1  0
 17 34  1  0
 17 35  1  0
M  END
>  <UniqueID>  (25) 
25

>  <SMILES>  (25) 
COc1cc(Br)c(CNCCSC)cc1OC

>  <Energy>  (25) 
25.955459767233307

>  <Genealogy>  (25) 
COc1cc(Br)c(CNCCSC)cc1OC (3D coordinates assigned)
COc1cc(Br)c(CNCCSC)cc1OC (optimized conformer: 25.955459767233307 kcal/mol)

>  <smiles>  (25) 
COc1cc(Br)c(CNCCSC)cc1OC

>  <score_type>  (25) 
oracle

>  <origin>  (25) 
adg

>  <m_score__min__energy>  (25) 
-6.1799999999999997

>  <m_primary>  (25) 
energy

$$$$
25:0
     RDKit          3D

 46 49  0  0  0  0  0  0  0  0999 V2000
    1.7810   24.5380  -27.8650 N   0  0  0  0  0  0  0  0  0  0  0  0
    0.6780   24.1930  -27.9140 C   0  0  0  0  0  0  0  0  0  0  0  0
   -0.6940   23.7640  -27.9750 C   0  0  0  0  0  0  0  0  0  0  0  0
   -1.8000   24.5700  -28.2040 C   0  0  0  0  0  0  0  0  0  0  0  0
   -2.9300   23.8230  -28.1930 N   0  0  0  0  0  0  0  0  0  0  0  0
   -4.2920   24.3220  -28.3980 C   0  0  0  0  0  0  0  0  0  0  0  0
   -4.5720   24.5490  -29.8610 C   0  0  0  0  0  0  0  0  0  0  0  0
   -3.8770   25.3990  -30.4810 O   0  0  0  0  0  0  0  0  0  0  0  0
   -5.5960   23.8150  -30.5660 N   0  0  0  0  0  0  0  0  0  0  0  0
   -6.7720   23.3000  -29.8430 C   0  0  0  0  0  0  0  0  0  0  0  0
   -7.8090   22.7070  -30.8010 C   0  0  0  0  0  0  0  0  0  0  0  0
   -7.1450   21.8330  -31.7720 N   0  0  0  0  0  0  0  0  0  0  0  0
   -7.5760   20.4720  -31.9330 C   0  0  0  0  0  0  0  0  0  0  0  0
   -6.6370   19.4280  -31.8800 C   0  0  0  0  0  0  0  0  0  0  0  0
   -7.0460   18.1030  -32.0470 C   0  0  0  0  0  0  0  0  0  0  0  0
   -8.3930   17.8080  -32.2680 C   0  0  0  0  0  0  0  0  0  0  0  0
   -9.3350   18.8390  -32.3200 C   0  0  0  0  0  0  0  0  0  0  0  0
   -8.9310   20.1680  -32.1540 C   0  0  0  0  0  0  0  0  0  0  0  0
   -9.8650   21.1520  -32.1740 F   0  0  0  0  0  0  0  0  0  0  0  0
   -5.9480   22.3030  -32.4840 C   0  0  0  0  0  0  0  0  0  0  0  0
   -5.5360   23.7100  -32.0320 C   0  0  0  0  0  0  0  0  0  0  0  0
   -2.5420   22.5520  -27.9410 C   0  0  0  0  0  0  0  0  0  0  0  0
   -3.3420   21.4150  -27.7960 C   0  0  0  0  0  0  0  0  0  0  0  0
   -2.7050   20.1900  -27.5260 C   0  0  0  0  0  0  0  0  0  0  0  0
   -1.3010   20.1250  -27.4000 C   0  0  0  0  0  0  0  0  0  0  0  0
   -0.5180   21.2850  -27.5390 C   0  0  0  0  0  0  0  0  0  0  0  0
   -1.1760   22.4850  -27.8090 C   0  0  0  0  0  0  0  0  0  0  0  0
   -1.7644   25.6568  -28.3702 H   0  0  0  0  0  0  0  0  0  0  0  0
   -5.0077   23.5846  -28.0054 H   0  0  0  0  0  0  0  0  0  0  0  0
   -4.3960   25.2811  -27.8694 H   0  0  0  0  0  0  0  0  0  0  0  0
   -6.4454   22.5177  -29.1420 H   0  0  0  0  0  0  0  0  0  0  0  0
   -7.2399   24.1386  -29.3065 H   0  0  0  0  0  0  0  0  0  0  0  0
   -8.5444   22.1236  -30.2276 H   0  0  0  0  0  0  0  0  0  0  0  0
   -8.3183   23.5226  -31.3352 H   0  0  0  0  0  0  0  0  0  0  0  0
   -5.5749   19.6553  -31.7062 H   0  0  0  0  0  0  0  0  0  0  0  0
   -6.3058   17.2904  -32.0044 H   0  0  0  0  0  0  0  0  0  0  0  0
   -8.7126   16.7639  -32.4012 H   0  0  0  0  0  0  0  0  0  0  0  0
  -10.3960   18.6051  -32.4918 H   0  0  0  0  0  0  0  0  0  0  0  0
   -5.1190   21.6077  -32.2857 H   0  0  0  0  0  0  0  0  0  0  0  0
   -6.1808   22.3419  -33.5584 H   0  0  0  0  0  0  0  0  0  0  0  0
   -4.5084   23.9125  -32.3683 H   0  0  0  0  0  0  0  0  0  0  0  0
   -6.2284   24.4432  -32.4712 H   0  0  0  0  0  0  0  0  0  0  0  0
   -4.4363   21.4762  -27.8901 H   0  0  0  0  0  0  0  0  0  0  0  0
   -3.3060   19.2758  -27.4122 H   0  0  0  0  0  0  0  0  0  0  0  0
   -0.8155   19.1602  -27.1916 H   0  0  0  0  0  0  0  0  0  0  0  0
    0.5767   21.2473  -27.4382 H   0  0  0  0  0  0  0  0  0  0  0  0
  1  2  3  0
  2  3  1  0
  3  4  2  0
  4  5  1  0
  5  6  1  0
  6  7  1  0
  7  8  2  0
  7  9  1  0
  9 10  1  0
 10 11  1  0
 11 12  1  0
 12 13  1  0
 13 14  2  0
 14 15  1  0
 15 16  2  0
 16 17  1  0
 17 18  2  0
 18 19  1  0
 12 20  1  0
 20 21  1  0
  5 22  1  0
 22 23  2  0
 23 24  1  0
 24 25  2  0
 25 26  1  0
 26 27  2  0
 27  3  1  0
 21  9  1  0
 27 22  1  0
 18 13  1  0
  4 28  1  0
  6 29  1  0
  6 30  1  0
 10 31  1  0
 10 32  1  0
 11 33  1  0
 11 34  1  0
 14 35  1  0
 15 36  1  0
 16 37  1  0
 17 38  1  0
 20 39  1  0
 20 40  1  0
 21 41  1  0
 21 42  1  0
 23 43  1  0
 24 44  1  0
 25 45  1  0
 26 46  1  0
M  END
>  <UniqueID>  (26) 
26

>  <SMILES>  (26) 
N#Cc1cn(CC(=O)N2CCN(c3ccccc3F)CC2)c2ccccc12

>  <Energy>  (26) 
87.9973269569112

>  <Genealogy>  (26) 
N#Cc1cn(CC(=O)N2CCN(c3ccccc3F)CC2)c2ccccc12 (3D coordinates assigned)
N#Cc1cn(CC(=O)N2CCN(c3ccccc3F)CC2)c2ccccc12 (nonaromatic ring conformer: 87.9973269569112 kcal/mol)

>  <smiles>  (26) 
N#Cc1cn(CC(=O)N2CCN(c3ccccc3F)CC2)c2ccccc12

>  <score_type>  (26) 
oracle

>  <origin>  (26) 
adg

>  <m_score__min__energy>  (26) 
-9.0700000000000003

>  <m_primary>  (26) 
energy

$$$$
26:0
     RDKit          3D

 54 56  0  0  0  0  0  0  0  0999 V2000
   -6.3150   16.1740  -33.9430 C   0  0  0  0  0  0  0  0  0  0  0  0
   -7.2230   16.8530  -33.1020 O   0  0  0  0  0  0  0  0  0  0  0  0
   -6.5720   17.3000  -31.9280 C   0  0  0  0  0  0  0  0  0  0  0  0
   -6.7200   18.8210  -31.7380 C   0  0  0  0  0  0  0  0  0  0  0  0
   -7.2200   19.5130  -32.9610 N   0  0  0  0  0  0  0  0  0  0  0  0
   -6.1410   19.7100  -33.9570 C   0  0  0  0  0  0  0  0  0  0  0  0
   -5.0610   20.7020  -33.4680 C   0  0  0  0  0  0  0  0  0  0  0  0
   -5.5490   21.5420  -32.3530 N   0  0  0  0  0  0  0  0  0  0  0  0
   -4.6260   22.6670  -32.1030 C   0  0  0  0  0  0  0  0  0  0  0  0
   -3.9310   22.5150  -30.7670 C   0  0  0  0  0  0  0  0  0  0  0  0
   -3.6220   21.2210  -30.3170 C   0  0  0  0  0  0  0  0  0  0  0  0
   -2.8710   21.0310  -29.1580 C   0  0  0  0  0  0  0  0  0  0  0  0
   -2.4110   22.1280  -28.4340 C   0  0  0  0  0  0  0  0  0  0  0  0
   -2.7240   23.4320  -28.8450 C   0  0  0  0  0  0  0  0  0  0  0  0
   -2.2090   24.5790  -28.0620 C   0  0  0  0  0  0  0  0  0  0  0  0
   -1.2150   25.4210  -28.5920 C   0  0  0  0  0  0  0  0  0  0  0  0
   -0.7320   26.4980  -27.8440 C   0  0  0  0  0  0  0  0  0  0  0  0
   -1.2370   26.7460  -26.5640 C   0  0  0  0  0  0  0  0  0  0  0  0
   -2.2310   25.9200  -26.0340 C   0  0  0  0  0  0  0  0  0  0  0  0
   -2.7190   24.8430  -26.7800 C   0  0  0  0  0  0  0  0  0  0  0  0
   -3.5080   23.6350  -30.0020 C   0  0  0  0  0  0  0  0  0  0  0  0
   -3.7940   24.9510  -30.3910 O   0  0  0  0  0  0  0  0  0  0  0  0
   -5.1180   25.4700  -30.4760 C   0  0  0  0  0  0  0  0  0  0  0  0
   -6.9180   22.0060  -32.6380 C   0  0  0  0  0  0  0  0  0  0  0  0
   -7.8890   20.8070  -32.6530 C   0  0  0  0  0  0  0  0  0  0  0  0
   -5.5844   15.6276  -33.3285 H   0  0  0  0  0  0  0  0  0  0  0  0
   -6.8644   15.4634  -34.5779 H   0  0  0  0  0  0  0  0  0  0  0  0
   -5.7887   16.9019  -34.5779 H   0  0  0  0  0  0  0  0  0  0  0  0
   -7.0119   16.7879  -31.0596 H   0  0  0  0  0  0  0  0  0  0  0  0
   -5.5006   17.0689  -32.0211 H   0  0  0  0  0  0  0  0  0  0  0  0
   -7.4281   19.0048  -30.9165 H   0  0  0  0  0  0  0  0  0  0  0  0
   -5.7211   19.2245  -31.5156 H   0  0  0  0  0  0  0  0  0  0  0  0
   -7.9310   18.8970  -33.4250 H   0  0  0  0  0  0  0  0  0  0  0  0
   -5.6641   18.7393  -34.1577 H   0  0  0  0  0  0  0  0  0  0  0  0
   -6.5962   20.1311  -34.8655 H   0  0  0  0  0  0  0  0  0  0  0  0
   -4.1835   20.1330  -33.1271 H   0  0  0  0  0  0  0  0  0  0  0  0
   -4.8019   21.3650  -34.3066 H   0  0  0  0  0  0  0  0  0  0  0  0
   -3.8690   22.6947  -32.9007 H   0  0  0  0  0  0  0  0  0  0  0  0
   -5.2081   23.6002  -32.0898 H   0  0  0  0  0  0  0  0  0  0  0  0
   -3.9763   20.3482  -30.8851 H   0  0  0  0  0  0  0  0  0  0  0  0
   -2.6411   20.0116  -28.8144 H   0  0  0  0  0  0  0  0  0  0  0  0
   -1.7983   21.9709  -27.5341 H   0  0  0  0  0  0  0  0  0  0  0  0
   -0.8161   25.2310  -29.5994 H   0  0  0  0  0  0  0  0  0  0  0  0
    0.0470   27.1519  -28.2630 H   0  0  0  0  0  0  0  0  0  0  0  0
   -0.8517   27.5911  -25.9747 H   0  0  0  0  0  0  0  0  0  0  0  0
   -2.6304   26.1172  -25.0282 H   0  0  0  0  0  0  0  0  0  0  0  0
   -3.5063   24.1991  -26.3610 H   0  0  0  0  0  0  0  0  0  0  0  0
   -5.5164   25.6262  -29.4626 H   0  0  0  0  0  0  0  0  0  0  0  0
   -5.1022   26.4285  -31.0155 H   0  0  0  0  0  0  0  0  0  0  0  0
   -5.7577   24.7561  -31.0155 H   0  0  0  0  0  0  0  0  0  0  0  0
   -7.2306   22.7182  -31.8602 H   0  0  0  0  0  0  0  0  0  0  0  0
   -6.9353   22.4971  -33.6221 H   0  0  0  0  0  0  0  0  0  0  0  0
   -8.3627   20.7286  -31.6633 H   0  0  0  0  0  0  0  0  0  0  0  0
   -8.6241   20.9922  -33.4500 H   0  0  0  0  0  0  0  0  0  0  0  0
  1  2  1  0
  2  3  1  0
  3  4  1  0
  4  5  1  0
  5  6  1  0
  6  7  1  0
  7  8  1  0
  8  9  1  0
  9 10  1  0
 10 11  2  0
 11 12  1  0
 12 13  2  0
 13 14  1  0
 14 15  1  0
 15 16  2  0
 16 17  1  0
 17 18  2  0
 18 19  1  0
 19 20  2  0
 14 21  2  0
 21 22  1  0
 22 23  1  0
  8 24  1  0
 24 25  1  0
 25  5  1  0
 21 10  1  0
 20 15  1  0
  1 26  1  0
  1 27  1  0
  1 28  1  0
  3 29  1  0
  3 30  1  0
  4 31  1  0
  4 32  1  0
  5 33  1  0
  6 34  1  0
  6 35  1  0
  7 36  1  0
  7 37  1  0
  9 38  1  0
  9 39  1  0
 11 40  1  0
 12 41  1  0
 13 42  1  0
 16 43  1  0
 17 44  1  0
 18 45  1  0
 19 46  1  0
 20 47  1  0
 23 48  1  0
 23 49  1  0
 23 50  1  0
 24 51  1  0
 24 52  1  0
 25 53  1  0
 25 54  1  0
M  CHG  1   5   1
M  END
>  <UniqueID>  (27) 
27

>  <SMILES>  (27) 
COCC[NH+]1CCN(Cc2cccc(-c3ccccc3)c2OC)CC1

>  <Energy>  (27) 
81.18996066448085

>  <Genealogy>  (27) 
COCC[NH+]1CCN(Cc2cccc(-c3ccccc3)c2OC)CC1 (protonated)
COCC[NH+]1CCN(Cc2cccc(-c3ccccc3)c2OC)CC1 (3D coordinates assigned)
COCC[NH+]1CCN(Cc2cccc(-c3ccccc3)c2OC)CC1 (nonaromatic ring conformer: 81.18996066448085 kcal/mol)

>  <smiles>  (27) 
COCCN1CCN(Cc2cccc(-c3ccccc3)c2OC)CC1

>  <score_type>  (27) 
oracle

>  <origin>  (27) 
adg

>  <m_score__min__energy>  (27) 
-7.1299999999999999

>  <m_primary>  (27) 
energy

$$$$
27:0
     RDKit          3D

 43 45  0  0  0  0  0  0  0  0999 V2000
   -1.5700   26.5460  -24.8030 C   0  0  0  0  0  0  0  0  0  0  0  0
   -0.4860   25.8060  -24.0270 C   0  0  0  0  0  0  0  0  0  0  0  0
   -0.1670   24.5860  -24.6700 O   0  0  0  0  0  0  0  0  0  0  0  0
    0.6570   24.8030  -25.8000 C   0  0  0  0  0  0  0  0  0  0  0  0
   -0.1080   24.5360  -27.0630 C   0  0  0  0  0  0  0  0  0  0  0  0
    0.4860   24.6080  -28.1730 O   0  0  0  0  0  0  0  0  0  0  0  0
   -1.4900   24.1530  -26.9930 N   0  0  0  0  0  0  0  0  0  0  0  0
   -2.3680   24.0940  -28.1300 C   0  0  0  0  0  0  0  0  0  0  0  0
   -3.7040   24.5240  -28.0490 C   0  0  0  0  0  0  0  0  0  0  0  0
   -4.5450   24.4320  -29.1630 C   0  0  0  0  0  0  0  0  0  0  0  0
   -4.0620   23.9070  -30.3750 C   0  0  0  0  0  0  0  0  0  0  0  0
   -4.8790   23.7830  -31.5090 O   0  0  0  0  0  0  0  0  0  0  0  0
   -6.0030   22.9500  -31.6170 C   0  0  0  0  0  0  0  0  0  0  0  0
   -7.2960   23.4360  -31.3620 C   0  0  0  0  0  0  0  0  0  0  0  0
   -8.4060   22.6040  -31.4910 C   0  0  0  0  0  0  0  0  0  0  0  0
   -8.2470   21.2710  -31.8890 C   0  0  0  0  0  0  0  0  0  0  0  0
   -9.3680   20.4360  -32.0170 C   0  0  0  0  0  0  0  0  0  0  0  0
   -9.2130   19.1090  -32.4190 C   0  0  0  0  0  0  0  0  0  0  0  0
   -7.9420   18.6040  -32.6980 C   0  0  0  0  0  0  0  0  0  0  0  0
   -6.8160   19.4230  -32.5770 C   0  0  0  0  0  0  0  0  0  0  0  0
   -6.9490   20.7670  -32.1710 C   0  0  0  0  0  0  0  0  0  0  0  0
   -5.8280   21.6200  -32.0370 C   0  0  0  0  0  0  0  0  0  0  0  0
   -4.0370   21.0140  -32.4020 Br  0  0  0  0  0  0  0  0  0  0  0  0
   -2.7450   23.4410  -30.4410 C   0  0  0  0  0  0  0  0  0  0  0  0
   -1.9040   23.5320  -29.3280 C   0  0  0  0  0  0  0  0  0  0  0  0
   -2.2666   27.0215  -24.0969 H   0  0  0  0  0  0  0  0  0  0  0  0
   -1.1063   27.3169  -25.4360 H   0  0  0  0  0  0  0  0  0  0  0  0
   -2.1191   25.8334  -25.4360 H   0  0  0  0  0  0  0  0  0  0  0  0
    0.4152   26.4345  -23.9737 H   0  0  0  0  0  0  0  0  0  0  0  0
   -0.8556   25.5902  -23.0137 H   0  0  0  0  0  0  0  0  0  0  0  0
    1.0046   25.8466  -25.8003 H   0  0  0  0  0  0  0  0  0  0  0  0
    1.5169   24.1188  -25.7518 H   0  0  0  0  0  0  0  0  0  0  0  0
   -1.8580   23.8310  -26.0690 H   0  0  0  0  0  0  0  0  0  0  0  0
   -4.0901   24.9350  -27.1045 H   0  0  0  0  0  0  0  0  0  0  0  0
   -5.5887   24.7718  -29.0907 H   0  0  0  0  0  0  0  0  0  0  0  0
   -7.4335   24.4840  -31.0574 H   0  0  0  0  0  0  0  0  0  0  0  0
   -9.4117   22.9960  -31.2793 H   0  0  0  0  0  0  0  0  0  0  0  0
  -10.3721   20.8292  -31.7996 H   0  0  0  0  0  0  0  0  0  0  0  0
  -10.0950   18.4589  -32.5164 H   0  0  0  0  0  0  0  0  0  0  0  0
   -7.8261   17.5569  -33.0145 H   0  0  0  0  0  0  0  0  0  0  0  0
   -5.8186   19.0163  -32.8001 H   0  0  0  0  0  0  0  0  0  0  0  0
   -2.3682   22.9997  -31.3755 H   0  0  0  0  0  0  0  0  0  0  0  0
   -0.8708   23.1601  -29.3925 H   0  0  0  0  0  0  0  0  0  0  0  0
  1  2  1  0
  2  3  1  0
  3  4  1  0
  4  5  1  0
  5  6  2  0
  5  7  1  0
  7  8  1  0
  8  9  2  0
  9 10  1  0
 10 11  2  0
 11 12  1  0
 12 13  1  0
 13 14  2  0
 14 15  1  0
 15 16  2  0
 16 17  1  0
 17 18  2  0
 18 19  1  0
 19 20  2  0
 20 21  1  0
 21 22  2  0
 22 23  1  0
 11 24  1  0
 24 25  2  0
 25  8  1  0
 22 13  1  0
 21 16  1  0
  1 26  1  0
  1 27  1  0
  1 28  1  0
  2 29  1  0
  2 30  1  0
  4 31  1  0
  4 32  1  0
  7 33  1  0
  9 34  1  0
 10 35  1  0
 14 36  1  0
 15 37  1  0
 17 38  1  0
 18 39  1  0
 19 40  1  0
 20 41  1  0
 24 42  1  0
 25 43  1  0
M  END
>  <UniqueID>  (28) 
28

>  <SMILES>  (28) 
CCOCC(=O)Nc1ccc(Oc2ccc3ccccc3c2Br)cc1

>  <Energy>  (28) 
59.94144960776179

>  <Genealogy>  (28) 
CCOCC(=O)Nc1ccc(Oc2ccc3ccccc3c2Br)cc1 (3D coordinates assigned)
CCOCC(=O)Nc1ccc(Oc2ccc3ccccc3c2Br)cc1 (optimized conformer: 59.94144960776179 kcal/mol)

>  <smiles>  (28) 
CCOCC(=O)Nc1ccc(Oc2ccc3ccccc3c2Br)cc1

>  <score_type>  (28) 
oracle

>  <origin>  (28) 
adg

>  <m_score__min__energy>  (28) 
-8.7300000000000004

>  <m_primary>  (28) 
energy

$$$$
28:0
     RDKit          3D

 47 49  0  0  0  0  0  0  0  0999 V2000
   -2.2840   24.6460  -28.7780 C   0  0  0  0  0  0  0  0  0  0  0  0
   -3.1570   25.2740  -29.7110 O   0  0  0  0  0  0  0  0  0  0  0  0
   -4.3600   24.7190  -30.1720 C   0  0  0  0  0  0  0  0  0  0  0  0
   -5.6090   25.3180  -29.9200 C   0  0  0  0  0  0  0  0  0  0  0  0
   -6.7800   24.7360  -30.4050 C   0  0  0  0  0  0  0  0  0  0  0  0
   -6.7240   23.5450  -31.1310 C   0  0  0  0  0  0  0  0  0  0  0  0
   -5.4910   22.9210  -31.3740 C   0  0  0  0  0  0  0  0  0  0  0  0
   -5.4540   21.6520  -32.1310 C   0  0  0  0  0  0  0  0  0  0  0  0
   -4.4540   21.2450  -33.0090 C   0  0  0  0  0  0  0  0  0  0  0  0
   -4.7570   20.0700  -33.5270 O   0  0  0  0  0  0  0  0  0  0  0  0
   -5.9160   19.6940  -33.0370 C   0  0  0  0  0  0  0  0  0  0  0  0
   -6.6360   18.5270  -33.3340 C   0  0  0  0  0  0  0  0  0  0  0  0
   -6.1140   17.5050  -34.2690 C   0  0  0  0  0  0  0  0  0  0  0  0
   -5.7450   17.8340  -35.4280 O   0  0  0  0  0  0  0  0  0  0  0  0
   -6.0370   16.1330  -33.8620 N   0  0  0  0  0  0  0  0  0  0  0  0
   -5.2330   15.6620  -32.7400 C   0  0  0  0  0  0  0  0  0  0  0  0
   -3.7380   15.6750  -33.1060 C   0  0  0  0  0  0  0  0  0  0  0  0
   -3.4940   16.1400  -34.4920 N   0  0  0  0  0  0  0  0  0  0  0  0
   -2.7660   15.1010  -35.2440 C   0  0  0  0  0  0  0  0  0  0  0  0
   -2.7240   17.3970  -34.5180 C   0  0  0  0  0  0  0  0  0  0  0  0
   -7.8960   18.3740  -32.7100 C   0  0  0  0  0  0  0  0  0  0  0  0
   -8.3960   19.3620  -31.8370 C   0  0  0  0  0  0  0  0  0  0  0  0
   -7.6470   20.5190  -31.5640 C   0  0  0  0  0  0  0  0  0  0  0  0
   -6.3950   20.6420  -32.1670 C   0  0  0  0  0  0  0  0  0  0  0  0
   -4.3080   23.5260  -30.9090 C   0  0  0  0  0  0  0  0  0  0  0  0
   -3.0960   22.9890  -31.2050 F   0  0  0  0  0  0  0  0  0  0  0  0
   -2.6109   24.8811  -27.7544 H   0  0  0  0  0  0  0  0  0  0  0  0
   -2.3078   23.5567  -28.9294 H   0  0  0  0  0  0  0  0  0  0  0  0
   -1.2588   25.0149  -28.9294 H   0  0  0  0  0  0  0  0  0  0  0  0
   -5.6615   26.2497  -29.3377 H   0  0  0  0  0  0  0  0  0  0  0  0
   -7.7508   25.2170  -30.2148 H   0  0  0  0  0  0  0  0  0  0  0  0
   -7.6509   23.0936  -31.5144 H   0  0  0  0  0  0  0  0  0  0  0  0
   -3.5439   21.8190  -33.2377 H   0  0  0  0  0  0  0  0  0  0  0  0
   -5.3995   16.3195  -31.8740 H   0  0  0  0  0  0  0  0  0  0  0  0
   -5.5309   14.6316  -32.4962 H   0  0  0  0  0  0  0  0  0  0  0  0
   -3.2112   16.3460  -32.4115 H   0  0  0  0  0  0  0  0  0  0  0  0
   -3.3680   14.6418  -33.0315 H   0  0  0  0  0  0  0  0  0  0  0  0
   -4.4110   16.2960  -34.9720 H   0  0  0  0  0  0  0  0  0  0  0  0
   -2.2816   14.4096  -34.5388 H   0  0  0  0  0  0  0  0  0  0  0  0
   -3.4723   14.5438  -35.8770 H   0  0  0  0  0  0  0  0  0  0  0  0
   -2.0012   15.5746  -35.8770 H   0  0  0  0  0  0  0  0  0  0  0  0
   -2.5229   17.7252  -33.4875 H   0  0  0  0  0  0  0  0  0  0  0  0
   -1.7714   17.2327  -35.0429 H   0  0  0  0  0  0  0  0  0  0  0  0
   -3.3031   18.1710  -35.0429 H   0  0  0  0  0  0  0  0  0  0  0  0
   -8.4939   17.4722  -32.9084 H   0  0  0  0  0  0  0  0  0  0  0  0
   -9.3806   19.2258  -31.3658 H   0  0  0  0  0  0  0  0  0  0  0  0
   -8.0352   21.3024  -30.8965 H   0  0  0  0  0  0  0  0  0  0  0  0
  1  2  1  0
  2  3  1  0
  3  4  2  0
  4  5  1  0
  5  6  2  0
  6  7  1  0
  7  8  1  0
  8  9  2  0
  9 10  1  0
 10 11  1  0
 11 12  2  0
 12 13  1  0
 13 14  2  0
 13 15  1  0
 15 16  1  0
 16 17  1  0
 17 18  1  0
 18 19  1  0
 18 20  1  0
 12 21  1  0
 21 22  2  0
 22 23  1  0
 23 24  2  0
  7 25  2  0
 25 26  1  0
 25  3  1  0
 24  8  1  0
 24 11  1  0
  1 27  1  0
  1 28  1  0
  1 29  1  0
  4 30  1  0
  5 31  1  0
  6 32  1  0
  9 33  1  0
 16 34  1  0
 16 35  1  0
 17 36  1  0
 17 37  1  0
 18 38  1  0
 19 39  1  0
 19 40  1  0
 19 41  1  0
 20 42  1  0
 20 43  1  0
 20 44  1  0
 21 45  1  0
 22 46  1  0
 23 47  1  0
M  CHG  2  15  -1  18   1
M  END
>  <UniqueID>  (29) 
29

>  <SMILES>  (29) 
COc1cccc(-c2coc3c(C(=O)[N-]CC[NH+](C)C)cccc23)c1F

>  <Energy>  (29) 
86.64208596243462

>  <Genealogy>  (29) 
COc1cccc(-c2coc3c(C(=O)[N-]CC[NH+](C)C)cccc23)c1F (protonated)
COc1cccc(-c2coc3c(C(=O)[N-]CC[NH+](C)C)cccc23)c1F (3D coordinates assigned)
COc1cccc(-c2coc3c(C(=O)[N-]CC[NH+](C)C)cccc23)c1F (optimized conformer: 86.64208596243462 kcal/mol)

>  <smiles>  (29) 
COc1cccc(-c2coc3c(C(=O)NCCN(C)C)cccc23)c1F

>  <score_type>  (29) 
oracle

>  <origin>  (29) 
adg

>  <m_score__min__energy>  (29) 
-8.6999999999999993

>  <m_primary>  (29) 
energy

$$$$
29:0
     RDKit          3D

 40 41  0  0  0  0  0  0  0  0999 V2000
   -2.0980   20.2620  -27.1040 C   0  0  0  0  0  0  0  0  0  0  0  0
   -2.6830   20.7660  -28.4180 C   0  0  0  0  0  0  0  0  0  0  0  0
   -1.6440   21.1500  -29.3150 O   0  0  0  0  0  0  0  0  0  0  0  0
   -1.7830   22.1620  -30.2710 C   0  0  0  0  0  0  0  0  0  0  0  0
   -0.8850   23.0400  -30.3970 O   0  0  0  0  0  0  0  0  0  0  0  0
   -2.9970   22.2230  -31.1170 C   0  0  0  0  0  0  0  0  0  0  0  0
   -3.7920   23.3680  -31.2190 C   0  0  0  0  0  0  0  0  0  0  0  0
   -3.5800   24.5760  -30.4730 N   0  0  0  0  0  0  0  0  0  0  0  0
   -3.0490   24.7040  -29.1480 C   0  0  0  0  0  0  0  0  0  0  0  0
   -3.6960   24.0630  -27.9590 C   0  0  0  0  0  0  0  0  0  0  0  0
   -2.0110   25.3950  -28.9760 O   0  0  0  0  0  0  0  0  0  0  0  0
   -5.1170   23.0330  -32.1950 S   0  0  0  0  0  0  0  0  0  0  0  0
   -4.7060   21.4350  -32.5330 C   0  0  0  0  0  0  0  0  0  0  0  0
   -5.4720   20.5170  -33.4540 C   0  0  0  0  0  0  0  0  0  0  0  0
   -6.7490   20.0230  -32.8280 C   0  0  0  0  0  0  0  0  0  0  0  0
   -6.9560   18.6460  -32.6360 C   0  0  0  0  0  0  0  0  0  0  0  0
   -8.1260   18.1880  -32.0220 C   0  0  0  0  0  0  0  0  0  0  0  0
   -9.0930   19.1000  -31.5890 C   0  0  0  0  0  0  0  0  0  0  0  0
   -8.8890   20.4710  -31.7660 C   0  0  0  0  0  0  0  0  0  0  0  0
   -7.7220   20.9340  -32.3790 C   0  0  0  0  0  0  0  0  0  0  0  0
   -3.4890   21.1470  -31.8990 C   0  0  0  0  0  0  0  0  0  0  0  0
   -2.7820   19.8250  -32.0400 C   0  0  0  0  0  0  0  0  0  0  0  0
   -2.6347   20.7244  -26.2624 H   0  0  0  0  0  0  0  0  0  0  0  0
   -2.2048   19.1685  -27.0506 H   0  0  0  0  0  0  0  0  0  0  0  0
   -1.0323   20.5294  -27.0506 H   0  0  0  0  0  0  0  0  0  0  0  0
   -3.2805   19.9654  -28.8784 H   0  0  0  0  0  0  0  0  0  0  0  0
   -3.3154   21.6421  -28.2118 H   0  0  0  0  0  0  0  0  0  0  0  0
   -3.2695   24.4855  -27.0373 H   0  0  0  0  0  0  0  0  0  0  0  0
   -4.7790   24.2544  -27.9832 H   0  0  0  0  0  0  0  0  0  0  0  0
   -3.5147   22.9783  -27.9832 H   0  0  0  0  0  0  0  0  0  0  0  0
   -5.7176   21.0641  -34.3762 H   0  0  0  0  0  0  0  0  0  0  0  0
   -4.8381   19.6431  -33.6650 H   0  0  0  0  0  0  0  0  0  0  0  0
   -6.1946   17.9258  -32.9701 H   0  0  0  0  0  0  0  0  0  0  0  0
   -8.2856   17.1090  -31.8796 H   0  0  0  0  0  0  0  0  0  0  0  0
  -10.0143   18.7384  -31.1090 H   0  0  0  0  0  0  0  0  0  0  0  0
   -9.6492   21.1876  -31.4218 H   0  0  0  0  0  0  0  0  0  0  0  0
   -7.5637   22.0145  -32.5109 H   0  0  0  0  0  0  0  0  0  0  0  0
   -2.5640   19.4175  -31.0418 H   0  0  0  0  0  0  0  0  0  0  0  0
   -3.4247   19.1223  -32.5906 H   0  0  0  0  0  0  0  0  0  0  0  0
   -1.8407   19.9695  -32.5906 H   0  0  0  0  0  0  0  0  0  0  0  0
  1  2  1  0
  2  3  1  0
  3  4  1  0
  4  5  2  0
  4  6  1  0
  6  7  2  0
  7  8  1  0
  8  9  1  0
  9 10  1  0
  9 11  2  0
  7 12  1  0
 12 13  1  0
 13 14  1  0
 14 15  1  0
 15 16  2  0
 16 17  1  0
 17 18  2  0
 18 19  1  0
 19 20  2  0
 13 21  2  0
 21 22  1  0
 21  6  1  0
 20 15  1  0
  1 23  1  0
  1 24  1  0
  1 25  1  0
  2 26  1  0
  2 27  1  0
 10 28  1  0
 10 29  1  0
 10 30  1  0
 14 31  1  0
 14 32  1  0
 16 33  1  0
 17 34  1  0
 18 35  1  0
 19 36  1  0
 20 37  1  0
 22 38  1  0
 22 39  1  0
 22 40  1  0
M  CHG  1   8  -1
M  END
>  <UniqueID>  (30) 
30

>  <SMILES>  (30) 
CCOC(=O)c1c([N-]C(C)=O)sc(Cc2ccccc2)c1C

>  <Energy>  (30) 
65.88308015429699

>  <Genealogy>  (30) 
CCOC(=O)c1c([N-]C(C)=O)sc(Cc2ccccc2)c1C (protonated)
CCOC(=O)c1c([N-]C(C)=O)sc(Cc2ccccc2)c1C (3D coordinates assigned)
CCOC(=O)c1c([N-]C(C)=O)sc(Cc2ccccc2)c1C (optimized conformer: 65.88308015429699 kcal/mol)

>  <smiles>  (30) 
CCOC(=O)c1c(NC(C)=O)sc(Cc2ccccc2)c1C

>  <score_type>  (30) 
oracle

>  <origin>  (30) 
adg

>  <m_score__min__energy>  (30) 
-8.9199999999999999

>  <m_primary>  (30) 
energy

$$$$
30:0
     RDKit          3D

 53 56  0  0  0  0  0  0  0  0999 V2000
   -0.5960   20.8710  -33.7740 C   0  0  0  0  0  0  0  0  0  0  0  0
   -1.4840   19.6560  -34.0290 C   0  0  0  0  0  0  0  0  0  0  0  0
   -2.4400   19.4980  -32.9810 O   0  0  0  0  0  0  0  0  0  0  0  0
   -3.1550   20.5400  -32.3640 C   0  0  0  0  0  0  0  0  0  0  0  0
   -3.2210   20.5570  -30.9650 C   0  0  0  0  0  0  0  0  0  0  0  0
   -3.9110   21.5720  -30.2980 C   0  0  0  0  0  0  0  0  0  0  0  0
   -4.5610   22.5790  -31.0270 C   0  0  0  0  0  0  0  0  0  0  0  0
   -5.2410   23.6430  -30.3460 N   0  0  0  0  0  0  0  0  0  0  0  0
   -6.4810   24.1180  -30.5890 C   0  0  0  0  0  0  0  0  0  0  0  0
   -7.6190   23.4650  -31.8200 S   0  0  0  0  0  0  0  0  0  0  0  0
   -8.1760   22.0580  -30.7920 C   0  0  0  0  0  0  0  0  0  0  0  0
   -9.5120   21.4820  -31.2700 C   0  0  0  0  0  0  0  0  0  0  0  0
   -9.3080   20.5430  -32.3300 O   0  0  0  0  0  0  0  0  0  0  0  0
   -8.1750   19.7390  -32.5340 C   0  0  0  0  0  0  0  0  0  0  0  0
   -8.0450   18.5790  -31.7590 C   0  0  0  0  0  0  0  0  0  0  0  0
   -6.9240   17.7550  -31.8920 C   0  0  0  0  0  0  0  0  0  0  0  0
   -5.9210   18.0850  -32.8050 C   0  0  0  0  0  0  0  0  0  0  0  0
   -6.0390   19.2350  -33.5870 C   0  0  0  0  0  0  0  0  0  0  0  0
   -7.1590   20.0610  -33.4560 C   0  0  0  0  0  0  0  0  0  0  0  0
   -6.8000   25.1230  -29.7480 N   0  0  0  0  0  0  0  0  0  0  0  0
   -5.7560   25.2830  -28.9500 N   0  0  0  0  0  0  0  0  0  0  0  0
   -4.8090   24.3960  -29.3090 C   0  0  0  0  0  0  0  0  0  0  0  0
   -3.4730   24.3230  -28.6790 C   0  0  0  0  0  0  0  0  0  0  0  0
   -3.3250   24.2550  -27.2850 C   0  0  0  0  0  0  0  0  0  0  0  0
   -2.0520   24.1670  -26.7180 C   0  0  0  0  0  0  0  0  0  0  0  0
   -0.9340   24.1360  -27.5520 C   0  0  0  0  0  0  0  0  0  0  0  0
   -1.0900   24.1880  -28.9020 N   0  0  0  0  0  0  0  0  0  0  0  0
   -2.3190   24.2750  -29.4770 C   0  0  0  0  0  0  0  0  0  0  0  0
   -4.5050   22.5640  -32.4260 C   0  0  0  0  0  0  0  0  0  0  0  0
   -3.8060   21.5550  -33.0950 C   0  0  0  0  0  0  0  0  0  0  0  0
   -0.4849   21.0230  -32.6902 H   0  0  0  0  0  0  0  0  0  0  0  0
    0.3936   20.7028  -34.2240 H   0  0  0  0  0  0  0  0  0  0  0  0
   -1.0567   21.7628  -34.2240 H   0  0  0  0  0  0  0  0  0  0  0  0
   -2.0141   19.7907  -34.9834 H   0  0  0  0  0  0  0  0  0  0  0  0
   -0.8502   18.7577  -34.0665 H   0  0  0  0  0  0  0  0  0  0  0  0
   -2.7250   19.7639  -30.3863 H   0  0  0  0  0  0  0  0  0  0  0  0
   -3.9448   21.5817  -29.1986 H   0  0  0  0  0  0  0  0  0  0  0  0
   -7.4140   21.2658  -30.8339 H   0  0  0  0  0  0  0  0  0  0  0  0
   -8.3165   22.4264  -29.7651 H   0  0  0  0  0  0  0  0  0  0  0  0
  -10.0081   20.9751  -30.4292 H   0  0  0  0  0  0  0  0  0  0  0  0
  -10.1388   22.3055  -31.6430 H   0  0  0  0  0  0  0  0  0  0  0  0
   -8.8331   18.3142  -31.0387 H   0  0  0  0  0  0  0  0  0  0  0  0
   -6.8322   16.8471  -31.2777 H   0  0  0  0  0  0  0  0  0  0  0  0
   -5.0371   17.4384  -32.9082 H   0  0  0  0  0  0  0  0  0  0  0  0
   -5.2489   19.4919  -34.3080 H   0  0  0  0  0  0  0  0  0  0  0  0
   -7.2477   20.9660  -34.0750 H   0  0  0  0  0  0  0  0  0  0  0  0
   -5.6920   26.0050  -28.1990 H   0  0  0  0  0  0  0  0  0  0  0  0
   -4.2141   24.2711  -26.6375 H   0  0  0  0  0  0  0  0  0  0  0  0
   -1.9319   24.1226  -25.6255 H   0  0  0  0  0  0  0  0  0  0  0  0
    0.0743   24.0695  -27.1174 H   0  0  0  0  0  0  0  0  0  0  0  0
   -2.4095   24.3079  -30.5728 H   0  0  0  0  0  0  0  0  0  0  0  0
   -5.0140   23.3508  -33.0020 H   0  0  0  0  0  0  0  0  0  0  0  0
   -3.7637   21.5528  -34.1942 H   0  0  0  0  0  0  0  0  0  0  0  0
  1  2  1  0
  2  3  1  0
  3  4  1  0
  4  5  2  0
  5  6  1  0
  6  7  2  0
  7  8  1  0
  8  9  1  0
  9 10  1  0
 10 11  1  0
 11 12  1  0
 12 13  1  0
 13 14  1  0
 14 15  2  0
 15 16  1  0
 16 17  2  0
 17 18  1  0
 18 19  2  0
  9 20  2  0
 20 21  1  0
 21 22  2  0
 22 23  1  0
 23 24  2  0
 24 25  1  0
 25 26  2  0
 26 27  1  0
 27 28  2  0
  7 29  1  0
 29 30  2  0
 30  4  1  0
 22  8  1  0
 28 23  1  0
 19 14  1  0
  1 31  1  0
  1 32  1  0
  1 33  1  0
  2 34  1  0
  2 35  1  0
  5 36  1  0
  6 37  1  0
 11 38  1  0
 11 39  1  0
 12 40  1  0
 12 41  1  0
 15 42  1  0
 16 43  1  0
 17 44  1  0
 18 45  1  0
 19 46  1  0
 21 47  1  0
 24 48  1  0
 25 49  1  0
 26 50  1  0
 28 51  1  0
 29 52  1  0
 30 53  1  0
M  CHG  1  21   1
M  END
>  <UniqueID>  (31) 
31

>  <SMILES>  (31) 
CCOc1ccc(-n2c(SCCOc3ccccc3)n[nH+]c2-c2cccnc2)cc1

>  <Energy>  (31) 
96.82705029182543

>  <Genealogy>  (31) 
CCOc1ccc(-n2c(SCCOc3ccccc3)n[nH+]c2-c2cccnc2)cc1 (protonated)
CCOc1ccc(-n2c(SCCOc3ccccc3)n[nH+]c2-c2cccnc2)cc1 (3D coordinates assigned)
CCOc1ccc(-n2c(SCCOc3ccccc3)n[nH+]c2-c2cccnc2)cc1 (optimized conformer: 96.82705029182543 kcal/mol)

>  <smiles>  (31) 
CCOc1ccc(-n2c(SCCOc3ccccc3)nnc2-c2cccnc2)cc1

>  <score_type>  (31) 
oracle

>  <origin>  (31) 
adg

>  <m_score__min__energy>  (31) 
-8.7100000000000009

>  <m_primary>  (31) 
energy

$$$$
31:0
     RDKit          3D

 45 47  0  0  0  0  0  0  0  0999 V2000
   -5.7350   18.0360  -34.7910 C   0  0  0  0  0  0  0  0  0  0  0  0
   -5.0850   18.4270  -33.4690 C   0  0  0  0  0  0  0  0  0  0  0  0
   -5.5940   19.7230  -33.0180 N   0  0  0  0  0  0  0  0  0  0  0  0
   -4.9530   20.9230  -32.9970 C   0  0  0  0  0  0  0  0  0  0  0  0
   -3.2360   21.1590  -33.4720 S   0  0  0  0  0  0  0  0  0  0  0  0
   -2.5580   20.8550  -31.7990 C   0  0  0  0  0  0  0  0  0  0  0  0
   -2.0420   22.1310  -31.1090 C   0  0  0  0  0  0  0  0  0  0  0  0
   -2.8390   22.5760  -29.9430 N   0  0  0  0  0  0  0  0  0  0  0  0
   -2.7210   24.0010  -29.5730 C   0  0  0  0  0  0  0  0  0  0  0  0
   -3.8550   24.8820  -30.1450 C   0  0  0  0  0  0  0  0  0  0  0  0
   -4.9120   24.0820  -30.7900 N   0  0  0  0  0  0  0  0  0  0  0  0
   -6.0650   24.9330  -31.1190 C   0  0  0  0  0  0  0  0  0  0  0  0
   -5.3190   22.9810  -29.9070 C   0  0  0  0  0  0  0  0  0  0  0  0
   -4.1750   21.9640  -29.7810 C   0  0  0  0  0  0  0  0  0  0  0  0
   -5.7610   21.9450  -32.6160 N   0  0  0  0  0  0  0  0  0  0  0  0
   -6.9490   21.3580  -32.3990 C   0  0  0  0  0  0  0  0  0  0  0  0
   -8.1560   21.9340  -32.0190 C   0  0  0  0  0  0  0  0  0  0  0  0
   -9.2650   21.0750  -31.8990 C   0  0  0  0  0  0  0  0  0  0  0  0
   -9.1180   19.6930  -32.1700 C   0  0  0  0  0  0  0  0  0  0  0  0
   -7.9060   19.1820  -32.5460 N   0  0  0  0  0  0  0  0  0  0  0  0
   -6.8480   20.0250  -32.6460 C   0  0  0  0  0  0  0  0  0  0  0  0
   -6.6622   17.4783  -34.5929 H   0  0  0  0  0  0  0  0  0  0  0  0
   -5.9689   18.9434  -35.3671 H   0  0  0  0  0  0  0  0  0  0  0  0
   -5.0430   17.4041  -35.3671 H   0  0  0  0  0  0  0  0  0  0  0  0
   -5.3146   17.6631  -32.7115 H   0  0  0  0  0  0  0  0  0  0  0  0
   -3.9968   18.4995  -33.6123 H   0  0  0  0  0  0  0  0  0  0  0  0
   -3.3513   20.4174  -31.1752 H   0  0  0  0  0  0  0  0  0  0  0  0
   -1.6993   20.1773  -31.9141 H   0  0  0  0  0  0  0  0  0  0  0  0
   -1.0134   21.9426  -30.7678 H   0  0  0  0  0  0  0  0  0  0  0  0
   -2.1130   22.9354  -31.8559 H   0  0  0  0  0  0  0  0  0  0  0  0
   -2.7394   24.0786  -28.4759 H   0  0  0  0  0  0  0  0  0  0  0  0
   -1.7773   24.3696  -30.0013 H   0  0  0  0  0  0  0  0  0  0  0  0
   -4.3013   25.4618  -29.3237 H   0  0  0  0  0  0  0  0  0  0  0  0
   -3.4171   25.5409  -30.9093 H   0  0  0  0  0  0  0  0  0  0  0  0
   -6.5392   25.2830  -30.1902 H   0  0  0  0  0  0  0  0  0  0  0  0
   -5.7258   25.7990  -31.7064 H   0  0  0  0  0  0  0  0  0  0  0  0
   -6.7925   24.3537  -31.7064 H   0  0  0  0  0  0  0  0  0  0  0  0
   -5.5622   23.3819  -28.9120 H   0  0  0  0  0  0  0  0  0  0  0  0
   -6.2025   22.4825  -30.3323 H   0  0  0  0  0  0  0  0  0  0  0  0
   -4.2287   21.4972  -28.7864 H   0  0  0  0  0  0  0  0  0  0  0  0
   -4.2995   21.2264  -30.5875 H   0  0  0  0  0  0  0  0  0  0  0  0
   -5.5210   22.9580  -32.5380 H   0  0  0  0  0  0  0  0  0  0  0  0
   -8.2407   23.0127  -31.8210 H   0  0  0  0  0  0  0  0  0  0  0  0
  -10.2431   21.4764  -31.5955 H   0  0  0  0  0  0  0  0  0  0  0  0
   -9.9863   19.0241  -32.0773 H   0  0  0  0  0  0  0  0  0  0  0  0
  1  2  1  0
  2  3  1  0
  3  4  1  0
  4  5  1  0
  5  6  1  0
  6  7  1  0
  7  8  1  0
  8  9  1  0
  9 10  1  0
 10 11  1  0
 11 12  1  0
 11 13  1  0
 13 14  1  0
  4 15  2  0
 15 16  1  0
 16 17  2  0
 17 18  1  0
 18 19  2  0
 19 20  1  0
 20 21  2  0
 21  3  1  0
 14  8  1  0
 21 16  1  0
  1 22  1  0
  1 23  1  0
  1 24  1  0
  2 25  1  0
  2 26  1  0
  6 27  1  0
  6 28  1  0
  7 29  1  0
  7 30  1  0
  9 31  1  0
  9 32  1  0
 10 33  1  0
 10 34  1  0
 12 35  1  0
 12 36  1  0
 12 37  1  0
 13 38  1  0
 13 39  1  0
 14 40  1  0
 14 41  1  0
 15 42  1  0
 17 43  1  0
 18 44  1  0
 19 45  1  0
M  CHG  1  15   1
M  END
>  <UniqueID>  (32) 
32

>  <SMILES>  (32) 
CCn1c(SCCN2CCN(C)CC2)[nH+]c2cccnc21

>  <Energy>  (32) 
94.83224382330637

>  <Genealogy>  (32) 
CCn1c(SCCN2CCN(C)CC2)[nH+]c2cccnc21 (protonated)
CCn1c(SCCN2CCN(C)CC2)[nH+]c2cccnc21 (3D coordinates assigned)
CCn1c(SCCN2CCN(C)CC2)[nH+]c2cccnc21 (nonaromatic ring conformer: 94.83224382330637 kcal/mol)

>  <smiles>  (32) 
CCn1c(SCCN2CCN(C)CC2)nc2cccnc21

>  <score_type>  (32) 
oracle

>  <origin>  (32) 
adg

>  <m_score__min__energy>  (32) 
-6.25

>  <m_primary>  (32) 
energy

$$$$
32:0
     RDKit          3D

 59 61  0  0  0  0  0  0  0  0999 V2000
   -6.4300   17.5260  -31.3010 C   0  0  0  0  0  0  0  0  0  0  0  0
   -5.4770   17.7590  -32.4670 C   0  0  0  0  0  0  0  0  0  0  0  0
   -6.0550   18.6840  -33.4450 N   0  0  0  0  0  0  0  0  0  0  0  0
   -5.7320   18.5470  -34.8640 C   0  0  0  0  0  0  0  0  0  0  0  0
   -6.9890   19.6950  -33.0170 C   0  0  0  0  0  0  0  0  0  0  0  0
   -8.3260   19.4310  -33.0950 N   0  0  0  0  0  0  0  0  0  0  0  0
   -9.2470   20.3130  -32.6380 C   0  0  0  0  0  0  0  0  0  0  0  0
   -8.8470   21.4650  -32.0490 N   0  0  0  0  0  0  0  0  0  0  0  0
   -7.5310   21.7860  -31.9290 C   0  0  0  0  0  0  0  0  0  0  0  0
   -7.1790   22.9550  -31.1770 N   0  0  0  0  0  0  0  0  0  0  0  0
   -6.6720   24.1270  -31.9030 C   0  0  0  0  0  0  0  0  0  0  0  0
   -5.9850   25.1210  -30.9540 C   0  0  0  0  0  0  0  0  0  0  0  0
   -4.9590   24.4070  -30.0510 C   0  0  0  0  0  0  0  0  0  0  0  0
   -3.8510   24.0170  -30.8510 O   0  0  0  0  0  0  0  0  0  0  0  0
   -2.7120   23.7890  -30.0480 C   0  0  0  0  0  0  0  0  0  0  0  0
   -5.5510   23.1550  -29.3450 C   0  0  0  0  0  0  0  0  0  0  0  0
   -7.0110   22.8710  -29.7260 C   0  0  0  0  0  0  0  0  0  0  0  0
   -6.5460   20.9180  -32.4510 C   0  0  0  0  0  0  0  0  0  0  0  0
   -5.0680   21.2510  -32.3720 C   0  0  0  0  0  0  0  0  0  0  0  0
   -4.4250   20.4490  -31.3730 O   0  0  0  0  0  0  0  0  0  0  0  0
   -3.1340   20.6470  -30.8550 C   0  0  0  0  0  0  0  0  0  0  0  0
   -2.8690   20.6640  -29.4710 C   0  0  0  0  0  0  0  0  0  0  0  0
   -1.5720   20.8820  -28.9990 C   0  0  0  0  0  0  0  0  0  0  0  0
   -0.5280   21.0880  -29.8990 C   0  0  0  0  0  0  0  0  0  0  0  0
   -0.7720   21.0670  -31.2730 C   0  0  0  0  0  0  0  0  0  0  0  0
   -2.0750   20.8380  -31.7610 C   0  0  0  0  0  0  0  0  0  0  0  0
   -2.3520   20.8080  -33.1360 O   0  0  0  0  0  0  0  0  0  0  0  0
   -2.3730   19.6250  -33.9220 C   0  0  0  0  0  0  0  0  0  0  0  0
   -5.8885   17.6584  -30.3527 H   0  0  0  0  0  0  0  0  0  0  0  0
   -7.2580   18.2481  -31.3543 H   0  0  0  0  0  0  0  0  0  0  0  0
   -6.8314   16.5033  -31.3543 H   0  0  0  0  0  0  0  0  0  0  0  0
   -4.5373   18.1830  -32.0835 H   0  0  0  0  0  0  0  0  0  0  0  0
   -5.2923   16.7956  -32.9646 H   0  0  0  0  0  0  0  0  0  0  0  0
   -4.7241   18.1195  -34.9710 H   0  0  0  0  0  0  0  0  0  0  0  0
   -6.4651   17.8824  -35.3444 H   0  0  0  0  0  0  0  0  0  0  0  0
   -5.7637   19.5360  -35.3444 H   0  0  0  0  0  0  0  0  0  0  0  0
   -8.6570   18.5200  -33.4890 H   0  0  0  0  0  0  0  0  0  0  0  0
  -10.3195   20.0935  -32.7453 H   0  0  0  0  0  0  0  0  0  0  0  0
   -5.9455   23.7932  -32.6585 H   0  0  0  0  0  0  0  0  0  0  0  0
   -7.5242   24.6349  -32.3782 H   0  0  0  0  0  0  0  0  0  0  0  0
   -5.4675   25.8875  -31.5496 H   0  0  0  0  0  0  0  0  0  0  0  0
   -6.7526   25.5816  -30.3147 H   0  0  0  0  0  0  0  0  0  0  0  0
   -4.6555   25.1092  -29.2605 H   0  0  0  0  0  0  0  0  0  0  0  0
   -2.9945   23.8456  -28.9864 H   0  0  0  0  0  0  0  0  0  0  0  0
   -2.3034   22.7912  -30.2660 H   0  0  0  0  0  0  0  0  0  0  0  0
   -1.9508   24.5526  -30.2660 H   0  0  0  0  0  0  0  0  0  0  0  0
   -4.9430   22.2803  -29.6193 H   0  0  0  0  0  0  0  0  0  0  0  0
   -5.5313   23.3536  -28.2633 H   0  0  0  0  0  0  0  0  0  0  0  0
   -7.2857   21.8615  -29.3861 H   0  0  0  0  0  0  0  0  0  0  0  0
   -7.6597   23.6181  -29.2453 H   0  0  0  0  0  0  0  0  0  0  0  0
   -4.6005   21.0564  -33.3485 H   0  0  0  0  0  0  0  0  0  0  0  0
   -4.9564   22.3116  -32.1026 H   0  0  0  0  0  0  0  0  0  0  0  0
   -3.6899   20.5043  -28.7564 H   0  0  0  0  0  0  0  0  0  0  0  0
   -1.3749   20.8910  -27.9168 H   0  0  0  0  0  0  0  0  0  0  0  0
    0.4909   21.2676  -29.5255 H   0  0  0  0  0  0  0  0  0  0  0  0
    0.0560   21.2299  -31.9786 H   0  0  0  0  0  0  0  0  0  0  0  0
   -2.3886   18.7459  -33.2610 H   0  0  0  0  0  0  0  0  0  0  0  0
   -3.2713   19.6225  -34.5568 H   0  0  0  0  0  0  0  0  0  0  0  0
   -1.4753   19.5906  -34.5568 H   0  0  0  0  0  0  0  0  0  0  0  0
  1  2  1  0
  2  3  1  0
  3  4  1  0
  3  5  1  0
  5  6  2  0
  6  7  1  0
  7  8  2  0
  8  9  1  0
  9 10  1  0
 10 11  1  0
 11 12  1  0
 12 13  1  0
 13 14  1  0
 14 15  1  0
 13 16  1  0
 16 17  1  0
  9 18  2  0
 18 19  1  0
 19 20  1  0
 20 21  1  0
 21 22  2  0
 22 23  1  0
 23 24  2  0
 24 25  1  0
 25 26  2  0
 26 27  1  0
 27 28  1  0
 18  5  1  0
 26 21  1  0
 17 10  1  0
  1 29  1  0
  1 30  1  0
  1 31  1  0
  2 32  1  0
  2 33  1  0
  4 34  1  0
  4 35  1  0
  4 36  1  0
  6 37  1  0
  7 38  1  0
 11 39  1  0
 11 40  1  0
 12 41  1  0
 12 42  1  0
 13 43  1  0
 15 44  1  0
 15 45  1  0
 15 46  1  0
 16 47  1  0
 16 48  1  0
 17 49  1  0
 17 50  1  0
 19 51  1  0
 19 52  1  0
 22 53  1  0
 23 54  1  0
 24 55  1  0
 25 56  1  0
 28 57  1  0
 28 58  1  0
 28 59  1  0
M  CHG  1   6   1
M  END
>  <UniqueID>  (33) 
33

>  <SMILES>  (33) 
CCN(C)c1[nH+]cnc(N2CCC(OC)CC2)c1COc1ccccc1OC

>  <Energy>  (33) 
73.97062420682292

>  <Genealogy>  (33) 
CCN(C)c1[nH+]cnc(N2CCC(OC)CC2)c1COc1ccccc1OC (protonated)
CCN(C)c1[nH+]cnc(N2CCC(OC)CC2)c1COc1ccccc1OC (3D coordinates assigned)
CCN(C)c1[nH+]cnc(N2CCC(OC)CC2)c1COc1ccccc1OC (nonaromatic ring conformer: 73.97062420682292 kcal/mol)

>  <smiles>  (33) 
CCN(C)c1ncnc(N2CCC(OC)CC2)c1COc1ccccc1OC

>  <score_type>  (33) 
oracle

>  <origin>  (33) 
adg

>  <m_score__min__energy>  (33) 
-7.0499999999999998

>  <m_primary>  (33) 
energy

$$$$
33:0
     RDKit          3D

 51 53  0  0  0  0  0  0  0  0999 V2000
    0.2860   21.4680  -35.3390 C   0  0  0  0  0  0  0  0  0  0  0  0
   -0.4720   21.8660  -34.2000 O   0  0  0  0  0  0  0  0  0  0  0  0
   -1.5040   21.1070  -33.6300 C   0  0  0  0  0  0  0  0  0  0  0  0
   -2.1030   21.5770  -32.4580 C   0  0  0  0  0  0  0  0  0  0  0  0
   -3.1380   20.8610  -31.8550 C   0  0  0  0  0  0  0  0  0  0  0  0
   -3.5860   19.6660  -32.4210 C   0  0  0  0  0  0  0  0  0  0  0  0
   -3.0080   19.1790  -33.6040 C   0  0  0  0  0  0  0  0  0  0  0  0
   -3.4920   17.8760  -34.2120 C   0  0  0  0  0  0  0  0  0  0  0  0
   -4.9600   17.6910  -34.1540 N   0  0  0  0  0  0  0  0  0  0  0  0
   -5.4480   17.2530  -32.8260 C   0  0  0  0  0  0  0  0  0  0  0  0
   -6.9730   17.4020  -32.7280 C   0  0  0  0  0  0  0  0  0  0  0  0
   -7.4150   18.8120  -32.9180 N   0  0  0  0  0  0  0  0  0  0  0  0
   -7.8290   19.4780  -31.6550 C   0  0  0  0  0  0  0  0  0  0  0  0
   -7.7050   20.9920  -31.6640 C   0  0  0  0  0  0  0  0  0  0  0  0
   -8.8180   21.8010  -31.9470 C   0  0  0  0  0  0  0  0  0  0  0  0
   -8.6930   23.1920  -31.9710 C   0  0  0  0  0  0  0  0  0  0  0  0
   -7.4530   23.7910  -31.7420 C   0  0  0  0  0  0  0  0  0  0  0  0
   -6.3200   22.9960  -31.4920 C   0  0  0  0  0  0  0  0  0  0  0  0
   -5.0470   23.5480  -31.2820 O   0  0  0  0  0  0  0  0  0  0  0  0
   -4.7550   24.5430  -30.3060 C   0  0  0  0  0  0  0  0  0  0  0  0
   -6.4550   21.6030  -31.4550 C   0  0  0  0  0  0  0  0  0  0  0  0
   -6.4610   19.6360  -33.7080 C   0  0  0  0  0  0  0  0  0  0  0  0
   -5.7440   18.7890  -34.7690 C   0  0  0  0  0  0  0  0  0  0  0  0
   -1.9520   19.8960  -34.1950 C   0  0  0  0  0  0  0  0  0  0  0  0
    1.2150   20.9802  -35.0090 H   0  0  0  0  0  0  0  0  0  0  0  0
   -0.3035   20.7631  -35.9437 H   0  0  0  0  0  0  0  0  0  0  0  0
    0.5316   22.3535  -35.9437 H   0  0  0  0  0  0  0  0  0  0  0  0
   -1.7560   22.5185  -32.0074 H   0  0  0  0  0  0  0  0  0  0  0  0
   -3.6018   21.2389  -30.9319 H   0  0  0  0  0  0  0  0  0  0  0  0
   -4.3971   19.1024  -31.9369 H   0  0  0  0  0  0  0  0  0  0  0  0
   -3.1820   17.8508  -35.2671 H   0  0  0  0  0  0  0  0  0  0  0  0
   -3.0460   17.0640  -33.6190 H   0  0  0  0  0  0  0  0  0  0  0  0
   -5.1784   16.1976  -32.6730 H   0  0  0  0  0  0  0  0  0  0  0  0
   -4.9823   17.8834  -32.0542 H   0  0  0  0  0  0  0  0  0  0  0  0
   -7.4404   16.7769  -33.5032 H   0  0  0  0  0  0  0  0  0  0  0  0
   -7.2787   17.0857  -31.7198 H   0  0  0  0  0  0  0  0  0  0  0  0
   -8.2890   18.7600  -33.4960 H   0  0  0  0  0  0  0  0  0  0  0  0
   -8.8811   19.2218  -31.4618 H   0  0  0  0  0  0  0  0  0  0  0  0
   -7.1441   19.1154  -30.8743 H   0  0  0  0  0  0  0  0  0  0  0  0
   -9.7939   21.3362  -32.1509 H   0  0  0  0  0  0  0  0  0  0  0  0
   -9.5751   23.8179  -32.1711 H   0  0  0  0  0  0  0  0  0  0  0  0
   -7.3618   24.8871  -31.7571 H   0  0  0  0  0  0  0  0  0  0  0  0
   -4.8800   24.1172  -29.2995 H   0  0  0  0  0  0  0  0  0  0  0  0
   -3.7179   24.8873  -30.4323 H   0  0  0  0  0  0  0  0  0  0  0  0
   -5.4415   25.3931  -30.4323 H   0  0  0  0  0  0  0  0  0  0  0  0
   -5.5715   20.9775  -31.2598 H   0  0  0  0  0  0  0  0  0  0  0  0
   -7.0139   20.4450  -34.2079 H   0  0  0  0  0  0  0  0  0  0  0  0
   -5.7061   20.0488  -33.0227 H   0  0  0  0  0  0  0  0  0  0  0  0
   -6.4945   18.3555  -35.4464 H   0  0  0  0  0  0  0  0  0  0  0  0
   -5.0492   19.4418  -35.3177 H   0  0  0  0  0  0  0  0  0  0  0  0
   -1.4719   19.5084  -35.1056 H   0  0  0  0  0  0  0  0  0  0  0  0
  1  2  1  0
  2  3  1  0
  3  4  2  0
  4  5  1  0
  5  6  2  0
  6  7  1  0
  7  8  1  0
  8  9  1  0
  9 10  1  0
 10 11  1  0
 11 12  1  0
 12 13  1  0
 13 14  1  0
 14 15  2  0
 15 16  1  0
 16 17  2  0
 17 18  1  0
 18 19  1  0
 19 20  1  0
 18 21  2  0
 12 22  1  0
 22 23  1  0
  7 24  2  0
 24  3  1  0
 23  9  1  0
 21 14  1  0
  1 25  1  0
  1 26  1  0
  1 27  1  0
  4 28  1  0
  5 29  1  0
  6 30  1  0
  8 31  1  0
  8 32  1  0
 10 33  1  0
 10 34  1  0
 11 35  1  0
 11 36  1  0
 12 37  1  0
 13 38  1  0
 13 39  1  0
 15 40  1  0
 16 41  1  0
 17 42  1  0
 20 43  1  0
 20 44  1  0
 20 45  1  0
 21 46  1  0
 22 47  1  0
 22 48  1  0
 23 49  1  0
 23 50  1  0
 24 51  1  0
M  CHG  1  12   1
M  END
>  <UniqueID>  (34) 
34

>  <SMILES>  (34) 
COc1cccc(CN2CC[NH+](Cc3cccc(OC)c3)CC2)c1

>  <Energy>  (34) 
65.05035542710331

>  <Genealogy>  (34) 
COc1cccc(CN2CC[NH+](Cc3cccc(OC)c3)CC2)c1 (protonated)
COc1cccc(CN2CC[NH+](Cc3cccc(OC)c3)CC2)c1 (3D coordinates assigned)
COc1cccc(CN2CC[NH+](Cc3cccc(OC)c3)CC2)c1 (nonaromatic ring conformer: 65.05035542710331 kcal/mol)

>  <smiles>  (34) 
COc1cccc(CN2CCN(Cc3cccc(OC)c3)CC2)c1

>  <score_type>  (34) 
oracle

>  <origin>  (34) 
adg

>  <m_score__min__energy>  (34) 
-7.4000000000000004

>  <m_primary>  (34) 
energy

$$$$
34:0
     RDKit          3D

 36 37  0  0  0  0  0  0  0  0999 V2000
   -4.2000   23.7500  -28.5090 C   0  0  0  0  0  0  0  0  0  0  0  0
   -3.7010   23.4980  -29.9270 C   0  0  0  0  0  0  0  0  0  0  0  0
   -4.3350   24.3810  -30.8480 O   0  0  0  0  0  0  0  0  0  0  0  0
   -5.6940   24.3080  -31.1740 C   0  0  0  0  0  0  0  0  0  0  0  0
   -6.5790   24.6240  -30.3330 O   0  0  0  0  0  0  0  0  0  0  0  0
   -6.1000   23.7920  -32.5170 C   0  0  0  0  0  0  0  0  0  0  0  0
   -6.8920   22.5680  -32.3660 N   0  0  0  0  0  0  0  0  0  0  0  0
   -6.3250   21.4050  -32.6970 N   0  0  0  0  0  0  0  0  0  0  0  0
   -6.9840   20.2170  -32.6210 C   0  0  0  0  0  0  0  0  0  0  0  0
   -6.2630   18.9920  -33.0270 C   0  0  0  0  0  0  0  0  0  0  0  0
   -6.0420   17.9700  -32.0890 C   0  0  0  0  0  0  0  0  0  0  0  0
   -5.3400   16.8170  -32.4540 C   0  0  0  0  0  0  0  0  0  0  0  0
   -4.8420   16.6810  -33.7530 C   0  0  0  0  0  0  0  0  0  0  0  0
   -4.1600   15.5630  -34.1040 F   0  0  0  0  0  0  0  0  0  0  0  0
   -5.0390   17.7030  -34.6870 C   0  0  0  0  0  0  0  0  0  0  0  0
   -5.7400   18.8570  -34.3250 C   0  0  0  0  0  0  0  0  0  0  0  0
   -8.3130   20.2020  -32.1470 C   0  0  0  0  0  0  0  0  0  0  0  0
   -9.0980   18.9290  -31.9730 C   0  0  0  0  0  0  0  0  0  0  0  0
   -8.9190   21.4230  -31.8350 C   0  0  0  0  0  0  0  0  0  0  0  0
   -8.1950   22.6080  -31.9510 C   0  0  0  0  0  0  0  0  0  0  0  0
   -8.7510   23.7040  -31.6690 O   0  0  0  0  0  0  0  0  0  0  0  0
   -3.4588   23.3757  -27.7875 H   0  0  0  0  0  0  0  0  0  0  0  0
   -4.3458   24.8298  -28.3581 H   0  0  0  0  0  0  0  0  0  0  0  0
   -5.1555   23.2264  -28.3581 H   0  0  0  0  0  0  0  0  0  0  0  0
   -2.6136   23.6602  -29.9614 H   0  0  0  0  0  0  0  0  0  0  0  0
   -3.9412   22.4619  -30.2077 H   0  0  0  0  0  0  0  0  0  0  0  0
   -6.7023   24.5541  -33.0331 H   0  0  0  0  0  0  0  0  0  0  0  0
   -5.1979   23.5678  -33.1052 H   0  0  0  0  0  0  0  0  0  0  0  0
   -6.4229   18.0772  -31.0626 H   0  0  0  0  0  0  0  0  0  0  0  0
   -5.1794   16.0157  -31.7177 H   0  0  0  0  0  0  0  0  0  0  0  0
   -4.6420   17.5987  -35.7075 H   0  0  0  0  0  0  0  0  0  0  0  0
   -5.8831   19.6634  -35.0593 H   0  0  0  0  0  0  0  0  0  0  0  0
   -9.2263   18.7210  -30.9005 H   0  0  0  0  0  0  0  0  0  0  0  0
  -10.0851   19.0394  -32.4457 H   0  0  0  0  0  0  0  0  0  0  0  0
   -8.5561   18.0966  -32.4457 H   0  0  0  0  0  0  0  0  0  0  0  0
   -9.9659   21.4480  -31.4984 H   0  0  0  0  0  0  0  0  0  0  0  0
  1  2  1  0
  2  3  1  0
  3  4  1  0
  4  5  2  0
  4  6  1  0
  6  7  1  0
  7  8  1  0
  8  9  2  0
  9 10  1  0
 10 11  2  0
 11 12  1  0
 12 13  2  0
 13 14  1  0
 13 15  1  0
 15 16  2  0
  9 17  1  0
 17 18  1  0
 17 19  2  0
 19 20  1  0
 20 21  2  0
 20  7  1  0
 16 10  1  0
  1 22  1  0
  1 23  1  0
  1 24  1  0
  2 25  1  0
  2 26  1  0
  6 27  1  0
  6 28  1  0
 11 29  1  0
 12 30  1  0
 15 31  1  0
 16 32  1  0
 18 33  1  0
 18 34  1  0
 18 35  1  0
 19 36  1  0
M  END
>  <UniqueID>  (35) 
35

>  <SMILES>  (35) 
CCOC(=O)Cn1nc(-c2ccc(F)cc2)c(C)cc1=O

>  <Energy>  (35) 
38.87244875799156

>  <Genealogy>  (35) 
CCOC(=O)Cn1nc(-c2ccc(F)cc2)c(C)cc1=O (3D coordinates assigned)
CCOC(=O)Cn1nc(-c2ccc(F)cc2)c(C)cc1=O (optimized conformer: 38.87244875799156 kcal/mol)

>  <smiles>  (35) 
CCOC(=O)Cn1nc(-c2ccc(F)cc2)c(C)cc1=O

>  <score_type>  (35) 
oracle

>  <origin>  (35) 
adg

>  <m_score__min__energy>  (35) 
-8.0700000000000003

>  <m_primary>  (35) 
energy

$$$$
35:0
     RDKit          3D

 32 32  0  0  0  0  0  0  0  0999 V2000
   -6.0950   25.6850  -29.6910 C   0  0  0  0  0  0  0  0  0  0  0  0
   -5.1320   25.2360  -30.8000 C   0  0  0  0  0  0  0  0  0  0  0  0
   -5.5180   23.9640  -31.4550 N   0  0  0  0  0  0  0  0  0  0  0  0
   -6.9820   23.7860  -31.4980 C   0  0  0  0  0  0  0  0  0  0  0  0
   -4.8300   22.7910  -30.8710 C   0  0  0  0  0  0  0  0  0  0  0  0
   -4.4490   21.7880  -31.9730 C   0  0  0  0  0  0  0  0  0  0  0  0
   -5.4710   21.7080  -33.0330 N   0  0  0  0  0  0  0  0  0  0  0  0
   -6.3940   20.6160  -32.8110 C   0  0  0  0  0  0  0  0  0  0  0  0
   -7.6630   20.8850  -32.2630 C   0  0  0  0  0  0  0  0  0  0  0  0
   -8.5810   19.8540  -32.0500 C   0  0  0  0  0  0  0  0  0  0  0  0
   -8.2460   18.5410  -32.3810 C   0  0  0  0  0  0  0  0  0  0  0  0
   -6.9930   18.2540  -32.9250 C   0  0  0  0  0  0  0  0  0  0  0  0
   -6.0630   19.2780  -33.1440 C   0  0  0  0  0  0  0  0  0  0  0  0
   -4.5040   18.8390  -33.8340 Cl  0  0  0  0  0  0  0  0  0  0  0  0
   -5.6462   25.4757  -28.7088 H   0  0  0  0  0  0  0  0  0  0  0  0
   -6.2847   26.7644  -29.7850 H   0  0  0  0  0  0  0  0  0  0  0  0
   -7.0438   25.1364  -29.7850 H   0  0  0  0  0  0  0  0  0  0  0  0
   -5.0969   26.0234  -31.5673 H   0  0  0  0  0  0  0  0  0  0  0  0
   -4.1554   25.0650  -30.3235 H   0  0  0  0  0  0  0  0  0  0  0  0
   -7.3758   23.7381  -30.4720 H   0  0  0  0  0  0  0  0  0  0  0  0
   -7.4392   24.6352  -32.0270 H   0  0  0  0  0  0  0  0  0  0  0  0
   -7.2224   22.8520  -32.0270 H   0  0  0  0  0  0  0  0  0  0  0  0
   -3.9181   23.1258  -30.3548 H   0  0  0  0  0  0  0  0  0  0  0  0
   -5.5084   22.2978  -30.1593 H   0  0  0  0  0  0  0  0  0  0  0  0
   -3.4958   22.1021  -32.4233 H   0  0  0  0  0  0  0  0  0  0  0  0
   -4.3655   20.7938  -31.5097 H   0  0  0  0  0  0  0  0  0  0  0  0
   -5.9630   22.6240  -33.1270 H   0  0  0  0  0  0  0  0  0  0  0  0
   -4.9820   21.5450  -33.9450 H   0  0  0  0  0  0  0  0  0  0  0  0
   -7.9342   21.9181  -31.9999 H   0  0  0  0  0  0  0  0  0  0  0  0
   -9.5689   20.0777  -31.6209 H   0  0  0  0  0  0  0  0  0  0  0  0
   -8.9704   17.7305  -32.2130 H   0  0  0  0  0  0  0  0  0  0  0  0
   -6.7343   17.2166  -33.1834 H   0  0  0  0  0  0  0  0  0  0  0  0
  1  2  1  0
  2  3  1  0
  3  4  1  0
  3  5  1  0
  5  6  1  0
  6  7  1  0
  7  8  1  0
  8  9  2  0
  9 10  1  0
 10 11  2  0
 11 12  1  0
 12 13  2  0
 13 14  1  0
 13  8  1  0
  1 15  1  0
  1 16  1  0
  1 17  1  0
  2 18  1  0
  2 19  1  0
  4 20  1  0
  4 21  1  0
  4 22  1  0
  5 23  1  0
  5 24  1  0
  6 25  1  0
  6 26  1  0
  7 27  1  0
  7 28  1  0
  9 29  1  0
 10 30  1  0
 11 31  1  0
 12 32  1  0
M  CHG  1   7   1
M  END
>  <UniqueID>  (36) 
36

>  <SMILES>  (36) 
CCN(C)CC[NH2+]c1ccccc1Cl

>  <Energy>  (36) 
32.98001758907756

>  <Genealogy>  (36) 
CCN(C)CC[NH2+]c1ccccc1Cl (protonated)
CCN(C)CC[NH2+]c1ccccc1Cl (3D coordinates assigned)
CCN(C)CC[NH2+]c1ccccc1Cl (optimized conformer: 32.98001758907756 kcal/mol)

>  <smiles>  (36) 
CCN(C)CCNc1ccccc1Cl

>  <score_type>  (36) 
oracle

>  <origin>  (36) 
adg

>  <m_score__min__energy>  (36) 
-5.7999999999999998

>  <m_primary>  (36) 
energy

$$$$
36:0
     RDKit          3D

 47 48  0  0  0  0  0  0  0  0999 V2000
   -6.4680   24.8720  -29.7870 C   0  0  0  0  0  0  0  0  0  0  0  0
   -5.3670   25.6650  -30.4790 C   0  0  0  0  0  0  0  0  0  0  0  0
   -4.2840   24.8110  -30.8480 O   0  0  0  0  0  0  0  0  0  0  0  0
   -3.7070   23.8150  -30.0390 C   0  0  0  0  0  0  0  0  0  0  0  0
   -3.4310   24.0250  -28.6740 C   0  0  0  0  0  0  0  0  0  0  0  0
   -2.8770   23.0060  -27.8980 C   0  0  0  0  0  0  0  0  0  0  0  0
   -2.5930   21.7520  -28.4590 C   0  0  0  0  0  0  0  0  0  0  0  0
   -2.0040   20.6510  -27.5970 C   0  0  0  0  0  0  0  0  0  0  0  0
   -1.2100   21.2350  -26.4220 C   0  0  0  0  0  0  0  0  0  0  0  0
   -3.0930   19.6900  -27.1050 C   0  0  0  0  0  0  0  0  0  0  0  0
   -2.8710   21.5390  -29.8210 C   0  0  0  0  0  0  0  0  0  0  0  0
   -3.4100   22.5640  -30.6150 C   0  0  0  0  0  0  0  0  0  0  0  0
   -3.7270   22.2910  -32.0670 C   0  0  0  0  0  0  0  0  0  0  0  0
   -5.1620   22.5200  -32.3330 N   0  0  0  0  0  0  0  0  0  0  0  0
   -6.0910   21.6540  -31.5680 C   0  0  0  0  0  0  0  0  0  0  0  0
   -7.5430   22.1610  -31.5890 C   0  0  0  0  0  0  0  0  0  0  0  0
   -8.3810   21.0930  -32.2870 C   0  0  0  0  0  0  0  0  0  0  0  0
   -7.4130   20.0710  -32.8670 C   0  0  0  0  0  0  0  0  0  0  0  0
   -6.1290   20.2050  -32.0670 C   0  0  0  0  0  0  0  0  0  0  0  0
   -6.3507   24.9565  -28.6965 H   0  0  0  0  0  0  0  0  0  0  0  0
   -7.4491   25.2722  -30.0824 H   0  0  0  0  0  0  0  0  0  0  0  0
   -6.3993   23.8146  -30.0824 H   0  0  0  0  0  0  0  0  0  0  0  0
   -5.7772   26.1387  -31.3831 H   0  0  0  0  0  0  0  0  0  0  0  0
   -4.9921   26.4300  -29.7831 H   0  0  0  0  0  0  0  0  0  0  0  0
   -3.6539   24.9999  -28.2159 H   0  0  0  0  0  0  0  0  0  0  0  0
   -2.6607   23.1881  -26.8350 H   0  0  0  0  0  0  0  0  0  0  0  0
   -1.3057   20.0740  -28.2210 H   0  0  0  0  0  0  0  0  0  0  0  0
   -1.6602   20.9038  -25.4746 H   0  0  0  0  0  0  0  0  0  0  0  0
   -0.1680   20.8865  -26.4743 H   0  0  0  0  0  0  0  0  0  0  0  0
   -1.2323   22.3335  -26.4743 H   0  0  0  0  0  0  0  0  0  0  0  0
   -3.1039   19.6804  -26.0051 H   0  0  0  0  0  0  0  0  0  0  0  0
   -4.0724   20.0236  -27.4785 H   0  0  0  0  0  0  0  0  0  0  0  0
   -2.8839   18.6767  -27.4785 H   0  0  0  0  0  0  0  0  0  0  0  0
   -2.6635   20.5566  -30.2702 H   0  0  0  0  0  0  0  0  0  0  0  0
   -3.1293   22.9625  -32.7009 H   0  0  0  0  0  0  0  0  0  0  0  0
   -3.4851   21.2422  -32.2938 H   0  0  0  0  0  0  0  0  0  0  0  0
   -5.3570   22.3790  -33.3530 H   0  0  0  0  0  0  0  0  0  0  0  0
   -5.3850   23.5200  -32.1120 H   0  0  0  0  0  0  0  0  0  0  0  0
   -5.6825   21.6916  -30.5473 H   0  0  0  0  0  0  0  0  0  0  0  0
   -7.9047   22.3125  -30.5613 H   0  0  0  0  0  0  0  0  0  0  0  0
   -7.6144   23.1227  -32.1183 H   0  0  0  0  0  0  0  0  0  0  0  0
   -9.0526   20.6080  -31.5633 H   0  0  0  0  0  0  0  0  0  0  0  0
   -9.0007   21.5382  -33.0793 H   0  0  0  0  0  0  0  0  0  0  0  0
   -7.8229   19.0555  -32.7636 H   0  0  0  0  0  0  0  0  0  0  0  0
   -7.2386   20.2462  -33.9389 H   0  0  0  0  0  0  0  0  0  0  0  0
   -6.1343   19.5078  -31.2162 H   0  0  0  0  0  0  0  0  0  0  0  0
   -5.2465   19.9664  -32.6788 H   0  0  0  0  0  0  0  0  0  0  0  0
  1  2  1  0
  2  3  1  0
  3  4  1  0
  4  5  2  0
  5  6  1  0
  6  7  2  0
  7  8  1  0
  8  9  1  0
  8 10  1  0
  7 11  1  0
 11 12  2  0
 12 13  1  0
 13 14  1  0
 14 15  1  0
 15 16  1  0
 16 17  1  0
 17 18  1  0
 18 19  1  0
 12  4  1  0
 19 15  1  0
  1 20  1  0
  1 21  1  0
  1 22  1  0
  2 23  1  0
  2 24  1  0
  5 25  1  0
  6 26  1  0
  8 27  1  0
  9 28  1  0
  9 29  1  0
  9 30  1  0
 10 31  1  0
 10 32  1  0
 10 33  1  0
 11 34  1  0
 13 35  1  0
 13 36  1  0
 14 37  1  0
 14 38  1  0
 15 39  1  0
 16 40  1  0
 16 41  1  0
 17 42  1  0
 17 43  1  0
 18 44  1  0
 18 45  1  0
 19 46  1  0
 19 47  1  0
M  CHG  1  14   1
M  END
>  <UniqueID>  (37) 
37

>  <SMILES>  (37) 
CCOc1ccc(C(C)C)cc1C[NH2+]C1CCCC1

>  <Energy>  (37) 
43.51886135575789

>  <Genealogy>  (37) 
CCOc1ccc(C(C)C)cc1C[NH2+]C1CCCC1 (protonated)
CCOc1ccc(C(C)C)cc1C[NH2+]C1CCCC1 (3D coordinates assigned)
CCOc1ccc(C(C)C)cc1C[NH2+]C1CCCC1 (nonaromatic ring conformer: 43.51886135575789 kcal/mol)

>  <smiles>  (37) 
CCOc1ccc(C(C)C)cc1CNC1CCCC1

>  <score_type>  (37) 
oracle

>  <origin>  (37) 
adg

>  <m_score__min__energy>  (37) 
-6.6900000000000004

>  <m_primary>  (37) 
energy

$$$$
37:0
     RDKit          3D

 49 51  0  0  1  0  0  0  0  0999 V2000
   -3.6330   23.9310  -28.2230 C   0  0  0  0  0  0  0  0  0  0  0  0
   -2.7090   24.3950  -29.3650 C   0  0  0  0  0  0  0  0  0  0  0  0
   -3.4960   24.9420  -30.3400 O   0  0  0  0  0  0  0  0  0  0  0  0
   -4.8330   24.7390  -30.0680 C   0  0  0  0  0  0  0  0  0  0  0  0
   -5.7420   25.2590  -31.1580 C   0  0  0  0  0  0  0  0  0  0  0  0
   -6.2770   24.2330  -31.9210 O   0  0  0  0  0  0  0  0  0  0  0  0
   -7.0360   23.3760  -31.0880 C   0  0  0  0  0  0  0  0  0  0  0  0
   -7.3610   22.1760  -31.9160 C   0  0  0  0  0  0  0  0  0  0  0  0
   -6.3450   21.5210  -32.5420 O   0  0  0  0  0  0  0  0  0  0  0  0
   -5.0070   21.4520  -32.2400 C   0  0  0  0  0  0  0  0  0  0  0  0
   -4.7120   21.4760  -30.8980 C   0  0  0  0  0  0  0  0  0  0  0  0
   -3.3700   21.4120  -30.5040 C   0  0  0  0  0  0  0  0  0  0  0  0
   -2.4330   21.3300  -31.4830 C   0  0  0  0  0  0  0  0  0  0  0  0
   -1.1060   21.2660  -31.1520 C   0  0  0  0  0  0  0  0  0  0  0  0
   -0.7030   21.2800  -29.9860 N   0  0  0  0  0  0  0  0  0  0  0  0
   -0.6620   20.3550  -29.0100 C   0  0  0  0  0  0  0  0  0  0  0  0
    0.4440   19.4700  -28.9360 C   0  0  0  0  0  0  0  0  0  0  0  0
    0.4570   18.4410  -28.0190 C   0  0  0  0  0  0  0  0  0  0  0  0
   -0.6020   18.2440  -27.1480 C   0  0  0  0  0  0  0  0  0  0  0  0
   -1.6790   19.1030  -27.2170 C   0  0  0  0  0  0  0  0  0  0  0  0
   -3.1110   18.7690  -25.9790 Br  0  0  0  0  0  0  0  0  0  0  0  0
   -1.7470   20.1530  -28.1170 C   0  0  0  0  0  0  0  0  0  0  0  0
   -0.1490   21.1820  -32.1290 N   0  0  0  0  0  0  0  0  0  0  0  0
   -0.5320   21.1660  -33.4020 C   0  0  0  0  0  0  0  0  0  0  0  0
   -1.8130   21.2260  -33.7950 N   0  0  0  0  0  0  0  0  0  0  0  0
   -2.7410   21.3080  -32.8180 C   0  0  0  0  0  0  0  0  0  0  0  0
   -4.0520   21.3700  -33.2050 C   0  0  0  0  0  0  0  0  0  0  0  0
   -3.1659   24.1656  -27.2551 H   0  0  0  0  0  0  0  0  0  0  0  0
   -4.5995   24.4507  -28.2992 H   0  0  0  0  0  0  0  0  0  0  0  0
   -3.7934   22.8454  -28.2992 H   0  0  0  0  0  0  0  0  0  0  0  0
   -1.9992   25.1473  -28.9905 H   0  0  0  0  0  0  0  0  0  0  0  0
   -2.1343   23.5465  -29.7646 H   0  0  0  0  0  0  0  0  0  0  0  0
   -5.0072   23.6591  -29.9515 H   0  0  0  0  0  0  0  0  0  0  0  0
   -5.0702   25.2942  -29.1485 H   0  0  0  0  0  0  0  0  0  0  0  0
   -6.5648   25.8236  -30.6951 H   0  0  0  0  0  0  0  0  0  0  0  0
   -5.1439   25.9002  -31.8222 H   0  0  0  0  0  0  0  0  0  0  0  0
   -6.4488   23.0832  -30.2051 H   0  0  0  0  0  0  0  0  0  0  0  0
   -7.9477   23.8726  -30.7242 H   0  0  0  0  0  0  0  0  0  0  0  0
   -7.8556   21.4498  -31.2542 H   0  0  0  0  0  0  0  0  0  0  0  0
   -7.9698   22.5761  -32.7402 H   0  0  0  0  0  0  0  0  0  0  0  0
   -5.5141   21.5441  -30.1484 H   0  0  0  0  0  0  0  0  0  0  0  0
   -3.0856   21.4276  -29.4415 H   0  0  0  0  0  0  0  0  0  0  0  0
    1.2981   19.6059  -29.6158 H   0  0  0  0  0  0  0  0  0  0  0  0
    1.3234   17.7645  -27.9781 H   0  0  0  0  0  0  0  0  0  0  0  0
   -0.5844   17.4213  -26.4180 H   0  0  0  0  0  0  0  0  0  0  0  0
   -2.6237   20.8170  -28.1396 H   0  0  0  0  0  0  0  0  0  0  0  0
    0.2458   21.0998  -34.1770 H   0  0  0  0  0  0  0  0  0  0  0  0
   -2.0440   21.2080  -34.8100 H   0  0  0  0  0  0  0  0  0  0  0  0
   -4.3267   21.3539  -34.2700 H   0  0  0  0  0  0  0  0  0  0  0  0
  1  2  1  0
  2  3  1  0
  3  4  1  0
  4  5  1  0
  5  6  1  0
  6  7  1  0
  7  8  1  0
  8  9  1  0
  9 10  1  0
 10 11  2  0
 11 12  1  0
 12 13  2  0
 13 14  1  0
 14 15  2  0
 15 16  1  0
 16 17  2  0
 17 18  1  0
 18 19  2  0
 19 20  1  0
 20 21  1  0
 20 22  2  0
 14 23  1  0
 23 24  2  0
 24 25  1  0
 25 26  1  0
 26 27  2  0
 27 10  1  0
 26 13  1  0
 22 16  1  0
  1 28  1  0
  1 29  1  0
  1 30  1  0
  2 31  1  0
  2 32  1  0
  4 33  1  0
  4 34  1  0
  5 35  1  0
  5 36  1  0
  7 37  1  0
  7 38  1  0
  8 39  1  0
  8 40  1  0
 11 41  1  0
 12 42  1  0
 17 43  1  0
 18 44  1  0
 19 45  1  0
 22 46  1  0
 24 47  1  0
 25 48  1  0
 27 49  1  0
M  END
>  <smiles>  (38) 
CCOCCOCCOc1ccc2c(=Nc3cccc(Br)c3)nc[nH]c2c1

>  <score_type>  (38) 
oracle

>  <origin>  (38) 
adg

>  <m_score__min__energy>  (38) 
-8.9600000000000009

>  <m_primary>  (38) 
energy

$$$$
