0:0
     RDKit          3D

 30 32  0  0  0  0  0  0  0  0999 V2000
   -8.1990   19.5350  -32.7180 C   0  0  0  0  0  0  0  0  0  0  0  0
   -7.6490   20.8420  -32.2460 C   0  0  0  0  0  0  0  0  0  0  0  0
   -8.5150   21.8240  -31.6980 C   0  0  0  0  0  0  0  0  0  0  0  0
   -7.9870   23.0390  -31.2250 C   0  0  0  0  0  0  0  0  0  0  0  0
   -6.6130   23.2180  -31.3320 C   0  0  0  0  0  0  0  0  0  0  0  0
   -5.7520   24.2200  -30.9360 C   0  0  0  0  0  0  0  0  0  0  0  0
   -6.1140   25.4740  -30.2100 C   0  0  0  0  0  0  0  0  0  0  0  0
   -4.4810   23.8390  -31.2170 N   0  0  0  0  0  0  0  0  0  0  0  0
   -4.5210   22.6440  -31.8020 N   0  0  0  0  0  0  0  0  0  0  0  0
   -3.3490   21.9190  -32.2200 C   0  0  0  0  0  0  0  0  0  0  0  0
   -3.3680   21.1950  -33.4260 C   0  0  0  0  0  0  0  0  0  0  0  0
   -2.2420   20.4790  -33.8410 C   0  0  0  0  0  0  0  0  0  0  0  0
   -1.0890   20.4700  -33.0530 C   0  0  0  0  0  0  0  0  0  0  0  0
   -1.0620   21.1710  -31.8460 C   0  0  0  0  0  0  0  0  0  0  0  0
   -2.1870   21.8890  -31.4270 C   0  0  0  0  0  0  0  0  0  0  0  0
   -5.8120   22.2590  -31.8720 C   0  0  0  0  0  0  0  0  0  0  0  0
   -6.3010   21.0710  -32.3090 N   0  0  0  0  0  0  0  0  0  0  0  0
   -8.4610   18.9124  -31.8498 H   0  0  0  0  0  0  0  0  0  0  0  0
   -9.0983   19.7136  -33.3258 H   0  0  0  0  0  0  0  0  0  0  0  0
   -7.4426   19.0169  -33.3258 H   0  0  0  0  0  0  0  0  0  0  0  0
   -9.5973   21.6352  -31.6433 H   0  0  0  0  0  0  0  0  0  0  0  0
   -8.6341   23.8144  -30.7890 H   0  0  0  0  0  0  0  0  0  0  0  0
   -6.0631   25.2975  -29.1254 H   0  0  0  0  0  0  0  0  0  0  0  0
   -5.4099   26.2731  -30.4849 H   0  0  0  0  0  0  0  0  0  0  0  0
   -7.1357   25.7749  -30.4849 H   0  0  0  0  0  0  0  0  0  0  0  0
   -4.2760   21.1925  -34.0470 H   0  0  0  0  0  0  0  0  0  0  0  0
   -2.2638   19.9219  -34.7893 H   0  0  0  0  0  0  0  0  0  0  0  0
   -0.2016   19.9103  -33.3836 H   0  0  0  0  0  0  0  0  0  0  0  0
   -0.1550   21.1587  -31.2237 H   0  0  0  0  0  0  0  0  0  0  0  0
   -2.1631   22.4336  -30.4716 H   0  0  0  0  0  0  0  0  0  0  0  0
  1  2  1  0
  2  3  2  0
  3  4  1  0
  4  5  2  0
  5  6  1  0
  6  7  1  0
  6  8  2  0
  8  9  1  0
  9 10  1  0
 10 11  2  0
 11 12  1  0
 12 13  2  0
 13 14  1  0
 14 15  2  0
  9 16  1  0
 16 17  2  0
 17  2  1  0
 16  5  1  0
 15 10  1  0
  1 18  1  0
  1 19  1  0
  1 20  1  0
  3 21  1  0
  4 22  1  0
  7 23  1  0
  7 24  1  0
  7 25  1  0
 11 26  1  0
 12 27  1  0
 13 28  1  0
 14 29  1  0
 15 30  1  0
M  END
>  <UniqueID>  (1) 
1

>  <SMILES>  (1) 
Cc1ccc2c(C)nn(-c3ccccc3)c2n1

>  <Energy>  (1) 
75.10895926594951

>  <Genealogy>  (1) 
Cc1ccc2c(C)nn(-c3ccccc3)c2n1 (3D coordinates assigned)
Cc1ccc2c(C)nn(-c3ccccc3)c2n1 (optimized conformer: 75.10895926594951 kcal/mol)

>  <smiles>  (1) 
Cc1ccc2c(C)nn(-c3ccccc3)c2n1

>  <score_type>  (1) 
oracle

>  <origin>  (1) 
adg

>  <m_score__min__energy>  (1) 
-7.1299999999999999

>  <m_primary>  (1) 
energy

$$$$
1:0
     RDKit          3D

 43 46  0  0  0  0  0  0  0  0999 V2000
  -10.2255   20.8034  -31.9105 H   0  0  0  0  0  0  0  0  0  0  0  0
   -9.1270   20.8330  -31.8620 C   0  0  0  0  0  0  0  0  0  0  0  0
   -8.3680   20.0610  -32.7460 C   0  0  0  0  0  0  0  0  0  0  0  0
   -8.8699   19.4305  -33.4947 H   0  0  0  0  0  0  0  0  0  0  0  0
   -6.9710   20.0890  -32.6800 C   0  0  0  0  0  0  0  0  0  0  0  0
   -6.3757   19.4974  -33.3911 H   0  0  0  0  0  0  0  0  0  0  0  0
   -6.3290   20.8690  -31.7100 C   0  0  0  0  0  0  0  0  0  0  0  0
   -4.9000   20.9430  -31.6940 N   0  0  0  0  0  0  0  0  0  0  0  0
   -4.1340   21.7790  -31.0450 C   0  0  0  0  0  0  0  0  0  0  0  0
   -3.0550   21.2570  -30.3160 C   0  0  0  0  0  0  0  0  0  0  0  0
   -2.9129   20.1678  -30.2574 H   0  0  0  0  0  0  0  0  0  0  0  0
   -2.1500   22.1170  -29.6570 C   0  0  0  0  0  0  0  0  0  0  0  0
   -1.0410   21.5530  -28.9350 N   0  0  0  0  0  0  0  0  0  0  0  0
   -0.1100   22.0160  -29.0250 H   0  0  0  0  0  0  0  0  0  0  0  0
   -1.1240   20.3300  -28.1810 C   0  0  0  0  0  0  0  0  0  0  0  0
   -0.1910   19.2920  -28.3640 C   0  0  0  0  0  0  0  0  0  0  0  0
    0.6297   19.4142  -29.0862 H   0  0  0  0  0  0  0  0  0  0  0  0
   -0.3030   18.1070  -27.6320 C   0  0  0  0  0  0  0  0  0  0  0  0
    0.4344   17.3032  -27.7739 H   0  0  0  0  0  0  0  0  0  0  0  0
   -1.3480   17.9400  -26.7210 C   0  0  0  0  0  0  0  0  0  0  0  0
   -1.4289   17.0070  -26.1439 H   0  0  0  0  0  0  0  0  0  0  0  0
   -2.2940   18.9580  -26.5400 C   0  0  0  0  0  0  0  0  0  0  0  0
   -3.3680   18.7840  -25.6130 N   0  0  0  0  0  0  0  0  0  0  0  0
   -4.2710   19.2930  -25.7390 H   0  0  0  0  0  0  0  0  0  0  0  0
   -3.2680   18.1460  -24.7920 H   0  0  0  0  0  0  0  0  0  0  0  0
   -2.1810   20.1470  -27.2760 C   0  0  0  0  0  0  0  0  0  0  0  0
   -2.9279   20.9434  -27.1425 H   0  0  0  0  0  0  0  0  0  0  0  0
   -2.3420   23.5200  -29.7150 C   0  0  0  0  0  0  0  0  0  0  0  0
   -1.4460   24.4670  -29.0150 C   0  0  0  0  0  0  0  0  0  0  0  0
   -0.2320   24.1770  -28.8440 O   0  0  0  0  0  0  0  0  0  0  0  0
   -1.9390   25.7180  -28.5330 N   0  0  0  0  0  0  0  0  0  0  0  0
   -1.2900   26.3970  -28.0770 H   0  0  0  0  0  0  0  0  0  0  0  0
   -2.9570   25.9460  -28.5730 H   0  0  0  0  0  0  0  0  0  0  0  0
   -3.4660   23.9810  -30.4130 C   0  0  0  0  0  0  0  0  0  0  0  0
   -3.8680   25.2610  -30.5130 N   0  0  0  0  0  0  0  0  0  0  0  0
   -5.0130   25.2430  -31.1810 N   0  0  0  0  0  0  0  0  0  0  0  0
   -5.2870   23.9570  -31.4840 C   0  0  0  0  0  0  0  0  0  0  0  0
   -6.1844   23.6207  -32.0240 H   0  0  0  0  0  0  0  0  0  0  0  0
   -4.3110   23.1380  -31.0350 N   0  0  0  0  0  0  0  0  0  0  0  0
   -7.0940   21.6720  -30.8470 C   0  0  0  0  0  0  0  0  0  0  0  0
   -6.5937   22.3243  -30.1162 H   0  0  0  0  0  0  0  0  0  0  0  0
   -8.4910   21.6430  -30.9160 C   0  0  0  0  0  0  0  0  0  0  0  0
   -9.0889   22.2571  -30.2264 H   0  0  0  0  0  0  0  0  0  0  0  0
  1  2  1  0
  2  3  2  0
  3  4  1  0
  3  5  1  0
  5  6  1  0
  5  7  2  0
  7  8  1  0
  8  9  2  0
  9 10  1  0
 10 11  1  0
 10 12  2  0
 12 13  1  0
 13 14  1  0
 13 15  1  0
 15 16  2  0
 16 17  1  0
 16 18  1  0
 18 19  1  0
 18 20  2  0
 20 21  1  0
 20 22  1  0
 22 23  1  0
 23 24  1  0
 23 25  1  0
 22 26  2  0
 26 27  1  0
 12 28  1  0
 28 29  1  0
 29 30  2  0
 29 31  1  0
 31 32  1  0
 31 33  1  0
 28 34  2  0
 34 35  1  0
 35 36  1  0
 36 37  2  0
 37 38  1  0
 37 39  1  0
  7 40  1  0
 40 41  1  0
 40 42  2  0
 42 43  1  0
 42  2  1  0
 39  9  1  0
 26 15  1  0
 39 34  1  0
M  CHG  1  35  -1
M  END
>  <UniqueID>  (2) 
2

>  <SMILES>  (2) 
NC(=O)c1c(Nc2cccc(N)c2)c/c(=N/c2ccccc2)n2cn[n-]c12

>  <Energy>  (2) 
112.60689380742177

>  <Genealogy>  (2) 
NC(=O)c1c(Nc2cccc(N)c2)cc(=Nc2ccccc2)n2cn[n-]c12 (protonated)
NC(=O)c1c(Nc2cccc(N)c2)c/c(=N/c2ccccc2)n2cn[n-]c12 (cis-trans isomerization)
NC(=O)c1c(Nc2cccc(N)c2)c/c(=N/c2ccccc2)n2cn[n-]c12 (3D coordinates assigned)
NC(=O)c1c(Nc2cccc(N)c2)c/c(=N/c2ccccc2)n2cn[n-]c12 (optimized conformer: 112.60689380742177 kcal/mol)

>  <smiles>  (2) 
NC(=O)c1c(Nc2cccc(N)c2)cc(=Nc2ccccc2)n2cn[nH]c12

>  <score_type>  (2) 
oracle

>  <origin>  (2) 
adg

>  <m_score__min__energy>  (2) 
-10.74

>  <m_primary>  (2) 
energy

$$$$
2:0
     RDKit          3D

 44 47  0  0  0  0  0  0  0  0999 V2000
   -5.0090   26.3000  -30.0170 H   0  0  0  0  0  0  0  0  0  0  0  0
   -5.0920   25.6510  -30.8330 N   0  0  0  0  0  0  0  0  0  0  0  0
   -4.5480   24.4760  -30.8180 C   0  0  0  0  0  0  0  0  0  0  0  0
   -5.0150   23.4820  -31.6240 N   0  0  0  0  0  0  0  0  0  0  0  0
   -4.4380   22.2370  -31.6090 C   0  0  0  0  0  0  0  0  0  0  0  0
   -4.9430   21.1920  -32.4680 N   0  0  0  0  0  0  0  0  0  0  0  0
   -6.3890   21.0830  -32.7100 C   0  0  0  0  0  0  0  0  0  0  0  0
   -6.9300   21.3227  -31.7827 H   0  0  0  0  0  0  0  0  0  0  0  0
   -6.6697   21.7875  -33.5068 H   0  0  0  0  0  0  0  0  0  0  0  0
   -6.7550   19.6630  -33.1540 C   0  0  0  0  0  0  0  0  0  0  0  0
   -6.6244   18.9750  -32.3057 H   0  0  0  0  0  0  0  0  0  0  0  0
   -7.8014   19.6585  -33.4932 H   0  0  0  0  0  0  0  0  0  0  0  0
   -5.9310   19.2430  -34.2220 O   0  0  0  0  0  0  0  0  0  0  0  0
   -4.5970   19.1250  -33.7690 C   0  0  0  0  0  0  0  0  0  0  0  0
   -4.5716   18.4642  -32.8900 H   0  0  0  0  0  0  0  0  0  0  0  0
   -3.9845   18.7055  -34.5807 H   0  0  0  0  0  0  0  0  0  0  0  0
   -4.0310   20.4950  -33.3840 C   0  0  0  0  0  0  0  0  0  0  0  0
   -3.0575   20.3583  -32.8904 H   0  0  0  0  0  0  0  0  0  0  0  0
   -3.9137   21.0993  -34.2957 H   0  0  0  0  0  0  0  0  0  0  0  0
   -3.3820   21.9920  -30.7740 N   0  0  0  0  0  0  0  0  0  0  0  0
   -2.9390   22.9970  -29.9840 C   0  0  0  0  0  0  0  0  0  0  0  0
   -1.9050   22.9770  -29.0800 C   0  0  0  0  0  0  0  0  0  0  0  0
   -1.2370   22.1421  -28.8217 H   0  0  0  0  0  0  0  0  0  0  0  0
   -1.9100   24.2800  -28.5680 C   0  0  0  0  0  0  0  0  0  0  0  0
   -0.9920   24.8310  -27.5400 C   0  0  0  0  0  0  0  0  0  0  0  0
   -0.7710   26.2150  -27.4230 C   0  0  0  0  0  0  0  0  0  0  0  0
   -1.2858   26.9087  -28.1040 H   0  0  0  0  0  0  0  0  0  0  0  0
    0.0970   26.7170  -26.4490 C   0  0  0  0  0  0  0  0  0  0  0  0
    0.2587   27.8020  -26.3678 H   0  0  0  0  0  0  0  0  0  0  0  0
    0.7650   25.8430  -25.5720 C   0  0  0  0  0  0  0  0  0  0  0  0
    1.6470   26.2900  -24.5740 O   0  0  0  0  0  0  0  0  0  0  0  0
    1.2830   27.0540  -23.4240 C   0  0  0  0  0  0  0  0  0  0  0  0
    1.9239   26.7615  -22.5792 H   0  0  0  0  0  0  0  0  0  0  0  0
    1.4154   28.1215  -23.6539 H   0  0  0  0  0  0  0  0  0  0  0  0
   -0.1750   26.8120  -23.0520 C   0  0  0  0  0  0  0  0  0  0  0  0
   -0.2760   26.7952  -21.9568 H   0  0  0  0  0  0  0  0  0  0  0  0
   -0.7977   27.6191  -23.4654 H   0  0  0  0  0  0  0  0  0  0  0  0
   -0.5036   25.8470  -23.4654 H   0  0  0  0  0  0  0  0  0  0  0  0
    0.5420   24.4670  -25.6860 C   0  0  0  0  0  0  0  0  0  0  0  0
    1.0546   23.7742  -25.0024 H   0  0  0  0  0  0  0  0  0  0  0  0
   -0.3250   23.9630  -26.6590 C   0  0  0  0  0  0  0  0  0  0  0  0
   -0.4867   22.8777  -26.7359 H   0  0  0  0  0  0  0  0  0  0  0  0
   -2.8990   25.0090  -29.1500 N   0  0  0  0  0  0  0  0  0  0  0  0
   -3.5040   24.2020  -30.0050 N   0  0  0  0  0  0  0  0  0  0  0  0
  1  2  1  0
  2  3  2  0
  3  4  1  0
  4  5  2  0
  5  6  1  0
  6  7  1  0
  7  8  1  0
  7  9  1  0
  7 10  1  0
 10 11  1  0
 10 12  1  0
 10 13  1  0
 13 14  1  0
 14 15  1  0
 14 16  1  0
 14 17  1  0
 17 18  1  0
 17 19  1  0
  5 20  1  0
 20 21  1  0
 21 22  2  0
 22 23  1  0
 22 24  1  0
 24 25  1  0
 25 26  2  0
 26 27  1  0
 26 28  1  0
 28 29  1  0
 28 30  2  0
 30 31  1  0
 31 32  1  0
 32 33  1  0
 32 34  1  0
 32 35  1  0
 35 36  1  0
 35 37  1  0
 35 38  1  0
 30 39  1  0
 39 40  1  0
 39 41  2  0
 41 42  1  0
 24 43  2  0
 43 44  1  0
 44  3  1  0
 17  6  1  0
 44 21  1  0
 41 25  1  0
M  CHG  1  20  -1
M  END
>  <UniqueID>  (3) 
3

>  <SMILES>  (3) 
[H]/N=c1\nc(N2CCOCC2)[n-]c2cc(-c3ccc(OCC)cc3)nn12

>  <Energy>  (3) 
85.98699678286273

>  <Genealogy>  (3) 
CCOc1ccc(-c2cc3[n-]c(N4CCOCC4)nc(=N)n3n2)cc1 (protonated)
[H]/N=c1\nc(N2CCOCC2)[n-]c2cc(-c3ccc(OCC)cc3)nn12 (cis-trans isomerization)
[H]/N=c1\nc(N2CCOCC2)[n-]c2cc(-c3ccc(OCC)cc3)nn12 (3D coordinates assigned)
[H]/N=c1\nc(N2CCOCC2)[n-]c2cc(-c3ccc(OCC)cc3)nn12 (nonaromatic ring conformer: 85.98699678286273 kcal/mol)

>  <smiles>  (3) 
CCOc1ccc(-c2cc3[nH]c(N4CCOCC4)nc(=N)n3n2)cc1

>  <score_type>  (3) 
oracle

>  <origin>  (3) 
adg

>  <m_score__min__energy>  (3) 
-7.79

>  <m_primary>  (3) 
energy

$$$$
3:0
     RDKit          3D

 40 43  0  0  0  0  0  0  0  0999 V2000
   -2.5700   19.9480  -33.2500 C   0  0  0  0  0  0  0  0  0  0  0  0
   -3.9310   19.3910  -32.9830 C   0  0  0  0  0  0  0  0  0  0  0  0
   -4.2210   18.0580  -33.2820 C   0  0  0  0  0  0  0  0  0  0  0  0
   -5.5100   17.5530  -33.0580 C   0  0  0  0  0  0  0  0  0  0  0  0
   -5.7860   16.1480  -33.4360 C   0  0  0  0  0  0  0  0  0  0  0  0
   -6.9070   15.8310  -34.2230 C   0  0  0  0  0  0  0  0  0  0  0  0
   -7.1510   14.5060  -34.5970 C   0  0  0  0  0  0  0  0  0  0  0  0
   -6.2750   13.4920  -34.1980 C   0  0  0  0  0  0  0  0  0  0  0  0
   -5.1500   13.8030  -33.4280 C   0  0  0  0  0  0  0  0  0  0  0  0
   -4.9020   15.1270  -33.0510 C   0  0  0  0  0  0  0  0  0  0  0  0
   -6.4990   18.4020  -32.5020 C   0  0  0  0  0  0  0  0  0  0  0  0
   -7.8030   17.9500  -32.2130 C   0  0  0  0  0  0  0  0  0  0  0  0
   -8.7530   18.8240  -31.6870 C   0  0  0  0  0  0  0  0  0  0  0  0
   -8.4220   20.1530  -31.4250 C   0  0  0  0  0  0  0  0  0  0  0  0
   -7.1250   20.6280  -31.6710 C   0  0  0  0  0  0  0  0  0  0  0  0
   -6.7980   22.0400  -31.3530 C   0  0  0  0  0  0  0  0  0  0  0  0
   -7.1650   22.5890  -30.1110 C   0  0  0  0  0  0  0  0  0  0  0  0
   -6.8510   23.9170  -29.8050 C   0  0  0  0  0  0  0  0  0  0  0  0
   -6.1640   24.7050  -30.7320 C   0  0  0  0  0  0  0  0  0  0  0  0
   -5.8600   25.9930  -30.4330 F   0  0  0  0  0  0  0  0  0  0  0  0
   -5.7860   24.1660  -31.9640 C   0  0  0  0  0  0  0  0  0  0  0  0
   -6.0980   22.8390  -32.2750 C   0  0  0  0  0  0  0  0  0  0  0  0
   -6.1590   19.7490  -32.2130 C   0  0  0  0  0  0  0  0  0  0  0  0
   -4.8990   20.1950  -32.4730 N   0  0  0  0  0  0  0  0  0  0  0  0
   -2.0647   20.1548  -32.2951 H   0  0  0  0  0  0  0  0  0  0  0  0
   -1.9817   19.2183  -33.8257 H   0  0  0  0  0  0  0  0  0  0  0  0
   -2.6620   20.8808  -33.8257 H   0  0  0  0  0  0  0  0  0  0  0  0
   -3.4381   17.4039  -33.6934 H   0  0  0  0  0  0  0  0  0  0  0  0
   -7.5939   16.6274  -34.5454 H   0  0  0  0  0  0  0  0  0  0  0  0
   -8.0336   14.2610  -35.2061 H   0  0  0  0  0  0  0  0  0  0  0  0
   -6.4708   12.4496  -34.4898 H   0  0  0  0  0  0  0  0  0  0  0  0
   -4.4589   13.0052  -33.1182 H   0  0  0  0  0  0  0  0  0  0  0  0
   -4.0122   15.3691  -32.4514 H   0  0  0  0  0  0  0  0  0  0  0  0
   -8.0724   16.9007  -32.4039 H   0  0  0  0  0  0  0  0  0  0  0  0
   -9.7706   18.4629  -31.4772 H   0  0  0  0  0  0  0  0  0  0  0  0
   -9.1848   20.8352  -31.0217 H   0  0  0  0  0  0  0  0  0  0  0  0
   -7.7018   21.9705  -29.3766 H   0  0  0  0  0  0  0  0  0  0  0  0
   -7.1451   24.3415  -28.8338 H   0  0  0  0  0  0  0  0  0  0  0  0
   -5.2418   24.7868  -32.6910 H   0  0  0  0  0  0  0  0  0  0  0  0
   -5.7947   22.4180  -33.2449 H   0  0  0  0  0  0  0  0  0  0  0  0
  1  2  1  0
  2  3  2  0
  3  4  1  0
  4  5  1  0
  5  6  2  0
  6  7  1  0
  7  8  2  0
  8  9  1  0
  9 10  2  0
  4 11  2  0
 11 12  1  0
 12 13  2  0
 13 14  1  0
 14 15  2  0
 15 16  1  0
 16 17  2  0
 17 18  1  0
 18 19  2  0
 19 20  1  0
 19 21  1  0
 21 22  2  0
 15 23  1  0
 23 24  2  0
 24  2  1  0
 10  5  1  0
 23 11  1  0
 22 16  1  0
  1 25  1  0
  1 26  1  0
  1 27  1  0
  3 28  1  0
  6 29  1  0
  7 30  1  0
  8 31  1  0
  9 32  1  0
 10 33  1  0
 12 34  1  0
 13 35  1  0
 14 36  1  0
 17 37  1  0
 18 38  1  0
 21 39  1  0
 22 40  1  0
M  END
>  <UniqueID>  (4) 
4

>  <SMILES>  (4) 
Cc1cc(-c2ccccc2)c2cccc(-c3ccc(F)cc3)c2n1

>  <Energy>  (4) 
62.25067780434528

>  <Genealogy>  (4) 
Cc1cc(-c2ccccc2)c2cccc(-c3ccc(F)cc3)c2n1 (3D coordinates assigned)
Cc1cc(-c2ccccc2)c2cccc(-c3ccc(F)cc3)c2n1 (optimized conformer: 62.25067780434528 kcal/mol)

>  <smiles>  (4) 
Cc1cc(-c2ccccc2)c2cccc(-c3ccc(F)cc3)c2n1

>  <score_type>  (4) 
oracle

>  <origin>  (4) 
adg

>  <m_score__min__energy>  (4) 
-8.5500000000000007

>  <m_primary>  (4) 
energy

$$$$
4:0
     RDKit          3D

 20 22  0  0  0  0  0  0  0  0999 V2000
   -6.1140   23.7860  -32.2850 Cl  0  0  0  0  0  0  0  0  0  0  0  0
   -7.2090   22.4480  -31.9820 C   0  0  0  0  0  0  0  0  0  0  0  0
   -8.4000   22.5900  -31.2680 C   0  0  0  0  0  0  0  0  0  0  0  0
   -9.1840   21.0880  -31.1830 S   0  0  0  0  0  0  0  0  0  0  0  0
   -8.0060   20.2710  -32.0500 C   0  0  0  0  0  0  0  0  0  0  0  0
   -7.9840   18.9570  -32.3780 N   0  0  0  0  0  0  0  0  0  0  0  0
   -6.9270   18.4790  -33.0960 C   0  0  0  0  0  0  0  0  0  0  0  0
   -6.8720   17.1270  -33.4520 C   0  0  0  0  0  0  0  0  0  0  0  0
   -5.7860   16.6410  -34.1880 C   0  0  0  0  0  0  0  0  0  0  0  0
   -4.7520   17.5020  -34.5710 C   0  0  0  0  0  0  0  0  0  0  0  0
   -4.7940   18.8560  -34.2220 C   0  0  0  0  0  0  0  0  0  0  0  0
   -5.8750   19.3590  -33.4840 C   0  0  0  0  0  0  0  0  0  0  0  0
   -5.9330   20.6820  -33.1340 N   0  0  0  0  0  0  0  0  0  0  0  0
   -6.9970   21.1350  -32.4180 C   0  0  0  0  0  0  0  0  0  0  0  0
   -8.7716   23.5279  -30.8296 H   0  0  0  0  0  0  0  0  0  0  0  0
   -7.6827   16.4462  -33.1532 H   0  0  0  0  0  0  0  0  0  0  0  0
   -5.7450   15.5777  -34.4666 H   0  0  0  0  0  0  0  0  0  0  0  0
   -3.9015   17.1123  -35.1496 H   0  0  0  0  0  0  0  0  0  0  0  0
   -3.9777   19.5272  -34.5270 H   0  0  0  0  0  0  0  0  0  0  0  0
   -5.1680   21.3370  -33.4130 H   0  0  0  0  0  0  0  0  0  0  0  0
  1  2  1  0
  2  3  2  0
  3  4  1  0
  4  5  1  0
  5  6  2  0
  6  7  1  0
  7  8  2  0
  8  9  1  0
  9 10  2  0
 10 11  1  0
 11 12  2  0
 12 13  1  0
 13 14  2  0
 14  2  1  0
 14  5  1  0
 12  7  1  0
  3 15  1  0
  8 16  1  0
  9 17  1  0
 10 18  1  0
 11 19  1  0
 13 20  1  0
M  CHG  1  13   1
M  END
>  <UniqueID>  (5) 
5

>  <SMILES>  (5) 
Clc1csc2nc3ccccc3[nH+]c12

>  <Energy>  (5) 
59.18512253770453

>  <Genealogy>  (5) 
Clc1csc2nc3ccccc3[nH+]c12 (protonated)
Clc1csc2nc3ccccc3[nH+]c12 (3D coordinates assigned)
Clc1csc2nc3ccccc3[nH+]c12 (optimized conformer: 59.18512253770453 kcal/mol)

>  <smiles>  (5) 
Clc1csc2nc3ccccc3nc12

>  <score_type>  (5) 
oracle

>  <origin>  (5) 
adg

>  <m_score__min__energy>  (5) 
-5.8099999999999996

>  <m_primary>  (5) 
energy

$$$$
5:0
     RDKit          3D

 42 44  0  0  0  0  0  0  0  0999 V2000
   -0.4990   20.7640  -34.0730 C   0  0  0  0  0  0  0  0  0  0  0  0
   -1.5240   21.1120  -33.0410 C   0  0  0  0  0  0  0  0  0  0  0  0
   -3.1250   21.4930  -33.3890 S   0  0  0  0  0  0  0  0  0  0  0  0
   -3.5930   21.7320  -31.7950 C   0  0  0  0  0  0  0  0  0  0  0  0
   -4.9310   22.0580  -31.4000 N   0  0  0  0  0  0  0  0  0  0  0  0
   -5.3560   23.3940  -31.0910 C   0  0  0  0  0  0  0  0  0  0  0  0
   -4.5440   24.3580  -31.1560 O   0  0  0  0  0  0  0  0  0  0  0  0
   -6.7930   23.6700  -30.7800 C   0  0  0  0  0  0  0  0  0  0  0  0
   -7.8430   23.4160  -32.2540 S   0  0  0  0  0  0  0  0  0  0  0  0
   -7.6810   21.6190  -32.2620 C   0  0  0  0  0  0  0  0  0  0  0  0
   -6.7940   21.0730  -33.1330 N   0  0  0  0  0  0  0  0  0  0  0  0
   -6.6520   19.7340  -33.2580 C   0  0  0  0  0  0  0  0  0  0  0  0
   -5.7320   19.2090  -34.1740 C   0  0  0  0  0  0  0  0  0  0  0  0
   -5.6020   17.8260  -34.3200 C   0  0  0  0  0  0  0  0  0  0  0  0
   -6.3930   16.9630  -33.5560 C   0  0  0  0  0  0  0  0  0  0  0  0
   -7.3140   17.4790  -32.6380 C   0  0  0  0  0  0  0  0  0  0  0  0
   -7.4490   18.8720  -32.4820 C   0  0  0  0  0  0  0  0  0  0  0  0
   -8.3540   19.4440  -31.5730 C   0  0  0  0  0  0  0  0  0  0  0  0
   -9.0930   18.6930  -30.8760 O   0  0  0  0  0  0  0  0  0  0  0  0
   -8.4400   20.8110  -31.4460 N   0  0  0  0  0  0  0  0  0  0  0  0
   -9.3810   21.3980  -30.4760 C   0  0  0  0  0  0  0  0  0  0  0  0
   -2.5130   21.4720  -30.9520 C   0  0  0  0  0  0  0  0  0  0  0  0
   -2.6000   21.4860  -29.5120 C   0  0  0  0  0  0  0  0  0  0  0  0
   -2.6720   21.4970  -28.3570 N   0  0  0  0  0  0  0  0  0  0  0  0
   -1.3440   21.1130  -31.6540 C   0  0  0  0  0  0  0  0  0  0  0  0
   -0.0310   20.8140  -30.9840 C   0  0  0  0  0  0  0  0  0  0  0  0
    0.4299   20.4486  -33.5754 H   0  0  0  0  0  0  0  0  0  0  0  0
   -0.8753   19.9432  -34.7013 H   0  0  0  0  0  0  0  0  0  0  0  0
   -0.2978   21.6442  -34.7013 H   0  0  0  0  0  0  0  0  0  0  0  0
   -5.6650   21.3290  -31.5480 H   0  0  0  0  0  0  0  0  0  0  0  0
   -7.1248   22.9910  -29.9807 H   0  0  0  0  0  0  0  0  0  0  0  0
   -6.8870   24.7180  -30.4593 H   0  0  0  0  0  0  0  0  0  0  0  0
   -5.1113   19.8863  -34.7790 H   0  0  0  0  0  0  0  0  0  0  0  0
   -4.8761   17.4153  -35.0372 H   0  0  0  0  0  0  0  0  0  0  0  0
   -6.2909   15.8745  -33.6770 H   0  0  0  0  0  0  0  0  0  0  0  0
   -7.9331   16.7961  -32.0377 H   0  0  0  0  0  0  0  0  0  0  0  0
   -9.0359   21.1827  -29.4540 H   0  0  0  0  0  0  0  0  0  0  0  0
   -9.4295   22.4868  -30.6249 H   0  0  0  0  0  0  0  0  0  0  0  0
  -10.3802   20.9627  -30.6249 H   0  0  0  0  0  0  0  0  0  0  0  0
   -0.1614   20.8437  -29.8922 H   0  0  0  0  0  0  0  0  0  0  0  0
    0.3149   19.8141  -31.2849 H   0  0  0  0  0  0  0  0  0  0  0  0
    0.7137   21.5655  -31.2849 H   0  0  0  0  0  0  0  0  0  0  0  0
  1  2  1  0
  2  3  1  0
  3  4  1  0
  4  5  1  0
  5  6  1  0
  6  7  2  0
  6  8  1  0
  8  9  1  0
  9 10  1  0
 10 11  2  0
 11 12  1  0
 12 13  2  0
 13 14  1  0
 14 15  2  0
 15 16  1  0
 16 17  2  0
 17 18  1  0
 18 19  2  0
 18 20  1  0
 20 21  1  0
  4 22  2  0
 22 23  1  0
 23 24  3  0
 22 25  1  0
 25 26  1  0
 25  2  2  0
 20 10  1  0
 17 12  1  0
  1 27  1  0
  1 28  1  0
  1 29  1  0
  5 30  1  0
  8 31  1  0
  8 32  1  0
 13 33  1  0
 14 34  1  0
 15 35  1  0
 16 36  1  0
 21 37  1  0
 21 38  1  0
 21 39  1  0
 26 40  1  0
 26 41  1  0
 26 42  1  0
M  END
>  <UniqueID>  (6) 
6

>  <SMILES>  (6) 
Cc1sc(NC(=O)CSc2nc3ccccc3c(=O)n2C)c(C#N)c1C

>  <Energy>  (6) 
74.3513524469306

>  <Genealogy>  (6) 
Cc1sc(NC(=O)CSc2nc3ccccc3c(=O)n2C)c(C#N)c1C (3D coordinates assigned)
Cc1sc(NC(=O)CSc2nc3ccccc3c(=O)n2C)c(C#N)c1C (optimized conformer: 74.3513524469306 kcal/mol)

>  <smiles>  (6) 
Cc1sc(NC(=O)CSc2nc3ccccc3c(=O)n2C)c(C#N)c1C

>  <score_type>  (6) 
oracle

>  <origin>  (6) 
adg

>  <m_score__min__energy>  (6) 
-8.7599999999999998

>  <m_primary>  (6) 
energy

$$$$
6:0
     RDKit          3D

 32 32  0  0  0  0  0  0  0  0999 V2000
   -3.4670   22.0100  -34.2120 H   0  0  0  0  0  0  0  0  0  0  0  0
   -3.5300   21.2130  -33.5400 N   0  0  0  0  0  0  0  0  0  0  0  0
   -4.5100   21.0900  -32.7000 C   0  0  0  0  0  0  0  0  0  0  0  0
   -5.4500   19.9490  -32.8330 C   0  0  0  0  0  0  0  0  0  0  0  0
   -6.5510   19.8270  -31.9670 C   0  0  0  0  0  0  0  0  0  0  0  0
   -6.7195   20.5751  -31.1784 H   0  0  0  0  0  0  0  0  0  0  0  0
   -7.4290   18.7520  -32.1130 C   0  0  0  0  0  0  0  0  0  0  0  0
   -8.2914   18.6499  -31.4379 H   0  0  0  0  0  0  0  0  0  0  0  0
   -7.2120   17.8080  -33.1150 C   0  0  0  0  0  0  0  0  0  0  0  0
   -7.8972   16.9559  -33.2350 H   0  0  0  0  0  0  0  0  0  0  0  0
   -6.1150   17.9570  -33.9640 C   0  0  0  0  0  0  0  0  0  0  0  0
   -5.9356   17.2195  -34.7601 H   0  0  0  0  0  0  0  0  0  0  0  0
   -5.2660   19.0090  -33.8130 N   0  0  0  0  0  0  0  0  0  0  0  0
   -4.4550   19.0800  -34.4670 H   0  0  0  0  0  0  0  0  0  0  0  0
   -4.6450   22.0190  -31.6100 N   0  0  0  0  0  0  0  0  0  0  0  0
   -4.9250   21.6470  -30.6750 H   0  0  0  0  0  0  0  0  0  0  0  0
   -4.2250   23.3350  -31.6780 O   0  0  0  0  0  0  0  0  0  0  0  0
   -4.6240   24.3130  -30.7610 C   0  0  0  0  0  0  0  0  0  0  0  0
   -3.8750   25.2940  -30.4970 O   0  0  0  0  0  0  0  0  0  0  0  0
   -5.9840   24.2280  -30.1400 C   0  0  0  0  0  0  0  0  0  0  0  0
   -5.9641   23.4735  -29.3398 H   0  0  0  0  0  0  0  0  0  0  0  0
   -6.2412   25.2199  -29.7399 H   0  0  0  0  0  0  0  0  0  0  0  0
   -7.0520   23.8350  -31.1670 C   0  0  0  0  0  0  0  0  0  0  0  0
   -7.7593   24.6699  -31.2790 H   0  0  0  0  0  0  0  0  0  0  0  0
   -6.5412   23.6115  -32.1152 H   0  0  0  0  0  0  0  0  0  0  0  0
   -7.8310   22.5810  -30.7460 C   0  0  0  0  0  0  0  0  0  0  0  0
   -7.1401   21.7260  -30.7052 H   0  0  0  0  0  0  0  0  0  0  0  0
   -8.2794   22.7642  -29.7584 H   0  0  0  0  0  0  0  0  0  0  0  0
   -8.9500   22.2700  -31.7350 C   0  0  0  0  0  0  0  0  0  0  0  0
   -9.8668   22.0152  -31.1831 H   0  0  0  0  0  0  0  0  0  0  0  0
   -9.1356   23.1506  -32.3675 H   0  0  0  0  0  0  0  0  0  0  0  0
   -8.6546   21.4199  -32.3675 H   0  0  0  0  0  0  0  0  0  0  0  0
  1  2  1  0
  2  3  2  0
  3  4  1  0
  4  5  2  0
  5  6  1  0
  5  7  1  0
  7  8  1  0
  7  9  2  0
  9 10  1  0
  9 11  1  0
 11 12  1  0
 11 13  2  0
 13 14  1  0
  3 15  1  0
 15 16  1  0
 15 17  1  0
 17 18  1  0
 18 19  2  0
 18 20  1  0
 20 21  1  0
 20 22  1  0
 20 23  1  0
 23 24  1  0
 23 25  1  0
 23 26  1  0
 26 27  1  0
 26 28  1  0
 26 29  1  0
 29 30  1  0
 29 31  1  0
 29 32  1  0
 13  4  1  0
M  CHG  1  13   1
M  END
>  <UniqueID>  (7) 
7

>  <SMILES>  (7) 
[H]/N=C(\NOC(=O)CCCC)c1cccc[nH+]1

>  <Energy>  (7) 
29.19025483837851

>  <Genealogy>  (7) 
CCCCC(=O)ONC(=N)c1cccc[nH+]1 (protonated)
[H]/N=C(\NOC(=O)CCCC)c1cccc[nH+]1 (cis-trans isomerization)
[H]/N=C(\NOC(=O)CCCC)c1cccc[nH+]1 (3D coordinates assigned)
[H]/N=C(\NOC(=O)CCCC)c1cccc[nH+]1 (optimized conformer: 29.19025483837851 kcal/mol)

>  <smiles>  (7) 
CCCCC(=O)ONC(=N)c1ccccn1

>  <score_type>  (7) 
oracle

>  <origin>  (7) 
adg

>  <m_score__min__energy>  (7) 
-5.6799999999999997

>  <m_primary>  (7) 
energy

$$$$
7:0
     RDKit          3D

 48 50  0  0  0  0  0  0  0  0999 V2000
   -9.3370   21.5670  -31.2970 C   0  0  0  0  0  0  0  0  0  0  0  0
   -8.4320   22.7300  -31.6840 C   0  0  0  0  0  0  0  0  0  0  0  0
   -7.2180   22.2320  -32.3700 N   0  0  0  0  0  0  0  0  0  0  0  0
   -6.8410   20.8690  -31.9380 C   0  0  0  0  0  0  0  0  0  0  0  0
   -6.9500   19.8910  -33.1050 C   0  0  0  0  0  0  0  0  0  0  0  0
   -6.0850   23.1890  -32.3240 C   0  0  0  0  0  0  0  0  0  0  0  0
   -4.7190   22.5260  -32.2970 C   0  0  0  0  0  0  0  0  0  0  0  0
   -4.2270   21.8310  -33.3570 N   0  0  0  0  0  0  0  0  0  0  0  0
   -3.0240   21.4130  -32.9430 C   0  0  0  0  0  0  0  0  0  0  0  0
   -2.1320   20.6770  -33.6500 N   0  0  0  0  0  0  0  0  0  0  0  0
   -0.9390   20.3520  -33.0660 C   0  0  0  0  0  0  0  0  0  0  0  0
   -0.6440   20.7780  -31.7490 C   0  0  0  0  0  0  0  0  0  0  0  0
   -1.5810   21.5460  -31.0360 C   0  0  0  0  0  0  0  0  0  0  0  0
   -2.7820   21.8470  -31.6790 C   0  0  0  0  0  0  0  0  0  0  0  0
   -3.8380   22.5660  -31.2470 N   0  0  0  0  0  0  0  0  0  0  0  0
   -3.9480   23.2560  -29.9540 C   0  0  0  0  0  0  0  0  0  0  0  0
   -3.5860   24.7130  -30.0740 C   0  0  0  0  0  0  0  0  0  0  0  0
   -4.2470   25.4550  -30.8480 O   0  0  0  0  0  0  0  0  0  0  0  0
   -2.4960   25.2890  -29.3380 N   0  0  0  0  0  0  0  0  0  0  0  0
   -1.6090   24.6150  -28.4320 C   0  0  0  0  0  0  0  0  0  0  0  0
   -0.3730   24.1000  -28.8640 C   0  0  0  0  0  0  0  0  0  0  0  0
    0.4660   23.4290  -27.9700 C   0  0  0  0  0  0  0  0  0  0  0  0
    0.0710   23.2460  -26.6430 C   0  0  0  0  0  0  0  0  0  0  0  0
   -1.1720   23.7160  -26.2140 C   0  0  0  0  0  0  0  0  0  0  0  0
   -2.0180   24.3880  -27.1040 C   0  0  0  0  0  0  0  0  0  0  0  0
   -3.5880   24.9340  -26.5370 Cl  0  0  0  0  0  0  0  0  0  0  0  0
   -9.3930   21.4950  -30.2008 H   0  0  0  0  0  0  0  0  0  0  0  0
  -10.3445   21.7347  -31.7054 H   0  0  0  0  0  0  0  0  0  0  0  0
   -8.9269   20.6316  -31.7054 H   0  0  0  0  0  0  0  0  0  0  0  0
   -8.9783   23.4057  -32.3586 H   0  0  0  0  0  0  0  0  0  0  0  0
   -8.1320   23.2679  -30.7726 H   0  0  0  0  0  0  0  0  0  0  0  0
   -5.8046   20.8794  -31.5695 H   0  0  0  0  0  0  0  0  0  0  0  0
   -7.5237   20.5469  -31.1379 H   0  0  0  0  0  0  0  0  0  0  0  0
   -7.0640   18.8681  -32.7168 H   0  0  0  0  0  0  0  0  0  0  0  0
   -7.8249   20.1496  -33.7196 H   0  0  0  0  0  0  0  0  0  0  0  0
   -6.0397   19.9506  -33.7196 H   0  0  0  0  0  0  0  0  0  0  0  0
   -6.1396   23.8331  -33.2140 H   0  0  0  0  0  0  0  0  0  0  0  0
   -6.1834   23.7548  -31.3858 H   0  0  0  0  0  0  0  0  0  0  0  0
   -4.6600   21.6710  -34.2920 H   0  0  0  0  0  0  0  0  0  0  0  0
   -0.2029   19.7548  -33.6242 H   0  0  0  0  0  0  0  0  0  0  0  0
    0.3161   20.5088  -31.2845 H   0  0  0  0  0  0  0  0  0  0  0  0
   -1.3757   21.8952  -30.0133 H   0  0  0  0  0  0  0  0  0  0  0  0
   -4.9833   23.1735  -29.5916 H   0  0  0  0  0  0  0  0  0  0  0  0
   -3.2480   22.7831  -29.2495 H   0  0  0  0  0  0  0  0  0  0  0  0
   -0.0649   24.2263  -29.9124 H   0  0  0  0  0  0  0  0  0  0  0  0
    1.4383   23.0447  -28.3119 H   0  0  0  0  0  0  0  0  0  0  0  0
    0.7387   22.7319  -25.9360 H   0  0  0  0  0  0  0  0  0  0  0  0
   -1.4877   23.5575  -25.1723 H   0  0  0  0  0  0  0  0  0  0  0  0
  1  2  1  0
  2  3  1  0
  3  4  1  0
  4  5  1  0
  3  6  1  0
  6  7  1  0
  7  8  2  0
  8  9  1  0
  9 10  2  0
 10 11  1  0
 11 12  2  0
 12 13  1  0
 13 14  2  0
 14 15  1  0
 15 16  1  0
 16 17  1  0
 17 18  2  0
 17 19  1  0
 19 20  1  0
 20 21  2  0
 21 22  1  0
 22 23  2  0
 23 24  1  0
 24 25  2  0
 25 26  1  0
 15  7  1  0
 25 20  1  0
 14  9  1  0
  1 27  1  0
  1 28  1  0
  1 29  1  0
  2 30  1  0
  2 31  1  0
  4 32  1  0
  4 33  1  0
  5 34  1  0
  5 35  1  0
  5 36  1  0
  6 37  1  0
  6 38  1  0
  8 39  1  0
 11 40  1  0
 12 41  1  0
 13 42  1  0
 16 43  1  0
 16 44  1  0
 21 45  1  0
 22 46  1  0
 23 47  1  0
 24 48  1  0
M  CHG  2   8   1  19  -1
M  END
>  <UniqueID>  (8) 
8

>  <SMILES>  (8) 
CCN(CC)Cc1[nH+]c2ncccc2n1CC(=O)[N-]c1ccccc1Cl

>  <Energy>  (8) 
95.7797649420483

>  <Genealogy>  (8) 
CCN(CC)Cc1[nH+]c2ncccc2n1CC(=O)[N-]c1ccccc1Cl (protonated)
CCN(CC)Cc1[nH+]c2ncccc2n1CC(=O)[N-]c1ccccc1Cl (3D coordinates assigned)
CCN(CC)Cc1[nH+]c2ncccc2n1CC(=O)[N-]c1ccccc1Cl (optimized conformer: 95.7797649420483 kcal/mol)

>  <smiles>  (8) 
CCN(CC)Cc1nc2ncccc2n1CC(=O)Nc1ccccc1Cl

>  <score_type>  (8) 
oracle

>  <origin>  (8) 
adg

>  <m_score__min__energy>  (8) 
-9.4499999999999993

>  <m_primary>  (8) 
energy

$$$$
8:0
     RDKit          3D

 29 30  0  0  0  0  0  0  0  0999 V2000
   -6.0010   18.0920  -34.5490 C   0  0  0  0  0  0  0  0  0  0  0  0
   -6.2290   19.3590  -33.7930 C   0  0  0  0  0  0  0  0  0  0  0  0
   -5.2460   20.1790  -33.2640 C   0  0  0  0  0  0  0  0  0  0  0  0
   -5.8690   21.1550  -32.5750 N   0  0  0  0  0  0  0  0  0  0  0  0
   -7.1850   20.9160  -32.6880 C   0  0  0  0  0  0  0  0  0  0  0  0
   -7.4430   19.8110  -33.4130 N   0  0  0  0  0  0  0  0  0  0  0  0
   -8.2050   21.7320  -31.9530 C   0  0  0  0  0  0  0  0  0  0  0  0
   -7.6630   23.1550  -31.7140 C   0  0  0  0  0  0  0  0  0  0  0  0
   -6.2890   23.1300  -31.1770 N   0  0  0  0  0  0  0  0  0  0  0  0
   -5.9090   24.0600  -30.1060 C   0  0  0  0  0  0  0  0  0  0  0  0
   -5.3270   25.3480  -30.7010 C   0  0  0  0  0  0  0  0  0  0  0  0
   -3.8670   25.3490  -30.6470 N   0  0  0  0  0  0  0  0  0  0  0  0
   -5.3420   22.2310  -31.7950 C   0  0  0  0  0  0  0  0  0  0  0  0
   -3.7170   22.4050  -31.6000 S   0  0  0  0  0  0  0  0  0  0  0  0
   -5.8520   17.2640  -33.8404 H   0  0  0  0  0  0  0  0  0  0  0  0
   -6.8755   17.8802  -35.1818 H   0  0  0  0  0  0  0  0  0  0  0  0
   -5.1076   18.1983  -35.1818 H   0  0  0  0  0  0  0  0  0  0  0  0
   -4.1595   20.0563  -33.3840 H   0  0  0  0  0  0  0  0  0  0  0  0
   -8.3750   19.3810  -33.6100 H   0  0  0  0  0  0  0  0  0  0  0  0
   -9.1269   21.7881  -32.5504 H   0  0  0  0  0  0  0  0  0  0  0  0
   -8.4191   21.2578  -30.9838 H   0  0  0  0  0  0  0  0  0  0  0  0
   -7.6633   23.7020  -32.6683 H   0  0  0  0  0  0  0  0  0  0  0  0
   -8.3115   23.6507  -30.9767 H   0  0  0  0  0  0  0  0  0  0  0  0
   -6.7981   24.3064  -29.5070 H   0  0  0  0  0  0  0  0  0  0  0  0
   -5.1475   23.5830  -29.4715 H   0  0  0  0  0  0  0  0  0  0  0  0
   -5.6462   25.4335  -31.7502 H   0  0  0  0  0  0  0  0  0  0  0  0
   -5.6955   26.1993  -30.1098 H   0  0  0  0  0  0  0  0  0  0  0  0
   -3.5560   26.0410  -29.9260 H   0  0  0  0  0  0  0  0  0  0  0  0
   -3.4940   25.6630  -31.5720 H   0  0  0  0  0  0  0  0  0  0  0  0
  1  2  1  0
  2  3  2  0
  3  4  1  0
  4  5  1  0
  5  6  2  0
  5  7  1  0
  7  8  1  0
  8  9  1  0
  9 10  1  0
 10 11  1  0
 11 12  1  0
  9 13  1  0
 13 14  2  0
  6  2  1  0
 13  4  1  0
  1 15  1  0
  1 16  1  0
  1 17  1  0
  3 18  1  0
  6 19  1  0
  7 20  1  0
  7 21  1  0
  8 22  1  0
  8 23  1  0
 10 24  1  0
 10 25  1  0
 11 26  1  0
 11 27  1  0
 12 28  1  0
 12 29  1  0
M  CHG  1   6   1
M  END
>  <UniqueID>  (9) 
9

>  <SMILES>  (9) 
Cc1cn2c([nH+]1)CCN(CCN)C2=S

>  <Energy>  (9) 
57.035416243130065

>  <Genealogy>  (9) 
Cc1cn2c([nH+]1)CCN(CCN)C2=S (protonated)
Cc1cn2c([nH+]1)CCN(CCN)C2=S (3D coordinates assigned)
Cc1cn2c([nH+]1)CCN(CCN)C2=S (nonaromatic ring conformer: 57.035416243130065 kcal/mol)

>  <smiles>  (9) 
Cc1cn2c(n1)CCN(CCN)C2=S

>  <score_type>  (9) 
oracle

>  <origin>  (9) 
adg

>  <m_score__min__energy>  (9) 
-6.8200000000000003

>  <m_primary>  (9) 
energy

$$$$
9:0
     RDKit          3D

 35 36  0  0  0  0  0  0  0  0999 V2000
   -3.2450   24.1760  -29.9090 C   0  0  0  0  0  0  0  0  0  0  0  0
   -4.2600   24.5600  -30.8310 O   0  0  0  0  0  0  0  0  0  0  0  0
   -5.4770   23.8830  -30.9950 C   0  0  0  0  0  0  0  0  0  0  0  0
   -6.0880   23.3290  -29.8650 C   0  0  0  0  0  0  0  0  0  0  0  0
   -7.3030   22.6450  -29.9760 C   0  0  0  0  0  0  0  0  0  0  0  0
   -7.9250   22.5030  -31.2310 C   0  0  0  0  0  0  0  0  0  0  0  0
   -9.1440   21.8240  -31.4000 O   0  0  0  0  0  0  0  0  0  0  0  0
   -9.3760   20.7770  -32.3430 C   0  0  0  0  0  0  0  0  0  0  0  0
   -8.7120   19.4990  -31.9100 C   0  0  0  0  0  0  0  0  0  0  0  0
   -9.1110   18.9280  -30.8580 O   0  0  0  0  0  0  0  0  0  0  0  0
   -7.6190   18.9310  -32.6620 N   0  0  0  0  0  0  0  0  0  0  0  0
   -6.6200   19.7980  -33.3000 C   0  0  0  0  0  0  0  0  0  0  0  0
   -5.9710   19.0660  -34.4780 C   0  0  0  0  0  0  0  0  0  0  0  0
   -5.4800   17.8010  -34.0760 O   0  0  0  0  0  0  0  0  0  0  0  0
   -6.5610   16.9720  -33.6970 C   0  0  0  0  0  0  0  0  0  0  0  0
   -7.2610   17.5240  -32.4520 C   0  0  0  0  0  0  0  0  0  0  0  0
   -7.3140   23.0580  -32.3600 C   0  0  0  0  0  0  0  0  0  0  0  0
   -6.1010   23.7440  -32.2490 C   0  0  0  0  0  0  0  0  0  0  0  0
   -3.6117   24.3147  -28.8812 H   0  0  0  0  0  0  0  0  0  0  0  0
   -2.9874   23.1183  -30.0668 H   0  0  0  0  0  0  0  0  0  0  0  0
   -2.3518   24.7984  -30.0668 H   0  0  0  0  0  0  0  0  0  0  0  0
   -5.6086   23.4322  -28.8804 H   0  0  0  0  0  0  0  0  0  0  0  0
   -7.7743   22.2164  -29.0793 H   0  0  0  0  0  0  0  0  0  0  0  0
  -10.4592   20.6068  -32.4310 H   0  0  0  0  0  0  0  0  0  0  0  0
   -8.9513   21.0797  -33.3115 H   0  0  0  0  0  0  0  0  0  0  0  0
   -7.1104   20.7127  -33.6644 H   0  0  0  0  0  0  0  0  0  0  0  0
   -5.8448   20.0595  -32.5646 H   0  0  0  0  0  0  0  0  0  0  0  0
   -6.7193   18.9264  -35.2721 H   0  0  0  0  0  0  0  0  0  0  0  0
   -5.1286   19.6697  -34.8468 H   0  0  0  0  0  0  0  0  0  0  0  0
   -7.2840   16.9218  -34.5245 H   0  0  0  0  0  0  0  0  0  0  0  0
   -6.1717   15.9694  -33.4664 H   0  0  0  0  0  0  0  0  0  0  0  0
   -8.1732   16.9408  -32.2579 H   0  0  0  0  0  0  0  0  0  0  0  0
   -6.5806   17.4484  -31.5910 H   0  0  0  0  0  0  0  0  0  0  0  0
   -7.7926   22.9537  -33.3449 H   0  0  0  0  0  0  0  0  0  0  0  0
   -5.6324   24.1768  -33.1451 H   0  0  0  0  0  0  0  0  0  0  0  0
  1  2  1  0
  2  3  1  0
  3  4  2  0
  4  5  1  0
  5  6  2  0
  6  7  1  0
  7  8  1  0
  8  9  1  0
  9 10  2  0
  9 11  1  0
 11 12  1  0
 12 13  1  0
 13 14  1  0
 14 15  1  0
 15 16  1  0
  6 17  1  0
 17 18  2  0
 18  3  1  0
 16 11  1  0
  1 19  1  0
  1 20  1  0
  1 21  1  0
  4 22  1  0
  5 23  1  0
  8 24  1  0
  8 25  1  0
 12 26  1  0
 12 27  1  0
 13 28  1  0
 13 29  1  0
 15 30  1  0
 15 31  1  0
 16 32  1  0
 16 33  1  0
 17 34  1  0
 18 35  1  0
M  END
>  <UniqueID>  (10) 
10

>  <SMILES>  (10) 
COc1ccc(OCC(=O)N2CCOCC2)cc1

>  <Energy>  (10) 
35.77079670723036

>  <Genealogy>  (10) 
COc1ccc(OCC(=O)N2CCOCC2)cc1 (3D coordinates assigned)
COc1ccc(OCC(=O)N2CCOCC2)cc1 (nonaromatic ring conformer: 35.77079670723036 kcal/mol)

>  <smiles>  (10) 
COc1ccc(OCC(=O)N2CCOCC2)cc1

>  <score_type>  (10) 
oracle

>  <origin>  (10) 
adg

>  <m_score__min__energy>  (10) 
-6.3200000000000003

>  <m_primary>  (10) 
energy

$$$$
10:0
     RDKit          3D

 49 51  0  0  0  0  0  0  0  0999 V2000
   -9.5430   20.4850  -32.6350 O   0  0  0  0  0  0  0  0  0  0  0  0
   -8.2870   20.3750  -32.5660 C   0  0  0  0  0  0  0  0  0  0  0  0
   -7.5350   21.4650  -31.8860 C   0  0  0  0  0  0  0  0  0  0  0  0
   -7.8650   21.9120  -30.5940 C   0  0  0  0  0  0  0  0  0  0  0  0
   -7.1240   22.9300  -29.9850 C   0  0  0  0  0  0  0  0  0  0  0  0
   -6.0330   23.5020  -30.6470 C   0  0  0  0  0  0  0  0  0  0  0  0
   -5.1270   24.8060  -29.8850 S   0  0  0  0  0  0  0  0  0  0  0  0
   -4.5670   25.6950  -30.9610 O   0  0  0  0  0  0  0  0  0  0  0  0
   -6.0530   25.6240  -29.0300 O   0  0  0  0  0  0  0  0  0  0  0  0
   -3.8180   24.1350  -28.9410 N   0  0  0  0  0  0  0  0  0  0  0  0
   -4.0140   24.1450  -27.4820 C   0  0  0  0  0  0  0  0  0  0  0  0
   -3.0160   25.0180  -26.7120 C   0  0  0  0  0  0  0  0  0  0  0  0
   -1.7540   24.2620  -26.2820 C   0  0  0  0  0  0  0  0  0  0  0  0
   -0.7500   24.1050  -27.4310 C   0  0  0  0  0  0  0  0  0  0  0  0
   -1.3280   23.6150  -28.7750 C   0  0  0  0  0  0  0  0  0  0  0  0
   -2.4560   24.4510  -29.4100 C   0  0  0  0  0  0  0  0  0  0  0  0
   -5.6890   23.0530  -31.9280 C   0  0  0  0  0  0  0  0  0  0  0  0
   -6.4300   22.0370  -32.5380 C   0  0  0  0  0  0  0  0  0  0  0  0
   -7.6650   19.1910  -33.1310 N   0  0  0  0  0  0  0  0  0  0  0  0
   -6.5340   19.5460  -34.0180 C   0  0  0  0  0  0  0  0  0  0  0  0
   -5.6150   18.3370  -34.2700 C   0  0  0  0  0  0  0  0  0  0  0  0
   -6.3440   17.1330  -34.1550 O   0  0  0  0  0  0  0  0  0  0  0  0
   -6.7240   16.9160  -32.8050 C   0  0  0  0  0  0  0  0  0  0  0  0
   -7.2800   18.1860  -32.1180 C   0  0  0  0  0  0  0  0  0  0  0  0
   -8.7118   21.4578  -30.0587 H   0  0  0  0  0  0  0  0  0  0  0  0
   -7.4007   23.2824  -28.9804 H   0  0  0  0  0  0  0  0  0  0  0  0
   -5.0279   24.5175  -27.2742 H   0  0  0  0  0  0  0  0  0  0  0  0
   -3.8561   23.1121  -27.1382 H   0  0  0  0  0  0  0  0  0  0  0  0
   -2.7172   25.8578  -27.3565 H   0  0  0  0  0  0  0  0  0  0  0  0
   -3.5203   25.3576  -25.7953 H   0  0  0  0  0  0  0  0  0  0  0  0
   -1.2712   24.8161  -25.4635 H   0  0  0  0  0  0  0  0  0  0  0  0
   -2.0580   23.2549  -25.9605 H   0  0  0  0  0  0  0  0  0  0  0  0
   -0.2812   25.0850  -27.6040 H   0  0  0  0  0  0  0  0  0  0  0  0
   -0.0501   23.3208  -27.1068 H   0  0  0  0  0  0  0  0  0  0  0  0
   -0.4987   23.5780  -29.4967 H   0  0  0  0  0  0  0  0  0  0  0  0
   -1.7932   22.6454  -28.5438 H   0  0  0  0  0  0  0  0  0  0  0  0
   -2.2585   25.5105  -29.1897 H   0  0  0  0  0  0  0  0  0  0  0  0
   -2.4422   24.2128  -30.4838 H   0  0  0  0  0  0  0  0  0  0  0  0
   -4.8338   23.5009  -32.4553 H   0  0  0  0  0  0  0  0  0  0  0  0
   -6.1449   21.6815  -33.5392 H   0  0  0  0  0  0  0  0  0  0  0  0
   -8.3940   18.7330  -33.7300 H   0  0  0  0  0  0  0  0  0  0  0  0
   -6.9318   19.8996  -34.9807 H   0  0  0  0  0  0  0  0  0  0  0  0
   -5.9430   20.3328  -33.5264 H   0  0  0  0  0  0  0  0  0  0  0  0
   -5.1908   18.4088  -35.2824 H   0  0  0  0  0  0  0  0  0  0  0  0
   -4.8087   18.3392  -33.5217 H   0  0  0  0  0  0  0  0  0  0  0  0
   -7.5002   16.1369  -32.7809 H   0  0  0  0  0  0  0  0  0  0  0  0
   -5.8203   16.6151  -32.2548 H   0  0  0  0  0  0  0  0  0  0  0  0
   -8.1630   17.9176  -31.5194 H   0  0  0  0  0  0  0  0  0  0  0  0
   -6.5003   18.6123  -31.4697 H   0  0  0  0  0  0  0  0  0  0  0  0
  1  2  2  0
  2  3  1  0
  3  4  2  0
  4  5  1  0
  5  6  2  0
  6  7  1  0
  7  8  2  0
  7  9  2  0
  7 10  1  0
 10 11  1  0
 11 12  1  0
 12 13  1  0
 13 14  1  0
 14 15  1  0
 15 16  1  0
  6 17  1  0
 17 18  2  0
  2 19  1  0
 19 20  1  0
 20 21  1  0
 21 22  1  0
 22 23  1  0
 23 24  1  0
 18  3  1  0
 24 19  1  0
 16 10  1  0
  4 25  1  0
  5 26  1  0
 11 27  1  0
 11 28  1  0
 12 29  1  0
 12 30  1  0
 13 31  1  0
 13 32  1  0
 14 33  1  0
 14 34  1  0
 15 35  1  0
 15 36  1  0
 16 37  1  0
 16 38  1  0
 17 39  1  0
 18 40  1  0
 19 41  1  0
 20 42  1  0
 20 43  1  0
 21 44  1  0
 21 45  1  0
 23 46  1  0
 23 47  1  0
 24 48  1  0
 24 49  1  0
M  CHG  1  19   1
M  END
>  <UniqueID>  (11) 
11

>  <SMILES>  (11) 
O=C(c1ccc(S(=O)(=O)N2CCCCCC2)cc1)[NH+]1CCOCC1

>  <Energy>  (11) 
78.0908897474997

>  <Genealogy>  (11) 
O=C(c1ccc(S(=O)(=O)N2CCCCCC2)cc1)[NH+]1CCOCC1 (protonated)
O=C(c1ccc(S(=O)(=O)N2CCCCCC2)cc1)[NH+]1CCOCC1 (3D coordinates assigned)
O=C(c1ccc(S(=O)(=O)N2CCCCCC2)cc1)[NH+]1CCOCC1 (nonaromatic ring conformer: 78.0908897474997 kcal/mol)

>  <smiles>  (11) 
O=C(c1ccc(S(=O)(=O)N2CCCCCC2)cc1)N1CCOCC1

>  <score_type>  (11) 
oracle

>  <origin>  (11) 
adg

>  <m_score__min__energy>  (11) 
-7.1900000000000004

>  <m_primary>  (11) 
energy

$$$$
11:0
     RDKit          3D

 34 35  0  0  1  0  0  0  0  0999 V2000
   -1.3700   26.4760  -24.8680 C   0  0  0  0  0  0  0  0  0  0  0  0
   -1.6230   25.9790  -25.9370 C   0  0  0  0  0  0  0  0  0  0  0  0
   -1.9460   25.3830  -27.2000 C   0  0  0  0  0  0  0  0  0  0  0  0
   -1.5950   25.3540  -28.3090 N   0  0  0  0  0  0  0  0  0  0  0  0
   -2.0560   24.7200  -29.3260 N   0  0  0  0  0  0  0  0  0  0  0  0
   -3.1200   23.9550  -29.1050 C   0  0  0  0  0  0  0  0  0  0  0  0
   -3.7950   23.2280  -29.8500 N   0  0  0  0  0  0  0  0  0  0  0  0
   -4.5530   23.7670  -30.9510 C   0  0  0  0  0  0  0  0  0  0  0  0
   -4.7030   25.0140  -31.0480 O   0  0  0  0  0  0  0  0  0  0  0  0
   -5.1100   22.7890  -31.9040 C   0  0  0  0  0  0  0  0  0  0  0  0
   -6.3080   22.1560  -31.4870 N   0  0  0  0  0  0  0  0  0  0  0  0
   -6.4560   20.9800  -32.3550 C   0  0  0  0  0  0  0  0  0  0  0  0
   -6.9240   19.7600  -31.6520 C   0  0  0  0  0  0  0  0  0  0  0  0
   -8.4470   19.7850  -31.6210 C   0  0  0  0  0  0  0  0  0  0  0  0
   -8.9820   21.0260  -32.2990 C   0  0  0  0  0  0  0  0  0  0  0  0
   -8.7250   22.1660  -31.3370 C   0  0  0  0  0  0  0  0  0  0  0  0
   -7.4940   22.9650  -31.6640 C   0  0  0  0  0  0  0  0  0  0  0  0
   -3.4330   24.2020  -27.3010 S   0  0  0  0  0  0  0  0  0  0  0  0
   -1.1392   26.9294  -23.8927 H   0  0  0  0  0  0  0  0  0  0  0  0
   -1.6220   24.7920  -30.3000 H   0  0  0  0  0  0  0  0  0  0  0  0
   -5.3131   23.3128  -32.8497 H   0  0  0  0  0  0  0  0  0  0  0  0
   -4.3589   21.9908  -31.9968 H   0  0  0  0  0  0  0  0  0  0  0  0
   -7.1823   21.2232  -33.1445 H   0  0  0  0  0  0  0  0  0  0  0  0
   -5.4556   20.7521  -32.7516 H   0  0  0  0  0  0  0  0  0  0  0  0
   -6.5769   18.8646  -32.1884 H   0  0  0  0  0  0  0  0  0  0  0  0
   -6.5229   19.7332  -30.6281 H   0  0  0  0  0  0  0  0  0  0  0  0
   -8.8321   18.8960  -32.1419 H   0  0  0  0  0  0  0  0  0  0  0  0
   -8.7763   19.7892  -30.5715 H   0  0  0  0  0  0  0  0  0  0  0  0
   -8.4554   21.2005  -33.2489 H   0  0  0  0  0  0  0  0  0  0  0  0
  -10.0521   20.9288  -32.5344 H   0  0  0  0  0  0  0  0  0  0  0  0
   -9.5933   22.8410  -31.3581 H   0  0  0  0  0  0  0  0  0  0  0  0
   -8.5652   21.7199  -30.3443 H   0  0  0  0  0  0  0  0  0  0  0  0
   -7.5489   23.3046  -32.7088 H   0  0  0  0  0  0  0  0  0  0  0  0
   -7.4400   23.8313  -30.9882 H   0  0  0  0  0  0  0  0  0  0  0  0
  1  2  3  0
  2  3  1  0
  3  4  2  0
  4  5  1  0
  5  6  1  0
  6  7  2  0
  7  8  1  0
  8  9  2  0
  8 10  1  0
 10 11  1  0
 11 12  1  0
 12 13  1  0
 13 14  1  0
 14 15  1  0
 15 16  1  0
 16 17  1  0
  6 18  1  0
 18  3  1  0
 17 11  1  0
  1 19  1  0
  5 20  1  0
 10 21  1  0
 10 22  1  0
 12 23  1  0
 12 24  1  0
 13 25  1  0
 13 26  1  0
 14 27  1  0
 14 28  1  0
 15 29  1  0
 15 30  1  0
 16 31  1  0
 16 32  1  0
 17 33  1  0
 17 34  1  0
M  END
>  <smiles>  (12) 
C#Cc1n[nH]c(=NC(=O)CN2CCCCCC2)s1

>  <score_type>  (12) 
oracle

>  <origin>  (12) 
adg

>  <m_score__min__energy>  (12) 
-5.3899999999999997

>  <m_primary>  (12) 
energy

$$$$
12:0
     RDKit          3D

 46 47  0  0  0  0  0  0  0  0999 V2000
   -7.1550   18.3410  -32.7000 C   0  0  0  0  0  0  0  0  0  0  0  0
   -6.1590   19.2310  -33.4430 C   0  0  0  0  0  0  0  0  0  0  0  0
   -4.7000   18.8310  -33.1770 C   0  0  0  0  0  0  0  0  0  0  0  0
   -3.6020   20.2410  -32.9910 S   0  0  0  0  0  0  0  0  0  0  0  0
   -4.1350   21.4470  -33.7190 O   0  0  0  0  0  0  0  0  0  0  0  0
   -2.2740   19.8660  -33.5880 O   0  0  0  0  0  0  0  0  0  0  0  0
   -3.3900   20.6200  -31.2970 N   0  0  1  0  0  0  0  0  0  0  0  0
   -1.9880   21.0480  -31.0220 C   0  0  0  0  0  0  0  0  0  0  0  0
   -1.8510   22.5660  -30.8530 C   0  0  0  0  0  0  0  0  0  0  0  0
   -2.7020   23.0450  -29.6570 C   0  0  1  0  0  0  0  0  0  0  0  0
   -2.9180   24.5340  -29.7140 C   0  0  0  0  0  0  0  0  0  0  0  0
   -2.2930   25.2970  -28.9280 O   0  0  0  0  0  0  0  0  0  0  0  0
   -3.8150   25.0770  -30.6900 N   0  0  0  0  0  0  0  0  0  0  0  0
   -5.1910   25.4590  -30.3950 C   0  0  0  0  0  0  0  0  0  0  0  0
   -6.1220   24.3330  -30.7520 C   0  0  0  0  0  0  0  0  0  0  0  0
   -6.3240   23.9690  -32.0940 C   0  0  0  0  0  0  0  0  0  0  0  0
   -7.2150   22.9410  -32.4170 C   0  0  0  0  0  0  0  0  0  0  0  0
   -7.9170   22.2780  -31.4040 C   0  0  0  0  0  0  0  0  0  0  0  0
   -9.0410   20.9960  -31.8120 Cl  0  0  0  0  0  0  0  0  0  0  0  0
   -7.7300   22.6440  -30.0670 C   0  0  0  0  0  0  0  0  0  0  0  0
   -6.8380   23.6700  -29.7410 C   0  0  0  0  0  0  0  0  0  0  0  0
   -4.0460   22.2800  -29.5480 C   0  0  0  0  0  0  0  0  0  0  0  0
   -4.4220   21.5970  -30.8690 C   0  0  0  0  0  0  0  0  0  0  0  0
   -7.0180   18.4634  -31.6155 H   0  0  0  0  0  0  0  0  0  0  0  0
   -8.1803   18.6293  -32.9749 H   0  0  0  0  0  0  0  0  0  0  0  0
   -6.9835   17.2898  -32.9749 H   0  0  0  0  0  0  0  0  0  0  0  0
   -6.3545   19.1541  -34.5227 H   0  0  0  0  0  0  0  0  0  0  0  0
   -6.2948   20.2603  -33.0795 H   0  0  0  0  0  0  0  0  0  0  0  0
   -4.6637   18.2354  -32.2529 H   0  0  0  0  0  0  0  0  0  0  0  0
   -4.3532   18.2598  -34.0507 H   0  0  0  0  0  0  0  0  0  0  0  0
   -3.5590   19.7270  -30.7730 H   0  0  0  0  0  0  0  0  0  0  0  0
   -1.3525   20.7293  -31.8613 H   0  0  0  0  0  0  0  0  0  0  0  0
   -1.6794   20.5807  -30.0752 H   0  0  0  0  0  0  0  0  0  0  0  0
   -2.1966   23.0669  -31.7694 H   0  0  0  0  0  0  0  0  0  0  0  0
   -0.7957   22.8140  -30.6666 H   0  0  0  0  0  0  0  0  0  0  0  0
   -2.1358   22.8166  -28.7420 H   0  0  0  0  0  0  0  0  0  0  0  0
   -5.2852   25.6841  -29.3224 H   0  0  0  0  0  0  0  0  0  0  0  0
   -5.4548   26.3485  -30.9859 H   0  0  0  0  0  0  0  0  0  0  0  0
   -5.7797   24.4942  -32.8927 H   0  0  0  0  0  0  0  0  0  0  0  0
   -7.3643   22.6532  -33.4681 H   0  0  0  0  0  0  0  0  0  0  0  0
   -8.2849   22.1245  -29.2719 H   0  0  0  0  0  0  0  0  0  0  0  0
   -6.6962   23.9593  -28.6892 H   0  0  0  0  0  0  0  0  0  0  0  0
   -4.8397   22.9917  -29.2767 H   0  0  0  0  0  0  0  0  0  0  0  0
   -3.9342   21.5005  -28.7800 H   0  0  0  0  0  0  0  0  0  0  0  0
   -4.5304   22.3652  -31.6489 H   0  0  0  0  0  0  0  0  0  0  0  0
   -5.3658   21.0530  -30.7164 H   0  0  0  0  0  0  0  0  0  0  0  0
  1  2  1  0
  2  3  1  0
  3  4  1  0
  4  5  2  0
  4  6  2  0
  4  7  1  0
  7  8  1  0
  8  9  1  0
  9 10  1  0
 10 11  1  0
 11 12  2  0
 11 13  1  0
 13 14  1  0
 14 15  1  0
 15 16  2  0
 16 17  1  0
 17 18  2  0
 18 19  1  0
 18 20  1  0
 20 21  2  0
 10 22  1  0
 22 23  1  0
 23  7  1  0
 21 15  1  0
  1 24  1  0
  1 25  1  0
  1 26  1  0
  2 27  1  0
  2 28  1  0
  3 29  1  0
  3 30  1  0
  7 31  1  1
  8 32  1  0
  8 33  1  0
  9 34  1  0
  9 35  1  0
 10 36  1  1
 14 37  1  0
 14 38  1  0
 16 39  1  0
 17 40  1  0
 20 41  1  0
 21 42  1  0
 22 43  1  0
 22 44  1  0
 23 45  1  0
 23 46  1  0
M  CHG  2   7   1  13  -1
M  END
>  <UniqueID>  (13) 
12

>  <SMILES>  (13) 
CCCS(=O)(=O)[NH+]1CCC(C(=O)[N-]Cc2ccc(Cl)cc2)CC1

>  <Energy>  (13) 
42.38785322128313

>  <Genealogy>  (13) 
CCCS(=O)(=O)[NH+]1CCC(C(=O)[N-]Cc2ccc(Cl)cc2)CC1 (protonated)
CCCS(=O)(=O)[NH+]1CCC(C(=O)[N-]Cc2ccc(Cl)cc2)CC1 (3D coordinates assigned)
CCCS(=O)(=O)[NH+]1CCC(C(=O)[N-]Cc2ccc(Cl)cc2)CC1 (nonaromatic ring conformer: 42.38785322128313 kcal/mol)

>  <smiles>  (13) 
CCCS(=O)(=O)N1CCC(C(=O)NCc2ccc(Cl)cc2)CC1

>  <score_type>  (13) 
oracle

>  <origin>  (13) 
adg

>  <m_score__min__energy>  (13) 
-9.6300000000000008

>  <m_primary>  (13) 
energy

$$$$
13:0
     RDKit          3D

 42 43  0  0  0  0  0  0  0  0999 V2000
   -6.6730   19.0920  -33.4570 C   0  0  0  0  0  0  0  0  0  0  0  0
   -6.4180   20.5090  -32.9540 C   0  0  0  0  0  0  0  0  0  0  0  0
   -5.1720   21.0070  -33.4440 O   0  0  0  0  0  0  0  0  0  0  0  0
   -4.0910   21.4380  -32.6540 C   0  0  0  0  0  0  0  0  0  0  0  0
   -4.1890   22.5340  -31.7750 C   0  0  0  0  0  0  0  0  0  0  0  0
   -3.0930   22.9290  -30.9890 C   0  0  0  0  0  0  0  0  0  0  0  0
   -3.2160   24.0640  -30.0440 C   0  0  0  0  0  0  0  0  0  0  0  0
   -2.7540   23.9700  -28.8750 O   0  0  0  0  0  0  0  0  0  0  0  0
   -3.8680   25.2690  -30.4570 N   0  0  0  0  0  0  0  0  0  0  0  0
   -5.2600   25.3400  -30.8860 C   0  0  0  0  0  0  0  0  0  0  0  0
   -6.2100   24.8680  -29.7740 C   0  0  0  0  0  0  0  0  0  0  0  0
   -6.3830   23.3420  -29.7230 C   0  0  0  0  0  0  0  0  0  0  0  0
   -7.4530   22.8970  -30.6120 N   0  0  0  0  0  0  0  0  0  0  0  0
   -8.3120   21.8870  -30.4010 C   0  0  0  0  0  0  0  0  0  0  0  0
   -9.1750   21.8380  -31.4730 C   0  0  0  0  0  0  0  0  0  0  0  0
   -8.8640   22.8130  -32.3510 N   0  0  0  0  0  0  0  0  0  0  0  0
   -7.8080   23.4420  -31.7920 C   0  0  0  0  0  0  0  0  0  0  0  0
   -1.8870   22.2180  -31.0990 C   0  0  0  0  0  0  0  0  0  0  0  0
   -1.7770   21.1390  -31.9770 C   0  0  0  0  0  0  0  0  0  0  0  0
   -2.8770   20.7420  -32.7590 C   0  0  0  0  0  0  0  0  0  0  0  0
   -2.8050   19.6590  -33.6500 O   0  0  0  0  0  0  0  0  0  0  0  0
   -3.3250   18.3600  -33.3830 C   0  0  0  0  0  0  0  0  0  0  0  0
   -6.7949   18.4147  -32.5989 H   0  0  0  0  0  0  0  0  0  0  0  0
   -7.5880   19.0787  -34.0675 H   0  0  0  0  0  0  0  0  0  0  0  0
   -5.8201   18.7606  -34.0675 H   0  0  0  0  0  0  0  0  0  0  0  0
   -7.2296   21.1657  -33.3004 H   0  0  0  0  0  0  0  0  0  0  0  0
   -6.3815   20.4906  -31.8548 H   0  0  0  0  0  0  0  0  0  0  0  0
   -5.1363   23.0884  -31.7027 H   0  0  0  0  0  0  0  0  0  0  0  0
   -5.5023   26.3808  -31.1468 H   0  0  0  0  0  0  0  0  0  0  0  0
   -5.3896   24.6811  -31.7572 H   0  0  0  0  0  0  0  0  0  0  0  0
   -5.8090   25.2055  -28.8069 H   0  0  0  0  0  0  0  0  0  0  0  0
   -7.1991   25.2989  -29.9886 H   0  0  0  0  0  0  0  0  0  0  0  0
   -5.4408   22.8645  -30.0300 H   0  0  0  0  0  0  0  0  0  0  0  0
   -6.6473   23.0578  -28.6938 H   0  0  0  0  0  0  0  0  0  0  0  0
   -8.3243   21.2181  -29.5278 H   0  0  0  0  0  0  0  0  0  0  0  0
   -9.9937   21.1135  -31.5946 H   0  0  0  0  0  0  0  0  0  0  0  0
   -7.2956   24.3019  -32.2482 H   0  0  0  0  0  0  0  0  0  0  0  0
   -1.0217   22.5142  -30.4878 H   0  0  0  0  0  0  0  0  0  0  0  0
   -0.8242   20.5954  -32.0582 H   0  0  0  0  0  0  0  0  0  0  0  0
   -3.3866   18.2061  -32.2956 H   0  0  0  0  0  0  0  0  0  0  0  0
   -4.3288   18.2692  -33.8236 H   0  0  0  0  0  0  0  0  0  0  0  0
   -2.6612   17.6016  -33.8236 H   0  0  0  0  0  0  0  0  0  0  0  0
  1  2  1  0
  2  3  1  0
  3  4  1  0
  4  5  2  0
  5  6  1  0
  6  7  1  0
  7  8  2  0
  7  9  1  0
  9 10  1  0
 10 11  1  0
 11 12  1  0
 12 13  1  0
 13 14  1  0
 14 15  2  0
 15 16  1  0
 16 17  2  0
  6 18  2  0
 18 19  1  0
 19 20  2  0
 20 21  1  0
 21 22  1  0
 20  4  1  0
 17 13  1  0
  1 23  1  0
  1 24  1  0
  1 25  1  0
  2 26  1  0
  2 27  1  0
  5 28  1  0
 10 29  1  0
 10 30  1  0
 11 31  1  0
 11 32  1  0
 12 33  1  0
 12 34  1  0
 14 35  1  0
 15 36  1  0
 17 37  1  0
 18 38  1  0
 19 39  1  0
 22 40  1  0
 22 41  1  0
 22 42  1  0
M  CHG  1   9  -1
M  END
>  <UniqueID>  (14) 
13

>  <SMILES>  (14) 
CCOc1cc(C(=O)[N-]CCCn2ccnc2)ccc1OC

>  <Energy>  (14) 
61.95013448878426

>  <Genealogy>  (14) 
CCOc1cc(C(=O)[N-]CCCn2ccnc2)ccc1OC (protonated)
CCOc1cc(C(=O)[N-]CCCn2ccnc2)ccc1OC (3D coordinates assigned)
CCOc1cc(C(=O)[N-]CCCn2ccnc2)ccc1OC (optimized conformer: 61.95013448878426 kcal/mol)

>  <smiles>  (14) 
CCOc1cc(C(=O)NCCCn2ccnc2)ccc1OC

>  <score_type>  (14) 
oracle

>  <origin>  (14) 
adg

>  <m_score__min__energy>  (14) 
-8.1500000000000004

>  <m_primary>  (14) 
energy

$$$$
14:0
     RDKit          3D

 43 45  0  0  0  0  0  0  0  0999 V2000
   -1.7850   21.4060  -32.2570 C   0  0  0  0  0  0  0  0  0  0  0  0
   -3.2740   21.2610  -32.1430 C   0  0  0  0  0  0  0  0  0  0  0  0
   -4.1190   22.1660  -32.8000 C   0  0  0  0  0  0  0  0  0  0  0  0
   -5.5070   22.0230  -32.7170 C   0  0  0  0  0  0  0  0  0  0  0  0
   -6.0650   20.9700  -31.9810 C   0  0  0  0  0  0  0  0  0  0  0  0
   -7.4920   20.8510  -31.8700 N   0  0  0  0  0  0  0  0  0  0  0  0
   -8.2400   21.9370  -31.2030 C   0  0  2  0  0  0  0  0  0  0  0  0
   -8.4520   23.1670  -32.1000 C   0  0  0  0  0  0  0  0  0  0  0  0
   -7.6260   22.3060  -29.8380 C   0  0  0  0  0  0  0  0  0  0  0  0
   -6.5700   23.3690  -29.9120 C   0  0  0  0  0  0  0  0  0  0  0  0
   -6.7790   24.7120  -30.1920 C   0  0  0  0  0  0  0  0  0  0  0  0
   -5.5990   25.4660  -30.1980 C   0  0  0  0  0  0  0  0  0  0  0  0
   -4.4600   24.7170  -29.9310 C   0  0  0  0  0  0  0  0  0  0  0  0
   -4.9220   23.1200  -29.6840 S   0  0  0  0  0  0  0  0  0  0  0  0
   -8.1840   19.2910  -32.2400 S   0  0  0  0  0  0  0  0  0  0  0  0
   -9.4260   19.4330  -33.0710 O   0  0  0  0  0  0  0  0  0  0  0  0
   -8.5250   18.5730  -30.9640 O   0  0  0  0  0  0  0  0  0  0  0  0
   -7.0240   18.3400  -33.1490 C   0  0  0  0  0  0  0  0  0  0  0  0
   -6.6570   17.0310  -32.8780 C   0  0  0  0  0  0  0  0  0  0  0  0
   -5.6580   16.5580  -33.7350 C   0  0  0  0  0  0  0  0  0  0  0  0
   -5.2390   17.4940  -34.6740 C   0  0  0  0  0  0  0  0  0  0  0  0
   -6.1060   18.9150  -34.4330 S   0  0  0  0  0  0  0  0  0  0  0  0
   -5.2230   20.0590  -31.3300 C   0  0  0  0  0  0  0  0  0  0  0  0
   -3.8350   20.1990  -31.4150 C   0  0  0  0  0  0  0  0  0  0  0  0
   -1.3427   21.4491  -31.2508 H   0  0  0  0  0  0  0  0  0  0  0  0
   -1.3733   20.5437  -32.8019 H   0  0  0  0  0  0  0  0  0  0  0  0
   -1.5474   22.3315  -32.8019 H   0  0  0  0  0  0  0  0  0  0  0  0
   -3.6878   22.9927  -33.3837 H   0  0  0  0  0  0  0  0  0  0  0  0
   -6.1635   22.7401  -33.2316 H   0  0  0  0  0  0  0  0  0  0  0  0
   -9.2458   21.5372  -31.0069 H   0  0  0  0  0  0  0  0  0  0  0  0
   -8.6054   24.0569  -31.4718 H   0  0  0  0  0  0  0  0  0  0  0  0
   -7.5661   23.3148  -32.7351 H   0  0  0  0  0  0  0  0  0  0  0  0
   -9.3363   23.0096  -32.7351 H   0  0  0  0  0  0  0  0  0  0  0  0
   -8.4324   22.6645  -29.1814 H   0  0  0  0  0  0  0  0  0  0  0  0
   -7.1381   21.3986  -29.4524 H   0  0  0  0  0  0  0  0  0  0  0  0
   -7.7723   25.1414  -30.3895 H   0  0  0  0  0  0  0  0  0  0  0  0
   -5.5762   26.5479  -30.3953 H   0  0  0  0  0  0  0  0  0  0  0  0
   -3.4309   25.1033  -29.8885 H   0  0  0  0  0  0  0  0  0  0  0  0
   -7.1042   16.4280  -32.0740 H   0  0  0  0  0  0  0  0  0  0  0  0
   -5.2429   15.5413  -33.6721 H   0  0  0  0  0  0  0  0  0  0  0  0
   -4.4705   17.3325  -35.4442 H   0  0  0  0  0  0  0  0  0  0  0  0
   -5.6558   19.2306  -30.7499 H   0  0  0  0  0  0  0  0  0  0  0  0
   -3.1794   19.4745  -30.9097 H   0  0  0  0  0  0  0  0  0  0  0  0
  1  2  1  0
  2  3  2  0
  3  4  1  0
  4  5  2  0
  5  6  1  0
  6  7  1  0
  7  8  1  0
  7  9  1  0
  9 10  1  0
 10 11  2  0
 11 12  1  0
 12 13  2  0
 13 14  1  0
  6 15  1  0
 15 16  2  0
 15 17  2  0
 15 18  1  0
 18 19  2  0
 19 20  1  0
 20 21  2  0
 21 22  1  0
  5 23  1  0
 23 24  2  0
 24  2  1  0
 14 10  1  0
 22 18  1  0
  1 25  1  0
  1 26  1  0
  1 27  1  0
  3 28  1  0
  4 29  1  0
  7 30  1  1
  8 31  1  0
  8 32  1  0
  8 33  1  0
  9 34  1  0
  9 35  1  0
 11 36  1  0
 12 37  1  0
 13 38  1  0
 19 39  1  0
 20 40  1  0
 21 41  1  0
 23 42  1  0
 24 43  1  0
M  END
>  <UniqueID>  (15) 
14

>  <SMILES>  (15) 
Cc1ccc(N([C@H](C)Cc2cccs2)S(=O)(=O)c2cccs2)cc1

>  <Energy>  (15) 
99.78318383436708

>  <Genealogy>  (15) 
Cc1ccc(N([C@H](C)Cc2cccs2)S(=O)(=O)c2cccs2)cc1 (chirality)
Cc1ccc(N([C@H](C)Cc2cccs2)S(=O)(=O)c2cccs2)cc1 (3D coordinates assigned)
Cc1ccc(N([C@H](C)Cc2cccs2)S(=O)(=O)c2cccs2)cc1 (optimized conformer: 99.78318383436708 kcal/mol)

>  <smiles>  (15) 
Cc1ccc(N(C(C)Cc2cccs2)S(=O)(=O)c2cccs2)cc1

>  <score_type>  (15) 
oracle

>  <origin>  (15) 
adg

>  <m_score__min__energy>  (15) 
-8.7699999999999996

>  <m_primary>  (15) 
energy

$$$$
15:0
     RDKit          3D

 40 43  0  0  0  0  0  0  0  0999 V2000
   -4.4990   24.4630  -30.8120 O   0  0  0  0  0  0  0  0  0  0  0  0
   -3.6310   23.6180  -30.4650 C   0  0  0  0  0  0  0  0  0  0  0  0
   -2.7920   23.8330  -29.2920 C   0  0  0  0  0  0  0  0  0  0  0  0
   -2.8370   24.8620  -28.4310 N   0  0  0  0  0  0  0  0  0  0  0  0
   -1.8050   24.5930  -27.5910 C   0  0  0  0  0  0  0  0  0  0  0  0
   -1.3980   25.4450  -26.4450 C   0  0  0  0  0  0  0  0  0  0  0  0
   -1.1690   24.8960  -25.1690 C   0  0  0  0  0  0  0  0  0  0  0  0
   -0.7840   25.7170  -24.1030 C   0  0  0  0  0  0  0  0  0  0  0  0
   -0.6220   27.0900  -24.2980 C   0  0  0  0  0  0  0  0  0  0  0  0
   -0.8450   27.6460  -25.5600 C   0  0  0  0  0  0  0  0  0  0  0  0
   -1.2290   26.8300  -26.6280 C   0  0  0  0  0  0  0  0  0  0  0  0
   -1.1600   23.4520  -27.9360 N   0  0  0  0  0  0  0  0  0  0  0  0
   -1.8080   22.9850  -28.9890 N   0  0  0  0  0  0  0  0  0  0  0  0
   -1.4150   21.8470  -29.8170 C   0  0  0  0  0  0  0  0  0  0  0  0
   -2.6340   21.3170  -30.6050 C   0  0  0  0  0  0  0  0  0  0  0  0
   -3.3980   22.4180  -31.2290 N   0  0  0  0  0  0  0  0  0  0  0  0
   -3.8990   22.2950  -32.6020 C   0  0  0  0  0  0  0  0  0  0  0  0
   -5.2140   21.5620  -32.6050 C   0  0  0  0  0  0  0  0  0  0  0  0
   -5.3090   20.2690  -33.1430 C   0  0  0  0  0  0  0  0  0  0  0  0
   -6.5260   19.5810  -33.1110 C   0  0  0  0  0  0  0  0  0  0  0  0
   -7.6540   20.1760  -32.5370 C   0  0  0  0  0  0  0  0  0  0  0  0
   -9.1790   19.3100  -32.4950 Cl  0  0  0  0  0  0  0  0  0  0  0  0
   -7.5640   21.4620  -31.9920 C   0  0  0  0  0  0  0  0  0  0  0  0
   -6.3480   22.1510  -32.0230 C   0  0  0  0  0  0  0  0  0  0  0  0
   -3.4940   25.6720  -28.4440 H   0  0  0  0  0  0  0  0  0  0  0  0
   -1.2935   23.8149  -25.0089 H   0  0  0  0  0  0  0  0  0  0  0  0
   -0.6086   25.2795  -23.1091 H   0  0  0  0  0  0  0  0  0  0  0  0
   -0.3191   27.7333  -23.4587 H   0  0  0  0  0  0  0  0  0  0  0  0
   -0.7182   28.7278  -25.7135 H   0  0  0  0  0  0  0  0  0  0  0  0
   -1.4005   27.2741  -27.6196 H   0  0  0  0  0  0  0  0  0  0  0  0
   -0.6345   22.1641  -30.5243 H   0  0  0  0  0  0  0  0  0  0  0  0
   -1.0298   21.0462  -29.1686 H   0  0  0  0  0  0  0  0  0  0  0  0
   -2.2810   20.6357  -31.3932 H   0  0  0  0  0  0  0  0  0  0  0  0
   -3.2975   20.7928  -29.9015 H   0  0  0  0  0  0  0  0  0  0  0  0
   -4.0401   23.2985  -33.0299 H   0  0  0  0  0  0  0  0  0  0  0  0
   -3.1701   21.7326  -33.2040 H   0  0  0  0  0  0  0  0  0  0  0  0
   -4.4232   19.7954  -33.5913 H   0  0  0  0  0  0  0  0  0  0  0  0
   -6.5962   18.5698  -33.5382 H   0  0  0  0  0  0  0  0  0  0  0  0
   -8.4502   21.9306  -31.5392 H   0  0  0  0  0  0  0  0  0  0  0  0
   -6.2792   23.1596  -31.5893 H   0  0  0  0  0  0  0  0  0  0  0  0
  1  2  2  0
  2  3  1  0
  3  4  2  0
  4  5  1  0
  5  6  1  0
  6  7  2  0
  7  8  1  0
  8  9  2  0
  9 10  1  0
 10 11  2  0
  5 12  2  0
 12 13  1  0
 13 14  1  0
 14 15  1  0
 15 16  1  0
 16 17  1  0
 17 18  1  0
 18 19  2  0
 19 20  1  0
 20 21  2  0
 21 22  1  0
 21 23  1  0
 23 24  2  0
 16  2  1  0
 24 18  1  0
 13  3  1  0
 11  6  1  0
  4 25  1  0
  7 26  1  0
  8 27  1  0
  9 28  1  0
 10 29  1  0
 11 30  1  0
 14 31  1  0
 14 32  1  0
 15 33  1  0
 15 34  1  0
 17 35  1  0
 17 36  1  0
 19 37  1  0
 20 38  1  0
 23 39  1  0
 24 40  1  0
M  CHG  1   4   1
M  END
>  <UniqueID>  (16) 
15

>  <SMILES>  (16) 
O=C1c2[nH+]c(-c3ccccc3)nn2CCN1Cc1ccc(Cl)cc1

>  <Energy>  (16) 
80.37818055093705

>  <Genealogy>  (16) 
O=C1c2[nH+]c(-c3ccccc3)nn2CCN1Cc1ccc(Cl)cc1 (protonated)
O=C1c2[nH+]c(-c3ccccc3)nn2CCN1Cc1ccc(Cl)cc1 (3D coordinates assigned)
O=C1c2[nH+]c(-c3ccccc3)nn2CCN1Cc1ccc(Cl)cc1 (nonaromatic ring conformer: 80.37818055093705 kcal/mol)

>  <smiles>  (16) 
O=C1c2nc(-c3ccccc3)nn2CCN1Cc1ccc(Cl)cc1

>  <score_type>  (16) 
oracle

>  <origin>  (16) 
adg

>  <m_score__min__energy>  (16) 
-7.7400000000000002

>  <m_primary>  (16) 
energy

$$$$
16:0
     RDKit          3D

 40 41  0  0  0  0  0  0  0  0999 V2000
   -0.9020   26.3990  -26.5860 C   0  0  0  0  0  0  0  0  0  0  0  0
   -0.4910   26.2370  -27.9370 O   0  0  0  0  0  0  0  0  0  0  0  0
   -0.9160   25.1710  -28.7340 C   0  0  0  0  0  0  0  0  0  0  0  0
   -0.1240   24.2290  -29.0040 O   0  0  0  0  0  0  0  0  0  0  0  0
   -2.2580   25.1090  -29.2340 N   0  0  0  0  0  0  0  0  0  0  0  0
   -3.1780   23.9590  -29.2580 C   0  0  2  0  0  0  0  0  0  0  0  0
   -2.4320   22.6990  -29.5720 N   0  0  0  0  0  0  0  0  0  0  0  0
   -2.2120   21.7960  -28.4540 C   0  0  0  0  0  0  0  0  0  0  0  0
   -2.9740   20.6210  -28.2910 C   0  0  0  0  0  0  0  0  0  0  0  0
   -2.7360   19.7600  -27.2150 C   0  0  0  0  0  0  0  0  0  0  0  0
   -1.7140   20.0370  -26.3070 C   0  0  0  0  0  0  0  0  0  0  0  0
   -0.9100   21.1620  -26.4870 C   0  0  0  0  0  0  0  0  0  0  0  0
   -1.1420   22.0240  -27.5620 C   0  0  0  0  0  0  0  0  0  0  0  0
   -4.2630   24.2920  -30.2920 C   0  0  0  0  0  0  0  0  0  0  0  0
   -4.2270   25.4290  -30.8380 O   0  0  0  0  0  0  0  0  0  0  0  0
   -5.3470   23.3760  -30.7190 C   0  0  0  0  0  0  0  0  0  0  0  0
   -6.6030   23.3570  -30.0880 C   0  0  0  0  0  0  0  0  0  0  0  0
   -7.6030   22.4830  -30.5310 C   0  0  0  0  0  0  0  0  0  0  0  0
   -7.3600   21.6290  -31.6100 C   0  0  0  0  0  0  0  0  0  0  0  0
   -8.6110   20.5250  -32.1540 Cl  0  0  0  0  0  0  0  0  0  0  0  0
   -6.1230   21.6560  -32.2560 C   0  0  0  0  0  0  0  0  0  0  0  0
   -5.1240   22.5330  -31.8200 C   0  0  0  0  0  0  0  0  0  0  0  0
   -3.8660   23.8490  -27.8620 C   0  0  0  0  0  0  0  0  0  0  0  0
   -4.7240   24.9090  -27.6400 F   0  0  0  0  0  0  0  0  0  0  0  0
   -2.9380   23.8480  -26.8400 F   0  0  0  0  0  0  0  0  0  0  0  0
   -4.5960   22.6740  -27.7790 F   0  0  0  0  0  0  0  0  0  0  0  0
   -0.0910   26.0793  -25.9152 H   0  0  0  0  0  0  0  0  0  0  0  0
   -1.1372   27.4571  -26.3987 H   0  0  0  0  0  0  0  0  0  0  0  0
   -1.7959   25.7859  -26.3987 H   0  0  0  0  0  0  0  0  0  0  0  0
   -2.9370   22.1570  -30.3080 H   0  0  0  0  0  0  0  0  0  0  0  0
   -1.5140   22.9540  -30.0040 H   0  0  0  0  0  0  0  0  0  0  0  0
   -3.7637   20.3791  -29.0175 H   0  0  0  0  0  0  0  0  0  0  0  0
   -3.3568   18.8614  -27.0843 H   0  0  0  0  0  0  0  0  0  0  0  0
   -1.5425   19.3689  -25.4501 H   0  0  0  0  0  0  0  0  0  0  0  0
   -0.0921   21.3711  -25.7818 H   0  0  0  0  0  0  0  0  0  0  0  0
   -0.4826   22.8911  -27.7151 H   0  0  0  0  0  0  0  0  0  0  0  0
   -6.8011   24.0319  -29.2423 H   0  0  0  0  0  0  0  0  0  0  0  0
   -8.5816   22.4686  -30.0288 H   0  0  0  0  0  0  0  0  0  0  0  0
   -5.9335   20.9872  -33.1085 H   0  0  0  0  0  0  0  0  0  0  0  0
   -4.1569   22.5625  -32.3433 H   0  0  0  0  0  0  0  0  0  0  0  0
  1  2  1  0
  2  3  1  0
  3  4  2  0
  3  5  1  0
  6  5  1  1
  6  7  1  0
  7  8  1  0
  8  9  2  0
  9 10  1  0
 10 11  2  0
 11 12  1  0
 12 13  2  0
  6 14  1  0
 14 15  2  0
 14 16  1  0
 16 17  2  0
 17 18  1  0
 18 19  2  0
 19 20  1  0
 19 21  1  0
 21 22  2  0
  6 23  1  0
 23 24  1  0
 23 25  1  0
 23 26  1  0
 13  8  1  0
 22 16  1  0
  1 27  1  0
  1 28  1  0
  1 29  1  0
  7 30  1  0
  7 31  1  0
  9 32  1  0
 10 33  1  0
 11 34  1  0
 12 35  1  0
 13 36  1  0
 17 37  1  0
 18 38  1  0
 21 39  1  0
 22 40  1  0
M  CHG  2   5  -1   7   1
M  END
>  <UniqueID>  (17) 
16

>  <SMILES>  (17) 
COC(=O)[N-][C@]([NH2+]c1ccccc1)(C(=O)c1ccc(Cl)cc1)C(F)(F)F

>  <Energy>  (17) 
54.80745614123134

>  <Genealogy>  (17) 
COC(=O)[N-]C([NH2+]c1ccccc1)(C(=O)c1ccc(Cl)cc1)C(F)(F)F (protonated)
COC(=O)[N-][C@]([NH2+]c1ccccc1)(C(=O)c1ccc(Cl)cc1)C(F)(F)F (chirality)
COC(=O)[N-][C@]([NH2+]c1ccccc1)(C(=O)c1ccc(Cl)cc1)C(F)(F)F (3D coordinates assigned)
COC(=O)[N-][C@]([NH2+]c1ccccc1)(C(=O)c1ccc(Cl)cc1)C(F)(F)F (optimized conformer: 54.80745614123134 kcal/mol)

>  <smiles>  (17) 
COC(=O)NC(Nc1ccccc1)(C(=O)c1ccc(Cl)cc1)C(F)(F)F

>  <score_type>  (17) 
oracle

>  <origin>  (17) 
adg

>  <m_score__min__energy>  (17) 
-8.2100000000000009

>  <m_primary>  (17) 
energy

$$$$
17:0
     RDKit          3D

 30 32  0  0  0  0  0  0  0  0999 V2000
   -5.7380   26.0310  -30.1050 C   0  0  0  0  0  0  0  0  0  0  0  0
   -5.9660   24.6860  -30.7090 C   0  0  0  0  0  0  0  0  0  0  0  0
   -7.1300   23.9320  -30.5730 C   0  0  0  0  0  0  0  0  0  0  0  0
   -6.8780   22.7950  -31.3070 C   0  0  0  0  0  0  0  0  0  0  0  0
   -7.6280   21.6590  -31.5750 C   0  0  0  0  0  0  0  0  0  0  0  0
   -8.7910   21.5380  -31.1000 O   0  0  0  0  0  0  0  0  0  0  0  0
   -7.0700   20.6790  -32.3650 N   0  0  0  0  0  0  0  0  0  0  0  0
   -7.8270   19.4650  -32.7120 C   0  0  0  0  0  0  0  0  0  0  0  0
   -6.9680   18.2430  -32.5200 C   0  0  0  0  0  0  0  0  0  0  0  0
   -6.3850   17.5970  -33.6190 C   0  0  0  0  0  0  0  0  0  0  0  0
   -5.5640   16.4870  -33.4200 C   0  0  0  0  0  0  0  0  0  0  0  0
   -5.3280   16.0340  -32.1210 C   0  0  0  0  0  0  0  0  0  0  0  0
   -5.8920   16.6750  -31.0610 N   0  0  0  0  0  0  0  0  0  0  0  0
   -6.6960   17.7600  -31.2310 C   0  0  0  0  0  0  0  0  0  0  0  0
   -5.8000   20.8480  -32.8810 C   0  0  0  0  0  0  0  0  0  0  0  0
   -5.0760   21.9740  -32.6090 N   0  0  0  0  0  0  0  0  0  0  0  0
   -5.6300   22.9260  -31.8260 C   0  0  0  0  0  0  0  0  0  0  0  0
   -5.0830   24.0600  -31.4690 O   0  0  0  0  0  0  0  0  0  0  0  0
   -5.7521   25.9476  -29.0083 H   0  0  0  0  0  0  0  0  0  0  0  0
   -4.7614   26.4184  -30.4307 H   0  0  0  0  0  0  0  0  0  0  0  0
   -6.5324   26.7186  -30.4307 H   0  0  0  0  0  0  0  0  0  0  0  0
   -8.0398   24.1865  -30.0095 H   0  0  0  0  0  0  0  0  0  0  0  0
   -8.7129   19.3917  -32.0640 H   0  0  0  0  0  0  0  0  0  0  0  0
   -8.1361   19.5241  -33.7660 H   0  0  0  0  0  0  0  0  0  0  0  0
   -6.5749   17.9653  -34.6380 H   0  0  0  0  0  0  0  0  0  0  0  0
   -5.1069   15.9735  -34.2787 H   0  0  0  0  0  0  0  0  0  0  0  0
   -4.6850   15.1573  -31.9536 H   0  0  0  0  0  0  0  0  0  0  0  0
   -5.7030   16.3260  -30.0940 H   0  0  0  0  0  0  0  0  0  0  0  0
   -7.1341   18.2601  -30.3547 H   0  0  0  0  0  0  0  0  0  0  0  0
   -5.3655   20.0650  -33.5199 H   0  0  0  0  0  0  0  0  0  0  0  0
  1  2  1  0
  2  3  2  0
  3  4  1  0
  4  5  1  0
  5  6  2  0
  5  7  1  0
  7  8  1  0
  8  9  1  0
  9 10  2  0
 10 11  1  0
 11 12  2  0
 12 13  1  0
 13 14  2  0
  7 15  1  0
 15 16  2  0
 16 17  1  0
 17 18  1  0
 18  2  1  0
 17  4  2  0
 14  9  1  0
  1 19  1  0
  1 20  1  0
  1 21  1  0
  3 22  1  0
  8 23  1  0
  8 24  1  0
 10 25  1  0
 11 26  1  0
 12 27  1  0
 13 28  1  0
 14 29  1  0
 15 30  1  0
M  CHG  1  13   1
M  END
>  <UniqueID>  (18) 
17

>  <SMILES>  (18) 
Cc1cc2c(=O)n(Cc3ccc[nH+]c3)cnc2o1

>  <Energy>  (18) 
68.74408157811587

>  <Genealogy>  (18) 
Cc1cc2c(=O)n(Cc3ccc[nH+]c3)cnc2o1 (protonated)
Cc1cc2c(=O)n(Cc3ccc[nH+]c3)cnc2o1 (3D coordinates assigned)
Cc1cc2c(=O)n(Cc3ccc[nH+]c3)cnc2o1 (optimized conformer: 68.74408157811587 kcal/mol)

>  <smiles>  (18) 
Cc1cc2c(=O)n(Cc3cccnc3)cnc2o1

>  <score_type>  (18) 
oracle

>  <origin>  (18) 
adg

>  <m_score__min__energy>  (18) 
-6.71

>  <m_primary>  (18) 
energy

$$$$
18:0
     RDKit          3D

 37 39  0  0  0  0  0  0  0  0999 V2000
   -2.3060   24.4610  -28.2600 C   0  0  0  0  0  0  0  0  0  0  0  0
   -2.7650   24.9950  -29.4960 O   0  0  0  0  0  0  0  0  0  0  0  0
   -3.9480   24.5990  -30.1390 C   0  0  0  0  0  0  0  0  0  0  0  0
   -5.1260   25.3670  -30.0930 C   0  0  0  0  0  0  0  0  0  0  0  0
   -6.2800   24.9270  -30.7500 C   0  0  0  0  0  0  0  0  0  0  0  0
   -6.2780   23.7140  -31.4560 C   0  0  0  0  0  0  0  0  0  0  0  0
   -7.5200   23.2400  -32.1660 C   0  0  0  0  0  0  0  0  0  0  0  0
   -7.5480   21.7300  -32.2690 C   0  0  0  0  0  0  0  0  0  0  0  0
   -6.6450   21.1050  -33.0810 N   0  0  0  0  0  0  0  0  0  0  0  0
   -6.6050   19.7480  -33.1900 C   0  0  0  0  0  0  0  0  0  0  0  0
   -5.6760   19.1140  -34.0300 C   0  0  0  0  0  0  0  0  0  0  0  0
   -5.6540   17.7190  -34.1220 C   0  0  0  0  0  0  0  0  0  0  0  0
   -6.5570   16.9510  -33.3800 C   0  0  0  0  0  0  0  0  0  0  0  0
   -7.4860   17.5750  -32.5410 C   0  0  0  0  0  0  0  0  0  0  0  0
   -7.5120   18.9710  -32.4440 C   0  0  0  0  0  0  0  0  0  0  0  0
   -8.4050   19.5870  -31.6320 N   0  0  0  0  0  0  0  0  0  0  0  0
   -8.4540   20.9410  -31.5170 C   0  0  0  0  0  0  0  0  0  0  0  0
   -9.4650   21.5410  -30.5850 C   0  0  0  0  0  0  0  0  0  0  0  0
   -5.0980   22.9540  -31.5080 C   0  0  0  0  0  0  0  0  0  0  0  0
   -3.9460   23.3940  -30.8520 C   0  0  0  0  0  0  0  0  0  0  0  0
   -2.7751   25.0067  -27.4280 H   0  0  0  0  0  0  0  0  0  0  0  0
   -2.5751   23.3962  -28.1981 H   0  0  0  0  0  0  0  0  0  0  0  0
   -1.2129   24.5671  -28.1981 H   0  0  0  0  0  0  0  0  0  0  0  0
   -5.1396   26.3169  -29.5384 H   0  0  0  0  0  0  0  0  0  0  0  0
   -7.1953   25.5359  -30.7130 H   0  0  0  0  0  0  0  0  0  0  0  0
   -8.4046   23.5781  -31.6063 H   0  0  0  0  0  0  0  0  0  0  0  0
   -7.5216   23.6590  -33.1831 H   0  0  0  0  0  0  0  0  0  0  0  0
   -5.9660   21.6800  -33.6320 H   0  0  0  0  0  0  0  0  0  0  0  0
   -4.9651   19.7149  -34.6161 H   0  0  0  0  0  0  0  0  0  0  0  0
   -4.9244   17.2242  -34.7799 H   0  0  0  0  0  0  0  0  0  0  0  0
   -6.5366   15.8538  -33.4564 H   0  0  0  0  0  0  0  0  0  0  0  0
   -8.1954   16.9693  -31.9581 H   0  0  0  0  0  0  0  0  0  0  0  0
   -9.1580   21.3588  -29.5445 H   0  0  0  0  0  0  0  0  0  0  0  0
   -9.5307   22.6244  -30.7636 H   0  0  0  0  0  0  0  0  0  0  0  0
  -10.4475   21.0797  -30.7636 H   0  0  0  0  0  0  0  0  0  0  0  0
   -5.0810   22.0075  -32.0682 H   0  0  0  0  0  0  0  0  0  0  0  0
   -3.0288   22.7883  -30.8959 H   0  0  0  0  0  0  0  0  0  0  0  0
  1  2  1  0
  2  3  1  0
  3  4  2  0
  4  5  1  0
  5  6  2  0
  6  7  1  0
  7  8  1  0
  8  9  2  0
  9 10  1  0
 10 11  2  0
 11 12  1  0
 12 13  2  0
 13 14  1  0
 14 15  2  0
 15 16  1  0
 16 17  2  0
 17 18  1  0
  6 19  1  0
 19 20  2  0
 20  3  1  0
 17  8  1  0
 15 10  1  0
  1 21  1  0
  1 22  1  0
  1 23  1  0
  4 24  1  0
  5 25  1  0
  7 26  1  0
  7 27  1  0
  9 28  1  0
 11 29  1  0
 12 30  1  0
 13 31  1  0
 14 32  1  0
 18 33  1  0
 18 34  1  0
 18 35  1  0
 19 36  1  0
 20 37  1  0
M  CHG  1   9   1
M  END
>  <UniqueID>  (19) 
18

>  <SMILES>  (19) 
COc1ccc(Cc2[nH+]c3ccccc3nc2C)cc1

>  <Energy>  (19) 
41.49591399030473

>  <Genealogy>  (19) 
COc1ccc(Cc2[nH+]c3ccccc3nc2C)cc1 (protonated)
COc1ccc(Cc2[nH+]c3ccccc3nc2C)cc1 (3D coordinates assigned)
COc1ccc(Cc2[nH+]c3ccccc3nc2C)cc1 (optimized conformer: 41.49591399030473 kcal/mol)

>  <smiles>  (19) 
COc1ccc(Cc2nc3ccccc3nc2C)cc1

>  <score_type>  (19) 
oracle

>  <origin>  (19) 
adg

>  <m_score__min__energy>  (19) 
-8.3399999999999999

>  <m_primary>  (19) 
energy

$$$$
19:0
     RDKit          3D

 56 58  0  0  0  0  0  0  0  0999 V2000
   -6.7950   14.8500  -34.2110 C   0  0  0  0  0  0  0  0  0  0  0  0
   -6.6000   16.3630  -34.0350 C   0  0  0  0  0  0  0  0  0  0  0  0
   -5.4400   16.6830  -33.1670 N   0  0  2  0  0  0  0  0  0  0  0  0
   -5.8410   17.3770  -31.9140 C   0  0  0  0  0  0  0  0  0  0  0  0
   -6.9160   18.4280  -32.0950 C   0  0  0  0  0  0  0  0  0  0  0  0
   -6.6880   19.6740  -32.7070 C   0  0  0  0  0  0  0  0  0  0  0  0
   -7.8070   20.4960  -32.7300 C   0  0  0  0  0  0  0  0  0  0  0  0
   -9.0700   19.6790  -31.9790 S   0  0  0  0  0  0  0  0  0  0  0  0
   -8.2180   18.2760  -31.6200 C   0  0  0  0  0  0  0  0  0  0  0  0
   -4.4170   17.4230  -33.8920 C   0  0  0  0  0  0  0  0  0  0  0  0
   -4.7230   18.1290  -34.8450 O   0  0  0  0  0  0  0  0  0  0  0  0
   -2.9520   17.2400  -33.5470 C   0  0  0  0  0  0  0  0  0  0  0  0
   -2.0490   18.3550  -34.0980 C   0  0  0  0  0  0  0  0  0  0  0  0
   -1.4830   19.2510  -32.9700 C   0  0  0  0  0  0  0  0  0  0  0  0
   -2.0570   20.6150  -32.9430 N   0  0  0  0  0  0  0  0  0  0  0  0
   -3.4640   20.6690  -33.4050 C   0  0  0  0  0  0  0  0  0  0  0  0
   -4.1080   22.0210  -33.0840 C   0  0  0  0  0  0  0  0  0  0  0  0
   -4.0410   22.2840  -31.6390 N   0  0  0  0  0  0  0  0  0  0  0  0
   -4.9600   23.2140  -31.0270 C   0  0  0  0  0  0  0  0  0  0  0  0
   -6.3410   22.9360  -31.0110 C   0  0  0  0  0  0  0  0  0  0  0  0
   -7.2400   23.8340  -30.4270 C   0  0  0  0  0  0  0  0  0  0  0  0
   -6.7710   25.0150  -29.8450 C   0  0  0  0  0  0  0  0  0  0  0  0
   -5.4010   25.2990  -29.8450 C   0  0  0  0  0  0  0  0  0  0  0  0
   -4.4970   24.4070  -30.4310 C   0  0  0  0  0  0  0  0  0  0  0  0
   -3.1700   24.6960  -30.3930 F   0  0  0  0  0  0  0  0  0  0  0  0
   -2.9860   21.6420  -30.8430 C   0  0  0  0  0  0  0  0  0  0  0  0
   -1.7460   21.3910  -31.7150 C   0  0  0  0  0  0  0  0  0  0  0  0
   -6.8568   14.3709  -33.2228 H   0  0  0  0  0  0  0  0  0  0  0  0
   -7.7247   14.6625  -34.7682 H   0  0  0  0  0  0  0  0  0  0  0  0
   -5.9432   14.4329  -34.7682 H   0  0  0  0  0  0  0  0  0  0  0  0
   -6.4377   16.8164  -35.0240 H   0  0  0  0  0  0  0  0  0  0  0  0
   -7.5030   16.7653  -33.5525 H   0  0  0  0  0  0  0  0  0  0  0  0
   -5.0320   15.7680  -32.8580 H   0  0  0  0  0  0  0  0  0  0  0  0
   -6.2147   16.6215  -31.2072 H   0  0  0  0  0  0  0  0  0  0  0  0
   -4.9472   17.9034  -31.5480 H   0  0  0  0  0  0  0  0  0  0  0  0
   -5.7154   19.9692  -33.1275 H   0  0  0  0  0  0  0  0  0  0  0  0
   -7.8581   21.5055  -33.1639 H   0  0  0  0  0  0  0  0  0  0  0  0
   -8.6175   17.3922  -31.1010 H   0  0  0  0  0  0  0  0  0  0  0  0
   -2.8520   17.2202  -32.4517 H   0  0  0  0  0  0  0  0  0  0  0  0
   -2.6249   16.2986  -34.0127 H   0  0  0  0  0  0  0  0  0  0  0  0
   -1.2103   17.8966  -34.6425 H   0  0  0  0  0  0  0  0  0  0  0  0
   -2.6558   18.9872  -34.7629 H   0  0  0  0  0  0  0  0  0  0  0  0
   -1.6937   18.7673  -32.0048 H   0  0  0  0  0  0  0  0  0  0  0  0
   -0.4053   19.3617  -33.1604 H   0  0  0  0  0  0  0  0  0  0  0  0
   -3.4894   20.5102  -34.4932 H   0  0  0  0  0  0  0  0  0  0  0  0
   -4.0297   19.8840  -32.8818 H   0  0  0  0  0  0  0  0  0  0  0  0
   -3.5723   22.8160  -33.6234 H   0  0  0  0  0  0  0  0  0  0  0  0
   -5.1623   22.0001  -33.3969 H   0  0  0  0  0  0  0  0  0  0  0  0
   -6.7152   22.0049  -31.4616 H   0  0  0  0  0  0  0  0  0  0  0  0
   -8.3171   23.6107  -30.4257 H   0  0  0  0  0  0  0  0  0  0  0  0
   -7.4790   25.7213  -29.3869 H   0  0  0  0  0  0  0  0  0  0  0  0
   -5.0336   26.2270  -29.3825 H   0  0  0  0  0  0  0  0  0  0  0  0
   -2.7135   22.2981  -30.0032 H   0  0  0  0  0  0  0  0  0  0  0  0
   -3.3582   20.6801  -30.4607 H   0  0  0  0  0  0  0  0  0  0  0  0
   -1.3209   22.3616  -32.0102 H   0  0  0  0  0  0  0  0  0  0  0  0
   -1.0347   20.8000  -31.1194 H   0  0  0  0  0  0  0  0  0  0  0  0
  1  2  1  0
  2  3  1  0
  3  4  1  0
  4  5  1  0
  5  6  1  0
  6  7  2  0
  7  8  1  0
  8  9  1  0
  3 10  1  0
 10 11  2  0
 10 12  1  0
 12 13  1  0
 13 14  1  0
 14 15  1  0
 15 16  1  0
 16 17  1  0
 17 18  1  0
 18 19  1  0
 19 20  2  0
 20 21  1  0
 21 22  2  0
 22 23  1  0
 23 24  2  0
 24 25  1  0
 18 26  1  0
 26 27  1  0
  9  5  2  0
 27 15  1  0
 24 19  1  0
  1 28  1  0
  1 29  1  0
  1 30  1  0
  2 31  1  0
  2 32  1  0
  3 33  1  1
  4 34  1  0
  4 35  1  0
  6 36  1  0
  7 37  1  0
  9 38  1  0
 12 39  1  0
 12 40  1  0
 13 41  1  0
 13 42  1  0
 14 43  1  0
 14 44  1  0
 16 45  1  0
 16 46  1  0
 17 47  1  0
 17 48  1  0
 20 49  1  0
 21 50  1  0
 22 51  1  0
 23 52  1  0
 26 53  1  0
 26 54  1  0
 27 55  1  0
 27 56  1  0
M  CHG  1   3   1
M  END
>  <UniqueID>  (20) 
19

>  <SMILES>  (20) 
CC[N@H+](Cc1ccsc1)C(=O)CCCN1CCN(c2ccccc2F)CC1

>  <Energy>  (20) 
94.39483857270602

>  <Genealogy>  (20) 
CC[NH+](Cc1ccsc1)C(=O)CCCN1CCN(c2ccccc2F)CC1 (protonated)
CC[N@H+](Cc1ccsc1)C(=O)CCCN1CCN(c2ccccc2F)CC1 (chirality)
CC[N@H+](Cc1ccsc1)C(=O)CCCN1CCN(c2ccccc2F)CC1 (3D coordinates assigned)
CC[N@H+](Cc1ccsc1)C(=O)CCCN1CCN(c2ccccc2F)CC1 (nonaromatic ring conformer: 94.39483857270602 kcal/mol)

>  <smiles>  (20) 
CCN(Cc1ccsc1)C(=O)CCCN1CCN(c2ccccc2F)CC1

>  <score_type>  (20) 
oracle

>  <origin>  (20) 
adg

>  <m_score__min__energy>  (20) 
-8.3300000000000001

>  <m_primary>  (20) 
energy

$$$$
20:0
     RDKit          3D

 35 38  0  0  0  0  0  0  0  0999 V2000
   -0.7210   24.7230  -26.6100 F   0  0  0  0  0  0  0  0  0  0  0  0
   -1.8310   24.5260  -27.3640 C   0  0  0  0  0  0  0  0  0  0  0  0
   -3.0940   24.5410  -26.7660 C   0  0  0  0  0  0  0  0  0  0  0  0
   -4.2390   24.3370  -27.5410 C   0  0  0  0  0  0  0  0  0  0  0  0
   -4.1350   24.1150  -28.9280 C   0  0  0  0  0  0  0  0  0  0  0  0
   -5.3600   23.9010  -29.7360 C   0  0  0  0  0  0  0  0  0  0  0  0
   -6.3160   24.8480  -30.0730 C   0  0  0  0  0  0  0  0  0  0  0  0
   -7.2420   24.1580  -30.8240 C   0  0  0  0  0  0  0  0  0  0  0  0
   -6.8450   22.8710  -30.9210 N   0  0  0  0  0  0  0  0  0  0  0  0
   -7.5070   21.7940  -31.6090 C   0  0  0  0  0  0  0  0  0  0  0  0
   -8.9030   21.6830  -31.6510 C   0  0  0  0  0  0  0  0  0  0  0  0
   -9.4700   20.6130  -32.3390 C   0  0  0  0  0  0  0  0  0  0  0  0
   -8.6770   19.6970  -32.9550 N   0  0  0  0  0  0  0  0  0  0  0  0
   -7.3170   19.8100  -32.9110 C   0  0  0  0  0  0  0  0  0  0  0  0
   -6.4620   18.8500  -33.5580 N   0  0  0  0  0  0  0  0  0  0  0  0
   -5.1930   19.0250  -33.9800 C   0  0  0  0  0  0  0  0  0  0  0  0
   -4.7520   17.8470  -34.5420 C   0  0  0  0  0  0  0  0  0  0  0  0
   -5.8200   16.9810  -34.4280 C   0  0  0  0  0  0  0  0  0  0  0  0
   -6.8470   17.6110  -33.8270 N   0  0  0  0  0  0  0  0  0  0  0  0
   -6.7550   20.8520  -32.2420 N   0  0  0  0  0  0  0  0  0  0  0  0
   -5.7080   22.7110  -30.2640 N   0  0  0  0  0  0  0  0  0  0  0  0
   -2.8560   24.1020  -29.5180 C   0  0  0  0  0  0  0  0  0  0  0  0
   -1.7130   24.3060  -28.7380 C   0  0  0  0  0  0  0  0  0  0  0  0
   -3.1871   24.7136  -25.6836 H   0  0  0  0  0  0  0  0  0  0  0  0
   -5.2299   24.3499  -27.0637 H   0  0  0  0  0  0  0  0  0  0  0  0
   -6.3313   25.9137  -29.8009 H   0  0  0  0  0  0  0  0  0  0  0  0
   -8.1527   24.5842  -31.2701 H   0  0  0  0  0  0  0  0  0  0  0  0
   -9.5394   22.4272  -31.1499 H   0  0  0  0  0  0  0  0  0  0  0  0
  -10.5641   20.5088  -32.3840 H   0  0  0  0  0  0  0  0  0  0  0  0
   -9.1400   18.9100  -33.4590 H   0  0  0  0  0  0  0  0  0  0  0  0
   -4.6084   19.9525  -33.8905 H   0  0  0  0  0  0  0  0  0  0  0  0
   -3.7658   17.6421  -34.9841 H   0  0  0  0  0  0  0  0  0  0  0  0
   -5.8308   15.9371  -34.7746 H   0  0  0  0  0  0  0  0  0  0  0  0
   -2.7554   23.9302  -30.5998 H   0  0  0  0  0  0  0  0  0  0  0  0
   -0.7186   24.2931  -29.2081 H   0  0  0  0  0  0  0  0  0  0  0  0
  1  2  1  0
  2  3  2  0
  3  4  1  0
  4  5  2  0
  5  6  1  0
  6  7  1  0
  7  8  2  0
  8  9  1  0
  9 10  1  0
 10 11  2  0
 11 12  1  0
 12 13  2  0
 13 14  1  0
 14 15  1  0
 15 16  1  0
 16 17  2  0
 17 18  1  0
 18 19  2  0
 14 20  2  0
  9 21  1  0
  5 22  1  0
 22 23  2  0
 23  2  1  0
 21  6  2  0
 20 10  1  0
 19 15  1  0
  3 24  1  0
  4 25  1  0
  7 26  1  0
  8 27  1  0
 11 28  1  0
 12 29  1  0
 13 30  1  0
 16 31  1  0
 17 32  1  0
 18 33  1  0
 22 34  1  0
 23 35  1  0
M  CHG  1  13   1
M  END
>  <UniqueID>  (21) 
20

>  <SMILES>  (21) 
Fc1ccc(-c2ccn(-c3cc[nH+]c(-n4cccn4)n3)n2)cc1

>  <Energy>  (21) 
103.38501370987215

>  <Genealogy>  (21) 
Fc1ccc(-c2ccn(-c3cc[nH+]c(-n4cccn4)n3)n2)cc1 (protonated)
Fc1ccc(-c2ccn(-c3cc[nH+]c(-n4cccn4)n3)n2)cc1 (3D coordinates assigned)
Fc1ccc(-c2ccn(-c3cc[nH+]c(-n4cccn4)n3)n2)cc1 (optimized conformer: 103.38501370987215 kcal/mol)

>  <smiles>  (21) 
Fc1ccc(-c2ccn(-c3ccnc(-n4cccn4)n3)n2)cc1

>  <score_type>  (21) 
oracle

>  <origin>  (21) 
adg

>  <m_score__min__energy>  (21) 
-7.46

>  <m_primary>  (21) 
energy

$$$$
21:0
     RDKit          3D

 21 21  0  0  0  0  0  0  0  0999 V2000
   -5.7980   20.8390  -32.9080 C   0  0  0  0  0  0  0  0  0  0  0  0
   -6.0000   22.0290  -32.0240 C   0  0  0  0  0  0  0  0  0  0  0  0
   -5.1250   23.0590  -31.9730 N   0  0  0  0  0  0  0  0  0  0  0  0
   -5.6690   23.8920  -31.0630 C   0  0  0  0  0  0  0  0  0  0  0  0
   -5.0840   25.1390  -30.6830 N   0  0  0  0  0  0  0  0  0  0  0  0
   -3.8600   25.3360  -30.8320 O   0  0  0  0  0  0  0  0  0  0  0  0
   -5.8700   26.1330  -30.1500 O   0  0  0  0  0  0  0  0  0  0  0  0
   -6.8470   23.3710  -30.5730 C   0  0  0  0  0  0  0  0  0  0  0  0
   -7.0450   22.1880  -31.1790 N   0  0  0  0  0  0  0  0  0  0  0  0
   -8.2030   21.3100  -30.9980 C   0  0  0  0  0  0  0  0  0  0  0  0
   -8.9680   21.1420  -32.3130 C   0  0  0  0  0  0  0  0  0  0  0  0
   -8.6960   19.8960  -32.8930 O   0  0  0  0  0  0  0  0  0  0  0  0
   -5.6459   19.9432  -32.2880 H   0  0  0  0  0  0  0  0  0  0  0  0
   -6.6852   20.6991  -33.5430 H   0  0  0  0  0  0  0  0  0  0  0  0
   -4.9143   20.9997  -33.5430 H   0  0  0  0  0  0  0  0  0  0  0  0
   -7.5039   23.8374  -29.8241 H   0  0  0  0  0  0  0  0  0  0  0  0
   -7.8578   20.3242  -30.6530 H   0  0  0  0  0  0  0  0  0  0  0  0
   -8.8754   21.7619  -30.2540 H   0  0  0  0  0  0  0  0  0  0  0  0
  -10.0472   21.2191  -32.1144 H   0  0  0  0  0  0  0  0  0  0  0  0
   -8.6485   21.9314  -33.0092 H   0  0  0  0  0  0  0  0  0  0  0  0
   -8.7610   20.0190  -33.8760 H   0  0  0  0  0  0  0  0  0  0  0  0
  1  2  1  0
  2  3  2  0
  3  4  1  0
  4  5  1  0
  5  6  2  0
  5  7  1  0
  4  8  2  0
  8  9  1  0
  9 10  1  0
 10 11  1  0
 11 12  1  0
  9  2  1  0
  1 13  1  0
  1 14  1  0
  1 15  1  0
  8 16  1  0
 10 17  1  0
 10 18  1  0
 11 19  1  0
 11 20  1  0
 12 21  1  0
M  CHG  2   5   1   7  -1
M  END
>  <UniqueID>  (22) 
21

>  <SMILES>  (22) 
Cc1nc([N+](=O)[O-])cn1CCO

>  <Energy>  (22) 
44.02861929307828

>  <Genealogy>  (22) 
Cc1nc([N+](=O)[O-])cn1CCO (3D coordinates assigned)
Cc1nc([N+](=O)[O-])cn1CCO (optimized conformer: 44.02861929307828 kcal/mol)

>  <smiles>  (22) 
Cc1nc([N+](=O)[O-])cn1CCO

>  <score_type>  (22) 
oracle

>  <origin>  (22) 
adg

>  <m_score__min__energy>  (22) 
-5.6299999999999999

>  <m_primary>  (22) 
energy

$$$$
22:0
     RDKit          3D

 54 56  0  0  0  0  0  0  0  0999 V2000
   -0.2100   28.0900  -26.8670 C   0  0  0  0  0  0  0  0  0  0  0  0
   -1.2410   27.7210  -25.8040 C   0  0  0  0  0  0  0  0  0  0  0  0
   -1.0090   26.3210  -25.2940 C   0  0  0  0  0  0  0  0  0  0  0  0
   -1.3640   25.1330  -25.9340 C   0  0  0  0  0  0  0  0  0  0  0  0
   -2.0660   24.9630  -27.2580 C   0  0  0  0  0  0  0  0  0  0  0  0
   -3.4590   24.5210  -27.0960 N   0  0  0  0  0  0  0  0  0  0  0  0
   -3.8070   23.3280  -27.8890 C   0  0  0  0  0  0  0  0  0  0  0  0
   -4.6240   23.6500  -29.1200 C   0  0  0  0  0  0  0  0  0  0  0  0
   -4.5660   24.9250  -29.7000 C   0  0  0  0  0  0  0  0  0  0  0  0
   -5.3370   25.2030  -30.8280 C   0  0  0  0  0  0  0  0  0  0  0  0
   -6.1450   24.2460  -31.3530 N   0  0  0  0  0  0  0  0  0  0  0  0
   -6.2360   22.9970  -30.8180 C   0  0  0  0  0  0  0  0  0  0  0  0
   -7.1390   22.0330  -31.3970 N   0  0  0  0  0  0  0  0  0  0  0  0
   -8.5220   22.4360  -31.6920 C   0  0  0  0  0  0  0  0  0  0  0  0
   -9.4780   21.2540  -31.5050 C   0  0  0  0  0  0  0  0  0  0  0  0
   -8.9990   20.0340  -32.2980 C   0  0  0  0  0  0  0  0  0  0  0  0
   -7.5710   19.6550  -31.8930 C   0  0  0  0  0  0  0  0  0  0  0  0
   -6.6180   20.8400  -32.0820 C   0  0  0  0  0  0  0  0  0  0  0  0
   -5.4780   22.6850  -29.6750 C   0  0  0  0  0  0  0  0  0  0  0  0
   -0.7950   24.1310  -25.1560 C   0  0  0  0  0  0  0  0  0  0  0  0
   -0.7330   22.6700  -25.4800 C   0  0  0  0  0  0  0  0  0  0  0  0
   -0.1440   24.6970  -24.1210 N   0  0  0  0  0  0  0  0  0  0  0  0
   -0.2760   26.0120  -24.2000 N   0  0  0  0  0  0  0  0  0  0  0  0
    0.3610   26.9500  -23.2770 C   0  0  0  0  0  0  0  0  0  0  0  0
    0.7178   28.4221  -26.3783 H   0  0  0  0  0  0  0  0  0  0  0  0
    0.0003   27.2113  -27.4945 H   0  0  0  0  0  0  0  0  0  0  0  0
   -0.6050   28.9026  -27.4945 H   0  0  0  0  0  0  0  0  0  0  0  0
   -1.1622   28.4279  -24.9649 H   0  0  0  0  0  0  0  0  0  0  0  0
   -2.2435   27.7700  -26.2541 H   0  0  0  0  0  0  0  0  0  0  0  0
   -2.0596   25.9266  -27.7885 H   0  0  0  0  0  0  0  0  0  0  0  0
   -1.5303   24.1888  -27.8270 H   0  0  0  0  0  0  0  0  0  0  0  0
   -4.0900   25.3100  -27.3670 H   0  0  0  0  0  0  0  0  0  0  0  0
   -2.8762   22.8349  -28.2060 H   0  0  0  0  0  0  0  0  0  0  0  0
   -4.4213   22.6774  -27.2493 H   0  0  0  0  0  0  0  0  0  0  0  0
   -3.9167   25.7008  -29.2681 H   0  0  0  0  0  0  0  0  0  0  0  0
   -5.2907   26.1987  -31.2932 H   0  0  0  0  0  0  0  0  0  0  0  0
   -8.8148   23.2492  -31.0116 H   0  0  0  0  0  0  0  0  0  0  0  0
   -8.5777   22.7761  -32.7366 H   0  0  0  0  0  0  0  0  0  0  0  0
   -9.5249   20.9940  -30.4372 H   0  0  0  0  0  0  0  0  0  0  0  0
  -10.4730   21.5445  -31.8733 H   0  0  0  0  0  0  0  0  0  0  0  0
   -9.6694   19.1855  -32.0961 H   0  0  0  0  0  0  0  0  0  0  0  0
   -9.0102   20.2808  -33.3699 H   0  0  0  0  0  0  0  0  0  0  0  0
   -7.5646   19.3524  -30.8355 H   0  0  0  0  0  0  0  0  0  0  0  0
   -7.2324   18.8255  -32.5312 H   0  0  0  0  0  0  0  0  0  0  0  0
   -5.6335   20.5833  -31.6639 H   0  0  0  0  0  0  0  0  0  0  0  0
   -6.5281   21.0570  -33.1566 H   0  0  0  0  0  0  0  0  0  0  0  0
   -5.5545   21.6875  -29.2176 H   0  0  0  0  0  0  0  0  0  0  0  0
   -0.7083   22.0882  -24.5468 H   0  0  0  0  0  0  0  0  0  0  0  0
   -1.6199   22.3863  -26.0656 H   0  0  0  0  0  0  0  0  0  0  0  0
    0.1748   22.4625  -26.0656 H   0  0  0  0  0  0  0  0  0  0  0  0
    0.4170   24.1940  -23.3960 H   0  0  0  0  0  0  0  0  0  0  0  0
    0.1529   26.6436  -22.2412 H   0  0  0  0  0  0  0  0  0  0  0  0
    1.4477   26.9515  -23.4477 H   0  0  0  0  0  0  0  0  0  0  0  0
   -0.0383   27.9606  -23.4477 H   0  0  0  0  0  0  0  0  0  0  0  0
  1  2  1  0
  2  3  1  0
  3  4  2  0
  4  5  1  0
  5  6  1  0
  6  7  1  0
  7  8  1  0
  8  9  2  0
  9 10  1  0
 10 11  2  0
 11 12  1  0
 12 13  1  0
 13 14  1  0
 14 15  1  0
 15 16  1  0
 16 17  1  0
 17 18  1  0
 12 19  2  0
  4 20  1  0
 20 21  1  0
 20 22  2  0
 22 23  1  0
 23 24  1  0
 23  3  1  0
 19  8  1  0
 18 13  1  0
  1 25  1  0
  1 26  1  0
  1 27  1  0
  2 28  1  0
  2 29  1  0
  5 30  1  0
  5 31  1  0
  6 32  1  0
  7 33  1  0
  7 34  1  0
  9 35  1  0
 10 36  1  0
 14 37  1  0
 14 38  1  0
 15 39  1  0
 15 40  1  0
 16 41  1  0
 16 42  1  0
 17 43  1  0
 17 44  1  0
 18 45  1  0
 18 46  1  0
 19 47  1  0
 21 48  1  0
 21 49  1  0
 21 50  1  0
 22 51  1  0
 24 52  1  0
 24 53  1  0
 24 54  1  0
M  CHG  1  22   1
M  END
>  <UniqueID>  (23) 
22

>  <SMILES>  (23) 
CCc1c(CNCc2ccnc(N3CCCCC3)c2)c(C)[nH+]n1C

>  <Energy>  (23) 
77.9010671462594

>  <Genealogy>  (23) 
CCc1c(CNCc2ccnc(N3CCCCC3)c2)c(C)[nH+]n1C (protonated)
CCc1c(CNCc2ccnc(N3CCCCC3)c2)c(C)[nH+]n1C (3D coordinates assigned)
CCc1c(CNCc2ccnc(N3CCCCC3)c2)c(C)[nH+]n1C (nonaromatic ring conformer: 77.9010671462594 kcal/mol)

>  <smiles>  (23) 
CCc1c(CNCc2ccnc(N3CCCCC3)c2)c(C)nn1C

>  <score_type>  (23) 
oracle

>  <origin>  (23) 
adg

>  <m_score__min__energy>  (23) 
-8.5700000000000003

>  <m_primary>  (23) 
energy

$$$$
23:0
     RDKit          3D

 46 49  0  0  0  0  0  0  0  0999 V2000
   -5.3590   25.5870  -30.3320 C   0  0  0  0  0  0  0  0  0  0  0  0
   -3.9390   25.4640  -30.3440 O   0  0  0  0  0  0  0  0  0  0  0  0
   -3.2400   24.3290  -29.9100 C   0  0  0  0  0  0  0  0  0  0  0  0
   -2.1050   24.4110  -29.0790 C   0  0  0  0  0  0  0  0  0  0  0  0
   -1.4370   23.2510  -28.6810 C   0  0  0  0  0  0  0  0  0  0  0  0
   -1.9020   21.9970  -29.0930 C   0  0  0  0  0  0  0  0  0  0  0  0
   -3.0330   21.9010  -29.9180 C   0  0  0  0  0  0  0  0  0  0  0  0
   -3.6890   23.0700  -30.3310 C   0  0  0  0  0  0  0  0  0  0  0  0
   -3.4210   20.5570  -30.4850 C   0  0  0  0  0  0  0  0  0  0  0  0
   -2.5540   20.1550  -31.6190 N   0  0  2  0  0  0  0  0  0  0  0  0
   -3.5140   19.3370  -32.8390 S   0  0  0  0  0  0  0  0  0  0  0  0
   -2.9920   17.9370  -33.0100 O   0  0  0  0  0  0  0  0  0  0  0  0
   -3.3590   20.0710  -34.1420 O   0  0  0  0  0  0  0  0  0  0  0  0
   -5.2440   19.2140  -32.4190 C   0  0  0  0  0  0  0  0  0  0  0  0
   -5.8280   17.9400  -32.2960 C   0  0  0  0  0  0  0  0  0  0  0  0
   -7.1590   17.7930  -31.9110 C   0  0  0  0  0  0  0  0  0  0  0  0
   -7.9470   18.9110  -31.6620 C   0  0  0  0  0  0  0  0  0  0  0  0
   -7.4190   20.1960  -31.8320 C   0  0  0  0  0  0  0  0  0  0  0  0
   -8.2380   21.3170  -31.6190 C   0  0  0  0  0  0  0  0  0  0  0  0
   -7.7390   22.6020  -31.8270 C   0  0  0  0  0  0  0  0  0  0  0  0
   -6.4270   22.7790  -32.2620 C   0  0  0  0  0  0  0  0  0  0  0  0
   -5.5960   21.6760  -32.4730 C   0  0  0  0  0  0  0  0  0  0  0  0
   -6.0650   20.3640  -32.2390 C   0  0  0  0  0  0  0  0  0  0  0  0
   -1.3210   19.3930  -31.2600 C   0  0  0  0  0  0  0  0  0  0  0  0
   -0.3590   20.0300  -30.2120 C   0  0  0  0  0  0  0  0  0  0  0  0
   -1.0450   20.5060  -28.5740 S   0  0  0  0  0  0  0  0  0  0  0  0
   -5.7156   25.6179  -29.2919 H   0  0  0  0  0  0  0  0  0  0  0  0
   -5.6511   26.5138  -30.8474 H   0  0  0  0  0  0  0  0  0  0  0  0
   -5.8061   24.7242  -30.8474 H   0  0  0  0  0  0  0  0  0  0  0  0
   -1.7433   25.3937  -28.7421 H   0  0  0  0  0  0  0  0  0  0  0  0
   -0.5440   23.3231  -28.0427 H   0  0  0  0  0  0  0  0  0  0  0  0
   -4.5651   22.9978  -30.9923 H   0  0  0  0  0  0  0  0  0  0  0  0
   -3.3386   19.8005  -29.6907 H   0  0  0  0  0  0  0  0  0  0  0  0
   -4.4523   20.6340  -30.8597 H   0  0  0  0  0  0  0  0  0  0  0  0
   -2.2320   21.0500  -32.0550 H   0  0  0  0  0  0  0  0  0  0  0  0
   -5.2239   17.0453  -32.5072 H   0  0  0  0  0  0  0  0  0  0  0  0
   -7.5889   16.7862  -31.8034 H   0  0  0  0  0  0  0  0  0  0  0  0
   -8.9883   18.7853  -31.3305 H   0  0  0  0  0  0  0  0  0  0  0  0
   -9.2776   21.1804  -31.2866 H   0  0  0  0  0  0  0  0  0  0  0  0
   -8.3813   23.4768  -31.6476 H   0  0  0  0  0  0  0  0  0  0  0  0
   -6.0430   23.7942  -32.4405 H   0  0  0  0  0  0  0  0  0  0  0  0
   -4.5654   21.8307  -32.8251 H   0  0  0  0  0  0  0  0  0  0  0  0
   -1.6404   18.4179  -30.8637 H   0  0  0  0  0  0  0  0  0  0  0  0
   -0.7352   19.3549  -32.1903 H   0  0  0  0  0  0  0  0  0  0  0  0
    0.4484   19.3058  -30.0288 H   0  0  0  0  0  0  0  0  0  0  0  0
   -0.0562   20.9847  -30.6669 H   0  0  0  0  0  0  0  0  0  0  0  0
  1  2  1  0
  2  3  1  0
  3  4  2  0
  4  5  1  0
  5  6  2  0
  6  7  1  0
  7  8  2  0
  7  9  1  0
  9 10  1  0
 10 11  1  0
 11 12  2  0
 11 13  2  0
 11 14  1  0
 14 15  2  0
 15 16  1  0
 16 17  2  0
 17 18  1  0
 18 19  2  0
 19 20  1  0
 20 21  2  0
 21 22  1  0
 22 23  2  0
 10 24  1  0
 24 25  1  0
 25 26  1  0
  8  3  1  0
 23 14  1  0
 26  6  1  0
 23 18  1  0
  1 27  1  0
  1 28  1  0
  1 29  1  0
  4 30  1  0
  5 31  1  0
  8 32  1  0
  9 33  1  0
  9 34  1  0
 10 35  1  6
 15 36  1  0
 16 37  1  0
 17 38  1  0
 19 39  1  0
 20 40  1  0
 21 41  1  0
 22 42  1  0
 24 43  1  0
 24 44  1  0
 25 45  1  0
 25 46  1  0
M  CHG  1  10   1
M  END
>  <UniqueID>  (24) 
23

>  <SMILES>  (24) 
COc1ccc2c(c1)C[N@H+](S(=O)(=O)c1cccc3ccccc13)CCS2

>  <Energy>  (24) 
72.4377432932099

>  <Genealogy>  (24) 
COc1ccc2c(c1)C[NH+](S(=O)(=O)c1cccc3ccccc13)CCS2 (protonated)
COc1ccc2c(c1)C[N@H+](S(=O)(=O)c1cccc3ccccc13)CCS2 (chirality)
COc1ccc2c(c1)C[N@H+](S(=O)(=O)c1cccc3ccccc13)CCS2 (3D coordinates assigned)
COc1ccc2c(c1)C[N@H+](S(=O)(=O)c1cccc3ccccc13)CCS2 (nonaromatic ring conformer: 72.4377432932099 kcal/mol)

>  <smiles>  (24) 
COc1ccc2c(c1)CN(S(=O)(=O)c1cccc3ccccc13)CCS2

>  <score_type>  (24) 
oracle

>  <origin>  (24) 
adg

>  <m_score__min__energy>  (24) 
-7.1100000000000003

>  <m_primary>  (24) 
energy

$$$$
24:0
     RDKit          3D

 48 50  0  0  0  0  0  0  0  0999 V2000
    0.0280   20.1940  -32.3310 C   0  0  0  0  0  0  0  0  0  0  0  0
   -1.2700   20.1300  -32.9150 O   0  0  0  0  0  0  0  0  0  0  0  0
   -2.4080   20.7580  -32.3870 C   0  0  0  0  0  0  0  0  0  0  0  0
   -3.1120   21.6530  -33.2010 C   0  0  0  0  0  0  0  0  0  0  0  0
   -4.2540   22.3020  -32.7230 C   0  0  0  0  0  0  0  0  0  0  0  0
   -4.7090   22.0660  -31.4170 C   0  0  0  0  0  0  0  0  0  0  0  0
   -5.8800   22.7460  -30.9250 N   0  0  0  0  0  0  0  0  0  0  0  0
   -5.7580   23.8690  -29.9860 C   0  0  0  0  0  0  0  0  0  0  0  0
   -4.3570   24.4230  -29.9860 C   0  0  0  0  0  0  0  0  0  0  0  0
   -4.0470   25.3010  -30.8380 O   0  0  0  0  0  0  0  0  0  0  0  0
   -3.3910   24.0260  -28.9950 N   0  0  0  0  0  0  0  0  0  0  0  0
   -2.0640   24.6130  -28.9150 C   0  0  0  0  0  0  0  0  0  0  0  0
   -1.4710   24.1130  -27.6050 C   0  0  0  0  0  0  0  0  0  0  0  0
   -2.3270   22.9210  -27.1820 C   0  0  0  0  0  0  0  0  0  0  0  0
   -3.6420   23.0590  -27.9400 C   0  0  0  0  0  0  0  0  0  0  0  0
   -7.4590   22.2500  -31.4590 S   0  0  0  0  0  0  0  0  0  0  0  0
   -7.9400   23.1530  -32.5580 O   0  0  0  0  0  0  0  0  0  0  0  0
   -8.4190   22.3300  -30.3060 O   0  0  0  0  0  0  0  0  0  0  0  0
   -7.3810   20.6080  -32.0930 C   0  0  0  0  0  0  0  0  0  0  0  0
   -8.0800   19.5630  -31.4700 C   0  0  0  0  0  0  0  0  0  0  0  0
   -7.9870   18.2610  -31.9720 C   0  0  0  0  0  0  0  0  0  0  0  0
   -7.1950   17.9970  -33.0950 C   0  0  0  0  0  0  0  0  0  0  0  0
   -6.4940   19.0370  -33.7160 C   0  0  0  0  0  0  0  0  0  0  0  0
   -6.5870   20.3390  -33.2160 C   0  0  0  0  0  0  0  0  0  0  0  0
   -4.0000   21.1750  -30.5950 C   0  0  0  0  0  0  0  0  0  0  0  0
   -2.8610   20.5220  -31.0750 C   0  0  0  0  0  0  0  0  0  0  0  0
   -0.0625   20.1895  -31.2347 H   0  0  0  0  0  0  0  0  0  0  0  0
    0.6186   19.3239  -32.6537 H   0  0  0  0  0  0  0  0  0  0  0  0
    0.5301   21.1180  -32.6537 H   0  0  0  0  0  0  0  0  0  0  0  0
   -2.7634   21.8474  -34.2260 H   0  0  0  0  0  0  0  0  0  0  0  0
   -4.7988   23.0014  -33.3742 H   0  0  0  0  0  0  0  0  0  0  0  0
   -6.4589   24.6633  -30.2822 H   0  0  0  0  0  0  0  0  0  0  0  0
   -5.9916   23.5066  -28.9740 H   0  0  0  0  0  0  0  0  0  0  0  0
   -1.4476   24.2850  -29.7650 H   0  0  0  0  0  0  0  0  0  0  0  0
   -2.1032   25.7117  -28.9499 H   0  0  0  0  0  0  0  0  0  0  0  0
   -0.4269   23.8001  -27.7531 H   0  0  0  0  0  0  0  0  0  0  0  0
   -1.4701   24.9006  -26.8371 H   0  0  0  0  0  0  0  0  0  0  0  0
   -1.8283   21.9779  -27.4501 H   0  0  0  0  0  0  0  0  0  0  0  0
   -2.4884   22.9064  -26.0940 H   0  0  0  0  0  0  0  0  0  0  0  0
   -3.9396   22.0913  -28.3702 H   0  0  0  0  0  0  0  0  0  0  0  0
   -4.4585   23.3842  -27.2785 H   0  0  0  0  0  0  0  0  0  0  0  0
   -8.7017   19.7680  -30.5860 H   0  0  0  0  0  0  0  0  0  0  0  0
   -8.5372   17.4433  -31.4834 H   0  0  0  0  0  0  0  0  0  0  0  0
   -7.1234   16.9727  -33.4895 H   0  0  0  0  0  0  0  0  0  0  0  0
   -5.8698   18.8298  -34.5977 H   0  0  0  0  0  0  0  0  0  0  0  0
   -6.0352   21.1550  -33.7055 H   0  0  0  0  0  0  0  0  0  0  0  0
   -4.3433   20.9897  -29.5665 H   0  0  0  0  0  0  0  0  0  0  0  0
   -2.3166   19.8211  -30.4252 H   0  0  0  0  0  0  0  0  0  0  0  0
  1  2  1  0
  2  3  1  0
  3  4  2  0
  4  5  1  0
  5  6  2  0
  6  7  1  0
  7  8  1  0
  8  9  1  0
  9 10  2  0
  9 11  1  0
 11 12  1  0
 12 13  1  0
 13 14  1  0
 14 15  1  0
  7 16  1  0
 16 17  2  0
 16 18  2  0
 16 19  1  0
 19 20  2  0
 20 21  1  0
 21 22  2  0
 22 23  1  0
 23 24  2  0
  6 25  1  0
 25 26  2  0
 26  3  1  0
 15 11  1  0
 24 19  1  0
  1 27  1  0
  1 28  1  0
  1 29  1  0
  4 30  1  0
  5 31  1  0
  8 32  1  0
  8 33  1  0
 12 34  1  0
 12 35  1  0
 13 36  1  0
 13 37  1  0
 14 38  1  0
 14 39  1  0
 15 40  1  0
 15 41  1  0
 20 42  1  0
 21 43  1  0
 22 44  1  0
 23 45  1  0
 24 46  1  0
 25 47  1  0
 26 48  1  0
M  END
>  <UniqueID>  (25) 
24

>  <SMILES>  (25) 
COc1ccc(N(CC(=O)N2CCCC2)S(=O)(=O)c2ccccc2)cc1

>  <Energy>  (25) 
52.00706179026617

>  <Genealogy>  (25) 
COc1ccc(N(CC(=O)N2CCCC2)S(=O)(=O)c2ccccc2)cc1 (3D coordinates assigned)
COc1ccc(N(CC(=O)N2CCCC2)S(=O)(=O)c2ccccc2)cc1 (nonaromatic ring conformer: 52.00706179026617 kcal/mol)

>  <smiles>  (25) 
COc1ccc(N(CC(=O)N2CCCC2)S(=O)(=O)c2ccccc2)cc1

>  <score_type>  (25) 
oracle

>  <origin>  (25) 
adg

>  <m_score__min__energy>  (25) 
-8.5700000000000003

>  <m_primary>  (25) 
energy

$$$$
25:0
     RDKit          3D

 33 35  0  0  0  0  0  0  0  0999 V2000
   -2.6550   24.5320  -28.4450 C   0  0  0  0  0  0  0  0  0  0  0  0
   -3.1330   24.9960  -29.7030 O   0  0  0  0  0  0  0  0  0  0  0  0
   -4.1160   24.3470  -30.4660 C   0  0  0  0  0  0  0  0  0  0  0  0
   -5.4270   24.8460  -30.5900 C   0  0  0  0  0  0  0  0  0  0  0  0
   -6.3710   24.1620  -31.3610 C   0  0  0  0  0  0  0  0  0  0  0  0
   -6.0220   22.9670  -32.0160 C   0  0  0  0  0  0  0  0  0  0  0  0
   -6.9380   22.2460  -32.7990 O   0  0  0  0  0  0  0  0  0  0  0  0
   -7.4520   20.9890  -32.4560 C   0  0  0  0  0  0  0  0  0  0  0  0
   -8.5740   20.9340  -31.6220 C   0  0  0  0  0  0  0  0  0  0  0  0
   -9.1060   19.7050  -31.2280 C   0  0  0  0  0  0  0  0  0  0  0  0
   -8.5300   18.5140  -31.6730 C   0  0  0  0  0  0  0  0  0  0  0  0
   -7.4220   18.5470  -32.5320 C   0  0  0  0  0  0  0  0  0  0  0  0
   -6.8460   17.3600  -33.0040 C   0  0  0  0  0  0  0  0  0  0  0  0
   -5.7870   17.4030  -33.8550 N   0  0  0  0  0  0  0  0  0  0  0  0
   -5.2610   18.5830  -34.2790 C   0  0  0  0  0  0  0  0  0  0  0  0
   -5.7970   19.7930  -33.8370 C   0  0  0  0  0  0  0  0  0  0  0  0
   -6.8800   19.7890  -32.9410 C   0  0  0  0  0  0  0  0  0  0  0  0
   -4.7160   22.4800  -31.8990 C   0  0  0  0  0  0  0  0  0  0  0  0
   -3.7720   23.1640  -31.1280 C   0  0  0  0  0  0  0  0  0  0  0  0
   -3.1895   25.0509  -27.6356 H   0  0  0  0  0  0  0  0  0  0  0  0
   -2.8286   23.4488  -28.3636 H   0  0  0  0  0  0  0  0  0  0  0  0
   -1.5775   24.7377  -28.3636 H   0  0  0  0  0  0  0  0  0  0  0  0
   -5.7092   25.7778  -30.0780 H   0  0  0  0  0  0  0  0  0  0  0  0
   -7.3920   24.5601  -31.4561 H   0  0  0  0  0  0  0  0  0  0  0  0
   -9.0409   21.8671  -31.2738 H   0  0  0  0  0  0  0  0  0  0  0  0
   -9.9826   19.6750  -30.5642 H   0  0  0  0  0  0  0  0  0  0  0  0
   -8.9457   17.5483  -31.3495 H   0  0  0  0  0  0  0  0  0  0  0  0
   -7.2526   16.3892  -32.6844 H   0  0  0  0  0  0  0  0  0  0  0  0
   -5.3720   16.5070  -34.1990 H   0  0  0  0  0  0  0  0  0  0  0  0
   -4.4085   18.5837  -34.9741 H   0  0  0  0  0  0  0  0  0  0  0  0
   -5.3740   20.7458  -34.1881 H   0  0  0  0  0  0  0  0  0  0  0  0
   -4.4301   21.5527  -32.4171 H   0  0  0  0  0  0  0  0  0  0  0  0
   -2.7493   22.7683  -31.0411 H   0  0  0  0  0  0  0  0  0  0  0  0
  1  2  1  0
  2  3  1  0
  3  4  2  0
  4  5  1  0
  5  6  2  0
  6  7  1  0
  7  8  1  0
  8  9  2  0
  9 10  1  0
 10 11  2  0
 11 12  1  0
 12 13  2  0
 13 14  1  0
 14 15  2  0
 15 16  1  0
 16 17  2  0
  6 18  1  0
 18 19  2  0
 19  3  1  0
 17  8  1  0
 17 12  1  0
  1 20  1  0
  1 21  1  0
  1 22  1  0
  4 23  1  0
  5 24  1  0
  9 25  1  0
 10 26  1  0
 11 27  1  0
 13 28  1  0
 14 29  1  0
 15 30  1  0
 16 31  1  0
 18 32  1  0
 19 33  1  0
M  CHG  1  14   1
M  END
>  <UniqueID>  (26) 
25

>  <SMILES>  (26) 
COc1ccc(Oc2cccc3c[nH+]ccc23)cc1

>  <Energy>  (26) 
47.151176219790486

>  <Genealogy>  (26) 
COc1ccc(Oc2cccc3c[nH+]ccc23)cc1 (protonated)
COc1ccc(Oc2cccc3c[nH+]ccc23)cc1 (3D coordinates assigned)
COc1ccc(Oc2cccc3c[nH+]ccc23)cc1 (optimized conformer: 47.151176219790486 kcal/mol)

>  <smiles>  (26) 
COc1ccc(Oc2cccc3cnccc23)cc1

>  <score_type>  (26) 
oracle

>  <origin>  (26) 
adg

>  <m_score__min__energy>  (26) 
-7.1500000000000004

>  <m_primary>  (26) 
energy

$$$$
26:0
     RDKit          3D

 51 55  0  0  0  0  0  0  0  0999 V2000
    4.3380   24.8980  -23.9820 O   0  0  0  0  0  0  0  0  0  0  0  0
    3.4700   24.5450  -24.8240 C   0  0  0  0  0  0  0  0  0  0  0  0
    2.1180   24.5270  -24.4730 C   0  0  0  0  0  0  0  0  0  0  0  0
    1.1710   24.1280  -25.4190 C   0  0  0  0  0  0  0  0  0  0  0  0
    1.5730   23.7580  -26.7130 C   0  0  0  0  0  0  0  0  0  0  0  0
    0.5630   23.3160  -27.7090 C   0  0  0  0  0  0  0  0  0  0  0  0
   -0.0850   22.0770  -27.6090 C   0  0  0  0  0  0  0  0  0  0  0  0
   -1.0280   21.7200  -28.5690 C   0  0  0  0  0  0  0  0  0  0  0  0
   -1.3120   22.6000  -29.6160 C   0  0  0  0  0  0  0  0  0  0  0  0
   -2.2850   22.2510  -30.6190 N   0  0  0  0  0  0  0  0  0  0  0  0
   -1.8470   21.8450  -31.9570 C   0  0  0  0  0  0  0  0  0  0  0  0
   -2.7880   20.7750  -32.5220 C   0  0  0  0  0  0  0  0  0  0  0  0
   -4.2550   21.2430  -32.4760 C   0  0  0  0  0  0  0  0  0  0  0  0
   -5.2240   20.2560  -33.0100 N   0  0  0  0  0  0  0  0  0  0  0  0
   -4.7230   18.9420  -33.4550 C   0  0  0  0  0  0  0  0  0  0  0  0
   -5.7000   17.8750  -32.9250 C   0  0  0  0  0  0  0  0  0  0  0  0
   -6.8480   18.6850  -32.4680 C   0  0  0  0  0  0  0  0  0  0  0  0
   -8.1100   18.2200  -32.0910 C   0  0  0  0  0  0  0  0  0  0  0  0
   -9.1130   19.1560  -31.8080 C   0  0  0  0  0  0  0  0  0  0  0  0
   -8.8510   20.5290  -31.9430 C   0  0  0  0  0  0  0  0  0  0  0  0
   -9.8410   21.4290  -31.7270 F   0  0  0  0  0  0  0  0  0  0  0  0
   -7.5760   20.9720  -32.3340 C   0  0  0  0  0  0  0  0  0  0  0  0
   -6.5570   20.0240  -32.5340 C   0  0  0  0  0  0  0  0  0  0  0  0
   -4.6250   21.5990  -31.0190 C   0  0  0  0  0  0  0  0  0  0  0  0
   -3.6830   22.6660  -30.4510 C   0  0  0  0  0  0  0  0  0  0  0  0
   -0.6430   23.7870  -29.6810 N   0  0  0  0  0  0  0  0  0  0  0  0
    0.2590   24.1280  -28.7590 N   0  0  0  0  0  0  0  0  0  0  0  0
    2.9480   23.7900  -27.0160 C   0  0  0  0  0  0  0  0  0  0  0  0
    3.8510   24.1770  -26.0740 N   0  0  0  0  0  0  0  0  0  0  0  0
    1.8024   24.8240  -23.4620 H   0  0  0  0  0  0  0  0  0  0  0  0
    0.1049   24.1034  -25.1492 H   0  0  0  0  0  0  0  0  0  0  0  0
    0.1494   21.3932  -26.7798 H   0  0  0  0  0  0  0  0  0  0  0  0
   -1.5458   20.7517  -28.5035 H   0  0  0  0  0  0  0  0  0  0  0  0
   -1.8524   22.7211  -32.6222 H   0  0  0  0  0  0  0  0  0  0  0  0
   -0.8308   21.4292  -31.8904 H   0  0  0  0  0  0  0  0  0  0  0  0
   -2.5100   20.5677  -33.5659 H   0  0  0  0  0  0  0  0  0  0  0  0
   -2.6924   19.8675  -31.9077 H   0  0  0  0  0  0  0  0  0  0  0  0
   -4.3254   22.1219  -33.1338 H   0  0  0  0  0  0  0  0  0  0  0  0
   -4.6860   18.9058  -34.5538 H   0  0  0  0  0  0  0  0  0  0  0  0
   -3.7070   18.7633  -33.0733 H   0  0  0  0  0  0  0  0  0  0  0  0
   -5.9982   17.1788  -33.7228 H   0  0  0  0  0  0  0  0  0  0  0  0
   -5.2694   17.2427  -32.1346 H   0  0  0  0  0  0  0  0  0  0  0  0
   -8.3120   17.1412  -32.0179 H   0  0  0  0  0  0  0  0  0  0  0  0
  -10.1062   18.8154  -31.4799 H   0  0  0  0  0  0  0  0  0  0  0  0
   -7.3782   22.0440  -32.4813 H   0  0  0  0  0  0  0  0  0  0  0  0
   -5.6561   21.9813  -30.9942 H   0  0  0  0  0  0  0  0  0  0  0  0
   -4.5321   20.6910  -30.4051 H   0  0  0  0  0  0  0  0  0  0  0  0
   -3.8465   23.6150  -30.9828 H   0  0  0  0  0  0  0  0  0  0  0  0
   -3.8923   22.7947  -29.3788 H   0  0  0  0  0  0  0  0  0  0  0  0
   -0.8470   24.4630  -30.4500 H   0  0  0  0  0  0  0  0  0  0  0  0
    3.2940   23.5007  -28.0193 H   0  0  0  0  0  0  0  0  0  0  0  0
  1  2  2  0
  2  3  1  0
  3  4  2  0
  4  5  1  0
  5  6  1  0
  6  7  2  0
  7  8  1  0
  8  9  2  0
  9 10  1  0
 10 11  1  0
 11 12  1  0
 12 13  1  0
 13 14  1  0
 14 15  1  0
 15 16  1  0
 16 17  1  0
 17 18  2  0
 18 19  1  0
 19 20  2  0
 20 21  1  0
 20 22  1  0
 22 23  2  0
 13 24  1  0
 24 25  1  0
  9 26  1  0
 26 27  2  0
  5 28  2  0
 28 29  1  0
 29  2  1  0
 27  6  1  0
 25 10  1  0
 23 14  1  0
 23 17  1  0
  3 30  1  0
  4 31  1  0
  7 32  1  0
  8 33  1  0
 11 34  1  0
 11 35  1  0
 12 36  1  0
 12 37  1  0
 13 38  1  0
 15 39  1  0
 15 40  1  0
 16 41  1  0
 16 42  1  0
 18 43  1  0
 19 44  1  0
 22 45  1  0
 24 46  1  0
 24 47  1  0
 25 48  1  0
 25 49  1  0
 26 50  1  0
 28 51  1  0
M  CHG  2  26   1  29  -1
M  END
>  <UniqueID>  (27) 
26

>  <SMILES>  (27) 
O=c1ccc(-c2ccc(N3CCC(N4CCc5ccc(F)cc54)CC3)[nH+]n2)c[n-]1

>  <Energy>  (27) 
84.61359360317158

>  <Genealogy>  (27) 
O=c1ccc(-c2ccc(N3CCC(N4CCc5ccc(F)cc54)CC3)[nH+]n2)c[n-]1 (protonated)
O=c1ccc(-c2ccc(N3CCC(N4CCc5ccc(F)cc54)CC3)[nH+]n2)c[n-]1 (3D coordinates assigned)
O=c1ccc(-c2ccc(N3CCC(N4CCc5ccc(F)cc54)CC3)[nH+]n2)c[n-]1 (nonaromatic ring conformer: 84.61359360317158 kcal/mol)

>  <smiles>  (27) 
O=c1ccc(-c2ccc(N3CCC(N4CCc5ccc(F)cc54)CC3)nn2)c[nH]1

>  <score_type>  (27) 
oracle

>  <origin>  (27) 
adg

>  <m_score__min__energy>  (27) 
-8.1199999999999992

>  <m_primary>  (27) 
energy

$$$$
27:0
     RDKit          3D

 39 41  0  0  0  0  0  0  0  0999 V2000
   -7.2350   23.7990  -32.6970 C   0  0  0  0  0  0  0  0  0  0  0  0
   -6.2390   23.7060  -31.5850 C   0  0  0  0  0  0  0  0  0  0  0  0
   -6.4540   22.8470  -30.5050 C   0  0  0  0  0  0  0  0  0  0  0  0
   -5.5200   22.8020  -29.4740 C   0  0  0  0  0  0  0  0  0  0  0  0
   -4.3800   23.6170  -29.5410 C   0  0  0  0  0  0  0  0  0  0  0  0
   -3.3960   23.6200  -28.4900 N   0  0  0  0  0  0  0  0  0  0  0  0
   -2.0700   23.0370  -28.7560 C   0  0  0  0  0  0  0  0  0  0  0  0
   -1.1440   23.1640  -27.5420 C   0  0  0  0  0  0  0  0  0  0  0  0
   -1.2680   24.5040  -26.9540 N   0  0  0  0  0  0  0  0  0  0  0  0
   -0.1100   25.3520  -26.8440 C   0  0  0  0  0  0  0  0  0  0  0  0
    0.7340   25.3730  -27.7820 O   0  0  0  0  0  0  0  0  0  0  0  0
    0.1080   26.2090  -25.6580 C   0  0  0  0  0  0  0  0  0  0  0  0
   -0.2540   27.5630  -25.6810 C   0  0  0  0  0  0  0  0  0  0  0  0
   -0.0310   28.3670  -24.5630 C   0  0  0  0  0  0  0  0  0  0  0  0
    0.5670   27.8120  -23.4300 C   0  0  0  0  0  0  0  0  0  0  0  0
    0.9320   26.5020  -23.4230 N   0  0  0  0  0  0  0  0  0  0  0  0
    0.7220   25.6990  -24.5020 C   0  0  0  0  0  0  0  0  0  0  0  0
   -2.6020   25.0580  -26.6650 C   0  0  0  0  0  0  0  0  0  0  0  0
   -3.7120   24.1160  -27.1420 C   0  0  0  0  0  0  0  0  0  0  0  0
   -4.2360   24.4540  -30.6060 N   0  0  0  0  0  0  0  0  0  0  0  0
   -5.1340   24.4970  -31.5930 N   0  0  0  0  0  0  0  0  0  0  0  0
   -8.2468   23.8935  -32.2760 H   0  0  0  0  0  0  0  0  0  0  0  0
   -7.0118   24.6802  -33.3164 H   0  0  0  0  0  0  0  0  0  0  0  0
   -7.1788   22.8917  -33.3164 H   0  0  0  0  0  0  0  0  0  0  0  0
   -7.3520   22.2127  -30.4695 H   0  0  0  0  0  0  0  0  0  0  0  0
   -5.6743   22.1334  -28.6143 H   0  0  0  0  0  0  0  0  0  0  0  0
   -2.1913   21.9719  -29.0025 H   0  0  0  0  0  0  0  0  0  0  0  0
   -1.6152   23.5850  -29.5943 H   0  0  0  0  0  0  0  0  0  0  0  0
   -1.4220   22.4096  -26.7913 H   0  0  0  0  0  0  0  0  0  0  0  0
   -0.1039   23.0052  -27.8629 H   0  0  0  0  0  0  0  0  0  0  0  0
   -0.7150   27.9925  -26.5827 H   0  0  0  0  0  0  0  0  0  0  0  0
   -0.3233   29.4274  -24.5740 H   0  0  0  0  0  0  0  0  0  0  0  0
    0.7433   28.4356  -22.5412 H   0  0  0  0  0  0  0  0  0  0  0  0
    1.3890   26.1040  -22.5720 H   0  0  0  0  0  0  0  0  0  0  0  0
    1.0348   24.6450  -24.4685 H   0  0  0  0  0  0  0  0  0  0  0  0
   -2.7005   25.2070  -25.5796 H   0  0  0  0  0  0  0  0  0  0  0  0
   -2.7042   26.0136  -27.2002 H   0  0  0  0  0  0  0  0  0  0  0  0
   -3.7927   23.2655  -26.4491 H   0  0  0  0  0  0  0  0  0  0  0  0
   -4.6665   24.6621  -27.1693 H   0  0  0  0  0  0  0  0  0  0  0  0
  1  2  1  0
  2  3  2  0
  3  4  1  0
  4  5  2  0
  5  6  1  0
  6  7  1  0
  7  8  1  0
  8  9  1  0
  9 10  1  0
 10 11  2  0
 10 12  1  0
 12 13  2  0
 13 14  1  0
 14 15  2  0
 15 16  1  0
 16 17  2  0
  9 18  1  0
 18 19  1  0
  5 20  1  0
 20 21  2  0
 21  2  1  0
 19  6  1  0
 17 12  1  0
  1 22  1  0
  1 23  1  0
  1 24  1  0
  3 25  1  0
  4 26  1  0
  7 27  1  0
  7 28  1  0
  8 29  1  0
  8 30  1  0
 13 31  1  0
 14 32  1  0
 15 33  1  0
 16 34  1  0
 17 35  1  0
 18 36  1  0
 18 37  1  0
 19 38  1  0
 19 39  1  0
M  CHG  1  16   1
M  END
>  <UniqueID>  (28) 
27

>  <SMILES>  (28) 
Cc1ccc(N2CCN(C(=O)c3ccc[nH+]c3)CC2)nn1

>  <Energy>  (28) 
49.80988261495153

>  <Genealogy>  (28) 
Cc1ccc(N2CCN(C(=O)c3ccc[nH+]c3)CC2)nn1 (protonated)
Cc1ccc(N2CCN(C(=O)c3ccc[nH+]c3)CC2)nn1 (3D coordinates assigned)
Cc1ccc(N2CCN(C(=O)c3ccc[nH+]c3)CC2)nn1 (nonaromatic ring conformer: 49.80988261495153 kcal/mol)

>  <smiles>  (28) 
Cc1ccc(N2CCN(C(=O)c3cccnc3)CC2)nn1

>  <score_type>  (28) 
oracle

>  <origin>  (28) 
adg

>  <m_score__min__energy>  (28) 
-8.3599999999999994

>  <m_primary>  (28) 
energy

$$$$
28:0
     RDKit          3D

 43 46  0  0  0  0  0  0  0  0999 V2000
   -0.2340   22.9110  -25.6290 C   0  0  0  0  0  0  0  0  0  0  0  0
   -0.6170   24.3210  -25.3050 C   0  0  0  0  0  0  0  0  0  0  0  0
   -0.2820   24.9360  -24.1560 N   0  0  0  0  0  0  0  0  0  0  0  0
   -0.7270   26.1810  -24.1970 N   0  0  0  0  0  0  0  0  0  0  0  0
   -0.4720   27.1820  -23.1690 C   0  0  0  0  0  0  0  0  0  0  0  0
   -1.3410   26.3980  -25.3760 C   0  0  0  0  0  0  0  0  0  0  0  0
   -1.3160   25.2200  -26.1040 C   0  0  0  0  0  0  0  0  0  0  0  0
   -1.8590   25.0330  -27.4630 C   0  0  0  0  0  0  0  0  0  0  0  0
   -1.6030   25.8980  -28.3440 O   0  0  0  0  0  0  0  0  0  0  0  0
   -2.6900   23.9050  -27.7950 N   0  0  0  0  0  0  0  0  0  0  0  0
   -2.1040   22.7260  -28.4480 C   0  0  0  0  0  0  0  0  0  0  0  0
   -2.4500   22.7390  -29.9440 C   0  0  0  0  0  0  0  0  0  0  0  0
   -3.8560   23.1020  -30.1290 N   0  0  0  0  0  0  0  0  0  0  0  0
   -4.5940   23.0010  -31.2420 C   0  0  0  0  0  0  0  0  0  0  0  0
   -5.8260   23.5650  -30.9700 C   0  0  0  0  0  0  0  0  0  0  0  0
   -6.9420   23.7350  -31.9490 C   0  0  0  0  0  0  0  0  0  0  0  0
   -7.7150   22.5010  -32.0370 N   0  0  0  0  0  0  0  0  0  0  0  0
   -8.9650   22.3000  -31.5920 C   0  0  0  0  0  0  0  0  0  0  0  0
   -9.3430   21.0190  -31.7690 N   0  0  0  0  0  0  0  0  0  0  0  0
   -8.2460   20.4670  -32.3350 C   0  0  0  0  0  0  0  0  0  0  0  0
   -7.2450   21.3550  -32.4950 N   0  0  0  0  0  0  0  0  0  0  0  0
   -5.8520   24.0500  -29.7080 N   0  0  0  0  0  0  0  0  0  0  0  0
   -4.6240   23.7530  -29.2350 C   0  0  0  0  0  0  0  0  0  0  0  0
   -4.1530   24.0500  -27.8450 C   0  0  0  0  0  0  0  0  0  0  0  0
   -0.0813   22.3489  -24.6959 H   0  0  0  0  0  0  0  0  0  0  0  0
   -1.0363   22.4384  -26.2146 H   0  0  0  0  0  0  0  0  0  0  0  0
    0.6971   22.9093  -26.2146 H   0  0  0  0  0  0  0  0  0  0  0  0
    0.2650   24.5230  -23.3650 H   0  0  0  0  0  0  0  0  0  0  0  0
   -0.5884   26.7249  -22.1753 H   0  0  0  0  0  0  0  0  0  0  0  0
    0.5528   27.5666  -23.2779 H   0  0  0  0  0  0  0  0  0  0  0  0
   -1.1879   28.0100  -23.2779 H   0  0  0  0  0  0  0  0  0  0  0  0
   -1.7863   27.3486  -25.7046 H   0  0  0  0  0  0  0  0  0  0  0  0
   -1.0111   22.7451  -28.3251 H   0  0  0  0  0  0  0  0  0  0  0  0
   -2.5111   21.8138  -27.9873 H   0  0  0  0  0  0  0  0  0  0  0  0
   -1.8133   23.4735  -30.4589 H   0  0  0  0  0  0  0  0  0  0  0  0
   -2.2773   21.7369  -30.3635 H   0  0  0  0  0  0  0  0  0  0  0  0
   -4.2782   22.5525  -32.1955 H   0  0  0  0  0  0  0  0  0  0  0  0
   -7.5975   24.5535  -31.6169 H   0  0  0  0  0  0  0  0  0  0  0  0
   -6.5240   23.9728  -32.9383 H   0  0  0  0  0  0  0  0  0  0  0  0
   -9.5979   23.0789  -31.1418 H   0  0  0  0  0  0  0  0  0  0  0  0
   -8.1782   19.4100  -32.6320 H   0  0  0  0  0  0  0  0  0  0  0  0
   -4.4313   25.0789  -27.5730 H   0  0  0  0  0  0  0  0  0  0  0  0
   -4.6207   23.3507  -27.1363 H   0  0  0  0  0  0  0  0  0  0  0  0
  1  2  1  0
  2  3  2  0
  3  4  1  0
  4  5  1  0
  4  6  1  0
  6  7  2  0
  7  8  1  0
  8  9  2  0
  8 10  1  0
 10 11  1  0
 11 12  1  0
 12 13  1  0
 13 14  1  0
 14 15  2  0
 15 16  1  0
 16 17  1  0
 17 18  1  0
 18 19  2  0
 19 20  1  0
 20 21  2  0
 15 22  1  0
 22 23  2  0
 23 24  1  0
  7  2  1  0
 24 10  1  0
 23 13  1  0
 21 17  1  0
  1 25  1  0
  1 26  1  0
  1 27  1  0
  3 28  1  0
  5 29  1  0
  5 30  1  0
  5 31  1  0
  6 32  1  0
 11 33  1  0
 11 34  1  0
 12 35  1  0
 12 36  1  0
 14 37  1  0
 16 38  1  0
 16 39  1  0
 18 40  1  0
 20 41  1  0
 24 42  1  0
 24 43  1  0
M  CHG  1   3   1
M  END
>  <UniqueID>  (29) 
28

>  <SMILES>  (29) 
Cc1[nH+]n(C)cc1C(=O)N1CCn2cc(Cn3cncn3)nc2C1

>  <Energy>  (29) 
140.6045960072796

>  <Genealogy>  (29) 
Cc1[nH+]n(C)cc1C(=O)N1CCn2cc(Cn3cncn3)nc2C1 (protonated)
Cc1[nH+]n(C)cc1C(=O)N1CCn2cc(Cn3cncn3)nc2C1 (3D coordinates assigned)
Cc1[nH+]n(C)cc1C(=O)N1CCn2cc(Cn3cncn3)nc2C1 (nonaromatic ring conformer: 140.6045960072796 kcal/mol)

>  <smiles>  (29) 
Cc1nn(C)cc1C(=O)N1CCn2cc(Cn3cncn3)nc2C1

>  <score_type>  (29) 
oracle

>  <origin>  (29) 
adg

>  <m_score__min__energy>  (29) 
-7.8300000000000001

>  <m_primary>  (29) 
energy

$$$$
29:0
     RDKit          3D

 50 53  0  0  0  0  0  0  0  0999 V2000
   -0.6154   22.8633  -30.6746 H   0  0  0  0  0  0  0  0  0  0  0  0
   -1.4040   22.1300  -30.8990 C   0  0  0  0  0  0  0  0  0  0  0  0
   -2.5620   22.2630  -30.2160 C   0  0  0  0  0  0  0  0  0  0  0  0
   -2.5310   22.1330  -28.7260 C   0  0  1  0  0  0  0  0  0  0  0  0
   -2.7500   20.7390  -28.1060 C   0  0  0  0  0  0  0  0  0  0  0  0
   -2.7374   20.8195  -27.0090 H   0  0  0  0  0  0  0  0  0  0  0  0
   -3.7217   20.3407  -28.4332 H   0  0  0  0  0  0  0  0  0  0  0  0
   -1.9472   20.0619  -28.4332 H   0  0  0  0  0  0  0  0  0  0  0  0
   -1.8590   22.9520  -27.8560 O   0  0  0  0  0  0  0  0  0  0  0  0
   -3.1600   23.4540  -28.1840 C   0  0  2  0  0  0  0  0  0  0  0  0
   -4.6120   22.9500  -28.3080 C   0  0  0  0  0  0  0  0  0  0  0  0
   -5.2990   23.7413  -27.9737 H   0  0  0  0  0  0  0  0  0  0  0  0
   -4.7306   22.0533  -27.6820 H   0  0  0  0  0  0  0  0  0  0  0  0
   -4.9150   22.6060  -29.6740 O   0  0  0  0  0  0  0  0  0  0  0  0
   -3.8730   22.9940  -30.6020 C   0  0  2  0  0  0  0  0  0  0  0  0
   -4.4040   22.6430  -32.0240 C   0  0  0  0  0  0  0  0  0  0  0  0
   -3.6858   23.0270  -32.7634 H   0  0  0  0  0  0  0  0  0  0  0  0
   -4.5112   21.5487  -32.0567 H   0  0  0  0  0  0  0  0  0  0  0  0
   -5.7880   23.2280  -32.3500 C   0  0  0  0  0  0  0  0  0  0  0  0
   -6.0091   24.0431  -31.6453 H   0  0  0  0  0  0  0  0  0  0  0  0
   -5.7747   23.6051  -33.3833 H   0  0  0  0  0  0  0  0  0  0  0  0
   -6.8590   22.1750  -32.2370 C   0  0  0  0  0  0  0  0  0  0  0  0
   -6.6260   20.8740  -32.7150 C   0  0  0  0  0  0  0  0  0  0  0  0
   -5.6620   20.6265  -33.1834 H   0  0  0  0  0  0  0  0  0  0  0  0
   -7.6160   19.8930  -32.5970 C   0  0  0  0  0  0  0  0  0  0  0  0
   -7.4296   18.8760  -32.9723 H   0  0  0  0  0  0  0  0  0  0  0  0
   -8.8450   20.2050  -32.0010 C   0  0  0  0  0  0  0  0  0  0  0  0
   -9.6255   19.4348  -31.9143 H   0  0  0  0  0  0  0  0  0  0  0  0
   -9.0790   21.4940  -31.5170 C   0  0  0  0  0  0  0  0  0  0  0  0
  -10.0429   21.7365  -31.0457 H   0  0  0  0  0  0  0  0  0  0  0  0
   -8.0910   22.4770  -31.6300 C   0  0  0  0  0  0  0  0  0  0  0  0
   -8.2780   23.4895  -31.2429 H   0  0  0  0  0  0  0  0  0  0  0  0
   -3.6390   24.3910  -30.4470 O   0  0  0  0  0  0  0  0  0  0  0  0
   -3.0500   24.6740  -29.1690 C   0  0  2  0  0  0  0  0  0  0  0  0
   -3.6079   25.5043  -28.7115 H   0  0  0  0  0  0  0  0  0  0  0  0
   -1.6940   25.0510  -29.3480 O   0  0  0  0  0  0  0  0  0  0  0  0
   -1.2140   25.7020  -28.1940 C   0  0  0  0  0  0  0  0  0  0  0  0
   -1.5931   25.1878  -27.2985 H   0  0  0  0  0  0  0  0  0  0  0  0
   -0.1142   25.6802  -28.1914 H   0  0  0  0  0  0  0  0  0  0  0  0
   -1.5600   26.7462  -28.1914 H   0  0  0  0  0  0  0  0  0  0  0  0
   -1.0770   21.0910  -31.9300 C   0  0  0  0  0  0  0  0  0  0  0  0
   -0.0193   20.8047  -31.8330 H   0  0  0  0  0  0  0  0  0  0  0  0
   -1.7224   20.2147  -31.7701 H   0  0  0  0  0  0  0  0  0  0  0  0
   -1.3070   21.6010  -33.2410 O   0  0  0  0  0  0  0  0  0  0  0  0
   -0.4430   21.3300  -34.3110 C   0  0  0  0  0  0  0  0  0  0  0  0
    0.2660   22.2470  -34.8120 O   0  0  0  0  0  0  0  0  0  0  0  0
   -0.3860   19.9560  -34.8790 C   0  0  0  0  0  0  0  0  0  0  0  0
   -0.3555   19.2218  -34.0604 H   0  0  0  0  0  0  0  0  0  0  0  0
   -1.2775   19.7780  -35.4983 H   0  0  0  0  0  0  0  0  0  0  0  0
    0.5172   19.8524  -35.4983 H   0  0  0  0  0  0  0  0  0  0  0  0
  1  2  1  0
  2  3  2  0
  3  4  1  0
  4  5  1  6
  5  6  1  0
  5  7  1  0
  5  8  1  0
  4  9  1  0
 10  9  1  1
 10 11  1  0
 11 12  1  0
 11 13  1  0
 11 14  1  0
 14 15  1  0
 15 16  1  6
 16 17  1  0
 16 18  1  0
 16 19  1  0
 19 20  1  0
 19 21  1  0
 19 22  1  0
 22 23  2  0
 23 24  1  0
 23 25  1  0
 25 26  1  0
 25 27  2  0
 27 28  1  0
 27 29  1  0
 29 30  1  0
 29 31  2  0
 31 32  1  0
 15 33  1  0
 33 34  1  0
 34 35  1  1
 34 36  1  0
 36 37  1  0
 37 38  1  0
 37 39  1  0
 37 40  1  0
  2 41  1  0
 41 42  1  0
 41 43  1  0
 41 44  1  0
 44 45  1  0
 45 46  2  0
 45 47  1  0
 47 48  1  0
 47 49  1  0
 47 50  1  0
 15  3  1  0
 31 22  1  0
 10  4  1  0
 34 10  1  0
M  END
>  <UniqueID>  (30) 
29

>  <SMILES>  (30) 
CO[C@H]1O[C@]2(CCc3ccccc3)OCC13OC3(C)/C2=C/COC(C)=O

>  <Energy>  (30) 
475.60279771544003

>  <Genealogy>  (30) 
CO[C@H]1O[C@]2(CCc3ccccc3)OCC13OC3(C)C2=CCOC(C)=O (chirality)
CO[C@H]1O[C@]2(CCc3ccccc3)OCC13OC3(C)/C2=C/COC(C)=O (cis-trans isomerization)
CO[C@H]1O[C@]2(CCc3ccccc3)OCC13OC3(C)/C2=C/COC(C)=O (3D coordinates assigned)
CO[C@H]1O[C@]2(CCc3ccccc3)OCC13OC3(C)/C2=C/COC(C)=O (nonaromatic ring conformer: 475.60279771544003 kcal/mol)

>  <smiles>  (30) 
COC1OC2(CCc3ccccc3)OCC13OC3(C)C2=CCOC(C)=O

>  <score_type>  (30) 
oracle

>  <origin>  (30) 
adg

>  <m_score__min__energy>  (30) 
-7.9299999999999997

>  <m_primary>  (30) 
energy

$$$$
30:0
     RDKit          3D

 57 60  0  0  0  0  0  0  0  0999 V2000
   -1.2160   21.4870  -32.3800 C   0  0  0  0  0  0  0  0  0  0  0  0
   -1.3330   20.3720  -30.9430 S   0  0  0  0  0  0  0  0  0  0  0  0
   -1.8490   21.6550  -29.7400 C   0  0  0  0  0  0  0  0  0  0  0  0
   -3.2870   21.4440  -29.2270 C   0  0  0  0  0  0  0  0  0  0  0  0
   -3.8760   22.6130  -28.4120 C   0  0  2  0  0  0  0  0  0  0  0  0
   -4.6770   23.4870  -29.2640 N   0  0  0  0  0  0  0  0  0  0  0  0
   -4.1750   24.0830  -30.4620 C   0  0  0  0  0  0  0  0  0  0  0  0
   -3.8870   25.3100  -30.4660 O   0  0  0  0  0  0  0  0  0  0  0  0
   -4.0130   23.3070  -31.6150 O   0  0  0  0  0  0  0  0  0  0  0  0
   -5.1010   22.7740  -32.3650 C   0  0  0  0  0  0  0  0  0  0  0  0
   -5.5930   21.4500  -31.7570 C   0  0  0  0  0  0  0  0  0  0  0  0
   -7.1000   21.3520  -31.7600 C   0  0  0  0  0  0  0  0  0  0  0  0
   -8.0150   22.1300  -31.0440 C   0  0  0  0  0  0  0  0  0  0  0  0
   -9.3860   21.8570  -31.1830 C   0  0  0  0  0  0  0  0  0  0  0  0
   -9.8230   20.8080  -32.0160 C   0  0  0  0  0  0  0  0  0  0  0  0
   -8.8930   20.0190  -32.7110 C   0  0  0  0  0  0  0  0  0  0  0  0
   -7.5380   20.3130  -32.5640 C   0  0  0  0  0  0  0  0  0  0  0  0
   -6.3800   19.6480  -33.1180 C   0  0  0  0  0  0  0  0  0  0  0  0
   -6.3030   18.5340  -33.9560 C   0  0  0  0  0  0  0  0  0  0  0  0
   -5.0320   18.0660  -34.3230 C   0  0  0  0  0  0  0  0  0  0  0  0
   -3.8720   18.7070  -33.8450 C   0  0  0  0  0  0  0  0  0  0  0  0
   -3.9740   19.8230  -32.9980 C   0  0  0  0  0  0  0  0  0  0  0  0
   -5.2460   20.2860  -32.6490 C   0  0  0  0  0  0  0  0  0  0  0  0
   -2.8000   23.3880  -27.6920 C   0  0  0  0  0  0  0  0  0  0  0  0
   -1.9200   22.7740  -27.0290 O   0  0  0  0  0  0  0  0  0  0  0  0
   -2.7890   24.8220  -27.7610 N   0  0  0  0  0  0  0  0  0  0  0  0
   -1.9830   25.6580  -26.9130 C   0  0  0  0  0  0  0  0  0  0  0  0
   -2.1210   25.6230  -25.5130 C   0  0  0  0  0  0  0  0  0  0  0  0
   -1.3480   26.4640  -24.7060 C   0  0  0  0  0  0  0  0  0  0  0  0
   -0.4410   27.3520  -25.2870 C   0  0  0  0  0  0  0  0  0  0  0  0
   -0.3110   27.4090  -26.6770 C   0  0  0  0  0  0  0  0  0  0  0  0
   -1.0830   26.5710  -27.4890 C   0  0  0  0  0  0  0  0  0  0  0  0
   -0.9410   26.6380  -28.8370 F   0  0  0  0  0  0  0  0  0  0  0  0
   -1.1071   22.5245  -32.0312 H   0  0  0  0  0  0  0  0  0  0  0  0
   -0.3419   21.2110  -32.9881 H   0  0  0  0  0  0  0  0  0  0  0  0
   -2.1284   21.3984  -32.9881 H   0  0  0  0  0  0  0  0  0  0  0  0
   -1.1616   21.6295  -28.8816 H   0  0  0  0  0  0  0  0  0  0  0  0
   -1.8190   22.6261  -30.2559 H   0  0  0  0  0  0  0  0  0  0  0  0
   -3.9371   21.2761  -30.0983 H   0  0  0  0  0  0  0  0  0  0  0  0
   -3.2409   20.5872  -28.5387 H   0  0  0  0  0  0  0  0  0  0  0  0
   -4.5369   22.1847  -27.6440 H   0  0  0  0  0  0  0  0  0  0  0  0
   -5.9279   23.4994  -32.3644 H   0  0  0  0  0  0  0  0  0  0  0  0
   -4.7578   22.5818  -33.3923 H   0  0  0  0  0  0  0  0  0  0  0  0
   -5.1396   21.4260  -30.7551 H   0  0  0  0  0  0  0  0  0  0  0  0
   -7.6682   22.9396  -30.3850 H   0  0  0  0  0  0  0  0  0  0  0  0
  -10.1227   22.4658  -30.6383 H   0  0  0  0  0  0  0  0  0  0  0  0
  -10.8991   20.6062  -32.1223 H   0  0  0  0  0  0  0  0  0  0  0  0
   -9.2244   19.1907  -33.3545 H   0  0  0  0  0  0  0  0  0  0  0  0
   -7.2144   18.0364  -34.3189 H   0  0  0  0  0  0  0  0  0  0  0  0
   -4.9409   17.1941  -34.9874 H   0  0  0  0  0  0  0  0  0  0  0  0
   -2.8802   18.3312  -34.1369 H   0  0  0  0  0  0  0  0  0  0  0  0
   -3.0711   20.3226  -32.6170 H   0  0  0  0  0  0  0  0  0  0  0  0
   -3.3550   25.2800  -28.5110 H   0  0  0  0  0  0  0  0  0  0  0  0
   -2.8404   24.9308  -25.0511 H   0  0  0  0  0  0  0  0  0  0  0  0
   -1.4549   26.4257  -23.6119 H   0  0  0  0  0  0  0  0  0  0  0  0
    0.1716   28.0071  -24.6502 H   0  0  0  0  0  0  0  0  0  0  0  0
    0.3994   28.1138  -27.1336 H   0  0  0  0  0  0  0  0  0  0  0  0
  1  2  1  0
  2  3  1  0
  3  4  1  0
  4  5  1  0
  5  6  1  0
  6  7  1  0
  7  8  2  0
  7  9  1  0
  9 10  1  0
 10 11  1  0
 11 12  1  0
 12 13  2  0
 13 14  1  0
 14 15  2  0
 15 16  1  0
 16 17  2  0
 17 18  1  0
 18 19  2  0
 19 20  1  0
 20 21  2  0
 21 22  1  0
 22 23  2  0
  5 24  1  0
 24 25  2  0
 24 26  1  0
 26 27  1  0
 27 28  2  0
 28 29  1  0
 29 30  2  0
 30 31  1  0
 31 32  2  0
 32 33  1  0
 23 11  1  0
 32 27  1  0
 17 12  1  0
 23 18  1  0
  1 34  1  0
  1 35  1  0
  1 36  1  0
  3 37  1  0
  3 38  1  0
  4 39  1  0
  4 40  1  0
  5 41  1  1
 10 42  1  0
 10 43  1  0
 11 44  1  0
 13 45  1  0
 14 46  1  0
 15 47  1  0
 16 48  1  0
 19 49  1  0
 20 50  1  0
 21 51  1  0
 22 52  1  0
 26 53  1  0
 28 54  1  0
 29 55  1  0
 30 56  1  0
 31 57  1  0
M  CHG  1   6  -1
M  END
>  <UniqueID>  (31) 
30

>  <SMILES>  (31) 
CSCC[C@H]([N-]C(=O)OCC1c2ccccc2-c2ccccc21)C(=O)Nc1ccccc1F

>  <Energy>  (31) 
76.08609568071007

>  <Genealogy>  (31) 
CSCCC([N-]C(=O)OCC1c2ccccc2-c2ccccc21)C(=O)Nc1ccccc1F (protonated)
CSCC[C@H]([N-]C(=O)OCC1c2ccccc2-c2ccccc21)C(=O)Nc1ccccc1F (chirality)
CSCC[C@H]([N-]C(=O)OCC1c2ccccc2-c2ccccc21)C(=O)Nc1ccccc1F (3D coordinates assigned)
CSCC[C@H]([N-]C(=O)OCC1c2ccccc2-c2ccccc21)C(=O)Nc1ccccc1F (nonaromatic ring conformer: 76.08609568071007 kcal/mol)

>  <smiles>  (31) 
CSCCC(NC(=O)OCC1c2ccccc2-c2ccccc21)C(=O)Nc1ccccc1F

>  <score_type>  (31) 
oracle

>  <origin>  (31) 
adg

>  <m_score__min__energy>  (31) 
-12.31

>  <m_primary>  (31) 
energy

$$$$
31:0
     RDKit          3D

 48 50  0  0  0  0  0  0  0  0999 V2000
   -5.3500   18.1120  -34.9450 C   0  0  0  0  0  0  0  0  0  0  0  0
   -4.3450   18.2600  -33.8000 C   0  0  0  0  0  0  0  0  0  0  0  0
   -3.9760   19.7270  -33.5330 C   0  0  0  0  0  0  0  0  0  0  0  0
   -5.1350   20.5170  -33.0010 C   0  0  0  0  0  0  0  0  0  0  0  0
   -4.9870   21.8590  -32.7480 N   0  0  0  0  0  0  0  0  0  0  0  0
   -6.0200   22.6150  -32.2640 C   0  0  0  0  0  0  0  0  0  0  0  0
   -5.8780   23.9830  -32.0210 O   0  0  0  0  0  0  0  0  0  0  0  0
   -6.1680   24.5950  -30.7660 C   0  0  0  0  0  0  0  0  0  0  0  0
   -5.2130   25.7500  -30.4850 C   0  0  0  0  0  0  0  0  0  0  0  0
   -3.8730   25.2710  -30.4730 O   0  0  0  0  0  0  0  0  0  0  0  0
   -3.4910   24.0050  -30.0080 C   0  0  0  0  0  0  0  0  0  0  0  0
   -2.8770   23.0480  -30.8390 C   0  0  0  0  0  0  0  0  0  0  0  0
   -2.5310   21.7910  -30.3330 C   0  0  0  0  0  0  0  0  0  0  0  0
   -2.7860   21.4700  -28.9860 C   0  0  0  0  0  0  0  0  0  0  0  0
   -2.4640   20.2190  -28.4350 O   0  0  0  0  0  0  0  0  0  0  0  0
   -2.7610   19.8210  -27.0970 C   0  0  0  0  0  0  0  0  0  0  0  0
   -3.3870   22.4290  -28.1630 C   0  0  0  0  0  0  0  0  0  0  0  0
   -3.7380   23.6840  -28.6680 C   0  0  0  0  0  0  0  0  0  0  0  0
   -7.2260   21.9720  -32.0260 C   0  0  0  0  0  0  0  0  0  0  0  0
   -8.4710   22.3920  -31.6040 C   0  0  0  0  0  0  0  0  0  0  0  0
   -9.2930   21.3110  -31.6260 N   0  0  0  0  0  0  0  0  0  0  0  0
   -8.6080   20.2430  -32.0190 N   0  0  0  0  0  0  0  0  0  0  0  0
   -9.1830   18.9240  -32.2670 C   0  0  0  0  0  0  0  0  0  0  0  0
   -7.3540   20.6430  -32.2770 C   0  0  0  0  0  0  0  0  0  0  0  0
   -6.3350   19.8980  -32.7650 N   0  0  0  0  0  0  0  0  0  0  0  0
   -6.3582   17.9635  -34.5310 H   0  0  0  0  0  0  0  0  0  0  0  0
   -5.3378   19.0216  -35.5634 H   0  0  0  0  0  0  0  0  0  0  0  0
   -5.0761   17.2445  -35.5634 H   0  0  0  0  0  0  0  0  0  0  0  0
   -4.7849   17.8341  -32.8862 H   0  0  0  0  0  0  0  0  0  0  0  0
   -3.4258   17.7294  -34.0889 H   0  0  0  0  0  0  0  0  0  0  0  0
   -3.1590   19.7581  -32.7971 H   0  0  0  0  0  0  0  0  0  0  0  0
   -3.6720   20.1773  -34.4894 H   0  0  0  0  0  0  0  0  0  0  0  0
   -7.1993   24.9774  -30.7825 H   0  0  0  0  0  0  0  0  0  0  0  0
   -6.0478   23.8415  -29.9737 H   0  0  0  0  0  0  0  0  0  0  0  0
   -5.3216   26.5136  -31.2693 H   0  0  0  0  0  0  0  0  0  0  0  0
   -5.4516   26.1906  -29.5057 H   0  0  0  0  0  0  0  0  0  0  0  0
   -2.6685   23.2905  -31.8915 H   0  0  0  0  0  0  0  0  0  0  0  0
   -2.0567   21.0484  -30.9915 H   0  0  0  0  0  0  0  0  0  0  0  0
   -2.2558   20.4980  -26.3924 H   0  0  0  0  0  0  0  0  0  0  0  0
   -3.8479   19.8663  -26.9337 H   0  0  0  0  0  0  0  0  0  0  0  0
   -2.4082   18.7920  -26.9337 H   0  0  0  0  0  0  0  0  0  0  0  0
   -3.5853   22.1925  -27.1072 H   0  0  0  0  0  0  0  0  0  0  0  0
   -4.2119   24.4251  -28.0076 H   0  0  0  0  0  0  0  0  0  0  0  0
   -8.7468   23.4140  -31.3049 H   0  0  0  0  0  0  0  0  0  0  0  0
  -10.3080   21.3140  -31.3960 H   0  0  0  0  0  0  0  0  0  0  0  0
   -9.3978   18.4313  -31.3073 H   0  0  0  0  0  0  0  0  0  0  0  0
  -10.1155   19.0324  -32.8403 H   0  0  0  0  0  0  0  0  0  0  0  0
   -8.4689   18.3146  -32.8403 H   0  0  0  0  0  0  0  0  0  0  0  0
  1  2  1  0
  2  3  1  0
  3  4  1  0
  4  5  2  0
  5  6  1  0
  6  7  1  0
  7  8  1  0
  8  9  1  0
  9 10  1  0
 10 11  1  0
 11 12  2  0
 12 13  1  0
 13 14  2  0
 14 15  1  0
 15 16  1  0
 14 17  1  0
 17 18  2  0
  6 19  2  0
 19 20  1  0
 20 21  2  0
 21 22  1  0
 22 23  1  0
 22 24  1  0
 24 25  2  0
 25  4  1  0
 18 11  1  0
 24 19  1  0
  1 26  1  0
  1 27  1  0
  1 28  1  0
  2 29  1  0
  2 30  1  0
  3 31  1  0
  3 32  1  0
  8 33  1  0
  8 34  1  0
  9 35  1  0
  9 36  1  0
 12 37  1  0
 13 38  1  0
 16 39  1  0
 16 40  1  0
 16 41  1  0
 17 42  1  0
 18 43  1  0
 20 44  1  0
 21 45  1  0
 23 46  1  0
 23 47  1  0
 23 48  1  0
M  CHG  1  21   1
M  END
>  <UniqueID>  (32) 
31

>  <SMILES>  (32) 
CCCc1nc(OCCOc2ccc(OC)cc2)c2c[nH+]n(C)c2n1

>  <Energy>  (32) 
81.53522485181601

>  <Genealogy>  (32) 
CCCc1nc(OCCOc2ccc(OC)cc2)c2c[nH+]n(C)c2n1 (protonated)
CCCc1nc(OCCOc2ccc(OC)cc2)c2c[nH+]n(C)c2n1 (3D coordinates assigned)
CCCc1nc(OCCOc2ccc(OC)cc2)c2c[nH+]n(C)c2n1 (optimized conformer: 81.53522485181601 kcal/mol)

>  <smiles>  (32) 
CCCc1nc(OCCOc2ccc(OC)cc2)c2cnn(C)c2n1

>  <score_type>  (32) 
oracle

>  <origin>  (32) 
adg

>  <m_score__min__energy>  (32) 
-7.46

>  <m_primary>  (32) 
energy

$$$$
32:0
     RDKit          3D

 24 27  0  0  0  0  0  0  0  0999 V2000
   -5.6220   25.2670  -30.2220 C   0  0  0  0  0  0  0  0  0  0  0  0
   -6.8510   24.6100  -30.1150 C   0  0  0  0  0  0  0  0  0  0  0  0
   -6.9960   23.3310  -30.6590 C   0  0  0  0  0  0  0  0  0  0  0  0
   -5.8970   22.7310  -31.3040 C   0  0  0  0  0  0  0  0  0  0  0  0
   -4.6840   23.4230  -31.3910 C   0  0  0  0  0  0  0  0  0  0  0  0
   -4.5760   24.6660  -30.8510 N   0  0  0  0  0  0  0  0  0  0  0  0
   -6.1020   21.3930  -31.8560 C   0  0  0  0  0  0  0  0  0  0  0  0
   -5.2110   20.6030  -32.5200 N   0  0  0  0  0  0  0  0  0  0  0  0
   -5.9380   19.4970  -32.7880 C   0  0  0  0  0  0  0  0  0  0  0  0
   -5.5970   18.3120  -33.4520 C   0  0  0  0  0  0  0  0  0  0  0  0
   -6.6960   17.4310  -33.4920 C   0  0  0  0  0  0  0  0  0  0  0  0
   -8.0000   18.1880  -32.7030 S   0  0  0  0  0  0  0  0  0  0  0  0
   -7.1810   19.5720  -32.3370 N   0  0  0  0  0  0  0  0  0  0  0  0
   -7.3180   20.7580  -31.7420 C   0  0  0  0  0  0  0  0  0  0  0  0
   -8.5160   21.3440  -31.0680 C   0  0  0  0  0  0  0  0  0  0  0  0
   -8.2370   22.6610  -30.5530 O   0  0  0  0  0  0  0  0  0  0  0  0
   -5.5000   26.2738  -29.7960 H   0  0  0  0  0  0  0  0  0  0  0  0
   -7.6971   25.0957  -29.6068 H   0  0  0  0  0  0  0  0  0  0  0  0
   -3.8209   22.9630  -31.8945 H   0  0  0  0  0  0  0  0  0  0  0  0
   -4.2150   20.7960  -32.7650 H   0  0  0  0  0  0  0  0  0  0  0  0
   -4.6077   18.0985  -33.8829 H   0  0  0  0  0  0  0  0  0  0  0  0
   -6.7088   16.4317  -33.9515 H   0  0  0  0  0  0  0  0  0  0  0  0
   -9.3389   21.4107  -31.7949 H   0  0  0  0  0  0  0  0  0  0  0  0
   -8.7922   20.6936  -30.2250 H   0  0  0  0  0  0  0  0  0  0  0  0
  1  2  2  0
  2  3  1  0
  3  4  2  0
  4  5  1  0
  5  6  2  0
  4  7  1  0
  7  8  1  0
  8  9  2  0
  9 10  1  0
 10 11  2  0
 11 12  1  0
 12 13  1  0
 13 14  1  0
 14 15  1  0
 15 16  1  0
  6  1  1  0
 14  7  2  0
 16  3  1  0
 13  9  1  0
  1 17  1  0
  2 18  1  0
  5 19  1  0
  8 20  1  0
 10 21  1  0
 11 22  1  0
 15 23  1  0
 15 24  1  0
M  CHG  1   8   1
M  END
>  <UniqueID>  (33) 
32

>  <SMILES>  (33) 
c1cc2c(cn1)-c1[nH+]c3ccsn3c1CO2

>  <Energy>  (33) 
123.3668225606046

>  <Genealogy>  (33) 
c1cc2c(cn1)-c1[nH+]c3ccsn3c1CO2 (protonated)
c1cc2c(cn1)-c1[nH+]c3ccsn3c1CO2 (3D coordinates assigned)
c1cc2c(cn1)-c1[nH+]c3ccsn3c1CO2 (nonaromatic ring conformer: 123.3668225606046 kcal/mol)

>  <smiles>  (33) 
c1cc2c(cn1)-c1nc3ccsn3c1CO2

>  <score_type>  (33) 
oracle

>  <origin>  (33) 
adg

>  <m_score__min__energy>  (33) 
-6.2800000000000002

>  <m_primary>  (33) 
energy

$$$$
33:0
     RDKit          3D

 37 38  0  0  0  0  0  0  0  0999 V2000
   -6.2970   16.1940  -33.9210 C   0  0  0  0  0  0  0  0  0  0  0  0
   -5.9620   17.6520  -33.6330 C   0  0  0  0  0  0  0  0  0  0  0  0
   -7.1000   18.3210  -33.0060 N   0  0  0  0  0  0  0  0  0  0  0  0
   -7.9790   17.7770  -32.1390 C   0  0  0  0  0  0  0  0  0  0  0  0
   -8.8390   18.7690  -31.7040 C   0  0  0  0  0  0  0  0  0  0  0  0
   -8.4920   19.9290  -32.3020 N   0  0  0  0  0  0  0  0  0  0  0  0
   -9.0740   21.2460  -32.0580 C   0  0  0  0  0  0  0  0  0  0  0  0
   -8.0990   22.1050  -31.3140 C   0  0  0  0  0  0  0  0  0  0  0  0
   -8.3620   22.4550  -30.1320 O   0  0  0  0  0  0  0  0  0  0  0  0
   -6.9270   22.5990  -31.9820 N   0  0  0  0  0  0  0  0  0  0  0  0
   -5.8650   23.3120  -31.3250 C   0  0  0  0  0  0  0  0  0  0  0  0
   -6.0670   24.5930  -30.7830 C   0  0  0  0  0  0  0  0  0  0  0  0
   -5.0260   25.2570  -30.1290 C   0  0  0  0  0  0  0  0  0  0  0  0
   -3.7660   24.6440  -29.9920 C   0  0  0  0  0  0  0  0  0  0  0  0
   -2.6940   25.2790  -29.3440 O   0  0  0  0  0  0  0  0  0  0  0  0
   -2.2080   24.9240  -28.0540 C   0  0  0  0  0  0  0  0  0  0  0  0
   -3.5720   23.3560  -30.5130 C   0  0  0  0  0  0  0  0  0  0  0  0
   -2.0170   22.5550  -30.3520 Cl  0  0  0  0  0  0  0  0  0  0  0  0
   -4.6180   22.6940  -31.1670 C   0  0  0  0  0  0  0  0  0  0  0  0
   -7.4250   19.6270  -33.0680 C   0  0  0  0  0  0  0  0  0  0  0  0
   -6.7900   20.4770  -33.7510 O   0  0  0  0  0  0  0  0  0  0  0  0
   -6.4215   15.6520  -32.9719 H   0  0  0  0  0  0  0  0  0  0  0  0
   -7.2310   16.1397  -34.4995 H   0  0  0  0  0  0  0  0  0  0  0  0
   -5.4803   15.7375  -34.4995 H   0  0  0  0  0  0  0  0  0  0  0  0
   -5.0962   17.6982  -32.9561 H   0  0  0  0  0  0  0  0  0  0  0  0
   -5.7277   18.1586  -34.5808 H   0  0  0  0  0  0  0  0  0  0  0  0
   -8.0070   16.7217  -31.8300 H   0  0  0  0  0  0  0  0  0  0  0  0
   -9.6661   18.6356  -30.9912 H   0  0  0  0  0  0  0  0  0  0  0  0
   -9.3181   21.7206  -33.0198 H   0  0  0  0  0  0  0  0  0  0  0  0
   -9.9880   21.1319  -31.4567 H   0  0  0  0  0  0  0  0  0  0  0  0
   -6.8890   22.5140  -33.0230 H   0  0  0  0  0  0  0  0  0  0  0  0
   -7.0511   25.0760  -30.8743 H   0  0  0  0  0  0  0  0  0  0  0  0
   -5.1918   26.2642  -29.7189 H   0  0  0  0  0  0  0  0  0  0  0  0
   -2.8417   25.3869  -27.2832 H   0  0  0  0  0  0  0  0  0  0  0  0
   -2.2331   23.8301  -27.9410 H   0  0  0  0  0  0  0  0  0  0  0  0
   -1.1736   25.2806  -27.9410 H   0  0  0  0  0  0  0  0  0  0  0  0
   -4.4591   21.6791  -31.5604 H   0  0  0  0  0  0  0  0  0  0  0  0
  1  2  1  0
  2  3  1  0
  3  4  1  0
  4  5  2  0
  5  6  1  0
  6  7  1  0
  7  8  1  0
  8  9  2  0
  8 10  1  0
 10 11  1  0
 11 12  2  0
 12 13  1  0
 13 14  2  0
 14 15  1  0
 15 16  1  0
 14 17  1  0
 17 18  1  0
 17 19  2  0
  6 20  1  0
 20 21  2  0
 20  3  1  0
 19 11  1  0
  1 22  1  0
  1 23  1  0
  1 24  1  0
  2 25  1  0
  2 26  1  0
  4 27  1  0
  5 28  1  0
  7 29  1  0
  7 30  1  0
 10 31  1  0
 12 32  1  0
 13 33  1  0
 16 34  1  0
 16 35  1  0
 16 36  1  0
 19 37  1  0
M  END
>  <UniqueID>  (34) 
33

>  <SMILES>  (34) 
CCn1ccn(CC(=O)Nc2ccc(OC)c(Cl)c2)c1=O

>  <Energy>  (34) 
66.61373116369272

>  <Genealogy>  (34) 
CCn1ccn(CC(=O)Nc2ccc(OC)c(Cl)c2)c1=O (3D coordinates assigned)
CCn1ccn(CC(=O)Nc2ccc(OC)c(Cl)c2)c1=O (optimized conformer: 66.61373116369272 kcal/mol)

>  <smiles>  (34) 
CCn1ccn(CC(=O)Nc2ccc(OC)c(Cl)c2)c1=O

>  <score_type>  (34) 
oracle

>  <origin>  (34) 
adg

>  <m_score__min__energy>  (34) 
-7.6100000000000003

>  <m_primary>  (34) 
energy

$$$$
34:0
     RDKit          3D

 41 44  0  0  0  0  0  0  0  0999 V2000
   -3.5170   25.2920  -30.4980 O   0  0  0  0  0  0  0  0  0  0  0  0
   -4.5880   24.6330  -30.5610 C   0  0  0  0  0  0  0  0  0  0  0  0
   -5.6600   24.8280  -29.5290 C   0  0  0  0  0  0  0  0  0  0  0  0
   -7.0530   24.6090  -30.1380 C   0  0  0  0  0  0  0  0  0  0  0  0
   -7.1200   23.3500  -30.9720 C   0  0  0  0  0  0  0  0  0  0  0  0
   -8.3280   22.6550  -31.1120 C   0  0  0  0  0  0  0  0  0  0  0  0
   -8.4070   21.5430  -31.9560 C   0  0  0  0  0  0  0  0  0  0  0  0
   -7.2860   21.1280  -32.6950 C   0  0  0  0  0  0  0  0  0  0  0  0
   -7.3630   19.9650  -33.5460 N   0  0  0  0  0  0  0  0  0  0  0  0
   -6.8920   18.7780  -32.8200 C   0  0  0  0  0  0  0  0  0  0  0  0
   -5.6210   18.2550  -33.4350 C   0  0  0  0  0  0  0  0  0  0  0  0
   -4.4630   19.0540  -33.4590 C   0  0  0  0  0  0  0  0  0  0  0  0
   -3.2740   18.5580  -34.0040 C   0  0  0  0  0  0  0  0  0  0  0  0
   -3.2320   17.2600  -34.5180 C   0  0  0  0  0  0  0  0  0  0  0  0
   -4.3690   16.4440  -34.4580 C   0  0  0  0  0  0  0  0  0  0  0  0
   -5.5630   16.9400  -33.9270 C   0  0  0  0  0  0  0  0  0  0  0  0
   -4.2870   15.1300  -34.9320 O   0  0  0  0  0  0  0  0  0  0  0  0
   -3.0240   14.5240  -35.2160 C   0  0  0  0  0  0  0  0  0  0  0  0
   -2.0770   15.5470  -35.8580 C   0  0  0  0  0  0  0  0  0  0  0  0
   -2.0610   16.7560  -35.0940 O   0  0  0  0  0  0  0  0  0  0  0  0
   -6.0760   21.8290  -32.5580 C   0  0  0  0  0  0  0  0  0  0  0  0
   -5.9920   22.9360  -31.7060 C   0  0  0  0  0  0  0  0  0  0  0  0
   -4.7520   23.6370  -31.5720 N   0  0  0  0  0  0  0  0  0  0  0  0
   -5.5074   24.1088  -28.7108 H   0  0  0  0  0  0  0  0  0  0  0  0
   -5.6000   25.8590  -29.1502 H   0  0  0  0  0  0  0  0  0  0  0  0
   -7.7880   24.5337  -29.3231 H   0  0  0  0  0  0  0  0  0  0  0  0
   -7.2716   25.4625  -30.7967 H   0  0  0  0  0  0  0  0  0  0  0  0
   -9.2178   22.9852  -30.5559 H   0  0  0  0  0  0  0  0  0  0  0  0
   -9.3534   20.9890  -32.0422 H   0  0  0  0  0  0  0  0  0  0  0  0
   -8.3520   19.8210  -33.8570 H   0  0  0  0  0  0  0  0  0  0  0  0
   -6.7750   20.1140  -34.4000 H   0  0  0  0  0  0  0  0  0  0  0  0
   -6.7025   19.0469  -31.7703 H   0  0  0  0  0  0  0  0  0  0  0  0
   -7.6635   17.9960  -32.8772 H   0  0  0  0  0  0  0  0  0  0  0  0
   -4.4929   20.0736  -33.0472 H   0  0  0  0  0  0  0  0  0  0  0  0
   -2.3735   19.1893  -34.0277 H   0  0  0  0  0  0  0  0  0  0  0  0
   -6.4576   16.3008  -33.8942 H   0  0  0  0  0  0  0  0  0  0  0  0
   -2.5795   14.1550  -34.2799 H   0  0  0  0  0  0  0  0  0  0  0  0
   -3.1762   13.6883  -35.9148 H   0  0  0  0  0  0  0  0  0  0  0  0
   -1.0608   15.1276  -35.8949 H   0  0  0  0  0  0  0  0  0  0  0  0
   -2.4292   15.7713  -36.8757 H   0  0  0  0  0  0  0  0  0  0  0  0
   -5.1897   21.5058  -33.1237 H   0  0  0  0  0  0  0  0  0  0  0  0
  1  2  2  0
  2  3  1  0
  3  4  1  0
  4  5  1  0
  5  6  2  0
  6  7  1  0
  7  8  2  0
  8  9  1  0
  9 10  1  0
 10 11  1  0
 11 12  2  0
 12 13  1  0
 13 14  2  0
 14 15  1  0
 15 16  2  0
 15 17  1  0
 17 18  1  0
 18 19  1  0
 19 20  1  0
  8 21  1  0
 21 22  2  0
 22 23  1  0
 23  2  1  0
 22  5  1  0
 16 11  1  0
 20 14  1  0
  3 24  1  0
  3 25  1  0
  4 26  1  0
  4 27  1  0
  6 28  1  0
  7 29  1  0
  9 30  1  0
  9 31  1  0
 10 32  1  0
 10 33  1  0
 12 34  1  0
 13 35  1  0
 16 36  1  0
 18 37  1  0
 18 38  1  0
 19 39  1  0
 19 40  1  0
 21 41  1  0
M  CHG  2   9   1  23  -1
M  END
>  <UniqueID>  (35) 
34

>  <SMILES>  (35) 
O=C1CCc2ccc([NH2+]Cc3ccc4c(c3)OCCO4)cc2[N-]1

>  <Energy>  (35) 
45.318638712266974

>  <Genealogy>  (35) 
O=C1CCc2ccc([NH2+]Cc3ccc4c(c3)OCCO4)cc2[N-]1 (protonated)
O=C1CCc2ccc([NH2+]Cc3ccc4c(c3)OCCO4)cc2[N-]1 (3D coordinates assigned)
O=C1CCc2ccc([NH2+]Cc3ccc4c(c3)OCCO4)cc2[N-]1 (nonaromatic ring conformer: 45.318638712266974 kcal/mol)

>  <smiles>  (35) 
O=C1CCc2ccc(NCc3ccc4c(c3)OCCO4)cc2N1

>  <score_type>  (35) 
oracle

>  <origin>  (35) 
adg

>  <m_score__min__energy>  (35) 
-9.5700000000000003

>  <m_primary>  (35) 
energy

$$$$
35:0
     RDKit          3D

 52 56  0  0  0  0  0  0  0  0999 V2000
   -5.3260   25.0510  -31.5890 O   0  0  0  0  0  0  0  0  0  0  0  0
   -5.6730   24.2450  -30.3640 S   0  0  0  0  0  0  0  0  0  0  0  0
   -6.9050   24.8340  -29.7310 O   0  0  0  0  0  0  0  0  0  0  0  0
   -4.3550   24.3080  -29.1970 C   0  0  0  0  0  0  0  0  0  0  0  0
   -3.0320   24.1820  -29.6400 C   0  0  0  0  0  0  0  0  0  0  0  0
   -1.9730   24.2360  -28.7260 C   0  0  0  0  0  0  0  0  0  0  0  0
   -2.2260   24.4170  -27.3540 C   0  0  0  0  0  0  0  0  0  0  0  0
   -1.1260   24.4710  -26.3670 C   0  0  0  0  0  0  0  0  0  0  0  0
   -0.1870   23.4960  -26.0820 C   0  0  0  0  0  0  0  0  0  0  0  0
    0.6320   23.9470  -25.1140 N   0  0  0  0  0  0  0  0  0  0  0  0
    0.1580   25.1830  -24.8530 C   0  0  0  0  0  0  0  0  0  0  0  0
    0.7460   26.0870  -23.8150 C   0  0  0  0  0  0  0  0  0  0  0  0
   -0.2790   26.8560  -22.9940 C   0  0  0  0  0  0  0  0  0  0  0  0
    0.5220   27.5710  -24.0730 C   0  0  0  0  0  0  0  0  0  0  0  0
   -0.8830   25.4980  -25.5880 O   0  0  0  0  0  0  0  0  0  0  0  0
   -3.5570   24.5490  -26.9180 C   0  0  0  0  0  0  0  0  0  0  0  0
   -4.6130   24.5000  -27.8340 C   0  0  0  0  0  0  0  0  0  0  0  0
   -5.9640   22.5820  -30.8190 N   0  0  0  0  0  0  0  0  0  0  0  0
   -4.7620   22.0020  -31.4790 C   0  0  0  0  0  0  0  0  0  0  0  0
   -5.0600   21.3120  -32.8200 C   0  0  0  0  0  0  0  0  0  0  0  0
   -6.2650   20.4880  -32.6940 N   0  0  0  0  0  0  0  0  0  0  0  0
   -6.2930   19.1480  -33.2170 C   0  0  0  0  0  0  0  0  0  0  0  0
   -5.7170   18.8650  -34.4660 C   0  0  0  0  0  0  0  0  0  0  0  0
   -5.7200   17.5580  -34.9650 C   0  0  0  0  0  0  0  0  0  0  0  0
   -6.3010   16.5250  -34.2240 C   0  0  0  0  0  0  0  0  0  0  0  0
   -6.8870   16.7990  -32.9850 C   0  0  0  0  0  0  0  0  0  0  0  0
   -6.8880   18.1050  -32.4810 C   0  0  0  0  0  0  0  0  0  0  0  0
   -7.4820   18.3590  -31.2880 F   0  0  0  0  0  0  0  0  0  0  0  0
   -7.4620   21.0600  -32.0670 C   0  0  0  0  0  0  0  0  0  0  0  0
   -7.2030   22.5010  -31.6160 C   0  0  0  0  0  0  0  0  0  0  0  0
   -2.8243   24.0400  -30.7108 H   0  0  0  0  0  0  0  0  0  0  0  0
   -0.9372   24.1363  -29.0826 H   0  0  0  0  0  0  0  0  0  0  0  0
   -0.1205   22.5114  -26.5679 H   0  0  0  0  0  0  0  0  0  0  0  0
    1.6178   25.4577  -23.5826 H   0  0  0  0  0  0  0  0  0  0  0  0
   -1.3530   26.6684  -23.1398 H   0  0  0  0  0  0  0  0  0  0  0  0
   -0.4528   27.0164  -21.9197 H   0  0  0  0  0  0  0  0  0  0  0  0
    0.0269   27.8998  -24.9986 H   0  0  0  0  0  0  0  0  0  0  0  0
    1.1669   28.4617  -24.1016 H   0  0  0  0  0  0  0  0  0  0  0  0
   -3.7690   24.6919  -25.8481 H   0  0  0  0  0  0  0  0  0  0  0  0
   -5.6493   24.6126  -27.4827 H   0  0  0  0  0  0  0  0  0  0  0  0
   -4.0408   22.8127  -31.6593 H   0  0  0  0  0  0  0  0  0  0  0  0
   -4.3680   21.2291  -30.8027 H   0  0  0  0  0  0  0  0  0  0  0  0
   -5.2182   22.0748  -33.5966 H   0  0  0  0  0  0  0  0  0  0  0  0
   -4.2090   20.6729  -33.0981 H   0  0  0  0  0  0  0  0  0  0  0  0
   -5.2613   19.6747  -35.0548 H   0  0  0  0  0  0  0  0  0  0  0  0
   -5.2641   17.3428  -35.9427 H   0  0  0  0  0  0  0  0  0  0  0  0
   -6.2971   15.4971  -34.6157 H   0  0  0  0  0  0  0  0  0  0  0  0
   -7.3485   15.9865  -32.4046 H   0  0  0  0  0  0  0  0  0  0  0  0
   -8.2883   21.0522  -32.7930 H   0  0  0  0  0  0  0  0  0  0  0  0
   -7.7217   20.4555  -31.1854 H   0  0  0  0  0  0  0  0  0  0  0  0
   -7.1052   23.1450  -32.5024 H   0  0  0  0  0  0  0  0  0  0  0  0
   -8.0467   22.8345  -30.9940 H   0  0  0  0  0  0  0  0  0  0  0  0
  1  2  2  0
  2  3  2  0
  2  4  1  0
  4  5  2  0
  5  6  1  0
  6  7  2  0
  7  8  1  0
  8  9  2  0
  9 10  1  0
 10 11  2  0
 11 12  1  0
 12 13  1  0
 13 14  1  0
 11 15  1  0
  7 16  1  0
 16 17  2  0
  2 18  1  0
 18 19  1  0
 19 20  1  0
 20 21  1  0
 21 22  1  0
 22 23  2  0
 23 24  1  0
 24 25  2  0
 25 26  1  0
 26 27  2  0
 27 28  1  0
 21 29  1  0
 29 30  1  0
 17  4  1  0
 30 18  1  0
 15  8  1  0
 27 22  1  0
 14 12  1  0
  5 31  1  0
  6 32  1  0
  9 33  1  0
 12 34  1  0
 13 35  1  0
 13 36  1  0
 14 37  1  0
 14 38  1  0
 16 39  1  0
 17 40  1  0
 19 41  1  0
 19 42  1  0
 20 43  1  0
 20 44  1  0
 23 45  1  0
 24 46  1  0
 25 47  1  0
 26 48  1  0
 29 49  1  0
 29 50  1  0
 30 51  1  0
 30 52  1  0
M  END
>  <UniqueID>  (36) 
35

>  <SMILES>  (36) 
O=S(=O)(c1ccc(-c2cnc(C3CC3)o2)cc1)N1CCN(c2ccccc2F)CC1

>  <Energy>  (36) 
359.8761661135069

>  <Genealogy>  (36) 
O=S(=O)(c1ccc(-c2cnc(C3CC3)o2)cc1)N1CCN(c2ccccc2F)CC1 (3D coordinates assigned)
O=S(=O)(c1ccc(-c2cnc(C3CC3)o2)cc1)N1CCN(c2ccccc2F)CC1 (nonaromatic ring conformer: 359.8761661135069 kcal/mol)

>  <smiles>  (36) 
O=S(=O)(c1ccc(-c2cnc(C3CC3)o2)cc1)N1CCN(c2ccccc2F)CC1

>  <score_type>  (36) 
oracle

>  <origin>  (36) 
adg

>  <m_score__min__energy>  (36) 
-9.3699999999999992

>  <m_primary>  (36) 
energy

$$$$
36:0
     RDKit          3D

 40 42  0  0  0  0  0  0  0  0999 V2000
   -8.2650   23.4050  -31.7050 C   0  0  0  0  0  0  0  0  0  0  0  0
   -7.9120   22.0090  -32.1000 C   0  0  0  0  0  0  0  0  0  0  0  0
   -8.6470   20.8730  -31.8170 C   0  0  0  0  0  0  0  0  0  0  0  0
   -7.8840   19.8360  -32.3250 C   0  0  0  0  0  0  0  0  0  0  0  0
   -8.2710   18.3890  -32.3140 C   0  0  0  0  0  0  0  0  0  0  0  0
   -6.7520   20.3450  -32.8640 N   0  0  0  0  0  0  0  0  0  0  0  0
   -5.6680   19.6110  -33.5240 C   0  0  0  0  0  0  0  0  0  0  0  0
   -4.3350   19.7890  -32.7760 C   0  0  1  0  0  0  0  0  0  0  0  0
   -3.1210   19.4690  -33.6650 C   0  0  0  0  0  0  0  0  0  0  0  0
   -2.3880   20.7810  -33.8300 C   0  0  0  0  0  0  0  0  0  0  0  0
   -2.8310   21.6020  -32.6420 C   0  0  0  0  0  0  0  0  0  0  0  0
   -4.2100   21.1940  -32.3440 N   0  0  0  0  0  0  0  0  0  0  0  0
   -4.5540   21.3720  -30.9210 C   0  0  0  0  0  0  0  0  0  0  0  0
   -4.9080   22.7980  -30.6440 C   0  0  0  0  0  0  0  0  0  0  0  0
   -5.1350   23.7100  -31.6150 N   0  0  0  0  0  0  0  0  0  0  0  0
   -5.3890   24.9430  -31.1000 C   0  0  0  0  0  0  0  0  0  0  0  0
   -5.3540   25.0220  -29.7130 C   0  0  0  0  0  0  0  0  0  0  0  0
   -4.9940   23.4920  -29.1150 S   0  0  0  0  0  0  0  0  0  0  0  0
   -6.7720   21.6610  -32.7250 N   0  0  0  0  0  0  0  0  0  0  0  0
   -8.2844   23.4818  -30.6079 H   0  0  0  0  0  0  0  0  0  0  0  0
   -7.5146   24.1010  -32.1081 H   0  0  0  0  0  0  0  0  0  0  0  0
   -9.2561   23.6606  -32.1081 H   0  0  0  0  0  0  0  0  0  0  0  0
   -9.6181   20.8079  -31.3043 H   0  0  0  0  0  0  0  0  0  0  0  0
   -8.3638   18.0422  -31.2742 H   0  0  0  0  0  0  0  0  0  0  0  0
   -9.2344   18.2632  -32.8298 H   0  0  0  0  0  0  0  0  0  0  0  0
   -7.4991   17.7991  -32.8298 H   0  0  0  0  0  0  0  0  0  0  0  0
   -5.9238   18.5415  -33.5505 H   0  0  0  0  0  0  0  0  0  0  0  0
   -5.5499   20.0086  -34.5428 H   0  0  0  0  0  0  0  0  0  0  0  0
   -4.3435   19.0939  -31.9235 H   0  0  0  0  0  0  0  0  0  0  0  0
   -2.4733   18.7247  -33.1787 H   0  0  0  0  0  0  0  0  0  0  0  0
   -3.4235   19.0445  -34.6337 H   0  0  0  0  0  0  0  0  0  0  0  0
   -1.2993   20.6250  -33.8128 H   0  0  0  0  0  0  0  0  0  0  0  0
   -2.6108   21.2715  -34.7890 H   0  0  0  0  0  0  0  0  0  0  0  0
   -2.1804   21.4019  -31.7779 H   0  0  0  0  0  0  0  0  0  0  0  0
   -2.7728   22.6789  -32.8588 H   0  0  0  0  0  0  0  0  0  0  0  0
   -5.4126   20.7308  -30.6729 H   0  0  0  0  0  0  0  0  0  0  0  0
   -3.6847   21.0947  -30.3067 H   0  0  0  0  0  0  0  0  0  0  0  0
   -5.6063   25.8143  -31.7352 H   0  0  0  0  0  0  0  0  0  0  0  0
   -5.5307   25.9262  -29.1120 H   0  0  0  0  0  0  0  0  0  0  0  0
   -6.0220   22.3110  -33.0530 H   0  0  0  0  0  0  0  0  0  0  0  0
  1  2  1  0
  2  3  1  0
  3  4  2  0
  4  5  1  0
  4  6  1  0
  6  7  1  0
  7  8  1  0
  8  9  1  0
  9 10  1  0
 10 11  1  0
 11 12  1  0
 12 13  1  0
 13 14  1  0
 14 15  2  0
 15 16  1  0
 16 17  2  0
 17 18  1  0
  6 19  1  0
 19  2  2  0
 12  8  1  0
 18 14  1  0
  1 20  1  0
  1 21  1  0
  1 22  1  0
  3 23  1  0
  5 24  1  0
  5 25  1  0
  5 26  1  0
  7 27  1  0
  7 28  1  0
  8 29  1  1
  9 30  1  0
  9 31  1  0
 10 32  1  0
 10 33  1  0
 11 34  1  0
 11 35  1  0
 13 36  1  0
 13 37  1  0
 16 38  1  0
 17 39  1  0
 19 40  1  0
M  CHG  1  19   1
M  END
>  <UniqueID>  (37) 
36

>  <SMILES>  (37) 
Cc1cc(C)n(C[C@H]2CCCN2Cc2nccs2)[nH+]1

>  <Energy>  (37) 
97.51078001259287

>  <Genealogy>  (37) 
Cc1cc(C)n(CC2CCCN2Cc2nccs2)[nH+]1 (protonated)
Cc1cc(C)n(C[C@H]2CCCN2Cc2nccs2)[nH+]1 (chirality)
Cc1cc(C)n(C[C@H]2CCCN2Cc2nccs2)[nH+]1 (3D coordinates assigned)
Cc1cc(C)n(C[C@H]2CCCN2Cc2nccs2)[nH+]1 (nonaromatic ring conformer: 97.51078001259287 kcal/mol)

>  <smiles>  (37) 
Cc1cc(C)n(CC2CCCN2Cc2nccs2)n1

>  <score_type>  (37) 
oracle

>  <origin>  (37) 
adg

>  <m_score__min__energy>  (37) 
-6.3300000000000001

>  <m_primary>  (37) 
energy

$$$$
37:0
     RDKit          3D

107112  0  0  0  0  0  0  0  0999 V2000
   -0.0640   13.0260  -30.8790 C   0  0  0  0  0  0  0  0  0  0  0  0
   -0.2520   14.2410  -31.5740 O   0  0  0  0  0  0  0  0  0  0  0  0
   -0.4540   14.0220  -32.9690 C   0  0  1  0  0  0  0  0  0  0  0  0
   -1.9030   14.3520  -33.3120 C   0  0  0  0  0  0  0  0  0  0  0  0
   -2.1970   15.8200  -33.0200 C   0  0  0  0  0  0  0  0  0  0  0  0
   -1.4320   16.7700  -33.9880 C   0  0  2  0  0  0  0  0  0  0  0  0
   -2.2910   16.7930  -35.3140 C   0  0  0  0  0  0  0  0  0  0  0  0
    0.0490   16.2710  -34.3730 C   0  0  1  0  0  0  0  0  0  0  0  0
    1.1080   17.4310  -34.4390 C   0  0  0  0  0  0  0  0  0  0  0  0
    1.2120   18.3680  -33.2080 C   0  0  0  0  0  0  0  0  0  0  0  0
   -0.1390   18.5690  -32.4630 C   0  0  2  0  0  0  0  0  0  0  0  0
   -0.1400   17.6160  -31.2330 C   0  0  0  0  0  0  0  0  0  0  0  0
   -1.3290   18.2480  -33.4250 C   0  0  2  0  0  0  0  0  0  0  0  0
   -2.5710   18.9420  -32.8040 C   0  0  2  0  0  0  0  0  0  0  0  0
   -3.3140   19.6480  -33.7620 O   0  0  0  0  0  0  0  0  0  0  0  0
   -1.9740   19.9420  -31.8270 C   0  0  0  0  0  0  0  0  0  0  0  0
   -2.6840   20.6450  -30.9070 C   0  0  0  0  0  0  0  0  0  0  0  0
   -4.1750   20.8020  -31.0100 C   0  0  0  0  0  0  0  0  0  0  0  0
   -4.5560   22.3020  -31.2860 C   0  0  1  0  0  0  0  0  0  0  0  0
   -4.6480   22.5390  -32.8080 C   0  0  0  0  0  0  0  0  0  0  0  0
   -5.9250   22.5850  -30.6770 C   0  0  0  0  0  0  0  0  0  0  0  0
   -6.1450   23.6680  -30.0640 O   0  0  0  0  0  0  0  0  0  0  0  0
   -6.9260   21.6120  -30.7450 O   0  0  0  0  0  0  0  0  0  0  0  0
   -8.2880   21.9080  -30.5160 C   0  0  0  0  0  0  0  0  0  0  0  0
   -9.1110   21.2280  -31.6350 C   0  0  0  0  0  0  0  0  0  0  0  0
   -8.4760   20.0240  -32.2700 N   0  0  0  0  0  0  0  0  0  0  0  0
   -9.5670   19.3310  -33.0210 C   0  0  0  0  0  0  0  0  0  0  0  0
   -7.9360   19.0950  -31.2310 C   0  0  0  0  0  0  0  0  0  0  0  0
   -7.3100   17.8100  -31.8080 C   0  0  0  0  0  0  0  0  0  0  0  0
   -6.5460   18.0370  -33.1230 C   0  0  0  0  0  0  0  0  0  0  0  0
   -6.1870   19.5100  -33.3270 C   0  0  0  0  0  0  0  0  0  0  0  0
   -7.4040   20.4650  -33.2360 C   0  0  0  0  0  0  0  0  0  0  0  0
   -3.4880   23.2870  -30.6880 C   0  0  0  0  0  0  0  0  0  0  0  0
   -2.8040   22.7160  -29.4430 C   0  0  0  0  0  0  0  0  0  0  0  0
   -2.0230   21.3880  -29.7370 C   0  0  1  0  0  0  0  0  0  0  0  0
   -2.1250   20.4820  -28.4830 C   0  0  0  0  0  0  0  0  0  0  0  0
   -0.5320   21.7170  -30.0470 C   0  0  0  0  0  0  0  0  0  0  0  0
    0.2040   20.5180  -30.6670 C   0  0  0  0  0  0  0  0  0  0  0  0
   -0.4820   20.0400  -31.9890 C   0  0  1  0  0  0  0  0  0  0  0  0
   -0.2180   21.1390  -33.0760 C   0  0  0  0  0  0  0  0  0  0  0  0
    0.5800   14.8390  -33.8400 C   0  0  0  0  0  0  0  0  0  0  0  0
    0.8950   13.9600  -35.0910 C   0  0  0  0  0  0  0  0  0  0  0  0
    1.9210   14.9340  -33.0560 C   0  0  0  0  0  0  0  0  0  0  0  0
   -0.0932   13.2149  -29.7957 H   0  0  0  0  0  0  0  0  0  0  0  0
   -0.8638   12.3210  -31.1500 H   0  0  0  0  0  0  0  0  0  0  0  0
    0.9114   12.5957  -31.1500 H   0  0  0  0  0  0  0  0  0  0  0  0
   -0.2706   12.9644  -33.2094 H   0  0  0  0  0  0  0  0  0  0  0  0
   -2.0772   14.1528  -34.3797 H   0  0  0  0  0  0  0  0  0  0  0  0
   -2.5668   13.7259  -32.6977 H   0  0  0  0  0  0  0  0  0  0  0  0
   -3.2774   15.9949  -33.1303 H   0  0  0  0  0  0  0  0  0  0  0  0
   -1.8624   16.0369  -31.9948 H   0  0  0  0  0  0  0  0  0  0  0  0
   -3.3603   16.8216  -35.0577 H   0  0  0  0  0  0  0  0  0  0  0  0
   -2.0313   17.6845  -35.9037 H   0  0  0  0  0  0  0  0  0  0  0  0
   -2.0794   15.8889  -35.9037 H   0  0  0  0  0  0  0  0  0  0  0  0
   -0.1124   15.9500  -35.4127 H   0  0  0  0  0  0  0  0  0  0  0  0
    0.8605   18.0556  -35.3100 H   0  0  0  0  0  0  0  0  0  0  0  0
    2.0820   16.9224  -34.4906 H   0  0  0  0  0  0  0  0  0  0  0  0
    1.5713   19.3505  -33.5481 H   0  0  0  0  0  0  0  0  0  0  0  0
    1.9046   17.8924  -32.4979 H   0  0  0  0  0  0  0  0  0  0  0  0
   -0.1394   18.2112  -30.3080 H   0  0  0  0  0  0  0  0  0  0  0  0
   -1.0388   16.9825  -31.2607 H   0  0  0  0  0  0  0  0  0  0  0  0
    0.7575   16.9806  -31.2607 H   0  0  0  0  0  0  0  0  0  0  0  0
   -1.1712   18.6733  -34.4271 H   0  0  0  0  0  0  0  0  0  0  0  0
   -3.2532   18.2075  -32.3512 H   0  0  0  0  0  0  0  0  0  0  0  0
   -2.7290   20.3280  -34.1750 H   0  0  0  0  0  0  0  0  0  0  0  0
   -4.5482   20.1767  -31.8345 H   0  0  0  0  0  0  0  0  0  0  0  0
   -4.6309   20.4897  -30.0589 H   0  0  0  0  0  0  0  0  0  0  0  0
   -5.0400   23.5489  -32.9988 H   0  0  0  0  0  0  0  0  0  0  0  0
   -3.6475   22.4435  -33.2551 H   0  0  0  0  0  0  0  0  0  0  0  0
   -5.3221   21.7935  -33.2551 H   0  0  0  0  0  0  0  0  0  0  0  0
   -8.5963   21.5184  -29.5346 H   0  0  0  0  0  0  0  0  0  0  0  0
   -8.4526   22.9956  -30.5231 H   0  0  0  0  0  0  0  0  0  0  0  0
  -10.0734   20.9149  -31.2041 H   0  0  0  0  0  0  0  0  0  0  0  0
   -9.2035   21.9760  -32.4362 H   0  0  0  0  0  0  0  0  0  0  0  0
  -10.2744   18.8817  -32.3085 H   0  0  0  0  0  0  0  0  0  0  0  0
  -10.0963   20.0588  -33.6536 H   0  0  0  0  0  0  0  0  0  0  0  0
   -9.1331   18.5426  -33.6536 H   0  0  0  0  0  0  0  0  0  0  0  0
   -7.1645   19.6285  -30.6565 H   0  0  0  0  0  0  0  0  0  0  0  0
   -8.7869   18.7838  -30.6071 H   0  0  0  0  0  0  0  0  0  0  0  0
   -6.6102   17.3997  -31.0651 H   0  0  0  0  0  0  0  0  0  0  0  0
   -8.1364   17.1185  -32.0291 H   0  0  0  0  0  0  0  0  0  0  0  0
   -5.6194   17.4446  -33.1028 H   0  0  0  0  0  0  0  0  0  0  0  0
   -7.1970   17.7265  -33.9535 H   0  0  0  0  0  0  0  0  0  0  0  0
   -5.4590   19.8003  -32.5552 H   0  0  0  0  0  0  0  0  0  0  0  0
   -5.7793   19.6041  -34.3443 H   0  0  0  0  0  0  0  0  0  0  0  0
   -7.0415   21.4539  -32.9186 H   0  0  0  0  0  0  0  0  0  0  0  0
   -7.8677   20.4760  -34.2334 H   0  0  0  0  0  0  0  0  0  0  0  0
   -2.7225   23.4855  -31.4526 H   0  0  0  0  0  0  0  0  0  0  0  0
   -4.0091   24.2095  -30.3925 H   0  0  0  0  0  0  0  0  0  0  0  0
   -2.0950   23.4632  -29.0571 H   0  0  0  0  0  0  0  0  0  0  0  0
   -3.5898   22.4839  -28.7091 H   0  0  0  0  0  0  0  0  0  0  0  0
   -2.0553   21.1013  -27.5766 H   0  0  0  0  0  0  0  0  0  0  0  0
   -3.0886   19.9514  -28.4914 H   0  0  0  0  0  0  0  0  0  0  0  0
   -1.3035   19.7505  -28.4914 H   0  0  0  0  0  0  0  0  0  0  0  0
   -0.4933   22.5608  -30.7516 H   0  0  0  0  0  0  0  0  0  0  0  0
   -0.0346   21.9684  -29.0986 H   0  0  0  0  0  0  0  0  0  0  0  0
    1.2405   20.8118  -30.8891 H   0  0  0  0  0  0  0  0  0  0  0  0
    0.1760   19.6877  -29.9460 H   0  0  0  0  0  0  0  0  0  0  0  0
    0.0116   22.0950  -32.5827 H   0  0  0  0  0  0  0  0  0  0  0  0
    0.6331   20.8367  -33.7039 H   0  0  0  0  0  0  0  0  0  0  0  0
   -1.1135   21.2563  -33.7039 H   0  0  0  0  0  0  0  0  0  0  0  0
    1.2494   12.9711  -34.7645 H   0  0  0  0  0  0  0  0  0  0  0  0
   -0.0167   13.8417  -35.6950 H   0  0  0  0  0  0  0  0  0  0  0  0
    1.6743   14.4477  -35.6950 H   0  0  0  0  0  0  0  0  0  0  0  0
    1.7158   14.9195  -31.9754 H   0  0  0  0  0  0  0  0  0  0  0  0
    2.5610   14.0789  -33.3192 H   0  0  0  0  0  0  0  0  0  0  0  0
    2.4341   15.8707  -33.3192 H   0  0  0  0  0  0  0  0  0  0  0  0
  1  2  1  0
  2  3  1  0
  3  4  1  0
  4  5  1  0
  5  6  1  0
  6  7  1  6
  6  8  1  0
  8  9  1  0
  9 10  1  0
 10 11  1  0
 11 12  1  1
 11 13  1  0
 13 14  1  0
 14 15  1  0
 14 16  1  0
 16 17  2  0
 17 18  1  0
 18 19  1  0
 19 20  1  6
 19 21  1  0
 21 22  2  0
 21 23  1  0
 23 24  1  0
 24 25  1  0
 25 26  1  0
 26 27  1  0
 26 28  1  0
 28 29  1  0
 29 30  1  0
 30 31  1  0
 31 32  1  0
 19 33  1  0
 33 34  1  0
 34 35  1  0
 35 36  1  1
 35 37  1  0
 37 38  1  0
 38 39  1  0
 39 40  1  6
  8 41  1  0
 41 42  1  0
 41 43  1  0
 41  3  1  0
 13  6  1  0
 39 16  1  0
 39 11  1  0
 35 17  1  0
 32 26  1  0
  1 44  1  0
  1 45  1  0
  1 46  1  0
  3 47  1  1
  4 48  1  0
  4 49  1  0
  5 50  1  0
  5 51  1  0
  7 52  1  0
  7 53  1  0
  7 54  1  0
  8 55  1  6
  9 56  1  0
  9 57  1  0
 10 58  1  0
 10 59  1  0
 12 60  1  0
 12 61  1  0
 12 62  1  0
 13 63  1  6
 14 64  1  1
 15 65  1  0
 18 66  1  0
 18 67  1  0
 20 68  1  0
 20 69  1  0
 20 70  1  0
 24 71  1  0
 24 72  1  0
 25 73  1  0
 25 74  1  0
 27 75  1  0
 27 76  1  0
 27 77  1  0
 28 78  1  0
 28 79  1  0
 29 80  1  0
 29 81  1  0
 30 82  1  0
 30 83  1  0
 31 84  1  0
 31 85  1  0
 32 86  1  0
 32 87  1  0
 33 88  1  0
 33 89  1  0
 34 90  1  0
 34 91  1  0
 36 92  1  0
 36 93  1  0
 36 94  1  0
 37 95  1  0
 37 96  1  0
 38 97  1  0
 38 98  1  0
 40 99  1  0
 40100  1  0
 40101  1  0
 42102  1  0
 42103  1  0
 42104  1  0
 43105  1  0
 43106  1  0
 43107  1  0
M  CHG  1  26   1
M  END
>  <UniqueID>  (38) 
37

>  <SMILES>  (38) 
CO[C@H]1CC[C@]2(C)C(CCC3(C)C2C(O)C2=C4CC(C)(C(=O)OCC[N+]5(C)CCCCC5)CCC4(C)CCC23C)C1(C)C

>  <Energy>  (38) 
213.2085324406667

>  <Genealogy>  (38) 
CO[C@H]1CC[C@]2(C)C(CCC3(C)C2C(O)C2=C4CC(C)(C(=O)OCC[N+]5(C)CCCCC5)CCC4(C)CCC23C)C1(C)C (chirality)
CO[C@H]1CC[C@]2(C)C(CCC3(C)C2C(O)C2=C4CC(C)(C(=O)OCC[N+]5(C)CCCCC5)CCC4(C)CCC23C)C1(C)C (3D coordinates assigned)
CO[C@H]1CC[C@]2(C)C(CCC3(C)C2C(O)C2=C4CC(C)(C(=O)OCC[N+]5(C)CCCCC5)CCC4(C)CCC23C)C1(C)C (nonaromatic ring conformer: 213.2085324406667 kcal/mol)

>  <smiles>  (38) 
COC1CCC2(C)C(CCC3(C)C2C(O)C2=C4CC(C)(C(=O)OCC[N+]5(C)CCCCC5)CCC4(C)CCC23C)C1(C)C

>  <score_type>  (38) 
oracle

>  <origin>  (38) 
adg

>  <m_score__min__energy>  (38) 
-11.24

>  <m_primary>  (38) 
energy

$$$$
38:0
     RDKit          3D

 36 38  0  0  0  0  0  0  0  0999 V2000
   -9.4270   17.7990  -31.4240 F   0  0  0  0  0  0  0  0  0  0  0  0
   -8.2830   18.3580  -31.8890 C   0  0  0  0  0  0  0  0  0  0  0  0
   -7.0450   17.8200  -31.5250 C   0  0  0  0  0  0  0  0  0  0  0  0
   -5.8640   18.3930  -32.0020 C   0  0  0  0  0  0  0  0  0  0  0  0
   -5.9120   19.5070  -32.8560 C   0  0  0  0  0  0  0  0  0  0  0  0
   -4.6360   20.0980  -33.4100 C   0  0  0  0  0  0  0  0  0  0  0  0
   -4.1000   21.1820  -32.5670 N   0  0  0  0  0  0  0  0  0  0  0  0
   -4.8760   21.3970  -31.3330 C   0  0  0  0  0  0  0  0  0  0  0  0
   -4.9910   22.8680  -30.9900 C   0  0  0  0  0  0  0  0  0  0  0  0
   -3.8180   23.6050  -30.7480 C   0  0  0  0  0  0  0  0  0  0  0  0
   -3.8790   24.9380  -30.4960 N   0  0  0  0  0  0  0  0  0  0  0  0
   -5.0600   25.6040  -30.4570 C   0  0  0  0  0  0  0  0  0  0  0  0
   -6.2570   24.9170  -30.6580 C   0  0  0  0  0  0  0  0  0  0  0  0
   -6.2380   23.5360  -30.9030 C   0  0  0  0  0  0  0  0  0  0  0  0
   -7.4880   22.8380  -31.0350 N   0  0  0  0  0  0  0  0  0  0  0  0
   -8.0210   21.9540  -30.1760 C   0  0  0  0  0  0  0  0  0  0  0  0
   -9.2670   21.6060  -30.6450 C   0  0  0  0  0  0  0  0  0  0  0  0
   -9.5290   22.2850  -31.7810 N   0  0  0  0  0  0  0  0  0  0  0  0
   -8.4260   23.0350  -31.9830 C   0  0  0  0  0  0  0  0  0  0  0  0
   -7.1580   20.0460  -33.2170 C   0  0  0  0  0  0  0  0  0  0  0  0
   -8.3380   19.4720  -32.7340 C   0  0  0  0  0  0  0  0  0  0  0  0
   -9.5380   19.9970  -33.0880 F   0  0  0  0  0  0  0  0  0  0  0  0
   -7.0010   16.9437  -30.8616 H   0  0  0  0  0  0  0  0  0  0  0  0
   -4.8922   17.9700  -31.7076 H   0  0  0  0  0  0  0  0  0  0  0  0
   -3.8809   19.3013  -33.4816 H   0  0  0  0  0  0  0  0  0  0  0  0
   -4.8684   20.5269  -34.3959 H   0  0  0  0  0  0  0  0  0  0  0  0
   -3.1160   20.9470  -32.2990 H   0  0  0  0  0  0  0  0  0  0  0  0
   -5.8860   20.9835  -31.4709 H   0  0  0  0  0  0  0  0  0  0  0  0
   -4.3519   20.8933  -30.5074 H   0  0  0  0  0  0  0  0  0  0  0  0
   -2.8424   23.0972  -30.7630 H   0  0  0  0  0  0  0  0  0  0  0  0
   -5.0737   26.6873  -30.2666 H   0  0  0  0  0  0  0  0  0  0  0  0
   -7.2145   25.4573  -30.6245 H   0  0  0  0  0  0  0  0  0  0  0  0
   -7.5455   21.5750  -29.2593 H   0  0  0  0  0  0  0  0  0  0  0  0
   -9.9457   20.8844  -30.1668 H   0  0  0  0  0  0  0  0  0  0  0  0
   -8.3054   23.7299  -32.8272 H   0  0  0  0  0  0  0  0  0  0  0  0
   -7.2055   20.9216  -33.8811 H   0  0  0  0  0  0  0  0  0  0  0  0
  1  2  1  0
  2  3  2  0
  3  4  1  0
  4  5  2  0
  5  6  1  0
  6  7  1  0
  7  8  1  0
  8  9  1  0
  9 10  2  0
 10 11  1  0
 11 12  2  0
 12 13  1  0
 13 14  2  0
 14 15  1  0
 15 16  1  0
 16 17  2  0
 17 18  1  0
 18 19  2  0
  5 20  1  0
 20 21  2  0
 21 22  1  0
 21  2  1  0
 14  9  1  0
 19 15  1  0
  3 23  1  0
  4 24  1  0
  6 25  1  0
  6 26  1  0
  7 27  1  0
  8 28  1  0
  8 29  1  0
 10 30  1  0
 12 31  1  0
 13 32  1  0
 16 33  1  0
 17 34  1  0
 19 35  1  0
 20 36  1  0
M  END
>  <UniqueID>  (39) 
38

>  <SMILES>  (39) 
Fc1ccc(CNCc2cnccc2-n2ccnc2)cc1F

>  <Energy>  (39) 
74.73023846438632

>  <Genealogy>  (39) 
Fc1ccc(CNCc2cnccc2-n2ccnc2)cc1F (3D coordinates assigned)
Fc1ccc(CNCc2cnccc2-n2ccnc2)cc1F (optimized conformer: 74.73023846438632 kcal/mol)

>  <smiles>  (39) 
Fc1ccc(CNCc2cnccc2-n2ccnc2)cc1F

>  <score_type>  (39) 
oracle

>  <origin>  (39) 
adg

>  <m_score__min__energy>  (39) 
-7.2999999999999998

>  <m_primary>  (39) 
energy

$$$$
39:0
     RDKit          3D

 56 58  0  0  0  0  0  0  0  0999 V2000
   -3.9670   19.0540  -33.8120 C   0  0  0  0  0  0  0  0  0  0  0  0
   -2.7230   19.9450  -33.6690 C   0  0  0  0  0  0  0  0  0  0  0  0
   -2.4800   20.4810  -32.3030 N   0  0  0  0  0  0  0  0  0  0  0  0
   -1.1900   21.1880  -32.1460 C   0  0  0  0  0  0  0  0  0  0  0  0
   -1.0350   21.8920  -30.7960 C   0  0  0  0  0  0  0  0  0  0  0  0
   -3.6150   21.1580  -31.6320 C   0  0  0  0  0  0  0  0  0  0  0  0
   -4.0910   22.3720  -32.4390 C   0  0  0  0  0  0  0  0  0  0  0  0
   -5.0560   23.1730  -31.6490 N   0  0  0  0  0  0  0  0  0  0  0  0
   -6.3580   23.3180  -32.3320 C   0  0  0  0  0  0  0  0  0  0  0  0
   -7.1580   22.0470  -32.1990 C   0  0  0  0  0  0  0  0  0  0  0  0
   -6.7670   20.8800  -32.8750 C   0  0  0  0  0  0  0  0  0  0  0  0
   -7.5400   19.7180  -32.7800 C   0  0  0  0  0  0  0  0  0  0  0  0
   -8.7060   19.7140  -32.0090 C   0  0  0  0  0  0  0  0  0  0  0  0
   -9.4560   18.5870  -31.9210 F   0  0  0  0  0  0  0  0  0  0  0  0
   -9.1010   20.8710  -31.3310 C   0  0  0  0  0  0  0  0  0  0  0  0
   -8.3300   22.0340  -31.4240 C   0  0  0  0  0  0  0  0  0  0  0  0
   -5.1950   22.7320  -30.2390 C   0  0  0  0  0  0  0  0  0  0  0  0
   -4.0290   23.1220  -29.3530 C   0  0  0  0  0  0  0  0  0  0  0  0
   -3.6330   22.2960  -28.2850 C   0  0  0  0  0  0  0  0  0  0  0  0
   -2.5520   22.6550  -27.4740 C   0  0  0  0  0  0  0  0  0  0  0  0
   -1.8640   23.8470  -27.7180 C   0  0  0  0  0  0  0  0  0  0  0  0
   -2.2780   24.6970  -28.7520 C   0  0  0  0  0  0  0  0  0  0  0  0
   -3.3490   24.3340  -29.5720 C   0  0  0  0  0  0  0  0  0  0  0  0
   -1.6050   25.9070  -28.9460 O   0  0  0  0  0  0  0  0  0  0  0  0
   -0.7010   26.4160  -27.9620 C   0  0  0  0  0  0  0  0  0  0  0  0
    0.1100   25.2700  -27.3430 C   0  0  0  0  0  0  0  0  0  0  0  0
   -0.7600   24.2100  -26.9400 O   0  0  0  0  0  0  0  0  0  0  0  0
   -4.3423   18.7852  -32.8135 H   0  0  0  0  0  0  0  0  0  0  0  0
   -4.7476   19.5997  -34.3624 H   0  0  0  0  0  0  0  0  0  0  0  0
   -3.7016   18.1393  -34.3624 H   0  0  0  0  0  0  0  0  0  0  0  0
   -1.8444   19.3520  -33.9629 H   0  0  0  0  0  0  0  0  0  0  0  0
   -2.8990   20.8195  -34.3126 H   0  0  0  0  0  0  0  0  0  0  0  0
   -0.3769   20.4545  -32.2506 H   0  0  0  0  0  0  0  0  0  0  0  0
   -1.1541   21.9676  -32.9212 H   0  0  0  0  0  0  0  0  0  0  0  0
   -1.1946   21.1672  -29.9841 H   0  0  0  0  0  0  0  0  0  0  0  0
   -0.0224   22.3143  -30.7168 H   0  0  0  0  0  0  0  0  0  0  0  0
   -1.7766   22.7005  -30.7168 H   0  0  0  0  0  0  0  0  0  0  0  0
   -4.4475   20.4464  -31.5293 H   0  0  0  0  0  0  0  0  0  0  0  0
   -3.2788   21.5060  -30.6442 H   0  0  0  0  0  0  0  0  0  0  0  0
   -3.2243   22.9989  -32.6955 H   0  0  0  0  0  0  0  0  0  0  0  0
   -4.5870   22.0186  -33.3550 H   0  0  0  0  0  0  0  0  0  0  0  0
   -6.9170   24.1489  -31.8768 H   0  0  0  0  0  0  0  0  0  0  0  0
   -6.1838   23.5235  -33.3985 H   0  0  0  0  0  0  0  0  0  0  0  0
   -5.8494   20.8795  -33.4816 H   0  0  0  0  0  0  0  0  0  0  0  0
   -7.2301   18.8067  -33.3124 H   0  0  0  0  0  0  0  0  0  0  0  0
  -10.0185   20.8666  -30.7242 H   0  0  0  0  0  0  0  0  0  0  0  0
   -8.6424   22.9425  -30.8882 H   0  0  0  0  0  0  0  0  0  0  0  0
   -6.1096   23.1813  -29.8247 H   0  0  0  0  0  0  0  0  0  0  0  0
   -5.2311   21.6327  -30.2516 H   0  0  0  0  0  0  0  0  0  0  0  0
   -4.1777   21.3611  -28.0866 H   0  0  0  0  0  0  0  0  0  0  0  0
   -2.2436   22.0005  -26.6454 H   0  0  0  0  0  0  0  0  0  0  0  0
   -3.6617   24.9978  -30.3915 H   0  0  0  0  0  0  0  0  0  0  0  0
   -0.0140   27.1324  -28.4360 H   0  0  0  0  0  0  0  0  0  0  0  0
   -1.2776   26.9159  -27.1698 H   0  0  0  0  0  0  0  0  0  0  0  0
    0.8263   24.8893  -28.0860 H   0  0  0  0  0  0  0  0  0  0  0  0
    0.6481   25.6472  -26.4608 H   0  0  0  0  0  0  0  0  0  0  0  0
  1  2  1  0
  2  3  1  0
  3  4  1  0
  4  5  1  0
  3  6  1  0
  6  7  1  0
  7  8  1  0
  8  9  1  0
  9 10  1  0
 10 11  2  0
 11 12  1  0
 12 13  2  0
 13 14  1  0
 13 15  1  0
 15 16  2  0
  8 17  1  0
 17 18  1  0
 18 19  2  0
 19 20  1  0
 20 21  2  0
 21 22  1  0
 22 23  2  0
 22 24  1  0
 24 25  1  0
 25 26  1  0
 26 27  1  0
 16 10  1  0
 23 18  1  0
 27 21  1  0
  1 28  1  0
  1 29  1  0
  1 30  1  0
  2 31  1  0
  2 32  1  0
  4 33  1  0
  4 34  1  0
  5 35  1  0
  5 36  1  0
  5 37  1  0
  6 38  1  0
  6 39  1  0
  7 40  1  0
  7 41  1  0
  9 42  1  0
  9 43  1  0
 11 44  1  0
 12 45  1  0
 15 46  1  0
 16 47  1  0
 17 48  1  0
 17 49  1  0
 19 50  1  0
 20 51  1  0
 23 52  1  0
 25 53  1  0
 25 54  1  0
 26 55  1  0
 26 56  1  0
M  END
>  <UniqueID>  (40) 
39

>  <SMILES>  (40) 
CCN(CC)CCN(Cc1ccc(F)cc1)Cc1ccc2c(c1)OCCO2

>  <Energy>  (40) 
66.062154859869

>  <Genealogy>  (40) 
CCN(CC)CCN(Cc1ccc(F)cc1)Cc1ccc2c(c1)OCCO2 (3D coordinates assigned)
CCN(CC)CCN(Cc1ccc(F)cc1)Cc1ccc2c(c1)OCCO2 (nonaromatic ring conformer: 66.062154859869 kcal/mol)

>  <smiles>  (40) 
CCN(CC)CCN(Cc1ccc(F)cc1)Cc1ccc2c(c1)OCCO2

>  <score_type>  (40) 
oracle

>  <origin>  (40) 
adg

>  <m_score__min__energy>  (40) 
-7.8600000000000003

>  <m_primary>  (40) 
energy

$$$$
40:0
     RDKit          3D

 33 35  0  0  0  0  0  0  0  0999 V2000
   -9.3110   19.6940  -32.6620 C   0  0  0  0  0  0  0  0  0  0  0  0
   -8.2510   18.6960  -32.2090 C   0  0  0  0  0  0  0  0  0  0  0  0
   -6.9480   19.0460  -32.7750 N   0  0  0  0  0  0  0  0  0  0  0  0
   -6.1900   18.2540  -33.5700 C   0  0  0  0  0  0  0  0  0  0  0  0
   -4.9860   18.8780  -33.8740 C   0  0  0  0  0  0  0  0  0  0  0  0
   -5.0290   20.0900  -33.2190 C   0  0  0  0  0  0  0  0  0  0  0  0
   -4.0910   21.1150  -33.1610 C   0  0  0  0  0  0  0  0  0  0  0  0
   -4.4000   22.2490  -32.3900 C   0  0  0  0  0  0  0  0  0  0  0  0
   -5.6290   22.3340  -31.6830 C   0  0  0  0  0  0  0  0  0  0  0  0
   -5.9450   23.5030  -30.8990 N   0  0  0  0  0  0  0  0  0  0  0  0
   -7.2390   23.7630  -30.2880 C   0  0  0  0  0  0  0  0  0  0  0  0
   -7.1800   25.2090  -29.7610 C   0  0  0  0  0  0  0  0  0  0  0  0
   -5.7090   25.6450  -29.8100 C   0  0  0  0  0  0  0  0  0  0  0  0
   -5.0610   24.5630  -30.5760 C   0  0  0  0  0  0  0  0  0  0  0  0
   -3.8300   24.5500  -30.8490 O   0  0  0  0  0  0  0  0  0  0  0  0
   -6.5600   21.2740  -31.7790 C   0  0  0  0  0  0  0  0  0  0  0  0
   -6.2250   20.1640  -32.5570 C   0  0  0  0  0  0  0  0  0  0  0  0
   -9.7902   20.1452  -31.7807 H   0  0  0  0  0  0  0  0  0  0  0  0
   -8.8381   20.4823  -33.2661 H   0  0  0  0  0  0  0  0  0  0  0  0
  -10.0694   19.1745  -33.2661 H   0  0  0  0  0  0  0  0  0  0  0  0
   -8.1852   18.7101  -31.1111 H   0  0  0  0  0  0  0  0  0  0  0  0
   -8.5338   17.6916  -32.5571 H   0  0  0  0  0  0  0  0  0  0  0  0
   -6.4860   17.2560  -33.9255 H   0  0  0  0  0  0  0  0  0  0  0  0
   -4.1723   18.4879  -34.5031 H   0  0  0  0  0  0  0  0  0  0  0  0
   -3.1362   21.0406  -33.7021 H   0  0  0  0  0  0  0  0  0  0  0  0
   -3.6817   23.0802  -32.3335 H   0  0  0  0  0  0  0  0  0  0  0  0
   -8.0408   23.6611  -31.0341 H   0  0  0  0  0  0  0  0  0  0  0  0
   -7.4520   23.0489  -29.4789 H   0  0  0  0  0  0  0  0  0  0  0  0
   -7.7906   25.8677  -30.3961 H   0  0  0  0  0  0  0  0  0  0  0  0
   -7.5733   25.2694  -28.7355 H   0  0  0  0  0  0  0  0  0  0  0  0
   -5.6011   26.6114  -30.3243 H   0  0  0  0  0  0  0  0  0  0  0  0
   -5.2690   25.7900  -28.8123 H   0  0  0  0  0  0  0  0  0  0  0  0
   -7.5250   21.3227  -31.2533 H   0  0  0  0  0  0  0  0  0  0  0  0
  1  2  1  0
  2  3  1  0
  3  4  1  0
  4  5  2  0
  5  6  1  0
  6  7  2  0
  7  8  1  0
  8  9  2  0
  9 10  1  0
 10 11  1  0
 11 12  1  0
 12 13  1  0
 13 14  1  0
 14 15  2  0
  9 16  1  0
 16 17  2  0
 17  3  1  0
 17  6  1  0
 14 10  1  0
  1 18  1  0
  1 19  1  0
  1 20  1  0
  2 21  1  0
  2 22  1  0
  4 23  1  0
  5 24  1  0
  7 25  1  0
  8 26  1  0
 11 27  1  0
 11 28  1  0
 12 29  1  0
 12 30  1  0
 13 31  1  0
 13 32  1  0
 16 33  1  0
M  END
>  <UniqueID>  (41) 
40

>  <SMILES>  (41) 
CCn1ccc2ccc(N3CCCC3=O)cc21

>  <Energy>  (41) 
74.12029588523859

>  <Genealogy>  (41) 
CCn1ccc2ccc(N3CCCC3=O)cc21 (3D coordinates assigned)
CCn1ccc2ccc(N3CCCC3=O)cc21 (nonaromatic ring conformer: 74.12029588523859 kcal/mol)

>  <smiles>  (41) 
CCn1ccc2ccc(N3CCCC3=O)cc21

>  <score_type>  (41) 
oracle

>  <origin>  (41) 
adg

>  <m_score__min__energy>  (41) 
-7.4000000000000004

>  <m_primary>  (41) 
energy

$$$$
41:0
     RDKit          3D

 47 50  0  0  1  0  0  0  0  0999 V2000
   -3.2930   24.3930  -29.4830 C   0  0  0  0  0  0  0  0  0  0  0  0
   -4.1690   24.8210  -30.5100 O   0  0  0  0  0  0  0  0  0  0  0  0
   -5.3150   24.1040  -30.7920 C   0  0  0  0  0  0  0  0  0  0  0  0
   -5.7490   23.8400  -32.0850 C   0  0  0  0  0  0  0  0  0  0  0  0
   -6.8950   23.1230  -32.3560 C   0  0  0  0  0  0  0  0  0  0  0  0
   -7.6550   22.6420  -31.3150 C   0  0  0  0  0  0  0  0  0  0  0  0
   -8.8830   21.8780  -31.4930 C   0  0  0  0  0  0  0  0  0  0  0  0
   -9.9270   22.2430  -30.8580 O   0  0  0  0  0  0  0  0  0  0  0  0
   -9.0100   20.7510  -32.3270 N   0  0  0  0  0  0  0  0  0  0  0  0
   -8.0750   19.8570  -32.4540 C   0  0  0  0  0  0  0  0  0  0  0  0
   -6.8650   19.9500  -32.8910 N   0  0  0  0  0  0  0  0  0  0  0  0
   -6.0520   18.9510  -32.9360 C   0  0  0  0  0  0  0  0  0  0  0  0
   -4.6850   18.9040  -33.4330 C   0  0  0  0  0  0  0  0  0  0  0  0
   -3.4670   20.2040  -33.1980 S   0  0  0  0  0  0  0  0  0  0  0  0
   -2.1660   19.2590  -34.2110 C   0  0  0  0  0  0  0  0  0  0  0  0
   -0.8790   19.8960  -34.3670 N   0  0  0  0  0  0  0  0  0  0  0  0
   -0.0900   19.7700  -35.5640 C   0  0  0  0  0  0  0  0  0  0  0  0
    0.5060   21.0870  -35.9960 C   0  0  0  0  0  0  0  0  0  0  0  0
    0.5460   22.0160  -34.9860 O   0  0  0  0  0  0  0  0  0  0  0  0
    0.7620   21.5020  -33.7270 C   0  0  0  0  0  0  0  0  0  0  0  0
   -0.4070   20.6900  -33.2340 C   0  0  0  0  0  0  0  0  0  0  0  0
   -2.7770   18.3160  -34.4860 N   0  0  0  0  0  0  0  0  0  0  0  0
   -4.0110   17.9540  -34.2070 C   0  0  0  0  0  0  0  0  0  0  0  0
   -4.5880   16.6390  -34.6670 C   0  0  0  0  0  0  0  0  0  0  0  0
   -6.5690   17.7210  -32.4690 N   0  0  0  0  0  0  0  0  0  0  0  0
   -8.2840   18.1650  -31.9840 S   0  0  0  0  0  0  0  0  0  0  0  0
   -7.2250   22.9040  -30.0320 C   0  0  0  0  0  0  0  0  0  0  0  0
   -6.0810   23.6190  -29.7470 C   0  0  0  0  0  0  0  0  0  0  0  0
   -3.7420   24.6124  -28.5030 H   0  0  0  0  0  0  0  0  0  0  0  0
   -3.1226   23.3101  -29.5741 H   0  0  0  0  0  0  0  0  0  0  0  0
   -2.3340   24.9241  -29.5741 H   0  0  0  0  0  0  0  0  0  0  0  0
   -5.1531   24.2191  -32.9283 H   0  0  0  0  0  0  0  0  0  0  0  0
   -7.1993   22.9370  -33.3966 H   0  0  0  0  0  0  0  0  0  0  0  0
   -6.5230   20.9440  -33.2270 H   0  0  0  0  0  0  0  0  0  0  0  0
    0.7260   19.0565  -35.3768 H   0  0  0  0  0  0  0  0  0  0  0  0
   -0.7523   19.4192  -36.3692 H   0  0  0  0  0  0  0  0  0  0  0  0
    1.5326   20.9082  -36.3483 H   0  0  0  0  0  0  0  0  0  0  0  0
   -0.1367   21.4934  -36.7909 H   0  0  0  0  0  0  0  0  0  0  0  0
    1.6533   20.8580  -33.7557 H   0  0  0  0  0  0  0  0  0  0  0  0
    0.9000   22.3474  -33.0369 H   0  0  0  0  0  0  0  0  0  0  0  0
   -0.0896   20.0286  -32.4144 H   0  0  0  0  0  0  0  0  0  0  0  0
   -1.2054   21.3417  -32.8494 H   0  0  0  0  0  0  0  0  0  0  0  0
   -4.8554   16.0295  -33.7912 H   0  0  0  0  0  0  0  0  0  0  0  0
   -5.4872   16.8250  -35.2727 H   0  0  0  0  0  0  0  0  0  0  0  0
   -3.8423   16.1032  -35.2727 H   0  0  0  0  0  0  0  0  0  0  0  0
   -7.8252   22.5232  -29.1925 H   0  0  0  0  0  0  0  0  0  0  0  0
   -5.7818   23.8011  -28.7042 H   0  0  0  0  0  0  0  0  0  0  0  0
  1  2  1  0
  2  3  1  0
  3  4  2  0
  4  5  1  0
  5  6  2  0
  6  7  1  0
  7  8  2  0
  7  9  1  0
  9 10  2  0
 10 11  1  0
 11 12  1  0
 12 13  1  0
 13 14  1  0
 14 15  1  0
 15 16  1  0
 16 17  1  0
 17 18  1  0
 18 19  1  0
 19 20  1  0
 20 21  1  0
 15 22  2  0
 22 23  1  0
 23 24  1  0
 12 25  2  0
 25 26  1  0
  6 27  1  0
 27 28  2  0
 28  3  1  0
 26 10  1  0
 23 13  2  0
 21 16  1  0
  1 29  1  0
  1 30  1  0
  1 31  1  0
  4 32  1  0
  5 33  1  0
 11 34  1  0
 17 35  1  0
 17 36  1  0
 18 37  1  0
 18 38  1  0
 20 39  1  0
 20 40  1  0
 21 41  1  0
 21 42  1  0
 24 43  1  0
 24 44  1  0
 24 45  1  0
 27 46  1  0
 28 47  1  0
M  END
>  <smiles>  (42) 
COc1ccc(C(=O)N=c2[nH]c(-c3sc(N4CCOCC4)nc3C)ns2)cc1

>  <score_type>  (42) 
oracle

>  <origin>  (42) 
adg

>  <m_score__min__energy>  (42) 
-9.0800000000000001

>  <m_primary>  (42) 
energy

$$$$
42:0
     RDKit          3D

 42 43  0  0  0  0  0  0  0  0999 V2000
   -6.4930   25.6590  -29.4470 C   0  0  0  0  0  0  0  0  0  0  0  0
   -6.2150   24.4700  -30.2470 N   0  0  0  0  0  0  0  0  0  0  0  0
   -7.0940   23.8160  -31.0430 C   0  0  0  0  0  0  0  0  0  0  0  0
   -6.4640   22.7510  -31.6780 C   0  0  0  0  0  0  0  0  0  0  0  0
   -7.0860   21.8160  -32.6750 C   0  0  0  0  0  0  0  0  0  0  0  0
   -8.4330   21.2530  -32.1830 C   0  0  0  0  0  0  0  0  0  0  0  0
   -8.8740   20.0560  -32.9230 N   0  0  0  0  0  0  0  0  0  0  0  0
   -8.6840   18.8080  -32.1680 C   0  0  0  0  0  0  0  0  0  0  0  0
   -7.2080   18.3740  -32.2270 C   0  0  0  0  0  0  0  0  0  0  0  0
   -6.6120   18.5680  -33.5710 N   0  0  0  0  0  0  0  0  0  0  0  0
   -5.3200   19.2770  -33.4980 C   0  0  0  0  0  0  0  0  0  0  0  0
   -6.4200   17.2610  -34.2250 C   0  0  0  0  0  0  0  0  0  0  0  0
   -5.1480   22.7820  -31.2530 C   0  0  0  0  0  0  0  0  0  0  0  0
   -4.0550   21.9790  -31.5850 C   0  0  0  0  0  0  0  0  0  0  0  0
   -2.8140   22.2800  -30.9930 C   0  0  0  0  0  0  0  0  0  0  0  0
   -1.7280   21.5250  -31.2880 F   0  0  0  0  0  0  0  0  0  0  0  0
   -2.6940   23.3650  -30.0980 C   0  0  0  0  0  0  0  0  0  0  0  0
   -3.8100   24.1610  -29.7860 C   0  0  0  0  0  0  0  0  0  0  0  0
   -5.0310   23.8400  -30.3850 C   0  0  0  0  0  0  0  0  0  0  0  0
   -6.4334   25.4042  -28.3786 H   0  0  0  0  0  0  0  0  0  0  0  0
   -5.7530   26.4388  -29.6798 H   0  0  0  0  0  0  0  0  0  0  0  0
   -7.5021   26.0299  -29.6798 H   0  0  0  0  0  0  0  0  0  0  0  0
   -8.1525   24.0876  -31.1690 H   0  0  0  0  0  0  0  0  0  0  0  0
   -7.2523   22.3610  -33.6159 H   0  0  0  0  0  0  0  0  0  0  0  0
   -6.3984   20.9695  -32.8188 H   0  0  0  0  0  0  0  0  0  0  0  0
   -8.3327   20.9883  -31.1201 H   0  0  0  0  0  0  0  0  0  0  0  0
   -9.1904   22.0335  -32.3480 H   0  0  0  0  0  0  0  0  0  0  0  0
   -8.3740   19.9900  -33.8390 H   0  0  0  0  0  0  0  0  0  0  0  0
   -8.9742   18.9693  -31.1193 H   0  0  0  0  0  0  0  0  0  0  0  0
   -9.3093   18.0195  -32.6121 H   0  0  0  0  0  0  0  0  0  0  0  0
   -6.6364   18.9679  -31.4986 H   0  0  0  0  0  0  0  0  0  0  0  0
   -7.1661   17.2996  -31.9949 H   0  0  0  0  0  0  0  0  0  0  0  0
   -7.2680   19.1270  -34.1670 H   0  0  0  0  0  0  0  0  0  0  0  0
   -5.0439   19.4285  -32.4440 H   0  0  0  0  0  0  0  0  0  0  0  0
   -4.5444   18.6781  -33.9978 H   0  0  0  0  0  0  0  0  0  0  0  0
   -5.4085   20.2529  -33.9978 H   0  0  0  0  0  0  0  0  0  0  0  0
   -6.3054   16.4806  -33.4582 H   0  0  0  0  0  0  0  0  0  0  0  0
   -7.2943   17.0330  -34.8524 H   0  0  0  0  0  0  0  0  0  0  0  0
   -5.5171   17.2940  -34.8524 H   0  0  0  0  0  0  0  0  0  0  0  0
   -4.1604   21.1383  -32.2865 H   0  0  0  0  0  0  0  0  0  0  0  0
   -1.7190   23.5896  -29.6408 H   0  0  0  0  0  0  0  0  0  0  0  0
   -3.7247   25.0101  -29.0919 H   0  0  0  0  0  0  0  0  0  0  0  0
  1  2  1  0
  2  3  1  0
  3  4  2  0
  4  5  1  0
  5  6  1  0
  6  7  1  0
  7  8  1  0
  8  9  1  0
  9 10  1  0
 10 11  1  0
 10 12  1  0
  4 13  1  0
 13 14  2  0
 14 15  1  0
 15 16  1  0
 15 17  2  0
 17 18  1  0
 18 19  2  0
 19  2  1  0
 19 13  1  0
  1 20  1  0
  1 21  1  0
  1 22  1  0
  3 23  1  0
  5 24  1  0
  5 25  1  0
  6 26  1  0
  6 27  1  0
  7 28  1  0
  8 29  1  0
  8 30  1  0
  9 31  1  0
  9 32  1  0
 10 33  1  0
 11 34  1  0
 11 35  1  0
 11 36  1  0
 12 37  1  0
 12 38  1  0
 12 39  1  0
 14 40  1  0
 17 41  1  0
 18 42  1  0
M  CHG  1  10   1
M  END
>  <UniqueID>  (43) 
41

>  <SMILES>  (43) 
Cn1cc(CCNCC[NH+](C)C)c2cc(F)ccc21

>  <Energy>  (43) 
72.84687102990814

>  <Genealogy>  (43) 
Cn1cc(CCNCC[NH+](C)C)c2cc(F)ccc21 (protonated)
Cn1cc(CCNCC[NH+](C)C)c2cc(F)ccc21 (3D coordinates assigned)
Cn1cc(CCNCC[NH+](C)C)c2cc(F)ccc21 (optimized conformer: 72.84687102990814 kcal/mol)

>  <smiles>  (43) 
CN(C)CCNCCc1cn(C)c2ccc(F)cc12

>  <score_type>  (43) 
oracle

>  <origin>  (43) 
adg

>  <m_score__min__energy>  (43) 
-6.1399999999999997

>  <m_primary>  (43) 
energy

$$$$
43:0
     RDKit          3D

 36 38  0  0  0  0  0  0  0  0999 V2000
   -0.4680   24.1020  -24.7580 C   0  0  0  0  0  0  0  0  0  0  0  0
    0.2160   24.3060  -26.1040 C   0  0  0  0  0  0  0  0  0  0  0  0
   -0.8020   24.5010  -27.1910 C   0  0  0  0  0  0  0  0  0  0  0  0
   -1.0920   25.6740  -27.8850 C   0  0  0  0  0  0  0  0  0  0  0  0
   -0.4850   27.0160  -27.6370 C   0  0  0  0  0  0  0  0  0  0  0  0
   -1.9990   25.4440  -28.8170 O   0  0  0  0  0  0  0  0  0  0  0  0
   -2.3040   24.1680  -28.7720 C   0  0  0  0  0  0  0  0  0  0  0  0
   -1.5880   23.5370  -27.7880 C   0  0  0  0  0  0  0  0  0  0  0  0
   -1.7090   22.1710  -27.5420 C   0  0  0  0  0  0  0  0  0  0  0  0
   -2.6140   21.4250  -28.3360 C   0  0  0  0  0  0  0  0  0  0  0  0
   -2.7960   20.0450  -28.1530 O   0  0  0  0  0  0  0  0  0  0  0  0
   -2.7340   19.3850  -26.8940 C   0  0  0  0  0  0  0  0  0  0  0  0
   -3.3610   22.0740  -29.3490 C   0  0  0  0  0  0  0  0  0  0  0  0
   -4.2100   21.3700  -30.0930 O   0  0  0  0  0  0  0  0  0  0  0  0
   -4.9430   21.9130  -31.0620 C   0  0  0  0  0  0  0  0  0  0  0  0
   -5.8740   21.0510  -31.8520 C   0  0  0  0  0  0  0  0  0  0  0  0
   -4.8430   23.2820  -31.3430 C   0  0  0  0  0  0  0  0  0  0  0  0
   -3.9680   24.0690  -30.5940 C   0  0  0  0  0  0  0  0  0  0  0  0
   -3.8720   25.3030  -30.8400 O   0  0  0  0  0  0  0  0  0  0  0  0
   -3.2090   23.4690  -29.5780 C   0  0  0  0  0  0  0  0  0  0  0  0
    0.2454   24.3148  -23.9482 H   0  0  0  0  0  0  0  0  0  0  0  0
   -1.3283   24.7827  -24.6770 H   0  0  0  0  0  0  0  0  0  0  0  0
   -0.8149   23.0613  -24.6770 H   0  0  0  0  0  0  0  0  0  0  0  0
    0.8619   25.1948  -26.0501 H   0  0  0  0  0  0  0  0  0  0  0  0
    0.8152   23.4132  -26.3358 H   0  0  0  0  0  0  0  0  0  0  0  0
   -0.4070   27.1885  -26.5534 H   0  0  0  0  0  0  0  0  0  0  0  0
    0.5178   27.0538  -28.0875 H   0  0  0  0  0  0  0  0  0  0  0  0
   -1.1188   27.7940  -28.0875 H   0  0  0  0  0  0  0  0  0  0  0  0
   -1.1175   21.6849  -26.7522 H   0  0  0  0  0  0  0  0  0  0  0  0
   -2.8038   20.1286  -26.0864 H   0  0  0  0  0  0  0  0  0  0  0  0
   -3.5693   18.6741  -26.8111 H   0  0  0  0  0  0  0  0  0  0  0  0
   -1.7809   18.8421  -26.8111 H   0  0  0  0  0  0  0  0  0  0  0  0
   -6.5046   20.4671  -31.1654 H   0  0  0  0  0  0  0  0  0  0  0  0
   -6.5115   21.6848  -32.4860 H   0  0  0  0  0  0  0  0  0  0  0  0
   -5.2911   20.3667  -32.4860 H   0  0  0  0  0  0  0  0  0  0  0  0
   -5.4474   23.7310  -32.1449 H   0  0  0  0  0  0  0  0  0  0  0  0
  1  2  1  0
  2  3  1  0
  3  4  2  0
  4  5  1  0
  4  6  1  0
  6  7  1  0
  7  8  2  0
  8  9  1  0
  9 10  2  0
 10 11  1  0
 11 12  1  0
 10 13  1  0
 13 14  1  0
 14 15  1  0
 15 16  1  0
 15 17  2  0
 17 18  1  0
 18 19  2  0
 18 20  1  0
  8  3  1  0
 20 13  2  0
 20  7  1  0
  1 21  1  0
  1 22  1  0
  1 23  1  0
  2 24  1  0
  2 25  1  0
  5 26  1  0
  5 27  1  0
  5 28  1  0
  9 29  1  0
 12 30  1  0
 12 31  1  0
 12 32  1  0
 16 33  1  0
 16 34  1  0
 16 35  1  0
 17 36  1  0
M  END
>  <UniqueID>  (44) 
42

>  <SMILES>  (44) 
CCc1c(C)oc2c1cc(OC)c1oc(C)cc(=O)c12

>  <Energy>  (44) 
69.77057445928783

>  <Genealogy>  (44) 
CCc1c(C)oc2c1cc(OC)c1oc(C)cc(=O)c12 (3D coordinates assigned)
CCc1c(C)oc2c1cc(OC)c1oc(C)cc(=O)c12 (optimized conformer: 69.77057445928783 kcal/mol)

>  <smiles>  (44) 
CCc1c(C)oc2c1cc(OC)c1oc(C)cc(=O)c12

>  <score_type>  (44) 
oracle

>  <origin>  (44) 
adg

>  <m_score__min__energy>  (44) 
-7.04

>  <m_primary>  (44) 
energy

$$$$
44:0
     RDKit          3D

 41 43  0  0  0  0  0  0  0  0999 V2000
   -8.4100   22.5390  -31.6290 C   0  0  0  0  0  0  0  0  0  0  0  0
   -8.0970   21.0910  -31.8750 C   0  0  0  0  0  0  0  0  0  0  0  0
   -9.0670   20.1070  -31.6200 C   0  0  0  0  0  0  0  0  0  0  0  0
   -8.7900   18.7610  -31.8720 C   0  0  0  0  0  0  0  0  0  0  0  0
   -9.7310   17.8170  -31.6210 F   0  0  0  0  0  0  0  0  0  0  0  0
   -7.5460   18.3860  -32.3820 C   0  0  0  0  0  0  0  0  0  0  0  0
   -6.5760   19.3560  -32.6450 C   0  0  0  0  0  0  0  0  0  0  0  0
   -6.8450   20.7170  -32.4040 C   0  0  0  0  0  0  0  0  0  0  0  0
   -5.8930   21.7130  -32.6740 O   0  0  0  0  0  0  0  0  0  0  0  0
   -4.5120   21.5180  -32.5760 C   0  0  0  0  0  0  0  0  0  0  0  0
   -3.9040   20.7080  -33.4830 N   0  0  0  0  0  0  0  0  0  0  0  0
   -2.5660   20.4830  -33.4700 C   0  0  0  0  0  0  0  0  0  0  0  0
   -1.7670   21.0940  -32.5060 C   0  0  0  0  0  0  0  0  0  0  0  0
   -2.3580   21.9180  -31.5510 C   0  0  0  0  0  0  0  0  0  0  0  0
   -3.7490   22.1350  -31.5570 C   0  0  0  0  0  0  0  0  0  0  0  0
   -4.4000   22.9880  -30.4750 C   0  0  0  0  0  0  0  0  0  0  0  0
   -5.2430   24.1340  -31.0830 C   0  0  0  0  0  0  0  0  0  0  0  0
   -5.4010   25.3230  -30.1140 C   0  0  0  0  0  0  0  0  0  0  0  0
   -5.3600   24.8810  -28.7120 N   0  0  0  0  0  0  0  0  0  0  0  0
   -4.0420   24.3240  -28.3390 C   0  0  0  0  0  0  0  0  0  0  0  0
   -3.3600   23.5390  -29.4830 C   0  0  0  0  0  0  0  0  0  0  0  0
   -8.4505   22.7265  -30.5459 H   0  0  0  0  0  0  0  0  0  0  0  0
   -7.6265   23.1653  -32.0805 H   0  0  0  0  0  0  0  0  0  0  0  0
   -9.3822   22.7858  -32.0805 H   0  0  0  0  0  0  0  0  0  0  0  0
  -10.0495   20.3979  -31.2199 H   0  0  0  0  0  0  0  0  0  0  0  0
   -7.3293   17.3253  -32.5770 H   0  0  0  0  0  0  0  0  0  0  0  0
   -5.5957   19.0548  -33.0429 H   0  0  0  0  0  0  0  0  0  0  0  0
   -2.1124   19.8186  -34.2202 H   0  0  0  0  0  0  0  0  0  0  0  0
   -0.6797   20.9273  -32.4991 H   0  0  0  0  0  0  0  0  0  0  0  0
   -1.7332   22.4028  -30.7864 H   0  0  0  0  0  0  0  0  0  0  0  0
   -5.0811   22.3301  -29.9153 H   0  0  0  0  0  0  0  0  0  0  0  0
   -4.7491   24.4883  -31.9998 H   0  0  0  0  0  0  0  0  0  0  0  0
   -6.2468   23.7371  -31.2946 H   0  0  0  0  0  0  0  0  0  0  0  0
   -4.5832   26.0378  -30.2881 H   0  0  0  0  0  0  0  0  0  0  0  0
   -6.3773   25.7943  -30.3002 H   0  0  0  0  0  0  0  0  0  0  0  0
   -5.5660   25.7010  -28.0940 H   0  0  0  0  0  0  0  0  0  0  0  0
   -6.1070   24.1650  -28.5500 H   0  0  0  0  0  0  0  0  0  0  0  0
   -3.3832   25.1545  -28.0452 H   0  0  0  0  0  0  0  0  0  0  0  0
   -4.2110   23.6151  -27.5151 H   0  0  0  0  0  0  0  0  0  0  0  0
   -2.6728   24.2101  -30.0191 H   0  0  0  0  0  0  0  0  0  0  0  0
   -2.8113   22.6916  -29.0461 H   0  0  0  0  0  0  0  0  0  0  0  0
  1  2  1  0
  2  3  2  0
  3  4  1  0
  4  5  1  0
  4  6  2  0
  6  7  1  0
  7  8  2  0
  8  9  1  0
  9 10  1  0
 10 11  2  0
 11 12  1  0
 12 13  2  0
 13 14  1  0
 14 15  2  0
 15 16  1  0
 16 17  1  0
 17 18  1  0
 18 19  1  0
 19 20  1  0
 20 21  1  0
  8  2  1  0
 15 10  1  0
 21 16  1  0
  1 22  1  0
  1 23  1  0
  1 24  1  0
  3 25  1  0
  6 26  1  0
  7 27  1  0
 12 28  1  0
 13 29  1  0
 14 30  1  0
 16 31  1  0
 17 32  1  0
 17 33  1  0
 18 34  1  0
 18 35  1  0
 19 36  1  0
 19 37  1  0
 20 38  1  0
 20 39  1  0
 21 40  1  0
 21 41  1  0
M  CHG  1  19   1
M  END
>  <UniqueID>  (45) 
43

>  <SMILES>  (45) 
Cc1cc(F)ccc1Oc1ncccc1C1CC[NH2+]CC1

>  <Energy>  (45) 
56.486503290310665

>  <Genealogy>  (45) 
Cc1cc(F)ccc1Oc1ncccc1C1CC[NH2+]CC1 (protonated)
Cc1cc(F)ccc1Oc1ncccc1C1CC[NH2+]CC1 (3D coordinates assigned)
Cc1cc(F)ccc1Oc1ncccc1C1CC[NH2+]CC1 (nonaromatic ring conformer: 56.486503290310665 kcal/mol)

>  <smiles>  (45) 
Cc1cc(F)ccc1Oc1ncccc1C1CCNCC1

>  <score_type>  (45) 
oracle

>  <origin>  (45) 
adg

>  <m_score__min__energy>  (45) 
-7.5199999999999996

>  <m_primary>  (45) 
energy

$$$$
45:0
     RDKit          3D

 56 59  0  0  0  0  0  0  0  0999 V2000
    1.4050   28.3430  -23.0210 C   0  0  0  0  0  0  0  0  0  0  0  0
    1.0930   26.9180  -23.2330 N   0  0  0  0  0  0  0  0  0  0  0  0
   -0.2380   26.7550  -23.8780 C   0  0  0  0  0  0  0  0  0  0  0  0
   -0.1250   26.5260  -25.3920 C   0  0  0  0  0  0  0  0  0  0  0  0
    0.6310   25.2840  -25.6680 N   0  0  0  0  0  0  0  0  0  0  0  0
    1.0080   25.1110  -27.0890 C   0  0  0  0  0  0  0  0  0  0  0  0
   -0.0280   24.3750  -27.9160 C   0  0  0  0  0  0  0  0  0  0  0  0
    0.2290   23.0820  -28.4040 C   0  0  0  0  0  0  0  0  0  0  0  0
   -0.7220   22.4180  -29.1780 C   0  0  0  0  0  0  0  0  0  0  0  0
   -1.9510   23.0210  -29.4460 C   0  0  0  0  0  0  0  0  0  0  0  0
   -2.2450   24.2900  -28.9380 C   0  0  0  0  0  0  0  0  0  0  0  0
   -3.5600   24.8200  -29.1500 N   0  0  0  0  0  0  0  0  0  0  0  0
   -4.3280   24.7500  -30.3580 C   0  0  0  0  0  0  0  0  0  0  0  0
   -4.1770   25.6650  -31.2100 O   0  0  0  0  0  0  0  0  0  0  0  0
   -5.3500   23.6970  -30.5880 C   0  0  0  0  0  0  0  0  0  0  0  0
   -6.5600   23.7320  -29.8710 C   0  0  0  0  0  0  0  0  0  0  0  0
   -7.4930   22.7030  -30.0000 C   0  0  0  0  0  0  0  0  0  0  0  0
   -7.2370   21.6280  -30.8490 C   0  0  0  0  0  0  0  0  0  0  0  0
   -6.0560   21.5860  -31.6090 C   0  0  0  0  0  0  0  0  0  0  0  0
   -5.7760   20.4330  -32.5020 C   0  0  0  0  0  0  0  0  0  0  0  0
   -4.4420   20.1390  -32.8420 C   0  0  0  0  0  0  0  0  0  0  0  0
   -4.1390   19.0490  -33.6610 C   0  0  0  0  0  0  0  0  0  0  0  0
   -5.1620   18.2350  -34.1490 C   0  0  0  0  0  0  0  0  0  0  0  0
   -4.8660   17.1790  -34.9460 F   0  0  0  0  0  0  0  0  0  0  0  0
   -6.4910   18.5170  -33.8300 C   0  0  0  0  0  0  0  0  0  0  0  0
   -6.8090   19.6100  -33.0140 C   0  0  0  0  0  0  0  0  0  0  0  0
   -8.5160   19.9520  -32.7290 Cl  0  0  0  0  0  0  0  0  0  0  0  0
   -5.1100   22.6170  -31.4600 C   0  0  0  0  0  0  0  0  0  0  0  0
   -1.2780   24.9670  -28.1720 C   0  0  0  0  0  0  0  0  0  0  0  0
    1.7120   24.9910  -24.6970 C   0  0  0  0  0  0  0  0  0  0  0  0
    2.1960   26.2600  -23.9800 C   0  0  0  0  0  0  0  0  0  0  0  0
    1.4507   28.5518  -21.9420 H   0  0  0  0  0  0  0  0  0  0  0  0
    2.3759   28.5782  -23.4814 H   0  0  0  0  0  0  0  0  0  0  0  0
    0.6212   28.9624  -23.4814 H   0  0  0  0  0  0  0  0  0  0  0  0
    1.0420   26.4740  -22.2850 H   0  0  0  0  0  0  0  0  0  0  0  0
   -0.7471   25.8909  -23.4261 H   0  0  0  0  0  0  0  0  0  0  0  0
   -0.8064   27.6832  -23.7185 H   0  0  0  0  0  0  0  0  0  0  0  0
   -1.1337   26.4402  -25.8224 H   0  0  0  0  0  0  0  0  0  0  0  0
    0.4062   27.3765  -25.8441 H   0  0  0  0  0  0  0  0  0  0  0  0
    1.1593   26.1070  -27.5306 H   0  0  0  0  0  0  0  0  0  0  0  0
    1.9214   24.4983  -27.1039 H   0  0  0  0  0  0  0  0  0  0  0  0
    1.1861   22.5911  -28.1739 H   0  0  0  0  0  0  0  0  0  0  0  0
   -0.5027   21.4170  -29.5779 H   0  0  0  0  0  0  0  0  0  0  0  0
   -2.6947   22.4940  -30.0618 H   0  0  0  0  0  0  0  0  0  0  0  0
   -6.7724   24.5791  -29.2021 H   0  0  0  0  0  0  0  0  0  0  0  0
   -8.4331   22.7402  -29.4301 H   0  0  0  0  0  0  0  0  0  0  0  0
   -7.9647   20.8065  -30.9247 H   0  0  0  0  0  0  0  0  0  0  0  0
   -3.6299   20.7743  -32.4587 H   0  0  0  0  0  0  0  0  0  0  0  0
   -3.0926   18.8319  -33.9217 H   0  0  0  0  0  0  0  0  0  0  0  0
   -7.2945   17.8763  -34.2222 H   0  0  0  0  0  0  0  0  0  0  0  0
   -4.1710   22.5791  -32.0318 H   0  0  0  0  0  0  0  0  0  0  0  0
   -1.5013   25.9665  -27.7705 H   0  0  0  0  0  0  0  0  0  0  0  0
    1.3336   24.2809  -23.9469 H   0  0  0  0  0  0  0  0  0  0  0  0
    2.5624   24.5665  -25.2508 H   0  0  0  0  0  0  0  0  0  0  0  0
    2.9942   25.9888  -23.2734 H   0  0  0  0  0  0  0  0  0  0  0  0
    2.5672   26.9646  -24.7387 H   0  0  0  0  0  0  0  0  0  0  0  0
  1  2  1  0
  2  3  1  0
  3  4  1  0
  4  5  1  0
  5  6  1  0
  6  7  1  0
  7  8  2  0
  8  9  1  0
  9 10  2  0
 10 11  1  0
 11 12  1  0
 12 13  1  0
 13 14  2  0
 13 15  1  0
 15 16  2  0
 16 17  1  0
 17 18  2  0
 18 19  1  0
 19 20  1  0
 20 21  2  0
 21 22  1  0
 22 23  2  0
 23 24  1  0
 23 25  1  0
 25 26  2  0
 26 27  1  0
 19 28  2  0
 11 29  2  0
  5 30  1  0
 30 31  1  0
 31  2  1  0
 29  7  1  0
 28 15  1  0
 26 20  1  0
  1 32  1  0
  1 33  1  0
  1 34  1  0
  2 35  1  0
  3 36  1  0
  3 37  1  0
  4 38  1  0
  4 39  1  0
  6 40  1  0
  6 41  1  0
  8 42  1  0
  9 43  1  0
 10 44  1  0
 16 45  1  0
 17 46  1  0
 18 47  1  0
 21 48  1  0
 22 49  1  0
 25 50  1  0
 28 51  1  0
 29 52  1  0
 30 53  1  0
 30 54  1  0
 31 55  1  0
 31 56  1  0
M  CHG  2   2   1  12  -1
M  END
>  <UniqueID>  (46) 
44

>  <SMILES>  (46) 
C[NH+]1CCN(Cc2cccc([N-]C(=O)c3cccc(-c4ccc(F)cc4Cl)c3)c2)CC1

>  <Energy>  (46) 
85.29682097256035

>  <Genealogy>  (46) 
C[NH+]1CCN(Cc2cccc([N-]C(=O)c3cccc(-c4ccc(F)cc4Cl)c3)c2)CC1 (protonated)
C[NH+]1CCN(Cc2cccc([N-]C(=O)c3cccc(-c4ccc(F)cc4Cl)c3)c2)CC1 (3D coordinates assigned)
C[NH+]1CCN(Cc2cccc([N-]C(=O)c3cccc(-c4ccc(F)cc4Cl)c3)c2)CC1 (nonaromatic ring conformer: 85.29682097256035 kcal/mol)

>  <smiles>  (46) 
CN1CCN(Cc2cccc(NC(=O)c3cccc(-c4ccc(F)cc4Cl)c3)c2)CC1

>  <score_type>  (46) 
oracle

>  <origin>  (46) 
adg

>  <m_score__min__energy>  (46) 
-12.68

>  <m_primary>  (46) 
energy

$$$$
46:0
     RDKit          3D

 51 53  0  0  0  0  0  0  0  0999 V2000
   -0.9020   26.3050  -27.7670 C   0  0  0  0  0  0  0  0  0  0  0  0
   -1.6020   25.9760  -28.9640 O   0  0  0  0  0  0  0  0  0  0  0  0
   -1.9970   24.6800  -29.3260 C   0  0  0  0  0  0  0  0  0  0  0  0
   -1.0540   23.6490  -29.2250 C   0  0  0  0  0  0  0  0  0  0  0  0
   -1.3930   22.3420  -29.5750 C   0  0  0  0  0  0  0  0  0  0  0  0
   -2.6800   22.0450  -30.0280 C   0  0  0  0  0  0  0  0  0  0  0  0
   -3.6480   23.0620  -30.1430 C   0  0  0  0  0  0  0  0  0  0  0  0
   -4.9820   22.7530  -30.6090 N   0  0  0  0  0  0  0  0  0  0  0  0
   -6.1050   22.7560  -29.6620 C   0  0  0  0  0  0  0  0  0  0  0  0
   -7.4420   22.8600  -30.4020 C   0  0  0  0  0  0  0  0  0  0  0  0
   -7.5750   21.7820  -31.4010 N   0  0  0  0  0  0  0  0  0  0  0  0
   -8.8720   21.8370  -32.1210 C   0  0  0  0  0  0  0  0  0  0  0  0
   -9.4810   20.4220  -32.1980 C   0  0  1  0  0  0  0  0  0  0  0  0
   -9.2780   19.8520  -33.4700 O   0  0  0  0  0  0  0  0  0  0  0  0
   -8.9260   19.4900  -31.0930 C   0  0  0  0  0  0  0  0  0  0  0  0
   -7.6090   19.0680  -31.4000 O   0  0  0  0  0  0  0  0  0  0  0  0
   -7.6100   17.8120  -32.0480 C   0  0  0  0  0  0  0  0  0  0  0  0
   -6.7050   17.7990  -33.2490 C   0  0  0  0  0  0  0  0  0  0  0  0
   -5.9750   16.7230  -33.7250 C   0  0  0  0  0  0  0  0  0  0  0  0
   -5.2750   17.2030  -34.8100 C   0  0  0  0  0  0  0  0  0  0  0  0
   -5.6170   18.5360  -34.9300 C   0  0  0  0  0  0  0  0  0  0  0  0
   -6.4670   18.8590  -33.9850 O   0  0  0  0  0  0  0  0  0  0  0  0
   -6.3840   21.5800  -32.2760 C   0  0  0  0  0  0  0  0  0  0  0  0
   -5.2570   22.5960  -32.0430 C   0  0  0  0  0  0  0  0  0  0  0  0
   -3.2980   24.3780  -29.7780 C   0  0  0  0  0  0  0  0  0  0  0  0
   -1.5102   26.0191  -26.8962 H   0  0  0  0  0  0  0  0  0  0  0  0
    0.0543   25.7621  -27.7405 H   0  0  0  0  0  0  0  0  0  0  0  0
   -0.7098   27.3877  -27.7405 H   0  0  0  0  0  0  0  0  0  0  0  0
   -0.0381   23.8719  -28.8668 H   0  0  0  0  0  0  0  0  0  0  0  0
   -0.6429   21.5415  -29.4938 H   0  0  0  0  0  0  0  0  0  0  0  0
   -2.9396   21.0104  -30.2968 H   0  0  0  0  0  0  0  0  0  0  0  0
   -6.0873   21.8233  -29.0791 H   0  0  0  0  0  0  0  0  0  0  0  0
   -6.0022   23.6261  -28.9968 H   0  0  0  0  0  0  0  0  0  0  0  0
   -8.2635   22.7807  -29.6748 H   0  0  0  0  0  0  0  0  0  0  0  0
   -7.4820   23.8285  -30.9219 H   0  0  0  0  0  0  0  0  0  0  0  0
   -9.5617   22.5037  -31.5826 H   0  0  0  0  0  0  0  0  0  0  0  0
   -8.7089   22.2206  -33.1390 H   0  0  0  0  0  0  0  0  0  0  0  0
  -10.5627   20.5295  -32.0298 H   0  0  0  0  0  0  0  0  0  0  0  0
   -8.3830   19.4200  -33.4730 H   0  0  0  0  0  0  0  0  0  0  0  0
   -8.9162   20.0325  -30.1361 H   0  0  0  0  0  0  0  0  0  0  0  0
   -9.5721   18.6023  -31.0257 H   0  0  0  0  0  0  0  0  0  0  0  0
   -7.2685   17.0450  -31.3373 H   0  0  0  0  0  0  0  0  0  0  0  0
   -8.6347   17.6068  -32.3915 H   0  0  0  0  0  0  0  0  0  0  0  0
   -5.9577   15.6998  -33.3215 H   0  0  0  0  0  0  0  0  0  0  0  0
   -4.5828   16.6383  -35.4519 H   0  0  0  0  0  0  0  0  0  0  0  0
   -5.2348   19.2218  -35.7005 H   0  0  0  0  0  0  0  0  0  0  0  0
   -5.9848   20.5721  -32.0893 H   0  0  0  0  0  0  0  0  0  0  0  0
   -6.7249   21.7159  -33.3130 H   0  0  0  0  0  0  0  0  0  0  0  0
   -4.3452   22.2449  -32.5483 H   0  0  0  0  0  0  0  0  0  0  0  0
   -5.5708   23.5688  -32.4495 H   0  0  0  0  0  0  0  0  0  0  0  0
   -4.0489   25.1789  -29.8467 H   0  0  0  0  0  0  0  0  0  0  0  0
  1  2  1  0
  2  3  1  0
  3  4  2  0
  4  5  1  0
  5  6  2  0
  6  7  1  0
  7  8  1  0
  8  9  1  0
  9 10  1  0
 10 11  1  0
 11 12  1  0
 12 13  1  0
 13 14  1  0
 13 15  1  0
 15 16  1  0
 16 17  1  0
 17 18  1  0
 18 19  2  0
 19 20  1  0
 20 21  2  0
 21 22  1  0
 11 23  1  0
 23 24  1  0
  7 25  2  0
 25  3  1  0
 24  8  1  0
 22 18  1  0
  1 26  1  0
  1 27  1  0
  1 28  1  0
  4 29  1  0
  5 30  1  0
  6 31  1  0
  9 32  1  0
  9 33  1  0
 10 34  1  0
 10 35  1  0
 12 36  1  0
 12 37  1  0
 13 38  1  1
 14 39  1  0
 15 40  1  0
 15 41  1  0
 17 42  1  0
 17 43  1  0
 19 44  1  0
 20 45  1  0
 21 46  1  0
 23 47  1  0
 23 48  1  0
 24 49  1  0
 24 50  1  0
 25 51  1  0
M  END
>  <UniqueID>  (47) 
45

>  <SMILES>  (47) 
COc1cccc(N2CCN(C[C@@H](O)COCc3ccco3)CC2)c1

>  <Energy>  (47) 
92.88106763648872

>  <Genealogy>  (47) 
COc1cccc(N2CCN(C[C@@H](O)COCc3ccco3)CC2)c1 (chirality)
COc1cccc(N2CCN(C[C@@H](O)COCc3ccco3)CC2)c1 (3D coordinates assigned)
COc1cccc(N2CCN(C[C@@H](O)COCc3ccco3)CC2)c1 (nonaromatic ring conformer: 92.88106763648872 kcal/mol)

>  <smiles>  (47) 
COc1cccc(N2CCN(CC(O)COCc3ccco3)CC2)c1

>  <score_type>  (47) 
oracle

>  <origin>  (47) 
adg

>  <m_score__min__energy>  (47) 
-7.9699999999999998

>  <m_primary>  (47) 
energy

$$$$
47:0
     RDKit          3D

 42 44  0  0  0  0  0  0  0  0999 V2000
   -6.4730   25.6730  -29.3140 C   0  0  0  0  0  0  0  0  0  0  0  0
   -5.1070   25.3680  -30.4790 S   0  0  0  0  0  0  0  0  0  0  0  0
   -6.1070   24.5040  -31.7470 C   0  0  0  0  0  0  0  0  0  0  0  0
   -6.8480   23.2990  -31.1560 C   0  0  0  0  0  0  0  0  0  0  0  0
   -6.1650   22.0360  -31.4840 N   0  0  0  0  0  0  0  0  0  0  0  0
   -6.9580   20.8690  -31.7780 C   0  0  0  0  0  0  0  0  0  0  0  0
   -8.3610   20.9430  -31.7730 C   0  0  0  0  0  0  0  0  0  0  0  0
   -9.1290   19.8100  -32.0540 C   0  0  0  0  0  0  0  0  0  0  0  0
   -8.5030   18.5940  -32.3430 C   0  0  0  0  0  0  0  0  0  0  0  0
   -7.1080   18.5110  -32.3560 C   0  0  0  0  0  0  0  0  0  0  0  0
   -6.3230   16.9870  -32.7270 Cl  0  0  0  0  0  0  0  0  0  0  0  0
   -6.3360   19.6450  -32.0740 C   0  0  0  0  0  0  0  0  0  0  0  0
   -4.7250   21.9680  -31.5610 C   0  0  0  0  0  0  0  0  0  0  0  0
   -4.1240   21.2400  -32.5410 N   0  0  0  0  0  0  0  0  0  0  0  0
   -2.7710   21.1650  -32.6380 C   0  0  0  0  0  0  0  0  0  0  0  0
   -2.1480   20.3630  -33.7370 C   0  0  0  0  0  0  0  0  0  0  0  0
   -1.9720   21.8480  -31.7180 C   0  0  0  0  0  0  0  0  0  0  0  0
   -2.5940   22.5930  -30.7050 C   0  0  0  0  0  0  0  0  0  0  0  0
   -1.8350   23.3260  -29.7250 N   0  0  0  0  0  0  0  0  0  0  0  0
   -2.3400   24.1240  -28.7670 C   0  0  0  0  0  0  0  0  0  0  0  0
   -1.2920   24.6390  -28.0400 C   0  0  0  0  0  0  0  0  0  0  0  0
   -0.1290   24.1710  -28.5320 N   0  0  0  0  0  0  0  0  0  0  0  0
   -0.4950   23.3740  -29.5580 C   0  0  0  0  0  0  0  0  0  0  0  0
   -3.9530   22.6280  -30.6560 N   0  0  0  0  0  0  0  0  0  0  0  0
   -6.1005   25.5898  -28.2823 H   0  0  0  0  0  0  0  0  0  0  0  0
   -6.8761   26.6833  -29.4780 H   0  0  0  0  0  0  0  0  0  0  0  0
   -7.2675   24.9301  -29.4780 H   0  0  0  0  0  0  0  0  0  0  0  0
   -6.8436   25.2080  -32.1615 H   0  0  0  0  0  0  0  0  0  0  0  0
   -5.4277   24.1394  -32.5316 H   0  0  0  0  0  0  0  0  0  0  0  0
   -6.8937   23.4079  -30.0624 H   0  0  0  0  0  0  0  0  0  0  0  0
   -7.8595   23.2684  -31.5872 H   0  0  0  0  0  0  0  0  0  0  0  0
   -8.8576   21.8981  -31.5466 H   0  0  0  0  0  0  0  0  0  0  0  0
  -10.2271   19.8750  -32.0478 H   0  0  0  0  0  0  0  0  0  0  0  0
   -9.1088   17.7019  -32.5603 H   0  0  0  0  0  0  0  0  0  0  0  0
   -5.2382   19.5768  -32.0844 H   0  0  0  0  0  0  0  0  0  0  0  0
   -1.5281   19.5650  -33.3024 H   0  0  0  0  0  0  0  0  0  0  0  0
   -2.9383   19.9163  -34.3582 H   0  0  0  0  0  0  0  0  0  0  0  0
   -1.5197   21.0182  -34.3582 H   0  0  0  0  0  0  0  0  0  0  0  0
   -0.8751   21.8025  -31.7866 H   0  0  0  0  0  0  0  0  0  0  0  0
   -3.4069   24.3293  -28.5947 H   0  0  0  0  0  0  0  0  0  0  0  0
   -1.3890   25.3275  -27.1876 H   0  0  0  0  0  0  0  0  0  0  0  0
    0.2190   22.8241  -30.1888 H   0  0  0  0  0  0  0  0  0  0  0  0
  1  2  1  0
  2  3  1  0
  3  4  1  0
  4  5  1  0
  5  6  1  0
  6  7  2  0
  7  8  1  0
  8  9  2  0
  9 10  1  0
 10 11  1  0
 10 12  2  0
  5 13  1  0
 13 14  2  0
 14 15  1  0
 15 16  1  0
 15 17  2  0
 17 18  1  0
 18 19  1  0
 19 20  1  0
 20 21  2  0
 21 22  1  0
 22 23  2  0
 18 24  2  0
 12  6  1  0
 24 13  1  0
 23 19  1  0
  1 25  1  0
  1 26  1  0
  1 27  1  0
  3 28  1  0
  3 29  1  0
  4 30  1  0
  4 31  1  0
  7 32  1  0
  8 33  1  0
  9 34  1  0
 12 35  1  0
 16 36  1  0
 16 37  1  0
 16 38  1  0
 17 39  1  0
 20 40  1  0
 21 41  1  0
 23 42  1  0
M  END
>  <UniqueID>  (48) 
46

>  <SMILES>  (48) 
CSCCN(c1cccc(Cl)c1)c1nc(C)cc(-n2ccnc2)n1

>  <Energy>  (48) 
74.68280580469771

>  <Genealogy>  (48) 
CSCCN(c1cccc(Cl)c1)c1nc(C)cc(-n2ccnc2)n1 (3D coordinates assigned)
CSCCN(c1cccc(Cl)c1)c1nc(C)cc(-n2ccnc2)n1 (optimized conformer: 74.68280580469771 kcal/mol)

>  <smiles>  (48) 
CSCCN(c1cccc(Cl)c1)c1nc(C)cc(-n2ccnc2)n1

>  <score_type>  (48) 
oracle

>  <origin>  (48) 
adg

>  <m_score__min__energy>  (48) 
-7.7199999999999998

>  <m_primary>  (48) 
energy

$$$$
48:0
     RDKit          3D

 35 37  0  0  0  0  0  0  0  0999 V2000
   -0.1820   26.6090  -27.4660 C   0  0  0  0  0  0  0  0  0  0  0  0
   -1.0960   25.4450  -27.6820 C   0  0  0  0  0  0  0  0  0  0  0  0
   -1.0070   24.3140  -26.8610 C   0  0  0  0  0  0  0  0  0  0  0  0
   -1.8680   23.2360  -27.0770 C   0  0  0  0  0  0  0  0  0  0  0  0
   -2.8100   23.2950  -28.1110 C   0  0  0  0  0  0  0  0  0  0  0  0
   -3.6870   22.2310  -28.3520 C   0  0  0  0  0  0  0  0  0  0  0  0
   -4.6190   22.3120  -29.3880 C   0  0  0  0  0  0  0  0  0  0  0  0
   -4.6900   23.4560  -30.2050 C   0  0  0  0  0  0  0  0  0  0  0  0
   -5.7020   23.5270  -31.2920 C   0  0  0  0  0  0  0  0  0  0  0  0
   -5.7860   24.5710  -31.9940 O   0  0  0  0  0  0  0  0  0  0  0  0
   -6.6080   22.3880  -31.5850 C   0  0  0  0  0  0  0  0  0  0  0  0
   -7.9250   22.4250  -31.0930 C   0  0  0  0  0  0  0  0  0  0  0  0
   -8.8000   21.3610  -31.3190 C   0  0  0  0  0  0  0  0  0  0  0  0
   -8.3720   20.2440  -32.0320 C   0  0  0  0  0  0  0  0  0  0  0  0
   -7.0690   20.1870  -32.5300 C   0  0  0  0  0  0  0  0  0  0  0  0
   -6.1780   21.2560  -32.3260 C   0  0  0  0  0  0  0  0  0  0  0  0
   -4.7880   21.1620  -32.8970 C   0  0  0  0  0  0  0  0  0  0  0  0
   -3.8070   24.5310  -29.9610 C   0  0  0  0  0  0  0  0  0  0  0  0
   -3.8420   25.6720  -30.7560 O   0  0  0  0  0  0  0  0  0  0  0  0
   -2.8730   24.4500  -28.9170 C   0  0  0  0  0  0  0  0  0  0  0  0
   -2.0190   25.4840  -28.6820 N   0  0  0  0  0  0  0  0  0  0  0  0
   -0.0504   26.7766  -26.3868 H   0  0  0  0  0  0  0  0  0  0  0  0
    0.7947   26.3986  -27.9262 H   0  0  0  0  0  0  0  0  0  0  0  0
   -0.6181   27.5079  -27.9262 H   0  0  0  0  0  0  0  0  0  0  0  0
   -0.2636   24.2750  -26.0511 H   0  0  0  0  0  0  0  0  0  0  0  0
   -1.8063   22.3435  -26.4369 H   0  0  0  0  0  0  0  0  0  0  0  0
   -3.6417   21.3292  -27.7237 H   0  0  0  0  0  0  0  0  0  0  0  0
   -5.3060   21.4720  -29.5680 H   0  0  0  0  0  0  0  0  0  0  0  0
   -8.2692   23.3014  -30.5242 H   0  0  0  0  0  0  0  0  0  0  0  0
   -9.8292   21.4050  -30.9333 H   0  0  0  0  0  0  0  0  0  0  0  0
   -9.0621   19.4047  -32.2032 H   0  0  0  0  0  0  0  0  0  0  0  0
   -6.7363   19.2985  -33.0867 H   0  0  0  0  0  0  0  0  0  0  0  0
   -4.0571   21.1126  -32.0764 H   0  0  0  0  0  0  0  0  0  0  0  0
   -4.7063   20.2563  -33.5159 H   0  0  0  0  0  0  0  0  0  0  0  0
   -4.5851   22.0485  -33.5159 H   0  0  0  0  0  0  0  0  0  0  0  0
  1  2  1  0
  2  3  2  0
  3  4  1  0
  4  5  2  0
  5  6  1  0
  6  7  2  0
  7  8  1  0
  8  9  1  0
  9 10  2  0
  9 11  1  0
 11 12  2  0
 12 13  1  0
 13 14  2  0
 14 15  1  0
 15 16  2  0
 16 17  1  0
  8 18  2  0
 18 19  1  0
 18 20  1  0
 20 21  2  0
 21  2  1  0
 20  5  1  0
 16 11  1  0
  1 22  1  0
  1 23  1  0
  1 24  1  0
  3 25  1  0
  4 26  1  0
  6 27  1  0
  7 28  1  0
 12 29  1  0
 13 30  1  0
 14 31  1  0
 15 32  1  0
 17 33  1  0
 17 34  1  0
 17 35  1  0
M  CHG  1  19  -1
M  END
>  <UniqueID>  (49) 
47

>  <SMILES>  (49) 
Cc1ccc2ccc(C(=O)c3ccccc3C)c([O-])c2n1

>  <Energy>  (49) 
49.27307365144252

>  <Genealogy>  (49) 
Cc1ccc2ccc(C(=O)c3ccccc3C)c([O-])c2n1 (protonated)
Cc1ccc2ccc(C(=O)c3ccccc3C)c([O-])c2n1 (3D coordinates assigned)
Cc1ccc2ccc(C(=O)c3ccccc3C)c([O-])c2n1 (optimized conformer: 49.27307365144252 kcal/mol)

>  <smiles>  (49) 
Cc1ccc2ccc(C(=O)c3ccccc3C)c(O)c2n1

>  <score_type>  (49) 
oracle

>  <origin>  (49) 
adg

>  <m_score__min__energy>  (49) 
-11.83

>  <m_primary>  (49) 
energy

$$$$
