0:0
     RDKit          3D

 47 48  0  0  0  0  0  0  0  0999 V2000
   -7.0710   23.6790  -30.3900 C   0  0  0  0  0  0  0  0  0  0  0  0
   -6.1530   24.7920  -30.8840 C   0  0  0  0  0  0  0  0  0  0  0  0
   -4.9330   24.8860  -30.0190 C   0  0  0  0  0  0  0  0  0  0  0  0
   -3.8470   25.2880  -30.5180 O   0  0  0  0  0  0  0  0  0  0  0  0
   -4.9920   24.4740  -28.6460 N   0  0  0  0  0  0  0  0  0  0  0  0
   -3.7940   24.4510  -27.8060 C   0  0  0  0  0  0  0  0  0  0  0  0
   -2.9290   23.2210  -28.1020 C   0  0  0  0  0  0  0  0  0  0  0  0
   -2.0240   23.4740  -29.2320 N   0  0  0  0  0  0  0  0  0  0  0  0
   -1.6160   22.2240  -29.8900 C   0  0  0  0  0  0  0  0  0  0  0  0
   -1.9850   22.2630  -31.3810 C   0  0  2  0  0  0  0  0  0  0  0  0
   -3.1420   23.0370  -31.5650 O   0  0  0  0  0  0  0  0  0  0  0  0
   -2.2230   20.8410  -31.9130 C   0  0  0  0  0  0  0  0  0  0  0  0
   -3.2140   20.8400  -32.9430 O   0  0  0  0  0  0  0  0  0  0  0  0
   -4.5130   20.3130  -32.8440 C   0  0  0  0  0  0  0  0  0  0  0  0
   -4.6730   18.9310  -33.0120 C   0  0  0  0  0  0  0  0  0  0  0  0
   -5.9370   18.3420  -32.9320 C   0  0  0  0  0  0  0  0  0  0  0  0
   -7.0670   19.1300  -32.6780 C   0  0  0  0  0  0  0  0  0  0  0  0
   -8.3430   18.5490  -32.6000 C   0  0  0  0  0  0  0  0  0  0  0  0
   -9.4620   19.3460  -32.3460 C   0  0  0  0  0  0  0  0  0  0  0  0
   -9.3180   20.7250  -32.1660 C   0  0  0  0  0  0  0  0  0  0  0  0
   -8.0520   21.3160  -32.2410 C   0  0  0  0  0  0  0  0  0  0  0  0
   -6.9190   20.5260  -32.4970 C   0  0  0  0  0  0  0  0  0  0  0  0
   -5.6450   21.1090  -32.5770 C   0  0  0  0  0  0  0  0  0  0  0  0
   -7.0780   23.6706  -29.2901 H   0  0  0  0  0  0  0  0  0  0  0  0
   -8.0915   23.8533  -30.7618 H   0  0  0  0  0  0  0  0  0  0  0  0
   -6.7057   22.7103  -30.7618 H   0  0  0  0  0  0  0  0  0  0  0  0
   -5.8478   24.5775  -31.9188 H   0  0  0  0  0  0  0  0  0  0  0  0
   -6.6958   25.7478  -30.8401 H   0  0  0  0  0  0  0  0  0  0  0  0
   -5.9110   24.1650  -28.2580 H   0  0  0  0  0  0  0  0  0  0  0  0
   -3.2037   25.3589  -27.9991 H   0  0  0  0  0  0  0  0  0  0  0  0
   -4.1094   24.4080  -26.7531 H   0  0  0  0  0  0  0  0  0  0  0  0
   -2.3323   22.9778  -27.2105 H   0  0  0  0  0  0  0  0  0  0  0  0
   -3.5903   22.3818  -28.3634 H   0  0  0  0  0  0  0  0  0  0  0  0
   -2.5510   24.0440  -29.9350 H   0  0  0  0  0  0  0  0  0  0  0  0
   -0.5279   22.0985  -29.7883 H   0  0  0  0  0  0  0  0  0  0  0  0
   -2.1380   21.3811  -29.4135 H   0  0  0  0  0  0  0  0  0  0  0  0
   -1.1506   22.7142  -31.9380 H   0  0  0  0  0  0  0  0  0  0  0  0
   -3.5720   23.1360  -30.6750 H   0  0  0  0  0  0  0  0  0  0  0  0
   -1.2803   20.4465  -32.3201 H   0  0  0  0  0  0  0  0  0  0  0  0
   -2.5776   20.2109  -31.0841 H   0  0  0  0  0  0  0  0  0  0  0  0
   -3.7923   18.3022  -33.2093 H   0  0  0  0  0  0  0  0  0  0  0  0
   -6.0454   17.2559  -33.0689 H   0  0  0  0  0  0  0  0  0  0  0  0
   -8.4617   17.4643  -32.7391 H   0  0  0  0  0  0  0  0  0  0  0  0
  -10.4599   18.8869  -32.2874 H   0  0  0  0  0  0  0  0  0  0  0  0
  -10.2026   21.3471  -31.9648 H   0  0  0  0  0  0  0  0  0  0  0  0
   -7.9437   22.4014  -32.0992 H   0  0  0  0  0  0  0  0  0  0  0  0
   -5.5293   22.1930  -32.4305 H   0  0  0  0  0  0  0  0  0  0  0  0
  1  2  1  0
  2  3  1  0
  3  4  2  0
  3  5  1  0
  5  6  1  0
  6  7  1  0
  7  8  1  0
  8  9  1  0
  9 10  1  0
 10 11  1  0
 10 12  1  0
 12 13  1  0
 13 14  1  0
 14 15  2  0
 15 16  1  0
 16 17  2  0
 17 18  1  0
 18 19  2  0
 19 20  1  0
 20 21  2  0
 21 22  1  0
 22 23  2  0
 23 14  1  0
 22 17  1  0
  1 24  1  0
  1 25  1  0
  1 26  1  0
  2 27  1  0
  2 28  1  0
  5 29  1  0
  6 30  1  0
  6 31  1  0
  7 32  1  0
  7 33  1  0
  8 34  1  0
  9 35  1  0
  9 36  1  0
 10 37  1  6
 11 38  1  0
 12 39  1  0
 12 40  1  0
 15 41  1  0
 16 42  1  0
 18 43  1  0
 19 44  1  0
 20 45  1  0
 21 46  1  0
 23 47  1  0
M  END
>  <UniqueID>  (1) 
1

>  <SMILES>  (1) 
CCC(=O)NCCNC[C@H](O)COc1ccc2ccccc2c1

>  <Energy>  (1) 
39.38429503602542

>  <Genealogy>  (1) 
CCC(=O)NCCNC[C@H](O)COc1ccc2ccccc2c1 (chirality)
CCC(=O)NCCNC[C@H](O)COc1ccc2ccccc2c1 (3D coordinates assigned)
CCC(=O)NCCNC[C@H](O)COc1ccc2ccccc2c1 (optimized conformer: 39.38429503602542 kcal/mol)

>  <smiles>  (1) 
CCC(=O)NCCNCC(O)COc1ccc2ccccc2c1

>  <score_type>  (1) 
oracle

>  <origin>  (1) 
adg

>  <m_score__min__energy>  (1) 
-8.5999999999999996

>  <m_primary>  (1) 
energy

$$$$
1:0
     RDKit          3D

 42 43  0  0  0  0  0  0  0  0999 V2000
   -3.6790   23.1220  -28.8040 C   0  0  0  0  0  0  0  0  0  0  0  0
   -2.8700   24.0840  -29.6780 C   0  0  0  0  0  0  0  0  0  0  0  0
   -3.7340   24.9660  -30.4790 N   0  0  0  0  0  0  0  0  0  0  0  0
   -5.1310   24.9810  -30.0120 C   0  0  0  0  0  0  0  0  0  0  0  0
   -6.0860   24.8720  -31.2020 C   0  0  0  0  0  0  0  0  0  0  0  0
   -6.3600   23.4730  -31.5200 N   0  0  0  0  0  0  0  0  0  0  0  0
   -7.5680   22.8540  -31.5480 C   0  0  0  0  0  0  0  0  0  0  0  0
   -7.5060   21.5780  -32.0150 N   0  0  0  0  0  0  0  0  0  0  0  0
   -6.1960   21.4160  -32.2820 C   0  0  0  0  0  0  0  0  0  0  0  0
   -5.5340   20.3290  -32.8520 C   0  0  0  0  0  0  0  0  0  0  0  0
   -6.2340   19.1190  -33.2120 N   0  0  0  0  0  0  0  0  0  0  0  0
   -7.0020   18.3800  -32.2000 C   0  0  0  0  0  0  0  0  0  0  0  0
   -8.4970   18.6730  -32.3160 C   0  0  0  0  0  0  0  0  0  0  0  0
   -6.1140   18.5770  -34.5740 C   0  0  0  0  0  0  0  0  0  0  0  0
   -5.3110   17.2810  -34.5690 C   0  0  0  0  0  0  0  0  0  0  0  0
   -4.1900   20.4680  -33.0880 N   0  0  0  0  0  0  0  0  0  0  0  0
   -3.5260   21.6310  -32.7860 C   0  0  0  0  0  0  0  0  0  0  0  0
   -4.1920   22.6910  -32.2400 N   0  0  0  0  0  0  0  0  0  0  0  0
   -5.5160   22.5480  -31.9930 C   0  0  0  0  0  0  0  0  0  0  0  0
   -3.4917   23.3447  -27.7432 H   0  0  0  0  0  0  0  0  0  0  0  0
   -4.7507   23.2431  -29.0204 H   0  0  0  0  0  0  0  0  0  0  0  0
   -3.3759   22.0870  -29.0204 H   0  0  0  0  0  0  0  0  0  0  0  0
   -2.2352   24.7044  -29.0283 H   0  0  0  0  0  0  0  0  0  0  0  0
   -2.2646   23.4825  -30.3720 H   0  0  0  0  0  0  0  0  0  0  0  0
   -3.7000   24.6730  -31.4840 H   0  0  0  0  0  0  0  0  0  0  0  0
   -5.2967   24.1309  -29.3338 H   0  0  0  0  0  0  0  0  0  0  0  0
   -5.3228   25.9260  -29.4827 H   0  0  0  0  0  0  0  0  0  0  0  0
   -7.0310   25.3772  -30.9536 H   0  0  0  0  0  0  0  0  0  0  0  0
   -5.6164   25.3470  -32.0759 H   0  0  0  0  0  0  0  0  0  0  0  0
   -8.5028   23.3359  -31.2255 H   0  0  0  0  0  0  0  0  0  0  0  0
   -6.8360   17.3017  -32.3407 H   0  0  0  0  0  0  0  0  0  0  0  0
   -6.6615   18.6989  -31.2038 H   0  0  0  0  0  0  0  0  0  0  0  0
   -8.9330   18.7585  -31.3097 H   0  0  0  0  0  0  0  0  0  0  0  0
   -8.6444   19.6171  -32.8609 H   0  0  0  0  0  0  0  0  0  0  0  0
   -8.9899   17.8544  -32.8609 H   0  0  0  0  0  0  0  0  0  0  0  0
   -7.1194   18.3774  -34.9732 H   0  0  0  0  0  0  0  0  0  0  0  0
   -5.5931   19.3136  -35.2033 H   0  0  0  0  0  0  0  0  0  0  0  0
   -5.1197   16.9722  -33.5307 H   0  0  0  0  0  0  0  0  0  0  0  0
   -5.8805   16.4948  -35.0863 H   0  0  0  0  0  0  0  0  0  0  0  0
   -4.3535   17.4409  -35.0863 H   0  0  0  0  0  0  0  0  0  0  0  0
   -3.6410   19.6760  -33.4890 H   0  0  0  0  0  0  0  0  0  0  0  0
   -2.4472   21.7099  -32.9857 H   0  0  0  0  0  0  0  0  0  0  0  0
  1  2  1  0
  2  3  1  0
  3  4  1  0
  4  5  1  0
  5  6  1  0
  6  7  1  0
  7  8  2  0
  8  9  1  0
  9 10  2  0
 10 11  1  0
 11 12  1  0
 12 13  1  0
 11 14  1  0
 14 15  1  0
 10 16  1  0
 16 17  2  0
 17 18  1  0
 18 19  2  0
 19  6  1  0
 19  9  1  0
  1 20  1  0
  1 21  1  0
  1 22  1  0
  2 23  1  0
  2 24  1  0
  3 25  1  0
  4 26  1  0
  4 27  1  0
  5 28  1  0
  5 29  1  0
  7 30  1  0
 12 31  1  0
 12 32  1  0
 13 33  1  0
 13 34  1  0
 13 35  1  0
 14 36  1  0
 14 37  1  0
 15 38  1  0
 15 39  1  0
 15 40  1  0
 16 41  1  0
 17 42  1  0
M  CHG  1  16   1
M  END
>  <UniqueID>  (2) 
2

>  <SMILES>  (2) 
CCNCCn1cnc2c(N(CC)CC)[nH+]cnc21

>  <Energy>  (2) 
74.44522271567027

>  <Genealogy>  (2) 
CCNCCn1cnc2c(N(CC)CC)[nH+]cnc21 (protonated)
CCNCCn1cnc2c(N(CC)CC)[nH+]cnc21 (3D coordinates assigned)
CCNCCn1cnc2c(N(CC)CC)[nH+]cnc21 (optimized conformer: 74.44522271567027 kcal/mol)

>  <smiles>  (2) 
CCNCCn1cnc2c(N(CC)CC)ncnc21

>  <score_type>  (2) 
oracle

>  <origin>  (2) 
adg

>  <m_score__min__energy>  (2) 
-6.0800000000000001

>  <m_primary>  (2) 
energy

$$$$
2:0
     RDKit          3D

 57 59  0  0  0  0  0  0  0  0999 V2000
   -7.5990   17.8840  -32.1780 C   0  0  0  0  0  0  0  0  0  0  0  0
   -8.7240   18.8610  -31.8060 C   0  0  0  0  0  0  0  0  0  0  0  0
   -8.5440   20.2270  -32.3450 N   0  0  0  0  0  0  0  0  0  0  0  0
   -9.1070   21.2820  -31.4780 C   0  0  0  0  0  0  0  0  0  0  0  0
   -8.6550   22.6690  -31.9540 C   0  0  0  0  0  0  0  0  0  0  0  0
   -7.1760   22.8260  -31.9110 N   0  0  0  0  0  0  0  0  0  0  0  0
   -6.7530   23.6180  -30.7340 C   0  0  0  0  0  0  0  0  0  0  0  0
   -6.0870   24.9410  -31.1370 C   0  0  0  0  0  0  0  0  0  0  0  0
   -4.6300   24.7790  -31.2070 N   0  0  0  0  0  0  0  0  0  0  0  0
   -4.0690   24.5800  -29.8680 C   0  0  0  0  0  0  0  0  0  0  0  0
   -3.0470   23.4790  -29.9110 C   0  0  0  0  0  0  0  0  0  0  0  0
   -3.3380   22.2740  -30.5700 C   0  0  0  0  0  0  0  0  0  0  0  0
   -2.3750   21.2650  -30.6560 C   0  0  0  0  0  0  0  0  0  0  0  0
   -1.0960   21.4530  -30.0950 C   0  0  0  0  0  0  0  0  0  0  0  0
   -0.0880   20.4780  -30.1620 O   0  0  0  0  0  0  0  0  0  0  0  0
    0.3220   19.6430  -29.0810 C   0  0  0  0  0  0  0  0  0  0  0  0
   -0.6300   19.7630  -27.9310 C   0  0  0  0  0  0  0  0  0  0  0  0
   -0.5690   20.7090  -26.9230 C   0  0  0  0  0  0  0  0  0  0  0  0
   -1.6130   20.3820  -26.0840 C   0  0  0  0  0  0  0  0  0  0  0  0
   -2.2410   19.3040  -26.5880 N   0  0  0  0  0  0  0  0  0  0  0  0
   -3.3520   18.5970  -25.9660 C   0  0  0  0  0  0  0  0  0  0  0  0
   -1.6430   18.9050  -27.6990 N   0  0  0  0  0  0  0  0  0  0  0  0
   -0.8090   22.6600  -29.4450 C   0  0  0  0  0  0  0  0  0  0  0  0
   -1.7730   23.6690  -29.3590 C   0  0  0  0  0  0  0  0  0  0  0  0
   -6.4400   21.5390  -31.9960 C   0  0  0  0  0  0  0  0  0  0  0  0
   -7.1840   20.5120  -32.8640 C   0  0  0  0  0  0  0  0  0  0  0  0
   -7.1407   17.4860  -31.2606 H   0  0  0  0  0  0  0  0  0  0  0  0
   -8.0141   17.0550  -32.7699 H   0  0  0  0  0  0  0  0  0  0  0  0
   -6.8363   18.4112  -32.7699 H   0  0  0  0  0  0  0  0  0  0  0  0
   -9.6719   18.4594  -32.1936 H   0  0  0  0  0  0  0  0  0  0  0  0
   -8.7154   18.9502  -30.7097 H   0  0  0  0  0  0  0  0  0  0  0  0
  -10.2052   21.2287  -31.5101 H   0  0  0  0  0  0  0  0  0  0  0  0
   -8.7489   21.1253  -30.4498 H   0  0  0  0  0  0  0  0  0  0  0  0
   -8.9965   22.8165  -32.9892 H   0  0  0  0  0  0  0  0  0  0  0  0
   -9.0928   23.4168  -31.2764 H   0  0  0  0  0  0  0  0  0  0  0  0
   -7.6377   23.8392  -30.1189 H   0  0  0  0  0  0  0  0  0  0  0  0
   -6.0155   23.0245  -30.1738 H   0  0  0  0  0  0  0  0  0  0  0  0
   -6.4650   25.2519  -32.1221 H   0  0  0  0  0  0  0  0  0  0  0  0
   -6.3255   25.7052  -30.3826 H   0  0  0  0  0  0  0  0  0  0  0  0
   -4.2260   25.6630  -31.5980 H   0  0  0  0  0  0  0  0  0  0  0  0
   -3.5910   25.5108  -29.5288 H   0  0  0  0  0  0  0  0  0  0  0  0
   -4.8741   24.3056  -29.1705 H   0  0  0  0  0  0  0  0  0  0  0  0
   -4.3298   22.1232  -31.0213 H   0  0  0  0  0  0  0  0  0  0  0  0
   -2.6164   20.3196  -31.1639 H   0  0  0  0  0  0  0  0  0  0  0  0
    0.3474   18.5973  -29.4215 H   0  0  0  0  0  0  0  0  0  0  0  0
    1.3215   19.9595  -28.7481 H   0  0  0  0  0  0  0  0  0  0  0  0
    0.1496   21.5348  -26.8155 H   0  0  0  0  0  0  0  0  0  0  0  0
   -1.8861   20.9122  -25.1597 H   0  0  0  0  0  0  0  0  0  0  0  0
   -3.2580   18.6568  -24.8717 H   0  0  0  0  0  0  0  0  0  0  0  0
   -4.3007   19.0578  -26.2783 H   0  0  0  0  0  0  0  0  0  0  0  0
   -3.3364   17.5424  -26.2783 H   0  0  0  0  0  0  0  0  0  0  0  0
    0.1840   22.8155  -28.9980 H   0  0  0  0  0  0  0  0  0  0  0  0
   -1.5303   24.6165  -28.8557 H   0  0  0  0  0  0  0  0  0  0  0  0
   -5.4485   21.7242  -32.4348 H   0  0  0  0  0  0  0  0  0  0  0  0
   -6.3522   21.1277  -30.9796 H   0  0  0  0  0  0  0  0  0  0  0  0
   -7.2699   20.9074  -33.8869 H   0  0  0  0  0  0  0  0  0  0  0  0
   -6.6103   19.5736  -32.8469 H   0  0  0  0  0  0  0  0  0  0  0  0
  1  2  1  0
  2  3  1  0
  3  4  1  0
  4  5  1  0
  5  6  1  0
  6  7  1  0
  7  8  1  0
  8  9  1  0
  9 10  1  0
 10 11  1  0
 11 12  2  0
 12 13  1  0
 13 14  2  0
 14 15  1  0
 15 16  1  0
 16 17  1  0
 17 18  1  0
 18 19  2  0
 19 20  1  0
 20 21  1  0
 20 22  1  0
 14 23  1  0
 23 24  2  0
  6 25  1  0
 25 26  1  0
 26  3  1  0
 24 11  1  0
 22 17  2  0
  1 27  1  0
  1 28  1  0
  1 29  1  0
  2 30  1  0
  2 31  1  0
  4 32  1  0
  4 33  1  0
  5 34  1  0
  5 35  1  0
  7 36  1  0
  7 37  1  0
  8 38  1  0
  8 39  1  0
  9 40  1  0
 10 41  1  0
 10 42  1  0
 12 43  1  0
 13 44  1  0
 16 45  1  0
 16 46  1  0
 18 47  1  0
 19 48  1  0
 21 49  1  0
 21 50  1  0
 21 51  1  0
 23 52  1  0
 24 53  1  0
 25 54  1  0
 25 55  1  0
 26 56  1  0
 26 57  1  0
M  END
>  <UniqueID>  (3) 
3

>  <SMILES>  (3) 
CCN1CCN(CCNCc2ccc(OCc3ccn(C)n3)cc2)CC1

>  <Energy>  (3) 
95.14371371922142

>  <Genealogy>  (3) 
CCN1CCN(CCNCc2ccc(OCc3ccn(C)n3)cc2)CC1 (3D coordinates assigned)
CCN1CCN(CCNCc2ccc(OCc3ccn(C)n3)cc2)CC1 (nonaromatic ring conformer: 95.14371371922142 kcal/mol)

>  <smiles>  (3) 
CCN1CCN(CCNCc2ccc(OCc3ccn(C)n3)cc2)CC1

>  <score_type>  (3) 
oracle

>  <origin>  (3) 
adg

>  <m_score__min__energy>  (3) 
-8.8699999999999992

>  <m_primary>  (3) 
energy

$$$$
3:0
     RDKit          3D

 56 58  0  0  0  0  0  0  0  0999 V2000
   -4.9970   24.9160  -30.3690 C   0  0  0  0  0  0  0  0  0  0  0  0
   -4.9710   23.6250  -29.5600 C   0  0  0  0  0  0  0  0  0  0  0  0
   -3.5980   23.3520  -29.0730 N   0  0  0  0  0  0  0  0  0  0  0  0
   -3.0970   24.4700  -28.2420 C   0  0  0  0  0  0  0  0  0  0  0  0
   -3.8450   24.5210  -26.9140 C   0  0  0  0  0  0  0  0  0  0  0  0
   -3.5300   22.0580  -28.3480 C   0  0  0  0  0  0  0  0  0  0  0  0
   -3.0080   20.9540  -29.2700 C   0  0  0  0  0  0  0  0  0  0  0  0
   -3.8910   20.7690  -30.3570 O   0  0  0  0  0  0  0  0  0  0  0  0
   -3.1580   20.5540  -31.5460 C   0  0  0  0  0  0  0  0  0  0  0  0
   -3.3330   21.7540  -32.4740 C   0  0  0  0  0  0  0  0  0  0  0  0
   -4.4460   21.5360  -33.3980 N   0  0  0  0  0  0  0  0  0  0  0  0
   -5.5970   20.7560  -33.0270 C   0  0  0  0  0  0  0  0  0  0  0  0
   -6.7430   21.3870  -32.5100 C   0  0  0  0  0  0  0  0  0  0  0  0
   -6.8010   22.7890  -32.3670 C   0  0  0  0  0  0  0  0  0  0  0  0
   -7.9590   23.4120  -31.9070 C   0  0  0  0  0  0  0  0  0  0  0  0
   -9.0810   22.6540  -31.5970 C   0  0  0  0  0  0  0  0  0  0  0  0
   -9.0400   21.2650  -31.7030 C   0  0  0  0  0  0  0  0  0  0  0  0
   -7.8620   20.5970  -32.1240 C   0  0  0  0  0  0  0  0  0  0  0  0
   -7.7880   19.2180  -32.1780 N   0  0  0  0  0  0  0  0  0  0  0  0
   -8.8070   18.3960  -31.4880 C   0  0  0  0  0  0  0  0  0  0  0  0
   -6.7460   18.6070  -32.8500 C   0  0  0  0  0  0  0  0  0  0  0  0
   -6.7720   17.2240  -33.1650 C   0  0  0  0  0  0  0  0  0  0  0  0
   -5.7030   16.6140  -33.8230 C   0  0  0  0  0  0  0  0  0  0  0  0
   -5.7630   14.9000  -34.1930 Cl  0  0  0  0  0  0  0  0  0  0  0  0
   -4.5960   17.3660  -34.2030 C   0  0  0  0  0  0  0  0  0  0  0  0
   -4.5570   18.7330  -33.9390 C   0  0  0  0  0  0  0  0  0  0  0  0
   -5.6200   19.3690  -33.2650 C   0  0  0  0  0  0  0  0  0  0  0  0
   -5.0143   25.7772  -29.6848 H   0  0  0  0  0  0  0  0  0  0  0  0
   -4.0998   24.9695  -31.0031 H   0  0  0  0  0  0  0  0  0  0  0  0
   -5.8957   24.9333  -31.0031 H   0  0  0  0  0  0  0  0  0  0  0  0
   -5.6489   23.7222  -28.6992 H   0  0  0  0  0  0  0  0  0  0  0  0
   -5.2954   22.7930  -30.2024 H   0  0  0  0  0  0  0  0  0  0  0  0
   -2.0239   24.3253  -28.0484 H   0  0  0  0  0  0  0  0  0  0  0  0
   -3.2595   25.4156  -28.7800 H   0  0  0  0  0  0  0  0  0  0  0  0
   -3.1238   24.4718  -26.0848 H   0  0  0  0  0  0  0  0  0  0  0  0
   -4.4143   25.4600  -26.8496 H   0  0  0  0  0  0  0  0  0  0  0  0
   -4.5364   23.6679  -26.8496 H   0  0  0  0  0  0  0  0  0  0  0  0
   -2.8532   22.1606  -27.4869 H   0  0  0  0  0  0  0  0  0  0  0  0
   -4.5401   21.7881  -28.0063 H   0  0  0  0  0  0  0  0  0  0  0  0
   -2.0162   21.2379  -29.6517 H   0  0  0  0  0  0  0  0  0  0  0  0
   -2.9366   20.0151  -28.7014 H   0  0  0  0  0  0  0  0  0  0  0  0
   -2.0923   20.4305  -31.3029 H   0  0  0  0  0  0  0  0  0  0  0  0
   -3.5269   19.6462  -32.0459 H   0  0  0  0  0  0  0  0  0  0  0  0
   -3.5356   22.6508  -31.8701 H   0  0  0  0  0  0  0  0  0  0  0  0
   -2.4101   21.8869  -33.0576 H   0  0  0  0  0  0  0  0  0  0  0  0
   -4.5070   22.1500  -34.2410 H   0  0  0  0  0  0  0  0  0  0  0  0
   -5.9211   23.3979  -32.6218 H   0  0  0  0  0  0  0  0  0  0  0  0
   -7.9849   24.5054  -31.7891 H   0  0  0  0  0  0  0  0  0  0  0  0
  -10.0048   23.1516  -31.2668 H   0  0  0  0  0  0  0  0  0  0  0  0
   -9.9363   20.6770  -31.4560 H   0  0  0  0  0  0  0  0  0  0  0  0
   -8.6831   18.4959  -30.3996 H   0  0  0  0  0  0  0  0  0  0  0  0
   -9.8116   18.7396  -31.7758 H   0  0  0  0  0  0  0  0  0  0  0  0
   -8.6837   17.3415  -31.7758 H   0  0  0  0  0  0  0  0  0  0  0  0
   -7.6495   16.6223  -32.8859 H   0  0  0  0  0  0  0  0  0  0  0  0
   -3.7506   16.8805  -34.7125 H   0  0  0  0  0  0  0  0  0  0  0  0
   -3.6864   19.3237  -34.2601 H   0  0  0  0  0  0  0  0  0  0  0  0
  1  2  1  0
  2  3  1  0
  3  4  1  0
  4  5  1  0
  3  6  1  0
  6  7  1  0
  7  8  1  0
  8  9  1  0
  9 10  1  0
 10 11  1  0
 11 12  1  0
 12 13  2  0
 13 14  1  0
 14 15  2  0
 15 16  1  0
 16 17  2  0
 17 18  1  0
 18 19  2  0
 19 20  1  0
 19 21  1  0
 21 22  2  0
 22 23  1  0
 23 24  1  0
 23 25  2  0
 25 26  1  0
 26 27  2  0
 27 12  1  0
 18 13  1  0
 27 21  1  0
  1 28  1  0
  1 29  1  0
  1 30  1  0
  2 31  1  0
  2 32  1  0
  4 33  1  0
  4 34  1  0
  5 35  1  0
  5 36  1  0
  5 37  1  0
  6 38  1  0
  6 39  1  0
  7 40  1  0
  7 41  1  0
  9 42  1  0
  9 43  1  0
 10 44  1  0
 10 45  1  0
 11 46  1  0
 14 47  1  0
 15 48  1  0
 16 49  1  0
 17 50  1  0
 20 51  1  0
 20 52  1  0
 20 53  1  0
 22 54  1  0
 25 55  1  0
 26 56  1  0
M  CHG  1  19   1
M  END
>  <UniqueID>  (4) 
4

>  <SMILES>  (4) 
CCN(CC)CCOCCNc1c2ccccc2[n+](C)c2cc(Cl)ccc12

>  <Energy>  (4) 
74.64640691060498

>  <Genealogy>  (4) 
CCN(CC)CCOCCNc1c2ccccc2[n+](C)c2cc(Cl)ccc12 (3D coordinates assigned)
CCN(CC)CCOCCNc1c2ccccc2[n+](C)c2cc(Cl)ccc12 (optimized conformer: 74.64640691060498 kcal/mol)

>  <smiles>  (4) 
CCN(CC)CCOCCNc1c2ccccc2[n+](C)c2cc(Cl)ccc12

>  <score_type>  (4) 
oracle

>  <origin>  (4) 
adg

>  <m_score__min__energy>  (4) 
-8.9900000000000002

>  <m_primary>  (4) 
energy

$$$$
4:0
     RDKit          3D

 71 73  0  0  0  0  0  0  0  0999 V2000
   -6.0240   25.0660  -30.0680 C   0  0  0  0  0  0  0  0  0  0  0  0
   -4.7430   24.2450  -30.1140 C   0  0  0  0  0  0  0  0  0  0  0  0
   -4.9610   22.8750  -29.5870 N   0  0  0  0  0  0  0  0  0  0  0  0
   -4.2130   22.7000  -28.3140 C   0  0  0  0  0  0  0  0  0  0  0  0
   -3.9060   24.0670  -27.7170 C   0  0  0  0  0  0  0  0  0  0  0  0
   -4.5740   21.8490  -30.5880 C   0  0  0  0  0  0  0  0  0  0  0  0
   -4.2680   22.4800  -31.9690 C   0  0  0  0  0  0  0  0  0  0  0  0
   -4.5710   21.5990  -33.1150 N   0  0  0  0  0  0  0  0  0  0  0  0
   -5.7780   20.8030  -32.9240 C   0  0  0  0  0  0  0  0  0  0  0  0
   -6.9980   21.4330  -32.5060 C   0  0  0  0  0  0  0  0  0  0  0  0
   -7.1430   22.8460  -32.3650 C   0  0  0  0  0  0  0  0  0  0  0  0
   -8.3690   23.4230  -32.0460 C   0  0  0  0  0  0  0  0  0  0  0  0
   -9.4870   22.6290  -31.8550 C   0  0  0  0  0  0  0  0  0  0  0  0
   -9.3720   21.2500  -31.9330 C   0  0  0  0  0  0  0  0  0  0  0  0
   -8.1300   20.6260  -32.2090 C   0  0  0  0  0  0  0  0  0  0  0  0
   -8.0120   19.2570  -32.1740 N   0  0  0  0  0  0  0  0  0  0  0  0
   -9.0160   18.4550  -31.4390 C   0  0  0  0  0  0  0  0  0  0  0  0
   -6.9500   18.6360  -32.7900 C   0  0  0  0  0  0  0  0  0  0  0  0
   -7.0110   17.2500  -33.0670 C   0  0  0  0  0  0  0  0  0  0  0  0
   -5.9550   16.5850  -33.6510 C   0  0  0  0  0  0  0  0  0  0  0  0
   -4.8100   17.2720  -33.9950 C   0  0  0  0  0  0  0  0  0  0  0  0
   -4.6980   18.6580  -33.7810 C   0  0  0  0  0  0  0  0  0  0  0  0
   -3.5180   19.3010  -34.1910 O   0  0  0  0  0  0  0  0  0  0  0  0
   -2.2080   18.7290  -34.2380 C   0  0  0  0  0  0  0  0  0  0  0  0
   -1.3920   19.1240  -32.9980 C   0  0  0  0  0  0  0  0  0  0  0  0
   -1.8620   20.4190  -32.4580 N   0  0  0  0  0  0  0  0  0  0  0  0
   -1.5290   20.5480  -31.0200 C   0  0  0  0  0  0  0  0  0  0  0  0
   -1.0910   21.9780  -30.7040 C   0  0  0  0  0  0  0  0  0  0  0  0
   -1.3030   21.5460  -33.2390 C   0  0  0  0  0  0  0  0  0  0  0  0
    0.0230   21.1440  -33.8810 C   0  0  0  0  0  0  0  0  0  0  0  0
   -5.7890   19.3820  -33.1760 C   0  0  0  0  0  0  0  0  0  0  0  0
   -6.3062   25.2468  -29.0203 H   0  0  0  0  0  0  0  0  0  0  0  0
   -5.8611   26.0284  -30.5752 H   0  0  0  0  0  0  0  0  0  0  0  0
   -6.8304   24.5160  -30.5752 H   0  0  0  0  0  0  0  0  0  0  0  0
   -4.3982   24.1772  -31.1563 H   0  0  0  0  0  0  0  0  0  0  0  0
   -3.9892   24.7425  -29.4861 H   0  0  0  0  0  0  0  0  0  0  0  0
   -4.8229   22.1190  -27.6066 H   0  0  0  0  0  0  0  0  0  0  0  0
   -3.2723   22.1647  -28.5106 H   0  0  0  0  0  0  0  0  0  0  0  0
   -3.9212   23.9995  -26.6192 H   0  0  0  0  0  0  0  0  0  0  0  0
   -2.9112   24.3977  -28.0503 H   0  0  0  0  0  0  0  0  0  0  0  0
   -4.6639   24.7913  -28.0503 H   0  0  0  0  0  0  0  0  0  0  0  0
   -3.6767   21.3229  -30.2301 H   0  0  0  0  0  0  0  0  0  0  0  0
   -5.4178   21.1537  -30.7090 H   0  0  0  0  0  0  0  0  0  0  0  0
   -4.8672   23.3969  -32.0703 H   0  0  0  0  0  0  0  0  0  0  0  0
   -3.1857   22.6746  -31.9960 H   0  0  0  0  0  0  0  0  0  0  0  0
   -4.5670   22.1810  -33.9720 H   0  0  0  0  0  0  0  0  0  0  0  0
   -3.7660   20.9760  -33.3250 H   0  0  0  0  0  0  0  0  0  0  0  0
   -6.2661   23.4936  -32.5117 H   0  0  0  0  0  0  0  0  0  0  0  0
   -8.4499   24.5154  -31.9452 H   0  0  0  0  0  0  0  0  0  0  0  0
  -10.4625   23.0907  -31.6422 H   0  0  0  0  0  0  0  0  0  0  0  0
  -10.2645   20.6262  -31.7772 H   0  0  0  0  0  0  0  0  0  0  0  0
   -8.8624   18.5777  -30.3567 H   0  0  0  0  0  0  0  0  0  0  0  0
  -10.0264   18.7974  -31.7071 H   0  0  0  0  0  0  0  0  0  0  0  0
   -8.9053   17.3939  -31.7071 H   0  0  0  0  0  0  0  0  0  0  0  0
   -7.9225   16.6903  -32.8102 H   0  0  0  0  0  0  0  0  0  0  0  0
   -6.0255   15.5042  -33.8431 H   0  0  0  0  0  0  0  0  0  0  0  0
   -3.9680   16.7259  -34.4454 H   0  0  0  0  0  0  0  0  0  0  0  0
   -2.2948   17.6332  -34.2778 H   0  0  0  0  0  0  0  0  0  0  0  0
   -1.6918   19.1065  -35.1330 H   0  0  0  0  0  0  0  0  0  0  0  0
   -1.5065   18.3476  -32.2272 H   0  0  0  0  0  0  0  0  0  0  0  0
   -0.3345   19.2214  -33.2848 H   0  0  0  0  0  0  0  0  0  0  0  0
   -2.4154   20.2985  -30.4183 H   0  0  0  0  0  0  0  0  0  0  0  0
   -0.7052   19.8597  -30.7800 H   0  0  0  0  0  0  0  0  0  0  0  0
   -1.0487   22.1160  -29.6135 H   0  0  0  0  0  0  0  0  0  0  0  0
   -0.0958   22.1605  -31.1355 H   0  0  0  0  0  0  0  0  0  0  0  0
   -1.8133   22.6866  -31.1355 H   0  0  0  0  0  0  0  0  0  0  0  0
   -2.0160   21.8294  -34.0273 H   0  0  0  0  0  0  0  0  0  0  0  0
   -1.1285   22.3961  -32.5631 H   0  0  0  0  0  0  0  0  0  0  0  0
    0.7586   20.9210  -33.0942 H   0  0  0  0  0  0  0  0  0  0  0  0
   -0.1278   20.2512  -34.5056 H   0  0  0  0  0  0  0  0  0  0  0  0
    0.3933   21.9702  -34.5056 H   0  0  0  0  0  0  0  0  0  0  0  0
  1  2  1  0
  2  3  1  0
  3  4  1  0
  4  5  1  0
  3  6  1  0
  6  7  1  0
  7  8  1  0
  8  9  1  0
  9 10  2  0
 10 11  1  0
 11 12  2  0
 12 13  1  0
 13 14  2  0
 14 15  1  0
 15 16  2  0
 16 17  1  0
 16 18  1  0
 18 19  2  0
 19 20  1  0
 20 21  2  0
 21 22  1  0
 22 23  1  0
 23 24  1  0
 24 25  1  0
 25 26  1  0
 26 27  1  0
 27 28  1  0
 26 29  1  0
 29 30  1  0
 22 31  2  0
 31  9  1  0
 15 10  1  0
 31 18  1  0
  1 32  1  0
  1 33  1  0
  1 34  1  0
  2 35  1  0
  2 36  1  0
  4 37  1  0
  4 38  1  0
  5 39  1  0
  5 40  1  0
  5 41  1  0
  6 42  1  0
  6 43  1  0
  7 44  1  0
  7 45  1  0
  8 46  1  0
  8 47  1  0
 11 48  1  0
 12 49  1  0
 13 50  1  0
 14 51  1  0
 17 52  1  0
 17 53  1  0
 17 54  1  0
 19 55  1  0
 20 56  1  0
 21 57  1  0
 24 58  1  0
 24 59  1  0
 25 60  1  0
 25 61  1  0
 27 62  1  0
 27 63  1  0
 28 64  1  0
 28 65  1  0
 28 66  1  0
 29 67  1  0
 29 68  1  0
 30 69  1  0
 30 70  1  0
 30 71  1  0
M  CHG  2   8   1  16   1
M  END
>  <UniqueID>  (5) 
5

>  <SMILES>  (5) 
CCN(CC)CC[NH2+]c1c2ccccc2[n+](C)c2cccc(OCCN(CC)CC)c12

>  <Energy>  (5) 
105.58861781935539

>  <Genealogy>  (5) 
CCN(CC)CC[NH2+]c1c2ccccc2[n+](C)c2cccc(OCCN(CC)CC)c12 (protonated)
CCN(CC)CC[NH2+]c1c2ccccc2[n+](C)c2cccc(OCCN(CC)CC)c12 (3D coordinates assigned)
CCN(CC)CC[NH2+]c1c2ccccc2[n+](C)c2cccc(OCCN(CC)CC)c12 (optimized conformer: 105.58861781935539 kcal/mol)

>  <smiles>  (5) 
CCN(CC)CCNc1c2ccccc2[n+](C)c2cccc(OCCN(CC)CC)c12

>  <score_type>  (5) 
oracle

>  <origin>  (5) 
adg

>  <m_score__min__energy>  (5) 
-8.1300000000000008

>  <m_primary>  (5) 
energy

$$$$
5:0
     RDKit          3D

 55 56  0  0  0  0  0  0  0  0999 V2000
   -1.9680   25.4690  -26.7800 C   0  0  0  0  0  0  0  0  0  0  0  0
   -1.2270   25.6370  -28.1010 C   0  0  0  0  0  0  0  0  0  0  0  0
   -1.7600   24.6980  -29.0960 N   0  0  0  0  0  0  0  0  0  0  0  0
   -1.0640   23.4000  -29.0660 C   0  0  0  0  0  0  0  0  0  0  0  0
   -1.9950   22.2310  -29.4340 C   0  0  0  0  0  0  0  0  0  0  0  0
   -2.0270   21.9910  -30.9490 C   0  0  0  0  0  0  0  0  0  0  0  0
   -3.4130   21.5490  -31.4860 C   0  0  0  0  0  0  0  0  0  0  0  0
   -4.4990   22.5750  -31.5040 N   0  0  2  0  0  0  0  0  0  0  0  0
   -5.2570   22.5860  -30.2230 C   0  0  0  0  0  0  0  0  0  0  0  0
   -5.9140   23.9440  -29.8740 C   0  0  0  0  0  0  0  0  0  0  0  0
   -5.0600   25.1930  -30.1690 C   0  0  0  0  0  0  0  0  0  0  0  0
   -3.7410   24.8620  -30.7070 N   0  0  0  0  0  0  0  0  0  0  0  0
   -5.4110   22.5050  -32.6820 C   0  0  0  0  0  0  0  0  0  0  0  0
   -6.8180   21.9960  -32.3600 C   0  0  0  0  0  0  0  0  0  0  0  0
   -7.8300   22.9550  -32.1490 C   0  0  0  0  0  0  0  0  0  0  0  0
   -9.1540   22.5740  -31.9500 C   0  0  0  0  0  0  0  0  0  0  0  0
   -9.5020   21.2290  -31.9270 C   0  0  0  0  0  0  0  0  0  0  0  0
   -8.5160   20.2430  -32.0480 C   0  0  0  0  0  0  0  0  0  0  0  0
   -8.8820   18.8900  -31.9740 C   0  0  0  0  0  0  0  0  0  0  0  0
   -7.9110   17.8930  -32.0390 C   0  0  0  0  0  0  0  0  0  0  0  0
   -6.5660   18.2380  -32.1520 C   0  0  0  0  0  0  0  0  0  0  0  0
   -6.1830   19.5780  -32.2340 C   0  0  0  0  0  0  0  0  0  0  0  0
   -7.1510   20.6120  -32.2240 C   0  0  0  0  0  0  0  0  0  0  0  0
   -1.2695   25.6274  -25.9451 H   0  0  0  0  0  0  0  0  0  0  0  0
   -2.7832   26.2051  -26.7207 H   0  0  0  0  0  0  0  0  0  0  0  0
   -2.3861   24.4533  -26.7207 H   0  0  0  0  0  0  0  0  0  0  0  0
   -1.3583   26.6669  -28.4644 H   0  0  0  0  0  0  0  0  0  0  0  0
   -0.1577   25.4311  -27.9451 H   0  0  0  0  0  0  0  0  0  0  0  0
   -1.6710   25.1210  -30.0510 H   0  0  0  0  0  0  0  0  0  0  0  0
   -0.2308   23.4284  -29.7836 H   0  0  0  0  0  0  0  0  0  0  0  0
   -0.7040   23.2341  -28.0399 H   0  0  0  0  0  0  0  0  0  0  0  0
   -1.6366   21.3184  -28.9353 H   0  0  0  0  0  0  0  0  0  0  0  0
   -3.0132   22.4845  -29.1039 H   0  0  0  0  0  0  0  0  0  0  0  0
   -1.7420   22.9258  -31.4539 H   0  0  0  0  0  0  0  0  0  0  0  0
   -1.3269   21.1684  -31.1568 H   0  0  0  0  0  0  0  0  0  0  0  0
   -3.2711   21.1997  -32.5194 H   0  0  0  0  0  0  0  0  0  0  0  0
   -3.7597   20.7827  -30.7771 H   0  0  0  0  0  0  0  0  0  0  0  0
   -3.9940   23.4860  -31.5590 H   0  0  0  0  0  0  0  0  0  0  0  0
   -6.0509   21.8274  -30.2877 H   0  0  0  0  0  0  0  0  0  0  0  0
   -4.5265   22.3795  -29.4269 H   0  0  0  0  0  0  0  0  0  0  0  0
   -6.8462   24.0273  -30.4520 H   0  0  0  0  0  0  0  0  0  0  0  0
   -6.0653   23.9337  -28.7845 H   0  0  0  0  0  0  0  0  0  0  0  0
   -5.5920   25.8178  -30.9016 H   0  0  0  0  0  0  0  0  0  0  0  0
   -4.9067   25.7225  -29.2171 H   0  0  0  0  0  0  0  0  0  0  0  0
   -3.3540   24.0420  -30.1860 H   0  0  0  0  0  0  0  0  0  0  0  0
   -3.0960   25.6720  -30.5680 H   0  0  0  0  0  0  0  0  0  0  0  0
   -5.4994   23.5146  -33.1097 H   0  0  0  0  0  0  0  0  0  0  0  0
   -4.9668   21.7816  -33.3816 H   0  0  0  0  0  0  0  0  0  0  0  0
   -7.5685   24.0234  -32.1415 H   0  0  0  0  0  0  0  0  0  0  0  0
   -9.9290   23.3420  -31.8102 H   0  0  0  0  0  0  0  0  0  0  0  0
  -10.5567   20.9379  -31.8132 H   0  0  0  0  0  0  0  0  0  0  0  0
   -9.9414   18.6153  -31.8641 H   0  0  0  0  0  0  0  0  0  0  0  0
   -8.2062   16.8340  -32.0011 H   0  0  0  0  0  0  0  0  0  0  0  0
   -5.8002   17.4488  -32.1768 H   0  0  0  0  0  0  0  0  0  0  0  0
   -5.1157   19.8341  -32.3073 H   0  0  0  0  0  0  0  0  0  0  0  0
  1  2  1  0
  2  3  1  0
  3  4  1  0
  4  5  1  0
  5  6  1  0
  6  7  1  0
  7  8  1  0
  8  9  1  0
  9 10  1  0
 10 11  1  0
 11 12  1  0
  8 13  1  0
 13 14  1  0
 14 15  2  0
 15 16  1  0
 16 17  2  0
 17 18  1  0
 18 19  2  0
 19 20  1  0
 20 21  2  0
 21 22  1  0
 22 23  2  0
 23 14  1  0
 23 18  1  0
  1 24  1  0
  1 25  1  0
  1 26  1  0
  2 27  1  0
  2 28  1  0
  3 29  1  0
  4 30  1  0
  4 31  1  0
  5 32  1  0
  5 33  1  0
  6 34  1  0
  6 35  1  0
  7 36  1  0
  7 37  1  0
  8 38  1  6
  9 39  1  0
  9 40  1  0
 10 41  1  0
 10 42  1  0
 11 43  1  0
 11 44  1  0
 12 45  1  0
 12 46  1  0
 13 47  1  0
 13 48  1  0
 15 49  1  0
 16 50  1  0
 17 51  1  0
 19 52  1  0
 20 53  1  0
 21 54  1  0
 22 55  1  0
M  CHG  1   8   1
M  END
>  <UniqueID>  (6) 
6

>  <SMILES>  (6) 
CCNCCCC[N@H+](CCCN)Cc1cccc2ccccc12

>  <Energy>  (6) 
63.79406211625585

>  <Genealogy>  (6) 
CCNCCCC[NH+](CCCN)Cc1cccc2ccccc12 (protonated)
CCNCCCC[N@H+](CCCN)Cc1cccc2ccccc12 (chirality)
CCNCCCC[N@H+](CCCN)Cc1cccc2ccccc12 (3D coordinates assigned)
CCNCCCC[N@H+](CCCN)Cc1cccc2ccccc12 (optimized conformer: 63.79406211625585 kcal/mol)

>  <smiles>  (6) 
CCNCCCCN(CCCN)Cc1cccc2ccccc12

>  <score_type>  (6) 
oracle

>  <origin>  (6) 
adg

>  <m_score__min__energy>  (6) 
-8.1199999999999992

>  <m_primary>  (6) 
energy

$$$$
6:0
     RDKit          3D

 52 54  0  0  0  0  0  0  0  0999 V2000
   -6.1580   25.2880  -29.5960 C   0  0  0  0  0  0  0  0  0  0  0  0
   -5.1810   25.3750  -30.7650 C   0  0  0  0  0  0  0  0  0  0  0  0
   -4.0090   24.4810  -30.5940 N   0  0  0  0  0  0  0  0  0  0  0  0
   -3.5900   24.5370  -29.1800 C   0  0  0  0  0  0  0  0  0  0  0  0
   -4.2980   23.0760  -30.9830 C   0  0  0  0  0  0  0  0  0  0  0  0
   -5.4410   22.9830  -32.0070 C   0  0  0  0  0  0  0  0  0  0  0  0
   -5.1690   22.0110  -33.0740 N   0  0  0  0  0  0  0  0  0  0  0  0
   -5.2960   20.5930  -32.8620 C   0  0  0  0  0  0  0  0  0  0  0  0
   -6.5500   20.0630  -32.5070 C   0  0  0  0  0  0  0  0  0  0  0  0
   -7.5880   20.9080  -32.0570 C   0  0  0  0  0  0  0  0  0  0  0  0
   -8.8560   20.4000  -31.7890 C   0  0  0  0  0  0  0  0  0  0  0  0
   -9.1140   19.0470  -31.9670 C   0  0  0  0  0  0  0  0  0  0  0  0
   -8.0940   18.1880  -32.3720 C   0  0  0  0  0  0  0  0  0  0  0  0
   -6.7770   18.6670  -32.6040 C   0  0  0  0  0  0  0  0  0  0  0  0
   -5.7450   17.8190  -32.9480 N   0  0  0  0  0  0  0  0  0  0  0  0
   -5.9200   16.3540  -32.8170 C   0  0  0  0  0  0  0  0  0  0  0  0
   -4.5270   18.3330  -33.3550 C   0  0  0  0  0  0  0  0  0  0  0  0
   -3.5550   17.5090  -33.9740 C   0  0  0  0  0  0  0  0  0  0  0  0
   -2.2860   17.9940  -34.2920 C   0  0  0  0  0  0  0  0  0  0  0  0
   -1.2660   17.0870  -34.9170 C   0  0  0  0  0  0  0  0  0  0  0  0
   -1.9390   19.2920  -33.9290 C   0  0  0  0  0  0  0  0  0  0  0  0
   -2.8820   20.1590  -33.3600 C   0  0  0  0  0  0  0  0  0  0  0  0
   -2.3820   21.5070  -32.9000 C   0  0  0  0  0  0  0  0  0  0  0  0
   -4.2300   19.7170  -33.1840 C   0  0  0  0  0  0  0  0  0  0  0  0
   -5.6014   25.3376  -28.6485 H   0  0  0  0  0  0  0  0  0  0  0  0
   -6.8681   26.1265  -29.6484 H   0  0  0  0  0  0  0  0  0  0  0  0
   -6.7088   24.3373  -29.6484 H   0  0  0  0  0  0  0  0  0  0  0  0
   -5.7088   25.0920  -31.6877 H   0  0  0  0  0  0  0  0  0  0  0  0
   -4.8085   26.4089  -30.8129 H   0  0  0  0  0  0  0  0  0  0  0  0
   -4.4708   24.4193  -28.5316 H   0  0  0  0  0  0  0  0  0  0  0  0
   -2.8745   23.7265  -28.9772 H   0  0  0  0  0  0  0  0  0  0  0  0
   -3.1124   25.5070  -28.9772 H   0  0  0  0  0  0  0  0  0  0  0  0
   -3.3909   22.6360  -31.4230 H   0  0  0  0  0  0  0  0  0  0  0  0
   -4.6078   22.5311  -30.0791 H   0  0  0  0  0  0  0  0  0  0  0  0
   -6.3597   22.6817  -31.4824 H   0  0  0  0  0  0  0  0  0  0  0  0
   -5.5466   23.9717  -32.4775 H   0  0  0  0  0  0  0  0  0  0  0  0
   -4.5800   22.3320  -33.8740 H   0  0  0  0  0  0  0  0  0  0  0  0
   -7.3921   21.9813  -31.9165 H   0  0  0  0  0  0  0  0  0  0  0  0
   -9.6537   21.0702  -31.4362 H   0  0  0  0  0  0  0  0  0  0  0  0
  -10.1252   18.6527  -31.7880 H   0  0  0  0  0  0  0  0  0  0  0  0
   -8.3128   17.1195  -32.5146 H   0  0  0  0  0  0  0  0  0  0  0  0
   -5.9524   16.0824  -31.7515 H   0  0  0  0  0  0  0  0  0  0  0  0
   -6.8606   16.0523  -33.3011 H   0  0  0  0  0  0  0  0  0  0  0  0
   -5.0770   15.8393  -33.3011 H   0  0  0  0  0  0  0  0  0  0  0  0
   -3.8062   16.4642  -34.2090 H   0  0  0  0  0  0  0  0  0  0  0  0
   -0.6942   16.5786  -34.1267 H   0  0  0  0  0  0  0  0  0  0  0  0
   -1.7750   16.3378  -35.5411 H   0  0  0  0  0  0  0  0  0  0  0  0
   -0.5814   17.6801  -35.5411 H   0  0  0  0  0  0  0  0  0  0  0  0
   -0.9091   19.6428  -34.0911 H   0  0  0  0  0  0  0  0  0  0  0  0
   -2.3705   21.5381  -31.8005 H   0  0  0  0  0  0  0  0  0  0  0  0
   -1.3635   21.6702  -33.2822 H   0  0  0  0  0  0  0  0  0  0  0  0
   -3.0477   22.2949  -33.2822 H   0  0  0  0  0  0  0  0  0  0  0  0
  1  2  1  0
  2  3  1  0
  3  4  1  0
  3  5  1  0
  5  6  1  0
  6  7  1  0
  7  8  1  0
  8  9  2  0
  9 10  1  0
 10 11  2  0
 11 12  1  0
 12 13  2  0
 13 14  1  0
 14 15  2  0
 15 16  1  0
 15 17  1  0
 17 18  2  0
 18 19  1  0
 19 20  1  0
 19 21  2  0
 21 22  1  0
 22 23  1  0
 22 24  2  0
 24  8  1  0
 14  9  1  0
 24 17  1  0
  1 25  1  0
  1 26  1  0
  1 27  1  0
  2 28  1  0
  2 29  1  0
  4 30  1  0
  4 31  1  0
  4 32  1  0
  5 33  1  0
  5 34  1  0
  6 35  1  0
  6 36  1  0
  7 37  1  0
 10 38  1  0
 11 39  1  0
 12 40  1  0
 13 41  1  0
 16 42  1  0
 16 43  1  0
 16 44  1  0
 18 45  1  0
 20 46  1  0
 20 47  1  0
 20 48  1  0
 21 49  1  0
 23 50  1  0
 23 51  1  0
 23 52  1  0
M  CHG  1  15   1
M  END
>  <UniqueID>  (7) 
7

>  <SMILES>  (7) 
CCN(C)CCNc1c2ccccc2[n+](C)c2cc(C)cc(C)c12

>  <Energy>  (7) 
85.71799040377647

>  <Genealogy>  (7) 
CCN(C)CCNc1c2ccccc2[n+](C)c2cc(C)cc(C)c12 (3D coordinates assigned)
CCN(C)CCNc1c2ccccc2[n+](C)c2cc(C)cc(C)c12 (optimized conformer: 85.71799040377647 kcal/mol)

>  <smiles>  (7) 
CCN(C)CCNc1c2ccccc2[n+](C)c2cc(C)cc(C)c12

>  <score_type>  (7) 
oracle

>  <origin>  (7) 
adg

>  <m_score__min__energy>  (7) 
-8.75

>  <m_primary>  (7) 
energy

$$$$
7:0
     RDKit          3D

 48 50  0  0  0  0  0  0  0  0999 V2000
   -6.4810   16.3800  -33.7910 C   0  0  0  0  0  0  0  0  0  0  0  0
   -6.4510   17.4430  -32.6960 C   0  0  0  0  0  0  0  0  0  0  0  0
   -7.4020   18.5330  -33.0150 N   0  0  0  0  0  0  0  0  0  0  0  0
   -6.7140   19.6690  -33.6720 C   0  0  0  0  0  0  0  0  0  0  0  0
   -5.2050   19.5600  -33.4730 C   0  0  0  0  0  0  0  0  0  0  0  0
   -8.1200   18.9820  -31.8020 C   0  0  0  0  0  0  0  0  0  0  0  0
   -7.9780   20.4680  -31.6340 C   0  0  0  0  0  0  0  0  0  0  0  0
   -6.8250   20.9780  -31.1240 N   0  0  0  0  0  0  0  0  0  0  0  0
   -6.6370   22.3140  -30.9260 C   0  0  0  0  0  0  0  0  0  0  0  0
   -5.3510   22.7890  -30.3540 C   0  0  0  0  0  0  0  0  0  0  0  0
   -5.3540   23.7880  -29.3680 C   0  0  0  0  0  0  0  0  0  0  0  0
   -4.1600   24.2490  -28.8110 C   0  0  0  0  0  0  0  0  0  0  0  0
   -2.9240   23.7140  -29.2210 C   0  0  0  0  0  0  0  0  0  0  0  0
   -1.6980   24.1620  -28.6730 C   0  0  0  0  0  0  0  0  0  0  0  0
   -1.6290   25.5420  -27.3310 Br  0  0  0  0  0  0  0  0  0  0  0  0
   -0.4840   23.5980  -29.1040 C   0  0  0  0  0  0  0  0  0  0  0  0
    0.7140   24.0650  -28.5390 O   0  0  0  0  0  0  0  0  0  0  0  0
    1.3240   23.5200  -27.3730 C   0  0  0  0  0  0  0  0  0  0  0  0
   -0.4960   22.5870  -30.0810 C   0  0  0  0  0  0  0  0  0  0  0  0
   -1.6990   22.1410  -30.6250 C   0  0  0  0  0  0  0  0  0  0  0  0
   -2.9160   22.6960  -30.2060 C   0  0  0  0  0  0  0  0  0  0  0  0
   -4.1220   22.2410  -30.7610 C   0  0  0  0  0  0  0  0  0  0  0  0
   -7.6780   23.2030  -31.2460 C   0  0  0  0  0  0  0  0  0  0  0  0
   -8.8730   22.7050  -31.7690 C   0  0  0  0  0  0  0  0  0  0  0  0
   -9.0300   21.3340  -31.9670 C   0  0  0  0  0  0  0  0  0  0  0  0
  -10.1970   20.8540  -32.4670 F   0  0  0  0  0  0  0  0  0  0  0  0
   -6.5092   15.3810  -33.3315 H   0  0  0  0  0  0  0  0  0  0  0  0
   -7.3755   16.5218  -34.4153 H   0  0  0  0  0  0  0  0  0  0  0  0
   -5.5799   16.4712  -34.4153 H   0  0  0  0  0  0  0  0  0  0  0  0
   -6.7325   16.9844  -31.7366 H   0  0  0  0  0  0  0  0  0  0  0  0
   -5.4356   17.8607  -32.6290 H   0  0  0  0  0  0  0  0  0  0  0  0
   -6.9400   19.6568  -34.7485 H   0  0  0  0  0  0  0  0  0  0  0  0
   -7.0673   20.6093  -33.2238 H   0  0  0  0  0  0  0  0  0  0  0  0
   -4.9773   19.5436  -32.3969 H   0  0  0  0  0  0  0  0  0  0  0  0
   -4.8397   18.6331  -33.9393 H   0  0  0  0  0  0  0  0  0  0  0  0
   -4.7103   20.4247  -33.9393 H   0  0  0  0  0  0  0  0  0  0  0  0
   -9.1860   18.7274  -31.8958 H   0  0  0  0  0  0  0  0  0  0  0  0
   -7.6891   18.4792  -30.9237 H   0  0  0  0  0  0  0  0  0  0  0  0
   -6.3103   24.2134  -29.0296 H   0  0  0  0  0  0  0  0  0  0  0  0
   -4.1850   25.0376  -28.0446 H   0  0  0  0  0  0  0  0  0  0  0  0
    0.8479   23.9454  -26.4772 H   0  0  0  0  0  0  0  0  0  0  0  0
    1.1992   22.4271  -27.3706 H   0  0  0  0  0  0  0  0  0  0  0  0
    2.3960   23.7666  -27.3706 H   0  0  0  0  0  0  0  0  0  0  0  0
    0.4525   22.1442  -30.4189 H   0  0  0  0  0  0  0  0  0  0  0  0
   -1.6935   21.3486  -31.3879 H   0  0  0  0  0  0  0  0  0  0  0  0
   -4.1055   21.4473  -31.5224 H   0  0  0  0  0  0  0  0  0  0  0  0
   -7.5519   24.2839  -31.0854 H   0  0  0  0  0  0  0  0  0  0  0  0
   -9.6908   23.3947  -32.0249 H   0  0  0  0  0  0  0  0  0  0  0  0
  1  2  1  0
  2  3  1  0
  3  4  1  0
  4  5  1  0
  3  6  1  0
  6  7  1  0
  7  8  2  0
  8  9  1  0
  9 10  1  0
 10 11  2  0
 11 12  1  0
 12 13  2  0
 13 14  1  0
 14 15  1  0
 14 16  2  0
 16 17  1  0
 17 18  1  0
 16 19  1  0
 19 20  2  0
 20 21  1  0
 21 22  2  0
  9 23  2  0
 23 24  1  0
 24 25  2  0
 25 26  1  0
 25  7  1  0
 22 10  1  0
 21 13  1  0
  1 27  1  0
  1 28  1  0
  1 29  1  0
  2 30  1  0
  2 31  1  0
  4 32  1  0
  4 33  1  0
  5 34  1  0
  5 35  1  0
  5 36  1  0
  6 37  1  0
  6 38  1  0
 11 39  1  0
 12 40  1  0
 18 41  1  0
 18 42  1  0
 18 43  1  0
 19 44  1  0
 20 45  1  0
 22 46  1  0
 23 47  1  0
 24 48  1  0
M  END
>  <UniqueID>  (8) 
8

>  <SMILES>  (8) 
CCN(CC)Cc1nc(-c2ccc3c(Br)c(OC)ccc3c2)ccc1F

>  <Energy>  (8) 
57.22692998891881

>  <Genealogy>  (8) 
CCN(CC)Cc1nc(-c2ccc3c(Br)c(OC)ccc3c2)ccc1F (3D coordinates assigned)
CCN(CC)Cc1nc(-c2ccc3c(Br)c(OC)ccc3c2)ccc1F (optimized conformer: 57.22692998891881 kcal/mol)

>  <smiles>  (8) 
CCN(CC)Cc1nc(-c2ccc3c(Br)c(OC)ccc3c2)ccc1F

>  <score_type>  (8) 
oracle

>  <origin>  (8) 
adg

>  <m_score__min__energy>  (8) 
-8.3499999999999996

>  <m_primary>  (8) 
energy

$$$$
8:0
     RDKit          3D

 48 51  0  0  0  0  0  0  0  0999 V2000
   -4.6460   22.3950  -32.2780 C   0  0  0  0  0  0  0  0  0  0  0  0
   -5.6320   21.3220  -32.2540 N   0  0  0  0  0  0  0  0  0  0  0  0
   -5.3240   20.0290  -32.2970 N   0  0  0  0  0  0  0  0  0  0  0  0
   -6.4800   19.3240  -32.2390 C   0  0  0  0  0  0  0  0  0  0  0  0
   -6.5570   17.8280  -32.2280 C   0  0  0  0  0  0  0  0  0  0  0  0
   -6.6650   17.3020  -33.6070 N   0  0  0  0  0  0  0  0  0  0  0  0
   -6.1140   18.2330  -34.6230 C   0  0  0  0  0  0  0  0  0  0  0  0
   -4.6330   17.9660  -34.9620 C   0  0  0  0  0  0  0  0  0  0  0  0
   -3.9820   17.2590  -33.8510 N   0  0  0  0  0  0  0  0  0  0  0  0
   -2.5050   17.2540  -33.9340 C   0  0  0  0  0  0  0  0  0  0  0  0
   -1.8830   18.6340  -33.9080 C   0  0  0  0  0  0  0  0  0  0  0  0
   -0.5560   18.8230  -34.3280 C   0  0  0  0  0  0  0  0  0  0  0  0
    0.0010   20.1010  -34.2930 C   0  0  0  0  0  0  0  0  0  0  0  0
   -0.7630   21.1790  -33.8490 C   0  0  0  0  0  0  0  0  0  0  0  0
   -2.0830   20.9630  -33.4490 C   0  0  0  0  0  0  0  0  0  0  0  0
   -2.6150   19.7090  -33.4890 N   0  0  0  0  0  0  0  0  0  0  0  0
   -4.5610   15.9150  -33.6540 C   0  0  0  0  0  0  0  0  0  0  0  0
   -6.1040   15.9400  -33.7510 C   0  0  0  0  0  0  0  0  0  0  0  0
   -7.5380   20.2080  -32.1460 C   0  0  0  0  0  0  0  0  0  0  0  0
   -8.9150   20.0240  -32.0410 C   0  0  0  0  0  0  0  0  0  0  0  0
   -9.7190   21.1750  -31.9510 C   0  0  0  0  0  0  0  0  0  0  0  0
   -9.1330   22.4630  -31.9650 C   0  0  0  0  0  0  0  0  0  0  0  0
   -7.7370   22.6110  -32.0680 C   0  0  0  0  0  0  0  0  0  0  0  0
   -6.9690   21.4490  -32.1580 C   0  0  0  0  0  0  0  0  0  0  0  0
   -4.3864   22.6775  -31.2471 H   0  0  0  0  0  0  0  0  0  0  0  0
   -3.7424   22.0510  -32.8025 H   0  0  0  0  0  0  0  0  0  0  0  0
   -5.0650   23.2664  -32.8025 H   0  0  0  0  0  0  0  0  0  0  0  0
   -5.6496   17.4227  -31.7565 H   0  0  0  0  0  0  0  0  0  0  0  0
   -7.4490   17.5229  -31.6611 H   0  0  0  0  0  0  0  0  0  0  0  0
   -6.7059   18.1327  -35.5447 H   0  0  0  0  0  0  0  0  0  0  0  0
   -6.1717   19.2463  -34.1989 H   0  0  0  0  0  0  0  0  0  0  0  0
   -4.5730   17.3494  -35.8710 H   0  0  0  0  0  0  0  0  0  0  0  0
   -4.1221   18.9260  -35.1274 H   0  0  0  0  0  0  0  0  0  0  0  0
   -2.1124   16.6813  -33.0808 H   0  0  0  0  0  0  0  0  0  0  0  0
   -2.2418   16.8041  -34.9027 H   0  0  0  0  0  0  0  0  0  0  0  0
    0.0398   17.9688  -34.6821 H   0  0  0  0  0  0  0  0  0  0  0  0
    1.0410   20.2580  -34.6151 H   0  0  0  0  0  0  0  0  0  0  0  0
   -0.3302   22.1897  -33.8141 H   0  0  0  0  0  0  0  0  0  0  0  0
   -2.6955   21.8076  -33.1005 H   0  0  0  0  0  0  0  0  0  0  0  0
   -3.6070   19.5800  -33.1880 H   0  0  0  0  0  0  0  0  0  0  0  0
   -4.1657   15.2393  -34.4267 H   0  0  0  0  0  0  0  0  0  0  0  0
   -4.2852   15.5657  -32.6481 H   0  0  0  0  0  0  0  0  0  0  0  0
   -6.4012   15.5392  -34.7313 H   0  0  0  0  0  0  0  0  0  0  0  0
   -6.4980   15.3301  -32.9247 H   0  0  0  0  0  0  0  0  0  0  0  0
   -9.3569   19.0168  -32.0289 H   0  0  0  0  0  0  0  0  0  0  0  0
  -10.8112   21.0730  -31.8691 H   0  0  0  0  0  0  0  0  0  0  0  0
   -9.7730   23.3549  -31.8949 H   0  0  0  0  0  0  0  0  0  0  0  0
   -7.2684   23.6062  -32.0772 H   0  0  0  0  0  0  0  0  0  0  0  0
  1  2  1  0
  2  3  1  0
  3  4  2  0
  4  5  1  0
  5  6  1  0
  6  7  1  0
  7  8  1  0
  8  9  1  0
  9 10  1  0
 10 11  1  0
 11 12  2  0
 12 13  1  0
 13 14  2  0
 14 15  1  0
 15 16  2  0
  9 17  1  0
 17 18  1  0
  4 19  1  0
 19 20  2  0
 20 21  1  0
 21 22  2  0
 22 23  1  0
 23 24  2  0
 24  2  1  0
 18  6  1  0
 24 19  1  0
 16 11  1  0
  1 25  1  0
  1 26  1  0
  1 27  1  0
  5 28  1  0
  5 29  1  0
  7 30  1  0
  7 31  1  0
  8 32  1  0
  8 33  1  0
 10 34  1  0
 10 35  1  0
 12 36  1  0
 13 37  1  0
 14 38  1  0
 15 39  1  0
 16 40  1  0
 17 41  1  0
 17 42  1  0
 18 43  1  0
 18 44  1  0
 20 45  1  0
 21 46  1  0
 22 47  1  0
 23 48  1  0
M  CHG  1  16   1
M  END
>  <UniqueID>  (9) 
9

>  <SMILES>  (9) 
Cn1nc(CN2CCN(Cc3cccc[nH+]3)CC2)c2ccccc21

>  <Energy>  (9) 
102.66530953229835

>  <Genealogy>  (9) 
Cn1nc(CN2CCN(Cc3cccc[nH+]3)CC2)c2ccccc21 (protonated)
Cn1nc(CN2CCN(Cc3cccc[nH+]3)CC2)c2ccccc21 (3D coordinates assigned)
Cn1nc(CN2CCN(Cc3cccc[nH+]3)CC2)c2ccccc21 (nonaromatic ring conformer: 102.66530953229835 kcal/mol)

>  <smiles>  (9) 
Cn1nc(CN2CCN(Cc3ccccn3)CC2)c2ccccc21

>  <score_type>  (9) 
oracle

>  <origin>  (9) 
adg

>  <m_score__min__energy>  (9) 
-8.1099999999999994

>  <m_primary>  (9) 
energy

$$$$
9:0
     RDKit          3D

 40 41  0  0  0  0  0  0  0  0999 V2000
   -4.3030   23.0600  -28.5820 C   0  0  0  0  0  0  0  0  0  0  0  0
   -3.2670   23.6100  -29.5670 C   0  0  0  0  0  0  0  0  0  0  0  0
   -3.8670   24.0210  -30.8450 N   0  0  0  0  0  0  0  0  0  0  0  0
   -5.3290   23.8830  -30.8470 C   0  0  0  0  0  0  0  0  0  0  0  0
   -5.8470   23.5530  -32.2580 C   0  0  0  0  0  0  0  0  0  0  0  0
   -5.9840   22.0940  -32.4730 N   0  0  0  0  0  0  0  0  0  0  0  0
   -7.1620   21.3950  -32.2460 C   0  0  0  0  0  0  0  0  0  0  0  0
   -8.4230   21.9600  -31.5870 C   0  0  0  0  0  0  0  0  0  0  0  0
   -9.7010   21.1890  -31.9520 C   0  0  0  0  0  0  0  0  0  0  0  0
   -8.2930   22.2620  -30.0880 C   0  0  0  0  0  0  0  0  0  0  0  0
   -7.2240   20.0720  -32.5580 N   0  0  0  0  0  0  0  0  0  0  0  0
   -6.1760   19.3930  -33.0720 C   0  0  0  0  0  0  0  0  0  0  0  0
   -6.3050   18.0330  -33.3810 C   0  0  0  0  0  0  0  0  0  0  0  0
   -5.2140   17.3280  -33.8970 C   0  0  0  0  0  0  0  0  0  0  0  0
   -3.9950   17.9780  -34.1030 C   0  0  0  0  0  0  0  0  0  0  0  0
   -3.8620   19.3360  -33.7950 C   0  0  0  0  0  0  0  0  0  0  0  0
   -4.9580   20.0540  -33.2760 C   0  0  0  0  0  0  0  0  0  0  0  0
   -4.8810   21.4170  -32.9550 C   0  0  0  0  0  0  0  0  0  0  0  0
   -3.7820   22.0210  -33.1110 O   0  0  0  0  0  0  0  0  0  0  0  0
   -3.9619   23.2411  -27.5520 H   0  0  0  0  0  0  0  0  0  0  0  0
   -5.2667   23.5653  -28.7433 H   0  0  0  0  0  0  0  0  0  0  0  0
   -4.4244   21.9787  -28.7433 H   0  0  0  0  0  0  0  0  0  0  0  0
   -2.7756   24.4823  -29.1114 H   0  0  0  0  0  0  0  0  0  0  0  0
   -2.5477   22.8053  -29.7792 H   0  0  0  0  0  0  0  0  0  0  0  0
   -3.4640   23.4370  -31.6160 H   0  0  0  0  0  0  0  0  0  0  0  0
   -5.6154   23.0734  -30.1596 H   0  0  0  0  0  0  0  0  0  0  0  0
   -5.7726   24.8362  -30.5235 H   0  0  0  0  0  0  0  0  0  0  0  0
   -6.8308   24.0258  -32.3944 H   0  0  0  0  0  0  0  0  0  0  0  0
   -5.1164   23.9360  -32.9857 H   0  0  0  0  0  0  0  0  0  0  0  0
   -8.5362   22.9548  -32.0427 H   0  0  0  0  0  0  0  0  0  0  0  0
  -10.2169   20.8778  -31.0317 H   0  0  0  0  0  0  0  0  0  0  0  0
  -10.3645   21.8377  -32.5428 H   0  0  0  0  0  0  0  0  0  0  0  0
   -9.4366   20.2996  -32.5428 H   0  0  0  0  0  0  0  0  0  0  0  0
   -8.6625   21.4037  -29.5077 H   0  0  0  0  0  0  0  0  0  0  0  0
   -7.2367   22.4443  -29.8409 H   0  0  0  0  0  0  0  0  0  0  0  0
   -8.8866   23.1545  -29.8409 H   0  0  0  0  0  0  0  0  0  0  0  0
   -7.2643   17.5201  -33.2177 H   0  0  0  0  0  0  0  0  0  0  0  0
   -5.3155   16.2602  -34.1411 H   0  0  0  0  0  0  0  0  0  0  0  0
   -3.1376   17.4207  -34.5084 H   0  0  0  0  0  0  0  0  0  0  0  0
   -2.9003   19.8444  -33.9582 H   0  0  0  0  0  0  0  0  0  0  0  0
  1  2  1  0
  2  3  1  0
  3  4  1  0
  4  5  1  0
  5  6  1  0
  6  7  1  0
  7  8  1  0
  8  9  1  0
  8 10  1  0
  7 11  2  0
 11 12  1  0
 12 13  2  0
 13 14  1  0
 14 15  2  0
 15 16  1  0
 16 17  2  0
 17 18  1  0
 18 19  2  0
 18  6  1  0
 17 12  1  0
  1 20  1  0
  1 21  1  0
  1 22  1  0
  2 23  1  0
  2 24  1  0
  3 25  1  0
  4 26  1  0
  4 27  1  0
  5 28  1  0
  5 29  1  0
  8 30  1  0
  9 31  1  0
  9 32  1  0
  9 33  1  0
 10 34  1  0
 10 35  1  0
 10 36  1  0
 13 37  1  0
 14 38  1  0
 15 39  1  0
 16 40  1  0
M  END
>  <UniqueID>  (10) 
10

>  <SMILES>  (10) 
CCNCCn1c(C(C)C)nc2ccccc2c1=O

>  <Energy>  (10) 
49.58415142623873

>  <Genealogy>  (10) 
CCNCCn1c(C(C)C)nc2ccccc2c1=O (3D coordinates assigned)
CCNCCn1c(C(C)C)nc2ccccc2c1=O (optimized conformer: 49.58415142623873 kcal/mol)

>  <smiles>  (10) 
CCNCCn1c(C(C)C)nc2ccccc2c1=O

>  <score_type>  (10) 
oracle

>  <origin>  (10) 
adg

>  <m_score__min__energy>  (10) 
-7.2300000000000004

>  <m_primary>  (10) 
energy

$$$$
10:0
     RDKit          3D

 71 76  0  0  0  0  0  0  0  0999 V2000
   -3.2890   18.9410  -26.6540 C   0  0  0  0  0  0  0  0  0  0  0  0
   -2.1410   19.7820  -27.1140 C   0  0  0  0  0  0  0  0  0  0  0  0
   -2.1210   21.1280  -27.0680 N   0  0  0  0  0  0  0  0  0  0  0  0
   -0.8640   21.4770  -27.4110 C   0  0  0  0  0  0  0  0  0  0  0  0
   -0.2700   23.1730  -27.3470 S   0  0  0  0  0  0  0  0  0  0  0  0
   -0.5410   23.5350  -29.1210 C   0  0  0  0  0  0  0  0  0  0  0  0
   -1.8190   24.3660  -29.3450 C   0  0  0  0  0  0  0  0  0  0  0  0
   -3.1000   23.6520  -28.8550 C   0  0  0  0  0  0  0  0  0  0  0  0
   -4.2710   23.7190  -29.7730 N   0  0  0  0  0  0  0  0  0  0  0  0
   -5.2960   24.7150  -29.3070 C   0  0  0  0  0  0  0  0  0  0  0  0
   -6.5980   24.6030  -30.1250 C   0  0  2  0  0  0  0  0  0  0  0  0
   -7.2130   23.2440  -29.8220 C   0  0  0  0  0  0  0  0  0  0  0  0
   -6.2790   22.6770  -30.9160 C   0  0  1  0  0  0  0  0  0  0  0  0
   -6.2240   24.1000  -31.5120 C   0  0  0  0  0  0  0  0  0  0  0  0
   -4.9000   22.3800  -30.1520 C   0  0  1  0  0  0  0  0  0  0  0  0
   -3.9940   21.4480  -30.9670 C   0  0  0  0  0  0  0  0  0  0  0  0
   -2.7060   21.0650  -30.5310 C   0  0  0  0  0  0  0  0  0  0  0  0
   -1.8700   20.3000  -31.3450 C   0  0  0  0  0  0  0  0  0  0  0  0
   -2.3340   19.8390  -32.5750 C   0  0  0  0  0  0  0  0  0  0  0  0
   -3.6820   20.0000  -32.8980 C   0  0  0  0  0  0  0  0  0  0  0  0
   -4.5430   20.6860  -32.0170 C   0  0  0  0  0  0  0  0  0  0  0  0
   -5.9650   20.4400  -32.0360 N   0  0  0  0  0  0  0  0  0  0  0  0
   -6.4110   19.0970  -32.4790 C   0  0  0  0  0  0  0  0  0  0  0  0
   -7.6250   18.5740  -31.7040 C   0  0  0  0  0  0  0  0  0  0  0  0
   -8.9480   18.9700  -32.3650 C   0  0  0  0  0  0  0  0  0  0  0  0
   -8.9810   20.4310  -32.8280 C   0  0  0  0  0  0  0  0  0  0  0  0
   -8.3540   21.3760  -31.7970 C   0  0  0  0  0  0  0  0  0  0  0  0
   -6.8290   21.6370  -31.9750 C   0  0  1  0  0  0  0  0  0  0  0  0
   -0.0850   20.3990  -27.6680 N   0  0  0  0  0  0  0  0  0  0  0  0
    1.3220   20.3950  -28.0640 C   0  0  0  0  0  0  0  0  0  0  0  0
   -0.8960   19.3270  -27.5160 C   0  0  0  0  0  0  0  0  0  0  0  0
   -0.4690   17.8930  -27.6060 C   0  0  0  0  0  0  0  0  0  0  0  0
   -3.3131   18.9233  -25.5544 H   0  0  0  0  0  0  0  0  0  0  0  0
   -4.2299   19.3651  -27.0346 H   0  0  0  0  0  0  0  0  0  0  0  0
   -3.1683   17.9160  -27.0346 H   0  0  0  0  0  0  0  0  0  0  0  0
   -2.8920   21.7650  -26.7740 H   0  0  0  0  0  0  0  0  0  0  0  0
    0.3221   24.0980  -29.5057 H   0  0  0  0  0  0  0  0  0  0  0  0
   -0.6567   22.5787  -29.6520 H   0  0  0  0  0  0  0  0  0  0  0  0
   -1.7182   25.3168  -28.8011 H   0  0  0  0  0  0  0  0  0  0  0  0
   -1.9239   24.5209  -30.4290 H   0  0  0  0  0  0  0  0  0  0  0  0
   -2.8556   22.5913  -28.6967 H   0  0  0  0  0  0  0  0  0  0  0  0
   -3.4063   24.1819  -27.9410 H   0  0  0  0  0  0  0  0  0  0  0  0
   -5.5216   24.5276  -28.2468 H   0  0  0  0  0  0  0  0  0  0  0  0
   -4.8853   25.7261  -29.4446 H   0  0  0  0  0  0  0  0  0  0  0  0
   -7.1563   25.5392  -29.9772 H   0  0  0  0  0  0  0  0  0  0  0  0
   -7.0192   22.8652  -28.8076 H   0  0  0  0  0  0  0  0  0  0  0  0
   -8.3002   23.0771  -29.8363 H   0  0  0  0  0  0  0  0  0  0  0  0
   -5.2307   24.4145  -31.8646 H   0  0  0  0  0  0  0  0  0  0  0  0
   -6.7951   24.3805  -32.4093 H   0  0  0  0  0  0  0  0  0  0  0  0
   -5.0753   21.8223  -29.2202 H   0  0  0  0  0  0  0  0  0  0  0  0
   -2.3570   21.3745  -29.5348 H   0  0  0  0  0  0  0  0  0  0  0  0
   -0.8476   20.0616  -31.0165 H   0  0  0  0  0  0  0  0  0  0  0  0
   -1.6461   19.3539  -33.2831 H   0  0  0  0  0  0  0  0  0  0  0  0
   -4.0734   19.5912  -33.8412 H   0  0  0  0  0  0  0  0  0  0  0  0
   -5.5791   18.3904  -32.3425 H   0  0  0  0  0  0  0  0  0  0  0  0
   -6.7117   19.1855  -33.5334 H   0  0  0  0  0  0  0  0  0  0  0  0
   -7.6001   18.9882  -30.6853 H   0  0  0  0  0  0  0  0  0  0  0  0
   -7.5696   17.4755  -31.6912 H   0  0  0  0  0  0  0  0  0  0  0  0
   -9.7607   18.8150  -31.6400 H   0  0  0  0  0  0  0  0  0  0  0  0
   -9.0658   18.3418  -33.2602 H   0  0  0  0  0  0  0  0  0  0  0  0
  -10.0275   20.7279  -32.9913 H   0  0  0  0  0  0  0  0  0  0  0  0
   -8.3959   20.5058  -33.7565 H   0  0  0  0  0  0  0  0  0  0  0  0
   -8.5103   20.9417  -30.7985 H   0  0  0  0  0  0  0  0  0  0  0  0
   -8.8476   22.3491  -31.9362 H   0  0  0  0  0  0  0  0  0  0  0  0
   -6.7652   22.0727  -32.9830 H   0  0  0  0  0  0  0  0  0  0  0  0
    1.9559   20.3932  -27.1650 H   0  0  0  0  0  0  0  0  0  0  0  0
    1.5319   19.4963  -28.6625 H   0  0  0  0  0  0  0  0  0  0  0  0
    1.5370   21.2925  -28.6625 H   0  0  0  0  0  0  0  0  0  0  0  0
   -0.3468   17.4825  -26.5928 H   0  0  0  0  0  0  0  0  0  0  0  0
   -1.2342   17.3157  -28.1456 H   0  0  0  0  0  0  0  0  0  0  0  0
    0.4874   17.8284  -28.1456 H   0  0  0  0  0  0  0  0  0  0  0  0
  1  2  1  0
  2  3  1  0
  3  4  2  0
  4  5  1  0
  5  6  1  0
  6  7  1  0
  7  8  1  0
  8  9  1  0
  9 10  1  0
 10 11  1  0
 11 12  1  0
 12 13  1  0
 13 14  1  6
 13 15  1  0
 15 16  1  0
 16 17  2  0
 17 18  1  0
 18 19  2  0
 19 20  1  0
 20 21  2  0
 21 22  1  0
 22 23  1  0
 23 24  1  0
 24 25  1  0
 25 26  1  0
 26 27  1  0
 27 28  1  0
  4 29  1  0
 29 30  1  0
 29 31  1  0
 31 32  1  0
 31  2  2  0
 15  9  1  0
 21 16  1  0
 28 22  1  0
 14 11  1  0
 28 13  1  0
  1 33  1  0
  1 34  1  0
  1 35  1  0
  3 36  1  0
  6 37  1  0
  6 38  1  0
  7 39  1  0
  7 40  1  0
  8 41  1  0
  8 42  1  0
 10 43  1  0
 10 44  1  0
 11 45  1  6
 12 46  1  0
 12 47  1  0
 14 48  1  0
 14 49  1  0
 15 50  1  1
 17 51  1  0
 18 52  1  0
 19 53  1  0
 20 54  1  0
 23 55  1  0
 23 56  1  0
 24 57  1  0
 24 58  1  0
 25 59  1  0
 25 60  1  0
 26 61  1  0
 26 62  1  0
 27 63  1  0
 27 64  1  0
 28 65  1  6
 30 66  1  0
 30 67  1  0
 30 68  1  0
 32 69  1  0
 32 70  1  0
 32 71  1  0
M  CHG  1   3   1
M  END
>  <UniqueID>  (11) 
11

>  <SMILES>  (11) 
Cc1[nH+]c(SCCCN2CC3CC4(C3)[C@@H]3CCCCCN3c3ccccc3[C@@H]24)n(C)c1C

>  <Energy>  (11) 
243.3263475218952

>  <Genealogy>  (11) 
Cc1[nH+]c(SCCCN2CC3CC4(C3)C2c2ccccc2N2CCCCCC24)n(C)c1C (protonated)
Cc1[nH+]c(SCCCN2CC3CC4(C3)[C@@H]3CCCCCN3c3ccccc3[C@@H]24)n(C)c1C (chirality)
Cc1[nH+]c(SCCCN2CC3CC4(C3)[C@@H]3CCCCCN3c3ccccc3[C@@H]24)n(C)c1C (3D coordinates assigned)
Cc1[nH+]c(SCCCN2CC3CC4(C3)[C@@H]3CCCCCN3c3ccccc3[C@@H]24)n(C)c1C (nonaromatic ring conformer: 243.3263475218952 kcal/mol)

>  <smiles>  (11) 
Cc1nc(SCCCN2CC3CC4(C3)C2c2ccccc2N2CCCCCC24)n(C)c1C

>  <score_type>  (11) 
oracle

>  <origin>  (11) 
adg

>  <m_score__min__energy>  (11) 
-10.039999999999999

>  <m_primary>  (11) 
energy

$$$$
11:0
     RDKit          3D

 56 58  0  0  0  0  0  0  0  0999 V2000
   -0.0860   23.2140  -24.4610 C   0  0  0  0  0  0  0  0  0  0  0  0
   -0.6110   24.6550  -24.4240 C   0  0  0  0  0  0  0  0  0  0  0  0
    0.4330   25.6300  -24.0060 N   0  0  0  0  0  0  0  0  0  0  0  0
    1.6400   25.4850  -24.8670 C   0  0  0  0  0  0  0  0  0  0  0  0
    2.8750   25.0590  -24.0630 C   0  0  0  0  0  0  0  0  0  0  0  0
   -0.0940   27.0200  -24.0810 C   0  0  0  0  0  0  0  0  0  0  0  0
   -0.0030   27.5960  -25.5030 C   0  0  0  0  0  0  0  0  0  0  0  0
   -1.1710   27.2440  -26.2260 O   0  0  0  0  0  0  0  0  0  0  0  0
   -0.8670   26.4870  -27.3800 C   0  0  0  0  0  0  0  0  0  0  0  0
   -1.9090   25.3860  -27.5940 C   0  0  0  0  0  0  0  0  0  0  0  0
   -2.2500   25.2830  -28.9760 O   0  0  0  0  0  0  0  0  0  0  0  0
   -2.8320   24.1630  -29.5930 C   0  0  0  0  0  0  0  0  0  0  0  0
   -2.1740   22.9360  -29.4720 C   0  0  0  0  0  0  0  0  0  0  0  0
   -2.6880   21.7880  -30.0790 C   0  0  0  0  0  0  0  0  0  0  0  0
   -3.8670   21.8550  -30.8240 C   0  0  0  0  0  0  0  0  0  0  0  0
   -4.3300   20.7600  -31.4190 O   0  0  0  0  0  0  0  0  0  0  0  0
   -5.4440   20.7430  -32.1500 C   0  0  0  0  0  0  0  0  0  0  0  0
   -5.8490   19.4690  -32.7920 C   0  0  0  0  0  0  0  0  0  0  0  0
   -6.7990   18.6490  -32.1530 C   0  0  0  0  0  0  0  0  0  0  0  0
   -7.2040   17.4460  -32.7390 C   0  0  0  0  0  0  0  0  0  0  0  0
   -6.6740   17.0530  -33.9700 C   0  0  0  0  0  0  0  0  0  0  0  0
   -5.7390   17.8620  -34.6200 C   0  0  0  0  0  0  0  0  0  0  0  0
   -5.3260   19.0650  -34.0360 C   0  0  0  0  0  0  0  0  0  0  0  0
   -6.1840   21.9280  -32.3150 C   0  0  0  0  0  0  0  0  0  0  0  0
   -5.7300   23.1050  -31.7170 C   0  0  0  0  0  0  0  0  0  0  0  0
   -6.3730   24.1750  -31.8830 O   0  0  0  0  0  0  0  0  0  0  0  0
   -4.5520   23.0820  -30.9510 C   0  0  0  0  0  0  0  0  0  0  0  0
   -4.0330   24.2340  -30.3310 C   0  0  0  0  0  0  0  0  0  0  0  0
    0.0480   22.8461  -23.4331 H   0  0  0  0  0  0  0  0  0  0  0  0
   -0.8087   22.5739  -24.9882 H   0  0  0  0  0  0  0  0  0  0  0  0
    0.8791   23.1888  -24.9882 H   0  0  0  0  0  0  0  0  0  0  0  0
   -0.9662   24.9272  -25.4289 H   0  0  0  0  0  0  0  0  0  0  0  0
   -1.4235   24.6964  -23.6836 H   0  0  0  0  0  0  0  0  0  0  0  0
    0.6990   25.4260  -23.0110 H   0  0  0  0  0  0  0  0  0  0  0  0
    1.4379   24.7248  -25.6359 H   0  0  0  0  0  0  0  0  0  0  0  0
    1.8523   26.4646  -25.3201 H   0  0  0  0  0  0  0  0  0  0  0  0
    2.6563   25.1344  -22.9876 H   0  0  0  0  0  0  0  0  0  0  0  0
    3.1343   24.0195  -24.3124 H   0  0  0  0  0  0  0  0  0  0  0  0
    3.7200   25.7176  -24.3124 H   0  0  0  0  0  0  0  0  0  0  0  0
   -1.1479   27.0174  -23.7660 H   0  0  0  0  0  0  0  0  0  0  0  0
    0.5182   27.6509  -23.4198 H   0  0  0  0  0  0  0  0  0  0  0  0
    0.0810   28.6916  -25.4512 H   0  0  0  0  0  0  0  0  0  0  0  0
    0.8826   27.1864  -26.0109 H   0  0  0  0  0  0  0  0  0  0  0  0
   -0.8588   27.1518  -28.2563 H   0  0  0  0  0  0  0  0  0  0  0  0
    0.1197   26.0195  -27.2468 H   0  0  0  0  0  0  0  0  0  0  0  0
   -1.4970   24.4258  -27.2502 H   0  0  0  0  0  0  0  0  0  0  0  0
   -2.8143   25.6366  -27.0217 H   0  0  0  0  0  0  0  0  0  0  0  0
   -1.2412   22.8737  -28.8924 H   0  0  0  0  0  0  0  0  0  0  0  0
   -2.1623   20.8279  -29.9698 H   0  0  0  0  0  0  0  0  0  0  0  0
   -7.2251   18.9569  -31.1868 H   0  0  0  0  0  0  0  0  0  0  0  0
   -7.9413   16.8080  -32.2297 H   0  0  0  0  0  0  0  0  0  0  0  0
   -6.9933   16.1053  -34.4282 H   0  0  0  0  0  0  0  0  0  0  0  0
   -5.3268   17.5532  -35.5920 H   0  0  0  0  0  0  0  0  0  0  0  0
   -4.5890   19.6985  -34.5513 H   0  0  0  0  0  0  0  0  0  0  0  0
   -7.1101   21.9272  -32.9086 H   0  0  0  0  0  0  0  0  0  0  0  0
   -4.5650   25.1925  -30.4219 H   0  0  0  0  0  0  0  0  0  0  0  0
  1  2  1  0
  2  3  1  0
  3  4  1  0
  4  5  1  0
  3  6  1  0
  6  7  1  0
  7  8  1  0
  8  9  1  0
  9 10  1  0
 10 11  1  0
 11 12  1  0
 12 13  2  0
 13 14  1  0
 14 15  2  0
 15 16  1  0
 16 17  1  0
 17 18  1  0
 18 19  2  0
 19 20  1  0
 20 21  2  0
 21 22  1  0
 22 23  2  0
 17 24  2  0
 24 25  1  0
 25 26  2  0
 25 27  1  0
 27 28  2  0
 28 12  1  0
 27 15  1  0
 23 18  1  0
  1 29  1  0
  1 30  1  0
  1 31  1  0
  2 32  1  0
  2 33  1  0
  3 34  1  0
  4 35  1  0
  4 36  1  0
  5 37  1  0
  5 38  1  0
  5 39  1  0
  6 40  1  0
  6 41  1  0
  7 42  1  0
  7 43  1  0
  9 44  1  0
  9 45  1  0
 10 46  1  0
 10 47  1  0
 13 48  1  0
 14 49  1  0
 19 50  1  0
 20 51  1  0
 21 52  1  0
 22 53  1  0
 23 54  1  0
 24 55  1  0
 28 56  1  0
M  CHG  1   3   1
M  END
>  <UniqueID>  (12) 
12

>  <SMILES>  (12) 
CC[NH+](CC)CCOCCOc1ccc2oc(-c3ccccc3)cc(=O)c2c1

>  <Energy>  (12) 
68.90930745226684

>  <Genealogy>  (12) 
CC[NH+](CC)CCOCCOc1ccc2oc(-c3ccccc3)cc(=O)c2c1 (protonated)
CC[NH+](CC)CCOCCOc1ccc2oc(-c3ccccc3)cc(=O)c2c1 (3D coordinates assigned)
CC[NH+](CC)CCOCCOc1ccc2oc(-c3ccccc3)cc(=O)c2c1 (optimized conformer: 68.90930745226684 kcal/mol)

>  <smiles>  (12) 
CCN(CC)CCOCCOc1ccc2oc(-c3ccccc3)cc(=O)c2c1

>  <score_type>  (12) 
oracle

>  <origin>  (12) 
adg

>  <m_score__min__energy>  (12) 
-8.2100000000000009

>  <m_primary>  (12) 
energy

$$$$
12:0
     RDKit          3D

 72 76  0  0  0  0  0  0  0  0999 V2000
    0.4190   27.7450  -26.7270 C   0  0  0  0  0  0  0  0  0  0  0  0
    0.6490   26.3130  -26.2240 C   0  0  0  0  0  0  0  0  0  0  0  0
   -0.5690   25.4750  -26.2130 N   0  0  0  0  0  0  0  0  0  0  0  0
   -1.7880   26.2090  -25.8130 C   0  0  0  0  0  0  0  0  0  0  0  0
   -3.0150   25.3070  -25.9810 C   0  0  0  0  0  0  0  0  0  0  0  0
   -3.2280   24.8980  -27.3980 N   0  0  0  0  0  0  0  0  0  0  0  0
   -3.8740   23.5560  -27.4450 C   0  0  0  0  0  0  0  0  0  0  0  0
   -3.8060   22.9010  -28.8350 C   0  0  0  0  0  0  0  0  0  0  0  0
   -2.8340   21.8880  -29.0860 C   0  0  0  0  0  0  0  0  0  0  0  0
   -1.9410   21.4500  -28.0680 C   0  0  0  0  0  0  0  0  0  0  0  0
   -1.0080   20.4460  -28.2990 C   0  0  0  0  0  0  0  0  0  0  0  0
   -0.9270   19.8510  -29.5450 C   0  0  0  0  0  0  0  0  0  0  0  0
   -1.7680   20.2630  -30.5710 C   0  0  0  0  0  0  0  0  0  0  0  0
   -2.7300   21.2900  -30.3750 C   0  0  0  0  0  0  0  0  0  0  0  0
   -3.5780   21.7160  -31.4370 C   0  0  0  0  0  0  0  0  0  0  0  0
   -3.3940   21.0950  -32.8280 C   0  0  0  0  0  0  0  0  0  0  0  0
   -3.8640   19.7030  -32.8440 N   0  0  0  0  0  0  0  0  0  0  0  0
   -4.9290   19.4840  -33.8320 C   0  0  0  0  0  0  0  0  0  0  0  0
   -6.2160   20.1790  -33.3730 C   0  0  0  0  0  0  0  0  0  0  0  0
   -6.5960   19.7740  -31.9950 N   0  0  0  0  0  0  0  0  0  0  0  0
   -7.2270   18.4340  -31.9570 C   0  0  0  0  0  0  0  0  0  0  0  0
   -8.7650   18.4990  -32.0630 C   0  0  0  0  0  0  0  0  0  0  0  0
   -9.1750   19.6880  -32.7030 O   0  0  0  0  0  0  0  0  0  0  0  0
   -8.8800   20.8050  -31.8830 C   0  0  0  0  0  0  0  0  0  0  0  0
   -7.4450   20.7690  -31.3060 C   0  0  0  0  0  0  0  0  0  0  0  0
   -4.5870   22.6890  -31.1800 C   0  0  0  0  0  0  0  0  0  0  0  0
   -5.5230   23.0710  -32.1800 C   0  0  0  0  0  0  0  0  0  0  0  0
   -6.4960   24.0330  -31.9390 C   0  0  0  0  0  0  0  0  0  0  0  0
   -6.5860   24.6320  -30.6980 C   0  0  0  0  0  0  0  0  0  0  0  0
   -5.7090   24.2670  -29.6840 C   0  0  0  0  0  0  0  0  0  0  0  0
   -4.6940   23.2910  -29.8870 C   0  0  0  0  0  0  0  0  0  0  0  0
   -1.9860   24.9620  -28.2160 C   0  0  0  0  0  0  0  0  0  0  0  0
   -0.7300   24.6060  -27.4040 C   0  0  0  0  0  0  0  0  0  0  0  0
    0.3102   28.4226  -25.8673 H   0  0  0  0  0  0  0  0  0  0  0  0
    1.2778   28.0617  -27.3371 H   0  0  0  0  0  0  0  0  0  0  0  0
   -0.4958   27.7769  -27.3371 H   0  0  0  0  0  0  0  0  0  0  0  0
    1.3930   25.8328  -26.8766 H   0  0  0  0  0  0  0  0  0  0  0  0
    0.9885   26.3935  -25.1808 H   0  0  0  0  0  0  0  0  0  0  0  0
   -1.7011   26.5151  -24.7600 H   0  0  0  0  0  0  0  0  0  0  0  0
   -1.9015   27.0991  -26.4493 H   0  0  0  0  0  0  0  0  0  0  0  0
   -2.8759   24.4034  -25.3693 H   0  0  0  0  0  0  0  0  0  0  0  0
   -3.8984   25.8783  -25.6598 H   0  0  0  0  0  0  0  0  0  0  0  0
   -3.8860   25.5950  -27.8180 H   0  0  0  0  0  0  0  0  0  0  0  0
   -3.3676   22.8984  -26.7231 H   0  0  0  0  0  0  0  0  0  0  0  0
   -4.9373   23.6955  -27.2002 H   0  0  0  0  0  0  0  0  0  0  0  0
   -1.9904   21.9177  -27.0736 H   0  0  0  0  0  0  0  0  0  0  0  0
   -0.3342   20.1247  -27.4911 H   0  0  0  0  0  0  0  0  0  0  0  0
   -0.1949   19.0497  -29.7239 H   0  0  0  0  0  0  0  0  0  0  0  0
   -1.6873   19.7832  -31.5576 H   0  0  0  0  0  0  0  0  0  0  0  0
   -3.9690   21.6783  -33.5623 H   0  0  0  0  0  0  0  0  0  0  0  0
   -2.3237   21.1088  -33.0816 H   0  0  0  0  0  0  0  0  0  0  0  0
   -3.0550   19.0880  -33.0950 H   0  0  0  0  0  0  0  0  0  0  0  0
   -4.6171   19.8975  -34.8025 H   0  0  0  0  0  0  0  0  0  0  0  0
   -5.1154   18.4044  -33.9310 H   0  0  0  0  0  0  0  0  0  0  0  0
   -6.0608   21.2678  -33.3949 H   0  0  0  0  0  0  0  0  0  0  0  0
   -7.0277   19.8836  -34.0541 H   0  0  0  0  0  0  0  0  0  0  0  0
   -6.8408   17.8388  -32.7976 H   0  0  0  0  0  0  0  0  0  0  0  0
   -6.9789   17.9764  -30.9880 H   0  0  0  0  0  0  0  0  0  0  0  0
   -9.1230   17.6357  -32.6431 H   0  0  0  0  0  0  0  0  0  0  0  0
   -9.1887   18.4817  -31.0480 H   0  0  0  0  0  0  0  0  0  0  0  0
   -8.9938   21.7200  -32.4828 H   0  0  0  0  0  0  0  0  0  0  0  0
   -9.5773   20.7822  -31.0326 H   0  0  0  0  0  0  0  0  0  0  0  0
   -6.9908   21.7642  -31.4214 H   0  0  0  0  0  0  0  0  0  0  0  0
   -7.5120   20.4827  -30.2460 H   0  0  0  0  0  0  0  0  0  0  0  0
   -5.4755   22.5927  -33.1694 H   0  0  0  0  0  0  0  0  0  0  0  0
   -7.1960   24.3181  -32.7382 H   0  0  0  0  0  0  0  0  0  0  0  0
   -7.3526   25.3987  -30.5121 H   0  0  0  0  0  0  0  0  0  0  0  0
   -5.8020   24.7455  -28.6979 H   0  0  0  0  0  0  0  0  0  0  0  0
   -2.0776   24.2544  -29.0532 H   0  0  0  0  0  0  0  0  0  0  0  0
   -1.8725   25.9963  -28.5728 H   0  0  0  0  0  0  0  0  0  0  0  0
   -0.8073   23.5602  -27.0718 H   0  0  0  0  0  0  0  0  0  0  0  0
    0.1457   24.7558  -28.0527 H   0  0  0  0  0  0  0  0  0  0  0  0
  1  2  1  0
  2  3  1  0
  3  4  1  0
  4  5  1  0
  5  6  1  0
  6  7  1  0
  7  8  1  0
  8  9  1  0
  9 10  2  0
 10 11  1  0
 11 12  2  0
 12 13  1  0
 13 14  2  0
 14 15  1  0
 15 16  1  0
 16 17  1  0
 17 18  1  0
 18 19  1  0
 19 20  1  0
 20 21  1  0
 21 22  1  0
 22 23  1  0
 23 24  1  0
 24 25  1  0
 15 26  2  0
 26 27  1  0
 27 28  2  0
 28 29  1  0
 29 30  2  0
 30 31  1  0
  6 32  1  0
 32 33  1  0
 33  3  1  0
 31  8  2  0
 14  9  1  0
 25 20  1  0
 31 26  1  0
  1 34  1  0
  1 35  1  0
  1 36  1  0
  2 37  1  0
  2 38  1  0
  4 39  1  0
  4 40  1  0
  5 41  1  0
  5 42  1  0
  6 43  1  0
  7 44  1  0
  7 45  1  0
 10 46  1  0
 11 47  1  0
 12 48  1  0
 13 49  1  0
 16 50  1  0
 16 51  1  0
 17 52  1  0
 18 53  1  0
 18 54  1  0
 19 55  1  0
 19 56  1  0
 21 57  1  0
 21 58  1  0
 22 59  1  0
 22 60  1  0
 24 61  1  0
 24 62  1  0
 25 63  1  0
 25 64  1  0
 27 65  1  0
 28 66  1  0
 29 67  1  0
 30 68  1  0
 32 69  1  0
 32 70  1  0
 33 71  1  0
 33 72  1  0
M  CHG  1   6   1
M  END
>  <UniqueID>  (13) 
13

>  <SMILES>  (13) 
CCN1CC[NH+](Cc2c3ccccc3c(CNCCN3CCOCC3)c3ccccc23)CC1

>  <Energy>  (13) 
126.48263260067544

>  <Genealogy>  (13) 
CCN1CC[NH+](Cc2c3ccccc3c(CNCCN3CCOCC3)c3ccccc23)CC1 (protonated)
CCN1CC[NH+](Cc2c3ccccc3c(CNCCN3CCOCC3)c3ccccc23)CC1 (3D coordinates assigned)
CCN1CC[NH+](Cc2c3ccccc3c(CNCCN3CCOCC3)c3ccccc23)CC1 (nonaromatic ring conformer: 126.48263260067544 kcal/mol)

>  <smiles>  (13) 
CCN1CCN(Cc2c3ccccc3c(CNCCN3CCOCC3)c3ccccc23)CC1

>  <score_type>  (13) 
oracle

>  <origin>  (13) 
adg

>  <m_score__min__energy>  (13) 
-10.199999999999999

>  <m_primary>  (13) 
energy

$$$$
13:0
     RDKit          3D

 51 53  0  0  0  0  0  0  0  0999 V2000
   -5.3500   26.4350  -29.5640 H   0  0  0  0  0  0  0  0  0  0  0  0
   -5.0580   26.0500  -30.4920 N   0  0  0  0  0  0  0  0  0  0  0  0
   -4.9450   24.7770  -30.6890 C   0  0  0  0  0  0  0  0  0  0  0  0
   -3.7630   24.1490  -30.4580 N   0  0  0  0  0  0  0  0  0  0  0  0
   -3.6400   22.8140  -30.6800 C   0  0  0  0  0  0  0  0  0  0  0  0
   -2.3870   22.1400  -30.4370 N   0  0  0  0  0  0  0  0  0  0  0  0
   -1.9800   21.8860  -29.0780 C   0  0  0  0  0  0  0  0  0  0  0  0
   -2.1870   20.6150  -28.5210 C   0  0  0  0  0  0  0  0  0  0  0  0
   -2.6526   19.8263  -29.1303 H   0  0  0  0  0  0  0  0  0  0  0  0
   -1.8110   20.3350  -27.2040 C   0  0  0  0  0  0  0  0  0  0  0  0
   -2.0480   19.0460  -26.7020 O   0  0  0  0  0  0  0  0  0  0  0  0
   -3.2190   18.6650  -25.9860 C   0  0  0  0  0  0  0  0  0  0  0  0
   -3.0247   18.7282  -24.9051 H   0  0  0  0  0  0  0  0  0  0  0  0
   -4.0462   19.3404  -26.2500 H   0  0  0  0  0  0  0  0  0  0  0  0
   -3.4904   17.6322  -26.2500 H   0  0  0  0  0  0  0  0  0  0  0  0
   -1.2160   21.3490  -26.4320 C   0  0  0  0  0  0  0  0  0  0  0  0
   -0.9153   21.1416  -25.3944 H   0  0  0  0  0  0  0  0  0  0  0  0
   -1.0050   22.6180  -26.9760 C   0  0  0  0  0  0  0  0  0  0  0  0
   -0.5393   23.4039  -26.3633 H   0  0  0  0  0  0  0  0  0  0  0  0
   -1.3840   22.8990  -28.3030 C   0  0  0  0  0  0  0  0  0  0  0  0
   -1.1770   24.1610  -28.8800 O   0  0  0  0  0  0  0  0  0  0  0  0
   -0.9250   25.3550  -28.1470 C   0  0  0  0  0  0  0  0  0  0  0  0
   -0.9704   25.1400  -27.0692 H   0  0  0  0  0  0  0  0  0  0  0  0
    0.0738   25.7383  -28.4027 H   0  0  0  0  0  0  0  0  0  0  0  0
   -1.6837   26.1093  -28.4027 H   0  0  0  0  0  0  0  0  0  0  0  0
   -1.4260   21.9170  -31.5290 C   0  0  0  0  0  0  0  0  0  0  0  0
   -1.0190   22.8868  -31.8511 H   0  0  0  0  0  0  0  0  0  0  0  0
   -0.6249   21.2616  -31.1565 H   0  0  0  0  0  0  0  0  0  0  0  0
   -2.0890   21.2340  -32.7250 C   0  0  0  0  0  0  0  0  0  0  0  0
   -2.8132   20.4879  -32.3661 H   0  0  0  0  0  0  0  0  0  0  0  0
   -2.6099   21.9869  -33.3348 H   0  0  0  0  0  0  0  0  0  0  0  0
   -1.3210   20.7357  -33.3348 H   0  0  0  0  0  0  0  0  0  0  0  0
   -4.7130   22.1130  -31.1330 N   0  0  0  0  0  0  0  0  0  0  0  0
   -5.9030   22.7300  -31.3600 C   0  0  0  0  0  0  0  0  0  0  0  0
   -7.0320   21.9660  -31.8360 N   0  0  0  0  0  0  0  0  0  0  0  0
   -6.8640   20.8880  -32.8250 C   0  0  0  0  0  0  0  0  0  0  0  0
   -7.2367   21.2316  -33.8012 H   0  0  0  0  0  0  0  0  0  0  0  0
   -5.7962   20.6330  -32.8939 H   0  0  0  0  0  0  0  0  0  0  0  0
   -7.6460   19.6360  -32.3980 C   0  0  0  0  0  0  0  0  0  0  0  0
   -7.7782   18.9919  -33.2799 H   0  0  0  0  0  0  0  0  0  0  0  0
   -7.0613   19.1478  -31.6044 H   0  0  0  0  0  0  0  0  0  0  0  0
   -9.0400   19.9440  -31.8060 C   0  0  0  0  0  0  0  0  0  0  0  0
   -9.7828   19.3081  -32.3099 H   0  0  0  0  0  0  0  0  0  0  0  0
   -8.9900   19.7416  -30.7259 H   0  0  0  0  0  0  0  0  0  0  0  0
   -9.4550   21.4090  -31.9780 C   0  0  0  0  0  0  0  0  0  0  0  0
   -9.5781   21.6276  -33.0490 H   0  0  0  0  0  0  0  0  0  0  0  0
  -10.4037   21.5761  -31.4469 H   0  0  0  0  0  0  0  0  0  0  0  0
   -8.3860   22.3390  -31.3920 C   0  0  0  0  0  0  0  0  0  0  0  0
   -8.5951   23.3695  -31.7149 H   0  0  0  0  0  0  0  0  0  0  0  0
   -8.4218   22.2525  -30.2960 H   0  0  0  0  0  0  0  0  0  0  0  0
   -6.0100   24.0670  -31.1380 N   0  0  0  0  0  0  0  0  0  0  0  0
  1  2  1  0
  2  3  2  0
  3  4  1  0
  4  5  2  0
  5  6  1  0
  6  7  1  0
  7  8  2  0
  8  9  1  0
  8 10  1  0
 10 11  1  0
 11 12  1  0
 12 13  1  0
 12 14  1  0
 12 15  1  0
 10 16  2  0
 16 17  1  0
 16 18  1  0
 18 19  1  0
 18 20  2  0
 20 21  1  0
 21 22  1  0
 22 23  1  0
 22 24  1  0
 22 25  1  0
  6 26  1  0
 26 27  1  0
 26 28  1  0
 26 29  1  0
 29 30  1  0
 29 31  1  0
 29 32  1  0
  5 33  1  0
 33 34  1  0
 34 35  1  0
 35 36  1  0
 36 37  1  0
 36 38  1  0
 36 39  1  0
 39 40  1  0
 39 41  1  0
 39 42  1  0
 42 43  1  0
 42 44  1  0
 42 45  1  0
 45 46  1  0
 45 47  1  0
 45 48  1  0
 48 49  1  0
 48 50  1  0
 34 51  2  0
 51  3  1  0
 20  7  1  0
 48 35  1  0
M  CHG  1  33  -1
M  END
>  <UniqueID>  (14) 
14

>  <SMILES>  (14) 
[H]/N=c1/nc(N2CCCCC2)[n-]c(N(CC)c2cc(OC)ccc2OC)n1

>  <Energy>  (14) 
55.62450030019365

>  <Genealogy>  (14) 
CCN(c1nc(=N)nc(N2CCCCC2)[n-]1)c1cc(OC)ccc1OC (protonated)
[H]/N=c1/nc(N2CCCCC2)[n-]c(N(CC)c2cc(OC)ccc2OC)n1 (cis-trans isomerization)
[H]/N=c1/nc(N2CCCCC2)[n-]c(N(CC)c2cc(OC)ccc2OC)n1 (3D coordinates assigned)
[H]/N=c1/nc(N2CCCCC2)[n-]c(N(CC)c2cc(OC)ccc2OC)n1 (nonaromatic ring conformer: 55.62450030019365 kcal/mol)

>  <smiles>  (14) 
CCN(c1nc(=N)nc(N2CCCCC2)[nH]1)c1cc(OC)ccc1OC

>  <score_type>  (14) 
oracle

>  <origin>  (14) 
adg

>  <m_score__min__energy>  (14) 
-8.3800000000000008

>  <m_primary>  (14) 
energy

$$$$
14:0
     RDKit          3D

 36 38  0  0  0  0  0  0  0  0999 V2000
   -3.6430   24.1750  -28.0890 C   0  0  0  0  0  0  0  0  0  0  0  0
   -2.8370   24.2170  -29.3840 C   0  0  0  0  0  0  0  0  0  0  0  0
   -3.6910   24.4490  -30.5040 O   0  0  0  0  0  0  0  0  0  0  0  0
   -4.6780   23.5700  -30.9770 C   0  0  0  0  0  0  0  0  0  0  0  0
   -4.3270   22.6670  -31.9860 C   0  0  0  0  0  0  0  0  0  0  0  0
   -5.2620   21.7640  -32.4990 C   0  0  0  0  0  0  0  0  0  0  0  0
   -6.5770   21.7450  -31.9980 C   0  0  0  0  0  0  0  0  0  0  0  0
   -7.5620   20.8600  -32.4840 C   0  0  0  0  0  0  0  0  0  0  0  0
   -7.2490   19.8640  -33.4730 N   0  0  0  0  0  0  0  0  0  0  0  0
   -6.5200   18.6560  -33.1860 C   0  0  0  0  0  0  0  0  0  0  0  0
   -6.5430   18.0800  -31.9020 C   0  0  0  0  0  0  0  0  0  0  0  0
   -5.8460   16.8960  -31.6460 C   0  0  0  0  0  0  0  0  0  0  0  0
   -5.1280   16.2700  -32.6680 C   0  0  0  0  0  0  0  0  0  0  0  0
   -5.1120   16.8240  -33.9490 C   0  0  0  0  0  0  0  0  0  0  0  0
   -5.8080   18.0090  -34.2130 C   0  0  0  0  0  0  0  0  0  0  0  0
   -5.7770   18.5320  -35.4640 F   0  0  0  0  0  0  0  0  0  0  0  0
   -8.8510   20.9220  -31.9380 C   0  0  0  0  0  0  0  0  0  0  0  0
   -9.1290   21.8590  -30.9400 C   0  0  0  0  0  0  0  0  0  0  0  0
  -10.2840   21.9240  -30.4440 O   0  0  0  0  0  0  0  0  0  0  0  0
   -8.1800   22.6810  -30.5060 O   0  0  0  0  0  0  0  0  0  0  0  0
   -6.9390   22.6620  -30.9840 C   0  0  0  0  0  0  0  0  0  0  0  0
   -5.9950   23.5610  -30.4760 C   0  0  0  0  0  0  0  0  0  0  0  0
   -2.9577   24.2107  -27.2293 H   0  0  0  0  0  0  0  0  0  0  0  0
   -4.3229   25.0389  -28.0521 H   0  0  0  0  0  0  0  0  0  0  0  0
   -4.2294   23.2451  -28.0521 H   0  0  0  0  0  0  0  0  0  0  0  0
   -2.0957   25.0273  -29.3215 H   0  0  0  0  0  0  0  0  0  0  0  0
   -2.3339   23.2481  -29.5183 H   0  0  0  0  0  0  0  0  0  0  0  0
   -3.3005   22.6677  -32.3812 H   0  0  0  0  0  0  0  0  0  0  0  0
   -4.9692   21.0658  -33.2970 H   0  0  0  0  0  0  0  0  0  0  0  0
   -7.5220   20.0560  -34.4630 H   0  0  0  0  0  0  0  0  0  0  0  0
   -7.1128   18.5645  -31.0954 H   0  0  0  0  0  0  0  0  0  0  0  0
   -5.8628   16.4561  -30.6379 H   0  0  0  0  0  0  0  0  0  0  0  0
   -4.5756   15.3411  -32.4632 H   0  0  0  0  0  0  0  0  0  0  0  0
   -4.5503   16.3274  -34.7539 H   0  0  0  0  0  0  0  0  0  0  0  0
   -9.6370   20.2388  -32.2922 H   0  0  0  0  0  0  0  0  0  0  0  0
   -6.2825   24.2648  -29.6810 H   0  0  0  0  0  0  0  0  0  0  0  0
  1  2  1  0
  2  3  1  0
  3  4  1  0
  4  5  2  0
  5  6  1  0
  6  7  2  0
  7  8  1  0
  8  9  1  0
  9 10  1  0
 10 11  2  0
 11 12  1  0
 12 13  2  0
 13 14  1  0
 14 15  2  0
 15 16  1  0
  8 17  2  0
 17 18  1  0
 18 19  2  0
 18 20  1  0
 20 21  1  0
 21 22  2  0
 22  4  1  0
 21  7  1  0
 15 10  1  0
  1 23  1  0
  1 24  1  0
  1 25  1  0
  2 26  1  0
  2 27  1  0
  5 28  1  0
  6 29  1  0
  9 30  1  0
 11 31  1  0
 12 32  1  0
 13 33  1  0
 14 34  1  0
 17 35  1  0
 22 36  1  0
M  END
>  <UniqueID>  (15) 
15

>  <SMILES>  (15) 
CCOc1ccc2c(Nc3ccccc3F)cc(=O)oc2c1

>  <Energy>  (15) 
48.20807906627151

>  <Genealogy>  (15) 
CCOc1ccc2c(Nc3ccccc3F)cc(=O)oc2c1 (3D coordinates assigned)
CCOc1ccc2c(Nc3ccccc3F)cc(=O)oc2c1 (optimized conformer: 48.20807906627151 kcal/mol)

>  <smiles>  (15) 
CCOc1ccc2c(Nc3ccccc3F)cc(=O)oc2c1

>  <score_type>  (15) 
oracle

>  <origin>  (15) 
adg

>  <m_score__min__energy>  (15) 
-7.8099999999999996

>  <m_primary>  (15) 
energy

$$$$
15:0
     RDKit          3D

 19 20  0  0  0  0  0  0  0  0999 V2000
   -6.8360   24.8430  -30.2040 C   0  0  0  0  0  0  0  0  0  0  0  0
   -6.5420   23.7310  -31.0990 N   0  0  0  0  0  0  0  0  0  0  0  0
   -7.4170   22.6410  -31.3900 C   0  0  0  0  0  0  0  0  0  0  0  0
   -8.6560   22.6610  -31.1710 O   0  0  0  0  0  0  0  0  0  0  0  0
   -6.6600   21.5120  -31.9360 C   0  0  0  0  0  0  0  0  0  0  0  0
   -7.0810   20.2550  -32.3770 C   0  0  0  0  0  0  0  0  0  0  0  0
   -8.9440   19.7850  -32.3410 Br  0  0  0  0  0  0  0  0  0  0  0  0
   -6.1000   19.3520  -32.8480 C   0  0  0  0  0  0  0  0  0  0  0  0
   -6.6300   17.6090  -33.4700 Br  0  0  0  0  0  0  0  0  0  0  0  0
   -4.7280   19.7260  -32.8630 C   0  0  0  0  0  0  0  0  0  0  0  0
   -3.3980   18.4920  -33.5040 Br  0  0  0  0  0  0  0  0  0  0  0  0
   -4.3350   21.0050  -32.4050 C   0  0  0  0  0  0  0  0  0  0  0  0
   -2.4910   21.5480  -32.4080 Br  0  0  0  0  0  0  0  0  0  0  0  0
   -5.3290   21.8760  -31.9490 C   0  0  0  0  0  0  0  0  0  0  0  0
   -5.2410   23.2360  -31.4120 C   0  0  0  0  0  0  0  0  0  0  0  0
   -4.1790   23.8840  -31.2160 O   0  0  0  0  0  0  0  0  0  0  0  0
   -6.7472   24.5070  -29.1603 H   0  0  0  0  0  0  0  0  0  0  0  0
   -6.1231   25.6602  -30.3881 H   0  0  0  0  0  0  0  0  0  0  0  0
   -7.8597   25.2011  -30.3881 H   0  0  0  0  0  0  0  0  0  0  0  0
  1  2  1  0
  2  3  1  0
  3  4  2  0
  3  5  1  0
  5  6  2  0
  6  7  1  0
  6  8  1  0
  8  9  1  0
  8 10  2  0
 10 11  1  0
 10 12  1  0
 12 13  1  0
 12 14  2  0
 14 15  1  0
 15 16  2  0
 15  2  1  0
 14  5  1  0
  1 17  1  0
  1 18  1  0
  1 19  1  0
M  END
>  <UniqueID>  (16) 
16

>  <SMILES>  (16) 
CN1C(=O)c2c(Br)c(Br)c(Br)c(Br)c2C1=O

>  <Energy>  (16) 
56.29296970655374

>  <Genealogy>  (16) 
CN1C(=O)c2c(Br)c(Br)c(Br)c(Br)c2C1=O (3D coordinates assigned)
CN1C(=O)c2c(Br)c(Br)c(Br)c(Br)c2C1=O (nonaromatic ring conformer: 56.29296970655374 kcal/mol)

>  <smiles>  (16) 
CN1C(=O)c2c(Br)c(Br)c(Br)c(Br)c2C1=O

>  <score_type>  (16) 
oracle

>  <origin>  (16) 
adg

>  <m_score__min__energy>  (16) 
-8.3300000000000001

>  <m_primary>  (16) 
energy

$$$$
16:0
     RDKit          3D

 56 59  0  0  0  0  0  0  0  0999 V2000
   -6.2100   25.7500  -29.4260 C   0  0  0  0  0  0  0  0  0  0  0  0
   -5.0880   25.7040  -30.4640 C   0  0  0  0  0  0  0  0  0  0  0  0
   -4.6250   24.3080  -30.6340 N   0  0  0  0  0  0  0  0  0  0  0  0
   -3.2930   24.0920  -30.0130 C   0  0  0  0  0  0  0  0  0  0  0  0
   -2.9690   22.6050  -29.9790 C   0  0  0  0  0  0  0  0  0  0  0  0
   -5.6140   23.3210  -30.1320 C   0  0  0  0  0  0  0  0  0  0  0  0
   -6.7830   23.1230  -31.1120 C   0  0  0  0  0  0  0  0  0  0  0  0
   -6.3400   22.5000  -32.3660 N   0  0  0  0  0  0  0  0  0  0  0  0
   -6.0560   21.0870  -32.4950 C   0  0  0  0  0  0  0  0  0  0  0  0
   -7.0800   20.1210  -32.3300 C   0  0  0  0  0  0  0  0  0  0  0  0
   -8.4320   20.5050  -32.1770 C   0  0  0  0  0  0  0  0  0  0  0  0
   -9.4280   19.5550  -31.9820 C   0  0  0  0  0  0  0  0  0  0  0  0
   -9.1090   18.2040  -31.9820 C   0  0  0  0  0  0  0  0  0  0  0  0
   -7.7960   17.7900  -32.1970 C   0  0  0  0  0  0  0  0  0  0  0  0
   -6.7450   18.7360  -32.3640 C   0  0  0  0  0  0  0  0  0  0  0  0
   -5.4380   18.3370  -32.5880 N   0  0  0  0  0  0  0  0  0  0  0  0
   -5.0610   16.9150  -32.4110 C   0  0  0  0  0  0  0  0  0  0  0  0
   -4.4920   19.2630  -32.9860 C   0  0  0  0  0  0  0  0  0  0  0  0
   -3.2340   18.8640  -33.5170 C   0  0  0  0  0  0  0  0  0  0  0  0
   -2.2420   19.8000  -33.8370 C   0  0  0  0  0  0  0  0  0  0  0  0
   -0.9450   19.3740  -34.4150 C   0  0  0  0  0  0  0  0  0  0  0  0
   -0.4750   18.0650  -34.5540 C   0  0  0  0  0  0  0  0  0  0  0  0
    0.7670   17.9840  -35.1900 C   0  0  0  0  0  0  0  0  0  0  0  0
    1.2800   19.2100  -35.5770 C   0  0  0  0  0  0  0  0  0  0  0  0
    0.1930   20.4020  -35.1090 S   0  0  0  0  0  0  0  0  0  0  0  0
   -2.4950   21.1570  -33.6230 C   0  0  0  0  0  0  0  0  0  0  0  0
   -3.7390   21.5800  -33.1570 C   0  0  0  0  0  0  0  0  0  0  0  0
   -4.7650   20.6530  -32.8820 C   0  0  0  0  0  0  0  0  0  0  0  0
   -5.7757   25.7322  -28.4155 H   0  0  0  0  0  0  0  0  0  0  0  0
   -6.7939   26.6728  -29.5579 H   0  0  0  0  0  0  0  0  0  0  0  0
   -6.8675   24.8781  -29.5579 H   0  0  0  0  0  0  0  0  0  0  0  0
   -5.4630   26.0849  -31.4254 H   0  0  0  0  0  0  0  0  0  0  0  0
   -4.2489   26.3280  -30.1225 H   0  0  0  0  0  0  0  0  0  0  0  0
   -2.5271   24.6183  -30.6016 H   0  0  0  0  0  0  0  0  0  0  0  0
   -3.3067   24.4820  -28.9846 H   0  0  0  0  0  0  0  0  0  0  0  0
   -2.8959   22.2695  -28.9340 H   0  0  0  0  0  0  0  0  0  0  0  0
   -3.7660   22.0443  -30.4892 H   0  0  0  0  0  0  0  0  0  0  0  0
   -2.0109   22.4267  -30.4892 H   0  0  0  0  0  0  0  0  0  0  0  0
   -5.1079   22.3556  -29.9841 H   0  0  0  0  0  0  0  0  0  0  0  0
   -6.0257   23.7049  -29.1870 H   0  0  0  0  0  0  0  0  0  0  0  0
   -7.5383   22.4772  -30.6403 H   0  0  0  0  0  0  0  0  0  0  0  0
   -7.2030   24.1115  -31.3495 H   0  0  0  0  0  0  0  0  0  0  0  0
   -6.1200   23.1360  -33.1690 H   0  0  0  0  0  0  0  0  0  0  0  0
   -8.6998   21.5713  -32.2128 H   0  0  0  0  0  0  0  0  0  0  0  0
  -10.4694   19.8740  -31.8276 H   0  0  0  0  0  0  0  0  0  0  0  0
   -9.8972   17.4560  -31.8113 H   0  0  0  0  0  0  0  0  0  0  0  0
   -7.5677   16.7148  -32.2384 H   0  0  0  0  0  0  0  0  0  0  0  0
   -4.9995   16.6829  -31.3375 H   0  0  0  0  0  0  0  0  0  0  0  0
   -5.8200   16.2731  -32.8820 H   0  0  0  0  0  0  0  0  0  0  0  0
   -4.0837   16.7334  -32.8820 H   0  0  0  0  0  0  0  0  0  0  0  0
   -3.0353   17.7945  -33.6803 H   0  0  0  0  0  0  0  0  0  0  0  0
   -1.0289   17.1840  -34.1974 H   0  0  0  0  0  0  0  0  0  0  0  0
    1.2894   17.0323  -35.3669 H   0  0  0  0  0  0  0  0  0  0  0  0
    2.2336   19.3750  -36.1000 H   0  0  0  0  0  0  0  0  0  0  0  0
   -1.7067   21.8975  -33.8237 H   0  0  0  0  0  0  0  0  0  0  0  0
   -3.9228   22.6533  -33.0015 H   0  0  0  0  0  0  0  0  0  0  0  0
  1  2  1  0
  2  3  1  0
  3  4  1  0
  4  5  1  0
  3  6  1  0
  6  7  1  0
  7  8  1  0
  8  9  1  0
  9 10  2  0
 10 11  1  0
 11 12  2  0
 12 13  1  0
 13 14  2  0
 14 15  1  0
 15 16  2  0
 16 17  1  0
 16 18  1  0
 18 19  2  0
 19 20  1  0
 20 21  1  0
 21 22  2  0
 22 23  1  0
 23 24  2  0
 24 25  1  0
 20 26  2  0
 26 27  1  0
 27 28  2  0
 28  9  1  0
 15 10  1  0
 28 18  1  0
 25 21  1  0
  1 29  1  0
  1 30  1  0
  1 31  1  0
  2 32  1  0
  2 33  1  0
  4 34  1  0
  4 35  1  0
  5 36  1  0
  5 37  1  0
  5 38  1  0
  6 39  1  0
  6 40  1  0
  7 41  1  0
  7 42  1  0
  8 43  1  0
 11 44  1  0
 12 45  1  0
 13 46  1  0
 14 47  1  0
 17 48  1  0
 17 49  1  0
 17 50  1  0
 19 51  1  0
 22 52  1  0
 23 53  1  0
 24 54  1  0
 26 55  1  0
 27 56  1  0
M  CHG  1  16   1
M  END
>  <UniqueID>  (17) 
17

>  <SMILES>  (17) 
CCN(CC)CCNc1c2ccccc2[n+](C)c2cc(-c3cccs3)ccc12

>  <Energy>  (17) 
114.02628069717288

>  <Genealogy>  (17) 
CCN(CC)CCNc1c2ccccc2[n+](C)c2cc(-c3cccs3)ccc12 (3D coordinates assigned)
CCN(CC)CCNc1c2ccccc2[n+](C)c2cc(-c3cccs3)ccc12 (optimized conformer: 114.02628069717288 kcal/mol)

>  <smiles>  (17) 
CCN(CC)CCNc1c2ccccc2[n+](C)c2cc(-c3cccs3)ccc12

>  <score_type>  (17) 
oracle

>  <origin>  (17) 
adg

>  <m_score__min__energy>  (17) 
-9.2699999999999996

>  <m_primary>  (17) 
energy

$$$$
17:0
     RDKit          3D

 68 70  0  0  0  0  0  0  0  0999 V2000
   -0.5280   26.4880  -37.2920 C   0  0  0  0  0  0  0  0  0  0  0  0
    0.7910   26.0480  -37.9260 C   0  0  0  0  0  0  0  0  0  0  0  0
    1.3960   24.8970  -37.2160 N   0  0  0  0  0  0  0  0  0  0  0  0
    2.8460   24.9930  -36.9220 C   0  0  0  0  0  0  0  0  0  0  0  0
    3.1720   25.4110  -35.4860 C   0  0  0  0  0  0  0  0  0  0  0  0
    0.5780   24.3300  -36.1150 C   0  0  0  0  0  0  0  0  0  0  0  0
    0.5050   22.7910  -36.0830 C   0  0  0  0  0  0  0  0  0  0  0  0
    1.0570   22.3130  -34.8730 O   0  0  0  0  0  0  0  0  0  0  0  0
    2.4020   21.9110  -35.0540 C   0  0  0  0  0  0  0  0  0  0  0  0
    2.4690   20.6790  -35.9500 C   0  0  0  0  0  0  0  0  0  0  0  0
    1.5190   19.7100  -35.5180 O   0  0  0  0  0  0  0  0  0  0  0  0
    1.2460   19.4710  -34.1690 C   0  0  0  0  0  0  0  0  0  0  0  0
    2.1720   19.5080  -33.3120 O   0  0  0  0  0  0  0  0  0  0  0  0
   -0.1750   19.2630  -33.7370 C   0  0  0  0  0  0  0  0  0  0  0  0
   -1.1660   20.1260  -34.5250 C   0  0  0  0  0  0  0  0  0  0  0  0
   -1.4950   21.3530  -33.7850 N   0  0  0  0  0  0  0  0  0  0  0  0
   -0.6450   21.4570  -32.5910 C   0  0  0  0  0  0  0  0  0  0  0  0
   -1.2970   20.7610  -31.3870 C   0  0  0  0  0  0  0  0  0  0  0  0
   -2.4500   21.5050  -30.8780 N   0  0  0  0  0  0  0  0  0  0  0  0
   -2.6150   22.6300  -30.2180 C   0  0  0  0  0  0  0  0  0  0  0  0
   -1.6550   23.2210  -29.3270 C   0  0  0  0  0  0  0  0  0  0  0  0
   -0.5870   22.5240  -28.7150 C   0  0  0  0  0  0  0  0  0  0  0  0
    0.3390   23.1850  -27.9030 C   0  0  0  0  0  0  0  0  0  0  0  0
    0.2020   24.5450  -27.6430 C   0  0  0  0  0  0  0  0  0  0  0  0
   -0.8900   25.2400  -28.1550 C   0  0  0  0  0  0  0  0  0  0  0  0
   -1.8290   24.5860  -28.9620 C   0  0  0  0  0  0  0  0  0  0  0  0
   -2.9280   25.2720  -29.3530 N   0  0  0  0  0  0  0  0  0  0  0  0
   -3.9150   24.7020  -30.0810 C   0  0  0  0  0  0  0  0  0  0  0  0
   -5.0450   25.4580  -30.4150 C   0  0  0  0  0  0  0  0  0  0  0  0
   -6.0750   24.8900  -31.1660 C   0  0  0  0  0  0  0  0  0  0  0  0
   -5.9810   23.5630  -31.5850 C   0  0  0  0  0  0  0  0  0  0  0  0
   -4.8540   22.8020  -31.2630 C   0  0  0  0  0  0  0  0  0  0  0  0
   -3.7970   23.3610  -30.5100 C   0  0  0  0  0  0  0  0  0  0  0  0
   -0.4363   26.4574  -36.1963 H   0  0  0  0  0  0  0  0  0  0  0  0
   -0.7643   27.5136  -37.6117 H   0  0  0  0  0  0  0  0  0  0  0  0
   -1.3328   25.8097  -37.6117 H   0  0  0  0  0  0  0  0  0  0  0  0
    0.6034   25.7608  -38.9711 H   0  0  0  0  0  0  0  0  0  0  0  0
    1.4942   26.8915  -37.8630 H   0  0  0  0  0  0  0  0  0  0  0  0
    3.3005   24.0083  -37.1056 H   0  0  0  0  0  0  0  0  0  0  0  0
    3.2486   25.7791  -37.5777 H   0  0  0  0  0  0  0  0  0  0  0  0
    2.6518   24.7439  -34.7829 H   0  0  0  0  0  0  0  0  0  0  0  0
    4.2575   25.3424  -35.3216 H   0  0  0  0  0  0  0  0  0  0  0  0
    2.8410   26.4471  -35.3216 H   0  0  0  0  0  0  0  0  0  0  0  0
    1.0066   24.6711  -35.1611 H   0  0  0  0  0  0  0  0  0  0  0  0
   -0.4502   24.6828  -36.2832 H   0  0  0  0  0  0  0  0  0  0  0  0
   -0.5455   22.4732  -36.1564 H   0  0  0  0  0  0  0  0  0  0  0  0
    1.0748   22.3816  -36.9302 H   0  0  0  0  0  0  0  0  0  0  0  0
    2.9663   22.7312  -35.5218 H   0  0  0  0  0  0  0  0  0  0  0  0
    2.8375   21.6655  -34.0742 H   0  0  0  0  0  0  0  0  0  0  0  0
    2.2462   20.9703  -36.9871 H   0  0  0  0  0  0  0  0  0  0  0  0
    3.4783   20.2455  -35.8927 H   0  0  0  0  0  0  0  0  0  0  0  0
   -0.4360   18.2046  -33.8840 H   0  0  0  0  0  0  0  0  0  0  0  0
   -0.2467   19.5571  -32.6795 H   0  0  0  0  0  0  0  0  0  0  0  0
   -0.7177   20.3976  -35.4921 H   0  0  0  0  0  0  0  0  0  0  0  0
   -2.0900   19.5494  -34.6790 H   0  0  0  0  0  0  0  0  0  0  0  0
   -1.2740   22.1630  -34.4130 H   0  0  0  0  0  0  0  0  0  0  0  0
    0.3255   20.9825  -32.7983 H   0  0  0  0  0  0  0  0  0  0  0  0
   -0.5105   22.5216  -32.3490 H   0  0  0  0  0  0  0  0  0  0  0  0
   -1.6295   19.7585  -31.6943 H   0  0  0  0  0  0  0  0  0  0  0  0
   -0.5487   20.7047  -30.5827 H   0  0  0  0  0  0  0  0  0  0  0  0
   -0.4833   21.4416  -28.8812 H   0  0  0  0  0  0  0  0  0  0  0  0
    1.1807   22.6269  -27.4671 H   0  0  0  0  0  0  0  0  0  0  0  0
    0.9540   25.0692  -27.0350 H   0  0  0  0  0  0  0  0  0  0  0  0
   -1.0159   26.3082  -27.9245 H   0  0  0  0  0  0  0  0  0  0  0  0
   -5.1213   26.5043  -30.0840 H   0  0  0  0  0  0  0  0  0  0  0  0
   -6.9603   25.4884  -31.4273 H   0  0  0  0  0  0  0  0  0  0  0  0
   -6.7966   23.1140  -32.1708 H   0  0  0  0  0  0  0  0  0  0  0  0
   -4.7890   21.7567  -31.5993 H   0  0  0  0  0  0  0  0  0  0  0  0
  1  2  1  0
  2  3  1  0
  3  4  1  0
  4  5  1  0
  3  6  1  0
  6  7  1  0
  7  8  1  0
  8  9  1  0
  9 10  1  0
 10 11  1  0
 11 12  1  0
 12 13  2  0
 12 14  1  0
 14 15  1  0
 15 16  1  0
 16 17  1  0
 17 18  1  0
 18 19  1  0
 19 20  2  3
 20 21  1  0
 21 22  2  0
 22 23  1  0
 23 24  2  0
 24 25  1  0
 25 26  2  0
 26 27  1  0
 27 28  1  0
 28 29  2  0
 29 30  1  0
 30 31  2  0
 31 32  1  0
 32 33  2  0
 33 20  1  0
 26 21  1  0
 33 28  1  0
  1 34  1  0
  1 35  1  0
  1 36  1  0
  2 37  1  0
  2 38  1  0
  4 39  1  0
  4 40  1  0
  5 41  1  0
  5 42  1  0
  5 43  1  0
  6 44  1  0
  6 45  1  0
  7 46  1  0
  7 47  1  0
  9 48  1  0
  9 49  1  0
 10 50  1  0
 10 51  1  0
 14 52  1  0
 14 53  1  0
 15 54  1  0
 15 55  1  0
 16 56  1  0
 17 57  1  0
 17 58  1  0
 18 59  1  0
 18 60  1  0
 22 61  1  0
 23 62  1  0
 24 63  1  0
 25 64  1  0
 29 65  1  0
 30 66  1  0
 31 67  1  0
 32 68  1  0
M  CHG  1  27  -1
M  END
>  <UniqueID>  (18) 
18

>  <SMILES>  (18) 
CCN(CC)CCOCCOC(=O)CCNCCN=c1c2ccccc2[n-]c2ccccc12

>  <Energy>  (18) 
88.11164858060283

>  <Genealogy>  (18) 
CCN(CC)CCOCCOC(=O)CCNCCN=c1c2ccccc2[n-]c2ccccc12 (protonated)
CCN(CC)CCOCCOC(=O)CCNCCN=c1c2ccccc2[n-]c2ccccc12 (3D coordinates assigned)
CCN(CC)CCOCCOC(=O)CCNCCN=c1c2ccccc2[n-]c2ccccc12 (optimized conformer: 88.11164858060283 kcal/mol)

>  <smiles>  (18) 
CCN(CC)CCOCCOC(=O)CCNCCN=c1c2ccccc2[nH]c2ccccc12

>  <score_type>  (18) 
oracle

>  <origin>  (18) 
adg

>  <m_score__min__energy>  (18) 
-10

>  <m_primary>  (18) 
energy

$$$$
18:0
     RDKit          3D

 49 50  0  0  0  0  0  0  0  0999 V2000
   -3.8350   20.7640  -31.0570 C   0  0  0  0  0  0  0  0  0  0  0  0
   -3.2820   22.0160  -30.3810 C   0  0  0  0  0  0  0  0  0  0  0  0
   -3.4830   23.3100  -31.1960 C   0  0  0  0  0  0  0  0  0  0  0  0
   -3.7410   24.5450  -30.4070 N   0  0  0  0  0  0  0  0  0  0  0  0
   -3.1940   24.5570  -29.0320 C   0  0  0  0  0  0  0  0  0  0  0  0
   -4.2330   24.1150  -28.0030 C   0  0  0  0  0  0  0  0  0  0  0  0
   -5.1400   25.0170  -30.4600 C   0  0  0  0  0  0  0  0  0  0  0  0
   -5.9910   23.9210  -30.9250 C   0  0  0  0  0  0  0  0  0  0  0  0
   -6.6740   23.0160  -31.3310 C   0  0  0  0  0  0  0  0  0  0  0  0
   -7.4930   21.9240  -31.7870 C   0  0  0  0  0  0  0  0  0  0  0  0
   -8.8770   21.9590  -31.5860 C   0  0  0  0  0  0  0  0  0  0  0  0
   -9.6540   20.8760  -32.0000 C   0  0  0  0  0  0  0  0  0  0  0  0
   -9.0480   19.7750  -32.6050 C   0  0  0  0  0  0  0  0  0  0  0  0
   -7.6550   19.7710  -32.8060 C   0  0  0  0  0  0  0  0  0  0  0  0
   -7.0040   18.6280  -33.3990 N   0  0  0  0  0  0  0  0  0  0  0  0
   -7.1660   17.2780  -32.8410 C   0  0  0  0  0  0  0  0  0  0  0  0
   -5.8000   16.6990  -32.4480 C   0  0  0  0  0  0  0  0  0  0  0  0
   -4.6740   17.0600  -33.4430 C   0  0  0  0  0  0  0  0  0  0  0  0
   -5.2060   17.5980  -34.7760 C   0  0  0  0  0  0  0  0  0  0  0  0
   -6.0990   18.8230  -34.5430 C   0  0  0  0  0  0  0  0  0  0  0  0
   -6.9170   20.8440  -32.3870 N   0  0  0  0  0  0  0  0  0  0  0  0
   -4.1534   20.0432  -30.2895 H   0  0  0  0  0  0  0  0  0  0  0  0
   -4.6966   21.0362  -31.6843 H   0  0  0  0  0  0  0  0  0  0  0  0
   -3.0535   20.3104  -31.6843 H   0  0  0  0  0  0  0  0  0  0  0  0
   -3.7861   22.1365  -29.4108 H   0  0  0  0  0  0  0  0  0  0  0  0
   -2.1966   21.8695  -30.2792 H   0  0  0  0  0  0  0  0  0  0  0  0
   -2.5743   23.4760  -31.7933 H   0  0  0  0  0  0  0  0  0  0  0  0
   -4.3913   23.1454  -31.7942 H   0  0  0  0  0  0  0  0  0  0  0  0
   -2.3337   23.8732  -28.9853 H   0  0  0  0  0  0  0  0  0  0  0  0
   -2.8938   25.5879  -28.7930 H   0  0  0  0  0  0  0  0  0  0  0  0
   -3.8396   24.2824  -26.9895 H   0  0  0  0  0  0  0  0  0  0  0  0
   -5.1554   24.6986  -28.1393 H   0  0  0  0  0  0  0  0  0  0  0  0
   -4.4522   23.0457  -28.1393 H   0  0  0  0  0  0  0  0  0  0  0  0
   -5.4612   25.3343  -29.4569 H   0  0  0  0  0  0  0  0  0  0  0  0
   -5.2203   25.8704  -31.1494 H   0  0  0  0  0  0  0  0  0  0  0  0
   -9.3476   22.8303  -31.1070 H   0  0  0  0  0  0  0  0  0  0  0  0
  -10.7435   20.8907  -31.8493 H   0  0  0  0  0  0  0  0  0  0  0  0
   -9.6553   18.9148  -32.9232 H   0  0  0  0  0  0  0  0  0  0  0  0
   -7.8093   17.3279  -31.9501 H   0  0  0  0  0  0  0  0  0  0  0  0
   -7.6258   16.6287  -33.6006 H   0  0  0  0  0  0  0  0  0  0  0  0
   -5.5278   17.0890  -31.4561 H   0  0  0  0  0  0  0  0  0  0  0  0
   -5.8977   15.6034  -32.4500 H   0  0  0  0  0  0  0  0  0  0  0  0
   -4.0337   17.8282  -32.9849 H   0  0  0  0  0  0  0  0  0  0  0  0
   -4.1156   16.1371  -33.6587 H   0  0  0  0  0  0  0  0  0  0  0  0
   -4.3578   17.8847  -35.4150 H   0  0  0  0  0  0  0  0  0  0  0  0
   -5.8006   16.8122  -35.2649 H   0  0  0  0  0  0  0  0  0  0  0  0
   -5.4607   19.6973  -34.3475 H   0  0  0  0  0  0  0  0  0  0  0  0
   -6.7126   18.9759  -35.4431 H   0  0  0  0  0  0  0  0  0  0  0  0
   -5.8810   20.8460  -32.5340 H   0  0  0  0  0  0  0  0  0  0  0  0
  1  2  1  0
  2  3  1  0
  3  4  1  0
  4  5  1  0
  5  6  1  0
  4  7  1  0
  7  8  1  0
  8  9  3  0
  9 10  1  0
 10 11  2  0
 11 12  1  0
 12 13  2  0
 13 14  1  0
 14 15  1  0
 15 16  1  0
 16 17  1  0
 17 18  1  0
 18 19  1  0
 19 20  1  0
 14 21  2  0
 21 10  1  0
 20 15  1  0
  1 22  1  0
  1 23  1  0
  1 24  1  0
  2 25  1  0
  2 26  1  0
  3 27  1  0
  3 28  1  0
  5 29  1  0
  5 30  1  0
  6 31  1  0
  6 32  1  0
  6 33  1  0
  7 34  1  0
  7 35  1  0
 11 36  1  0
 12 37  1  0
 13 38  1  0
 16 39  1  0
 16 40  1  0
 17 41  1  0
 17 42  1  0
 18 43  1  0
 18 44  1  0
 19 45  1  0
 19 46  1  0
 20 47  1  0
 20 48  1  0
 21 49  1  0
M  CHG  1  21   1
M  END
>  <UniqueID>  (19) 
19

>  <SMILES>  (19) 
CCCN(CC)CC#Cc1cccc(N2CCCCC2)[nH+]1

>  <Energy>  (19) 
50.82946523673633

>  <Genealogy>  (19) 
CCCN(CC)CC#Cc1cccc(N2CCCCC2)[nH+]1 (protonated)
CCCN(CC)CC#Cc1cccc(N2CCCCC2)[nH+]1 (3D coordinates assigned)
CCCN(CC)CC#Cc1cccc(N2CCCCC2)[nH+]1 (nonaromatic ring conformer: 50.82946523673633 kcal/mol)

>  <smiles>  (19) 
CCCN(CC)CC#Cc1cccc(N2CCCCC2)n1

>  <score_type>  (19) 
oracle

>  <origin>  (19) 
adg

>  <m_score__min__energy>  (19) 
-6.5499999999999998

>  <m_primary>  (19) 
energy

$$$$
19:0
     RDKit          3D

 48 51  0  0  0  0  0  0  0  0999 V2000
   -0.0080   21.1020  -31.8920 C   0  0  0  0  0  0  0  0  0  0  0  0
   -0.7760   21.1980  -33.1400 N   0  0  0  0  0  0  0  0  0  0  0  0
   -0.0680   21.4890  -34.3910 C   0  0  0  0  0  0  0  0  0  0  0  0
   -2.2130   21.0020  -33.1320 C   0  0  0  0  0  0  0  0  0  0  0  0
   -2.7890   19.9410  -33.8350 C   0  0  0  0  0  0  0  0  0  0  0  0
   -4.1620   19.7340  -33.8100 C   0  0  0  0  0  0  0  0  0  0  0  0
   -5.0220   20.5940  -33.0880 C   0  0  0  0  0  0  0  0  0  0  0  0
   -6.4220   20.3530  -33.0260 C   0  0  0  0  0  0  0  0  0  0  0  0
   -7.0130   19.2950  -33.8380 N   0  0  0  0  0  0  0  0  0  0  0  0
   -6.4810   17.9730  -33.5540 C   0  0  0  0  0  0  0  0  0  0  0  0
   -6.0770   17.0870  -34.5810 C   0  0  0  0  0  0  0  0  0  0  0  0
   -5.5320   15.8390  -34.2690 C   0  0  0  0  0  0  0  0  0  0  0  0
   -5.3640   15.4590  -32.9380 C   0  0  0  0  0  0  0  0  0  0  0  0
   -5.7360   16.3300  -31.9120 C   0  0  0  0  0  0  0  0  0  0  0  0
   -6.2840   17.5820  -32.2140 C   0  0  0  0  0  0  0  0  0  0  0  0
   -6.6190   18.4140  -31.1970 F   0  0  0  0  0  0  0  0  0  0  0  0
   -7.2130   21.1230  -32.1950 N   0  0  0  0  0  0  0  0  0  0  0  0
   -8.5980   20.6990  -31.8890 C   0  0  0  0  0  0  0  0  0  0  0  0
   -6.7250   22.2970  -31.6560 C   0  0  0  0  0  0  0  0  0  0  0  0
   -7.5920   23.2330  -31.0320 C   0  0  0  0  0  0  0  0  0  0  0  0
   -7.1070   24.4090  -30.4690 C   0  0  0  0  0  0  0  0  0  0  0  0
   -5.7540   24.7000  -30.5320 C   0  0  0  0  0  0  0  0  0  0  0  0
   -4.8760   23.8230  -31.1630 C   0  0  0  0  0  0  0  0  0  0  0  0
   -5.3360   22.6060  -31.7360 C   0  0  0  0  0  0  0  0  0  0  0  0
   -4.4650   21.7010  -32.4010 C   0  0  0  0  0  0  0  0  0  0  0  0
   -3.0560   21.8710  -32.4180 C   0  0  0  0  0  0  0  0  0  0  0  0
   -0.6908   21.1873  -31.0338 H   0  0  0  0  0  0  0  0  0  0  0  0
    0.5096   20.1322  -31.8537 H   0  0  0  0  0  0  0  0  0  0  0  0
    0.7324   21.9146  -31.8537 H   0  0  0  0  0  0  0  0  0  0  0  0
    0.9272   21.8981  -34.1625 H   0  0  0  0  0  0  0  0  0  0  0  0
    0.0413   20.5629  -34.9744 H   0  0  0  0  0  0  0  0  0  0  0  0
   -0.6415   22.2243  -34.9744 H   0  0  0  0  0  0  0  0  0  0  0  0
   -2.1474   19.2615  -34.4152 H   0  0  0  0  0  0  0  0  0  0  0  0
   -4.5892   18.8843  -34.3627 H   0  0  0  0  0  0  0  0  0  0  0  0
   -8.0530   19.2700  -33.7570 H   0  0  0  0  0  0  0  0  0  0  0  0
   -6.8610   19.5370  -34.8440 H   0  0  0  0  0  0  0  0  0  0  0  0
   -6.1931   17.3835  -35.6339 H   0  0  0  0  0  0  0  0  0  0  0  0
   -5.2344   15.1537  -35.0763 H   0  0  0  0  0  0  0  0  0  0  0  0
   -4.9387   14.4737  -32.6964 H   0  0  0  0  0  0  0  0  0  0  0  0
   -5.5979   16.0311  -30.8624 H   0  0  0  0  0  0  0  0  0  0  0  0
   -8.7361   20.6567  -30.7985 H   0  0  0  0  0  0  0  0  0  0  0  0
   -9.3064   21.4214  -32.3206 H   0  0  0  0  0  0  0  0  0  0  0  0
   -8.7806   19.7038  -32.3206 H   0  0  0  0  0  0  0  0  0  0  0  0
   -8.6711   23.0233  -30.9930 H   0  0  0  0  0  0  0  0  0  0  0  0
   -7.7976   25.1076  -29.9740 H   0  0  0  0  0  0  0  0  0  0  0  0
   -5.3718   25.6279  -30.0815 H   0  0  0  0  0  0  0  0  0  0  0  0
   -3.8070   24.0763  -31.2192 H   0  0  0  0  0  0  0  0  0  0  0  0
   -2.6114   22.7061  -31.8568 H   0  0  0  0  0  0  0  0  0  0  0  0
  1  2  1  0
  2  3  1  0
  2  4  1  0
  4  5  2  0
  5  6  1  0
  6  7  2  0
  7  8  1  0
  8  9  1  0
  9 10  1  0
 10 11  2  0
 11 12  1  0
 12 13  2  0
 13 14  1  0
 14 15  2  0
 15 16  1  0
  8 17  2  0
 17 18  1  0
 17 19  1  0
 19 20  2  0
 20 21  1  0
 21 22  2  0
 22 23  1  0
 23 24  2  0
 24 25  1  0
 25 26  2  0
 26  4  1  0
 25  7  1  0
 15 10  1  0
 24 19  1  0
  1 27  1  0
  1 28  1  0
  1 29  1  0
  3 30  1  0
  3 31  1  0
  3 32  1  0
  5 33  1  0
  6 34  1  0
  9 35  1  0
  9 36  1  0
 11 37  1  0
 12 38  1  0
 13 39  1  0
 14 40  1  0
 18 41  1  0
 18 42  1  0
 18 43  1  0
 20 44  1  0
 21 45  1  0
 22 46  1  0
 23 47  1  0
 26 48  1  0
M  CHG  2   9   1  17   1
M  END
>  <UniqueID>  (20) 
20

>  <SMILES>  (20) 
CN(C)c1ccc2c([NH2+]c3ccccc3F)[n+](C)c3ccccc3c2c1

>  <Energy>  (20) 
86.49966076360812

>  <Genealogy>  (20) 
CN(C)c1ccc2c([NH2+]c3ccccc3F)[n+](C)c3ccccc3c2c1 (protonated)
CN(C)c1ccc2c([NH2+]c3ccccc3F)[n+](C)c3ccccc3c2c1 (3D coordinates assigned)
CN(C)c1ccc2c([NH2+]c3ccccc3F)[n+](C)c3ccccc3c2c1 (optimized conformer: 86.49966076360812 kcal/mol)

>  <smiles>  (20) 
CN(C)c1ccc2c(Nc3ccccc3F)[n+](C)c3ccccc3c2c1

>  <score_type>  (20) 
oracle

>  <origin>  (20) 
adg

>  <m_score__min__energy>  (20) 
-7.9699999999999998

>  <m_primary>  (20) 
energy

$$$$
20:0
     RDKit          3D

 57 59  0  0  0  0  0  0  0  0999 V2000
   -3.1780   22.0460  -29.6710 C   0  0  0  0  0  0  0  0  0  0  0  0
   -2.9410   23.4380  -30.2580 C   0  0  0  0  0  0  0  0  0  0  0  0
   -3.9930   24.3850  -29.8110 N   0  0  0  0  0  0  0  0  0  0  0  0
   -4.5930   23.9970  -28.5160 C   0  0  0  0  0  0  0  0  0  0  0  0
   -3.7470   24.5350  -27.3650 C   0  0  0  0  0  0  0  0  0  0  0  0
   -5.0170   24.6510  -30.8520 C   0  0  0  0  0  0  0  0  0  0  0  0
   -6.0240   23.4930  -31.0590 C   0  0  0  0  0  0  0  0  0  0  0  0
   -5.9520   22.9720  -32.4250 N   0  0  0  0  0  0  0  0  0  0  0  0
   -5.8230   21.5590  -32.6680 C   0  0  0  0  0  0  0  0  0  0  0  0
   -6.9270   20.7000  -32.5040 C   0  0  0  0  0  0  0  0  0  0  0  0
   -8.1420   21.1690  -31.9570 C   0  0  0  0  0  0  0  0  0  0  0  0
   -9.2230   20.3080  -31.7820 C   0  0  0  0  0  0  0  0  0  0  0  0
   -9.1120   18.9670  -32.1310 C   0  0  0  0  0  0  0  0  0  0  0  0
   -7.9240   18.4820  -32.6790 C   0  0  0  0  0  0  0  0  0  0  0  0
   -6.8180   19.3410  -32.9070 C   0  0  0  0  0  0  0  0  0  0  0  0
   -5.6540   18.8850  -33.4990 N   0  0  0  0  0  0  0  0  0  0  0  0
   -5.6410   17.5750  -34.1910 C   0  0  0  0  0  0  0  0  0  0  0  0
   -4.5090   19.6600  -33.4610 C   0  0  0  0  0  0  0  0  0  0  0  0
   -3.2360   19.1260  -33.7870 C   0  0  0  0  0  0  0  0  0  0  0  0
   -2.0770   19.9230  -33.7870 C   0  0  0  0  0  0  0  0  0  0  0  0
   -0.7900   19.3590  -34.1430 N   0  0  0  0  0  0  0  0  0  0  0  0
    0.3800   20.2320  -34.3260 C   0  0  0  0  0  0  0  0  0  0  0  0
   -0.6250   17.9070  -34.2860 C   0  0  0  0  0  0  0  0  0  0  0  0
   -2.1910   21.2700  -33.4220 C   0  0  0  0  0  0  0  0  0  0  0  0
   -3.4200   21.8070  -33.0530 C   0  0  0  0  0  0  0  0  0  0  0  0
   -4.5880   21.0200  -33.0690 C   0  0  0  0  0  0  0  0  0  0  0  0
   -3.1680   22.1047  -28.5726 H   0  0  0  0  0  0  0  0  0  0  0  0
   -4.1536   21.6667  -30.0091 H   0  0  0  0  0  0  0  0  0  0  0  0
   -2.3828   21.3652  -30.0091 H   0  0  0  0  0  0  0  0  0  0  0  0
   -1.9592   23.8069  -29.9262 H   0  0  0  0  0  0  0  0  0  0  0  0
   -2.9730   23.3679  -31.3553 H   0  0  0  0  0  0  0  0  0  0  0  0
   -5.6090   24.4129  -28.4464 H   0  0  0  0  0  0  0  0  0  0  0  0
   -4.6331   22.8996  -28.4517 H   0  0  0  0  0  0  0  0  0  0  0  0
   -4.2037   24.2446  -26.4073 H   0  0  0  0  0  0  0  0  0  0  0  0
   -2.7319   24.1162  -27.4291 H   0  0  0  0  0  0  0  0  0  0  0  0
   -3.6958   25.6319  -27.4291 H   0  0  0  0  0  0  0  0  0  0  0  0
   -5.5798   25.5503  -30.5611 H   0  0  0  0  0  0  0  0  0  0  0  0
   -4.4778   24.7761  -31.8026 H   0  0  0  0  0  0  0  0  0  0  0  0
   -5.7906   22.6829  -30.3524 H   0  0  0  0  0  0  0  0  0  0  0  0
   -7.0398   23.8769  -30.8838 H   0  0  0  0  0  0  0  0  0  0  0  0
   -5.7540   23.6440  -33.1990 H   0  0  0  0  0  0  0  0  0  0  0  0
   -8.2356   22.2257  -31.6660 H   0  0  0  0  0  0  0  0  0  0  0  0
  -10.1670   20.6903  -31.3665 H   0  0  0  0  0  0  0  0  0  0  0  0
   -9.9624   18.2869  -31.9748 H   0  0  0  0  0  0  0  0  0  0  0  0
   -7.8436   17.4161  -32.9385 H   0  0  0  0  0  0  0  0  0  0  0  0
   -5.6330   16.7664  -33.4452 H   0  0  0  0  0  0  0  0  0  0  0  0
   -6.5383   17.4841  -34.8208 H   0  0  0  0  0  0  0  0  0  0  0  0
   -4.7421   17.5019  -34.8208 H   0  0  0  0  0  0  0  0  0  0  0  0
   -3.1530   18.0603  -34.0467 H   0  0  0  0  0  0  0  0  0  0  0  0
    0.7750   20.5267  -33.3426 H   0  0  0  0  0  0  0  0  0  0  0  0
    1.1570   19.6912  -34.8861 H   0  0  0  0  0  0  0  0  0  0  0  0
    0.0828   21.1308  -34.8861 H   0  0  0  0  0  0  0  0  0  0  0  0
   -0.5724   17.4441  -33.2895 H   0  0  0  0  0  0  0  0  0  0  0  0
   -1.4819   17.4932  -34.8378 H   0  0  0  0  0  0  0  0  0  0  0  0
    0.3029   17.6960  -34.8378 H   0  0  0  0  0  0  0  0  0  0  0  0
   -1.2975   21.9116  -33.4271 H   0  0  0  0  0  0  0  0  0  0  0  0
   -3.4805   22.8611  -32.7444 H   0  0  0  0  0  0  0  0  0  0  0  0
  1  2  1  0
  2  3  1  0
  3  4  1  0
  4  5  1  0
  3  6  1  0
  6  7  1  0
  7  8  1  0
  8  9  1  0
  9 10  2  0
 10 11  1  0
 11 12  2  0
 12 13  1  0
 13 14  2  0
 14 15  1  0
 15 16  2  0
 16 17  1  0
 16 18  1  0
 18 19  2  0
 19 20  1  0
 20 21  1  0
 21 22  1  0
 21 23  1  0
 20 24  2  0
 24 25  1  0
 25 26  2  0
 26  9  1  0
 15 10  1  0
 26 18  1  0
  1 27  1  0
  1 28  1  0
  1 29  1  0
  2 30  1  0
  2 31  1  0
  4 32  1  0
  4 33  1  0
  5 34  1  0
  5 35  1  0
  5 36  1  0
  6 37  1  0
  6 38  1  0
  7 39  1  0
  7 40  1  0
  8 41  1  0
 11 42  1  0
 12 43  1  0
 13 44  1  0
 14 45  1  0
 17 46  1  0
 17 47  1  0
 17 48  1  0
 19 49  1  0
 22 50  1  0
 22 51  1  0
 22 52  1  0
 23 53  1  0
 23 54  1  0
 23 55  1  0
 24 56  1  0
 25 57  1  0
M  CHG  1  16   1
M  END
>  <UniqueID>  (21) 
21

>  <SMILES>  (21) 
CCN(CC)CCNc1c2ccccc2[n+](C)c2cc(N(C)C)ccc12

>  <Energy>  (21) 
85.89475439006287

>  <Genealogy>  (21) 
CCN(CC)CCNc1c2ccccc2[n+](C)c2cc(N(C)C)ccc12 (3D coordinates assigned)
CCN(CC)CCNc1c2ccccc2[n+](C)c2cc(N(C)C)ccc12 (optimized conformer: 85.89475439006287 kcal/mol)

>  <smiles>  (21) 
CCN(CC)CCNc1c2ccccc2[n+](C)c2cc(N(C)C)ccc12

>  <score_type>  (21) 
oracle

>  <origin>  (21) 
adg

>  <m_score__min__energy>  (21) 
-8.3399999999999999

>  <m_primary>  (21) 
energy

$$$$
21:0
     RDKit          3D

 45 48  0  0  0  0  0  0  0  0999 V2000
   -8.2850   18.1900  -31.6130 C   0  0  0  0  0  0  0  0  0  0  0  0
   -9.0460   19.4870  -31.8580 C   0  0  0  0  0  0  0  0  0  0  0  0
   -8.4030   20.2520  -32.9350 N   0  0  0  0  0  0  0  0  0  0  0  0
   -6.9660   20.4350  -32.6800 C   0  0  0  0  0  0  0  0  0  0  0  0
   -6.7480   21.4630  -31.5620 C   0  0  0  0  0  0  0  0  0  0  0  0
   -6.6900   22.8970  -32.1020 C   0  0  0  0  0  0  0  0  0  0  0  0
   -5.3450   23.2510  -32.5490 N   0  0  0  0  0  0  0  0  0  0  0  0
   -4.2000   22.8100  -31.8210 C   0  0  0  0  0  0  0  0  0  0  0  0
   -3.4030   23.3320  -30.8930 C   0  0  0  0  0  0  0  0  0  0  0  0
   -3.1210   24.4250  -30.1030 C   0  0  0  0  0  0  0  0  0  0  0  0
   -3.8970   25.5780  -30.1610 O   0  0  0  0  0  0  0  0  0  0  0  0
   -1.9940   24.2880  -29.2370 C   0  0  0  0  0  0  0  0  0  0  0  0
   -1.6290   25.3500  -28.3930 C   0  0  0  0  0  0  0  0  0  0  0  0
   -0.5330   25.2340  -27.5410 C   0  0  0  0  0  0  0  0  0  0  0  0
    0.2190   24.0610  -27.5130 C   0  0  0  0  0  0  0  0  0  0  0  0
   -0.1110   22.9820  -28.3370 C   0  0  0  0  0  0  0  0  0  0  0  0
   -1.2120   23.0550  -29.2140 C   0  0  0  0  0  0  0  0  0  0  0  0
   -1.5710   21.9550  -30.0720 C   0  0  0  0  0  0  0  0  0  0  0  0
   -2.6580   22.1930  -30.8540 C   0  0  0  0  0  0  0  0  0  0  0  0
   -3.3880   21.6060  -31.7580 C   0  0  0  0  0  0  0  0  0  0  0  0
   -3.2790   20.2840  -32.3390 C   0  0  0  0  0  0  0  0  0  0  0  0
   -2.3460   19.4010  -31.9420 C   0  0  0  0  0  0  0  0  0  0  0  0
   -1.2340   19.5820  -30.9470 C   0  0  0  0  0  0  0  0  0  0  0  0
   -0.8830   20.6380  -30.1710 C   0  0  0  0  0  0  0  0  0  0  0  0
   -8.1863   18.0217  -30.5304 H   0  0  0  0  0  0  0  0  0  0  0  0
   -8.8343   17.3514  -32.0658 H   0  0  0  0  0  0  0  0  0  0  0  0
   -7.2850   18.2605  -32.0658 H   0  0  0  0  0  0  0  0  0  0  0  0
  -10.0815   19.2528  -32.1458 H   0  0  0  0  0  0  0  0  0  0  0  0
   -9.0413   20.0876  -30.9365 H   0  0  0  0  0  0  0  0  0  0  0  0
   -8.5010   19.6960  -33.8170 H   0  0  0  0  0  0  0  0  0  0  0  0
   -6.5259   19.4729  -32.3787 H   0  0  0  0  0  0  0  0  0  0  0  0
   -6.4840   20.7997  -33.5991 H   0  0  0  0  0  0  0  0  0  0  0  0
   -7.5777   21.3875  -30.8437 H   0  0  0  0  0  0  0  0  0  0  0  0
   -5.7835   21.2422  -31.0814 H   0  0  0  0  0  0  0  0  0  0  0  0
   -7.3833   22.9866  -32.9513 H   0  0  0  0  0  0  0  0  0  0  0  0
   -6.9729   23.5818  -31.2890 H   0  0  0  0  0  0  0  0  0  0  0  0
   -5.1970   23.8440  -33.3960 H   0  0  0  0  0  0  0  0  0  0  0  0
   -2.2139   26.2815  -28.4050 H   0  0  0  0  0  0  0  0  0  0  0  0
   -0.2592   26.0741  -26.8858 H   0  0  0  0  0  0  0  0  0  0  0  0
    1.0817   23.9838  -26.8349 H   0  0  0  0  0  0  0  0  0  0  0  0
    0.4954   22.0650  -28.3009 H   0  0  0  0  0  0  0  0  0  0  0  0
   -3.9834   19.9923  -33.1320 H   0  0  0  0  0  0  0  0  0  0  0  0
   -2.4047   18.4076  -32.4107 H   0  0  0  0  0  0  0  0  0  0  0  0
   -0.5887   18.6994  -30.8263 H   0  0  0  0  0  0  0  0  0  0  0  0
    0.0111   20.5065  -29.5439 H   0  0  0  0  0  0  0  0  0  0  0  0
  1  2  1  0
  2  3  1  0
  3  4  1  0
  4  5  1  0
  5  6  1  0
  6  7  1  0
  7  8  1  0
  8  9  2  0
  9 10  1  0
 10 11  1  0
 10 12  2  0
 12 13  1  0
 13 14  2  0
 14 15  1  0
 15 16  2  0
 16 17  1  0
 17 18  2  0
 18 19  1  0
 19 20  2  0
 20 21  1  0
 21 22  2  0
 22 23  1  0
 23 24  2  0
 20  8  1  0
 19  9  1  0
 17 12  1  0
 24 18  1  0
  1 25  1  0
  1 26  1  0
  1 27  1  0
  2 28  1  0
  2 29  1  0
  3 30  1  0
  4 31  1  0
  4 32  1  0
  5 33  1  0
  5 34  1  0
  6 35  1  0
  6 36  1  0
  7 37  1  0
 13 38  1  0
 14 39  1  0
 15 40  1  0
 16 41  1  0
 21 42  1  0
 22 43  1  0
 23 44  1  0
 24 45  1  0
M  CHG  1  11  -1
M  END
>  <UniqueID>  (22) 
22

>  <SMILES>  (22) 
CCNCCCNC1=c2c([O-])c3ccccc3c3c2=C1C=CC=C3

>  <Energy>  (22) 
68.64548828175788

>  <Genealogy>  (22) 
CCNCCCNC1=c2c([O-])c3ccccc3c3c2=C1C=CC=C3 (protonated)
CCNCCCNC1=c2c([O-])c3ccccc3c3c2=C1C=CC=C3 (3D coordinates assigned)
CCNCCCNC1=c2c([O-])c3ccccc3c3c2=C1C=CC=C3 (nonaromatic ring conformer: 68.64548828175788 kcal/mol)

>  <smiles>  (22) 
CCNCCCNC1=c2c(O)c3ccccc3c3c2=C1C=CC=C3

>  <score_type>  (22) 
oracle

>  <origin>  (22) 
adg

>  <m_score__min__energy>  (22) 
-9.3399999999999999

>  <m_primary>  (22) 
energy

$$$$
22:0
     RDKit          3D

 63 65  0  0  0  0  0  0  0  0999 V2000
   -1.4840   21.3530  -29.9520 C   0  0  0  0  0  0  0  0  0  0  0  0
   -2.9050   20.9920  -29.5310 C   0  0  0  0  0  0  0  0  0  0  0  0
   -3.0660   21.1610  -28.0690 N   0  0  0  0  0  0  0  0  0  0  0  0
   -2.2420   20.1810  -27.3220 C   0  0  0  0  0  0  0  0  0  0  0  0
   -3.1350   19.1230  -26.6800 C   0  0  0  0  0  0  0  0  0  0  0  0
   -2.7590   22.5490  -27.6490 C   0  0  0  0  0  0  0  0  0  0  0  0
   -3.7160   23.5280  -28.3390 C   0  0  0  0  0  0  0  0  0  0  0  0
   -2.9540   24.5360  -29.2050 C   0  0  0  0  0  0  0  0  0  0  0  0
   -3.8590   25.1260  -30.1990 N   0  0  0  0  0  0  0  0  0  0  0  0
   -4.6650   24.0800  -30.8380 C   0  0  0  0  0  0  0  0  0  0  0  0
   -6.1500   24.4600  -30.7910 C   0  0  0  0  0  0  0  0  0  0  0  0
   -7.0420   23.3740  -31.4050 C   0  0  0  0  0  0  0  0  0  0  0  0
   -6.4480   22.8150  -32.6210 N   0  0  0  0  0  0  0  0  0  0  0  0
   -6.1460   21.4160  -32.7050 C   0  0  0  0  0  0  0  0  0  0  0  0
   -4.8260   20.9920  -32.9240 C   0  0  0  0  0  0  0  0  0  0  0  0
   -3.7810   21.9310  -33.0600 C   0  0  0  0  0  0  0  0  0  0  0  0
   -2.4630   21.5100  -33.2150 C   0  0  0  0  0  0  0  0  0  0  0  0
   -2.1630   20.1540  -33.2260 C   0  0  0  0  0  0  0  0  0  0  0  0
   -3.1810   19.2070  -33.1120 C   0  0  0  0  0  0  0  0  0  0  0  0
   -4.5400   19.6020  -32.9970 C   0  0  0  0  0  0  0  0  0  0  0  0
   -5.5660   18.6780  -32.9410 N   0  0  0  0  0  0  0  0  0  0  0  0
   -5.3090   17.2640  -33.2950 C   0  0  0  0  0  0  0  0  0  0  0  0
   -6.8420   19.0800  -32.5850 C   0  0  0  0  0  0  0  0  0  0  0  0
   -7.8620   18.1440  -32.2730 C   0  0  0  0  0  0  0  0  0  0  0  0
   -9.1580   18.5650  -31.9740 C   0  0  0  0  0  0  0  0  0  0  0  0
   -9.4700   19.9190  -31.9670 C   0  0  0  0  0  0  0  0  0  0  0  0
   -8.4810   20.8640  -32.2260 C   0  0  0  0  0  0  0  0  0  0  0  0
   -7.1580   20.4620  -32.5080 C   0  0  0  0  0  0  0  0  0  0  0  0
   -0.8650   21.5103  -29.0564 H   0  0  0  0  0  0  0  0  0  0  0  0
   -1.0600   20.5340  -30.5516 H   0  0  0  0  0  0  0  0  0  0  0  0
   -1.5023   22.2750  -30.5516 H   0  0  0  0  0  0  0  0  0  0  0  0
   -3.6162   21.6492  -30.0528 H   0  0  0  0  0  0  0  0  0  0  0  0
   -3.1003   19.9418  -29.7936 H   0  0  0  0  0  0  0  0  0  0  0  0
   -1.5407   19.6929  -28.0148 H   0  0  0  0  0  0  0  0  0  0  0  0
   -1.6849   20.7076  -26.5331 H   0  0  0  0  0  0  0  0  0  0  0  0
   -3.0681   19.2022  -25.5849 H   0  0  0  0  0  0  0  0  0  0  0  0
   -4.1766   19.2814  -26.9962 H   0  0  0  0  0  0  0  0  0  0  0  0
   -2.8039   18.1228  -26.9962 H   0  0  0  0  0  0  0  0  0  0  0  0
   -2.8746   22.6338  -26.5584 H   0  0  0  0  0  0  0  0  0  0  0  0
   -1.7249   22.7927  -27.9340 H   0  0  0  0  0  0  0  0  0  0  0  0
   -4.4102   22.9609  -28.9765 H   0  0  0  0  0  0  0  0  0  0  0  0
   -4.2640   24.0823  -27.5628 H   0  0  0  0  0  0  0  0  0  0  0  0
   -2.5466   25.3323  -28.5647 H   0  0  0  0  0  0  0  0  0  0  0  0
   -2.1332   24.0196  -29.7242 H   0  0  0  0  0  0  0  0  0  0  0  0
   -4.5110   25.7700  -29.6910 H   0  0  0  0  0  0  0  0  0  0  0  0
   -4.3508   23.9673  -31.8861 H   0  0  0  0  0  0  0  0  0  0  0  0
   -4.5177   23.1317  -30.3004 H   0  0  0  0  0  0  0  0  0  0  0  0
   -6.4448   24.6102  -29.7420 H   0  0  0  0  0  0  0  0  0  0  0  0
   -6.2833   25.3805  -31.3782 H   0  0  0  0  0  0  0  0  0  0  0  0
   -7.1790   22.5667  -30.6705 H   0  0  0  0  0  0  0  0  0  0  0  0
   -8.0071   23.8300  -31.6708 H   0  0  0  0  0  0  0  0  0  0  0  0
   -6.2060   23.4240  -33.4350 H   0  0  0  0  0  0  0  0  0  0  0  0
   -4.0103   23.0067  -33.0434 H   0  0  0  0  0  0  0  0  0  0  0  0
   -1.6588   22.2518  -33.3288 H   0  0  0  0  0  0  0  0  0  0  0  0
   -1.1180   19.8252  -33.3251 H   0  0  0  0  0  0  0  0  0  0  0  0
   -2.9267   18.1368  -33.1112 H   0  0  0  0  0  0  0  0  0  0  0  0
   -5.2010   16.6697  -32.3757 H   0  0  0  0  0  0  0  0  0  0  0  0
   -6.1512   16.8751  -33.8862 H   0  0  0  0  0  0  0  0  0  0  0  0
   -4.3838   17.1963  -33.8862 H   0  0  0  0  0  0  0  0  0  0  0  0
   -7.6270   17.0694  -32.2668 H   0  0  0  0  0  0  0  0  0  0  0  0
   -9.9358   17.8223  -31.7429 H   0  0  0  0  0  0  0  0  0  0  0  0
  -10.4994   20.2446  -31.7566 H   0  0  0  0  0  0  0  0  0  0  0  0
   -8.7333   21.9346  -32.2107 H   0  0  0  0  0  0  0  0  0  0  0  0
  1  2  1  0
  2  3  1  0
  3  4  1  0
  4  5  1  0
  3  6  1  0
  6  7  1  0
  7  8  1  0
  8  9  1  0
  9 10  1  0
 10 11  1  0
 11 12  1  0
 12 13  1  0
 13 14  1  0
 14 15  2  0
 15 16  1  0
 16 17  2  0
 17 18  1  0
 18 19  2  0
 19 20  1  0
 20 21  2  0
 21 22  1  0
 21 23  1  0
 23 24  2  0
 24 25  1  0
 25 26  2  0
 26 27  1  0
 27 28  2  0
 28 14  1  0
 20 15  1  0
 28 23  1  0
  1 29  1  0
  1 30  1  0
  1 31  1  0
  2 32  1  0
  2 33  1  0
  4 34  1  0
  4 35  1  0
  5 36  1  0
  5 37  1  0
  5 38  1  0
  6 39  1  0
  6 40  1  0
  7 41  1  0
  7 42  1  0
  8 43  1  0
  8 44  1  0
  9 45  1  0
 10 46  1  0
 10 47  1  0
 11 48  1  0
 11 49  1  0
 12 50  1  0
 12 51  1  0
 13 52  1  0
 16 53  1  0
 17 54  1  0
 18 55  1  0
 19 56  1  0
 22 57  1  0
 22 58  1  0
 22 59  1  0
 24 60  1  0
 25 61  1  0
 26 62  1  0
 27 63  1  0
M  CHG  1  21   1
M  END
>  <UniqueID>  (23) 
23

>  <SMILES>  (23) 
CCN(CC)CCCNCCCNc1c2ccccc2[n+](C)c2ccccc12

>  <Energy>  (23) 
79.83844935957346

>  <Genealogy>  (23) 
CCN(CC)CCCNCCCNc1c2ccccc2[n+](C)c2ccccc12 (3D coordinates assigned)
CCN(CC)CCCNCCCNc1c2ccccc2[n+](C)c2ccccc12 (optimized conformer: 79.83844935957346 kcal/mol)

>  <smiles>  (23) 
CCN(CC)CCCNCCCNc1c2ccccc2[n+](C)c2ccccc12

>  <score_type>  (23) 
oracle

>  <origin>  (23) 
adg

>  <m_score__min__energy>  (23) 
-9.1600000000000001

>  <m_primary>  (23) 
energy

$$$$
23:0
     RDKit          3D

 42 44  0  0  0  0  0  0  0  0999 V2000
   -6.2790   25.3170  -29.6740 C   0  0  0  0  0  0  0  0  0  0  0  0
   -5.3170   25.6490  -30.8100 C   0  0  0  0  0  0  0  0  0  0  0  0
   -3.9430   25.2760  -30.4470 N   0  0  0  0  0  0  0  0  0  0  0  0
   -3.9260   24.1650  -29.4830 C   0  0  0  0  0  0  0  0  0  0  0  0
   -3.5970   22.8480  -30.1900 C   0  0  0  0  0  0  0  0  0  0  0  0
   -4.0420   22.8690  -31.5820 N   0  0  0  0  0  0  0  0  0  0  0  0
   -4.6500   21.7020  -32.1590 C   0  0  0  0  0  0  0  0  0  0  0  0
   -6.0430   21.5140  -32.0850 C   0  0  0  0  0  0  0  0  0  0  0  0
   -6.8640   22.4580  -31.4320 C   0  0  0  0  0  0  0  0  0  0  0  0
   -8.2430   22.2730  -31.3570 C   0  0  0  0  0  0  0  0  0  0  0  0
   -8.8250   21.1470  -31.9270 C   0  0  0  0  0  0  0  0  0  0  0  0
   -8.0340   20.1950  -32.5690 C   0  0  0  0  0  0  0  0  0  0  0  0
   -6.6270   20.3510  -32.6590 C   0  0  0  0  0  0  0  0  0  0  0  0
   -5.8310   19.4070  -33.2820 N   0  0  0  0  0  0  0  0  0  0  0  0
   -6.4420   18.1920  -33.8630 C   0  0  0  0  0  0  0  0  0  0  0  0
   -4.4680   19.5930  -33.3660 C   0  0  0  0  0  0  0  0  0  0  0  0
   -3.6800   18.6720  -33.9960 N   0  0  0  0  0  0  0  0  0  0  0  0
   -2.3360   18.8140  -34.1180 C   0  0  0  0  0  0  0  0  0  0  0  0
   -1.7050   19.9370  -33.5960 C   0  0  0  0  0  0  0  0  0  0  0  0
   -2.4660   20.9050  -32.9450 C   0  0  0  0  0  0  0  0  0  0  0  0
   -3.8590   20.7440  -32.8110 C   0  0  0  0  0  0  0  0  0  0  0  0
   -5.7801   25.4892  -28.7089 H   0  0  0  0  0  0  0  0  0  0  0  0
   -7.1684   25.9602  -29.7469 H   0  0  0  0  0  0  0  0  0  0  0  0
   -6.5824   24.2622  -29.7469 H   0  0  0  0  0  0  0  0  0  0  0  0
   -5.6164   25.0943  -31.7115 H   0  0  0  0  0  0  0  0  0  0  0  0
   -5.3528   26.7317  -31.0012 H   0  0  0  0  0  0  0  0  0  0  0  0
   -3.4670   24.9450  -31.3190 H   0  0  0  0  0  0  0  0  0  0  0  0
   -3.1642   24.3638  -28.7147 H   0  0  0  0  0  0  0  0  0  0  0  0
   -4.9196   24.0813  -29.0185 H   0  0  0  0  0  0  0  0  0  0  0  0
   -2.5089   22.6889  -30.1637 H   0  0  0  0  0  0  0  0  0  0  0  0
   -4.1213   22.0331  -29.6693 H   0  0  0  0  0  0  0  0  0  0  0  0
   -4.2570   23.7940  -32.0210 H   0  0  0  0  0  0  0  0  0  0  0  0
   -6.4099   23.3505  -30.9768 H   0  0  0  0  0  0  0  0  0  0  0  0
   -8.8710   23.0181  -30.8467 H   0  0  0  0  0  0  0  0  0  0  0  0
   -9.9145   21.0062  -31.8714 H   0  0  0  0  0  0  0  0  0  0  0  0
   -8.5091   19.3079  -33.0132 H   0  0  0  0  0  0  0  0  0  0  0  0
   -6.7765   17.5268  -33.0533 H   0  0  0  0  0  0  0  0  0  0  0  0
   -7.3044   18.4763  -34.4839 H   0  0  0  0  0  0  0  0  0  0  0  0
   -5.6996   17.6692  -34.4839 H   0  0  0  0  0  0  0  0  0  0  0  0
   -1.7457   18.0400  -34.6302 H   0  0  0  0  0  0  0  0  0  0  0  0
   -0.6165   20.0599  -33.6959 H   0  0  0  0  0  0  0  0  0  0  0  0
   -1.9766   21.8000  -32.5333 H   0  0  0  0  0  0  0  0  0  0  0  0
  1  2  1  0
  2  3  1  0
  3  4  1  0
  4  5  1  0
  5  6  1  0
  6  7  1  0
  7  8  2  0
  8  9  1  0
  9 10  2  0
 10 11  1  0
 11 12  2  0
 12 13  1  0
 13 14  2  0
 14 15  1  0
 14 16  1  0
 16 17  2  0
 17 18  1  0
 18 19  2  0
 19 20  1  0
 20 21  2  0
 21  7  1  0
 13  8  1  0
 21 16  1  0
  1 22  1  0
  1 23  1  0
  1 24  1  0
  2 25  1  0
  2 26  1  0
  3 27  1  0
  4 28  1  0
  4 29  1  0
  5 30  1  0
  5 31  1  0
  6 32  1  0
  9 33  1  0
 10 34  1  0
 11 35  1  0
 12 36  1  0
 15 37  1  0
 15 38  1  0
 15 39  1  0
 18 40  1  0
 19 41  1  0
 20 42  1  0
M  CHG  1  14   1
M  END
>  <UniqueID>  (24) 
24

>  <SMILES>  (24) 
CCNCCNc1c2ccccc2[n+](C)c2ncccc12

>  <Energy>  (24) 
60.059793053992514

>  <Genealogy>  (24) 
CCNCCNc1c2ccccc2[n+](C)c2ncccc12 (3D coordinates assigned)
CCNCCNc1c2ccccc2[n+](C)c2ncccc12 (optimized conformer: 60.059793053992514 kcal/mol)

>  <smiles>  (24) 
CCNCCNc1c2ccccc2[n+](C)c2ncccc12

>  <score_type>  (24) 
oracle

>  <origin>  (24) 
adg

>  <m_score__min__energy>  (24) 
-8.2699999999999996

>  <m_primary>  (24) 
energy

$$$$
24:0
     RDKit          3D

 44 44  0  0  0  0  0  0  0  0999 V2000
   -2.9880   23.8640  -28.3450 C   0  0  0  0  0  0  0  0  0  0  0  0
   -4.1990   22.9430  -28.4930 C   0  0  0  0  0  0  0  0  0  0  0  0
   -4.5960   22.8350  -29.9120 N   0  0  0  0  0  0  0  0  0  0  0  0
   -3.4910   22.3160  -30.7450 C   0  0  0  0  0  0  0  0  0  0  0  0
   -4.0430   21.4220  -31.8520 C   0  0  0  0  0  0  0  0  0  0  0  0
   -5.1710   24.3840  -30.5160 S   0  0  0  0  0  0  0  0  0  0  0  0
   -6.0530   25.0640  -29.5050 O   0  0  0  0  0  0  0  0  0  0  0  0
   -4.0180   25.3020  -30.8220 O   0  0  0  0  0  0  0  0  0  0  0  0
   -6.0650   24.1360  -32.0500 C   0  0  0  0  0  0  0  0  0  0  0  0
   -7.4010   23.3990  -31.8650 C   0  0  0  0  0  0  0  0  0  0  0  0
   -7.5640   22.8830  -30.4940 N   0  0  0  0  0  0  0  0  0  0  0  0
   -8.6830   21.9190  -30.3960 C   0  0  0  0  0  0  0  0  0  0  0  0
   -9.1130   21.3600  -31.7660 C   0  0  0  0  0  0  0  0  0  0  0  0
   -8.2660   20.1920  -32.1970 C   0  0  0  0  0  0  0  0  0  0  0  0
   -8.5780   18.8900  -31.7690 C   0  0  0  0  0  0  0  0  0  0  0  0
   -7.8140   17.8040  -32.2070 C   0  0  0  0  0  0  0  0  0  0  0  0
   -6.7360   18.0080  -33.0740 C   0  0  0  0  0  0  0  0  0  0  0  0
   -5.6980   16.5210  -33.6740 Br  0  0  0  0  0  0  0  0  0  0  0  0
   -6.4210   19.3010  -33.5050 C   0  0  0  0  0  0  0  0  0  0  0  0
   -7.1830   20.3890  -33.0710 C   0  0  0  0  0  0  0  0  0  0  0  0
   -2.7774   24.0241  -27.2773 H   0  0  0  0  0  0  0  0  0  0  0  0
   -2.1139   23.4004  -28.8256 H   0  0  0  0  0  0  0  0  0  0  0  0
   -3.2012   24.8302  -28.8256 H   0  0  0  0  0  0  0  0  0  0  0  0
   -3.9426   21.9436  -28.1117 H   0  0  0  0  0  0  0  0  0  0  0  0
   -5.0382   23.3636  -27.9196 H   0  0  0  0  0  0  0  0  0  0  0  0
   -2.9480   23.1598  -31.1958 H   0  0  0  0  0  0  0  0  0  0  0  0
   -2.8100   21.7271  -30.1130 H   0  0  0  0  0  0  0  0  0  0  0  0
   -4.5708   20.5672  -31.4040 H   0  0  0  0  0  0  0  0  0  0  0  0
   -4.7422   21.9991  -32.4749 H   0  0  0  0  0  0  0  0  0  0  0  0
   -3.2138   21.0554  -32.4749 H   0  0  0  0  0  0  0  0  0  0  0  0
   -6.2685   25.1198  -32.4980 H   0  0  0  0  0  0  0  0  0  0  0  0
   -5.4340   23.5078  -32.6959 H   0  0  0  0  0  0  0  0  0  0  0  0
   -8.2237   24.0962  -32.0818 H   0  0  0  0  0  0  0  0  0  0  0  0
   -7.4130   22.5413  -32.5536 H   0  0  0  0  0  0  0  0  0  0  0  0
   -6.6870   22.3870  -30.2180 H   0  0  0  0  0  0  0  0  0  0  0  0
   -7.6970   23.6770  -29.8250 H   0  0  0  0  0  0  0  0  0  0  0  0
   -8.3691   21.0803  -29.7573 H   0  0  0  0  0  0  0  0  0  0  0  0
   -9.5450   22.4551  -29.9723 H   0  0  0  0  0  0  0  0  0  0  0  0
  -10.1611   21.0324  -31.7014 H   0  0  0  0  0  0  0  0  0  0  0  0
   -8.9878   22.1599  -32.5106 H   0  0  0  0  0  0  0  0  0  0  0  0
   -9.4256   18.7250  -31.0876 H   0  0  0  0  0  0  0  0  0  0  0  0
   -8.0615   16.7869  -31.8688 H   0  0  0  0  0  0  0  0  0  0  0  0
   -5.5725   19.4615  -34.1864 H   0  0  0  0  0  0  0  0  0  0  0  0
   -6.9342   21.4038  -33.4148 H   0  0  0  0  0  0  0  0  0  0  0  0
  1  2  1  0
  2  3  1  0
  3  4  1  0
  4  5  1  0
  3  6  1  0
  6  7  2  0
  6  8  2  0
  6  9  1  0
  9 10  1  0
 10 11  1  0
 11 12  1  0
 12 13  1  0
 13 14  1  0
 14 15  2  0
 15 16  1  0
 16 17  2  0
 17 18  1  0
 17 19  1  0
 19 20  2  0
 20 14  1  0
  1 21  1  0
  1 22  1  0
  1 23  1  0
  2 24  1  0
  2 25  1  0
  4 26  1  0
  4 27  1  0
  5 28  1  0
  5 29  1  0
  5 30  1  0
  9 31  1  0
  9 32  1  0
 10 33  1  0
 10 34  1  0
 11 35  1  0
 11 36  1  0
 12 37  1  0
 12 38  1  0
 13 39  1  0
 13 40  1  0
 15 41  1  0
 16 42  1  0
 19 43  1  0
 20 44  1  0
M  CHG  1  11   1
M  END
>  <UniqueID>  (25) 
25

>  <SMILES>  (25) 
CCN(CC)S(=O)(=O)CC[NH2+]CCc1ccc(Br)cc1

>  <Energy>  (25) 
33.10814988879827

>  <Genealogy>  (25) 
CCN(CC)S(=O)(=O)CC[NH2+]CCc1ccc(Br)cc1 (protonated)
CCN(CC)S(=O)(=O)CC[NH2+]CCc1ccc(Br)cc1 (3D coordinates assigned)
CCN(CC)S(=O)(=O)CC[NH2+]CCc1ccc(Br)cc1 (optimized conformer: 33.10814988879827 kcal/mol)

>  <smiles>  (25) 
CCN(CC)S(=O)(=O)CCNCCc1ccc(Br)cc1

>  <score_type>  (25) 
oracle

>  <origin>  (25) 
adg

>  <m_score__min__energy>  (25) 
-6.8200000000000003

>  <m_primary>  (25) 
energy

$$$$
25:0
     RDKit          3D

 51 52  0  0  0  0  0  0  0  0999 V2000
   -1.9000   20.4080  -30.9920 C   0  0  0  0  0  0  0  0  0  0  0  0
   -3.0330   21.0520  -30.1840 C   0  0  0  0  0  0  0  0  0  0  0  0
   -2.9240   22.5360  -30.1240 N   0  0  0  0  0  0  0  0  0  0  0  0
   -1.4990   22.9650  -30.1590 C   0  0  0  0  0  0  0  0  0  0  0  0
   -0.9220   23.3700  -28.7920 C   0  0  0  0  0  0  0  0  0  0  0  0
   -3.6700   23.0690  -28.9540 C   0  0  0  0  0  0  0  0  0  0  0  0
   -4.0820   24.5460  -29.1020 C   0  0  0  0  0  0  0  0  0  0  0  0
   -4.0920   24.9130  -30.4700 O   0  0  0  0  0  0  0  0  0  0  0  0
   -5.3760   25.3510  -30.8740 C   0  0  0  0  0  0  0  0  0  0  0  0
   -6.0950   24.2210  -31.6180 C   0  0  0  0  0  0  0  0  0  0  0  0
   -5.2130   23.1250  -31.8750 O   0  0  0  0  0  0  0  0  0  0  0  0
   -5.5970   21.8770  -32.3900 C   0  0  0  0  0  0  0  0  0  0  0  0
   -6.9170   21.3990  -32.3040 C   0  0  0  0  0  0  0  0  0  0  0  0
   -7.2400   20.0940  -32.7240 C   0  0  0  0  0  0  0  0  0  0  0  0
   -8.5410   19.5790  -32.5940 O   0  0  0  0  0  0  0  0  0  0  0  0
   -8.9440   18.6380  -31.6030 C   0  0  0  0  0  0  0  0  0  0  0  0
   -6.2310   19.2770  -33.2740 C   0  0  0  0  0  0  0  0  0  0  0  0
   -6.5050   17.9580  -33.6840 C   0  0  0  0  0  0  0  0  0  0  0  0
   -5.4900   17.1560  -34.2110 C   0  0  0  0  0  0  0  0  0  0  0  0
   -4.1940   17.6580  -34.3430 C   0  0  0  0  0  0  0  0  0  0  0  0
   -3.9050   18.9650  -33.9470 C   0  0  0  0  0  0  0  0  0  0  0  0
   -4.9120   19.7800  -33.4080 C   0  0  0  0  0  0  0  0  0  0  0  0
   -4.6140   21.0780  -32.9780 C   0  0  0  0  0  0  0  0  0  0  0  0
   -1.1540   19.9840  -30.3038 H   0  0  0  0  0  0  0  0  0  0  0  0
   -2.3104   19.6082  -31.6259 H   0  0  0  0  0  0  0  0  0  0  0  0
   -1.4228   21.1699  -31.6259 H   0  0  0  0  0  0  0  0  0  0  0  0
   -3.9930   20.7882  -30.6519 H   0  0  0  0  0  0  0  0  0  0  0  0
   -2.9645   20.6717  -29.1541 H   0  0  0  0  0  0  0  0  0  0  0  0
   -3.3680   22.9290  -30.9890 H   0  0  0  0  0  0  0  0  0  0  0  0
   -0.8986   22.1314  -30.5522 H   0  0  0  0  0  0  0  0  0  0  0  0
   -1.4574   23.8618  -30.7947 H   0  0  0  0  0  0  0  0  0  0  0  0
   -1.5389   22.9370  -27.9908 H   0  0  0  0  0  0  0  0  0  0  0  0
    0.1088   22.9962  -28.7038 H   0  0  0  0  0  0  0  0  0  0  0  0
   -0.9232   24.4665  -28.7038 H   0  0  0  0  0  0  0  0  0  0  0  0
   -4.5804   22.4665  -28.8189 H   0  0  0  0  0  0  0  0  0  0  0  0
   -2.9944   23.0092  -28.0880 H   0  0  0  0  0  0  0  0  0  0  0  0
   -5.0879   24.6873  -28.6799 H   0  0  0  0  0  0  0  0  0  0  0  0
   -3.3590   25.1774  -28.5648 H   0  0  0  0  0  0  0  0  0  0  0  0
   -5.9613   25.6357  -29.9872 H   0  0  0  0  0  0  0  0  0  0  0  0
   -5.2721   26.2192  -31.5415 H   0  0  0  0  0  0  0  0  0  0  0  0
   -6.9371   23.8673  -31.0050 H   0  0  0  0  0  0  0  0  0  0  0  0
   -6.4529   24.6123  -32.5818 H   0  0  0  0  0  0  0  0  0  0  0  0
   -7.7065   22.0522  -31.9039 H   0  0  0  0  0  0  0  0  0  0  0  0
   -8.7637   19.0589  -30.6028 H   0  0  0  0  0  0  0  0  0  0  0  0
  -10.0153   18.4179  -31.7205 H   0  0  0  0  0  0  0  0  0  0  0  0
   -8.3641   17.7107  -31.7205 H   0  0  0  0  0  0  0  0  0  0  0  0
   -7.5247   17.5567  -33.5887 H   0  0  0  0  0  0  0  0  0  0  0  0
   -5.7127   16.1250  -34.5232 H   0  0  0  0  0  0  0  0  0  0  0  0
   -3.3990   17.0223  -34.7599 H   0  0  0  0  0  0  0  0  0  0  0  0
   -2.8835   19.3577  -34.0580 H   0  0  0  0  0  0  0  0  0  0  0  0
   -3.5952   21.4729  -33.1044 H   0  0  0  0  0  0  0  0  0  0  0  0
  1  2  1  0
  2  3  1  0
  3  4  1  0
  4  5  1  0
  3  6  1  0
  6  7  1  0
  7  8  1  0
  8  9  1  0
  9 10  1  0
 10 11  1  0
 11 12  1  0
 12 13  2  0
 13 14  1  0
 14 15  1  0
 15 16  1  0
 14 17  2  0
 17 18  1  0
 18 19  2  0
 19 20  1  0
 20 21  2  0
 21 22  1  0
 22 23  2  0
 23 12  1  0
 22 17  1  0
  1 24  1  0
  1 25  1  0
  1 26  1  0
  2 27  1  0
  2 28  1  0
  3 29  1  0
  4 30  1  0
  4 31  1  0
  5 32  1  0
  5 33  1  0
  5 34  1  0
  6 35  1  0
  6 36  1  0
  7 37  1  0
  7 38  1  0
  9 39  1  0
  9 40  1  0
 10 41  1  0
 10 42  1  0
 13 43  1  0
 16 44  1  0
 16 45  1  0
 16 46  1  0
 18 47  1  0
 19 48  1  0
 20 49  1  0
 21 50  1  0
 23 51  1  0
M  CHG  1   3   1
M  END
>  <UniqueID>  (26) 
26

>  <SMILES>  (26) 
CC[NH+](CC)CCOCCOc1cc(OC)c2ccccc2c1

>  <Energy>  (26) 
51.99097343197735

>  <Genealogy>  (26) 
CC[NH+](CC)CCOCCOc1cc(OC)c2ccccc2c1 (protonated)
CC[NH+](CC)CCOCCOc1cc(OC)c2ccccc2c1 (3D coordinates assigned)
CC[NH+](CC)CCOCCOc1cc(OC)c2ccccc2c1 (optimized conformer: 51.99097343197735 kcal/mol)

>  <smiles>  (26) 
CCN(CC)CCOCCOc1cc(OC)c2ccccc2c1

>  <score_type>  (26) 
oracle

>  <origin>  (26) 
adg

>  <m_score__min__energy>  (26) 
-5.46

>  <m_primary>  (26) 
energy

$$$$
26:0
     RDKit          3D

 49 50  0  0  0  0  0  0  0  0999 V2000
   -4.5550   14.0420  -32.1850 C   0  0  0  0  0  0  0  0  0  0  0  0
   -4.6800   14.6660  -33.5890 C   0  0  0  0  0  0  0  0  0  0  0  0
   -5.4960   15.9230  -33.6840 N   0  0  1  0  0  0  0  0  0  0  0  0
   -6.8520   15.5870  -34.2040 C   0  0  0  0  0  0  0  0  0  0  0  0
   -5.6100   16.5560  -32.3350 C   0  0  0  0  0  0  0  0  0  0  0  0
   -6.3280   17.9300  -32.3590 C   0  0  0  0  0  0  0  0  0  0  0  0
   -5.9940   18.7440  -33.5580 N   0  0  1  0  0  0  0  0  0  0  0  0
   -6.0270   20.1860  -33.3490 C   0  0  0  0  0  0  0  0  0  0  0  0
   -5.0060   20.8450  -33.6920 O   0  0  0  0  0  0  0  0  0  0  0  0
   -7.1640   20.9350  -32.7110 C   0  0  0  0  0  0  0  0  0  0  0  0
   -8.4510   20.3580  -32.6420 C   0  0  0  0  0  0  0  0  0  0  0  0
   -9.5210   21.0510  -32.0740 C   0  0  0  0  0  0  0  0  0  0  0  0
   -9.3300   22.3270  -31.5530 C   0  0  0  0  0  0  0  0  0  0  0  0
   -8.0710   22.9190  -31.5990 C   0  0  0  0  0  0  0  0  0  0  0  0
   -6.9740   22.2380  -32.1650 C   0  0  0  0  0  0  0  0  0  0  0  0
   -5.6830   22.8820  -32.1870 N   0  0  0  0  0  0  0  0  0  0  0  0
   -4.9000   23.1630  -30.9820 C   0  0  0  0  0  0  0  0  0  0  0  0
   -4.9240   24.6350  -30.6640 C   0  0  0  0  0  0  0  0  0  0  0  0
   -6.1600   25.2940  -30.1280 C   0  0  0  0  0  0  0  0  0  0  0  0
   -3.9120   25.3010  -30.8280 O   0  0  0  0  0  0  0  0  0  0  0  0
   -4.7430   18.3270  -34.2120 C   0  0  0  0  0  0  0  0  0  0  0  0
   -4.8000   16.8470  -34.6530 C   0  0  0  0  0  0  0  0  0  0  0  0
   -4.7108   14.8198  -31.4229 H   0  0  0  0  0  0  0  0  0  0  0  0
   -5.3131   13.2541  -32.0651 H   0  0  0  0  0  0  0  0  0  0  0  0
   -3.5519   13.6069  -32.0651 H   0  0  0  0  0  0  0  0  0  0  0  0
   -3.6653   14.8965  -33.9457 H   0  0  0  0  0  0  0  0  0  0  0  0
   -5.2143   13.9208  -34.1966 H   0  0  0  0  0  0  0  0  0  0  0  0
   -7.5367   15.4173  -33.3600 H   0  0  0  0  0  0  0  0  0  0  0  0
   -7.2260   16.4196  -34.8179 H   0  0  0  0  0  0  0  0  0  0  0  0
   -6.7940   14.6761  -34.8179 H   0  0  0  0  0  0  0  0  0  0  0  0
   -6.1754   15.8784  -31.6784 H   0  0  0  0  0  0  0  0  0  0  0  0
   -4.5870   16.7302  -31.9702 H   0  0  0  0  0  0  0  0  0  0  0  0
   -7.4143   17.7572  -32.3451 H   0  0  0  0  0  0  0  0  0  0  0  0
   -5.9880   18.4922  -31.4768 H   0  0  0  0  0  0  0  0  0  0  0  0
   -6.7570   18.5670  -34.2510 H   0  0  0  0  0  0  0  0  0  0  0  0
   -8.6128   19.3463  -33.0423 H   0  0  0  0  0  0  0  0  0  0  0  0
  -10.5178   20.5873  -32.0381 H   0  0  0  0  0  0  0  0  0  0  0  0
  -10.1754   22.8689  -31.1040 H   0  0  0  0  0  0  0  0  0  0  0  0
   -7.9304   23.9300  -31.1889 H   0  0  0  0  0  0  0  0  0  0  0  0
   -5.1950   23.0120  -33.1000 H   0  0  0  0  0  0  0  0  0  0  0  0
   -5.3257   22.6036  -30.1359 H   0  0  0  0  0  0  0  0  0  0  0  0
   -3.8584   22.8554  -31.1568 H   0  0  0  0  0  0  0  0  0  0  0  0
   -6.1351   25.2807  -29.0284 H   0  0  0  0  0  0  0  0  0  0  0  0
   -6.2032   26.3348  -30.4813 H   0  0  0  0  0  0  0  0  0  0  0  0
   -7.0483   24.7498  -30.4813 H   0  0  0  0  0  0  0  0  0  0  0  0
   -4.5753   18.9576  -35.0976 H   0  0  0  0  0  0  0  0  0  0  0  0
   -3.9216   18.4402  -33.4892 H   0  0  0  0  0  0  0  0  0  0  0  0
   -5.3314   16.7970  -35.6148 H   0  0  0  0  0  0  0  0  0  0  0  0
   -3.7572   16.5023  -34.7140 H   0  0  0  0  0  0  0  0  0  0  0  0
  1  2  1  0
  3  2  1  1
  3  4  1  0
  3  5  1  0
  5  6  1  0
  6  7  1  0
  7  8  1  0
  8  9  2  0
  8 10  1  0
 10 11  2  0
 11 12  1  0
 12 13  2  0
 13 14  1  0
 14 15  2  0
 15 16  1  0
 16 17  1  0
 17 18  1  0
 18 19  1  0
 18 20  2  0
  7 21  1  0
 21 22  1  0
 22  3  1  0
 15 10  1  0
  1 23  1  0
  1 24  1  0
  1 25  1  0
  2 26  1  0
  2 27  1  0
  4 28  1  0
  4 29  1  0
  4 30  1  0
  5 31  1  0
  5 32  1  0
  6 33  1  0
  6 34  1  0
  7 35  1  6
 11 36  1  0
 12 37  1  0
 13 38  1  0
 14 39  1  0
 16 40  1  0
 17 41  1  0
 17 42  1  0
 19 43  1  0
 19 44  1  0
 19 45  1  0
 21 46  1  0
 21 47  1  0
 22 48  1  0
 22 49  1  0
M  CHG  2   3   1   7   1
M  END
>  <UniqueID>  (27) 
27

>  <SMILES>  (27) 
CC[N+]1(C)CC[NH+](C(=O)c2ccccc2NCC(C)=O)CC1

>  <Energy>  (27) 
81.59754628022023

>  <Genealogy>  (27) 
CC[N+]1(C)CC[NH+](C(=O)c2ccccc2NCC(C)=O)CC1 (protonated)
CC[N+]1(C)CC[NH+](C(=O)c2ccccc2NCC(C)=O)CC1 (3D coordinates assigned)
CC[N+]1(C)CC[NH+](C(=O)c2ccccc2NCC(C)=O)CC1 (nonaromatic ring conformer: 81.59754628022023 kcal/mol)

>  <smiles>  (27) 
CC[N+]1(C)CCN(C(=O)c2ccccc2NCC(C)=O)CC1

>  <score_type>  (27) 
oracle

>  <origin>  (27) 
adg

>  <m_score__min__energy>  (27) 
-7.6299999999999999

>  <m_primary>  (27) 
energy

$$$$
