0:0
     RDKit          3D

 36 38  0  0  0  0  0  0  0  0999 V2000
   -1.6550   20.7780  -31.5030 C   0  0  0  0  0  0  0  0  0  0  0  0
   -2.0860   20.0410  -32.7080 N   0  0  0  0  0  0  0  0  0  0  0  0
   -3.1480   19.0450  -32.3850 C   0  0  0  0  0  0  0  0  0  0  0  0
   -4.5640   19.4480  -32.8460 C   0  0  0  0  0  0  0  0  0  0  0  0
   -4.7260   20.9020  -32.8230 N   0  0  0  0  0  0  0  0  0  0  0  0
   -5.9190   21.4850  -32.2830 C   0  0  0  0  0  0  0  0  0  0  0  0
   -7.1390   20.8200  -32.4680 C   0  0  0  0  0  0  0  0  0  0  0  0
   -8.3230   21.3580  -31.9650 C   0  0  0  0  0  0  0  0  0  0  0  0
   -8.3080   22.5680  -31.2710 C   0  0  0  0  0  0  0  0  0  0  0  0
   -7.0990   23.2520  -31.0710 C   0  0  0  0  0  0  0  0  0  0  0  0
   -7.0810   24.4690  -30.3710 C   0  0  0  0  0  0  0  0  0  0  0  0
   -5.8780   25.1470  -30.1710 C   0  0  0  0  0  0  0  0  0  0  0  0
   -4.6830   24.6200  -30.6640 C   0  0  0  0  0  0  0  0  0  0  0  0
   -3.4890   25.3000  -30.4580 O   0  0  0  0  0  0  0  0  0  0  0  0
   -4.6840   23.4100  -31.3630 C   0  0  0  0  0  0  0  0  0  0  0  0
   -5.8880   22.7110  -31.5780 C   0  0  0  0  0  0  0  0  0  0  0  0
   -3.7300   21.7650  -33.4600 C   0  0  0  0  0  0  0  0  0  0  0  0
   -2.4640   20.9660  -33.8010 C   0  0  0  0  0  0  0  0  0  0  0  0
   -1.9752   20.2305  -30.6043 H   0  0  0  0  0  0  0  0  0  0  0  0
   -0.5591   20.8728  -31.5036 H   0  0  0  0  0  0  0  0  0  0  0  0
   -2.1097   21.7796  -31.5036 H   0  0  0  0  0  0  0  0  0  0  0  0
   -1.2450   19.5110  -33.0430 H   0  0  0  0  0  0  0  0  0  0  0  0
   -2.8861   18.0936  -32.8711 H   0  0  0  0  0  0  0  0  0  0  0  0
   -3.1850   18.9715  -31.2881 H   0  0  0  0  0  0  0  0  0  0  0  0
   -4.7264   19.0836  -33.8711 H   0  0  0  0  0  0  0  0  0  0  0  0
   -5.2979   19.0015  -32.1590 H   0  0  0  0  0  0  0  0  0  0  0  0
   -7.1626   19.8657  -33.0146 H   0  0  0  0  0  0  0  0  0  0  0  0
   -9.2736   20.8256  -32.1162 H   0  0  0  0  0  0  0  0  0  0  0  0
   -9.2465   22.9872  -30.8794 H   0  0  0  0  0  0  0  0  0  0  0  0
   -8.0188   24.8895  -29.9788 H   0  0  0  0  0  0  0  0  0  0  0  0
   -5.8712   26.1006  -29.6227 H   0  0  0  0  0  0  0  0  0  0  0  0
   -3.7384   23.0006  -31.7479 H   0  0  0  0  0  0  0  0  0  0  0  0
   -4.1531   22.1845  -34.3847 H   0  0  0  0  0  0  0  0  0  0  0  0
   -3.4630   22.5736  -32.7636 H   0  0  0  0  0  0  0  0  0  0  0  0
   -2.6473   20.3815  -34.7146 H   0  0  0  0  0  0  0  0  0  0  0  0
   -1.6388   21.6787  -33.9463 H   0  0  0  0  0  0  0  0  0  0  0  0
  1  2  1  0
  2  3  1  0
  3  4  1  0
  4  5  1  0
  5  6  1  0
  6  7  2  0
  7  8  1  0
  8  9  2  0
  9 10  1  0
 10 11  2  0
 11 12  1  0
 12 13  2  0
 13 14  1  0
 13 15  1  0
 15 16  2  0
  5 17  1  0
 17 18  1  0
 18  2  1  0
 16  6  1  0
 16 10  1  0
  1 19  1  0
  1 20  1  0
  1 21  1  0
  2 22  1  0
  3 23  1  0
  3 24  1  0
  4 25  1  0
  4 26  1  0
  7 27  1  0
  8 28  1  0
  9 29  1  0
 11 30  1  0
 12 31  1  0
 15 32  1  0
 17 33  1  0
 17 34  1  0
 18 35  1  0
 18 36  1  0
M  CHG  2   2   1  14  -1
M  END
>  <UniqueID>  (1) 
1

>  <SMILES>  (1) 
C[NH+]1CCN(c2cccc3ccc([O-])cc23)CC1

>  <Energy>  (1) 
54.24137673425261

>  <Genealogy>  (1) 
C[NH+]1CCN(c2cccc3ccc([O-])cc23)CC1 (protonated)
C[NH+]1CCN(c2cccc3ccc([O-])cc23)CC1 (3D coordinates assigned)
C[NH+]1CCN(c2cccc3ccc([O-])cc23)CC1 (nonaromatic ring conformer: 54.24137673425261 kcal/mol)

>  <smiles>  (1) 
CN1CCN(c2cccc3ccc(O)cc23)CC1

>  <score_type>  (1) 
oracle

>  <origin>  (1) 
adg

>  <m_score__min__energy>  (1) 
-9.5399999999999991

>  <m_primary>  (1) 
energy

$$$$
1:0
     RDKit          3D

 41 42  0  0  0  0  0  0  0  0999 V2000
   -6.1130   17.1820  -32.4480 C   0  0  0  0  0  0  0  0  0  0  0  0
   -5.8970   18.1710  -31.3080 C   0  0  0  0  0  0  0  0  0  0  0  0
   -5.9150   19.5480  -31.8090 N   0  0  0  0  0  0  0  0  0  0  0  0
   -7.1280   20.3200  -31.7970 C   0  0  0  0  0  0  0  0  0  0  0  0
   -8.3090   19.8010  -32.3530 C   0  0  0  0  0  0  0  0  0  0  0  0
   -9.4880   20.5550  -32.3320 C   0  0  0  0  0  0  0  0  0  0  0  0
   -9.4940   21.8280  -31.7550 C   0  0  0  0  0  0  0  0  0  0  0  0
   -8.3220   22.3500  -31.1990 C   0  0  0  0  0  0  0  0  0  0  0  0
   -7.1440   21.5990  -31.2200 C   0  0  0  0  0  0  0  0  0  0  0  0
   -4.4640   20.2240  -32.4880 S   0  0  0  0  0  0  0  0  0  0  0  0
   -4.7810   20.7940  -33.8420 O   0  0  0  0  0  0  0  0  0  0  0  0
   -3.4090   19.1630  -32.6340 O   0  0  0  0  0  0  0  0  0  0  0  0
   -3.8530   21.4800  -31.4160 C   0  0  0  0  0  0  0  0  0  0  0  0
   -2.9330   21.1680  -30.4100 C   0  0  0  0  0  0  0  0  0  0  0  0
   -2.4510   22.1700  -29.5650 C   0  0  0  0  0  0  0  0  0  0  0  0
   -2.8860   23.5010  -29.7160 C   0  0  0  0  0  0  0  0  0  0  0  0
   -2.4220   24.5360  -28.8890 O   0  0  0  0  0  0  0  0  0  0  0  0
   -2.5990   24.5800  -27.4760 C   0  0  0  0  0  0  0  0  0  0  0  0
   -3.8130   23.8160  -30.7230 C   0  0  0  0  0  0  0  0  0  0  0  0
   -4.2300   25.1500  -30.8540 O   0  0  0  0  0  0  0  0  0  0  0  0
   -5.5110   25.6380  -30.4660 C   0  0  0  0  0  0  0  0  0  0  0  0
   -4.2960   22.7980  -31.5670 C   0  0  0  0  0  0  0  0  0  0  0  0
   -6.3304   16.1865  -32.0336 H   0  0  0  0  0  0  0  0  0  0  0  0
   -6.9597   17.5146  -33.0665 H   0  0  0  0  0  0  0  0  0  0  0  0
   -5.2048   17.1313  -33.0665 H   0  0  0  0  0  0  0  0  0  0  0  0
   -6.6982   18.0463  -30.5647 H   0  0  0  0  0  0  0  0  0  0  0  0
   -4.9173   17.9738  -30.8484 H   0  0  0  0  0  0  0  0  0  0  0  0
   -8.3072   18.7988  -32.8064 H   0  0  0  0  0  0  0  0  0  0  0  0
  -10.4103   20.1455  -32.7698 H   0  0  0  0  0  0  0  0  0  0  0  0
  -10.4212   22.4196  -31.7383 H   0  0  0  0  0  0  0  0  0  0  0  0
   -8.3275   23.3520  -30.7451 H   0  0  0  0  0  0  0  0  0  0  0  0
   -6.2238   22.0127  -30.7817 H   0  0  0  0  0  0  0  0  0  0  0  0
   -2.5882   20.1310  -30.2840 H   0  0  0  0  0  0  0  0  0  0  0  0
   -1.7268   21.9180  -28.7763 H   0  0  0  0  0  0  0  0  0  0  0  0
   -1.6464   24.3432  -26.9796 H   0  0  0  0  0  0  0  0  0  0  0  0
   -2.9270   25.5870  -27.1787 H   0  0  0  0  0  0  0  0  0  0  0  0
   -3.3603   23.8438  -27.1787 H   0  0  0  0  0  0  0  0  0  0  0  0
   -5.5767   25.6630  -29.3683 H   0  0  0  0  0  0  0  0  0  0  0  0
   -5.6529   26.6532  -30.8651 H   0  0  0  0  0  0  0  0  0  0  0  0
   -6.2924   24.9746  -30.8651 H   0  0  0  0  0  0  0  0  0  0  0  0
   -5.0277   23.0411  -32.3515 H   0  0  0  0  0  0  0  0  0  0  0  0
  1  2  1  0
  2  3  1  0
  3  4  1  0
  4  5  2  0
  5  6  1  0
  6  7  2  0
  7  8  1  0
  8  9  2  0
  3 10  1  0
 10 11  2  0
 10 12  2  0
 10 13  1  0
 13 14  2  0
 14 15  1  0
 15 16  2  0
 16 17  1  0
 17 18  1  0
 16 19  1  0
 19 20  1  0
 20 21  1  0
 19 22  2  0
  9  4  1  0
 22 13  1  0
  1 23  1  0
  1 24  1  0
  1 25  1  0
  2 26  1  0
  2 27  1  0
  5 28  1  0
  6 29  1  0
  7 30  1  0
  8 31  1  0
  9 32  1  0
 14 33  1  0
 15 34  1  0
 18 35  1  0
 18 36  1  0
 18 37  1  0
 21 38  1  0
 21 39  1  0
 21 40  1  0
 22 41  1  0
M  END
>  <UniqueID>  (2) 
2

>  <SMILES>  (2) 
CCN(c1ccccc1)S(=O)(=O)c1ccc(OC)c(OC)c1

>  <Energy>  (2) 
41.67016696672509

>  <Genealogy>  (2) 
CCN(c1ccccc1)S(=O)(=O)c1ccc(OC)c(OC)c1 (3D coordinates assigned)
CCN(c1ccccc1)S(=O)(=O)c1ccc(OC)c(OC)c1 (optimized conformer: 41.67016696672509 kcal/mol)

>  <smiles>  (2) 
CCN(c1ccccc1)S(=O)(=O)c1ccc(OC)c(OC)c1

>  <score_type>  (2) 
oracle

>  <origin>  (2) 
adg

>  <m_score__min__energy>  (2) 
-7.5599999999999996

>  <m_primary>  (2) 
energy

$$$$
2:0
     RDKit          3D

 44 46  0  0  0  0  0  0  0  0999 V2000
   -2.4880   21.3400  -30.7800 C   0  0  0  0  0  0  0  0  0  0  0  0
   -3.7980   21.1240  -30.0100 C   0  0  0  0  0  0  0  0  0  0  0  0
   -4.8820   22.1010  -30.2990 N   0  0  2  0  0  0  0  0  0  0  0  0
   -5.0310   22.3580  -31.7260 C   0  0  0  0  0  0  0  0  0  0  0  0
   -4.2820   23.1390  -32.2970 O   0  0  0  0  0  0  0  0  0  0  0  0
   -6.0640   21.5930  -32.5280 C   0  0  0  0  0  0  0  0  0  0  0  0
   -5.5750   20.2320  -32.9530 C   0  0  0  0  0  0  0  0  0  0  0  0
   -4.2500   20.0620  -33.3850 C   0  0  0  0  0  0  0  0  0  0  0  0
   -3.8000   18.8120  -33.8190 C   0  0  0  0  0  0  0  0  0  0  0  0
   -4.6740   17.7160  -33.8370 C   0  0  0  0  0  0  0  0  0  0  0  0
   -4.2340   16.4570  -34.2730 C   0  0  0  0  0  0  0  0  0  0  0  0
   -5.1160   15.3720  -34.2910 C   0  0  0  0  0  0  0  0  0  0  0  0
   -6.4400   15.5360  -33.8770 C   0  0  0  0  0  0  0  0  0  0  0  0
   -6.8920   16.7850  -33.4410 C   0  0  0  0  0  0  0  0  0  0  0  0
   -6.0150   17.8820  -33.4150 C   0  0  0  0  0  0  0  0  0  0  0  0
   -6.4570   19.1400  -32.9810 C   0  0  0  0  0  0  0  0  0  0  0  0
   -4.8550   23.3240  -29.4320 C   0  0  2  0  0  0  0  0  0  0  0  0
   -5.9820   24.3010  -29.7640 C   0  0  0  0  0  0  0  0  0  0  0  0
   -5.3390   25.4200  -30.5690 C   0  0  0  0  0  0  0  0  0  0  0  0
   -3.8830   25.2940  -30.4790 N   0  0  0  0  0  0  0  0  0  0  0  0
   -3.5980   24.1980  -29.5520 C   0  0  0  0  0  0  0  0  0  0  0  0
   -1.6617   21.4762  -30.0668 H   0  0  0  0  0  0  0  0  0  0  0  0
   -2.2856   20.4631  -31.4125 H   0  0  0  0  0  0  0  0  0  0  0  0
   -2.5778   22.2355  -31.4125 H   0  0  0  0  0  0  0  0  0  0  0  0
   -4.1733   20.1196  -30.2557 H   0  0  0  0  0  0  0  0  0  0  0  0
   -3.5479   21.2577  -28.9472 H   0  0  0  0  0  0  0  0  0  0  0  0
   -5.7400   21.5710  -30.0150 H   0  0  0  0  0  0  0  0  0  0  0  0
   -6.9661   21.4667  -31.9114 H   0  0  0  0  0  0  0  0  0  0  0  0
   -6.2740   22.1717  -33.4396 H   0  0  0  0  0  0  0  0  0  0  0  0
   -3.5607   20.9193  -33.3819 H   0  0  0  0  0  0  0  0  0  0  0  0
   -2.7575   18.6878  -34.1473 H   0  0  0  0  0  0  0  0  0  0  0  0
   -3.1927   16.3232  -34.6014 H   0  0  0  0  0  0  0  0  0  0  0  0
   -4.7662   14.3865  -34.6322 H   0  0  0  0  0  0  0  0  0  0  0  0
   -7.1296   14.6791  -33.8941 H   0  0  0  0  0  0  0  0  0  0  0  0
   -7.9361   16.9089  -33.1178 H   0  0  0  0  0  0  0  0  0  0  0  0
   -7.5010   19.2721  -32.6606 H   0  0  0  0  0  0  0  0  0  0  0  0
   -4.9272   22.8739  -28.4309 H   0  0  0  0  0  0  0  0  0  0  0  0
   -6.7601   23.8000  -30.3587 H   0  0  0  0  0  0  0  0  0  0  0  0
   -6.4657   24.6845  -28.8535 H   0  0  0  0  0  0  0  0  0  0  0  0
   -5.6517   25.3446  -31.6209 H   0  0  0  0  0  0  0  0  0  0  0  0
   -5.6538   26.3950  -30.1686 H   0  0  0  0  0  0  0  0  0  0  0  0
   -3.5130   25.0350  -31.4230 H   0  0  0  0  0  0  0  0  0  0  0  0
   -2.7618   23.5951  -29.9357 H   0  0  0  0  0  0  0  0  0  0  0  0
   -3.3220   24.5997  -28.5659 H   0  0  0  0  0  0  0  0  0  0  0  0
  1  2  1  0
  2  3  1  0
  3  4  1  0
  4  5  2  0
  4  6  1  0
  6  7  1  0
  7  8  2  0
  8  9  1  0
  9 10  2  0
 10 11  1  0
 11 12  2  0
 12 13  1  0
 13 14  2  0
 14 15  1  0
 15 16  2  0
  3 17  1  0
 17 18  1  0
 18 19  1  0
 19 20  1  0
 20 21  1  0
 16  7  1  0
 21 17  1  0
 15 10  1  0
  1 22  1  0
  1 23  1  0
  1 24  1  0
  2 25  1  0
  2 26  1  0
  3 27  1  1
  6 28  1  0
  6 29  1  0
  8 30  1  0
  9 31  1  0
 11 32  1  0
 12 33  1  0
 13 34  1  0
 14 35  1  0
 16 36  1  0
 17 37  1  1
 18 38  1  0
 18 39  1  0
 19 40  1  0
 19 41  1  0
 20 42  1  0
 21 43  1  0
 21 44  1  0
M  CHG  1   3   1
M  END
>  <UniqueID>  (3) 
3

>  <SMILES>  (3) 
CC[N@H+](C(=O)Cc1ccc2ccccc2c1)[C@@H]1CCNC1

>  <Energy>  (3) 
59.902210120386

>  <Genealogy>  (3) 
CC[NH+](C(=O)Cc1ccc2ccccc2c1)C1CCNC1 (protonated)
CC[N@H+](C(=O)Cc1ccc2ccccc2c1)[C@@H]1CCNC1 (chirality)
CC[N@H+](C(=O)Cc1ccc2ccccc2c1)[C@@H]1CCNC1 (3D coordinates assigned)
CC[N@H+](C(=O)Cc1ccc2ccccc2c1)[C@@H]1CCNC1 (nonaromatic ring conformer: 59.902210120386 kcal/mol)

>  <smiles>  (3) 
CCN(C(=O)Cc1ccc2ccccc2c1)C1CCNC1

>  <score_type>  (3) 
oracle

>  <origin>  (3) 
adg

>  <m_score__min__energy>  (3) 
-8.7699999999999996

>  <m_primary>  (3) 
energy

$$$$
3:0
     RDKit          3D

 39 42  0  0  0  0  0  0  0  0999 V2000
   -2.8770   25.6670  -30.8190 H   0  0  0  0  0  0  0  0  0  0  0  0
   -3.4660   25.3030  -30.0790 O   0  0  0  0  0  0  0  0  0  0  0  0
   -4.7500   24.8270  -30.3400 C   0  0  0  0  0  0  0  0  0  0  0  0
   -5.8470   25.2910  -29.6020 C   0  0  0  0  0  0  0  0  0  0  0  0
   -5.6995   26.0442  -28.8140 H   0  0  0  0  0  0  0  0  0  0  0  0
   -7.1270   24.7990  -29.8650 C   0  0  0  0  0  0  0  0  0  0  0  0
   -7.9851   25.1601  -29.2791 H   0  0  0  0  0  0  0  0  0  0  0  0
   -7.3200   23.8480  -30.8720 C   0  0  0  0  0  0  0  0  0  0  0  0
   -8.3270   23.4492  -31.0640 H   0  0  0  0  0  0  0  0  0  0  0  0
   -6.2300   23.4000  -31.6400 C   0  0  0  0  0  0  0  0  0  0  0  0
   -6.4000   22.3690  -32.6870 C   0  0  0  0  0  0  0  0  0  0  0  0
   -6.9766   22.6460  -33.5819 H   0  0  0  0  0  0  0  0  0  0  0  0
   -5.9030   21.1140  -32.6310 C   0  0  0  0  0  0  0  0  0  0  0  0
   -4.4510   20.8320  -32.7330 C   0  0  0  0  0  0  0  0  0  0  0  0
   -3.8180   19.8910  -31.9810 N   0  0  0  0  0  0  0  0  0  0  0  0
   -2.5560   19.9590  -32.4250 C   0  0  0  0  0  0  0  0  0  0  0  0
   -1.4600   19.2130  -31.9990 C   0  0  0  0  0  0  0  0  0  0  0  0
   -1.5583   18.4592  -31.2040 H   0  0  0  0  0  0  0  0  0  0  0  0
   -0.2220   19.4580  -32.6220 C   0  0  0  0  0  0  0  0  0  0  0  0
    0.6677   18.8898  -32.3127 H   0  0  0  0  0  0  0  0  0  0  0  0
   -0.1150   20.4310  -33.6440 C   0  0  0  0  0  0  0  0  0  0  0  0
    0.8572   20.6161  -34.1241 H   0  0  0  0  0  0  0  0  0  0  0  0
   -1.2470   21.1630  -34.0490 C   0  0  0  0  0  0  0  0  0  0  0  0
   -1.1806   21.9208  -34.8436 H   0  0  0  0  0  0  0  0  0  0  0  0
   -2.4550   20.8940  -33.4080 C   0  0  0  0  0  0  0  0  0  0  0  0
   -3.6470   21.4640  -33.6310 N   0  0  0  0  0  0  0  0  0  0  0  0
   -6.8300   19.9750  -32.3930 C   0  0  0  0  0  0  0  0  0  0  0  0
   -8.1680   20.2130  -32.0250 C   0  0  0  0  0  0  0  0  0  0  0  0
   -8.5297   21.2462  -31.9170 H   0  0  0  0  0  0  0  0  0  0  0  0
   -9.0400   19.1440  -31.7960 C   0  0  0  0  0  0  0  0  0  0  0  0
  -10.0844   19.3386  -31.5107 H   0  0  0  0  0  0  0  0  0  0  0  0
   -8.5870   17.8300  -31.9290 C   0  0  0  0  0  0  0  0  0  0  0  0
   -9.2744   16.9905  -31.7479 H   0  0  0  0  0  0  0  0  0  0  0  0
   -7.2610   17.5810  -32.2920 C   0  0  0  0  0  0  0  0  0  0  0  0
   -6.9057   16.5453  -32.3970 H   0  0  0  0  0  0  0  0  0  0  0  0
   -6.3850   18.6460  -32.5220 C   0  0  0  0  0  0  0  0  0  0  0  0
   -5.3415   18.4440  -32.8055 H   0  0  0  0  0  0  0  0  0  0  0  0
   -4.9420   23.8770  -31.3500 C   0  0  0  0  0  0  0  0  0  0  0  0
   -4.0788   23.5022  -31.9196 H   0  0  0  0  0  0  0  0  0  0  0  0
  1  2  1  0
  2  3  1  0
  3  4  2  0
  4  5  1  0
  4  6  1  0
  6  7  1  0
  6  8  2  0
  8  9  1  0
  8 10  1  0
 10 11  1  0
 11 12  1  0
 11 13  2  0
 13 14  1  0
 14 15  2  0
 15 16  1  0
 16 17  2  0
 17 18  1  0
 17 19  1  0
 19 20  1  0
 19 21  2  0
 21 22  1  0
 21 23  1  0
 23 24  1  0
 23 25  2  0
 25 26  1  0
 13 27  1  0
 27 28  2  0
 28 29  1  0
 28 30  1  0
 30 31  1  0
 30 32  2  0
 32 33  1  0
 32 34  1  0
 34 35  1  0
 34 36  2  0
 36 37  1  0
 10 38  2  0
 38 39  1  0
 38  3  1  0
 26 14  1  0
 36 27  1  0
 25 16  1  0
M  CHG  1  26  -1
M  END
>  <UniqueID>  (4) 
4

>  <SMILES>  (4) 
Oc1cccc(/C=C(/c2ccccc2)c2nc3ccccc3[n-]2)c1

>  <Energy>  (4) 
91.51801729871246

>  <Genealogy>  (4) 
Oc1cccc(C=C(c2ccccc2)c2nc3ccccc3[n-]2)c1 (protonated)
Oc1cccc(/C=C(/c2ccccc2)c2nc3ccccc3[n-]2)c1 (cis-trans isomerization)
Oc1cccc(/C=C(/c2ccccc2)c2nc3ccccc3[n-]2)c1 (3D coordinates assigned)
Oc1cccc(/C=C(/c2ccccc2)c2nc3ccccc3[n-]2)c1 (optimized conformer: 91.51801729871246 kcal/mol)

>  <smiles>  (4) 
Oc1cccc(C=C(c2ccccc2)c2nc3ccccc3[nH]2)c1

>  <score_type>  (4) 
oracle

>  <origin>  (4) 
adg

>  <m_score__min__energy>  (4) 
-9.5500000000000007

>  <m_primary>  (4) 
energy

$$$$
4:0
     RDKit          3D

 47 51  0  0  0  0  0  0  0  0999 V2000
   -9.3380   19.6380  -32.6770 C   0  0  0  0  0  0  0  0  0  0  0  0
   -7.9790   19.3130  -32.6590 C   0  0  0  0  0  0  0  0  0  0  0  0
   -7.0430   20.2340  -32.1800 C   0  0  0  0  0  0  0  0  0  0  0  0
   -7.4590   21.4960  -31.7110 C   0  0  0  0  0  0  0  0  0  0  0  0
   -6.4670   22.4760  -31.2020 C   0  0  0  0  0  0  0  0  0  0  0  0
   -6.6740   23.8720  -31.3870 C   0  0  0  0  0  0  0  0  0  0  0  0
   -5.7400   24.8090  -30.9080 C   0  0  0  0  0  0  0  0  0  0  0  0
   -4.6160   24.3200  -30.2500 C   0  0  0  0  0  0  0  0  0  0  0  0
   -3.6020   25.0090  -29.7140 N   0  0  0  0  0  0  0  0  0  0  0  0
   -2.7830   24.0490  -29.2060 C   0  0  0  0  0  0  0  0  0  0  0  0
   -1.5040   24.3240  -28.5030 C   0  0  0  0  0  0  0  0  0  0  0  0
   -0.5190   23.3250  -28.4280 C   0  0  0  0  0  0  0  0  0  0  0  0
    0.6920   23.5630  -27.7710 C   0  0  0  0  0  0  0  0  0  0  0  0
    0.9510   24.8080  -27.1700 C   0  0  0  0  0  0  0  0  0  0  0  0
    2.2050   25.0560  -26.4890 N   0  0  0  0  0  0  0  0  0  0  0  0
    3.4770   25.2450  -27.1720 C   0  0  0  0  0  0  0  0  0  0  0  0
    4.5330   25.2980  -26.0770 C   0  0  0  0  0  0  0  0  0  0  0  0
    3.7750   25.5810  -24.7850 C   0  0  0  0  0  0  0  0  0  0  0  0
    2.3410   25.1440  -25.0420 C   0  0  0  0  0  0  0  0  0  0  0  0
   -0.0380   25.8060  -27.2440 C   0  0  0  0  0  0  0  0  0  0  0  0
   -1.2480   25.5680  -27.9000 C   0  0  0  0  0  0  0  0  0  0  0  0
   -3.2510   22.7860  -29.4090 N   0  0  0  0  0  0  0  0  0  0  0  0
   -4.4040   22.9900  -30.0680 C   0  0  0  0  0  0  0  0  0  0  0  0
   -5.3030   22.0320  -30.5270 C   0  0  0  0  0  0  0  0  0  0  0  0
   -8.8310   21.8110  -31.7350 C   0  0  0  0  0  0  0  0  0  0  0  0
   -9.7630   20.8860  -32.2150 C   0  0  0  0  0  0  0  0  0  0  0  0
  -10.0726   18.9116  -33.0547 H   0  0  0  0  0  0  0  0  0  0  0  0
   -7.6451   18.3300  -33.0227 H   0  0  0  0  0  0  0  0  0  0  0  0
   -5.9747   19.9719  -32.1691 H   0  0  0  0  0  0  0  0  0  0  0  0
   -7.5754   24.2227  -31.9110 H   0  0  0  0  0  0  0  0  0  0  0  0
   -5.8930   25.8892  -31.0487 H   0  0  0  0  0  0  0  0  0  0  0  0
   -3.4870   26.0460  -29.7090 H   0  0  0  0  0  0  0  0  0  0  0  0
   -0.7026   22.3444  -28.8914 H   0  0  0  0  0  0  0  0  0  0  0  0
    1.4506   22.7678  -27.7236 H   0  0  0  0  0  0  0  0  0  0  0  0
    3.6741   24.4045  -27.8537 H   0  0  0  0  0  0  0  0  0  0  0  0
    3.4776   26.1622  -27.7792 H   0  0  0  0  0  0  0  0  0  0  0  0
    5.0624   24.3362  -26.0081 H   0  0  0  0  0  0  0  0  0  0  0  0
    5.2900   26.0697  -26.2805 H   0  0  0  0  0  0  0  0  0  0  0  0
    4.2076   25.0057  -23.9532 H   0  0  0  0  0  0  0  0  0  0  0  0
    3.8309   26.6439  -24.5072 H   0  0  0  0  0  0  0  0  0  0  0  0
    2.1506   24.1644  -24.5793 H   0  0  0  0  0  0  0  0  0  0  0  0
    1.6189   25.8527  -24.6104 H   0  0  0  0  0  0  0  0  0  0  0  0
    0.1440   26.7863  -26.7793 H   0  0  0  0  0  0  0  0  0  0  0  0
   -2.0082   26.3618  -27.9453 H   0  0  0  0  0  0  0  0  0  0  0  0
   -5.1151   20.9596  -30.3701 H   0  0  0  0  0  0  0  0  0  0  0  0
   -9.1722   22.7922  -31.3734 H   0  0  0  0  0  0  0  0  0  0  0  0
  -10.8329   21.1414  -32.2289 H   0  0  0  0  0  0  0  0  0  0  0  0
  1  2  2  0
  2  3  1  0
  3  4  2  0
  4  5  1  0
  5  6  2  0
  6  7  1  0
  7  8  2  0
  8  9  1  0
  9 10  1  0
 10 11  1  0
 11 12  2  0
 12 13  1  0
 13 14  2  0
 14 15  1  0
 15 16  1  0
 16 17  1  0
 17 18  1  0
 18 19  1  0
 14 20  1  0
 20 21  2  0
 10 22  2  0
 22 23  1  0
 23 24  2  0
  4 25  1  0
 25 26  2  0
 26  1  1  0
 24  5  1  0
 23  8  1  0
 21 11  1  0
 19 15  1  0
  1 27  1  0
  2 28  1  0
  3 29  1  0
  6 30  1  0
  7 31  1  0
  9 32  1  0
 12 33  1  0
 13 34  1  0
 16 35  1  0
 16 36  1  0
 17 37  1  0
 17 38  1  0
 18 39  1  0
 18 40  1  0
 19 41  1  0
 19 42  1  0
 20 43  1  0
 21 44  1  0
 24 45  1  0
 25 46  1  0
 26 47  1  0
M  END
>  <UniqueID>  (5) 
5

>  <SMILES>  (5) 
c1ccc(-c2ccc3[nH]c(-c4ccc(N5CCCC5)cc4)nc3c2)cc1

>  <Energy>  (5) 
97.00470565371201

>  <Genealogy>  (5) 
c1ccc(-c2ccc3[nH]c(-c4ccc(N5CCCC5)cc4)nc3c2)cc1 (3D coordinates assigned)
c1ccc(-c2ccc3[nH]c(-c4ccc(N5CCCC5)cc4)nc3c2)cc1 (nonaromatic ring conformer: 97.00470565371201 kcal/mol)

>  <smiles>  (5) 
c1ccc(-c2ccc3[nH]c(-c4ccc(N5CCCC5)cc4)nc3c2)cc1

>  <score_type>  (5) 
oracle

>  <origin>  (5) 
adg

>  <m_score__min__energy>  (5) 
-8.7599999999999998

>  <m_primary>  (5) 
energy

$$$$
5:0
     RDKit          3D

 24 25  0  0  0  0  0  0  0  0999 V2000
   -6.1230   25.6320  -29.6900 C   0  0  0  0  0  0  0  0  0  0  0  0
   -5.2510   25.0970  -30.8220 C   0  0  0  0  0  0  0  0  0  0  0  0
   -3.8670   25.3160  -30.5440 O   0  0  0  0  0  0  0  0  0  0  0  0
   -3.0660   24.5300  -29.7020 C   0  0  0  0  0  0  0  0  0  0  0  0
   -3.4670   23.2620  -29.2440 C   0  0  0  0  0  0  0  0  0  0  0  0
   -2.6120   22.5400  -28.4050 C   0  0  0  0  0  0  0  0  0  0  0  0
   -2.9740   21.2700  -27.9300 C   0  0  0  0  0  0  0  0  0  0  0  0
   -2.1070   20.5620  -27.0920 C   0  0  0  0  0  0  0  0  0  0  0  0
   -0.8790   21.1150  -26.7240 C   0  0  0  0  0  0  0  0  0  0  0  0
   -0.5080   22.3800  -27.1900 C   0  0  0  0  0  0  0  0  0  0  0  0
   -1.3710   23.1020  -28.0340 C   0  0  0  0  0  0  0  0  0  0  0  0
   -1.0440   24.3770  -28.5280 C   0  0  0  0  0  0  0  0  0  0  0  0
    0.0510   24.9240  -28.2240 O   0  0  0  0  0  0  0  0  0  0  0  0
   -1.8890   25.0240  -29.3240 O   0  0  0  0  0  0  0  0  0  0  0  0
   -5.6767   25.3582  -28.7226 H   0  0  0  0  0  0  0  0  0  0  0  0
   -6.1908   26.7273  -29.7656 H   0  0  0  0  0  0  0  0  0  0  0  0
   -7.1302   25.1962  -29.7656 H   0  0  0  0  0  0  0  0  0  0  0  0
   -5.4295   24.0175  -30.9353 H   0  0  0  0  0  0  0  0  0  0  0  0
   -5.5124   25.6280  -31.7492 H   0  0  0  0  0  0  0  0  0  0  0  0
   -4.4399   22.8438  -29.5416 H   0  0  0  0  0  0  0  0  0  0  0  0
   -3.9409   20.8311  -28.2172 H   0  0  0  0  0  0  0  0  0  0  0  0
   -2.3933   19.5666  -26.7217 H   0  0  0  0  0  0  0  0  0  0  0  0
   -0.2007   20.5533  -26.0649 H   0  0  0  0  0  0  0  0  0  0  0  0
    0.4603   22.8112  -26.8961 H   0  0  0  0  0  0  0  0  0  0  0  0
  1  2  1  0
  2  3  1  0
  3  4  1  0
  4  5  2  0
  5  6  1  0
  6  7  2  0
  7  8  1  0
  8  9  2  0
  9 10  1  0
 10 11  2  0
 11 12  1  0
 12 13  2  0
 12 14  1  0
 14  4  1  0
 11  6  1  0
  1 15  1  0
  1 16  1  0
  1 17  1  0
  2 18  1  0
  2 19  1  0
  5 20  1  0
  7 21  1  0
  8 22  1  0
  9 23  1  0
 10 24  1  0
M  END
>  <UniqueID>  (6) 
6

>  <SMILES>  (6) 
CCOc1cc2ccccc2c(=O)o1

>  <Energy>  (6) 
28.36417376513669

>  <Genealogy>  (6) 
CCOc1cc2ccccc2c(=O)o1 (3D coordinates assigned)
CCOc1cc2ccccc2c(=O)o1 (optimized conformer: 28.36417376513669 kcal/mol)

>  <smiles>  (6) 
CCOc1cc2ccccc2c(=O)o1

>  <score_type>  (6) 
oracle

>  <origin>  (6) 
adg

>  <m_score__min__energy>  (6) 
-6.3899999999999997

>  <m_primary>  (6) 
energy

$$$$
6:0
     RDKit          3D

 31 33  0  0  0  0  0  0  0  0999 V2000
   -4.7790   23.1060  -29.7020 C   0  0  0  0  0  0  0  0  0  0  0  0
   -5.6370   23.2070  -30.7300 C   0  0  0  0  0  0  0  0  0  0  0  0
   -5.7970   22.0740  -31.6670 C   0  0  0  0  0  0  0  0  0  0  0  0
   -4.6650   21.6280  -32.3680 C   0  0  0  0  0  0  0  0  0  0  0  0
   -4.7520   20.5470  -33.2490 C   0  0  0  0  0  0  0  0  0  0  0  0
   -5.9700   19.8980  -33.4460 C   0  0  0  0  0  0  0  0  0  0  0  0
   -7.1150   20.3310  -32.7690 C   0  0  0  0  0  0  0  0  0  0  0  0
   -8.3000   19.6980  -32.9810 N   0  0  0  0  0  0  0  0  0  0  0  0
   -9.4430   20.0900  -32.3590 C   0  0  0  0  0  0  0  0  0  0  0  0
   -9.4270   21.1740  -31.4820 C   0  0  0  0  0  0  0  0  0  0  0  0
   -8.2280   21.8470  -31.2420 C   0  0  0  0  0  0  0  0  0  0  0  0
   -7.0420   21.4290  -31.8760 C   0  0  0  0  0  0  0  0  0  0  0  0
   -6.5210   24.4180  -30.8990 C   0  0  0  0  0  0  0  0  0  0  0  0
   -6.0200   25.6160  -30.0830 C   0  0  0  0  0  0  0  0  0  0  0  0
   -5.6580   25.1970  -28.7240 N   0  0  0  0  0  0  0  0  0  0  0  0
   -4.5340   24.2480  -28.7510 C   0  0  0  0  0  0  0  0  0  0  0  0
   -4.2385   22.1602  -29.5497 H   0  0  0  0  0  0  0  0  0  0  0  0
   -3.6997   22.1349  -32.2221 H   0  0  0  0  0  0  0  0  0  0  0  0
   -3.8562   20.2068  -33.7891 H   0  0  0  0  0  0  0  0  0  0  0  0
   -6.0308   19.0432  -34.1356 H   0  0  0  0  0  0  0  0  0  0  0  0
  -10.3830   19.5509  -32.5478 H   0  0  0  0  0  0  0  0  0  0  0  0
  -10.3527   21.4964  -30.9829 H   0  0  0  0  0  0  0  0  0  0  0  0
   -8.2094   22.7064  -30.5556 H   0  0  0  0  0  0  0  0  0  0  0  0
   -6.5411   24.6969  -31.9629 H   0  0  0  0  0  0  0  0  0  0  0  0
   -7.5261   24.1572  -30.5359 H   0  0  0  0  0  0  0  0  0  0  0  0
   -5.1361   26.0460  -30.5767 H   0  0  0  0  0  0  0  0  0  0  0  0
   -6.8227   26.3656  -30.0222 H   0  0  0  0  0  0  0  0  0  0  0  0
   -6.4850   24.7540  -28.2550 H   0  0  0  0  0  0  0  0  0  0  0  0
   -5.3760   26.0400  -28.1720 H   0  0  0  0  0  0  0  0  0  0  0  0
   -3.6257   24.7829  -29.0656 H   0  0  0  0  0  0  0  0  0  0  0  0
   -4.4205   23.8287  -27.7404 H   0  0  0  0  0  0  0  0  0  0  0  0
  1  2  2  0
  2  3  1  0
  3  4  2  0
  4  5  1  0
  5  6  2  0
  6  7  1  0
  7  8  2  0
  8  9  1  0
  9 10  2  0
 10 11  1  0
 11 12  2  0
  2 13  1  0
 13 14  1  0
 14 15  1  0
 15 16  1  0
 16  1  1  0
 12  3  1  0
 12  7  1  0
  1 17  1  0
  4 18  1  0
  5 19  1  0
  6 20  1  0
  9 21  1  0
 10 22  1  0
 11 23  1  0
 13 24  1  0
 13 25  1  0
 14 26  1  0
 14 27  1  0
 15 28  1  0
 15 29  1  0
 16 30  1  0
 16 31  1  0
M  CHG  1  15   1
M  END
>  <UniqueID>  (7) 
7

>  <SMILES>  (7) 
C1=C(c2cccc3ncccc23)CC[NH2+]C1

>  <Energy>  (7) 
44.73930955965277

>  <Genealogy>  (7) 
C1=C(c2cccc3ncccc23)CC[NH2+]C1 (protonated)
C1=C(c2cccc3ncccc23)CC[NH2+]C1 (3D coordinates assigned)
C1=C(c2cccc3ncccc23)CC[NH2+]C1 (nonaromatic ring conformer: 44.73930955965277 kcal/mol)

>  <smiles>  (7) 
C1=C(c2cccc3ncccc23)CCNC1

>  <score_type>  (7) 
oracle

>  <origin>  (7) 
adg

>  <m_score__min__energy>  (7) 
-7.1799999999999997

>  <m_primary>  (7) 
energy

$$$$
7:0
     RDKit          3D

 28 30  0  0  1  0  0  0  0  0999 V2000
   -6.4960   25.9610  -29.3550 C   0  0  0  0  0  0  0  0  0  0  0  0
   -5.6860   24.9150  -30.0330 C   0  0  0  0  0  0  0  0  0  0  0  0
   -6.2580   24.1740  -31.0460 C   0  0  0  0  0  0  0  0  0  0  0  0
   -5.4850   23.2040  -31.6650 C   0  0  0  0  0  0  0  0  0  0  0  0
   -5.9210   22.4680  -32.6090 N   0  0  0  0  0  0  0  0  0  0  0  0
   -6.9020   21.4660  -32.3620 C   0  0  0  0  0  0  0  0  0  0  0  0
   -6.5330   20.1380  -32.5920 C   0  0  0  0  0  0  0  0  0  0  0  0
   -7.4450   19.1060  -32.3710 C   0  0  0  0  0  0  0  0  0  0  0  0
   -8.7300   19.3900  -31.9190 C   0  0  0  0  0  0  0  0  0  0  0  0
   -9.0600   20.7210  -31.7020 C   0  0  0  0  0  0  0  0  0  0  0  0
   -8.1750   21.7540  -31.9140 C   0  0  0  0  0  0  0  0  0  0  0  0
   -4.1950   22.9940  -31.2750 N   0  0  0  0  0  0  0  0  0  0  0  0
   -3.2700   22.1300  -31.7150 N   0  0  0  0  0  0  0  0  0  0  0  0
   -2.1560   22.3380  -30.9880 C   0  0  0  0  0  0  0  0  0  0  0  0
   -2.3660   23.3280  -30.0890 N   0  0  0  0  0  0  0  0  0  0  0  0
   -3.6520   23.7290  -30.2830 C   0  0  0  0  0  0  0  0  0  0  0  0
   -4.4000   24.6720  -29.6810 N   0  0  0  0  0  0  0  0  0  0  0  0
   -6.4062   25.8450  -28.2648 H   0  0  0  0  0  0  0  0  0  0  0  0
   -6.1305   26.9559  -29.6492 H   0  0  0  0  0  0  0  0  0  0  0  0
   -7.5507   25.8561  -29.6492 H   0  0  0  0  0  0  0  0  0  0  0  0
   -7.2994   24.3481  -31.3544 H   0  0  0  0  0  0  0  0  0  0  0  0
   -5.5188   19.9054  -32.9489 H   0  0  0  0  0  0  0  0  0  0  0  0
   -7.1471   18.0632  -32.5548 H   0  0  0  0  0  0  0  0  0  0  0  0
   -9.4599   18.5869  -31.7396 H   0  0  0  0  0  0  0  0  0  0  0  0
  -10.0726   20.9606  -31.3452 H   0  0  0  0  0  0  0  0  0  0  0  0
   -8.4785   22.7949  -31.7288 H   0  0  0  0  0  0  0  0  0  0  0  0
   -1.2130   21.7843  -31.1072 H   0  0  0  0  0  0  0  0  0  0  0  0
   -3.9390   25.2280  -28.9040 H   0  0  0  0  0  0  0  0  0  0  0  0
  1  2  1  0
  2  3  2  0
  3  4  1  0
  4  5  2  0
  5  6  1  0
  6  7  2  0
  7  8  1  0
  8  9  2  0
  9 10  1  0
 10 11  2  0
  4 12  1  0
 12 13  1  0
 13 14  2  0
 14 15  1  0
 15 16  2  0
 16 17  1  0
 17  2  1  0
 11  6  1  0
 16 12  1  0
  1 18  1  0
  1 19  1  0
  1 20  1  0
  3 21  1  0
  7 22  1  0
  8 23  1  0
  9 24  1  0
 10 25  1  0
 11 26  1  0
 14 27  1  0
 17 28  1  0
M  END
>  <smiles>  (8) 
Cc1cc(=Nc2ccccc2)n2ncnc2[nH]1

>  <score_type>  (8) 
oracle

>  <origin>  (8) 
adg

>  <m_score__min__energy>  (8) 
-6.6100000000000003

>  <m_primary>  (8) 
energy

$$$$
8:0
     RDKit          3D

 46 48  0  0  0  0  0  0  0  0999 V2000
   -9.4870   21.5460  -30.9120 C   0  0  0  0  0  0  0  0  0  0  0  0
   -7.9610   21.5280  -31.0000 C   0  0  0  0  0  0  0  0  0  0  0  0
   -7.4980   21.3550  -32.3960 N   0  0  0  0  0  0  0  0  0  0  0  0
   -8.0230   20.1000  -32.9820 C   0  0  0  0  0  0  0  0  0  0  0  0
   -7.0450   18.9630  -32.8250 C   0  0  0  0  0  0  0  0  0  0  0  0
   -7.0090   18.2130  -31.6370 C   0  0  0  0  0  0  0  0  0  0  0  0
   -6.1180   17.1450  -31.5040 C   0  0  0  0  0  0  0  0  0  0  0  0
   -5.2680   16.8040  -32.5610 C   0  0  0  0  0  0  0  0  0  0  0  0
   -4.4060   15.7660  -32.4290 F   0  0  0  0  0  0  0  0  0  0  0  0
   -5.3140   17.5290  -33.7540 C   0  0  0  0  0  0  0  0  0  0  0  0
   -6.2030   18.6000  -33.8910 C   0  0  0  0  0  0  0  0  0  0  0  0
   -6.0290   21.5140  -32.5700 C   0  0  0  0  0  0  0  0  0  0  0  0
   -5.3340   22.2400  -31.4340 C   0  0  0  0  0  0  0  0  0  0  0  0
   -4.3750   21.5800  -30.6500 C   0  0  0  0  0  0  0  0  0  0  0  0
   -3.7260   22.2490  -29.6090 C   0  0  0  0  0  0  0  0  0  0  0  0
   -4.0100   23.5990  -29.3440 C   0  0  0  0  0  0  0  0  0  0  0  0
   -3.3310   24.3110  -28.2340 C   0  0  0  0  0  0  0  0  0  0  0  0
   -4.0230   24.5640  -27.0350 C   0  0  0  0  0  0  0  0  0  0  0  0
   -3.3920   25.2280  -25.9800 C   0  0  0  0  0  0  0  0  0  0  0  0
   -2.0680   25.6510  -26.1100 C   0  0  0  0  0  0  0  0  0  0  0  0
   -1.3720   25.4120  -27.2970 C   0  0  0  0  0  0  0  0  0  0  0  0
   -1.9960   24.7470  -28.3580 C   0  0  0  0  0  0  0  0  0  0  0  0
   -1.3070   24.5620  -29.5130 F   0  0  0  0  0  0  0  0  0  0  0  0
   -4.9560   24.2650  -30.1410 C   0  0  0  0  0  0  0  0  0  0  0  0
   -5.6040   23.5960  -31.1830 C   0  0  0  0  0  0  0  0  0  0  0  0
   -9.7933   21.5496  -29.8555 H   0  0  0  0  0  0  0  0  0  0  0  0
   -9.8723   22.4488  -31.4086 H   0  0  0  0  0  0  0  0  0  0  0  0
   -9.8935   20.6526  -31.4086 H   0  0  0  0  0  0  0  0  0  0  0  0
   -7.5696   22.4788  -30.6092 H   0  0  0  0  0  0  0  0  0  0  0  0
   -7.5919   20.6782  -30.4070 H   0  0  0  0  0  0  0  0  0  0  0  0
   -8.9628   19.8352  -32.4754 H   0  0  0  0  0  0  0  0  0  0  0  0
   -8.1894   20.2651  -34.0567 H   0  0  0  0  0  0  0  0  0  0  0  0
   -7.6855   18.4680  -30.8079 H   0  0  0  0  0  0  0  0  0  0  0  0
   -6.0850   16.5712  -30.5661 H   0  0  0  0  0  0  0  0  0  0  0  0
   -4.6497   17.2571  -34.5875 H   0  0  0  0  0  0  0  0  0  0  0  0
   -6.2436   19.1606  -34.8365 H   0  0  0  0  0  0  0  0  0  0  0  0
   -5.5837   20.5122  -32.6604 H   0  0  0  0  0  0  0  0  0  0  0  0
   -5.8864   22.1320  -33.4687 H   0  0  0  0  0  0  0  0  0  0  0  0
   -4.1323   20.5272  -30.8568 H   0  0  0  0  0  0  0  0  0  0  0  0
   -2.9877   21.7149  -28.9928 H   0  0  0  0  0  0  0  0  0  0  0  0
   -5.0677   24.2368  -26.9277 H   0  0  0  0  0  0  0  0  0  0  0  0
   -3.9396   25.4178  -25.0451 H   0  0  0  0  0  0  0  0  0  0  0  0
   -1.5729   26.1725  -25.2776 H   0  0  0  0  0  0  0  0  0  0  0  0
   -0.3294   25.7478  -27.3981 H   0  0  0  0  0  0  0  0  0  0  0  0
   -5.1886   25.3218  -29.9433 H   0  0  0  0  0  0  0  0  0  0  0  0
   -6.3298   24.1342  -31.8104 H   0  0  0  0  0  0  0  0  0  0  0  0
  1  2  1  0
  2  3  1  0
  3  4  1  0
  4  5  1  0
  5  6  2  0
  6  7  1  0
  7  8  2  0
  8  9  1  0
  8 10  1  0
 10 11  2  0
  3 12  1  0
 12 13  1  0
 13 14  2  0
 14 15  1  0
 15 16  2  0
 16 17  1  0
 17 18  2  0
 18 19  1  0
 19 20  2  0
 20 21  1  0
 21 22  2  0
 22 23  1  0
 16 24  1  0
 24 25  2  0
 11  5  1  0
 25 13  1  0
 22 17  1  0
  1 26  1  0
  1 27  1  0
  1 28  1  0
  2 29  1  0
  2 30  1  0
  4 31  1  0
  4 32  1  0
  6 33  1  0
  7 34  1  0
 10 35  1  0
 11 36  1  0
 12 37  1  0
 12 38  1  0
 14 39  1  0
 15 40  1  0
 18 41  1  0
 19 42  1  0
 20 43  1  0
 21 44  1  0
 24 45  1  0
 25 46  1  0
M  END
>  <UniqueID>  (9) 
8

>  <SMILES>  (9) 
CCN(Cc1ccc(F)cc1)Cc1ccc(-c2ccccc2F)cc1

>  <Energy>  (9) 
57.97586784145356

>  <Genealogy>  (9) 
CCN(Cc1ccc(F)cc1)Cc1ccc(-c2ccccc2F)cc1 (3D coordinates assigned)
CCN(Cc1ccc(F)cc1)Cc1ccc(-c2ccccc2F)cc1 (optimized conformer: 57.97586784145356 kcal/mol)

>  <smiles>  (9) 
CCN(Cc1ccc(F)cc1)Cc1ccc(-c2ccccc2F)cc1

>  <score_type>  (9) 
oracle

>  <origin>  (9) 
adg

>  <m_score__min__energy>  (9) 
-8.5700000000000003

>  <m_primary>  (9) 
energy

$$$$
9:0
     RDKit          3D

 34 35  0  0  0  0  0  0  0  0999 V2000
   -4.8630   22.9570  -29.1980 C   0  0  0  0  0  0  0  0  0  0  0  0
   -3.9040   23.3620  -30.3190 C   0  0  1  0  0  0  0  0  0  0  0  0
   -4.5100   23.1350  -31.5940 O   0  0  0  0  0  0  0  0  0  0  0  0
   -5.6380   22.3330  -31.8390 C   0  0  0  0  0  0  0  0  0  0  0  0
   -6.9600   22.8030  -31.6880 C   0  0  0  0  0  0  0  0  0  0  0  0
   -8.0410   21.9530  -31.9420 C   0  0  0  0  0  0  0  0  0  0  0  0
   -7.8190   20.6330  -32.3440 C   0  0  0  0  0  0  0  0  0  0  0  0
   -9.1780   19.5690  -32.6610 Cl  0  0  0  0  0  0  0  0  0  0  0  0
   -6.5120   20.1610  -32.4930 C   0  0  0  0  0  0  0  0  0  0  0  0
   -5.4280   21.0080  -32.2400 C   0  0  0  0  0  0  0  0  0  0  0  0
   -3.5650   24.8240  -30.1890 C   0  0  0  0  0  0  0  0  0  0  0  0
   -4.2700   25.6720  -30.8000 O   0  0  0  0  0  0  0  0  0  0  0  0
   -2.5090   25.2950  -29.3400 N   0  0  0  0  0  0  0  0  0  0  0  0
   -2.0000   24.6200  -28.1500 C   0  0  0  0  0  0  0  0  0  0  0  0
   -1.5570   25.6210  -27.1140 C   0  0  0  0  0  0  0  0  0  0  0  0
   -2.0400   25.5400  -25.7990 C   0  0  0  0  0  0  0  0  0  0  0  0
   -1.6090   26.4700  -24.8490 C   0  0  0  0  0  0  0  0  0  0  0  0
   -0.7230   27.4400  -25.1980 N   0  0  0  0  0  0  0  0  0  0  0  0
   -0.2280   27.5340  -26.4600 C   0  0  0  0  0  0  0  0  0  0  0  0
   -0.6300   26.6230  -27.4400 C   0  0  0  0  0  0  0  0  0  0  0  0
   -4.3928   23.1556  -28.2236 H   0  0  0  0  0  0  0  0  0  0  0  0
   -5.7923   23.5395  -29.2822 H   0  0  0  0  0  0  0  0  0  0  0  0
   -5.0935   21.8847  -29.2822 H   0  0  0  0  0  0  0  0  0  0  0  0
   -2.9895   22.7561  -30.2385 H   0  0  0  0  0  0  0  0  0  0  0  0
   -7.1406   23.8404  -31.3698 H   0  0  0  0  0  0  0  0  0  0  0  0
   -9.0697   22.3246  -31.8250 H   0  0  0  0  0  0  0  0  0  0  0  0
   -6.3356   19.1224  -32.8095 H   0  0  0  0  0  0  0  0  0  0  0  0
   -4.4017   20.6299  -32.3571 H   0  0  0  0  0  0  0  0  0  0  0  0
   -2.7951   23.9896  -27.7253 H   0  0  0  0  0  0  0  0  0  0  0  0
   -1.1349   24.0043  -28.4373 H   0  0  0  0  0  0  0  0  0  0  0  0
   -2.7525   24.7505  -25.5180 H   0  0  0  0  0  0  0  0  0  0  0  0
   -1.9873   26.4170  -23.8174 H   0  0  0  0  0  0  0  0  0  0  0  0
    0.4903   28.3286  -26.7104 H   0  0  0  0  0  0  0  0  0  0  0  0
   -0.2229   26.6906  -28.4597 H   0  0  0  0  0  0  0  0  0  0  0  0
  1  2  1  0
  2  3  1  0
  3  4  1  0
  4  5  2  0
  5  6  1  0
  6  7  2  0
  7  8  1  0
  7  9  1  0
  9 10  2  0
  2 11  1  0
 11 12  2  0
 11 13  1  0
 13 14  1  0
 14 15  1  0
 15 16  2  0
 16 17  1  0
 17 18  2  0
 18 19  1  0
 19 20  2  0
 10  4  1  0
 20 15  1  0
  1 21  1  0
  1 22  1  0
  1 23  1  0
  2 24  1  6
  5 25  1  0
  6 26  1  0
  9 27  1  0
 10 28  1  0
 14 29  1  0
 14 30  1  0
 16 31  1  0
 17 32  1  0
 19 33  1  0
 20 34  1  0
M  CHG  1  13  -1
M  END
>  <UniqueID>  (10) 
9

>  <SMILES>  (10) 
C[C@@H](Oc1ccc(Cl)cc1)C(=O)[N-]Cc1ccncc1

>  <Energy>  (10) 
31.357956244726555

>  <Genealogy>  (10) 
CC(Oc1ccc(Cl)cc1)C(=O)[N-]Cc1ccncc1 (protonated)
C[C@@H](Oc1ccc(Cl)cc1)C(=O)[N-]Cc1ccncc1 (chirality)
C[C@@H](Oc1ccc(Cl)cc1)C(=O)[N-]Cc1ccncc1 (3D coordinates assigned)
C[C@@H](Oc1ccc(Cl)cc1)C(=O)[N-]Cc1ccncc1 (optimized conformer: 31.357956244726555 kcal/mol)

>  <smiles>  (10) 
CC(Oc1ccc(Cl)cc1)C(=O)NCc1ccncc1

>  <score_type>  (10) 
oracle

>  <origin>  (10) 
adg

>  <m_score__min__energy>  (10) 
-9.0199999999999996

>  <m_primary>  (10) 
energy

$$$$
10:0
     RDKit          3D

 18 19  0  0  0  0  0  0  0  0999 V2000
   -8.7360   18.5180  -31.5930 C   0  0  0  0  0  0  0  0  0  0  0  0
   -8.6320   19.6700  -31.9300 C   0  0  0  0  0  0  0  0  0  0  0  0
   -8.5090   21.0720  -32.3390 C   0  0  0  0  0  0  0  0  0  0  0  0
   -8.3360   22.1470  -30.8750 S   0  0  0  0  0  0  0  0  0  0  0  0
   -6.5990   22.5030  -31.1510 C   0  0  0  0  0  0  0  0  0  0  0  0
   -5.7640   21.5410  -31.6440 N   0  0  0  0  0  0  0  0  0  0  0  0
   -4.4330   21.7980  -31.8630 C   0  0  0  0  0  0  0  0  0  0  0  0
   -3.9120   23.0330  -31.5920 N   0  0  0  0  0  0  0  0  0  0  0  0
   -4.7450   23.9850  -31.1070 C   0  0  0  0  0  0  0  0  0  0  0  0
   -4.4220   25.2450  -30.7910 N   0  0  0  0  0  0  0  0  0  0  0  0
   -5.6170   25.7440  -30.3710 C   0  0  0  0  0  0  0  0  0  0  0  0
   -6.6490   24.8590  -30.4160 N   0  0  0  0  0  0  0  0  0  0  0  0
   -6.0560   23.7540  -30.8870 C   0  0  0  0  0  0  0  0  0  0  0  0
   -8.8310   17.4662  -31.2853 H   0  0  0  0  0  0  0  0  0  0  0  0
   -7.6223   21.1864  -32.9798 H   0  0  0  0  0  0  0  0  0  0  0  0
   -9.4142   21.3638  -32.8917 H   0  0  0  0  0  0  0  0  0  0  0  0
   -3.7815   21.0051  -32.2591 H   0  0  0  0  0  0  0  0  0  0  0  0
   -5.7383   26.7804  -30.0229 H   0  0  0  0  0  0  0  0  0  0  0  0
  1  2  3  0
  2  3  1  0
  3  4  1  0
  4  5  1  0
  5  6  2  0
  6  7  1  0
  7  8  2  0
  8  9  1  0
  9 10  1  0
 10 11  1  0
 11 12  2  0
 12 13  1  0
 13  5  1  0
 13  9  2  0
  1 14  1  0
  3 15  1  0
  3 16  1  0
  7 17  1  0
 11 18  1  0
M  CHG  1  10  -1
M  END
>  <UniqueID>  (11) 
10

>  <SMILES>  (11) 
C#CCSc1ncnc2[n-]cnc12

>  <Energy>  (11) 
50.55773329896637

>  <Genealogy>  (11) 
C#CCSc1ncnc2[n-]cnc12 (protonated)
C#CCSc1ncnc2[n-]cnc12 (3D coordinates assigned)
C#CCSc1ncnc2[n-]cnc12 (optimized conformer: 50.55773329896637 kcal/mol)

>  <smiles>  (11) 
C#CCSc1ncnc2[nH]cnc12

>  <score_type>  (11) 
oracle

>  <origin>  (11) 
adg

>  <m_score__min__energy>  (11) 
-6.1399999999999997

>  <m_primary>  (11) 
energy

$$$$
11:0
     RDKit          3D

 29 30  0  0  0  0  0  0  0  0999 V2000
   -5.8308   23.1993  -29.8832 H   0  0  0  0  0  0  0  0  0  0  0  0
   -5.9810   23.9890  -30.6340 C   0  0  0  0  0  0  0  0  0  0  0  0
   -5.1600   25.2090  -30.5560 C   0  0  0  0  0  0  0  0  0  0  0  0
   -5.7040   26.3470  -30.5220 O   0  0  0  0  0  0  0  0  0  0  0  0
   -3.7680   25.0760  -30.4650 O   0  0  0  0  0  0  0  0  0  0  0  0
   -3.0930   24.0890  -29.7310 C   0  0  0  0  0  0  0  0  0  0  0  0
   -2.4660   22.9880  -30.3480 C   0  0  0  0  0  0  0  0  0  0  0  0
   -2.4879   22.8867  -31.4431 H   0  0  0  0  0  0  0  0  0  0  0  0
   -1.8160   22.0240  -29.5710 C   0  0  0  0  0  0  0  0  0  0  0  0
   -1.3203   21.1705  -30.0566 H   0  0  0  0  0  0  0  0  0  0  0  0
   -1.7950   22.1430  -28.1780 C   0  0  0  0  0  0  0  0  0  0  0  0
   -1.2777   21.3870  -27.5690 H   0  0  0  0  0  0  0  0  0  0  0  0
   -2.4310   23.2220  -27.5600 C   0  0  0  0  0  0  0  0  0  0  0  0
   -2.4188   23.3125  -26.4638 H   0  0  0  0  0  0  0  0  0  0  0  0
   -3.0830   24.1870  -28.3330 C   0  0  0  0  0  0  0  0  0  0  0  0
   -3.5917   25.0290  -27.8407 H   0  0  0  0  0  0  0  0  0  0  0  0
   -6.9060   23.8070  -31.5890 C   0  0  0  0  0  0  0  0  0  0  0  0
   -7.2003   24.6744  -32.1981 H   0  0  0  0  0  0  0  0  0  0  0  0
   -7.5540   22.5030  -31.8700 C   0  0  0  0  0  0  0  0  0  0  0  0
   -8.9330   22.2810  -31.6670 C   0  0  0  0  0  0  0  0  0  0  0  0
   -9.5695   23.0975  -31.2953 H   0  0  0  0  0  0  0  0  0  0  0  0
   -9.4950   21.0280  -31.9360 C   0  0  0  0  0  0  0  0  0  0  0  0
  -10.5715   20.8644  -31.7800 H   0  0  0  0  0  0  0  0  0  0  0  0
   -8.6920   19.9850  -32.4020 C   0  0  0  0  0  0  0  0  0  0  0  0
   -9.2400   18.7720  -32.6610 F   0  0  0  0  0  0  0  0  0  0  0  0
   -7.3240   20.1880  -32.5920 C   0  0  0  0  0  0  0  0  0  0  0  0
   -6.6911   19.3641  -32.9534 H   0  0  0  0  0  0  0  0  0  0  0  0
   -6.7570   21.4390  -32.3230 C   0  0  0  0  0  0  0  0  0  0  0  0
   -5.6771   21.5903  -32.4677 H   0  0  0  0  0  0  0  0  0  0  0  0
  1  2  1  0
  2  3  1  0
  3  4  2  0
  3  5  1  0
  5  6  1  0
  6  7  2  0
  7  8  1  0
  7  9  1  0
  9 10  1  0
  9 11  2  0
 11 12  1  0
 11 13  1  0
 13 14  1  0
 13 15  2  0
 15 16  1  0
  2 17  2  0
 17 18  1  0
 17 19  1  0
 19 20  2  0
 20 21  1  0
 20 22  1  0
 22 23  1  0
 22 24  2  0
 24 25  1  0
 24 26  1  0
 26 27  1  0
 26 28  2  0
 28 29  1  0
 15  6  1  0
 28 19  1  0
M  END
>  <UniqueID>  (12) 
11

>  <SMILES>  (12) 
O=C(/C=C/c1ccc(F)cc1)Oc1ccccc1

>  <Energy>  (12) 
35.75795407800437

>  <Genealogy>  (12) 
O=C(/C=C/c1ccc(F)cc1)Oc1ccccc1 (cis-trans isomerization)
O=C(/C=C/c1ccc(F)cc1)Oc1ccccc1 (3D coordinates assigned)
O=C(/C=C/c1ccc(F)cc1)Oc1ccccc1 (optimized conformer: 35.75795407800437 kcal/mol)

>  <smiles>  (12) 
O=C(C=Cc1ccc(F)cc1)Oc1ccccc1

>  <score_type>  (12) 
oracle

>  <origin>  (12) 
adg

>  <m_score__min__energy>  (12) 
-7.1399999999999997

>  <m_primary>  (12) 
energy

$$$$
12:0
     RDKit          3D

 43 46  0  0  0  0  0  0  0  0999 V2000
   -6.4790   18.0680  -31.2140 C   0  0  0  0  0  0  0  0  0  0  0  0
   -7.4840   18.5240  -32.1900 N   0  0  0  0  0  0  0  0  0  0  0  0
   -8.3850   19.5570  -31.6150 C   0  0  0  0  0  0  0  0  0  0  0  0
   -8.0910   20.9880  -32.1040 C   0  0  0  0  0  0  0  0  0  0  0  0
   -6.6590   21.1470  -32.3760 N   0  0  0  0  0  0  0  0  0  0  0  0
   -5.8860   22.1830  -31.7380 C   0  0  0  0  0  0  0  0  0  0  0  0
   -6.3170   23.5360  -31.7950 C   0  0  0  0  0  0  0  0  0  0  0  0
   -5.5620   24.5570  -31.1900 C   0  0  0  0  0  0  0  0  0  0  0  0
   -4.3830   24.1950  -30.5460 C   0  0  0  0  0  0  0  0  0  0  0  0
   -3.5140   24.9960  -29.9150 N   0  0  0  0  0  0  0  0  0  0  0  0
   -2.5590   24.1240  -29.4900 C   0  0  0  0  0  0  0  0  0  0  0  0
   -1.3640   24.5500  -28.7270 C   0  0  0  0  0  0  0  0  0  0  0  0
   -1.3030   25.8330  -28.1550 C   0  0  0  0  0  0  0  0  0  0  0  0
   -0.1750   26.2350  -27.4350 C   0  0  0  0  0  0  0  0  0  0  0  0
    0.9100   25.3630  -27.2760 C   0  0  0  0  0  0  0  0  0  0  0  0
    2.0640   25.7750  -26.5380 N   0  0  0  0  0  0  0  0  0  0  0  0
    0.8550   24.0830  -27.8420 C   0  0  0  0  0  0  0  0  0  0  0  0
   -0.2730   23.6790  -28.5640 C   0  0  0  0  0  0  0  0  0  0  0  0
   -2.7970   22.8280  -29.8290 N   0  0  0  0  0  0  0  0  0  0  0  0
   -3.9580   22.9060  -30.4930 C   0  0  0  0  0  0  0  0  0  0  0  0
   -4.6760   21.8660  -31.0780 C   0  0  0  0  0  0  0  0  0  0  0  0
   -6.0170   20.2130  -33.3060 C   0  0  0  0  0  0  0  0  0  0  0  0
   -6.8610   18.9370  -33.4670 C   0  0  0  0  0  0  0  0  0  0  0  0
   -6.8545   18.2384  -30.1942 H   0  0  0  0  0  0  0  0  0  0  0  0
   -6.2872   16.9947  -31.3595 H   0  0  0  0  0  0  0  0  0  0  0  0
   -5.5449   18.6305  -31.3595 H   0  0  0  0  0  0  0  0  0  0  0  0
   -9.4200   19.3040  -31.8883 H   0  0  0  0  0  0  0  0  0  0  0  0
   -8.2207   19.5525  -30.5274 H   0  0  0  0  0  0  0  0  0  0  0  0
   -8.6594   21.1807  -33.0259 H   0  0  0  0  0  0  0  0  0  0  0  0
   -8.3889   21.7023  -31.3223 H   0  0  0  0  0  0  0  0  0  0  0  0
   -7.2514   23.7876  -32.3181 H   0  0  0  0  0  0  0  0  0  0  0  0
   -5.8923   25.6056  -31.2248 H   0  0  0  0  0  0  0  0  0  0  0  0
   -2.1494   26.5252  -28.2752 H   0  0  0  0  0  0  0  0  0  0  0  0
   -0.1387   27.2407  -26.9910 H   0  0  0  0  0  0  0  0  0  0  0  0
    1.9970   25.9960  -25.5200 H   0  0  0  0  0  0  0  0  0  0  0  0
    2.9940   25.8610  -27.0060 H   0  0  0  0  0  0  0  0  0  0  0  0
    1.7023   23.3925  -27.7183 H   0  0  0  0  0  0  0  0  0  0  0  0
   -0.3064   22.6728  -29.0072 H   0  0  0  0  0  0  0  0  0  0  0  0
   -4.3128   20.8289  -31.0282 H   0  0  0  0  0  0  0  0  0  0  0  0
   -5.9069   20.6989  -34.2867 H   0  0  0  0  0  0  0  0  0  0  0  0
   -5.0314   19.9358  -32.9037 H   0  0  0  0  0  0  0  0  0  0  0  0
   -7.6543   19.1259  -34.2052 H   0  0  0  0  0  0  0  0  0  0  0  0
   -6.1952   18.1270  -33.7997 H   0  0  0  0  0  0  0  0  0  0  0  0
  1  2  1  0
  2  3  1  0
  3  4  1  0
  4  5  1  0
  5  6  1  0
  6  7  2  0
  7  8  1  0
  8  9  2  0
  9 10  1  0
 10 11  1  0
 11 12  1  0
 12 13  2  0
 13 14  1  0
 14 15  2  0
 15 16  1  0
 15 17  1  0
 17 18  2  0
 11 19  2  0
 19 20  1  0
 20 21  2  0
  5 22  1  0
 22 23  1  0
 23  2  1  0
 21  6  1  0
 20  9  1  0
 18 12  1  0
  1 24  1  0
  1 25  1  0
  1 26  1  0
  3 27  1  0
  3 28  1  0
  4 29  1  0
  4 30  1  0
  7 31  1  0
  8 32  1  0
 13 33  1  0
 14 34  1  0
 16 35  1  0
 16 36  1  0
 17 37  1  0
 18 38  1  0
 21 39  1  0
 22 40  1  0
 22 41  1  0
 23 42  1  0
 23 43  1  0
M  CHG  1  10  -1
M  END
>  <UniqueID>  (13) 
12

>  <SMILES>  (13) 
CN1CCN(c2ccc3[n-]c(-c4ccc(N)cc4)nc3c2)CC1

>  <Energy>  (13) 
91.9614927802652

>  <Genealogy>  (13) 
CN1CCN(c2ccc3[n-]c(-c4ccc(N)cc4)nc3c2)CC1 (protonated)
CN1CCN(c2ccc3[n-]c(-c4ccc(N)cc4)nc3c2)CC1 (3D coordinates assigned)
CN1CCN(c2ccc3[n-]c(-c4ccc(N)cc4)nc3c2)CC1 (nonaromatic ring conformer: 91.9614927802652 kcal/mol)

>  <smiles>  (13) 
CN1CCN(c2ccc3[nH]c(-c4ccc(N)cc4)nc3c2)CC1

>  <score_type>  (13) 
oracle

>  <origin>  (13) 
adg

>  <m_score__min__energy>  (13) 
-8.3499999999999996

>  <m_primary>  (13) 
energy

$$$$
13:0
     RDKit          3D

 52 55  0  0  1  0  0  0  0  0999 V2000
   -6.2010   25.3290  -29.4270 C   0  0  0  0  0  0  0  0  0  0  0  0
   -6.0930   25.1990  -30.8350 O   0  0  0  0  0  0  0  0  0  0  0  0
   -6.1570   23.9420  -31.3840 C   0  0  0  0  0  0  0  0  0  0  0  0
   -7.3530   23.3570  -31.7440 C   0  0  0  0  0  0  0  0  0  0  0  0
   -7.3680   22.0790  -32.2980 C   0  0  0  0  0  0  0  0  0  0  0  0
   -6.2170   21.3520  -32.5110 C   0  0  0  0  0  0  0  0  0  0  0  0
   -6.2160   20.0070  -33.0920 C   0  0  0  0  0  0  0  0  0  0  0  0
   -6.6350   19.9120  -34.2710 O   0  0  0  0  0  0  0  0  0  0  0  0
   -5.7800   18.8560  -32.4010 N   0  0  0  0  0  0  0  0  0  0  0  0
   -5.7410   17.5450  -32.8630 C   0  0  0  0  0  0  0  0  0  0  0  0
   -4.7980   16.5930  -32.5580 C   0  0  0  0  0  0  0  0  0  0  0  0
   -4.8340   15.2990  -33.0660 C   0  0  0  0  0  0  0  0  0  0  0  0
   -5.8370   14.9080  -33.9140 C   0  0  0  0  0  0  0  0  0  0  0  0
   -6.7960   15.8390  -34.2370 C   0  0  0  0  0  0  0  0  0  0  0  0
   -6.7550   17.1170  -33.7320 C   0  0  0  0  0  0  0  0  0  0  0  0
   -5.0300   21.9710  -32.1370 C   0  0  0  0  0  0  0  0  0  0  0  0
   -4.9910   23.2340  -31.5860 C   0  0  0  0  0  0  0  0  0  0  0  0
   -3.7510   23.8270  -31.2200 N   0  0  0  0  0  0  0  0  0  0  0  0
   -3.1910   23.6530  -30.0720 C   0  0  0  0  0  0  0  0  0  0  0  0
   -2.9220   22.3790  -29.5740 C   0  0  0  0  0  0  0  0  0  0  0  0
   -2.3190   22.1940  -28.3370 C   0  0  0  0  0  0  0  0  0  0  0  0
   -2.0450   20.8760  -27.8280 C   0  0  0  0  0  0  0  0  0  0  0  0
   -3.0000   20.1570  -27.1330 C   0  0  0  0  0  0  0  0  0  0  0  0
   -2.7410   18.8770  -26.6360 C   0  0  0  0  0  0  0  0  0  0  0  0
   -1.5210   18.2740  -26.8160 C   0  0  0  0  0  0  0  0  0  0  0  0
   -0.5620   18.9770  -27.5050 C   0  0  0  0  0  0  0  0  0  0  0  0
   -0.8240   20.2600  -28.0020 C   0  0  0  0  0  0  0  0  0  0  0  0
   -2.0120   23.3080  -27.6560 N   0  0  0  0  0  0  0  0  0  0  0  0
   -2.2730   24.5580  -28.1410 C   0  0  0  0  0  0  0  0  0  0  0  0
   -1.9400   25.5940  -27.4120 N   0  0  0  0  0  0  0  0  0  0  0  0
   -2.8620   24.7340  -29.3480 N   0  0  0  0  0  0  0  0  0  0  0  0
   -5.5709   24.5706  -28.9394 H   0  0  0  0  0  0  0  0  0  0  0  0
   -5.8671   26.3326  -29.1247 H   0  0  0  0  0  0  0  0  0  0  0  0
   -7.2488   25.1847  -29.1247 H   0  0  0  0  0  0  0  0  0  0  0  0
   -8.2972   23.9009  -31.5933 H   0  0  0  0  0  0  0  0  0  0  0  0
   -8.3347   21.6336  -32.5758 H   0  0  0  0  0  0  0  0  0  0  0  0
   -5.4420   19.0330  -31.4070 H   0  0  0  0  0  0  0  0  0  0  0  0
   -3.9762   16.8674  -31.8803 H   0  0  0  0  0  0  0  0  0  0  0  0
   -4.0491   14.5817  -32.7842 H   0  0  0  0  0  0  0  0  0  0  0  0
   -5.8736   13.8869  -34.3213 H   0  0  0  0  0  0  0  0  0  0  0  0
   -7.6145   15.5548  -34.9148 H   0  0  0  0  0  0  0  0  0  0  0  0
   -7.5440   17.8276  -34.0192 H   0  0  0  0  0  0  0  0  0  0  0  0
   -4.0834   21.4312  -32.2868 H   0  0  0  0  0  0  0  0  0  0  0  0
   -3.1940   21.4991  -30.1755 H   0  0  0  0  0  0  0  0  0  0  0  0
   -3.9908   20.6050  -26.9668 H   0  0  0  0  0  0  0  0  0  0  0  0
   -3.5311   18.3415  -26.0892 H   0  0  0  0  0  0  0  0  0  0  0  0
   -1.3187   17.2665  -26.4237 H   0  0  0  0  0  0  0  0  0  0  0  0
    0.4273   18.5248  -27.6688 H   0  0  0  0  0  0  0  0  0  0  0  0
   -0.0312   20.7924  -28.5479 H   0  0  0  0  0  0  0  0  0  0  0  0
   -1.5600   23.2880  -26.7240 H   0  0  0  0  0  0  0  0  0  0  0  0
   -2.7150   26.1130  -26.9510 H   0  0  0  0  0  0  0  0  0  0  0  0
   -3.0620   25.6820  -29.7200 H   0  0  0  0  0  0  0  0  0  0  0  0
  1  2  1  0
  2  3  1  0
  3  4  2  0
  4  5  1  0
  5  6  2  0
  6  7  1  0
  7  8  2  0
  7  9  1  0
  9 10  1  0
 10 11  2  0
 11 12  1  0
 12 13  2  0
 13 14  1  0
 14 15  2  0
  6 16  1  0
 16 17  2  0
 17 18  1  0
 18 19  2  0
 19 20  1  0
 20 21  2  0
 21 22  1  0
 22 23  2  0
 23 24  1  0
 24 25  2  0
 25 26  1  0
 26 27  2  0
 21 28  1  0
 28 29  1  0
 29 30  2  3
 29 31  1  0
 17  3  1  0
 31 19  1  0
 15 10  1  0
 27 22  1  0
  1 32  1  0
  1 33  1  0
  1 34  1  0
  4 35  1  0
  5 36  1  0
  9 37  1  0
 11 38  1  0
 12 39  1  0
 13 40  1  0
 14 41  1  0
 15 42  1  0
 16 43  1  0
 20 44  1  0
 23 45  1  0
 24 46  1  0
 25 47  1  0
 26 48  1  0
 27 49  1  0
 28 50  1  0
 30 51  1  0
 31 52  1  0
M  END
>  <smiles>  (14) 
COc1ccc(C(=O)Nc2ccccc2)cc1N=c1cc(-c2ccccc2)[nH]c(=N)[nH]1

>  <score_type>  (14) 
oracle

>  <origin>  (14) 
adg

>  <m_score__min__energy>  (14) 
-9.8100000000000005

>  <m_primary>  (14) 
energy

$$$$
14:0
     RDKit          3D

 30 31  0  0  0  0  0  0  0  0999 V2000
   -0.8500   26.7740  -27.9000 C   0  0  0  0  0  0  0  0  0  0  0  0
   -1.4710   26.0320  -28.9450 O   0  0  0  0  0  0  0  0  0  0  0  0
   -1.5770   24.6330  -28.9730 C   0  0  0  0  0  0  0  0  0  0  0  0
   -0.6870   23.8020  -28.2620 C   0  0  0  0  0  0  0  0  0  0  0  0
   -0.8220   22.4140  -28.3160 C   0  0  0  0  0  0  0  0  0  0  0  0
   -1.8410   21.8390  -29.0730 C   0  0  0  0  0  0  0  0  0  0  0  0
   -2.7310   22.6500  -29.7820 C   0  0  0  0  0  0  0  0  0  0  0  0
   -2.6030   24.0520  -29.7390 C   0  0  0  0  0  0  0  0  0  0  0  0
   -3.4940   24.9130  -30.4610 N   0  0  0  0  0  0  0  0  0  0  0  0
   -5.2130   24.9920  -30.2410 S   0  0  0  0  0  0  0  0  0  0  0  0
   -5.7260   26.2710  -30.8380 O   0  0  0  0  0  0  0  0  0  0  0  0
   -5.5200   24.9780  -28.7700 O   0  0  0  0  0  0  0  0  0  0  0  0
   -5.9890   23.6350  -31.0510 C   0  0  0  0  0  0  0  0  0  0  0  0
   -5.2340   22.7550  -31.8400 C   0  0  0  0  0  0  0  0  0  0  0  0
   -5.8570   21.6830  -32.4880 C   0  0  0  0  0  0  0  0  0  0  0  0
   -7.2340   21.4860  -32.3510 C   0  0  0  0  0  0  0  0  0  0  0  0
   -7.8360   20.4470  -32.9800 F   0  0  0  0  0  0  0  0  0  0  0  0
   -7.9890   22.3580  -31.5610 C   0  0  0  0  0  0  0  0  0  0  0  0
   -7.3690   23.4300  -30.9120 C   0  0  0  0  0  0  0  0  0  0  0  0
   -1.1785   26.3815  -26.9264 H   0  0  0  0  0  0  0  0  0  0  0  0
    0.2428   26.6804  -27.9833 H   0  0  0  0  0  0  0  0  0  0  0  0
   -1.1347   27.8333  -27.9833 H   0  0  0  0  0  0  0  0  0  0  0  0
    0.1182   24.2502  -27.6614 H   0  0  0  0  0  0  0  0  0  0  0  0
   -0.1226   21.7725  -27.7599 H   0  0  0  0  0  0  0  0  0  0  0  0
   -1.9449   20.7446  -29.1125 H   0  0  0  0  0  0  0  0  0  0  0  0
   -3.5351   22.1915  -30.3763 H   0  0  0  0  0  0  0  0  0  0  0  0
   -4.1502   22.9079  -31.9495 H   0  0  0  0  0  0  0  0  0  0  0  0
   -5.2624   20.9943  -33.1061 H   0  0  0  0  0  0  0  0  0  0  0  0
   -9.0720   22.2005  -31.4499 H   0  0  0  0  0  0  0  0  0  0  0  0
   -7.9654   24.1143  -30.2907 H   0  0  0  0  0  0  0  0  0  0  0  0
  1  2  1  0
  2  3  1  0
  3  4  2  0
  4  5  1  0
  5  6  2  0
  6  7  1  0
  7  8  2  0
  8  9  1  0
  9 10  1  0
 10 11  2  0
 10 12  2  0
 10 13  1  0
 13 14  2  0
 14 15  1  0
 15 16  2  0
 16 17  1  0
 16 18  1  0
 18 19  2  0
  8  3  1  0
 19 13  1  0
  1 20  1  0
  1 21  1  0
  1 22  1  0
  4 23  1  0
  5 24  1  0
  6 25  1  0
  7 26  1  0
 14 27  1  0
 15 28  1  0
 18 29  1  0
 19 30  1  0
M  CHG  1   9  -1
M  END
>  <UniqueID>  (15) 
13

>  <SMILES>  (15) 
COc1ccccc1[N-]S(=O)(=O)c1ccc(F)cc1

>  <Energy>  (15) 
33.37408418751821

>  <Genealogy>  (15) 
COc1ccccc1[N-]S(=O)(=O)c1ccc(F)cc1 (protonated)
COc1ccccc1[N-]S(=O)(=O)c1ccc(F)cc1 (3D coordinates assigned)
COc1ccccc1[N-]S(=O)(=O)c1ccc(F)cc1 (optimized conformer: 33.37408418751821 kcal/mol)

>  <smiles>  (15) 
COc1ccccc1NS(=O)(=O)c1ccc(F)cc1

>  <score_type>  (15) 
oracle

>  <origin>  (15) 
adg

>  <m_score__min__energy>  (15) 
-8.8300000000000001

>  <m_primary>  (15) 
energy

$$$$
15:0
     RDKit          3D

 41 42  0  0  0  0  0  0  0  0999 V2000
   -6.5020   16.5130  -34.4850 C   0  0  0  0  0  0  0  0  0  0  0  0
   -5.7920   17.7150  -33.9390 C   0  0  0  0  0  0  0  0  0  0  0  0
   -6.4700   18.9360  -33.8040 C   0  0  0  0  0  0  0  0  0  0  0  0
   -5.8270   20.0410  -33.2410 C   0  0  0  0  0  0  0  0  0  0  0  0
   -4.5030   19.9360  -32.7840 C   0  0  0  0  0  0  0  0  0  0  0  0
   -3.8200   21.1200  -32.1510 C   0  0  0  0  0  0  0  0  0  0  0  0
   -4.5140   21.6480  -30.8680 C   0  0  0  0  0  0  0  0  0  0  0  0
   -5.4270   22.9320  -30.9430 C   0  0  2  0  0  0  0  0  0  0  0  0
   -4.9910   23.6900  -32.1310 N   0  0  0  0  0  0  0  0  0  0  0  0
   -5.1340   23.8820  -29.7290 C   0  0  0  0  0  0  0  0  0  0  0  0
   -3.9920   24.8490  -29.8670 C   0  0  0  0  0  0  0  0  0  0  0  0
   -3.9230   25.6400  -30.8430 O   0  0  0  0  0  0  0  0  0  0  0  0
   -2.9800   24.8560  -28.9150 O   0  0  0  0  0  0  0  0  0  0  0  0
   -6.9220   22.5820  -31.1510 C   0  0  0  0  0  0  0  0  0  0  0  0
   -7.8370   23.4540  -31.7880 C   0  0  0  0  0  0  0  0  0  0  0  0
   -9.1680   23.0760  -31.9910 C   0  0  0  0  0  0  0  0  0  0  0  0
   -9.6050   21.8090  -31.6110 C   0  0  0  0  0  0  0  0  0  0  0  0
   -8.7050   20.9050  -31.0510 C   0  0  0  0  0  0  0  0  0  0  0  0
   -7.3760   21.2780  -30.8420 C   0  0  0  0  0  0  0  0  0  0  0  0
   -3.8240   18.7130  -32.9250 C   0  0  0  0  0  0  0  0  0  0  0  0
   -4.4680   17.6090  -33.4890 C   0  0  0  0  0  0  0  0  0  0  0  0
   -6.8678   15.8937  -33.6527 H   0  0  0  0  0  0  0  0  0  0  0  0
   -7.3529   16.8384  -35.1015 H   0  0  0  0  0  0  0  0  0  0  0  0
   -5.8063   15.9248  -35.1015 H   0  0  0  0  0  0  0  0  0  0  0  0
   -7.5128   19.0235  -34.1431 H   0  0  0  0  0  0  0  0  0  0  0  0
   -6.3607   20.9990  -33.1551 H   0  0  0  0  0  0  0  0  0  0  0  0
   -2.7925   20.8260  -31.8905 H   0  0  0  0  0  0  0  0  0  0  0  0
   -3.8581   21.9360  -32.8877 H   0  0  0  0  0  0  0  0  0  0  0  0
   -5.1442   20.8307  -30.4874 H   0  0  0  0  0  0  0  0  0  0  0  0
   -3.6726   21.9696  -30.2366 H   0  0  0  0  0  0  0  0  0  0  0  0
   -3.9480   23.7860  -32.1250 H   0  0  0  0  0  0  0  0  0  0  0  0
   -5.3820   24.6600  -32.1220 H   0  0  0  0  0  0  0  0  0  0  0  0
   -6.0444   24.4710  -29.5438 H   0  0  0  0  0  0  0  0  0  0  0  0
   -4.8356   23.2094  -28.9113 H   0  0  0  0  0  0  0  0  0  0  0  0
   -7.4963   24.4430  -32.1282 H   0  0  0  0  0  0  0  0  0  0  0  0
   -9.8733   23.7825  -32.4530 H   0  0  0  0  0  0  0  0  0  0  0  0
  -10.6577   21.5231  -31.7527 H   0  0  0  0  0  0  0  0  0  0  0  0
   -9.0421   19.8955  -30.7730 H   0  0  0  0  0  0  0  0  0  0  0  0
   -6.6682   20.5441  -30.4292 H   0  0  0  0  0  0  0  0  0  0  0  0
   -2.7801   18.6249  -32.5894 H   0  0  0  0  0  0  0  0  0  0  0  0
   -3.9339   16.6517  -33.5806 H   0  0  0  0  0  0  0  0  0  0  0  0
  1  2  1  0
  2  3  2  0
  3  4  1  0
  4  5  2  0
  5  6  1  0
  6  7  1  0
  7  8  1  0
  8  9  1  6
  8 10  1  0
 10 11  1  0
 11 12  2  0
 11 13  1  0
  8 14  1  0
 14 15  2  0
 15 16  1  0
 16 17  2  0
 17 18  1  0
 18 19  2  0
  5 20  1  0
 20 21  2  0
 21  2  1  0
 19 14  1  0
  1 22  1  0
  1 23  1  0
  1 24  1  0
  3 25  1  0
  4 26  1  0
  6 27  1  0
  6 28  1  0
  7 29  1  0
  7 30  1  0
  9 31  1  0
  9 32  1  0
 10 33  1  0
 10 34  1  0
 15 35  1  0
 16 36  1  0
 17 37  1  0
 18 38  1  0
 19 39  1  0
 20 40  1  0
 21 41  1  0
M  CHG  1  13  -1
M  END
>  <UniqueID>  (16) 
14

>  <SMILES>  (16) 
Cc1ccc(CC[C@](N)(CC(=O)[O-])c2ccccc2)cc1

>  <Energy>  (16) 
51.27521074406638

>  <Genealogy>  (16) 
Cc1ccc(CCC(N)(CC(=O)[O-])c2ccccc2)cc1 (protonated)
Cc1ccc(CC[C@](N)(CC(=O)[O-])c2ccccc2)cc1 (chirality)
Cc1ccc(CC[C@](N)(CC(=O)[O-])c2ccccc2)cc1 (3D coordinates assigned)
Cc1ccc(CC[C@](N)(CC(=O)[O-])c2ccccc2)cc1 (optimized conformer: 51.27521074406638 kcal/mol)

>  <smiles>  (16) 
Cc1ccc(CCC(N)(CC(=O)O)c2ccccc2)cc1

>  <score_type>  (16) 
oracle

>  <origin>  (16) 
adg

>  <m_score__min__energy>  (16) 
-9.9900000000000002

>  <m_primary>  (16) 
energy

$$$$
16:0
     RDKit          3D

 27 28  0  0  0  0  0  0  0  0999 V2000
   -0.5760   24.3510  -27.8280 C   0  0  0  0  0  0  0  0  0  0  0  0
   -1.7340   23.9610  -28.6890 C   0  0  0  0  0  0  0  0  0  0  0  0
   -2.0720   22.5970  -28.8450 C   0  0  0  0  0  0  0  0  0  0  0  0
   -3.1560   22.2590  -29.6680 C   0  0  0  0  0  0  0  0  0  0  0  0
   -3.4810   21.0530  -29.8280 O   0  0  0  0  0  0  0  0  0  0  0  0
   -3.8330   23.2680  -30.2800 N   0  0  0  0  0  0  0  0  0  0  0  0
   -4.8890   23.3310  -31.1200 C   0  0  0  0  0  0  0  0  0  0  0  0
   -5.6540   22.1660  -31.6860 C   0  0  0  0  0  0  0  0  0  0  0  0
   -7.1070   22.3710  -31.5210 N   0  0  0  0  0  0  0  0  0  0  0  0
   -7.4170   22.6600  -30.1100 C   0  0  0  0  0  0  0  0  0  0  0  0
   -7.8610   21.1830  -31.9550 C   0  0  0  0  0  0  0  0  0  0  0  0
   -5.1530   24.6150  -31.4570 N   0  0  0  0  0  0  0  0  0  0  0  0
   -4.2750   25.3880  -30.8250 N   0  0  0  0  0  0  0  0  0  0  0  0
   -3.4920   24.5540  -30.1230 C   0  0  0  0  0  0  0  0  0  0  0  0
   -2.4510   24.9240  -29.3390 N   0  0  0  0  0  0  0  0  0  0  0  0
   -0.8581   24.2560  -26.7690 H   0  0  0  0  0  0  0  0  0  0  0  0
    0.2778   23.6908  -28.0407 H   0  0  0  0  0  0  0  0  0  0  0  0
   -0.2955   25.3932  -28.0407 H   0  0  0  0  0  0  0  0  0  0  0  0
   -1.4949   21.8148  -28.3300 H   0  0  0  0  0  0  0  0  0  0  0  0
   -5.4219   22.0666  -32.7566 H   0  0  0  0  0  0  0  0  0  0  0  0
   -5.3605   21.2528  -31.1475 H   0  0  0  0  0  0  0  0  0  0  0  0
   -6.7676   22.0546  -29.4605 H   0  0  0  0  0  0  0  0  0  0  0  0
   -7.2450   23.7275  -29.9080 H   0  0  0  0  0  0  0  0  0  0  0  0
   -8.4699   22.4136  -29.9080 H   0  0  0  0  0  0  0  0  0  0  0  0
   -8.2126   20.6291  -31.0720 H   0  0  0  0  0  0  0  0  0  0  0  0
   -8.7252   21.4975  -32.5586 H   0  0  0  0  0  0  0  0  0  0  0  0
   -7.2085   20.5349  -32.5586 H   0  0  0  0  0  0  0  0  0  0  0  0
  1  2  1  0
  2  3  2  0
  3  4  1  0
  4  5  2  0
  4  6  1  0
  6  7  1  0
  7  8  1  0
  8  9  1  0
  9 10  1  0
  9 11  1  0
  7 12  2  0
 12 13  1  0
 13 14  2  0
 14 15  1  0
 15  2  1  0
 14  6  1  0
  1 16  1  0
  1 17  1  0
  1 18  1  0
  3 19  1  0
  8 20  1  0
  8 21  1  0
 10 22  1  0
 10 23  1  0
 10 24  1  0
 11 25  1  0
 11 26  1  0
 11 27  1  0
M  CHG  1  15  -1
M  END
>  <UniqueID>  (17) 
15

>  <SMILES>  (17) 
Cc1cc(=O)n2c(CN(C)C)nnc2[n-]1

>  <Energy>  (17) 
69.51300678582562

>  <Genealogy>  (17) 
Cc1cc(=O)n2c(CN(C)C)nnc2[n-]1 (protonated)
Cc1cc(=O)n2c(CN(C)C)nnc2[n-]1 (3D coordinates assigned)
Cc1cc(=O)n2c(CN(C)C)nnc2[n-]1 (optimized conformer: 69.51300678582562 kcal/mol)

>  <smiles>  (17) 
Cc1cc(=O)n2c(CN(C)C)nnc2[nH]1

>  <score_type>  (17) 
oracle

>  <origin>  (17) 
adg

>  <m_score__min__energy>  (17) 
-6.9299999999999997

>  <m_primary>  (17) 
energy

$$$$
17:0
     RDKit          3D

 34 35  0  0  0  0  0  0  0  0999 V2000
   -4.2250   24.1610  -28.0610 C   0  0  0  0  0  0  0  0  0  0  0  0
   -4.8630   23.4610  -29.1840 N   0  0  0  0  0  0  0  0  0  0  0  0
   -4.0300   22.3380  -29.6320 C   0  0  0  0  0  0  0  0  0  0  0  0
   -5.1830   24.5730  -30.4970 S   0  0  0  0  0  0  0  0  0  0  0  0
   -6.2000   25.5950  -30.0680 O   0  0  0  0  0  0  0  0  0  0  0  0
   -3.9060   25.2930  -30.8230 O   0  0  0  0  0  0  0  0  0  0  0  0
   -5.7510   23.7670  -31.9960 C   0  0  0  0  0  0  0  0  0  0  0  0
   -7.0340   23.0150  -31.7730 C   0  0  0  0  0  0  0  0  0  0  0  0
   -8.0170   23.6320  -31.2790 O   0  0  0  0  0  0  0  0  0  0  0  0
   -7.1800   21.5750  -32.1040 C   0  0  0  0  0  0  0  0  0  0  0  0
   -8.2930   20.8600  -31.6230 C   0  0  0  0  0  0  0  0  0  0  0  0
   -8.4430   19.4990  -31.9090 C   0  0  0  0  0  0  0  0  0  0  0  0
   -7.4880   18.8420  -32.6850 C   0  0  0  0  0  0  0  0  0  0  0  0
   -6.4000   19.5520  -33.2080 C   0  0  0  0  0  0  0  0  0  0  0  0
   -6.2370   20.9090  -32.9120 C   0  0  0  0  0  0  0  0  0  0  0  0
   -5.4860   18.8850  -34.0310 O   0  0  0  0  0  0  0  0  0  0  0  0
   -5.7780   17.5900  -34.5620 C   0  0  0  0  0  0  0  0  0  0  0  0
   -6.5100   16.7400  -33.5160 C   0  0  0  0  0  0  0  0  0  0  0  0
   -7.6020   17.4750  -32.9570 O   0  0  0  0  0  0  0  0  0  0  0  0
   -4.5998   23.7498  -27.1121 H   0  0  0  0  0  0  0  0  0  0  0  0
   -3.1349   24.0237  -28.1150 H   0  0  0  0  0  0  0  0  0  0  0  0
   -4.4625   25.2337  -28.1150 H   0  0  0  0  0  0  0  0  0  0  0  0
   -3.6335   21.8034  -28.7562 H   0  0  0  0  0  0  0  0  0  0  0  0
   -4.6376   21.6496  -30.2377 H   0  0  0  0  0  0  0  0  0  0  0  0
   -3.1949   22.7197  -30.2377 H   0  0  0  0  0  0  0  0  0  0  0  0
   -5.9157   24.5306  -32.7705 H   0  0  0  0  0  0  0  0  0  0  0  0
   -4.9817   23.0459  -32.3095 H   0  0  0  0  0  0  0  0  0  0  0  0
   -9.0518   21.3763  -31.0166 H   0  0  0  0  0  0  0  0  0  0  0  0
   -9.3128   18.9476  -31.5225 H   0  0  0  0  0  0  0  0  0  0  0  0
   -5.3709   21.4576  -33.3107 H   0  0  0  0  0  0  0  0  0  0  0  0
   -6.4147   17.6978  -35.4525 H   0  0  0  0  0  0  0  0  0  0  0  0
   -4.8349   17.0923  -34.8320 H   0  0  0  0  0  0  0  0  0  0  0  0
   -6.8939   15.8268  -33.9943 H   0  0  0  0  0  0  0  0  0  0  0  0
   -5.8066   16.4765  -32.7124 H   0  0  0  0  0  0  0  0  0  0  0  0
  1  2  1  0
  2  3  1  0
  2  4  1  0
  4  5  2  0
  4  6  2  0
  4  7  1  0
  7  8  1  0
  8  9  2  0
  8 10  1  0
 10 11  2  0
 11 12  1  0
 12 13  2  0
 13 14  1  0
 14 15  2  0
 14 16  1  0
 16 17  1  0
 17 18  1  0
 18 19  1  0
 15 10  1  0
 19 13  1  0
  1 20  1  0
  1 21  1  0
  1 22  1  0
  3 23  1  0
  3 24  1  0
  3 25  1  0
  7 26  1  0
  7 27  1  0
 11 28  1  0
 12 29  1  0
 15 30  1  0
 17 31  1  0
 17 32  1  0
 18 33  1  0
 18 34  1  0
M  END
>  <UniqueID>  (18) 
16

>  <SMILES>  (18) 
CN(C)S(=O)(=O)CC(=O)c1ccc2c(c1)OCCO2

>  <Energy>  (18) 
31.02494148109202

>  <Genealogy>  (18) 
CN(C)S(=O)(=O)CC(=O)c1ccc2c(c1)OCCO2 (3D coordinates assigned)
CN(C)S(=O)(=O)CC(=O)c1ccc2c(c1)OCCO2 (nonaromatic ring conformer: 31.02494148109202 kcal/mol)

>  <smiles>  (18) 
CN(C)S(=O)(=O)CC(=O)c1ccc2c(c1)OCCO2

>  <score_type>  (18) 
oracle

>  <origin>  (18) 
adg

>  <m_score__min__energy>  (18) 
-7.3700000000000001

>  <m_primary>  (18) 
energy

$$$$
18:0
     RDKit          3D

 23 25  0  0  0  0  0  0  0  0999 V2000
   -8.6210   18.5690  -32.3320 C   0  0  0  0  0  0  0  0  0  0  0  0
   -9.1040   19.7630  -31.9780 C   0  0  0  0  0  0  0  0  0  0  0  0
   -8.2470   20.9610  -31.9760 C   0  0  0  0  0  0  0  0  0  0  0  0
   -8.7770   22.2040  -31.6020 C   0  0  0  0  0  0  0  0  0  0  0  0
   -7.9690   23.3440  -31.5990 C   0  0  0  0  0  0  0  0  0  0  0  0
   -6.6240   23.2550  -31.9680 C   0  0  0  0  0  0  0  0  0  0  0  0
   -6.0770   22.0200  -32.3460 C   0  0  0  0  0  0  0  0  0  0  0  0
   -4.7290   21.9200  -32.7190 C   0  0  0  0  0  0  0  0  0  0  0  0
   -4.1940   20.6860  -33.0940 C   0  0  0  0  0  0  0  0  0  0  0  0
   -4.9970   19.5430  -33.1000 C   0  0  0  0  0  0  0  0  0  0  0  0
   -6.3480   19.6180  -32.7300 C   0  0  0  0  0  0  0  0  0  0  0  0
   -6.8940   20.8620  -32.3510 C   0  0  0  0  0  0  0  0  0  0  0  0
   -7.1870   18.3590  -32.7480 C   0  0  0  0  0  0  0  0  0  0  0  0
   -9.2981   17.7022  -32.3195 H   0  0  0  0  0  0  0  0  0  0  0  0
  -10.1598   19.8532  -31.6829 H   0  0  0  0  0  0  0  0  0  0  0  0
   -9.8345   22.2822  -31.3094 H   0  0  0  0  0  0  0  0  0  0  0  0
   -8.3933   24.3154  -31.3050 H   0  0  0  0  0  0  0  0  0  0  0  0
   -5.9927   24.1558  -31.9620 H   0  0  0  0  0  0  0  0  0  0  0  0
   -4.0912   22.8162  -32.7162 H   0  0  0  0  0  0  0  0  0  0  0  0
   -3.1359   20.6136  -33.3859 H   0  0  0  0  0  0  0  0  0  0  0  0
   -4.5661   18.5756  -33.3975 H   0  0  0  0  0  0  0  0  0  0  0  0
   -7.1798   17.9536  -33.7706 H   0  0  0  0  0  0  0  0  0  0  0  0
   -6.7416   17.6704  -32.0149 H   0  0  0  0  0  0  0  0  0  0  0  0
  1  2  2  0
  2  3  1  0
  3  4  1  0
  4  5  2  0
  5  6  1  0
  6  7  2  0
  7  8  1  0
  8  9  2  0
  9 10  1  0
 10 11  2  0
 11 12  1  0
 11 13  1  0
 13  1  1  0
 12  3  2  0
 12  7  1  0
  1 14  1  0
  2 15  1  0
  4 16  1  0
  5 17  1  0
  6 18  1  0
  8 19  1  0
  9 20  1  0
 10 21  1  0
 13 22  1  0
 13 23  1  0
M  END
>  <UniqueID>  (19) 
17

>  <SMILES>  (19) 
C1=Cc2cccc3cccc(c23)C1

>  <Energy>  (19) 
30.810309846163427

>  <Genealogy>  (19) 
C1=Cc2cccc3cccc(c23)C1 (3D coordinates assigned)
C1=Cc2cccc3cccc(c23)C1 (nonaromatic ring conformer: 30.810309846163427 kcal/mol)

>  <smiles>  (19) 
C1=Cc2cccc3cccc(c23)C1

>  <score_type>  (19) 
oracle

>  <origin>  (19) 
adg

>  <m_score__min__energy>  (19) 
-6.7400000000000002

>  <m_primary>  (19) 
energy

$$$$
19:0
     RDKit          3D

 50 53  0  0  0  0  0  0  0  0999 V2000
   -2.5320   24.4340  -28.3590 C   0  0  0  0  0  0  0  0  0  0  0  0
   -2.8540   24.9630  -29.6390 O   0  0  0  0  0  0  0  0  0  0  0  0
   -3.8400   24.4100  -30.4620 C   0  0  0  0  0  0  0  0  0  0  0  0
   -3.5960   23.1920  -31.1010 C   0  0  0  0  0  0  0  0  0  0  0  0
   -4.5950   22.6410  -31.9290 C   0  0  0  0  0  0  0  0  0  0  0  0
   -4.4130   21.3770  -32.6240 N   0  0  0  0  0  0  0  0  0  0  0  0
   -3.0460   20.9820  -33.0750 C   0  0  0  0  0  0  0  0  0  0  0  0
   -2.9560   19.6720  -33.8920 C   0  0  0  0  0  0  0  0  0  0  0  0
   -4.0180   18.6940  -33.4280 C   0  0  2  0  0  0  0  0  0  0  0  0
   -4.1140   17.3660  -34.1670 C   0  0  0  0  0  0  0  0  0  0  0  0
   -5.5360   17.0270  -34.0890 N   0  0  0  0  0  0  0  0  0  0  0  0
   -6.0560   15.6890  -34.1850 C   0  0  0  0  0  0  0  0  0  0  0  0
   -7.2550   15.5130  -34.5380 O   0  0  0  0  0  0  0  0  0  0  0  0
   -5.2270   14.5080  -33.8620 C   0  0  0  0  0  0  0  0  0  0  0  0
   -4.9120   13.5540  -34.8410 C   0  0  0  0  0  0  0  0  0  0  0  0
   -4.1400   12.4780  -34.5290 N   0  0  0  0  0  0  0  0  0  0  0  0
   -3.6670   12.2800  -33.2690 C   0  0  0  0  0  0  0  0  0  0  0  0
   -3.9890   13.1800  -32.2450 C   0  0  0  0  0  0  0  0  0  0  0  0
   -3.4490   12.9820  -30.8610 C   0  0  0  0  0  0  0  0  0  0  0  0
   -4.7670   14.3050  -32.5540 C   0  0  0  0  0  0  0  0  0  0  0  0
   -6.3330   18.1500  -33.6000 C   0  0  0  0  0  0  0  0  0  0  0  0
   -5.3690   19.3280  -33.6600 C   0  0  1  0  0  0  0  0  0  0  0  0
   -5.5760   20.4560  -32.6590 C   0  0  0  0  0  0  0  0  0  0  0  0
   -5.7660   23.3250  -32.0720 N   0  0  0  0  0  0  0  0  0  0  0  0
   -5.9880   24.5070  -31.4430 C   0  0  0  0  0  0  0  0  0  0  0  0
   -5.0290   25.0430  -30.6460 N   0  0  0  0  0  0  0  0  0  0  0  0
   -2.9344   25.0950  -27.5773 H   0  0  0  0  0  0  0  0  0  0  0  0
   -2.9735   23.4319  -28.2548 H   0  0  0  0  0  0  0  0  0  0  0  0
   -1.4391   24.3659  -28.2548 H   0  0  0  0  0  0  0  0  0  0  0  0
   -2.6379   22.6702  -30.9601 H   0  0  0  0  0  0  0  0  0  0  0  0
   -2.6487   21.7962  -33.6989 H   0  0  0  0  0  0  0  0  0  0  0  0
   -2.4706   20.7992  -32.1555 H   0  0  0  0  0  0  0  0  0  0  0  0
   -3.1093   19.8968  -34.9578 H   0  0  0  0  0  0  0  0  0  0  0  0
   -1.9631   19.2225  -33.7431 H   0  0  0  0  0  0  0  0  0  0  0  0
   -3.7345   18.4817  -32.3866 H   0  0  0  0  0  0  0  0  0  0  0  0
   -3.7938   17.4756  -35.2136 H   0  0  0  0  0  0  0  0  0  0  0  0
   -3.4664   16.5895  -33.7338 H   0  0  0  0  0  0  0  0  0  0  0  0
   -5.2911   13.6765  -35.8663 H   0  0  0  0  0  0  0  0  0  0  0  0
   -3.9090   11.7830  -35.2740 H   0  0  0  0  0  0  0  0  0  0  0  0
   -3.0293   11.4100  -33.0535 H   0  0  0  0  0  0  0  0  0  0  0  0
   -4.2160   13.2632  -30.1244 H   0  0  0  0  0  0  0  0  0  0  0  0
   -3.1765   11.9255  -30.7214 H   0  0  0  0  0  0  0  0  0  0  0  0
   -2.5581   13.6120  -30.7214 H   0  0  0  0  0  0  0  0  0  0  0  0
   -5.0172   15.0311  -31.7665 H   0  0  0  0  0  0  0  0  0  0  0  0
   -7.2055   18.3234  -34.2471 H   0  0  0  0  0  0  0  0  0  0  0  0
   -6.7367   17.9797  -32.5910 H   0  0  0  0  0  0  0  0  0  0  0  0
   -5.5114   19.8399  -34.6232 H   0  0  0  0  0  0  0  0  0  0  0  0
   -6.4734   21.0251  -32.9433 H   0  0  0  0  0  0  0  0  0  0  0  0
   -5.6924   20.0114  -31.6596 H   0  0  0  0  0  0  0  0  0  0  0  0
   -6.9456   25.0308  -31.5792 H   0  0  0  0  0  0  0  0  0  0  0  0
  1  2  1  0
  2  3  1  0
  3  4  2  0
  4  5  1  0
  5  6  1  0
  6  7  1  0
  7  8  1  0
  8  9  1  0
  9 10  1  0
 10 11  1  0
 11 12  1  0
 12 13  2  0
 12 14  1  0
 14 15  2  0
 15 16  1  0
 16 17  2  0
 17 18  1  0
 18 19  1  0
 18 20  2  0
 11 21  1  0
 21 22  1  0
 22 23  1  0
  5 24  2  0
 24 25  1  0
 25 26  2  0
 26  3  1  0
 23  6  1  0
 22  9  1  0
 20 14  1  0
  1 27  1  0
  1 28  1  0
  1 29  1  0
  4 30  1  0
  7 31  1  0
  7 32  1  0
  8 33  1  0
  8 34  1  0
  9 35  1  1
 10 36  1  0
 10 37  1  0
 15 38  1  0
 16 39  1  0
 17 40  1  0
 19 41  1  0
 19 42  1  0
 19 43  1  0
 20 44  1  0
 21 45  1  0
 21 46  1  0
 22 47  1  6
 23 48  1  0
 23 49  1  0
 25 50  1  0
M  CHG  1  16   1
M  END
>  <UniqueID>  (20) 
18

>  <SMILES>  (20) 
COc1cc(N2CC[C@@H]3CN(C(=O)c4c[nH+]cc(C)c4)C[C@H]3C2)ncn1

>  <Energy>  (20) 
65.93380596398971

>  <Genealogy>  (20) 
COc1cc(N2CCC3CN(C(=O)c4c[nH+]cc(C)c4)CC3C2)ncn1 (protonated)
COc1cc(N2CC[C@@H]3CN(C(=O)c4c[nH+]cc(C)c4)C[C@H]3C2)ncn1 (chirality)
COc1cc(N2CC[C@@H]3CN(C(=O)c4c[nH+]cc(C)c4)C[C@H]3C2)ncn1 (3D coordinates assigned)
COc1cc(N2CC[C@@H]3CN(C(=O)c4c[nH+]cc(C)c4)C[C@H]3C2)ncn1 (nonaromatic ring conformer: 65.93380596398971 kcal/mol)

>  <smiles>  (20) 
COc1cc(N2CCC3CN(C(=O)c4cncc(C)c4)CC3C2)ncn1

>  <score_type>  (20) 
oracle

>  <origin>  (20) 
adg

>  <m_score__min__energy>  (20) 
-8.3100000000000005

>  <m_primary>  (20) 
energy

$$$$
20:0
     RDKit          3D

 49 52  0  0  0  0  0  0  0  0999 V2000
   -2.8570   21.3500  -33.4050 C   0  0  0  0  0  0  0  0  0  0  0  0
   -3.0880   19.8610  -33.1720 C   0  0  0  0  0  0  0  0  0  0  0  0
   -4.0500   19.3430  -34.0910 O   0  0  0  0  0  0  0  0  0  0  0  0
   -4.5920   18.0460  -34.0680 C   0  0  0  0  0  0  0  0  0  0  0  0
   -3.7800   16.8970  -34.1680 C   0  0  0  0  0  0  0  0  0  0  0  0
   -4.3420   15.6210  -34.0910 C   0  0  0  0  0  0  0  0  0  0  0  0
   -5.7140   15.4720  -33.9010 C   0  0  0  0  0  0  0  0  0  0  0  0
   -6.5320   16.5970  -33.8060 C   0  0  0  0  0  0  0  0  0  0  0  0
   -5.9870   17.8870  -33.9110 C   0  0  0  0  0  0  0  0  0  0  0  0
   -6.8730   19.0160  -33.8430 N   0  0  0  0  0  0  0  0  0  0  0  0
   -7.5010   19.6350  -32.3460 S   0  0  0  0  0  0  0  0  0  0  0  0
   -8.9950   19.7500  -32.4500 O   0  0  0  0  0  0  0  0  0  0  0  0
   -7.1570   18.6760  -31.2410 O   0  0  0  0  0  0  0  0  0  0  0  0
   -6.8460   21.2340  -31.9950 C   0  0  0  0  0  0  0  0  0  0  0  0
   -7.5770   22.3830  -32.3260 C   0  0  0  0  0  0  0  0  0  0  0  0
   -7.0780   23.6500  -32.0150 C   0  0  0  0  0  0  0  0  0  0  0  0
   -5.8450   23.7810  -31.3690 C   0  0  0  0  0  0  0  0  0  0  0  0
   -5.3750   25.0160  -31.0540 N   0  0  0  0  0  0  0  0  0  0  0  0
   -4.1880   25.1900  -30.4170 C   0  0  0  0  0  0  0  0  0  0  0  0
   -3.4090   24.0850  -30.0490 C   0  0  0  0  0  0  0  0  0  0  0  0
   -2.1370   24.3040  -29.3310 C   0  0  0  0  0  0  0  0  0  0  0  0
   -1.4730   23.3080  -28.9400 O   0  0  0  0  0  0  0  0  0  0  0  0
   -1.6120   25.6170  -29.1050 N   0  0  0  0  0  0  0  0  0  0  0  0
   -1.2490   26.1330  -27.7900 C   0  0  0  0  0  0  0  0  0  0  0  0
   -1.9430   25.4290  -26.6390 C   0  0  0  0  0  0  0  0  0  0  0  0
   -0.4920   25.1120  -26.9600 C   0  0  0  0  0  0  0  0  0  0  0  0
   -3.8520   22.7940  -30.3930 C   0  0  0  0  0  0  0  0  0  0  0  0
   -3.1360   21.7890  -30.1300 O   0  0  0  0  0  0  0  0  0  0  0  0
   -5.0890   22.6310  -31.0480 C   0  0  0  0  0  0  0  0  0  0  0  0
   -5.5900   21.3620  -31.3860 C   0  0  0  0  0  0  0  0  0  0  0  0
   -2.7772   21.8647  -32.4361 H   0  0  0  0  0  0  0  0  0  0  0  0
   -1.9261   21.4921  -33.9735 H   0  0  0  0  0  0  0  0  0  0  0  0
   -3.7011   21.7675  -33.9735 H   0  0  0  0  0  0  0  0  0  0  0  0
   -2.1373   19.3241  -33.3057 H   0  0  0  0  0  0  0  0  0  0  0  0
   -3.4689   19.7210  -32.1496 H   0  0  0  0  0  0  0  0  0  0  0  0
   -2.6945   17.0071  -34.3079 H   0  0  0  0  0  0  0  0  0  0  0  0
   -3.7003   14.7321  -34.1805 H   0  0  0  0  0  0  0  0  0  0  0  0
   -6.1523   14.4659  -33.8259 H   0  0  0  0  0  0  0  0  0  0  0  0
   -7.6134   16.4731  -33.6475 H   0  0  0  0  0  0  0  0  0  0  0  0
   -6.9170   19.6600  -34.6640 H   0  0  0  0  0  0  0  0  0  0  0  0
   -8.5484   22.2866  -32.8331 H   0  0  0  0  0  0  0  0  0  0  0  0
   -7.6568   24.5473  -32.2791 H   0  0  0  0  0  0  0  0  0  0  0  0
   -3.8355   26.2065  -30.1882 H   0  0  0  0  0  0  0  0  0  0  0  0
   -1.1024   27.1853  -28.0751 H   0  0  0  0  0  0  0  0  0  0  0  0
   -2.1950   25.9865  -25.7249 H   0  0  0  0  0  0  0  0  0  0  0  0
   -2.8633   24.8362  -26.5310 H   0  0  0  0  0  0  0  0  0  0  0  0
    0.3066   25.4402  -26.2785 H   0  0  0  0  0  0  0  0  0  0  0  0
    0.0737   24.1948  -27.1809 H   0  0  0  0  0  0  0  0  0  0  0  0
   -4.9927   20.4636  -31.1712 H   0  0  0  0  0  0  0  0  0  0  0  0
  1  2  1  0
  2  3  1  0
  3  4  1  0
  4  5  2  0
  5  6  1  0
  6  7  2  0
  7  8  1  0
  8  9  2  0
  9 10  1  0
 10 11  1  0
 11 12  2  0
 11 13  2  0
 11 14  1  0
 14 15  2  0
 15 16  1  0
 16 17  2  0
 17 18  1  0
 18 19  1  0
 19 20  2  0
 20 21  1  0
 21 22  2  0
 21 23  1  0
 23 24  1  0
 24 25  1  0
 25 26  1  0
 20 27  1  0
 27 28  2  0
 27 29  1  0
 29 30  2  0
  9  4  1  0
 30 14  1  0
 29 17  1  0
 26 24  1  0
  1 31  1  0
  1 32  1  0
  1 33  1  0
  2 34  1  0
  2 35  1  0
  5 36  1  0
  6 37  1  0
  7 38  1  0
  8 39  1  0
 10 40  1  0
 15 41  1  0
 16 42  1  0
 19 43  1  0
 24 44  1  0
 25 45  1  0
 25 46  1  0
 26 47  1  0
 26 48  1  0
 30 49  1  0
M  CHG  2  18  -1  23  -1
M  END
>  <UniqueID>  (21) 
19

>  <SMILES>  (21) 
CCOc1ccccc1NS(=O)(=O)c1ccc2[n-]cc(C(=O)[N-]C3CC3)c(=O)c2c1

>  <Energy>  (21) 
326.96166181371393

>  <Genealogy>  (21) 
CCOc1ccccc1NS(=O)(=O)c1ccc2[n-]cc(C(=O)[N-]C3CC3)c(=O)c2c1 (protonated)
CCOc1ccccc1NS(=O)(=O)c1ccc2[n-]cc(C(=O)[N-]C3CC3)c(=O)c2c1 (3D coordinates assigned)
CCOc1ccccc1NS(=O)(=O)c1ccc2[n-]cc(C(=O)[N-]C3CC3)c(=O)c2c1 (nonaromatic ring conformer: 326.96166181371393 kcal/mol)

>  <smiles>  (21) 
CCOc1ccccc1NS(=O)(=O)c1ccc2[nH]cc(C(=O)NC3CC3)c(=O)c2c1

>  <score_type>  (21) 
oracle

>  <origin>  (21) 
adg

>  <m_score__min__energy>  (21) 
-10.99

>  <m_primary>  (21) 
energy

$$$$
21:0
     RDKit          3D

 36 38  0  0  1  0  0  0  0  0999 V2000
   -2.0170   24.8880  -27.9460 C   0  0  0  0  0  0  0  0  0  0  0  0
   -2.4440   25.0830  -29.3000 O   0  0  0  0  0  0  0  0  0  0  0  0
   -2.7500   23.9790  -30.0840 C   0  0  0  0  0  0  0  0  0  0  0  0
   -1.8800   22.9170  -30.0220 C   0  0  0  0  0  0  0  0  0  0  0  0
   -2.1840   21.8240  -30.7970 C   0  0  0  0  0  0  0  0  0  0  0  0
   -1.3440   20.7820  -30.7450 N   0  0  0  0  0  0  0  0  0  0  0  0
   -1.6230   19.7080  -31.4930 C   0  0  0  0  0  0  0  0  0  0  0  0
   -2.6990   19.6540  -32.2730 N   0  0  0  0  0  0  0  0  0  0  0  0
   -3.5550   20.7170  -32.3240 C   0  0  0  0  0  0  0  0  0  0  0  0
   -4.5370   20.6130  -33.0610 N   0  0  0  0  0  0  0  0  0  0  0  0
   -5.7700   20.0990  -32.8870 C   0  0  0  0  0  0  0  0  0  0  0  0
   -6.0300   18.7100  -33.0040 C   0  0  0  0  0  0  0  0  0  0  0  0
   -7.2840   18.2090  -32.6990 C   0  0  0  0  0  0  0  0  0  0  0  0
   -8.2850   19.0600  -32.2830 C   0  0  0  0  0  0  0  0  0  0  0  0
   -8.0620   20.4220  -32.1600 C   0  0  0  0  0  0  0  0  0  0  0  0
   -9.4830   21.5690  -31.5780 Br  0  0  0  0  0  0  0  0  0  0  0  0
   -6.8210   20.9500  -32.4570 C   0  0  0  0  0  0  0  0  0  0  0  0
   -3.3300   21.8460  -31.5870 C   0  0  0  0  0  0  0  0  0  0  0  0
   -4.1690   22.9210  -31.6210 C   0  0  0  0  0  0  0  0  0  0  0  0
   -3.8760   24.0490  -30.8350 C   0  0  0  0  0  0  0  0  0  0  0  0
   -4.6820   25.1720  -30.8210 O   0  0  0  0  0  0  0  0  0  0  0  0
   -5.8800   25.2480  -30.0690 C   0  0  0  0  0  0  0  0  0  0  0  0
   -2.7991   25.2452  -27.2599 H   0  0  0  0  0  0  0  0  0  0  0  0
   -1.8352   23.8176  -27.7694 H   0  0  0  0  0  0  0  0  0  0  0  0
   -1.0890   25.4516  -27.7694 H   0  0  0  0  0  0  0  0  0  0  0  0
   -0.9846   22.9408  -29.3835 H   0  0  0  0  0  0  0  0  0  0  0  0
   -0.4910   20.8010  -30.1400 H   0  0  0  0  0  0  0  0  0  0  0  0
   -0.9424   18.8444  -31.4619 H   0  0  0  0  0  0  0  0  0  0  0  0
   -5.2334   18.0289  -33.3379 H   0  0  0  0  0  0  0  0  0  0  0  0
   -7.4816   17.1306  -32.7888 H   0  0  0  0  0  0  0  0  0  0  0  0
   -9.2779   18.6510  -32.0445 H   0  0  0  0  0  0  0  0  0  0  0  0
   -6.6469   22.0318  -32.3601 H   0  0  0  0  0  0  0  0  0  0  0  0
   -5.0661   22.9054  -32.2573 H   0  0  0  0  0  0  0  0  0  0  0  0
   -5.6406   25.2328  -28.9955 H   0  0  0  0  0  0  0  0  0  0  0  0
   -6.4080   26.1814  -30.3138 H   0  0  0  0  0  0  0  0  0  0  0  0
   -6.5217   24.3888  -30.3138 H   0  0  0  0  0  0  0  0  0  0  0  0
  1  2  1  0
  2  3  1  0
  3  4  2  0
  4  5  1  0
  5  6  1  0
  6  7  1  0
  7  8  2  0
  8  9  1  0
  9 10  2  0
 10 11  1  0
 11 12  2  0
 12 13  1  0
 13 14  2  0
 14 15  1  0
 15 16  1  0
 15 17  2  0
  9 18  1  0
 18 19  1  0
 19 20  2  0
 20 21  1  0
 21 22  1  0
 20  3  1  0
 18  5  2  0
 17 11  1  0
  1 23  1  0
  1 24  1  0
  1 25  1  0
  4 26  1  0
  6 27  1  0
  7 28  1  0
 12 29  1  0
 13 30  1  0
 14 31  1  0
 17 32  1  0
 19 33  1  0
 22 34  1  0
 22 35  1  0
 22 36  1  0
M  END
>  <smiles>  (22) 
COc1cc2[nH]cnc(=Nc3cccc(Br)c3)c2cc1OC

>  <score_type>  (22) 
oracle

>  <origin>  (22) 
adg

>  <m_score__min__energy>  (22) 
-8.1300000000000008

>  <m_primary>  (22) 
energy

$$$$
22:0
     RDKit          3D

 30 33  0  0  0  0  0  0  0  0999 V2000
   -5.6290   25.8550  -30.0890 C   0  0  0  0  0  0  0  0  0  0  0  0
   -6.8780   25.3050  -29.7980 C   0  0  0  0  0  0  0  0  0  0  0  0
   -7.1970   24.0220  -30.2490 C   0  0  0  0  0  0  0  0  0  0  0  0
   -6.2520   23.2940  -30.9930 C   0  0  0  0  0  0  0  0  0  0  0  0
   -6.5330   21.9290  -31.4970 C   0  0  0  0  0  0  0  0  0  0  0  0
   -7.7210   21.2370  -31.2700 C   0  0  0  0  0  0  0  0  0  0  0  0
   -7.5580   20.0300  -31.9070 C   0  0  0  0  0  0  0  0  0  0  0  0
   -8.4140   18.9390  -32.0180 C   0  0  0  0  0  0  0  0  0  0  0  0
   -7.9880   17.8510  -32.7220 N   0  0  0  0  0  0  0  0  0  0  0  0
   -6.7530   17.8050  -33.3140 C   0  0  0  0  0  0  0  0  0  0  0  0
   -6.3610   16.6670  -34.0250 C   0  0  0  0  0  0  0  0  0  0  0  0
   -5.1010   16.6170  -34.6300 C   0  0  0  0  0  0  0  0  0  0  0  0
   -4.2260   17.7040  -34.5280 C   0  0  0  0  0  0  0  0  0  0  0  0
   -4.6030   18.8520  -33.8210 C   0  0  0  0  0  0  0  0  0  0  0  0
   -5.8650   18.9110  -33.2100 C   0  0  0  0  0  0  0  0  0  0  0  0
   -6.3170   20.0220  -32.4850 C   0  0  0  0  0  0  0  0  0  0  0  0
   -5.6770   21.1820  -32.2410 N   0  0  0  0  0  0  0  0  0  0  0  0
   -5.0400   23.8610  -31.2600 N   0  0  0  0  0  0  0  0  0  0  0  0
   -4.7120   25.1090  -30.8300 C   0  0  0  0  0  0  0  0  0  0  0  0
   -5.3704   26.8650  -29.7382 H   0  0  0  0  0  0  0  0  0  0  0  0
   -7.6107   25.8812  -29.2140 H   0  0  0  0  0  0  0  0  0  0  0  0
   -8.1807   23.5843  -30.0236 H   0  0  0  0  0  0  0  0  0  0  0  0
   -8.5988   21.5819  -30.7039 H   0  0  0  0  0  0  0  0  0  0  0  0
   -9.4093   18.9533  -31.5499 H   0  0  0  0  0  0  0  0  0  0  0  0
   -7.0447   15.8094  -34.1088 H   0  0  0  0  0  0  0  0  0  0  0  0
   -4.7967   15.7194  -35.1883 H   0  0  0  0  0  0  0  0  0  0  0  0
   -3.2364   17.6563  -35.0060 H   0  0  0  0  0  0  0  0  0  0  0  0
   -3.9124   19.7048  -33.7447 H   0  0  0  0  0  0  0  0  0  0  0  0
   -4.7200   21.4430  -32.5610 H   0  0  0  0  0  0  0  0  0  0  0  0
   -3.7237   25.5301  -31.0665 H   0  0  0  0  0  0  0  0  0  0  0  0
  1  2  2  0
  2  3  1  0
  3  4  2  0
  4  5  1  0
  5  6  2  0
  6  7  1  0
  7  8  2  0
  8  9  1  0
  9 10  2  0
 10 11  1  0
 11 12  2  0
 12 13  1  0
 13 14  2  0
 14 15  1  0
 15 16  2  0
 16 17  1  0
  4 18  1  0
 18 19  2  0
 19  1  1  0
 17  5  1  0
 16  7  1  0
 15 10  1  0
  1 20  1  0
  2 21  1  0
  3 22  1  0
  6 23  1  0
  8 24  1  0
 11 25  1  0
 12 26  1  0
 13 27  1  0
 14 28  1  0
 17 29  1  0
 19 30  1  0
M  END
>  <UniqueID>  (23) 
20

>  <SMILES>  (23) 
c1ccc(-c2cc3cnc4ccccc4c3[nH]2)nc1

>  <Energy>  (23) 
73.86310472435594

>  <Genealogy>  (23) 
c1ccc(-c2cc3cnc4ccccc4c3[nH]2)nc1 (3D coordinates assigned)
c1ccc(-c2cc3cnc4ccccc4c3[nH]2)nc1 (optimized conformer: 73.86310472435594 kcal/mol)

>  <smiles>  (23) 
c1ccc(-c2cc3cnc4ccccc4c3[nH]2)nc1

>  <score_type>  (23) 
oracle

>  <origin>  (23) 
adg

>  <m_score__min__energy>  (23) 
-7.5899999999999999

>  <m_primary>  (23) 
energy

$$$$
23:0
     RDKit          3D

 39 41  0  0  0  0  0  0  0  0999 V2000
   -6.4110   17.0660  -33.6760 C   0  0  0  0  0  0  0  0  0  0  0  0
   -6.9360   18.3440  -33.0890 C   0  0  0  0  0  0  0  0  0  0  0  0
   -6.2730   19.5570  -33.3300 C   0  0  0  0  0  0  0  0  0  0  0  0
   -6.7420   20.7430  -32.7560 C   0  0  0  0  0  0  0  0  0  0  0  0
   -7.8650   20.7240  -31.9190 C   0  0  0  0  0  0  0  0  0  0  0  0
   -8.4720   22.2180  -31.2150 S   0  0  0  0  0  0  0  0  0  0  0  0
   -9.1920   23.0250  -32.2600 O   0  0  0  0  0  0  0  0  0  0  0  0
   -9.4420   21.9060  -30.1090 O   0  0  0  0  0  0  0  0  0  0  0  0
   -7.1450   23.1310  -30.5880 N   0  0  0  0  0  0  0  0  0  0  0  0
   -6.8860   24.4260  -30.8350 C   0  0  0  0  0  0  0  0  0  0  0  0
   -5.7630   24.8150  -30.1330 C   0  0  0  0  0  0  0  0  0  0  0  0
   -5.3320   23.7000  -29.4240 C   0  0  0  0  0  0  0  0  0  0  0  0
   -4.1630   23.6190  -28.5110 C   0  0  0  0  0  0  0  0  0  0  0  0
   -3.2490   22.5570  -28.6160 C   0  0  0  0  0  0  0  0  0  0  0  0
   -2.1580   22.4940  -27.7510 C   0  0  0  0  0  0  0  0  0  0  0  0
   -1.9790   23.4750  -26.7670 C   0  0  0  0  0  0  0  0  0  0  0  0
   -0.7770   23.4480  -25.8580 C   0  0  0  0  0  0  0  0  0  0  0  0
    0.3880   23.6230  -26.5840 F   0  0  0  0  0  0  0  0  0  0  0  0
   -0.8540   24.4570  -24.9140 F   0  0  0  0  0  0  0  0  0  0  0  0
   -0.7250   22.2270  -25.2100 F   0  0  0  0  0  0  0  0  0  0  0  0
   -2.8960   24.5360  -26.7100 C   0  0  0  0  0  0  0  0  0  0  0  0
   -3.9560   24.5810  -27.5620 N   0  0  0  0  0  0  0  0  0  0  0  0
   -6.2160   22.6760  -29.7290 C   0  0  0  0  0  0  0  0  0  0  0  0
   -8.5230   19.5120  -31.6700 C   0  0  0  0  0  0  0  0  0  0  0  0
   -8.0560   18.3270  -32.2450 C   0  0  0  0  0  0  0  0  0  0  0  0
   -6.1287   16.3787  -32.8649 H   0  0  0  0  0  0  0  0  0  0  0  0
   -7.1906   16.6001  -34.2966 H   0  0  0  0  0  0  0  0  0  0  0  0
   -5.5290   17.2827  -34.2966 H   0  0  0  0  0  0  0  0  0  0  0  0
   -5.3807   19.5752  -33.9730 H   0  0  0  0  0  0  0  0  0  0  0  0
   -6.2276   21.6932  -32.9624 H   0  0  0  0  0  0  0  0  0  0  0  0
   -7.4781   25.0765  -31.4954 H   0  0  0  0  0  0  0  0  0  0  0  0
   -5.2997   25.8127  -30.1344 H   0  0  0  0  0  0  0  0  0  0  0  0
   -3.3941   21.7777  -29.3786 H   0  0  0  0  0  0  0  0  0  0  0  0
   -1.4344   21.6705  -27.8413 H   0  0  0  0  0  0  0  0  0  0  0  0
   -2.7566   25.3381  -25.9702 H   0  0  0  0  0  0  0  0  0  0  0  0
   -4.6050   25.3950  -27.4830 H   0  0  0  0  0  0  0  0  0  0  0  0
   -6.1652   21.6519  -29.3306 H   0  0  0  0  0  0  0  0  0  0  0  0
   -9.4100   19.4934  -31.0198 H   0  0  0  0  0  0  0  0  0  0  0  0
   -8.5690   17.3769  -32.0348 H   0  0  0  0  0  0  0  0  0  0  0  0
  1  2  1  0
  2  3  2  0
  3  4  1  0
  4  5  2  0
  5  6  1  0
  6  7  2  0
  6  8  2  0
  6  9  1  0
  9 10  1  0
 10 11  2  0
 11 12  1  0
 12 13  1  0
 13 14  2  0
 14 15  1  0
 15 16  2  0
 16 17  1  0
 17 18  1  0
 17 19  1  0
 17 20  1  0
 16 21  1  0
 21 22  2  0
 12 23  2  0
  5 24  1  0
 24 25  2  0
 25  2  1  0
 23  9  1  0
 22 13  1  0
  1 26  1  0
  1 27  1  0
  1 28  1  0
  3 29  1  0
  4 30  1  0
 10 31  1  0
 11 32  1  0
 14 33  1  0
 15 34  1  0
 21 35  1  0
 22 36  1  0
 23 37  1  0
 24 38  1  0
 25 39  1  0
M  CHG  1  22   1
M  END
>  <UniqueID>  (24) 
21

>  <SMILES>  (24) 
Cc1ccc(S(=O)(=O)n2ccc(-c3ccc(C(F)(F)F)c[nH+]3)c2)cc1

>  <Energy>  (24) 
71.06366273216207

>  <Genealogy>  (24) 
Cc1ccc(S(=O)(=O)n2ccc(-c3ccc(C(F)(F)F)c[nH+]3)c2)cc1 (protonated)
Cc1ccc(S(=O)(=O)n2ccc(-c3ccc(C(F)(F)F)c[nH+]3)c2)cc1 (3D coordinates assigned)
Cc1ccc(S(=O)(=O)n2ccc(-c3ccc(C(F)(F)F)c[nH+]3)c2)cc1 (optimized conformer: 71.06366273216207 kcal/mol)

>  <smiles>  (24) 
Cc1ccc(S(=O)(=O)n2ccc(-c3ccc(C(F)(F)F)cn3)c2)cc1

>  <score_type>  (24) 
oracle

>  <origin>  (24) 
adg

>  <m_score__min__energy>  (24) 
-7.8600000000000003

>  <m_primary>  (24) 
energy

$$$$
24:0
     RDKit          3D

 57 62  0  0  0  0  0  0  0  0999 V2000
  -10.8960   22.1458  -32.0812 H   0  0  0  0  0  0  0  0  0  0  0  0
   -9.8570   21.7850  -32.0650 C   0  0  0  0  0  0  0  0  0  0  0  0
   -9.5710   20.5170  -32.4990 N   0  0  0  0  0  0  0  0  0  0  0  0
   -8.3010   20.0150  -32.5000 C   0  0  0  0  0  0  0  0  0  0  0  0
   -8.0998   18.9927  -32.8529 H   0  0  0  0  0  0  0  0  0  0  0  0
   -7.2630   20.8310  -32.0420 C   0  0  0  0  0  0  0  0  0  0  0  0
   -7.5430   22.1110  -31.6040 C   0  0  0  0  0  0  0  0  0  0  0  0
   -8.8350   22.6270  -31.6000 C   0  0  0  0  0  0  0  0  0  0  0  0
   -9.0458   23.6478  -31.2486 H   0  0  0  0  0  0  0  0  0  0  0  0
   -6.3400   22.6560  -31.2250 C   0  0  0  0  0  0  0  0  0  0  0  0
   -5.9720   23.8920  -30.7150 C   0  0  0  0  0  0  0  0  0  0  0  0
   -6.7196   24.6777  -30.5314 H   0  0  0  0  0  0  0  0  0  0  0  0
   -4.6500   24.0990  -30.4490 N   0  0  0  0  0  0  0  0  0  0  0  0
   -3.7080   23.1260  -30.6670 C   0  0  0  0  0  0  0  0  0  0  0  0
   -2.4590   23.3880  -30.4170 N   0  0  0  0  0  0  0  0  0  0  0  0
   -1.9410   23.9920  -29.2210 C   0  0  0  0  0  0  0  0  0  0  0  0
   -0.5760   23.8810  -28.9450 C   0  0  0  0  0  0  0  0  0  0  0  0
    0.0834   23.3304  -29.6321 H   0  0  0  0  0  0  0  0  0  0  0  0
   -0.0530   24.4710  -27.7950 C   0  0  0  0  0  0  0  0  0  0  0  0
    1.0179   24.3689  -27.5653 H   0  0  0  0  0  0  0  0  0  0  0  0
   -0.8880   25.1950  -26.9290 C   0  0  0  0  0  0  0  0  0  0  0  0
   -0.3590   25.8080  -25.7330 N   0  0  0  0  0  0  0  0  0  0  0  0
    0.6380   26.8830  -25.8250 C   0  0  0  0  0  0  0  0  0  0  0  0
    1.3029   26.6891  -26.6796 H   0  0  0  0  0  0  0  0  0  0  0  0
    0.1179   27.8425  -25.9623 H   0  0  0  0  0  0  0  0  0  0  0  0
    1.4710   26.9470  -24.5410 C   0  0  0  0  0  0  0  0  0  0  0  0
    2.0315   26.0063  -24.4362 H   0  0  0  0  0  0  0  0  0  0  0  0
    2.1463   27.8116  -24.6219 H   0  0  0  0  0  0  0  0  0  0  0  0
    0.6380   27.1380  -23.3400 N   0  0  0  0  0  0  0  0  0  0  0  0
    1.1630   26.7550  -22.5190 H   0  0  0  0  0  0  0  0  0  0  0  0
   -0.6920   26.4940  -23.3920 C   0  0  0  0  0  0  0  0  0  0  0  0
   -0.9263   26.0972  -22.3932 H   0  0  0  0  0  0  0  0  0  0  0  0
   -1.4113   27.2612  -23.7145 H   0  0  0  0  0  0  0  0  0  0  0  0
   -0.7740   25.3430  -24.4040 C   0  0  0  0  0  0  0  0  0  0  0  0
   -0.1111   24.5268  -24.0809 H   0  0  0  0  0  0  0  0  0  0  0  0
   -1.8124   24.9838  -24.4567 H   0  0  0  0  0  0  0  0  0  0  0  0
   -2.2490   25.3100  -27.2620 C   0  0  0  0  0  0  0  0  0  0  0  0
   -2.9245   25.8778  -26.6053 H   0  0  0  0  0  0  0  0  0  0  0  0
   -2.7380   24.7260  -28.3880 N   0  0  0  0  0  0  0  0  0  0  0  0
   -3.7440   24.8790  -28.6190 H   0  0  0  0  0  0  0  0  0  0  0  0
   -4.0840   21.9140  -31.1830 N   0  0  0  0  0  0  0  0  0  0  0  0
   -5.3940   21.6930  -31.4490 C   0  0  0  0  0  0  0  0  0  0  0  0
   -5.9310   20.5560  -31.9510 N   0  0  0  0  0  0  0  0  0  0  0  0
   -5.1900   19.3330  -32.3080 C   0  0  0  0  0  0  0  0  0  0  0  0
   -4.2077   19.4557  -31.8285 H   0  0  0  0  0  0  0  0  0  0  0  0
   -5.0300   19.1750  -33.8180 C   0  0  0  0  0  0  0  0  0  0  0  0
   -5.8604   19.6649  -34.3476 H   0  0  0  0  0  0  0  0  0  0  0  0
   -4.1029   19.6397  -34.1848 H   0  0  0  0  0  0  0  0  0  0  0  0
   -5.0510   17.6770  -34.0640 C   0  0  0  0  0  0  0  0  0  0  0  0
   -5.4729   17.4573  -35.0559 H   0  0  0  0  0  0  0  0  0  0  0  0
   -4.0383   17.2482  -34.0411 H   0  0  0  0  0  0  0  0  0  0  0  0
   -5.9330   17.0910  -32.9710 C   0  0  0  0  0  0  0  0  0  0  0  0
   -6.9690   16.9976  -33.3287 H   0  0  0  0  0  0  0  0  0  0  0  0
   -5.5895   16.0874  -32.6796 H   0  0  0  0  0  0  0  0  0  0  0  0
   -5.8680   18.0590  -31.7920 C   0  0  0  0  0  0  0  0  0  0  0  0
   -6.8821   18.2878  -31.4324 H   0  0  0  0  0  0  0  0  0  0  0  0
   -5.3071   17.6236  -30.9519 H   0  0  0  0  0  0  0  0  0  0  0  0
  1  2  1  0
  2  3  2  0
  3  4  1  0
  4  5  1  0
  4  6  2  0
  6  7  1  0
  7  8  2  0
  8  9  1  0
  7 10  1  0
 10 11  2  0
 11 12  1  0
 11 13  1  0
 13 14  1  0
 14 15  2  0
 15 16  1  0
 16 17  2  0
 17 18  1  0
 17 19  1  0
 19 20  1  0
 19 21  2  0
 21 22  1  0
 22 23  1  0
 23 24  1  0
 23 25  1  0
 23 26  1  0
 26 27  1  0
 26 28  1  0
 26 29  1  0
 29 30  1  0
 29 31  1  0
 31 32  1  0
 31 33  1  0
 31 34  1  0
 34 35  1  0
 34 36  1  0
 21 37  1  0
 37 38  1  0
 37 39  2  0
 39 40  1  0
 14 41  1  0
 41 42  2  0
 42 43  1  0
 43 44  1  0
 44 45  1  0
 44 46  1  0
 46 47  1  0
 46 48  1  0
 46 49  1  0
 49 50  1  0
 49 51  1  0
 49 52  1  0
 52 53  1  0
 52 54  1  0
 52 55  1  0
 55 56  1  0
 55 57  1  0
  8  2  1  0
 42 10  1  0
 55 44  1  0
 43  6  1  0
 39 16  1  0
 34 22  1  0
M  CHG  2  13  -1  39   1
M  END
>  <UniqueID>  (25) 
22

>  <SMILES>  (25) 
c1cc2c3c[n-]/c(=N/c4ccc(N5CCNCC5)c[nH+]4)nc3n(C3CCCC3)c2cn1

>  <Energy>  (25) 
124.00181949132552

>  <Genealogy>  (25) 
c1cc2c3c[n-]c(=Nc4ccc(N5CCNCC5)c[nH+]4)nc3n(C3CCCC3)c2cn1 (protonated)
c1cc2c3c[n-]/c(=N/c4ccc(N5CCNCC5)c[nH+]4)nc3n(C3CCCC3)c2cn1 (cis-trans isomerization)
c1cc2c3c[n-]/c(=N/c4ccc(N5CCNCC5)c[nH+]4)nc3n(C3CCCC3)c2cn1 (3D coordinates assigned)
c1cc2c3c[n-]/c(=N/c4ccc(N5CCNCC5)c[nH+]4)nc3n(C3CCCC3)c2cn1 (nonaromatic ring conformer: 124.00181949132552 kcal/mol)

>  <smiles>  (25) 
c1cc2c3c[nH]c(=Nc4ccc(N5CCNCC5)cn4)nc3n(C3CCCC3)c2cn1

>  <score_type>  (25) 
oracle

>  <origin>  (25) 
adg

>  <m_score__min__energy>  (25) 
-9.6500000000000004

>  <m_primary>  (25) 
energy

$$$$
25:0
     RDKit          3D

 36 38  0  0  0  0  0  0  0  0999 V2000
   -9.1020   20.4490  -32.3650 C   0  0  0  0  0  0  0  0  0  0  0  0
   -7.7880   19.8610  -32.6150 N   0  0  0  0  0  0  0  0  0  0  0  0
   -7.6120   18.6550  -33.1320 N   0  0  0  0  0  0  0  0  0  0  0  0
   -6.2900   18.4090  -33.2350 C   0  0  0  0  0  0  0  0  0  0  0  0
   -5.7070   17.1160  -33.7890 C   0  0  0  0  0  0  0  0  0  0  0  0
   -4.8320   17.4420  -35.0150 C   0  0  0  0  0  0  0  0  0  0  0  0
   -6.8590   16.1830  -34.2100 C   0  0  0  0  0  0  0  0  0  0  0  0
   -4.8380   16.3890  -32.7390 C   0  0  0  0  0  0  0  0  0  0  0  0
   -5.5960   19.5140  -32.7580 C   0  0  0  0  0  0  0  0  0  0  0  0
   -6.5770   20.4120  -32.3740 C   0  0  0  0  0  0  0  0  0  0  0  0
   -6.3200   21.7480  -31.8000 C   0  0  0  0  0  0  0  0  0  0  0  0
   -7.2150   22.4120  -31.0170 N   0  0  0  0  0  0  0  0  0  0  0  0
   -6.5680   23.5510  -30.7350 C   0  0  0  0  0  0  0  0  0  0  0  0
   -6.9970   24.6250  -29.9640 C   0  0  0  0  0  0  0  0  0  0  0  0
   -6.1120   25.7090  -29.8250 C   0  0  0  0  0  0  0  0  0  0  0  0
   -4.8470   25.6690  -30.4590 C   0  0  0  0  0  0  0  0  0  0  0  0
   -4.4800   24.5840  -31.2060 N   0  0  0  0  0  0  0  0  0  0  0  0
   -5.3490   23.5500  -31.3260 C   0  0  0  0  0  0  0  0  0  0  0  0
   -5.1530   22.4180  -32.0140 N   0  0  0  0  0  0  0  0  0  0  0  0
   -9.2698   20.5241  -31.2805 H   0  0  0  0  0  0  0  0  0  0  0  0
   -9.1459   21.4526  -32.8132 H   0  0  0  0  0  0  0  0  0  0  0  0
   -9.8796   19.8130  -32.8132 H   0  0  0  0  0  0  0  0  0  0  0  0
   -8.3850   18.0110  -33.4120 H   0  0  0  0  0  0  0  0  0  0  0  0
   -3.8507   17.8076  -34.6783 H   0  0  0  0  0  0  0  0  0  0  0  0
   -4.6968   16.5339  -35.6209 H   0  0  0  0  0  0  0  0  0  0  0  0
   -5.3239   18.2172  -35.6209 H   0  0  0  0  0  0  0  0  0  0  0  0
   -7.3533   15.7827  -33.3125 H   0  0  0  0  0  0  0  0  0  0  0  0
   -7.5883   16.7481  -34.8090 H   0  0  0  0  0  0  0  0  0  0  0  0
   -6.4577   15.3522  -34.8090 H   0  0  0  0  0  0  0  0  0  0  0  0
   -5.1724   16.6688  -31.7291 H   0  0  0  0  0  0  0  0  0  0  0  0
   -4.9377   15.3014  -32.8701 H   0  0  0  0  0  0  0  0  0  0  0  0
   -3.7851   16.6791  -32.8701 H   0  0  0  0  0  0  0  0  0  0  0  0
   -4.5056   19.6463  -32.6985 H   0  0  0  0  0  0  0  0  0  0  0  0
   -7.9863   24.6270  -29.4832 H   0  0  0  0  0  0  0  0  0  0  0  0
   -6.4017   26.5848  -29.2258 H   0  0  0  0  0  0  0  0  0  0  0  0
   -4.1544   26.5166  -30.3500 H   0  0  0  0  0  0  0  0  0  0  0  0
  1  2  1  0
  2  3  1  0
  3  4  2  0
  4  5  1  0
  5  6  1  0
  5  7  1  0
  5  8  1  0
  4  9  1  0
  9 10  2  0
 10 11  1  0
 11 12  2  0
 12 13  1  0
 13 14  2  0
 14 15  1  0
 15 16  2  0
 16 17  1  0
 17 18  2  0
 18 19  1  0
 10  2  1  0
 19 11  1  0
 18 13  1  0
  1 20  1  0
  1 21  1  0
  1 22  1  0
  3 23  1  0
  6 24  1  0
  6 25  1  0
  6 26  1  0
  7 27  1  0
  7 28  1  0
  7 29  1  0
  8 30  1  0
  8 31  1  0
  8 32  1  0
  9 33  1  0
 14 34  1  0
 15 35  1  0
 16 36  1  0
M  CHG  2   3   1  19  -1
M  END
>  <UniqueID>  (26) 
23

>  <SMILES>  (26) 
Cn1[nH+]c(C(C)(C)C)cc1-c1nc2cccnc2[n-]1

>  <Energy>  (26) 
101.59314937290989

>  <Genealogy>  (26) 
Cn1[nH+]c(C(C)(C)C)cc1-c1nc2cccnc2[n-]1 (protonated)
Cn1[nH+]c(C(C)(C)C)cc1-c1nc2cccnc2[n-]1 (3D coordinates assigned)
Cn1[nH+]c(C(C)(C)C)cc1-c1nc2cccnc2[n-]1 (optimized conformer: 101.59314937290989 kcal/mol)

>  <smiles>  (26) 
Cn1nc(C(C)(C)C)cc1-c1nc2cccnc2[nH]1

>  <score_type>  (26) 
oracle

>  <origin>  (26) 
adg

>  <m_score__min__energy>  (26) 
-7.7800000000000002

>  <m_primary>  (26) 
energy

$$$$
26:0
     RDKit          3D

 44 46  0  0  0  0  0  0  0  0999 V2000
   -8.0266   17.2257  -32.8748 H   0  0  0  0  0  0  0  0  0  0  0  0
   -7.3490   18.0920  -32.8970 C   0  0  0  0  0  0  0  0  0  0  0  0
   -7.8140   19.2600  -32.4250 C   0  0  0  0  0  0  0  0  0  0  0  0
   -7.2620   20.5890  -32.6370 C   0  0  0  0  0  0  0  0  0  0  0  0
   -6.3610   20.8770  -33.4700 O   0  0  0  0  0  0  0  0  0  0  0  0
   -8.0510   21.5530  -31.8850 C   0  0  0  0  0  0  0  0  0  0  0  0
   -7.8390   22.8740  -31.7720 C   0  0  0  0  0  0  0  0  0  0  0  0
   -8.6284   23.5506  -32.1312 H   0  0  0  0  0  0  0  0  0  0  0  0
   -6.6220   23.4830  -31.2000 C   0  0  0  0  0  0  0  0  0  0  0  0
   -5.3810   22.8630  -31.4030 C   0  0  0  0  0  0  0  0  0  0  0  0
   -5.3287   21.9123  -31.9539 H   0  0  0  0  0  0  0  0  0  0  0  0
   -4.2100   23.4450  -30.9100 C   0  0  0  0  0  0  0  0  0  0  0  0
   -3.2429   22.9434  -31.0623 H   0  0  0  0  0  0  0  0  0  0  0  0
   -4.2630   24.6710  -30.2190 C   0  0  0  0  0  0  0  0  0  0  0  0
   -3.1160   25.2930  -29.7000 O   0  0  0  0  0  0  0  0  0  0  0  0
   -2.2940   24.7370  -28.6800 C   0  0  0  0  0  0  0  0  0  0  0  0
   -2.6979   25.0102  -27.6940 H   0  0  0  0  0  0  0  0  0  0  0  0
   -2.2776   23.6416  -28.7788 H   0  0  0  0  0  0  0  0  0  0  0  0
   -1.2712   25.1295  -28.7788 H   0  0  0  0  0  0  0  0  0  0  0  0
   -5.4990   25.3020  -30.0420 C   0  0  0  0  0  0  0  0  0  0  0  0
   -5.5497   26.2624  -29.5081 H   0  0  0  0  0  0  0  0  0  0  0  0
   -6.6700   24.7220  -30.5380 C   0  0  0  0  0  0  0  0  0  0  0  0
   -7.6333   25.2374  -30.4097 H   0  0  0  0  0  0  0  0  0  0  0  0
   -9.2250   20.8620  -31.2660 C   0  0  0  0  0  0  0  0  0  0  0  0
   -9.2176   20.9992  -30.1746 H   0  0  0  0  0  0  0  0  0  0  0  0
  -10.1759   21.2701  -31.6392 H   0  0  0  0  0  0  0  0  0  0  0  0
   -9.0730   19.3670  -31.6200 C   0  0  0  0  0  0  0  0  0  0  0  0
   -8.9935   18.7633  -30.7039 H   0  0  0  0  0  0  0  0  0  0  0  0
   -9.9431   18.9949  -32.1809 H   0  0  0  0  0  0  0  0  0  0  0  0
   -5.9920   17.8880  -33.4440 C   0  0  0  0  0  0  0  0  0  0  0  0
   -5.7960   16.9400  -34.4560 C   0  0  0  0  0  0  0  0  0  0  0  0
   -6.6546   16.3811  -34.8565 H   0  0  0  0  0  0  0  0  0  0  0  0
   -4.5150   16.7010  -34.9590 C   0  0  0  0  0  0  0  0  0  0  0  0
   -4.3703   15.9659  -35.7644 H   0  0  0  0  0  0  0  0  0  0  0  0
   -3.4170   17.3930  -34.4420 C   0  0  0  0  0  0  0  0  0  0  0  0
   -2.4116   17.2086  -34.8483 H   0  0  0  0  0  0  0  0  0  0  0  0
   -3.5940   18.3260  -33.4020 C   0  0  0  0  0  0  0  0  0  0  0  0
   -2.5230   19.0370  -32.8400 O   0  0  0  0  0  0  0  0  0  0  0  0
   -2.4690   20.4560  -32.7300 C   0  0  0  0  0  0  0  0  0  0  0  0
   -2.4581   20.7413  -31.6677 H   0  0  0  0  0  0  0  0  0  0  0  0
   -1.5561   20.8272  -33.2187 H   0  0  0  0  0  0  0  0  0  0  0  0
   -3.3511   20.8955  -33.2187 H   0  0  0  0  0  0  0  0  0  0  0  0
   -4.8810   18.5570  -32.9020 C   0  0  0  0  0  0  0  0  0  0  0  0
   -5.0243   19.2695  -32.0763 H   0  0  0  0  0  0  0  0  0  0  0  0
  1  2  1  0
  2  3  2  3
  3  4  1  0
  4  5  2  0
  4  6  1  0
  6  7  2  0
  7  8  1  0
  7  9  1  0
  9 10  2  0
 10 11  1  0
 10 12  1  0
 12 13  1  0
 12 14  2  0
 14 15  1  0
 15 16  1  0
 16 17  1  0
 16 18  1  0
 16 19  1  0
 14 20  1  0
 20 21  1  0
 20 22  2  0
 22 23  1  0
  6 24  1  0
 24 25  1  0
 24 26  1  0
 24 27  1  0
 27 28  1  0
 27 29  1  0
  2 30  1  0
 30 31  2  0
 31 32  1  0
 31 33  1  0
 33 34  1  0
 33 35  2  0
 35 36  1  0
 35 37  1  0
 37 38  1  0
 38 39  1  0
 39 40  1  0
 39 41  1  0
 39 42  1  0
 37 43  2  0
 43 44  1  0
 27  3  1  0
 43 30  1  0
 22  9  1  0
M  END
>  <UniqueID>  (27) 
24

>  <SMILES>  (27) 
COc1ccc(/C=C2/CCC(=Cc3cccc(OC)c3)C2=O)cc1

>  <Energy>  (27) 
68.19164742037036

>  <Genealogy>  (27) 
COc1ccc(/C=C2/CCC(=Cc3cccc(OC)c3)C2=O)cc1 (cis-trans isomerization)
COc1ccc(/C=C2/CCC(=Cc3cccc(OC)c3)C2=O)cc1 (3D coordinates assigned)
COc1ccc(/C=C2/CCC(=Cc3cccc(OC)c3)C2=O)cc1 (nonaromatic ring conformer: 68.19164742037036 kcal/mol)

>  <smiles>  (27) 
COc1ccc(C=C2CCC(=Cc3cccc(OC)c3)C2=O)cc1

>  <score_type>  (27) 
oracle

>  <origin>  (27) 
adg

>  <m_score__min__energy>  (27) 
-9.4800000000000004

>  <m_primary>  (27) 
energy

$$$$
27:0
     RDKit          3D

 53 56  0  0  0  0  0  0  0  0999 V2000
   -1.1480   25.6640  -28.1470 C   0  0  0  0  0  0  0  0  0  0  0  0
   -1.8060   24.3720  -27.7090 C   0  0  0  0  0  0  0  0  0  0  0  0
   -3.3080   24.5200  -27.6320 C   0  0  0  0  0  0  0  0  0  0  0  0
   -3.9560   24.3580  -28.9490 C   0  0  0  0  0  0  0  0  0  0  0  0
   -3.4600   24.8310  -30.0250 O   0  0  0  0  0  0  0  0  0  0  0  0
   -5.1790   23.6430  -29.0010 N   0  0  0  0  0  0  0  0  0  0  0  0
   -5.8810   23.4360  -30.2320 C   0  0  0  0  0  0  0  0  0  0  0  0
   -6.0720   24.4630  -31.1460 C   0  0  0  0  0  0  0  0  0  0  0  0
   -6.7650   24.1720  -32.3140 C   0  0  0  0  0  0  0  0  0  0  0  0
   -7.2500   22.8890  -32.5580 C   0  0  0  0  0  0  0  0  0  0  0  0
   -7.0590   21.8730  -31.6500 C   0  0  0  0  0  0  0  0  0  0  0  0
   -7.5160   20.5110  -31.8140 C   0  0  0  0  0  0  0  0  0  0  0  0
   -8.8250   20.1660  -31.6590 N   0  0  0  0  0  0  0  0  0  0  0  0
   -9.0010   18.8750  -31.8700 N   0  0  0  0  0  0  0  0  0  0  0  0
   -7.8120   18.3260  -32.1710 C   0  0  0  0  0  0  0  0  0  0  0  0
   -7.4690   17.0700  -32.4660 N   0  0  0  0  0  0  0  0  0  0  0  0
   -6.1880   16.7700  -32.7380 C   0  0  0  0  0  0  0  0  0  0  0  0
   -5.2160   17.7690  -32.7090 C   0  0  0  0  0  0  0  0  0  0  0  0
   -5.5700   19.0820  -32.4000 C   0  0  0  0  0  0  0  0  0  0  0  0
   -4.4780   20.0350  -32.3090 C   0  0  0  0  0  0  0  0  0  0  0  0
   -3.9420   20.6840  -33.4090 C   0  0  0  0  0  0  0  0  0  0  0  0
   -2.8730   21.5500  -33.3210 C   0  0  0  0  0  0  0  0  0  0  0  0
   -2.2790   21.8120  -32.1030 C   0  0  0  0  0  0  0  0  0  0  0  0
   -2.7910   21.1820  -30.9920 C   0  0  0  0  0  0  0  0  0  0  0  0
   -2.1600   21.4520  -29.6580 C   0  0  0  0  0  0  0  0  0  0  0  0
   -3.0820   20.9450  -28.5700 C   0  0  0  0  0  0  0  0  0  0  0  0
   -3.8470   20.3270  -31.0900 C   0  0  0  0  0  0  0  0  0  0  0  0
   -6.8800   19.3490  -32.1340 C   0  0  0  0  0  0  0  0  0  0  0  0
   -6.3610   22.1590  -30.4700 C   0  0  0  0  0  0  0  0  0  0  0  0
   -0.8526   26.2440  -27.2603 H   0  0  0  0  0  0  0  0  0  0  0  0
   -0.2564   25.4356  -28.7494 H   0  0  0  0  0  0  0  0  0  0  0  0
   -1.8571   26.2508  -28.7494 H   0  0  0  0  0  0  0  0  0  0  0  0
   -1.5604   23.5812  -28.4332 H   0  0  0  0  0  0  0  0  0  0  0  0
   -1.4306   24.1129  -26.7080 H   0  0  0  0  0  0  0  0  0  0  0  0
   -3.7039   23.7560  -26.9467 H   0  0  0  0  0  0  0  0  0  0  0  0
   -3.5277   25.5359  -27.2719 H   0  0  0  0  0  0  0  0  0  0  0  0
   -5.6360   23.2280  -28.1380 H   0  0  0  0  0  0  0  0  0  0  0  0
   -5.6869   25.4749  -30.9516 H   0  0  0  0  0  0  0  0  0  0  0  0
   -6.9332   24.9657  -33.0568 H   0  0  0  0  0  0  0  0  0  0  0  0
   -7.7945   22.6849  -33.4917 H   0  0  0  0  0  0  0  0  0  0  0  0
   -9.9080   18.3570  -31.8150 H   0  0  0  0  0  0  0  0  0  0  0  0
   -5.9059   15.7356  -32.9837 H   0  0  0  0  0  0  0  0  0  0  0  0
   -4.1674   17.5210  -32.9304 H   0  0  0  0  0  0  0  0  0  0  0  0
   -4.3893   20.5002  -34.3970 H   0  0  0  0  0  0  0  0  0  0  0  0
   -2.4898   22.0367  -34.2300 H   0  0  0  0  0  0  0  0  0  0  0  0
   -1.4253   22.5010  -32.0232 H   0  0  0  0  0  0  0  0  0  0  0  0
   -1.1927   20.9321  -29.5947 H   0  0  0  0  0  0  0  0  0  0  0  0
   -1.9954   22.5326  -29.5346 H   0  0  0  0  0  0  0  0  0  0  0  0
   -2.6521   21.1814  -27.5855 H   0  0  0  0  0  0  0  0  0  0  0  0
   -4.0647   21.4296  -28.6669 H   0  0  0  0  0  0  0  0  0  0  0  0
   -3.1992   19.8556  -28.6669 H   0  0  0  0  0  0  0  0  0  0  0  0
   -4.2210   19.8450  -30.1747 H   0  0  0  0  0  0  0  0  0  0  0  0
   -6.1931   21.3646  -29.7279 H   0  0  0  0  0  0  0  0  0  0  0  0
  1  2  1  0
  2  3  1  0
  3  4  1  0
  4  5  2  0
  4  6  1  0
  6  7  1  0
  7  8  2  0
  8  9  1  0
  9 10  2  0
 10 11  1  0
 11 12  1  0
 12 13  2  0
 13 14  1  0
 14 15  1  0
 15 16  2  0
 16 17  1  0
 17 18  2  0
 18 19  1  0
 19 20  1  0
 20 21  2  0
 21 22  1  0
 22 23  2  0
 23 24  1  0
 24 25  1  0
 25 26  1  0
 24 27  2  0
 19 28  2  0
 11 29  2  0
 29  7  1  0
 28 12  1  0
 28 15  1  0
 27 20  1  0
  1 30  1  0
  1 31  1  0
  1 32  1  0
  2 33  1  0
  2 34  1  0
  3 35  1  0
  3 36  1  0
  6 37  1  0
  8 38  1  0
  9 39  1  0
 10 40  1  0
 14 41  1  0
 17 42  1  0
 18 43  1  0
 21 44  1  0
 22 45  1  0
 23 46  1  0
 25 47  1  0
 25 48  1  0
 26 49  1  0
 26 50  1  0
 26 51  1  0
 27 52  1  0
 29 53  1  0
M  END
>  <smiles>  (28) 
CCCC(=O)Nc1cccc(-c2n[nH]c3nccc(-c4cccc(CC)c4)c23)c1

>  <score_type>  (28) 
oracle

>  <origin>  (28) 
adg

>  <m_score__min__energy>  (28) 
-9.0800000000000001

>  <m_primary>  (28) 
energy

$$$$
28:0
     RDKit          3D

 41 42  0  0  0  0  0  0  0  0999 V2000
   -8.3020   23.1190  -31.9920 C   0  0  0  0  0  0  0  0  0  0  0  0
   -7.7760   22.2230  -30.8740 C   0  0  0  0  0  0  0  0  0  0  0  0
   -6.3740   21.8630  -31.1260 N   0  0  0  0  0  0  0  0  0  0  0  0
   -5.3330   22.7370  -30.6520 C   0  0  0  0  0  0  0  0  0  0  0  0
   -4.4100   22.2950  -29.6940 C   0  0  0  0  0  0  0  0  0  0  0  0
   -3.4010   23.1500  -29.2470 C   0  0  0  0  0  0  0  0  0  0  0  0
   -3.3200   24.4460  -29.7640 C   0  0  0  0  0  0  0  0  0  0  0  0
   -2.3090   25.3010  -29.3180 O   0  0  0  0  0  0  0  0  0  0  0  0
   -1.7400   25.2070  -28.0180 C   0  0  0  0  0  0  0  0  0  0  0  0
   -4.2240   24.8590  -30.6970 N   0  0  0  0  0  0  0  0  0  0  0  0
   -5.2150   24.0440  -31.1460 C   0  0  0  0  0  0  0  0  0  0  0  0
   -6.0450   20.7300  -31.9580 C   0  0  0  0  0  0  0  0  0  0  0  0
   -6.9990   19.8220  -32.2910 N   0  0  0  0  0  0  0  0  0  0  0  0
   -6.7110   18.7430  -33.0650 C   0  0  0  0  0  0  0  0  0  0  0  0
   -5.4000   18.5260  -33.5270 C   0  0  0  0  0  0  0  0  0  0  0  0
   -5.0370   17.3500  -34.4510 C   0  0  0  0  0  0  0  0  0  0  0  0
   -5.3620   17.6760  -35.7850 O   0  0  0  0  0  0  0  0  0  0  0  0
   -3.5150   16.9990  -34.4060 C   0  0  0  0  0  0  0  0  0  0  0  0
   -2.7610   18.0900  -34.8020 F   0  0  0  0  0  0  0  0  0  0  0  0
   -3.1080   16.6140  -33.1400 F   0  0  0  0  0  0  0  0  0  0  0  0
   -3.2470   15.9530  -35.2730 F   0  0  0  0  0  0  0  0  0  0  0  0
   -5.8960   16.1250  -34.0580 C   0  0  0  0  0  0  0  0  0  0  0  0
   -5.3330   14.9700  -34.5760 F   0  0  0  0  0  0  0  0  0  0  0  0
   -5.9550   15.9990  -32.6810 F   0  0  0  0  0  0  0  0  0  0  0  0
   -7.1850   16.2390  -34.5500 F   0  0  0  0  0  0  0  0  0  0  0  0
   -4.4400   19.4990  -33.1900 C   0  0  0  0  0  0  0  0  0  0  0  0
   -4.7760   20.5600  -32.4150 N   0  0  0  0  0  0  0  0  0  0  0  0
   -8.8130   23.9894  -31.5546 H   0  0  0  0  0  0  0  0  0  0  0  0
   -7.4615   23.4614  -32.6136 H   0  0  0  0  0  0  0  0  0  0  0  0
   -9.0106   22.5520  -32.6136 H   0  0  0  0  0  0  0  0  0  0  0  0
   -7.8465   22.7589  -29.9160 H   0  0  0  0  0  0  0  0  0  0  0  0
   -8.3802   21.3045  -30.8373 H   0  0  0  0  0  0  0  0  0  0  0  0
   -4.4809   21.2728  -29.2938 H   0  0  0  0  0  0  0  0  0  0  0  0
   -2.6760   22.8067  -28.4944 H   0  0  0  0  0  0  0  0  0  0  0  0
   -2.5286   25.3373  -27.2623 H   0  0  0  0  0  0  0  0  0  0  0  0
   -1.2720   24.2194  -27.8931 H   0  0  0  0  0  0  0  0  0  0  0  0
   -0.9793   25.9916  -27.8931 H   0  0  0  0  0  0  0  0  0  0  0  0
   -5.9271   24.4112  -31.8997 H   0  0  0  0  0  0  0  0  0  0  0  0
   -7.5085   18.0341  -33.3323 H   0  0  0  0  0  0  0  0  0  0  0  0
   -4.6210   17.3610  -36.3680 H   0  0  0  0  0  0  0  0  0  0  0  0
   -3.4085   19.3978  -33.5584 H   0  0  0  0  0  0  0  0  0  0  0  0
  1  2  1  0
  2  3  1  0
  3  4  1  0
  4  5  2  0
  5  6  1  0
  6  7  2  0
  7  8  1  0
  8  9  1  0
  7 10  1  0
 10 11  2  0
  3 12  1  0
 12 13  2  0
 13 14  1  0
 14 15  2  0
 15 16  1  0
 16 17  1  0
 16 18  1  0
 18 19  1  0
 18 20  1  0
 18 21  1  0
 16 22  1  0
 22 23  1  0
 22 24  1  0
 22 25  1  0
 15 26  1  0
 26 27  2  0
 11  4  1  0
 27 12  1  0
  1 28  1  0
  1 29  1  0
  1 30  1  0
  2 31  1  0
  2 32  1  0
  5 33  1  0
  6 34  1  0
  9 35  1  0
  9 36  1  0
  9 37  1  0
 11 38  1  0
 14 39  1  0
 17 40  1  0
 26 41  1  0
M  END
>  <UniqueID>  (29) 
25

>  <SMILES>  (29) 
CCN(c1ccc(OC)nc1)c1ncc(C(O)(C(F)(F)F)C(F)(F)F)cn1

>  <Energy>  (29) 
49.49382296779057

>  <Genealogy>  (29) 
CCN(c1ccc(OC)nc1)c1ncc(C(O)(C(F)(F)F)C(F)(F)F)cn1 (3D coordinates assigned)
CCN(c1ccc(OC)nc1)c1ncc(C(O)(C(F)(F)F)C(F)(F)F)cn1 (optimized conformer: 49.49382296779057 kcal/mol)

>  <smiles>  (29) 
CCN(c1ccc(OC)nc1)c1ncc(C(O)(C(F)(F)F)C(F)(F)F)cn1

>  <score_type>  (29) 
oracle

>  <origin>  (29) 
adg

>  <m_score__min__energy>  (29) 
-6.7599999999999998

>  <m_primary>  (29) 
energy

$$$$
29:0
     RDKit          3D

 28 31  0  0  0  0  0  0  0  0999 V2000
   -6.8650   18.0210  -33.4670 C   0  0  0  0  0  0  0  0  0  0  0  0
   -7.7960   18.3540  -32.4810 C   0  0  0  0  0  0  0  0  0  0  0  0
   -7.7280   19.5960  -31.8430 C   0  0  0  0  0  0  0  0  0  0  0  0
   -6.7230   20.5200  -32.1840 C   0  0  0  0  0  0  0  0  0  0  0  0
   -6.6570   21.8330  -31.5020 C   0  0  0  0  0  0  0  0  0  0  0  0
   -5.5940   22.2180  -30.7350 N   0  0  0  0  0  0  0  0  0  0  0  0
   -5.8130   23.4310  -30.2560 N   0  0  0  0  0  0  0  0  0  0  0  0
   -5.1660   24.3040  -29.4740 C   0  0  0  0  0  0  0  0  0  0  0  0
   -3.8390   24.1100  -28.8490 C   0  0  0  0  0  0  0  0  0  0  0  0
   -3.6250   24.1750  -27.4610 C   0  0  0  0  0  0  0  0  0  0  0  0
   -2.3060   23.9630  -27.0870 C   0  0  0  0  0  0  0  0  0  0  0  0
   -1.4060   23.6950  -28.4770 S   0  0  0  0  0  0  0  0  0  0  0  0
   -2.6740   23.8440  -29.5680 C   0  0  0  0  0  0  0  0  0  0  0  0
   -5.9470   25.4130  -29.3520 N   0  0  0  0  0  0  0  0  0  0  0  0
   -7.0740   25.2380  -30.0510 N   0  0  0  0  0  0  0  0  0  0  0  0
   -6.9380   24.0100  -30.5820 C   0  0  0  0  0  0  0  0  0  0  0  0
   -7.8870   23.0510  -31.5700 S   0  0  0  0  0  0  0  0  0  0  0  0
   -5.7900   20.1720  -33.1780 C   0  0  0  0  0  0  0  0  0  0  0  0
   -5.8630   18.9290  -33.8140 C   0  0  0  0  0  0  0  0  0  0  0  0
   -6.9211   17.0442  -33.9698 H   0  0  0  0  0  0  0  0  0  0  0  0
   -8.5843   17.6378  -32.2058 H   0  0  0  0  0  0  0  0  0  0  0  0
   -8.4657   19.8529  -31.0685 H   0  0  0  0  0  0  0  0  0  0  0  0
   -4.4294   24.3755  -26.7380 H   0  0  0  0  0  0  0  0  0  0  0  0
   -1.9178   23.9695  -26.0578 H   0  0  0  0  0  0  0  0  0  0  0  0
   -2.5986   23.7483  -30.6612 H   0  0  0  0  0  0  0  0  0  0  0  0
   -5.7310   26.2770  -28.8090 H   0  0  0  0  0  0  0  0  0  0  0  0
   -4.9979   20.8826  -33.4566 H   0  0  0  0  0  0  0  0  0  0  0  0
   -5.1290   18.6658  -34.5898 H   0  0  0  0  0  0  0  0  0  0  0  0
  1  2  2  0
  2  3  1  0
  3  4  2  0
  4  5  1  0
  5  6  2  0
  6  7  1  0
  7  8  1  0
  8  9  1  0
  9 10  1  0
 10 11  2  0
 11 12  1  0
 12 13  1  0
  8 14  2  0
 14 15  1  0
 15 16  2  0
 16 17  1  0
  4 18  1  0
 18 19  2  0
 19  1  1  0
 17  5  1  0
 16  7  1  0
 13  9  2  0
  1 20  1  0
  2 21  1  0
  3 22  1  0
 10 23  1  0
 11 24  1  0
 13 25  1  0
 14 26  1  0
 18 27  1  0
 19 28  1  0
M  CHG  1  14   1
M  END
>  <UniqueID>  (30) 
26

>  <SMILES>  (30) 
c1ccc(-c2nn3c(-c4ccsc4)[nH+]nc3s2)cc1

>  <Energy>  (30) 
153.44458078628892

>  <Genealogy>  (30) 
c1ccc(-c2nn3c(-c4ccsc4)[nH+]nc3s2)cc1 (protonated)
c1ccc(-c2nn3c(-c4ccsc4)[nH+]nc3s2)cc1 (3D coordinates assigned)
c1ccc(-c2nn3c(-c4ccsc4)[nH+]nc3s2)cc1 (optimized conformer: 153.44458078628892 kcal/mol)

>  <smiles>  (30) 
c1ccc(-c2nn3c(-c4ccsc4)nnc3s2)cc1

>  <score_type>  (30) 
oracle

>  <origin>  (30) 
adg

>  <m_score__min__energy>  (30) 
-7.5499999999999998

>  <m_primary>  (30) 
energy

$$$$
30:0
     RDKit          3D

 45 48  0  0  0  0  0  0  0  0999 V2000
   -0.8490   27.5080  -24.1320 C   0  0  0  0  0  0  0  0  0  0  0  0
   -0.6810   26.1050  -24.6360 C   0  0  0  0  0  0  0  0  0  0  0  0
   -1.4490   25.6550  -25.7200 C   0  0  0  0  0  0  0  0  0  0  0  0
   -1.3160   24.3300  -26.1820 C   0  0  0  0  0  0  0  0  0  0  0  0
   -2.0960   23.8570  -27.3060 N   0  0  0  0  0  0  0  0  0  0  0  0
   -1.5240   23.4200  -28.6000 C   0  0  0  0  0  0  0  0  0  0  0  0
   -2.7330   23.4720  -29.5090 C   0  0  1  0  0  0  0  0  0  0  0  0
   -2.9930   22.6600  -30.7600 C   0  0  0  0  0  0  0  0  0  0  0  0
   -4.4670   22.6280  -30.7920 N   0  0  0  0  0  0  0  0  0  0  0  0
   -5.2190   22.4050  -32.0000 C   0  0  0  0  0  0  0  0  0  0  0  0
   -4.6310   22.4350  -33.1150 O   0  0  0  0  0  0  0  0  0  0  0  0
   -6.6680   22.1260  -31.9670 C   0  0  0  0  0  0  0  0  0  0  0  0
   -7.1390   20.8040  -31.9770 C   0  0  0  0  0  0  0  0  0  0  0  0
   -8.5160   20.5470  -31.9610 C   0  0  0  0  0  0  0  0  0  0  0  0
   -9.4270   21.6050  -31.9540 C   0  0  0  0  0  0  0  0  0  0  0  0
   -8.9640   22.9230  -31.9690 C   0  0  0  0  0  0  0  0  0  0  0  0
   -7.5900   23.1850  -31.9810 C   0  0  0  0  0  0  0  0  0  0  0  0
   -5.0430   23.0890  -29.5130 C   0  0  0  0  0  0  0  0  0  0  0  0
   -3.8360   23.0230  -28.6040 C   0  0  2  0  0  0  0  0  0  0  0  0
   -3.5720   23.8190  -27.3440 C   0  0  0  0  0  0  0  0  0  0  0  0
   -0.3920   23.4880  -25.5360 C   0  0  0  0  0  0  0  0  0  0  0  0
    0.3630   23.9730  -24.4680 C   0  0  0  0  0  0  0  0  0  0  0  0
    0.1970   25.2530  -24.0330 N   0  0  0  0  0  0  0  0  0  0  0  0
   -0.8486   27.5050  -23.0320 H   0  0  0  0  0  0  0  0  0  0  0  0
   -0.0190   28.1307  -24.4972 H   0  0  0  0  0  0  0  0  0  0  0  0
   -1.8025   27.9171  -24.4972 H   0  0  0  0  0  0  0  0  0  0  0  0
   -2.1574   26.3383  -26.2112 H   0  0  0  0  0  0  0  0  0  0  0  0
   -0.7364   24.1076  -28.9419 H   0  0  0  0  0  0  0  0  0  0  0  0
   -1.0391   22.4334  -28.5612 H   0  0  0  0  0  0  0  0  0  0  0  0
   -2.6061   24.4738  -29.9453 H   0  0  0  0  0  0  0  0  0  0  0  0
   -2.5828   23.1553  -31.6524 H   0  0  0  0  0  0  0  0  0  0  0  0
   -2.5239   21.6650  -30.7531 H   0  0  0  0  0  0  0  0  0  0  0  0
   -6.4250   19.9674  -31.9975 H   0  0  0  0  0  0  0  0  0  0  0  0
   -8.8804   19.5091  -31.9539 H   0  0  0  0  0  0  0  0  0  0  0  0
  -10.5078   21.4011  -31.9367 H   0  0  0  0  0  0  0  0  0  0  0  0
   -9.6816   23.7567  -31.9714 H   0  0  0  0  0  0  0  0  0  0  0  0
   -7.2305   24.2244  -32.0015 H   0  0  0  0  0  0  0  0  0  0  0  0
   -5.4315   24.1150  -29.5928 H   0  0  0  0  0  0  0  0  0  0  0  0
   -5.9017   22.4957  -29.1657 H   0  0  0  0  0  0  0  0  0  0  0  0
   -3.9673   22.0195  -28.1729 H   0  0  0  0  0  0  0  0  0  0  0  0
   -3.9958   24.8316  -27.4152 H   0  0  0  0  0  0  0  0  0  0  0  0
   -4.0270   23.3839  -26.4420 H   0  0  0  0  0  0  0  0  0  0  0  0
   -0.2652   22.4485  -25.8728 H   0  0  0  0  0  0  0  0  0  0  0  0
    1.0963   23.3182  -23.9745 H   0  0  0  0  0  0  0  0  0  0  0  0
    0.7760   25.5820  -23.2280 H   0  0  0  0  0  0  0  0  0  0  0  0
  1  2  1  0
  2  3  2  0
  3  4  1  0
  4  5  1  0
  5  6  1  0
  6  7  1  0
  7  8  1  0
  8  9  1  0
  9 10  1  0
 10 11  2  0
 10 12  1  0
 12 13  2  0
 13 14  1  0
 14 15  2  0
 15 16  1  0
 16 17  2  0
  9 18  1  0
 18 19  1  0
 19 20  1  0
  4 21  2  0
 21 22  1  0
 22 23  2  0
 23  2  1  0
 20  5  1  0
 19  7  1  0
 17 12  1  0
  1 24  1  0
  1 25  1  0
  1 26  1  0
  3 27  1  0
  6 28  1  0
  6 29  1  0
  7 30  1  6
  8 31  1  0
  8 32  1  0
 13 33  1  0
 14 34  1  0
 15 35  1  0
 16 36  1  0
 17 37  1  0
 18 38  1  0
 18 39  1  0
 19 40  1  1
 20 41  1  0
 20 42  1  0
 21 43  1  0
 22 44  1  0
 23 45  1  0
M  CHG  1  23   1
M  END
>  <UniqueID>  (31) 
27

>  <SMILES>  (31) 
Cc1cc(N2C[C@H]3CN(C(=O)c4ccccc4)C[C@@H]3C2)cc[nH+]1

>  <Energy>  (31) 
88.96025356955965

>  <Genealogy>  (31) 
Cc1cc(N2CC3CN(C(=O)c4ccccc4)CC3C2)cc[nH+]1 (protonated)
Cc1cc(N2C[C@H]3CN(C(=O)c4ccccc4)C[C@@H]3C2)cc[nH+]1 (chirality)
Cc1cc(N2C[C@H]3CN(C(=O)c4ccccc4)C[C@@H]3C2)cc[nH+]1 (3D coordinates assigned)
Cc1cc(N2C[C@H]3CN(C(=O)c4ccccc4)C[C@@H]3C2)cc[nH+]1 (nonaromatic ring conformer: 88.96025356955965 kcal/mol)

>  <smiles>  (31) 
Cc1cc(N2CC3CN(C(=O)c4ccccc4)CC3C2)ccn1

>  <score_type>  (31) 
oracle

>  <origin>  (31) 
adg

>  <m_score__min__energy>  (31) 
-8.4900000000000002

>  <m_primary>  (31) 
energy

$$$$
31:0
     RDKit          3D

 20 21  0  0  0  0  0  0  0  0999 V2000
   -4.4680   21.2720  -32.7640 C   0  0  0  0  0  0  0  0  0  0  0  0
   -5.8550   21.5840  -32.2610 C   0  0  0  0  0  0  0  0  0  0  0  0
   -6.9240   20.7950  -32.7270 C   0  0  0  0  0  0  0  0  0  0  0  0
   -8.2240   21.0180  -32.2740 C   0  0  0  0  0  0  0  0  0  0  0  0
   -8.4780   22.0290  -31.3510 C   0  0  0  0  0  0  0  0  0  0  0  0
   -7.4350   22.8300  -30.8840 C   0  0  0  0  0  0  0  0  0  0  0  0
   -6.1140   22.6330  -31.3340 C   0  0  0  0  0  0  0  0  0  0  0  0
   -5.0540   23.5390  -30.8120 C   0  0  0  0  0  0  0  0  0  0  0  0
   -4.1040   23.1790  -29.9250 N   0  0  0  0  0  0  0  0  0  0  0  0
   -3.3840   24.3100  -29.8000 C   0  0  0  0  0  0  0  0  0  0  0  0
   -3.8610   25.3030  -30.5720 N   0  0  0  0  0  0  0  0  0  0  0  0
   -4.9090   24.8160  -31.2120 N   0  0  0  0  0  0  0  0  0  0  0  0
   -3.7933   21.1202  -31.9086 H   0  0  0  0  0  0  0  0  0  0  0  0
   -4.4966   20.3578  -33.3752 H   0  0  0  0  0  0  0  0  0  0  0  0
   -4.1024   22.1103  -33.3752 H   0  0  0  0  0  0  0  0  0  0  0  0
   -6.7317   19.9941  -33.4562 H   0  0  0  0  0  0  0  0  0  0  0  0
   -9.0499   20.3942  -32.6465 H   0  0  0  0  0  0  0  0  0  0  0  0
   -9.5031   22.1967  -30.9891 H   0  0  0  0  0  0  0  0  0  0  0  0
   -7.6468   23.6259  -30.1548 H   0  0  0  0  0  0  0  0  0  0  0  0
   -2.5075   24.4103  -29.1429 H   0  0  0  0  0  0  0  0  0  0  0  0
  1  2  1  0
  2  3  2  0
  3  4  1  0
  4  5  2  0
  5  6  1  0
  6  7  2  0
  7  8  1  0
  8  9  1  0
  9 10  2  0
 10 11  1  0
 11 12  1  0
  7  2  1  0
 12  8  2  0
  1 13  1  0
  1 14  1  0
  1 15  1  0
  3 16  1  0
  4 17  1  0
  5 18  1  0
  6 19  1  0
 10 20  1  0
M  CHG  1  11  -1
M  END
>  <UniqueID>  (32) 
28

>  <SMILES>  (32) 
Cc1ccccc1-c1nc[n-]n1

>  <Energy>  (32) 
56.3026069735757

>  <Genealogy>  (32) 
Cc1ccccc1-c1nc[n-]n1 (protonated)
Cc1ccccc1-c1nc[n-]n1 (3D coordinates assigned)
Cc1ccccc1-c1nc[n-]n1 (optimized conformer: 56.3026069735757 kcal/mol)

>  <smiles>  (32) 
Cc1ccccc1-c1nc[nH]n1

>  <score_type>  (32) 
oracle

>  <origin>  (32) 
adg

>  <m_score__min__energy>  (32) 
-7.1900000000000004

>  <m_primary>  (32) 
energy

$$$$
32:0
     RDKit          3D

 30 31  0  0  0  0  0  0  0  0999 V2000
   -7.5428   24.0218  -32.8189 H   0  0  0  0  0  0  0  0  0  0  0  0
   -7.2350   23.4060  -31.9610 C   0  0  0  0  0  0  0  0  0  0  0  0
   -8.0610   22.4210  -31.5810 C   0  0  0  0  0  0  0  0  0  0  0  0
   -8.8907   22.6871  -30.9096 H   0  0  0  0  0  0  0  0  0  0  0  0
   -7.9460   21.0060  -31.9920 C   0  0  0  0  0  0  0  0  0  0  0  0
   -8.8830   20.0450  -31.5710 C   0  0  0  0  0  0  0  0  0  0  0  0
   -9.7372   20.3490  -30.9482 H   0  0  0  0  0  0  0  0  0  0  0  0
   -8.7330   18.7050  -31.9410 C   0  0  0  0  0  0  0  0  0  0  0  0
   -9.4781   17.9606  -31.6237 H   0  0  0  0  0  0  0  0  0  0  0  0
   -7.6380   18.3110  -32.7130 C   0  0  0  0  0  0  0  0  0  0  0  0
   -7.5252   17.2580  -33.0104 H   0  0  0  0  0  0  0  0  0  0  0  0
   -6.6850   19.2550  -33.1080 C   0  0  0  0  0  0  0  0  0  0  0  0
   -5.8185   18.9422  -33.7091 H   0  0  0  0  0  0  0  0  0  0  0  0
   -6.8320   20.5960  -32.7400 C   0  0  0  0  0  0  0  0  0  0  0  0
   -6.0712   21.3324  -33.0381 H   0  0  0  0  0  0  0  0  0  0  0  0
   -5.9430   23.7310  -31.3190 C   0  0  0  0  0  0  0  0  0  0  0  0
   -4.4750   22.9330  -31.5800 S   0  0  0  0  0  0  0  0  0  0  0  0
   -3.6700   23.8090  -30.3860 C   0  0  0  0  0  0  0  0  0  0  0  0
   -2.4180   23.6780  -30.0610 N   0  0  0  0  0  0  0  0  0  0  0  0
   -1.7300   22.3970  -29.9670 C   0  0  0  0  0  0  0  0  0  0  0  0
   -1.5885   22.1336  -28.9084 H   0  0  0  0  0  0  0  0  0  0  0  0
   -2.3323   21.6202  -30.4608 H   0  0  0  0  0  0  0  0  0  0  0  0
   -0.7498   22.4701  -30.4608 H   0  0  0  0  0  0  0  0  0  0  0  0
   -4.4950   24.6820  -29.7720 N   0  0  0  0  0  0  0  0  0  0  0  0
   -4.1960   25.3090  -28.9910 H   0  0  0  0  0  0  0  0  0  0  0  0
   -5.7610   24.6440  -30.2750 C   0  0  0  0  0  0  0  0  0  0  0  0
   -6.8600   25.4940  -29.7140 C   0  0  0  0  0  0  0  0  0  0  0  0
   -6.8218   25.4644  -28.6151 H   0  0  0  0  0  0  0  0  0  0  0  0
   -6.7330   26.5312  -30.0575 H   0  0  0  0  0  0  0  0  0  0  0  0
   -7.8320   25.1103  -30.0575 H   0  0  0  0  0  0  0  0  0  0  0  0
  1  2  1  0
  2  3  2  0
  3  4  1  0
  3  5  1  0
  5  6  2  0
  6  7  1  0
  6  8  1  0
  8  9  1  0
  8 10  2  0
 10 11  1  0
 10 12  1  0
 12 13  1  0
 12 14  2  0
 14 15  1  0
  2 16  1  0
 16 17  1  0
 17 18  1  0
 18 19  2  0
 19 20  1  0
 20 21  1  0
 20 22  1  0
 20 23  1  0
 18 24  1  0
 24 25  1  0
 24 26  1  0
 26 27  1  0
 27 28  1  0
 27 29  1  0
 27 30  1  0
 14  5  1  0
 26 16  2  0
M  END
>  <UniqueID>  (33) 
29

>  <SMILES>  (33) 
C/N=c1/[nH]c(C)c(/C=C\c2ccccc2)s1

>  <Energy>  (33) 
66.61818175098638

>  <Genealogy>  (33) 
C/N=c1/[nH]c(C)c(/C=C\c2ccccc2)s1 (cis-trans isomerization)
C/N=c1/[nH]c(C)c(/C=C\c2ccccc2)s1 (3D coordinates assigned)
C/N=c1/[nH]c(C)c(/C=C\c2ccccc2)s1 (optimized conformer: 66.61818175098638 kcal/mol)

>  <smiles>  (33) 
CN=c1[nH]c(C)c(C=Cc2ccccc2)s1

>  <score_type>  (33) 
oracle

>  <origin>  (33) 
adg

>  <m_score__min__energy>  (33) 
-7.0499999999999998

>  <m_primary>  (33) 
energy

$$$$
33:0
     RDKit          3D

 40 41  0  0  0  0  0  0  0  0999 V2000
   -8.1270   18.7880  -32.4560 C   0  0  0  0  0  0  0  0  0  0  0  0
   -7.2350   19.8750  -33.0470 C   0  0  0  0  0  0  0  0  0  0  0  0
   -7.1300   21.0460  -32.1080 C   0  0  0  0  0  0  0  0  0  0  0  0
   -8.0460   21.1970  -31.0550 C   0  0  0  0  0  0  0  0  0  0  0  0
   -7.9620   22.3010  -30.2030 C   0  0  0  0  0  0  0  0  0  0  0  0
   -6.9610   23.2570  -30.3890 C   0  0  0  0  0  0  0  0  0  0  0  0
   -6.0330   23.1150  -31.4260 C   0  0  0  0  0  0  0  0  0  0  0  0
   -5.0000   24.0990  -31.5780 N   0  0  0  0  0  0  0  0  0  0  0  0
   -4.6600   25.1140  -30.6230 C   0  0  0  0  0  0  0  0  0  0  0  0
   -5.3620   26.1570  -30.5690 O   0  0  0  0  0  0  0  0  0  0  0  0
   -3.5520   24.9670  -29.7190 N   0  0  0  0  0  0  0  0  0  0  0  0
   -3.0570   23.6980  -29.2530 C   0  0  0  0  0  0  0  0  0  0  0  0
   -2.4020   22.8270  -30.1400 C   0  0  0  0  0  0  0  0  0  0  0  0
   -1.9000   21.6040  -29.6940 C   0  0  0  0  0  0  0  0  0  0  0  0
   -2.0530   21.2170  -28.3610 C   0  0  0  0  0  0  0  0  0  0  0  0
   -1.5250   19.9780  -27.9650 O   0  0  0  0  0  0  0  0  0  0  0  0
   -2.0250   19.2000  -26.8820 C   0  0  0  0  0  0  0  0  0  0  0  0
   -2.7280   22.0710  -27.4700 C   0  0  0  0  0  0  0  0  0  0  0  0
   -3.2290   23.3100  -27.9050 C   0  0  0  0  0  0  0  0  0  0  0  0
   -3.9490   24.2000  -26.9270 C   0  0  0  0  0  0  0  0  0  0  0  0
   -6.1430   22.0250  -32.3070 C   0  0  0  0  0  0  0  0  0  0  0  0
   -8.0865   18.8373  -31.3579 H   0  0  0  0  0  0  0  0  0  0  0  0
   -9.1632   18.9411  -32.7920 H   0  0  0  0  0  0  0  0  0  0  0  0
   -7.7746   17.8016  -32.7920 H   0  0  0  0  0  0  0  0  0  0  0  0
   -6.2308   19.4620  -33.2228 H   0  0  0  0  0  0  0  0  0  0  0  0
   -7.6772   20.2194  -33.9935 H   0  0  0  0  0  0  0  0  0  0  0  0
   -8.8324   20.4436  -30.9002 H   0  0  0  0  0  0  0  0  0  0  0  0
   -8.6863   22.4176  -29.3834 H   0  0  0  0  0  0  0  0  0  0  0  0
   -6.9021   24.1258  -29.7168 H   0  0  0  0  0  0  0  0  0  0  0  0
   -3.1220   25.8410  -29.3380 H   0  0  0  0  0  0  0  0  0  0  0  0
   -2.2839   23.1120  -31.1958 H   0  0  0  0  0  0  0  0  0  0  0  0
   -1.3792   20.9389  -30.3985 H   0  0  0  0  0  0  0  0  0  0  0  0
   -1.7273   19.6632  -25.9297 H   0  0  0  0  0  0  0  0  0  0  0  0
   -3.1225   19.1535  -26.9399 H   0  0  0  0  0  0  0  0  0  0  0  0
   -1.6114   18.1824  -26.9399 H   0  0  0  0  0  0  0  0  0  0  0  0
   -2.8651   21.7660  -26.4221 H   0  0  0  0  0  0  0  0  0  0  0  0
   -3.7007   23.8930  -25.9003 H   0  0  0  0  0  0  0  0  0  0  0  0
   -3.6379   25.2435  -27.0831 H   0  0  0  0  0  0  0  0  0  0  0  0
   -5.0344   24.1137  -27.0831 H   0  0  0  0  0  0  0  0  0  0  0  0
   -5.4513   21.9384  -33.1579 H   0  0  0  0  0  0  0  0  0  0  0  0
  1  2  1  0
  2  3  1  0
  3  4  2  0
  4  5  1  0
  5  6  2  0
  6  7  1  0
  7  8  1  0
  8  9  1  0
  9 10  2  0
  9 11  1  0
 11 12  1  0
 12 13  2  0
 13 14  1  0
 14 15  2  0
 15 16  1  0
 16 17  1  0
 15 18  1  0
 18 19  2  0
 19 20  1  0
  7 21  2  0
 21  3  1  0
 19 12  1  0
  1 22  1  0
  1 23  1  0
  1 24  1  0
  2 25  1  0
  2 26  1  0
  4 27  1  0
  5 28  1  0
  6 29  1  0
 11 30  1  0
 13 31  1  0
 14 32  1  0
 17 33  1  0
 17 34  1  0
 17 35  1  0
 18 36  1  0
 20 37  1  0
 20 38  1  0
 20 39  1  0
 21 40  1  0
M  CHG  1   8  -1
M  END
>  <UniqueID>  (34) 
30

>  <SMILES>  (34) 
CCc1cccc([N-]C(=O)Nc2ccc(OC)cc2C)c1

>  <Energy>  (34) 
42.05668333500912

>  <Genealogy>  (34) 
CCc1cccc([N-]C(=O)Nc2ccc(OC)cc2C)c1 (protonated)
CCc1cccc([N-]C(=O)Nc2ccc(OC)cc2C)c1 (3D coordinates assigned)
CCc1cccc([N-]C(=O)Nc2ccc(OC)cc2C)c1 (optimized conformer: 42.05668333500912 kcal/mol)

>  <smiles>  (34) 
CCc1cccc(NC(=O)Nc2ccc(OC)cc2C)c1

>  <score_type>  (34) 
oracle

>  <origin>  (34) 
adg

>  <m_score__min__energy>  (34) 
-9

>  <m_primary>  (34) 
energy

$$$$
34:0
     RDKit          3D

 39 42  0  0  0  0  0  0  0  0999 V2000
    0.2010   19.6540  -32.4290 C   0  0  0  0  0  0  0  0  0  0  0  0
   -1.0140   19.2310  -33.0390 O   0  0  0  0  0  0  0  0  0  0  0  0
   -2.2270   19.9290  -32.9570 C   0  0  0  0  0  0  0  0  0  0  0  0
   -2.2310   21.1860  -32.3420 C   0  0  0  0  0  0  0  0  0  0  0  0
   -3.4170   21.9140  -32.2170 C   0  0  0  0  0  0  0  0  0  0  0  0
   -4.6280   21.3980  -32.7140 C   0  0  0  0  0  0  0  0  0  0  0  0
   -4.6130   20.1560  -33.3760 C   0  0  0  0  0  0  0  0  0  0  0  0
   -3.4300   19.4160  -33.4770 C   0  0  0  0  0  0  0  0  0  0  0  0
   -6.0890   19.5830  -34.2140 S   0  0  0  0  0  0  0  0  0  0  0  0
   -7.1610   19.9660  -32.8310 C   0  0  0  0  0  0  0  0  0  0  0  0
   -8.1680   19.0670  -32.4650 C   0  0  0  0  0  0  0  0  0  0  0  0
   -9.1050   19.4230  -31.4920 C   0  0  0  0  0  0  0  0  0  0  0  0
   -9.0390   20.6800  -30.8880 C   0  0  0  0  0  0  0  0  0  0  0  0
   -8.0210   21.5740  -31.2330 C   0  0  0  0  0  0  0  0  0  0  0  0
   -7.0550   21.2180  -32.1940 C   0  0  0  0  0  0  0  0  0  0  0  0
   -5.8940   22.0500  -32.4450 N   0  0  0  0  0  0  0  0  0  0  0  0
   -5.9850   23.5160  -32.3590 C   0  0  0  0  0  0  0  0  0  0  0  0
   -5.2180   24.0580  -31.1860 C   0  0  0  0  0  0  0  0  0  0  0  0
   -5.2150   23.5150  -29.9180 C   0  0  0  0  0  0  0  0  0  0  0  0
   -4.3790   24.3540  -29.2140 C   0  0  0  0  0  0  0  0  0  0  0  0
   -3.9980   24.2190  -27.7790 C   0  0  0  0  0  0  0  0  0  0  0  0
   -3.9380   25.2940  -30.0180 O   0  0  0  0  0  0  0  0  0  0  0  0
   -4.4240   25.1480  -31.2150 N   0  0  0  0  0  0  0  0  0  0  0  0
    0.0943   19.6168  -31.3348 H   0  0  0  0  0  0  0  0  0  0  0  0
    1.0190   18.9878  -32.7405 H   0  0  0  0  0  0  0  0  0  0  0  0
    0.4284   20.6842  -32.7405 H   0  0  0  0  0  0  0  0  0  0  0  0
   -1.2912   21.6050  -31.9532 H   0  0  0  0  0  0  0  0  0  0  0  0
   -3.4039   22.8983  -31.7262 H   0  0  0  0  0  0  0  0  0  0  0  0
   -3.4401   18.4300  -33.9645 H   0  0  0  0  0  0  0  0  0  0  0  0
   -8.2222   18.0783  -32.9440 H   0  0  0  0  0  0  0  0  0  0  0  0
   -9.8941   18.7136  -31.2020 H   0  0  0  0  0  0  0  0  0  0  0  0
   -9.7905   20.9679  -30.1381 H   0  0  0  0  0  0  0  0  0  0  0  0
   -7.9743   22.5616  -30.7508 H   0  0  0  0  0  0  0  0  0  0  0  0
   -5.5770   23.9523  -33.2827 H   0  0  0  0  0  0  0  0  0  0  0  0
   -7.0436   23.7843  -32.2270 H   0  0  0  0  0  0  0  0  0  0  0  0
   -5.7514   22.6256  -29.5558 H   0  0  0  0  0  0  0  0  0  0  0  0
   -4.8452   24.5192  -27.1449 H   0  0  0  0  0  0  0  0  0  0  0  0
   -3.7338   23.1725  -27.5667 H   0  0  0  0  0  0  0  0  0  0  0  0
   -3.1339   24.8657  -27.5667 H   0  0  0  0  0  0  0  0  0  0  0  0
  1  2  1  0
  2  3  1  0
  3  4  2  0
  4  5  1  0
  5  6  2  0
  6  7  1  0
  7  8  2  0
  7  9  1  0
  9 10  1  0
 10 11  2  0
 11 12  1  0
 12 13  2  0
 13 14  1  0
 14 15  2  0
 15 16  1  0
 16 17  1  0
 17 18  1  0
 18 19  1  0
 19 20  2  0
 20 21  1  0
 20 22  1  0
 22 23  1  0
  8  3  1  0
 15 10  1  0
 23 18  2  0
 16  6  1  0
  1 24  1  0
  1 25  1  0
  1 26  1  0
  4 27  1  0
  5 28  1  0
  8 29  1  0
 11 30  1  0
 12 31  1  0
 13 32  1  0
 14 33  1  0
 17 34  1  0
 17 35  1  0
 19 36  1  0
 21 37  1  0
 21 38  1  0
 21 39  1  0
M  END
>  <UniqueID>  (35) 
31

>  <SMILES>  (35) 
COc1ccc2c(c1)Sc1ccccc1N2Cc1cc(C)on1

>  <Energy>  (35) 
88.37316322950453

>  <Genealogy>  (35) 
COc1ccc2c(c1)Sc1ccccc1N2Cc1cc(C)on1 (3D coordinates assigned)
COc1ccc2c(c1)Sc1ccccc1N2Cc1cc(C)on1 (nonaromatic ring conformer: 88.37316322950453 kcal/mol)

>  <smiles>  (35) 
COc1ccc2c(c1)Sc1ccccc1N2Cc1cc(C)on1

>  <score_type>  (35) 
oracle

>  <origin>  (35) 
adg

>  <m_score__min__energy>  (35) 
-9.2300000000000004

>  <m_primary>  (35) 
energy

$$$$
35:0
     RDKit          3D

 28 29  0  0  0  0  0  0  0  0999 V2000
   -6.7860   19.7330  -33.4430 C   0  0  0  0  0  0  0  0  0  0  0  0
   -8.1420   20.4280  -32.4480 S   0  0  0  0  0  0  0  0  0  0  0  0
   -7.1920   21.8600  -31.9340 C   0  0  0  0  0  0  0  0  0  0  0  0
   -7.8160   22.9000  -31.2380 C   0  0  0  0  0  0  0  0  0  0  0  0
   -7.0760   24.0150  -30.8340 C   0  0  0  0  0  0  0  0  0  0  0  0
   -5.6990   24.0950  -31.1100 C   0  0  0  0  0  0  0  0  0  0  0  0
   -4.9060   25.2750  -30.6880 C   0  0  0  0  0  0  0  0  0  0  0  0
   -5.4920   26.3700  -30.4810 O   0  0  0  0  0  0  0  0  0  0  0  0
   -3.4920   25.2000  -30.4560 N   0  0  0  0  0  0  0  0  0  0  0  0
   -2.8490   24.5480  -29.3510 C   0  0  0  0  0  0  0  0  0  0  0  0
   -3.4480   23.4740  -28.6690 C   0  0  0  0  0  0  0  0  0  0  0  0
   -2.7750   22.8600  -27.6110 C   0  0  0  0  0  0  0  0  0  0  0  0
   -1.5030   23.3130  -27.2550 C   0  0  0  0  0  0  0  0  0  0  0  0
   -0.9280   24.3370  -27.9400 N   0  0  0  0  0  0  0  0  0  0  0  0
   -1.5650   24.9520  -28.9720 C   0  0  0  0  0  0  0  0  0  0  0  0
   -5.0840   23.0500  -31.8200 C   0  0  0  0  0  0  0  0  0  0  0  0
   -5.8260   21.9350  -32.2240 C   0  0  0  0  0  0  0  0  0  0  0  0
   -6.0082   19.3343  -32.7751 H   0  0  0  0  0  0  0  0  0  0  0  0
   -7.1748   18.9230  -34.0777 H   0  0  0  0  0  0  0  0  0  0  0  0
   -6.3554   20.5216  -34.0777 H   0  0  0  0  0  0  0  0  0  0  0  0
   -8.8901   22.8406  -31.0082 H   0  0  0  0  0  0  0  0  0  0  0  0
   -7.5739   24.8355  -30.2966 H   0  0  0  0  0  0  0  0  0  0  0  0
   -4.4449   23.1183  -28.9685 H   0  0  0  0  0  0  0  0  0  0  0  0
   -3.2419   22.0280  -27.0635 H   0  0  0  0  0  0  0  0  0  0  0  0
   -0.9656   22.8408  -26.4194 H   0  0  0  0  0  0  0  0  0  0  0  0
   -1.0677   25.7715  -29.5115 H   0  0  0  0  0  0  0  0  0  0  0  0
   -4.0121   23.1090  -32.0597 H   0  0  0  0  0  0  0  0  0  0  0  0
   -5.3345   21.1165  -32.7703 H   0  0  0  0  0  0  0  0  0  0  0  0
  1  2  1  0
  2  3  1  0
  3  4  2  0
  4  5  1  0
  5  6  2  0
  6  7  1  0
  7  8  2  0
  7  9  1  0
  9 10  1  0
 10 11  2  0
 11 12  1  0
 12 13  2  0
 13 14  1  0
 14 15  2  0
  6 16  1  0
 16 17  2  0
 17  3  1  0
 15 10  1  0
  1 18  1  0
  1 19  1  0
  1 20  1  0
  4 21  1  0
  5 22  1  0
 11 23  1  0
 12 24  1  0
 13 25  1  0
 15 26  1  0
 16 27  1  0
 17 28  1  0
M  CHG  1   9  -1
M  END
>  <UniqueID>  (36) 
32

>  <SMILES>  (36) 
CSc1ccc(C(=O)[N-]c2cccnc2)cc1

>  <Energy>  (36) 
32.10703045412754

>  <Genealogy>  (36) 
CSc1ccc(C(=O)[N-]c2cccnc2)cc1 (protonated)
CSc1ccc(C(=O)[N-]c2cccnc2)cc1 (3D coordinates assigned)
CSc1ccc(C(=O)[N-]c2cccnc2)cc1 (optimized conformer: 32.10703045412754 kcal/mol)

>  <smiles>  (36) 
CSc1ccc(C(=O)Nc2cccnc2)cc1

>  <score_type>  (36) 
oracle

>  <origin>  (36) 
adg

>  <m_score__min__energy>  (36) 
-8.3900000000000006

>  <m_primary>  (36) 
energy

$$$$
36:0
     RDKit          3D

 44 46  0  0  0  0  0  0  0  0999 V2000
   -4.7110   17.5980  -32.9000 F   0  0  0  0  0  0  0  0  0  0  0  0
   -5.8280   18.3530  -32.7560 C   0  0  0  0  0  0  0  0  0  0  0  0
   -6.0730   19.4090  -33.6370 C   0  0  0  0  0  0  0  0  0  0  0  0
   -7.2270   20.1860  -33.4970 C   0  0  0  0  0  0  0  0  0  0  0  0
   -8.1570   19.9000  -32.4820 C   0  0  0  0  0  0  0  0  0  0  0  0
   -9.4220   20.7130  -32.3470 C   0  0  0  0  0  0  0  0  0  0  0  0
   -9.2850   22.0210  -31.5210 C   0  0  2  0  0  0  0  0  0  0  0  0
   -8.7830   23.2330  -32.3420 C   0  0  0  0  0  0  0  0  0  0  0  0
   -7.2460   23.4180  -32.3890 C   0  0  0  0  0  0  0  0  0  0  0  0
   -6.5130   22.6840  -31.3290 N   0  0  1  0  0  0  0  0  0  0  0  0
   -5.1580   23.2630  -31.1560 C   0  0  0  0  0  0  0  0  0  0  0  0
   -4.0810   22.3280  -31.6600 C   0  0  0  0  0  0  0  0  0  0  0  0
   -3.0900   21.8410  -30.7910 C   0  0  0  0  0  0  0  0  0  0  0  0
   -2.1160   20.9530  -31.2620 C   0  0  0  0  0  0  0  0  0  0  0  0
   -2.1250   20.5470  -32.5990 C   0  0  0  0  0  0  0  0  0  0  0  0
   -3.1070   21.0270  -33.4690 C   0  0  0  0  0  0  0  0  0  0  0  0
   -4.0810   21.9150  -33.0030 C   0  0  0  0  0  0  0  0  0  0  0  0
   -7.2680   22.7000  -30.0600 C   0  0  0  0  0  0  0  0  0  0  0  0
   -8.5370   21.8420  -30.1730 C   0  0  0  0  0  0  0  0  0  0  0  0
   -7.8870   18.8540  -31.5830 C   0  0  0  0  0  0  0  0  0  0  0  0
   -6.7320   18.0790  -31.7250 C   0  0  0  0  0  0  0  0  0  0  0  0
   -6.4920   17.0600  -30.8650 F   0  0  0  0  0  0  0  0  0  0  0  0
   -5.3568   19.6297  -34.4423 H   0  0  0  0  0  0  0  0  0  0  0  0
   -7.4082   21.0254  -34.1845 H   0  0  0  0  0  0  0  0  0  0  0  0
   -9.7618   20.9833  -33.3577 H   0  0  0  0  0  0  0  0  0  0  0  0
  -10.1338   20.0793  -31.7976 H   0  0  0  0  0  0  0  0  0  0  0  0
  -10.3190   22.2721  -31.2420 H   0  0  0  0  0  0  0  0  0  0  0  0
   -9.1414   23.1140  -33.3751 H   0  0  0  0  0  0  0  0  0  0  0  0
   -9.1785   24.1252  -31.8345 H   0  0  0  0  0  0  0  0  0  0  0  0
   -6.8856   23.0640  -33.3661 H   0  0  0  0  0  0  0  0  0  0  0  0
   -7.0511   24.4881  -32.2253 H   0  0  0  0  0  0  0  0  0  0  0  0
   -6.3980   21.6940  -31.6400 H   0  0  0  0  0  0  0  0  0  0  0  0
   -5.1001   24.2081  -31.7159 H   0  0  0  0  0  0  0  0  0  0  0  0
   -4.9914   23.4302  -30.0816 H   0  0  0  0  0  0  0  0  0  0  0  0
   -3.0796   22.1585  -29.7379 H   0  0  0  0  0  0  0  0  0  0  0  0
   -1.3420   20.5740  -30.5784 H   0  0  0  0  0  0  0  0  0  0  0  0
   -1.3584   19.8490  -32.9667 H   0  0  0  0  0  0  0  0  0  0  0  0
   -3.1138   20.7061  -34.5211 H   0  0  0  0  0  0  0  0  0  0  0  0
   -4.8515   22.2924  -33.6914 H   0  0  0  0  0  0  0  0  0  0  0  0
   -6.6321   22.3003  -29.2563 H   0  0  0  0  0  0  0  0  0  0  0  0
   -7.5604   23.7363  -29.8352 H   0  0  0  0  0  0  0  0  0  0  0  0
   -8.2529   20.7843  -30.0698 H   0  0  0  0  0  0  0  0  0  0  0  0
   -9.2215   22.1687  -29.3763 H   0  0  0  0  0  0  0  0  0  0  0  0
   -8.5888   18.6437  -30.7625 H   0  0  0  0  0  0  0  0  0  0  0  0
  1  2  1  0
  2  3  2  0
  3  4  1  0
  4  5  2  0
  5  6  1  0
  6  7  1  0
  7  8  1  0
  8  9  1  0
  9 10  1  0
 10 11  1  0
 11 12  1  0
 12 13  2  0
 13 14  1  0
 14 15  2  0
 15 16  1  0
 16 17  2  0
 10 18  1  0
 18 19  1  0
  5 20  1  0
 20 21  2  0
 21 22  1  0
 21  2  1  0
 19  7  1  0
 17 12  1  0
  3 23  1  0
  4 24  1  0
  6 25  1  0
  6 26  1  0
  7 27  1  1
  8 28  1  0
  8 29  1  0
  9 30  1  0
  9 31  1  0
 10 32  1  6
 11 33  1  0
 11 34  1  0
 13 35  1  0
 14 36  1  0
 15 37  1  0
 16 38  1  0
 17 39  1  0
 18 40  1  0
 18 41  1  0
 19 42  1  0
 19 43  1  0
 20 44  1  0
M  CHG  1  10   1
M  END
>  <UniqueID>  (37) 
33

>  <SMILES>  (37) 
Fc1ccc(CC2CC[NH+](Cc3ccccc3)CC2)cc1F

>  <Energy>  (37) 
53.97104920448041

>  <Genealogy>  (37) 
Fc1ccc(CC2CC[NH+](Cc3ccccc3)CC2)cc1F (protonated)
Fc1ccc(CC2CC[NH+](Cc3ccccc3)CC2)cc1F (3D coordinates assigned)
Fc1ccc(CC2CC[NH+](Cc3ccccc3)CC2)cc1F (nonaromatic ring conformer: 53.97104920448041 kcal/mol)

>  <smiles>  (37) 
Fc1ccc(CC2CCN(Cc3ccccc3)CC2)cc1F

>  <score_type>  (37) 
oracle

>  <origin>  (37) 
adg

>  <m_score__min__energy>  (37) 
-7.6799999999999997

>  <m_primary>  (37) 
energy

$$$$
37:0
     RDKit          3D

 39 40  0  0  0  0  0  0  0  0999 V2000
   -0.9370   24.0250  -28.9730 C   0  0  0  0  0  0  0  0  0  0  0  0
   -2.3740   24.4930  -28.7730 C   0  0  0  0  0  0  0  0  0  0  0  0
   -3.3140   23.6190  -29.4730 N   0  0  0  0  0  0  0  0  0  0  0  0
   -4.2100   24.1390  -30.4660 C   0  0  0  0  0  0  0  0  0  0  0  0
   -4.1060   25.3380  -30.8440 O   0  0  0  0  0  0  0  0  0  0  0  0
   -5.2820   23.2910  -31.0200 C   0  0  0  0  0  0  0  0  0  0  0  0
   -6.4790   23.8800  -31.4480 C   0  0  0  0  0  0  0  0  0  0  0  0
   -7.5370   23.0830  -31.8850 C   0  0  0  0  0  0  0  0  0  0  0  0
   -7.3940   21.6910  -31.8830 C   0  0  0  0  0  0  0  0  0  0  0  0
   -8.5160   20.8160  -32.3420 C   0  0  0  0  0  0  0  0  0  0  0  0
   -6.2160   21.1350  -31.4950 N   0  0  0  0  0  0  0  0  0  0  0  0
   -5.1560   21.8840  -31.0870 C   0  0  0  0  0  0  0  0  0  0  0  0
   -3.9640   21.2280  -30.7480 O   0  0  0  0  0  0  0  0  0  0  0  0
   -2.8160   21.2030  -31.5540 C   0  0  0  0  0  0  0  0  0  0  0  0
   -2.9650   21.1460  -32.9450 C   0  0  0  0  0  0  0  0  0  0  0  0
   -1.8420   21.0610  -33.7730 C   0  0  0  0  0  0  0  0  0  0  0  0
   -0.5580   21.0470  -33.2160 C   0  0  0  0  0  0  0  0  0  0  0  0
    0.8820   20.8990  -34.2750 S   0  0  0  0  0  0  0  0  0  0  0  0
    0.2640   22.1130  -35.4820 C   0  0  0  0  0  0  0  0  0  0  0  0
   -0.4000   21.1490  -31.8290 C   0  0  0  0  0  0  0  0  0  0  0  0
   -1.5210   21.2330  -31.0010 C   0  0  0  0  0  0  0  0  0  0  0  0
   -0.4620   23.8703  -27.9930 H   0  0  0  0  0  0  0  0  0  0  0  0
   -0.9342   23.0795  -29.5352 H   0  0  0  0  0  0  0  0  0  0  0  0
   -0.3779   24.7875  -29.5352 H   0  0  0  0  0  0  0  0  0  0  0  0
   -2.6082   24.4852  -27.6982 H   0  0  0  0  0  0  0  0  0  0  0  0
   -2.4707   25.5095  -29.1822 H   0  0  0  0  0  0  0  0  0  0  0  0
   -3.4110   22.6200  -29.1820 H   0  0  0  0  0  0  0  0  0  0  0  0
   -6.5848   24.9749  -31.4394 H   0  0  0  0  0  0  0  0  0  0  0  0
   -8.4749   23.5443  -32.2279 H   0  0  0  0  0  0  0  0  0  0  0  0
   -9.0422   20.4056  -31.4676 H   0  0  0  0  0  0  0  0  0  0  0  0
   -9.2180   21.4075  -32.9481 H   0  0  0  0  0  0  0  0  0  0  0  0
   -8.1133   19.9911  -32.9481 H   0  0  0  0  0  0  0  0  0  0  0  0
   -3.9713   21.1682  -33.3887 H   0  0  0  0  0  0  0  0  0  0  0  0
   -1.9676   21.0050  -34.8644 H   0  0  0  0  0  0  0  0  0  0  0  0
   -0.1725   22.9705  -34.9489 H   0  0  0  0  0  0  0  0  0  0  0  0
    1.0959   22.4586  -36.1133 H   0  0  0  0  0  0  0  0  0  0  0  0
   -0.5049   21.6437  -36.1133 H   0  0  0  0  0  0  0  0  0  0  0  0
    0.6088   21.1630  -31.3907 H   0  0  0  0  0  0  0  0  0  0  0  0
   -1.3923   21.3230  -29.9123 H   0  0  0  0  0  0  0  0  0  0  0  0
  1  2  1  0
  2  3  1  0
  3  4  1  0
  4  5  2  0
  4  6  1  0
  6  7  2  0
  7  8  1  0
  8  9  2  0
  9 10  1  0
  9 11  1  0
 11 12  2  0
 12 13  1  0
 13 14  1  0
 14 15  2  0
 15 16  1  0
 16 17  2  0
 17 18  1  0
 18 19  1  0
 17 20  1  0
 20 21  2  0
 12  6  1  0
 21 14  1  0
  1 22  1  0
  1 23  1  0
  1 24  1  0
  2 25  1  0
  2 26  1  0
  3 27  1  0
  7 28  1  0
  8 29  1  0
 10 30  1  0
 10 31  1  0
 10 32  1  0
 15 33  1  0
 16 34  1  0
 19 35  1  0
 19 36  1  0
 19 37  1  0
 20 38  1  0
 21 39  1  0
M  END
>  <UniqueID>  (38) 
34

>  <SMILES>  (38) 
CCNC(=O)c1ccc(C)nc1Oc1ccc(SC)cc1

>  <Energy>  (38) 
39.945557203894055

>  <Genealogy>  (38) 
CCNC(=O)c1ccc(C)nc1Oc1ccc(SC)cc1 (3D coordinates assigned)
CCNC(=O)c1ccc(C)nc1Oc1ccc(SC)cc1 (optimized conformer: 39.945557203894055 kcal/mol)

>  <smiles>  (38) 
CCNC(=O)c1ccc(C)nc1Oc1ccc(SC)cc1

>  <score_type>  (38) 
oracle

>  <origin>  (38) 
adg

>  <m_score__min__energy>  (38) 
-7.4900000000000002

>  <m_primary>  (38) 
energy

$$$$
38:0
     RDKit          3D

 26 26  0  0  0  0  0  0  0  0999 V2000
   -9.4814   17.8934  -31.2656 H   0  0  0  0  0  0  0  0  0  0  0  0
   -8.7020   18.4210  -31.8350 C   0  0  0  0  0  0  0  0  0  0  0  0
   -7.3890   17.7630  -32.0050 C   0  0  0  0  0  0  0  0  0  0  0  0
   -6.6920   17.5340  -30.9800 O   0  0  0  0  0  0  0  0  0  0  0  0
   -6.8570   17.3580  -33.3460 C   0  0  0  0  0  0  0  0  0  0  0  0
   -5.9883   16.6967  -33.2114 H   0  0  0  0  0  0  0  0  0  0  0  0
   -7.6401   16.8254  -33.9055 H   0  0  0  0  0  0  0  0  0  0  0  0
   -6.5520   18.2546  -33.9055 H   0  0  0  0  0  0  0  0  0  0  0  0
   -8.9900   19.6300  -32.3410 C   0  0  0  0  0  0  0  0  0  0  0  0
   -9.9433   19.7571  -32.8749 H   0  0  0  0  0  0  0  0  0  0  0  0
   -8.0920   20.8040  -32.2190 C   0  0  0  0  0  0  0  0  0  0  0  0
   -6.7430   20.7730  -32.6220 C   0  0  0  0  0  0  0  0  0  0  0  0
   -6.3183   19.8472  -33.0374 H   0  0  0  0  0  0  0  0  0  0  0  0
   -5.9400   21.9100  -32.4980 C   0  0  0  0  0  0  0  0  0  0  0  0
   -4.8897   21.8742  -32.8230 H   0  0  0  0  0  0  0  0  0  0  0  0
   -6.4610   23.0930  -31.9640 C   0  0  0  0  0  0  0  0  0  0  0  0
   -5.6170   24.2490  -31.8820 N   0  0  0  0  0  0  0  0  0  0  0  0
   -5.2120   24.9130  -30.6800 C   0  0  0  0  0  0  0  0  0  0  0  0
   -6.0830   25.2140  -29.8220 O   0  0  0  0  0  0  0  0  0  0  0  0
   -3.8530   25.2980  -30.4650 N   0  0  0  0  0  0  0  0  0  0  0  0
   -3.5710   25.7490  -29.5670 H   0  0  0  0  0  0  0  0  0  0  0  0
   -3.1420   25.2120  -31.2250 H   0  0  0  0  0  0  0  0  0  0  0  0
   -7.8170   23.1440  -31.6020 C   0  0  0  0  0  0  0  0  0  0  0  0
   -8.2469   24.0814  -31.2193 H   0  0  0  0  0  0  0  0  0  0  0  0
   -8.6230   22.0080  -31.7260 C   0  0  0  0  0  0  0  0  0  0  0  0
   -9.6826   22.0574  -31.4349 H   0  0  0  0  0  0  0  0  0  0  0  0
  1  2  1  0
  2  3  1  0
  3  4  2  0
  3  5  1  0
  5  6  1  0
  5  7  1  0
  5  8  1  0
  2  9  2  0
  9 10  1  0
  9 11  1  0
 11 12  2  0
 12 13  1  0
 12 14  1  0
 14 15  1  0
 14 16  2  0
 16 17  1  0
 17 18  1  0
 18 19  2  0
 18 20  1  0
 20 21  1  0
 20 22  1  0
 16 23  1  0
 23 24  1  0
 23 25  2  0
 25 26  1  0
 25 11  1  0
M  CHG  1  17  -1
M  END
>  <UniqueID>  (39) 
35

>  <SMILES>  (39) 
CC(=O)/C=C/c1ccc([N-]C(N)=O)cc1

>  <Energy>  (39) 
27.785796039572457

>  <Genealogy>  (39) 
CC(=O)C=Cc1ccc([N-]C(N)=O)cc1 (protonated)
CC(=O)/C=C/c1ccc([N-]C(N)=O)cc1 (cis-trans isomerization)
CC(=O)/C=C/c1ccc([N-]C(N)=O)cc1 (3D coordinates assigned)
CC(=O)/C=C/c1ccc([N-]C(N)=O)cc1 (optimized conformer: 27.785796039572457 kcal/mol)

>  <smiles>  (39) 
CC(=O)C=Cc1ccc(NC(N)=O)cc1

>  <score_type>  (39) 
oracle

>  <origin>  (39) 
adg

>  <m_score__min__energy>  (39) 
-8.3499999999999996

>  <m_primary>  (39) 
energy

$$$$
39:0
     RDKit          3D

 37 39  0  0  0  0  0  0  0  0999 V2000
   -6.7470   16.4704  -31.8756 H   0  0  0  0  0  0  0  0  0  0  0  0
   -6.2830   17.2560  -32.4900 C   0  0  0  0  0  0  0  0  0  0  0  0
   -6.6960   18.5170  -32.2940 C   0  0  0  0  0  0  0  0  0  0  0  0
   -5.5390   19.8880  -32.3690 S   0  0  0  0  0  0  0  0  0  0  0  0
   -6.9570   21.0070  -32.3630 C   0  0  0  0  0  0  0  0  0  0  0  0
   -6.8690   22.2930  -32.5440 N   0  0  0  0  0  0  0  0  0  0  0  0
   -6.3910   23.2540  -31.5920 C   0  0  0  0  0  0  0  0  0  0  0  0
   -7.2700   24.1140  -30.9150 C   0  0  0  0  0  0  0  0  0  0  0  0
   -8.3469   24.0837  -31.1373 H   0  0  0  0  0  0  0  0  0  0  0  0
   -6.7810   25.0080  -29.9600 C   0  0  0  0  0  0  0  0  0  0  0  0
   -7.4713   25.6929  -29.4457 H   0  0  0  0  0  0  0  0  0  0  0  0
   -5.4180   25.0350  -29.6560 C   0  0  0  0  0  0  0  0  0  0  0  0
   -5.0382   25.7484  -28.9098 H   0  0  0  0  0  0  0  0  0  0  0  0
   -4.5290   24.1560  -30.2980 C   0  0  0  0  0  0  0  0  0  0  0  0
   -3.0880   24.1750  -29.9620 C   0  0  0  0  0  0  0  0  0  0  0  0
   -2.3570   23.1790  -30.2150 O   0  0  0  0  0  0  0  0  0  0  0  0
   -2.5200   25.2920  -29.3600 O   0  0  0  0  0  0  0  0  0  0  0  0
   -5.0300   23.2580  -31.2590 C   0  0  0  0  0  0  0  0  0  0  0  0
   -4.3463   22.5523  -31.7535 H   0  0  0  0  0  0  0  0  0  0  0  0
   -8.2070   20.3860  -32.0590 N   0  0  0  0  0  0  0  0  0  0  0  0
   -9.4970   21.0790  -32.0330 C   0  0  0  0  0  0  0  0  0  0  0  0
  -10.3083   20.3367  -32.0603 H   0  0  0  0  0  0  0  0  0  0  0  0
   -9.5641   21.7430  -32.9074 H   0  0  0  0  0  0  0  0  0  0  0  0
   -9.6230   21.9150  -30.7650 C   0  0  0  0  0  0  0  0  0  0  0  0
   -9.5247   21.2629  -29.8846 H   0  0  0  0  0  0  0  0  0  0  0  0
   -8.8295   22.6766  -30.7476 H   0  0  0  0  0  0  0  0  0  0  0  0
  -10.6057   22.4089  -30.7476 H   0  0  0  0  0  0  0  0  0  0  0  0
   -8.0610   18.9740  -32.0140 C   0  0  0  0  0  0  0  0  0  0  0  0
   -9.0100   18.2130  -31.6860 O   0  0  0  0  0  0  0  0  0  0  0  0
   -5.2580   16.8390  -33.4620 C   0  0  0  0  0  0  0  0  0  0  0  0
   -4.9810   17.5210  -34.9780 S   0  0  0  0  0  0  0  0  0  0  0  0
   -3.5700   16.6720  -35.3110 C   0  0  0  0  0  0  0  0  0  0  0  0
   -2.9793   16.7409  -36.2364 H   0  0  0  0  0  0  0  0  0  0  0  0
   -3.2780   15.8690  -34.2180 C   0  0  0  0  0  0  0  0  0  0  0  0
   -2.3984   15.2099  -34.1738 H   0  0  0  0  0  0  0  0  0  0  0  0
   -4.2080   15.9760  -33.1760 C   0  0  0  0  0  0  0  0  0  0  0  0
   -4.1158   15.4305  -32.2252 H   0  0  0  0  0  0  0  0  0  0  0  0
  1  2  1  0
  2  3  2  3
  3  4  1  0
  4  5  1  0
  5  6  2  0
  6  7  1  0
  7  8  2  0
  8  9  1  0
  8 10  1  0
 10 11  1  0
 10 12  2  0
 12 13  1  0
 12 14  1  0
 14 15  1  0
 15 16  2  0
 15 17  1  0
 14 18  2  0
 18 19  1  0
  5 20  1  0
 20 21  1  0
 21 22  1  0
 21 23  1  0
 21 24  1  0
 24 25  1  0
 24 26  1  0
 24 27  1  0
 20 28  1  0
 28 29  2  0
  2 30  1  0
 30 31  1  0
 31 32  1  0
 32 33  1  0
 32 34  2  0
 34 35  1  0
 34 36  1  0
 36 37  1  0
 28  3  1  0
 36 30  2  0
 18  7  1  0
M  CHG  1  17  -1
M  END
>  <UniqueID>  (40) 
36

>  <SMILES>  (40) 
CCN1C(=O)C(=Cc2cccs2)S/C1=N\c1cccc(C(=O)[O-])c1

>  <Energy>  (40) 
95.0555787518231

>  <Genealogy>  (40) 
CCN1C(=O)C(=Cc2cccs2)SC1=Nc1cccc(C(=O)[O-])c1 (protonated)
CCN1C(=O)C(=Cc2cccs2)S/C1=N\c1cccc(C(=O)[O-])c1 (cis-trans isomerization)
CCN1C(=O)C(=Cc2cccs2)S/C1=N\c1cccc(C(=O)[O-])c1 (3D coordinates assigned)
CCN1C(=O)C(=Cc2cccs2)S/C1=N\c1cccc(C(=O)[O-])c1 (nonaromatic ring conformer: 95.0555787518231 kcal/mol)

>  <smiles>  (40) 
CCN1C(=O)C(=Cc2cccs2)SC1=Nc1cccc(C(=O)O)c1

>  <score_type>  (40) 
oracle

>  <origin>  (40) 
adg

>  <m_score__min__energy>  (40) 
-10.34

>  <m_primary>  (40) 
energy

$$$$
40:0
     RDKit          3D

 32 33  0  0  0  0  0  0  0  0999 V2000
   -0.6138   22.6485  -29.0172 H   0  0  0  0  0  0  0  0  0  0  0  0
   -1.4960   23.1950  -29.3820 C   0  0  0  0  0  0  0  0  0  0  0  0
   -2.5640   22.6670  -30.5700 S   0  0  0  0  0  0  0  0  0  0  0  0
   -3.5130   24.0590  -30.4810 C   0  0  0  0  0  0  0  0  0  0  0  0
   -4.6020   24.2940  -31.1520 N   0  0  0  0  0  0  0  0  0  0  0  0
   -5.6650   23.3620  -31.4100 C   0  0  0  0  0  0  0  0  0  0  0  0
   -6.9510   23.6550  -30.9370 C   0  0  0  0  0  0  0  0  0  0  0  0
   -7.1239   24.5713  -30.3534 H   0  0  0  0  0  0  0  0  0  0  0  0
   -8.0150   22.7890  -31.2030 C   0  0  0  0  0  0  0  0  0  0  0  0
   -9.0183   23.0162  -30.8133 H   0  0  0  0  0  0  0  0  0  0  0  0
   -7.8070   21.6350  -31.9630 C   0  0  0  0  0  0  0  0  0  0  0  0
   -8.6438   20.9496  -32.1630 H   0  0  0  0  0  0  0  0  0  0  0  0
   -6.5350   21.3520  -32.4690 C   0  0  0  0  0  0  0  0  0  0  0  0
   -6.2800   19.9200  -33.4490 Cl  0  0  0  0  0  0  0  0  0  0  0  0
   -5.4680   22.2170  -32.2030 C   0  0  0  0  0  0  0  0  0  0  0  0
   -4.4714   22.0009  -32.6155 H   0  0  0  0  0  0  0  0  0  0  0  0
   -3.0470   24.9180  -29.5510 N   0  0  0  0  0  0  0  0  0  0  0  0
   -1.9250   24.4480  -28.9400 C   0  0  0  0  0  0  0  0  0  0  0  0
   -1.2280   25.2150  -27.8910 C   0  0  0  0  0  0  0  0  0  0  0  0
    0.0330   25.2520  -27.8820 O   0  0  0  0  0  0  0  0  0  0  0  0
   -1.9740   25.9140  -26.8810 N   0  0  0  0  0  0  0  0  0  0  0  0
   -3.0150   25.8220  -26.8720 H   0  0  0  0  0  0  0  0  0  0  0  0
   -1.3210   26.7230  -25.8460 C   0  0  0  0  0  0  0  0  0  0  0  0
   -2.0941   27.2321  -25.2517 H   0  0  0  0  0  0  0  0  0  0  0  0
   -0.4250   27.7870  -26.4890 C   0  0  0  0  0  0  0  0  0  0  0  0
    0.0697   28.3744  -25.7015 H   0  0  0  0  0  0  0  0  0  0  0  0
    0.3362   27.2966  -27.1135 H   0  0  0  0  0  0  0  0  0  0  0  0
   -1.0378   28.4537  -27.1135 H   0  0  0  0  0  0  0  0  0  0  0  0
   -0.5000   25.8230  -24.9190 C   0  0  0  0  0  0  0  0  0  0  0  0
   -0.7266   26.0714  -23.8716 H   0  0  0  0  0  0  0  0  0  0  0  0
   -0.7553   24.7701  -25.1096 H   0  0  0  0  0  0  0  0  0  0  0  0
    0.5718   25.9807  -25.1096 H   0  0  0  0  0  0  0  0  0  0  0  0
  1  2  1  0
  2  3  1  0
  3  4  1  0
  4  5  2  0
  5  6  1  0
  6  7  2  0
  7  8  1  0
  7  9  1  0
  9 10  1  0
  9 11  2  0
 11 12  1  0
 11 13  1  0
 13 14  1  0
 13 15  2  0
 15 16  1  0
  4 17  1  0
 17 18  1  0
 18 19  1  0
 19 20  2  0
 19 21  1  0
 21 22  1  0
 21 23  1  0
 23 24  1  0
 23 25  1  0
 25 26  1  0
 25 27  1  0
 25 28  1  0
 23 29  1  0
 29 30  1  0
 29 31  1  0
 29 32  1  0
 18  2  2  0
 15  6  1  0
M  CHG  1  17  -1
M  END
>  <UniqueID>  (41) 
37

>  <SMILES>  (41) 
CC(C)NC(=O)c1cs/c(=N\c2cccc(Cl)c2)[n-]1

>  <Energy>  (41) 
62.60574776496236

>  <Genealogy>  (41) 
CC(C)NC(=O)c1csc(=Nc2cccc(Cl)c2)[n-]1 (protonated)
CC(C)NC(=O)c1cs/c(=N\c2cccc(Cl)c2)[n-]1 (cis-trans isomerization)
CC(C)NC(=O)c1cs/c(=N\c2cccc(Cl)c2)[n-]1 (3D coordinates assigned)
CC(C)NC(=O)c1cs/c(=N\c2cccc(Cl)c2)[n-]1 (optimized conformer: 62.60574776496236 kcal/mol)

>  <smiles>  (41) 
CC(C)NC(=O)c1csc(=Nc2cccc(Cl)c2)[nH]1

>  <score_type>  (41) 
oracle

>  <origin>  (41) 
adg

>  <m_score__min__energy>  (41) 
-8.6999999999999993

>  <m_primary>  (41) 
energy

$$$$
41:0
     RDKit          3D

 44 46  0  0  1  0  0  0  0  0999 V2000
   -0.3860   26.5900  -24.8100 C   0  0  0  0  0  0  0  0  0  0  0  0
   -0.0530   26.5720  -26.2330 N   0  0  0  0  0  0  0  0  0  0  0  0
   -0.7590   25.8160  -27.0050 C   0  0  0  0  0  0  0  0  0  0  0  0
   -0.2360   25.2990  -28.1330 N   0  0  0  0  0  0  0  0  0  0  0  0
   -0.9620   24.5020  -28.9590 C   0  0  0  0  0  0  0  0  0  0  0  0
   -2.2780   24.2260  -28.6120 C   0  0  0  0  0  0  0  0  0  0  0  0
   -3.0530   23.3740  -29.4940 C   0  0  0  0  0  0  0  0  0  0  0  0
   -3.8980   23.9860  -30.3980 C   0  0  0  0  0  0  0  0  0  0  0  0
   -4.6680   23.2100  -31.2690 C   0  0  0  0  0  0  0  0  0  0  0  0
   -4.6220   21.8460  -31.2710 C   0  0  0  0  0  0  0  0  0  0  0  0
   -5.3540   20.9590  -32.1430 C   0  0  0  0  0  0  0  0  0  0  0  0
   -4.5880   19.9890  -32.8080 C   0  0  0  0  0  0  0  0  0  0  0  0
   -5.1250   19.0680  -33.6510 C   0  0  0  0  0  0  0  0  0  0  0  0
   -6.4870   19.0940  -33.8600 C   0  0  0  0  0  0  0  0  0  0  0  0
   -7.2300   20.0380  -33.2120 C   0  0  0  0  0  0  0  0  0  0  0  0
   -6.7100   20.9880  -32.3480 C   0  0  0  0  0  0  0  0  0  0  0  0
   -7.7330   22.1510  -31.5910 S   0  0  0  0  0  0  0  0  0  0  0  0
   -9.4370   21.5730  -31.5660 C   0  0  0  0  0  0  0  0  0  0  0  0
   -7.5930   23.5370  -32.0680 O   0  0  0  0  0  0  0  0  0  0  0  0
   -7.3380   22.1780  -30.1060 O   0  0  0  0  0  0  0  0  0  0  0  0
   -3.7590   21.2440  -30.3480 C   0  0  0  0  0  0  0  0  0  0  0  0
   -2.9930   21.9950  -29.4790 C   0  0  0  0  0  0  0  0  0  0  0  0
   -2.1580   21.4200  -28.5840 F   0  0  0  0  0  0  0  0  0  0  0  0
   -2.7880   24.7680  -27.4520 C   0  0  0  0  0  0  0  0  0  0  0  0
   -4.1880   24.4890  -27.0560 C   0  0  0  0  0  0  0  0  0  0  0  0
   -2.0500   25.5520  -26.6530 N   0  0  0  0  0  0  0  0  0  0  0  0
    0.5387   26.5400  -24.2164 H   0  0  0  0  0  0  0  0  0  0  0  0
   -0.9252   27.5186  -24.5713 H   0  0  0  0  0  0  0  0  0  0  0  0
   -1.0221   25.7249  -24.5713 H   0  0  0  0  0  0  0  0  0  0  0  0
   -0.5201   24.0869  -29.8768 H   0  0  0  0  0  0  0  0  0  0  0  0
   -3.9653   25.0834  -30.4328 H   0  0  0  0  0  0  0  0  0  0  0  0
   -5.3364   23.7179  -31.9798 H   0  0  0  0  0  0  0  0  0  0  0  0
   -3.5012   19.9734  -32.6388 H   0  0  0  0  0  0  0  0  0  0  0  0
   -4.4902   18.3226  -34.1525 H   0  0  0  0  0  0  0  0  0  0  0  0
   -6.9654   18.3691  -34.5350 H   0  0  0  0  0  0  0  0  0  0  0  0
   -8.3158   20.0450  -33.3878 H   0  0  0  0  0  0  0  0  0  0  0  0
   -9.7706   21.4599  -30.5239 H   0  0  0  0  0  0  0  0  0  0  0  0
  -10.0795   22.3035  -32.0794 H   0  0  0  0  0  0  0  0  0  0  0  0
   -9.5025   20.6024  -32.0794 H   0  0  0  0  0  0  0  0  0  0  0  0
   -3.6895   20.1467  -30.3142 H   0  0  0  0  0  0  0  0  0  0  0  0
   -4.2626   24.4741  -25.9586 H   0  0  0  0  0  0  0  0  0  0  0  0
   -4.8460   25.2737  -27.4577 H   0  0  0  0  0  0  0  0  0  0  0  0
   -4.4949   23.5120  -27.4577 H   0  0  0  0  0  0  0  0  0  0  0  0
   -2.4630   25.9440  -25.7870 H   0  0  0  0  0  0  0  0  0  0  0  0
  1  2  1  0
  2  3  2  0
  3  4  1  0
  4  5  2  0
  5  6  1  0
  6  7  1  0
  7  8  2  0
  8  9  1  0
  9 10  2  0
 10 11  1  0
 11 12  2  0
 12 13  1  0
 13 14  2  0
 14 15  1  0
 15 16  2  0
 16 17  1  0
 17 18  1  0
 17 19  2  0
 17 20  2  0
 10 21  1  0
 21 22  2  0
 22 23  1  0
  6 24  2  0
 24 25  1  0
 24 26  1  0
 26  3  1  0
 22  7  1  0
 16 11  1  0
  1 27  1  0
  1 28  1  0
  1 29  1  0
  5 30  1  0
  8 31  1  0
  9 32  1  0
 12 33  1  0
 13 34  1  0
 14 35  1  0
 15 36  1  0
 18 37  1  0
 18 38  1  0
 18 39  1  0
 21 40  1  0
 25 41  1  0
 25 42  1  0
 25 43  1  0
 26 44  1  0
M  END
>  <smiles>  (42) 
CN=c1ncc(-c2ccc(-c3ccccc3S(C)(=O)=O)cc2F)c(C)[nH]1

>  <score_type>  (42) 
oracle

>  <origin>  (42) 
adg

>  <m_score__min__energy>  (42) 
-8.5600000000000005

>  <m_primary>  (42) 
energy

$$$$
42:0
     RDKit          3D

 37 39  0  0  0  0  0  0  0  0999 V2000
   -2.2700   25.2850  -29.3260 O   0  0  0  0  0  0  0  0  0  0  0  0
   -3.2430   24.7060  -29.8750 C   0  0  0  0  0  0  0  0  0  0  0  0
   -3.9750   25.3900  -30.8380 O   0  0  0  0  0  0  0  0  0  0  0  0
   -3.5400   23.2450  -29.6050 C   0  0  1  0  0  0  0  0  0  0  0  0
   -3.3740   22.8350  -28.1170 C   0  0  0  0  0  0  0  0  0  0  0  0
   -2.5520   21.5860  -27.9050 C   0  0  0  0  0  0  0  0  0  0  0  0
   -3.1340   20.4540  -27.3080 C   0  0  0  0  0  0  0  0  0  0  0  0
   -2.3730   19.3010  -27.0890 C   0  0  0  0  0  0  0  0  0  0  0  0
   -1.0300   19.2670  -27.4710 C   0  0  0  0  0  0  0  0  0  0  0  0
   -0.4460   20.3820  -28.0760 C   0  0  0  0  0  0  0  0  0  0  0  0
   -1.2030   21.5380  -28.2950 C   0  0  0  0  0  0  0  0  0  0  0  0
   -4.8620   22.8290  -30.1460 N   0  0  0  0  0  0  0  0  0  0  0  0
   -6.0850   23.5300  -29.7210 C   0  0  0  0  0  0  0  0  0  0  0  0
   -6.8230   24.0640  -30.9370 C   0  0  0  0  0  0  0  0  0  0  0  0
   -7.6020   22.6680  -31.7860 S   0  0  0  0  0  0  0  0  0  0  0  0
   -6.0940   21.7000  -32.0170 C   0  0  0  0  0  0  0  0  0  0  0  0
   -6.1010   20.7790  -33.0730 C   0  0  0  0  0  0  0  0  0  0  0  0
   -5.0440   19.8900  -33.2490 C   0  0  0  0  0  0  0  0  0  0  0  0
   -3.9710   19.9020  -32.3630 C   0  0  0  0  0  0  0  0  0  0  0  0
   -3.9330   20.8290  -31.3190 C   0  0  0  0  0  0  0  0  0  0  0  0
   -4.9720   21.7720  -31.1430 C   0  0  0  0  0  0  0  0  0  0  0  0
   -2.7664   22.6895  -30.1554 H   0  0  0  0  0  0  0  0  0  0  0  0
   -2.8854   23.6637  -27.5837 H   0  0  0  0  0  0  0  0  0  0  0  0
   -4.3825   22.6171  -27.7357 H   0  0  0  0  0  0  0  0  0  0  0  0
   -4.1931   20.4752  -27.0116 H   0  0  0  0  0  0  0  0  0  0  0  0
   -2.8324   18.4207  -26.6157 H   0  0  0  0  0  0  0  0  0  0  0  0
   -0.4316   18.3609  -27.2951 H   0  0  0  0  0  0  0  0  0  0  0  0
    0.6105   20.3513  -28.3807 H   0  0  0  0  0  0  0  0  0  0  0  0
   -0.7401   22.4131  -28.7746 H   0  0  0  0  0  0  0  0  0  0  0  0
   -6.7364   22.8301  -29.1771 H   0  0  0  0  0  0  0  0  0  0  0  0
   -5.8121   24.3697  -29.0649 H   0  0  0  0  0  0  0  0  0  0  0  0
   -7.5927   24.7827  -30.6192 H   0  0  0  0  0  0  0  0  0  0  0  0
   -6.1212   24.5751  -31.6125 H   0  0  0  0  0  0  0  0  0  0  0  0
   -6.9511   20.7581  -33.7708 H   0  0  0  0  0  0  0  0  0  0  0  0
   -5.0571   19.1786  -34.0879 H   0  0  0  0  0  0  0  0  0  0  0  0
   -3.1506   19.1795  -32.4852 H   0  0  0  0  0  0  0  0  0  0  0  0
   -3.0814   20.8255  -30.6227 H   0  0  0  0  0  0  0  0  0  0  0  0
  1  2  2  0
  2  3  1  0
  2  4  1  0
  4  5  1  0
  5  6  1  0
  6  7  2  0
  7  8  1  0
  8  9  2  0
  9 10  1  0
 10 11  2  0
  4 12  1  0
 12 13  1  0
 13 14  1  0
 14 15  1  0
 15 16  1  0
 16 17  2  0
 17 18  1  0
 18 19  2  0
 19 20  1  0
 20 21  2  0
 11  6  1  0
 21 12  1  0
 21 16  1  0
  4 22  1  6
  5 23  1  0
  5 24  1  0
  7 25  1  0
  8 26  1  0
  9 27  1  0
 10 28  1  0
 11 29  1  0
 13 30  1  0
 13 31  1  0
 14 32  1  0
 14 33  1  0
 17 34  1  0
 18 35  1  0
 19 36  1  0
 20 37  1  0
M  CHG  1   3  -1
M  END
>  <UniqueID>  (43) 
38

>  <SMILES>  (43) 
O=C([O-])[C@@H](Cc1ccccc1)N1CCSc2ccccc21

>  <Energy>  (43) 
51.4402387258631

>  <Genealogy>  (43) 
O=C([O-])C(Cc1ccccc1)N1CCSc2ccccc21 (protonated)
O=C([O-])[C@@H](Cc1ccccc1)N1CCSc2ccccc21 (chirality)
O=C([O-])[C@@H](Cc1ccccc1)N1CCSc2ccccc21 (3D coordinates assigned)
O=C([O-])[C@@H](Cc1ccccc1)N1CCSc2ccccc21 (nonaromatic ring conformer: 51.4402387258631 kcal/mol)

>  <smiles>  (43) 
O=C(O)C(Cc1ccccc1)N1CCSc2ccccc21

>  <score_type>  (43) 
oracle

>  <origin>  (43) 
adg

>  <m_score__min__energy>  (43) 
-10.039999999999999

>  <m_primary>  (43) 
energy

$$$$
43:0
     RDKit          3D

 52 54  0  0  0  0  0  0  0  0999 V2000
   -9.4010   21.9460  -31.6040 C   0  0  0  0  0  0  0  0  0  0  0  0
   -8.6310   20.6990  -31.9260 C   0  0  0  0  0  0  0  0  0  0  0  0
   -7.4630   20.7710  -32.7010 C   0  0  0  0  0  0  0  0  0  0  0  0
   -6.7670   19.6080  -33.0420 C   0  0  0  0  0  0  0  0  0  0  0  0
   -7.2340   18.3550  -32.6140 C   0  0  0  0  0  0  0  0  0  0  0  0
   -6.5010   17.1040  -33.0170 C   0  0  0  0  0  0  0  0  0  0  0  0
   -5.0610   17.3520  -33.0390 N   0  0  0  0  0  0  0  0  0  0  0  0
   -4.3950   17.9260  -34.1720 C   0  0  0  0  0  0  0  0  0  0  0  0
   -5.0360   18.1780  -35.2260 O   0  0  0  0  0  0  0  0  0  0  0  0
   -2.9350   18.2580  -34.0990 C   0  0  0  0  0  0  0  0  0  0  0  0
   -2.7230   19.6580  -34.2740 O   0  0  0  0  0  0  0  0  0  0  0  0
   -2.8910   20.6370  -33.2810 C   0  0  0  0  0  0  0  0  0  0  0  0
   -1.8070   20.9170  -32.4370 C   0  0  0  0  0  0  0  0  0  0  0  0
   -1.9200   21.8820  -31.4320 C   0  0  0  0  0  0  0  0  0  0  0  0
   -3.1200   22.5820  -31.2560 C   0  0  0  0  0  0  0  0  0  0  0  0
   -3.2590   23.7990  -29.9850 S   0  0  0  0  0  0  0  0  0  0  0  0
   -3.8850   25.0420  -30.5530 O   0  0  0  0  0  0  0  0  0  0  0  0
   -4.1620   23.2770  -28.9020 O   0  0  0  0  0  0  0  0  0  0  0  0
   -1.7050   24.2000  -29.2960 N   0  0  0  0  0  0  0  0  0  0  0  0
   -1.0770   23.0060  -28.7060 C   0  0  0  0  0  0  0  0  0  0  0  0
    0.1460   23.3990  -27.8520 C   0  0  0  0  0  0  0  0  0  0  0  0
    0.5550   24.7220  -28.1330 O   0  0  0  0  0  0  0  0  0  0  0  0
   -0.4540   25.6350  -27.7350 C   0  0  0  0  0  0  0  0  0  0  0  0
   -1.8450   25.2560  -28.2840 C   0  0  0  0  0  0  0  0  0  0  0  0
   -4.2090   22.3050  -32.0930 C   0  0  0  0  0  0  0  0  0  0  0  0
   -4.0980   21.3380  -33.1000 C   0  0  0  0  0  0  0  0  0  0  0  0
   -8.4130   18.2790  -31.8550 C   0  0  0  0  0  0  0  0  0  0  0  0
   -9.1090   19.4450  -31.5160 C   0  0  0  0  0  0  0  0  0  0  0  0
   -9.4722   22.0614  -30.5124 H   0  0  0  0  0  0  0  0  0  0  0  0
   -8.8834   22.8173  -32.0318 H   0  0  0  0  0  0  0  0  0  0  0  0
  -10.4118   21.8735  -32.0318 H   0  0  0  0  0  0  0  0  0  0  0  0
   -7.0930   21.7491  -33.0422 H   0  0  0  0  0  0  0  0  0  0  0  0
   -5.8509   19.6745  -33.6473 H   0  0  0  0  0  0  0  0  0  0  0  0
   -6.7216   16.3042  -32.2948 H   0  0  0  0  0  0  0  0  0  0  0  0
   -6.8301   16.8013  -34.0220 H   0  0  0  0  0  0  0  0  0  0  0  0
   -4.5080   17.1360  -32.1790 H   0  0  0  0  0  0  0  0  0  0  0  0
   -2.5451   17.9546  -33.1162 H   0  0  0  0  0  0  0  0  0  0  0  0
   -2.4110   17.7196  -34.9024 H   0  0  0  0  0  0  0  0  0  0  0  0
   -0.8599   20.3728  -32.5667 H   0  0  0  0  0  0  0  0  0  0  0  0
   -1.0622   22.0925  -30.7763 H   0  0  0  0  0  0  0  0  0  0  0  0
   -1.8106   22.4892  -28.0698 H   0  0  0  0  0  0  0  0  0  0  0  0
   -0.7430   22.3440  -29.5185 H   0  0  0  0  0  0  0  0  0  0  0  0
   -0.1192   23.3228  -26.7872 H   0  0  0  0  0  0  0  0  0  0  0  0
    0.9751   22.7171  -28.0920 H   0  0  0  0  0  0  0  0  0  0  0  0
   -0.5011   25.6514  -26.6361 H   0  0  0  0  0  0  0  0  0  0  0  0
   -0.1913   26.6219  -28.1438 H   0  0  0  0  0  0  0  0  0  0  0  0
   -2.4769   24.8922  -27.4604 H   0  0  0  0  0  0  0  0  0  0  0  0
   -2.3104   26.1412  -28.7420 H   0  0  0  0  0  0  0  0  0  0  0  0
   -5.1553   22.8494  -31.9586 H   0  0  0  0  0  0  0  0  0  0  0  0
   -4.9579   21.1254  -33.7523 H   0  0  0  0  0  0  0  0  0  0  0  0
   -8.7908   17.2998  -31.5258 H   0  0  0  0  0  0  0  0  0  0  0  0
  -10.0347   19.3781  -30.9256 H   0  0  0  0  0  0  0  0  0  0  0  0
  1  2  1  0
  2  3  2  0
  3  4  1  0
  4  5  2  0
  5  6  1  0
  6  7  1  0
  7  8  1  0
  8  9  2  0
  8 10  1  0
 10 11  1  0
 11 12  1  0
 12 13  2  0
 13 14  1  0
 14 15  2  0
 15 16  1  0
 16 17  2  0
 16 18  2  0
 16 19  1  0
 19 20  1  0
 20 21  1  0
 21 22  1  0
 22 23  1  0
 23 24  1  0
 15 25  1  0
 25 26  2  0
  5 27  1  0
 27 28  2  0
 28  2  1  0
 26 12  1  0
 24 19  1  0
  1 29  1  0
  1 30  1  0
  1 31  1  0
  3 32  1  0
  4 33  1  0
  6 34  1  0
  6 35  1  0
  7 36  1  0
 10 37  1  0
 10 38  1  0
 13 39  1  0
 14 40  1  0
 20 41  1  0
 20 42  1  0
 21 43  1  0
 21 44  1  0
 23 45  1  0
 23 46  1  0
 24 47  1  0
 24 48  1  0
 25 49  1  0
 26 50  1  0
 27 51  1  0
 28 52  1  0
M  END
>  <UniqueID>  (44) 
39

>  <SMILES>  (44) 
Cc1ccc(CNC(=O)COc2ccc(S(=O)(=O)N3CCOCC3)cc2)cc1

>  <Energy>  (44) 
55.61210791526666

>  <Genealogy>  (44) 
Cc1ccc(CNC(=O)COc2ccc(S(=O)(=O)N3CCOCC3)cc2)cc1 (3D coordinates assigned)
Cc1ccc(CNC(=O)COc2ccc(S(=O)(=O)N3CCOCC3)cc2)cc1 (nonaromatic ring conformer: 55.61210791526666 kcal/mol)

>  <smiles>  (44) 
Cc1ccc(CNC(=O)COc2ccc(S(=O)(=O)N3CCOCC3)cc2)cc1

>  <score_type>  (44) 
oracle

>  <origin>  (44) 
adg

>  <m_score__min__energy>  (44) 
-10.35

>  <m_primary>  (44) 
energy

$$$$
44:0
     RDKit          3D

 46 48  0  0  0  0  0  0  0  0999 V2000
   -6.4390   16.7870  -33.5570 C   0  0  0  0  0  0  0  0  0  0  0  0
   -7.1380   17.3440  -32.3850 N   0  0  0  0  0  0  0  0  0  0  0  0
   -6.1870   17.4900  -31.2720 C   0  0  0  0  0  0  0  0  0  0  0  0
   -7.7510   18.6510  -32.7070 C   0  0  0  0  0  0  0  0  0  0  0  0
   -6.6690   19.7140  -32.9400 C   0  0  0  0  0  0  0  0  0  0  0  0
   -7.0960   21.0130  -32.3950 N   0  0  0  0  0  0  0  0  0  0  0  0
   -8.5280   21.3380  -32.3260 C   0  0  0  0  0  0  0  0  0  0  0  0
   -8.8590   21.9280  -30.9540 C   0  0  0  0  0  0  0  0  0  0  0  0
   -7.9860   23.0190  -30.6660 O   0  0  0  0  0  0  0  0  0  0  0  0
   -6.6310   22.9870  -31.0130 C   0  0  0  0  0  0  0  0  0  0  0  0
   -5.7640   23.9610  -30.5100 C   0  0  0  0  0  0  0  0  0  0  0  0
   -4.3970   23.9250  -30.8310 C   0  0  0  0  0  0  0  0  0  0  0  0
   -3.4790   24.9070  -30.3290 N   0  0  0  0  0  0  0  0  0  0  0  0
   -2.4800   24.6940  -29.3230 C   0  0  0  0  0  0  0  0  0  0  0  0
   -1.7580   25.6680  -28.9760 O   0  0  0  0  0  0  0  0  0  0  0  0
   -2.2400   23.3620  -28.7230 C   0  0  0  0  0  0  0  0  0  0  0  0
   -3.2930   22.6690  -28.0970 C   0  0  0  0  0  0  0  0  0  0  0  0
   -3.0730   21.4110  -27.5300 C   0  0  0  0  0  0  0  0  0  0  0  0
   -1.8010   20.8340  -27.5710 C   0  0  0  0  0  0  0  0  0  0  0  0
   -1.5280   19.2540  -26.8610 Cl  0  0  0  0  0  0  0  0  0  0  0  0
   -0.7440   21.5200  -28.1770 C   0  0  0  0  0  0  0  0  0  0  0  0
   -0.9590   22.7800  -28.7440 C   0  0  0  0  0  0  0  0  0  0  0  0
   -3.9210   22.9340  -31.6960 C   0  0  0  0  0  0  0  0  0  0  0  0
   -4.7870   21.9640  -32.2120 C   0  0  0  0  0  0  0  0  0  0  0  0
   -6.1530   21.9800  -31.8730 C   0  0  0  0  0  0  0  0  0  0  0  0
   -5.6202   16.1345  -33.2197 H   0  0  0  0  0  0  0  0  0  0  0  0
   -7.1473   16.2030  -34.1630 H   0  0  0  0  0  0  0  0  0  0  0  0
   -6.0279   17.6078  -34.1630 H   0  0  0  0  0  0  0  0  0  0  0  0
   -6.7255   17.4073  -30.3164 H   0  0  0  0  0  0  0  0  0  0  0  0
   -5.4260   16.6982  -31.3337 H   0  0  0  0  0  0  0  0  0  0  0  0
   -5.6985   18.4737  -31.3337 H   0  0  0  0  0  0  0  0  0  0  0  0
   -8.3600   18.5499  -33.6174 H   0  0  0  0  0  0  0  0  0  0  0  0
   -8.3796   18.9653  -31.8608 H   0  0  0  0  0  0  0  0  0  0  0  0
   -5.7400   19.4001  -32.4415 H   0  0  0  0  0  0  0  0  0  0  0  0
   -6.5019   19.8200  -34.0220 H   0  0  0  0  0  0  0  0  0  0  0  0
   -8.7743   22.0713  -33.1081 H   0  0  0  0  0  0  0  0  0  0  0  0
   -9.1166   20.4215  -32.4792 H   0  0  0  0  0  0  0  0  0  0  0  0
   -9.8996   22.2846  -30.9527 H   0  0  0  0  0  0  0  0  0  0  0  0
   -8.7289   21.1505  -30.1868 H   0  0  0  0  0  0  0  0  0  0  0  0
   -6.1536   24.7587  -29.8604 H   0  0  0  0  0  0  0  0  0  0  0  0
   -4.2952   23.1204  -28.0538 H   0  0  0  0  0  0  0  0  0  0  0  0
   -3.9038   20.8732  -27.0498 H   0  0  0  0  0  0  0  0  0  0  0  0
    0.2583   21.0678  -28.2078 H   0  0  0  0  0  0  0  0  0  0  0  0
   -0.1212   23.3198  -29.2095 H   0  0  0  0  0  0  0  0  0  0  0  0
   -2.8565   22.9173  -31.9729 H   0  0  0  0  0  0  0  0  0  0  0  0
   -4.3988   21.1856  -32.8854 H   0  0  0  0  0  0  0  0  0  0  0  0
  1  2  1  0
  2  3  1  0
  2  4  1  0
  4  5  1  0
  5  6  1  0
  6  7  1  0
  7  8  1  0
  8  9  1  0
  9 10  1  0
 10 11  2  0
 11 12  1  0
 12 13  1  0
 13 14  1  0
 14 15  2  0
 14 16  1  0
 16 17  2  0
 17 18  1  0
 18 19  2  0
 19 20  1  0
 19 21  1  0
 21 22  2  0
 12 23  2  0
 23 24  1  0
 24 25  2  0
 25  6  1  0
 25 10  1  0
 22 16  1  0
  1 26  1  0
  1 27  1  0
  1 28  1  0
  3 29  1  0
  3 30  1  0
  3 31  1  0
  4 32  1  0
  4 33  1  0
  5 34  1  0
  5 35  1  0
  7 36  1  0
  7 37  1  0
  8 38  1  0
  8 39  1  0
 11 40  1  0
 17 41  1  0
 18 42  1  0
 21 43  1  0
 22 44  1  0
 23 45  1  0
 24 46  1  0
M  CHG  1  13  -1
M  END
>  <UniqueID>  (45) 
40

>  <SMILES>  (45) 
CN(C)CCN1CCOc2cc([N-]C(=O)c3ccc(Cl)cc3)ccc21

>  <Energy>  (45) 
53.6858206518876

>  <Genealogy>  (45) 
CN(C)CCN1CCOc2cc([N-]C(=O)c3ccc(Cl)cc3)ccc21 (protonated)
CN(C)CCN1CCOc2cc([N-]C(=O)c3ccc(Cl)cc3)ccc21 (3D coordinates assigned)
CN(C)CCN1CCOc2cc([N-]C(=O)c3ccc(Cl)cc3)ccc21 (nonaromatic ring conformer: 53.6858206518876 kcal/mol)

>  <smiles>  (45) 
CN(C)CCN1CCOc2cc(NC(=O)c3ccc(Cl)cc3)ccc21

>  <score_type>  (45) 
oracle

>  <origin>  (45) 
adg

>  <m_score__min__energy>  (45) 
-9.8499999999999996

>  <m_primary>  (45) 
energy

$$$$
45:0
     RDKit          3D

 50 52  0  0  0  0  0  0  0  0999 V2000
   -3.6690   24.8490  -30.3750 O   0  0  0  0  0  0  0  0  0  0  0  0
   -3.3130   23.7860  -29.8020 C   0  0  0  0  0  0  0  0  0  0  0  0
   -3.9090   23.4000  -28.4800 C   0  0  0  0  0  0  0  0  0  0  0  0
   -2.8930   23.5370  -27.3450 C   0  0  0  0  0  0  0  0  0  0  0  0
   -1.6520   22.8100  -27.6620 N   0  0  0  0  0  0  0  0  0  0  0  0
   -1.5050   21.4070  -27.3470 C   0  0  0  0  0  0  0  0  0  0  0  0
   -2.0790   20.9330  -26.3290 O   0  0  0  0  0  0  0  0  0  0  0  0
   -0.7070   20.4960  -28.1920 C   0  0  0  0  0  0  0  0  0  0  0  0
   -1.2660   19.9510  -29.3600 C   0  0  0  0  0  0  0  0  0  0  0  0
   -0.5070   19.1070  -30.1770 C   0  0  0  0  0  0  0  0  0  0  0  0
    0.8180   18.8140  -29.8420 C   0  0  0  0  0  0  0  0  0  0  0  0
    1.3880   19.3680  -28.6920 C   0  0  0  0  0  0  0  0  0  0  0  0
    0.6320   20.2120  -27.8730 C   0  0  0  0  0  0  0  0  0  0  0  0
   -0.7000   23.4540  -28.5810 C   0  0  0  0  0  0  0  0  0  0  0  0
   -0.9190   23.0140  -30.0410 C   0  0  0  0  0  0  0  0  0  0  0  0
   -2.3390   22.9320  -30.4180 N   0  0  0  0  0  0  0  0  0  0  0  0
   -2.7440   22.1020  -31.5580 C   0  0  0  0  0  0  0  0  0  0  0  0
   -4.1760   21.5820  -31.3580 C   0  0  0  0  0  0  0  0  0  0  0  0
   -5.1740   22.1970  -32.3530 C   0  0  2  0  0  0  0  0  0  0  0  0
   -5.2300   23.5850  -32.1430 O   0  0  0  0  0  0  0  0  0  0  0  0
   -6.5560   21.5990  -32.1830 C   0  0  0  0  0  0  0  0  0  0  0  0
   -7.5900   22.3540  -31.6020 C   0  0  0  0  0  0  0  0  0  0  0  0
   -8.8720   21.8110  -31.4690 C   0  0  0  0  0  0  0  0  0  0  0  0
   -9.1340   20.5140  -31.9180 C   0  0  0  0  0  0  0  0  0  0  0  0
   -8.1140   19.7570  -32.4980 C   0  0  0  0  0  0  0  0  0  0  0  0
   -6.8310   20.2940  -32.6320 C   0  0  0  0  0  0  0  0  0  0  0  0
   -4.7685   24.0538  -28.2710 H   0  0  0  0  0  0  0  0  0  0  0  0
   -4.2223   22.3471  -28.5372 H   0  0  0  0  0  0  0  0  0  0  0  0
   -2.6593   24.6016  -27.1970 H   0  0  0  0  0  0  0  0  0  0  0  0
   -3.3278   23.1091  -26.4297 H   0  0  0  0  0  0  0  0  0  0  0  0
   -2.3047   20.1890  -29.6330 H   0  0  0  0  0  0  0  0  0  0  0  0
   -0.9532   18.6733  -31.0841 H   0  0  0  0  0  0  0  0  0  0  0  0
    1.4126   18.1471  -30.4836 H   0  0  0  0  0  0  0  0  0  0  0  0
    2.4320   19.1397  -28.4313 H   0  0  0  0  0  0  0  0  0  0  0  0
    1.0871   20.6556  -26.9752 H   0  0  0  0  0  0  0  0  0  0  0  0
   -0.8264   24.5448  -28.5161 H   0  0  0  0  0  0  0  0  0  0  0  0
    0.3154   23.1526  -28.2842 H   0  0  0  0  0  0  0  0  0  0  0  0
   -0.4236   23.7401  -30.7024 H   0  0  0  0  0  0  0  0  0  0  0  0
   -0.4961   22.0037  -30.1435 H   0  0  0  0  0  0  0  0  0  0  0  0
   -2.7017   22.7037  -32.4779 H   0  0  0  0  0  0  0  0  0  0  0  0
   -2.0599   21.2442  -31.6366 H   0  0  0  0  0  0  0  0  0  0  0  0
   -4.1756   20.4899  -31.4894 H   0  0  0  0  0  0  0  0  0  0  0  0
   -4.4959   21.8693  -30.3455 H   0  0  0  0  0  0  0  0  0  0  0  0
   -4.8332   21.9793  -33.3760 H   0  0  0  0  0  0  0  0  0  0  0  0
   -4.3140   23.8730  -31.8840 H   0  0  0  0  0  0  0  0  0  0  0  0
   -7.3897   23.3768  -31.2503 H   0  0  0  0  0  0  0  0  0  0  0  0
   -9.6754   22.4060  -31.0102 H   0  0  0  0  0  0  0  0  0  0  0  0
  -10.1435   20.0894  -31.8146 H   0  0  0  0  0  0  0  0  0  0  0  0
   -8.3210   18.7357  -32.8502 H   0  0  0  0  0  0  0  0  0  0  0  0
   -6.0317   19.6935  -33.0909 H   0  0  0  0  0  0  0  0  0  0  0  0
  1  2  2  0
  2  3  1  0
  3  4  1  0
  4  5  1  0
  5  6  1  0
  6  7  2  0
  6  8  1  0
  8  9  2  0
  9 10  1  0
 10 11  2  0
 11 12  1  0
 12 13  2  0
  5 14  1  0
 14 15  1  0
 15 16  1  0
 16 17  1  0
 17 18  1  0
 18 19  1  0
 19 20  1  0
 19 21  1  0
 21 22  2  0
 22 23  1  0
 23 24  2  0
 24 25  1  0
 25 26  2  0
 16  2  1  0
 26 21  1  0
 13  8  1  0
  3 27  1  0
  3 28  1  0
  4 29  1  0
  4 30  1  0
  9 31  1  0
 10 32  1  0
 11 33  1  0
 12 34  1  0
 13 35  1  0
 14 36  1  0
 14 37  1  0
 15 38  1  0
 15 39  1  0
 17 40  1  0
 17 41  1  0
 18 42  1  0
 18 43  1  0
 19 44  1  6
 20 45  1  0
 22 46  1  0
 23 47  1  0
 24 48  1  0
 25 49  1  0
 26 50  1  0
M  END
>  <UniqueID>  (46) 
41

>  <SMILES>  (46) 
O=C1CCN(C(=O)c2ccccc2)CCN1CC[C@H](O)c1ccccc1

>  <Energy>  (46) 
58.51109209636507

>  <Genealogy>  (46) 
O=C1CCN(C(=O)c2ccccc2)CCN1CC[C@H](O)c1ccccc1 (chirality)
O=C1CCN(C(=O)c2ccccc2)CCN1CC[C@H](O)c1ccccc1 (3D coordinates assigned)
O=C1CCN(C(=O)c2ccccc2)CCN1CC[C@H](O)c1ccccc1 (nonaromatic ring conformer: 58.51109209636507 kcal/mol)

>  <smiles>  (46) 
O=C1CCN(C(=O)c2ccccc2)CCN1CCC(O)c1ccccc1

>  <score_type>  (46) 
oracle

>  <origin>  (46) 
adg

>  <m_score__min__energy>  (46) 
-6.5199999999999996

>  <m_primary>  (46) 
energy

$$$$
46:0
     RDKit          3D

 25 26  0  0  0  0  0  0  0  0999 V2000
   -9.0900   18.1730  -31.5900 C   0  0  0  0  0  0  0  0  0  0  0  0
   -9.1350   19.2620  -32.6560 C   0  0  0  0  0  0  0  0  0  0  0  0
   -8.0860   20.3020  -32.3970 C   0  0  0  0  0  0  0  0  0  0  0  0
   -8.2360   21.5530  -31.2800 S   0  0  0  0  0  0  0  0  0  0  0  0
   -6.7510   22.2410  -31.6760 C   0  0  0  0  0  0  0  0  0  0  0  0
   -6.1920   23.4490  -31.0440 C   0  0  0  0  0  0  0  0  0  0  0  0
   -6.9140   24.5110  -30.5090 C   0  0  0  0  0  0  0  0  0  0  0  0
   -6.1000   25.5200  -29.9760 C   0  0  0  0  0  0  0  0  0  0  0  0
   -4.7410   25.2600  -30.0870 C   0  0  0  0  0  0  0  0  0  0  0  0
   -4.5520   23.7740  -30.8490 S   0  0  0  0  0  0  0  0  0  0  0  0
   -6.1410   21.5370  -32.6590 N   0  0  0  0  0  0  0  0  0  0  0  0
   -6.8750   20.4670  -33.0750 C   0  0  0  0  0  0  0  0  0  0  0  0
   -6.3930   19.5450  -34.1520 C   0  0  0  0  0  0  0  0  0  0  0  0
   -9.1091   18.6356  -30.5922 H   0  0  0  0  0  0  0  0  0  0  0  0
   -9.9616   17.5117  -31.7043 H   0  0  0  0  0  0  0  0  0  0  0  0
   -8.1668   17.5859  -31.7043 H   0  0  0  0  0  0  0  0  0  0  0  0
   -8.9582   18.8089  -33.6426 H   0  0  0  0  0  0  0  0  0  0  0  0
  -10.1239   19.7430  -32.6282 H   0  0  0  0  0  0  0  0  0  0  0  0
   -8.0131   24.5545  -30.5047 H   0  0  0  0  0  0  0  0  0  0  0  0
   -6.5011   26.4334  -29.5126 H   0  0  0  0  0  0  0  0  0  0  0  0
   -3.9284   25.9135  -29.7368 H   0  0  0  0  0  0  0  0  0  0  0  0
   -5.2110   21.7850  -33.0620 H   0  0  0  0  0  0  0  0  0  0  0  0
   -5.9294   18.6582  -33.6952 H   0  0  0  0  0  0  0  0  0  0  0  0
   -7.2437   19.2336  -34.7760 H   0  0  0  0  0  0  0  0  0  0  0  0
   -5.6518   20.0658  -34.7760 H   0  0  0  0  0  0  0  0  0  0  0  0
  1  2  1  0
  2  3  1  0
  3  4  1  0
  4  5  1  0
  5  6  1  0
  6  7  2  0
  7  8  1  0
  8  9  2  0
  9 10  1  0
  5 11  2  0
 11 12  1  0
 12 13  1  0
 12  3  2  0
 10  6  1  0
  1 14  1  0
  1 15  1  0
  1 16  1  0
  2 17  1  0
  2 18  1  0
  7 19  1  0
  8 20  1  0
  9 21  1  0
 11 22  1  0
 13 23  1  0
 13 24  1  0
 13 25  1  0
M  CHG  1  11   1
M  END
>  <UniqueID>  (47) 
42

>  <SMILES>  (47) 
CCc1sc(-c2cccs2)[nH+]c1C

>  <Energy>  (47) 
75.02861139046846

>  <Genealogy>  (47) 
CCc1sc(-c2cccs2)[nH+]c1C (protonated)
CCc1sc(-c2cccs2)[nH+]c1C (3D coordinates assigned)
CCc1sc(-c2cccs2)[nH+]c1C (optimized conformer: 75.02861139046846 kcal/mol)

>  <smiles>  (47) 
CCc1sc(-c2cccs2)nc1C

>  <score_type>  (47) 
oracle

>  <origin>  (47) 
adg

>  <m_score__min__energy>  (47) 
-5.46

>  <m_primary>  (47) 
energy

$$$$
47:0
     RDKit          3D

 46 48  0  0  0  0  0  0  0  0999 V2000
   -1.5010   19.7570  -27.4920 C   0  0  0  0  0  0  0  0  0  0  0  0
   -2.1950   20.7030  -28.4270 C   0  0  0  0  0  0  0  0  0  0  0  0
   -3.2120   21.5490  -27.9640 C   0  0  0  0  0  0  0  0  0  0  0  0
   -3.8590   22.4190  -28.8430 C   0  0  0  0  0  0  0  0  0  0  0  0
   -3.5010   22.4600  -30.2030 C   0  0  0  0  0  0  0  0  0  0  0  0
   -4.1600   23.3510  -31.1210 N   0  0  0  0  0  0  0  0  0  0  0  0
   -4.8270   24.5770  -30.7920 C   0  0  0  0  0  0  0  0  0  0  0  0
   -4.2070   25.6750  -30.8160 O   0  0  0  0  0  0  0  0  0  0  0  0
   -6.2810   24.5500  -30.4230 C   0  0  0  0  0  0  0  0  0  0  0  0
   -7.1160   23.6760  -31.3720 C   0  0  0  0  0  0  0  0  0  0  0  0
   -7.4180   22.2770  -30.8140 C   0  0  0  0  0  0  0  0  0  0  0  0
   -6.8040   21.2260  -31.6430 N   0  0  0  0  0  0  0  0  0  0  0  0
   -5.6090   21.4690  -32.2010 N   0  0  0  0  0  0  0  0  0  0  0  0
   -4.9870   20.5630  -32.9990 C   0  0  0  0  0  0  0  0  0  0  0  0
   -5.5930   19.3360  -33.2610 C   0  0  0  0  0  0  0  0  0  0  0  0
   -4.9720   18.3830  -34.0850 C   0  0  0  0  0  0  0  0  0  0  0  0
   -5.5990   17.1580  -34.3360 C   0  0  0  0  0  0  0  0  0  0  0  0
   -6.8440   16.8780  -33.7690 C   0  0  0  0  0  0  0  0  0  0  0  0
   -7.4690   17.8200  -32.9460 C   0  0  0  0  0  0  0  0  0  0  0  0
   -6.8470   19.0580  -32.6840 C   0  0  0  0  0  0  0  0  0  0  0  0
   -7.4430   20.0300  -31.8600 C   0  0  0  0  0  0  0  0  0  0  0  0
   -8.5590   19.7960  -31.3200 O   0  0  0  0  0  0  0  0  0  0  0  0
   -2.5210   21.5670  -30.6850 C   0  0  0  0  0  0  0  0  0  0  0  0
   -2.1190   21.5690  -32.1350 C   0  0  0  0  0  0  0  0  0  0  0  0
   -1.8620   20.7080  -29.7890 C   0  0  0  0  0  0  0  0  0  0  0  0
   -1.7137   20.0469  -26.4524 H   0  0  0  0  0  0  0  0  0  0  0  0
   -1.8644   18.7340  -27.6690 H   0  0  0  0  0  0  0  0  0  0  0  0
   -0.4161   19.7965  -27.6690 H   0  0  0  0  0  0  0  0  0  0  0  0
   -3.5016   21.5272  -26.9030 H   0  0  0  0  0  0  0  0  0  0  0  0
   -4.6560   23.0785  -28.4691 H   0  0  0  0  0  0  0  0  0  0  0  0
   -6.3779   24.1529  -29.4017 H   0  0  0  0  0  0  0  0  0  0  0  0
   -6.6622   25.5792  -30.4963 H   0  0  0  0  0  0  0  0  0  0  0  0
   -8.0708   24.1868  -31.5654 H   0  0  0  0  0  0  0  0  0  0  0  0
   -6.5229   23.5368  -32.2879 H   0  0  0  0  0  0  0  0  0  0  0  0
   -7.0192   22.2054  -29.7914 H   0  0  0  0  0  0  0  0  0  0  0  0
   -8.5081   22.1296  -30.8179 H   0  0  0  0  0  0  0  0  0  0  0  0
   -5.1260   22.3800  -32.0280 H   0  0  0  0  0  0  0  0  0  0  0  0
   -4.0060   20.7976  -33.4379 H   0  0  0  0  0  0  0  0  0  0  0  0
   -3.9914   18.6002  -34.5335 H   0  0  0  0  0  0  0  0  0  0  0  0
   -5.1101   16.4135  -34.9816 H   0  0  0  0  0  0  0  0  0  0  0  0
   -7.3343   15.9141  -33.9703 H   0  0  0  0  0  0  0  0  0  0  0  0
   -8.4495   17.5944  -32.5013 H   0  0  0  0  0  0  0  0  0  0  0  0
   -1.0217   21.5745  -32.2113 H   0  0  0  0  0  0  0  0  0  0  0  0
   -2.5163   20.6689  -32.6269 H   0  0  0  0  0  0  0  0  0  0  0  0
   -2.5252   22.4651  -32.6269 H   0  0  0  0  0  0  0  0  0  0  0  0
   -1.0769   20.0327  -30.1600 H   0  0  0  0  0  0  0  0  0  0  0  0
  1  2  1  0
  2  3  2  0
  3  4  1  0
  4  5  2  0
  5  6  1  0
  6  7  1  0
  7  8  2  0
  7  9  1  0
  9 10  1  0
 10 11  1  0
 11 12  1  0
 12 13  1  0
 13 14  2  0
 14 15  1  0
 15 16  2  0
 16 17  1  0
 17 18  2  0
 18 19  1  0
 19 20  2  0
 20 21  1  0
 21 22  2  0
  5 23  1  0
 23 24  1  0
 23 25  2  0
 25  2  1  0
 21 12  1  0
 20 15  1  0
  1 26  1  0
  1 27  1  0
  1 28  1  0
  3 29  1  0
  4 30  1  0
  9 31  1  0
  9 32  1  0
 10 33  1  0
 10 34  1  0
 11 35  1  0
 11 36  1  0
 13 37  1  0
 14 38  1  0
 16 39  1  0
 17 40  1  0
 18 41  1  0
 19 42  1  0
 24 43  1  0
 24 44  1  0
 24 45  1  0
 25 46  1  0
M  CHG  2   6  -1  13   1
M  END
>  <UniqueID>  (48) 
43

>  <SMILES>  (48) 
Cc1ccc([N-]C(=O)CCCn2[nH+]cc3ccccc3c2=O)c(C)c1

>  <Energy>  (48) 
51.818820042091126

>  <Genealogy>  (48) 
Cc1ccc([N-]C(=O)CCCn2[nH+]cc3ccccc3c2=O)c(C)c1 (protonated)
Cc1ccc([N-]C(=O)CCCn2[nH+]cc3ccccc3c2=O)c(C)c1 (3D coordinates assigned)
Cc1ccc([N-]C(=O)CCCn2[nH+]cc3ccccc3c2=O)c(C)c1 (optimized conformer: 51.818820042091126 kcal/mol)

>  <smiles>  (48) 
Cc1ccc(NC(=O)CCCn2ncc3ccccc3c2=O)c(C)c1

>  <score_type>  (48) 
oracle

>  <origin>  (48) 
adg

>  <m_score__min__energy>  (48) 
-9.9900000000000002

>  <m_primary>  (48) 
energy

$$$$
48:0
     RDKit          3D

 41 43  0  0  0  0  0  0  0  0999 V2000
   -8.5940   22.8330  -31.9350 C   0  0  0  0  0  0  0  0  0  0  0  0
   -8.3060   21.3590  -31.9770 C   0  0  0  0  0  0  0  0  0  0  0  0
   -9.3290   20.4510  -32.3030 C   0  0  0  0  0  0  0  0  0  0  0  0
   -9.0730   19.0790  -32.3240 C   0  0  0  0  0  0  0  0  0  0  0  0
   -7.7980   18.6000  -32.0240 C   0  0  0  0  0  0  0  0  0  0  0  0
   -6.7750   19.4920  -31.6920 C   0  0  0  0  0  0  0  0  0  0  0  0
   -7.0210   20.8790  -31.6540 C   0  0  0  0  0  0  0  0  0  0  0  0
   -6.0210   21.8050  -31.3050 O   0  0  0  0  0  0  0  0  0  0  0  0
   -4.6560   21.7470  -31.7210 C   0  0  0  0  0  0  0  0  0  0  0  0
   -3.8300   22.7410  -30.9450 C   0  0  0  0  0  0  0  0  0  0  0  0
   -2.6720   22.3370  -30.2710 C   0  0  0  0  0  0  0  0  0  0  0  0
   -1.9630   23.2190  -29.5060 N   0  0  0  0  0  0  0  0  0  0  0  0
   -0.8140   22.7230  -28.7300 C   0  0  0  0  0  0  0  0  0  0  0  0
   -1.1220   21.3610  -28.1670 C   0  0  0  0  0  0  0  0  0  0  0  0
   -2.1910   21.1910  -27.2720 C   0  0  0  0  0  0  0  0  0  0  0  0
   -2.4470   19.9370  -26.7090 C   0  0  0  0  0  0  0  0  0  0  0  0
   -1.6330   18.8470  -27.0290 C   0  0  0  0  0  0  0  0  0  0  0  0
   -0.5610   19.0090  -27.9110 C   0  0  0  0  0  0  0  0  0  0  0  0
   -0.3030   20.2620  -28.4770 C   0  0  0  0  0  0  0  0  0  0  0  0
   -2.3780   24.5220  -29.4110 C   0  0  0  0  0  0  0  0  0  0  0  0
   -1.7430   25.3520  -28.7060 O   0  0  0  0  0  0  0  0  0  0  0  0
   -3.4860   24.9350  -30.0760 N   0  0  0  0  0  0  0  0  0  0  0  0
   -4.2190   24.0830  -30.8330 C   0  0  0  0  0  0  0  0  0  0  0  0
   -5.2480   24.5060  -31.4230 O   0  0  0  0  0  0  0  0  0  0  0  0
   -8.6587   23.1643  -30.8881 H   0  0  0  0  0  0  0  0  0  0  0  0
   -7.7856   23.3792  -32.4431 H   0  0  0  0  0  0  0  0  0  0  0  0
   -9.5485   23.0347  -32.4431 H   0  0  0  0  0  0  0  0  0  0  0  0
  -10.3358   20.8237  -32.5426 H   0  0  0  0  0  0  0  0  0  0  0  0
   -9.8785   18.3742  -32.5777 H   0  0  0  0  0  0  0  0  0  0  0  0
   -7.5975   17.5187  -32.0488 H   0  0  0  0  0  0  0  0  0  0  0  0
   -5.7706   19.1088  -31.4587 H   0  0  0  0  0  0  0  0  0  0  0  0
   -4.2654   20.7340  -31.5441 H   0  0  0  0  0  0  0  0  0  0  0  0
   -4.5975   21.9917  -32.7918 H   0  0  0  0  0  0  0  0  0  0  0  0
   -2.3283   21.2957  -30.3584 H   0  0  0  0  0  0  0  0  0  0  0  0
    0.0665   22.6554  -29.3858 H   0  0  0  0  0  0  0  0  0  0  0  0
   -0.6103   23.4182  -27.9022 H   0  0  0  0  0  0  0  0  0  0  0  0
   -2.8297   22.0483  -27.0128 H   0  0  0  0  0  0  0  0  0  0  0  0
   -3.2897   19.8083  -26.0137 H   0  0  0  0  0  0  0  0  0  0  0  0
   -1.8362   17.8607  -26.5863 H   0  0  0  0  0  0  0  0  0  0  0  0
    0.0802   18.1507  -28.1603 H   0  0  0  0  0  0  0  0  0  0  0  0
    0.5442   20.3875  -29.1673 H   0  0  0  0  0  0  0  0  0  0  0  0
  1  2  1  0
  2  3  2  0
  3  4  1  0
  4  5  2  0
  5  6  1  0
  6  7  2  0
  7  8  1  0
  8  9  1  0
  9 10  1  0
 10 11  2  0
 11 12  1  0
 12 13  1  0
 13 14  1  0
 14 15  2  0
 15 16  1  0
 16 17  2  0
 17 18  1  0
 18 19  2  0
 12 20  1  0
 20 21  2  0
 20 22  1  0
 22 23  1  0
 23 24  2  0
  7  2  1  0
 23 10  1  0
 19 14  1  0
  1 25  1  0
  1 26  1  0
  1 27  1  0
  3 28  1  0
  4 29  1  0
  5 30  1  0
  6 31  1  0
  9 32  1  0
  9 33  1  0
 11 34  1  0
 13 35  1  0
 13 36  1  0
 15 37  1  0
 16 38  1  0
 17 39  1  0
 18 40  1  0
 19 41  1  0
M  CHG  1  22  -1
M  END
>  <UniqueID>  (49) 
44

>  <SMILES>  (49) 
Cc1ccccc1OCc1cn(Cc2ccccc2)c(=O)[n-]c1=O

>  <Energy>  (49) 
44.1149367677206

>  <Genealogy>  (49) 
Cc1ccccc1OCc1cn(Cc2ccccc2)c(=O)[n-]c1=O (protonated)
Cc1ccccc1OCc1cn(Cc2ccccc2)c(=O)[n-]c1=O (3D coordinates assigned)
Cc1ccccc1OCc1cn(Cc2ccccc2)c(=O)[n-]c1=O (optimized conformer: 44.1149367677206 kcal/mol)

>  <smiles>  (49) 
Cc1ccccc1OCc1cn(Cc2ccccc2)c(=O)[nH]c1=O

>  <score_type>  (49) 
oracle

>  <origin>  (49) 
adg

>  <m_score__min__energy>  (49) 
-9.6799999999999997

>  <m_primary>  (49) 
energy

$$$$
49:0
     RDKit          3D

 37 40  0  0  1  0  0  0  0  0999 V2000
   -4.8040   22.3100  -32.4990 C   0  0  0  0  0  0  0  0  0  0  0  0
   -5.3350   23.3400  -31.6110 C   0  0  0  0  0  0  0  0  0  0  0  0
   -4.4790   24.3110  -31.2040 N   0  0  0  0  0  0  0  0  0  0  0  0
   -4.8310   25.2820  -30.3590 C   0  0  0  0  0  0  0  0  0  0  0  0
   -6.1030   25.3040  -29.8820 C   0  0  0  0  0  0  0  0  0  0  0  0
   -6.9800   24.3390  -30.2800 C   0  0  0  0  0  0  0  0  0  0  0  0
   -6.6180   23.3090  -31.1730 C   0  0  0  0  0  0  0  0  0  0  0  0
   -7.6430   22.3510  -31.4760 C   0  0  0  0  0  0  0  0  0  0  0  0
   -8.9520   22.5820  -31.7920 C   0  0  0  0  0  0  0  0  0  0  0  0
   -9.8610   21.5440  -32.0260 C   0  0  0  0  0  0  0  0  0  0  0  0
   -9.4800   20.2660  -31.9480 N   0  0  0  0  0  0  0  0  0  0  0  0
   -8.1880   20.0360  -31.6340 C   0  0  0  0  0  0  0  0  0  0  0  0
   -7.7820   18.8140  -31.5490 N   0  0  0  0  0  0  0  0  0  0  0  0
   -6.8850   18.3270  -32.5180 C   0  0  0  0  0  0  0  0  0  0  0  0
   -6.5880   19.1810  -33.5850 C   0  0  0  0  0  0  0  0  0  0  0  0
   -5.7370   18.8410  -34.5940 C   0  0  0  0  0  0  0  0  0  0  0  0
   -5.1350   17.5960  -34.5680 C   0  0  0  0  0  0  0  0  0  0  0  0
   -4.2660   16.9850  -35.4020 N   0  0  0  0  0  0  0  0  0  0  0  0
   -3.9890   15.7690  -34.9200 N   0  0  0  0  0  0  0  0  0  0  0  0
   -4.6860   15.6050  -33.7680 C   0  0  0  0  0  0  0  0  0  0  0  0
   -5.4240   16.7430  -33.5140 C   0  0  0  0  0  0  0  0  0  0  0  0
   -6.2910   17.0960  -32.4910 C   0  0  0  0  0  0  0  0  0  0  0  0
   -7.3010   21.0220  -31.4070 N   0  0  0  0  0  0  0  0  0  0  0  0
   -4.3816   21.4906  -31.8988 H   0  0  0  0  0  0  0  0  0  0  0  0
   -5.6135   21.9201  -33.1336 H   0  0  0  0  0  0  0  0  0  0  0  0
   -4.0169   22.7432  -33.1336 H   0  0  0  0  0  0  0  0  0  0  0  0
   -4.1050   26.0502  -30.0544 H   0  0  0  0  0  0  0  0  0  0  0  0
   -6.4215   26.0912  -29.1828 H   0  0  0  0  0  0  0  0  0  0  0  0
   -8.0083   24.3647  -29.8901 H   0  0  0  0  0  0  0  0  0  0  0  0
   -9.3042   23.6215  -31.8651 H   0  0  0  0  0  0  0  0  0  0  0  0
  -10.9045   21.7840  -32.2779 H   0  0  0  0  0  0  0  0  0  0  0  0
  -10.1350   19.4910  -32.1160 H   0  0  0  0  0  0  0  0  0  0  0  0
   -7.0631   20.1728  -33.6111 H   0  0  0  0  0  0  0  0  0  0  0  0
   -5.5326   19.5444  -35.4146 H   0  0  0  0  0  0  0  0  0  0  0  0
   -3.8910   17.4260  -36.2820 H   0  0  0  0  0  0  0  0  0  0  0  0
   -4.6661   14.7055  -33.1352 H   0  0  0  0  0  0  0  0  0  0  0  0
   -6.4980   16.3950  -31.6689 H   0  0  0  0  0  0  0  0  0  0  0  0
  1  2  1  0
  2  3  2  0
  3  4  1  0
  4  5  2  0
  5  6  1  0
  6  7  2  0
  7  8  1  0
  8  9  1  0
  9 10  2  0
 10 11  1  0
 11 12  1  0
 12 13  2  0
 13 14  1  0
 14 15  2  0
 15 16  1  0
 16 17  2  0
 17 18  1  0
 18 19  1  0
 19 20  2  0
 20 21  1  0
 21 22  2  0
 12 23  1  0
  7  2  1  0
 23  8  2  0
 22 14  1  0
 21 17  1  0
  1 24  1  0
  1 25  1  0
  1 26  1  0
  4 27  1  0
  5 28  1  0
  6 29  1  0
  9 30  1  0
 10 31  1  0
 11 32  1  0
 15 33  1  0
 16 34  1  0
 18 35  1  0
 20 36  1  0
 22 37  1  0
M  END
>  <smiles>  (50) 
Cc1ncccc1-c1cc[nH]c(=Nc2ccc3[nH]ncc3c2)n1

>  <score_type>  (50) 
oracle

>  <origin>  (50) 
adg

>  <m_score__min__energy>  (50) 
-8.7300000000000004

>  <m_primary>  (50) 
energy

$$$$
