0:0
     RDKit          3D

 79 83  0  0  0  0  0  0  0  0999 V2000
   -1.3390   15.2170  -36.2900 C   0  0  0  0  0  0  0  0  0  0  0  0
   -0.4120   14.7800  -35.1570 C   0  0  0  0  0  0  0  0  0  0  0  0
    0.7270   15.7880  -34.9570 C   0  0  0  0  0  0  0  0  0  0  0  0
    1.0040   16.0270  -33.4600 C   0  0  0  0  0  0  0  0  0  0  0  0
   -0.2020   16.4530  -32.7250 N   0  0  0  0  0  0  0  0  0  0  0  0
   -0.1110   16.1760  -31.2820 C   0  0  0  0  0  0  0  0  0  0  0  0
    1.3580   16.0440  -30.8510 C   0  0  0  0  0  0  0  0  0  0  0  0
    1.5320   16.3090  -29.3490 C   0  0  0  0  0  0  0  0  0  0  0  0
    0.3120   17.0420  -28.7770 C   0  0  0  0  0  0  0  0  0  0  0  0
    0.2190   18.4060  -29.3250 N   0  0  0  0  0  0  0  0  0  0  0  0
   -0.0110   19.4260  -28.2860 C   0  0  0  0  0  0  0  0  0  0  0  0
   -0.9980   20.4620  -28.7700 C   0  0  0  0  0  0  0  0  0  0  0  0
   -2.0260   20.8620  -27.9010 C   0  0  0  0  0  0  0  0  0  0  0  0
   -3.0320   21.7250  -28.3380 C   0  0  0  0  0  0  0  0  0  0  0  0
   -3.0410   22.1770  -29.6620 C   0  0  0  0  0  0  0  0  0  0  0  0
   -4.1830   22.9600  -30.1700 C   0  0  0  0  0  0  0  0  0  0  0  0
   -4.2810   24.3150  -29.8190 C   0  0  0  0  0  0  0  0  0  0  0  0
   -5.3150   25.1010  -30.3300 C   0  0  0  0  0  0  0  0  0  0  0  0
   -6.2530   24.5440  -31.1980 C   0  0  0  0  0  0  0  0  0  0  0  0
   -6.1740   23.1940  -31.5470 C   0  0  0  0  0  0  0  0  0  0  0  0
   -5.1570   22.3750  -31.0160 C   0  0  0  0  0  0  0  0  0  0  0  0
   -5.0480   20.9140  -31.4230 C   0  0  0  0  0  0  0  0  0  0  0  0
   -4.0950   20.6990  -32.5110 N   0  0  0  0  0  0  0  0  0  0  0  0
   -3.5140   19.6570  -33.0620 C   0  0  0  0  0  0  0  0  0  0  0  0
   -2.2630   19.9060  -33.6920 C   0  0  0  0  0  0  0  0  0  0  0  0
   -1.7110   21.2080  -33.7660 C   0  0  0  0  0  0  0  0  0  0  0  0
   -0.4780   21.4280  -34.3850 C   0  0  0  0  0  0  0  0  0  0  0  0
    0.2280   20.3590  -34.9380 C   0  0  0  0  0  0  0  0  0  0  0  0
   -0.2950   19.0670  -34.8710 C   0  0  0  0  0  0  0  0  0  0  0  0
   -1.5300   18.8380  -34.2520 C   0  0  0  0  0  0  0  0  0  0  0  0
   -2.0150   17.5800  -34.1950 N   0  0  0  0  0  0  0  0  0  0  0  0
   -3.2060   17.2830  -33.6250 C   0  0  0  0  0  0  0  0  0  0  0  0
   -3.6210   15.9460  -33.6240 C   0  0  0  0  0  0  0  0  0  0  0  0
   -4.8460   15.5860  -33.0760 C   0  0  0  0  0  0  0  0  0  0  0  0
   -5.6710   16.5640  -32.5380 C   0  0  0  0  0  0  0  0  0  0  0  0
   -5.2710   17.9020  -32.5280 C   0  0  0  0  0  0  0  0  0  0  0  0
   -4.0170   18.3060  -33.0510 C   0  0  0  0  0  0  0  0  0  0  0  0
   -2.0060   21.8080  -30.5310 C   0  0  0  0  0  0  0  0  0  0  0  0
   -0.9790   20.9620  -30.0930 C   0  0  0  0  0  0  0  0  0  0  0  0
    0.2650   20.5110  -31.2550 Cl  0  0  0  0  0  0  0  0  0  0  0  0
   -2.2572   15.6498  -35.8662 H   0  0  0  0  0  0  0  0  0  0  0  0
   -0.8307   15.9703  -36.9098 H   0  0  0  0  0  0  0  0  0  0  0  0
   -1.5966   14.3455  -36.9098 H   0  0  0  0  0  0  0  0  0  0  0  0
   -0.9930   14.7047  -34.2260 H   0  0  0  0  0  0  0  0  0  0  0  0
    0.0254   13.8053  -35.4190 H   0  0  0  0  0  0  0  0  0  0  0  0
    1.6389   15.3979  -35.4327 H   0  0  0  0  0  0  0  0  0  0  0  0
    0.4299   16.7439  -35.4130 H   0  0  0  0  0  0  0  0  0  0  0  0
    1.3761   15.0919  -33.0161 H   0  0  0  0  0  0  0  0  0  0  0  0
    1.7468   16.8345  -33.3815 H   0  0  0  0  0  0  0  0  0  0  0  0
   -0.3150   17.4860  -32.8600 H   0  0  0  0  0  0  0  0  0  0  0  0
   -1.0440   15.9820  -33.1290 H   0  0  0  0  0  0  0  0  0  0  0  0
   -0.5790   17.0009  -30.7248 H   0  0  0  0  0  0  0  0  0  0  0  0
   -0.6310   15.2306  -31.0677 H   0  0  0  0  0  0  0  0  0  0  0  0
    1.7060   15.0252  -31.0764 H   0  0  0  0  0  0  0  0  0  0  0  0
    1.9470   16.7913  -31.4028 H   0  0  0  0  0  0  0  0  0  0  0  0
    1.6533   15.3491  -28.8257 H   0  0  0  0  0  0  0  0  0  0  0  0
    2.4209   16.9407  -29.2045 H   0  0  0  0  0  0  0  0  0  0  0  0
   -0.5995   16.4848  -29.0391 H   0  0  0  0  0  0  0  0  0  0  0  0
    0.4192   17.1069  -27.6842 H   0  0  0  0  0  0  0  0  0  0  0  0
   -0.6060   18.4340  -29.9690 H   0  0  0  0  0  0  0  0  0  0  0  0
   -0.4101   18.9398  -27.3836 H   0  0  0  0  0  0  0  0  0  0  0  0
    0.9435   19.9233  -28.0586 H   0  0  0  0  0  0  0  0  0  0  0  0
   -2.0385   20.4914  -26.8654 H   0  0  0  0  0  0  0  0  0  0  0  0
   -3.8184   22.0501  -27.6409 H   0  0  0  0  0  0  0  0  0  0  0  0
   -3.5400   24.7596  -29.1384 H   0  0  0  0  0  0  0  0  0  0  0  0
   -5.3899   26.1614  -30.0474 H   0  0  0  0  0  0  0  0  0  0  0  0
   -7.0584   25.1701  -31.6095 H   0  0  0  0  0  0  0  0  0  0  0  0
   -6.9115   22.7663  -32.2420 H   0  0  0  0  0  0  0  0  0  0  0  0
   -4.7227   20.3292  -30.5500 H   0  0  0  0  0  0  0  0  0  0  0  0
   -6.0378   20.5951  -31.7816 H   0  0  0  0  0  0  0  0  0  0  0  0
   -2.2596   22.0563  -33.3309 H   0  0  0  0  0  0  0  0  0  0  0  0
   -0.0631   22.4455  -34.4365 H   0  0  0  0  0  0  0  0  0  0  0  0
    1.1975   20.5348  -35.4271 H   0  0  0  0  0  0  0  0  0  0  0  0
    0.2647   18.2258  -35.3058 H   0  0  0  0  0  0  0  0  0  0  0  0
   -2.9713   15.1734  -34.0611 H   0  0  0  0  0  0  0  0  0  0  0  0
   -5.1602   14.5319  -33.0686 H   0  0  0  0  0  0  0  0  0  0  0  0
   -6.6473   16.2830  -32.1163 H   0  0  0  0  0  0  0  0  0  0  0  0
   -5.9453   18.6607  -32.1040 H   0  0  0  0  0  0  0  0  0  0  0  0
   -1.9997   22.1851  -31.5643 H   0  0  0  0  0  0  0  0  0  0  0  0
  1  2  1  0
  2  3  1  0
  3  4  1  0
  4  5  1  0
  5  6  1  0
  6  7  1  0
  7  8  1  0
  8  9  1  0
  9 10  1  0
 10 11  1  0
 11 12  1  0
 12 13  2  0
 13 14  1  0
 14 15  2  0
 15 16  1  0
 16 17  2  0
 17 18  1  0
 18 19  2  0
 19 20  1  0
 20 21  2  0
 21 22  1  0
 22 23  1  0
 23 24  2  3
 24 25  1  0
 25 26  2  0
 26 27  1  0
 27 28  2  0
 28 29  1  0
 29 30  2  0
 30 31  1  0
 31 32  1  0
 32 33  2  0
 33 34  1  0
 34 35  2  0
 35 36  1  0
 36 37  2  0
 15 38  1  0
 38 39  2  0
 39 40  1  0
 39 12  1  0
 21 16  1  0
 37 24  1  0
 30 25  1  0
 37 32  1  0
  1 41  1  0
  1 42  1  0
  1 43  1  0
  2 44  1  0
  2 45  1  0
  3 46  1  0
  3 47  1  0
  4 48  1  0
  4 49  1  0
  5 50  1  0
  5 51  1  0
  6 52  1  0
  6 53  1  0
  7 54  1  0
  7 55  1  0
  8 56  1  0
  8 57  1  0
  9 58  1  0
  9 59  1  0
 10 60  1  0
 11 61  1  0
 11 62  1  0
 13 63  1  0
 14 64  1  0
 17 65  1  0
 18 66  1  0
 19 67  1  0
 20 68  1  0
 22 69  1  0
 22 70  1  0
 26 71  1  0
 27 72  1  0
 28 73  1  0
 29 74  1  0
 33 75  1  0
 34 76  1  0
 35 77  1  0
 36 78  1  0
 38 79  1  0
M  CHG  2   5   1  31  -1
M  END
>  <UniqueID>  (1) 
1

>  <SMILES>  (1) 
CCCC[NH2+]CCCCNCc1ccc(-c2ccccc2CN=c2c3ccccc3[n-]c3ccccc23)cc1Cl

>  <Energy>  (1) 
102.76372144526084

>  <Genealogy>  (1) 
CCCC[NH2+]CCCCNCc1ccc(-c2ccccc2CN=c2c3ccccc3[n-]c3ccccc23)cc1Cl (protonated)
CCCC[NH2+]CCCCNCc1ccc(-c2ccccc2CN=c2c3ccccc3[n-]c3ccccc23)cc1Cl (3D coordinates assigned)
CCCC[NH2+]CCCCNCc1ccc(-c2ccccc2CN=c2c3ccccc3[n-]c3ccccc23)cc1Cl (optimized conformer: 102.76372144526084 kcal/mol)

>  <smiles>  (1) 
CCCCNCCCCNCc1ccc(-c2ccccc2CN=c2c3ccccc3[nH]c3ccccc23)cc1Cl

>  <score_type>  (1) 
oracle

>  <origin>  (1) 
adg

>  <m_score__min__energy>  (1) 
-11.630000000000001

>  <m_primary>  (1) 
energy

$$$$
1:0
     RDKit          3D

 35 36  0  0  0  0  0  0  0  0999 V2000
   -2.0810   24.8740  -28.1510 C   0  0  0  0  0  0  0  0  0  0  0  0
   -2.7400   25.2740  -29.3480 O   0  0  0  0  0  0  0  0  0  0  0  0
   -3.7190   24.5140  -30.0060 C   0  0  0  0  0  0  0  0  0  0  0  0
   -5.0490   24.9410  -29.9330 C   0  0  0  0  0  0  0  0  0  0  0  0
   -6.0570   24.2300  -30.5870 C   0  0  0  0  0  0  0  0  0  0  0  0
   -5.7450   23.0860  -31.3240 C   0  0  0  0  0  0  0  0  0  0  0  0
   -4.4160   22.6420  -31.4090 C   0  0  0  0  0  0  0  0  0  0  0  0
   -4.0740   21.4370  -32.2550 C   0  0  0  0  0  0  0  0  0  0  0  0
   -4.9910   21.2800  -33.4020 N   0  0  0  0  0  0  0  0  0  0  0  0
   -5.6180   19.9460  -33.4750 C   0  0  0  0  0  0  0  0  0  0  0  0
   -6.9930   19.9290  -32.8720 C   0  0  0  0  0  0  0  0  0  0  0  0
   -7.7610   18.8000  -32.6520 C   0  0  0  0  0  0  0  0  0  0  0  0
   -8.9430   19.2520  -32.1050 C   0  0  0  0  0  0  0  0  0  0  0  0
   -8.8110   20.6240  -32.0130 C   0  0  0  0  0  0  0  0  0  0  0  0
   -9.8530   21.5650  -31.5130 C   0  0  0  0  0  0  0  0  0  0  0  0
   -7.6400   20.9990  -32.4710 O   0  0  0  0  0  0  0  0  0  0  0  0
   -3.4080   23.3500  -30.7360 C   0  0  0  0  0  0  0  0  0  0  0  0
   -2.6566   25.2234  -27.2812 H   0  0  0  0  0  0  0  0  0  0  0  0
   -2.0046   23.7770  -28.1235 H   0  0  0  0  0  0  0  0  0  0  0  0
   -1.0726   25.3126  -28.1235 H   0  0  0  0  0  0  0  0  0  0  0  0
   -5.3024   25.8429  -29.3565 H   0  0  0  0  0  0  0  0  0  0  0  0
   -7.1003   24.5723  -30.5214 H   0  0  0  0  0  0  0  0  0  0  0  0
   -6.5427   22.5311  -31.8395 H   0  0  0  0  0  0  0  0  0  0  0  0
   -3.0481   21.5511  -32.6351 H   0  0  0  0  0  0  0  0  0  0  0  0
   -4.1702   20.5426  -31.6219 H   0  0  0  0  0  0  0  0  0  0  0  0
   -4.5070   21.5120  -34.3020 H   0  0  0  0  0  0  0  0  0  0  0  0
   -5.7610   21.9800  -33.2850 H   0  0  0  0  0  0  0  0  0  0  0  0
   -5.6911   19.6468  -34.5310 H   0  0  0  0  0  0  0  0  0  0  0  0
   -4.9906   19.2474  -32.9021 H   0  0  0  0  0  0  0  0  0  0  0  0
   -7.4857   17.7573  -32.8686 H   0  0  0  0  0  0  0  0  0  0  0  0
   -9.8106   18.6463  -31.8044 H   0  0  0  0  0  0  0  0  0  0  0  0
   -9.8511   21.5633  -30.4130 H   0  0  0  0  0  0  0  0  0  0  0  0
   -9.6365   22.5797  -31.8785 H   0  0  0  0  0  0  0  0  0  0  0  0
  -10.8404   21.2465  -31.8785 H   0  0  0  0  0  0  0  0  0  0  0  0
   -2.3682   22.9935  -30.7789 H   0  0  0  0  0  0  0  0  0  0  0  0
  1  2  1  0
  2  3  1  0
  3  4  2  0
  4  5  1  0
  5  6  2  0
  6  7  1  0
  7  8  1  0
  8  9  1  0
  9 10  1  0
 10 11  1  0
 11 12  2  0
 12 13  1  0
 13 14  2  0
 14 15  1  0
 14 16  1  0
  7 17  2  0
 17  3  1  0
 16 11  1  0
  1 18  1  0
  1 19  1  0
  1 20  1  0
  4 21  1  0
  5 22  1  0
  6 23  1  0
  8 24  1  0
  8 25  1  0
  9 26  1  0
  9 27  1  0
 10 28  1  0
 10 29  1  0
 12 30  1  0
 13 31  1  0
 15 32  1  0
 15 33  1  0
 15 34  1  0
 17 35  1  0
M  CHG  1   9   1
M  END
>  <UniqueID>  (2) 
2

>  <SMILES>  (2) 
COc1cccc(C[NH2+]Cc2ccc(C)o2)c1

>  <Energy>  (2) 
55.64256166801811

>  <Genealogy>  (2) 
COc1cccc(C[NH2+]Cc2ccc(C)o2)c1 (protonated)
COc1cccc(C[NH2+]Cc2ccc(C)o2)c1 (3D coordinates assigned)
COc1cccc(C[NH2+]Cc2ccc(C)o2)c1 (optimized conformer: 55.64256166801811 kcal/mol)

>  <smiles>  (2) 
COc1cccc(CNCc2ccc(C)o2)c1

>  <score_type>  (2) 
oracle

>  <origin>  (2) 
adg

>  <m_score__min__energy>  (2) 
-6.2800000000000002

>  <m_primary>  (2) 
energy

$$$$
2:0
     RDKit          3D

 25 25  0  0  0  0  0  0  0  0999 V2000
   -2.2500   23.7700  -29.2800 C   0  0  0  0  0  0  0  0  0  0  0  0
   -3.6510   24.3890  -29.2820 C   0  0  0  0  0  0  0  0  0  0  0  0
   -3.8620   25.2900  -30.4280 N   0  0  0  0  0  0  0  0  0  0  0  0
   -5.2810   25.6150  -30.6440 C   0  0  0  0  0  0  0  0  0  0  0  0
   -6.1740   24.4150  -30.3060 C   0  0  0  0  0  0  0  0  0  0  0  0
   -5.9190   23.2630  -31.2350 C   0  0  0  0  0  0  0  0  0  0  0  0
   -6.8920   22.2710  -31.4310 C   0  0  0  0  0  0  0  0  0  0  0  0
   -6.6120   21.1950  -32.2760 C   0  0  0  0  0  0  0  0  0  0  0  0
   -5.3690   21.1120  -32.9080 C   0  0  0  0  0  0  0  0  0  0  0  0
   -4.4210   22.1120  -32.6820 C   0  0  0  0  0  0  0  0  0  0  0  0
   -4.7120   23.1530  -31.8550 N   0  0  0  0  0  0  0  0  0  0  0  0
   -1.9159   23.6224  -28.2424 H   0  0  0  0  0  0  0  0  0  0  0  0
   -2.2770   22.8000  -29.7981 H   0  0  0  0  0  0  0  0  0  0  0  0
   -1.5510   24.4431  -29.7981 H   0  0  0  0  0  0  0  0  0  0  0  0
   -4.3951   23.5801  -29.3262 H   0  0  0  0  0  0  0  0  0  0  0  0
   -3.7579   24.9831  -28.3624 H   0  0  0  0  0  0  0  0  0  0  0  0
   -3.4720   24.8530  -31.2970 H   0  0  0  0  0  0  0  0  0  0  0  0
   -5.5584   26.4630  -30.0007 H   0  0  0  0  0  0  0  0  0  0  0  0
   -5.4254   25.8736  -31.7034 H   0  0  0  0  0  0  0  0  0  0  0  0
   -5.9678   24.0949  -29.2740 H   0  0  0  0  0  0  0  0  0  0  0  0
   -7.2242   24.7230  -30.4168 H   0  0  0  0  0  0  0  0  0  0  0  0
   -7.8657   22.3403  -30.9240 H   0  0  0  0  0  0  0  0  0  0  0  0
   -7.3687   20.4144  -32.4436 H   0  0  0  0  0  0  0  0  0  0  0  0
   -5.1397   20.2687  -33.5760 H   0  0  0  0  0  0  0  0  0  0  0  0
   -3.4380   22.0583  -33.1728 H   0  0  0  0  0  0  0  0  0  0  0  0
  1  2  1  0
  2  3  1  0
  3  4  1  0
  4  5  1  0
  5  6  1  0
  6  7  2  0
  7  8  1  0
  8  9  2  0
  9 10  1  0
 10 11  2  0
 11  6  1  0
  1 12  1  0
  1 13  1  0
  1 14  1  0
  2 15  1  0
  2 16  1  0
  3 17  1  0
  4 18  1  0
  4 19  1  0
  5 20  1  0
  5 21  1  0
  7 22  1  0
  8 23  1  0
  9 24  1  0
 10 25  1  0
M  END
>  <UniqueID>  (3) 
3

>  <SMILES>  (3) 
CCNCCc1ccccn1

>  <Energy>  (3) 
19.963227369968955

>  <Genealogy>  (3) 
CCNCCc1ccccn1 (3D coordinates assigned)
CCNCCc1ccccn1 (optimized conformer: 19.963227369968955 kcal/mol)

>  <smiles>  (3) 
CCNCCc1ccccn1

>  <score_type>  (3) 
oracle

>  <origin>  (3) 
adg

>  <m_score__min__energy>  (3) 
-5.0599999999999996

>  <m_primary>  (3) 
energy

$$$$
3:0
     RDKit          3D

 51 54  0  0  0  0  0  0  0  0999 V2000
   -2.9930   23.6850  -30.0690 C   0  0  0  0  0  0  0  0  0  0  0  0
   -2.0650   22.7620  -29.3240 C   0  0  0  0  0  0  0  0  0  0  0  0
   -1.7470   23.0630  -27.9880 C   0  0  0  0  0  0  0  0  0  0  0  0
   -0.8770   22.2460  -27.2620 C   0  0  0  0  0  0  0  0  0  0  0  0
   -0.4820   22.6440  -25.6000 Cl  0  0  0  0  0  0  0  0  0  0  0  0
   -0.3200   21.1150  -27.8590 C   0  0  0  0  0  0  0  0  0  0  0  0
   -0.6400   20.7900  -29.1780 C   0  0  0  0  0  0  0  0  0  0  0  0
   -1.5230   21.5930  -29.9200 C   0  0  0  0  0  0  0  0  0  0  0  0
   -1.8590   21.1820  -31.3040 C   0  0  0  0  0  0  0  0  0  0  0  0
   -0.8670   21.1720  -32.2970 C   0  0  0  0  0  0  0  0  0  0  0  0
   -1.1710   20.7480  -33.5930 C   0  0  0  0  0  0  0  0  0  0  0  0
   -2.4660   20.3320  -33.9100 C   0  0  0  0  0  0  0  0  0  0  0  0
   -3.4730   20.3470  -32.9340 C   0  0  0  0  0  0  0  0  0  0  0  0
   -4.7980   19.9020  -33.2630 N   0  0  0  0  0  0  0  0  0  0  0  0
   -5.0720   19.0150  -34.2180 N   0  0  0  0  0  0  0  0  0  0  0  0
   -6.3800   18.7770  -34.2620 N   0  0  0  0  0  0  0  0  0  0  0  0
   -6.9500   19.5370  -33.3140 C   0  0  0  0  0  0  0  0  0  0  0  0
   -8.2920   19.6630  -32.9740 C   0  0  0  0  0  0  0  0  0  0  0  0
   -8.6160   20.5740  -31.9500 C   0  0  0  0  0  0  0  0  0  0  0  0
   -7.6040   21.3470  -31.3190 C   0  0  0  0  0  0  0  0  0  0  0  0
   -7.9670   22.3070  -30.2180 C   0  0  0  0  0  0  0  0  0  0  0  0
   -6.8330   23.1890  -29.9120 N   0  0  0  0  0  0  0  0  0  0  0  0
   -6.7780   24.3310  -30.8360 C   0  0  0  0  0  0  0  0  0  0  0  0
   -5.8310   25.4050  -30.3000 C   0  0  0  0  0  0  0  0  0  0  0  0
   -5.4400   25.1050  -28.9260 N   0  0  0  0  0  0  0  0  0  0  0  0
   -6.2530   21.1880  -31.7030 C   0  0  0  0  0  0  0  0  0  0  0  0
   -5.9690   20.2470  -32.6920 C   0  0  0  0  0  0  0  0  0  0  0  0
   -3.1570   20.7510  -31.6260 C   0  0  0  0  0  0  0  0  0  0  0  0
   -3.5827   24.2715  -29.3491 H   0  0  0  0  0  0  0  0  0  0  0  0
   -2.4037   24.3656  -30.7010 H   0  0  0  0  0  0  0  0  0  0  0  0
   -3.6704   23.0920  -30.7010 H   0  0  0  0  0  0  0  0  0  0  0  0
   -2.1875   23.9503  -27.5098 H   0  0  0  0  0  0  0  0  0  0  0  0
    0.3727   20.4782  -27.2892 H   0  0  0  0  0  0  0  0  0  0  0  0
   -0.1966   19.8964  -29.6415 H   0  0  0  0  0  0  0  0  0  0  0  0
    0.1545   21.4995  -32.0536 H   0  0  0  0  0  0  0  0  0  0  0  0
   -0.3883   20.7418  -34.3658 H   0  0  0  0  0  0  0  0  0  0  0  0
   -2.6972   19.9910  -34.9299 H   0  0  0  0  0  0  0  0  0  0  0  0
   -6.8500   18.1210  -34.9260 H   0  0  0  0  0  0  0  0  0  0  0  0
   -9.0693   19.0750  -33.4840 H   0  0  0  0  0  0  0  0  0  0  0  0
   -9.6637   20.6885  -31.6352 H   0  0  0  0  0  0  0  0  0  0  0  0
   -8.8246   22.9172  -30.5375 H   0  0  0  0  0  0  0  0  0  0  0  0
   -8.2259   21.7333  -29.3159 H   0  0  0  0  0  0  0  0  0  0  0  0
   -6.9820   23.5690  -28.9480 H   0  0  0  0  0  0  0  0  0  0  0  0
   -6.4177   23.9868  -31.8167 H   0  0  0  0  0  0  0  0  0  0  0  0
   -7.7861   24.7603  -30.9331 H   0  0  0  0  0  0  0  0  0  0  0  0
   -4.9315   25.4421  -30.9321 H   0  0  0  0  0  0  0  0  0  0  0  0
   -6.3485   26.3755  -30.3179 H   0  0  0  0  0  0  0  0  0  0  0  0
   -5.3770   26.0060  -28.3990 H   0  0  0  0  0  0  0  0  0  0  0  0
   -6.2170   24.5590  -28.4880 H   0  0  0  0  0  0  0  0  0  0  0  0
   -5.4545   21.7851  -31.2384 H   0  0  0  0  0  0  0  0  0  0  0  0
   -3.9330   20.7297  -30.8467 H   0  0  0  0  0  0  0  0  0  0  0  0
  1  2  1  0
  2  3  2  0
  3  4  1  0
  4  5  1  0
  4  6  2  0
  6  7  1  0
  7  8  2  0
  8  9  1  0
  9 10  2  0
 10 11  1  0
 11 12  2  0
 12 13  1  0
 13 14  1  0
 14 15  1  0
 15 16  2  0
 16 17  1  0
 17 18  2  0
 18 19  1  0
 19 20  2  0
 20 21  1  0
 21 22  1  0
 22 23  1  0
 23 24  1  0
 24 25  1  0
 20 26  1  0
 26 27  2  0
 13 28  2  0
  8  2  1  0
 28  9  1  0
 27 14  1  0
 27 17  1  0
  1 29  1  0
  1 30  1  0
  1 31  1  0
  3 32  1  0
  6 33  1  0
  7 34  1  0
 10 35  1  0
 11 36  1  0
 12 37  1  0
 16 38  1  0
 18 39  1  0
 19 40  1  0
 21 41  1  0
 21 42  1  0
 22 43  1  0
 23 44  1  0
 23 45  1  0
 24 46  1  0
 24 47  1  0
 25 48  1  0
 25 49  1  0
 26 50  1  0
 28 51  1  0
M  CHG  1  16   1
M  END
>  <UniqueID>  (4) 
4

>  <SMILES>  (4) 
Cc1cc(Cl)ccc1-c1cccc(-n2n[nH+]c3ccc(CNCCN)cc32)c1

>  <Energy>  (4) 
105.49064693411496

>  <Genealogy>  (4) 
Cc1cc(Cl)ccc1-c1cccc(-n2n[nH+]c3ccc(CNCCN)cc32)c1 (protonated)
Cc1cc(Cl)ccc1-c1cccc(-n2n[nH+]c3ccc(CNCCN)cc32)c1 (3D coordinates assigned)
Cc1cc(Cl)ccc1-c1cccc(-n2n[nH+]c3ccc(CNCCN)cc32)c1 (optimized conformer: 105.49064693411496 kcal/mol)

>  <smiles>  (4) 
Cc1cc(Cl)ccc1-c1cccc(-n2nnc3ccc(CNCCN)cc32)c1

>  <score_type>  (4) 
oracle

>  <origin>  (4) 
adg

>  <m_score__min__energy>  (4) 
-9.6799999999999997

>  <m_primary>  (4) 
energy

$$$$
4:0
     RDKit          3D

 30 31  0  0  0  0  0  0  0  0999 V2000
   -2.3570   24.6740  -28.0640 C   0  0  0  0  0  0  0  0  0  0  0  0
   -2.5440   25.0290  -29.4280 O   0  0  0  0  0  0  0  0  0  0  0  0
   -3.6100   24.5510  -30.1970 C   0  0  0  0  0  0  0  0  0  0  0  0
   -4.6850   25.3460  -30.4600 N   0  0  0  0  0  0  0  0  0  0  0  0
   -5.7370   24.9110  -31.2040 C   0  0  0  0  0  0  0  0  0  0  0  0
   -5.7490   23.6110  -31.7250 C   0  0  0  0  0  0  0  0  0  0  0  0
   -6.8780   23.1700  -32.5040 N   0  0  0  0  0  0  0  0  0  0  0  0
   -8.0360   22.4620  -31.9570 C   0  0  0  0  0  0  0  0  0  0  0  0
   -7.9010   20.9770  -32.1670 C   0  0  0  0  0  0  0  0  0  0  0  0
   -8.8280   20.0860  -31.5980 C   0  0  0  0  0  0  0  0  0  0  0  0
   -8.6930   18.7080  -31.7940 C   0  0  0  0  0  0  0  0  0  0  0  0
   -7.6290   18.2090  -32.5490 C   0  0  0  0  0  0  0  0  0  0  0  0
   -6.6960   19.0860  -33.1080 C   0  0  0  0  0  0  0  0  0  0  0  0
   -6.8280   20.4650  -32.9160 C   0  0  0  0  0  0  0  0  0  0  0  0
   -4.6440   22.7790  -31.4700 C   0  0  0  0  0  0  0  0  0  0  0  0
   -3.5750   23.2480  -30.7030 C   0  0  0  0  0  0  0  0  0  0  0  0
   -2.2030   22.1970  -30.3870 Cl  0  0  0  0  0  0  0  0  0  0  0  0
   -2.7725   25.4627  -27.4196 H   0  0  0  0  0  0  0  0  0  0  0  0
   -2.8716   23.7237  -27.8586 H   0  0  0  0  0  0  0  0  0  0  0  0
   -1.2823   24.5609  -27.8586 H   0  0  0  0  0  0  0  0  0  0  0  0
   -6.5845   25.5849  -31.3980 H   0  0  0  0  0  0  0  0  0  0  0  0
   -6.8990   23.4000  -33.5240 H   0  0  0  0  0  0  0  0  0  0  0  0
   -8.1094   22.6689  -30.8791 H   0  0  0  0  0  0  0  0  0  0  0  0
   -8.9410   22.8113  -32.4757 H   0  0  0  0  0  0  0  0  0  0  0  0
   -9.6628   20.4745  -30.9962 H   0  0  0  0  0  0  0  0  0  0  0  0
   -9.4257   18.0161  -31.3530 H   0  0  0  0  0  0  0  0  0  0  0  0
   -7.5256   17.1248  -32.7036 H   0  0  0  0  0  0  0  0  0  0  0  0
   -5.8568   18.6915  -33.6997 H   0  0  0  0  0  0  0  0  0  0  0  0
   -6.0885   21.1519  -33.3533 H   0  0  0  0  0  0  0  0  0  0  0  0
   -4.6216   21.7567  -31.8755 H   0  0  0  0  0  0  0  0  0  0  0  0
  1  2  1  0
  2  3  1  0
  3  4  2  0
  4  5  1  0
  5  6  2  0
  6  7  1  0
  7  8  1  0
  8  9  1  0
  9 10  2  0
 10 11  1  0
 11 12  2  0
 12 13  1  0
 13 14  2  0
  6 15  1  0
 15 16  2  0
 16 17  1  0
 16  3  1  0
 14  9  1  0
  1 18  1  0
  1 19  1  0
  1 20  1  0
  5 21  1  0
  7 22  1  0
  8 23  1  0
  8 24  1  0
 10 25  1  0
 11 26  1  0
 12 27  1  0
 13 28  1  0
 14 29  1  0
 15 30  1  0
M  END
>  <UniqueID>  (5) 
5

>  <SMILES>  (5) 
COc1ncc(NCc2ccccc2)cc1Cl

>  <Energy>  (5) 
28.289047113358748

>  <Genealogy>  (5) 
COc1ncc(NCc2ccccc2)cc1Cl (3D coordinates assigned)
COc1ncc(NCc2ccccc2)cc1Cl (optimized conformer: 28.289047113358748 kcal/mol)

>  <smiles>  (5) 
COc1ncc(NCc2ccccc2)cc1Cl

>  <score_type>  (5) 
oracle

>  <origin>  (5) 
adg

>  <m_score__min__energy>  (5) 
-7.5899999999999999

>  <m_primary>  (5) 
energy

$$$$
5:0
     RDKit          3D

 41 43  0  0  0  0  0  0  0  0999 V2000
    0.8390   19.0870  -28.8690 C   0  0  0  0  0  0  0  0  0  0  0  0
    0.6440   20.3390  -29.5200 O   0  0  0  0  0  0  0  0  0  0  0  0
   -0.2310   20.5460  -30.5980 C   0  0  0  0  0  0  0  0  0  0  0  0
   -0.0940   19.8550  -31.8160 C   0  0  0  0  0  0  0  0  0  0  0  0
   -0.9870   20.0880  -32.8660 C   0  0  0  0  0  0  0  0  0  0  0  0
   -2.0270   21.0210  -32.7220 C   0  0  0  0  0  0  0  0  0  0  0  0
   -2.9680   21.2340  -33.7930 N   0  0  0  0  0  0  0  0  0  0  0  0
   -4.2870   20.8390  -33.3630 C   0  0  0  0  0  0  0  0  0  0  0  0
   -4.7810   19.5680  -33.6740 C   0  0  0  0  0  0  0  0  0  0  0  0
   -6.0450   19.1760  -33.2400 C   0  0  0  0  0  0  0  0  0  0  0  0
   -6.8500   20.0400  -32.4750 C   0  0  0  0  0  0  0  0  0  0  0  0
   -6.3380   21.3200  -32.1120 C   0  0  0  0  0  0  0  0  0  0  0  0
   -5.0680   21.7040  -32.5820 C   0  0  0  0  0  0  0  0  0  0  0  0
   -7.0960   22.3170  -31.2500 C   0  0  0  0  0  0  0  0  0  0  0  0
   -8.4820   22.6750  -31.8120 C   0  0  0  0  0  0  0  0  0  0  0  0
   -9.5470   21.6060  -31.5150 C   0  0  0  0  0  0  0  0  0  0  0  0
   -9.4350   20.3500  -32.3880 C   0  0  0  0  0  0  0  0  0  0  0  0
   -8.2000   19.5630  -32.0750 C   0  0  0  0  0  0  0  0  0  0  0  0
   -8.3200   18.4690  -31.4580 O   0  0  0  0  0  0  0  0  0  0  0  0
   -2.1670   21.7050  -31.5040 C   0  0  0  0  0  0  0  0  0  0  0  0
   -1.2760   21.4720  -30.4510 C   0  0  0  0  0  0  0  0  0  0  0  0
   -1.4840   22.3490  -28.9430 Cl  0  0  0  0  0  0  0  0  0  0  0  0
    0.8163   19.2330  -27.7790 H   0  0  0  0  0  0  0  0  0  0  0  0
    0.0382   18.3924  -29.1627 H   0  0  0  0  0  0  0  0  0  0  0  0
    1.8131   18.6688  -29.1627 H   0  0  0  0  0  0  0  0  0  0  0  0
    0.7208   19.1270  -31.9428 H   0  0  0  0  0  0  0  0  0  0  0  0
   -0.8744   19.5370  -33.8113 H   0  0  0  0  0  0  0  0  0  0  0  0
   -2.6830   20.6850  -34.6380 H   0  0  0  0  0  0  0  0  0  0  0  0
   -2.9680   22.2430  -34.0770 H   0  0  0  0  0  0  0  0  0  0  0  0
   -4.1669   18.8731  -34.2655 H   0  0  0  0  0  0  0  0  0  0  0  0
   -6.4200   18.1750  -33.4994 H   0  0  0  0  0  0  0  0  0  0  0  0
   -4.6801   22.7025  -32.3319 H   0  0  0  0  0  0  0  0  0  0  0  0
   -7.2268   21.8835  -30.2475 H   0  0  0  0  0  0  0  0  0  0  0  0
   -6.5042   23.2439  -31.2261 H   0  0  0  0  0  0  0  0  0  0  0  0
   -8.8063   23.6262  -31.3647 H   0  0  0  0  0  0  0  0  0  0  0  0
   -8.3845   22.7465  -32.9053 H   0  0  0  0  0  0  0  0  0  0  0  0
   -9.4491   21.3043  -30.4617 H   0  0  0  0  0  0  0  0  0  0  0  0
  -10.5234   22.0609  -31.7380 H   0  0  0  0  0  0  0  0  0  0  0  0
  -10.3158   19.7149  -32.2126 H   0  0  0  0  0  0  0  0  0  0  0  0
   -9.3800   20.6684  -33.4395 H   0  0  0  0  0  0  0  0  0  0  0  0
   -2.9842   22.4302  -31.3766 H   0  0  0  0  0  0  0  0  0  0  0  0
  1  2  1  0
  2  3  1  0
  3  4  2  0
  4  5  1  0
  5  6  2  0
  6  7  1  0
  7  8  1  0
  8  9  2  0
  9 10  1  0
 10 11  2  0
 11 12  1  0
 12 13  2  0
 12 14  1  0
 14 15  1  0
 15 16  1  0
 16 17  1  0
 17 18  1  0
 18 19  2  0
  6 20  1  0
 20 21  2  0
 21 22  1  0
 21  3  1  0
 13  8  1  0
 18 11  1  0
  1 23  1  0
  1 24  1  0
  1 25  1  0
  4 26  1  0
  5 27  1  0
  7 28  1  0
  7 29  1  0
  9 30  1  0
 10 31  1  0
 13 32  1  0
 14 33  1  0
 14 34  1  0
 15 35  1  0
 15 36  1  0
 16 37  1  0
 16 38  1  0
 17 39  1  0
 17 40  1  0
 20 41  1  0
M  CHG  1   7   1
M  END
>  <UniqueID>  (6) 
6

>  <SMILES>  (6) 
COc1ccc([NH2+]c2ccc3c(c2)CCCCC3=O)cc1Cl

>  <Energy>  (6) 
50.98286006144345

>  <Genealogy>  (6) 
COc1ccc([NH2+]c2ccc3c(c2)CCCCC3=O)cc1Cl (protonated)
COc1ccc([NH2+]c2ccc3c(c2)CCCCC3=O)cc1Cl (3D coordinates assigned)
COc1ccc([NH2+]c2ccc3c(c2)CCCCC3=O)cc1Cl (nonaromatic ring conformer: 50.98286006144345 kcal/mol)

>  <smiles>  (6) 
COc1ccc(Nc2ccc3c(c2)CCCCC3=O)cc1Cl

>  <score_type>  (6) 
oracle

>  <origin>  (6) 
adg

>  <m_score__min__energy>  (6) 
-5.9199999999999999

>  <m_primary>  (6) 
energy

$$$$
6:0
     RDKit          3D

 58 60  0  0  0  0  0  0  0  0999 V2000
   -9.8084   23.7910  -31.9633 H   0  0  0  0  0  0  0  0  0  0  0  0
   -9.0420   23.0020  -31.9480 C   0  0  0  0  0  0  0  0  0  0  0  0
   -9.4490   21.6570  -31.4930 C   0  0  0  0  0  0  0  0  0  0  0  0
   -9.8237   21.5187  -30.4681 H   0  0  0  0  0  0  0  0  0  0  0  0
   -6.5450   22.9080  -31.6910 C   0  0  0  0  0  0  0  0  0  0  0  0
   -5.5420   22.4170  -32.4730 N   0  0  0  0  0  0  0  0  0  0  0  0
   -4.3300   22.0710  -31.9650 C   0  0  0  0  0  0  0  0  0  0  0  0
   -3.3300   21.5710  -32.8070 C   0  0  0  0  0  0  0  0  0  0  0  0
   -3.5301   21.4431  -33.8811 H   0  0  0  0  0  0  0  0  0  0  0  0
   -2.0780   21.2340  -32.2860 C   0  0  0  0  0  0  0  0  0  0  0  0
   -1.2947   20.8482  -32.9550 H   0  0  0  0  0  0  0  0  0  0  0  0
   -1.8110   21.3840  -30.9130 C   0  0  0  0  0  0  0  0  0  0  0  0
   -0.5200   21.0240  -30.3780 N   0  0  0  0  0  0  0  0  0  0  0  0
    0.2190   21.2720  -31.0770 H   0  0  0  0  0  0  0  0  0  0  0  0
   -0.3290   21.5710  -29.5040 H   0  0  0  0  0  0  0  0  0  0  0  0
   -0.4670   19.5820  -30.0880 C   0  0  0  0  0  0  0  0  0  0  0  0
    0.4875   19.1783  -30.4567 H   0  0  0  0  0  0  0  0  0  0  0  0
   -1.3176   19.0979  -30.5902 H   0  0  0  0  0  0  0  0  0  0  0  0
   -0.5770   19.3050  -28.5790 C   0  0  0  0  0  0  0  0  0  0  0  0
    0.4301   19.1232  -28.1756 H   0  0  0  0  0  0  0  0  0  0  0  0
   -1.2227   18.4257  -28.4379 H   0  0  0  0  0  0  0  0  0  0  0  0
   -1.1850   20.4450  -27.8560 N   0  0  0  0  0  0  0  0  0  0  0  0
   -2.4550   20.1210  -27.1710 C   0  0  0  0  0  0  0  0  0  0  0  0
   -3.2577   20.0925  -27.9226 H   0  0  0  0  0  0  0  0  0  0  0  0
   -2.6190   20.8999  -26.4118 H   0  0  0  0  0  0  0  0  0  0  0  0
   -2.4320   18.7780  -26.4370 C   0  0  0  0  0  0  0  0  0  0  0  0
   -2.4350   18.9535  -25.3511 H   0  0  0  0  0  0  0  0  0  0  0  0
   -3.3202   18.1923  -26.7162 H   0  0  0  0  0  0  0  0  0  0  0  0
   -1.5242   18.2230  -26.7162 H   0  0  0  0  0  0  0  0  0  0  0  0
   -0.2650   21.3320  -27.1000 C   0  0  0  0  0  0  0  0  0  0  0  0
    0.2614   20.7202  -26.3526 H   0  0  0  0  0  0  0  0  0  0  0  0
    0.4061   21.7852  -27.8445 H   0  0  0  0  0  0  0  0  0  0  0  0
   -0.9450   22.5000  -26.3670 C   0  0  0  0  0  0  0  0  0  0  0  0
   -0.8584   22.3513  -25.2805 H   0  0  0  0  0  0  0  0  0  0  0  0
   -0.4554   23.4441  -26.6480 H   0  0  0  0  0  0  0  0  0  0  0  0
   -2.0077   22.5403  -26.6480 H   0  0  0  0  0  0  0  0  0  0  0  0
   -2.8220   21.8690  -30.0630 C   0  0  0  0  0  0  0  0  0  0  0  0
   -2.6292   21.9702  -28.9848 H   0  0  0  0  0  0  0  0  0  0  0  0
   -4.0750   22.2240  -30.5850 C   0  0  0  0  0  0  0  0  0  0  0  0
   -5.0800   22.7490  -29.7650 C   0  0  0  0  0  0  0  0  0  0  0  0
   -4.9018   22.8763  -28.6870 H   0  0  0  0  0  0  0  0  0  0  0  0
   -6.3100   23.1110  -30.3190 C   0  0  0  0  0  0  0  0  0  0  0  0
   -7.0922   23.5533  -29.6846 H   0  0  0  0  0  0  0  0  0  0  0  0
   -7.8020   23.3280  -32.3440 C   0  0  0  0  0  0  0  0  0  0  0  0
   -7.7133   23.9659  -33.2358 H   0  0  0  0  0  0  0  0  0  0  0  0
   -9.3660   20.6040  -32.3170 C   0  0  0  0  0  0  0  0  0  0  0  0
  -10.2431   20.3616  -32.9350 H   0  0  0  0  0  0  0  0  0  0  0  0
   -8.1640   19.7450  -32.4470 C   0  0  0  0  0  0  0  0  0  0  0  0
   -7.9580   18.6000  -31.6490 C   0  0  0  0  0  0  0  0  0  0  0  0
   -8.6901   18.3349  -30.8719 H   0  0  0  0  0  0  0  0  0  0  0  0
   -6.8260   17.8000  -31.8420 C   0  0  0  0  0  0  0  0  0  0  0  0
   -6.6689   16.9118  -31.2123 H   0  0  0  0  0  0  0  0  0  0  0  0
   -5.8950   18.1250  -32.8310 C   0  0  0  0  0  0  0  0  0  0  0  0
   -5.0079   17.4923  -32.9816 H   0  0  0  0  0  0  0  0  0  0  0  0
   -6.0920   19.2550  -33.6290 C   0  0  0  0  0  0  0  0  0  0  0  0
   -5.3559   19.5153  -34.4039 H   0  0  0  0  0  0  0  0  0  0  0  0
   -7.2230   20.0550  -33.4440 C   0  0  0  0  0  0  0  0  0  0  0  0
   -7.3782   20.9356  -34.0847 H   0  0  0  0  0  0  0  0  0  0  0  0
  1  2  1  0
  2  3  2  0
  3  4  1  0
  3  5  1  0
  5  6  2  0
  6  7  1  0
  7  8  2  0
  8  9  1  0
  8 10  1  0
 10 11  1  0
 10 12  2  0
 12 13  1  0
 13 14  1  0
 13 15  1  0
 13 16  1  0
 16 17  1  0
 16 18  1  0
 16 19  1  0
 19 20  1  0
 19 21  1  0
 19 22  1  0
 22 23  1  0
 23 24  1  0
 23 25  1  0
 23 26  1  0
 26 27  1  0
 26 28  1  0
 26 29  1  0
 22 30  1  0
 30 31  1  0
 30 32  1  0
 30 33  1  0
 33 34  1  0
 33 35  1  0
 33 36  1  0
 12 37  1  0
 37 38  1  0
 37 39  2  0
 39 40  1  0
 40 41  1  0
 40 42  2  0
 42 43  1  0
  2 44  1  0
 44 45  1  0
 44 46  2  0
 46 47  1  0
 46 48  1  0
 48 49  2  0
 49 50  1  0
 49 51  1  0
 51 52  1  0
 51 53  2  0
 53 54  1  0
 53 55  1  0
 55 56  1  0
 55 57  2  0
 57 58  1  0
 42  5  1  0
 57 48  1  0
 39  7  1  0
M  CHG  1  13   1
M  END
>  <UniqueID>  (7) 
7

>  <SMILES>  (7) 
CCN(CC)CC[NH2+]c1ccc2nc(/C=C\C=C\c3ccccc3)ccc2c1

>  <Energy>  (7) 
75.34240602298941

>  <Genealogy>  (7) 
CCN(CC)CC[NH2+]c1ccc2nc(C=CC=Cc3ccccc3)ccc2c1 (protonated)
CCN(CC)CC[NH2+]c1ccc2nc(/C=C\C=C\c3ccccc3)ccc2c1 (cis-trans isomerization)
CCN(CC)CC[NH2+]c1ccc2nc(/C=C\C=C\c3ccccc3)ccc2c1 (3D coordinates assigned)
CCN(CC)CC[NH2+]c1ccc2nc(/C=C\C=C\c3ccccc3)ccc2c1 (optimized conformer: 75.34240602298941 kcal/mol)

>  <smiles>  (7) 
CCN(CC)CCNc1ccc2nc(C=CC=Cc3ccccc3)ccc2c1

>  <score_type>  (7) 
oracle

>  <origin>  (7) 
adg

>  <m_score__min__energy>  (7) 
-8.2799999999999994

>  <m_primary>  (7) 
energy

$$$$
7:0
     RDKit          3D

 44 45  0  0  0  0  0  0  0  0999 V2000
   -5.4440   23.7240  -31.7190 C   0  0  0  0  0  0  0  0  0  0  0  0
   -4.6150   24.5260  -30.8060 N   0  0  0  0  0  0  0  0  0  0  0  0
   -5.4820   25.3010  -29.9050 C   0  0  0  0  0  0  0  0  0  0  0  0
   -3.6950   23.6540  -30.0440 C   0  0  0  0  0  0  0  0  0  0  0  0
   -2.8730   24.4490  -29.0040 C   0  0  0  0  0  0  0  0  0  0  0  0
   -2.7600   23.8210  -27.6610 N   0  0  0  0  0  0  0  0  0  0  0  0
   -3.4670   22.5280  -27.5220 C   0  0  0  0  0  0  0  0  0  0  0  0
   -2.5240   21.3720  -27.7330 C   0  0  0  0  0  0  0  0  0  0  0  0
   -2.3530   20.4150  -26.7180 C   0  0  0  0  0  0  0  0  0  0  0  0
   -1.4900   19.3320  -26.9100 C   0  0  0  0  0  0  0  0  0  0  0  0
   -0.7910   19.1990  -28.1140 C   0  0  0  0  0  0  0  0  0  0  0  0
    0.0450   18.1480  -28.2990 F   0  0  0  0  0  0  0  0  0  0  0  0
   -0.9550   20.1480  -29.1270 C   0  0  0  0  0  0  0  0  0  0  0  0
   -1.8170   21.2340  -28.9380 C   0  0  0  0  0  0  0  0  0  0  0  0
   -1.3720   23.7550  -27.1580 C   0  0  0  0  0  0  0  0  0  0  0  0
   -1.1580   24.8010  -26.0920 C   0  0  0  0  0  0  0  0  0  0  0  0
   -1.4930   26.1400  -26.3480 C   0  0  0  0  0  0  0  0  0  0  0  0
   -1.2790   27.1160  -25.3780 C   0  0  0  0  0  0  0  0  0  0  0  0
   -0.7290   26.7500  -24.1500 C   0  0  0  0  0  0  0  0  0  0  0  0
   -0.4040   25.4530  -23.9060 N   0  0  0  0  0  0  0  0  0  0  0  0
   -0.6000   24.4760  -24.8360 C   0  0  0  0  0  0  0  0  0  0  0  0
   -0.1020   22.6770  -24.3900 Br  0  0  0  0  0  0  0  0  0  0  0  0
   -6.1132   23.0766  -31.1334 H   0  0  0  0  0  0  0  0  0  0  0  0
   -6.0438   24.3934  -32.3532 H   0  0  0  0  0  0  0  0  0  0  0  0
   -4.7948   23.1024  -32.3532 H   0  0  0  0  0  0  0  0  0  0  0  0
   -5.2245   25.0709  -28.8606 H   0  0  0  0  0  0  0  0  0  0  0  0
   -5.3363   26.3754  -30.0903 H   0  0  0  0  0  0  0  0  0  0  0  0
   -6.5334   25.0362  -30.0903 H   0  0  0  0  0  0  0  0  0  0  0  0
   -4.2846   22.8873  -29.5200 H   0  0  0  0  0  0  0  0  0  0  0  0
   -2.9918   23.1971  -30.7559 H   0  0  0  0  0  0  0  0  0  0  0  0
   -1.8565   24.5794  -29.4036 H   0  0  0  0  0  0  0  0  0  0  0  0
   -3.4141   25.3943  -28.8505 H   0  0  0  0  0  0  0  0  0  0  0  0
   -3.8986   22.4606  -26.5124 H   0  0  0  0  0  0  0  0  0  0  0  0
   -4.2591   22.4779  -28.2836 H   0  0  0  0  0  0  0  0  0  0  0  0
   -2.9000   20.5185  -25.7693 H   0  0  0  0  0  0  0  0  0  0  0  0
   -1.3607   18.5842  -26.1137 H   0  0  0  0  0  0  0  0  0  0  0  0
   -0.4057   20.0410  -30.0740 H   0  0  0  0  0  0  0  0  0  0  0  0
   -1.9409   21.9814  -29.7355 H   0  0  0  0  0  0  0  0  0  0  0  0
   -1.1861   22.7579  -26.7322 H   0  0  0  0  0  0  0  0  0  0  0  0
   -0.6775   23.9412  -27.9905 H   0  0  0  0  0  0  0  0  0  0  0  0
   -1.9266   26.4196  -27.3195 H   0  0  0  0  0  0  0  0  0  0  0  0
   -1.5412   28.1653  -25.5785 H   0  0  0  0  0  0  0  0  0  0  0  0
   -0.5577   27.5132  -23.3765 H   0  0  0  0  0  0  0  0  0  0  0  0
    0.0100   25.2040  -22.9800 H   0  0  0  0  0  0  0  0  0  0  0  0
  1  2  1  0
  2  3  1  0
  2  4  1  0
  4  5  1  0
  5  6  1  0
  6  7  1  0
  7  8  1  0
  8  9  2  0
  9 10  1  0
 10 11  2  0
 11 12  1  0
 11 13  1  0
 13 14  2  0
  6 15  1  0
 15 16  1  0
 16 17  2  0
 17 18  1  0
 18 19  2  0
 19 20  1  0
 20 21  2  0
 21 22  1  0
 14  8  1  0
 21 16  1  0
  1 23  1  0
  1 24  1  0
  1 25  1  0
  3 26  1  0
  3 27  1  0
  3 28  1  0
  4 29  1  0
  4 30  1  0
  5 31  1  0
  5 32  1  0
  7 33  1  0
  7 34  1  0
  9 35  1  0
 10 36  1  0
 13 37  1  0
 14 38  1  0
 15 39  1  0
 15 40  1  0
 17 41  1  0
 18 42  1  0
 19 43  1  0
 20 44  1  0
M  CHG  1  20   1
M  END
>  <UniqueID>  (8) 
8

>  <SMILES>  (8) 
CN(C)CCN(Cc1ccc(F)cc1)Cc1ccc[nH+]c1Br

>  <Energy>  (8) 
48.64251382335257

>  <Genealogy>  (8) 
CN(C)CCN(Cc1ccc(F)cc1)Cc1ccc[nH+]c1Br (protonated)
CN(C)CCN(Cc1ccc(F)cc1)Cc1ccc[nH+]c1Br (3D coordinates assigned)
CN(C)CCN(Cc1ccc(F)cc1)Cc1ccc[nH+]c1Br (optimized conformer: 48.64251382335257 kcal/mol)

>  <smiles>  (8) 
CN(C)CCN(Cc1ccc(F)cc1)Cc1cccnc1Br

>  <score_type>  (8) 
oracle

>  <origin>  (8) 
adg

>  <m_score__min__energy>  (8) 
-6.7800000000000002

>  <m_primary>  (8) 
energy

$$$$
8:0
     RDKit          3D

 48 50  0  0  0  0  0  0  0  0999 V2000
   -1.1170   26.2400  -27.9490 C   0  0  0  0  0  0  0  0  0  0  0  0
   -1.6290   25.6650  -29.1470 O   0  0  0  0  0  0  0  0  0  0  0  0
   -2.0590   24.3340  -29.2690 C   0  0  0  0  0  0  0  0  0  0  0  0
   -1.4150   23.2750  -28.5990 C   0  0  0  0  0  0  0  0  0  0  0  0
   -1.8730   21.9650  -28.7460 C   0  0  0  0  0  0  0  0  0  0  0  0
   -2.9740   21.6960  -29.5600 C   0  0  0  0  0  0  0  0  0  0  0  0
   -3.6210   22.7360  -30.2300 C   0  0  0  0  0  0  0  0  0  0  0  0
   -3.1670   24.0630  -30.0890 C   0  0  0  0  0  0  0  0  0  0  0  0
   -3.7900   25.1370  -30.7450 O   0  0  0  0  0  0  0  0  0  0  0  0
   -5.0710   25.6570  -30.4050 C   0  0  0  0  0  0  0  0  0  0  0  0
   -6.1020   24.6020  -30.6360 C   0  0  0  0  0  0  0  0  0  0  0  0
   -7.1160   24.3440  -29.7870 N   0  0  0  0  0  0  0  0  0  0  0  0
   -7.7430   23.3280  -30.3100 O   0  0  0  0  0  0  0  0  0  0  0  0
   -7.1480   22.9620  -31.4200 C   0  0  0  0  0  0  0  0  0  0  0  0
   -7.5990   21.8300  -32.2900 C   0  0  0  0  0  0  0  0  0  0  0  0
   -7.2530   20.5360  -31.6710 N   0  0  0  0  0  0  0  0  0  0  0  0
   -8.3010   19.4900  -31.7970 C   0  0  0  0  0  0  0  0  0  0  0  0
   -7.9220   18.3660  -32.7680 C   0  0  0  0  0  0  0  0  0  0  0  0
   -6.5640   17.7210  -32.4360 C   0  0  0  0  0  0  0  0  0  0  0  0
   -5.6880   18.5870  -31.5190 C   0  0  0  0  0  0  0  0  0  0  0  0
   -5.8360   20.0920  -31.8190 C   0  0  1  0  0  0  0  0  0  0  0  0
   -5.1520   20.4770  -33.1610 C   0  0  0  0  0  0  0  0  0  0  0  0
   -4.6450   21.7810  -33.1330 O   0  0  0  0  0  0  0  0  0  0  0  0
   -6.0850   23.7430  -31.6720 N   0  0  0  0  0  0  0  0  0  0  0  0
   -1.5654   25.7365  -27.0798 H   0  0  0  0  0  0  0  0  0  0  0  0
   -0.0243   26.1166  -27.9209 H   0  0  0  0  0  0  0  0  0  0  0  0
   -1.3658   27.3111  -27.9209 H   0  0  0  0  0  0  0  0  0  0  0  0
   -0.5464   23.4819  -27.9565 H   0  0  0  0  0  0  0  0  0  0  0  0
   -1.3654   21.1433  -28.2195 H   0  0  0  0  0  0  0  0  0  0  0  0
   -3.3329   20.6625  -29.6740 H   0  0  0  0  0  0  0  0  0  0  0  0
   -4.4886   22.5190  -30.8705 H   0  0  0  0  0  0  0  0  0  0  0  0
   -5.0788   25.9545  -29.3460 H   0  0  0  0  0  0  0  0  0  0  0  0
   -5.2925   26.5354  -31.0289 H   0  0  0  0  0  0  0  0  0  0  0  0
   -8.6893   21.8878  -32.4237 H   0  0  0  0  0  0  0  0  0  0  0  0
   -7.0941   21.9058  -33.2643 H   0  0  0  0  0  0  0  0  0  0  0  0
   -8.4759   19.0496  -30.8043 H   0  0  0  0  0  0  0  0  0  0  0  0
   -9.2015   19.9777  -32.1986 H   0  0  0  0  0  0  0  0  0  0  0  0
   -8.6994   17.5889  -32.7262 H   0  0  0  0  0  0  0  0  0  0  0  0
   -7.8406   18.8095  -33.7713 H   0  0  0  0  0  0  0  0  0  0  0  0
   -6.7476   16.7584  -31.9362 H   0  0  0  0  0  0  0  0  0  0  0  0
   -6.0209   17.5986  -33.3847 H   0  0  0  0  0  0  0  0  0  0  0  0
   -5.9805   18.4041  -30.4745 H   0  0  0  0  0  0  0  0  0  0  0  0
   -4.6384   18.3101  -31.6967 H   0  0  0  0  0  0  0  0  0  0  0  0
   -5.2847   20.6665  -31.0600 H   0  0  0  0  0  0  0  0  0  0  0  0
   -4.3246   19.7778  -33.3519 H   0  0  0  0  0  0  0  0  0  0  0  0
   -5.9089   20.4225  -33.9573 H   0  0  0  0  0  0  0  0  0  0  0  0
   -4.5960   22.0800  -34.0790 H   0  0  0  0  0  0  0  0  0  0  0  0
   -5.4100   23.6930  -32.4680 H   0  0  0  0  0  0  0  0  0  0  0  0
  1  2  1  0
  2  3  1  0
  3  4  2  0
  4  5  1  0
  5  6  2  0
  6  7  1  0
  7  8  2  0
  8  9  1  0
  9 10  1  0
 10 11  1  0
 11 12  2  0
 12 13  1  0
 13 14  1  0
 14 15  1  0
 15 16  1  0
 16 17  1  0
 17 18  1  0
 18 19  1  0
 19 20  1  0
 20 21  1  0
 21 22  1  0
 22 23  1  0
 14 24  2  0
  8  3  1  0
 24 11  1  0
 21 16  1  0
  1 25  1  0
  1 26  1  0
  1 27  1  0
  4 28  1  0
  5 29  1  0
  6 30  1  0
  7 31  1  0
 10 32  1  0
 10 33  1  0
 15 34  1  0
 15 35  1  0
 17 36  1  0
 17 37  1  0
 18 38  1  0
 18 39  1  0
 19 40  1  0
 19 41  1  0
 20 42  1  0
 20 43  1  0
 21 44  1  1
 22 45  1  0
 22 46  1  0
 23 47  1  0
 24 48  1  0
M  CHG  1  24   1
M  END
>  <UniqueID>  (9) 
9

>  <SMILES>  (9) 
COc1ccccc1OCc1noc(CN2CCCC[C@H]2CO)[nH+]1

>  <Energy>  (9) 
95.96391358833623

>  <Genealogy>  (9) 
COc1ccccc1OCc1noc(CN2CCCCC2CO)[nH+]1 (protonated)
COc1ccccc1OCc1noc(CN2CCCC[C@H]2CO)[nH+]1 (chirality)
COc1ccccc1OCc1noc(CN2CCCC[C@H]2CO)[nH+]1 (3D coordinates assigned)
COc1ccccc1OCc1noc(CN2CCCC[C@H]2CO)[nH+]1 (nonaromatic ring conformer: 95.96391358833623 kcal/mol)

>  <smiles>  (9) 
COc1ccccc1OCc1noc(CN2CCCCC2CO)n1

>  <score_type>  (9) 
oracle

>  <origin>  (9) 
adg

>  <m_score__min__energy>  (9) 
-7.96

>  <m_primary>  (9) 
energy

$$$$
9:0
     RDKit          3D

 49 52  0  0  0  0  0  0  0  0999 V2000
   -3.5850   21.3600  -32.0270 C   0  0  0  0  0  0  0  0  0  0  0  0
   -3.7480   20.8250  -33.4440 C   0  0  0  0  0  0  0  0  0  0  0  0
   -4.4930   19.5610  -33.4240 N   0  0  0  0  0  0  0  0  0  0  0  0
   -4.0850   18.3540  -33.8890 C   0  0  0  0  0  0  0  0  0  0  0  0
   -2.8480   18.0200  -34.4530 C   0  0  0  0  0  0  0  0  0  0  0  0
   -2.6550   16.6970  -34.8880 C   0  0  0  0  0  0  0  0  0  0  0  0
   -3.6870   15.7410  -34.7650 C   0  0  0  0  0  0  0  0  0  0  0  0
   -4.9260   16.0950  -34.2040 C   0  0  0  0  0  0  0  0  0  0  0  0
   -5.0890   17.4110  -33.7760 C   0  0  0  0  0  0  0  0  0  0  0  0
   -6.1700   18.0630  -33.2290 C   0  0  0  0  0  0  0  0  0  0  0  0
   -7.4530   17.6140  -32.9160 C   0  0  0  0  0  0  0  0  0  0  0  0
   -8.3600   18.5470  -32.3850 C   0  0  0  0  0  0  0  0  0  0  0  0
   -7.9830   19.9020  -32.1950 C   0  0  0  0  0  0  0  0  0  0  0  0
   -8.9150   20.8440  -31.6260 N   0  0  0  0  0  0  0  0  0  0  0  0
   -8.2600   21.6190  -30.5600 C   0  0  0  0  0  0  0  0  0  0  0  0
   -7.8410   22.9760  -31.0700 C   0  0  0  0  0  0  0  0  0  0  0  0
   -8.5690   23.5300  -31.9370 O   0  0  0  0  0  0  0  0  0  0  0  0
   -6.6100   23.6150  -30.6500 N   0  0  0  0  0  0  0  0  0  0  0  0
   -5.8260   23.0480  -29.5370 C   0  0  0  0  0  0  0  0  0  0  0  0
   -4.6260   23.9160  -29.1440 C   0  0  0  0  0  0  0  0  0  0  0  0
   -4.0150   24.4760  -30.2830 O   0  0  0  0  0  0  0  0  0  0  0  0
   -4.8940   25.4260  -30.8410 C   0  0  0  0  0  0  0  0  0  0  0  0
   -6.1150   24.7420  -31.4590 C   0  0  0  0  0  0  0  0  0  0  0  0
   -6.6700   20.3170  -32.5190 C   0  0  0  0  0  0  0  0  0  0  0  0
   -5.7790   19.3710  -33.0330 C   0  0  0  0  0  0  0  0  0  0  0  0
   -3.8269   20.5660  -31.3052 H   0  0  0  0  0  0  0  0  0  0  0  0
   -2.5460   21.6884  -31.8763 H   0  0  0  0  0  0  0  0  0  0  0  0
   -4.2643   22.2119  -31.8763 H   0  0  0  0  0  0  0  0  0  0  0  0
   -4.2968   21.5611  -34.0498 H   0  0  0  0  0  0  0  0  0  0  0  0
   -2.7530   20.6492  -33.8788 H   0  0  0  0  0  0  0  0  0  0  0  0
   -2.0503   18.7708  -34.5529 H   0  0  0  0  0  0  0  0  0  0  0  0
   -1.6906   16.4037  -35.3285 H   0  0  0  0  0  0  0  0  0  0  0  0
   -3.5197   14.7104  -35.1112 H   0  0  0  0  0  0  0  0  0  0  0  0
   -5.7381   15.3595  -34.1063 H   0  0  0  0  0  0  0  0  0  0  0  0
   -7.7447   16.5660  -33.0791 H   0  0  0  0  0  0  0  0  0  0  0  0
   -9.3754   18.2228  -32.1131 H   0  0  0  0  0  0  0  0  0  0  0  0
   -9.2690   21.4770  -32.3800 H   0  0  0  0  0  0  0  0  0  0  0  0
   -9.7370   20.3350  -31.2280 H   0  0  0  0  0  0  0  0  0  0  0  0
   -8.9625   21.7484  -29.7235 H   0  0  0  0  0  0  0  0  0  0  0  0
   -7.3649   21.0745  -30.2248 H   0  0  0  0  0  0  0  0  0  0  0  0
   -6.4846   22.9442  -28.6621 H   0  0  0  0  0  0  0  0  0  0  0  0
   -5.4327   22.0775  -29.8737 H   0  0  0  0  0  0  0  0  0  0  0  0
   -4.9688   24.7266  -28.4842 H   0  0  0  0  0  0  0  0  0  0  0  0
   -3.8900   23.2836  -28.6260 H   0  0  0  0  0  0  0  0  0  0  0  0
   -5.2282   26.1151  -30.0514 H   0  0  0  0  0  0  0  0  0  0  0  0
   -4.3618   25.9765  -31.6308 H   0  0  0  0  0  0  0  0  0  0  0  0
   -6.9209   25.4842  -31.5576 H   0  0  0  0  0  0  0  0  0  0  0  0
   -5.8090   24.3386  -32.4356 H   0  0  0  0  0  0  0  0  0  0  0  0
   -6.3573   21.3610  -32.3697 H   0  0  0  0  0  0  0  0  0  0  0  0
  1  2  1  0
  2  3  1  0
  3  4  1  0
  4  5  2  0
  5  6  1  0
  6  7  2  0
  7  8  1  0
  8  9  2  0
  9 10  1  0
 10 11  2  0
 11 12  1  0
 12 13  2  0
 13 14  1  0
 14 15  1  0
 15 16  1  0
 16 17  2  0
 16 18  1  0
 18 19  1  0
 19 20  1  0
 20 21  1  0
 21 22  1  0
 22 23  1  0
 13 24  1  0
 24 25  2  0
 25  3  1  0
  9  4  1  0
 25 10  1  0
 23 18  1  0
  1 26  1  0
  1 27  1  0
  1 28  1  0
  2 29  1  0
  2 30  1  0
  5 31  1  0
  6 32  1  0
  7 33  1  0
  8 34  1  0
 11 35  1  0
 12 36  1  0
 14 37  1  0
 14 38  1  0
 15 39  1  0
 15 40  1  0
 19 41  1  0
 19 42  1  0
 20 43  1  0
 20 44  1  0
 22 45  1  0
 22 46  1  0
 23 47  1  0
 23 48  1  0
 24 49  1  0
M  CHG  1  14   1
M  END
>  <UniqueID>  (10) 
10

>  <SMILES>  (10) 
CCn1c2ccccc2c2ccc([NH2+]CC(=O)N3CCOCC3)cc21

>  <Energy>  (10) 
93.5145986068744

>  <Genealogy>  (10) 
CCn1c2ccccc2c2ccc([NH2+]CC(=O)N3CCOCC3)cc21 (protonated)
CCn1c2ccccc2c2ccc([NH2+]CC(=O)N3CCOCC3)cc21 (3D coordinates assigned)
CCn1c2ccccc2c2ccc([NH2+]CC(=O)N3CCOCC3)cc21 (nonaromatic ring conformer: 93.5145986068744 kcal/mol)

>  <smiles>  (10) 
CCn1c2ccccc2c2ccc(NCC(=O)N3CCOCC3)cc21

>  <score_type>  (10) 
oracle

>  <origin>  (10) 
adg

>  <m_score__min__energy>  (10) 
-7.9800000000000004

>  <m_primary>  (10) 
energy

$$$$
10:0
     RDKit          3D

 51 54  0  0  0  0  0  0  0  0999 V2000
   -1.4100   23.0630  -29.1400 C   0  0  0  0  0  0  0  0  0  0  0  0
   -1.0630   22.7230  -30.4780 O   0  0  0  0  0  0  0  0  0  0  0  0
   -1.8300   21.8930  -31.3090 C   0  0  0  0  0  0  0  0  0  0  0  0
   -3.1460   22.2150  -31.6870 C   0  0  0  0  0  0  0  0  0  0  0  0
   -3.8750   21.3570  -32.5150 C   0  0  0  0  0  0  0  0  0  0  0  0
   -3.3060   20.1540  -32.9720 C   0  0  0  0  0  0  0  0  0  0  0  0
   -4.0160   19.2580  -33.7990 C   0  0  0  0  0  0  0  0  0  0  0  0
   -5.3480   19.4830  -34.1690 O   0  0  0  0  0  0  0  0  0  0  0  0
   -6.4480   19.3100  -33.3140 C   0  0  0  0  0  0  0  0  0  0  0  0
   -6.9720   18.0230  -33.1520 C   0  0  0  0  0  0  0  0  0  0  0  0
   -8.0630   17.8040  -32.3060 C   0  0  0  0  0  0  0  0  0  0  0  0
   -8.6400   18.8710  -31.6160 C   0  0  0  0  0  0  0  0  0  0  0  0
   -8.1330   20.1700  -31.7700 C   0  0  0  0  0  0  0  0  0  0  0  0
   -8.7340   21.3160  -30.9960 C   0  0  0  0  0  0  0  0  0  0  0  0
   -8.2800   22.6530  -31.5330 C   0  0  0  0  0  0  0  0  0  0  0  0
   -9.0400   23.2900  -32.3140 O   0  0  0  0  0  0  0  0  0  0  0  0
   -7.0280   23.2450  -31.1220 N   0  0  0  0  0  0  0  0  0  0  0  0
   -6.2470   22.6710  -30.0170 C   0  0  0  0  0  0  0  0  0  0  0  0
   -5.3510   23.7390  -29.3820 C   0  0  0  0  0  0  0  0  0  0  0  0
   -4.5920   24.4110  -30.3670 O   0  0  0  0  0  0  0  0  0  0  0  0
   -5.4590   25.1450  -31.2090 C   0  0  0  0  0  0  0  0  0  0  0  0
   -6.3610   24.2040  -32.0130 C   0  0  0  0  0  0  0  0  0  0  0  0
   -7.0270   20.3840  -32.6100 C   0  0  0  0  0  0  0  0  0  0  0  0
   -3.3760   18.1150  -34.2810 C   0  0  0  0  0  0  0  0  0  0  0  0
   -2.0610   17.8450  -33.9040 C   0  0  0  0  0  0  0  0  0  0  0  0
   -1.3930   18.6950  -33.0790 N   0  0  0  0  0  0  0  0  0  0  0  0
   -1.9740   19.8370  -32.6100 C   0  0  0  0  0  0  0  0  0  0  0  0
   -1.2530   20.7070  -31.7770 C   0  0  0  0  0  0  0  0  0  0  0  0
   -0.8031   22.4683  -28.4414 H   0  0  0  0  0  0  0  0  0  0  0  0
   -1.2189   24.1332  -28.9723 H   0  0  0  0  0  0  0  0  0  0  0  0
   -2.4761   22.8502  -28.9723 H   0  0  0  0  0  0  0  0  0  0  0  0
   -3.6045   23.1484  -31.3285 H   0  0  0  0  0  0  0  0  0  0  0  0
   -4.9002   21.6239  -32.8113 H   0  0  0  0  0  0  0  0  0  0  0  0
   -6.5225   17.1778  -33.6939 H   0  0  0  0  0  0  0  0  0  0  0  0
   -8.4676   16.7884  -32.1839 H   0  0  0  0  0  0  0  0  0  0  0  0
   -9.4960   18.6928  -30.9485 H   0  0  0  0  0  0  0  0  0  0  0  0
   -9.8302   21.2574  -31.0663 H   0  0  0  0  0  0  0  0  0  0  0  0
   -8.4007   21.2356  -29.9508 H   0  0  0  0  0  0  0  0  0  0  0  0
   -6.9346   22.2755  -29.2549 H   0  0  0  0  0  0  0  0  0  0  0  0
   -5.6130   21.8633  -30.4114 H   0  0  0  0  0  0  0  0  0  0  0  0
   -5.9807   24.4690  -28.8523 H   0  0  0  0  0  0  0  0  0  0  0  0
   -4.6605   23.2472  -28.6810 H   0  0  0  0  0  0  0  0  0  0  0  0
   -6.0858   25.8064  -30.5928 H   0  0  0  0  0  0  0  0  0  0  0  0
   -4.8523   25.7368  -31.9102 H   0  0  0  0  0  0  0  0  0  0  0  0
   -7.1220   24.7963  -32.5421 H   0  0  0  0  0  0  0  0  0  0  0  0
   -5.7433   23.6492  -32.7345 H   0  0  0  0  0  0  0  0  0  0  0  0
   -6.6108   21.3964  -32.7185 H   0  0  0  0  0  0  0  0  0  0  0  0
   -3.9078   17.4289  -34.9566 H   0  0  0  0  0  0  0  0  0  0  0  0
   -1.5608   16.9388  -34.2762 H   0  0  0  0  0  0  0  0  0  0  0  0
   -0.4100   18.4590  -32.8150 H   0  0  0  0  0  0  0  0  0  0  0  0
   -0.2222   20.4535  -31.4887 H   0  0  0  0  0  0  0  0  0  0  0  0
  1  2  1  0
  2  3  1  0
  3  4  2  0
  4  5  1  0
  5  6  2  0
  6  7  1  0
  7  8  1  0
  8  9  1  0
  9 10  2  0
 10 11  1  0
 11 12  2  0
 12 13  1  0
 13 14  1  0
 14 15  1  0
 15 16  2  0
 15 17  1  0
 17 18  1  0
 18 19  1  0
 19 20  1  0
 20 21  1  0
 21 22  1  0
 13 23  2  0
  7 24  2  0
 24 25  1  0
 25 26  2  0
 26 27  1  0
 27 28  2  0
 28  3  1  0
 27  6  1  0
 23  9  1  0
 22 17  1  0
  1 29  1  0
  1 30  1  0
  1 31  1  0
  4 32  1  0
  5 33  1  0
 10 34  1  0
 11 35  1  0
 12 36  1  0
 14 37  1  0
 14 38  1  0
 18 39  1  0
 18 40  1  0
 19 41  1  0
 19 42  1  0
 21 43  1  0
 21 44  1  0
 22 45  1  0
 22 46  1  0
 23 47  1  0
 24 48  1  0
 25 49  1  0
 26 50  1  0
 28 51  1  0
M  CHG  1  26   1
M  END
>  <UniqueID>  (11) 
11

>  <SMILES>  (11) 
COc1ccc2c(Oc3cccc(CC(=O)N4CCOCC4)c3)cc[nH+]c2c1

>  <Energy>  (11) 
67.65142413913475

>  <Genealogy>  (11) 
COc1ccc2c(Oc3cccc(CC(=O)N4CCOCC4)c3)cc[nH+]c2c1 (protonated)
COc1ccc2c(Oc3cccc(CC(=O)N4CCOCC4)c3)cc[nH+]c2c1 (3D coordinates assigned)
COc1ccc2c(Oc3cccc(CC(=O)N4CCOCC4)c3)cc[nH+]c2c1 (nonaromatic ring conformer: 67.65142413913475 kcal/mol)

>  <smiles>  (11) 
COc1ccc2c(Oc3cccc(CC(=O)N4CCOCC4)c3)ccnc2c1

>  <score_type>  (11) 
oracle

>  <origin>  (11) 
adg

>  <m_score__min__energy>  (11) 
-8.2300000000000004

>  <m_primary>  (11) 
energy

$$$$
11:0
     RDKit          3D

 52 55  0  0  0  0  0  0  0  0999 V2000
    0.2760   17.5840  -27.7930 C   0  0  0  0  0  0  0  0  0  0  0  0
   -0.8220   18.1700  -27.1000 O   0  0  0  0  0  0  0  0  0  0  0  0
   -1.3040   19.4670  -27.3320 C   0  0  0  0  0  0  0  0  0  0  0  0
   -2.6780   19.7560  -27.4270 C   0  0  0  0  0  0  0  0  0  0  0  0
   -3.1140   21.0630  -27.6590 C   0  0  0  0  0  0  0  0  0  0  0  0
   -2.1830   22.1110  -27.8010 C   0  0  0  0  0  0  0  0  0  0  0  0
   -2.5650   23.4520  -28.0390 C   0  0  0  0  0  0  0  0  0  0  0  0
   -4.0140   23.8720  -28.1800 C   0  0  0  0  0  0  0  0  0  0  0  0
   -4.4050   23.9610  -29.6030 N   0  0  0  0  0  0  0  0  0  0  0  0
   -4.9100   22.6610  -30.1130 C   0  0  0  0  0  0  0  0  0  0  0  0
   -6.4470   22.5970  -30.1180 C   0  0  0  0  0  0  0  0  0  0  0  0
   -7.0600   23.6660  -30.9580 N   0  0  0  0  0  0  0  0  0  0  0  0
   -7.4450   23.1650  -32.3010 C   0  0  0  0  0  0  0  0  0  0  0  0
   -7.6790   21.6710  -32.3090 C   0  0  0  0  0  0  0  0  0  0  0  0
   -6.6690   20.8010  -32.7540 C   0  0  0  0  0  0  0  0  0  0  0  0
   -6.8830   19.4190  -32.7660 C   0  0  0  0  0  0  0  0  0  0  0  0
   -8.1050   18.8960  -32.3330 C   0  0  0  0  0  0  0  0  0  0  0  0
   -9.1130   19.7530  -31.8850 C   0  0  0  0  0  0  0  0  0  0  0  0
   -8.9030   21.1360  -31.8710 C   0  0  0  0  0  0  0  0  0  0  0  0
   -6.1860   24.8590  -31.0990 C   0  0  0  0  0  0  0  0  0  0  0  0
   -5.3430   25.0870  -29.8380 C   0  0  0  0  0  0  0  0  0  0  0  0
   -1.5620   24.4210  -28.1780 C   0  0  0  0  0  0  0  0  0  0  0  0
   -0.2220   24.0440  -28.0700 C   0  0  0  0  0  0  0  0  0  0  0  0
    0.6850   24.9090  -28.1910 O   0  0  0  0  0  0  0  0  0  0  0  0
    0.1050   22.7790  -27.8420 O   0  0  0  0  0  0  0  0  0  0  0  0
   -0.8010   21.8150  -27.7080 C   0  0  0  0  0  0  0  0  0  0  0  0
   -0.3770   20.5040  -27.4740 C   0  0  0  0  0  0  0  0  0  0  0  0
    1.0037   17.1956  -27.0653 H   0  0  0  0  0  0  0  0  0  0  0  0
   -0.0868   16.7596  -28.4244 H   0  0  0  0  0  0  0  0  0  0  0  0
    0.7590   18.3443  -28.4244 H   0  0  0  0  0  0  0  0  0  0  0  0
   -3.4146   18.9464  -27.3177 H   0  0  0  0  0  0  0  0  0  0  0  0
   -4.1909   21.2752  -27.7312 H   0  0  0  0  0  0  0  0  0  0  0  0
   -4.6535   23.1316  -27.6771 H   0  0  0  0  0  0  0  0  0  0  0  0
   -4.1371   24.8639  -27.7206 H   0  0  0  0  0  0  0  0  0  0  0  0
   -4.5460   22.5182  -31.1412 H   0  0  0  0  0  0  0  0  0  0  0  0
   -4.5409   21.8693  -29.4444 H   0  0  0  0  0  0  0  0  0  0  0  0
   -6.7581   21.6177  -30.5108 H   0  0  0  0  0  0  0  0  0  0  0  0
   -6.7912   22.7457  -29.0839 H   0  0  0  0  0  0  0  0  0  0  0  0
   -7.9300   23.9890  -30.4690 H   0  0  0  0  0  0  0  0  0  0  0  0
   -8.3703   23.6700  -32.6154 H   0  0  0  0  0  0  0  0  0  0  0  0
   -6.6163   23.3803  -32.9916 H   0  0  0  0  0  0  0  0  0  0  0  0
   -5.7058   21.2089  -33.0944 H   0  0  0  0  0  0  0  0  0  0  0  0
   -6.0891   18.7430  -33.1164 H   0  0  0  0  0  0  0  0  0  0  0  0
   -8.2729   17.8090  -32.3451 H   0  0  0  0  0  0  0  0  0  0  0  0
  -10.0733   19.3398  -31.5427 H   0  0  0  0  0  0  0  0  0  0  0  0
   -9.6987   21.8074  -31.5159 H   0  0  0  0  0  0  0  0  0  0  0  0
   -5.5138   24.7109  -31.9570 H   0  0  0  0  0  0  0  0  0  0  0  0
   -6.8256   25.7407  -31.2521 H   0  0  0  0  0  0  0  0  0  0  0  0
   -4.7651   26.0154  -29.9568 H   0  0  0  0  0  0  0  0  0  0  0  0
   -6.0221   25.1577  -28.9756 H   0  0  0  0  0  0  0  0  0  0  0  0
   -1.8285   25.4707  -28.3707 H   0  0  0  0  0  0  0  0  0  0  0  0
    0.6986   20.2855  -27.4007 H   0  0  0  0  0  0  0  0  0  0  0  0
  1  2  1  0
  2  3  1  0
  3  4  2  0
  4  5  1  0
  5  6  2  0
  6  7  1  0
  7  8  1  0
  8  9  1  0
  9 10  1  0
 10 11  1  0
 11 12  1  0
 12 13  1  0
 13 14  1  0
 14 15  2  0
 15 16  1  0
 16 17  2  0
 17 18  1  0
 18 19  2  0
 12 20  1  0
 20 21  1  0
  7 22  2  0
 22 23  1  0
 23 24  2  0
 23 25  1  0
 25 26  1  0
 26 27  2  0
 27  3  1  0
 26  6  1  0
 21  9  1  0
 19 14  1  0
  1 28  1  0
  1 29  1  0
  1 30  1  0
  4 31  1  0
  5 32  1  0
  8 33  1  0
  8 34  1  0
 10 35  1  0
 10 36  1  0
 11 37  1  0
 11 38  1  0
 12 39  1  0
 13 40  1  0
 13 41  1  0
 15 42  1  0
 16 43  1  0
 17 44  1  0
 18 45  1  0
 19 46  1  0
 20 47  1  0
 20 48  1  0
 21 49  1  0
 21 50  1  0
 22 51  1  0
 27 52  1  0
M  CHG  1  12   1
M  END
>  <UniqueID>  (12) 
12

>  <SMILES>  (12) 
COc1ccc2c(CN3CC[NH+](Cc4ccccc4)CC3)cc(=O)oc2c1

>  <Energy>  (12) 
74.69040737315783

>  <Genealogy>  (12) 
COc1ccc2c(CN3CC[NH+](Cc4ccccc4)CC3)cc(=O)oc2c1 (protonated)
COc1ccc2c(CN3CC[NH+](Cc4ccccc4)CC3)cc(=O)oc2c1 (3D coordinates assigned)
COc1ccc2c(CN3CC[NH+](Cc4ccccc4)CC3)cc(=O)oc2c1 (nonaromatic ring conformer: 74.69040737315783 kcal/mol)

>  <smiles>  (12) 
COc1ccc2c(CN3CCN(Cc4ccccc4)CC3)cc(=O)oc2c1

>  <score_type>  (12) 
oracle

>  <origin>  (12) 
adg

>  <m_score__min__energy>  (12) 
-7.8499999999999996

>  <m_primary>  (12) 
energy

$$$$
12:0
     RDKit          3D

 36 36  0  0  0  0  0  0  0  0999 V2000
   -3.6490   21.7160  -32.7060 C   0  0  0  0  0  0  0  0  0  0  0  0
   -3.4020   22.6510  -31.5280 C   0  0  0  0  0  0  0  0  0  0  0  0
   -4.6660   23.1780  -31.0160 N   0  0  0  0  0  0  0  0  0  0  0  0
   -4.7930   24.5080  -30.4920 C   0  0  0  0  0  0  0  0  0  0  0  0
   -3.7980   25.2840  -30.4770 O   0  0  0  0  0  0  0  0  0  0  0  0
   -6.0960   24.9710  -29.9140 C   0  0  0  0  0  0  0  0  0  0  0  0
   -7.2350   23.9750  -30.1930 C   0  0  0  0  0  0  0  0  0  0  0  0
   -7.3090   23.5630  -31.6090 N   0  0  0  0  0  0  0  0  0  0  0  0
   -8.6400   23.0550  -31.9690 C   0  0  0  0  0  0  0  0  0  0  0  0
   -8.9540   21.7640  -31.2050 C   0  0  0  0  0  0  0  0  0  0  0  0
   -8.2540   20.5780  -31.8180 C   0  0  0  0  0  0  0  0  0  0  0  0
   -8.6930   19.2740  -31.5340 C   0  0  0  0  0  0  0  0  0  0  0  0
   -8.0630   18.1740  -32.1280 C   0  0  0  0  0  0  0  0  0  0  0  0
   -7.0000   18.3690  -33.0140 C   0  0  0  0  0  0  0  0  0  0  0  0
   -6.1450   16.8670  -33.8250 Br  0  0  0  0  0  0  0  0  0  0  0  0
   -6.5650   19.6650  -33.3090 C   0  0  0  0  0  0  0  0  0  0  0  0
   -7.1920   20.7670  -32.7180 C   0  0  0  0  0  0  0  0  0  0  0  0
   -3.9132   20.7161  -32.3313 H   0  0  0  0  0  0  0  0  0  0  0  0
   -4.4744   22.1079  -33.3184 H   0  0  0  0  0  0  0  0  0  0  0  0
   -2.7377   21.6492  -33.3184 H   0  0  0  0  0  0  0  0  0  0  0  0
   -2.8906   22.0966  -30.7273 H   0  0  0  0  0  0  0  0  0  0  0  0
   -2.7784   23.4915  -31.8668 H   0  0  0  0  0  0  0  0  0  0  0  0
   -5.4850   22.5300  -30.9610 H   0  0  0  0  0  0  0  0  0  0  0  0
   -5.9818   25.0845  -28.8259 H   0  0  0  0  0  0  0  0  0  0  0  0
   -6.3575   25.9286  -30.3880 H   0  0  0  0  0  0  0  0  0  0  0  0
   -7.0758   23.0788  -29.5753 H   0  0  0  0  0  0  0  0  0  0  0  0
   -8.1807   24.4806  -29.9482 H   0  0  0  0  0  0  0  0  0  0  0  0
   -6.5890   22.8330  -31.8200 H   0  0  0  0  0  0  0  0  0  0  0  0
   -9.3956   23.8146  -31.7197 H   0  0  0  0  0  0  0  0  0  0  0  0
   -8.6556   22.8394  -33.0476 H   0  0  0  0  0  0  0  0  0  0  0  0
   -8.6224   21.8756  -30.1621 H   0  0  0  0  0  0  0  0  0  0  0  0
  -10.0389   21.5885  -31.2530 H   0  0  0  0  0  0  0  0  0  0  0  0
   -9.5342   19.1169  -30.8429 H   0  0  0  0  0  0  0  0  0  0  0  0
   -8.4053   17.1544  -31.8970 H   0  0  0  0  0  0  0  0  0  0  0  0
   -5.7286   19.8180  -34.0068 H   0  0  0  0  0  0  0  0  0  0  0  0
   -6.8523   21.7851  -32.9588 H   0  0  0  0  0  0  0  0  0  0  0  0
  1  2  1  0
  2  3  1  0
  3  4  1  0
  4  5  2  0
  4  6  1  0
  6  7  1  0
  7  8  1  0
  8  9  1  0
  9 10  1  0
 10 11  1  0
 11 12  2  0
 12 13  1  0
 13 14  2  0
 14 15  1  0
 14 16  1  0
 16 17  2  0
 17 11  1  0
  1 18  1  0
  1 19  1  0
  1 20  1  0
  2 21  1  0
  2 22  1  0
  3 23  1  0
  6 24  1  0
  6 25  1  0
  7 26  1  0
  7 27  1  0
  8 28  1  0
  9 29  1  0
  9 30  1  0
 10 31  1  0
 10 32  1  0
 12 33  1  0
 13 34  1  0
 16 35  1  0
 17 36  1  0
M  END
>  <UniqueID>  (13) 
13

>  <SMILES>  (13) 
CCNC(=O)CCNCCc1ccc(Br)cc1

>  <Energy>  (13) 
23.980561654499354

>  <Genealogy>  (13) 
CCNC(=O)CCNCCc1ccc(Br)cc1 (3D coordinates assigned)
CCNC(=O)CCNCCc1ccc(Br)cc1 (optimized conformer: 23.980561654499354 kcal/mol)

>  <smiles>  (13) 
CCNC(=O)CCNCCc1ccc(Br)cc1

>  <score_type>  (13) 
oracle

>  <origin>  (13) 
adg

>  <m_score__min__energy>  (13) 
-8.1600000000000001

>  <m_primary>  (13) 
energy

$$$$
13:0
     RDKit          3D

 47 49  0  0  0  0  0  0  0  0999 V2000
   -4.3014   18.9219  -33.8138 H   0  0  0  0  0  0  0  0  0  0  0  0
   -3.9270   19.7250  -33.1620 C   0  0  0  0  0  0  0  0  0  0  0  0
   -2.2980   20.0670  -32.8800 S   0  0  0  0  0  0  0  0  0  0  0  0
   -2.6000   21.3840  -31.8970 C   0  0  0  0  0  0  0  0  0  0  0  0
   -1.6720   22.0850  -31.1870 N   0  0  0  0  0  0  0  0  0  0  0  0
   -2.0470   23.0970  -30.3480 C   0  0  0  0  0  0  0  0  0  0  0  0
   -1.1170   23.7230  -29.6800 N   0  0  0  0  0  0  0  0  0  0  0  0
   -1.2600   24.7220  -28.6610 C   0  0  0  0  0  0  0  0  0  0  0  0
   -1.2790   25.9470  -28.9570 O   0  0  0  0  0  0  0  0  0  0  0  0
   -1.5610   24.3000  -27.2570 C   0  0  0  0  0  0  0  0  0  0  0  0
   -1.6707   23.2060  -27.2244 H   0  0  0  0  0  0  0  0  0  0  0  0
   -0.7338   24.6200  -26.6064 H   0  0  0  0  0  0  0  0  0  0  0  0
   -2.8500   24.9470  -26.7650 C   0  0  0  0  0  0  0  0  0  0  0  0
   -2.8609   24.9525  -25.6651 H   0  0  0  0  0  0  0  0  0  0  0  0
   -2.9069   25.9805  -27.1374 H   0  0  0  0  0  0  0  0  0  0  0  0
   -3.7127   24.3751  -27.1374 H   0  0  0  0  0  0  0  0  0  0  0  0
   -3.4220   23.4450  -30.3130 C   0  0  0  0  0  0  0  0  0  0  0  0
   -3.9720   24.5580  -29.7960 N   0  0  0  0  0  0  0  0  0  0  0  0
   -5.2430   24.5360  -30.2610 C   0  0  0  0  0  0  0  0  0  0  0  0
   -6.1910   25.6690  -30.0210 C   0  0  0  0  0  0  0  0  0  0  0  0
   -6.3165   25.8190  -28.9385 H   0  0  0  0  0  0  0  0  0  0  0  0
   -5.7878   26.5867  -30.4740 H   0  0  0  0  0  0  0  0  0  0  0  0
   -7.1654   25.4340  -30.4740 H   0  0  0  0  0  0  0  0  0  0  0  0
   -5.4960   23.4900  -31.0930 N   0  0  0  0  0  0  0  0  0  0  0  0
   -6.5720   23.4690  -32.0890 C   0  0  0  0  0  0  0  0  0  0  0  0
   -7.5453   23.4500  -31.5769 H   0  0  0  0  0  0  0  0  0  0  0  0
   -6.5064   24.3686  -32.7186 H   0  0  0  0  0  0  0  0  0  0  0  0
   -6.4714   22.5726  -32.7186 H   0  0  0  0  0  0  0  0  0  0  0  0
   -4.3540   22.7630  -31.0660 C   0  0  0  0  0  0  0  0  0  0  0  0
   -3.9680   21.6300  -31.8080 C   0  0  0  0  0  0  0  0  0  0  0  0
   -4.7310   20.6190  -32.4400 C   0  0  0  0  0  0  0  0  0  0  0  0
   -6.1850   20.3150  -32.1530 C   0  0  0  0  0  0  0  0  0  0  0  0
   -6.7324   21.2659  -32.0752 H   0  0  0  0  0  0  0  0  0  0  0  0
   -6.2204   19.7405  -31.2156 H   0  0  0  0  0  0  0  0  0  0  0  0
   -6.8510   19.4540  -33.2440 C   0  0  0  0  0  0  0  0  0  0  0  0
   -6.4734   18.4238  -33.1658 H   0  0  0  0  0  0  0  0  0  0  0  0
   -6.6049   19.8891  -34.2239 H   0  0  0  0  0  0  0  0  0  0  0  0
   -8.3160   19.4380  -33.1020 N   0  0  0  0  0  0  0  0  0  0  0  0
   -8.7470   20.0530  -33.8320 H   0  0  0  0  0  0  0  0  0  0  0  0
   -8.6660   18.4590  -33.2250 H   0  0  0  0  0  0  0  0  0  0  0  0
   -8.7130   19.9270  -31.7730 C   0  0  0  0  0  0  0  0  0  0  0  0
   -7.8119   20.0771  -31.1602 H   0  0  0  0  0  0  0  0  0  0  0  0
   -9.3741   19.1817  -31.3066 H   0  0  0  0  0  0  0  0  0  0  0  0
   -9.4690   21.2500  -31.8840 C   0  0  0  0  0  0  0  0  0  0  0  0
   -9.6878   21.6329  -30.8763 H   0  0  0  0  0  0  0  0  0  0  0  0
   -8.8519   21.9804  -32.4278 H   0  0  0  0  0  0  0  0  0  0  0  0
  -10.4116   21.0892  -32.4278 H   0  0  0  0  0  0  0  0  0  0  0  0
  1  2  1  0
  2  3  1  0
  3  4  1  0
  4  5  1  0
  5  6  1  0
  6  7  2  0
  7  8  1  0
  8  9  2  0
  8 10  1  0
 10 11  1  0
 10 12  1  0
 10 13  1  0
 13 14  1  0
 13 15  1  0
 13 16  1  0
  6 17  1  0
 17 18  1  0
 18 19  2  0
 19 20  1  0
 20 21  1  0
 20 22  1  0
 20 23  1  0
 19 24  1  0
 24 25  1  0
 25 26  1  0
 25 27  1  0
 25 28  1  0
 24 29  1  0
 29 30  1  0
 30 31  1  0
 31 32  1  0
 32 33  1  0
 32 34  1  0
 32 35  1  0
 35 36  1  0
 35 37  1  0
 35 38  1  0
 38 39  1  0
 38 40  1  0
 38 41  1  0
 41 42  1  0
 41 43  1  0
 41 44  1  0
 44 45  1  0
 44 46  1  0
 44 47  1  0
 31  2  2  0
 30  4  2  0
 29 17  2  0
M  CHG  2   5  -1  38   1
M  END
>  <UniqueID>  (14) 
14

>  <SMILES>  (14) 
CC[NH2+]CCc1csc2[n-]/c(=N/C(=O)CC)c3nc(C)n(C)c3c12

>  <Energy>  (14) 
131.88066079774438

>  <Genealogy>  (14) 
CC[NH2+]CCc1csc2[n-]c(=NC(=O)CC)c3nc(C)n(C)c3c12 (protonated)
CC[NH2+]CCc1csc2[n-]/c(=N/C(=O)CC)c3nc(C)n(C)c3c12 (cis-trans isomerization)
CC[NH2+]CCc1csc2[n-]/c(=N/C(=O)CC)c3nc(C)n(C)c3c12 (3D coordinates assigned)
CC[NH2+]CCc1csc2[n-]/c(=N/C(=O)CC)c3nc(C)n(C)c3c12 (optimized conformer: 131.88066079774438 kcal/mol)

>  <smiles>  (14) 
CCNCCc1csc2[nH]c(=NC(=O)CC)c3nc(C)n(C)c3c12

>  <score_type>  (14) 
oracle

>  <origin>  (14) 
adg

>  <m_score__min__energy>  (14) 
-9.3699999999999992

>  <m_primary>  (14) 
energy

$$$$
14:0
     RDKit          3D

 31 32  0  0  0  0  0  0  0  0999 V2000
   -0.4350   22.8120  -23.8990 C   0  0  0  0  0  0  0  0  0  0  0  0
   -0.4020   22.4850  -25.2840 O   0  0  0  0  0  0  0  0  0  0  0  0
   -0.6230   23.4030  -26.3220 C   0  0  0  0  0  0  0  0  0  0  0  0
   -0.1370   24.7060  -26.1700 C   0  0  0  0  0  0  0  0  0  0  0  0
   -0.3390   25.6590  -27.1690 C   0  0  0  0  0  0  0  0  0  0  0  0
   -1.0260   25.3190  -28.3390 C   0  0  0  0  0  0  0  0  0  0  0  0
   -1.2310   26.2900  -29.3140 O   0  0  0  0  0  0  0  0  0  0  0  0
   -1.5050   24.0090  -28.5180 C   0  0  0  0  0  0  0  0  0  0  0  0
   -2.2790   23.6350  -29.7580 C   0  0  0  0  0  0  0  0  0  0  0  0
   -3.2480   24.6780  -30.0960 N   0  0  0  0  0  0  0  0  0  0  0  0
   -4.6340   24.4090  -30.3790 C   0  0  0  0  0  0  0  0  0  0  0  0
   -5.6720   25.1570  -29.7860 C   0  0  0  0  0  0  0  0  0  0  0  0
   -7.0080   24.8690  -30.0830 C   0  0  0  0  0  0  0  0  0  0  0  0
   -7.3240   23.8380  -30.9690 C   0  0  0  0  0  0  0  0  0  0  0  0
   -6.3040   23.0900  -31.5620 C   0  0  0  0  0  0  0  0  0  0  0  0
   -4.9660   23.3740  -31.2700 C   0  0  0  0  0  0  0  0  0  0  0  0
   -1.3140   23.0580  -27.5000 C   0  0  0  0  0  0  0  0  0  0  0  0
   -0.3422   21.8923  -23.3028 H   0  0  0  0  0  0  0  0  0  0  0  0
    0.3994   23.4884  -23.6620 H   0  0  0  0  0  0  0  0  0  0  0  0
   -1.3878   23.3080  -23.6620 H   0  0  0  0  0  0  0  0  0  0  0  0
    0.4088   24.9815  -25.2556 H   0  0  0  0  0  0  0  0  0  0  0  0
    0.0435   26.6817  -27.0359 H   0  0  0  0  0  0  0  0  0  0  0  0
   -1.5784   23.5074  -30.5964 H   0  0  0  0  0  0  0  0  0  0  0  0
   -2.8207   22.6967  -29.5677 H   0  0  0  0  0  0  0  0  0  0  0  0
   -2.9230   25.6730  -30.1350 H   0  0  0  0  0  0  0  0  0  0  0  0
   -5.4298   25.9707  -29.0866 H   0  0  0  0  0  0  0  0  0  0  0  0
   -7.8123   25.4570  -29.6168 H   0  0  0  0  0  0  0  0  0  0  0  0
   -8.3759   23.6144  -31.2003 H   0  0  0  0  0  0  0  0  0  0  0  0
   -6.5534   22.2767  -32.2594 H   0  0  0  0  0  0  0  0  0  0  0  0
   -4.1672   22.7826  -31.7414 H   0  0  0  0  0  0  0  0  0  0  0  0
   -1.7067   22.0380  -27.6243 H   0  0  0  0  0  0  0  0  0  0  0  0
  1  2  1  0
  2  3  1  0
  3  4  2  0
  4  5  1  0
  5  6  2  0
  6  7  1  0
  6  8  1  0
  8  9  1  0
  9 10  1  0
 10 11  1  0
 11 12  2  0
 12 13  1  0
 13 14  2  0
 14 15  1  0
 15 16  2  0
  8 17  2  0
 17  3  1  0
 16 11  1  0
  1 18  1  0
  1 19  1  0
  1 20  1  0
  4 21  1  0
  5 22  1  0
  9 23  1  0
  9 24  1  0
 10 25  1  0
 12 26  1  0
 13 27  1  0
 14 28  1  0
 15 29  1  0
 16 30  1  0
 17 31  1  0
M  CHG  1   7  -1
M  END
>  <UniqueID>  (15) 
15

>  <SMILES>  (15) 
COc1ccc([O-])c(CNc2ccccc2)c1

>  <Energy>  (15) 
30.983148306981953

>  <Genealogy>  (15) 
COc1ccc([O-])c(CNc2ccccc2)c1 (protonated)
COc1ccc([O-])c(CNc2ccccc2)c1 (3D coordinates assigned)
COc1ccc([O-])c(CNc2ccccc2)c1 (optimized conformer: 30.983148306981953 kcal/mol)

>  <smiles>  (15) 
COc1ccc(O)c(CNc2ccccc2)c1

>  <score_type>  (15) 
oracle

>  <origin>  (15) 
adg

>  <m_score__min__energy>  (15) 
-9.2200000000000006

>  <m_primary>  (15) 
energy

$$$$
15:0
     RDKit          3D

 60 64  0  0  0  0  0  0  0  0999 V2000
   -1.5283   24.6542  -29.0184 H   0  0  0  0  0  0  0  0  0  0  0  0
   -1.5730   23.7660  -28.3710 C   0  0  0  0  0  0  0  0  0  0  0  0
   -0.9170   23.7690  -27.1370 C   0  0  0  0  0  0  0  0  0  0  0  0
   -0.3583   24.6612  -26.8178 H   0  0  0  0  0  0  0  0  0  0  0  0
   -0.9660   22.6390  -26.3000 C   0  0  0  0  0  0  0  0  0  0  0  0
   -0.2880   22.6450  -25.0290 N   0  0  0  0  0  0  0  0  0  0  0  0
   -0.7520   22.0120  -24.0570 O   0  0  0  0  0  0  0  0  0  0  0  0
    0.8830   23.3490  -24.8650 O   0  0  0  0  0  0  0  0  0  0  0  0
   -1.6860   21.5070  -26.7250 C   0  0  0  0  0  0  0  0  0  0  0  0
   -1.7334   20.6165  -26.0809 H   0  0  0  0  0  0  0  0  0  0  0  0
   -2.3410   21.5060  -27.9590 C   0  0  0  0  0  0  0  0  0  0  0  0
   -2.9006   20.6159  -28.2824 H   0  0  0  0  0  0  0  0  0  0  0  0
   -2.2870   22.6350  -28.7850 C   0  0  0  0  0  0  0  0  0  0  0  0
   -2.9560   22.6300  -30.0630 N   0  0  0  0  0  0  0  0  0  0  0  0
   -2.4250   21.9120  -31.1110 C   0  0  0  0  0  0  0  0  0  0  0  0
   -1.2390   21.1620  -31.0050 C   0  0  0  0  0  0  0  0  0  0  0  0
   -0.6997   21.1373  -30.0466 H   0  0  0  0  0  0  0  0  0  0  0  0
   -0.7280   20.4400  -32.1070 C   0  0  0  0  0  0  0  0  0  0  0  0
    0.3750   19.7450  -32.0100 N   0  0  0  0  0  0  0  0  0  0  0  0
    0.7060   18.7690  -30.9750 C   0  0  0  0  0  0  0  0  0  0  0  0
    0.5531   19.2199  -29.9834 H   0  0  0  0  0  0  0  0  0  0  0  0
    0.0565   17.8875  -31.0811 H   0  0  0  0  0  0  0  0  0  0  0  0
    1.7577   18.4645  -31.0811 H   0  0  0  0  0  0  0  0  0  0  0  0
   -1.4070   20.4590  -33.3470 C   0  0  0  0  0  0  0  0  0  0  0  0
   -0.9030   19.7790  -34.3450 N   0  0  0  0  0  0  0  0  0  0  0  0
    0.1080   20.2130  -35.3120 C   0  0  0  0  0  0  0  0  0  0  0  0
    0.4700   19.3385  -35.8726 H   0  0  0  0  0  0  0  0  0  0  0  0
   -0.3484   20.9436  -35.9960 H   0  0  0  0  0  0  0  0  0  0  0  0
    1.2920   20.8790  -34.5990 C   0  0  0  0  0  0  0  0  0  0  0  0
    1.1612   20.7783  -33.5115 H   0  0  0  0  0  0  0  0  0  0  0  0
    2.2207   20.3846  -34.9201 H   0  0  0  0  0  0  0  0  0  0  0  0
    1.3740   22.3150  -34.9470 N   0  0  0  0  0  0  0  0  0  0  0  0
    0.2140   22.7370  -35.7580 C   0  0  0  0  0  0  0  0  0  0  0  0
    0.1576   22.1170  -36.6649 H   0  0  0  0  0  0  0  0  0  0  0  0
   -0.7058   22.6145  -35.1673 H   0  0  0  0  0  0  0  0  0  0  0  0
    0.3670   24.2100  -36.1570 C   0  0  0  0  0  0  0  0  0  0  0  0
   -0.4924   24.5073  -36.7759 H   0  0  0  0  0  0  0  0  0  0  0  0
    0.4096   24.8207  -35.2431 H   0  0  0  0  0  0  0  0  0  0  0  0
    1.5590   24.4090  -36.8920 O   0  0  0  0  0  0  0  0  0  0  0  0
    2.6730   24.0680  -36.0910 C   0  0  0  0  0  0  0  0  0  0  0  0
    3.5964   24.2543  -36.6590 H   0  0  0  0  0  0  0  0  0  0  0  0
    2.6542   24.6835  -35.1795 H   0  0  0  0  0  0  0  0  0  0  0  0
    2.6200   22.5900  -35.6880 C   0  0  0  0  0  0  0  0  0  0  0  0
    2.6522   21.9642  -36.5921 H   0  0  0  0  0  0  0  0  0  0  0  0
    3.4819   22.3593  -35.0447 H   0  0  0  0  0  0  0  0  0  0  0  0
   -2.6020   21.1980  -33.4840 C   0  0  0  0  0  0  0  0  0  0  0  0
   -3.1280   21.2049  -34.4501 H   0  0  0  0  0  0  0  0  0  0  0  0
   -3.1250   21.9200  -32.4100 C   0  0  0  0  0  0  0  0  0  0  0  0
   -4.2710   22.6330  -32.5420 N   0  0  0  0  0  0  0  0  0  0  0  0
   -4.7690   22.6390  -33.4620 H   0  0  0  0  0  0  0  0  0  0  0  0
   -4.7840   23.3390  -31.4980 C   0  0  0  0  0  0  0  0  0  0  0  0
   -5.9740   24.0660  -31.6720 C   0  0  0  0  0  0  0  0  0  0  0  0
   -6.4800   24.0588  -32.6487 H   0  0  0  0  0  0  0  0  0  0  0  0
   -6.5180   24.7960  -30.6170 C   0  0  0  0  0  0  0  0  0  0  0  0
   -7.4501   25.3614  -30.7637 H   0  0  0  0  0  0  0  0  0  0  0  0
   -5.8840   24.8110  -29.3780 C   0  0  0  0  0  0  0  0  0  0  0  0
   -6.3172   25.3891  -28.5484 H   0  0  0  0  0  0  0  0  0  0  0  0
   -4.7010   24.0960  -29.1830 C   0  0  0  0  0  0  0  0  0  0  0  0
   -4.2096   24.1171  -28.1991 H   0  0  0  0  0  0  0  0  0  0  0  0
   -4.1250   23.3430  -30.2370 C   0  0  0  0  0  0  0  0  0  0  0  0
  1  2  1  0
  2  3  2  0
  3  4  1  0
  3  5  1  0
  5  6  1  0
  6  7  2  0
  6  8  1  0
  5  9  2  0
  9 10  1  0
  9 11  1  0
 11 12  1  0
 11 13  2  0
 13 14  1  0
 14 15  1  0
 15 16  2  0
 16 17  1  0
 16 18  1  0
 18 19  2  0
 19 20  1  0
 20 21  1  0
 20 22  1  0
 20 23  1  0
 18 24  1  0
 24 25  2  0
 25 26  1  0
 26 27  1  0
 26 28  1  0
 26 29  1  0
 29 30  1  0
 29 31  1  0
 29 32  1  0
 32 33  1  0
 33 34  1  0
 33 35  1  0
 33 36  1  0
 36 37  1  0
 36 38  1  0
 36 39  1  0
 39 40  1  0
 40 41  1  0
 40 42  1  0
 40 43  1  0
 43 44  1  0
 43 45  1  0
 24 46  1  0
 46 47  1  0
 46 48  2  0
 48 49  1  0
 49 50  1  0
 49 51  1  0
 51 52  2  0
 52 53  1  0
 52 54  1  0
 54 55  1  0
 54 56  2  0
 56 57  1  0
 56 58  1  0
 58 59  1  0
 58 60  2  0
 13  2  1  0
 60 14  1  0
 48 15  1  0
 60 51  1  0
 43 32  1  0
M  CHG  2   6   1   8  -1
M  END
>  <UniqueID>  (16) 
16

>  <SMILES>  (16) 
CN=c1cc2n(-c3ccc([N+](=O)[O-])cc3)c3ccccc3[nH]c-2c/c1=N\CCN1CCOCC1

>  <Energy>  (16) 
90.94677262266772

>  <Genealogy>  (16) 
CN=c1cc2n(-c3ccc([N+](=O)[O-])cc3)c3ccccc3[nH]c-2c/c1=N\CCN1CCOCC1 (cis-trans isomerization)
CN=c1cc2n(-c3ccc([N+](=O)[O-])cc3)c3ccccc3[nH]c-2c/c1=N\CCN1CCOCC1 (3D coordinates assigned)
CN=c1cc2n(-c3ccc([N+](=O)[O-])cc3)c3ccccc3[nH]c-2c/c1=N\CCN1CCOCC1 (nonaromatic ring conformer: 90.94677262266772 kcal/mol)

>  <smiles>  (16) 
CN=c1cc2n(-c3ccc([N+](=O)[O-])cc3)c3ccccc3[nH]c-2cc1=NCCN1CCOCC1

>  <score_type>  (16) 
oracle

>  <origin>  (16) 
adg

>  <m_score__min__energy>  (16) 
-9.2400000000000002

>  <m_primary>  (16) 
energy

$$$$
16:0
     RDKit          3D

 50 51  0  0  0  0  0  0  0  0999 V2000
   -4.4395   21.0096  -30.1995 H   0  0  0  0  0  0  0  0  0  0  0  0
   -4.9550   21.5830  -30.9840 C   0  0  0  0  0  0  0  0  0  0  0  0
   -5.2560   20.9370  -32.1320 C   0  0  0  0  0  0  0  0  0  0  0  0
   -4.3590   20.9630  -33.3110 C   0  0  0  0  0  0  0  0  0  0  0  0
   -3.8580   22.0520  -33.7090 O   0  0  0  0  0  0  0  0  0  0  0  0
   -4.0430   19.7630  -33.9560 O   0  0  0  0  0  0  0  0  0  0  0  0
   -3.1810   18.7760  -33.3910 C   0  0  0  0  0  0  0  0  0  0  0  0
   -3.5111   17.7775  -33.7136 H   0  0  0  0  0  0  0  0  0  0  0  0
   -3.2221   18.8486  -32.2942 H   0  0  0  0  0  0  0  0  0  0  0  0
   -1.7290   19.0080  -33.8570 C   0  0  0  0  0  0  0  0  0  0  0  0
   -1.5444   18.3729  -34.7360 H   0  0  0  0  0  0  0  0  0  0  0  0
   -1.0821   18.7581  -33.0032 H   0  0  0  0  0  0  0  0  0  0  0  0
   -1.4180   20.4170  -34.2270 N   0  0  0  0  0  0  0  0  0  0  0  0
   -2.3070   20.8130  -34.6150 H   0  0  0  0  0  0  0  0  0  0  0  0
   -1.0500   21.2120  -33.0240 C   0  0  0  0  0  0  0  0  0  0  0  0
   -1.9485   21.7272  -32.6535 H   0  0  0  0  0  0  0  0  0  0  0  0
   -0.2679   21.9258  -33.3220 H   0  0  0  0  0  0  0  0  0  0  0  0
   -0.4810   20.3420  -31.8950 C   0  0  0  0  0  0  0  0  0  0  0  0
   -0.7627   20.7726  -30.9228 H   0  0  0  0  0  0  0  0  0  0  0  0
   -0.8879   19.3233  -31.9765 H   0  0  0  0  0  0  0  0  0  0  0  0
    0.6154   20.3065  -31.9765 H   0  0  0  0  0  0  0  0  0  0  0  0
   -0.3770   20.5340  -35.2820 C   0  0  0  0  0  0  0  0  0  0  0  0
    0.4117   19.7945  -35.0792 H   0  0  0  0  0  0  0  0  0  0  0  0
   -0.8689   20.3562  -36.2497 H   0  0  0  0  0  0  0  0  0  0  0  0
    0.2630   21.9260  -35.3430 C   0  0  0  0  0  0  0  0  0  0  0  0
    0.4333   22.2964  -34.3213 H   0  0  0  0  0  0  0  0  0  0  0  0
    1.2235   21.8650  -35.8757 H   0  0  0  0  0  0  0  0  0  0  0  0
   -0.4086   22.6153  -35.8757 H   0  0  0  0  0  0  0  0  0  0  0  0
   -6.5000   20.1250  -32.2090 C   0  0  0  0  0  0  0  0  0  0  0  0
   -7.7540   20.7550  -32.3170 C   0  0  0  0  0  0  0  0  0  0  0  0
   -7.8129   21.8530  -32.3473 H   0  0  0  0  0  0  0  0  0  0  0  0
   -8.9250   19.9950  -32.3860 C   0  0  0  0  0  0  0  0  0  0  0  0
   -9.9004   20.4961  -32.4728 H   0  0  0  0  0  0  0  0  0  0  0  0
   -8.8590   18.6010  -32.3450 C   0  0  0  0  0  0  0  0  0  0  0  0
   -9.7819   18.0049  -32.4001 H   0  0  0  0  0  0  0  0  0  0  0  0
   -7.6210   17.9630  -32.2340 C   0  0  0  0  0  0  0  0  0  0  0  0
   -7.5700   16.8647  -32.2001 H   0  0  0  0  0  0  0  0  0  0  0  0
   -6.4470   18.7190  -32.1660 C   0  0  0  0  0  0  0  0  0  0  0  0
   -5.4750   18.2116  -32.0783 H   0  0  0  0  0  0  0  0  0  0  0  0
   -5.2650   23.0020  -30.7000 C   0  0  0  0  0  0  0  0  0  0  0  0
   -6.5590   23.4090  -30.3280 C   0  0  0  0  0  0  0  0  0  0  0  0
   -7.3704   22.6687  -30.2688 H   0  0  0  0  0  0  0  0  0  0  0  0
   -6.8180   24.7520  -30.0330 C   0  0  0  0  0  0  0  0  0  0  0  0
   -7.8354   25.0680  -29.7590 H   0  0  0  0  0  0  0  0  0  0  0  0
   -5.7860   25.6920  -30.0860 C   0  0  0  0  0  0  0  0  0  0  0  0
   -5.9921   26.7488  -29.8610 H   0  0  0  0  0  0  0  0  0  0  0  0
   -4.4920   25.2890  -30.4250 C   0  0  0  0  0  0  0  0  0  0  0  0
   -3.6785   26.0287  -30.4590 H   0  0  0  0  0  0  0  0  0  0  0  0
   -4.2280   23.9490  -30.7210 C   0  0  0  0  0  0  0  0  0  0  0  0
   -3.2040   23.6347  -30.9714 H   0  0  0  0  0  0  0  0  0  0  0  0
  1  2  1  0
  2  3  2  0
  3  4  1  0
  4  5  2  0
  4  6  1  0
  6  7  1  0
  7  8  1  0
  7  9  1  0
  7 10  1  0
 10 11  1  0
 10 12  1  0
 10 13  1  0
 13 14  1  0
 13 15  1  0
 15 16  1  0
 15 17  1  0
 15 18  1  0
 18 19  1  0
 18 20  1  0
 18 21  1  0
 13 22  1  0
 22 23  1  0
 22 24  1  0
 22 25  1  0
 25 26  1  0
 25 27  1  0
 25 28  1  0
  3 29  1  0
 29 30  2  0
 30 31  1  0
 30 32  1  0
 32 33  1  0
 32 34  2  0
 34 35  1  0
 34 36  1  0
 36 37  1  0
 36 38  2  0
 38 39  1  0
  2 40  1  0
 40 41  2  0
 41 42  1  0
 41 43  1  0
 43 44  1  0
 43 45  2  0
 45 46  1  0
 45 47  1  0
 47 48  1  0
 47 49  2  0
 49 50  1  0
 38 29  1  0
 49 40  1  0
M  CHG  1  13   1
M  END
>  <UniqueID>  (17) 
17

>  <SMILES>  (17) 
CC[NH+](CC)CCOC(=O)/C(=C\c1ccccc1)c1ccccc1

>  <Energy>  (17) 
63.223381460087104

>  <Genealogy>  (17) 
CC[NH+](CC)CCOC(=O)C(=Cc1ccccc1)c1ccccc1 (protonated)
CC[NH+](CC)CCOC(=O)/C(=C\c1ccccc1)c1ccccc1 (cis-trans isomerization)
CC[NH+](CC)CCOC(=O)/C(=C\c1ccccc1)c1ccccc1 (3D coordinates assigned)
CC[NH+](CC)CCOC(=O)/C(=C\c1ccccc1)c1ccccc1 (optimized conformer: 63.223381460087104 kcal/mol)

>  <smiles>  (17) 
CCN(CC)CCOC(=O)C(=Cc1ccccc1)c1ccccc1

>  <score_type>  (17) 
oracle

>  <origin>  (17) 
adg

>  <m_score__min__energy>  (17) 
-6.6500000000000004

>  <m_primary>  (17) 
energy

$$$$
17:0
     RDKit          3D

 45 47  0  0  0  0  0  0  0  0999 V2000
   -2.0280   21.6990  -31.8890 C   0  0  0  0  0  0  0  0  0  0  0  0
   -3.3680   21.9830  -32.2750 O   0  0  0  0  0  0  0  0  0  0  0  0
   -4.2530   21.0150  -32.7640 C   0  0  0  0  0  0  0  0  0  0  0  0
   -3.8560   19.8430  -33.4140 C   0  0  0  0  0  0  0  0  0  0  0  0
   -5.2470   18.9840  -33.8140 S   0  0  0  0  0  0  0  0  0  0  0  0
   -6.2880   20.1310  -33.1590 C   0  0  0  0  0  0  0  0  0  0  0  0
   -7.7800   20.0040  -33.1130 C   0  0  0  0  0  0  0  0  0  0  0  0
   -8.2210   19.6550  -31.7470 N   0  0  0  0  0  0  0  0  0  0  0  0
   -9.0340   18.4210  -31.7600 C   0  0  0  0  0  0  0  0  0  0  0  0
   -8.8590   20.8090  -31.0490 C   0  0  2  0  0  0  0  0  0  0  0  0
   -9.6620   21.6730  -32.0230 C   0  0  0  0  0  0  0  0  0  0  0  0
   -8.9760   23.0350  -32.0260 C   0  0  0  0  0  0  0  0  0  0  0  0
   -7.6800   22.8740  -31.3570 N   0  0  0  0  0  0  0  0  0  0  0  0
   -7.2360   24.1240  -30.7120 C   0  0  0  0  0  0  0  0  0  0  0  0
   -5.7800   24.0290  -30.3410 C   0  0  0  0  0  0  0  0  0  0  0  0
   -5.3360   23.0270  -29.4660 C   0  0  0  0  0  0  0  0  0  0  0  0
   -3.9900   22.9680  -29.0990 C   0  0  0  0  0  0  0  0  0  0  0  0
   -3.1010   23.9160  -29.6060 C   0  0  0  0  0  0  0  0  0  0  0  0
   -3.5480   24.8900  -30.4440 N   0  0  0  0  0  0  0  0  0  0  0  0
   -4.8530   24.9690  -30.8170 C   0  0  0  0  0  0  0  0  0  0  0  0
   -7.8720   21.7820  -30.3970 C   0  0  0  0  0  0  0  0  0  0  0  0
   -5.5960   21.1620  -32.6270 N   0  0  0  0  0  0  0  0  0  0  0  0
   -1.9579   21.6842  -30.7913 H   0  0  0  0  0  0  0  0  0  0  0  0
   -1.7314   20.7180  -32.2887 H   0  0  0  0  0  0  0  0  0  0  0  0
   -1.3589   22.4753  -32.2887 H   0  0  0  0  0  0  0  0  0  0  0  0
   -2.8209   19.5371  -33.6260 H   0  0  0  0  0  0  0  0  0  0  0  0
   -8.2353   20.9608  -33.4083 H   0  0  0  0  0  0  0  0  0  0  0  0
   -8.0938   19.2089  -33.8053 H   0  0  0  0  0  0  0  0  0  0  0  0
   -9.2407   18.1072  -30.7262 H   0  0  0  0  0  0  0  0  0  0  0  0
   -9.9832   18.6128  -32.2818 H   0  0  0  0  0  0  0  0  0  0  0  0
   -8.4832   17.6245  -32.2818 H   0  0  0  0  0  0  0  0  0  0  0  0
   -9.4790   20.3256  -30.2796 H   0  0  0  0  0  0  0  0  0  0  0  0
   -9.6448   21.2324  -33.0308 H   0  0  0  0  0  0  0  0  0  0  0  0
  -10.7175   21.7500  -31.7231 H   0  0  0  0  0  0  0  0  0  0  0  0
   -8.8254   23.3780  -33.0602 H   0  0  0  0  0  0  0  0  0  0  0  0
   -9.5925   23.7820  -31.5046 H   0  0  0  0  0  0  0  0  0  0  0  0
   -7.3794   24.9631  -31.4086 H   0  0  0  0  0  0  0  0  0  0  0  0
   -7.8288   24.2875  -29.8000 H   0  0  0  0  0  0  0  0  0  0  0  0
   -6.0476   22.2880  -29.0690 H   0  0  0  0  0  0  0  0  0  0  0  0
   -3.6342   22.1818  -28.4169 H   0  0  0  0  0  0  0  0  0  0  0  0
   -2.0375   23.8759  -29.3279 H   0  0  0  0  0  0  0  0  0  0  0  0
   -5.1829   25.7714  -31.4933 H   0  0  0  0  0  0  0  0  0  0  0  0
   -6.9152   21.2776  -30.1967 H   0  0  0  0  0  0  0  0  0  0  0  0
   -8.2535   22.1559  -29.4354 H   0  0  0  0  0  0  0  0  0  0  0  0
   -6.0430   21.9790  -32.1540 H   0  0  0  0  0  0  0  0  0  0  0  0
  1  2  1  0
  2  3  1  0
  3  4  2  0
  4  5  1  0
  5  6  1  0
  6  7  1  0
  7  8  1  0
  8  9  1  0
  8 10  1  0
 10 11  1  0
 11 12  1  0
 12 13  1  0
 13 14  1  0
 14 15  1  0
 15 16  2  0
 16 17  1  0
 17 18  2  0
 18 19  1  0
 19 20  2  0
 13 21  1  0
  6 22  2  0
 22  3  1  0
 21 10  1  0
 20 15  1  0
  1 23  1  0
  1 24  1  0
  1 25  1  0
  4 26  1  0
  7 27  1  0
  7 28  1  0
  9 29  1  0
  9 30  1  0
  9 31  1  0
 10 32  1  1
 11 33  1  0
 11 34  1  0
 12 35  1  0
 12 36  1  0
 14 37  1  0
 14 38  1  0
 16 39  1  0
 17 40  1  0
 18 41  1  0
 20 42  1  0
 21 43  1  0
 21 44  1  0
 22 45  1  0
M  CHG  1  22   1
M  END
>  <UniqueID>  (18) 
18

>  <SMILES>  (18) 
COc1csc(CN(C)[C@@H]2CCN(Cc3cccnc3)C2)[nH+]1

>  <Energy>  (18) 
81.77493688641844

>  <Genealogy>  (18) 
COc1csc(CN(C)C2CCN(Cc3cccnc3)C2)[nH+]1 (protonated)
COc1csc(CN(C)[C@@H]2CCN(Cc3cccnc3)C2)[nH+]1 (chirality)
COc1csc(CN(C)[C@@H]2CCN(Cc3cccnc3)C2)[nH+]1 (3D coordinates assigned)
COc1csc(CN(C)[C@@H]2CCN(Cc3cccnc3)C2)[nH+]1 (nonaromatic ring conformer: 81.77493688641844 kcal/mol)

>  <smiles>  (18) 
COc1csc(CN(C)C2CCN(Cc3cccnc3)C2)n1

>  <score_type>  (18) 
oracle

>  <origin>  (18) 
adg

>  <m_score__min__energy>  (18) 
-6.8300000000000001

>  <m_primary>  (18) 
energy

$$$$
18:0
     RDKit          3D

 35 37  0  0  0  0  0  0  0  0999 V2000
   -8.3590   22.1580  -31.8770 C   0  0  0  0  0  0  0  0  0  0  0  0
   -7.0870   22.8500  -31.4850 C   0  0  0  0  0  0  0  0  0  0  0  0
   -5.8490   22.3490  -31.9130 C   0  0  0  0  0  0  0  0  0  0  0  0
   -4.6650   23.0130  -31.5790 C   0  0  0  0  0  0  0  0  0  0  0  0
   -4.7060   24.2000  -30.8240 C   0  0  0  0  0  0  0  0  0  0  0  0
   -3.5190   24.9190  -30.4660 N   0  0  0  0  0  0  0  0  0  0  0  0
   -2.6140   24.6910  -29.0040 S   0  0  0  0  0  0  0  0  0  0  0  0
   -3.5190   24.9230  -27.8270 O   0  0  0  0  0  0  0  0  0  0  0  0
   -1.4880   25.6850  -28.9610 O   0  0  0  0  0  0  0  0  0  0  0  0
   -1.9390   23.0640  -28.9600 C   0  0  0  0  0  0  0  0  0  0  0  0
   -1.0860   22.6340  -29.9840 C   0  0  0  0  0  0  0  0  0  0  0  0
   -0.5550   21.3430  -29.9680 C   0  0  0  0  0  0  0  0  0  0  0  0
   -0.8700   20.4640  -28.9210 C   0  0  0  0  0  0  0  0  0  0  0  0
   -0.3430   19.1640  -28.8940 C   0  0  0  0  0  0  0  0  0  0  0  0
   -0.6640   18.2990  -27.8440 C   0  0  0  0  0  0  0  0  0  0  0  0
   -1.5100   18.7240  -26.8160 C   0  0  0  0  0  0  0  0  0  0  0  0
   -2.0410   20.0170  -26.8300 C   0  0  0  0  0  0  0  0  0  0  0  0
   -1.7270   20.8960  -27.8790 C   0  0  0  0  0  0  0  0  0  0  0  0
   -2.2550   22.1960  -27.9060 C   0  0  0  0  0  0  0  0  0  0  0  0
   -5.9450   24.7040  -30.4100 C   0  0  0  0  0  0  0  0  0  0  0  0
   -7.1290   24.0400  -30.7430 C   0  0  0  0  0  0  0  0  0  0  0  0
   -8.9079   21.8594  -30.9718 H   0  0  0  0  0  0  0  0  0  0  0  0
   -8.9801   22.8426  -32.4733 H   0  0  0  0  0  0  0  0  0  0  0  0
   -8.1217   21.2647  -32.4733 H   0  0  0  0  0  0  0  0  0  0  0  0
   -5.8094   21.4289  -32.5146 H   0  0  0  0  0  0  0  0  0  0  0  0
   -3.6973   22.6060  -31.9077 H   0  0  0  0  0  0  0  0  0  0  0  0
   -0.8325   23.3185  -30.8070 H   0  0  0  0  0  0  0  0  0  0  0  0
    0.1121   21.0141  -30.7784 H   0  0  0  0  0  0  0  0  0  0  0  0
    0.3239   18.8250  -29.7004 H   0  0  0  0  0  0  0  0  0  0  0  0
   -0.2493   17.2803  -27.8268 H   0  0  0  0  0  0  0  0  0  0  0  0
   -1.7590   18.0384  -25.9926 H   0  0  0  0  0  0  0  0  0  0  0  0
   -2.7059   20.3464  -26.0180 H   0  0  0  0  0  0  0  0  0  0  0  0
   -2.9191   22.5348  -27.0972 H   0  0  0  0  0  0  0  0  0  0  0  0
   -5.9869   25.6301  -29.8179 H   0  0  0  0  0  0  0  0  0  0  0  0
   -8.0972   24.4519  -30.4222 H   0  0  0  0  0  0  0  0  0  0  0  0
  1  2  1  0
  2  3  2  0
  3  4  1  0
  4  5  2  0
  5  6  1  0
  6  7  1  0
  7  8  2  0
  7  9  2  0
  7 10  1  0
 10 11  2  0
 11 12  1  0
 12 13  2  0
 13 14  1  0
 14 15  2  0
 15 16  1  0
 16 17  2  0
 17 18  1  0
 18 19  2  0
  5 20  1  0
 20 21  2  0
 21  2  1  0
 19 10  1  0
 18 13  1  0
  1 22  1  0
  1 23  1  0
  1 24  1  0
  3 25  1  0
  4 26  1  0
 11 27  1  0
 12 28  1  0
 14 29  1  0
 15 30  1  0
 16 31  1  0
 17 32  1  0
 19 33  1  0
 20 34  1  0
 21 35  1  0
M  CHG  1   6  -1
M  END
>  <UniqueID>  (19) 
19

>  <SMILES>  (19) 
Cc1ccc([N-]S(=O)(=O)c2ccc3ccccc3c2)cc1

>  <Energy>  (19) 
42.71298380272357

>  <Genealogy>  (19) 
Cc1ccc([N-]S(=O)(=O)c2ccc3ccccc3c2)cc1 (protonated)
Cc1ccc([N-]S(=O)(=O)c2ccc3ccccc3c2)cc1 (3D coordinates assigned)
Cc1ccc([N-]S(=O)(=O)c2ccc3ccccc3c2)cc1 (optimized conformer: 42.71298380272357 kcal/mol)

>  <smiles>  (19) 
Cc1ccc(NS(=O)(=O)c2ccc3ccccc3c2)cc1

>  <score_type>  (19) 
oracle

>  <origin>  (19) 
adg

>  <m_score__min__energy>  (19) 
-10.220000000000001

>  <m_primary>  (19) 
energy

$$$$
19:0
     RDKit          3D

 36 39  0  0  0  0  0  0  0  0999 V2000
   -7.0420   24.9770  -29.7260 C   0  0  0  0  0  0  0  0  0  0  0  0
   -5.6330   25.8060  -30.5240 S   0  0  0  0  0  0  0  0  0  0  0  0
   -4.7180   24.2830  -30.7490 C   0  0  0  0  0  0  0  0  0  0  0  0
   -5.2400   23.2630  -31.4930 N   0  0  0  0  0  0  0  0  0  0  0  0
   -4.5620   22.0850  -31.6810 C   0  0  0  0  0  0  0  0  0  0  0  0
   -5.1870   21.0230  -32.4950 C   0  0  0  0  0  0  0  0  0  0  0  0
   -6.5480   20.7740  -32.6620 C   0  0  0  0  0  0  0  0  0  0  0  0
   -6.8150   19.6860  -33.5030 C   0  0  0  0  0  0  0  0  0  0  0  0
   -5.6760   19.0730  -34.0050 C   0  0  0  0  0  0  0  0  0  0  0  0
   -4.3350   19.8850  -33.4000 S   0  0  0  0  0  0  0  0  0  0  0  0
   -3.3220   21.9130  -31.1120 N   0  0  0  0  0  0  0  0  0  0  0  0
   -2.8060   22.9280  -30.3770 C   0  0  0  0  0  0  0  0  0  0  0  0
   -1.6230   22.9430  -29.7490 N   0  0  0  0  0  0  0  0  0  0  0  0
   -1.6260   24.1790  -29.1790 C   0  0  0  0  0  0  0  0  0  0  0  0
   -0.5390   24.6640  -28.3820 N   0  0  0  0  0  0  0  0  0  0  0  0
   -0.5000   25.9960  -27.8080 C   0  0  0  0  0  0  0  0  0  0  0  0
    0.7380   26.0210  -26.9230 C   0  0  0  0  0  0  0  0  0  0  0  0
    1.5840   24.8200  -27.3450 C   0  0  0  0  0  0  0  0  0  0  0  0
    0.6350   23.8710  -28.0650 C   0  0  0  0  0  0  0  0  0  0  0  0
   -2.7420   24.9210  -29.4230 N   0  0  0  0  0  0  0  0  0  0  0  0
   -3.4660   24.0920  -30.1870 C   0  0  0  0  0  0  0  0  0  0  0  0
   -6.9339   25.0406  -28.6332 H   0  0  0  0  0  0  0  0  0  0  0  0
   -7.9775   25.4687  -30.0311 H   0  0  0  0  0  0  0  0  0  0  0  0
   -7.0666   23.9205  -30.0311 H   0  0  0  0  0  0  0  0  0  0  0  0
   -7.3352   21.3729  -32.1807 H   0  0  0  0  0  0  0  0  0  0  0  0
   -7.8340   19.3486  -33.7433 H   0  0  0  0  0  0  0  0  0  0  0  0
   -5.6546   18.2060  -34.6816 H   0  0  0  0  0  0  0  0  0  0  0  0
   -2.7740   21.0330  -31.2280 H   0  0  0  0  0  0  0  0  0  0  0  0
   -0.4211   26.7542  -28.6010 H   0  0  0  0  0  0  0  0  0  0  0  0
   -1.4135   26.2220  -27.2385 H   0  0  0  0  0  0  0  0  0  0  0  0
    1.2980   26.9553  -27.0760 H   0  0  0  0  0  0  0  0  0  0  0  0
    0.4714   25.9705  -25.8570 H   0  0  0  0  0  0  0  0  0  0  0  0
    2.3910   25.1394  -28.0209 H   0  0  0  0  0  0  0  0  0  0  0  0
    2.0575   24.3359  -26.4781 H   0  0  0  0  0  0  0  0  0  0  0  0
    1.0998   23.4872  -28.9852 H   0  0  0  0  0  0  0  0  0  0  0  0
    0.3828   22.9978  -27.4454 H   0  0  0  0  0  0  0  0  0  0  0  0
  1  2  1  0
  2  3  1  0
  3  4  2  0
  4  5  1  0
  5  6  1  0
  6  7  2  0
  7  8  1  0
  8  9  2  0
  9 10  1  0
  5 11  2  0
 11 12  1  0
 12 13  1  0
 13 14  2  0
 14 15  1  0
 15 16  1  0
 16 17  1  0
 17 18  1  0
 18 19  1  0
 14 20  1  0
 20 21  1  0
 21  3  1  0
 10  6  1  0
 21 12  2  0
 19 15  1  0
  1 22  1  0
  1 23  1  0
  1 24  1  0
  7 25  1  0
  8 26  1  0
  9 27  1  0
 11 28  1  0
 16 29  1  0
 16 30  1  0
 17 31  1  0
 17 32  1  0
 18 33  1  0
 18 34  1  0
 19 35  1  0
 19 36  1  0
M  CHG  2  11   1  20  -1
M  END
>  <UniqueID>  (20) 
20

>  <SMILES>  (20) 
CSc1nc(-c2cccs2)[nH+]c2nc(N3CCCC3)[n-]c12

>  <Energy>  (20) 
96.90950870483957

>  <Genealogy>  (20) 
CSc1nc(-c2cccs2)[nH+]c2nc(N3CCCC3)[n-]c12 (protonated)
CSc1nc(-c2cccs2)[nH+]c2nc(N3CCCC3)[n-]c12 (3D coordinates assigned)
CSc1nc(-c2cccs2)[nH+]c2nc(N3CCCC3)[n-]c12 (nonaromatic ring conformer: 96.90950870483957 kcal/mol)

>  <smiles>  (20) 
CSc1nc(-c2cccs2)nc2nc(N3CCCC3)[nH]c12

>  <score_type>  (20) 
oracle

>  <origin>  (20) 
adg

>  <m_score__min__energy>  (20) 
-7.25

>  <m_primary>  (20) 
energy

$$$$
20:0
     RDKit          3D

 41 42  0  0  0  0  0  0  0  0999 V2000
   -8.7520   19.0690  -31.5780 C   0  0  0  0  0  0  0  0  0  0  0  0
   -8.2060   20.2010  -32.4500 C   0  0  0  0  0  0  0  0  0  0  0  0
   -8.2640   21.4720  -31.7250 N   0  0  0  0  0  0  0  0  0  0  0  0
   -9.5110   22.2290  -31.6370 C   0  0  0  0  0  0  0  0  0  0  0  0
   -7.1410   21.8740  -30.9300 C   0  0  0  0  0  0  0  0  0  0  0  0
   -7.3280   22.3060  -29.7590 O   0  0  0  0  0  0  0  0  0  0  0  0
   -5.8040   21.7540  -31.4460 N   0  0  0  0  0  0  0  0  0  0  0  0
   -5.1150   20.4820  -31.5820 C   0  0  0  0  0  0  0  0  0  0  0  0
   -3.7470   20.8180  -32.1670 C   0  0  0  0  0  0  0  0  0  0  0  0
   -3.8730   22.2280  -32.7390 C   0  0  0  0  0  0  0  0  0  0  0  0
   -5.0650   22.8680  -32.0200 C   0  0  2  0  0  0  0  0  0  0  0  0
   -4.6160   23.7980  -30.9230 C   0  0  0  0  0  0  0  0  0  0  0  0
   -4.5350   25.0370  -31.1540 O   0  0  0  0  0  0  0  0  0  0  0  0
   -4.3050   23.2740  -29.6210 N   0  0  0  0  0  0  0  0  0  0  0  0
   -3.6080   24.0080  -28.5980 C   0  0  0  0  0  0  0  0  0  0  0  0
   -4.2480   24.2440  -27.3700 C   0  0  0  0  0  0  0  0  0  0  0  0
   -3.5880   24.9380  -26.3470 C   0  0  0  0  0  0  0  0  0  0  0  0
   -2.2740   25.3830  -26.5350 C   0  0  0  0  0  0  0  0  0  0  0  0
   -1.3740   26.3120  -25.1280 Br  0  0  0  0  0  0  0  0  0  0  0  0
   -1.6230   25.1360  -27.7470 C   0  0  0  0  0  0  0  0  0  0  0  0
   -2.2830   24.4460  -28.7750 C   0  0  0  0  0  0  0  0  0  0  0  0
   -8.6260   19.3302  -30.5169 H   0  0  0  0  0  0  0  0  0  0  0  0
   -9.8203   18.9216  -31.7950 H   0  0  0  0  0  0  0  0  0  0  0  0
   -8.2023   18.1412  -31.7950 H   0  0  0  0  0  0  0  0  0  0  0  0
   -7.1615   19.9824  -32.7168 H   0  0  0  0  0  0  0  0  0  0  0  0
   -8.8182   20.2794  -33.3606 H   0  0  0  0  0  0  0  0  0  0  0  0
   -9.7705   22.3865  -30.5797 H   0  0  0  0  0  0  0  0  0  0  0  0
   -9.3845   23.2029  -32.1325 H   0  0  0  0  0  0  0  0  0  0  0  0
  -10.3166   21.6674  -32.1325 H   0  0  0  0  0  0  0  0  0  0  0  0
   -5.0046   19.9980  -30.6004 H   0  0  0  0  0  0  0  0  0  0  0  0
   -5.6721   19.7835  -32.2237 H   0  0  0  0  0  0  0  0  0  0  0  0
   -2.9775   20.7909  -31.3814 H   0  0  0  0  0  0  0  0  0  0  0  0
   -3.4482   20.0936  -32.9390 H   0  0  0  0  0  0  0  0  0  0  0  0
   -2.9555   22.8030  -32.5450 H   0  0  0  0  0  0  0  0  0  0  0  0
   -4.0211   22.2099  -33.8288 H   0  0  0  0  0  0  0  0  0  0  0  0
   -5.6690   23.4700  -32.7148 H   0  0  0  0  0  0  0  0  0  0  0  0
   -4.6450   22.3160  -29.3860 H   0  0  0  0  0  0  0  0  0  0  0  0
   -5.2742   23.8816  -27.2103 H   0  0  0  0  0  0  0  0  0  0  0  0
   -4.1031   25.1334  -25.3949 H   0  0  0  0  0  0  0  0  0  0  0  0
   -0.5900   25.4837  -27.8953 H   0  0  0  0  0  0  0  0  0  0  0  0
   -1.7622   24.2467  -29.7232 H   0  0  0  0  0  0  0  0  0  0  0  0
  1  2  1  0
  2  3  1  0
  3  4  1  0
  3  5  1  0
  5  6  2  0
  5  7  1  0
  7  8  1  0
  8  9  1  0
  9 10  1  0
 10 11  1  0
 11 12  1  0
 12 13  2  0
 12 14  1  0
 14 15  1  0
 15 16  2  0
 16 17  1  0
 17 18  2  0
 18 19  1  0
 18 20  1  0
 20 21  2  0
 11  7  1  0
 21 15  1  0
  1 22  1  0
  1 23  1  0
  1 24  1  0
  2 25  1  0
  2 26  1  0
  4 27  1  0
  4 28  1  0
  4 29  1  0
  8 30  1  0
  8 31  1  0
  9 32  1  0
  9 33  1  0
 10 34  1  0
 10 35  1  0
 11 36  1  6
 14 37  1  0
 16 38  1  0
 17 39  1  0
 20 40  1  0
 21 41  1  0
M  END
>  <UniqueID>  (21) 
21

>  <SMILES>  (21) 
CCN(C)C(=O)N1CCC[C@@H]1C(=O)Nc1ccc(Br)cc1

>  <Energy>  (21) 
41.915631437001686

>  <Genealogy>  (21) 
CCN(C)C(=O)N1CCC[C@@H]1C(=O)Nc1ccc(Br)cc1 (chirality)
CCN(C)C(=O)N1CCC[C@@H]1C(=O)Nc1ccc(Br)cc1 (3D coordinates assigned)
CCN(C)C(=O)N1CCC[C@@H]1C(=O)Nc1ccc(Br)cc1 (nonaromatic ring conformer: 41.915631437001686 kcal/mol)

>  <smiles>  (21) 
CCN(C)C(=O)N1CCCC1C(=O)Nc1ccc(Br)cc1

>  <score_type>  (21) 
oracle

>  <origin>  (21) 
adg

>  <m_score__min__energy>  (21) 
-7.3300000000000001

>  <m_primary>  (21) 
energy

$$$$
21:0
     RDKit          3D

 50 52  0  0  0  0  0  0  0  0999 V2000
   -0.8010   22.9340  -26.8400 C   0  0  0  0  0  0  0  0  0  0  0  0
   -1.5550   21.7440  -27.2540 N   0  0  0  0  0  0  0  0  0  0  0  0
   -1.3590   20.4890  -26.5180 C   0  0  0  0  0  0  0  0  0  0  0  0
   -2.4770   21.8050  -28.3730 C   0  0  0  0  0  0  0  0  0  0  0  0
   -2.7370   20.6650  -29.1560 C   0  0  0  0  0  0  0  0  0  0  0  0
   -3.6290   20.7220  -30.2260 C   0  0  0  0  0  0  0  0  0  0  0  0
   -4.2850   21.9170  -30.5470 C   0  0  0  0  0  0  0  0  0  0  0  0
   -5.2680   21.9100  -31.5930 N   0  0  0  0  0  0  0  0  0  0  0  0
   -6.6820   22.1110  -31.2660 C   0  0  0  0  0  0  0  0  0  0  0  0
   -7.5780   21.5260  -32.3680 C   0  0  0  0  0  0  0  0  0  0  0  0
   -7.0580   20.2310  -32.8790 N   0  0  0  0  0  0  0  0  0  0  0  0
   -7.0840   19.1520  -31.8570 C   0  0  0  0  0  0  0  0  0  0  0  0
   -6.5270   17.8460  -32.3770 C   0  0  0  0  0  0  0  0  0  0  0  0
   -6.8020   17.4230  -33.6880 C   0  0  0  0  0  0  0  0  0  0  0  0
   -6.2710   16.2220  -34.1680 C   0  0  0  0  0  0  0  0  0  0  0  0
   -5.4640   15.4330  -33.3440 C   0  0  0  0  0  0  0  0  0  0  0  0
   -5.1880   15.8440  -32.0360 C   0  0  0  0  0  0  0  0  0  0  0  0
   -5.7170   17.0450  -31.5530 C   0  0  0  0  0  0  0  0  0  0  0  0
   -5.6980   20.3680  -33.4820 C   0  0  0  0  0  0  0  0  0  0  0  0
   -4.8870   21.5740  -32.9660 C   0  0  0  0  0  0  0  0  0  0  0  0
   -4.0190   23.0830  -29.7960 C   0  0  0  0  0  0  0  0  0  0  0  0
   -4.6120   24.3450  -30.1470 N   0  0  0  0  0  0  0  0  0  0  0  0
   -5.7580   24.6350  -29.7500 O   0  0  0  0  0  0  0  0  0  0  0  0
   -3.8670   25.3110  -30.7850 O   0  0  0  0  0  0  0  0  0  0  0  0
   -3.1290   23.0100  -28.7090 C   0  0  0  0  0  0  0  0  0  0  0  0
   -0.7692   22.9842  -25.7416 H   0  0  0  0  0  0  0  0  0  0  0  0
    0.2242   22.8740  -27.2341 H   0  0  0  0  0  0  0  0  0  0  0  0
   -1.2931   23.8354  -27.2341 H   0  0  0  0  0  0  0  0  0  0  0  0
   -1.3903   20.6893  -25.4368 H   0  0  0  0  0  0  0  0  0  0  0  0
   -2.1573   19.7801  -26.7828 H   0  0  0  0  0  0  0  0  0  0  0  0
   -0.3825   20.0573  -26.7828 H   0  0  0  0  0  0  0  0  0  0  0  0
   -2.2303   19.7174  -28.9210 H   0  0  0  0  0  0  0  0  0  0  0  0
   -3.8195   19.8189  -30.8244 H   0  0  0  0  0  0  0  0  0  0  0  0
   -6.9076   21.6108  -30.3126 H   0  0  0  0  0  0  0  0  0  0  0  0
   -6.8780   23.1903  -31.1840 H   0  0  0  0  0  0  0  0  0  0  0  0
   -8.5866   21.3671  -31.9587 H   0  0  0  0  0  0  0  0  0  0  0  0
   -7.5963   22.2391  -33.2054 H   0  0  0  0  0  0  0  0  0  0  0  0
   -7.7000   19.9360  -33.6530 H   0  0  0  0  0  0  0  0  0  0  0  0
   -6.4843   19.4714  -30.9920 H   0  0  0  0  0  0  0  0  0  0  0  0
   -8.1347   18.9799  -31.5805 H   0  0  0  0  0  0  0  0  0  0  0  0
   -7.4381   18.0396  -34.3400 H   0  0  0  0  0  0  0  0  0  0  0  0
   -6.4889   15.8976  -35.1962 H   0  0  0  0  0  0  0  0  0  0  0  0
   -5.0460   14.4891  -33.7240 H   0  0  0  0  0  0  0  0  0  0  0  0
   -4.5543   15.2221  -31.3867 H   0  0  0  0  0  0  0  0  0  0  0  0
   -5.4983   17.3646  -30.5234 H   0  0  0  0  0  0  0  0  0  0  0  0
   -5.1303   19.4523  -33.2603 H   0  0  0  0  0  0  0  0  0  0  0  0
   -5.8489   20.5310  -34.5593 H   0  0  0  0  0  0  0  0  0  0  0  0
   -3.8158   21.3255  -32.9920 H   0  0  0  0  0  0  0  0  0  0  0  0
   -5.0959   22.4402  -33.6110 H   0  0  0  0  0  0  0  0  0  0  0  0
   -2.9375   23.9115  -28.1084 H   0  0  0  0  0  0  0  0  0  0  0  0
  1  2  1  0
  2  3  1  0
  2  4  1  0
  4  5  2  0
  5  6  1  0
  6  7  2  0
  7  8  1  0
  8  9  1  0
  9 10  1  0
 10 11  1  0
 11 12  1  0
 12 13  1  0
 13 14  2  0
 14 15  1  0
 15 16  2  0
 16 17  1  0
 17 18  2  0
 11 19  1  0
 19 20  1  0
  7 21  1  0
 21 22  1  0
 22 23  2  0
 22 24  1  0
 21 25  2  0
 25  4  1  0
 20  8  1  0
 18 13  1  0
  1 26  1  0
  1 27  1  0
  1 28  1  0
  3 29  1  0
  3 30  1  0
  3 31  1  0
  5 32  1  0
  6 33  1  0
  9 34  1  0
  9 35  1  0
 10 36  1  0
 10 37  1  0
 11 38  1  0
 12 39  1  0
 12 40  1  0
 14 41  1  0
 15 42  1  0
 16 43  1  0
 17 44  1  0
 18 45  1  0
 19 46  1  0
 19 47  1  0
 20 48  1  0
 20 49  1  0
 25 50  1  0
M  CHG  3  11   1  22   1  24  -1
M  END
>  <UniqueID>  (22) 
22

>  <SMILES>  (22) 
CN(C)c1ccc(N2CC[NH+](Cc3ccccc3)CC2)c([N+](=O)[O-])c1

>  <Energy>  (22) 
70.88494237157124

>  <Genealogy>  (22) 
CN(C)c1ccc(N2CC[NH+](Cc3ccccc3)CC2)c([N+](=O)[O-])c1 (protonated)
CN(C)c1ccc(N2CC[NH+](Cc3ccccc3)CC2)c([N+](=O)[O-])c1 (3D coordinates assigned)
CN(C)c1ccc(N2CC[NH+](Cc3ccccc3)CC2)c([N+](=O)[O-])c1 (nonaromatic ring conformer: 70.88494237157124 kcal/mol)

>  <smiles>  (22) 
CN(C)c1ccc(N2CCN(Cc3ccccc3)CC2)c([N+](=O)[O-])c1

>  <score_type>  (22) 
oracle

>  <origin>  (22) 
adg

>  <m_score__min__energy>  (22) 
-7.0700000000000003

>  <m_primary>  (22) 
energy

$$$$
22:0
     RDKit          3D

 42 44  0  0  0  0  0  0  0  0999 V2000
   -9.1140   19.7050  -32.1310 C   0  0  0  0  0  0  0  0  0  0  0  0
   -8.1370   20.8460  -32.0620 C   0  0  0  0  0  0  0  0  0  0  0  0
   -8.5640   22.1090  -31.6220 C   0  0  0  0  0  0  0  0  0  0  0  0
   -7.6670   23.1780  -31.5570 C   0  0  0  0  0  0  0  0  0  0  0  0
   -6.3220   22.9960  -31.9140 C   0  0  0  0  0  0  0  0  0  0  0  0
   -5.3830   24.0790  -31.8800 N   0  0  0  0  0  0  0  0  0  0  0  0
   -4.8410   24.6990  -30.7060 C   0  0  0  0  0  0  0  0  0  0  0  0
   -4.0260   25.6500  -30.8440 O   0  0  0  0  0  0  0  0  0  0  0  0
   -5.1870   24.2170  -29.3220 C   0  0  0  0  0  0  0  0  0  0  0  0
   -4.0560   24.5100  -28.3310 C   0  0  0  0  0  0  0  0  0  0  0  0
   -2.7840   24.0190  -28.8570 N   0  0  0  0  0  0  0  0  0  0  0  0
   -1.5850   24.7660  -28.9770 C   0  0  0  0  0  0  0  0  0  0  0  0
   -1.5470   26.0240  -28.9610 O   0  0  0  0  0  0  0  0  0  0  0  0
   -0.4170   23.9610  -29.0940 N   0  0  0  0  0  0  0  0  0  0  0  0
   -0.8480   22.5630  -29.0100 C   0  0  0  0  0  0  0  0  0  0  0  0
   -0.4540   21.7770  -30.2560 C   0  0  0  0  0  0  0  0  0  0  0  0
   -0.2650   20.3380  -29.7870 C   0  0  0  0  0  0  0  0  0  0  0  0
   -0.0920   20.3790  -28.2660 C   0  0  0  0  0  0  0  0  0  0  0  0
   -0.1820   21.8410  -27.8440 C   0  0  0  0  0  0  0  0  0  0  0  0
   -2.3420   22.6690  -28.8440 C   0  0  0  0  0  0  0  0  0  0  0  0
   -3.1180   21.6880  -28.6840 O   0  0  0  0  0  0  0  0  0  0  0  0
   -5.9000   21.7480  -32.3830 C   0  0  0  0  0  0  0  0  0  0  0  0
   -6.7940   20.6720  -32.4530 C   0  0  0  0  0  0  0  0  0  0  0  0
   -6.2000   19.1210  -33.0350 Cl  0  0  0  0  0  0  0  0  0  0  0  0
   -9.3832   19.3906  -31.1118 H   0  0  0  0  0  0  0  0  0  0  0  0
  -10.0190   20.0290  -32.6658 H   0  0  0  0  0  0  0  0  0  0  0  0
   -8.6545   18.8607  -32.6658 H   0  0  0  0  0  0  0  0  0  0  0  0
   -9.6129   22.2580  -31.3262 H   0  0  0  0  0  0  0  0  0  0  0  0
   -8.0164   24.1666  -31.2246 H   0  0  0  0  0  0  0  0  0  0  0  0
   -6.1011   24.7266  -28.9833 H   0  0  0  0  0  0  0  0  0  0  0  0
   -5.3401   23.1284  -29.3619 H   0  0  0  0  0  0  0  0  0  0  0  0
   -3.9872   25.5958  -28.1689 H   0  0  0  0  0  0  0  0  0  0  0  0
   -4.2714   24.0011  -27.3799 H   0  0  0  0  0  0  0  0  0  0  0  0
   -1.2496   21.8331  -31.0135 H   0  0  0  0  0  0  0  0  0  0  0  0
    0.4590   22.1783  -30.7200 H   0  0  0  0  0  0  0  0  0  0  0  0
   -1.1475   19.7364  -30.0503 H   0  0  0  0  0  0  0  0  0  0  0  0
    0.6122   19.8814  -30.2686 H   0  0  0  0  0  0  0  0  0  0  0  0
   -0.8882   19.7962  -27.7798 H   0  0  0  0  0  0  0  0  0  0  0  0
    0.8744   19.9448  -27.9700 H   0  0  0  0  0  0  0  0  0  0  0  0
   -0.7898   21.9410  -26.9326 H   0  0  0  0  0  0  0  0  0  0  0  0
    0.8089   22.2613  -27.6170 H   0  0  0  0  0  0  0  0  0  0  0  0
   -4.8558   21.6100  -32.7000 H   0  0  0  0  0  0  0  0  0  0  0  0
  1  2  1  0
  2  3  2  0
  3  4  1  0
  4  5  2  0
  5  6  1  0
  6  7  1  0
  7  8  2  0
  7  9  1  0
  9 10  1  0
 10 11  1  0
 11 12  1  0
 12 13  2  0
 12 14  1  0
 14 15  1  0
 15 16  1  0
 16 17  1  0
 17 18  1  0
 18 19  1  0
 15 20  1  0
 20 21  2  0
  5 22  1  0
 22 23  2  0
 23 24  1  0
 23  2  1  0
 20 11  1  0
 19 15  1  0
  1 25  1  0
  1 26  1  0
  1 27  1  0
  3 28  1  0
  4 29  1  0
  9 30  1  0
  9 31  1  0
 10 32  1  0
 10 33  1  0
 16 34  1  0
 16 35  1  0
 17 36  1  0
 17 37  1  0
 18 38  1  0
 18 39  1  0
 19 40  1  0
 19 41  1  0
 22 42  1  0
M  CHG  2   6  -1  14  -1
M  END
>  <UniqueID>  (23) 
23

>  <SMILES>  (23) 
Cc1ccc([N-]C(=O)CCN2C(=O)[N-]C3(CCCC3)C2=O)cc1Cl

>  <Energy>  (23) 
65.19113770313356

>  <Genealogy>  (23) 
Cc1ccc([N-]C(=O)CCN2C(=O)[N-]C3(CCCC3)C2=O)cc1Cl (protonated)
Cc1ccc([N-]C(=O)CCN2C(=O)[N-]C3(CCCC3)C2=O)cc1Cl (3D coordinates assigned)
Cc1ccc([N-]C(=O)CCN2C(=O)[N-]C3(CCCC3)C2=O)cc1Cl (nonaromatic ring conformer: 65.19113770313356 kcal/mol)

>  <smiles>  (23) 
Cc1ccc(NC(=O)CCN2C(=O)NC3(CCCC3)C2=O)cc1Cl

>  <score_type>  (23) 
oracle

>  <origin>  (23) 
adg

>  <m_score__min__energy>  (23) 
-11.029999999999999

>  <m_primary>  (23) 
energy

$$$$
23:0
     RDKit          3D

 48 48  0  0  0  0  0  0  0  0999 V2000
   -9.0770   19.0160  -31.9760 C   0  0  0  0  0  0  0  0  0  0  0  0
   -8.3270   20.2390  -32.5300 C   0  0  0  0  0  0  0  0  0  0  0  0
   -6.8340   20.1190  -32.5480 N   0  0  0  0  0  0  0  0  0  0  0  0
   -6.4010   19.0670  -31.5920 C   0  0  0  0  0  0  0  0  0  0  0  0
   -6.4210   19.6740  -33.9050 C   0  0  0  0  0  0  0  0  0  0  0  0
   -6.1260   21.3900  -32.1890 C   0  0  0  0  0  0  0  0  0  0  0  0
   -7.0360   22.6160  -31.9770 C   0  0  0  0  0  0  0  0  0  0  0  0
   -6.2240   23.7700  -31.8840 O   0  0  0  0  0  0  0  0  0  0  0  0
   -6.1290   24.2060  -30.5410 C   0  0  0  0  0  0  0  0  0  0  0  0
   -5.3630   25.5300  -30.4690 C   0  0  0  0  0  0  0  0  0  0  0  0
   -3.9890   25.3130  -30.7290 O   0  0  0  0  0  0  0  0  0  0  0  0
   -3.6350   23.9750  -30.4440 C   0  0  0  0  0  0  0  0  0  0  0  0
   -2.3480   23.9620  -29.6240 C   0  0  0  0  0  0  0  0  0  0  0  0
   -1.9670   25.2890  -29.2600 O   0  0  0  0  0  0  0  0  0  0  0  0
   -1.6430   25.7210  -27.9640 C   0  0  0  0  0  0  0  0  0  0  0  0
   -0.6540   26.6940  -27.7070 C   0  0  0  0  0  0  0  0  0  0  0  0
   -0.3770   27.0860  -26.3930 C   0  0  0  0  0  0  0  0  0  0  0  0
   -1.0810   26.5180  -25.3280 C   0  0  0  0  0  0  0  0  0  0  0  0
   -2.0640   25.5580  -25.5740 C   0  0  0  0  0  0  0  0  0  0  0  0
   -2.3440   25.1640  -26.8860 C   0  0  0  0  0  0  0  0  0  0  0  0
   -9.0605   19.0429  -30.8765 H   0  0  0  0  0  0  0  0  0  0  0  0
  -10.1191   19.0347  -32.3276 H   0  0  0  0  0  0  0  0  0  0  0  0
   -8.5878   18.0956  -32.3276 H   0  0  0  0  0  0  0  0  0  0  0  0
   -8.6671   20.4074  -33.5625 H   0  0  0  0  0  0  0  0  0  0  0  0
   -8.5575   21.0718  -31.8493 H   0  0  0  0  0  0  0  0  0  0  0  0
   -6.5481   19.4244  -30.5621 H   0  0  0  0  0  0  0  0  0  0  0  0
   -6.9977   18.1571  -31.7531 H   0  0  0  0  0  0  0  0  0  0  0  0
   -5.3366   18.8408  -31.7531 H   0  0  0  0  0  0  0  0  0  0  0  0
   -5.6752   18.8704  -33.8162 H   0  0  0  0  0  0  0  0  0  0  0  0
   -7.2994   19.3002  -34.4515 H   0  0  0  0  0  0  0  0  0  0  0  0
   -5.9828   20.5222  -34.4515 H   0  0  0  0  0  0  0  0  0  0  0  0
   -5.5680   21.2162  -31.2571 H   0  0  0  0  0  0  0  0  0  0  0  0
   -5.4848   21.6333  -33.0490 H   0  0  0  0  0  0  0  0  0  0  0  0
   -7.7266   22.7164  -32.8273 H   0  0  0  0  0  0  0  0  0  0  0  0
   -7.6223   22.4937  -31.0543 H   0  0  0  0  0  0  0  0  0  0  0  0
   -7.1404   24.3484  -30.1326 H   0  0  0  0  0  0  0  0  0  0  0  0
   -5.5910   23.4471  -29.9539 H   0  0  0  0  0  0  0  0  0  0  0  0
   -5.7692   26.2262  -31.2175 H   0  0  0  0  0  0  0  0  0  0  0  0
   -5.4752   25.9559  -29.4610 H   0  0  0  0  0  0  0  0  0  0  0  0
   -4.4417   23.4948  -29.8707 H   0  0  0  0  0  0  0  0  0  0  0  0
   -3.4808   23.4246  -31.3838 H   0  0  0  0  0  0  0  0  0  0  0  0
   -2.5076   23.3691  -28.7113 H   0  0  0  0  0  0  0  0  0  0  0  0
   -1.5460   23.5186  -30.2324 H   0  0  0  0  0  0  0  0  0  0  0  0
   -0.0991   27.1457  -28.5425 H   0  0  0  0  0  0  0  0  0  0  0  0
    0.3968   27.8431  -26.1977 H   0  0  0  0  0  0  0  0  0  0  0  0
   -0.8605   26.8274  -24.2957 H   0  0  0  0  0  0  0  0  0  0  0  0
   -2.6185   25.1114  -24.7355 H   0  0  0  0  0  0  0  0  0  0  0  0
   -3.1221   24.4095  -27.0738 H   0  0  0  0  0  0  0  0  0  0  0  0
  1  2  1  0
  2  3  1  0
  3  4  1  0
  3  5  1  0
  3  6  1  0
  6  7  1  0
  7  8  1  0
  8  9  1  0
  9 10  1  0
 10 11  1  0
 11 12  1  0
 12 13  1  0
 13 14  1  0
 14 15  1  0
 15 16  2  0
 16 17  1  0
 17 18  2  0
 18 19  1  0
 19 20  2  0
 20 15  1  0
  1 21  1  0
  1 22  1  0
  1 23  1  0
  2 24  1  0
  2 25  1  0
  4 26  1  0
  4 27  1  0
  4 28  1  0
  5 29  1  0
  5 30  1  0
  5 31  1  0
  6 32  1  0
  6 33  1  0
  7 34  1  0
  7 35  1  0
  9 36  1  0
  9 37  1  0
 10 38  1  0
 10 39  1  0
 12 40  1  0
 12 41  1  0
 13 42  1  0
 13 43  1  0
 16 44  1  0
 17 45  1  0
 18 46  1  0
 19 47  1  0
 20 48  1  0
M  CHG  1   3   1
M  END
>  <UniqueID>  (24) 
24

>  <SMILES>  (24) 
CC[N+](C)(C)CCOCCOCCOc1ccccc1

>  <Energy>  (24) 
53.666990366981

>  <Genealogy>  (24) 
CC[N+](C)(C)CCOCCOCCOc1ccccc1 (3D coordinates assigned)
CC[N+](C)(C)CCOCCOCCOc1ccccc1 (optimized conformer: 53.666990366981 kcal/mol)

>  <smiles>  (24) 
CC[N+](C)(C)CCOCCOCCOc1ccccc1

>  <score_type>  (24) 
oracle

>  <origin>  (24) 
adg

>  <m_score__min__energy>  (24) 
-6.2800000000000002

>  <m_primary>  (24) 
energy

$$$$
24:0
     RDKit          3D

 41 43  0  0  0  0  0  0  0  0999 V2000
   -9.1110   18.5140  -31.6810 C   0  0  0  0  0  0  0  0  0  0  0  0
   -8.8660   19.6100  -32.7230 C   0  0  0  0  0  0  0  0  0  0  0  0
   -7.6930   20.4490  -32.3620 N   0  0  0  0  0  0  0  0  0  0  0  0
   -7.8930   21.6680  -31.7350 C   0  0  0  0  0  0  0  0  0  0  0  0
   -9.2690   22.0820  -31.2200 C   0  0  0  0  0  0  0  0  0  0  0  0
   -6.8020   22.5540  -31.5360 C   0  0  0  0  0  0  0  0  0  0  0  0
   -6.9890   23.8490  -30.9920 C   0  0  0  0  0  0  0  0  0  0  0  0
   -5.9040   24.6540  -30.6560 C   0  0  0  0  0  0  0  0  0  0  0  0
   -4.6010   24.1780  -30.8230 C   0  0  0  0  0  0  0  0  0  0  0  0
   -3.4750   24.9110  -30.4190 O   0  0  0  0  0  0  0  0  0  0  0  0
   -2.6220   24.5470  -29.3390 C   0  0  0  0  0  0  0  0  0  0  0  0
   -4.4050   22.9280  -31.4110 C   0  0  0  0  0  0  0  0  0  0  0  0
   -5.4910   22.1420  -31.8720 C   0  0  0  0  0  0  0  0  0  0  0  0
   -5.3040   20.9240  -32.5800 C   0  0  0  0  0  0  0  0  0  0  0  0
   -4.0710   20.5800  -33.2190 C   0  0  0  0  0  0  0  0  0  0  0  0
   -3.0820   21.5570  -33.4300 O   0  0  0  0  0  0  0  0  0  0  0  0
   -1.6760   21.3260  -33.3990 C   0  0  0  0  0  0  0  0  0  0  0  0
   -3.8830   19.2780  -33.7080 C   0  0  0  0  0  0  0  0  0  0  0  0
   -4.9160   18.3590  -33.6750 C   0  0  0  0  0  0  0  0  0  0  0  0
   -6.1700   18.7340  -33.2190 C   0  0  0  0  0  0  0  0  0  0  0  0
   -6.4150   20.0390  -32.7120 C   0  0  0  0  0  0  0  0  0  0  0  0
   -9.0158   18.9401  -30.6714 H   0  0  0  0  0  0  0  0  0  0  0  0
  -10.1231   18.1034  -31.8117 H   0  0  0  0  0  0  0  0  0  0  0  0
   -8.3701   17.7115  -31.8117 H   0  0  0  0  0  0  0  0  0  0  0  0
   -8.6826   19.1400  -33.7005 H   0  0  0  0  0  0  0  0  0  0  0  0
   -9.7553   20.2563  -32.7614 H   0  0  0  0  0  0  0  0  0  0  0  0
   -9.2645   22.0806  -30.1200 H   0  0  0  0  0  0  0  0  0  0  0  0
   -9.5083   23.0919  -31.5844 H   0  0  0  0  0  0  0  0  0  0  0  0
  -10.0258   21.3718  -31.5844 H   0  0  0  0  0  0  0  0  0  0  0  0
   -8.0103   24.2252  -30.8322 H   0  0  0  0  0  0  0  0  0  0  0  0
   -6.0727   25.6658  -30.2587 H   0  0  0  0  0  0  0  0  0  0  0  0
   -3.1260   24.7621  -28.3852 H   0  0  0  0  0  0  0  0  0  0  0  0
   -2.3930   23.4728  -29.3986 H   0  0  0  0  0  0  0  0  0  0  0  0
   -1.6879   25.1249  -29.3986 H   0  0  0  0  0  0  0  0  0  0  0  0
   -3.3806   22.5422  -31.5198 H   0  0  0  0  0  0  0  0  0  0  0  0
   -1.3365   21.2702  -32.3542 H   0  0  0  0  0  0  0  0  0  0  0  0
   -1.4487   20.3785  -33.9094 H   0  0  0  0  0  0  0  0  0  0  0  0
   -1.1575   22.1510  -33.9094 H   0  0  0  0  0  0  0  0  0  0  0  0
   -2.9061   18.9861  -34.1209 H   0  0  0  0  0  0  0  0  0  0  0  0
   -4.7417   17.3265  -34.0119 H   0  0  0  0  0  0  0  0  0  0  0  0
   -6.9937   18.0056  -33.2502 H   0  0  0  0  0  0  0  0  0  0  0  0
  1  2  1  0
  2  3  1  0
  3  4  2  0
  4  5  1  0
  4  6  1  0
  6  7  2  0
  7  8  1  0
  8  9  2  0
  9 10  1  0
 10 11  1  0
  9 12  1  0
 12 13  2  0
 13 14  1  0
 14 15  2  0
 15 16  1  0
 16 17  1  0
 15 18  1  0
 18 19  2  0
 19 20  1  0
 20 21  2  0
 21  3  1  0
 13  6  1  0
 21 14  1  0
  1 22  1  0
  1 23  1  0
  1 24  1  0
  2 25  1  0
  2 26  1  0
  5 27  1  0
  5 28  1  0
  5 29  1  0
  7 30  1  0
  8 31  1  0
 11 32  1  0
 11 33  1  0
 11 34  1  0
 12 35  1  0
 17 36  1  0
 17 37  1  0
 17 38  1  0
 18 39  1  0
 19 40  1  0
 20 41  1  0
M  CHG  1   3   1
M  END
>  <UniqueID>  (25) 
25

>  <SMILES>  (25) 
CC[n+]1c(C)c2ccc(OC)cc2c2c(OC)cccc21

>  <Energy>  (25) 
75.89415078891967

>  <Genealogy>  (25) 
CC[n+]1c(C)c2ccc(OC)cc2c2c(OC)cccc21 (3D coordinates assigned)
CC[n+]1c(C)c2ccc(OC)cc2c2c(OC)cccc21 (optimized conformer: 75.89415078891967 kcal/mol)

>  <smiles>  (25) 
CC[n+]1c(C)c2ccc(OC)cc2c2c(OC)cccc21

>  <score_type>  (25) 
oracle

>  <origin>  (25) 
adg

>  <m_score__min__energy>  (25) 
-8.1199999999999992

>  <m_primary>  (25) 
energy

$$$$
25:0
     RDKit          3D

 44 47  0  0  0  0  0  0  0  0999 V2000
   -6.3920   15.4210  -34.2200 C   0  0  0  0  0  0  0  0  0  0  0  0
   -5.9600   16.6750  -34.7380 O   0  0  0  0  0  0  0  0  0  0  0  0
   -5.7260   17.8230  -33.9600 C   0  0  0  0  0  0  0  0  0  0  0  0
   -6.7830   18.5750  -33.4090 C   0  0  0  0  0  0  0  0  0  0  0  0
   -6.5150   19.7160  -32.6370 C   0  0  0  0  0  0  0  0  0  0  0  0
   -7.5310   20.5020  -32.0730 C   0  0  0  0  0  0  0  0  0  0  0  0
   -7.2300   21.6040  -31.3080 C   0  0  0  0  0  0  0  0  0  0  0  0
   -5.8900   21.9770  -31.0960 C   0  0  0  0  0  0  0  0  0  0  0  0
   -5.5270   23.1380  -30.3230 N   0  0  0  0  0  0  0  0  0  0  0  0
   -6.2270   24.4090  -30.5320 C   0  0  0  0  0  0  0  0  0  0  0  0
   -5.2200   25.5410  -30.8440 C   0  0  0  0  0  0  0  0  0  0  0  0
   -3.8690   25.1960  -30.5760 O   0  0  0  0  0  0  0  0  0  0  0  0
   -3.7650   24.5380  -29.3310 C   0  0  0  0  0  0  0  0  0  0  0  0
   -4.3490   23.1260  -29.4470 C   0  0  0  0  0  0  0  0  0  0  0  0
   -4.9080   21.2160  -31.6590 N   0  0  0  0  0  0  0  0  0  0  0  0
   -5.1780   20.1090  -32.4090 C   0  0  0  0  0  0  0  0  0  0  0  0
   -4.1300   19.3650  -32.9540 C   0  0  0  0  0  0  0  0  0  0  0  0
   -4.3940   18.2230  -33.7290 C   0  0  0  0  0  0  0  0  0  0  0  0
   -3.2580   17.4300  -34.3100 C   0  0  0  0  0  0  0  0  0  0  0  0
   -8.4590   22.2950  -30.8370 C   0  0  0  0  0  0  0  0  0  0  0  0
   -9.6050   21.5540  -31.5440 C   0  0  0  0  0  0  0  0  0  0  0  0
   -8.9990   20.3110  -32.2110 C   0  0  0  0  0  0  0  0  0  0  0  0
   -6.3804   15.4548  -33.1206 H   0  0  0  0  0  0  0  0  0  0  0  0
   -7.4139   15.2123  -34.5696 H   0  0  0  0  0  0  0  0  0  0  0  0
   -5.7155   14.6272  -34.5696 H   0  0  0  0  0  0  0  0  0  0  0  0
   -7.8239   18.2659  -33.5850 H   0  0  0  0  0  0  0  0  0  0  0  0
   -6.9244   24.3029  -31.3760 H   0  0  0  0  0  0  0  0  0  0  0  0
   -6.7761   24.6662  -29.6142 H   0  0  0  0  0  0  0  0  0  0  0  0
   -5.3073   25.7988  -31.9098 H   0  0  0  0  0  0  0  0  0  0  0  0
   -5.4721   26.3848  -30.1848 H   0  0  0  0  0  0  0  0  0  0  0  0
   -2.7067   24.4738  -29.0379 H   0  0  0  0  0  0  0  0  0  0  0  0
   -4.3234   25.1035  -28.5705 H   0  0  0  0  0  0  0  0  0  0  0  0
   -3.5891   22.4514  -29.8683 H   0  0  0  0  0  0  0  0  0  0  0  0
   -4.6469   22.7763  -28.4475 H   0  0  0  0  0  0  0  0  0  0  0  0
   -3.0898   19.6751  -32.7754 H   0  0  0  0  0  0  0  0  0  0  0  0
   -2.6519   17.0069  -33.4954 H   0  0  0  0  0  0  0  0  0  0  0  0
   -3.6593   16.6148  -34.9300 H   0  0  0  0  0  0  0  0  0  0  0  0
   -2.6311   18.0877  -34.9300 H   0  0  0  0  0  0  0  0  0  0  0  0
   -8.5576   22.2135  -29.7445 H   0  0  0  0  0  0  0  0  0  0  0  0
   -8.4501   23.3711  -31.0650 H   0  0  0  0  0  0  0  0  0  0  0  0
  -10.3685   21.2540  -30.8112 H   0  0  0  0  0  0  0  0  0  0  0  0
  -10.0868   22.2021  -32.2909 H   0  0  0  0  0  0  0  0  0  0  0  0
   -9.3233   19.3947  -31.6960 H   0  0  0  0  0  0  0  0  0  0  0  0
   -9.3127   20.2003  -33.2595 H   0  0  0  0  0  0  0  0  0  0  0  0
  1  2  1  0
  2  3  1  0
  3  4  2  0
  4  5  1  0
  5  6  2  0
  6  7  1  0
  7  8  2  0
  8  9  1  0
  9 10  1  0
 10 11  1  0
 11 12  1  0
 12 13  1  0
 13 14  1  0
  8 15  1  0
 15 16  2  0
 16 17  1  0
 17 18  2  0
 18 19  1  0
  7 20  1  0
 20 21  1  0
 21 22  1  0
 18  3  1  0
 16  5  1  0
 22  6  1  0
 14  9  1  0
  1 23  1  0
  1 24  1  0
  1 25  1  0
  4 26  1  0
 10 27  1  0
 10 28  1  0
 11 29  1  0
 11 30  1  0
 13 31  1  0
 13 32  1  0
 14 33  1  0
 14 34  1  0
 17 35  1  0
 19 36  1  0
 19 37  1  0
 19 38  1  0
 20 39  1  0
 20 40  1  0
 21 41  1  0
 21 42  1  0
 22 43  1  0
 22 44  1  0
M  END
>  <UniqueID>  (26) 
26

>  <SMILES>  (26) 
COc1cc2c3c(c(N4CCOCC4)nc2cc1C)CCC3

>  <Energy>  (26) 
67.81969536747316

>  <Genealogy>  (26) 
COc1cc2c3c(c(N4CCOCC4)nc2cc1C)CCC3 (3D coordinates assigned)
COc1cc2c3c(c(N4CCOCC4)nc2cc1C)CCC3 (nonaromatic ring conformer: 67.81969536747316 kcal/mol)

>  <smiles>  (26) 
COc1cc2c3c(c(N4CCOCC4)nc2cc1C)CCC3

>  <score_type>  (26) 
oracle

>  <origin>  (26) 
adg

>  <m_score__min__energy>  (26) 
-8.9100000000000001

>  <m_primary>  (26) 
energy

$$$$
26:0
     RDKit          3D

 32 34  0  0  0  0  0  0  0  0999 V2000
   -7.8950   18.1690  -31.1920 C   0  0  0  0  0  0  0  0  0  0  0  0
   -7.5480   19.3580  -31.9770 N   0  0  0  0  0  0  0  0  0  0  0  0
   -8.5970   20.2440  -32.4110 C   0  0  0  0  0  0  0  0  0  0  0  0
   -9.4890   19.8340  -33.2030 O   0  0  0  0  0  0  0  0  0  0  0  0
   -8.6530   21.6570  -31.9210 C   0  0  0  0  0  0  0  0  0  0  0  0
   -7.4270   22.3450  -32.3070 N   0  0  0  0  0  0  0  0  0  0  0  0
   -6.2280   22.0130  -31.9170 C   0  0  0  0  0  0  0  0  0  0  0  0
   -5.5260   22.9020  -30.9550 C   0  0  0  0  0  0  0  0  0  0  0  0
   -4.9560   22.3820  -29.7800 C   0  0  0  0  0  0  0  0  0  0  0  0
   -4.2920   23.2250  -28.8880 C   0  0  0  0  0  0  0  0  0  0  0  0
   -4.1910   24.5850  -29.1780 C   0  0  0  0  0  0  0  0  0  0  0  0
   -4.7340   25.0780  -30.3210 N   0  0  0  0  0  0  0  0  0  0  0  0
   -5.3890   24.2800  -31.2060 C   0  0  0  0  0  0  0  0  0  0  0  0
   -5.5560   20.7910  -32.4460 C   0  0  0  0  0  0  0  0  0  0  0  0
   -4.2430   20.9010  -32.9410 C   0  0  0  0  0  0  0  0  0  0  0  0
   -3.5670   19.7820  -33.4300 C   0  0  0  0  0  0  0  0  0  0  0  0
   -1.7840   19.9560  -34.0910 Br  0  0  0  0  0  0  0  0  0  0  0  0
   -4.1960   18.5380  -33.4400 C   0  0  0  0  0  0  0  0  0  0  0  0
   -5.5010   18.4100  -32.9630 C   0  0  0  0  0  0  0  0  0  0  0  0
   -6.1990   19.5250  -32.4640 C   0  0  0  0  0  0  0  0  0  0  0  0
   -7.8262   18.4046  -30.1197 H   0  0  0  0  0  0  0  0  0  0  0  0
   -8.9217   17.8568  -31.4337 H   0  0  0  0  0  0  0  0  0  0  0  0
   -7.1974   17.3536  -31.4337 H   0  0  0  0  0  0  0  0  0  0  0  0
   -9.5184   22.1679  -32.3682 H   0  0  0  0  0  0  0  0  0  0  0  0
   -8.7535   21.6655  -30.8256 H   0  0  0  0  0  0  0  0  0  0  0  0
   -5.0337   21.3064  -29.5628 H   0  0  0  0  0  0  0  0  0  0  0  0
   -3.8523   22.8203  -27.9645 H   0  0  0  0  0  0  0  0  0  0  0  0
   -3.6714   25.2588  -28.4809 H   0  0  0  0  0  0  0  0  0  0  0  0
   -5.8141   24.7139  -32.1231 H   0  0  0  0  0  0  0  0  0  0  0  0
   -3.7434   21.8810  -32.9425 H   0  0  0  0  0  0  0  0  0  0  0  0
   -3.6628   17.6560  -33.8245 H   0  0  0  0  0  0  0  0  0  0  0  0
   -5.9902   17.4249  -32.9773 H   0  0  0  0  0  0  0  0  0  0  0  0
  1  2  1  0
  2  3  1  0
  3  4  2  0
  3  5  1  0
  5  6  1  0
  6  7  2  0
  7  8  1  0
  8  9  2  0
  9 10  1  0
 10 11  2  0
 11 12  1  0
 12 13  2  0
  7 14  1  0
 14 15  2  0
 15 16  1  0
 16 17  1  0
 16 18  2  0
 18 19  1  0
 19 20  2  0
 20  2  1  0
 13  8  1  0
 20 14  1  0
  1 21  1  0
  1 22  1  0
  1 23  1  0
  5 24  1  0
  5 25  1  0
  9 26  1  0
 10 27  1  0
 11 28  1  0
 13 29  1  0
 15 30  1  0
 18 31  1  0
 19 32  1  0
M  END
>  <UniqueID>  (27) 
27

>  <SMILES>  (27) 
CN1C(=O)CN=C(c2cccnc2)c2cc(Br)ccc21

>  <Energy>  (27) 
49.90664348322744

>  <Genealogy>  (27) 
CN1C(=O)CN=C(c2cccnc2)c2cc(Br)ccc21 (3D coordinates assigned)
CN1C(=O)CN=C(c2cccnc2)c2cc(Br)ccc21 (nonaromatic ring conformer: 49.90664348322744 kcal/mol)

>  <smiles>  (27) 
CN1C(=O)CN=C(c2cccnc2)c2cc(Br)ccc21

>  <score_type>  (27) 
oracle

>  <origin>  (27) 
adg

>  <m_score__min__energy>  (27) 
-6.4100000000000001

>  <m_primary>  (27) 
energy

$$$$
27:0
     RDKit          3D

 35 37  0  0  0  0  0  0  0  0999 V2000
   -2.2600   24.5250  -28.8020 C   0  0  0  0  0  0  0  0  0  0  0  0
   -3.1130   25.1950  -29.7240 O   0  0  0  0  0  0  0  0  0  0  0  0
   -4.3570   24.7070  -30.1500 C   0  0  0  0  0  0  0  0  0  0  0  0
   -5.5510   25.4340  -29.9780 C   0  0  0  0  0  0  0  0  0  0  0  0
   -6.7650   24.9010  -30.4160 C   0  0  0  0  0  0  0  0  0  0  0  0
   -6.8020   23.6480  -31.0320 C   0  0  0  0  0  0  0  0  0  0  0  0
   -5.6190   22.9140  -31.2250 C   0  0  0  0  0  0  0  0  0  0  0  0
   -5.6480   21.6150  -31.8520 N   0  0  0  0  0  0  0  0  0  0  0  0
   -6.7370   20.6370  -31.7090 C   0  0  0  0  0  0  0  0  0  0  0  0
   -6.3490   19.5350  -32.6540 C   0  0  0  0  0  0  0  0  0  0  0  0
   -7.0400   18.3490  -32.9260 C   0  0  0  0  0  0  0  0  0  0  0  0
   -8.2600   18.1050  -32.2790 O   0  0  0  0  0  0  0  0  0  0  0  0
   -9.3860   18.9750  -32.3410 C   0  0  0  0  0  0  0  0  0  0  0  0
   -6.4660   17.4460  -33.8510 C   0  0  0  0  0  0  0  0  0  0  0  0
   -5.2330   17.7400  -34.4690 C   0  0  0  0  0  0  0  0  0  0  0  0
   -4.5600   18.9360  -34.1750 C   0  0  0  0  0  0  0  0  0  0  0  0
   -5.1460   19.8100  -33.2650 C   0  0  0  0  0  0  0  0  0  0  0  0
   -4.6940   21.0870  -32.7730 C   0  0  0  0  0  0  0  0  0  0  0  0
   -3.5930   21.6280  -33.0580 O   0  0  0  0  0  0  0  0  0  0  0  0
   -4.4030   23.4520  -30.7680 C   0  0  0  0  0  0  0  0  0  0  0  0
   -2.5685   24.7673  -27.7743 H   0  0  0  0  0  0  0  0  0  0  0  0
   -2.3310   23.4387  -28.9596 H   0  0  0  0  0  0  0  0  0  0  0  0
   -1.2214   24.8513  -28.9596 H   0  0  0  0  0  0  0  0  0  0  0  0
   -5.5271   26.4234  -29.4978 H   0  0  0  0  0  0  0  0  0  0  0  0
   -7.6958   25.4701  -30.2754 H   0  0  0  0  0  0  0  0  0  0  0  0
   -7.7635   23.2328  -31.3684 H   0  0  0  0  0  0  0  0  0  0  0  0
   -6.7975   20.2650  -30.6756 H   0  0  0  0  0  0  0  0  0  0  0  0
   -7.7261   21.0632  -31.9326 H   0  0  0  0  0  0  0  0  0  0  0  0
   -9.7116   19.2266  -31.3209 H   0  0  0  0  0  0  0  0  0  0  0  0
   -9.1089   19.8959  -32.8750 H   0  0  0  0  0  0  0  0  0  0  0  0
  -10.2071   18.4745  -32.8750 H   0  0  0  0  0  0  0  0  0  0  0  0
   -6.9857   16.5065  -34.0903 H   0  0  0  0  0  0  0  0  0  0  0  0
   -4.7964   17.0283  -35.1852 H   0  0  0  0  0  0  0  0  0  0  0  0
   -3.5973   19.1753  -34.6502 H   0  0  0  0  0  0  0  0  0  0  0  0
   -3.4738   22.8779  -30.8981 H   0  0  0  0  0  0  0  0  0  0  0  0
  1  2  1  0
  2  3  1  0
  3  4  2  0
  4  5  1  0
  5  6  2  0
  6  7  1  0
  7  8  1  0
  8  9  1  0
  9 10  1  0
 10 11  2  0
 11 12  1  0
 12 13  1  0
 11 14  1  0
 14 15  2  0
 15 16  1  0
 16 17  2  0
 17 18  1  0
 18 19  2  0
  7 20  2  0
 20  3  1  0
 18  8  1  0
 17 10  1  0
  1 21  1  0
  1 22  1  0
  1 23  1  0
  4 24  1  0
  5 25  1  0
  6 26  1  0
  9 27  1  0
  9 28  1  0
 13 29  1  0
 13 30  1  0
 13 31  1  0
 14 32  1  0
 15 33  1  0
 16 34  1  0
 20 35  1  0
M  END
>  <UniqueID>  (28) 
28

>  <SMILES>  (28) 
COc1cccc(N2Cc3c(OC)cccc3C2=O)c1

>  <Energy>  (28) 
61.29711922264334

>  <Genealogy>  (28) 
COc1cccc(N2Cc3c(OC)cccc3C2=O)c1 (3D coordinates assigned)
COc1cccc(N2Cc3c(OC)cccc3C2=O)c1 (nonaromatic ring conformer: 61.29711922264334 kcal/mol)

>  <smiles>  (28) 
COc1cccc(N2Cc3c(OC)cccc3C2=O)c1

>  <score_type>  (28) 
oracle

>  <origin>  (28) 
adg

>  <m_score__min__energy>  (28) 
-7.79

>  <m_primary>  (28) 
energy

$$$$
28:0
     RDKit          3D

 56 59  0  0  0  0  0  0  0  0999 V2000
   -0.1490   21.5620  -30.9000 C   0  0  0  0  0  0  0  0  0  0  0  0
   -0.8620   21.8310  -32.0610 O   0  0  0  0  0  0  0  0  0  0  0  0
   -1.7580   20.9320  -32.6760 C   0  0  0  0  0  0  0  0  0  0  0  0
   -1.1900   19.9590  -33.4620 C   0  0  0  0  0  0  0  0  0  0  0  0
    0.1050   19.8960  -33.6110 O   0  0  0  0  0  0  0  0  0  0  0  0
    1.3750   19.8330  -33.7570 C   0  0  0  0  0  0  0  0  0  0  0  0
    2.1670   20.7770  -34.6230 C   0  0  0  0  0  0  0  0  0  0  0  0
    1.3830   21.5880  -35.5830 C   0  0  0  0  0  0  0  0  0  0  0  0
    0.2710   22.2540  -34.9650 N   0  0  0  0  0  0  0  0  0  0  0  0
   -2.0330   19.0520  -34.0870 C   0  0  0  0  0  0  0  0  0  0  0  0
   -3.3720   19.1990  -33.8810 C   0  0  0  0  0  0  0  0  0  0  0  0
   -3.9570   20.1700  -33.1030 C   0  0  0  0  0  0  0  0  0  0  0  0
   -3.1370   21.0520  -32.4790 C   0  0  0  0  0  0  0  0  0  0  0  0
   -3.4560   22.0780  -31.6130 O   0  0  0  0  0  0  0  0  0  0  0  0
   -3.2820   21.7550  -30.1690 C   0  0  0  0  0  0  0  0  0  0  0  0
   -5.3460   20.1210  -32.7920 C   0  0  0  0  0  0  0  0  0  0  0  0
   -5.9950   21.1980  -32.2570 C   0  0  0  0  0  0  0  0  0  0  0  0
   -5.4420   22.4010  -31.8400 O   0  0  0  0  0  0  0  0  0  0  0  0
   -5.7380   23.5770  -32.6710 C   0  0  0  0  0  0  0  0  0  0  0  0
   -7.4000   21.2040  -32.1150 C   0  0  0  0  0  0  0  0  0  0  0  0
   -8.0760   22.2590  -31.5640 C   0  0  0  0  0  0  0  0  0  0  0  0
   -9.4640   22.2650  -31.4170 C   0  0  0  0  0  0  0  0  0  0  0  0
  -10.1370   21.1660  -31.8480 C   0  0  0  0  0  0  0  0  0  0  0  0
   -9.4620   20.1200  -32.3960 C   0  0  0  0  0  0  0  0  0  0  0  0
   -8.0960   20.1220  -32.5370 C   0  0  0  0  0  0  0  0  0  0  0  0
   -7.4520   19.0560  -33.0830 C   0  0  0  0  0  0  0  0  0  0  0  0
   -6.1230   19.0940  -33.1880 N   0  0  0  0  0  0  0  0  0  0  0  0
   -5.4750   17.9200  -33.7500 C   0  0  0  0  0  0  0  0  0  0  0  0
   -4.2710   18.2270  -34.5890 C   0  0  0  0  0  0  0  0  0  0  0  0
   -0.7719   21.7970  -30.0244 H   0  0  0  0  0  0  0  0  0  0  0  0
    0.1278   20.4976  -30.8780 H   0  0  0  0  0  0  0  0  0  0  0  0
    0.7619   22.1783  -30.8780 H   0  0  0  0  0  0  0  0  0  0  0  0
    1.7974   19.9291  -32.7459 H   0  0  0  0  0  0  0  0  0  0  0  0
    1.4764   18.8939  -34.3208 H   0  0  0  0  0  0  0  0  0  0  0  0
    2.7075   21.4689  -33.9603 H   0  0  0  0  0  0  0  0  0  0  0  0
    2.8206   20.1397  -35.2367 H   0  0  0  0  0  0  0  0  0  0  0  0
    2.0452   22.3460  -36.0268 H   0  0  0  0  0  0  0  0  0  0  0  0
    0.9801   20.9046  -36.3450 H   0  0  0  0  0  0  0  0  0  0  0  0
   -0.5230   22.4810  -35.5550 H   0  0  0  0  0  0  0  0  0  0  0  0
    0.1200   22.0190  -33.9860 H   0  0  0  0  0  0  0  0  0  0  0  0
   -1.6368   18.2468  -34.7231 H   0  0  0  0  0  0  0  0  0  0  0  0
   -3.7159   22.5604  -29.5582 H   0  0  0  0  0  0  0  0  0  0  0  0
   -3.7915   20.8071  -29.9413 H   0  0  0  0  0  0  0  0  0  0  0  0
   -2.2101   21.6590  -29.9413 H   0  0  0  0  0  0  0  0  0  0  0  0
   -5.9549   24.4388  -32.0228 H   0  0  0  0  0  0  0  0  0  0  0  0
   -4.8693   23.8053  -33.3060 H   0  0  0  0  0  0  0  0  0  0  0  0
   -6.6113   23.3668  -33.3060 H   0  0  0  0  0  0  0  0  0  0  0  0
   -7.5039   23.1350  -31.2243 H   0  0  0  0  0  0  0  0  0  0  0  0
   -9.9902   23.1221  -30.9716 H   0  0  0  0  0  0  0  0  0  0  0  0
  -11.2320   21.1221  -31.7533 H   0  0  0  0  0  0  0  0  0  0  0  0
  -10.0299   19.2422  -32.7380 H   0  0  0  0  0  0  0  0  0  0  0  0
   -8.0167   18.1787  -33.4316 H   0  0  0  0  0  0  0  0  0  0  0  0
   -5.1611   17.2687  -32.9209 H   0  0  0  0  0  0  0  0  0  0  0  0
   -6.2094   17.4399  -34.4135 H   0  0  0  0  0  0  0  0  0  0  0  0
   -3.7174   17.2963  -34.7823 H   0  0  0  0  0  0  0  0  0  0  0  0
   -4.6026   18.6744  -35.5376 H   0  0  0  0  0  0  0  0  0  0  0  0
  1  2  1  0
  2  3  1  0
  3  4  2  0
  4  5  1  0
  5  6  1  0
  6  7  1  0
  7  8  1  0
  8  9  1  0
  4 10  1  0
 10 11  2  0
 11 12  1  0
 12 13  2  0
 13 14  1  0
 14 15  1  0
 12 16  1  0
 16 17  2  0
 17 18  1  0
 18 19  1  0
 17 20  1  0
 20 21  2  0
 21 22  1  0
 22 23  2  0
 23 24  1  0
 24 25  2  0
 25 26  1  0
 26 27  2  0
 27 28  1  0
 28 29  1  0
 13  3  1  0
 27 16  1  0
 29 11  1  0
 25 20  1  0
  1 30  1  0
  1 31  1  0
  1 32  1  0
  6 33  1  0
  6 34  1  0
  7 35  1  0
  7 36  1  0
  8 37  1  0
  8 38  1  0
  9 39  1  0
  9 40  1  0
 10 41  1  0
 15 42  1  0
 15 43  1  0
 15 44  1  0
 19 45  1  0
 19 46  1  0
 19 47  1  0
 21 48  1  0
 22 49  1  0
 23 50  1  0
 24 51  1  0
 26 52  1  0
 28 53  1  0
 28 54  1  0
 29 55  1  0
 29 56  1  0
M  CHG  1  27   1
M  END
>  <UniqueID>  (29) 
29

>  <SMILES>  (29) 
COc1c(OCCCN)cc2c(c1OC)-c1c(OC)c3ccccc3c[n+]1CC2

>  <Energy>  (29) 
278.90928908024796

>  <Genealogy>  (29) 
COc1c(OCCCN)cc2c(c1OC)-c1c(OC)c3ccccc3c[n+]1CC2 (3D coordinates assigned)
COc1c(OCCCN)cc2c(c1OC)-c1c(OC)c3ccccc3c[n+]1CC2 (nonaromatic ring conformer: 278.90928908024796 kcal/mol)

>  <smiles>  (29) 
COc1c(OCCCN)cc2c(c1OC)-c1c(OC)c3ccccc3c[n+]1CC2

>  <score_type>  (29) 
oracle

>  <origin>  (29) 
adg

>  <m_score__min__energy>  (29) 
-6.2999999999999998

>  <m_primary>  (29) 
energy

$$$$
29:0
     RDKit          3D

 30 32  0  0  0  0  0  0  0  0999 V2000
   -2.2860   24.5600  -28.8380 C   0  0  0  0  0  0  0  0  0  0  0  0
   -3.1660   25.2520  -29.7170 O   0  0  0  0  0  0  0  0  0  0  0  0
   -4.3900   24.7420  -30.1750 C   0  0  0  0  0  0  0  0  0  0  0  0
   -5.6090   25.4210  -29.9840 C   0  0  0  0  0  0  0  0  0  0  0  0
   -6.8000   24.8750  -30.4660 C   0  0  0  0  0  0  0  0  0  0  0  0
   -6.7910   23.6490  -31.1360 C   0  0  0  0  0  0  0  0  0  0  0  0
   -5.5860   22.9510  -31.3210 C   0  0  0  0  0  0  0  0  0  0  0  0
   -5.5600   21.6980  -32.0320 N   0  0  0  0  0  0  0  0  0  0  0  0
   -4.5760   21.4970  -32.9120 N   0  0  0  0  0  0  0  0  0  0  0  0
   -4.4790   20.3700  -33.6140 N   0  0  0  0  0  0  0  0  0  0  0  0
   -5.3790   19.3710  -33.4620 C   0  0  0  0  0  0  0  0  0  0  0  0
   -5.2580   18.1980  -34.2150 C   0  0  0  0  0  0  0  0  0  0  0  0
   -6.1850   17.1660  -34.0520 C   0  0  0  0  0  0  0  0  0  0  0  0
   -7.2330   17.3020  -33.1390 C   0  0  0  0  0  0  0  0  0  0  0  0
   -7.3620   18.4700  -32.3800 C   0  0  0  0  0  0  0  0  0  0  0  0
   -8.3940   18.5650  -31.5030 F   0  0  0  0  0  0  0  0  0  0  0  0
   -6.4310   19.5210  -32.5380 C   0  0  0  0  0  0  0  0  0  0  0  0
   -6.4950   20.7210  -31.8080 C   0  0  0  0  0  0  0  0  0  0  0  0
   -7.3960   20.8900  -30.9390 O   0  0  0  0  0  0  0  0  0  0  0  0
   -4.3890   23.5140  -30.8490 C   0  0  0  0  0  0  0  0  0  0  0  0
   -2.5628   24.7776  -27.7959 H   0  0  0  0  0  0  0  0  0  0  0  0
   -2.3628   23.4778  -29.0194 H   0  0  0  0  0  0  0  0  0  0  0  0
   -1.2524   24.8898  -29.0194 H   0  0  0  0  0  0  0  0  0  0  0  0
   -5.6227   26.3845  -29.4534 H   0  0  0  0  0  0  0  0  0  0  0  0
   -7.7486   25.4118  -30.3178 H   0  0  0  0  0  0  0  0  0  0  0  0
   -7.7319   23.2283  -31.5204 H   0  0  0  0  0  0  0  0  0  0  0  0
   -4.4335   18.0886  -34.9348 H   0  0  0  0  0  0  0  0  0  0  0  0
   -6.0894   16.2439  -34.6442 H   0  0  0  0  0  0  0  0  0  0  0  0
   -7.9608   16.4864  -33.0161 H   0  0  0  0  0  0  0  0  0  0  0  0
   -3.4388   22.9840  -31.0106 H   0  0  0  0  0  0  0  0  0  0  0  0
  1  2  1  0
  2  3  1  0
  3  4  2  0
  4  5  1  0
  5  6  2  0
  6  7  1  0
  7  8  1  0
  8  9  1  0
  9 10  2  0
 10 11  1  0
 11 12  2  0
 12 13  1  0
 13 14  2  0
 14 15  1  0
 15 16  1  0
 15 17  2  0
 17 18  1  0
 18 19  2  0
  7 20  2  0
 20  3  1  0
 18  8  1  0
 17 11  1  0
  1 21  1  0
  1 22  1  0
  1 23  1  0
  4 24  1  0
  5 25  1  0
  6 26  1  0
 12 27  1  0
 13 28  1  0
 14 29  1  0
 20 30  1  0
M  END
>  <UniqueID>  (30) 
30

>  <SMILES>  (30) 
COc1cccc(-n2nnc3cccc(F)c3c2=O)c1

>  <Energy>  (30) 
45.316600264236335

>  <Genealogy>  (30) 
COc1cccc(-n2nnc3cccc(F)c3c2=O)c1 (3D coordinates assigned)
COc1cccc(-n2nnc3cccc(F)c3c2=O)c1 (optimized conformer: 45.316600264236335 kcal/mol)

>  <smiles>  (30) 
COc1cccc(-n2nnc3cccc(F)c3c2=O)c1

>  <score_type>  (30) 
oracle

>  <origin>  (30) 
adg

>  <m_score__min__energy>  (30) 
-7.8899999999999997

>  <m_primary>  (30) 
energy

$$$$
30:0
     RDKit          3D

 47 51  0  0  1  0  0  0  0  0999 V2000
   -9.0990   20.8340  -31.5490 C   0  0  0  0  0  0  0  0  0  0  0  0
   -8.1920   21.9920  -31.2800 C   0  0  0  0  0  0  0  0  0  0  0  0
   -7.7260   22.7650  -32.3300 C   0  0  0  0  0  0  0  0  0  0  0  0
   -6.8790   23.8470  -32.0720 C   0  0  0  0  0  0  0  0  0  0  0  0
   -6.4920   24.1620  -30.7770 C   0  0  0  0  0  0  0  0  0  0  0  0
   -5.5970   25.3020  -30.4790 C   0  0  0  0  0  0  0  0  0  0  0  0
   -4.2130   25.0430  -30.7920 N   0  0  0  0  0  0  0  0  0  0  0  0
   -3.7570   23.8450  -30.6400 C   0  0  0  0  0  0  0  0  0  0  0  0
   -3.8220   22.8990  -31.5970 N   0  0  0  0  0  0  0  0  0  0  0  0
   -3.3410   21.6530  -31.4210 C   0  0  0  0  0  0  0  0  0  0  0  0
   -3.4410   20.6980  -32.4760 N   0  0  0  0  0  0  0  0  0  0  0  0
   -2.5250   20.3640  -33.4090 C   0  0  0  0  0  0  0  0  0  0  0  0
   -3.0060   19.4260  -34.2150 N   0  0  0  0  0  0  0  0  0  0  0  0
   -4.2540   19.1140  -33.8370 C   0  0  0  0  0  0  0  0  0  0  0  0
   -5.2330   18.2320  -34.2810 C   0  0  0  0  0  0  0  0  0  0  0  0
   -6.4430   18.1840  -33.6170 C   0  0  0  0  0  0  0  0  0  0  0  0
   -6.7060   18.9870  -32.5260 C   0  0  0  0  0  0  0  0  0  0  0  0
   -5.7230   19.8720  -32.0780 C   0  0  0  0  0  0  0  0  0  0  0  0
   -4.5180   19.9230  -32.7360 C   0  0  0  0  0  0  0  0  0  0  0  0
   -2.7620   21.2990  -30.2440 N   0  0  0  0  0  0  0  0  0  0  0  0
   -2.6610   22.1950  -29.2390 C   0  0  0  0  0  0  0  0  0  0  0  0
   -2.0670   21.8080  -28.0510 C   0  0  0  0  0  0  0  0  0  0  0  0
   -1.9690   22.7230  -27.0380 C   0  0  0  0  0  0  0  0  0  0  0  0
   -2.4630   24.0080  -27.2140 C   0  0  0  0  0  0  0  0  0  0  0  0
   -3.0450   24.3620  -28.3950 C   0  0  0  0  0  0  0  0  0  0  0  0
   -3.1570   23.4580  -29.4390 C   0  0  0  0  0  0  0  0  0  0  0  0
   -6.9740   23.3700  -29.7340 C   0  0  0  0  0  0  0  0  0  0  0  0
   -7.8210   22.2910  -30.0030 C   0  0  0  0  0  0  0  0  0  0  0  0
   -9.4364   20.4032  -30.5948 H   0  0  0  0  0  0  0  0  0  0  0  0
   -9.9710   21.1773  -32.1250 H   0  0  0  0  0  0  0  0  0  0  0  0
   -8.5568   20.0697  -32.1250 H   0  0  0  0  0  0  0  0  0  0  0  0
   -8.0210   22.5287  -33.3630 H   0  0  0  0  0  0  0  0  0  0  0  0
   -6.5131   24.4590  -32.9096 H   0  0  0  0  0  0  0  0  0  0  0  0
   -5.9306   26.1697  -31.0670 H   0  0  0  0  0  0  0  0  0  0  0  0
   -5.6554   25.4852  -29.3959 H   0  0  0  0  0  0  0  0  0  0  0  0
   -1.5213   20.8068  -33.4899 H   0  0  0  0  0  0  0  0  0  0  0  0
   -5.0464   17.5819  -35.1485 H   0  0  0  0  0  0  0  0  0  0  0  0
   -7.2182   17.4867  -33.9673 H   0  0  0  0  0  0  0  0  0  0  0  0
   -7.6786   18.9307  -32.0152 H   0  0  0  0  0  0  0  0  0  0  0  0
   -5.9111   20.5201  -31.2093 H   0  0  0  0  0  0  0  0  0  0  0  0
   -2.3840   20.3370  -30.0920 H   0  0  0  0  0  0  0  0  0  0  0  0
   -1.6814   20.7858  -27.9232 H   0  0  0  0  0  0  0  0  0  0  0  0
   -1.4989   22.4401  -26.0846 H   0  0  0  0  0  0  0  0  0  0  0  0
   -2.3848   24.7424  -26.3989 H   0  0  0  0  0  0  0  0  0  0  0  0
   -3.4326   25.3837  -28.5213 H   0  0  0  0  0  0  0  0  0  0  0  0
   -6.6864   23.5956  -28.6965 H   0  0  0  0  0  0  0  0  0  0  0  0
   -8.1936   21.6742  -29.1719 H   0  0  0  0  0  0  0  0  0  0  0  0
  1  2  1  0
  2  3  2  0
  3  4  1  0
  4  5  2  0
  5  6  1  0
  6  7  1  0
  7  8  2  0
  8  9  1  0
  9 10  2  0
 10 11  1  0
 11 12  1  0
 12 13  2  0
 13 14  1  0
 14 15  2  0
 15 16  1  0
 16 17  2  0
 17 18  1  0
 18 19  2  0
 10 20  1  0
 20 21  1  0
 21 22  2  0
 22 23  1  0
 23 24  2  0
 24 25  1  0
 25 26  2  0
  5 27  1  0
 27 28  2  0
 28  2  1  0
 26  8  1  0
 19 11  1  0
 26 21  1  0
 19 14  1  0
  1 29  1  0
  1 30  1  0
  1 31  1  0
  3 32  1  0
  4 33  1  0
  6 34  1  0
  6 35  1  0
 12 36  1  0
 15 37  1  0
 16 38  1  0
 17 39  1  0
 18 40  1  0
 20 41  1  0
 22 42  1  0
 23 43  1  0
 24 44  1  0
 25 45  1  0
 27 46  1  0
 28 47  1  0
M  END
>  <smiles>  (31) 
Cc1ccc(CN=c2nc(-n3cnc4ccccc43)[nH]c3ccccc23)cc1

>  <score_type>  (31) 
oracle

>  <origin>  (31) 
adg

>  <m_score__min__energy>  (31) 
-9.5399999999999991

>  <m_primary>  (31) 
energy

$$$$
31:0
     RDKit          3D

 42 44  0  0  0  0  0  0  0  0999 V2000
   -8.8620   21.2450  -31.7280 C   0  0  0  0  0  0  0  0  0  0  0  0
   -7.5410   21.3340  -32.2550 O   0  0  0  0  0  0  0  0  0  0  0  0
   -6.5720   22.2480  -31.8160 C   0  0  0  0  0  0  0  0  0  0  0  0
   -6.9050   23.4960  -31.2640 C   0  0  0  0  0  0  0  0  0  0  0  0
   -5.9000   24.3840  -30.8370 C   0  0  0  0  0  0  0  0  0  0  0  0
   -6.2100   25.6620  -30.3430 O   0  0  0  0  0  0  0  0  0  0  0  0
   -6.4690   25.9650  -28.9770 C   0  0  0  0  0  0  0  0  0  0  0  0
   -4.5480   23.9930  -30.9280 C   0  0  0  0  0  0  0  0  0  0  0  0
   -3.4870   24.8460  -30.4680 N   0  0  0  0  0  0  0  0  0  0  0  0
   -2.6280   24.6010  -29.3450 C   0  0  0  0  0  0  0  0  0  0  0  0
   -1.9420   25.5540  -28.8900 O   0  0  0  0  0  0  0  0  0  0  0  0
   -2.5110   23.2600  -28.7190 C   0  0  0  0  0  0  0  0  0  0  0  0
   -3.6000   22.7290  -28.0250 C   0  0  0  0  0  0  0  0  0  0  0  0
   -3.5250   21.4910  -27.4850 N   0  0  0  0  0  0  0  0  0  0  0  0
   -2.3990   20.7410  -27.5880 C   0  0  0  0  0  0  0  0  0  0  0  0
   -2.3780   19.4630  -27.0200 C   0  0  0  0  0  0  0  0  0  0  0  0
   -1.2250   18.6870  -27.1160 C   0  0  0  0  0  0  0  0  0  0  0  0
   -0.1080   19.1900  -27.7750 C   0  0  0  0  0  0  0  0  0  0  0  0
   -0.1540   20.4690  -28.3340 C   0  0  0  0  0  0  0  0  0  0  0  0
   -1.2890   21.2360  -28.2420 N   0  0  0  0  0  0  0  0  0  0  0  0
   -1.3320   22.4950  -28.7930 C   0  0  0  0  0  0  0  0  0  0  0  0
   -0.3070   22.9830  -29.3480 O   0  0  0  0  0  0  0  0  0  0  0  0
   -4.2080   22.7600  -31.5080 C   0  0  0  0  0  0  0  0  0  0  0  0
   -2.8490   22.4240  -31.6180 O   0  0  0  0  0  0  0  0  0  0  0  0
   -2.3610   21.1970  -32.1490 C   0  0  0  0  0  0  0  0  0  0  0  0
   -5.2260   21.8940  -31.9430 C   0  0  0  0  0  0  0  0  0  0  0  0
   -8.8192   21.2479  -30.6288 H   0  0  0  0  0  0  0  0  0  0  0  0
   -9.4536   22.1053  -32.0742 H   0  0  0  0  0  0  0  0  0  0  0  0
   -9.3329   20.3131  -32.0742 H   0  0  0  0  0  0  0  0  0  0  0  0
   -7.9624   23.7823  -31.1644 H   0  0  0  0  0  0  0  0  0  0  0  0
   -5.8889   25.2863  -28.3345 H   0  0  0  0  0  0  0  0  0  0  0  0
   -6.1765   27.0050  -28.7703 H   0  0  0  0  0  0  0  0  0  0  0  0
   -7.5419   25.8379  -28.7703 H   0  0  0  0  0  0  0  0  0  0  0  0
   -4.5219   23.3193  -27.9170 H   0  0  0  0  0  0  0  0  0  0  0  0
   -3.2660   19.0732  -26.5009 H   0  0  0  0  0  0  0  0  0  0  0  0
   -1.1980   17.6807  -26.6725 H   0  0  0  0  0  0  0  0  0  0  0  0
    0.8064   18.5838  -27.8554 H   0  0  0  0  0  0  0  0  0  0  0  0
    0.7298   20.8667  -28.8543 H   0  0  0  0  0  0  0  0  0  0  0  0
   -2.0923   20.5214  -31.3236 H   0  0  0  0  0  0  0  0  0  0  0  0
   -3.1413   20.7287  -32.7669 H   0  0  0  0  0  0  0  0  0  0  0  0
   -1.4722   21.3926  -32.7669 H   0  0  0  0  0  0  0  0  0  0  0  0
   -4.9597   20.9246  -32.3894 H   0  0  0  0  0  0  0  0  0  0  0  0
  1  2  1  0
  2  3  1  0
  3  4  2  0
  4  5  1  0
  5  6  1  0
  6  7  1  0
  5  8  2  0
  8  9  1  0
  9 10  1  0
 10 11  2  0
 10 12  1  0
 12 13  2  0
 13 14  1  0
 14 15  2  0
 15 16  1  0
 16 17  2  0
 17 18  1  0
 18 19  2  0
 19 20  1  0
 20 21  1  0
 21 22  2  0
  8 23  1  0
 23 24  1  0
 24 25  1  0
 23 26  2  0
 26  3  1  0
 21 12  1  0
 20 15  1  0
  1 27  1  0
  1 28  1  0
  1 29  1  0
  4 30  1  0
  7 31  1  0
  7 32  1  0
  7 33  1  0
 13 34  1  0
 16 35  1  0
 17 36  1  0
 18 37  1  0
 19 38  1  0
 25 39  1  0
 25 40  1  0
 25 41  1  0
 26 42  1  0
M  CHG  1   9  -1
M  END
>  <UniqueID>  (32) 
31

>  <SMILES>  (32) 
COc1cc(OC)c([N-]C(=O)c2cnc3ccccn3c2=O)c(OC)c1

>  <Energy>  (32) 
58.290077475213415

>  <Genealogy>  (32) 
COc1cc(OC)c([N-]C(=O)c2cnc3ccccn3c2=O)c(OC)c1 (protonated)
COc1cc(OC)c([N-]C(=O)c2cnc3ccccn3c2=O)c(OC)c1 (3D coordinates assigned)
COc1cc(OC)c([N-]C(=O)c2cnc3ccccn3c2=O)c(OC)c1 (optimized conformer: 58.290077475213415 kcal/mol)

>  <smiles>  (32) 
COc1cc(OC)c(NC(=O)c2cnc3ccccn3c2=O)c(OC)c1

>  <score_type>  (32) 
oracle

>  <origin>  (32) 
adg

>  <m_score__min__energy>  (32) 
-9.3399999999999999

>  <m_primary>  (32) 
energy

$$$$
32:0
     RDKit          3D

 48 50  0  0  0  0  0  0  0  0999 V2000
    0.9500   25.1330  -36.3770 C   0  0  0  0  0  0  0  0  0  0  0  0
    1.3420   23.8560  -36.8720 O   0  0  0  0  0  0  0  0  0  0  0  0
    1.3960   22.6890  -36.0950 C   0  0  0  0  0  0  0  0  0  0  0  0
    0.2450   22.0080  -35.6700 C   0  0  0  0  0  0  0  0  0  0  0  0
    0.3580   20.8600  -34.8790 C   0  0  0  0  0  0  0  0  0  0  0  0
   -0.8590   20.1440  -34.4370 C   0  0  0  0  0  0  0  0  0  0  0  0
   -2.0210   20.7730  -34.1640 N   0  0  0  0  0  0  0  0  0  0  0  0
   -2.8870   19.8020  -33.8060 C   0  0  0  0  0  0  0  0  0  0  0  0
   -4.3040   20.0260  -33.4250 C   0  0  0  0  0  0  0  0  0  0  0  0
   -5.2950   19.0890  -33.7610 C   0  0  0  0  0  0  0  0  0  0  0  0
   -6.6290   19.3010  -33.4030 C   0  0  0  0  0  0  0  0  0  0  0  0
   -7.0130   20.4570  -32.6940 C   0  0  0  0  0  0  0  0  0  0  0  0
   -8.3980   20.6760  -32.3200 N   0  0  0  0  0  0  0  0  0  0  0  0
   -9.4240   19.6740  -32.6320 C   0  0  0  0  0  0  0  0  0  0  0  0
   -8.7980   21.9060  -31.6230 C   0  0  0  0  0  0  0  0  0  0  0  0
   -6.0140   21.3920  -32.3570 C   0  0  0  0  0  0  0  0  0  0  0  0
   -4.6800   21.1810  -32.7180 C   0  0  0  0  0  0  0  0  0  0  0  0
   -2.2290   18.5850  -33.8570 C   0  0  0  0  0  0  0  0  0  0  0  0
   -0.9570   18.8070  -34.2380 N   0  0  0  0  0  0  0  0  0  0  0  0
    0.0770   17.7850  -34.3780 C   0  0  0  0  0  0  0  0  0  0  0  0
    1.6380   20.3860  -34.5550 C   0  0  0  0  0  0  0  0  0  0  0  0
    2.7540   21.0420  -34.9910 N   0  0  0  0  0  0  0  0  0  0  0  0
    4.0780   20.5510  -34.6040 C   0  0  0  0  0  0  0  0  0  0  0  0
    2.6470   22.1870  -35.7300 C   0  0  0  0  0  0  0  0  0  0  0  0
    0.9549   25.1172  -35.2771 H   0  0  0  0  0  0  0  0  0  0  0  0
    1.6548   25.8975  -36.7358 H   0  0  0  0  0  0  0  0  0  0  0  0
   -0.0624   25.3704  -36.7358 H   0  0  0  0  0  0  0  0  0  0  0  0
   -0.7494   22.3783  -35.9599 H   0  0  0  0  0  0  0  0  0  0  0  0
   -2.2090   21.7960  -34.2560 H   0  0  0  0  0  0  0  0  0  0  0  0
   -5.0179   18.1782  -34.3121 H   0  0  0  0  0  0  0  0  0  0  0  0
   -7.3897   18.5556  -33.6782 H   0  0  0  0  0  0  0  0  0  0  0  0
   -9.8381   19.2696  -31.6966 H   0  0  0  0  0  0  0  0  0  0  0  0
  -10.2290   20.1432  -33.2166 H   0  0  0  0  0  0  0  0  0  0  0  0
   -8.9739   18.8581  -33.2166 H   0  0  0  0  0  0  0  0  0  0  0  0
   -8.7457   21.7451  -30.5361 H   0  0  0  0  0  0  0  0  0  0  0  0
   -8.1198   22.7247  -31.9055 H   0  0  0  0  0  0  0  0  0  0  0  0
   -9.8280   22.1691  -31.9055 H   0  0  0  0  0  0  0  0  0  0  0  0
   -6.2878   22.3012  -31.8017 H   0  0  0  0  0  0  0  0  0  0  0  0
   -3.9176   21.9259  -32.4462 H   0  0  0  0  0  0  0  0  0  0  0  0
   -2.6701   17.6042  -33.6257 H   0  0  0  0  0  0  0  0  0  0  0  0
    0.4073   17.4586  -33.3808 H   0  0  0  0  0  0  0  0  0  0  0  0
   -0.3301   16.9246  -34.9293 H   0  0  0  0  0  0  0  0  0  0  0  0
    0.9326   18.2022  -34.9293 H   0  0  0  0  0  0  0  0  0  0  0  0
    1.7440   19.4774  -33.9440 H   0  0  0  0  0  0  0  0  0  0  0  0
    4.1525   20.5234  -33.5069 H   0  0  0  0  0  0  0  0  0  0  0  0
    4.2258   19.5383  -35.0072 H   0  0  0  0  0  0  0  0  0  0  0  0
    4.8504   21.2225  -35.0072 H   0  0  0  0  0  0  0  0  0  0  0  0
    3.5578   22.7197  -36.0411 H   0  0  0  0  0  0  0  0  0  0  0  0
  1  2  1  0
  2  3  1  0
  3  4  2  0
  4  5  1  0
  5  6  1  0
  6  7  2  0
  7  8  1  0
  8  9  1  0
  9 10  2  0
 10 11  1  0
 11 12  2  0
 12 13  1  0
 13 14  1  0
 13 15  1  0
 12 16  1  0
 16 17  2  0
  8 18  2  0
 18 19  1  0
 19 20  1  0
  5 21  2  0
 21 22  1  0
 22 23  1  0
 22 24  2  0
 24  3  1  0
 19  6  1  0
 17  9  1  0
  1 25  1  0
  1 26  1  0
  1 27  1  0
  4 28  1  0
  7 29  1  0
 10 30  1  0
 11 31  1  0
 14 32  1  0
 14 33  1  0
 14 34  1  0
 15 35  1  0
 15 36  1  0
 15 37  1  0
 16 38  1  0
 17 39  1  0
 18 40  1  0
 20 41  1  0
 20 42  1  0
 20 43  1  0
 21 44  1  0
 23 45  1  0
 23 46  1  0
 23 47  1  0
 24 48  1  0
M  CHG  2   7   1  22   1
M  END
>  <UniqueID>  (33) 
32

>  <SMILES>  (33) 
COc1cc(-c2[nH+]c(-c3ccc(N(C)C)cc3)cn2C)c[n+](C)c1

>  <Energy>  (33) 
87.73036176020985

>  <Genealogy>  (33) 
COc1cc(-c2[nH+]c(-c3ccc(N(C)C)cc3)cn2C)c[n+](C)c1 (protonated)
COc1cc(-c2[nH+]c(-c3ccc(N(C)C)cc3)cn2C)c[n+](C)c1 (3D coordinates assigned)
COc1cc(-c2[nH+]c(-c3ccc(N(C)C)cc3)cn2C)c[n+](C)c1 (optimized conformer: 87.73036176020985 kcal/mol)

>  <smiles>  (33) 
COc1cc(-c2nc(-c3ccc(N(C)C)cc3)cn2C)c[n+](C)c1

>  <score_type>  (33) 
oracle

>  <origin>  (33) 
adg

>  <m_score__min__energy>  (33) 
-6.0700000000000003

>  <m_primary>  (33) 
energy

$$$$
33:0
     RDKit          3D

 67 70  0  0  0  0  0  0  0  0999 V2000
   -1.8290   25.0800  -28.1320 C   0  0  0  0  0  0  0  0  0  0  0  0
   -2.5760   25.2920  -29.3270 O   0  0  0  0  0  0  0  0  0  0  0  0
   -3.7730   24.6300  -29.6400 C   0  0  0  0  0  0  0  0  0  0  0  0
   -4.1610   23.4330  -29.0120 C   0  0  0  0  0  0  0  0  0  0  0  0
   -5.3630   22.8120  -29.3610 C   0  0  0  0  0  0  0  0  0  0  0  0
   -6.1920   23.3730  -30.3460 C   0  0  0  0  0  0  0  0  0  0  0  0
   -7.4800   22.6960  -30.7400 C   0  0  0  0  0  0  0  0  0  0  0  0
   -7.5660   22.3470  -32.2490 C   0  0  0  0  0  0  0  0  0  0  0  0
   -6.8150   21.1440  -32.7030 N   0  0  0  0  0  0  0  0  0  0  0  0
   -7.6230   19.9060  -32.7130 C   0  0  0  0  0  0  0  0  0  0  0  0
   -6.8770   18.7740  -33.4560 C   0  0  0  0  0  0  0  0  0  0  0  0
   -5.4130   18.9900  -33.4830 N   0  0  0  0  0  0  0  0  0  0  0  0
   -4.7080   17.7380  -33.8270 C   0  0  0  0  0  0  0  0  0  0  0  0
   -3.4170   18.0350  -34.5940 C   0  0  0  0  0  0  0  0  0  0  0  0
   -2.9050   19.2990  -34.2140 O   0  0  0  0  0  0  0  0  0  0  0  0
   -1.6170   19.1900  -33.6280 C   0  0  0  0  0  0  0  0  0  0  0  0
   -1.5500   20.0380  -32.3750 C   0  0  0  0  0  0  0  0  0  0  0  0
   -2.1980   21.2840  -32.3250 C   0  0  0  0  0  0  0  0  0  0  0  0
   -2.1310   22.0690  -31.1710 C   0  0  0  0  0  0  0  0  0  0  0  0
   -1.4230   21.6170  -30.0550 C   0  0  0  0  0  0  0  0  0  0  0  0
   -1.3630   22.3780  -28.9350 F   0  0  0  0  0  0  0  0  0  0  0  0
   -0.7760   20.3780  -30.0950 C   0  0  0  0  0  0  0  0  0  0  0  0
   -0.8350   19.5930  -31.2490 C   0  0  0  0  0  0  0  0  0  0  0  0
   -0.5490   19.6440  -34.6050 C   0  0  0  0  0  0  0  0  0  0  0  0
   -0.3510   21.0080  -34.9020 C   0  0  0  0  0  0  0  0  0  0  0  0
    0.6530   21.4000  -35.7920 C   0  0  0  0  0  0  0  0  0  0  0  0
    1.4780   20.4420  -36.3840 C   0  0  0  0  0  0  0  0  0  0  0  0
    2.4490   20.8250  -37.2510 F   0  0  0  0  0  0  0  0  0  0  0  0
    1.3050   19.0880  -36.0830 C   0  0  0  0  0  0  0  0  0  0  0  0
    0.2960   18.6890  -35.2010 C   0  0  0  0  0  0  0  0  0  0  0  0
   -4.9480   19.5410  -32.1960 C   0  0  0  0  0  0  0  0  0  0  0  0
   -5.5280   20.9560  -31.9880 C   0  0  0  0  0  0  0  0  0  0  0  0
   -5.8110   24.5750  -30.9610 C   0  0  0  0  0  0  0  0  0  0  0  0
   -4.6080   25.1930  -30.6130 C   0  0  0  0  0  0  0  0  0  0  0  0
   -2.4734   25.2629  -27.2595 H   0  0  0  0  0  0  0  0  0  0  0  0
   -1.4637   24.0427  -28.1071 H   0  0  0  0  0  0  0  0  0  0  0  0
   -0.9733   25.7708  -28.1071 H   0  0  0  0  0  0  0  0  0  0  0  0
   -3.5155   22.9838  -28.2429 H   0  0  0  0  0  0  0  0  0  0  0  0
   -5.6616   21.8786  -28.8615 H   0  0  0  0  0  0  0  0  0  0  0  0
   -7.5733   21.7645  -30.1625 H   0  0  0  0  0  0  0  0  0  0  0  0
   -8.2935   23.4053  -30.5277 H   0  0  0  0  0  0  0  0  0  0  0  0
   -8.6267   22.1896  -32.4944 H   0  0  0  0  0  0  0  0  0  0  0  0
   -7.0940   23.1942  -32.7681 H   0  0  0  0  0  0  0  0  0  0  0  0
   -6.5660   21.3430  -33.7030 H   0  0  0  0  0  0  0  0  0  0  0  0
   -7.8159   19.5920  -31.6765 H   0  0  0  0  0  0  0  0  0  0  0  0
   -8.5713   20.1062  -33.2333 H   0  0  0  0  0  0  0  0  0  0  0  0
   -7.0847   17.8206  -32.9482 H   0  0  0  0  0  0  0  0  0  0  0  0
   -7.2347   18.7611  -34.4961 H   0  0  0  0  0  0  0  0  0  0  0  0
   -4.4615   17.1969  -32.9016 H   0  0  0  0  0  0  0  0  0  0  0  0
   -5.3644   17.1271  -34.4641 H   0  0  0  0  0  0  0  0  0  0  0  0
   -2.6723   17.2578  -34.3675 H   0  0  0  0  0  0  0  0  0  0  0  0
   -3.6330   18.0436  -35.6726 H   0  0  0  0  0  0  0  0  0  0  0  0
   -1.4376   18.1360  -33.3695 H   0  0  0  0  0  0  0  0  0  0  0  0
   -2.7610   21.6433  -33.1991 H   0  0  0  0  0  0  0  0  0  0  0  0
   -2.6370   23.0453  -31.1413 H   0  0  0  0  0  0  0  0  0  0  0  0
   -0.2195   20.0208  -29.2160 H   0  0  0  0  0  0  0  0  0  0  0  0
   -0.3194   18.6217  -31.2770 H   0  0  0  0  0  0  0  0  0  0  0  0
   -0.9907   21.7685  -34.4303 H   0  0  0  0  0  0  0  0  0  0  0  0
    0.7933   22.4655  -36.0264 H   0  0  0  0  0  0  0  0  0  0  0  0
    1.9636   18.3352  -36.5407 H   0  0  0  0  0  0  0  0  0  0  0  0
    0.1617   17.6216  -34.9714 H   0  0  0  0  0  0  0  0  0  0  0  0
   -5.2818   18.8864  -31.3774 H   0  0  0  0  0  0  0  0  0  0  0  0
   -3.8495   19.5982  -32.2032 H   0  0  0  0  0  0  0  0  0  0  0  0
   -5.6933   21.1167  -30.9124 H   0  0  0  0  0  0  0  0  0  0  0  0
   -4.8066   21.6802  -32.3942 H   0  0  0  0  0  0  0  0  0  0  0  0
   -6.4624   25.0324  -31.7203 H   0  0  0  0  0  0  0  0  0  0  0  0
   -4.3137   26.1304  -31.1076 H   0  0  0  0  0  0  0  0  0  0  0  0
  1  2  1  0
  2  3  1  0
  3  4  2  0
  4  5  1  0
  5  6  2  0
  6  7  1  0
  7  8  1  0
  8  9  1  0
  9 10  1  0
 10 11  1  0
 11 12  1  0
 12 13  1  0
 13 14  1  0
 14 15  1  0
 15 16  1  0
 16 17  1  0
 17 18  2  0
 18 19  1  0
 19 20  2  0
 20 21  1  0
 20 22  1  0
 22 23  2  0
 16 24  1  0
 24 25  2  0
 25 26  1  0
 26 27  2  0
 27 28  1  0
 27 29  1  0
 29 30  2  0
 12 31  1  0
 31 32  1  0
  6 33  1  0
 33 34  2  0
 34  3  1  0
 32  9  1  0
 23 17  1  0
 30 24  1  0
  1 35  1  0
  1 36  1  0
  1 37  1  0
  4 38  1  0
  5 39  1  0
  7 40  1  0
  7 41  1  0
  8 42  1  0
  8 43  1  0
  9 44  1  0
 10 45  1  0
 10 46  1  0
 11 47  1  0
 11 48  1  0
 13 49  1  0
 13 50  1  0
 14 51  1  0
 14 52  1  0
 16 53  1  0
 18 54  1  0
 19 55  1  0
 22 56  1  0
 23 57  1  0
 25 58  1  0
 26 59  1  0
 29 60  1  0
 30 61  1  0
 31 62  1  0
 31 63  1  0
 32 64  1  0
 32 65  1  0
 33 66  1  0
 34 67  1  0
M  CHG  1   9   1
M  END
>  <UniqueID>  (34) 
33

>  <SMILES>  (34) 
COc1ccc(CC[NH+]2CCN(CCOC(c3ccc(F)cc3)c3ccc(F)cc3)CC2)cc1

>  <Energy>  (34) 
86.00414460209039

>  <Genealogy>  (34) 
COc1ccc(CC[NH+]2CCN(CCOC(c3ccc(F)cc3)c3ccc(F)cc3)CC2)cc1 (protonated)
COc1ccc(CC[NH+]2CCN(CCOC(c3ccc(F)cc3)c3ccc(F)cc3)CC2)cc1 (3D coordinates assigned)
COc1ccc(CC[NH+]2CCN(CCOC(c3ccc(F)cc3)c3ccc(F)cc3)CC2)cc1 (nonaromatic ring conformer: 86.00414460209039 kcal/mol)

>  <smiles>  (34) 
COc1ccc(CCN2CCN(CCOC(c3ccc(F)cc3)c3ccc(F)cc3)CC2)cc1

>  <score_type>  (34) 
oracle

>  <origin>  (34) 
adg

>  <m_score__min__energy>  (34) 
-8.5099999999999998

>  <m_primary>  (34) 
energy

$$$$
34:0
     RDKit          3D

 50 54  0  0  0  0  0  0  0  0999 V2000
   -0.3820   27.8490  -24.3900 C   0  0  0  0  0  0  0  0  0  0  0  0
   -1.4380   27.6770  -25.3290 O   0  0  0  0  0  0  0  0  0  0  0  0
   -1.5740   26.5640  -26.1710 C   0  0  0  0  0  0  0  0  0  0  0  0
   -2.5470   25.5690  -25.9580 C   0  0  0  0  0  0  0  0  0  0  0  0
   -2.6420   24.4780  -26.8280 C   0  0  0  0  0  0  0  0  0  0  0  0
   -1.7740   24.3680  -27.9240 C   0  0  0  0  0  0  0  0  0  0  0  0
   -1.8660   23.2090  -28.8370 C   0  0  0  0  0  0  0  0  0  0  0  0
   -2.7110   23.0490  -29.9430 C   0  0  0  0  0  0  0  0  0  0  0  0
   -3.6340   24.0780  -30.4720 C   0  0  0  0  0  0  0  0  0  0  0  0
   -3.4690   25.2910  -30.1800 O   0  0  0  0  0  0  0  0  0  0  0  0
   -4.6980   23.7200  -31.2900 O   0  0  0  0  0  0  0  0  0  0  0  0
   -2.5360   21.8120  -30.4890 N   0  0  0  0  0  0  0  0  0  0  0  0
   -3.2230   21.2630  -31.6610 C   0  0  0  0  0  0  0  0  0  0  0  0
   -1.6170   21.1860  -29.7190 C   0  0  0  0  0  0  0  0  0  0  0  0
   -1.1410   19.8750  -29.8340 C   0  0  0  0  0  0  0  0  0  0  0  0
   -0.1940   19.4130  -28.8920 C   0  0  0  0  0  0  0  0  0  0  0  0
    0.3380   18.0280  -28.9820 C   0  0  0  0  0  0  0  0  0  0  0  0
    0.8630   17.3930  -27.8420 C   0  0  0  0  0  0  0  0  0  0  0  0
    1.3650   16.0910  -27.9190 C   0  0  0  0  0  0  0  0  0  0  0  0
    1.3500   15.4010  -29.1380 C   0  0  0  0  0  0  0  0  0  0  0  0
    1.8490   14.0950  -29.2320 C   0  0  0  0  0  0  0  0  0  0  0  0
    1.8210   13.4380  -30.4640 C   0  0  0  0  0  0  0  0  0  0  0  0
    1.3120   14.0600  -31.5600 N   0  0  0  0  0  0  0  0  0  0  0  0
    0.8200   15.3270  -31.5030 C   0  0  0  0  0  0  0  0  0  0  0  0
    0.8260   16.0290  -30.2900 C   0  0  0  0  0  0  0  0  0  0  0  0
    0.3230   17.3350  -30.2060 C   0  0  0  0  0  0  0  0  0  0  0  0
    0.2380   20.2800  -27.8560 C   0  0  0  0  0  0  0  0  0  0  0  0
   -0.2640   21.5870  -27.7560 C   0  0  0  0  0  0  0  0  0  0  0  0
   -1.1850   22.0120  -28.7120 C   0  0  0  0  0  0  0  0  0  0  0  0
   -0.8020   25.3560  -28.1330 C   0  0  0  0  0  0  0  0  0  0  0  0
   -0.7060   26.4460  -27.2640 C   0  0  0  0  0  0  0  0  0  0  0  0
   -0.7852   27.7833  -23.3687 H   0  0  0  0  0  0  0  0  0  0  0  0
    0.3720   27.0618  -24.5379 H   0  0  0  0  0  0  0  0  0  0  0  0
    0.0832   28.8348  -24.5379 H   0  0  0  0  0  0  0  0  0  0  0  0
   -3.2353   25.6500  -25.1038 H   0  0  0  0  0  0  0  0  0  0  0  0
   -3.4016   23.7021  -26.6516 H   0  0  0  0  0  0  0  0  0  0  0  0
   -4.0429   20.6078  -31.3318 H   0  0  0  0  0  0  0  0  0  0  0  0
   -3.6316   22.0862  -32.2655 H   0  0  0  0  0  0  0  0  0  0  0  0
   -2.5102   20.6829  -32.2655 H   0  0  0  0  0  0  0  0  0  0  0  0
   -1.4966   19.2176  -30.6410 H   0  0  0  0  0  0  0  0  0  0  0  0
    0.8786   17.9266  -26.8802 H   0  0  0  0  0  0  0  0  0  0  0  0
    1.7731   15.6066  -27.0197 H   0  0  0  0  0  0  0  0  0  0  0  0
    2.2589   13.5920  -28.3438 H   0  0  0  0  0  0  0  0  0  0  0  0
    2.2123   12.4134  -30.5477 H   0  0  0  0  0  0  0  0  0  0  0  0
    0.4170   15.8011  -32.4101 H   0  0  0  0  0  0  0  0  0  0  0  0
   -0.0863   17.8213  -31.1038 H   0  0  0  0  0  0  0  0  0  0  0  0
    0.9756   19.9238  -27.1218 H   0  0  0  0  0  0  0  0  0  0  0  0
    0.0603   22.2569  -26.9460 H   0  0  0  0  0  0  0  0  0  0  0  0
   -0.1115   25.2729  -28.9852 H   0  0  0  0  0  0  0  0  0  0  0  0
    0.0577   27.2179  -27.4397 H   0  0  0  0  0  0  0  0  0  0  0  0
  1  2  1  0
  2  3  1  0
  3  4  2  0
  4  5  1  0
  5  6  2  0
  6  7  1  0
  7  8  2  0
  8  9  1  0
  9 10  2  0
  9 11  1  0
  8 12  1  0
 12 13  1  0
 12 14  1  0
 14 15  2  0
 15 16  1  0
 16 17  1  0
 17 18  2  0
 18 19  1  0
 19 20  2  0
 20 21  1  0
 21 22  2  0
 22 23  1  0
 23 24  2  0
 24 25  1  0
 25 26  2  0
 16 27  2  0
 27 28  1  0
 28 29  2  0
  6 30  1  0
 30 31  2  0
 31  3  1  0
 29  7  1  0
 29 14  1  0
 26 17  1  0
 25 20  1  0
  1 32  1  0
  1 33  1  0
  1 34  1  0
  4 35  1  0
  5 36  1  0
 13 37  1  0
 13 38  1  0
 13 39  1  0
 15 40  1  0
 18 41  1  0
 19 42  1  0
 21 43  1  0
 22 44  1  0
 24 45  1  0
 26 46  1  0
 27 47  1  0
 28 48  1  0
 30 49  1  0
 31 50  1  0
M  CHG  1  11  -1
M  END
>  <UniqueID>  (35) 
34

>  <SMILES>  (35) 
COc1ccc(-c2c(C(=O)[O-])n(C)c3cc(-c4ccc5ccncc5c4)ccc23)cc1

>  <Energy>  (35) 
107.97466454234579

>  <Genealogy>  (35) 
COc1ccc(-c2c(C(=O)[O-])n(C)c3cc(-c4ccc5ccncc5c4)ccc23)cc1 (protonated)
COc1ccc(-c2c(C(=O)[O-])n(C)c3cc(-c4ccc5ccncc5c4)ccc23)cc1 (3D coordinates assigned)
COc1ccc(-c2c(C(=O)[O-])n(C)c3cc(-c4ccc5ccncc5c4)ccc23)cc1 (optimized conformer: 107.97466454234579 kcal/mol)

>  <smiles>  (35) 
COc1ccc(-c2c(C(=O)O)n(C)c3cc(-c4ccc5ccncc5c4)ccc23)cc1

>  <score_type>  (35) 
oracle

>  <origin>  (35) 
adg

>  <m_score__min__energy>  (35) 
-9.4100000000000001

>  <m_primary>  (35) 
energy

$$$$
35:0
     RDKit          3D

 44 46  0  0  0  0  0  0  0  0999 V2000
   -7.0869   18.5343  -33.6269 H   0  0  0  0  0  0  0  0  0  0  0  0
   -7.0200   19.5030  -33.1100 C   0  0  0  0  0  0  0  0  0  0  0  0
   -8.1890   20.0850  -32.5530 C   0  0  0  0  0  0  0  0  0  0  0  0
   -9.5130   19.3980  -32.7020 C   0  0  0  0  0  0  0  0  0  0  0  0
   -9.9283   19.1825  -31.7065 H   0  0  0  0  0  0  0  0  0  0  0  0
  -10.2048   20.0509  -33.2544 H   0  0  0  0  0  0  0  0  0  0  0  0
   -9.3774   18.4565  -33.2544 H   0  0  0  0  0  0  0  0  0  0  0  0
   -8.1120   21.3410  -31.9120 C   0  0  0  0  0  0  0  0  0  0  0  0
   -9.0089   21.8175  -31.4895 H   0  0  0  0  0  0  0  0  0  0  0  0
   -6.8660   21.9580  -31.8310 C   0  0  0  0  0  0  0  0  0  0  0  0
   -6.5720   23.1310  -31.2400 N   0  0  0  0  0  0  0  0  0  0  0  0
   -5.2300   23.2360  -31.4410 C   0  0  0  0  0  0  0  0  0  0  0  0
   -4.5160   24.2310  -31.0020 N   0  0  0  0  0  0  0  0  0  0  0  0
   -4.7080   24.8820  -29.7070 C   0  0  0  0  0  0  0  0  0  0  0  0
   -3.9775   25.6981  -29.6054 H   0  0  0  0  0  0  0  0  0  0  0  0
   -5.7366   25.2695  -29.6647 H   0  0  0  0  0  0  0  0  0  0  0  0
   -4.5170   23.8930  -28.5450 C   0  0  0  0  0  0  0  0  0  0  0  0
   -5.4977   23.4728  -28.2771 H   0  0  0  0  0  0  0  0  0  0  0  0
   -3.8172   23.1155  -28.8853 H   0  0  0  0  0  0  0  0  0  0  0  0
   -3.9070   24.5470  -27.2970 C   0  0  0  0  0  0  0  0  0  0  0  0
   -3.8670   25.6365  -27.4434 H   0  0  0  0  0  0  0  0  0  0  0  0
   -4.5338   24.3013  -26.4271 H   0  0  0  0  0  0  0  0  0  0  0  0
   -2.5360   24.0380  -27.0550 N   0  0  0  0  0  0  0  0  0  0  0  0
   -1.6300   25.0940  -26.5640 C   0  0  0  0  0  0  0  0  0  0  0  0
   -2.1166   25.6224  -25.7309 H   0  0  0  0  0  0  0  0  0  0  0  0
   -0.6943   24.6180  -26.2356 H   0  0  0  0  0  0  0  0  0  0  0  0
   -1.2880   26.1160  -27.6750 C   0  0  0  0  0  0  0  0  0  0  0  0
   -1.8571   27.0388  -27.4891 H   0  0  0  0  0  0  0  0  0  0  0  0
   -0.2021   26.2877  -27.6398 H   0  0  0  0  0  0  0  0  0  0  0  0
   -1.6000   25.6480  -28.9760 O   0  0  0  0  0  0  0  0  0  0  0  0
   -1.1500   24.3190  -29.1350 C   0  0  0  0  0  0  0  0  0  0  0  0
   -1.2678   24.0208  -30.1872 H   0  0  0  0  0  0  0  0  0  0  0  0
   -0.0915   24.2653  -28.8407 H   0  0  0  0  0  0  0  0  0  0  0  0
   -1.9640   23.3600  -28.2420 C   0  0  0  0  0  0  0  0  0  0  0  0
   -2.7867   22.9367  -28.8370 H   0  0  0  0  0  0  0  0  0  0  0  0
   -1.2803   22.5768  -27.8825 H   0  0  0  0  0  0  0  0  0  0  0  0
   -4.6960   22.1980  -32.1340 N   0  0  0  0  0  0  0  0  0  0  0  0
   -3.2890   21.9500  -32.4430 C   0  0  0  0  0  0  0  0  0  0  0  0
   -2.7202   21.8497  -31.5069 H   0  0  0  0  0  0  0  0  0  0  0  0
   -3.1999   21.0223  -33.0273 H   0  0  0  0  0  0  0  0  0  0  0  0
   -2.8881   22.7913  -33.0273 H   0  0  0  0  0  0  0  0  0  0  0  0
   -5.7440   21.3880  -32.3600 C   0  0  0  0  0  0  0  0  0  0  0  0
   -5.7760   20.1540  -33.0070 C   0  0  0  0  0  0  0  0  0  0  0  0
   -4.8619   19.7047  -33.4224 H   0  0  0  0  0  0  0  0  0  0  0  0
  1  2  1  0
  2  3  2  0
  3  4  1  0
  4  5  1  0
  4  6  1  0
  4  7  1  0
  3  8  1  0
  8  9  1  0
  8 10  2  0
 10 11  1  0
 11 12  1  0
 12 13  2  0
 13 14  1  0
 14 15  1  0
 14 16  1  0
 14 17  1  0
 17 18  1  0
 17 19  1  0
 17 20  1  0
 20 21  1  0
 20 22  1  0
 20 23  1  0
 23 24  1  0
 24 25  1  0
 24 26  1  0
 24 27  1  0
 27 28  1  0
 27 29  1  0
 27 30  1  0
 30 31  1  0
 31 32  1  0
 31 33  1  0
 31 34  1  0
 34 35  1  0
 34 36  1  0
 12 37  1  0
 37 38  1  0
 38 39  1  0
 38 40  1  0
 38 41  1  0
 37 42  1  0
 42 43  2  0
 43 44  1  0
 43  2  1  0
 42 10  1  0
 34 23  1  0
M  CHG  1  11  -1
M  END
>  <UniqueID>  (36) 
35

>  <SMILES>  (36) 
Cc1ccc2c(c1)[n-]/c(=N\CCCN1CCOCC1)n2C

>  <Energy>  (36) 
89.77674179707121

>  <Genealogy>  (36) 
Cc1ccc2c(c1)[n-]c(=NCCCN1CCOCC1)n2C (protonated)
Cc1ccc2c(c1)[n-]/c(=N\CCCN1CCOCC1)n2C (cis-trans isomerization)
Cc1ccc2c(c1)[n-]/c(=N\CCCN1CCOCC1)n2C (3D coordinates assigned)
Cc1ccc2c(c1)[n-]/c(=N\CCCN1CCOCC1)n2C (nonaromatic ring conformer: 89.77674179707121 kcal/mol)

>  <smiles>  (36) 
Cc1ccc2c(c1)[nH]c(=NCCCN1CCOCC1)n2C

>  <score_type>  (36) 
oracle

>  <origin>  (36) 
adg

>  <m_score__min__energy>  (36) 
-8.4399999999999995

>  <m_primary>  (36) 
energy

$$$$
36:0
     RDKit          3D

 33 34  0  0  0  0  0  0  0  0999 V2000
   -4.4890   18.6690  -33.1520 C   0  0  0  0  0  0  0  0  0  0  0  0
   -5.7840   18.1920  -33.6610 N   0  0  0  0  0  0  0  0  0  0  0  0
   -5.6270   17.4910  -34.9450 C   0  0  0  0  0  0  0  0  0  0  0  0
   -6.5450   17.4100  -32.6610 C   0  0  0  0  0  0  0  0  0  0  0  0
   -7.9150   18.0230  -32.2790 C   0  0  0  0  0  0  0  0  0  0  0  0
   -8.2500   19.1830  -33.1210 N   0  0  0  0  0  0  0  0  0  0  0  0
   -8.0650   20.4190  -32.4120 C   0  0  0  0  0  0  0  0  0  0  0  0
   -9.0680   21.1490  -31.7870 C   0  0  0  0  0  0  0  0  0  0  0  0
   -8.6000   22.3340  -31.2080 C   0  0  0  0  0  0  0  0  0  0  0  0
   -7.2290   22.5380  -31.3830 C   0  0  0  0  0  0  0  0  0  0  0  0
   -6.4440   23.6910  -30.8950 C   0  0  0  0  0  0  0  0  0  0  0  0
   -6.9700   24.7090  -30.0810 C   0  0  0  0  0  0  0  0  0  0  0  0
   -6.0480   25.6910  -29.7470 C   0  0  0  0  0  0  0  0  0  0  0  0
   -4.5810   25.2950  -30.4640 S   0  0  0  0  0  0  0  0  0  0  0  0
   -5.0990   23.8780  -31.2030 C   0  0  0  0  0  0  0  0  0  0  0  0
   -6.6030   21.2380  -32.2610 S   0  0  0  0  0  0  0  0  0  0  0  0
   -4.5029   18.6639  -32.0521 H   0  0  0  0  0  0  0  0  0  0  0  0
   -3.6874   18.0071  -33.5116 H   0  0  0  0  0  0  0  0  0  0  0  0
   -4.3082   19.6927  -33.5116 H   0  0  0  0  0  0  0  0  0  0  0  0
   -5.3901   16.4331  -34.7586 H   0  0  0  0  0  0  0  0  0  0  0  0
   -6.5632   17.5616  -35.5182 H   0  0  0  0  0  0  0  0  0  0  0  0
   -4.8103   17.9542  -35.5182 H   0  0  0  0  0  0  0  0  0  0  0  0
   -6.7201   16.4044  -33.0711 H   0  0  0  0  0  0  0  0  0  0  0  0
   -5.9388   17.3985  -31.7432 H   0  0  0  0  0  0  0  0  0  0  0  0
   -8.6945   17.2568  -32.4024 H   0  0  0  0  0  0  0  0  0  0  0  0
   -7.8571   18.3644  -31.2349 H   0  0  0  0  0  0  0  0  0  0  0  0
   -9.2570   19.1160  -33.4000 H   0  0  0  0  0  0  0  0  0  0  0  0
   -7.6730   19.1780  -33.9950 H   0  0  0  0  0  0  0  0  0  0  0  0
  -10.1199   20.8292  -31.7510 H   0  0  0  0  0  0  0  0  0  0  0  0
   -9.2496   23.0376  -30.6668 H   0  0  0  0  0  0  0  0  0  0  0  0
   -8.0157   24.7258  -29.7402 H   0  0  0  0  0  0  0  0  0  0  0  0
   -6.2436   26.5747  -29.1218 H   0  0  0  0  0  0  0  0  0  0  0  0
   -4.4815   23.2121  -31.8237 H   0  0  0  0  0  0  0  0  0  0  0  0
  1  2  1  0
  2  3  1  0
  2  4  1  0
  4  5  1  0
  5  6  1  0
  6  7  1  0
  7  8  2  0
  8  9  1  0
  9 10  2  0
 10 11  1  0
 11 12  1  0
 12 13  2  0
 13 14  1  0
 14 15  1  0
 10 16  1  0
 16  7  1  0
 15 11  2  0
  1 17  1  0
  1 18  1  0
  1 19  1  0
  3 20  1  0
  3 21  1  0
  3 22  1  0
  4 23  1  0
  4 24  1  0
  5 25  1  0
  5 26  1  0
  6 27  1  0
  6 28  1  0
  8 29  1  0
  9 30  1  0
 12 31  1  0
 13 32  1  0
 15 33  1  0
M  CHG  1   6   1
M  END
>  <UniqueID>  (37) 
36

>  <SMILES>  (37) 
CN(C)CC[NH2+]c1ccc(-c2ccsc2)s1

>  <Energy>  (37) 
87.35685056040647

>  <Genealogy>  (37) 
CN(C)CC[NH2+]c1ccc(-c2ccsc2)s1 (protonated)
CN(C)CC[NH2+]c1ccc(-c2ccsc2)s1 (3D coordinates assigned)
CN(C)CC[NH2+]c1ccc(-c2ccsc2)s1 (optimized conformer: 87.35685056040647 kcal/mol)

>  <smiles>  (37) 
CN(C)CCNc1ccc(-c2ccsc2)s1

>  <score_type>  (37) 
oracle

>  <origin>  (37) 
adg

>  <m_score__min__energy>  (37) 
-6.2599999999999998

>  <m_primary>  (37) 
energy

$$$$
37:0
     RDKit          3D

 30 32  0  0  0  0  0  0  0  0999 V2000
   -8.0140   17.8940  -32.3000 C   0  0  0  0  0  0  0  0  0  0  0  0
   -8.9720   18.6690  -31.7360 N   0  0  0  0  0  0  0  0  0  0  0  0
   -8.4390   19.9040  -31.8490 C   0  0  0  0  0  0  0  0  0  0  0  0
   -7.2230   19.8740  -32.4140 N   0  0  0  0  0  0  0  0  0  0  0  0
   -6.9600   18.6200  -32.7180 N   0  0  0  0  0  0  0  0  0  0  0  0
   -6.4060   21.0350  -32.7630 C   0  0  0  0  0  0  0  0  0  0  0  0
   -6.8420   22.2630  -31.9370 C   0  0  1  0  0  0  0  0  0  0  0  0
   -6.1850   23.4670  -32.4910 N   0  0  0  0  0  0  0  0  0  0  0  0
   -6.1090   24.5820  -31.5350 C   0  0  0  0  0  0  0  0  0  0  0  0
   -5.0990   24.3250  -30.4530 C   0  0  0  0  0  0  0  0  0  0  0  0
   -5.3770   23.5680  -29.3170 C   0  0  0  0  0  0  0  0  0  0  0  0
   -4.0030   23.5840  -28.3520 S   0  0  0  0  0  0  0  0  0  0  0  0
   -3.1180   24.5440  -29.4090 C   0  0  0  0  0  0  0  0  0  0  0  0
   -3.8510   24.8670  -30.4960 N   0  0  0  0  0  0  0  0  0  0  0  0
   -8.3880   22.3910  -31.9550 C   0  0  0  0  0  0  0  0  0  0  0  0
   -9.0610   21.1610  -31.3240 C   0  0  0  0  0  0  0  0  0  0  0  0
   -8.0887   16.8015  -32.4040 H   0  0  0  0  0  0  0  0  0  0  0  0
   -6.1000   18.2750  -33.2000 H   0  0  0  0  0  0  0  0  0  0  0  0
   -5.3496   20.8122  -32.5522 H   0  0  0  0  0  0  0  0  0  0  0  0
   -6.5376   21.2573  -33.8322 H   0  0  0  0  0  0  0  0  0  0  0  0
   -6.5346   22.1485  -30.8870 H   0  0  0  0  0  0  0  0  0  0  0  0
   -6.6450   23.7850  -33.3760 H   0  0  0  0  0  0  0  0  0  0  0  0
   -5.8248   25.4961  -32.0768 H   0  0  0  0  0  0  0  0  0  0  0  0
   -7.0955   24.6922  -31.0610 H   0  0  0  0  0  0  0  0  0  0  0  0
   -6.3234   23.0539  -29.0932 H   0  0  0  0  0  0  0  0  0  0  0  0
   -2.0802   24.8663  -29.2384 H   0  0  0  0  0  0  0  0  0  0  0  0
   -8.6793   23.2880  -31.3888 H   0  0  0  0  0  0  0  0  0  0  0  0
   -8.7166   22.4659  -33.0021 H   0  0  0  0  0  0  0  0  0  0  0  0
   -8.9364   21.1992  -30.2317 H   0  0  0  0  0  0  0  0  0  0  0  0
  -10.1306   21.1662  -31.5808 H   0  0  0  0  0  0  0  0  0  0  0  0
  1  2  1  0
  2  3  2  0
  3  4  1  0
  4  5  1  0
  4  6  1  0
  6  7  1  0
  7  8  1  0
  8  9  1  0
  9 10  1  0
 10 11  2  0
 11 12  1  0
 12 13  1  0
 13 14  2  0
  7 15  1  0
 15 16  1  0
  5  1  2  0
 14 10  1  0
 16  3  1  0
  1 17  1  0
  5 18  1  0
  6 19  1  0
  6 20  1  0
  7 21  1  1
  8 22  1  0
  9 23  1  0
  9 24  1  0
 11 25  1  0
 13 26  1  0
 15 27  1  0
 15 28  1  0
 16 29  1  0
 16 30  1  0
M  CHG  1   5   1
M  END
>  <UniqueID>  (38) 
37

>  <SMILES>  (38) 
c1nc2n([nH+]1)C[C@@H](NCc1cscn1)CC2

>  <Energy>  (38) 
94.59689593623703

>  <Genealogy>  (38) 
c1nc2n([nH+]1)CC(NCc1cscn1)CC2 (protonated)
c1nc2n([nH+]1)C[C@@H](NCc1cscn1)CC2 (chirality)
c1nc2n([nH+]1)C[C@@H](NCc1cscn1)CC2 (3D coordinates assigned)
c1nc2n([nH+]1)C[C@@H](NCc1cscn1)CC2 (nonaromatic ring conformer: 94.59689593623703 kcal/mol)

>  <smiles>  (38) 
c1nc2n(n1)CC(NCc1cscn1)CC2

>  <score_type>  (38) 
oracle

>  <origin>  (38) 
adg

>  <m_score__min__energy>  (38) 
-6.4900000000000002

>  <m_primary>  (38) 
energy

$$$$
38:0
     RDKit          3D

 63 66  0  0  0  0  0  0  0  0999 V2000
   -3.1410   21.9160  -30.1250 C   0  0  0  0  0  0  0  0  0  0  0  0
   -4.0760   23.0340  -30.5120 C   0  0  0  0  0  0  0  0  0  0  0  0
   -4.1090   24.2200  -29.7390 C   0  0  0  0  0  0  0  0  0  0  0  0
   -3.2410   24.3430  -28.6000 N   0  0  0  0  0  0  0  0  0  0  0  0
   -1.5310   24.6210  -28.6620 S   0  0  0  0  0  0  0  0  0  0  0  0
   -0.8240   24.2150  -27.0810 C   0  0  0  0  0  0  0  0  0  0  0  0
   -0.9080   23.7510  -29.7170 O   0  0  0  0  0  0  0  0  0  0  0  0
   -1.2620   26.0680  -28.9620 O   0  0  0  0  0  0  0  0  0  0  0  0
   -4.9930   25.2540  -30.0930 C   0  0  0  0  0  0  0  0  0  0  0  0
   -5.8500   25.1120  -31.1820 C   0  0  0  0  0  0  0  0  0  0  0  0
   -5.8480   23.9350  -31.9240 C   0  0  0  0  0  0  0  0  0  0  0  0
   -4.9710   22.8880  -31.6020 C   0  0  0  0  0  0  0  0  0  0  0  0
   -5.0380   21.6620  -32.3590 N   0  0  0  0  0  0  0  0  0  0  0  0
   -6.3380   20.9680  -32.3800 C   0  0  0  0  0  0  0  0  0  0  0  0
   -6.2060   19.5040  -32.7200 C   0  0  0  0  0  0  0  0  0  0  0  0
   -6.1890   18.5380  -31.6990 C   0  0  0  0  0  0  0  0  0  0  0  0
   -6.1030   17.1790  -32.0160 C   0  0  0  0  0  0  0  0  0  0  0  0
   -6.0330   16.7750  -33.3520 C   0  0  0  0  0  0  0  0  0  0  0  0
   -6.0400   17.7300  -34.3730 C   0  0  0  0  0  0  0  0  0  0  0  0
   -6.1220   19.0900  -34.0590 C   0  0  0  0  0  0  0  0  0  0  0  0
   -4.0720   21.4680  -33.4560 C   0  0  0  0  0  0  0  0  0  0  0  0
   -2.8140   20.8080  -32.9540 C   0  0  0  0  0  0  0  0  0  0  0  0
   -1.6270   21.5440  -32.8400 C   0  0  0  0  0  0  0  0  0  0  0  0
   -0.4780   20.9540  -32.3060 C   0  0  0  0  0  0  0  0  0  0  0  0
   -0.4920   19.6090  -31.8930 C   0  0  0  0  0  0  0  0  0  0  0  0
    0.7200   18.9910  -31.2950 C   0  0  0  0  0  0  0  0  0  0  0  0
    1.9510   19.0560  -31.9690 C   0  0  0  0  0  0  0  0  0  0  0  0
    3.0850   18.4890  -31.3900 C   0  0  0  0  0  0  0  0  0  0  0  0
    2.9890   17.8500  -30.1550 C   0  0  0  0  0  0  0  0  0  0  0  0
    1.7430   17.7700  -29.5110 C   0  0  0  0  0  0  0  0  0  0  0  0
    1.6160   17.1150  -28.1590 C   0  0  0  0  0  0  0  0  0  0  0  0
    0.3500   17.2890  -27.6300 F   0  0  0  0  0  0  0  0  0  0  0  0
    2.5310   17.6670  -27.2800 F   0  0  0  0  0  0  0  0  0  0  0  0
    1.8700   15.7620  -28.2830 F   0  0  0  0  0  0  0  0  0  0  0  0
    0.6500   18.3570  -30.0850 N   0  0  0  0  0  0  0  0  0  0  0  0
   -1.6710   18.8600  -32.0560 C   0  0  0  0  0  0  0  0  0  0  0  0
   -2.8170   19.4530  -32.5910 C   0  0  0  0  0  0  0  0  0  0  0  0
   -3.0844   21.8483  -29.0285 H   0  0  0  0  0  0  0  0  0  0  0  0
   -3.5172   20.9659  -30.5321 H   0  0  0  0  0  0  0  0  0  0  0  0
   -2.1393   22.1183  -30.5321 H   0  0  0  0  0  0  0  0  0  0  0  0
   -1.4776   24.5903  -26.2798 H   0  0  0  0  0  0  0  0  0  0  0  0
   -0.7259   23.1229  -26.9928 H   0  0  0  0  0  0  0  0  0  0  0  0
    0.1687   24.6807  -26.9928 H   0  0  0  0  0  0  0  0  0  0  0  0
   -5.0082   26.1835  -29.5049 H   0  0  0  0  0  0  0  0  0  0  0  0
   -6.5298   25.9322  -31.4559 H   0  0  0  0  0  0  0  0  0  0  0  0
   -6.5407   23.8241  -32.7713 H   0  0  0  0  0  0  0  0  0  0  0  0
   -6.8026   21.0591  -31.3871 H   0  0  0  0  0  0  0  0  0  0  0  0
   -6.9552   21.4379  -33.1599 H   0  0  0  0  0  0  0  0  0  0  0  0
   -6.2436   18.8525  -30.6463 H   0  0  0  0  0  0  0  0  0  0  0  0
   -6.0904   16.4272  -31.2131 H   0  0  0  0  0  0  0  0  0  0  0  0
   -5.9724   15.7051  -33.6004 H   0  0  0  0  0  0  0  0  0  0  0  0
   -5.9810   17.4112  -35.4241 H   0  0  0  0  0  0  0  0  0  0  0  0
   -6.1207   19.8390  -34.8646 H   0  0  0  0  0  0  0  0  0  0  0  0
   -4.5281   20.8326  -34.2294 H   0  0  0  0  0  0  0  0  0  0  0  0
   -3.8106   22.4520  -33.8723 H   0  0  0  0  0  0  0  0  0  0  0  0
   -1.5994   22.5921  -33.1727 H   0  0  0  0  0  0  0  0  0  0  0  0
    0.4442   21.5456  -32.2079 H   0  0  0  0  0  0  0  0  0  0  0  0
    2.0195   19.5518  -32.9485 H   0  0  0  0  0  0  0  0  0  0  0  0
    4.0543   18.5457  -31.9069 H   0  0  0  0  0  0  0  0  0  0  0  0
    3.8829   17.4112  -29.6877 H   0  0  0  0  0  0  0  0  0  0  0  0
   -0.2580   18.3440  -29.5670 H   0  0  0  0  0  0  0  0  0  0  0  0
   -1.6909   17.8007  -31.7604 H   0  0  0  0  0  0  0  0  0  0  0  0
   -3.7286   18.8530  -32.7287 H   0  0  0  0  0  0  0  0  0  0  0  0
  1  2  1  0
  2  3  2  0
  3  4  1  0
  4  5  1  0
  5  6  1  0
  5  7  2  0
  5  8  2  0
  3  9  1  0
  9 10  2  0
 10 11  1  0
 11 12  2  0
 12 13  1  0
 13 14  1  0
 14 15  1  0
 15 16  2  0
 16 17  1  0
 17 18  2  0
 18 19  1  0
 19 20  2  0
 13 21  1  0
 21 22  1  0
 22 23  2  0
 23 24  1  0
 24 25  2  0
 25 26  1  0
 26 27  2  0
 27 28  1  0
 28 29  2  0
 29 30  1  0
 30 31  1  0
 31 32  1  0
 31 33  1  0
 31 34  1  0
 30 35  2  0
 25 36  1  0
 36 37  2  0
 12  2  1  0
 20 15  1  0
 37 22  1  0
 35 26  1  0
  1 38  1  0
  1 39  1  0
  1 40  1  0
  6 41  1  0
  6 42  1  0
  6 43  1  0
  9 44  1  0
 10 45  1  0
 11 46  1  0
 14 47  1  0
 14 48  1  0
 16 49  1  0
 17 50  1  0
 18 51  1  0
 19 52  1  0
 20 53  1  0
 21 54  1  0
 21 55  1  0
 23 56  1  0
 24 57  1  0
 27 58  1  0
 28 59  1  0
 29 60  1  0
 35 61  1  0
 36 62  1  0
 37 63  1  0
M  CHG  2   4  -1  35   1
M  END
>  <UniqueID>  (39) 
38

>  <SMILES>  (39) 
Cc1c([N-]S(C)(=O)=O)cccc1N(Cc1ccccc1)Cc1ccc(-c2cccc(C(F)(F)F)[nH+]2)cc1

>  <Energy>  (39) 
75.09418557927197

>  <Genealogy>  (39) 
Cc1c([N-]S(C)(=O)=O)cccc1N(Cc1ccccc1)Cc1ccc(-c2cccc(C(F)(F)F)[nH+]2)cc1 (protonated)
Cc1c([N-]S(C)(=O)=O)cccc1N(Cc1ccccc1)Cc1ccc(-c2cccc(C(F)(F)F)[nH+]2)cc1 (3D coordinates assigned)
Cc1c([N-]S(C)(=O)=O)cccc1N(Cc1ccccc1)Cc1ccc(-c2cccc(C(F)(F)F)[nH+]2)cc1 (optimized conformer: 75.09418557927197 kcal/mol)

>  <smiles>  (39) 
Cc1c(NS(C)(=O)=O)cccc1N(Cc1ccccc1)Cc1ccc(-c2cccc(C(F)(F)F)n2)cc1

>  <score_type>  (39) 
oracle

>  <origin>  (39) 
adg

>  <m_score__min__energy>  (39) 
-10.960000000000001

>  <m_primary>  (39) 
energy

$$$$
39:0
     RDKit          3D

 49 53  0  0  0  0  0  0  0  0999 V2000
   -3.3440   11.7100  -33.3240 C   0  0  0  0  0  0  0  0  0  0  0  0
   -3.6840   12.9750  -32.6490 N   0  0  0  0  0  0  0  0  0  0  0  0
   -3.3160   12.9420  -31.2230 C   0  0  0  0  0  0  0  0  0  0  0  0
   -5.0860   13.4020  -32.8830 C   0  0  0  0  0  0  0  0  0  0  0  0
   -5.3500   14.2320  -34.1710 C   0  0  0  0  0  0  0  0  0  0  0  0
   -4.7290   15.6200  -34.1620 C   0  0  0  0  0  0  0  0  0  0  0  0
   -5.4810   16.7240  -33.7250 C   0  0  0  0  0  0  0  0  0  0  0  0
   -4.9510   17.9900  -33.7610 C   0  0  0  0  0  0  0  0  0  0  0  0
   -3.6920   18.2470  -34.1760 N   0  0  0  0  0  0  0  0  0  0  0  0
   -2.8910   17.2160  -34.5680 C   0  0  0  0  0  0  0  0  0  0  0  0
   -1.5780   17.4870  -34.9650 C   0  0  0  0  0  0  0  0  0  0  0  0
   -0.7180   16.4450  -35.3110 C   0  0  0  0  0  0  0  0  0  0  0  0
   -1.1570   15.1220  -35.2460 C   0  0  0  0  0  0  0  0  0  0  0  0
   -0.3060   14.1120  -35.5550 F   0  0  0  0  0  0  0  0  0  0  0  0
   -2.4680   14.8310  -34.8560 C   0  0  0  0  0  0  0  0  0  0  0  0
   -3.3730   15.8680  -34.5400 C   0  0  0  0  0  0  0  0  0  0  0  0
   -5.9260   18.9070  -33.2300 C   0  0  0  0  0  0  0  0  0  0  0  0
   -5.8280   20.2860  -33.0740 C   0  0  0  0  0  0  0  0  0  0  0  0
   -6.9250   20.9660  -32.5210 C   0  0  0  0  0  0  0  0  0  0  0  0
   -6.8810   22.3570  -32.3420 C   0  0  0  0  0  0  0  0  0  0  0  0
   -7.9740   23.0300  -31.7920 C   0  0  0  0  0  0  0  0  0  0  0  0
   -9.1190   22.3240  -31.4150 C   0  0  0  0  0  0  0  0  0  0  0  0
   -9.1820   20.9380  -31.5850 C   0  0  0  0  0  0  0  0  0  0  0  0
   -8.0910   20.2430  -32.1370 C   0  0  0  0  0  0  0  0  0  0  0  0
   -8.1200   18.8420  -32.3220 C   0  0  0  0  0  0  0  0  0  0  0  0
   -9.1330   18.1630  -31.9950 O   0  0  0  0  0  0  0  0  0  0  0  0
   -7.0330   18.2270  -32.8630 N   0  0  0  0  0  0  0  0  0  0  0  0
   -6.8670   16.7930  -33.1300 C   0  0  0  0  0  0  0  0  0  0  0  0
   -3.1361   10.9365  -32.5701 H   0  0  0  0  0  0  0  0  0  0  0  0
   -4.1884   11.3915  -33.9529 H   0  0  0  0  0  0  0  0  0  0  0  0
   -2.4537   11.8577  -33.9529 H   0  0  0  0  0  0  0  0  0  0  0  0
   -3.0830   13.7110  -33.0900 H   0  0  0  0  0  0  0  0  0  0  0  0
   -4.2243   13.0235  -30.6079 H   0  0  0  0  0  0  0  0  0  0  0  0
   -2.8047   11.9944  -30.9981 H   0  0  0  0  0  0  0  0  0  0  0  0
   -2.6442   13.7835  -30.9981 H   0  0  0  0  0  0  0  0  0  0  0  0
   -5.7075   12.4959  -32.9355 H   0  0  0  0  0  0  0  0  0  0  0  0
   -5.3302   14.0741  -32.0471 H   0  0  0  0  0  0  0  0  0  0  0  0
   -4.9401   13.6772  -35.0279 H   0  0  0  0  0  0  0  0  0  0  0  0
   -6.4388   14.3755  -34.2344 H   0  0  0  0  0  0  0  0  0  0  0  0
   -1.2217   18.5269  -35.0046 H   0  0  0  0  0  0  0  0  0  0  0  0
    0.3092   16.6667  -35.6361 H   0  0  0  0  0  0  0  0  0  0  0  0
   -2.7978   13.7834  -34.7947 H   0  0  0  0  0  0  0  0  0  0  0  0
   -4.9188   20.8272  -33.3747 H   0  0  0  0  0  0  0  0  0  0  0  0
   -5.9824   22.9193  -32.6359 H   0  0  0  0  0  0  0  0  0  0  0  0
   -7.9332   24.1207  -31.6550 H   0  0  0  0  0  0  0  0  0  0  0  0
   -9.9755   22.8616  -30.9821 H   0  0  0  0  0  0  0  0  0  0  0  0
  -10.0874   20.3894  -31.2862 H   0  0  0  0  0  0  0  0  0  0  0  0
   -6.9295   16.2068  -32.2013 H   0  0  0  0  0  0  0  0  0  0  0  0
   -7.6453   16.3787  -33.7877 H   0  0  0  0  0  0  0  0  0  0  0  0
  1  2  1  0
  2  3  1  0
  2  4  1  0
  4  5  1  0
  5  6  1  0
  6  7  2  0
  7  8  1  0
  8  9  2  0
  9 10  1  0
 10 11  2  0
 11 12  1  0
 12 13  2  0
 13 14  1  0
 13 15  1  0
 15 16  2  0
  8 17  1  0
 17 18  2  0
 18 19  1  0
 19 20  2  0
 20 21  1  0
 21 22  2  0
 22 23  1  0
 23 24  2  0
 24 25  1  0
 25 26  2  0
 25 27  1  0
 27 28  1  0
 16  6  1  0
 27 17  1  0
 28  7  1  0
 16 10  1  0
 24 19  1  0
  1 29  1  0
  1 30  1  0
  1 31  1  0
  2 32  1  0
  3 33  1  0
  3 34  1  0
  3 35  1  0
  4 36  1  0
  4 37  1  0
  5 38  1  0
  5 39  1  0
 11 40  1  0
 12 41  1  0
 15 42  1  0
 18 43  1  0
 20 44  1  0
 21 45  1  0
 22 46  1  0
 23 47  1  0
 28 48  1  0
 28 49  1  0
M  CHG  1   2   1
M  END
>  <UniqueID>  (40) 
39

>  <SMILES>  (40) 
C[NH+](C)CCc1c2c(nc3ccc(F)cc13)-c1cc3ccccc3c(=O)n1C2

>  <Energy>  (40) 
95.28202220506417

>  <Genealogy>  (40) 
C[NH+](C)CCc1c2c(nc3ccc(F)cc13)-c1cc3ccccc3c(=O)n1C2 (protonated)
C[NH+](C)CCc1c2c(nc3ccc(F)cc13)-c1cc3ccccc3c(=O)n1C2 (3D coordinates assigned)
C[NH+](C)CCc1c2c(nc3ccc(F)cc13)-c1cc3ccccc3c(=O)n1C2 (nonaromatic ring conformer: 95.28202220506417 kcal/mol)

>  <smiles>  (40) 
CN(C)CCc1c2c(nc3ccc(F)cc13)-c1cc3ccccc3c(=O)n1C2

>  <score_type>  (40) 
oracle

>  <origin>  (40) 
adg

>  <m_score__min__energy>  (40) 
-7.71

>  <m_primary>  (40) 
energy

$$$$
40:0
     RDKit          3D

 31 33  0  0  0  0  0  0  0  0999 V2000
   -2.2730   24.1690  -29.3390 C   0  0  0  0  0  0  0  0  0  0  0  0
   -3.1800   24.8850  -30.1690 O   0  0  0  0  0  0  0  0  0  0  0  0
   -4.5400   24.5720  -30.3130 C   0  0  0  0  0  0  0  0  0  0  0  0
   -5.5600   25.3820  -29.7820 C   0  0  0  0  0  0  0  0  0  0  0  0
   -6.8990   25.0280  -29.9520 C   0  0  0  0  0  0  0  0  0  0  0  0
   -7.2340   23.8660  -30.6520 C   0  0  0  0  0  0  0  0  0  0  0  0
   -6.2310   23.0440  -31.1910 C   0  0  0  0  0  0  0  0  0  0  0  0
   -6.6140   21.8170  -31.9290 C   0  0  0  0  0  0  0  0  0  0  0  0
   -5.7830   20.8120  -32.2690 N   0  0  0  0  0  0  0  0  0  0  0  0
   -6.5980   19.9510  -32.9140 C   0  0  0  0  0  0  0  0  0  0  0  0
   -6.1800   18.6550  -33.5050 C   0  0  0  0  0  0  0  0  0  0  0  0
   -5.1150   18.5730  -34.4180 C   0  0  0  0  0  0  0  0  0  0  0  0
   -4.7530   17.3320  -34.9510 C   0  0  0  0  0  0  0  0  0  0  0  0
   -5.4270   16.2100  -34.5880 N   0  0  0  0  0  0  0  0  0  0  0  0
   -6.4600   16.2560  -33.7070 C   0  0  0  0  0  0  0  0  0  0  0  0
   -6.8550   17.4740  -33.1510 C   0  0  0  0  0  0  0  0  0  0  0  0
   -7.8630   20.4170  -32.9600 N   0  0  0  0  0  0  0  0  0  0  0  0
   -7.8320   21.5640  -32.3460 O   0  0  0  0  0  0  0  0  0  0  0  0
   -4.8830   23.4090  -31.0150 C   0  0  0  0  0  0  0  0  0  0  0  0
   -2.5141   24.3594  -28.2828 H   0  0  0  0  0  0  0  0  0  0  0  0
   -2.3583   23.0921  -29.5463 H   0  0  0  0  0  0  0  0  0  0  0  0
   -1.2453   24.5020  -29.5463 H   0  0  0  0  0  0  0  0  0  0  0  0
   -5.3012   26.2980  -29.2306 H   0  0  0  0  0  0  0  0  0  0  0  0
   -7.6925   25.6650  -29.5341 H   0  0  0  0  0  0  0  0  0  0  0  0
   -8.2916   23.5930  -30.7819 H   0  0  0  0  0  0  0  0  0  0  0  0
   -4.7620   20.7220  -32.0810 H   0  0  0  0  0  0  0  0  0  0  0  0
   -4.5684   19.4812  -34.7121 H   0  0  0  0  0  0  0  0  0  0  0  0
   -3.9201   17.2642  -35.6663 H   0  0  0  0  0  0  0  0  0  0  0  0
   -6.9868   15.3307  -33.4309 H   0  0  0  0  0  0  0  0  0  0  0  0
   -7.6919   17.5094  -32.4380 H   0  0  0  0  0  0  0  0  0  0  0  0
   -4.0890   22.7733  -31.4338 H   0  0  0  0  0  0  0  0  0  0  0  0
  1  2  1  0
  2  3  1  0
  3  4  2  0
  4  5  1  0
  5  6  2  0
  6  7  1  0
  7  8  1  0
  8  9  2  0
  9 10  1  0
 10 11  1  0
 11 12  2  0
 12 13  1  0
 13 14  2  0
 14 15  1  0
 15 16  2  0
 10 17  2  0
 17 18  1  0
  7 19  2  0
 19  3  1  0
 18  8  1  0
 16 11  1  0
  1 20  1  0
  1 21  1  0
  1 22  1  0
  4 23  1  0
  5 24  1  0
  6 25  1  0
  9 26  1  0
 12 27  1  0
 13 28  1  0
 15 29  1  0
 16 30  1  0
 19 31  1  0
M  CHG  1   9   1
M  END
>  <UniqueID>  (41) 
40

>  <SMILES>  (41) 
COc1cccc(-c2[nH+]c(-c3ccncc3)no2)c1

>  <Energy>  (41) 
71.19275610234915

>  <Genealogy>  (41) 
COc1cccc(-c2[nH+]c(-c3ccncc3)no2)c1 (protonated)
COc1cccc(-c2[nH+]c(-c3ccncc3)no2)c1 (3D coordinates assigned)
COc1cccc(-c2[nH+]c(-c3ccncc3)no2)c1 (optimized conformer: 71.19275610234915 kcal/mol)

>  <smiles>  (41) 
COc1cccc(-c2nc(-c3ccncc3)no2)c1

>  <score_type>  (41) 
oracle

>  <origin>  (41) 
adg

>  <m_score__min__energy>  (41) 
-6.9100000000000001

>  <m_primary>  (41) 
energy

$$$$
41:0
     RDKit          3D

 56 59  0  0  0  0  0  0  0  0999 V2000
   -7.9136   17.9134  -33.2867 H   0  0  0  0  0  0  0  0  0  0  0  0
   -6.9230   18.3580  -33.4630 C   0  0  0  0  0  0  0  0  0  0  0  0
   -6.0970   17.7360  -34.3170 C   0  0  0  0  0  0  0  0  0  0  0  0
   -6.1422   17.9867  -35.3871 H   0  0  0  0  0  0  0  0  0  0  0  0
   -5.1260   16.7200  -33.8530 C   0  0  0  0  0  0  0  0  0  0  0  0
   -5.6350   15.4810  -33.4670 C   0  0  0  0  0  0  0  0  0  0  0  0
   -6.7217   15.3103  -33.4689 H   0  0  0  0  0  0  0  0  0  0  0  0
   -4.7750   14.4610  -33.0800 C   0  0  0  0  0  0  0  0  0  0  0  0
   -5.1912   13.4871  -32.7828 H   0  0  0  0  0  0  0  0  0  0  0  0
   -3.4210   14.6460  -33.0620 N   0  0  0  0  0  0  0  0  0  0  0  0
   -2.5780   13.5080  -32.6580 C   0  0  0  0  0  0  0  0  0  0  0  0
   -2.5375   13.4533  -31.5601 H   0  0  0  0  0  0  0  0  0  0  0  0
   -3.0051   12.5757  -33.0561 H   0  0  0  0  0  0  0  0  0  0  0  0
   -1.5617   13.6450  -33.0561 H   0  0  0  0  0  0  0  0  0  0  0  0
   -2.8780   15.8710  -33.3980 C   0  0  0  0  0  0  0  0  0  0  0  0
   -1.4820   16.0960  -33.3560 C   0  0  0  0  0  0  0  0  0  0  0  0
   -0.8108   15.2707  -33.0762 H   0  0  0  0  0  0  0  0  0  0  0  0
   -0.9360   17.3540  -33.6650 C   0  0  0  0  0  0  0  0  0  0  0  0
    0.4480   17.5950  -33.6340 O   0  0  0  0  0  0  0  0  0  0  0  0
    1.1200   18.3440  -32.6270 C   0  0  0  0  0  0  0  0  0  0  0  0
    0.8032   17.9909  -31.6346 H   0  0  0  0  0  0  0  0  0  0  0  0
    2.2066   18.2101  -32.7342 H   0  0  0  0  0  0  0  0  0  0  0  0
    0.8695   19.4097  -32.7342 H   0  0  0  0  0  0  0  0  0  0  0  0
   -1.7810   18.4120  -34.0070 C   0  0  0  0  0  0  0  0  0  0  0  0
   -1.2000   19.6600  -34.2950 O   0  0  0  0  0  0  0  0  0  0  0  0
   -1.5410   20.8800  -33.6450 C   0  0  0  0  0  0  0  0  0  0  0  0
   -1.5014   20.7382  -32.5549 H   0  0  0  0  0  0  0  0  0  0  0  0
   -0.8276   21.6639  -33.9390 H   0  0  0  0  0  0  0  0  0  0  0  0
   -2.5575   21.1804  -33.9390 H   0  0  0  0  0  0  0  0  0  0  0  0
   -3.1680   18.2080  -34.0540 C   0  0  0  0  0  0  0  0  0  0  0  0
   -3.8294   19.0503  -34.3053 H   0  0  0  0  0  0  0  0  0  0  0  0
   -3.7300   16.9430  -33.7850 C   0  0  0  0  0  0  0  0  0  0  0  0
   -6.5830   19.6080  -32.7420 C   0  0  0  0  0  0  0  0  0  0  0  0
   -5.3000   20.1530  -32.9160 C   0  0  0  0  0  0  0  0  0  0  0  0
   -4.5781   19.6475  -33.5743 H   0  0  0  0  0  0  0  0  0  0  0  0
   -4.9320   21.3310  -32.2610 C   0  0  0  0  0  0  0  0  0  0  0  0
   -3.9198   21.7391  -32.3984 H   0  0  0  0  0  0  0  0  0  0  0  0
   -5.8450   21.9970  -31.4290 C   0  0  0  0  0  0  0  0  0  0  0  0
   -5.4670   23.2070  -30.7440 N   0  0  0  0  0  0  0  0  0  0  0  0
   -4.5950   23.1500  -29.5630 C   0  0  0  0  0  0  0  0  0  0  0  0
   -5.2193   23.1278  -28.6576 H   0  0  0  0  0  0  0  0  0  0  0  0
   -3.9764   22.2431  -29.6321 H   0  0  0  0  0  0  0  0  0  0  0  0
   -3.6550   24.3780  -29.4970 C   0  0  0  0  0  0  0  0  0  0  0  0
   -3.7480   24.8330  -28.4998 H   0  0  0  0  0  0  0  0  0  0  0  0
   -2.6370   24.0140  -29.6999 H   0  0  0  0  0  0  0  0  0  0  0  0
   -3.9410   25.3690  -30.4690 O   0  0  0  0  0  0  0  0  0  0  0  0
   -5.3250   25.6500  -30.4830 C   0  0  0  0  0  0  0  0  0  0  0  0
   -5.6833   25.7825  -29.4515 H   0  0  0  0  0  0  0  0  0  0  0  0
   -5.5076   26.5722  -31.0542 H   0  0  0  0  0  0  0  0  0  0  0  0
   -6.0710   24.4870  -31.1370 C   0  0  0  0  0  0  0  0  0  0  0  0
   -7.1232   24.5051  -30.8166 H   0  0  0  0  0  0  0  0  0  0  0  0
   -6.0075   24.5914  -32.2302 H   0  0  0  0  0  0  0  0  0  0  0  0
   -7.1300   21.4610  -31.2590 C   0  0  0  0  0  0  0  0  0  0  0  0
   -7.8526   21.9726  -30.6062 H   0  0  0  0  0  0  0  0  0  0  0  0
   -7.5000   20.2810  -31.9130 C   0  0  0  0  0  0  0  0  0  0  0  0
   -8.5141   19.8765  -31.7785 H   0  0  0  0  0  0  0  0  0  0  0  0
  1  2  1  0
  2  3  2  0
  3  4  1  0
  3  5  1  0
  5  6  2  0
  6  7  1  0
  6  8  1  0
  8  9  1  0
  8 10  2  0
 10 11  1  0
 11 12  1  0
 11 13  1  0
 11 14  1  0
 10 15  1  0
 15 16  2  0
 16 17  1  0
 16 18  1  0
 18 19  1  0
 19 20  1  0
 20 21  1  0
 20 22  1  0
 20 23  1  0
 18 24  2  0
 24 25  1  0
 25 26  1  0
 26 27  1  0
 26 28  1  0
 26 29  1  0
 24 30  1  0
 30 31  1  0
 30 32  2  0
  2 33  1  0
 33 34  2  0
 34 35  1  0
 34 36  1  0
 36 37  1  0
 36 38  2  0
 38 39  1  0
 39 40  1  0
 40 41  1  0
 40 42  1  0
 40 43  1  0
 43 44  1  0
 43 45  1  0
 43 46  1  0
 46 47  1  0
 47 48  1  0
 47 49  1  0
 47 50  1  0
 50 51  1  0
 50 52  1  0
 38 53  1  0
 53 54  1  0
 53 55  2  0
 55 56  1  0
 32  5  1  0
 55 33  1  0
 32 15  1  0
 50 39  1  0
M  CHG  1  10   1
M  END
>  <UniqueID>  (42) 
41

>  <SMILES>  (42) 
COc1cc2c(/C=C/c3ccc(N4CCOCC4)cc3)cc[n+](C)c2cc1OC

>  <Energy>  (42) 
86.26643641624803

>  <Genealogy>  (42) 
COc1cc2c(/C=C/c3ccc(N4CCOCC4)cc3)cc[n+](C)c2cc1OC (cis-trans isomerization)
COc1cc2c(/C=C/c3ccc(N4CCOCC4)cc3)cc[n+](C)c2cc1OC (3D coordinates assigned)
COc1cc2c(/C=C/c3ccc(N4CCOCC4)cc3)cc[n+](C)c2cc1OC (nonaromatic ring conformer: 86.26643641624803 kcal/mol)

>  <smiles>  (42) 
COc1cc2c(C=Cc3ccc(N4CCOCC4)cc3)cc[n+](C)c2cc1OC

>  <score_type>  (42) 
oracle

>  <origin>  (42) 
adg

>  <m_score__min__energy>  (42) 
-8.1899999999999995

>  <m_primary>  (42) 
energy

$$$$
42:0
     RDKit          3D

 47 49  0  0  0  0  0  0  0  0999 V2000
    1.0310   23.5730  -36.0710 C   0  0  0  0  0  0  0  0  0  0  0  0
    0.7420   22.1930  -35.5720 C   0  0  0  0  0  0  0  0  0  0  0  0
    0.7140   21.1120  -36.4520 C   0  0  0  0  0  0  0  0  0  0  0  0
    0.4620   19.8340  -35.9580 C   0  0  0  0  0  0  0  0  0  0  0  0
    0.2120   19.6270  -34.5890 C   0  0  0  0  0  0  0  0  0  0  0  0
   -0.0920   18.2130  -34.1060 C   0  0  0  0  0  0  0  0  0  0  0  0
   -1.4100   18.0450  -33.4310 N   0  0  2  0  0  0  0  0  0  0  0  0
   -1.9020   16.6370  -33.4200 C   0  0  0  0  0  0  0  0  0  0  0  0
   -3.1120   16.3640  -34.3440 C   0  0  0  0  0  0  0  0  0  0  0  0
   -4.4900   16.6870  -33.7250 C   0  0  0  0  0  0  0  0  0  0  0  0
   -4.7240   18.1320  -33.5610 N   0  0  0  0  0  0  0  0  0  0  0  0
   -5.9550   18.7130  -34.0220 C   0  0  0  0  0  0  0  0  0  0  0  0
   -6.1060   18.9470  -35.2500 O   0  0  0  0  0  0  0  0  0  0  0  0
   -7.0560   19.0110  -33.0870 C   0  0  0  0  0  0  0  0  0  0  0  0
   -7.7520   20.2130  -33.0120 C   0  0  0  0  0  0  0  0  0  0  0  0
   -8.7790   20.1990  -32.0590 C   0  0  0  0  0  0  0  0  0  0  0  0
   -8.9020   18.9910  -31.3880 C   0  0  0  0  0  0  0  0  0  0  0  0
   -7.7340   17.9380  -31.9820 S   0  0  0  0  0  0  0  0  0  0  0  0
   -3.6870   19.0340  -33.0360 C   0  0  0  0  0  0  0  0  0  0  0  0
   -2.4010   19.0480  -33.8820 C   0  0  0  0  0  0  0  0  0  0  0  0
    0.3300   20.7440  -33.7180 C   0  0  0  0  0  0  0  0  0  0  0  0
    0.2440   20.6320  -32.2220 C   0  0  0  0  0  0  0  0  0  0  0  0
    0.5750   21.9780  -34.2410 N   0  0  0  0  0  0  0  0  0  0  0  0
    1.1728   24.2500  -35.2157 H   0  0  0  0  0  0  0  0  0  0  0  0
    1.9455   23.5579  -36.6822 H   0  0  0  0  0  0  0  0  0  0  0  0
    0.1873   23.9261  -36.6822 H   0  0  0  0  0  0  0  0  0  0  0  0
    0.8893   21.2668  -37.5268 H   0  0  0  0  0  0  0  0  0  0  0  0
    0.4584   18.9763  -36.6467 H   0  0  0  0  0  0  0  0  0  0  0  0
   -0.0677   17.5426  -34.9777 H   0  0  0  0  0  0  0  0  0  0  0  0
    0.6715   17.9768  -33.3502 H   0  0  0  0  0  0  0  0  0  0  0  0
   -1.2130   18.2770  -32.4260 H   0  0  0  0  0  0  0  0  0  0  0  0
   -1.0757   15.9836  -33.7366 H   0  0  0  0  0  0  0  0  0  0  0  0
   -2.2454   16.4376  -32.3942 H   0  0  0  0  0  0  0  0  0  0  0  0
   -2.9935   16.9746  -35.2513 H   0  0  0  0  0  0  0  0  0  0  0  0
   -3.1096   15.2822  -34.5433 H   0  0  0  0  0  0  0  0  0  0  0  0
   -5.2730   16.2774  -34.3801 H   0  0  0  0  0  0  0  0  0  0  0  0
   -4.5142   16.2344  -32.7227 H   0  0  0  0  0  0  0  0  0  0  0  0
   -7.5194   21.0870  -33.6381 H   0  0  0  0  0  0  0  0  0  0  0  0
   -9.4274   21.0653  -31.8612 H   0  0  0  0  0  0  0  0  0  0  0  0
   -9.6372   18.7617  -30.6026 H   0  0  0  0  0  0  0  0  0  0  0  0
   -4.0957   20.0548  -33.0065 H   0  0  0  0  0  0  0  0  0  0  0  0
   -3.4131   18.6657  -32.0363 H   0  0  0  0  0  0  0  0  0  0  0  0
   -2.6657   18.8355  -34.9283 H   0  0  0  0  0  0  0  0  0  0  0  0
   -1.9418   20.0416  -33.7725 H   0  0  0  0  0  0  0  0  0  0  0  0
    0.8518   21.4236  -31.7595 H   0  0  0  0  0  0  0  0  0  0  0  0
   -0.8038   20.7422  -31.9057 H   0  0  0  0  0  0  0  0  0  0  0  0
    0.6210   19.6482  -31.9057 H   0  0  0  0  0  0  0  0  0  0  0  0
  1  2  1  0
  2  3  2  0
  3  4  1  0
  4  5  2  0
  5  6  1  0
  6  7  1  0
  7  8  1  0
  8  9  1  0
  9 10  1  0
 10 11  1  0
 11 12  1  0
 12 13  2  0
 12 14  1  0
 14 15  2  0
 15 16  1  0
 16 17  2  0
 17 18  1  0
 11 19  1  0
 19 20  1  0
  5 21  1  0
 21 22  1  0
 21 23  2  0
 23  2  1  0
 20  7  1  0
 18 14  1  0
  1 24  1  0
  1 25  1  0
  1 26  1  0
  3 27  1  0
  4 28  1  0
  6 29  1  0
  6 30  1  0
  7 31  1  1
  8 32  1  0
  8 33  1  0
  9 34  1  0
  9 35  1  0
 10 36  1  0
 10 37  1  0
 15 38  1  0
 16 39  1  0
 17 40  1  0
 19 41  1  0
 19 42  1  0
 20 43  1  0
 20 44  1  0
 22 45  1  0
 22 46  1  0
 22 47  1  0
M  CHG  1   7   1
M  END
>  <UniqueID>  (43) 
42

>  <SMILES>  (43) 
Cc1ccc(C[N@@H+]2CCCN(C(=O)c3cccs3)CC2)c(C)n1

>  <Energy>  (43) 
95.35663294669155

>  <Genealogy>  (43) 
Cc1ccc(C[NH+]2CCCN(C(=O)c3cccs3)CC2)c(C)n1 (protonated)
Cc1ccc(C[N@@H+]2CCCN(C(=O)c3cccs3)CC2)c(C)n1 (chirality)
Cc1ccc(C[N@@H+]2CCCN(C(=O)c3cccs3)CC2)c(C)n1 (3D coordinates assigned)
Cc1ccc(C[N@@H+]2CCCN(C(=O)c3cccs3)CC2)c(C)n1 (nonaromatic ring conformer: 95.35663294669155 kcal/mol)

>  <smiles>  (43) 
Cc1ccc(CN2CCCN(C(=O)c3cccs3)CC2)c(C)n1

>  <score_type>  (43) 
oracle

>  <origin>  (43) 
adg

>  <m_score__min__energy>  (43) 
-6.3499999999999996

>  <m_primary>  (43) 
energy

$$$$
