0:0
     RDKit          3D

 36 38  0  0  0  0  0  0  0  0999 V2000
   -9.4550   19.2640  -32.3540 C   0  0  0  0  0  0  0  0  0  0  0  0
   -8.4700   20.3740  -32.1370 C   0  0  0  0  0  0  0  0  0  0  0  0
   -7.2780   20.4170  -32.8770 C   0  0  0  0  0  0  0  0  0  0  0  0
   -6.3760   21.4710  -32.7000 C   0  0  0  0  0  0  0  0  0  0  0  0
   -6.6620   22.5050  -31.7960 C   0  0  0  0  0  0  0  0  0  0  0  0
   -5.6710   23.6190  -31.5830 C   0  0  0  0  0  0  0  0  0  0  0  0
   -4.5760   23.1670  -30.7080 N   0  0  0  0  0  0  0  0  0  0  0  0
   -4.4890   21.8440  -30.3880 C   0  0  0  0  0  0  0  0  0  0  0  0
   -3.5150   21.3960  -29.5600 N   0  0  0  0  0  0  0  0  0  0  0  0
   -2.5950   22.2340  -29.0140 C   0  0  0  0  0  0  0  0  0  0  0  0
   -2.6520   23.6060  -29.3190 C   0  0  0  0  0  0  0  0  0  0  0  0
   -1.6790   24.4510  -28.7510 C   0  0  0  0  0  0  0  0  0  0  0  0
   -1.6770   25.6910  -28.9800 O   0  0  0  0  0  0  0  0  0  0  0  0
   -0.7190   23.9250  -27.9470 N   0  0  0  0  0  0  0  0  0  0  0  0
   -0.6760   22.5960  -27.6650 C   0  0  0  0  0  0  0  0  0  0  0  0
    0.2520   22.1580  -26.9290 O   0  0  0  0  0  0  0  0  0  0  0  0
   -1.6240   21.7460  -28.1730 N   0  0  0  0  0  0  0  0  0  0  0  0
   -1.5620   20.3030  -27.8820 C   0  0  0  0  0  0  0  0  0  0  0  0
   -3.6770   24.0590  -30.1810 C   0  0  0  0  0  0  0  0  0  0  0  0
   -3.7670   25.2850  -30.4700 O   0  0  0  0  0  0  0  0  0  0  0  0
   -7.8590   22.4660  -31.0640 C   0  0  0  0  0  0  0  0  0  0  0  0
   -8.7610   21.4130  -31.2400 C   0  0  0  0  0  0  0  0  0  0  0  0
   -9.7954   18.8804  -31.3809 H   0  0  0  0  0  0  0  0  0  0  0  0
  -10.3178   19.6449  -32.9201 H   0  0  0  0  0  0  0  0  0  0  0  0
   -8.9742   18.4526  -32.9201 H   0  0  0  0  0  0  0  0  0  0  0  0
   -7.0524   19.6184  -33.5991 H   0  0  0  0  0  0  0  0  0  0  0  0
   -5.4371   21.4894  -33.2728 H   0  0  0  0  0  0  0  0  0  0  0  0
   -5.2562   23.9267  -32.5542 H   0  0  0  0  0  0  0  0  0  0  0  0
   -6.1831   24.4680  -31.1067 H   0  0  0  0  0  0  0  0  0  0  0  0
   -5.2171   21.1336  -30.8065 H   0  0  0  0  0  0  0  0  0  0  0  0
    0.0070   24.5580  -27.5390 H   0  0  0  0  0  0  0  0  0  0  0  0
   -1.5554   20.1485  -26.7929 H   0  0  0  0  0  0  0  0  0  0  0  0
   -2.4395   19.8030  -28.3179 H   0  0  0  0  0  0  0  0  0  0  0  0
   -0.6449   19.8801  -28.3179 H   0  0  0  0  0  0  0  0  0  0  0  0
   -8.0885   23.2687  -30.3478 H   0  0  0  0  0  0  0  0  0  0  0  0
   -9.7033   21.3987  -30.6727 H   0  0  0  0  0  0  0  0  0  0  0  0
  1  2  1  0
  2  3  2  0
  3  4  1  0
  4  5  2  0
  5  6  1  0
  6  7  1  0
  7  8  1  0
  8  9  2  0
  9 10  1  0
 10 11  2  0
 11 12  1  0
 12 13  2  0
 12 14  1  0
 14 15  1  0
 15 16  2  0
 15 17  1  0
 17 18  1  0
 11 19  1  0
 19 20  2  0
  5 21  1  0
 21 22  2  0
 22  2  1  0
 19  7  1  0
 17 10  1  0
  1 23  1  0
  1 24  1  0
  1 25  1  0
  3 26  1  0
  4 27  1  0
  6 28  1  0
  6 29  1  0
  8 30  1  0
 14 31  1  0
 18 32  1  0
 18 33  1  0
 18 34  1  0
 21 35  1  0
 22 36  1  0
M  END
>  <UniqueID>  (1) 
1

>  <SMILES>  (1) 
Cc1ccc(Cn2cnc3c(c(=O)[nH]c(=O)n3C)c2=O)cc1

>  <Energy>  (1) 
49.412396061195885

>  <Genealogy>  (1) 
Cc1ccc(Cn2cnc3c(c(=O)[nH]c(=O)n3C)c2=O)cc1 (3D coordinates assigned)
Cc1ccc(Cn2cnc3c(c(=O)[nH]c(=O)n3C)c2=O)cc1 (optimized conformer: 49.412396061195885 kcal/mol)

>  <smiles>  (1) 
Cc1ccc(Cn2cnc3c(c(=O)[nH]c(=O)n3C)c2=O)cc1

>  <score_type>  (1) 
oracle

>  <origin>  (1) 
adg

>  <m_score__min__energy>  (1) 
-7.8499999999999996

>  <m_primary>  (1) 
energy

$$$$
1:0
     RDKit          3D

 41 43  0  0  0  0  0  0  0  0999 V2000
   -1.5870   25.5740  -28.2150 C   0  0  0  0  0  0  0  0  0  0  0  0
   -2.5840   25.2860  -29.1700 O   0  0  0  0  0  0  0  0  0  0  0  0
   -2.8530   23.8960  -29.2010 C   0  0  0  0  0  0  0  0  0  0  0  0
   -4.2880   23.6050  -28.7380 C   0  0  0  0  0  0  0  0  0  0  0  0
   -5.1590   24.7790  -28.9190 N   0  0  0  0  0  0  0  0  0  0  0  0
   -5.6240   24.9090  -30.3090 C   0  0  0  0  0  0  0  0  0  0  0  0
   -5.8550   23.5710  -30.9500 C   0  0  0  0  0  0  0  0  0  0  0  0
   -7.0420   22.8240  -30.8440 C   0  0  0  0  0  0  0  0  0  0  0  0
   -6.9000   21.6180  -31.5180 C   0  0  0  0  0  0  0  0  0  0  0  0
   -5.7030   21.4250  -32.1080 C   0  0  0  0  0  0  0  0  0  0  0  0
   -4.6750   22.7230  -31.8620 S   0  0  0  0  0  0  0  0  0  0  0  0
   -5.7420   20.2150  -32.7460 C   0  0  0  0  0  0  0  0  0  0  0  0
   -4.8100   19.5330  -33.5190 C   0  0  0  0  0  0  0  0  0  0  0  0
   -5.1990   18.2920  -34.0700 C   0  0  0  0  0  0  0  0  0  0  0  0
   -4.2210   17.4930  -34.8790 C   0  0  0  0  0  0  0  0  0  0  0  0
   -6.4930   17.7740  -33.8080 C   0  0  0  0  0  0  0  0  0  0  0  0
   -7.4160   18.4920  -33.0230 C   0  0  0  0  0  0  0  0  0  0  0  0
   -7.0130   19.7190  -32.4950 C   0  0  0  0  0  0  0  0  0  0  0  0
   -7.7370   20.5760  -31.7220 N   0  0  0  0  0  0  0  0  0  0  0  0
   -9.1330   20.4550  -31.3100 C   0  0  0  0  0  0  0  0  0  0  0  0
   -2.0025   25.4540  -27.2036 H   0  0  0  0  0  0  0  0  0  0  0  0
   -0.7412   24.8835  -28.3483 H   0  0  0  0  0  0  0  0  0  0  0  0
   -1.2397   26.6092  -28.3483 H   0  0  0  0  0  0  0  0  0  0  0  0
   -2.7246   23.5272  -30.2293 H   0  0  0  0  0  0  0  0  0  0  0  0
   -2.1542   23.3876  -28.5204 H   0  0  0  0  0  0  0  0  0  0  0  0
   -4.6906   22.7666  -29.3253 H   0  0  0  0  0  0  0  0  0  0  0  0
   -4.2624   23.3544  -27.6672 H   0  0  0  0  0  0  0  0  0  0  0  0
   -6.0040   24.6750  -28.3090 H   0  0  0  0  0  0  0  0  0  0  0  0
   -4.6510   25.6490  -28.6330 H   0  0  0  0  0  0  0  0  0  0  0  0
   -6.5674   25.4746  -30.3169 H   0  0  0  0  0  0  0  0  0  0  0  0
   -4.8435   25.4311  -30.8820 H   0  0  0  0  0  0  0  0  0  0  0  0
   -7.9468   23.1465  -30.3079 H   0  0  0  0  0  0  0  0  0  0  0  0
   -3.8054   19.9449  -33.6954 H   0  0  0  0  0  0  0  0  0  0  0  0
   -3.5487   16.9437  -34.2035 H   0  0  0  0  0  0  0  0  0  0  0  0
   -4.7667   16.7791  -35.5134 H   0  0  0  0  0  0  0  0  0  0  0  0
   -3.6303   18.1702  -35.5134 H   0  0  0  0  0  0  0  0  0  0  0  0
   -6.7800   16.7970  -34.2240 H   0  0  0  0  0  0  0  0  0  0  0  0
   -8.4247   18.0971  -32.8318 H   0  0  0  0  0  0  0  0  0  0  0  0
   -9.1920   20.4499  -30.2116 H   0  0  0  0  0  0  0  0  0  0  0  0
   -9.7067   21.3068  -31.7041 H   0  0  0  0  0  0  0  0  0  0  0  0
   -9.5516   19.5172  -31.7041 H   0  0  0  0  0  0  0  0  0  0  0  0
  1  2  1  0
  2  3  1  0
  3  4  1  0
  4  5  1  0
  5  6  1  0
  6  7  1  0
  7  8  2  0
  8  9  1  0
  9 10  2  0
 10 11  1  0
 10 12  1  0
 12 13  2  0
 13 14  1  0
 14 15  1  0
 14 16  2  0
 16 17  1  0
 17 18  2  0
 18 19  1  0
 19 20  1  0
 11  7  1  0
 18 12  1  0
 19  9  1  0
  1 21  1  0
  1 22  1  0
  1 23  1  0
  3 24  1  0
  3 25  1  0
  4 26  1  0
  4 27  1  0
  5 28  1  0
  5 29  1  0
  6 30  1  0
  6 31  1  0
  8 32  1  0
 13 33  1  0
 15 34  1  0
 15 35  1  0
 15 36  1  0
 16 37  1  0
 17 38  1  0
 20 39  1  0
 20 40  1  0
 20 41  1  0
M  CHG  1   5   1
M  END
>  <UniqueID>  (2) 
2

>  <SMILES>  (2) 
COCC[NH2+]Cc1cc2c(s1)c1cc(C)ccc1n2C

>  <Energy>  (2) 
122.86614168387977

>  <Genealogy>  (2) 
COCC[NH2+]Cc1cc2c(s1)c1cc(C)ccc1n2C (protonated)
COCC[NH2+]Cc1cc2c(s1)c1cc(C)ccc1n2C (3D coordinates assigned)
COCC[NH2+]Cc1cc2c(s1)c1cc(C)ccc1n2C (optimized conformer: 122.86614168387977 kcal/mol)

>  <smiles>  (2) 
COCCNCc1cc2c(s1)c1cc(C)ccc1n2C

>  <score_type>  (2) 
oracle

>  <origin>  (2) 
adg

>  <m_score__min__energy>  (2) 
-7.4299999999999997

>  <m_primary>  (2) 
energy

$$$$
2:0
     RDKit          3D

 53 55  0  0  1  0  0  0  0  0999 V2000
   -2.4120   19.2720  -26.3860 C   0  0  0  0  0  0  0  0  0  0  0  0
   -2.2560   20.2190  -27.5970 C   0  0  0  0  0  0  0  0  0  0  0  0
   -1.1550   20.9900  -27.3270 O   0  0  0  0  0  0  0  0  0  0  0  0
   -1.3430   22.2140  -26.7590 C   0  0  0  0  0  0  0  0  0  0  0  0
   -0.4260   23.2930  -27.2390 C   0  0  0  0  0  0  0  0  0  0  0  0
   -0.5910   23.6180  -28.5650 O   0  0  0  0  0  0  0  0  0  0  0  0
   -1.1110   22.9570  -29.6250 C   0  0  0  0  0  0  0  0  0  0  0  0
   -0.5550   21.9120  -30.3160 C   0  0  0  0  0  0  0  0  0  0  0  0
   -1.1760   21.2980  -31.3980 C   0  0  0  0  0  0  0  0  0  0  0  0
   -0.6010   20.2720  -32.0550 N   0  0  0  0  0  0  0  0  0  0  0  0
   -1.2170   19.6770  -33.1130 C   0  0  0  0  0  0  0  0  0  0  0  0
   -2.4330   20.1210  -33.5160 N   0  0  0  0  0  0  0  0  0  0  0  0
   -3.0540   21.1480  -32.8890 C   0  0  0  0  0  0  0  0  0  0  0  0
   -4.1930   21.5890  -33.2400 N   0  0  0  0  0  0  0  0  0  0  0  0
   -5.3750   20.8670  -32.9170 C   0  0  0  0  0  0  0  0  0  0  0  0
   -5.3890   19.4840  -33.1240 C   0  0  0  0  0  0  0  0  0  0  0  0
   -6.5490   18.8180  -32.8000 C   0  0  0  0  0  0  0  0  0  0  0  0
   -7.6580   19.4580  -32.2950 C   0  0  0  0  0  0  0  0  0  0  0  0
   -9.1190   18.5770  -31.8930 Cl  0  0  0  0  0  0  0  0  0  0  0  0
   -7.6330   20.8300  -32.0930 C   0  0  0  0  0  0  0  0  0  0  0  0
   -9.0320   21.6780  -31.4500 Cl  0  0  0  0  0  0  0  0  0  0  0  0
   -6.4840   21.5220  -32.4090 C   0  0  0  0  0  0  0  0  0  0  0  0
   -2.4110   21.7310  -31.8250 C   0  0  0  0  0  0  0  0  0  0  0  0
   -2.9930   22.7780  -31.1510 C   0  0  0  0  0  0  0  0  0  0  0  0
   -2.3700   23.3800  -30.0810 C   0  0  0  0  0  0  0  0  0  0  0  0
   -3.0130   24.4340  -29.4430 O   0  0  0  0  0  0  0  0  0  0  0  0
   -4.2620   24.1750  -28.8420 C   0  0  0  0  0  0  0  0  0  0  0  0
   -5.3370   25.0110  -29.5230 C   0  0  0  0  0  0  0  0  0  0  0  0
   -5.0010   25.0740  -30.8750 O   0  0  0  0  0  0  0  0  0  0  0  0
   -6.0440   24.5170  -31.5930 C   0  0  0  0  0  0  0  0  0  0  0  0
   -2.3169   19.8493  -25.4545 H   0  0  0  0  0  0  0  0  0  0  0  0
   -3.4013   18.7923  -26.4207 H   0  0  0  0  0  0  0  0  0  0  0  0
   -1.6289   18.5003  -26.4207 H   0  0  0  0  0  0  0  0  0  0  0  0
   -2.1015   19.6397  -28.5192 H   0  0  0  0  0  0  0  0  0  0  0  0
   -3.1548   20.8347  -27.7488 H   0  0  0  0  0  0  0  0  0  0  0  0
   -2.3760   22.5294  -26.9673 H   0  0  0  0  0  0  0  0  0  0  0  0
   -1.1261   22.0870  -25.6881 H   0  0  0  0  0  0  0  0  0  0  0  0
   -0.6080   24.1951  -26.6365 H   0  0  0  0  0  0  0  0  0  0  0  0
    0.5997   22.9109  -27.1301 H   0  0  0  0  0  0  0  0  0  0  0  0
    0.4308   21.5409  -29.9990 H   0  0  0  0  0  0  0  0  0  0  0  0
   -0.7312   18.8411  -33.6378 H   0  0  0  0  0  0  0  0  0  0  0  0
   -2.9430   19.6920  -34.3250 H   0  0  0  0  0  0  0  0  0  0  0  0
   -4.5138   18.9533  -33.5269 H   0  0  0  0  0  0  0  0  0  0  0  0
   -6.5916   17.7292  -32.9509 H   0  0  0  0  0  0  0  0  0  0  0  0
   -6.4474   22.6106  -32.2554 H   0  0  0  0  0  0  0  0  0  0  0  0
   -3.9791   23.1433  -31.4739 H   0  0  0  0  0  0  0  0  0  0  0  0
   -4.5056   23.1076  -28.9483 H   0  0  0  0  0  0  0  0  0  0  0  0
   -4.2161   24.4365  -27.7745 H   0  0  0  0  0  0  0  0  0  0  0  0
   -6.3214   24.5361  -29.3990 H   0  0  0  0  0  0  0  0  0  0  0  0
   -5.3930   26.0174  -29.0825 H   0  0  0  0  0  0  0  0  0  0  0  0
   -6.7953   24.1158  -30.8969 H   0  0  0  0  0  0  0  0  0  0  0  0
   -6.5061   25.2884  -32.2265 H   0  0  0  0  0  0  0  0  0  0  0  0
   -5.6600   23.7039  -32.2265 H   0  0  0  0  0  0  0  0  0  0  0  0
  1  2  1  0
  2  3  1  0
  3  4  1  0
  4  5  1  0
  5  6  1  0
  6  7  1  0
  7  8  2  0
  8  9  1  0
  9 10  1  0
 10 11  2  0
 11 12  1  0
 12 13  1  0
 13 14  2  0
 14 15  1  0
 15 16  2  0
 16 17  1  0
 17 18  2  0
 18 19  1  0
 18 20  1  0
 20 21  1  0
 20 22  2  0
 13 23  1  0
 23 24  1  0
 24 25  2  0
 25 26  1  0
 26 27  1  0
 27 28  1  0
 28 29  1  0
 29 30  1  0
 25  7  1  0
 23  9  2  0
 22 15  1  0
  1 31  1  0
  1 32  1  0
  1 33  1  0
  2 34  1  0
  2 35  1  0
  4 36  1  0
  4 37  1  0
  5 38  1  0
  5 39  1  0
  8 40  1  0
 11 41  1  0
 12 42  1  0
 16 43  1  0
 17 44  1  0
 22 45  1  0
 24 46  1  0
 27 47  1  0
 27 48  1  0
 28 49  1  0
 28 50  1  0
 30 51  1  0
 30 52  1  0
 30 53  1  0
M  END
>  <smiles>  (3) 
CCOCCOc1cc2nc[nH]c(=Nc3ccc(Cl)c(Cl)c3)c2cc1OCCOC

>  <score_type>  (3) 
oracle

>  <origin>  (3) 
adg

>  <m_score__min__energy>  (3) 
-8.5500000000000007

>  <m_primary>  (3) 
energy

$$$$
3:0
     RDKit          3D

 56 60  0  0  0  0  0  0  0  0999 V2000
   -6.1600   25.3050  -29.6640 C   0  0  0  0  0  0  0  0  0  0  0  0
   -5.4230   25.0010  -30.9680 C   0  0  0  0  0  0  0  0  0  0  0  0
   -4.2000   24.1960  -30.7450 N   0  0  0  0  0  0  0  0  0  0  0  0
   -3.5230   24.5510  -29.4790 C   0  0  0  0  0  0  0  0  0  0  0  0
   -3.6200   23.3930  -28.4970 C   0  0  0  0  0  0  0  0  0  0  0  0
   -4.3810   22.7320  -30.8990 C   0  0  0  0  0  0  0  0  0  0  0  0
   -3.7070   22.1240  -32.1490 C   0  0  0  0  0  0  0  0  0  0  0  0
   -4.7090   21.6670  -33.1090 N   0  0  0  0  0  0  0  0  0  0  0  0
   -5.8150   20.8260  -32.7390 C   0  0  0  0  0  0  0  0  0  0  0  0
   -7.0390   21.3920  -32.3430 C   0  0  0  0  0  0  0  0  0  0  0  0
   -7.2140   22.7930  -32.3370 C   0  0  0  0  0  0  0  0  0  0  0  0
   -8.4280   23.3600  -31.9620 C   0  0  0  0  0  0  0  0  0  0  0  0
   -9.4900   22.5450  -31.5900 C   0  0  0  0  0  0  0  0  0  0  0  0
   -9.3460   21.1560  -31.5890 C   0  0  0  0  0  0  0  0  0  0  0  0
   -8.1230   20.5440  -31.9680 C   0  0  0  0  0  0  0  0  0  0  0  0
   -7.9740   19.1680  -31.9850 N   0  0  0  0  0  0  0  0  0  0  0  0
   -9.1070   18.2940  -31.6050 C   0  0  0  0  0  0  0  0  0  0  0  0
   -6.7720   18.6050  -32.3580 C   0  0  0  0  0  0  0  0  0  0  0  0
   -6.6050   17.2420  -32.3580 N   0  0  0  0  0  0  0  0  0  0  0  0
   -5.4060   16.7260  -32.7160 C   0  0  0  0  0  0  0  0  0  0  0  0
   -5.0580   15.4200  -32.7530 N   0  0  0  0  0  0  0  0  0  0  0  0
   -3.7580   15.4970  -33.1510 C   0  0  0  0  0  0  0  0  0  0  0  0
   -2.9090   14.4150  -33.3550 C   0  0  0  0  0  0  0  0  0  0  0  0
   -1.5940   14.6850  -33.7740 C   0  0  0  0  0  0  0  0  0  0  0  0
   -1.1640   16.0120  -33.9720 C   0  0  0  0  0  0  0  0  0  0  0  0
   -2.0590   17.0710  -33.7490 C   0  0  0  0  0  0  0  0  0  0  0  0
   -3.3150   16.7600  -33.3490 N   0  0  0  0  0  0  0  0  0  0  0  0
   -4.3730   17.5230  -33.0680 C   0  0  0  0  0  0  0  0  0  0  0  0
   -4.4720   18.8700  -33.0870 N   0  0  0  0  0  0  0  0  0  0  0  0
   -5.6710   19.4370  -32.7430 C   0  0  0  0  0  0  0  0  0  0  0  0
   -5.5188   25.0405  -28.8102 H   0  0  0  0  0  0  0  0  0  0  0  0
   -6.4033   26.3769  -29.6216 H   0  0  0  0  0  0  0  0  0  0  0  0
   -7.0883   24.7163  -29.6216 H   0  0  0  0  0  0  0  0  0  0  0  0
   -6.0975   24.4433  -31.6344 H   0  0  0  0  0  0  0  0  0  0  0  0
   -5.1197   25.9589  -31.4156 H   0  0  0  0  0  0  0  0  0  0  0  0
   -2.4641   24.7703  -29.6808 H   0  0  0  0  0  0  0  0  0  0  0  0
   -4.0100   25.4362  -29.0440 H   0  0  0  0  0  0  0  0  0  0  0  0
   -3.5875   23.7810  -27.4682 H   0  0  0  0  0  0  0  0  0  0  0  0
   -4.5663   22.8554  -28.6564 H   0  0  0  0  0  0  0  0  0  0  0  0
   -2.7763   22.7054  -28.6564 H   0  0  0  0  0  0  0  0  0  0  0  0
   -3.9603   22.2397  -30.0098 H   0  0  0  0  0  0  0  0  0  0  0  0
   -5.4617   22.5643  -31.0174 H   0  0  0  0  0  0  0  0  0  0  0  0
   -3.0740   22.8876  -32.6246 H   0  0  0  0  0  0  0  0  0  0  0  0
   -3.0989   21.2620  -31.8372 H   0  0  0  0  0  0  0  0  0  0  0  0
   -4.6120   21.9620  -34.1070 H   0  0  0  0  0  0  0  0  0  0  0  0
   -6.3791   23.4452  -32.6329 H   0  0  0  0  0  0  0  0  0  0  0  0
   -8.5470   24.4535  -31.9600 H   0  0  0  0  0  0  0  0  0  0  0  0
  -10.4489   22.9961  -31.2948 H   0  0  0  0  0  0  0  0  0  0  0  0
  -10.1957   20.5250  -31.2891 H   0  0  0  0  0  0  0  0  0  0  0  0
   -9.1768   18.2401  -30.5085 H   0  0  0  0  0  0  0  0  0  0  0  0
  -10.0416   18.7074  -32.0121 H   0  0  0  0  0  0  0  0  0  0  0  0
   -8.9444   17.2851  -32.0121 H   0  0  0  0  0  0  0  0  0  0  0  0
   -3.2541   13.3830  -33.1941 H   0  0  0  0  0  0  0  0  0  0  0  0
   -0.8955   13.8534  -33.9486 H   0  0  0  0  0  0  0  0  0  0  0  0
   -0.1340   16.2172  -34.2991 H   0  0  0  0  0  0  0  0  0  0  0  0
   -1.7506   18.1169  -33.8942 H   0  0  0  0  0  0  0  0  0  0  0  0
  1  2  1  0
  2  3  1  0
  3  4  1  0
  4  5  1  0
  3  6  1  0
  6  7  1  0
  7  8  1  0
  8  9  1  0
  9 10  2  0
 10 11  1  0
 11 12  2  0
 12 13  1  0
 13 14  2  0
 14 15  1  0
 15 16  2  0
 16 17  1  0
 16 18  1  0
 18 19  2  0
 19 20  1  0
 20 21  1  0
 21 22  2  0
 22 23  1  0
 23 24  2  0
 24 25  1  0
 25 26  2  0
 26 27  1  0
 27 28  1  0
 28 29  1  0
 29 30  2  0
 30  9  1  0
 15 10  1  0
 30 18  1  0
 28 20  2  0
 27 22  1  0
  1 31  1  0
  1 32  1  0
  1 33  1  0
  2 34  1  0
  2 35  1  0
  4 36  1  0
  4 37  1  0
  5 38  1  0
  5 39  1  0
  5 40  1  0
  6 41  1  0
  6 42  1  0
  7 43  1  0
  7 44  1  0
  8 45  1  0
 11 46  1  0
 12 47  1  0
 13 48  1  0
 14 49  1  0
 17 50  1  0
 17 51  1  0
 17 52  1  0
 23 53  1  0
 24 54  1  0
 25 55  1  0
 26 56  1  0
M  CHG  1  16   1
M  END
>  <UniqueID>  (4) 
3

>  <SMILES>  (4) 
CCN(CC)CCNc1c2ccccc2[n+](C)c2nc3nc4ccccn4c3nc12

>  <Energy>  (4) 
128.31076661565996

>  <Genealogy>  (4) 
CCN(CC)CCNc1c2ccccc2[n+](C)c2nc3nc4ccccn4c3nc12 (3D coordinates assigned)
CCN(CC)CCNc1c2ccccc2[n+](C)c2nc3nc4ccccn4c3nc12 (optimized conformer: 128.31076661565996 kcal/mol)

>  <smiles>  (4) 
CCN(CC)CCNc1c2ccccc2[n+](C)c2nc3nc4ccccn4c3nc12

>  <score_type>  (4) 
oracle

>  <origin>  (4) 
adg

>  <m_score__min__energy>  (4) 
-9.1300000000000008

>  <m_primary>  (4) 
energy

$$$$
4:0
     RDKit          3D

 57 59  0  0  0  0  0  0  0  0999 V2000
    1.0310   23.2510  -36.0740 C   0  0  0  0  0  0  0  0  0  0  0  0
    0.5290   21.8720  -35.6550 C   0  0  0  0  0  0  0  0  0  0  0  0
   -0.0780   21.9250  -34.3640 O   0  0  0  0  0  0  0  0  0  0  0  0
   -1.0930   21.0710  -33.9030 C   0  0  0  0  0  0  0  0  0  0  0  0
   -2.1590   21.5150  -33.0980 C   0  0  0  0  0  0  0  0  0  0  0  0
   -3.1420   20.6170  -32.6670 C   0  0  0  0  0  0  0  0  0  0  0  0
   -3.0710   19.2590  -33.0290 C   0  0  0  0  0  0  0  0  0  0  0  0
   -4.0300   18.3130  -32.6250 O   0  0  0  0  0  0  0  0  0  0  0  0
   -4.5800   17.2850  -33.4490 C   0  0  0  0  0  0  0  0  0  0  0  0
   -6.1170   17.2750  -33.3370 C   0  0  0  0  0  0  0  0  0  0  0  0
   -6.6640   18.3180  -32.4420 N   0  0  0  0  0  0  0  0  0  0  0  0
   -8.0340   18.0330  -31.9630 C   0  0  0  0  0  0  0  0  0  0  0  0
   -8.6130   19.2610  -31.2560 C   0  0  0  0  0  0  0  0  0  0  0  0
   -8.7390   20.3990  -32.1950 N   0  0  0  0  0  0  0  0  0  0  0  0
   -8.9630   21.7020  -31.5280 C   0  0  0  0  0  0  0  0  0  0  0  0
   -7.6930   22.4910  -31.2790 C   0  0  0  0  0  0  0  0  0  0  0  0
   -7.0070   22.3670  -30.0600 C   0  0  0  0  0  0  0  0  0  0  0  0
   -5.8340   23.0900  -29.8280 C   0  0  0  0  0  0  0  0  0  0  0  0
   -5.3330   23.9620  -30.8000 C   0  0  0  0  0  0  0  0  0  0  0  0
   -4.1490   24.6610  -30.5220 O   0  0  0  0  0  0  0  0  0  0  0  0
   -3.1150   24.1830  -29.6680 C   0  0  0  0  0  0  0  0  0  0  0  0
   -6.0300   24.1100  -32.0130 C   0  0  0  0  0  0  0  0  0  0  0  0
   -7.2040   23.3870  -32.2450 C   0  0  0  0  0  0  0  0  0  0  0  0
   -7.7390   20.4220  -33.2880 C   0  0  0  0  0  0  0  0  0  0  0  0
   -6.4320   19.7100  -32.8990 C   0  0  0  0  0  0  0  0  0  0  0  0
   -2.0090   18.8230  -33.8280 C   0  0  0  0  0  0  0  0  0  0  0  0
   -1.0280   19.7190  -34.2590 C   0  0  0  0  0  0  0  0  0  0  0  0
    1.2490   23.8499  -35.1774 H   0  0  0  0  0  0  0  0  0  0  0  0
    1.9469   23.1413  -36.6733 H   0  0  0  0  0  0  0  0  0  0  0  0
    0.2589   23.7558  -36.6733 H   0  0  0  0  0  0  0  0  0  0  0  0
   -0.2119   21.5198  -36.3878 H   0  0  0  0  0  0  0  0  0  0  0  0
    1.3849   21.1822  -35.6145 H   0  0  0  0  0  0  0  0  0  0  0  0
   -2.2197   22.5738  -32.8061 H   0  0  0  0  0  0  0  0  0  0  0  0
   -3.9740   20.9743  -32.0424 H   0  0  0  0  0  0  0  0  0  0  0  0
   -4.2936   17.4665  -34.4954 H   0  0  0  0  0  0  0  0  0  0  0  0
   -4.1905   16.3120  -33.1151 H   0  0  0  0  0  0  0  0  0  0  0  0
   -6.5376   17.4269  -34.3420 H   0  0  0  0  0  0  0  0  0  0  0  0
   -6.3971   16.3045  -32.9015 H   0  0  0  0  0  0  0  0  0  0  0  0
   -8.6720   17.7730  -32.8205 H   0  0  0  0  0  0  0  0  0  0  0  0
   -7.9986   17.1935  -31.2530 H   0  0  0  0  0  0  0  0  0  0  0  0
   -9.6071   19.0116  -30.8565 H   0  0  0  0  0  0  0  0  0  0  0  0
   -7.9338   19.5508  -30.4407 H   0  0  0  0  0  0  0  0  0  0  0  0
   -9.6273   22.3065  -32.1631 H   0  0  0  0  0  0  0  0  0  0  0  0
   -9.4024   21.4851  -30.5431 H   0  0  0  0  0  0  0  0  0  0  0  0
   -7.3964   21.6949  -29.2811 H   0  0  0  0  0  0  0  0  0  0  0  0
   -5.3004   22.9724  -28.8733 H   0  0  0  0  0  0  0  0  0  0  0  0
   -3.4134   24.3209  -28.6183 H   0  0  0  0  0  0  0  0  0  0  0  0
   -2.9432   23.1141  -29.8630 H   0  0  0  0  0  0  0  0  0  0  0  0
   -2.1895   24.7446  -29.8630 H   0  0  0  0  0  0  0  0  0  0  0  0
   -5.6496   24.7978  -32.7826 H   0  0  0  0  0  0  0  0  0  0  0  0
   -7.7492   23.5205  -33.1910 H   0  0  0  0  0  0  0  0  0  0  0  0
   -8.1663   19.9206  -34.1689 H   0  0  0  0  0  0  0  0  0  0  0  0
   -7.4983   21.4739  -33.5016 H   0  0  0  0  0  0  0  0  0  0  0  0
   -5.7666   19.6886  -33.7747 H   0  0  0  0  0  0  0  0  0  0  0  0
   -5.9804   20.2673  -32.0650 H   0  0  0  0  0  0  0  0  0  0  0  0
   -1.9458   17.7643  -34.1198 H   0  0  0  0  0  0  0  0  0  0  0  0
   -0.1972   19.3589  -34.8836 H   0  0  0  0  0  0  0  0  0  0  0  0
  1  2  1  0
  2  3  1  0
  3  4  1  0
  4  5  2  0
  5  6  1  0
  6  7  2  0
  7  8  1  0
  8  9  1  0
  9 10  1  0
 10 11  1  0
 11 12  1  0
 12 13  1  0
 13 14  1  0
 14 15  1  0
 15 16  1  0
 16 17  2  0
 17 18  1  0
 18 19  2  0
 19 20  1  0
 20 21  1  0
 19 22  1  0
 22 23  2  0
 14 24  1  0
 24 25  1  0
  7 26  1  0
 26 27  2  0
 27  4  1  0
 25 11  1  0
 23 16  1  0
  1 28  1  0
  1 29  1  0
  1 30  1  0
  2 31  1  0
  2 32  1  0
  5 33  1  0
  6 34  1  0
  9 35  1  0
  9 36  1  0
 10 37  1  0
 10 38  1  0
 12 39  1  0
 12 40  1  0
 13 41  1  0
 13 42  1  0
 15 43  1  0
 15 44  1  0
 17 45  1  0
 18 46  1  0
 21 47  1  0
 21 48  1  0
 21 49  1  0
 22 50  1  0
 23 51  1  0
 24 52  1  0
 24 53  1  0
 25 54  1  0
 25 55  1  0
 26 56  1  0
 27 57  1  0
M  END
>  <UniqueID>  (5) 
4

>  <SMILES>  (5) 
CCOc1ccc(OCCN2CCN(Cc3ccc(OC)cc3)CC2)cc1

>  <Energy>  (5) 
72.29344404221776

>  <Genealogy>  (5) 
CCOc1ccc(OCCN2CCN(Cc3ccc(OC)cc3)CC2)cc1 (3D coordinates assigned)
CCOc1ccc(OCCN2CCN(Cc3ccc(OC)cc3)CC2)cc1 (nonaromatic ring conformer: 72.29344404221776 kcal/mol)

>  <smiles>  (5) 
CCOc1ccc(OCCN2CCN(Cc3ccc(OC)cc3)CC2)cc1

>  <score_type>  (5) 
oracle

>  <origin>  (5) 
adg

>  <m_score__min__energy>  (5) 
-8.5800000000000001

>  <m_primary>  (5) 
energy

$$$$
5:0
     RDKit          3D

 66 70  0  0  0  0  0  0  0  0999 V2000
   -0.3350   28.3940  -25.8520 C   0  0  0  0  0  0  0  0  0  0  0  0
   -0.1150   27.0610  -25.1210 C   0  0  0  0  0  0  0  0  0  0  0  0
   -0.2050   25.8650  -25.9950 N   0  0  0  0  0  0  0  0  0  0  0  0
   -0.8610   24.6990  -25.3570 C   0  0  0  0  0  0  0  0  0  0  0  0
   -0.1670   23.3890  -25.7280 C   0  0  0  0  0  0  0  0  0  0  0  0
   -0.7890   26.1750  -27.3200 C   0  0  0  0  0  0  0  0  0  0  0  0
   -2.0690   25.3700  -27.5340 C   0  0  0  0  0  0  0  0  0  0  0  0
   -2.3520   25.2960  -28.9290 O   0  0  0  0  0  0  0  0  0  0  0  0
   -2.7570   24.1270  -29.5460 N   0  0  0  0  0  0  0  0  0  0  0  0
   -4.0050   23.8990  -30.0050 C   0  0  0  0  0  0  0  0  0  0  0  0
   -4.0790   22.6840  -30.6610 C   0  0  0  0  0  0  0  0  0  0  0  0
   -2.7870   22.1680  -30.6340 C   0  0  0  0  0  0  0  0  0  0  0  0
   -2.2390   21.0040  -31.1810 C   0  0  0  0  0  0  0  0  0  0  0  0
   -0.8790   20.7430  -30.9480 C   0  0  0  0  0  0  0  0  0  0  0  0
   -0.0840   19.1570  -31.6500 Br  0  0  0  0  0  0  0  0  0  0  0  0
   -0.0960   21.6440  -30.1930 C   0  0  0  0  0  0  0  0  0  0  0  0
   -0.6600   22.8220  -29.6760 C   0  0  0  0  0  0  0  0  0  0  0  0
   -2.0130   23.0670  -29.9270 C   0  0  0  0  0  0  0  0  0  0  0  0
   -5.3030   22.2580  -31.4380 C   0  0  1  0  0  0  0  0  0  0  0  0
   -5.5490   20.7210  -31.3530 C   0  0  0  0  0  0  0  0  0  0  0  0
   -7.0470   20.3380  -31.3380 C   0  0  2  0  0  0  0  0  0  0  0  0
   -7.2750   18.8290  -31.6450 C   0  0  0  0  0  0  0  0  0  0  0  0
   -8.3320   18.5790  -32.7340 C   0  0  0  0  0  0  0  0  0  0  0  0
   -9.6130   19.3960  -32.4910 C   0  0  0  0  0  0  0  0  0  0  0  0
   -9.3520   20.8940  -32.1910 C   0  0  0  0  0  0  0  0  0  0  0  0
   -7.8600   21.2700  -32.2670 C   0  0  1  0  0  0  0  0  0  0  0  0
   -7.6120   22.7120  -31.8830 C   0  0  0  0  0  0  0  0  0  0  0  0
   -8.3410   23.5890  -32.3330 O   0  0  0  0  0  0  0  0  0  0  0  0
   -6.5030   23.0310  -30.9930 N   0  0  2  0  0  0  0  0  0  0  0  0
   -6.2330   24.4940  -30.9420 C   0  0  0  0  0  0  0  0  0  0  0  0
   -5.1630   24.8350  -29.8830 C   0  0  0  0  0  0  0  0  0  0  0  0
   -0.4679   29.1991  -25.1144 H   0  0  0  0  0  0  0  0  0  0  0  0
    0.5388   28.6150  -26.4826 H   0  0  0  0  0  0  0  0  0  0  0  0
   -1.2335   28.3225  -26.4826 H   0  0  0  0  0  0  0  0  0  0  0  0
    0.8853   27.0795  -24.6638 H   0  0  0  0  0  0  0  0  0  0  0  0
   -0.9218   26.9711  -24.3787 H   0  0  0  0  0  0  0  0  0  0  0  0
   -0.8268   24.8239  -24.2647 H   0  0  0  0  0  0  0  0  0  0  0  0
   -1.8999   24.6508  -25.7151 H   0  0  0  0  0  0  0  0  0  0  0  0
    0.1174   22.8522  -24.8110 H   0  0  0  0  0  0  0  0  0  0  0  0
   -0.8531   22.7655  -26.3200 H   0  0  0  0  0  0  0  0  0  0  0  0
    0.7342   23.6064  -26.3200 H   0  0  0  0  0  0  0  0  0  0  0  0
   -1.0222   27.2487  -27.3720 H   0  0  0  0  0  0  0  0  0  0  0  0
   -0.0632   25.9097  -28.1029 H   0  0  0  0  0  0  0  0  0  0  0  0
   -1.9361   24.3548  -27.1318 H   0  0  0  0  0  0  0  0  0  0  0  0
   -2.9045   25.8619  -27.0144 H   0  0  0  0  0  0  0  0  0  0  0  0
   -2.8546   20.3133  -31.7760 H   0  0  0  0  0  0  0  0  0  0  0  0
    0.9652   21.4212  -30.0082 H   0  0  0  0  0  0  0  0  0  0  0  0
   -0.0550   23.5305  -29.0911 H   0  0  0  0  0  0  0  0  0  0  0  0
   -5.1190   22.4869  -32.4981 H   0  0  0  0  0  0  0  0  0  0  0  0
   -5.0759   20.2436  -32.2238 H   0  0  0  0  0  0  0  0  0  0  0  0
   -5.1162   20.3753  -30.4026 H   0  0  0  0  0  0  0  0  0  0  0  0
   -7.4228   20.4889  -30.3153 H   0  0  0  0  0  0  0  0  0  0  0  0
   -6.3215   18.3932  -31.9782 H   0  0  0  0  0  0  0  0  0  0  0  0
   -7.6455   18.3624  -30.7203 H   0  0  0  0  0  0  0  0  0  0  0  0
   -7.9103   18.8613  -33.7099 H   0  0  0  0  0  0  0  0  0  0  0  0
   -8.5993   17.5122  -32.7101 H   0  0  0  0  0  0  0  0  0  0  0  0
  -10.2440   19.3270  -33.3894 H   0  0  0  0  0  0  0  0  0  0  0  0
  -10.1000   18.9711  -31.6009 H   0  0  0  0  0  0  0  0  0  0  0  0
   -9.9044   21.5001  -32.9241 H   0  0  0  0  0  0  0  0  0  0  0  0
   -9.6891   21.0880  -31.1621 H   0  0  0  0  0  0  0  0  0  0  0  0
   -7.5376   21.1468  -33.3114 H   0  0  0  0  0  0  0  0  0  0  0  0
   -6.7730   22.7260  -30.0260 H   0  0  0  0  0  0  0  0  0  0  0  0
   -5.8782   24.8266  -31.9286 H   0  0  0  0  0  0  0  0  0  0  0  0
   -7.1661   25.0079  -30.6678 H   0  0  0  0  0  0  0  0  0  0  0  0
   -4.8147   25.8670  -30.0366 H   0  0  0  0  0  0  0  0  0  0  0  0
   -5.6035   24.7347  -28.8801 H   0  0  0  0  0  0  0  0  0  0  0  0
  1  2  1  0
  2  3  1  0
  3  4  1  0
  4  5  1  0
  3  6  1  0
  6  7  1  0
  7  8  1  0
  8  9  1  0
  9 10  1  0
 10 11  2  0
 11 12  1  0
 12 13  2  0
 13 14  1  0
 14 15  1  0
 14 16  2  0
 16 17  1  0
 17 18  2  0
 11 19  1  0
 19 20  1  0
 20 21  1  0
 21 22  1  0
 22 23  1  0
 23 24  1  0
 24 25  1  0
 25 26  1  0
 26 27  1  0
 27 28  2  0
 27 29  1  0
 29 30  1  0
 30 31  1  0
 18  9  1  0
 29 19  1  0
 31 10  1  0
 18 12  1  0
 26 21  1  0
  1 32  1  0
  1 33  1  0
  1 34  1  0
  2 35  1  0
  2 36  1  0
  4 37  1  0
  4 38  1  0
  5 39  1  0
  5 40  1  0
  5 41  1  0
  6 42  1  0
  6 43  1  0
  7 44  1  0
  7 45  1  0
 13 46  1  0
 16 47  1  0
 17 48  1  0
 19 49  1  6
 20 50  1  0
 20 51  1  0
 21 52  1  1
 22 53  1  0
 22 54  1  0
 23 55  1  0
 23 56  1  0
 24 57  1  0
 24 58  1  0
 25 59  1  0
 25 60  1  0
 26 61  1  6
 29 62  1  1
 30 63  1  0
 30 64  1  0
 31 65  1  0
 31 66  1  0
M  CHG  1  29   1
M  END
>  <UniqueID>  (6) 
5

>  <SMILES>  (6) 
CCN(CC)CCOn1c2c(c3cc(Br)ccc31)[C@H]1C[C@@H]3CCCCC3C(=O)[NH+]1CC2

>  <Energy>  (6) 
126.10171502400947

>  <Genealogy>  (6) 
CCN(CC)CCOn1c2c(c3cc(Br)ccc31)C1CC3CCCCC3C(=O)[NH+]1CC2 (protonated)
CCN(CC)CCOn1c2c(c3cc(Br)ccc31)[C@H]1C[C@@H]3CCCCC3C(=O)[NH+]1CC2 (chirality)
CCN(CC)CCOn1c2c(c3cc(Br)ccc31)[C@H]1C[C@@H]3CCCCC3C(=O)[NH+]1CC2 (3D coordinates assigned)
CCN(CC)CCOn1c2c(c3cc(Br)ccc31)[C@H]1C[C@@H]3CCCCC3C(=O)[NH+]1CC2 (nonaromatic ring conformer: 126.10171502400947 kcal/mol)

>  <smiles>  (6) 
CCN(CC)CCOn1c2c(c3cc(Br)ccc31)C1CC3CCCCC3C(=O)N1CC2

>  <score_type>  (6) 
oracle

>  <origin>  (6) 
adg

>  <m_score__min__energy>  (6) 
-9.7100000000000009

>  <m_primary>  (6) 
energy

$$$$
6:0
     RDKit          3D

 52 54  0  0  0  0  0  0  0  0999 V2000
   -7.6820   22.3080  -29.6600 C   0  0  0  0  0  0  0  0  0  0  0  0
   -7.1770   22.5420  -31.0270 N   0  0  0  0  0  0  0  0  0  0  0  0
   -6.8830   23.9800  -31.2370 C   0  0  0  0  0  0  0  0  0  0  0  0
   -6.1040   24.5500  -30.0440 C   0  0  0  0  0  0  0  0  0  0  0  0
   -5.2390   25.7520  -30.4540 C   0  0  0  0  0  0  0  0  0  0  0  0
   -3.8700   25.3300  -30.7420 N   0  0  0  0  0  0  0  0  0  0  0  0
   -3.2160   24.1920  -30.1620 C   0  0  0  0  0  0  0  0  0  0  0  0
   -2.7330   24.2940  -29.0020 O   0  0  0  0  0  0  0  0  0  0  0  0
   -3.1250   22.8980  -30.8640 C   0  0  0  0  0  0  0  0  0  0  0  0
   -4.0850   22.5560  -31.8260 C   0  0  0  0  0  0  0  0  0  0  0  0
   -3.9870   21.3480  -32.5220 C   0  0  0  0  0  0  0  0  0  0  0  0
   -2.9350   20.4540  -32.2570 C   0  0  0  0  0  0  0  0  0  0  0  0
   -2.8100   19.1850  -33.0170 C   0  0  0  0  0  0  0  0  0  0  0  0
   -3.7580   18.8390  -34.0000 C   0  0  0  0  0  0  0  0  0  0  0  0
   -3.6310   17.6430  -34.7140 C   0  0  0  0  0  0  0  0  0  0  0  0
   -2.5610   16.7830  -34.4580 C   0  0  0  0  0  0  0  0  0  0  0  0
   -1.6140   17.1170  -33.4860 C   0  0  0  0  0  0  0  0  0  0  0  0
   -1.7370   18.3100  -32.7700 C   0  0  0  0  0  0  0  0  0  0  0  0
   -1.9960   20.7860  -31.2650 C   0  0  0  0  0  0  0  0  0  0  0  0
   -2.0940   21.9950  -30.5710 C   0  0  0  0  0  0  0  0  0  0  0  0
   -8.1420   22.0430  -32.0290 C   0  0  0  0  0  0  0  0  0  0  0  0
   -7.9580   20.5650  -32.2590 C   0  0  0  0  0  0  0  0  0  0  0  0
   -6.9390   20.0930  -33.1040 C   0  0  0  0  0  0  0  0  0  0  0  0
   -6.7780   18.7190  -33.3110 C   0  0  0  0  0  0  0  0  0  0  0  0
   -7.6310   17.8090  -32.6790 C   0  0  0  0  0  0  0  0  0  0  0  0
   -8.6490   18.2730  -31.8410 C   0  0  0  0  0  0  0  0  0  0  0  0
   -8.8150   19.6460  -31.6320 C   0  0  0  0  0  0  0  0  0  0  0  0
   -6.9359   22.6537  -28.9293 H   0  0  0  0  0  0  0  0  0  0  0  0
   -8.6208   22.8629  -29.5159 H   0  0  0  0  0  0  0  0  0  0  0  0
   -7.8656   21.2330  -29.5159 H   0  0  0  0  0  0  0  0  0  0  0  0
   -6.2818   24.0967  -32.1508 H   0  0  0  0  0  0  0  0  0  0  0  0
   -7.8327   24.5263  -31.3350 H   0  0  0  0  0  0  0  0  0  0  0  0
   -6.8187   24.8715  -29.2721 H   0  0  0  0  0  0  0  0  0  0  0  0
   -5.4384   23.7626  -29.6605 H   0  0  0  0  0  0  0  0  0  0  0  0
   -5.6700   26.2169  -31.3529 H   0  0  0  0  0  0  0  0  0  0  0  0
   -5.2191   26.4727  -29.6232 H   0  0  0  0  0  0  0  0  0  0  0  0
   -4.9196   23.2416  -32.0343 H   0  0  0  0  0  0  0  0  0  0  0  0
   -4.7393   21.0947  -33.2835 H   0  0  0  0  0  0  0  0  0  0  0  0
   -4.6024   19.5129  -34.2071 H   0  0  0  0  0  0  0  0  0  0  0  0
   -4.3759   17.3792  -35.4792 H   0  0  0  0  0  0  0  0  0  0  0  0
   -2.4636   15.8431  -35.0211 H   0  0  0  0  0  0  0  0  0  0  0  0
   -0.7709   16.4397  -33.2846 H   0  0  0  0  0  0  0  0  0  0  0  0
   -0.9882   18.5673  -32.0064 H   0  0  0  0  0  0  0  0  0  0  0  0
   -1.1775   20.0886  -31.0332 H   0  0  0  0  0  0  0  0  0  0  0  0
   -1.3581   22.2392  -29.7907 H   0  0  0  0  0  0  0  0  0  0  0  0
   -9.1646   22.2273  -31.6680 H   0  0  0  0  0  0  0  0  0  0  0  0
   -7.9701   22.5718  -32.9781 H   0  0  0  0  0  0  0  0  0  0  0  0
   -6.2665   20.8057  -33.6038 H   0  0  0  0  0  0  0  0  0  0  0  0
   -5.9786   18.3536  -33.9724 H   0  0  0  0  0  0  0  0  0  0  0  0
   -7.5010   16.7288  -32.8411 H   0  0  0  0  0  0  0  0  0  0  0  0
   -9.3208   17.5570  -31.3450 H   0  0  0  0  0  0  0  0  0  0  0  0
   -9.6194   20.0071  -30.9744 H   0  0  0  0  0  0  0  0  0  0  0  0
  1  2  1  0
  2  3  1  0
  3  4  1  0
  4  5  1  0
  5  6  1  0
  6  7  1  0
  7  8  2  0
  7  9  1  0
  9 10  2  0
 10 11  1  0
 11 12  2  0
 12 13  1  0
 13 14  2  0
 14 15  1  0
 15 16  2  0
 16 17  1  0
 17 18  2  0
 12 19  1  0
 19 20  2  0
  2 21  1  0
 21 22  1  0
 22 23  2  0
 23 24  1  0
 24 25  2  0
 25 26  1  0
 26 27  2  0
 20  9  1  0
 27 22  1  0
 18 13  1  0
  1 28  1  0
  1 29  1  0
  1 30  1  0
  3 31  1  0
  3 32  1  0
  4 33  1  0
  4 34  1  0
  5 35  1  0
  5 36  1  0
 10 37  1  0
 11 38  1  0
 14 39  1  0
 15 40  1  0
 16 41  1  0
 17 42  1  0
 18 43  1  0
 19 44  1  0
 20 45  1  0
 21 46  1  0
 21 47  1  0
 23 48  1  0
 24 49  1  0
 25 50  1  0
 26 51  1  0
 27 52  1  0
M  CHG  1   6  -1
M  END
>  <UniqueID>  (7) 
6

>  <SMILES>  (7) 
CN(CCC[N-]C(=O)c1ccc(-c2ccccc2)cc1)Cc1ccccc1

>  <Energy>  (7) 
55.45970221691031

>  <Genealogy>  (7) 
CN(CCC[N-]C(=O)c1ccc(-c2ccccc2)cc1)Cc1ccccc1 (protonated)
CN(CCC[N-]C(=O)c1ccc(-c2ccccc2)cc1)Cc1ccccc1 (3D coordinates assigned)
CN(CCC[N-]C(=O)c1ccc(-c2ccccc2)cc1)Cc1ccccc1 (optimized conformer: 55.45970221691031 kcal/mol)

>  <smiles>  (7) 
CN(CCCNC(=O)c1ccc(-c2ccccc2)cc1)Cc1ccccc1

>  <score_type>  (7) 
oracle

>  <origin>  (7) 
adg

>  <m_score__min__energy>  (7) 
-10.69

>  <m_primary>  (7) 
energy

$$$$
7:0
     RDKit          3D

 51 53  0  0  0  0  0  0  0  0999 V2000
    0.2590   18.0220  -27.8600 C   0  0  0  0  0  0  0  0  0  0  0  0
   -0.7410   19.0950  -28.1980 C   0  0  0  0  0  0  0  0  0  0  0  0
   -1.7570   19.4320  -27.2930 C   0  0  0  0  0  0  0  0  0  0  0  0
   -2.6830   20.4380  -27.6030 C   0  0  0  0  0  0  0  0  0  0  0  0
   -2.6030   21.1330  -28.8280 C   0  0  0  0  0  0  0  0  0  0  0  0
   -3.5190   22.1470  -29.1920 O   0  0  0  0  0  0  0  0  0  0  0  0
   -4.1160   23.1150  -28.3240 C   0  0  0  0  0  0  0  0  0  0  0  0
   -3.8100   24.5480  -28.7980 C   0  0  0  0  0  0  0  0  0  0  0  0
   -3.7970   24.6870  -30.2640 N   0  0  0  0  0  0  0  0  0  0  0  0
   -5.0450   25.2460  -30.8110 C   0  0  0  0  0  0  0  0  0  0  0  0
   -5.7690   24.1740  -31.6240 C   0  0  0  0  0  0  0  0  0  0  0  0
   -5.2270   22.8440  -31.3280 N   0  0  0  0  0  0  0  0  0  0  0  0
   -5.5640   21.6740  -32.1000 C   0  0  0  0  0  0  0  0  0  0  0  0
   -4.5520   20.9690  -32.7750 C   0  0  0  0  0  0  0  0  0  0  0  0
   -4.8520   19.8020  -33.4880 C   0  0  0  0  0  0  0  0  0  0  0  0
   -6.1610   19.3220  -33.5400 C   0  0  0  0  0  0  0  0  0  0  0  0
   -7.1940   20.0090  -32.8850 C   0  0  0  0  0  0  0  0  0  0  0  0
   -8.4790   19.5430  -32.9510 N   0  0  0  0  0  0  0  0  0  0  0  0
   -9.5030   20.1960  -32.3410 C   0  0  0  0  0  0  0  0  0  0  0  0
   -9.2670   21.3830  -31.6450 C   0  0  0  0  0  0  0  0  0  0  0  0
   -7.9640   21.8920  -31.5600 C   0  0  0  0  0  0  0  0  0  0  0  0
   -6.9010   21.1990  -32.1660 C   0  0  0  0  0  0  0  0  0  0  0  0
   -1.5570   20.8200  -29.7240 C   0  0  0  0  0  0  0  0  0  0  0  0
   -1.4430   21.5540  -31.0330 C   0  0  0  0  0  0  0  0  0  0  0  0
   -0.6370   19.8000  -29.4080 C   0  0  0  0  0  0  0  0  0  0  0  0
    0.3438   17.9310  -26.7671 H   0  0  0  0  0  0  0  0  0  0  0  0
   -0.0750   17.0631  -28.2830 H   0  0  0  0  0  0  0  0  0  0  0  0
    1.2390   18.2878  -28.2830 H   0  0  0  0  0  0  0  0  0  0  0  0
   -1.8284   18.9026  -26.3314 H   0  0  0  0  0  0  0  0  0  0  0  0
   -3.4784   20.6874  -26.8852 H   0  0  0  0  0  0  0  0  0  0  0  0
   -5.2057   22.9649  -28.3139 H   0  0  0  0  0  0  0  0  0  0  0  0
   -3.6984   22.9841  -27.3148 H   0  0  0  0  0  0  0  0  0  0  0  0
   -4.5779   25.2219  -28.3903 H   0  0  0  0  0  0  0  0  0  0  0  0
   -2.8020   24.8017  -28.4380 H   0  0  0  0  0  0  0  0  0  0  0  0
   -3.5790   23.7680  -30.7140 H   0  0  0  0  0  0  0  0  0  0  0  0
   -5.6909   25.5786  -29.9851 H   0  0  0  0  0  0  0  0  0  0  0  0
   -4.8100   26.1025  -31.4600 H   0  0  0  0  0  0  0  0  0  0  0  0
   -6.8397   24.1917  -31.3723 H   0  0  0  0  0  0  0  0  0  0  0  0
   -5.6247   24.3843  -32.6940 H   0  0  0  0  0  0  0  0  0  0  0  0
   -4.6230   22.7370  -30.4790 H   0  0  0  0  0  0  0  0  0  0  0  0
   -3.5160   21.3373  -32.7427 H   0  0  0  0  0  0  0  0  0  0  0  0
   -4.0502   19.2599  -34.0107 H   0  0  0  0  0  0  0  0  0  0  0  0
   -6.3842   18.4003  -34.0974 H   0  0  0  0  0  0  0  0  0  0  0  0
   -8.6970   18.6630  -33.4800 H   0  0  0  0  0  0  0  0  0  0  0  0
  -10.5228   19.7873  -32.3959 H   0  0  0  0  0  0  0  0  0  0  0  0
  -10.1006   21.9167  -31.1652 H   0  0  0  0  0  0  0  0  0  0  0  0
   -7.7732   22.8314  -31.0205 H   0  0  0  0  0  0  0  0  0  0  0  0
   -1.2768   22.6241  -30.8401 H   0  0  0  0  0  0  0  0  0  0  0  0
   -0.5969   21.1493  -31.6078 H   0  0  0  0  0  0  0  0  0  0  0  0
   -2.3719   21.4250  -31.6078 H   0  0  0  0  0  0  0  0  0  0  0  0
    0.1691   19.5542  -30.1150 H   0  0  0  0  0  0  0  0  0  0  0  0
  1  2  1  0
  2  3  2  0
  3  4  1  0
  4  5  2  0
  5  6  1  0
  6  7  1  0
  7  8  1  0
  8  9  1  0
  9 10  1  0
 10 11  1  0
 11 12  1  0
 12 13  1  0
 13 14  2  0
 14 15  1  0
 15 16  2  0
 16 17  1  0
 17 18  2  0
 18 19  1  0
 19 20  2  0
 20 21  1  0
 21 22  2  0
  5 23  1  0
 23 24  1  0
 23 25  2  0
 25  2  1  0
 22 13  1  0
 22 17  1  0
  1 26  1  0
  1 27  1  0
  1 28  1  0
  3 29  1  0
  4 30  1  0
  7 31  1  0
  7 32  1  0
  8 33  1  0
  8 34  1  0
  9 35  1  0
 10 36  1  0
 10 37  1  0
 11 38  1  0
 11 39  1  0
 12 40  1  0
 14 41  1  0
 15 42  1  0
 16 43  1  0
 18 44  1  0
 19 45  1  0
 20 46  1  0
 21 47  1  0
 24 48  1  0
 24 49  1  0
 24 50  1  0
 25 51  1  0
M  CHG  1  18   1
M  END
>  <UniqueID>  (8) 
7

>  <SMILES>  (8) 
Cc1ccc(OCCNCCNc2cccc3[nH+]cccc23)c(C)c1

>  <Energy>  (8) 
57.58285679982658

>  <Genealogy>  (8) 
Cc1ccc(OCCNCCNc2cccc3[nH+]cccc23)c(C)c1 (protonated)
Cc1ccc(OCCNCCNc2cccc3[nH+]cccc23)c(C)c1 (3D coordinates assigned)
Cc1ccc(OCCNCCNc2cccc3[nH+]cccc23)c(C)c1 (optimized conformer: 57.58285679982658 kcal/mol)

>  <smiles>  (8) 
Cc1ccc(OCCNCCNc2cccc3ncccc23)c(C)c1

>  <score_type>  (8) 
oracle

>  <origin>  (8) 
adg

>  <m_score__min__energy>  (8) 
-9.7100000000000009

>  <m_primary>  (8) 
energy

$$$$
8:0
     RDKit          3D

 53 55  0  0  0  0  0  0  0  0999 V2000
   -1.4700   26.4510  -24.8060 C   0  0  0  0  0  0  0  0  0  0  0  0
   -2.3740   25.6310  -25.7190 C   0  0  0  0  0  0  0  0  0  0  0  0
   -1.5580   24.6610  -26.4850 N   0  0  0  0  0  0  0  0  0  0  0  0
   -0.8490   23.6970  -25.6070 C   0  0  0  0  0  0  0  0  0  0  0  0
   -0.8560   22.2490  -26.1180 C   0  0  0  0  0  0  0  0  0  0  0  0
   -0.7110   25.3200  -27.5060 C   0  0  0  0  0  0  0  0  0  0  0  0
   -1.2880   25.1830  -28.9240 C   0  0  0  0  0  0  0  0  0  0  0  0
   -2.7240   24.8950  -28.8930 N   0  0  0  0  0  0  0  0  0  0  0  0
   -3.3640   23.9670  -29.7910 C   0  0  0  0  0  0  0  0  0  0  0  0
   -2.8440   22.6700  -29.9210 C   0  0  0  0  0  0  0  0  0  0  0  0
   -3.4460   21.7470  -30.7780 C   0  0  0  0  0  0  0  0  0  0  0  0
   -4.5820   22.1050  -31.5170 C   0  0  0  0  0  0  0  0  0  0  0  0
   -5.0970   23.3990  -31.4140 C   0  0  0  0  0  0  0  0  0  0  0  0
   -4.5000   24.3260  -30.5430 C   0  0  0  0  0  0  0  0  0  0  0  0
   -6.3200   23.7540  -32.2060 C   0  0  0  0  0  0  0  0  0  0  0  0
   -7.5400   23.0500  -31.6170 C   0  0  0  0  0  0  0  0  0  0  0  0
   -7.6230   21.5430  -31.8210 C   0  0  0  0  0  0  0  0  0  0  0  0
   -8.8890   20.9690  -31.5870 C   0  0  0  0  0  0  0  0  0  0  0  0
   -9.0970   19.5980  -31.7160 C   0  0  0  0  0  0  0  0  0  0  0  0
   -8.0440   18.7640  -32.0700 C   0  0  0  0  0  0  0  0  0  0  0  0
   -6.7760   19.2980  -32.2930 C   0  0  0  0  0  0  0  0  0  0  0  0
   -6.5340   20.6820  -32.1730 C   0  0  0  0  0  0  0  0  0  0  0  0
   -5.1930   21.1680  -32.4140 N   0  0  0  0  0  0  0  0  0  0  0  0
   -4.3650   20.5740  -33.4690 C   0  0  0  0  0  0  0  0  0  0  0  0
   -1.7127   26.2309  -23.7559 H   0  0  0  0  0  0  0  0  0  0  0  0
   -0.4190   26.1917  -25.0016 H   0  0  0  0  0  0  0  0  0  0  0  0
   -1.6259   27.5222  -25.0016 H   0  0  0  0  0  0  0  0  0  0  0  0
   -3.1129   25.0883  -25.1111 H   0  0  0  0  0  0  0  0  0  0  0  0
   -2.8941   26.3030  -26.4176 H   0  0  0  0  0  0  0  0  0  0  0  0
    0.1972   24.0232  -25.5123 H   0  0  0  0  0  0  0  0  0  0  0  0
   -1.3860   23.6935  -24.6470 H   0  0  0  0  0  0  0  0  0  0  0  0
   -0.8593   21.5581  -25.2620 H   0  0  0  0  0  0  0  0  0  0  0  0
   -1.7550   22.0801  -26.7290 H   0  0  0  0  0  0  0  0  0  0  0  0
    0.0413   22.0715  -26.7290 H   0  0  0  0  0  0  0  0  0  0  0  0
   -0.6286   26.3890  -27.2600 H   0  0  0  0  0  0  0  0  0  0  0  0
    0.2721   24.8266  -27.4951 H   0  0  0  0  0  0  0  0  0  0  0  0
   -1.1237   26.1241  -29.4693 H   0  0  0  0  0  0  0  0  0  0  0  0
   -0.7786   24.3465  -29.4249 H   0  0  0  0  0  0  0  0  0  0  0  0
   -3.3210   25.3800  -28.1840 H   0  0  0  0  0  0  0  0  0  0  0  0
   -1.9548   22.3783  -29.3429 H   0  0  0  0  0  0  0  0  0  0  0  0
   -3.0271   20.7344  -30.8738 H   0  0  0  0  0  0  0  0  0  0  0  0
   -4.9219   25.3374  -30.4478 H   0  0  0  0  0  0  0  0  0  0  0  0
   -6.4744   24.8426  -32.1712 H   0  0  0  0  0  0  0  0  0  0  0  0
   -6.1833   23.4322  -33.2490 H   0  0  0  0  0  0  0  0  0  0  0  0
   -7.5445   23.2408  -30.5337 H   0  0  0  0  0  0  0  0  0  0  0  0
   -8.4031   23.4637  -32.1591 H   0  0  0  0  0  0  0  0  0  0  0  0
   -9.7293   21.6168  -31.2968 H   0  0  0  0  0  0  0  0  0  0  0  0
  -10.0965   19.1749  -31.5373 H   0  0  0  0  0  0  0  0  0  0  0  0
   -8.2109   17.6818  -32.1744 H   0  0  0  0  0  0  0  0  0  0  0  0
   -5.9486   18.6273  -32.5677 H   0  0  0  0  0  0  0  0  0  0  0  0
   -3.5519   19.9907  -33.0122 H   0  0  0  0  0  0  0  0  0  0  0  0
   -4.9846   19.9131  -34.0930 H   0  0  0  0  0  0  0  0  0  0  0  0
   -3.9375   21.3727  -34.0930 H   0  0  0  0  0  0  0  0  0  0  0  0
  1  2  1  0
  2  3  1  0
  3  4  1  0
  4  5  1  0
  3  6  1  0
  6  7  1  0
  7  8  1  0
  8  9  1  0
  9 10  2  0
 10 11  1  0
 11 12  2  0
 12 13  1  0
 13 14  2  0
 13 15  1  0
 15 16  1  0
 16 17  1  0
 17 18  2  0
 18 19  1  0
 19 20  2  0
 20 21  1  0
 21 22  2  0
 22 23  1  0
 23 24  1  0
 14  9  1  0
 22 17  1  0
 23 12  1  0
  1 25  1  0
  1 26  1  0
  1 27  1  0
  2 28  1  0
  2 29  1  0
  4 30  1  0
  4 31  1  0
  5 32  1  0
  5 33  1  0
  5 34  1  0
  6 35  1  0
  6 36  1  0
  7 37  1  0
  7 38  1  0
  8 39  1  0
 10 40  1  0
 11 41  1  0
 14 42  1  0
 15 43  1  0
 15 44  1  0
 16 45  1  0
 16 46  1  0
 18 47  1  0
 19 48  1  0
 20 49  1  0
 21 50  1  0
 24 51  1  0
 24 52  1  0
 24 53  1  0
M  END
>  <UniqueID>  (9) 
8

>  <SMILES>  (9) 
CCN(CC)CCNc1ccc2c(c1)CCc1ccccc1N2C

>  <Energy>  (9) 
71.21759860293409

>  <Genealogy>  (9) 
CCN(CC)CCNc1ccc2c(c1)CCc1ccccc1N2C (3D coordinates assigned)
CCN(CC)CCNc1ccc2c(c1)CCc1ccccc1N2C (nonaromatic ring conformer: 71.21759860293409 kcal/mol)

>  <smiles>  (9) 
CCN(CC)CCNc1ccc2c(c1)CCc1ccccc1N2C

>  <score_type>  (9) 
oracle

>  <origin>  (9) 
adg

>  <m_score__min__energy>  (9) 
-7.1600000000000001

>  <m_primary>  (9) 
energy

$$$$
9:0
     RDKit          3D

 58 60  0  0  0  0  0  0  0  0999 V2000
   -2.3610   18.2190  -34.2210 C   0  0  0  0  0  0  0  0  0  0  0  0
   -3.6210   17.6720  -33.6890 N   0  0  0  0  0  0  0  0  0  0  0  0
   -3.4030   16.2820  -33.2540 C   0  0  0  0  0  0  0  0  0  0  0  0
   -4.6940   17.7210  -34.7070 C   0  0  0  0  0  0  0  0  0  0  0  0
   -5.9070   16.8570  -34.2970 C   0  0  0  0  0  0  0  0  0  0  0  0
   -6.3610   17.0980  -32.8490 C   0  0  0  0  0  0  0  0  0  0  0  0
   -6.5970   18.5260  -32.5950 N   0  0  0  0  0  0  0  0  0  0  0  0
   -5.5450   19.3440  -32.6580 N   0  0  0  0  0  0  0  0  0  0  0  0
   -5.6230   20.6830  -32.4440 C   0  0  0  0  0  0  0  0  0  0  0  0
   -4.3480   21.4390  -32.4750 C   0  0  0  0  0  0  0  0  0  0  0  0
   -4.3420   22.6930  -32.3330 O   0  0  0  0  0  0  0  0  0  0  0  0
   -3.1040   20.7290  -32.5630 N   0  0  0  0  0  0  0  0  0  0  0  0
   -1.8150   21.4070  -32.4250 C   0  0  0  0  0  0  0  0  0  0  0  0
   -1.3430   21.4260  -30.9640 C   0  0  0  0  0  0  0  0  0  0  0  0
   -1.3970   22.8270  -30.3300 C   0  0  0  0  0  0  0  0  0  0  0  0
   -2.5810   22.9870  -29.4830 N   0  0  0  0  0  0  0  0  0  0  0  0
   -2.8850   22.1540  -28.3340 C   0  0  0  0  0  0  0  0  0  0  0  0
   -4.2460   22.6480  -27.8000 C   0  0  0  0  0  0  0  0  0  0  0  0
   -4.6210   23.9100  -28.5940 C   0  0  0  0  0  0  0  0  0  0  0  0
   -3.5520   24.0070  -29.6080 C   0  0  0  0  0  0  0  0  0  0  0  0
   -3.4930   24.9110  -30.4820 O   0  0  0  0  0  0  0  0  0  0  0  0
   -6.8870   21.2570  -32.1670 C   0  0  0  0  0  0  0  0  0  0  0  0
   -7.0860   22.6500  -32.0190 C   0  0  0  0  0  0  0  0  0  0  0  0
   -8.3520   23.1610  -31.7270 C   0  0  0  0  0  0  0  0  0  0  0  0
   -9.4420   22.3030  -31.5940 C   0  0  0  0  0  0  0  0  0  0  0  0
   -9.2770   20.9300  -31.7720 C   0  0  0  0  0  0  0  0  0  0  0  0
   -8.0080   20.3950  -32.0720 C   0  0  0  0  0  0  0  0  0  0  0  0
   -7.8380   19.0160  -32.2930 C   0  0  0  0  0  0  0  0  0  0  0  0
   -8.8300   18.2360  -32.2170 O   0  0  0  0  0  0  0  0  0  0  0  0
   -1.7038   18.5043  -33.3863 H   0  0  0  0  0  0  0  0  0  0  0  0
   -1.8615   17.4567  -34.8370 H   0  0  0  0  0  0  0  0  0  0  0  0
   -2.5768   19.1044  -34.8370 H   0  0  0  0  0  0  0  0  0  0  0  0
   -3.3962   16.2386  -32.1549 H   0  0  0  0  0  0  0  0  0  0  0  0
   -4.2123   15.6454  -33.6411 H   0  0  0  0  0  0  0  0  0  0  0  0
   -2.4377   15.9238  -33.6411 H   0  0  0  0  0  0  0  0  0  0  0  0
   -5.0232   18.7635  -34.8287 H   0  0  0  0  0  0  0  0  0  0  0  0
   -4.2916   17.3233  -35.6503 H   0  0  0  0  0  0  0  0  0  0  0  0
   -6.7456   17.0904  -34.9696 H   0  0  0  0  0  0  0  0  0  0  0  0
   -5.5979   15.8039  -34.3713 H   0  0  0  0  0  0  0  0  0  0  0  0
   -7.2934   16.5429  -32.6685 H   0  0  0  0  0  0  0  0  0  0  0  0
   -5.5653   16.7516  -32.1731 H   0  0  0  0  0  0  0  0  0  0  0  0
   -3.1240   19.6960  -32.7250 H   0  0  0  0  0  0  0  0  0  0  0  0
   -1.0668   20.8802  -33.0356 H   0  0  0  0  0  0  0  0  0  0  0  0
   -1.9341   22.4470  -32.7629 H   0  0  0  0  0  0  0  0  0  0  0  0
   -1.9867   20.7522  -30.3794 H   0  0  0  0  0  0  0  0  0  0  0  0
   -0.2917   21.1023  -30.9549 H   0  0  0  0  0  0  0  0  0  0  0  0
   -0.4960   22.9770  -29.7171 H   0  0  0  0  0  0  0  0  0  0  0  0
   -1.4481   23.5705  -31.1391 H   0  0  0  0  0  0  0  0  0  0  0  0
   -2.9526   21.0980  -28.6344 H   0  0  0  0  0  0  0  0  0  0  0  0
   -2.1007   22.2245  -27.5659 H   0  0  0  0  0  0  0  0  0  0  0  0
   -5.0112   21.8712  -27.9452 H   0  0  0  0  0  0  0  0  0  0  0  0
   -4.1837   22.8701  -26.7245 H   0  0  0  0  0  0  0  0  0  0  0  0
   -5.6061   23.7971  -29.0702 H   0  0  0  0  0  0  0  0  0  0  0  0
   -4.6967   24.8077  -27.9628 H   0  0  0  0  0  0  0  0  0  0  0  0
   -6.2349   23.3371  -32.1351 H   0  0  0  0  0  0  0  0  0  0  0  0
   -8.4896   24.2451  -31.6014 H   0  0  0  0  0  0  0  0  0  0  0  0
  -10.4341   22.7096  -31.3482 H   0  0  0  0  0  0  0  0  0  0  0  0
  -10.1437   20.2593  -31.6776 H   0  0  0  0  0  0  0  0  0  0  0  0
  1  2  1  0
  2  3  1  0
  2  4  1  0
  4  5  1  0
  5  6  1  0
  6  7  1  0
  7  8  1  0
  8  9  2  0
  9 10  1  0
 10 11  2  0
 10 12  1  0
 12 13  1  0
 13 14  1  0
 14 15  1  0
 15 16  1  0
 16 17  1  0
 17 18  1  0
 18 19  1  0
 19 20  1  0
 20 21  2  0
  9 22  1  0
 22 23  2  0
 23 24  1  0
 24 25  2  0
 25 26  1  0
 26 27  2  0
 27 28  1  0
 28 29  2  0
 28  7  1  0
 20 16  1  0
 27 22  1  0
  1 30  1  0
  1 31  1  0
  1 32  1  0
  3 33  1  0
  3 34  1  0
  3 35  1  0
  4 36  1  0
  4 37  1  0
  5 38  1  0
  5 39  1  0
  6 40  1  0
  6 41  1  0
 12 42  1  0
 13 43  1  0
 13 44  1  0
 14 45  1  0
 14 46  1  0
 15 47  1  0
 15 48  1  0
 17 49  1  0
 17 50  1  0
 18 51  1  0
 18 52  1  0
 19 53  1  0
 19 54  1  0
 23 55  1  0
 24 56  1  0
 25 57  1  0
 26 58  1  0
M  END
>  <UniqueID>  (10) 
9

>  <SMILES>  (10) 
CN(C)CCCn1nc(C(=O)NCCCN2CCCC2=O)c2ccccc2c1=O

>  <Energy>  (10) 
68.62614633424445

>  <Genealogy>  (10) 
CN(C)CCCn1nc(C(=O)NCCCN2CCCC2=O)c2ccccc2c1=O (3D coordinates assigned)
CN(C)CCCn1nc(C(=O)NCCCN2CCCC2=O)c2ccccc2c1=O (nonaromatic ring conformer: 68.62614633424445 kcal/mol)

>  <smiles>  (10) 
CN(C)CCCn1nc(C(=O)NCCCN2CCCC2=O)c2ccccc2c1=O

>  <score_type>  (10) 
oracle

>  <origin>  (10) 
adg

>  <m_score__min__energy>  (10) 
-9.0399999999999991

>  <m_primary>  (10) 
energy

$$$$
10:0
     RDKit          3D

 49 51  0  0  0  0  0  0  0  0999 V2000
   -5.7380   18.5430  -34.6080 C   0  0  0  0  0  0  0  0  0  0  0  0
   -5.1250   19.4770  -33.5700 C   0  0  0  0  0  0  0  0  0  0  0  0
   -5.8470   20.7060  -33.5090 O   0  0  0  0  0  0  0  0  0  0  0  0
   -6.9750   20.9630  -32.7080 C   0  0  0  0  0  0  0  0  0  0  0  0
   -7.9870   20.0030  -32.5070 C   0  0  0  0  0  0  0  0  0  0  0  0
   -9.1000   20.3020  -31.7190 C   0  0  0  0  0  0  0  0  0  0  0  0
   -9.2220   21.5580  -31.1250 C   0  0  0  0  0  0  0  0  0  0  0  0
   -8.2280   22.5190  -31.3160 C   0  0  0  0  0  0  0  0  0  0  0  0
   -7.0980   22.2310  -32.1010 C   0  0  0  0  0  0  0  0  0  0  0  0
   -6.0420   23.3010  -32.3110 C   0  0  0  0  0  0  0  0  0  0  0  0
   -4.7220   23.0380  -31.6710 N   0  0  0  0  0  0  0  0  0  0  0  0
   -4.4620   21.6580  -31.2230 C   0  0  0  0  0  0  0  0  0  0  0  0
   -2.9860   21.4460  -30.8190 C   0  0  0  0  0  0  0  0  0  0  0  0
   -2.2450   22.7200  -30.3560 C   0  0  0  0  0  0  0  0  0  0  0  0
   -3.0370   23.5770  -29.4580 N   0  0  0  0  0  0  0  0  0  0  0  0
   -3.3690   22.9000  -28.1880 C   0  0  0  0  0  0  0  0  0  0  0  0
   -2.3590   21.8240  -27.8870 C   0  0  0  0  0  0  0  0  0  0  0  0
   -2.7550   20.4780  -27.7910 C   0  0  0  0  0  0  0  0  0  0  0  0
   -1.8100   19.4840  -27.5210 C   0  0  0  0  0  0  0  0  0  0  0  0
   -0.4640   19.8220  -27.3530 C   0  0  0  0  0  0  0  0  0  0  0  0
    0.4500   18.8550  -27.0930 F   0  0  0  0  0  0  0  0  0  0  0  0
   -0.0610   21.1560  -27.4590 C   0  0  0  0  0  0  0  0  0  0  0  0
   -1.0030   22.1530  -27.7280 C   0  0  0  0  0  0  0  0  0  0  0  0
   -4.4580   24.1120  -30.3210 S   0  0  0  0  0  0  0  0  0  0  0  0
   -4.2160   25.5020  -30.8370 O   0  0  0  0  0  0  0  0  0  0  0  0
   -5.6620   24.1280  -29.4170 O   0  0  0  0  0  0  0  0  0  0  0  0
   -6.2727   17.7283  -34.0978 H   0  0  0  0  0  0  0  0  0  0  0  0
   -6.4426   19.1063  -35.2375 H   0  0  0  0  0  0  0  0  0  0  0  0
   -4.9409   18.1207  -35.2375 H   0  0  0  0  0  0  0  0  0  0  0  0
   -5.1557   18.9908  -32.5838 H   0  0  0  0  0  0  0  0  0  0  0  0
   -4.0851   19.6915  -33.8574 H   0  0  0  0  0  0  0  0  0  0  0  0
   -7.8993   19.0111  -32.9743 H   0  0  0  0  0  0  0  0  0  0  0  0
   -9.8831   19.5447  -31.5662 H   0  0  0  0  0  0  0  0  0  0  0  0
  -10.1011   21.7911  -30.5063 H   0  0  0  0  0  0  0  0  0  0  0  0
   -8.3296   23.5095  -30.8486 H   0  0  0  0  0  0  0  0  0  0  0  0
   -5.8781   23.4067  -33.3936 H   0  0  0  0  0  0  0  0  0  0  0  0
   -6.4340   24.2090  -31.8295 H   0  0  0  0  0  0  0  0  0  0  0  0
   -5.1019   21.4404  -30.3552 H   0  0  0  0  0  0  0  0  0  0  0  0
   -4.6837   20.9822  -32.0621 H   0  0  0  0  0  0  0  0  0  0  0  0
   -2.9592   20.7176  -29.9952 H   0  0  0  0  0  0  0  0  0  0  0  0
   -2.4664   21.1010  -31.7251 H   0  0  0  0  0  0  0  0  0  0  0  0
   -1.3301   22.4156  -29.8266 H   0  0  0  0  0  0  0  0  0  0  0  0
   -2.0332   23.3123  -31.2584 H   0  0  0  0  0  0  0  0  0  0  0  0
   -3.3663   23.6380  -27.3723 H   0  0  0  0  0  0  0  0  0  0  0  0
   -4.3642   22.4401  -28.2783 H   0  0  0  0  0  0  0  0  0  0  0  0
   -3.8120   20.2065  -27.9289 H   0  0  0  0  0  0  0  0  0  0  0  0
   -2.1262   18.4335  -27.4405 H   0  0  0  0  0  0  0  0  0  0  0  0
    0.9987   21.4216  -27.3306 H   0  0  0  0  0  0  0  0  0  0  0  0
   -0.6805   23.2010  -27.8156 H   0  0  0  0  0  0  0  0  0  0  0  0
  1  2  1  0
  2  3  1  0
  3  4  1  0
  4  5  2  0
  5  6  1  0
  6  7  2  0
  7  8  1  0
  8  9  2  0
  9 10  1  0
 10 11  1  0
 11 12  1  0
 12 13  1  0
 13 14  1  0
 14 15  1  0
 15 16  1  0
 16 17  1  0
 17 18  2  0
 18 19  1  0
 19 20  2  0
 20 21  1  0
 20 22  1  0
 22 23  2  0
 15 24  1  0
 24 25  2  0
 24 26  2  0
  9  4  1  0
 24 11  1  0
 23 17  1  0
  1 27  1  0
  1 28  1  0
  1 29  1  0
  2 30  1  0
  2 31  1  0
  5 32  1  0
  6 33  1  0
  7 34  1  0
  8 35  1  0
 10 36  1  0
 10 37  1  0
 12 38  1  0
 12 39  1  0
 13 40  1  0
 13 41  1  0
 14 42  1  0
 14 43  1  0
 16 44  1  0
 16 45  1  0
 18 46  1  0
 19 47  1  0
 22 48  1  0
 23 49  1  0
M  END
>  <UniqueID>  (11) 
10

>  <SMILES>  (11) 
CCOc1ccccc1CN1CCCN(Cc2ccc(F)cc2)S1(=O)=O

>  <Energy>  (11) 
59.30715777278107

>  <Genealogy>  (11) 
CCOc1ccccc1CN1CCCN(Cc2ccc(F)cc2)S1(=O)=O (3D coordinates assigned)
CCOc1ccccc1CN1CCCN(Cc2ccc(F)cc2)S1(=O)=O (nonaromatic ring conformer: 59.30715777278107 kcal/mol)

>  <smiles>  (11) 
CCOc1ccccc1CN1CCCN(Cc2ccc(F)cc2)S1(=O)=O

>  <score_type>  (11) 
oracle

>  <origin>  (11) 
adg

>  <m_score__min__energy>  (11) 
-8.7599999999999998

>  <m_primary>  (11) 
energy

$$$$
11:0
     RDKit          3D

 53 55  0  0  0  0  0  0  0  0999 V2000
   -6.8660   17.3350  -33.3560 C   0  0  0  0  0  0  0  0  0  0  0  0
   -7.1220   18.4700  -32.3460 C   0  0  0  0  0  0  0  0  0  0  0  0
   -7.7580   19.7000  -32.9080 N   0  0  0  0  0  0  0  0  0  0  0  0
   -9.0660   20.0180  -32.2710 C   0  0  0  0  0  0  0  0  0  0  0  0
   -9.1210   21.3570  -31.5280 C   0  0  0  0  0  0  0  0  0  0  0  0
   -6.8200   20.8480  -33.0150 C   0  0  0  0  0  0  0  0  0  0  0  0
   -5.3380   20.4340  -32.9820 C   0  0  0  0  0  0  0  0  0  0  0  0
   -4.4730   21.6150  -32.9830 N   0  0  0  0  0  0  0  0  0  0  0  0
   -3.9550   22.1390  -31.7530 C   0  0  0  0  0  0  0  0  0  0  0  0
   -4.6970   23.1110  -31.0620 C   0  0  0  0  0  0  0  0  0  0  0  0
   -5.7500   23.8020  -31.7000 C   0  0  0  0  0  0  0  0  0  0  0  0
   -6.4520   24.8000  -31.0290 C   0  0  0  0  0  0  0  0  0  0  0  0
   -6.1140   25.1310  -29.7220 C   0  0  0  0  0  0  0  0  0  0  0  0
   -5.0920   24.4430  -29.0670 C   0  0  0  0  0  0  0  0  0  0  0  0
   -4.3880   23.3940  -29.7110 C   0  0  0  0  0  0  0  0  0  0  0  0
   -3.4350   22.6440  -29.0550 N   0  0  0  0  0  0  0  0  0  0  0  0
   -3.3650   22.6760  -27.5760 C   0  0  0  0  0  0  0  0  0  0  0  0
   -2.5600   21.8500  -29.7770 C   0  0  0  0  0  0  0  0  0  0  0  0
   -1.4230   21.2770  -29.1650 C   0  0  0  0  0  0  0  0  0  0  0  0
   -0.5660   20.4440  -29.8690 C   0  0  0  0  0  0  0  0  0  0  0  0
   -0.7640   20.2020  -31.2270 C   0  0  0  0  0  0  0  0  0  0  0  0
    0.2270   19.3340  -31.9590 C   0  0  0  0  0  0  0  0  0  0  0  0
   -1.8340   20.8280  -31.9000 C   0  0  0  0  0  0  0  0  0  0  0  0
   -1.8060   20.7640  -33.8370 Br  0  0  0  0  0  0  0  0  0  0  0  0
   -2.7840   21.6030  -31.1640 C   0  0  0  0  0  0  0  0  0  0  0  0
   -6.6555   16.4017  -32.8132 H   0  0  0  0  0  0  0  0  0  0  0  0
   -7.7560   17.1989  -33.9880 H   0  0  0  0  0  0  0  0  0  0  0  0
   -6.0037   17.5941  -33.9880 H   0  0  0  0  0  0  0  0  0  0  0  0
   -7.7802   18.0788  -31.5562 H   0  0  0  0  0  0  0  0  0  0  0  0
   -6.1310   18.7810  -31.9837 H   0  0  0  0  0  0  0  0  0  0  0  0
   -8.0030   19.4440  -33.8950 H   0  0  0  0  0  0  0  0  0  0  0  0
   -9.8333   20.0342  -33.0590 H   0  0  0  0  0  0  0  0  0  0  0  0
   -9.2329   19.2401  -31.5114 H   0  0  0  0  0  0  0  0  0  0  0  0
   -9.1135   21.1750  -30.4432 H   0  0  0  0  0  0  0  0  0  0  0  0
   -8.2471   21.9655  -31.8037 H   0  0  0  0  0  0  0  0  0  0  0  0
  -10.0419   21.8918  -31.8037 H   0  0  0  0  0  0  0  0  0  0  0  0
   -7.0149   21.3698  -33.9636 H   0  0  0  0  0  0  0  0  0  0  0  0
   -6.9958   21.4925  -32.1411 H   0  0  0  0  0  0  0  0  0  0  0  0
   -5.1469   19.8467  -32.0718 H   0  0  0  0  0  0  0  0  0  0  0  0
   -5.1178   19.8324  -33.8762 H   0  0  0  0  0  0  0  0  0  0  0  0
   -4.4660   22.2280  -33.8300 H   0  0  0  0  0  0  0  0  0  0  0  0
   -6.0183   23.5497  -32.7365 H   0  0  0  0  0  0  0  0  0  0  0  0
   -7.2750   25.3270  -31.5339 H   0  0  0  0  0  0  0  0  0  0  0  0
   -6.6534   25.9370  -29.2030 H   0  0  0  0  0  0  0  0  0  0  0  0
   -4.8284   24.7186  -28.0352 H   0  0  0  0  0  0  0  0  0  0  0  0
   -4.2896   22.2533  -27.1559 H   0  0  0  0  0  0  0  0  0  0  0  0
   -2.5033   22.0824  -27.2368 H   0  0  0  0  0  0  0  0  0  0  0  0
   -3.2501   23.7161  -27.2368 H   0  0  0  0  0  0  0  0  0  0  0  0
   -1.2128   21.4961  -28.1077 H   0  0  0  0  0  0  0  0  0  0  0  0
    0.2794   19.9691  -29.3495 H   0  0  0  0  0  0  0  0  0  0  0  0
    0.8470   18.7909  -31.2305 H   0  0  0  0  0  0  0  0  0  0  0  0
   -0.3131   18.6131  -32.5904 H   0  0  0  0  0  0  0  0  0  0  0  0
    0.8704   19.9644  -32.5904 H   0  0  0  0  0  0  0  0  0  0  0  0
  1  2  1  0
  2  3  1  0
  3  4  1  0
  4  5  1  0
  3  6  1  0
  6  7  1  0
  7  8  1  0
  8  9  1  0
  9 10  2  0
 10 11  1  0
 11 12  2  0
 12 13  1  0
 13 14  2  0
 14 15  1  0
 15 16  2  0
 16 17  1  0
 16 18  1  0
 18 19  2  0
 19 20  1  0
 20 21  2  0
 21 22  1  0
 21 23  1  0
 23 24  1  0
 23 25  2  0
 25  9  1  0
 15 10  1  0
 25 18  1  0
  1 26  1  0
  1 27  1  0
  1 28  1  0
  2 29  1  0
  2 30  1  0
  3 31  1  0
  4 32  1  0
  4 33  1  0
  5 34  1  0
  5 35  1  0
  5 36  1  0
  6 37  1  0
  6 38  1  0
  7 39  1  0
  7 40  1  0
  8 41  1  0
 11 42  1  0
 12 43  1  0
 13 44  1  0
 14 45  1  0
 17 46  1  0
 17 47  1  0
 17 48  1  0
 19 49  1  0
 20 50  1  0
 22 51  1  0
 22 52  1  0
 22 53  1  0
M  CHG  2   3   1  16   1
M  END
>  <UniqueID>  (12) 
11

>  <SMILES>  (12) 
CC[NH+](CC)CCNc1c2ccccc2[n+](C)c2ccc(C)c(Br)c12

>  <Energy>  (12) 
96.50891335127227

>  <Genealogy>  (12) 
CC[NH+](CC)CCNc1c2ccccc2[n+](C)c2ccc(C)c(Br)c12 (protonated)
CC[NH+](CC)CCNc1c2ccccc2[n+](C)c2ccc(C)c(Br)c12 (3D coordinates assigned)
CC[NH+](CC)CCNc1c2ccccc2[n+](C)c2ccc(C)c(Br)c12 (optimized conformer: 96.50891335127227 kcal/mol)

>  <smiles>  (12) 
CCN(CC)CCNc1c2ccccc2[n+](C)c2ccc(C)c(Br)c12

>  <score_type>  (12) 
oracle

>  <origin>  (12) 
adg

>  <m_score__min__energy>  (12) 
-7.5

>  <m_primary>  (12) 
energy

$$$$
12:0
     RDKit          3D

 52 55  0  0  1  0  0  0  0  0999 V2000
   -8.7190   19.3260  -32.3690 C   0  0  0  0  0  0  0  0  0  0  0  0
   -7.9490   19.8910  -33.4230 O   0  0  0  0  0  0  0  0  0  0  0  0
   -6.6210   20.1880  -33.1430 C   0  0  0  0  0  0  0  0  0  0  0  0
   -5.6360   19.3350  -33.5800 C   0  0  0  0  0  0  0  0  0  0  0  0
   -4.3260   19.6410  -33.2960 C   0  0  0  0  0  0  0  0  0  0  0  0
   -3.3750   18.8070  -33.7250 N   0  0  0  0  0  0  0  0  0  0  0  0
   -2.0820   19.0940  -33.4530 C   0  0  0  0  0  0  0  0  0  0  0  0
   -1.6980   20.1820  -32.7720 N   0  0  0  0  0  0  0  0  0  0  0  0
   -2.6750   21.0150  -32.3470 C   0  0  0  0  0  0  0  0  0  0  0  0
   -2.2970   22.0670  -31.6860 N   0  0  0  0  0  0  0  0  0  0  0  0
   -1.8960   21.9470  -30.3030 C   0  0  0  0  0  0  0  0  0  0  0  0
   -0.9660   22.8380  -29.8100 C   0  0  0  0  0  0  0  0  0  0  0  0
   -0.5800   22.7170  -28.4740 C   0  0  0  0  0  0  0  0  0  0  0  0
   -1.1020   21.7380  -27.6520 C   0  0  0  0  0  0  0  0  0  0  0  0
   -2.0240   20.8820  -28.2070 C   0  0  0  0  0  0  0  0  0  0  0  0
   -2.7480   19.5260  -27.0680 Br  0  0  0  0  0  0  0  0  0  0  0  0
   -2.4500   20.9470  -29.5170 C   0  0  0  0  0  0  0  0  0  0  0  0
   -4.0140   20.7820  -32.5880 C   0  0  0  0  0  0  0  0  0  0  0  0
   -5.0030   21.6390  -32.1500 C   0  0  0  0  0  0  0  0  0  0  0  0
   -6.3280   21.3570  -32.4210 C   0  0  0  0  0  0  0  0  0  0  0  0
   -7.3210   22.1310  -32.0310 O   0  0  0  0  0  0  0  0  0  0  0  0
   -8.0060   22.5890  -30.9820 C   0  0  0  0  0  0  0  0  0  0  0  0
   -7.1300   22.7290  -29.7600 C   0  0  0  0  0  0  0  0  0  0  0  0
   -6.0460   23.6580  -29.9650 N   0  0  0  0  0  0  0  0  0  0  0  0
   -4.9440   23.4680  -29.0450 C   0  0  0  0  0  0  0  0  0  0  0  0
   -3.8520   24.4580  -29.4700 C   0  0  0  0  0  0  0  0  0  0  0  0
   -4.1940   25.1480  -30.6260 O   0  0  0  0  0  0  0  0  0  0  0  0
   -5.3620   25.8870  -30.4710 C   0  0  0  0  0  0  0  0  0  0  0  0
   -6.4910   25.0370  -29.9220 C   0  0  0  0  0  0  0  0  0  0  0  0
   -8.2979   19.6350  -31.4009 H   0  0  0  0  0  0  0  0  0  0  0  0
   -9.7586   19.6771  -32.4455 H   0  0  0  0  0  0  0  0  0  0  0  0
   -8.6960   18.2289  -32.4455 H   0  0  0  0  0  0  0  0  0  0  0  0
   -5.8904   18.4263  -34.1453 H   0  0  0  0  0  0  0  0  0  0  0  0
   -3.6380   17.9570  -34.2540 H   0  0  0  0  0  0  0  0  0  0  0  0
   -1.3066   18.3995  -33.8086 H   0  0  0  0  0  0  0  0  0  0  0  0
   -0.5399   23.6228  -30.4522 H   0  0  0  0  0  0  0  0  0  0  0  0
    0.1600   23.4206  -28.0650 H   0  0  0  0  0  0  0  0  0  0  0  0
   -0.7940   21.6469  -26.5999 H   0  0  0  0  0  0  0  0  0  0  0  0
   -3.1920   20.2412  -29.9186 H   0  0  0  0  0  0  0  0  0  0  0  0
   -4.7368   22.5451  -31.5860 H   0  0  0  0  0  0  0  0  0  0  0  0
   -8.4268   23.5737  -31.2335 H   0  0  0  0  0  0  0  0  0  0  0  0
   -8.8029   21.8667  -30.7513 H   0  0  0  0  0  0  0  0  0  0  0  0
   -7.7469   23.0852  -28.9218 H   0  0  0  0  0  0  0  0  0  0  0  0
   -6.6914   21.7431  -29.5466 H   0  0  0  0  0  0  0  0  0  0  0  0
   -5.2677   23.6773  -28.0147 H   0  0  0  0  0  0  0  0  0  0  0  0
   -4.5759   22.4317  -29.0710 H   0  0  0  0  0  0  0  0  0  0  0  0
   -3.6946   25.1828  -28.6577 H   0  0  0  0  0  0  0  0  0  0  0  0
   -2.9362   23.8846  -29.6760 H   0  0  0  0  0  0  0  0  0  0  0  0
   -5.1695   26.7173  -29.7757 H   0  0  0  0  0  0  0  0  0  0  0  0
   -5.6643   26.2643  -31.4590 H   0  0  0  0  0  0  0  0  0  0  0  0
   -6.7138   25.3295  -28.8853 H   0  0  0  0  0  0  0  0  0  0  0  0
   -7.4070   25.1716  -30.5161 H   0  0  0  0  0  0  0  0  0  0  0  0
  1  2  1  0
  2  3  1  0
  3  4  2  0
  4  5  1  0
  5  6  1  0
  6  7  1  0
  7  8  2  0
  8  9  1  0
  9 10  2  0
 10 11  1  0
 11 12  2  0
 12 13  1  0
 13 14  2  0
 14 15  1  0
 15 16  1  0
 15 17  2  0
  9 18  1  0
 18 19  1  0
 19 20  2  0
 20 21  1  0
 21 22  1  0
 22 23  1  0
 23 24  1  0
 24 25  1  0
 25 26  1  0
 26 27  1  0
 27 28  1  0
 28 29  1  0
 20  3  1  0
 29 24  1  0
 18  5  2  0
 17 11  1  0
  1 30  1  0
  1 31  1  0
  1 32  1  0
  4 33  1  0
  6 34  1  0
  7 35  1  0
 12 36  1  0
 13 37  1  0
 14 38  1  0
 17 39  1  0
 19 40  1  0
 22 41  1  0
 22 42  1  0
 23 43  1  0
 23 44  1  0
 25 45  1  0
 25 46  1  0
 26 47  1  0
 26 48  1  0
 28 49  1  0
 28 50  1  0
 29 51  1  0
 29 52  1  0
M  END
>  <smiles>  (13) 
COc1cc2[nH]cnc(=Nc3cccc(Br)c3)c2cc1OCCN1CCOCC1

>  <score_type>  (13) 
oracle

>  <origin>  (13) 
adg

>  <m_score__min__energy>  (13) 
-9.2899999999999991

>  <m_primary>  (13) 
energy

$$$$
13:0
     RDKit          3D

 56 58  0  0  0  0  0  0  0  0999 V2000
   -2.3940   19.7330  -26.7470 C   0  0  0  0  0  0  0  0  0  0  0  0
   -2.8710   20.7760  -27.7500 C   0  0  0  0  0  0  0  0  0  0  0  0
   -2.4290   22.1170  -27.3080 N   0  0  0  0  0  0  0  0  0  0  0  0
   -0.9620   22.2910  -27.2880 C   0  0  0  0  0  0  0  0  0  0  0  0
   -0.4820   22.6960  -25.8950 C   0  0  0  0  0  0  0  0  0  0  0  0
   -3.1660   23.2230  -27.9690 C   0  0  0  0  0  0  0  0  0  0  0  0
   -2.3220   24.1020  -28.9180 C   0  0  0  0  0  0  0  0  0  0  0  0
   -3.1290   24.9260  -29.7380 O   0  0  0  0  0  0  0  0  0  0  0  0
   -4.5000   24.7150  -29.4770 C   0  0  0  0  0  0  0  0  0  0  0  0
   -5.3390   25.2170  -30.6540 C   0  0  0  0  0  0  0  0  0  0  0  0
   -5.4310   24.2370  -31.6910 O   0  0  0  0  0  0  0  0  0  0  0  0
   -6.3680   23.1880  -31.7710 C   0  0  0  0  0  0  0  0  0  0  0  0
   -7.7520   23.4170  -31.6650 C   0  0  0  0  0  0  0  0  0  0  0  0
   -8.6590   22.3710  -31.8070 C   0  0  0  0  0  0  0  0  0  0  0  0
   -8.2090   21.0660  -32.0240 C   0  0  0  0  0  0  0  0  0  0  0  0
   -9.1360   20.0200  -32.1580 C   0  0  0  0  0  0  0  0  0  0  0  0
   -8.6960   18.7090  -32.3380 C   0  0  0  0  0  0  0  0  0  0  0  0
   -7.3310   18.4290  -32.3760 C   0  0  0  0  0  0  0  0  0  0  0  0
   -6.3960   19.4590  -32.2470 C   0  0  0  0  0  0  0  0  0  0  0  0
   -6.8170   20.7980  -32.0900 C   0  0  0  0  0  0  0  0  0  0  0  0
   -5.8930   21.8730  -31.9760 C   0  0  0  0  0  0  0  0  0  0  0  0
   -4.4300   21.6560  -32.0900 C   0  0  0  0  0  0  0  0  0  0  0  0
   -3.6230   21.6270  -30.9400 C   0  0  0  0  0  0  0  0  0  0  0  0
   -2.2500   21.3920  -31.0470 C   0  0  0  0  0  0  0  0  0  0  0  0
   -1.6710   21.1840  -32.3020 C   0  0  0  0  0  0  0  0  0  0  0  0
   -2.4660   21.2100  -33.4510 C   0  0  0  0  0  0  0  0  0  0  0  0
   -3.8410   21.4430  -33.3480 C   0  0  0  0  0  0  0  0  0  0  0  0
   -2.5632   20.1029  -25.7250 H   0  0  0  0  0  0  0  0  0  0  0  0
   -2.9540   18.7980  -26.8960 H   0  0  0  0  0  0  0  0  0  0  0  0
   -1.3205   19.5451  -26.8960 H   0  0  0  0  0  0  0  0  0  0  0  0
   -2.4444   20.5561  -28.7398 H   0  0  0  0  0  0  0  0  0  0  0  0
   -3.9689   20.7519  -27.8129 H   0  0  0  0  0  0  0  0  0  0  0  0
   -0.4826   21.3429  -27.5730 H   0  0  0  0  0  0  0  0  0  0  0  0
   -0.6917   23.0859  -27.9987 H   0  0  0  0  0  0  0  0  0  0  0  0
   -1.0894   22.1835  -25.1345 H   0  0  0  0  0  0  0  0  0  0  0  0
    0.5737   22.4116  -25.7739 H   0  0  0  0  0  0  0  0  0  0  0  0
   -0.5847   23.7845  -25.7739 H   0  0  0  0  0  0  0  0  0  0  0  0
   -3.9873   22.7828  -28.5536 H   0  0  0  0  0  0  0  0  0  0  0  0
   -3.5076   23.8872  -27.1614 H   0  0  0  0  0  0  0  0  0  0  0  0
   -1.6601   24.7410  -28.3150 H   0  0  0  0  0  0  0  0  0  0  0  0
   -1.7433   23.4345  -29.5733 H   0  0  0  0  0  0  0  0  0  0  0  0
   -4.6821   23.6399  -29.3319 H   0  0  0  0  0  0  0  0  0  0  0  0
   -4.7843   25.2669  -28.5690 H   0  0  0  0  0  0  0  0  0  0  0  0
   -6.3517   25.4533  -30.2953 H   0  0  0  0  0  0  0  0  0  0  0  0
   -4.8502   26.1111  -31.0682 H   0  0  0  0  0  0  0  0  0  0  0  0
   -8.1214   24.4342  -31.4677 H   0  0  0  0  0  0  0  0  0  0  0  0
   -9.7387   22.5732  -31.7479 H   0  0  0  0  0  0  0  0  0  0  0  0
  -10.2140   20.2356  -32.1208 H   0  0  0  0  0  0  0  0  0  0  0  0
   -9.4271   17.8948  -32.4501 H   0  0  0  0  0  0  0  0  0  0  0  0
   -6.9884   17.3921  -32.5082 H   0  0  0  0  0  0  0  0  0  0  0  0
   -5.3214   19.2248  -32.2679 H   0  0  0  0  0  0  0  0  0  0  0  0
   -4.0747   21.7902  -29.9504 H   0  0  0  0  0  0  0  0  0  0  0  0
   -1.6241   21.3706  -30.1427 H   0  0  0  0  0  0  0  0  0  0  0  0
   -0.5897   20.9999  -32.3853 H   0  0  0  0  0  0  0  0  0  0  0  0
   -2.0093   21.0469  -34.4383 H   0  0  0  0  0  0  0  0  0  0  0  0
   -4.4636   21.4596  -34.2547 H   0  0  0  0  0  0  0  0  0  0  0  0
  1  2  1  0
  2  3  1  0
  3  4  1  0
  4  5  1  0
  3  6  1  0
  6  7  1  0
  7  8  1  0
  8  9  1  0
  9 10  1  0
 10 11  1  0
 11 12  1  0
 12 13  2  0
 13 14  1  0
 14 15  2  0
 15 16  1  0
 16 17  2  0
 17 18  1  0
 18 19  2  0
 19 20  1  0
 20 21  2  0
 21 22  1  0
 22 23  2  0
 23 24  1  0
 24 25  2  0
 25 26  1  0
 26 27  2  0
 21 12  1  0
 27 22  1  0
 20 15  1  0
  1 28  1  0
  1 29  1  0
  1 30  1  0
  2 31  1  0
  2 32  1  0
  4 33  1  0
  4 34  1  0
  5 35  1  0
  5 36  1  0
  5 37  1  0
  6 38  1  0
  6 39  1  0
  7 40  1  0
  7 41  1  0
  9 42  1  0
  9 43  1  0
 10 44  1  0
 10 45  1  0
 13 46  1  0
 14 47  1  0
 16 48  1  0
 17 49  1  0
 18 50  1  0
 19 51  1  0
 23 52  1  0
 24 53  1  0
 25 54  1  0
 26 55  1  0
 27 56  1  0
M  END
>  <UniqueID>  (14) 
12

>  <SMILES>  (14) 
CCN(CC)CCOCCOc1ccc2ccccc2c1-c1ccccc1

>  <Energy>  (14) 
68.45629538685722

>  <Genealogy>  (14) 
CCN(CC)CCOCCOc1ccc2ccccc2c1-c1ccccc1 (3D coordinates assigned)
CCN(CC)CCOCCOc1ccc2ccccc2c1-c1ccccc1 (optimized conformer: 68.45629538685722 kcal/mol)

>  <smiles>  (14) 
CCN(CC)CCOCCOc1ccc2ccccc2c1-c1ccccc1

>  <score_type>  (14) 
oracle

>  <origin>  (14) 
adg

>  <m_score__min__energy>  (14) 
-9.1699999999999999

>  <m_primary>  (14) 
energy

$$$$
14:0
     RDKit          3D

 30 32  0  0  0  0  0  0  0  0999 V2000
   -9.7790   21.5370  -31.6360 C   0  0  0  0  0  0  0  0  0  0  0  0
   -8.8090   20.5030  -31.9830 N   0  0  0  0  0  0  0  0  0  0  0  0
   -9.0560   19.1730  -32.0780 C   0  0  0  0  0  0  0  0  0  0  0  0
   -7.9020   18.4810  -32.4400 C   0  0  0  0  0  0  0  0  0  0  0  0
   -6.9380   19.4550  -32.5630 C   0  0  0  0  0  0  0  0  0  0  0  0
   -5.6330   19.3270  -32.9050 N   0  0  0  0  0  0  0  0  0  0  0  0
   -4.8680   20.4560  -32.9660 C   0  0  0  0  0  0  0  0  0  0  0  0
   -5.4140   21.6810  -32.6880 N   0  0  0  0  0  0  0  0  0  0  0  0
   -6.7300   21.8180  -32.3450 C   0  0  0  0  0  0  0  0  0  0  0  0
   -7.2820   23.0730  -32.0630 O   0  0  0  0  0  0  0  0  0  0  0  0
   -7.2790   23.6590  -30.7630 C   0  0  0  0  0  0  0  0  0  0  0  0
   -5.8680   23.9210  -30.3120 C   0  0  0  0  0  0  0  0  0  0  0  0
   -5.2450   23.0910  -29.3690 C   0  0  0  0  0  0  0  0  0  0  0  0
   -3.9270   23.3430  -28.9820 C   0  0  0  0  0  0  0  0  0  0  0  0
   -3.2430   24.4230  -29.5440 C   0  0  0  0  0  0  0  0  0  0  0  0
   -3.8590   25.2170  -30.4590 N   0  0  0  0  0  0  0  0  0  0  0  0
   -5.1410   24.9930  -30.8540 C   0  0  0  0  0  0  0  0  0  0  0  0
   -7.5050   20.6600  -32.2830 C   0  0  0  0  0  0  0  0  0  0  0  0
   -9.8540   21.6169  -30.5415 H   0  0  0  0  0  0  0  0  0  0  0  0
   -9.4520   22.5011  -32.0525 H   0  0  0  0  0  0  0  0  0  0  0  0
  -10.7620   21.2722  -32.0525 H   0  0  0  0  0  0  0  0  0  0  0  0
  -10.0341   18.7043  -31.8943 H   0  0  0  0  0  0  0  0  0  0  0  0
   -7.7873   17.3978  -32.5932 H   0  0  0  0  0  0  0  0  0  0  0  0
   -3.8054   20.3814  -33.2404 H   0  0  0  0  0  0  0  0  0  0  0  0
   -7.8331   24.6088  -30.7918 H   0  0  0  0  0  0  0  0  0  0  0  0
   -7.7576   22.9650  -30.0564 H   0  0  0  0  0  0  0  0  0  0  0  0
   -5.7938   22.2424  -28.9346 H   0  0  0  0  0  0  0  0  0  0  0  0
   -3.4325   22.6970  -28.2416 H   0  0  0  0  0  0  0  0  0  0  0  0
   -2.2048   24.6312  -29.2459 H   0  0  0  0  0  0  0  0  0  0  0  0
   -5.6091   25.6528  -31.5994 H   0  0  0  0  0  0  0  0  0  0  0  0
  1  2  1  0
  2  3  1  0
  3  4  2  0
  4  5  1  0
  5  6  2  0
  6  7  1  0
  7  8  2  0
  8  9  1  0
  9 10  1  0
 10 11  1  0
 11 12  1  0
 12 13  2  0
 13 14  1  0
 14 15  2  0
 15 16  1  0
 16 17  2  0
  9 18  2  0
 18  2  1  0
 18  5  1  0
 17 12  1  0
  1 19  1  0
  1 20  1  0
  1 21  1  0
  3 22  1  0
  4 23  1  0
  7 24  1  0
 11 25  1  0
 11 26  1  0
 13 27  1  0
 14 28  1  0
 15 29  1  0
 17 30  1  0
M  END
>  <UniqueID>  (15) 
13

>  <SMILES>  (15) 
Cn1ccc2ncnc(OCc3cccnc3)c21

>  <Energy>  (15) 
67.9497701445041

>  <Genealogy>  (15) 
Cn1ccc2ncnc(OCc3cccnc3)c21 (3D coordinates assigned)
Cn1ccc2ncnc(OCc3cccnc3)c21 (optimized conformer: 67.9497701445041 kcal/mol)

>  <smiles>  (15) 
Cn1ccc2ncnc(OCc3cccnc3)c21

>  <score_type>  (15) 
oracle

>  <origin>  (15) 
adg

>  <m_score__min__energy>  (15) 
-6.6200000000000001

>  <m_primary>  (15) 
energy

$$$$
15:0
     RDKit          3D

 44 46  0  0  0  0  0  0  0  0999 V2000
   -6.1085   18.4295  -34.4288 H   0  0  0  0  0  0  0  0  0  0  0  0
   -5.9930   19.3390  -33.8210 C   0  0  0  0  0  0  0  0  0  0  0  0
   -7.0930   20.0070  -33.3840 N   0  0  0  0  0  0  0  0  0  0  0  0
   -6.9950   21.1350  -32.6300 C   0  0  0  0  0  0  0  0  0  0  0  0
   -8.1560   21.7890  -32.2030 C   0  0  0  0  0  0  0  0  0  0  0  0
   -9.1425   21.3880  -32.4785 H   0  0  0  0  0  0  0  0  0  0  0  0
   -8.0690   22.9480  -31.4290 C   0  0  0  0  0  0  0  0  0  0  0  0
   -8.9866   23.4561  -31.0976 H   0  0  0  0  0  0  0  0  0  0  0  0
   -6.8160   23.4660  -31.0730 C   0  0  0  0  0  0  0  0  0  0  0  0
   -6.7130   24.6280  -30.2970 C   0  0  0  0  0  0  0  0  0  0  0  0
   -7.6221   25.1465  -29.9584 H   0  0  0  0  0  0  0  0  0  0  0  0
   -5.4550   25.1270  -29.9540 C   0  0  0  0  0  0  0  0  0  0  0  0
   -5.3690   26.0390  -29.3450 H   0  0  0  0  0  0  0  0  0  0  0  0
   -4.3050   24.4610  -30.3890 C   0  0  0  0  0  0  0  0  0  0  0  0
   -3.1350   24.9260  -30.0690 N   0  0  0  0  0  0  0  0  0  0  0  0
   -2.4900   24.6990  -28.7780 C   0  0  0  0  0  0  0  0  0  0  0  0
   -3.0472   23.9319  -28.2204 H   0  0  0  0  0  0  0  0  0  0  0  0
   -2.4808   25.6376  -28.2045 H   0  0  0  0  0  0  0  0  0  0  0  0
   -1.0540   24.2250  -28.9980 C   0  0  0  0  0  0  0  0  0  0  0  0
   -0.4422   24.5184  -28.1322 H   0  0  0  0  0  0  0  0  0  0  0  0
   -0.6698   24.6896  -29.9181 H   0  0  0  0  0  0  0  0  0  0  0  0
   -0.9940   22.6930  -29.1610 C   0  0  0  0  0  0  0  0  0  0  0  0
   -1.1603   22.2253  -28.1794 H   0  0  0  0  0  0  0  0  0  0  0  0
   -0.0039   22.4344  -29.5645 H   0  0  0  0  0  0  0  0  0  0  0  0
   -2.0200   22.1900  -30.1110 N   0  0  1  0  0  0  0  0  0  0  0  0
   -2.5990   22.9980  -30.4450 H   0  0  0  0  0  0  0  0  0  0  0  0
   -1.3530   21.6080  -31.2940 C   0  0  0  0  0  0  0  0  0  0  0  0
   -0.5618   20.9176  -30.9662 H   0  0  0  0  0  0  0  0  0  0  0  0
   -2.0908   21.0598  -31.8982 H   0  0  0  0  0  0  0  0  0  0  0  0
   -0.9098   22.4133  -31.8982 H   0  0  0  0  0  0  0  0  0  0  0  0
   -2.8960   21.1800  -29.4610 C   0  0  0  0  0  0  0  0  0  0  0  0
   -2.4902   20.1779  -29.6639 H   0  0  0  0  0  0  0  0  0  0  0  0
   -3.9078   21.2977  -29.8762 H   0  0  0  0  0  0  0  0  0  0  0  0
   -2.9890   21.3750  -27.9430 C   0  0  0  0  0  0  0  0  0  0  0  0
   -2.5693   20.4949  -27.4339 H   0  0  0  0  0  0  0  0  0  0  0  0
   -2.4216   22.2716  -27.6531 H   0  0  0  0  0  0  0  0  0  0  0  0
   -4.0429   21.4984  -27.6531 H   0  0  0  0  0  0  0  0  0  0  0  0
   -4.4230   23.3320  -31.1440 N   0  0  0  0  0  0  0  0  0  0  0  0
   -5.6350   22.8160  -31.4970 C   0  0  0  0  0  0  0  0  0  0  0  0
   -5.7210   21.6460  -32.2800 C   0  0  0  0  0  0  0  0  0  0  0  0
   -4.5790   20.9600  -32.7290 C   0  0  0  0  0  0  0  0  0  0  0  0
   -3.5767   21.3336  -32.4726 H   0  0  0  0  0  0  0  0  0  0  0  0
   -4.7170   19.8050  -33.5000 C   0  0  0  0  0  0  0  0  0  0  0  0
   -3.8258   19.2652  -33.8526 H   0  0  0  0  0  0  0  0  0  0  0  0
  1  2  1  0
  2  3  2  0
  3  4  1  0
  4  5  2  0
  5  6  1  0
  5  7  1  0
  7  8  1  0
  7  9  2  0
  9 10  1  0
 10 11  1  0
 10 12  2  0
 12 13  1  0
 12 14  1  0
 14 15  2  0
 15 16  1  0
 16 17  1  0
 16 18  1  0
 16 19  1  0
 19 20  1  0
 19 21  1  0
 19 22  1  0
 22 23  1  0
 22 24  1  0
 22 25  1  0
 25 26  1  6
 25 27  1  0
 27 28  1  0
 27 29  1  0
 27 30  1  0
 25 31  1  0
 31 32  1  0
 31 33  1  0
 31 34  1  0
 34 35  1  0
 34 36  1  0
 34 37  1  0
 14 38  1  0
 38 39  1  0
 39 40  2  0
 40 41  1  0
 41 42  1  0
 41 43  2  0
 43 44  1  0
 43  2  1  0
 40  4  1  0
 39  9  1  0
M  CHG  2  25   1  38  -1
M  END
>  <UniqueID>  (16) 
14

>  <SMILES>  (16) 
CC[N@H+](C)CCC/N=c1/ccc2ccc3ncccc3c2[n-]1

>  <Energy>  (16) 
50.27772481822249

>  <Genealogy>  (16) 
CC[NH+](C)CCCN=c1ccc2ccc3ncccc3c2[n-]1 (protonated)
CC[N@H+](C)CCCN=c1ccc2ccc3ncccc3c2[n-]1 (chirality)
CC[N@H+](C)CCC/N=c1/ccc2ccc3ncccc3c2[n-]1 (cis-trans isomerization)
CC[N@H+](C)CCC/N=c1/ccc2ccc3ncccc3c2[n-]1 (3D coordinates assigned)
CC[N@H+](C)CCC/N=c1/ccc2ccc3ncccc3c2[n-]1 (optimized conformer: 50.27772481822249 kcal/mol)

>  <smiles>  (16) 
CCN(C)CCCN=c1ccc2ccc3ncccc3c2[nH]1

>  <score_type>  (16) 
oracle

>  <origin>  (16) 
adg

>  <m_score__min__energy>  (16) 
-8.0800000000000001

>  <m_primary>  (16) 
energy

$$$$
16:0
     RDKit          3D

 71 74  0  0  0  0  0  0  0  0999 V2000
   -6.1180   18.7850  -34.2110 C   0  0  0  0  0  0  0  0  0  0  0  0
   -7.1070   19.7180  -33.4950 C   0  0  0  0  0  0  0  0  0  0  0  0
   -7.4560   19.2990  -32.1120 N   0  0  0  0  0  0  0  0  0  0  0  0
   -7.4260   17.8270  -31.9410 C   0  0  0  0  0  0  0  0  0  0  0  0
   -6.1650   17.4220  -31.1850 C   0  0  0  0  0  0  0  0  0  0  0  0
   -8.6890   19.9120  -31.5660 C   0  0  0  0  0  0  0  0  0  0  0  0
   -8.7020   21.4340  -31.7710 C   0  0  0  0  0  0  0  0  0  0  0  0
   -8.1920   22.0920  -30.6260 O   0  0  0  0  0  0  0  0  0  0  0  0
   -6.7950   22.2690  -30.7330 C   0  0  0  0  0  0  0  0  0  0  0  0
   -6.5130   23.6440  -31.3460 C   0  0  0  0  0  0  0  0  0  0  0  0
   -5.4770   23.6010  -32.3980 N   0  0  0  0  0  0  0  0  0  0  0  0
   -4.4830   22.5730  -32.1410 C   0  0  0  0  0  0  0  0  0  0  0  0
   -4.5510   21.4100  -32.9340 C   0  0  0  0  0  0  0  0  0  0  0  0
   -3.6630   20.3600  -32.7570 C   0  0  0  0  0  0  0  0  0  0  0  0
   -2.6910   20.4300  -31.7720 C   0  0  0  0  0  0  0  0  0  0  0  0
   -2.5790   21.5650  -30.9520 C   0  0  0  0  0  0  0  0  0  0  0  0
   -3.4590   22.6700  -31.1310 C   0  0  0  0  0  0  0  0  0  0  0  0
   -3.2470   23.8730  -30.2540 C   0  0  0  0  0  0  0  0  0  0  0  0
   -3.8840   24.9420  -30.4440 O   0  0  0  0  0  0  0  0  0  0  0  0
   -2.2420   23.8520  -29.1620 C   0  0  0  0  0  0  0  0  0  0  0  0
   -2.1030   24.9550  -28.2950 C   0  0  0  0  0  0  0  0  0  0  0  0
   -1.1360   24.9560  -27.2780 C   0  0  0  0  0  0  0  0  0  0  0  0
   -1.0080   26.0840  -26.3910 N   0  0  0  0  0  0  0  0  0  0  0  0
   -0.3950   27.3370  -26.8420 C   0  0  0  0  0  0  0  0  0  0  0  0
    0.7360   27.7610  -25.8800 C   0  0  0  0  0  0  0  0  0  0  0  0
    0.5230   27.3380  -24.4710 N   0  0  0  0  0  0  0  0  0  0  0  0
    1.3620   26.1790  -24.1160 C   0  0  0  0  0  0  0  0  0  0  0  0
   -0.9020   27.1090  -24.1440 C   0  0  0  0  0  0  0  0  0  0  0  0
   -1.5150   26.0010  -25.0150 C   0  0  0  0  0  0  0  0  0  0  0  0
   -0.3140   23.8340  -27.1170 C   0  0  0  0  0  0  0  0  0  0  0  0
   -0.4420   22.7370  -27.9680 C   0  0  0  0  0  0  0  0  0  0  0  0
   -1.4030   22.7380  -28.9940 C   0  0  0  0  0  0  0  0  0  0  0  0
   -1.5330   21.5840  -29.9020 C   0  0  0  0  0  0  0  0  0  0  0  0
   -0.7470   20.6040  -29.7770 O   0  0  0  0  0  0  0  0  0  0  0  0
   -5.5305   18.2308  -33.4642 H   0  0  0  0  0  0  0  0  0  0  0  0
   -6.6741   18.0749  -34.8407 H   0  0  0  0  0  0  0  0  0  0  0  0
   -5.4414   19.3815  -34.8407 H   0  0  0  0  0  0  0  0  0  0  0  0
   -6.6600   20.7220  -33.4477 H   0  0  0  0  0  0  0  0  0  0  0  0
   -8.0406   19.6909  -34.0760 H   0  0  0  0  0  0  0  0  0  0  0  0
   -8.3116   17.5070  -31.3724 H   0  0  0  0  0  0  0  0  0  0  0  0
   -7.4277   17.3457  -32.9301 H   0  0  0  0  0  0  0  0  0  0  0  0
   -6.3513   17.4818  -30.1025 H   0  0  0  0  0  0  0  0  0  0  0  0
   -5.8917   16.3909  -31.4536 H   0  0  0  0  0  0  0  0  0  0  0  0
   -5.3424   18.1011  -31.4536 H   0  0  0  0  0  0  0  0  0  0  0  0
   -9.5606   19.4756  -32.0758 H   0  0  0  0  0  0  0  0  0  0  0  0
   -8.7243   19.7100  -30.4853 H   0  0  0  0  0  0  0  0  0  0  0  0
   -8.0794   21.6875  -32.6417 H   0  0  0  0  0  0  0  0  0  0  0  0
   -9.7386   21.7620  -31.9381 H   0  0  0  0  0  0  0  0  0  0  0  0
   -6.3380   22.2096  -29.7342 H   0  0  0  0  0  0  0  0  0  0  0  0
   -6.3682   21.4821  -31.3722 H   0  0  0  0  0  0  0  0  0  0  0  0
   -7.4444   24.0303  -31.7857 H   0  0  0  0  0  0  0  0  0  0  0  0
   -6.1405   24.2949  -30.5413 H   0  0  0  0  0  0  0  0  0  0  0  0
   -5.8940   23.5630  -33.3500 H   0  0  0  0  0  0  0  0  0  0  0  0
   -4.9890   24.5280  -32.3810 H   0  0  0  0  0  0  0  0  0  0  0  0
   -5.3260   21.3335  -33.7109 H   0  0  0  0  0  0  0  0  0  0  0  0
   -3.7303   19.4698  -33.3997 H   0  0  0  0  0  0  0  0  0  0  0  0
   -1.9989   19.5868  -31.6305 H   0  0  0  0  0  0  0  0  0  0  0  0
   -2.7619   25.8273  -28.4174 H   0  0  0  0  0  0  0  0  0  0  0  0
    0.0214   27.1943  -27.8501 H   0  0  0  0  0  0  0  0  0  0  0  0
   -1.1632   28.1241  -26.8577 H   0  0  0  0  0  0  0  0  0  0  0  0
    1.6772   27.3166  -26.2358 H   0  0  0  0  0  0  0  0  0  0  0  0
    0.7589   28.8608  -25.8816 H   0  0  0  0  0  0  0  0  0  0  0  0
    1.4242   26.0930  -23.0211 H   0  0  0  0  0  0  0  0  0  0  0  0
    0.9164   25.2629  -24.5310 H   0  0  0  0  0  0  0  0  0  0  0  0
    2.3714   26.3162  -24.5310 H   0  0  0  0  0  0  0  0  0  0  0  0
   -0.9824   26.8166  -23.0866 H   0  0  0  0  0  0  0  0  0  0  0  0
   -1.4522   28.0414  -24.3385 H   0  0  0  0  0  0  0  0  0  0  0  0
   -1.2513   25.0208  -24.5912 H   0  0  0  0  0  0  0  0  0  0  0  0
   -2.6076   26.1273  -25.0318 H   0  0  0  0  0  0  0  0  0  0  0  0
    0.4376   23.8179  -26.3140 H   0  0  0  0  0  0  0  0  0  0  0  0
    0.2140   21.8640  -27.8355 H   0  0  0  0  0  0  0  0  0  0  0  0
  1  2  1  0
  2  3  1  0
  3  4  1  0
  4  5  1  0
  3  6  1  0
  6  7  1  0
  7  8  1  0
  8  9  1  0
  9 10  1  0
 10 11  1  0
 11 12  1  0
 12 13  2  0
 13 14  1  0
 14 15  2  0
 15 16  1  0
 16 17  2  0
 17 18  1  0
 18 19  2  0
 18 20  1  0
 20 21  2  0
 21 22  1  0
 22 23  1  0
 23 24  1  0
 24 25  1  0
 25 26  1  0
 26 27  1  0
 26 28  1  0
 28 29  1  0
 22 30  2  0
 30 31  1  0
 31 32  2  0
 32 33  1  0
 33 34  2  0
 17 12  1  0
 32 20  1  0
 33 16  1  0
 29 23  1  0
  1 35  1  0
  1 36  1  0
  1 37  1  0
  2 38  1  0
  2 39  1  0
  4 40  1  0
  4 41  1  0
  5 42  1  0
  5 43  1  0
  5 44  1  0
  6 45  1  0
  6 46  1  0
  7 47  1  0
  7 48  1  0
  9 49  1  0
  9 50  1  0
 10 51  1  0
 10 52  1  0
 11 53  1  0
 11 54  1  0
 13 55  1  0
 14 56  1  0
 15 57  1  0
 21 58  1  0
 24 59  1  0
 24 60  1  0
 25 61  1  0
 25 62  1  0
 27 63  1  0
 27 64  1  0
 27 65  1  0
 28 66  1  0
 28 67  1  0
 29 68  1  0
 29 69  1  0
 30 70  1  0
 31 71  1  0
M  CHG  1  11   1
M  END
>  <UniqueID>  (17) 
15

>  <SMILES>  (17) 
CCN(CC)CCOCC[NH2+]c1cccc2c1C(=O)c1cc(N3CCN(C)CC3)ccc1C2=O

>  <Energy>  (17) 
101.41667412699312

>  <Genealogy>  (17) 
CCN(CC)CCOCC[NH2+]c1cccc2c1C(=O)c1cc(N3CCN(C)CC3)ccc1C2=O (protonated)
CCN(CC)CCOCC[NH2+]c1cccc2c1C(=O)c1cc(N3CCN(C)CC3)ccc1C2=O (3D coordinates assigned)
CCN(CC)CCOCC[NH2+]c1cccc2c1C(=O)c1cc(N3CCN(C)CC3)ccc1C2=O (nonaromatic ring conformer: 101.41667412699312 kcal/mol)

>  <smiles>  (17) 
CCN(CC)CCOCCNc1cccc2c1C(=O)c1cc(N3CCN(C)CC3)ccc1C2=O

>  <score_type>  (17) 
oracle

>  <origin>  (17) 
adg

>  <m_score__min__energy>  (17) 
-9.6199999999999992

>  <m_primary>  (17) 
energy

$$$$
17:0
     RDKit          3D

 39 41  0  0  0  0  0  0  0  0999 V2000
   -0.0940   25.0890  -25.7020 C   0  0  0  0  0  0  0  0  0  0  0  0
    0.2200   24.5830  -27.1060 C   0  0  0  0  0  0  0  0  0  0  0  0
   -1.0060   24.0910  -27.7630 N   0  0  0  0  0  0  0  0  0  0  0  0
   -1.6540   24.8810  -28.6860 C   0  0  0  0  0  0  0  0  0  0  0  0
   -1.2330   26.0350  -28.9770 O   0  0  0  0  0  0  0  0  0  0  0  0
   -2.7810   24.3770  -29.3080 C   0  0  0  0  0  0  0  0  0  0  0  0
   -3.5430   24.9440  -30.2540 N   0  0  0  0  0  0  0  0  0  0  0  0
   -4.4650   23.9750  -30.4980 C   0  0  0  0  0  0  0  0  0  0  0  0
   -5.5080   24.1040  -31.5650 C   0  0  0  0  0  0  0  0  0  0  0  0
   -6.8980   23.7230  -31.0390 C   0  0  0  0  0  0  0  0  0  0  0  0
   -7.3570   22.3950  -31.5840 C   0  0  0  0  0  0  0  0  0  0  0  0
   -8.6940   21.9910  -31.4290 C   0  0  0  0  0  0  0  0  0  0  0  0
   -9.1320   20.7790  -31.9740 C   0  0  0  0  0  0  0  0  0  0  0  0
   -8.2410   19.9680  -32.6830 C   0  0  0  0  0  0  0  0  0  0  0  0
   -6.9130   20.3670  -32.8490 C   0  0  0  0  0  0  0  0  0  0  0  0
   -6.4710   21.5760  -32.3050 C   0  0  0  0  0  0  0  0  0  0  0  0
   -4.3010   22.8390  -29.7680 N   0  0  0  0  0  0  0  0  0  0  0  0
   -3.2270   23.1380  -29.0190 C   0  0  0  0  0  0  0  0  0  0  0  0
   -2.6080   22.3330  -28.1140 N   0  0  0  0  0  0  0  0  0  0  0  0
   -3.0900   20.9670  -27.8700 C   0  0  0  0  0  0  0  0  0  0  0  0
   -1.4720   22.8120  -27.4980 C   0  0  0  0  0  0  0  0  0  0  0  0
   -0.8440   22.0700  -26.6890 O   0  0  0  0  0  0  0  0  0  0  0  0
    0.3339   24.3994  -24.9595 H   0  0  0  0  0  0  0  0  0  0  0  0
    0.3419   26.0899  -25.5669 H   0  0  0  0  0  0  0  0  0  0  0  0
   -1.1844   25.1427  -25.5669 H   0  0  0  0  0  0  0  0  0  0  0  0
    0.6447   25.4052  -27.7008 H   0  0  0  0  0  0  0  0  0  0  0  0
    0.9417   23.7560  -27.0335 H   0  0  0  0  0  0  0  0  0  0  0  0
   -5.5321   25.1456  -31.9177 H   0  0  0  0  0  0  0  0  0  0  0  0
   -5.2493   23.4194  -32.3862 H   0  0  0  0  0  0  0  0  0  0  0  0
   -6.8595   23.6635  -29.9413 H   0  0  0  0  0  0  0  0  0  0  0  0
   -7.6114   24.4930  -31.3679 H   0  0  0  0  0  0  0  0  0  0  0  0
   -9.3990   22.6301  -30.8771 H   0  0  0  0  0  0  0  0  0  0  0  0
  -10.1780   20.4642  -31.8445 H   0  0  0  0  0  0  0  0  0  0  0  0
   -8.5861   19.0150  -33.1104 H   0  0  0  0  0  0  0  0  0  0  0  0
   -6.2137   19.7286  -33.4089 H   0  0  0  0  0  0  0  0  0  0  0  0
   -5.4251   21.8881  -32.4417 H   0  0  0  0  0  0  0  0  0  0  0  0
   -3.1530   20.7885  -26.7864 H   0  0  0  0  0  0  0  0  0  0  0  0
   -4.0859   20.8437  -28.3204 H   0  0  0  0  0  0  0  0  0  0  0  0
   -2.3920   20.2459  -28.3204 H   0  0  0  0  0  0  0  0  0  0  0  0
  1  2  1  0
  2  3  1  0
  3  4  1  0
  4  5  2  0
  4  6  1  0
  6  7  1  0
  7  8  1  0
  8  9  1  0
  9 10  1  0
 10 11  1  0
 11 12  2  0
 12 13  1  0
 13 14  2  0
 14 15  1  0
 15 16  2  0
  8 17  2  0
 17 18  1  0
 18 19  1  0
 19 20  1  0
 19 21  1  0
 21 22  2  0
 21  3  1  0
 18  6  2  0
 16 11  1  0
  1 23  1  0
  1 24  1  0
  1 25  1  0
  2 26  1  0
  2 27  1  0
  9 28  1  0
  9 29  1  0
 10 30  1  0
 10 31  1  0
 12 32  1  0
 13 33  1  0
 14 34  1  0
 15 35  1  0
 16 36  1  0
 20 37  1  0
 20 38  1  0
 20 39  1  0
M  CHG  1   7  -1
M  END
>  <UniqueID>  (18) 
16

>  <SMILES>  (18) 
CCn1c(=O)c2[n-]c(CCc3ccccc3)nc2n(C)c1=O

>  <Energy>  (18) 
75.95020685364

>  <Genealogy>  (18) 
CCn1c(=O)c2[n-]c(CCc3ccccc3)nc2n(C)c1=O (protonated)
CCn1c(=O)c2[n-]c(CCc3ccccc3)nc2n(C)c1=O (3D coordinates assigned)
CCn1c(=O)c2[n-]c(CCc3ccccc3)nc2n(C)c1=O (optimized conformer: 75.95020685364 kcal/mol)

>  <smiles>  (18) 
CCn1c(=O)c2[nH]c(CCc3ccccc3)nc2n(C)c1=O

>  <score_type>  (18) 
oracle

>  <origin>  (18) 
adg

>  <m_score__min__energy>  (18) 
-8.5600000000000005

>  <m_primary>  (18) 
energy

$$$$
18:0
     RDKit          3D

 42 43  0  0  0  0  0  0  0  0999 V2000
   -6.1190   25.5400  -29.8550 C   0  0  0  0  0  0  0  0  0  0  0  0
   -5.9270   24.5260  -30.7050 C   0  0  0  0  0  0  0  0  0  0  0  0
   -5.6570   23.1290  -30.2160 C   0  0  0  0  0  0  0  0  0  0  0  0
   -5.8110   22.1490  -31.3100 N   0  0  0  0  0  0  0  0  0  0  0  0
   -4.6980   21.8500  -32.0460 C   0  0  0  0  0  0  0  0  0  0  0  0
   -4.7440   20.9360  -33.0910 C   0  0  0  0  0  0  0  0  0  0  0  0
   -5.9430   20.3040  -33.4220 C   0  0  0  0  0  0  0  0  0  0  0  0
   -5.9680   19.3230  -34.4770 N   0  0  0  0  0  0  0  0  0  0  0  0
   -4.8600   18.4040  -34.7510 C   0  0  0  0  0  0  0  0  0  0  0  0
   -5.1080   17.0410  -34.0800 C   0  0  0  0  0  0  0  0  0  0  0  0
   -6.5510   16.7540  -33.8940 N   0  0  0  0  0  0  0  0  0  0  0  0
   -6.8720   15.3460  -34.1990 C   0  0  0  0  0  0  0  0  0  0  0  0
   -6.9470   17.0600  -32.5070 C   0  0  0  0  0  0  0  0  0  0  0  0
   -7.1080   20.6250  -32.6910 C   0  0  0  0  0  0  0  0  0  0  0  0
   -8.3590   20.0620  -33.0250 C   0  0  0  0  0  0  0  0  0  0  0  0
   -9.5030   20.3910  -32.3020 C   0  0  0  0  0  0  0  0  0  0  0  0
   -9.4260   21.2910  -31.2430 C   0  0  0  0  0  0  0  0  0  0  0  0
   -8.2070   21.8750  -30.9050 C   0  0  0  0  0  0  0  0  0  0  0  0
   -7.0250   21.5620  -31.6200 C   0  0  0  0  0  0  0  0  0  0  0  0
   -6.3146   26.5514  -30.2407 H   0  0  0  0  0  0  0  0  0  0  0  0
   -6.0814   25.3628  -28.7700 H   0  0  0  0  0  0  0  0  0  0  0  0
   -5.9674   24.7176  -31.7874 H   0  0  0  0  0  0  0  0  0  0  0  0
   -4.6295   23.0759  -29.8268 H   0  0  0  0  0  0  0  0  0  0  0  0
   -6.3808   22.8879  -29.4236 H   0  0  0  0  0  0  0  0  0  0  0  0
   -3.7452   22.3442  -31.8052 H   0  0  0  0  0  0  0  0  0  0  0  0
   -3.8305   20.7094  -33.6604 H   0  0  0  0  0  0  0  0  0  0  0  0
   -6.8120   19.2560  -35.0900 H   0  0  0  0  0  0  0  0  0  0  0  0
   -4.7695   18.2607  -35.8379 H   0  0  0  0  0  0  0  0  0  0  0  0
   -3.9329   18.8354  -34.3455 H   0  0  0  0  0  0  0  0  0  0  0  0
   -4.6698   16.2528  -34.7098 H   0  0  0  0  0  0  0  0  0  0  0  0
   -4.6416   17.0688  -33.0842 H   0  0  0  0  0  0  0  0  0  0  0  0
   -7.1140   17.3710  -34.5290 H   0  0  0  0  0  0  0  0  0  0  0  0
   -6.9994   14.7873  -33.2601 H   0  0  0  0  0  0  0  0  0  0  0  0
   -7.8036   15.3003  -34.7821 H   0  0  0  0  0  0  0  0  0  0  0  0
   -6.0522   14.9011  -34.7821 H   0  0  0  0  0  0  0  0  0  0  0  0
   -6.2735   16.5396  -31.8101 H   0  0  0  0  0  0  0  0  0  0  0  0
   -6.8823   18.1450  -32.3381 H   0  0  0  0  0  0  0  0  0  0  0  0
   -7.9806   16.7236  -32.3381 H   0  0  0  0  0  0  0  0  0  0  0  0
   -8.4309   19.3559  -33.8654 H   0  0  0  0  0  0  0  0  0  0  0  0
  -10.4696   19.9386  -32.5685 H   0  0  0  0  0  0  0  0  0  0  0  0
  -10.3312   21.5422  -30.6707 H   0  0  0  0  0  0  0  0  0  0  0  0
   -8.1619   22.5900  -30.0703 H   0  0  0  0  0  0  0  0  0  0  0  0
  1  2  2  0
  2  3  1  0
  3  4  1  0
  4  5  2  0
  5  6  1  0
  6  7  2  0
  7  8  1  0
  8  9  1  0
  9 10  1  0
 10 11  1  0
 11 12  1  0
 11 13  1  0
  7 14  1  0
 14 15  2  0
 15 16  1  0
 16 17  2  0
 17 18  1  0
 18 19  2  0
 19  4  1  0
 19 14  1  0
  1 20  1  0
  1 21  1  0
  2 22  1  0
  3 23  1  0
  3 24  1  0
  5 25  1  0
  6 26  1  0
  8 27  1  0
  9 28  1  0
  9 29  1  0
 10 30  1  0
 10 31  1  0
 11 32  1  0
 12 33  1  0
 12 34  1  0
 12 35  1  0
 13 36  1  0
 13 37  1  0
 13 38  1  0
 15 39  1  0
 16 40  1  0
 17 41  1  0
 18 42  1  0
M  CHG  2   4   1  11   1
M  END
>  <UniqueID>  (19) 
17

>  <SMILES>  (19) 
C=CC[n+]1ccc(NCC[NH+](C)C)c2ccccc21

>  <Energy>  (19) 
49.67782231220484

>  <Genealogy>  (19) 
C=CC[n+]1ccc(NCC[NH+](C)C)c2ccccc21 (protonated)
C=CC[n+]1ccc(NCC[NH+](C)C)c2ccccc21 (3D coordinates assigned)
C=CC[n+]1ccc(NCC[NH+](C)C)c2ccccc21 (optimized conformer: 49.67782231220484 kcal/mol)

>  <smiles>  (19) 
C=CC[n+]1ccc(NCCN(C)C)c2ccccc21

>  <score_type>  (19) 
oracle

>  <origin>  (19) 
adg

>  <m_score__min__energy>  (19) 
-5.7800000000000002

>  <m_primary>  (19) 
energy

$$$$
19:0
     RDKit          3D

 58 61  0  0  0  0  0  0  0  0999 V2000
   -1.9890   21.2460  -29.9210 C   0  0  0  0  0  0  0  0  0  0  0  0
   -2.3070   22.7400  -30.0920 C   0  0  0  0  0  0  0  0  0  0  0  0
   -3.6290   23.1590  -29.5560 N   0  0  0  0  0  0  0  0  0  0  0  0
   -3.8240   22.8740  -28.1150 C   0  0  0  0  0  0  0  0  0  0  0  0
   -3.9320   24.1590  -27.2930 C   0  0  0  0  0  0  0  0  0  0  0  0
   -3.9650   24.5630  -29.8950 C   0  0  0  0  0  0  0  0  0  0  0  0
   -5.1940   24.6280  -30.8180 C   0  0  0  0  0  0  0  0  0  0  0  0
   -5.8940   23.2710  -30.9810 C   0  0  0  0  0  0  0  0  0  0  0  0
   -5.9170   22.8410  -32.3780 N   0  0  0  0  0  0  0  0  0  0  0  0
   -5.9250   21.4420  -32.6980 C   0  0  0  0  0  0  0  0  0  0  0  0
   -7.1090   20.6990  -32.5660 C   0  0  0  0  0  0  0  0  0  0  0  0
   -8.2860   21.2990  -32.0740 C   0  0  0  0  0  0  0  0  0  0  0  0
   -9.4460   20.5490  -31.8990 C   0  0  0  0  0  0  0  0  0  0  0  0
   -9.4490   19.1920  -32.1990 C   0  0  0  0  0  0  0  0  0  0  0  0
   -8.3020   18.5810  -32.7050 C   0  0  0  0  0  0  0  0  0  0  0  0
   -7.1160   19.3270  -32.9330 C   0  0  0  0  0  0  0  0  0  0  0  0
   -5.9870   18.7510  -33.4850 N   0  0  0  0  0  0  0  0  0  0  0  0
   -6.0780   17.4270  -34.1400 C   0  0  0  0  0  0  0  0  0  0  0  0
   -4.7780   19.4240  -33.4480 C   0  0  0  0  0  0  0  0  0  0  0  0
   -3.5540   18.7730  -33.7470 C   0  0  0  0  0  0  0  0  0  0  0  0
   -2.3410   19.4720  -33.7460 C   0  0  0  0  0  0  0  0  0  0  0  0
   -1.1370   18.8150  -34.0570 C   0  0  0  0  0  0  0  0  0  0  0  0
    0.0700   19.5190  -34.0510 C   0  0  0  0  0  0  0  0  0  0  0  0
    0.0870   20.8780  -33.7270 C   0  0  0  0  0  0  0  0  0  0  0  0
   -1.1020   21.5390  -33.4110 C   0  0  0  0  0  0  0  0  0  0  0  0
   -2.3220   20.8430  -33.4200 C   0  0  0  0  0  0  0  0  0  0  0  0
   -3.5140   21.4910  -33.0900 C   0  0  0  0  0  0  0  0  0  0  0  0
   -4.7400   20.7950  -33.0840 C   0  0  0  0  0  0  0  0  0  0  0  0
   -1.9372   21.0025  -28.8496 H   0  0  0  0  0  0  0  0  0  0  0  0
   -2.7796   20.6462  -30.3955 H   0  0  0  0  0  0  0  0  0  0  0  0
   -1.0227   21.0201  -30.3955 H   0  0  0  0  0  0  0  0  0  0  0  0
   -1.5281   23.3177  -29.5729 H   0  0  0  0  0  0  0  0  0  0  0  0
   -2.3367   22.9294  -31.1752 H   0  0  0  0  0  0  0  0  0  0  0  0
   -4.7486   22.2916  -27.9889 H   0  0  0  0  0  0  0  0  0  0  0  0
   -2.9504   22.3102  -27.7560 H   0  0  0  0  0  0  0  0  0  0  0  0
   -3.9112   23.9116  -26.2214 H   0  0  0  0  0  0  0  0  0  0  0  0
   -3.0862   24.8201  -27.5332 H   0  0  0  0  0  0  0  0  0  0  0  0
   -4.8762   24.6696  -27.5332 H   0  0  0  0  0  0  0  0  0  0  0  0
   -4.1814   25.1149  -28.9684 H   0  0  0  0  0  0  0  0  0  0  0  0
   -3.1085   25.0116  -30.4196 H   0  0  0  0  0  0  0  0  0  0  0  0
   -5.9130   25.3447  -30.3945 H   0  0  0  0  0  0  0  0  0  0  0  0
   -4.8424   24.9386  -31.8129 H   0  0  0  0  0  0  0  0  0  0  0  0
   -5.3570   22.5186  -30.3848 H   0  0  0  0  0  0  0  0  0  0  0  0
   -6.9334   23.3768  -30.6367 H   0  0  0  0  0  0  0  0  0  0  0  0
   -5.7480   23.5230  -33.1520 H   0  0  0  0  0  0  0  0  0  0  0  0
   -8.2880   22.3706  -31.8258 H   0  0  0  0  0  0  0  0  0  0  0  0
  -10.3606   21.0308  -31.5231 H   0  0  0  0  0  0  0  0  0  0  0  0
  -10.3600   18.5973  -32.0366 H   0  0  0  0  0  0  0  0  0  0  0  0
   -8.3166   17.5045  -32.9309 H   0  0  0  0  0  0  0  0  0  0  0  0
   -6.1320   16.6411  -33.3723 H   0  0  0  0  0  0  0  0  0  0  0  0
   -6.9808   17.3895  -34.7673 H   0  0  0  0  0  0  0  0  0  0  0  0
   -5.1888   17.2663  -34.7673 H   0  0  0  0  0  0  0  0  0  0  0  0
   -3.5578   17.6989  -33.9841 H   0  0  0  0  0  0  0  0  0  0  0  0
   -1.1455   17.7435  -34.3058 H   0  0  0  0  0  0  0  0  0  0  0  0
    1.0083   19.0025  -34.3017 H   0  0  0  0  0  0  0  0  0  0  0  0
    1.0392   21.4287  -33.7208 H   0  0  0  0  0  0  0  0  0  0  0  0
   -1.0830   22.6084  -33.1542 H   0  0  0  0  0  0  0  0  0  0  0  0
   -3.4962   22.5599  -32.8310 H   0  0  0  0  0  0  0  0  0  0  0  0
  1  2  1  0
  2  3  1  0
  3  4  1  0
  4  5  1  0
  3  6  1  0
  6  7  1  0
  7  8  1  0
  8  9  1  0
  9 10  1  0
 10 11  2  0
 11 12  1  0
 12 13  2  0
 13 14  1  0
 14 15  2  0
 15 16  1  0
 16 17  2  0
 17 18  1  0
 17 19  1  0
 19 20  2  0
 20 21  1  0
 21 22  2  0
 22 23  1  0
 23 24  2  0
 24 25  1  0
 25 26  2  0
 26 27  1  0
 27 28  2  0
 28 10  1  0
 16 11  1  0
 28 19  1  0
 26 21  1  0
  1 29  1  0
  1 30  1  0
  1 31  1  0
  2 32  1  0
  2 33  1  0
  4 34  1  0
  4 35  1  0
  5 36  1  0
  5 37  1  0
  5 38  1  0
  6 39  1  0
  6 40  1  0
  7 41  1  0
  7 42  1  0
  8 43  1  0
  8 44  1  0
  9 45  1  0
 12 46  1  0
 13 47  1  0
 14 48  1  0
 15 49  1  0
 18 50  1  0
 18 51  1  0
 18 52  1  0
 20 53  1  0
 22 54  1  0
 23 55  1  0
 24 56  1  0
 25 57  1  0
 27 58  1  0
M  CHG  1  17   1
M  END
>  <UniqueID>  (20) 
18

>  <SMILES>  (20) 
CCN(CC)CCCNc1c2ccccc2[n+](C)c2cc3ccccc3cc12

>  <Energy>  (20) 
88.92094208296369

>  <Genealogy>  (20) 
CCN(CC)CCCNc1c2ccccc2[n+](C)c2cc3ccccc3cc12 (3D coordinates assigned)
CCN(CC)CCCNc1c2ccccc2[n+](C)c2cc3ccccc3cc12 (optimized conformer: 88.92094208296369 kcal/mol)

>  <smiles>  (20) 
CCN(CC)CCCNc1c2ccccc2[n+](C)c2cc3ccccc3cc12

>  <score_type>  (20) 
oracle

>  <origin>  (20) 
adg

>  <m_score__min__energy>  (20) 
-9.1500000000000004

>  <m_primary>  (20) 
energy

$$$$
20:0
     RDKit          3D

 46 47  0  0  0  0  0  0  0  0999 V2000
   -9.4040   21.8850  -31.6000 C   0  0  0  0  0  0  0  0  0  0  0  0
   -8.7400   20.5130  -31.5730 C   0  0  0  0  0  0  0  0  0  0  0  0
   -8.5160   20.0540  -32.8940 O   0  0  0  0  0  0  0  0  0  0  0  0
   -7.1360   20.0650  -33.1980 C   0  0  0  0  0  0  0  0  0  0  0  0
   -6.3340   20.5360  -31.9780 C   0  0  0  0  0  0  0  0  0  0  0  0
   -5.4070   21.6420  -32.3140 N   0  0  0  0  0  0  0  0  0  0  0  0
   -6.1150   22.9490  -32.3420 C   0  0  0  0  0  0  0  0  0  0  0  0
   -5.9370   23.7260  -31.0310 C   0  0  0  0  0  0  0  0  0  0  0  0
   -4.5110   24.0400  -30.7970 N   0  0  0  0  0  0  0  0  0  0  0  0
   -4.2130   24.4930  -29.4180 C   0  0  0  0  0  0  0  0  0  0  0  0
   -3.1020   23.7110  -28.7360 C   0  0  0  0  0  0  0  0  0  0  0  0
   -3.3270   22.3790  -28.3450 C   0  0  0  0  0  0  0  0  0  0  0  0
   -2.3330   21.6530  -27.6860 C   0  0  0  0  0  0  0  0  0  0  0  0
   -2.6700   19.8560  -27.1340 Br  0  0  0  0  0  0  0  0  0  0  0  0
   -1.0940   22.2400  -27.4300 C   0  0  0  0  0  0  0  0  0  0  0  0
   -0.8410   23.5500  -27.8410 C   0  0  0  0  0  0  0  0  0  0  0  0
   -1.8360   24.2950  -28.5040 C   0  0  0  0  0  0  0  0  0  0  0  0
   -1.6000   25.6110  -28.9410 O   0  0  0  0  0  0  0  0  0  0  0  0
   -0.8720   26.5900  -28.2070 C   0  0  0  0  0  0  0  0  0  0  0  0
   -3.5660   23.0340  -31.3360 C   0  0  0  0  0  0  0  0  0  0  0  0
   -4.2090   21.6430  -31.4330 C   0  0  0  0  0  0  0  0  0  0  0  0
   -9.5717   22.2315  -30.5696 H   0  0  0  0  0  0  0  0  0  0  0  0
   -8.7513   22.5980  -32.1250 H   0  0  0  0  0  0  0  0  0  0  0  0
  -10.3681   21.8155  -32.1250 H   0  0  0  0  0  0  0  0  0  0  0  0
   -7.7778   20.5850  -31.0449 H   0  0  0  0  0  0  0  0  0  0  0  0
   -9.4006   19.8038  -31.0529 H   0  0  0  0  0  0  0  0  0  0  0  0
   -6.8158   19.0497  -33.4746 H   0  0  0  0  0  0  0  0  0  0  0  0
   -6.9563   20.7541  -34.0364 H   0  0  0  0  0  0  0  0  0  0  0  0
   -7.0353   20.8833  -31.2050 H   0  0  0  0  0  0  0  0  0  0  0  0
   -5.7331   19.6873  -31.6192 H   0  0  0  0  0  0  0  0  0  0  0  0
   -5.7145   23.5524  -33.1699 H   0  0  0  0  0  0  0  0  0  0  0  0
   -7.1886   22.7516  -32.4774 H   0  0  0  0  0  0  0  0  0  0  0  0
   -6.5085   24.6642  -31.0872 H   0  0  0  0  0  0  0  0  0  0  0  0
   -6.3025   23.1047  -30.2001 H   0  0  0  0  0  0  0  0  0  0  0  0
   -3.9163   25.5515  -29.4583 H   0  0  0  0  0  0  0  0  0  0  0  0
   -5.1257   24.3307  -28.8259 H   0  0  0  0  0  0  0  0  0  0  0  0
   -4.2957   21.9044  -28.5605 H   0  0  0  0  0  0  0  0  0  0  0  0
   -0.3147   21.6697  -26.9033 H   0  0  0  0  0  0  0  0  0  0  0  0
    0.1420   24.0035  -27.6458 H   0  0  0  0  0  0  0  0  0  0  0  0
   -1.0036   26.4131  -27.1293 H   0  0  0  0  0  0  0  0  0  0  0  0
    0.1957   26.5207  -28.4623 H   0  0  0  0  0  0  0  0  0  0  0  0
   -1.2457   27.5926  -28.4623 H   0  0  0  0  0  0  0  0  0  0  0  0
   -3.2450   23.3488  -32.3399 H   0  0  0  0  0  0  0  0  0  0  0  0
   -2.7088   22.9676  -30.6499 H   0  0  0  0  0  0  0  0  0  0  0  0
   -3.4692   20.9375  -31.8392 H   0  0  0  0  0  0  0  0  0  0  0  0
   -4.5300   21.3465  -30.4235 H   0  0  0  0  0  0  0  0  0  0  0  0
  1  2  1  0
  2  3  1  0
  3  4  1  0
  4  5  1  0
  5  6  1  0
  6  7  1  0
  7  8  1  0
  8  9  1  0
  9 10  1  0
 10 11  1  0
 11 12  2  0
 12 13  1  0
 13 14  1  0
 13 15  2  0
 15 16  1  0
 16 17  2  0
 17 18  1  0
 18 19  1  0
  9 20  1  0
 20 21  1  0
 21  6  1  0
 17 11  1  0
  1 22  1  0
  1 23  1  0
  1 24  1  0
  2 25  1  0
  2 26  1  0
  4 27  1  0
  4 28  1  0
  5 29  1  0
  5 30  1  0
  7 31  1  0
  7 32  1  0
  8 33  1  0
  8 34  1  0
 10 35  1  0
 10 36  1  0
 12 37  1  0
 15 38  1  0
 16 39  1  0
 19 40  1  0
 19 41  1  0
 19 42  1  0
 20 43  1  0
 20 44  1  0
 21 45  1  0
 21 46  1  0
M  END
>  <UniqueID>  (21) 
19

>  <SMILES>  (21) 
CCOCCN1CCN(Cc2cc(Br)ccc2OC)CC1

>  <Energy>  (21) 
58.69620040488426

>  <Genealogy>  (21) 
CCOCCN1CCN(Cc2cc(Br)ccc2OC)CC1 (3D coordinates assigned)
CCOCCN1CCN(Cc2cc(Br)ccc2OC)CC1 (nonaromatic ring conformer: 58.69620040488426 kcal/mol)

>  <smiles>  (21) 
CCOCCN1CCN(Cc2cc(Br)ccc2OC)CC1

>  <score_type>  (21) 
oracle

>  <origin>  (21) 
adg

>  <m_score__min__energy>  (21) 
-7.8499999999999996

>  <m_primary>  (21) 
energy

$$$$
21:0
     RDKit          3D

 65 66  0  0  0  0  0  0  0  0999 V2000
   -9.4880   22.0040  -31.5720 C   0  0  0  0  0  0  0  0  0  0  0  0
   -8.8810   20.9000  -32.4380 C   0  0  0  0  0  0  0  0  0  0  0  0
   -8.2430   19.7660  -31.6060 C   0  0  1  0  0  0  0  0  0  0  0  0
   -9.0990   18.4870  -31.6230 C   0  0  0  0  0  0  0  0  0  0  0  0
   -6.8270   19.4890  -32.1030 C   0  0  0  0  0  0  0  0  0  0  0  0
   -6.5170   18.2180  -32.6150 C   0  0  0  0  0  0  0  0  0  0  0  0
   -5.2690   17.9610  -33.1690 C   0  0  0  0  0  0  0  0  0  0  0  0
   -4.3290   18.9790  -33.2750 C   0  0  0  0  0  0  0  0  0  0  0  0
   -4.6030   20.2770  -32.8050 C   0  0  0  0  0  0  0  0  0  0  0  0
   -3.5490   21.3450  -33.1100 C   0  0  0  0  0  0  0  0  0  0  0  0
   -3.1440   22.2330  -31.9250 C   0  0  0  0  0  0  0  0  0  0  0  0
   -2.3290   20.7490  -33.8240 C   0  0  0  0  0  0  0  0  0  0  0  0
   -5.8430   20.5120  -32.1380 C   0  0  0  0  0  0  0  0  0  0  0  0
   -6.1350   21.7490  -31.5490 O   0  0  0  0  0  0  0  0  0  0  0  0
   -6.4200   22.9340  -32.3000 C   0  0  0  0  0  0  0  0  0  0  0  0
   -6.5970   24.1610  -31.3960 C   0  0  0  0  0  0  0  0  0  0  0  0
   -5.2600   24.6990  -30.8760 C   0  0  0  0  0  0  0  0  0  0  0  0
   -5.1800   24.5650  -29.4140 N   0  0  0  0  0  0  0  0  0  0  0  0
   -5.2620   23.1630  -28.9710 C   0  0  0  0  0  0  0  0  0  0  0  0
   -3.9420   22.6800  -28.3190 C   0  0  0  0  0  0  0  0  0  0  0  0
   -2.8050   23.6150  -28.4610 N   0  0  0  0  0  0  0  0  0  0  0  0
   -2.5240   24.4150  -27.2570 C   0  0  0  0  0  0  0  0  0  0  0  0
   -1.5850   25.5840  -27.6180 C   0  0  0  0  0  0  0  0  0  0  0  0
   -0.9220   25.3780  -28.9190 N   0  0  0  0  0  0  0  0  0  0  0  0
   -0.4160   24.0040  -29.0390 C   0  0  0  0  0  0  0  0  0  0  0  0
   -1.5770   22.9890  -28.9930 C   0  0  0  0  0  0  0  0  0  0  0  0
   -9.3505   21.7540  -30.5096 H   0  0  0  0  0  0  0  0  0  0  0  0
   -8.9881   22.9589  -31.7916 H   0  0  0  0  0  0  0  0  0  0  0  0
  -10.5621   22.0935  -31.7916 H   0  0  0  0  0  0  0  0  0  0  0  0
   -9.6750   20.4703  -33.0664 H   0  0  0  0  0  0  0  0  0  0  0  0
   -8.0825   21.3557  -33.0420 H   0  0  0  0  0  0  0  0  0  0  0  0
   -8.1935   20.0989  -30.5587 H   0  0  0  0  0  0  0  0  0  0  0  0
   -9.3093   18.1728  -30.5900 H   0  0  0  0  0  0  0  0  0  0  0  0
  -10.0461   18.6866  -32.1456 H   0  0  0  0  0  0  0  0  0  0  0  0
   -8.5533   17.6875  -32.1456 H   0  0  0  0  0  0  0  0  0  0  0  0
   -7.2705   17.4176  -32.5769 H   0  0  0  0  0  0  0  0  0  0  0  0
   -5.0244   16.9492  -33.5246 H   0  0  0  0  0  0  0  0  0  0  0  0
   -3.3526   18.7664  -33.7348 H   0  0  0  0  0  0  0  0  0  0  0  0
   -4.0545   22.0371  -33.7995 H   0  0  0  0  0  0  0  0  0  0  0  0
   -3.3795   21.7167  -30.9826 H   0  0  0  0  0  0  0  0  0  0  0  0
   -2.0640   22.4366  -31.9716 H   0  0  0  0  0  0  0  0  0  0  0  0
   -3.6983   23.1820  -31.9716 H   0  0  0  0  0  0  0  0  0  0  0  0
   -1.6037   20.3947  -33.0767 H   0  0  0  0  0  0  0  0  0  0  0  0
   -2.6485   19.9055  -34.4536 H   0  0  0  0  0  0  0  0  0  0  0  0
   -1.8600   21.5195  -34.4536 H   0  0  0  0  0  0  0  0  0  0  0  0
   -5.5883   23.1223  -32.9949 H   0  0  0  0  0  0  0  0  0  0  0  0
   -7.3637   22.7732  -32.8418 H   0  0  0  0  0  0  0  0  0  0  0  0
   -7.0979   24.9541  -31.9705 H   0  0  0  0  0  0  0  0  0  0  0  0
   -7.1969   23.8542  -30.5265 H   0  0  0  0  0  0  0  0  0  0  0  0
   -4.4383   24.1307  -31.3363 H   0  0  0  0  0  0  0  0  0  0  0  0
   -5.1808   25.7642  -31.1387 H   0  0  0  0  0  0  0  0  0  0  0  0
   -4.2750   24.9710  -29.0810 H   0  0  0  0  0  0  0  0  0  0  0  0
   -6.0753   23.0701  -28.2363 H   0  0  0  0  0  0  0  0  0  0  0  0
   -5.4510   22.5383  -29.8565 H   0  0  0  0  0  0  0  0  0  0  0  0
   -4.1265   22.5252  -27.2457 H   0  0  0  0  0  0  0  0  0  0  0  0
   -3.6542   21.7582  -28.8457 H   0  0  0  0  0  0  0  0  0  0  0  0
   -3.4668   24.8140  -26.8547 H   0  0  0  0  0  0  0  0  0  0  0  0
   -2.0402   23.7788  -26.5012 H   0  0  0  0  0  0  0  0  0  0  0  0
   -2.1740   26.5120  -27.6625 H   0  0  0  0  0  0  0  0  0  0  0  0
   -0.8050   25.6447  -26.8448 H   0  0  0  0  0  0  0  0  0  0  0  0
   -0.1060   26.0320  -28.9750 H   0  0  0  0  0  0  0  0  0  0  0  0
    0.1184   23.8982  -29.9946 H   0  0  0  0  0  0  0  0  0  0  0  0
    0.2632   23.8026  -28.1975 H   0  0  0  0  0  0  0  0  0  0  0  0
   -1.7729   22.6198  -30.0105 H   0  0  0  0  0  0  0  0  0  0  0  0
   -1.2912   22.1585  -28.3308 H   0  0  0  0  0  0  0  0  0  0  0  0
  1  2  1  0
  2  3  1  0
  3  4  1  0
  3  5  1  0
  5  6  2  0
  6  7  1  0
  7  8  2  0
  8  9  1  0
  9 10  1  0
 10 11  1  0
 10 12  1  0
  9 13  2  0
 13 14  1  0
 14 15  1  0
 15 16  1  0
 16 17  1  0
 17 18  1  0
 18 19  1  0
 19 20  1  0
 20 21  1  0
 21 22  1  0
 22 23  1  0
 23 24  1  0
 24 25  1  0
 25 26  1  0
 13  5  1  0
 26 21  1  0
  1 27  1  0
  1 28  1  0
  1 29  1  0
  2 30  1  0
  2 31  1  0
  3 32  1  1
  4 33  1  0
  4 34  1  0
  4 35  1  0
  6 36  1  0
  7 37  1  0
  8 38  1  0
 10 39  1  0
 11 40  1  0
 11 41  1  0
 11 42  1  0
 12 43  1  0
 12 44  1  0
 12 45  1  0
 15 46  1  0
 15 47  1  0
 16 48  1  0
 16 49  1  0
 17 50  1  0
 17 51  1  0
 18 52  1  0
 19 53  1  0
 19 54  1  0
 20 55  1  0
 20 56  1  0
 22 57  1  0
 22 58  1  0
 23 59  1  0
 23 60  1  0
 24 61  1  0
 25 62  1  0
 25 63  1  0
 26 64  1  0
 26 65  1  0
M  END
>  <UniqueID>  (22) 
20

>  <SMILES>  (22) 
CC[C@@H](C)c1cccc(C(C)C)c1OCCCNCCN1CCNCC1

>  <Energy>  (22) 
75.06946561406451

>  <Genealogy>  (22) 
CC[C@@H](C)c1cccc(C(C)C)c1OCCCNCCN1CCNCC1 (chirality)
CC[C@@H](C)c1cccc(C(C)C)c1OCCCNCCN1CCNCC1 (3D coordinates assigned)
CC[C@@H](C)c1cccc(C(C)C)c1OCCCNCCN1CCNCC1 (nonaromatic ring conformer: 75.06946561406451 kcal/mol)

>  <smiles>  (22) 
CCC(C)c1cccc(C(C)C)c1OCCCNCCN1CCNCC1

>  <score_type>  (22) 
oracle

>  <origin>  (22) 
adg

>  <m_score__min__energy>  (22) 
-9.1699999999999999

>  <m_primary>  (22) 
energy

$$$$
22:0
     RDKit          3D

 42 44  0  0  0  0  0  0  0  0999 V2000
   -9.0730   23.4050  -32.3430 C   0  0  0  0  0  0  0  0  0  0  0  0
   -8.2500   22.6940  -31.2680 C   0  0  0  0  0  0  0  0  0  0  0  0
   -7.0030   22.1150  -31.8350 N   0  0  0  0  0  0  0  0  0  0  0  0
   -5.8760   22.9090  -31.9960 C   0  0  0  0  0  0  0  0  0  0  0  0
   -5.8220   24.3740  -31.5890 C   0  0  0  0  0  0  0  0  0  0  0  0
   -4.4690   24.7450  -31.1570 N   0  0  0  0  0  0  0  0  0  0  0  0
   -4.3950   24.8970  -29.6990 C   0  0  0  0  0  0  0  0  0  0  0  0
   -3.4080   23.9090  -29.1400 C   0  0  0  0  0  0  0  0  0  0  0  0
   -3.8400   22.6290  -28.7540 C   0  0  0  0  0  0  0  0  0  0  0  0
   -2.9360   21.7180  -28.1990 C   0  0  0  0  0  0  0  0  0  0  0  0
   -1.6000   22.0800  -28.0150 C   0  0  0  0  0  0  0  0  0  0  0  0
   -1.1650   23.3560  -28.3810 C   0  0  0  0  0  0  0  0  0  0  0  0
   -2.0630   24.2730  -28.9390 C   0  0  0  0  0  0  0  0  0  0  0  0
   -1.6210   25.5100  -29.2780 F   0  0  0  0  0  0  0  0  0  0  0  0
   -4.7110   22.3760  -32.5620 C   0  0  0  0  0  0  0  0  0  0  0  0
   -4.6610   21.0520  -32.9620 C   0  0  0  0  0  0  0  0  0  0  0  0
   -3.5960   20.6040  -33.4700 O   0  0  0  0  0  0  0  0  0  0  0  0
   -5.7830   20.2340  -32.8000 C   0  0  0  0  0  0  0  0  0  0  0  0
   -5.7440   18.8840  -33.2000 C   0  0  0  0  0  0  0  0  0  0  0  0
   -6.8600   18.0660  -33.0440 C   0  0  0  0  0  0  0  0  0  0  0  0
   -8.0250   18.5810  -32.4900 C   0  0  0  0  0  0  0  0  0  0  0  0
   -8.0870   19.9150  -32.0860 C   0  0  0  0  0  0  0  0  0  0  0  0
   -6.9690   20.7820  -32.2290 C   0  0  0  0  0  0  0  0  0  0  0  0
   -9.8220   24.0521  -31.8632 H   0  0  0  0  0  0  0  0  0  0  0  0
   -8.4073   24.0168  -32.9696 H   0  0  0  0  0  0  0  0  0  0  0  0
   -9.5816   22.6575  -32.9696 H   0  0  0  0  0  0  0  0  0  0  0  0
   -7.9842   23.4178  -30.4834 H   0  0  0  0  0  0  0  0  0  0  0  0
   -8.8554   21.8744  -30.8535 H   0  0  0  0  0  0  0  0  0  0  0  0
   -6.1102   24.9979  -32.4479 H   0  0  0  0  0  0  0  0  0  0  0  0
   -6.5161   24.5330  -30.7506 H   0  0  0  0  0  0  0  0  0  0  0  0
   -4.2380   25.6710  -31.5880 H   0  0  0  0  0  0  0  0  0  0  0  0
   -4.0700   25.9187  -29.4531 H   0  0  0  0  0  0  0  0  0  0  0  0
   -5.3868   24.7116  -29.2608 H   0  0  0  0  0  0  0  0  0  0  0  0
   -4.8934   22.3424  -28.8889 H   0  0  0  0  0  0  0  0  0  0  0  0
   -3.2780   20.7142  -27.9068 H   0  0  0  0  0  0  0  0  0  0  0  0
   -0.8899   21.3602  -27.5817 H   0  0  0  0  0  0  0  0  0  0  0  0
   -0.1133   23.6409  -28.2302 H   0  0  0  0  0  0  0  0  0  0  0  0
   -3.8261   23.0167  -32.6900 H   0  0  0  0  0  0  0  0  0  0  0  0
   -4.8236   18.4722  -33.6396 H   0  0  0  0  0  0  0  0  0  0  0  0
   -6.8191   17.0129  -33.3592 H   0  0  0  0  0  0  0  0  0  0  0  0
   -8.9051   17.9324  -32.3689 H   0  0  0  0  0  0  0  0  0  0  0  0
   -9.0185   20.3035  -31.6485 H   0  0  0  0  0  0  0  0  0  0  0  0
  1  2  1  0
  2  3  1  0
  3  4  1  0
  4  5  1  0
  5  6  1  0
  6  7  1  0
  7  8  1  0
  8  9  2  0
  9 10  1  0
 10 11  2  0
 11 12  1  0
 12 13  2  0
 13 14  1  0
  4 15  2  0
 15 16  1  0
 16 17  2  0
 16 18  1  0
 18 19  2  0
 19 20  1  0
 20 21  2  0
 21 22  1  0
 22 23  2  0
 23  3  1  0
 13  8  1  0
 23 18  1  0
  1 24  1  0
  1 25  1  0
  1 26  1  0
  2 27  1  0
  2 28  1  0
  5 29  1  0
  5 30  1  0
  6 31  1  0
  7 32  1  0
  7 33  1  0
  9 34  1  0
 10 35  1  0
 11 36  1  0
 12 37  1  0
 15 38  1  0
 19 39  1  0
 20 40  1  0
 21 41  1  0
 22 42  1  0
M  END
>  <UniqueID>  (23) 
21

>  <SMILES>  (23) 
CCn1c(CNCc2ccccc2F)cc(=O)c2ccccc21

>  <Energy>  (23) 
55.29405915836665

>  <Genealogy>  (23) 
CCn1c(CNCc2ccccc2F)cc(=O)c2ccccc21 (3D coordinates assigned)
CCn1c(CNCc2ccccc2F)cc(=O)c2ccccc21 (optimized conformer: 55.29405915836665 kcal/mol)

>  <smiles>  (23) 
CCn1c(CNCc2ccccc2F)cc(=O)c2ccccc21

>  <score_type>  (23) 
oracle

>  <origin>  (23) 
adg

>  <m_score__min__energy>  (23) 
-8.9499999999999993

>  <m_primary>  (23) 
energy

$$$$
23:0
     RDKit          3D

 48 50  0  0  0  0  0  0  0  0999 V2000
   -8.5790   20.0430  -32.2430 C   0  0  0  0  0  0  0  0  0  0  0  0
   -7.1540   20.2730  -32.7670 C   0  0  0  0  0  0  0  0  0  0  0  0
   -6.4220   21.3790  -32.0990 N   0  0  0  0  0  0  0  0  0  0  0  0
   -5.0150   21.0760  -31.7520 C   0  0  0  0  0  0  0  0  0  0  0  0
   -4.0520   22.1140  -32.3250 C   0  0  0  0  0  0  0  0  0  0  0  0
   -7.1720   21.9470  -30.9530 C   0  0  0  0  0  0  0  0  0  0  0  0
   -7.6150   23.3880  -31.2460 C   0  0  0  0  0  0  0  0  0  0  0  0
   -6.4910   24.4110  -31.0220 C   0  0  0  0  0  0  0  0  0  0  0  0
   -5.8140   24.1770  -29.7470 N   0  0  0  0  0  0  0  0  0  0  0  0
   -4.4160   24.4470  -29.5600 C   0  0  0  0  0  0  0  0  0  0  0  0
   -3.7210   24.8720  -30.5220 O   0  0  0  0  0  0  0  0  0  0  0  0
   -3.7450   24.1800  -28.2430 C   0  0  0  0  0  0  0  0  0  0  0  0
   -2.3330   23.8570  -28.4300 N   0  0  0  0  0  0  0  0  0  0  0  0
   -1.3930   24.7440  -28.7720 N   0  0  0  0  0  0  0  0  0  0  0  0
   -0.1760   24.1220  -28.7710 C   0  0  0  0  0  0  0  0  0  0  0  0
   -0.4070   22.8210  -28.4040 C   0  0  0  0  0  0  0  0  0  0  0  0
    0.2670   21.7190  -28.1680 O   0  0  0  0  0  0  0  0  0  0  0  0
   -0.6680   20.8410  -27.8090 C   0  0  0  0  0  0  0  0  0  0  0  0
   -0.4770   19.5120  -27.4410 C   0  0  0  0  0  0  0  0  0  0  0  0
   -1.6110   18.7550  -27.0860 C   0  0  0  0  0  0  0  0  0  0  0  0
   -2.9020   19.3320  -27.1090 C   0  0  0  0  0  0  0  0  0  0  0  0
   -3.0820   20.6760  -27.4830 C   0  0  0  0  0  0  0  0  0  0  0  0
   -1.9460   21.4030  -27.8220 C   0  0  0  0  0  0  0  0  0  0  0  0
   -1.7060   22.6910  -28.2170 C   0  0  0  0  0  0  0  0  0  0  0  0
   -8.5699   20.0445  -31.1430 H   0  0  0  0  0  0  0  0  0  0  0  0
   -9.2371   20.8466  -32.6053 H   0  0  0  0  0  0  0  0  0  0  0  0
   -8.9508   19.0732  -32.6053 H   0  0  0  0  0  0  0  0  0  0  0  0
   -6.5810   19.3453  -32.6221 H   0  0  0  0  0  0  0  0  0  0  0  0
   -7.2524   20.5578  -33.8249 H   0  0  0  0  0  0  0  0  0  0  0  0
   -4.9135   21.0628  -30.6568 H   0  0  0  0  0  0  0  0  0  0  0  0
   -4.7597   20.0976  -32.1851 H   0  0  0  0  0  0  0  0  0  0  0  0
   -3.5562   22.6484  -31.5012 H   0  0  0  0  0  0  0  0  0  0  0  0
   -3.2947   21.6097  -32.9432 H   0  0  0  0  0  0  0  0  0  0  0  0
   -4.6116   22.8314  -32.9432 H   0  0  0  0  0  0  0  0  0  0  0  0
   -8.0617   21.3286  -30.7632 H   0  0  0  0  0  0  0  0  0  0  0  0
   -6.5134   21.9548  -30.0720 H   0  0  0  0  0  0  0  0  0  0  0  0
   -7.9427   23.4492  -32.2943 H   0  0  0  0  0  0  0  0  0  0  0  0
   -8.4307   23.6329  -30.5498 H   0  0  0  0  0  0  0  0  0  0  0  0
   -5.7591   24.3254  -31.8387 H   0  0  0  0  0  0  0  0  0  0  0  0
   -6.9331   25.4181  -31.0037 H   0  0  0  0  0  0  0  0  0  0  0  0
   -6.3900   23.8560  -28.9380 H   0  0  0  0  0  0  0  0  0  0  0  0
   -3.8282   25.0751  -27.6091 H   0  0  0  0  0  0  0  0  0  0  0  0
   -4.2402   23.3217  -27.7655 H   0  0  0  0  0  0  0  0  0  0  0  0
    0.7960   24.5751  -29.0160 H   0  0  0  0  0  0  0  0  0  0  0  0
    0.5287   19.0665  -27.4278 H   0  0  0  0  0  0  0  0  0  0  0  0
   -1.4909   17.7031  -26.7875 H   0  0  0  0  0  0  0  0  0  0  0  0
   -3.7750   18.7231  -26.8314 H   0  0  0  0  0  0  0  0  0  0  0  0
   -4.0819   21.1339  -27.5064 H   0  0  0  0  0  0  0  0  0  0  0  0
  1  2  1  0
  2  3  1  0
  3  4  1  0
  4  5  1  0
  3  6  1  0
  6  7  1  0
  7  8  1  0
  8  9  1  0
  9 10  1  0
 10 11  2  0
 10 12  1  0
 12 13  1  0
 13 14  1  0
 14 15  2  0
 15 16  1  0
 16 17  1  0
 17 18  1  0
 18 19  2  0
 19 20  1  0
 20 21  2  0
 21 22  1  0
 22 23  2  0
 23 24  1  0
 24 13  1  0
 24 16  2  0
 23 18  1  0
  1 25  1  0
  1 26  1  0
  1 27  1  0
  2 28  1  0
  2 29  1  0
  4 30  1  0
  4 31  1  0
  5 32  1  0
  5 33  1  0
  5 34  1  0
  6 35  1  0
  6 36  1  0
  7 37  1  0
  7 38  1  0
  8 39  1  0
  8 40  1  0
  9 41  1  0
 12 42  1  0
 12 43  1  0
 15 44  1  0
 19 45  1  0
 20 46  1  0
 21 47  1  0
 22 48  1  0
M  END
>  <UniqueID>  (24) 
22

>  <SMILES>  (24) 
CCN(CC)CCCNC(=O)Cn1ncc2oc3ccccc3c21

>  <Energy>  (24) 
144.09809190809293

>  <Genealogy>  (24) 
CCN(CC)CCCNC(=O)Cn1ncc2oc3ccccc3c21 (3D coordinates assigned)
CCN(CC)CCCNC(=O)Cn1ncc2oc3ccccc3c21 (optimized conformer: 144.09809190809293 kcal/mol)

>  <smiles>  (24) 
CCN(CC)CCCNC(=O)Cn1ncc2oc3ccccc3c21

>  <score_type>  (24) 
oracle

>  <origin>  (24) 
adg

>  <m_score__min__energy>  (24) 
-7.8099999999999996

>  <m_primary>  (24) 
energy

$$$$
24:0
     RDKit          3D

 60 63  0  0  0  0  0  0  0  0999 V2000
   -2.8920   18.9500  -26.3350 C   0  0  0  0  0  0  0  0  0  0  0  0
   -2.4390   19.6740  -27.6010 C   0  0  0  0  0  0  0  0  0  0  0  0
   -2.3850   21.2050  -27.4330 C   0  0  0  0  0  0  0  0  0  0  0  0
   -2.9450   21.9390  -28.6090 N   0  0  2  0  0  0  0  0  0  0  0  0
   -4.2140   22.6270  -28.2460 C   0  0  0  0  0  0  0  0  0  0  0  0
   -4.2380   24.0840  -28.7250 C   0  0  0  0  0  0  0  0  0  0  0  0
   -3.1760   21.0010  -29.7420 C   0  0  0  0  0  0  0  0  0  0  0  0
   -2.7090   21.5840  -31.0930 C   0  0  0  0  0  0  0  0  0  0  0  0
   -3.7890   22.4480  -31.7570 C   0  0  0  0  0  0  0  0  0  0  0  0
   -4.1440   21.9320  -33.0800 N   0  0  0  0  0  0  0  0  0  0  0  0
   -4.6320   20.5940  -33.2580 C   0  0  0  0  0  0  0  0  0  0  0  0
   -3.7700   19.5340  -33.6330 C   0  0  0  0  0  0  0  0  0  0  0  0
   -2.3820   19.7430  -33.7630 C   0  0  0  0  0  0  0  0  0  0  0  0
   -1.5360   18.7000  -34.1270 C   0  0  0  0  0  0  0  0  0  0  0  0
   -2.0500   17.4280  -34.3560 C   0  0  0  0  0  0  0  0  0  0  0  0
   -3.4190   17.1900  -34.2430 C   0  0  0  0  0  0  0  0  0  0  0  0
   -4.3160   18.2340  -33.9060 C   0  0  0  0  0  0  0  0  0  0  0  0
   -5.6850   18.0180  -33.8340 N   0  0  0  0  0  0  0  0  0  0  0  0
   -6.2820   16.7250  -34.2200 C   0  0  0  0  0  0  0  0  0  0  0  0
   -6.4800   19.0350  -33.3730 C   0  0  0  0  0  0  0  0  0  0  0  0
   -7.8050   18.9570  -33.0920 N   0  0  0  0  0  0  0  0  0  0  0  0
   -8.1360   20.1740  -32.6160 C   0  0  0  0  0  0  0  0  0  0  0  0
   -9.3860   20.5710  -32.1420 C   0  0  0  0  0  0  0  0  0  0  0  0
   -9.5110   21.8690  -31.6190 C   0  0  0  0  0  0  0  0  0  0  0  0
   -8.3930   22.7290  -31.5620 C   0  0  0  0  0  0  0  0  0  0  0  0
   -7.1400   22.3040  -32.0370 C   0  0  0  0  0  0  0  0  0  0  0  0
   -7.0470   21.0210  -32.5850 C   0  0  0  0  0  0  0  0  0  0  0  0
   -5.9810   20.2900  -33.0850 C   0  0  0  0  0  0  0  0  0  0  0  0
   -2.5447   19.5050  -25.4510 H   0  0  0  0  0  0  0  0  0  0  0  0
   -3.9902   18.8881  -26.3210 H   0  0  0  0  0  0  0  0  0  0  0  0
   -2.4674   17.9354  -26.3210 H   0  0  0  0  0  0  0  0  0  0  0  0
   -1.4344   19.3152  -27.8694 H   0  0  0  0  0  0  0  0  0  0  0  0
   -3.1770   19.4552  -28.3869 H   0  0  0  0  0  0  0  0  0  0  0  0
   -2.9636   21.4807  -26.5390 H   0  0  0  0  0  0  0  0  0  0  0  0
   -1.3267   21.4899  -27.3392 H   0  0  0  0  0  0  0  0  0  0  0  0
   -2.2610   22.6690  -28.9240 H   0  0  0  0  0  0  0  0  0  0  0  0
   -5.0544   22.0880  -28.7078 H   0  0  0  0  0  0  0  0  0  0  0  0
   -4.2960   22.6297  -27.1491 H   0  0  0  0  0  0  0  0  0  0  0  0
   -4.2491   24.7561  -27.8543 H   0  0  0  0  0  0  0  0  0  0  0  0
   -3.3430   24.2852  -29.3321 H   0  0  0  0  0  0  0  0  0  0  0  0
   -5.1391   24.2556  -29.3321 H   0  0  0  0  0  0  0  0  0  0  0  0
   -2.6225   20.0703  -29.5486 H   0  0  0  0  0  0  0  0  0  0  0  0
   -4.2586   20.8190  -29.8114 H   0  0  0  0  0  0  0  0  0  0  0  0
   -1.8161   22.2031  -30.9217 H   0  0  0  0  0  0  0  0  0  0  0  0
   -2.4899   20.7419  -31.7660 H   0  0  0  0  0  0  0  0  0  0  0  0
   -4.6865   22.4512  -31.1210 H   0  0  0  0  0  0  0  0  0  0  0  0
   -3.3932   23.4673  -31.8767 H   0  0  0  0  0  0  0  0  0  0  0  0
   -4.2820   22.6230  -33.8520 H   0  0  0  0  0  0  0  0  0  0  0  0
   -1.9628   20.7424  -33.5745 H   0  0  0  0  0  0  0  0  0  0  0  0
   -0.4565   18.8821  -34.2341 H   0  0  0  0  0  0  0  0  0  0  0  0
   -1.3725   16.6052  -34.6278 H   0  0  0  0  0  0  0  0  0  0  0  0
   -3.8088   16.1764  -34.4181 H   0  0  0  0  0  0  0  0  0  0  0  0
   -6.5441   16.1574  -33.3149 H   0  0  0  0  0  0  0  0  0  0  0  0
   -7.1889   16.9033  -34.8164 H   0  0  0  0  0  0  0  0  0  0  0  0
   -5.5581   16.1504  -34.8164 H   0  0  0  0  0  0  0  0  0  0  0  0
   -8.4450   18.1370  -33.1550 H   0  0  0  0  0  0  0  0  0  0  0  0
  -10.2480   19.8886  -32.1765 H   0  0  0  0  0  0  0  0  0  0  0  0
  -10.4873   22.2177  -31.2512 H   0  0  0  0  0  0  0  0  0  0  0  0
   -8.5032   23.7399  -31.1425 H   0  0  0  0  0  0  0  0  0  0  0  0
   -6.2595   22.9608  -31.9793 H   0  0  0  0  0  0  0  0  0  0  0  0
  1  2  1  0
  2  3  1  0
  3  4  1  0
  4  5  1  0
  5  6  1  0
  4  7  1  0
  7  8  1  0
  8  9  1  0
  9 10  1  0
 10 11  1  0
 11 12  2  0
 12 13  1  0
 13 14  2  0
 14 15  1  0
 15 16  2  0
 16 17  1  0
 17 18  2  0
 18 19  1  0
 18 20  1  0
 20 21  1  0
 21 22  1  0
 22 23  2  0
 23 24  1  0
 24 25  2  0
 25 26  1  0
 26 27  2  0
 27 28  1  0
 28 11  1  0
 17 12  1  0
 28 20  2  0
 27 22  1  0
  1 29  1  0
  1 30  1  0
  1 31  1  0
  2 32  1  0
  2 33  1  0
  3 34  1  0
  3 35  1  0
  4 36  1  6
  5 37  1  0
  5 38  1  0
  6 39  1  0
  6 40  1  0
  6 41  1  0
  7 42  1  0
  7 43  1  0
  8 44  1  0
  8 45  1  0
  9 46  1  0
  9 47  1  0
 10 48  1  0
 13 49  1  0
 14 50  1  0
 15 51  1  0
 16 52  1  0
 19 53  1  0
 19 54  1  0
 19 55  1  0
 21 56  1  0
 23 57  1  0
 24 58  1  0
 25 59  1  0
 26 60  1  0
M  CHG  2   4   1  18   1
M  END
>  <UniqueID>  (25) 
23

>  <SMILES>  (25) 
CCC[N@H+](CC)CCCNc1c2ccccc2[n+](C)c2[nH]c3ccccc3c12

>  <Energy>  (25) 
117.54206652563276

>  <Genealogy>  (25) 
CCC[NH+](CC)CCCNc1c2ccccc2[n+](C)c2[nH]c3ccccc3c12 (protonated)
CCC[N@H+](CC)CCCNc1c2ccccc2[n+](C)c2[nH]c3ccccc3c12 (chirality)
CCC[N@H+](CC)CCCNc1c2ccccc2[n+](C)c2[nH]c3ccccc3c12 (3D coordinates assigned)
CCC[N@H+](CC)CCCNc1c2ccccc2[n+](C)c2[nH]c3ccccc3c12 (optimized conformer: 117.54206652563276 kcal/mol)

>  <smiles>  (25) 
CCCN(CC)CCCNc1c2ccccc2[n+](C)c2[nH]c3ccccc3c12

>  <score_type>  (25) 
oracle

>  <origin>  (25) 
adg

>  <m_score__min__energy>  (25) 
-7.79

>  <m_primary>  (25) 
energy

$$$$
25:0
     RDKit          3D

 40 41  0  0  0  0  0  0  0  0999 V2000
   -2.4620   24.5680  -29.0460 C   0  0  0  0  0  0  0  0  0  0  0  0
   -3.6730   23.7730  -29.5340 C   0  0  0  0  0  0  0  0  0  0  0  0
   -4.3240   24.4460  -30.6810 N   0  0  0  0  0  0  0  0  0  0  0  0
   -5.2780   25.4950  -30.2370 C   0  0  0  0  0  0  0  0  0  0  0  0
   -6.6740   24.8940  -30.1120 C   0  0  0  0  0  0  0  0  0  0  0  0
   -4.9710   23.4520  -31.5680 C   0  0  0  0  0  0  0  0  0  0  0  0
   -3.9280   22.5170  -32.1960 C   0  0  0  0  0  0  0  0  0  0  0  0
   -4.5270   21.7240  -33.2700 N   0  0  0  0  0  0  0  0  0  0  0  0
   -5.4200   20.6170  -33.0410 C   0  0  0  0  0  0  0  0  0  0  0  0
   -5.0560   19.2750  -33.2160 C   0  0  0  0  0  0  0  0  0  0  0  0
   -6.3830   18.2960  -32.8640 S   0  0  0  0  0  0  0  0  0  0  0  0
   -7.4280   19.5570  -32.4880 C   0  0  0  0  0  0  0  0  0  0  0  0
   -8.7650   19.4930  -32.0860 C   0  0  0  0  0  0  0  0  0  0  0  0
   -9.4740   18.1790  -31.9330 C   0  0  0  0  0  0  0  0  0  0  0  0
   -9.4160   20.7110  -31.8210 C   0  0  0  0  0  0  0  0  0  0  0  0
   -8.7500   21.8970  -31.9590 N   0  0  0  0  0  0  0  0  0  0  0  0
   -7.4440   21.9540  -32.3540 C   0  0  0  0  0  0  0  0  0  0  0  0
   -6.7600   20.7640  -32.6290 C   0  0  0  0  0  0  0  0  0  0  0  0
   -2.4483   24.5770  -27.9461 H   0  0  0  0  0  0  0  0  0  0  0  0
   -1.5402   24.0987  -29.4204 H   0  0  0  0  0  0  0  0  0  0  0  0
   -2.5260   25.6004  -29.4204 H   0  0  0  0  0  0  0  0  0  0  0  0
   -3.3434   22.7707  -29.8451 H   0  0  0  0  0  0  0  0  0  0  0  0
   -4.3998   23.7023  -28.7113 H   0  0  0  0  0  0  0  0  0  0  0  0
   -4.9602   25.8899  -29.2607 H   0  0  0  0  0  0  0  0  0  0  0  0
   -5.2951   26.3105  -30.9750 H   0  0  0  0  0  0  0  0  0  0  0  0
   -6.9316   24.7831  -29.0483 H   0  0  0  0  0  0  0  0  0  0  0  0
   -7.4038   25.5576  -30.5987 H   0  0  0  0  0  0  0  0  0  0  0  0
   -6.6935   23.9077  -30.5987 H   0  0  0  0  0  0  0  0  0  0  0  0
   -5.6829   22.8541  -30.9800 H   0  0  0  0  0  0  0  0  0  0  0  0
   -5.4932   23.9879  -32.3743 H   0  0  0  0  0  0  0  0  0  0  0  0
   -3.1042   23.1188  -32.6074 H   0  0  0  0  0  0  0  0  0  0  0  0
   -3.5505   21.8349  -31.4200 H   0  0  0  0  0  0  0  0  0  0  0  0
   -4.2450   21.9600  -34.2460 H   0  0  0  0  0  0  0  0  0  0  0  0
   -4.0647   18.9180  -33.5320 H   0  0  0  0  0  0  0  0  0  0  0  0
   -9.5970   17.9510  -30.8639 H   0  0  0  0  0  0  0  0  0  0  0  0
  -10.4627   18.2380  -32.4115 H   0  0  0  0  0  0  0  0  0  0  0  0
   -8.8819   17.3850  -32.4115 H   0  0  0  0  0  0  0  0  0  0  0  0
  -10.4683   20.7095  -31.5005 H   0  0  0  0  0  0  0  0  0  0  0  0
   -9.2560   22.7880  -31.7540 H   0  0  0  0  0  0  0  0  0  0  0  0
   -6.9353   22.9240  -32.4549 H   0  0  0  0  0  0  0  0  0  0  0  0
  1  2  1  0
  2  3  1  0
  3  4  1  0
  4  5  1  0
  3  6  1  0
  6  7  1  0
  7  8  1  0
  8  9  1  0
  9 10  2  0
 10 11  1  0
 11 12  1  0
 12 13  2  0
 13 14  1  0
 13 15  1  0
 15 16  2  0
 16 17  1  0
 17 18  2  0
 18  9  1  0
 18 12  1  0
  1 19  1  0
  1 20  1  0
  1 21  1  0
  2 22  1  0
  2 23  1  0
  4 24  1  0
  4 25  1  0
  5 26  1  0
  5 27  1  0
  5 28  1  0
  6 29  1  0
  6 30  1  0
  7 31  1  0
  7 32  1  0
  8 33  1  0
 10 34  1  0
 14 35  1  0
 14 36  1  0
 14 37  1  0
 15 38  1  0
 16 39  1  0
 17 40  1  0
M  CHG  1  16   1
M  END
>  <UniqueID>  (26) 
24

>  <SMILES>  (26) 
CCN(CC)CCNc1csc2c(C)c[nH+]cc12

>  <Energy>  (26) 
68.03277574785163

>  <Genealogy>  (26) 
CCN(CC)CCNc1csc2c(C)c[nH+]cc12 (protonated)
CCN(CC)CCNc1csc2c(C)c[nH+]cc12 (3D coordinates assigned)
CCN(CC)CCNc1csc2c(C)c[nH+]cc12 (optimized conformer: 68.03277574785163 kcal/mol)

>  <smiles>  (26) 
CCN(CC)CCNc1csc2c(C)cncc12

>  <score_type>  (26) 
oracle

>  <origin>  (26) 
adg

>  <m_score__min__energy>  (26) 
-6.4000000000000004

>  <m_primary>  (26) 
energy

$$$$
26:0
     RDKit          3D

 42 44  0  0  0  0  0  0  0  0999 V2000
   -6.2370   25.2660  -29.6810 C   0  0  0  0  0  0  0  0  0  0  0  0
   -5.3120   25.6800  -30.8150 C   0  0  0  0  0  0  0  0  0  0  0  0
   -3.9860   25.3200  -30.4860 O   0  0  0  0  0  0  0  0  0  0  0  0
   -3.9820   24.2780  -29.5300 C   0  0  0  0  0  0  0  0  0  0  0  0
   -2.8280   23.3390  -29.7780 C   0  0  0  0  0  0  0  0  0  0  0  0
   -2.7290   22.4410  -30.8240 C   0  0  0  0  0  0  0  0  0  0  0  0
   -3.7790   22.1670  -31.8600 C   0  0  0  0  0  0  0  0  0  0  0  0
   -3.2620   21.5410  -33.1460 C   0  0  0  0  0  0  0  0  0  0  0  0
   -4.0170   20.6910  -32.1400 C   0  0  0  0  0  0  0  0  0  0  0  0
   -1.4820   21.9280  -30.8690 N   0  0  0  0  0  0  0  0  0  0  0  0
   -0.8440   22.5150  -29.8350 C   0  0  0  0  0  0  0  0  0  0  0  0
   -1.6310   23.3750  -29.1560 N   0  0  0  0  0  0  0  0  0  0  0  0
   -1.2250   24.1820  -28.0400 C   0  0  0  0  0  0  0  0  0  0  0  0
   -1.0900   23.6080  -26.7680 C   0  0  0  0  0  0  0  0  0  0  0  0
   -0.7020   24.3920  -25.6770 C   0  0  0  0  0  0  0  0  0  0  0  0
   -0.4580   25.7590  -25.8470 C   0  0  0  0  0  0  0  0  0  0  0  0
    0.0330   26.7370  -24.4760 S   0  0  0  0  0  0  0  0  0  0  0  0
   -0.4800   28.4310  -24.6520 C   0  0  0  0  0  0  0  0  0  0  0  0
   -0.5020   26.0700  -23.0300 O   0  0  0  0  0  0  0  0  0  0  0  0
   -0.6100   26.3410  -27.1110 C   0  0  0  0  0  0  0  0  0  0  0  0
   -0.9970   25.5580  -28.2020 C   0  0  0  0  0  0  0  0  0  0  0  0
   -5.7542   25.4821  -28.7165 H   0  0  0  0  0  0  0  0  0  0  0  0
   -7.1798   25.8280  -29.7531 H   0  0  0  0  0  0  0  0  0  0  0  0
   -6.4460   24.1885  -29.7531 H   0  0  0  0  0  0  0  0  0  0  0  0
   -5.6133   25.1687  -31.7412 H   0  0  0  0  0  0  0  0  0  0  0  0
   -5.3739   26.7680  -30.9648 H   0  0  0  0  0  0  0  0  0  0  0  0
   -3.8869   24.7107  -28.5232 H   0  0  0  0  0  0  0  0  0  0  0  0
   -4.9233   23.7150  -29.6130 H   0  0  0  0  0  0  0  0  0  0  0  0
   -4.4151   23.0306  -31.6158 H   0  0  0  0  0  0  0  0  0  0  0  0
   -3.7282   21.7978  -34.1086 H   0  0  0  0  0  0  0  0  0  0  0  0
   -2.2807   21.4748  -33.6386 H   0  0  0  0  0  0  0  0  0  0  0  0
   -5.0302   20.3321  -32.3739 H   0  0  0  0  0  0  0  0  0  0  0  0
   -3.8091   19.7542  -31.6022 H   0  0  0  0  0  0  0  0  0  0  0  0
    0.2054   22.3138  -29.5737 H   0  0  0  0  0  0  0  0  0  0  0  0
   -1.2903   22.5356  -26.6275 H   0  0  0  0  0  0  0  0  0  0  0  0
   -0.5885   23.9332  -24.6837 H   0  0  0  0  0  0  0  0  0  0  0  0
   -0.6155   28.8784  -23.6563 H   0  0  0  0  0  0  0  0  0  0  0  0
    0.2887   28.9914  -25.2043 H   0  0  0  0  0  0  0  0  0  0  0  0
   -1.4305   28.4708  -25.2043 H   0  0  0  0  0  0  0  0  0  0  0  0
    0.3120   25.6990  -22.6030 H   0  0  0  0  0  0  0  0  0  0  0  0
   -0.4245   27.4168  -27.2458 H   0  0  0  0  0  0  0  0  0  0  0  0
   -1.1235   26.0215  -29.1915 H   0  0  0  0  0  0  0  0  0  0  0  0
  1  2  1  0
  2  3  1  0
  3  4  1  0
  4  5  1  0
  5  6  2  0
  6  7  1  0
  7  8  1  0
  8  9  1  0
  6 10  1  0
 10 11  2  0
 11 12  1  0
 12 13  1  0
 13 14  2  0
 14 15  1  0
 15 16  2  0
 16 17  1  0
 17 18  1  0
 17 19  1  1
 16 20  1  0
 20 21  2  0
 12  5  1  0
 21 13  1  0
  9  7  1  0
  1 22  1  0
  1 23  1  0
  1 24  1  0
  2 25  1  0
  2 26  1  0
  4 27  1  0
  4 28  1  0
  7 29  1  0
  8 30  1  0
  8 31  1  0
  9 32  1  0
  9 33  1  0
 11 34  1  0
 14 35  1  0
 15 36  1  0
 18 37  1  0
 18 38  1  0
 18 39  1  0
 19 40  1  0
 20 41  1  0
 21 42  1  0
M  CHG  1  17   1
M  END
>  <UniqueID>  (27) 
25

>  <SMILES>  (27) 
CCOCc1c(C2CC2)ncn1-c1ccc([S@@+](C)O)cc1

>  <Energy>  (27) 
334.40033689512677

>  <Genealogy>  (27) 
CCOCc1c(C2CC2)ncn1-c1ccc([S+](C)O)cc1 (protonated)
CCOCc1c(C2CC2)ncn1-c1ccc([S@@+](C)O)cc1 (chirality)
CCOCc1c(C2CC2)ncn1-c1ccc([S@@+](C)O)cc1 (3D coordinates assigned)
CCOCc1c(C2CC2)ncn1-c1ccc([S@@+](C)O)cc1 (nonaromatic ring conformer: 334.40033689512677 kcal/mol)

>  <smiles>  (27) 
CCOCc1c(C2CC2)ncn1-c1ccc([S+](C)[O-])cc1

>  <score_type>  (27) 
oracle

>  <origin>  (27) 
adg

>  <m_score__min__energy>  (27) 
-6.9699999999999998

>  <m_primary>  (27) 
energy

$$$$
27:0
     RDKit          3D

 41 43  0  0  0  0  0  0  0  0999 V2000
   -2.5600   22.4140  -30.4690 C   0  0  0  0  0  0  0  0  0  0  0  0
   -2.3920   23.7440  -29.7280 C   0  0  0  0  0  0  0  0  0  0  0  0
   -3.3850   24.7450  -30.1460 N   0  0  0  0  0  0  0  0  0  0  0  0
   -4.7720   24.3810  -29.7840 C   0  0  0  0  0  0  0  0  0  0  0  0
   -5.7170   24.3690  -31.0110 C   0  0  2  0  0  0  0  0  0  0  0  0
   -7.1880   24.2810  -30.5790 C   0  0  0  0  0  0  0  0  0  0  0  0
   -7.5690   22.8130  -30.6920 C   0  0  0  0  0  0  0  0  0  0  0  0
   -6.5830   22.2140  -31.5780 N   0  0  0  0  0  0  0  0  0  0  0  0
   -6.6740   20.8610  -32.0840 C   0  0  0  0  0  0  0  0  0  0  0  0
   -7.7590   20.0380  -31.7270 C   0  0  0  0  0  0  0  0  0  0  0  0
   -7.8370   18.7350  -32.2160 C   0  0  0  0  0  0  0  0  0  0  0  0
   -6.8390   18.2470  -33.0630 C   0  0  0  0  0  0  0  0  0  0  0  0
   -6.8940   16.9410  -33.5700 C   0  0  0  0  0  0  0  0  0  0  0  0
   -5.8840   16.4750  -34.4160 C   0  0  0  0  0  0  0  0  0  0  0  0
   -4.8160   17.3080  -34.7610 C   0  0  0  0  0  0  0  0  0  0  0  0
   -4.7530   18.6120  -34.2600 C   0  0  0  0  0  0  0  0  0  0  0  0
   -5.7610   19.0930  -33.4080 C   0  0  0  0  0  0  0  0  0  0  0  0
   -5.7060   20.3650  -32.9140 N   0  0  0  0  0  0  0  0  0  0  0  0
   -5.4980   23.1320  -31.8930 C   0  0  0  0  0  0  0  0  0  0  0  0
   -2.6631   21.5979  -29.7387 H   0  0  0  0  0  0  0  0  0  0  0  0
   -3.4598   22.4571  -31.1002 H   0  0  0  0  0  0  0  0  0  0  0  0
   -1.6777   22.2319  -31.1002 H   0  0  0  0  0  0  0  0  0  0  0  0
   -2.5038   23.5641  -28.6486 H   0  0  0  0  0  0  0  0  0  0  0  0
   -1.3940   24.1393  -29.9681 H   0  0  0  0  0  0  0  0  0  0  0  0
   -3.1120   25.6820  -29.7690 H   0  0  0  0  0  0  0  0  0  0  0  0
   -4.7677   23.3785  -29.3312 H   0  0  0  0  0  0  0  0  0  0  0  0
   -5.1454   25.1389  -29.0797 H   0  0  0  0  0  0  0  0  0  0  0  0
   -5.4940   25.2995  -31.5537 H   0  0  0  0  0  0  0  0  0  0  0  0
   -7.3033   24.6274  -29.5413 H   0  0  0  0  0  0  0  0  0  0  0  0
   -7.8317   24.9146  -31.2069 H   0  0  0  0  0  0  0  0  0  0  0  0
   -7.5376   22.3320  -29.7032 H   0  0  0  0  0  0  0  0  0  0  0  0
   -8.5905   22.6889  -31.0807 H   0  0  0  0  0  0  0  0  0  0  0  0
   -8.5457   20.4234  -31.0618 H   0  0  0  0  0  0  0  0  0  0  0  0
   -8.6838   18.0915  -31.9352 H   0  0  0  0  0  0  0  0  0  0  0  0
   -7.7331   16.2824  -33.3016 H   0  0  0  0  0  0  0  0  0  0  0  0
   -5.9297   15.4496  -34.8116 H   0  0  0  0  0  0  0  0  0  0  0  0
   -4.0236   16.9372  -35.4278 H   0  0  0  0  0  0  0  0  0  0  0  0
   -3.9105   19.2639  -34.5342 H   0  0  0  0  0  0  0  0  0  0  0  0
   -4.9020   20.9720  -33.1920 H   0  0  0  0  0  0  0  0  0  0  0  0
   -4.5271   22.6679  -31.6653 H   0  0  0  0  0  0  0  0  0  0  0  0
   -5.4923   23.3959  -32.9609 H   0  0  0  0  0  0  0  0  0  0  0  0
  1  2  1  0
  2  3  1  0
  3  4  1  0
  4  5  1  0
  5  6  1  0
  6  7  1  0
  7  8  1  0
  8  9  1  0
  9 10  2  0
 10 11  1  0
 11 12  2  0
 12 13  1  0
 13 14  2  0
 14 15  1  0
 15 16  2  0
 16 17  1  0
 17 18  2  0
  8 19  1  0
 19  5  1  0
 18  9  1  0
 17 12  1  0
  1 20  1  0
  1 21  1  0
  1 22  1  0
  2 23  1  0
  2 24  1  0
  3 25  1  0
  4 26  1  0
  4 27  1  0
  5 28  1  6
  6 29  1  0
  6 30  1  0
  7 31  1  0
  7 32  1  0
 10 33  1  0
 11 34  1  0
 13 35  1  0
 14 36  1  0
 15 37  1  0
 16 38  1  0
 18 39  1  0
 19 40  1  0
 19 41  1  0
M  CHG  1  18   1
M  END
>  <UniqueID>  (28) 
26

>  <SMILES>  (28) 
CCNC[C@@H]1CCN(c2ccc3ccccc3[nH+]2)C1

>  <Energy>  (28) 
47.53298719138595

>  <Genealogy>  (28) 
CCNCC1CCN(c2ccc3ccccc3[nH+]2)C1 (protonated)
CCNC[C@@H]1CCN(c2ccc3ccccc3[nH+]2)C1 (chirality)
CCNC[C@@H]1CCN(c2ccc3ccccc3[nH+]2)C1 (3D coordinates assigned)
CCNC[C@@H]1CCN(c2ccc3ccccc3[nH+]2)C1 (nonaromatic ring conformer: 47.53298719138595 kcal/mol)

>  <smiles>  (28) 
CCNCC1CCN(c2ccc3ccccc3n2)C1

>  <score_type>  (28) 
oracle

>  <origin>  (28) 
adg

>  <m_score__min__energy>  (28) 
-7.3200000000000003

>  <m_primary>  (28) 
energy

$$$$
28:0
     RDKit          3D

 54 57  0  0  0  0  0  0  0  0999 V2000
   -3.0010   19.9010  -33.3610 C   0  0  0  0  0  0  0  0  0  0  0  0
   -2.2220   21.1920  -33.6050 C   0  0  0  0  0  0  0  0  0  0  0  0
   -0.7900   20.8940  -33.9680 C   0  0  0  0  0  0  0  0  0  0  0  0
   -0.4640   20.8880  -35.2900 N   0  0  0  0  0  0  0  0  0  0  0  0
    0.8020   20.6450  -35.7130 C   0  0  0  0  0  0  0  0  0  0  0  0
    1.7840   20.4020  -34.8120 N   0  0  0  0  0  0  0  0  0  0  0  0
    1.5230   20.3930  -33.4810 C   0  0  0  0  0  0  0  0  0  0  0  0
    0.2210   20.6330  -33.0070 C   0  0  0  0  0  0  0  0  0  0  0  0
   -0.0310   20.6020  -31.5460 C   0  0  0  0  0  0  0  0  0  0  0  0
    0.0730   19.5160  -30.9130 O   0  0  0  0  0  0  0  0  0  0  0  0
   -0.3620   21.8110  -30.8430 N   0  0  0  0  0  0  0  0  0  0  0  0
   -0.6710   21.8380  -29.4070 C   0  0  0  0  0  0  0  0  0  0  0  0
   -1.7950   20.8300  -29.1000 C   0  0  0  0  0  0  0  0  0  0  0  0
   -3.1190   21.2600  -29.7500 C   0  0  0  0  0  0  0  0  0  0  0  0
   -3.3510   22.7050  -29.5990 N   0  0  0  0  0  0  0  0  0  0  0  0
   -4.2970   23.3720  -30.4550 C   0  0  0  0  0  0  0  0  0  0  0  0
   -4.0480   24.5320  -30.8820 O   0  0  0  0  0  0  0  0  0  0  0  0
   -5.5380   22.7050  -30.8900 C   0  0  0  0  0  0  0  0  0  0  0  0
   -5.5680   21.4970  -31.5790 C   0  0  0  0  0  0  0  0  0  0  0  0
   -6.9030   21.2330  -31.7870 C   0  0  0  0  0  0  0  0  0  0  0  0
   -7.5220   20.1610  -32.4260 C   0  0  0  0  0  0  0  0  0  0  0  0
   -8.9260   20.1620  -32.5030 C   0  0  0  0  0  0  0  0  0  0  0  0
   -9.6700   21.2260  -31.9490 C   0  0  0  0  0  0  0  0  0  0  0  0
   -9.0180   22.2970  -31.3130 C   0  0  0  0  0  0  0  0  0  0  0  0
   -7.6210   22.2680  -31.2460 C   0  0  0  0  0  0  0  0  0  0  0  0
   -6.7970   23.1850  -30.7000 N   0  0  0  0  0  0  0  0  0  0  0  0
   -7.2000   24.4690  -30.1220 C   0  0  0  0  0  0  0  0  0  0  0  0
   -2.5260   23.4790  -28.6620 C   0  0  0  0  0  0  0  0  0  0  0  0
   -1.0330   23.2830  -28.9680 C   0  0  0  0  0  0  0  0  0  0  0  0
   -3.1024   19.7329  -32.2787 H   0  0  0  0  0  0  0  0  0  0  0  0
   -3.9998   19.9842  -33.8143 H   0  0  0  0  0  0  0  0  0  0  0  0
   -2.4618   19.0561  -33.8143 H   0  0  0  0  0  0  0  0  0  0  0  0
   -2.6943   21.7478  -34.4284 H   0  0  0  0  0  0  0  0  0  0  0  0
   -2.2340   21.7902  -32.6820 H   0  0  0  0  0  0  0  0  0  0  0  0
    1.0313   20.6453  -36.7888 H   0  0  0  0  0  0  0  0  0  0  0  0
    2.3362   20.1964  -32.7668 H   0  0  0  0  0  0  0  0  0  0  0  0
   -0.5440   22.6760  -31.3990 H   0  0  0  0  0  0  0  0  0  0  0  0
    0.2122   21.5353  -28.8253 H   0  0  0  0  0  0  0  0  0  0  0  0
   -1.5078   19.8424  -29.4901 H   0  0  0  0  0  0  0  0  0  0  0  0
   -1.9387   20.7895  -28.0102 H   0  0  0  0  0  0  0  0  0  0  0  0
   -3.0875   21.0133  -30.8215 H   0  0  0  0  0  0  0  0  0  0  0  0
   -3.9389   20.7251  -29.2483 H   0  0  0  0  0  0  0  0  0  0  0  0
   -4.7093   20.8842  -31.8907 H   0  0  0  0  0  0  0  0  0  0  0  0
   -6.9309   19.3394  -32.8569 H   0  0  0  0  0  0  0  0  0  0  0  0
   -9.4474   19.3292  -32.9976 H   0  0  0  0  0  0  0  0  0  0  0  0
  -10.7680   21.2171  -32.0154 H   0  0  0  0  0  0  0  0  0  0  0  0
   -9.5889   23.1322  -30.8813 H   0  0  0  0  0  0  0  0  0  0  0  0
   -7.1783   24.3999  -29.0244 H   0  0  0  0  0  0  0  0  0  0  0  0
   -6.5052   25.2547  -30.4538 H   0  0  0  0  0  0  0  0  0  0  0  0
   -8.2191   24.7167  -30.4538 H   0  0  0  0  0  0  0  0  0  0  0  0
   -2.7772   24.5459  -28.7551 H   0  0  0  0  0  0  0  0  0  0  0  0
   -2.7276   23.1289  -27.6389 H   0  0  0  0  0  0  0  0  0  0  0  0
   -0.7507   23.9729  -29.7769 H   0  0  0  0  0  0  0  0  0  0  0  0
   -0.4845   23.4831  -28.0358 H   0  0  0  0  0  0  0  0  0  0  0  0
  1  2  1  0
  2  3  1  0
  3  4  2  0
  4  5  1  0
  5  6  2  0
  6  7  1  0
  7  8  2  0
  8  9  1  0
  9 10  2  0
  9 11  1  0
 11 12  1  0
 12 13  1  0
 13 14  1  0
 14 15  1  0
 15 16  1  0
 16 17  2  0
 16 18  1  0
 18 19  2  0
 19 20  1  0
 20 21  2  0
 21 22  1  0
 22 23  2  0
 23 24  1  0
 24 25  2  0
 25 26  1  0
 26 27  1  0
 15 28  1  0
 28 29  1  0
  8  3  1  0
 29 12  1  0
 26 18  1  0
 25 20  1  0
  1 30  1  0
  1 31  1  0
  1 32  1  0
  2 33  1  0
  2 34  1  0
  5 35  1  0
  7 36  1  0
 11 37  1  0
 12 38  1  0
 13 39  1  0
 13 40  1  0
 14 41  1  0
 14 42  1  0
 19 43  1  0
 21 44  1  0
 22 45  1  0
 23 46  1  0
 24 47  1  0
 27 48  1  0
 27 49  1  0
 27 50  1  0
 28 51  1  0
 28 52  1  0
 29 53  1  0
 29 54  1  0
M  END
>  <UniqueID>  (29) 
27

>  <SMILES>  (29) 
CCc1ncncc1C(=O)NC1CCN(C(=O)c2cc3ccccc3n2C)CC1

>  <Energy>  (29) 
101.2506124205348

>  <Genealogy>  (29) 
CCc1ncncc1C(=O)NC1CCN(C(=O)c2cc3ccccc3n2C)CC1 (3D coordinates assigned)
CCc1ncncc1C(=O)NC1CCN(C(=O)c2cc3ccccc3n2C)CC1 (nonaromatic ring conformer: 101.2506124205348 kcal/mol)

>  <smiles>  (29) 
CCc1ncncc1C(=O)NC1CCN(C(=O)c2cc3ccccc3n2C)CC1

>  <score_type>  (29) 
oracle

>  <origin>  (29) 
adg

>  <m_score__min__energy>  (29) 
-9.0500000000000007

>  <m_primary>  (29) 
energy

$$$$
29:0
     RDKit          3D

 51 53  0  0  0  0  0  0  0  0999 V2000
   -4.6030   24.9840  -30.2330 C   0  0  0  0  0  0  0  0  0  0  0  0
   -5.0680   24.0960  -29.0690 C   0  0  0  0  0  0  0  0  0  0  0  0
   -4.0110   23.7400  -28.0870 N   0  0  0  0  0  0  0  0  0  0  0  0
   -3.9570   24.5380  -26.8420 C   0  0  0  0  0  0  0  0  0  0  0  0
   -2.5320   24.9990  -26.5530 C   0  0  0  0  0  0  0  0  0  0  0  0
   -3.8150   22.2890  -27.8830 C   0  0  0  0  0  0  0  0  0  0  0  0
   -2.3470   21.8490  -27.9660 C   0  0  0  0  0  0  0  0  0  0  0  0
   -1.6050   22.4640  -29.4640 S   0  0  0  0  0  0  0  0  0  0  0  0
   -1.4590   24.1360  -29.4380 O   0  0  0  0  0  0  0  0  0  0  0  0
   -2.5010   21.9400  -30.8780 C   0  0  0  0  0  0  0  0  0  0  0  0
   -1.8160   21.5270  -32.0250 C   0  0  0  0  0  0  0  0  0  0  0  0
   -2.5420   21.1390  -33.1510 C   0  0  0  0  0  0  0  0  0  0  0  0
   -3.9360   21.1800  -33.1260 C   0  0  0  0  0  0  0  0  0  0  0  0
   -4.5930   21.6160  -31.9660 C   0  0  0  0  0  0  0  0  0  0  0  0
   -6.0720   21.6860  -31.9310 C   0  0  0  0  0  0  0  0  0  0  0  0
   -6.6800   22.9500  -31.9000 C   0  0  0  0  0  0  0  0  0  0  0  0
   -8.0690   23.0760  -31.9180 C   0  0  0  0  0  0  0  0  0  0  0  0
   -8.8760   21.9400  -31.9640 C   0  0  0  0  0  0  0  0  0  0  0  0
   -8.2990   20.6630  -31.9770 C   0  0  0  0  0  0  0  0  0  0  0  0
   -9.1180   19.5230  -32.0070 C   0  0  0  0  0  0  0  0  0  0  0  0
   -8.5510   18.2480  -31.9960 C   0  0  0  0  0  0  0  0  0  0  0  0
   -7.1650   18.0990  -31.9470 C   0  0  0  0  0  0  0  0  0  0  0  0
   -6.3350   19.2210  -31.9190 C   0  0  0  0  0  0  0  0  0  0  0  0
   -6.8850   20.5220  -31.9520 C   0  0  0  0  0  0  0  0  0  0  0  0
   -3.8620   21.9670  -30.8680 N   0  0  0  0  0  0  0  0  0  0  0  0
   -4.1275   25.8921  -29.8341 H   0  0  0  0  0  0  0  0  0  0  0  0
   -3.8786   24.4312  -30.8492 H   0  0  0  0  0  0  0  0  0  0  0  0
   -5.4699   25.2645  -30.8492 H   0  0  0  0  0  0  0  0  0  0  0  0
   -5.8667   24.6286  -28.5320 H   0  0  0  0  0  0  0  0  0  0  0  0
   -5.3994   23.1488  -29.5195 H   0  0  0  0  0  0  0  0  0  0  0  0
   -4.6058   25.4196  -26.9508 H   0  0  0  0  0  0  0  0  0  0  0  0
   -4.2997   23.9099  -26.0065 H   0  0  0  0  0  0  0  0  0  0  0  0
   -2.3764   25.0493  -25.4652 H   0  0  0  0  0  0  0  0  0  0  0  0
   -1.8195   24.2855  -26.9927 H   0  0  0  0  0  0  0  0  0  0  0  0
   -2.3724   25.9946  -26.9927 H   0  0  0  0  0  0  0  0  0  0  0  0
   -4.2021   22.0223  -26.8885 H   0  0  0  0  0  0  0  0  0  0  0  0
   -4.3521   21.7742  -28.6932 H   0  0  0  0  0  0  0  0  0  0  0  0
   -1.7988   22.2465  -27.0991 H   0  0  0  0  0  0  0  0  0  0  0  0
   -2.3010   20.7500  -27.9673 H   0  0  0  0  0  0  0  0  0  0  0  0
   -2.0690   24.4260  -28.7140 H   0  0  0  0  0  0  0  0  0  0  0  0
   -0.7162   21.5083  -32.0391 H   0  0  0  0  0  0  0  0  0  0  0  0
   -2.0165   20.8015  -34.0565 H   0  0  0  0  0  0  0  0  0  0  0  0
   -4.5155   20.8728  -34.0091 H   0  0  0  0  0  0  0  0  0  0  0  0
   -6.0533   23.8532  -31.8610 H   0  0  0  0  0  0  0  0  0  0  0  0
   -8.5292   24.0749  -31.8958 H   0  0  0  0  0  0  0  0  0  0  0  0
   -9.9705   22.0466  -31.9902 H   0  0  0  0  0  0  0  0  0  0  0  0
  -10.2118   19.6354  -32.0393 H   0  0  0  0  0  0  0  0  0  0  0  0
   -9.1981   17.3590  -32.0260 H   0  0  0  0  0  0  0  0  0  0  0  0
   -6.7235   17.0916  -31.9303 H   0  0  0  0  0  0  0  0  0  0  0  0
   -5.2437   19.0912  -31.8708 H   0  0  0  0  0  0  0  0  0  0  0  0
   -4.3550   22.2760  -29.9990 H   0  0  0  0  0  0  0  0  0  0  0  0
  1  2  1  0
  2  3  1  0
  3  4  1  0
  4  5  1  0
  3  6  1  0
  6  7  1  0
  7  8  1  0
  8  9  1  1
  8 10  1  0
 10 11  2  0
 11 12  1  0
 12 13  2  0
 13 14  1  0
 14 15  1  0
 15 16  2  0
 16 17  1  0
 17 18  2  0
 18 19  1  0
 19 20  2  0
 20 21  1  0
 21 22  2  0
 22 23  1  0
 23 24  2  0
 14 25  2  0
 25 10  1  0
 24 15  1  0
 24 19  1  0
  1 26  1  0
  1 27  1  0
  1 28  1  0
  2 29  1  0
  2 30  1  0
  4 31  1  0
  4 32  1  0
  5 33  1  0
  5 34  1  0
  5 35  1  0
  6 36  1  0
  6 37  1  0
  7 38  1  0
  7 39  1  0
  9 40  1  0
 11 41  1  0
 12 42  1  0
 13 43  1  0
 16 44  1  0
 17 45  1  0
 18 46  1  0
 20 47  1  0
 21 48  1  0
 22 49  1  0
 23 50  1  0
 25 51  1  0
M  CHG  2   8   1  25   1
M  END
>  <UniqueID>  (30) 
28

>  <SMILES>  (30) 
CCN(CC)CC[S@+](O)c1cccc(-c2cccc3ccccc23)[nH+]1

>  <Energy>  (30) 
62.776364379236966

>  <Genealogy>  (30) 
CCN(CC)CC[S+](O)c1cccc(-c2cccc3ccccc23)[nH+]1 (protonated)
CCN(CC)CC[S@+](O)c1cccc(-c2cccc3ccccc23)[nH+]1 (chirality)
CCN(CC)CC[S@+](O)c1cccc(-c2cccc3ccccc23)[nH+]1 (3D coordinates assigned)
CCN(CC)CC[S@+](O)c1cccc(-c2cccc3ccccc23)[nH+]1 (optimized conformer: 62.776364379236966 kcal/mol)

>  <smiles>  (30) 
CCN(CC)CC[S+]([O-])c1cccc(-c2cccc3ccccc23)n1

>  <score_type>  (30) 
oracle

>  <origin>  (30) 
adg

>  <m_score__min__energy>  (30) 
-7.4100000000000001

>  <m_primary>  (30) 
energy

$$$$
30:0
     RDKit          3D

 44 47  0  0  0  0  0  0  0  0999 V2000
   -8.7020   21.5080  -30.9090 C   0  0  0  0  0  0  0  0  0  0  0  0
   -7.7290   21.0760  -31.9130 N   0  0  0  0  0  0  0  0  0  0  0  0
   -6.7850   21.8320  -32.5450 C   0  0  0  0  0  0  0  0  0  0  0  0
   -6.5580   23.2990  -32.3150 C   0  0  0  0  0  0  0  0  0  0  0  0
   -6.3400   23.5530  -30.8800 N   0  0  0  0  0  0  0  0  0  0  0  0
   -6.4330   24.9600  -30.4900 C   0  0  0  0  0  0  0  0  0  0  0  0
   -5.7380   25.0770  -29.1390 C   0  0  0  0  0  0  0  0  0  0  0  0
   -4.9150   23.8010  -28.9820 C   0  0  0  0  0  0  0  0  0  0  0  0
   -5.0910   23.0360  -30.2960 C   0  0  2  0  0  0  0  0  0  0  0  0
   -3.8290   23.1240  -31.2100 C   0  0  0  0  0  0  0  0  0  0  0  0
   -3.5130   21.8750  -31.9110 N   0  0  0  0  0  0  0  0  0  0  0  0
   -3.3780   20.6610  -31.3430 C   0  0  0  0  0  0  0  0  0  0  0  0
   -2.9830   19.7670  -32.3120 C   0  0  0  0  0  0  0  0  0  0  0  0
   -2.8710   20.5220  -33.4620 C   0  0  0  0  0  0  0  0  0  0  0  0
   -3.1830   21.8040  -33.1900 N   0  0  0  0  0  0  0  0  0  0  0  0
   -5.9790   21.0910  -33.3450 N   0  0  0  0  0  0  0  0  0  0  0  0
   -6.4270   19.8350  -33.2030 C   0  0  0  0  0  0  0  0  0  0  0  0
   -5.9250   18.6730  -33.7830 C   0  0  0  0  0  0  0  0  0  0  0  0
   -6.5430   17.4550  -33.4460 C   0  0  0  0  0  0  0  0  0  0  0  0
   -7.6280   17.4300  -32.5410 C   0  0  0  0  0  0  0  0  0  0  0  0
   -8.1080   18.6220  -31.9670 C   0  0  0  0  0  0  0  0  0  0  0  0
   -7.4810   19.8170  -32.3300 C   0  0  0  0  0  0  0  0  0  0  0  0
   -8.2955   21.3275  -29.9029 H   0  0  0  0  0  0  0  0  0  0  0  0
   -8.9065   22.5815  -31.0347 H   0  0  0  0  0  0  0  0  0  0  0  0
   -9.6354   20.9397  -31.0347 H   0  0  0  0  0  0  0  0  0  0  0  0
   -5.6732   23.6246  -32.8817 H   0  0  0  0  0  0  0  0  0  0  0  0
   -7.4422   23.8599  -32.6522 H   0  0  0  0  0  0  0  0  0  0  0  0
   -5.9294   25.5953  -31.2335 H   0  0  0  0  0  0  0  0  0  0  0  0
   -7.4808   25.2895  -30.4301 H   0  0  0  0  0  0  0  0  0  0  0  0
   -5.0825   25.9601  -29.1208 H   0  0  0  0  0  0  0  0  0  0  0  0
   -6.4629   25.1943  -28.3199 H   0  0  0  0  0  0  0  0  0  0  0  0
   -3.8550   24.0450  -28.8184 H   0  0  0  0  0  0  0  0  0  0  0  0
   -5.2446   23.2069  -28.1169 H   0  0  0  0  0  0  0  0  0  0  0  0
   -5.1813   21.9498  -30.1478 H   0  0  0  0  0  0  0  0  0  0  0  0
   -4.0000   23.9089  -31.9615 H   0  0  0  0  0  0  0  0  0  0  0  0
   -2.9748   23.3458  -30.5534 H   0  0  0  0  0  0  0  0  0  0  0  0
   -3.5538   20.4241  -30.2833 H   0  0  0  0  0  0  0  0  0  0  0  0
   -2.7975   18.6890  -32.1957 H   0  0  0  0  0  0  0  0  0  0  0  0
   -2.5730   20.1365  -34.4482 H   0  0  0  0  0  0  0  0  0  0  0  0
   -5.1660   21.4190  -33.9140 H   0  0  0  0  0  0  0  0  0  0  0  0
   -5.0749   18.7062  -34.4803 H   0  0  0  0  0  0  0  0  0  0  0  0
   -6.1794   16.5164  -33.8896 H   0  0  0  0  0  0  0  0  0  0  0  0
   -8.1013   16.4711  -32.2831 H   0  0  0  0  0  0  0  0  0  0  0  0
   -8.9480   18.6133  -31.2569 H   0  0  0  0  0  0  0  0  0  0  0  0
  1  2  1  0
  2  3  1  0
  3  4  1  0
  4  5  1  0
  5  6  1  0
  6  7  1  0
  7  8  1  0
  8  9  1  0
  9 10  1  0
 10 11  1  0
 11 12  1  0
 12 13  2  0
 13 14  1  0
 14 15  2  0
  3 16  2  0
 16 17  1  0
 17 18  2  0
 18 19  1  0
 19 20  2  0
 20 21  1  0
 21 22  2  0
 22  2  1  0
  9  5  1  0
 15 11  1  0
 22 17  1  0
  1 23  1  0
  1 24  1  0
  1 25  1  0
  4 26  1  0
  4 27  1  0
  6 28  1  0
  6 29  1  0
  7 30  1  0
  7 31  1  0
  8 32  1  0
  8 33  1  0
  9 34  1  1
 10 35  1  0
 10 36  1  0
 12 37  1  0
 13 38  1  0
 14 39  1  0
 16 40  1  0
 18 41  1  0
 19 42  1  0
 20 43  1  0
 21 44  1  0
M  CHG  1  16   1
M  END
>  <UniqueID>  (31) 
29

>  <SMILES>  (31) 
Cn1c(CN2CCC[C@@H]2Cn2cccn2)[nH+]c2ccccc21

>  <Energy>  (31) 
121.58971676530687

>  <Genealogy>  (31) 
Cn1c(CN2CCCC2Cn2cccn2)[nH+]c2ccccc21 (protonated)
Cn1c(CN2CCC[C@@H]2Cn2cccn2)[nH+]c2ccccc21 (chirality)
Cn1c(CN2CCC[C@@H]2Cn2cccn2)[nH+]c2ccccc21 (3D coordinates assigned)
Cn1c(CN2CCC[C@@H]2Cn2cccn2)[nH+]c2ccccc21 (nonaromatic ring conformer: 121.58971676530687 kcal/mol)

>  <smiles>  (31) 
Cn1c(CN2CCCC2Cn2cccn2)nc2ccccc21

>  <score_type>  (31) 
oracle

>  <origin>  (31) 
adg

>  <m_score__min__energy>  (31) 
-6.79

>  <m_primary>  (31) 
energy

$$$$
